# generated using pymatgen
data_Cs2TmCl5O
_symmetry_space_group_name_H-M   'P 1'
_cell_length_a   8.10593400
_cell_length_b   11.10174700
_cell_length_c   14.49938800
_cell_angle_alpha   90.00000000
_cell_angle_beta   90.00000000
_cell_angle_gamma   90.00000000
_symmetry_Int_Tables_number   1
_chemical_formula_structural   Cs2TmCl5O
_chemical_formula_sum   'Cs8 Tm4 Cl20 O4'
_cell_volume   1304.80033887
_cell_formula_units_Z   4
loop_
 _symmetry_equiv_pos_site_id
 _symmetry_equiv_pos_as_xyz
  1  'x, y, z'
loop_
 _atom_site_type_symbol
 _atom_site_label
 _atom_site_symmetry_multiplicity
 _atom_site_fract_x
 _atom_site_fract_y
 _atom_site_fract_z
 _atom_site_occupancy
  Cs  Cs0  1  0.83493700  0.49294000  0.86123300  1
  Cs  Cs1  1  0.16506300  0.50706000  0.13876700  1
  Cs  Cs2  1  0.33493700  0.50706000  0.63876700  1
  Cs  Cs3  1  0.16506300  0.99294000  0.13876700  1
  Cs  Cs4  1  0.66506300  0.49294000  0.36123300  1
  Cs  Cs5  1  0.83493700  0.00706000  0.86123300  1
  Cs  Cs6  1  0.66506300  0.00706000  0.36123300  1
  Cs  Cs7  1  0.33493700  0.99294000  0.63876700  1
  Tm  Tm0  1  0.77871200  0.75000000  0.61409300  1
  Tm  Tm1  1  0.22128800  0.25000000  0.38590700  1
  Tm  Tm2  1  0.27871200  0.25000000  0.88590700  1
  Tm  Tm3  1  0.72128800  0.75000000  0.11409300  1
  Cl  Cl0  1  0.54047200  0.75000000  0.49738000  1
  Cl  Cl1  1  0.45952800  0.25000000  0.50262000  1
  Cl  Cl2  1  0.04047200  0.25000000  0.00262000  1
  Cl  Cl3  1  0.95952800  0.75000000  0.99738000  1
  Cl  Cl4  1  0.07383800  0.75000000  0.70414700  1
  Cl  Cl5  1  0.92616200  0.25000000  0.29585300  1
  Cl  Cl6  1  0.57383800  0.25000000  0.79585300  1
  Cl  Cl7  1  0.42616200  0.75000000  0.20414700  1
  Cl  Cl8  1  0.81415100  0.51971700  0.59905700  1
  Cl  Cl9  1  0.18584900  0.48028300  0.40094300  1
  Cl  Cl10  1  0.31415100  0.48028300  0.90094300  1
  Cl  Cl11  1  0.18584900  0.01971700  0.40094300  1
  Cl  Cl12  1  0.68584900  0.51971700  0.09905700  1
  Cl  Cl13  1  0.81415100  0.98028300  0.59905700  1
  Cl  Cl14  1  0.68584900  0.98028300  0.09905700  1
  Cl  Cl15  1  0.31415100  0.01971700  0.90094300  1
  Cl  Cl16  1  0.61259900  0.75000000  0.76473100  1
  Cl  Cl17  1  0.38740100  0.25000000  0.23526900  1
  Cl  Cl18  1  0.11259900  0.25000000  0.73526900  1
  Cl  Cl19  1  0.88740100  0.75000000  0.26473100  1
  O  O0  1  0.02174900  0.75000000  0.53997300  1
  O  O1  1  0.97825100  0.25000000  0.46002700  1
  O  O2  1  0.52174900  0.25000000  0.96002700  1
  O  O3  1  0.47825100  0.75000000  0.03997300  1
loop_
_geom_bond_atom_site_label_1
_geom_bond_atom_site_label_2
_geom_bond_distance
_geom_bond_site_symmetry_2
Cl0 Tm0 2.567711 1_555
Cl0 Cs4 3.614011 1_555
Cl0 Cs6 3.614011 1_565
Cl0 Cs7 3.775243 1_555
Cl0 Cs2 3.775243 1_555
Cl1 Tm1 2.567711 1_555
Cl1 Cs2 3.614011 1_555
Cl1 Cs7 3.614011 1_545
Cl1 Cs4 3.775243 1_555
Cl1 Cs6 3.775243 1_555
Cl2 Tm2 2.567711 1_554
Cl2 Cs3 3.614011 1_545
Cl2 Cs1 3.614011 1_555
Cl2 Cs5 3.775243 1_454
Cl2 Cs0 3.775243 1_454
Cl3 Tm3 2.567711 1_556
Cl3 Cs0 3.614011 1_555
Cl3 Cs5 3.614011 1_565
Cl3 Cs3 3.775243 1_656
Cl3 Cs1 3.775243 1_656
Cl4 O0 2.417579 1_555
Cl4 Tm0 2.725416 1_455
Cl4 Cs7 3.556984 1_555
Cl4 Cs2 3.556984 1_555
Cl4 Cs5 4.133043 1_465
Cl4 Cs0 4.133043 1_455
Cl5 O1 2.417579 1_555
Cl5 Tm1 2.725416 1_655
Cl5 Cs6 3.556984 1_555
Cl5 Cs4 3.556984 1_555
Cl5 Cs1 4.133043 1_655
Cl5 Cs3 4.133043 1_645
Cl6 O2 2.417579 1_555
Cl6 Tm2 2.725416 1_555
Cl6 Cs0 3.556984 1_555
Cl6 Cs5 3.556984 1_555
Cl6 Cs7 4.133043 1_545
Cl6 Cs2 4.133043 1_555
Cl7 O3 2.417579 1_555
Cl7 Tm3 2.725416 1_555
Cl7 Cs3 3.556984 1_555
Cl7 Cs1 3.556984 1_555
Cl7 Cs4 4.133043 1_555
Cl7 Cs6 4.133043 1_565
Cl8 Tm0 2.581853 1_555
Cl8 Cs4 3.666010 1_555
Cl8 Cs0 3.816718 1_555
Cl8 Cs2 3.929430 1_555
Cl9 Tm1 2.581853 1_555
Cl9 Cs2 3.666010 1_555
Cl9 Cs1 3.816718 1_555
Cl9 Cs4 3.929430 1_555
Cl10 Tm2 2.581853 1_555
Cl10 Cs1 3.666010 1_556
Cl10 Cs2 3.816718 1_555
Cl10 Cs0 3.929430 1_455
Cl11 Tm1 2.581853 1_555
Cl11 Cs7 3.666010 1_545
Cl11 Cs3 3.816718 1_545
Cl11 Cs6 3.929430 1_555
Cl12 Tm3 2.581853 1_555
Cl12 Cs0 3.666010 1_554
Cl12 Cs4 3.816718 1_555
Cl12 Cs1 3.929430 1_655
Cl13 Tm0 2.581853 1_555
Cl13 Cs6 3.666010 1_565
Cl13 Cs5 3.816718 1_565
Cl13 Cs7 3.929430 1_555
Cl14 Tm3 2.581853 1_555
Cl14 Cs5 3.666010 1_564
Cl14 Cs6 3.816718 1_565
Cl14 Cs3 3.929430 1_655
Cl15 Tm2 2.581853 1_555
Cl15 Cs3 3.666010 1_546
Cl15 Cs7 3.816718 1_545
Cl15 Cs5 3.929430 1_455
Cl16 Tm0 2.565856 1_555
Cl16 Cs0 3.653794 1_555
Cl16 Cs5 3.653794 1_565
Cl16 Cs2 3.959237 1_555
Cl16 Cs7 3.959237 1_555
Cl17 Tm1 2.565856 1_555
Cl17 Cs3 3.653794 1_545
Cl17 Cs1 3.653794 1_555
Cl17 Cs6 3.959237 1_555
Cl17 Cs4 3.959237 1_555
Cl18 Tm2 2.565856 1_555
Cl18 Cs2 3.653794 1_555
Cl18 Cs7 3.653794 1_545
Cl18 Cs0 3.959237 1_455
Cl18 Cs5 3.959237 1_455
Cl19 Tm3 2.565856 1_555
Cl19 Cs4 3.653794 1_555
Cl19 Cs6 3.653794 1_565
Cl19 Cs1 3.959237 1_655
Cl19 Cs3 3.959237 1_655
O0 Tm0 2.244111 1_455
O1 Tm1 2.244111 1_655
O2 Tm2 2.244111 1_555
O3 Tm3 2.244111 1_555
