# generated using pymatgen
data_ErFeNi4
_symmetry_space_group_name_H-M   'P 1'
_cell_length_a   4.88855901
_cell_length_b   4.88855901
_cell_length_c   3.91249700
_cell_angle_alpha   90.00000000
_cell_angle_beta   90.00000000
_cell_angle_gamma   119.99998655
_symmetry_Int_Tables_number   1
_chemical_formula_structural   ErFeNi4
_chemical_formula_sum   'Er1 Fe1 Ni4'
_cell_volume   80.97415623
_cell_formula_units_Z   1
loop_
 _symmetry_equiv_pos_site_id
 _symmetry_equiv_pos_as_xyz
  1  'x, y, z'
loop_
 _atom_site_type_symbol
 _atom_site_label
 _atom_site_symmetry_multiplicity
 _atom_site_fract_x
 _atom_site_fract_y
 _atom_site_fract_z
 _atom_site_occupancy
  Er  Er0  1  0.66666700  0.33333300  0.00000000  1
  Fe  Fe0  1  0.33333300  0.66666700  0.00000000  1
  Ni  Ni0  1  0.00000000  0.00000000  0.00000000  1
  Ni  Ni1  1  0.16648000  0.83352000  0.50000000  1
  Ni  Ni2  1  0.16648000  0.33295900  0.50000000  1
  Ni  Ni3  1  0.66704100  0.83352000  0.50000000  1
loop_
_geom_bond_atom_site_label_1
_geom_bond_atom_site_label_2
_geom_bond_distance
_geom_bond_site_symmetry_2
Er0 Ni0 2.822408 1_655
Er0 Fe0 2.822408 1_545
Er0 Fe0 2.822408 1_655
Er0 Ni0 2.822413 1_555
Er0 Ni0 2.822413 1_665
Er0 Fe0 2.822416 1_555
Er0 Ni2 3.130721 1_654
Er0 Ni2 3.130721 1_655
Er0 Ni3 3.130721 1_545
Er0 Ni3 3.130721 1_544
Er0 Ni2 3.130721 1_554
Er0 Ni2 3.130721 1_555
Er0 Ni3 3.130721 1_554
Er0 Ni3 3.130721 1_555
Er0 Ni1 3.130721 1_654
Er0 Ni1 3.130721 1_545
Er0 Ni1 3.130721 1_655
Er0 Ni1 3.130721 1_544
Fe0 Ni1 2.413061 1_555
Fe0 Ni1 2.413061 1_554
Fe0 Ni3 2.413066 1_555
Fe0 Ni2 2.413066 1_554
Fe0 Ni2 2.413066 1_555
Fe0 Ni3 2.413066 1_554
Fe0 Ni0 2.822408 1_565
Fe0 Ni0 2.822413 1_555
Fe0 Ni0 2.822413 1_665
Ni0 Ni3 2.411211 1_444
Ni0 Ni3 2.411211 1_445
Ni0 Ni2 2.411211 1_554
Ni0 Ni2 2.411211 1_555
Ni0 Ni1 2.411213 1_544
Ni0 Ni1 2.411213 1_545
Ni1 Ni2 2.441537 1_565
Ni1 Ni3 2.441537 1_455
Ni1 Ni3 2.447022 1_555
Ni1 Ni2 2.447022 1_555
Ni2 Ni3 2.441538 1_445
Ni2 Ni3 2.447022 1_555
