# generated using pymatgen
data_Cs2NaGaP2
_symmetry_space_group_name_H-M   'P 1'
_cell_length_a   9.41879321
_cell_length_b   9.41879321
_cell_length_c   9.41879321
_cell_angle_alpha   139.36585794
_cell_angle_beta   137.36350278
_cell_angle_gamma   60.35997470
_symmetry_Int_Tables_number   1
_chemical_formula_structural   Cs2NaGaP2
_chemical_formula_sum   'Cs4 Na2 Ga2 P4'
_cell_volume   364.70873012
_cell_formula_units_Z   2
loop_
 _symmetry_equiv_pos_site_id
 _symmetry_equiv_pos_as_xyz
  1  'x, y, z'
loop_
 _atom_site_type_symbol
 _atom_site_label
 _atom_site_symmetry_multiplicity
 _atom_site_fract_x
 _atom_site_fract_y
 _atom_site_fract_z
 _atom_site_occupancy
  Cs  Cs0  1  0.56739100  0.32805700  0.23933400  1
  Cs  Cs1  1  0.43260900  0.67194300  0.76066600  1
  Cs  Cs2  1  0.08872400  0.82805700  0.26066600  1
  Cs  Cs3  1  0.91127600  0.17194300  0.73933400  1
  Na  Na0  1  0.50000000  0.25000000  0.75000000  1
  Na  Na1  1  0.50000000  0.75000000  0.25000000  1
  Ga  Ga0  1  0.00000000  0.25000000  0.25000000  1
  Ga  Ga1  1  0.00000000  0.75000000  0.75000000  1
  P  P0  1  0.27725200  0.08035000  0.19690200  1
  P  P1  1  0.72274800  0.91965000  0.80309800  1
  P  P2  1  0.88344800  0.58035000  0.30309800  1
  P  P3  1  0.11655200  0.41965000  0.69690200  1
loop_
_geom_bond_atom_site_label_1
_geom_bond_atom_site_label_2
_geom_bond_distance
_geom_bond_site_symmetry_2
Cs0 P3 3.470450 1_655
Cs0 P1 3.620839 1_555
Cs0 P1 3.620839 1_544
Cs0 Na0 3.633177 1_554
Cs0 Na1 3.633177 1_555
Cs0 Ga1 3.701379 1_655
Cs0 Ga0 3.701379 1_655
Cs0 P3 4.003018 1_554
Cs0 P0 4.044154 1_555
Cs1 P2 3.470450 1_455
Cs1 P0 3.620839 1_555
Cs1 P0 3.620839 1_566
Cs1 Na0 3.633177 1_555
Cs1 Na1 3.633177 1_556
Cs1 Ga1 3.701379 1_555
Cs1 Ga0 3.701379 1_555
Cs1 P2 4.003018 1_556
Cs1 P1 4.044154 1_555
Cs2 P1 3.470450 1_454
Cs2 P3 3.620833 1_554
Cs2 P3 3.620839 1_565
Cs2 Na1 3.633167 1_555
Cs2 Na0 3.633170 1_565
Cs2 Ga1 3.701373 1_554
Cs2 Ga0 3.701376 1_565
Cs2 P1 4.003012 1_555
Cs2 P2 4.044162 1_455
Cs3 P0 3.470450 1_656
Cs3 P2 3.620833 1_556
Cs3 P2 3.620839 1_545
Cs3 Na0 3.633167 1_555
Cs3 Na1 3.633170 1_545
Cs3 Ga0 3.701373 1_656
Cs3 Ga1 3.701376 1_645
Cs3 P0 4.003012 1_555
Cs3 P3 4.044162 1_655
Na0 P0 2.948631 1_555
Na0 P2 2.948631 1_556
Na0 P1 2.948631 1_545
Na0 P3 2.948631 1_555
Na1 P0 2.948631 1_565
Na1 P1 2.948631 1_555
Na1 P3 2.948631 1_554
Na1 P2 2.948631 1_555
Ga0 P1 2.490808 1_444
Ga0 P0 2.490808 1_555
Ga0 P3 2.490808 1_555
Ga0 P2 2.490808 1_455
Ga1 P0 2.490808 1_566
Ga1 P3 2.490808 1_555
Ga1 P1 2.490808 1_455
Ga1 P2 2.490808 1_455
