# generated using pymatgen
data_Cu2C4NCl3
_symmetry_space_group_name_H-M   'P 1'
_cell_length_a   6.05393600
_cell_length_b   9.01837000
_cell_length_c   14.79678400
_cell_angle_alpha   90.00000000
_cell_angle_beta   90.00000000
_cell_angle_gamma   90.00000000
_symmetry_Int_Tables_number   1
_chemical_formula_structural   Cu2C4NCl3
_chemical_formula_sum   'Cu8 C16 N4 Cl12'
_cell_volume   807.85461233
_cell_formula_units_Z   4
loop_
 _symmetry_equiv_pos_site_id
 _symmetry_equiv_pos_as_xyz
  1  'x, y, z'
loop_
 _atom_site_type_symbol
 _atom_site_label
 _atom_site_symmetry_multiplicity
 _atom_site_fract_x
 _atom_site_fract_y
 _atom_site_fract_z
 _atom_site_occupancy
  Cu  Cu0  1  0.50766300  0.07609300  0.09299200  1
  Cu  Cu1  1  0.99233700  0.42390700  0.59299200  1
  Cu  Cu2  1  0.00766300  0.92390700  0.90700800  1
  Cu  Cu3  1  0.49233700  0.57609300  0.40700800  1
  Cu  Cu4  1  0.49233700  0.92390700  0.90700800  1
  Cu  Cu5  1  0.00766300  0.57609300  0.40700800  1
  Cu  Cu6  1  0.99233700  0.07609300  0.09299200  1
  Cu  Cu7  1  0.50766300  0.42390700  0.59299200  1
  C  C0  1  0.25000000  0.42953800  0.19958900  1
  C  C1  1  0.25000000  0.07046200  0.69958900  1
  C  C2  1  0.75000000  0.57046200  0.80041100  1
  C  C3  1  0.75000000  0.92953800  0.30041100  1
  C  C4  1  0.25000000  0.48466800  0.10049600  1
  C  C5  1  0.25000000  0.01533200  0.60049600  1
  C  C6  1  0.75000000  0.51533200  0.89950400  1
  C  C7  1  0.75000000  0.98466800  0.39950400  1
  C  C8  1  0.05571800  0.56830400  0.13092900  1
  C  C9  1  0.44428200  0.93169600  0.63092900  1
  C  C10  1  0.55571800  0.43169600  0.86907100  1
  C  C11  1  0.94428200  0.06830400  0.36907100  1
  C  C12  1  0.94428200  0.43169600  0.86907100  1
  C  C13  1  0.55571800  0.06830400  0.36907100  1
  C  C14  1  0.44428200  0.56830400  0.13092900  1
  C  C15  1  0.05571800  0.93169600  0.63092900  1
  N  N0  1  0.25000000  0.59948000  0.19153800  1
  N  N1  1  0.25000000  0.90052000  0.69153800  1
  N  N2  1  0.75000000  0.40052000  0.80846200  1
  N  N3  1  0.75000000  0.09948000  0.30846200  1
  Cl  Cl0  1  0.25000000  0.11714700  0.95666100  1
  Cl  Cl1  1  0.25000000  0.38285300  0.45666100  1
  Cl  Cl2  1  0.75000000  0.88285300  0.04333900  1
  Cl  Cl3  1  0.75000000  0.61714700  0.54333900  1
  Cl  Cl4  1  0.75000000  0.25933400  0.08235100  1
  Cl  Cl5  1  0.75000000  0.24066600  0.58235100  1
  Cl  Cl6  1  0.25000000  0.74066600  0.91764900  1
  Cl  Cl7  1  0.25000000  0.75933400  0.41764900  1
  Cl  Cl8  1  0.25000000  0.97727700  0.18002000  1
  Cl  Cl9  1  0.25000000  0.52272300  0.68002000  1
  Cl  Cl10  1  0.75000000  0.02272300  0.81998000  1
  Cl  Cl11  1  0.75000000  0.47727700  0.31998000  1
loop_
_geom_bond_atom_site_label_1
_geom_bond_atom_site_label_2
_geom_bond_distance
_geom_bond_site_symmetry_2
C0 N0 1.537223 1_555
C0 C4 1.548258 1_555
C1 N1 1.537223 1_545
C1 C5 1.548258 1_555
C2 N2 1.537223 1_555
C2 C6 1.548258 1_555
C3 N3 1.537223 1_565
C3 C7 1.548258 1_555
C4 C8 1.468014 1_555
C4 N0 1.699072 1_555
C5 C9 1.468014 1_545
C5 N1 1.699072 1_545
C6 N2 1.699072 1_555
C7 N3 1.699072 1_565
C8 N0 1.505560 1_555
C9 N1 1.505560 1_555
C10 C6 1.468014 1_555
C10 N2 1.505560 1_555
C11 C7 1.468014 1_545
C11 N3 1.505560 1_555
C12 C6 1.468014 1_555
C12 N2 1.505560 1_555
C13 C7 1.468014 1_545
C13 N3 1.505560 1_555
C14 C4 1.468014 1_555
C14 N0 1.505560 1_555
C15 C5 1.468014 1_565
C15 N1 1.505560 1_555
Cl0 Cu2 2.393573 1_545
Cl0 Cu4 2.393573 1_545
Cl0 Cu6 2.576748 1_456
Cl0 Cu0 2.576748 1_556
Cl1 Cu5 2.393573 1_555
Cl1 Cu3 2.393573 1_555
Cl1 Cu1 2.576748 1_455
Cl1 Cu7 2.576748 1_555
Cl2 Cu6 2.393573 1_565
Cl2 Cu0 2.393573 1_565
Cl2 Cu4 2.576748 1_554
Cl2 Cu2 2.576748 1_654
Cl3 Cu1 2.393573 1_555
Cl3 Cu7 2.393573 1_555
Cl3 Cu5 2.576748 1_655
Cl3 Cu3 2.576748 1_555
Cl4 Cu0 2.215406 1_555
Cl4 Cu6 2.215406 1_555
Cl5 Cu1 2.215406 1_555
Cl5 Cu7 2.215406 1_555
Cl6 Cu2 2.215406 1_555
Cl6 Cu4 2.215406 1_555
Cl7 Cu3 2.215406 1_555
Cl7 Cu5 2.215406 1_555
Cl8 Cu0 2.210347 1_565
Cl8 Cu6 2.210347 1_465
Cl9 Cu1 2.210347 1_455
Cl9 Cu7 2.210347 1_555
Cl10 Cu2 2.210347 1_645
Cl10 Cu4 2.210347 1_545
Cl11 Cu3 2.210347 1_555
Cl11 Cu5 2.210347 1_655
