# generated using pymatgen
data_Cs4Os2Cl10O
_symmetry_space_group_name_H-M   'P 1'
_cell_length_a   12.00212500
_cell_length_b   12.67609100
_cell_length_c   14.20922800
_cell_angle_alpha   90.00000000
_cell_angle_beta   90.00000000
_cell_angle_gamma   90.00000000
_symmetry_Int_Tables_number   1
_chemical_formula_structural   Cs4Os2Cl10O
_chemical_formula_sum   'Cs16 Os8 Cl40 O4'
_cell_volume   2161.79235563
_cell_formula_units_Z   4
loop_
 _symmetry_equiv_pos_site_id
 _symmetry_equiv_pos_as_xyz
  1  'x, y, z'
loop_
 _atom_site_type_symbol
 _atom_site_label
 _atom_site_symmetry_multiplicity
 _atom_site_fract_x
 _atom_site_fract_y
 _atom_site_fract_z
 _atom_site_occupancy
  Cs  Cs0  1  0.28761300  0.89552300  0.86324600  1
  Cs  Cs1  1  0.21238700  0.39552300  0.13675400  1
  Cs  Cs2  1  0.78761300  0.10447700  0.63675400  1
  Cs  Cs3  1  0.71238700  0.60447700  0.36324600  1
  Cs  Cs4  1  0.71238700  0.10447700  0.13675400  1
  Cs  Cs5  1  0.78761300  0.60447700  0.86324600  1
  Cs  Cs6  1  0.21238700  0.89552300  0.36324600  1
  Cs  Cs7  1  0.28761300  0.39552300  0.63675400  1
  Cs  Cs8  1  0.02087700  0.78359200  0.63961900  1
  Cs  Cs9  1  0.47912300  0.28359200  0.36038100  1
  Cs  Cs10  1  0.52087700  0.21640800  0.86038100  1
  Cs  Cs11  1  0.97912300  0.71640800  0.13961900  1
  Cs  Cs12  1  0.97912300  0.21640800  0.36038100  1
  Cs  Cs13  1  0.52087700  0.71640800  0.63961900  1
  Cs  Cs14  1  0.47912300  0.78359200  0.13961900  1
  Cs  Cs15  1  0.02087700  0.28359200  0.86038100  1
  Os  Os0  1  0.41387600  0.55444800  0.90635400  1
  Os  Os1  1  0.08612400  0.05444800  0.09364600  1
  Os  Os2  1  0.91387600  0.44555200  0.59364600  1
  Os  Os3  1  0.58612400  0.94555200  0.40635400  1
  Os  Os4  1  0.58612400  0.44555200  0.09364600  1
  Os  Os5  1  0.91387600  0.94555200  0.90635400  1
  Os  Os6  1  0.08612400  0.55444800  0.40635400  1
  Os  Os7  1  0.41387600  0.05444800  0.59364600  1
  Cl  Cl0  1  0.30278500  0.62635100  0.78381900  1
  Cl  Cl1  1  0.19721500  0.12635100  0.21618100  1
  Cl  Cl2  1  0.80278500  0.37364900  0.71618100  1
  Cl  Cl3  1  0.69721500  0.87364900  0.28381900  1
  Cl  Cl4  1  0.69721500  0.37364900  0.21618100  1
  Cl  Cl5  1  0.80278500  0.87364900  0.78381900  1
  Cl  Cl6  1  0.19721500  0.62635100  0.28381900  1
  Cl  Cl7  1  0.30278500  0.12635100  0.71618100  1
  Cl  Cl8  1  0.01890700  0.78411600  0.89913800  1
  Cl  Cl9  1  0.48109300  0.28411600  0.10086200  1
  Cl  Cl10  1  0.51890700  0.21588400  0.60086200  1
  Cl  Cl11  1  0.98109300  0.71588400  0.39913800  1
  Cl  Cl12  1  0.98109300  0.21588400  0.10086200  1
  Cl  Cl13  1  0.51890700  0.71588400  0.89913800  1
  Cl  Cl14  1  0.48109300  0.78411600  0.39913800  1
  Cl  Cl15  1  0.01890700  0.28411600  0.60086200  1
  Cl  Cl16  1  0.21641100  0.63459200  0.51211200  1
  Cl  Cl17  1  0.28358900  0.13459200  0.48788800  1
  Cl  Cl18  1  0.71641100  0.36540800  0.98788800  1
  Cl  Cl19  1  0.78358900  0.86540800  0.01211200  1
  Cl  Cl20  1  0.78358900  0.36540800  0.48788800  1
  Cl  Cl21  1  0.71641100  0.86540800  0.51211200  1
  Cl  Cl22  1  0.28358900  0.63459200  0.01211200  1
  Cl  Cl23  1  0.21641100  0.13459200  0.98788800  1
  Cl  Cl24  1  0.02928700  0.51677700  0.71658400  1
  Cl  Cl25  1  0.47071300  0.01677700  0.28341600  1
  Cl  Cl26  1  0.52928700  0.48322300  0.78341600  1
  Cl  Cl27  1  0.97071300  0.98322300  0.21658400  1
  Cl  Cl28  1  0.97071300  0.48322300  0.28341600  1
  Cl  Cl29  1  0.52928700  0.98322300  0.71658400  1
  Cl  Cl30  1  0.47071300  0.51677700  0.21658400  1
  Cl  Cl31  1  0.02928700  0.01677700  0.78341600  1
  Cl  Cl32  1  0.29762100  0.90084100  0.60389300  1
  Cl  Cl33  1  0.20237900  0.40084100  0.39610700  1
  Cl  Cl34  1  0.79762100  0.09915900  0.89610700  1
  Cl  Cl35  1  0.70237900  0.59915900  0.10389300  1
  Cl  Cl36  1  0.70237900  0.09915900  0.39610700  1
  Cl  Cl37  1  0.79762100  0.59915900  0.60389300  1
  Cl  Cl38  1  0.20237900  0.90084100  0.10389300  1
  Cl  Cl39  1  0.29762100  0.40084100  0.89610700  1
  O  O0  1  0.00000000  0.50000000  0.50000000  1
  O  O1  1  0.50000000  0.00000000  0.50000000  1
  O  O2  1  0.50000000  0.50000000  0.00000000  1
  O  O3  1  0.00000000  0.00000000  0.00000000  1
loop_
_geom_bond_atom_site_label_1
_geom_bond_atom_site_label_2
_geom_bond_distance
_geom_bond_site_symmetry_2
Cl0 Os0 2.374874 1_555
Cl0 Cs13 3.514701 1_555
Cl0 Cs0 3.598467 1_555
Cl0 Cs7 3.600192 1_555
Cl1 Os1 2.374874 1_555
Cl1 Cs12 3.514701 1_455
Cl1 Cs1 3.598467 1_555
Cl1 Cs6 3.600192 1_545
Cl2 Os2 2.374874 1_555
Cl2 Cs15 3.514701 1_655
Cl2 Cs2 3.598467 1_555
Cl2 Cs5 3.600192 1_555
Cl3 Os3 2.374874 1_555
Cl3 Cs14 3.514701 1_555
Cl3 Cs3 3.598467 1_555
Cl3 Cs4 3.600192 1_565
Cl4 Os4 2.374874 1_555
Cl4 Cs9 3.514701 1_555
Cl4 Cs4 3.598467 1_555
Cl4 Cs3 3.600192 1_555
Cl5 Os5 2.374874 1_555
Cl5 Cs8 3.514701 1_655
Cl5 Cs5 3.598467 1_555
Cl5 Cs2 3.600192 1_565
Cl6 Os6 2.374874 1_555
Cl6 Cs11 3.514701 1_455
Cl6 Cs6 3.598467 1_555
Cl6 Cs1 3.600192 1_555
Cl7 Os7 2.374874 1_555
Cl7 Cs10 3.514701 1_555
Cl7 Cs7 3.598467 1_555
Cl7 Cs0 3.600192 1_545
Cl8 Os5 2.405675 1_455
Cl8 Cs11 3.555398 1_456
Cl8 Cs0 3.557432 1_555
Cl8 Cs5 3.626522 1_455
Cl8 Cs8 3.687646 1_555
Cl9 Os4 2.405675 1_555
Cl9 Cs10 3.555398 1_554
Cl9 Cs1 3.557432 1_555
Cl9 Cs4 3.626522 1_555
Cl9 Cs9 3.687646 1_555
Cl10 Os7 2.405675 1_555
Cl10 Cs9 3.555398 1_555
Cl10 Cs2 3.557432 1_555
Cl10 Cs7 3.626522 1_555
Cl10 Cs10 3.687646 1_555
Cl11 Os6 2.405675 1_655
Cl11 Cs8 3.555398 1_655
Cl11 Cs3 3.557432 1_555
Cl11 Cs6 3.626522 1_655
Cl11 Cs11 3.687646 1_555
Cl12 Os1 2.405675 1_655
Cl12 Cs15 3.555398 1_654
Cl12 Cs4 3.557432 1_555
Cl12 Cs1 3.626522 1_655
Cl12 Cs12 3.687646 1_555
Cl13 Os0 2.405675 1_555
Cl13 Cs14 3.555398 1_556
Cl13 Cs5 3.557432 1_555
Cl13 Cs0 3.626522 1_555
Cl13 Cs13 3.687646 1_555
Cl14 Os3 2.405675 1_555
Cl14 Cs13 3.555398 1_555
Cl14 Cs6 3.557432 1_555
Cl14 Cs3 3.626522 1_555
Cl14 Cs14 3.687646 1_555
Cl15 Os2 2.405675 1_455
Cl15 Cs12 3.555398 1_455
Cl15 Cs7 3.557432 1_555
Cl15 Cs2 3.626522 1_455
Cl15 Cs15 3.687646 1_555
Cl16 Os6 2.394896 1_555
Cl16 Cs8 3.515315 1_555
Cl16 Cs7 3.612571 1_555
Cl16 Cs6 3.926426 1_555
Cl17 Os7 2.394896 1_555
Cl17 Cs9 3.515315 1_555
Cl17 Cs6 3.612571 1_545
Cl17 Cs7 3.926426 1_555
Cl18 Os4 2.394896 1_556
Cl18 Cs10 3.515315 1_555
Cl18 Cs5 3.612571 1_555
Cl18 Cs4 3.926426 1_556
Cl19 Os5 2.394896 1_554
Cl19 Cs11 3.515315 1_555
Cl19 Cs4 3.612571 1_565
Cl19 Cs5 3.926426 1_554
Cl20 Os2 2.394896 1_555
Cl20 Cs12 3.515315 1_555
Cl20 Cs3 3.612571 1_555
Cl20 Cs2 3.926426 1_555
Cl21 Os3 2.394896 1_555
Cl21 Cs13 3.515315 1_555
Cl21 Cs2 3.612571 1_565
Cl21 Cs3 3.926426 1_555
Cl22 Os0 2.394896 1_554
Cl22 Cs14 3.515315 1_555
Cl22 Cs1 3.612571 1_555
Cl22 Cs0 3.926426 1_554
Cl23 Os1 2.394896 1_556
Cl23 Cs15 3.515315 1_555
Cl23 Cs0 3.612571 1_545
Cl23 Cs1 3.926426 1_556
Cl24 Os2 2.405278 1_455
Cl24 Cs8 3.556018 1_555
Cl24 Cs15 3.594750 1_555
Cl24 Cs7 3.641703 1_555
Cl24 Cs5 3.740617 1_455
Cl25 Os3 2.405278 1_545
Cl25 Cs9 3.556018 1_555
Cl25 Cs14 3.594750 1_545
Cl25 Cs6 3.641703 1_545
Cl25 Cs4 3.740617 1_555
Cl26 Os0 2.405278 1_555
Cl26 Cs10 3.556018 1_555
Cl26 Cs13 3.594750 1_555
Cl26 Cs5 3.641703 1_555
Cl26 Cs7 3.740617 1_555
Cl27 Os1 2.405278 1_665
Cl27 Cs11 3.556018 1_555
Cl27 Cs12 3.594750 1_565
Cl27 Cs4 3.641703 1_565
Cl27 Cs6 3.740617 1_655
Cl28 Os6 2.405278 1_655
Cl28 Cs12 3.556018 1_555
Cl28 Cs11 3.594750 1_555
Cl28 Cs3 3.641703 1_555
Cl28 Cs1 3.740617 1_655
Cl29 Os7 2.405278 1_565
Cl29 Cs13 3.556018 1_555
Cl29 Cs10 3.594750 1_565
Cl29 Cs2 3.641703 1_565
Cl29 Cs0 3.740617 1_555
Cl30 Os4 2.405278 1_555
Cl30 Cs14 3.556018 1_555
Cl30 Cs9 3.594750 1_555
Cl30 Cs1 3.641703 1_555
Cl30 Cs3 3.740617 1_555
Cl31 Os5 2.405278 1_445
Cl31 Cs15 3.556018 1_555
Cl31 Cs8 3.594750 1_545
Cl31 Cs0 3.641703 1_545
Cl31 Cs2 3.740617 1_455
Cl32 Os7 2.399879 1_565
Cl32 Cs6 3.569790 1_555
Cl32 Cs13 3.592129 1_555
Cl32 Cs8 3.674117 1_555
Cl32 Cs0 3.687779 1_555
Cl33 Os6 2.399879 1_555
Cl33 Cs7 3.569790 1_555
Cl33 Cs12 3.592129 1_455
Cl33 Cs9 3.674117 1_555
Cl33 Cs1 3.687779 1_555
Cl34 Os5 2.399879 1_545
Cl34 Cs4 3.569790 1_556
Cl34 Cs15 3.592129 1_655
Cl34 Cs10 3.674117 1_555
Cl34 Cs2 3.687779 1_555
Cl35 Os4 2.399879 1_555
Cl35 Cs5 3.569790 1_554
Cl35 Cs14 3.592129 1_555
Cl35 Cs11 3.674117 1_555
Cl35 Cs3 3.687779 1_555
Cl36 Os3 2.399879 1_545
Cl36 Cs2 3.569790 1_555
Cl36 Cs9 3.592129 1_555
Cl36 Cs12 3.674117 1_555
Cl36 Cs4 3.687779 1_555
Cl37 Os2 2.399879 1_555
Cl37 Cs3 3.569790 1_555
Cl37 Cs8 3.592129 1_655
Cl37 Cs13 3.674117 1_555
Cl37 Cs5 3.687779 1_555
Cl38 Os1 2.399879 1_565
Cl38 Cs0 3.569790 1_554
Cl38 Cs11 3.592129 1_455
Cl38 Cs14 3.674117 1_555
Cl38 Cs6 3.687779 1_555
Cl39 Os0 2.399879 1_555
Cl39 Cs1 3.569790 1_556
Cl39 Cs10 3.592129 1_555
Cl39 Cs15 3.674117 1_555
Cl39 Cs7 3.687779 1_555
O0 Os6 1.820832 1_555
O0 Os2 1.820832 1_455
O1 Os3 1.820832 1_545
O1 Os7 1.820832 1_555
O2 Os4 1.820832 1_555
O2 Os0 1.820832 1_554
O3 Os1 1.820832 1_555
O3 Os5 1.820832 1_444
