# generated using pymatgen
data_LiY(TlCl3)2
_symmetry_space_group_name_H-M   'P 1'
_cell_length_a   10.26833920
_cell_length_b   10.59269566
_cell_length_c   10.23861871
_cell_angle_alpha   89.98581845
_cell_angle_beta   90.00125519
_cell_angle_gamma   89.93178063
_symmetry_Int_Tables_number   1
_chemical_formula_structural   LiY(TlCl3)2
_chemical_formula_sum   'Li4 Y4 Tl8 Cl24'
_cell_volume   1113.64750878
_cell_formula_units_Z   4
loop_
 _symmetry_equiv_pos_site_id
 _symmetry_equiv_pos_as_xyz
  1  'x, y, z'
loop_
 _atom_site_type_symbol
 _atom_site_label
 _atom_site_symmetry_multiplicity
 _atom_site_fract_x
 _atom_site_fract_y
 _atom_site_fract_z
 _atom_site_occupancy
  Li  Li0  1  0.50006496  0.00012289  0.99990979  1
  Li  Li1  1  0.49990133  0.50016029  0.50032004  1
  Li  Li2  1  0.99998299  0.00000461  0.50006506  1
  Li  Li3  1  0.99999839  0.49992751  0.00000358  1
  Y  Y0  1  0.99996699  0.00003563  0.00007790  1
  Y  Y1  1  0.99996221  0.49990738  0.50011315  1
  Y  Y2  1  0.49985879  0.00019231  0.50023754  1
  Y  Y3  1  0.50005869  0.50028769  0.99987449  1
  Tl  Tl0  1  0.24011312  0.24529549  0.24987534  1
  Tl  Tl1  1  0.25476695  0.24618656  0.75167068  1
  Tl  Tl2  1  0.24000502  0.74494752  0.74988620  1
  Tl  Tl3  1  0.25453702  0.74676144  0.25109280  1
  Tl  Tl4  1  0.74538072  0.25320771  0.74918468  1
  Tl  Tl5  1  0.75896873  0.25554922  0.25056610  1
  Tl  Tl6  1  0.74458596  0.75393975  0.24903827  1
  Tl  Tl7  1  0.76029123  0.75492516  0.75046338  1
  Cl  Cl0  1  0.50191409  0.25137388  0.97086486  1
  Cl  Cl1  1  0.55005197  0.02474890  0.24772404  1
  Cl  Cl2  1  0.25276670  0.00073938  0.05090663  1
  Cl  Cl3  1  0.99960260  0.24973800  0.00244003  1
  Cl  Cl4  1  0.44929834  0.97581653  0.75263841  1
  Cl  Cl5  1  0.74713960  0.99962861  0.94900006  1
  Cl  Cl6  1  0.50000999  0.75129032  0.47129381  1
  Cl  Cl7  1  0.55057985  0.52502188  0.74755412  1
  Cl  Cl8  1  0.25271484  0.49941899  0.55133720  1
  Cl  Cl9  1  0.00049605  0.74964404  0.50284873  1
  Cl  Cl10  1  0.44973362  0.47539079  0.25229937  1
  Cl  Cl11  1  0.74714768  0.50088452  0.44901100  1
  Cl  Cl12  1  0.99892179  0.25025299  0.49750867  1
  Cl  Cl13  1  0.05056969  0.00000931  0.74680529  1
  Cl  Cl14  1  0.75242686  0.99942882  0.55130667  1
  Cl  Cl15  1  0.49935578  0.24907730  0.52931199  1
  Cl  Cl16  1  0.94887465  0.99989626  0.25314545  1
  Cl  Cl17  1  0.24728516  0.00093230  0.44900302  1
  Cl  Cl18  1  0.00007847  0.75031235  0.99763650  1
  Cl  Cl19  1  0.05099452  0.50019471  0.24690209  1
  Cl  Cl20  1  0.75255399  0.50075945  0.05136536  1
  Cl  Cl21  1  0.49792459  0.74915536  0.02912389  1
  Cl  Cl22  1  0.94918356  0.49966364  0.75334619  1
  Cl  Cl23  1  0.24748349  0.49978252  0.94864563  1
loop_
_geom_bond_atom_site_label_1
_geom_bond_atom_site_label_2
_geom_bond_distance
_geom_bond_site_symmetry_2
Cl0 Y3 2.653464 1_555
Cl0 Li0 2.678005 1_555
Cl1 Li0 2.601896 1_554
Cl1 Y2 2.649072 1_555
Cl2 Li0 2.592480 1_554
Cl2 Y0 2.647494 1_455
Cl3 Y0 2.645136 1_555
Cl3 Li3 2.650301 1_555
Cl4 Li0 2.597732 1_565
Cl4 Y2 2.648497 1_565
Cl5 Li0 2.590049 1_565
Cl5 Y0 2.648265 1_566
Cl6 Y2 2.653217 1_565
Cl6 Li1 2.676622 1_555
Cl7 Li1 2.597770 1_555
Cl7 Y3 2.647986 1_555
Cl8 Li1 2.591417 1_555
Cl8 Y1 2.647798 1_455
Cl9 Y1 2.645552 1_455
Cl9 Li2 2.652138 1_465
Cl10 Li1 2.604477 1_555
Cl10 Y3 2.648807 1_554
Cl11 Li1 2.592622 1_555
Cl11 Y1 2.648183 1_555
Cl12 Y1 2.644688 1_555
Cl12 Li2 2.650937 1_555
Cl13 Li2 2.579118 1_455
Cl13 Y0 2.644719 1_456
Cl14 Li2 2.595592 1_565
Cl14 Y2 2.645631 1_565
Cl15 Y2 2.653188 1_555
Cl15 Li1 2.676099 1_555
Cl16 Li2 2.582001 1_565
Cl16 Y0 2.643654 1_565
Cl17 Li2 2.592682 1_455
Cl17 Y2 2.646021 1_555
Cl18 Y0 2.645366 1_466
Cl18 Li3 2.652356 1_456
Cl19 Li3 2.581557 1_455
Cl19 Y1 2.644973 1_455
Cl20 Li3 2.594708 1_555
Cl20 Y3 2.645763 1_554
Cl21 Y3 2.653274 1_554
Cl21 Li0 2.675240 1_564
Cl22 Li3 2.578763 1_556
Cl22 Y1 2.644678 1_555
Cl23 Li3 2.595103 1_456
Cl23 Y3 2.646035 1_555
