# generated using pymatgen
data_Ho3B7Mo
_symmetry_space_group_name_H-M   'P 1'
_cell_length_a   8.14948756
_cell_length_b   8.14948756
_cell_length_c   9.45423500
_cell_angle_alpha   90.00000000
_cell_angle_beta   90.00000000
_cell_angle_gamma   155.46716802
_symmetry_Int_Tables_number   1
_chemical_formula_structural   Ho3B7Mo
_chemical_formula_sum   'Ho6 B14 Mo2'
_cell_volume   260.71115771
_cell_formula_units_Z   2
loop_
 _symmetry_equiv_pos_site_id
 _symmetry_equiv_pos_as_xyz
  1  'x, y, z'
loop_
 _atom_site_type_symbol
 _atom_site_label
 _atom_site_symmetry_multiplicity
 _atom_site_fract_x
 _atom_site_fract_y
 _atom_site_fract_z
 _atom_site_occupancy
  Ho  Ho0  1  0.25696000  0.74304000  0.25000000  1
  Ho  Ho1  1  0.74304000  0.25696000  0.75000000  1
  Ho  Ho2  1  0.60658700  0.39341300  0.05995100  1
  Ho  Ho3  1  0.39341300  0.60658700  0.94004900  1
  Ho  Ho4  1  0.39341300  0.60658700  0.55995100  1
  Ho  Ho5  1  0.60658700  0.39341300  0.44004900  1
  B  B0  1  0.98053500  0.01946500  0.09180200  1
  B  B1  1  0.01946500  0.98053500  0.90819800  1
  B  B2  1  0.01946500  0.98053500  0.59180200  1
  B  B3  1  0.98053500  0.01946500  0.40819800  1
  B  B4  1  0.77238100  0.22761900  0.03314600  1
  B  B5  1  0.22761900  0.77238100  0.96685400  1
  B  B6  1  0.22761900  0.77238100  0.53314600  1
  B  B7  1  0.77238100  0.22761900  0.46685400  1
  B  B8  1  0.86533700  0.13466300  0.14696500  1
  B  B9  1  0.13466300  0.86533700  0.85303500  1
  B  B10  1  0.13466300  0.86533700  0.64696500  1
  B  B11  1  0.86533700  0.13466300  0.35303500  1
  B  B12  1  0.04452400  0.95547600  0.25000000  1
  B  B13  1  0.95547600  0.04452400  0.75000000  1
  Mo  Mo0  1  0.44680400  0.55319600  0.25000000  1
  Mo  Mo1  1  0.55319600  0.44680400  0.75000000  1
loop_
_geom_bond_atom_site_label_1
_geom_bond_atom_site_label_2
_geom_bond_distance
_geom_bond_site_symmetry_2
B0 B12 1.809861 1_645
B0 B1 1.843249 1_644
B0 B8 1.907426 1_555
B0 Mo0 2.350186 1_545
B0 Mo0 2.350186 1_655
B0 Ho3 2.642270 1_544
B0 Ho3 2.642270 1_654
B0 Ho2 2.668148 1_655
B0 Ho2 2.668148 1_545
B1 B13 1.809861 1_465
B1 B9 1.907426 1_555
B1 Mo1 2.350186 1_455
B1 Mo1 2.350186 1_565
B1 Ho2 2.642270 1_456
B1 Ho2 2.642270 1_566
B1 Ho3 2.668148 1_455
B1 Ho3 2.668148 1_565
B2 B3 1.843249 1_465
B2 Mo1 2.350186 1_455
B2 Mo1 2.350186 1_565
B2 Ho5 2.642270 1_455
B2 Ho5 2.642270 1_565
B2 Ho4 2.668148 1_455
B2 Ho4 2.668148 1_565
B3 Mo0 2.350186 1_545
B3 Mo0 2.350186 1_655
B3 Ho4 2.642270 1_545
B3 Ho4 2.642270 1_655
B3 Ho5 2.668148 1_655
B3 Ho5 2.668148 1_545
B4 B8 1.830247 1_555
B4 B5 1.974557 1_654
B4 B5 1.974557 1_544
B4 Ho2 2.652713 1_555
B4 Ho0 2.694701 1_545
B4 Ho0 2.694701 1_655
B4 Ho1 2.717412 1_554
B4 Ho3 2.736491 1_654
B4 Ho3 2.736491 1_544
B5 B9 1.830247 1_555
B5 Ho3 2.652713 1_555
B5 Ho1 2.694701 1_455
B5 Ho1 2.694701 1_565
B5 Ho0 2.717412 1_556
B5 Ho2 2.736491 1_566
B5 Ho2 2.736491 1_456
B6 B7 1.974557 1_455
B6 B7 1.974557 1_565
B6 Ho4 2.652713 1_555
B6 Ho1 2.694701 1_455
B6 Ho1 2.694701 1_565
B6 Ho0 2.717412 1_555
B6 Ho5 2.736491 1_565
B6 Ho5 2.736491 1_455
B7 Ho5 2.652713 1_555
B7 Ho0 2.694701 1_545
B7 Ho0 2.694701 1_655
B7 Ho1 2.717412 1_555
B7 Ho4 2.736491 1_655
B7 Ho4 2.736491 1_545
B8 Mo0 2.372818 1_545
B8 Mo0 2.372818 1_655
B8 Ho0 2.631761 1_545
B8 Ho0 2.631761 1_655
B8 Ho3 2.650400 1_654
B8 Ho3 2.650400 1_544
B9 Mo1 2.372818 1_455
B9 Mo1 2.372818 1_565
B9 Ho1 2.631761 1_455
B9 Ho1 2.631761 1_565
B9 Ho2 2.650400 1_566
B9 Ho2 2.650400 1_456
B10 B6 1.830247 1_555
B10 B2 1.907426 1_555
B10 B9 1.948234 1_555
B10 Mo1 2.372818 1_455
B10 Mo1 2.372818 1_565
B10 Ho1 2.631761 1_455
B10 Ho1 2.631761 1_565
B10 Ho5 2.650400 1_565
B10 Ho5 2.650400 1_455
B11 B7 1.830247 1_555
B11 B3 1.907426 1_555
B11 B8 1.948234 1_555
B11 Mo0 2.372818 1_545
B11 Mo0 2.372818 1_655
B11 Ho0 2.631761 1_545
B11 Ho0 2.631761 1_655
B11 Ho4 2.650400 1_655
B11 Ho4 2.650400 1_545
B12 B3 1.809861 1_465
B12 Mo0 2.328115 1_565
B12 Mo0 2.328115 1_455
B12 Ho5 2.683890 1_565
B12 Ho5 2.683890 1_455
B12 Ho2 2.683890 1_565
B12 Ho2 2.683890 1_455
B12 Ho0 3.383441 1_555
B13 B2 1.809861 1_645
B13 Mo1 2.328115 1_655
B13 Mo1 2.328115 1_545
B13 Ho3 2.683890 1_655
B13 Ho3 2.683890 1_545
B13 Ho4 2.683890 1_655
B13 Ho4 2.683890 1_545
B13 Ho1 3.383441 1_555
