# generated using pymatgen
data_MnGaO3
_symmetry_space_group_name_H-M   'P 1'
_cell_length_a   3.27100215
_cell_length_b   3.27100215
_cell_length_c   11.83701700
_cell_angle_alpha   90.00000000
_cell_angle_beta   90.00000000
_cell_angle_gamma   120.00000302
_symmetry_Int_Tables_number   1
_chemical_formula_structural   MnGaO3
_chemical_formula_sum   'Mn2 Ga2 O6'
_cell_volume   109.68179486
_cell_formula_units_Z   2
loop_
 _symmetry_equiv_pos_site_id
 _symmetry_equiv_pos_as_xyz
  1  'x, y, z'
loop_
 _atom_site_type_symbol
 _atom_site_label
 _atom_site_symmetry_multiplicity
 _atom_site_fract_x
 _atom_site_fract_y
 _atom_site_fract_z
 _atom_site_occupancy
  Mn  Mn0  1  0.00000000  0.00000000  0.00000000  1
  Mn  Mn1  1  0.00000000  0.00000000  0.50000000  1
  Ga  Ga0  1  0.33333300  0.66666700  0.75000000  1
  Ga  Ga1  1  0.66666700  0.33333300  0.25000000  1
  O  O0  1  0.00000000  0.00000000  0.25000000  1
  O  O1  1  0.00000000  0.00000000  0.75000000  1
  O  O2  1  0.33333300  0.66666700  0.57986200  1
  O  O3  1  0.33333300  0.66666700  0.92013800  1
  O  O4  1  0.66666700  0.33333300  0.42013800  1
  O  O5  1  0.66666700  0.33333300  0.07986200  1
loop_
_geom_bond_atom_site_label_1
_geom_bond_atom_site_label_2
_geom_bond_distance
_geom_bond_site_symmetry_2
Mn0 O3 2.111900 1_544
Mn0 O5 2.111900 1_455
Mn0 O3 2.111903 1_554
Mn0 O5 2.111903 1_445
Mn0 O3 2.111903 1_444
Mn0 O5 2.111903 1_555
Mn1 O2 2.111900 1_545
Mn1 O4 2.111900 1_455
Mn1 O2 2.111903 1_555
Mn1 O2 2.111903 1_445
Mn1 O4 2.111903 1_555
Mn1 O4 2.111903 1_445
Ga0 O1 1.888512 1_565
Ga0 O1 1.888515 1_555
Ga0 O1 1.888515 1_665
Ga0 O2 2.013926 1_555
Ga0 O3 2.013926 1_555
Ga1 O0 1.888512 1_655
Ga1 O0 1.888515 1_665
Ga1 O0 1.888515 1_555
Ga1 O4 2.013926 1_555
Ga1 O5 2.013926 1_555
