# generated using pymatgen
data_Rb4Mo5H4Se2O23
_symmetry_space_group_name_H-M   'P 1'
_cell_length_a   24.19465700
_cell_length_b   10.35955100
_cell_length_c   11.64937501
_cell_angle_alpha   59.34280421
_cell_angle_beta   90.00000000
_cell_angle_gamma   90.00000000
_symmetry_Int_Tables_number   1
_chemical_formula_structural   Rb4Mo5H4Se2O23
_chemical_formula_sum   'Rb16 Mo20 H16 Se8 O92'
_cell_volume   2511.76701017
_cell_formula_units_Z   4
loop_
 _symmetry_equiv_pos_site_id
 _symmetry_equiv_pos_as_xyz
  1  'x, y, z'
loop_
 _atom_site_type_symbol
 _atom_site_label
 _atom_site_symmetry_multiplicity
 _atom_site_fract_x
 _atom_site_fract_y
 _atom_site_fract_z
 _atom_site_occupancy
  Rb  Rb0  1  0.89150200  0.85658000  0.04876500  1
  Rb  Rb1  1  0.60849800  0.85658000  0.54876500  1
  Rb  Rb2  1  0.10849800  0.14342000  0.95123500  1
  Rb  Rb3  1  0.39150200  0.14342000  0.45123500  1
  Rb  Rb4  1  0.75436100  0.59110000  0.97579000  1
  Rb  Rb5  1  0.74563900  0.59110000  0.47579000  1
  Rb  Rb6  1  0.24563900  0.40890000  0.02421000  1
  Rb  Rb7  1  0.25436100  0.40890000  0.52421000  1
  Rb  Rb8  1  0.57734700  0.63558300  0.28705800  1
  Rb  Rb9  1  0.92265300  0.63558300  0.78705800  1
  Rb  Rb10  1  0.42265300  0.36441700  0.71294200  1
  Rb  Rb11  1  0.07734700  0.36441700  0.21294200  1
  Rb  Rb12  1  0.53714300  0.32231700  0.17898900  1
  Rb  Rb13  1  0.96285700  0.32231700  0.67898900  1
  Rb  Rb14  1  0.46285700  0.67768300  0.82101100  1
  Rb  Rb15  1  0.03714300  0.67768300  0.32101100  1
  Mo  Mo0  1  0.60448500  0.79453900  0.91532800  1
  Mo  Mo1  1  0.89551500  0.79453900  0.41532800  1
  Mo  Mo2  1  0.39551500  0.20546100  0.08467200  1
  Mo  Mo3  1  0.10448500  0.20546100  0.58467200  1
  Mo  Mo4  1  0.70826900  0.91516100  0.04010000  1
  Mo  Mo5  1  0.79173100  0.91516100  0.54010000  1
  Mo  Mo6  1  0.29173100  0.08483900  0.95990000  1
  Mo  Mo7  1  0.20826900  0.08483900  0.45990000  1
  Mo  Mo8  1  0.69608200  0.29964500  0.89964900  1
  Mo  Mo9  1  0.80391800  0.29964500  0.39964900  1
  Mo  Mo10  1  0.30391800  0.70035500  0.10035100  1
  Mo  Mo11  1  0.19608200  0.70035500  0.60035100  1
  Mo  Mo12  1  0.58700000  0.42650500  0.67595100  1
  Mo  Mo13  1  0.91300000  0.42650500  0.17595100  1
  Mo  Mo14  1  0.41300000  0.57349500  0.32404900  1
  Mo  Mo15  1  0.08700000  0.57349500  0.82404900  1
  Mo  Mo16  1  0.53988700  0.13976600  0.63357700  1
  Mo  Mo17  1  0.96011300  0.13976600  0.13357700  1
  Mo  Mo18  1  0.46011300  0.86023400  0.36642300  1
  Mo  Mo19  1  0.03988700  0.86023400  0.86642300  1
  H  H0  1  0.84862900  0.16706800  0.76598700  1
  H  H1  1  0.65137100  0.16706800  0.26598700  1
  H  H2  1  0.15137100  0.83293200  0.23401300  1
  H  H3  1  0.34862900  0.83293200  0.73401300  1
  H  H4  1  0.85413400  0.04703100  0.72571200  1
  H  H5  1  0.64586600  0.04703100  0.22571200  1
  H  H6  1  0.14586600  0.95296900  0.27428800  1
  H  H7  1  0.35413400  0.95296900  0.77428800  1
  H  H8  1  0.62898800  0.28607100  0.40446900  1
  H  H9  1  0.87101200  0.28607100  0.90446900  1
  H  H10  1  0.37101200  0.71392900  0.59553100  1
  H  H11  1  0.12898800  0.71392900  0.09553100  1
  H  H12  1  0.67282400  0.38632300  0.29810000  1
  H  H13  1  0.82717600  0.38632300  0.79810000  1
  H  H14  1  0.32717600  0.61367700  0.70190000  1
  H  H15  1  0.17282400  0.61367700  0.20190000  1
  Se  Se0  1  0.68743000  0.13906500  0.68621000  1
  Se  Se1  1  0.81257000  0.13906500  0.18621000  1
  Se  Se2  1  0.31257000  0.86093500  0.31379000  1
  Se  Se3  1  0.18743000  0.86093500  0.81379000  1
  Se  Se4  1  0.56721500  0.08806400  0.98269600  1
  Se  Se5  1  0.93278500  0.08806400  0.48269600  1
  Se  Se6  1  0.43278500  0.91193600  0.01730400  1
  Se  Se7  1  0.06721500  0.91193600  0.51730400  1
  O  O0  1  0.63475000  0.14115600  0.58836700  1
  O  O1  1  0.86525000  0.14115600  0.08836700  1
  O  O2  1  0.36525000  0.85884400  0.41163300  1
  O  O3  1  0.13475000  0.85884400  0.91163300  1
  O  O4  1  0.67204100  0.29135300  0.70502400  1
  O  O5  1  0.82795900  0.29135300  0.20502400  1
  O  O6  1  0.32795900  0.70864700  0.29497600  1
  O  O7  1  0.17204100  0.70864700  0.79497600  1
  O  O8  1  0.87275700  0.08684700  0.77572600  1
  O  O9  1  0.62724300  0.08684700  0.27572600  1
  O  O10  1  0.12724300  0.91315300  0.22427400  1
  O  O11  1  0.37275700  0.91315300  0.72427400  1
  O  O12  1  0.66760600  0.98642000  0.84282800  1
  O  O13  1  0.83239400  0.98642000  0.34282800  1
  O  O14  1  0.33239400  0.01358000  0.15717200  1
  O  O15  1  0.16760600  0.01358000  0.65717200  1
  O  O16  1  0.55619600  0.91214200  0.01285400  1
  O  O17  1  0.94380400  0.91214200  0.51285400  1
  O  O18  1  0.44380400  0.08785800  0.98714600  1
  O  O19  1  0.05619600  0.08785800  0.48714600  1
  O  O20  1  0.63801600  0.08756600  0.01264500  1
  O  O21  1  0.86198400  0.08756600  0.51264500  1
  O  O22  1  0.36198400  0.91243400  0.98735500  1
  O  O23  1  0.13801600  0.91243400  0.48735500  1
  O  O24  1  0.56352300  0.18954200  0.80611000  1
  O  O25  1  0.93647700  0.18954200  0.30611000  1
  O  O26  1  0.43647700  0.81045800  0.19389000  1
  O  O27  1  0.06352300  0.81045800  0.69389000  1
  O  O28  1  0.69959800  0.30663200  0.04611300  1
  O  O29  1  0.80040200  0.30663200  0.54611300  1
  O  O30  1  0.30040200  0.69336800  0.95388700  1
  O  O31  1  0.19959800  0.69336800  0.45388700  1
  O  O32  1  0.73773900  0.12114100  0.94465300  1
  O  O33  1  0.76226100  0.12114100  0.44465300  1
  O  O34  1  0.26226100  0.87885900  0.05534700  1
  O  O35  1  0.23773900  0.87885900  0.55534700  1
  O  O36  1  0.55972200  0.93145100  0.76161900  1
  O  O37  1  0.94027800  0.93145100  0.26161900  1
  O  O38  1  0.44027800  0.06854900  0.23838100  1
  O  O39  1  0.05972200  0.06854900  0.73838100  1
  O  O40  1  0.55700300  0.35089500  0.56453500  1
  O  O41  1  0.94299700  0.35089500  0.06453500  1
  O  O42  1  0.44299700  0.64910500  0.43546500  1
  O  O43  1  0.05700300  0.64910500  0.93546500  1
  O  O44  1  0.62310800  0.57818900  0.54555900  1
  O  O45  1  0.87689200  0.57818900  0.04555900  1
  O  O46  1  0.37689200  0.42181100  0.45444100  1
  O  O47  1  0.12310800  0.42181100  0.95444100  1
  O  O48  1  0.65403300  0.76204900  0.06094900  1
  O  O49  1  0.84596700  0.76204900  0.56094900  1
  O  O50  1  0.34596700  0.23795100  0.93905100  1
  O  O51  1  0.15403300  0.23795100  0.43905100  1
  O  O52  1  0.53444200  0.14120200  0.48350300  1
  O  O53  1  0.96555800  0.14120200  0.98350300  1
  O  O54  1  0.46555800  0.85879800  0.51649700  1
  O  O55  1  0.03444200  0.85879800  0.01649700  1
  O  O56  1  0.55660200  0.64962100  0.00717000  1
  O  O57  1  0.94339800  0.64962100  0.50717000  1
  O  O58  1  0.44339800  0.35037900  0.99283000  1
  O  O59  1  0.05660200  0.35037900  0.49283000  1
  O  O60  1  0.52863500  0.51052200  0.69870500  1
  O  O61  1  0.97136500  0.51052200  0.19870500  1
  O  O62  1  0.47136500  0.48947800  0.30129500  1
  O  O63  1  0.02863500  0.48947800  0.80129500  1
  O  O64  1  0.62538600  0.39898900  0.83357500  1
  O  O65  1  0.87461400  0.39898900  0.33357500  1
  O  O66  1  0.37461400  0.60101100  0.16642500  1
  O  O67  1  0.12538600  0.60101100  0.66642500  1
  O  O68  1  0.64405200  0.71947100  0.83834300  1
  O  O69  1  0.85594800  0.71947100  0.33834300  1
  O  O70  1  0.35594800  0.28052900  0.16165700  1
  O  O71  1  0.14405200  0.28052900  0.66165700  1
  O  O72  1  0.47047400  0.13433400  0.67701300  1
  O  O73  1  0.02952600  0.13433400  0.17701300  1
  O  O74  1  0.52952600  0.86566600  0.32298700  1
  O  O75  1  0.97047400  0.86566600  0.82298700  1
  O  O76  1  0.74594400  0.43389800  0.79917000  1
  O  O77  1  0.75405600  0.43389800  0.29917000  1
  O  O78  1  0.25405600  0.56610200  0.20083000  1
  O  O79  1  0.24594400  0.56610200  0.70083000  1
  O  O80  1  0.76864800  0.83554900  0.02176100  1
  O  O81  1  0.73135200  0.83554900  0.52176100  1
  O  O82  1  0.23135200  0.16445100  0.97823900  1
  O  O83  1  0.26864800  0.16445100  0.47823900  1
  O  O84  1  0.70886700  0.86834200  0.20697000  1
  O  O85  1  0.79113300  0.86834200  0.70697000  1
  O  O86  1  0.29113300  0.13165800  0.79303000  1
  O  O87  1  0.20886700  0.13165800  0.29303000  1
  O  O88  1  0.63343300  0.36001000  0.30861100  1
  O  O89  1  0.86656700  0.36001000  0.80861100  1
  O  O90  1  0.36656700  0.63999000  0.69138900  1
  O  O91  1  0.13343300  0.63999000  0.19138900  1
loop_
_geom_bond_atom_site_label_1
_geom_bond_atom_site_label_2
_geom_bond_distance
_geom_bond_site_symmetry_2
Mo0 O68 1.742630 1_555
Mo0 O56 1.761439 1_556
Mo0 O36 1.949602 1_555
Mo0 O48 1.961089 1_556
Mo0 O12 2.298887 1_555
Mo0 O16 2.356186 1_556
Mo1 O69 1.742630 1_555
Mo1 O57 1.761439 1_555
Mo1 O37 1.949602 1_555
Mo1 O49 1.961089 1_555
Mo1 O13 2.298887 1_555
Mo1 O17 2.356186 1_555
Mo2 O70 1.742630 1_555
Mo2 O58 1.761439 1_554
Mo2 O38 1.949602 1_555
Mo2 O50 1.961089 1_554
Mo2 O14 2.298887 1_555
Mo2 O18 2.356186 1_554
Mo3 O71 1.742630 1_555
Mo3 O59 1.761439 1_555
Mo3 O39 1.949602 1_555
Mo3 O51 1.961089 1_555
Mo3 O15 2.298887 1_555
Mo3 O19 2.356186 1_555
Mo4 O80 1.743448 1_555
Mo4 O84 1.747227 1_555
Mo4 O32 1.969379 1_564
Mo4 O48 1.975849 1_555
Mo4 O12 2.250343 1_554
Mo4 O20 2.366183 1_565
Mo5 O81 1.743448 1_555
Mo5 O85 1.747227 1_555
Mo5 O33 1.969379 1_565
Mo5 O49 1.975849 1_555
Mo5 O13 2.250343 1_555
Mo5 O21 2.366183 1_565
Mo6 O82 1.743448 1_555
Mo6 O86 1.747227 1_555
Mo6 O34 1.969379 1_546
Mo6 O50 1.975849 1_555
Mo6 O14 2.250343 1_556
Mo6 O22 2.366183 1_545
Mo7 O83 1.743448 1_555
Mo7 O87 1.747227 1_555
Mo7 O35 1.969379 1_545
Mo7 O51 1.975849 1_555
Mo7 O15 2.250343 1_555
Mo7 O23 2.366183 1_545
Mo8 O28 1.746307 1_556
Mo8 O76 1.760577 1_555
Mo8 O32 1.929147 1_555
Mo8 O64 1.941515 1_555
Mo8 O20 2.363077 1_556
Mo8 O4 2.384281 1_555
Mo9 O29 1.746307 1_555
Mo9 O77 1.760577 1_555
Mo9 O33 1.929147 1_555
Mo9 O65 1.941515 1_555
Mo9 O21 2.363077 1_555
Mo9 O5 2.384281 1_555
Mo10 O30 1.746307 1_554
Mo10 O78 1.760577 1_555
Mo10 O34 1.929147 1_555
Mo10 O66 1.941515 1_555
Mo10 O22 2.363077 1_554
Mo10 O6 2.384281 1_555
Mo11 O31 1.746307 1_555
Mo11 O79 1.760577 1_555
Mo11 O35 1.929147 1_555
Mo11 O67 1.941515 1_555
Mo11 O23 2.363077 1_555
Mo11 O7 2.384281 1_555
Mo12 O60 1.748481 1_555
Mo12 O44 1.762270 1_555
Mo12 O64 1.944667 1_555
Mo12 O40 1.965112 1_555
Mo12 O24 2.202731 1_555
Mo12 O4 2.413484 1_555
Mo13 O61 1.748481 1_555
Mo13 O45 1.762270 1_555
Mo13 O65 1.944667 1_555
Mo13 O41 1.965112 1_555
Mo13 O25 2.202731 1_555
Mo13 O5 2.413484 1_555
Mo14 O62 1.748481 1_555
Mo14 O46 1.762270 1_555
Mo14 O66 1.944667 1_555
Mo14 O42 1.965112 1_555
Mo14 O26 2.202731 1_555
Mo14 O6 2.413484 1_555
Mo15 O63 1.748481 1_555
Mo15 O47 1.762270 1_555
Mo15 O67 1.944667 1_555
Mo15 O43 1.965112 1_555
Mo15 O27 2.202731 1_555
Mo15 O7 2.413484 1_555
Mo16 O52 1.745708 1_555
Mo16 O72 1.746606 1_555
Mo16 O40 1.951472 1_555
Mo16 O36 1.956956 1_545
Mo16 O0 2.353230 1_555
Mo16 O24 2.385284 1_555
Mo17 O53 1.745708 1_554
Mo17 O73 1.746606 1_655
Mo17 O41 1.951472 1_555
Mo17 O37 1.956956 1_545
Mo17 O1 2.353230 1_555
Mo17 O25 2.385284 1_555
Mo18 O54 1.745708 1_555
Mo18 O74 1.746606 1_555
Mo18 O42 1.951472 1_555
Mo18 O38 1.956956 1_565
Mo18 O2 2.353230 1_555
Mo18 O26 2.385284 1_555
Mo19 O55 1.745708 1_556
Mo19 O75 1.746606 1_455
Mo19 O43 1.951472 1_555
Mo19 O39 1.956956 1_565
Mo19 O3 2.353230 1_555
Mo19 O27 2.385284 1_555
H0 O8 0.973732 1_555
H1 O9 0.973732 1_555
H2 O10 0.973732 1_555
H3 O11 0.973732 1_555
H4 O8 0.978619 1_555
H5 O9 0.978619 1_555
H6 O10 0.978619 1_555
H7 O11 0.978619 1_555
H8 O88 0.986398 1_555
H9 O89 0.986398 1_555
H10 O90 0.986398 1_555
H11 O91 0.986398 1_555
H12 O88 0.981615 1_555
H13 O89 0.981615 1_555
H14 O90 0.981615 1_555
H15 O91 0.981615 1_555
O0 Se0 1.702644 1_555
O0 Rb1 3.270233 1_545
O1 Se1 1.702644 1_555
O1 Rb0 3.270233 1_545
O2 Se2 1.702644 1_555
O2 Rb3 3.270233 1_565
O3 Se3 1.702644 1_555
O3 Rb2 3.270233 1_565
O4 Se0 1.740178 1_555
O4 Rb5 3.389399 1_555
O5 Se1 1.740178 1_555
O5 Rb4 3.389399 1_554
O6 Se2 1.740178 1_555
O6 Rb7 3.389399 1_555
O7 Se3 1.740178 1_555
O7 Rb6 3.389399 1_556
O8 Rb0 2.876704 1_546
O8 Rb13 3.028064 1_555
O9 Rb1 2.876704 1_545
O9 Rb12 3.028064 1_555
O10 Rb2 2.876704 1_564
O10 Rb15 3.028064 1_555
O11 Rb3 2.876704 1_565
O11 Rb14 3.028064 1_555
O12 Se0 1.765559 1_565
O13 Se1 1.765559 1_565
O14 Se2 1.765559 1_545
O15 Se3 1.765559 1_545
O16 Se4 1.692028 1_564
O16 Rb8 3.056282 1_555
O17 Se5 1.692028 1_565
O17 Rb9 3.056282 1_555
O18 Se6 1.692028 1_546
O18 Rb10 3.056282 1_555
O19 Se7 1.692028 1_545
O19 Rb11 3.056282 1_555
O20 Se4 1.747656 1_554
O21 Se5 1.747656 1_555
O22 Se6 1.747656 1_556
O23 Se7 1.747656 1_555
O24 Se4 1.771855 1_555
O25 Se5 1.771855 1_555
O26 Se6 1.771855 1_555
O27 Se7 1.771855 1_555
O28 Rb4 2.940959 1_554
O29 Rb5 2.940959 1_555
O30 Rb6 2.940959 1_556
O31 Rb7 2.940959 1_555
O36 Rb1 3.178699 1_555
O36 Rb14 3.320776 1_555
O37 Rb0 3.178699 1_555
O37 Rb15 3.320776 1_655
O38 Rb3 3.178699 1_555
O38 Rb12 3.320776 1_555
O39 Rb2 3.178699 1_555
O39 Rb13 3.320776 1_455
O40 Rb8 3.109169 1_555
O41 Rb9 3.109169 1_554
O42 Rb10 3.109169 1_555
O43 Rb11 3.109169 1_556
O44 Rb1 2.924667 1_555
O44 Rb8 2.970149 1_555
O44 Rb5 3.058830 1_555
O45 Rb0 2.924667 1_555
O45 Rb9 2.970149 1_554
O45 Rb4 3.058830 1_554
O46 Rb3 2.924667 1_555
O46 Rb10 2.970149 1_555
O46 Rb7 3.058830 1_555
O47 Rb2 2.924667 1_555
O47 Rb11 2.970149 1_556
O47 Rb6 3.058830 1_556
O48 Rb8 2.928784 1_555
O48 Rb4 3.435751 1_554
O49 Rb9 2.928784 1_555
O49 Rb5 3.435751 1_555
O50 Rb10 2.928784 1_555
O50 Rb6 3.435751 1_556
O51 Rb11 2.928784 1_555
O51 Rb7 3.435751 1_555
O52 Rb12 3.053035 1_555
O52 Rb1 3.193168 1_545
O52 Rb3 3.477563 1_555
O53 Rb13 3.053035 1_555
O53 Rb0 3.193168 1_546
O53 Rb2 3.477563 1_655
O54 Rb14 3.053035 1_555
O54 Rb3 3.193168 1_565
O54 Rb1 3.477563 1_555
O55 Rb15 3.053035 1_555
O55 Rb2 3.193168 1_564
O55 Rb0 3.477563 1_455
O56 Rb12 2.967119 1_555
O56 Rb14 3.047782 1_554
O56 Rb8 3.228081 1_555
O57 Rb13 2.967119 1_555
O57 Rb15 3.047782 1_655
O57 Rb9 3.228081 1_555
O58 Rb14 2.967119 1_555
O58 Rb12 3.047782 1_556
O58 Rb10 3.228081 1_555
O59 Rb15 2.967119 1_555
O59 Rb13 3.047782 1_455
O59 Rb11 3.228081 1_555
O60 Rb10 2.938971 1_555
O60 Rb14 3.174559 1_555
O61 Rb11 2.938971 1_655
O61 Rb15 3.174559 1_655
O62 Rb8 2.938971 1_555
O62 Rb12 3.174559 1_555
O63 Rb9 2.938971 1_455
O63 Rb13 3.174559 1_455
O68 Rb1 3.041530 1_555
O68 Rb4 3.046925 1_555
O69 Rb0 3.041530 1_555
O69 Rb5 3.046925 1_555
O70 Rb3 3.041530 1_555
O70 Rb6 3.046925 1_555
O71 Rb2 3.041530 1_555
O71 Rb7 3.046925 1_555
O72 Rb10 2.865763 1_555
O72 Rb3 3.213249 1_555
O73 Rb11 2.865763 1_555
O73 Rb2 3.213249 1_554
O74 Rb8 2.865763 1_555
O74 Rb1 3.213249 1_555
O75 Rb9 2.865763 1_555
O75 Rb0 3.213249 1_556
O76 Rb4 3.216220 1_555
O76 Rb5 3.253818 1_555
O77 Rb5 3.216220 1_555
O77 Rb4 3.253818 1_554
O78 Rb6 3.216220 1_555
O78 Rb7 3.253818 1_555
O79 Rb7 3.216220 1_555
O79 Rb6 3.253818 1_556
O80 Rb4 2.863960 1_554
O80 Rb0 3.008579 1_555
O81 Rb5 2.863960 1_555
O81 Rb1 3.008579 1_555
O82 Rb6 2.863960 1_556
O82 Rb2 3.008579 1_555
O83 Rb7 2.863960 1_555
O83 Rb3 3.008579 1_555
O84 Rb5 3.110468 1_555
O85 Rb4 3.110468 1_555
O86 Rb7 3.110468 1_555
O87 Rb6 3.110468 1_555
O88 Rb12 2.908857 1_555
O88 Rb8 3.053427 1_555
O89 Rb13 2.908857 1_555
O89 Rb9 3.053427 1_555
O90 Rb14 2.908857 1_555
O90 Rb10 3.053427 1_555
O91 Rb15 2.908857 1_555
O91 Rb11 3.053427 1_555
