# generated using pymatgen
data_Ba2Ti2AlTlO7
_symmetry_space_group_name_H-M   'P 1'
_cell_length_a   3.72346180
_cell_length_b   3.72346180
_cell_length_c   14.95836200
_cell_angle_alpha   90.00000000
_cell_angle_beta   90.00000000
_cell_angle_gamma   90.02933463
_symmetry_Int_Tables_number   1
_chemical_formula_structural   Ba2Ti2AlTlO7
_chemical_formula_sum   'Ba2 Ti2 Al1 Tl1 O7'
_cell_volume   207.38521293
_cell_formula_units_Z   1
loop_
 _symmetry_equiv_pos_site_id
 _symmetry_equiv_pos_as_xyz
  1  'x, y, z'
loop_
 _atom_site_type_symbol
 _atom_site_label
 _atom_site_symmetry_multiplicity
 _atom_site_fract_x
 _atom_site_fract_y
 _atom_site_fract_z
 _atom_site_occupancy
  Ba  Ba0  1  0.50148300  0.49851700  0.16964300  1
  Ba  Ba1  1  0.50148300  0.49851700  0.83035700  1
  Ti  Ti0  1  0.00141000  0.99859000  0.37009700  1
  Ti  Ti1  1  0.00141000  0.99859000  0.62990300  1
  Al  Al0  1  0.51068900  0.48931100  0.50000000  1
  Tl  Tl0  1  0.00138400  0.99861600  0.00000000  1
  O  O0  1  0.00166700  0.99833300  0.24992300  1
  O  O1  1  0.49927300  0.00122800  0.41772000  1
  O  O2  1  0.99877200  0.50072700  0.41772000  1
  O  O3  1  0.99877200  0.50072700  0.58228000  1
  O  O4  1  0.50143100  0.49856900  0.00000000  1
  O  O5  1  0.49927300  0.00122800  0.58228000  1
  O  O6  1  0.00166700  0.99833300  0.75007700  1
loop_
_geom_bond_atom_site_label_1
_geom_bond_atom_site_label_2
_geom_bond_distance
_geom_bond_site_symmetry_2
Ba0 O4 2.537581 1_555
Ba0 O0 2.893198 1_545
Ba0 O0 2.893198 1_655
Ba0 O0 2.893542 1_555
Ba0 O0 2.895306 1_645
Ba1 O4 2.537581 1_556
Ba1 O6 2.893198 1_545
Ba1 O6 2.893198 1_655
Ba1 O6 2.893542 1_555
Ba1 O6 2.895306 1_645
Al0 O1 2.195296 1_555
Al0 O5 2.195296 1_555
Al0 O3 2.195296 1_555
Al0 O2 2.195296 1_555
Al0 O1 2.269345 1_565
Al0 O2 2.269345 1_455
Al0 O3 2.269345 1_455
Al0 O5 2.269345 1_565
O0 Ti0 1.797607 1_555
O1 Ti0 1.985954 1_545
O1 Ti0 2.000827 1_645
O2 Ti0 1.985954 1_655
O2 Ti0 2.000827 1_645
O3 Ti1 1.985954 1_655
O3 Ti1 2.000827 1_645
O4 Tl0 2.632211 1_655
O4 Tl0 2.632211 1_545
O4 Tl0 2.633311 1_645
O4 Tl0 2.633807 1_555
O5 Ti1 1.985954 1_545
O5 Ti1 2.000827 1_645
O6 Ti1 1.797607 1_555
