# generated using pymatgen
data_YbP5O14
_symmetry_space_group_name_H-M   'P 1'
_cell_length_a   9.26586317
_cell_length_b   9.26586317
_cell_length_c   12.85977938
_cell_angle_alpha   88.45953349
_cell_angle_beta   88.45953349
_cell_angle_gamma   89.12004207
_symmetry_Int_Tables_number   1
_chemical_formula_structural   YbP5O14
_chemical_formula_sum   'Yb4 P20 O56'
_cell_volume   1103.17580043
_cell_formula_units_Z   4
loop_
 _symmetry_equiv_pos_site_id
 _symmetry_equiv_pos_as_xyz
  1  'x, y, z'
loop_
 _atom_site_type_symbol
 _atom_site_label
 _atom_site_symmetry_multiplicity
 _atom_site_fract_x
 _atom_site_fract_y
 _atom_site_fract_z
 _atom_site_occupancy
  Yb  Yb0  1  0.46334500  0.53665500  0.25000000  1
  Yb  Yb1  1  0.53665500  0.46334500  0.75000000  1
  Yb  Yb2  1  0.01798500  0.98201500  0.25000000  1
  Yb  Yb3  1  0.98201500  0.01798500  0.75000000  1
  P  P0  1  0.68277400  0.02428800  0.11305600  1
  P  P1  1  0.97571200  0.31722600  0.38694300  1
  P  P2  1  0.31722600  0.97571200  0.88694300  1
  P  P3  1  0.02428800  0.68277400  0.61305700  1
  P  P4  1  0.42690500  0.93794900  0.24423100  1
  P  P5  1  0.06205100  0.57309500  0.25576900  1
  P  P6  1  0.57309500  0.06205100  0.75576900  1
  P  P7  1  0.93794900  0.42690500  0.74423100  1
  P  P8  1  0.62992800  0.32589800  0.03244600  1
  P  P9  1  0.67410200  0.37007200  0.46755400  1
  P  P10  1  0.37007200  0.67410200  0.96755400  1
  P  P11  1  0.32589800  0.62992800  0.53244600  1
  P  P12  1  0.45420400  0.18639400  0.38734000  1
  P  P13  1  0.81360600  0.54579600  0.11266000  1
  P  P14  1  0.54579600  0.81360600  0.61266000  1
  P  P15  1  0.18639400  0.45420400  0.88734000  1
  P  P16  1  0.17613000  0.12007100  0.49116200  1
  P  P17  1  0.87992900  0.82387000  0.00883800  1
  P  P18  1  0.82387000  0.87992900  0.50883800  1
  P  P19  1  0.12007100  0.17613000  0.99116200  1
  O  O0  1  0.71973400  0.89315800  0.03901500  1
  O  O1  1  0.10684200  0.28026600  0.46098500  1
  O  O2  1  0.28026600  0.10684200  0.96098500  1
  O  O3  1  0.89315800  0.71973400  0.53901500  1
  O  O4  1  0.77788600  0.03849100  0.20158300  1
  O  O5  1  0.96150900  0.22211400  0.29841700  1
  O  O6  1  0.22211400  0.96150900  0.79841700  1
  O  O7  1  0.03849100  0.77788600  0.70158300  1
  O  O8  1  0.60140100  0.21261200  0.44347000  1
  O  O9  1  0.78738800  0.39859900  0.05653000  1
  O  O10  1  0.39859900  0.78738800  0.55653000  1
  O  O11  1  0.21261200  0.60140100  0.94347000  1
  O  O12  1  0.52747800  0.35404800  0.12153900  1
  O  O13  1  0.64595200  0.47252200  0.37846100  1
  O  O14  1  0.47252200  0.64595200  0.87846100  1
  O  O15  1  0.35404800  0.52747800  0.62153900  1
  O  O16  1  0.14310300  0.01505000  0.40872600  1
  O  O17  1  0.98495000  0.85689700  0.09127400  1
  O  O18  1  0.85689700  0.98495000  0.59127400  1
  O  O19  1  0.40995200  0.63511700  0.07624000  1
  O  O20  1  0.01505000  0.14310300  0.90872600  1
  O  O21  1  0.08141900  0.13868100  0.10149700  1
  O  O22  1  0.13868100  0.08141900  0.60149700  1
  O  O23  1  0.91858100  0.86131900  0.89850300  1
  O  O24  1  0.30057900  0.40287200  0.81519000  1
  O  O25  1  0.59712800  0.69942100  0.68481000  1
  O  O26  1  0.69942100  0.59712800  0.18481000  1
  O  O27  1  0.40287200  0.30057900  0.31519000  1
  O  O28  1  0.15663300  0.34684500  0.98472500  1
  O  O29  1  0.65315500  0.84336700  0.51527500  1
  O  O30  1  0.84336700  0.65315500  0.01527500  1
  O  O31  1  0.34684500  0.15663300  0.48472500  1
  O  O32  1  0.97350500  0.27251100  0.72430200  1
  O  O33  1  0.72748900  0.02649500  0.77569800  1
  O  O34  1  0.02649500  0.72748900  0.27569800  1
  O  O35  1  0.27251100  0.97350500  0.22430200  1
  O  O36  1  0.03369400  0.48637600  0.83912600  1
  O  O37  1  0.51362400  0.96630600  0.66087400  1
  O  O38  1  0.96630600  0.51362400  0.16087400  1
  O  O39  1  0.48637600  0.03369400  0.33912600  1
  O  O40  1  0.15708000  0.68107700  0.53219200  1
  O  O41  1  0.31892300  0.84292000  0.96780800  1
  O  O42  1  0.84292000  0.31892300  0.46780800  1
  O  O43  1  0.68107700  0.15708000  0.03219200  1
  O  O44  1  0.00435800  0.51716100  0.64257000  1
  O  O45  1  0.48283900  0.99564200  0.85743000  1
  O  O46  1  0.99564200  0.48283900  0.35743000  1
  O  O47  1  0.51716100  0.00435800  0.14257000  1
  O  O48  1  0.78733500  0.47609300  0.76720600  1
  O  O49  1  0.52390700  0.21266500  0.73279400  1
  O  O50  1  0.21266500  0.52390700  0.23279400  1
  O  O51  1  0.47609300  0.78733500  0.26720600  1
  O  O52  1  0.63511700  0.40995200  0.57624000  1
  O  O53  1  0.59004800  0.36488300  0.92376000  1
  O  O54  1  0.36488300  0.59004800  0.42376000  1
  O  O55  1  0.86131900  0.91858100  0.39850300  1
loop_
_geom_bond_atom_site_label_1
_geom_bond_atom_site_label_2
_geom_bond_distance
_geom_bond_site_symmetry_2
O0 P0 1.591247 1_565
O0 P17 1.649004 1_555
O1 P1 1.591255 1_455
O1 P16 1.649004 1_555
O2 P2 1.591255 1_545
O2 P19 1.649004 1_555
O3 P3 1.591255 1_655
O3 P18 1.649004 1_555
O4 P0 1.468197 1_555
O4 Yb2 2.373207 1_645
O5 P1 1.468186 1_555
O5 Yb2 2.373207 1_645
O6 P2 1.468186 1_555
O6 Yb3 2.373207 1_465
O7 P3 1.468186 1_555
O7 Yb3 2.373207 1_465
O8 P12 1.585188 1_555
O8 P9 1.656533 1_555
O9 P13 1.585188 1_555
O9 P8 1.656533 1_555
O10 P14 1.585188 1_555
O10 P11 1.656533 1_555
O11 P15 1.585188 1_555
O11 P10 1.656533 1_555
O12 P8 1.493932 1_555
O12 Yb0 2.451875 1_555
O13 P9 1.493932 1_555
O13 Yb0 2.451875 1_555
O14 P10 1.493932 1_555
O14 Yb1 2.451875 1_555
O15 P11 1.493932 1_555
O15 Yb1 2.451875 1_555
O16 P16 1.498826 1_555
O16 Yb2 2.403306 1_545
O17 P17 1.498826 1_555
O17 Yb2 2.403306 1_655
O18 P18 1.498826 1_555
O18 Yb3 2.403306 1_565
O19 P10 1.488980 1_554
O19 Yb0 2.450743 1_555
O20 P19 1.498826 1_555
O20 Yb3 2.403306 1_455
O21 P19 1.487256 1_554
O21 Yb2 2.432400 1_545
O22 P16 1.487256 1_555
O22 Yb3 2.432400 1_455
O23 P17 1.487256 1_556
O23 Yb3 2.432400 1_565
O24 P15 1.470376 1_555
O24 Yb1 2.390710 1_555
O25 P14 1.470376 1_555
O25 Yb1 2.390710 1_555
O26 P13 1.470376 1_555
O26 Yb0 2.390710 1_555
O27 P12 1.470376 1_555
O27 Yb0 2.390710 1_555
O28 P15 1.599023 1_555
O28 P19 1.622250 1_555
O29 P14 1.599023 1_555
O29 P18 1.622250 1_555
O30 P13 1.599023 1_555
O30 P17 1.622250 1_555
O31 P12 1.599023 1_555
O31 P16 1.622250 1_555
O32 P7 1.490475 1_555
O32 Yb3 2.373031 1_555
O33 P6 1.490475 1_555
O33 Yb3 2.373031 1_555
O34 P5 1.490475 1_555
O34 Yb2 2.373031 1_555
O35 P4 1.490475 1_555
O35 Yb2 2.373031 1_555
O36 P15 1.580981 1_555
O36 P7 1.639906 1_455
O37 P14 1.580981 1_555
O37 P6 1.639906 1_565
O38 P13 1.580981 1_555
O38 P5 1.639906 1_655
O39 P12 1.580981 1_555
O39 P4 1.639906 1_545
O40 P3 1.589687 1_555
O40 P11 1.627547 1_555
O41 P2 1.589687 1_555
O41 P10 1.627547 1_555
O42 P1 1.589687 1_555
O42 P9 1.627547 1_555
O43 P0 1.589679 1_555
O43 P8 1.627547 1_555
O44 P3 1.583226 1_555
O44 P7 1.643454 1_455
O45 P2 1.583226 1_555
O45 P6 1.643454 1_565
O46 P1 1.583226 1_555
O46 P5 1.643454 1_655
O47 P0 1.583228 1_555
O47 P4 1.643454 1_545
O48 P7 1.485990 1_555
O48 Yb1 2.344274 1_555
O49 P6 1.485990 1_555
O49 Yb1 2.344274 1_555
O50 P5 1.485990 1_555
O50 Yb0 2.344274 1_555
O51 P4 1.485990 1_555
O51 Yb0 2.344274 1_555
O52 P9 1.488980 1_555
O52 Yb1 2.450743 1_555
O53 P8 1.488980 1_556
O53 Yb1 2.450743 1_555
O54 P11 1.488980 1_555
O54 Yb0 2.450743 1_555
O55 P18 1.487256 1_555
O55 Yb2 2.432400 1_655
