# generated using pymatgen
data_MgTi2MnO6
_symmetry_space_group_name_H-M   'P 1'
_cell_length_a   5.15145617
_cell_length_b   5.15146111
_cell_length_c   9.93023167
_cell_angle_alpha   74.99007193
_cell_angle_beta   89.98026804
_cell_angle_gamma   120.00058700
_symmetry_Int_Tables_number   1
_chemical_formula_structural   MgTi2MnO6
_chemical_formula_sum   'Mg2 Ti4 Mn2 O12'
_cell_volume   217.75865668
_cell_formula_units_Z   2
loop_
 _symmetry_equiv_pos_site_id
 _symmetry_equiv_pos_as_xyz
  1  'x, y, z'
loop_
 _atom_site_type_symbol
 _atom_site_label
 _atom_site_symmetry_multiplicity
 _atom_site_fract_x
 _atom_site_fract_y
 _atom_site_fract_z
 _atom_site_occupancy
  Mg  Mg0  1  0.32228400  0.64452400  0.03302300  1
  Mg  Mg1  1  0.82228100  0.64453500  0.53300700  1
  Ti  Ti0  1  0.57284600  0.14579900  0.28137800  1
  Ti  Ti1  1  0.07284000  0.14581800  0.78137400  1
  Ti  Ti2  1  0.92773800  0.85532900  0.21656700  1
  Ti  Ti3  1  0.42773700  0.85532000  0.71656700  1
  Mn  Mn0  1  0.67916300  0.35842000  0.96172600  1
  Mn  Mn1  1  0.17908800  0.35840100  0.46164600  1
  O  O0  1  0.30304300  0.22621100  0.13330600  1
  O  O1  1  0.80304300  0.22622000  0.63330700  1
  O  O2  1  0.92330100  0.56389500  0.13290300  1
  O  O3  1  0.42330600  0.56388900  0.63290600  1
  O  O4  1  0.64098500  0.94412000  0.13299900  1
  O  O5  1  0.14097200  0.94410500  0.63300000  1
  O  O6  1  0.19340000  0.78792100  0.36936000  1
  O  O7  1  0.69334500  0.78791200  0.86933600  1
  O  O8  1  0.59465600  0.43738800  0.36938600  1
  O  O9  1  0.09467100  0.43740000  0.86938000  1
  O  O10  1  0.84263800  0.03637200  0.36943200  1
  O  O11  1  0.34266400  0.03642200  0.86940100  1
loop_
_geom_bond_atom_site_label_1
_geom_bond_atom_site_label_2
_geom_bond_distance
_geom_bond_site_symmetry_2
Mg0 O2 2.076579 1_455
Mg0 O0 2.078460 1_555
Mg0 O4 2.079394 1_555
Mg0 O9 2.191412 1_554
Mg0 O7 2.192153 1_554
Mg0 O11 2.194450 1_564
Mg1 O3 2.076586 1_555
Mg1 O1 2.078512 1_555
Mg1 O5 2.079422 1_655
Mg1 O8 2.191289 1_555
Mg1 O6 2.192106 1_655
Mg1 O10 2.194043 1_565
Mn0 O11 2.123740 1_555
Mn0 O9 2.126635 1_655
Mn0 O7 2.128181 1_555
Mn0 O4 2.277320 1_546
Mn0 O2 2.278976 1_556
Mn0 O0 2.279927 1_556
Mn1 O10 2.123011 1_455
Mn1 O8 2.126575 1_555
Mn1 O6 2.127820 1_555
Mn1 O5 2.277834 1_545
Mn1 O3 2.279848 1_555
Mn1 O1 2.280241 1_455
O0 Ti2 1.886421 1_445
O0 Ti0 2.127691 1_555
O1 Ti3 1.886458 1_545
O1 Ti1 2.127618 1_655
O2 Ti2 1.885856 1_555
O2 Ti0 2.129994 1_555
O3 Ti3 1.885834 1_555
O3 Ti1 2.129931 1_555
O4 Ti2 1.886768 1_555
O4 Ti0 2.128588 1_565
O5 Ti3 1.886805 1_555
O5 Ti1 2.128664 1_565
O6 Ti0 1.882496 1_565
O6 Ti2 2.121172 1_455
O7 Ti1 1.882642 1_665
O7 Ti3 2.120809 1_555
O8 Ti0 1.882550 1_555
O8 Ti2 2.119915 1_555
O9 Ti1 1.882468 1_555
O9 Ti3 2.119817 1_555
O10 Ti0 1.882269 1_555
O10 Ti2 2.123202 1_545
O11 Ti1 1.882224 1_555
O11 Ti3 2.123109 1_545
