# generated using pymatgen
data_Hf(AlFe)6
_symmetry_space_group_name_H-M   'P 1'
_cell_length_a   6.47552586
_cell_length_b   6.47552586
_cell_length_c   6.47552586
_cell_angle_alpha   135.45904464
_cell_angle_beta   98.40384181
_cell_angle_gamma   98.11158371
_symmetry_Int_Tables_number   1
_chemical_formula_structural   Hf(AlFe)6
_chemical_formula_sum   'Hf1 Al6 Fe6'
_cell_volume   176.25141460
_cell_formula_units_Z   1
loop_
 _symmetry_equiv_pos_site_id
 _symmetry_equiv_pos_as_xyz
  1  'x, y, z'
loop_
 _atom_site_type_symbol
 _atom_site_label
 _atom_site_symmetry_multiplicity
 _atom_site_fract_x
 _atom_site_fract_y
 _atom_site_fract_z
 _atom_site_occupancy
  Hf  Hf0  1  -0.00000000  -0.00000000  0.00000000  1
  Al  Al0  1  0.34394770  0.34394770  0.00000000  1
  Al  Al1  1  0.65605230  0.65605230  -0.00000000  1
  Al  Al2  1  0.66444220  -0.00000000  0.66444220  1
  Al  Al3  1  0.33555780  0.00000000  0.33555780  1
  Al  Al4  1  0.81484447  0.31484447  0.50000000  1
  Al  Al5  1  0.18515553  0.68515553  0.50000000  1
  Fe  Fe0  1  0.50000000  -0.00000000  0.00000000  1
  Fe  Fe1  1  0.50000000  0.50000000  0.50000000  1
  Fe  Fe2  1  -0.00000000  -0.00000000  0.50000000  1
  Fe  Fe3  1  -0.00000000  0.50000000  0.00000000  1
  Fe  Fe4  1  0.23904830  0.50000000  0.73904830  1
  Fe  Fe5  1  0.76095170  0.50000000  0.26095170  1
loop_
_geom_bond_atom_site_label_1
_geom_bond_atom_site_label_2
_geom_bond_distance
_geom_bond_site_symmetry_2
Al0 Fe2 2.572335 1_554
Al0 Fe3 2.572335 1_555
Al0 Fe0 2.572335 1_555
Al0 Fe1 2.572335 1_555
Al0 Fe4 2.574945 1_554
Al0 Fe5 2.574945 1_555
Al0 Al1 2.648873 1_555
Al0 Al5 2.799791 1_544
Al0 Al5 2.799791 1_555
Al0 Hf0 2.919130 1_555
Al1 Fe3 2.572335 1_655
Al1 Fe0 2.572335 1_565
Al1 Fe1 2.572335 1_554
Al1 Fe2 2.572335 1_665
Al1 Fe5 2.574945 1_555
Al1 Fe4 2.574945 1_554
Al1 Al4 2.799791 1_565
Al1 Al4 2.799791 1_554
Al1 Hf0 2.919130 1_665
Al2 Fe3 2.555736 1_656
Al2 Fe0 2.555736 1_556
Al2 Fe2 2.555736 1_655
Al2 Fe1 2.555736 1_545
Al2 Fe5 2.586412 1_545
Al2 Fe5 2.586412 1_556
Al2 Al3 2.783071 1_555
Al2 Hf0 2.839542 1_656
Al3 Fe3 2.555736 1_545
Al3 Fe2 2.555736 1_555
Al3 Fe0 2.555736 1_555
Al3 Fe1 2.555736 1_555
Al3 Fe4 2.586412 1_555
Al3 Fe4 2.586412 1_544
Al3 Hf0 2.839542 1_555
Al4 Fe2 2.506795 1_655
Al4 Fe3 2.506795 1_656
Al4 Fe0 2.506795 1_555
Al4 Fe1 2.506795 1_555
Al4 Fe4 2.561523 1_655
Al4 Fe5 2.561523 1_555
Al4 Hf0 2.914101 1_655
Al4 Hf0 2.914101 1_666
Al5 Fe2 2.506795 1_565
Al5 Fe3 2.506795 1_555
Al5 Fe0 2.506795 1_566
Al5 Fe1 2.506795 1_555
Al5 Fe5 2.561523 1_455
Al5 Fe4 2.561523 1_555
Al5 Hf0 2.914101 1_566
Al5 Hf0 2.914101 1_555
Fe0 Fe4 2.452793 1_544
Fe0 Fe5 2.452793 1_555
Fe0 Fe1 2.454091 1_544
Fe0 Fe1 2.454091 1_555
Fe0 Hf0 3.237763 1_555
Fe0 Hf0 3.237763 1_655
Fe1 Fe5 2.452793 1_555
Fe1 Fe4 2.452793 1_555
Fe1 Hf0 3.237763 1_555
Fe1 Hf0 3.237763 1_666
Fe2 Fe5 2.452793 1_445
Fe2 Fe4 2.452793 1_555
Fe2 Fe3 2.454091 1_545
Fe2 Fe3 2.454091 1_556
Fe2 Hf0 3.237763 1_555
Fe2 Hf0 3.237763 1_556
Fe3 Fe4 2.452793 1_554
Fe3 Fe5 2.452793 1_455
Fe3 Hf0 3.237763 1_555
Fe3 Hf0 3.237763 1_565
Fe4 Hf0 3.180336 1_566
Fe4 Hf0 3.180336 1_555
Fe5 Hf0 3.180336 1_666
Fe5 Hf0 3.180336 1_655
