# generated using pymatgen
data_Tb2(Ga3Co)3
_symmetry_space_group_name_H-M   'P 1'
_cell_length_a   7.37029904
_cell_length_b   7.37029904
_cell_length_c   9.41834100
_cell_angle_alpha   90.00000000
_cell_angle_beta   90.00000000
_cell_angle_gamma   119.90618280
_symmetry_Int_Tables_number   1
_chemical_formula_structural   Tb2(Ga3Co)3
_chemical_formula_sum   'Tb4 Ga18 Co6'
_cell_volume   443.49124586
_cell_formula_units_Z   2
loop_
 _symmetry_equiv_pos_site_id
 _symmetry_equiv_pos_as_xyz
  1  'x, y, z'
loop_
 _atom_site_type_symbol
 _atom_site_label
 _atom_site_symmetry_multiplicity
 _atom_site_fract_x
 _atom_site_fract_y
 _atom_site_fract_z
 _atom_site_occupancy
  Tb  Tb0  1  0.33127900  0.00318000  0.25000000  1
  Tb  Tb1  1  0.99682000  0.66872100  0.75000000  1
  Tb  Tb2  1  0.66872100  0.99682000  0.75000000  1
  Tb  Tb3  1  0.00318000  0.33127900  0.25000000  1
  Ga  Ga0  1  0.33395200  0.00011500  0.92731100  1
  Ga  Ga1  1  0.99988500  0.66604800  0.07268900  1
  Ga  Ga2  1  0.33395200  0.00011500  0.57268900  1
  Ga  Ga3  1  0.99988500  0.66604800  0.42731100  1
  Ga  Ga4  1  0.66604800  0.99988500  0.07268900  1
  Ga  Ga5  1  0.00011500  0.33395200  0.92731100  1
  Ga  Ga6  1  0.66604800  0.99988500  0.42731100  1
  Ga  Ga7  1  0.00011500  0.33395200  0.57268900  1
  Ga  Ga8  1  0.66454700  0.66454700  0.94221300  1
  Ga  Ga9  1  0.33545300  0.33545300  0.05778700  1
  Ga  Ga10  1  0.66454700  0.66454700  0.55778700  1
  Ga  Ga11  1  0.33545300  0.33545300  0.44221300  1
  Ga  Ga12  1  0.12170700  0.12170700  0.75000000  1
  Ga  Ga13  1  0.87829300  0.87829300  0.25000000  1
  Ga  Ga14  1  0.45067900  0.66480900  0.25000000  1
  Ga  Ga15  1  0.33519100  0.54932100  0.75000000  1
  Ga  Ga16  1  0.54932100  0.33519100  0.75000000  1
  Ga  Ga17  1  0.66480900  0.45067900  0.25000000  1
  Co  Co0  1  0.00000000  0.00000000  0.00000000  1
  Co  Co1  1  0.00000000  0.00000000  0.50000000  1
  Co  Co2  1  0.32822300  0.67177700  0.00000000  1
  Co  Co3  1  0.32822300  0.67177700  0.50000000  1
  Co  Co4  1  0.67177700  0.32822300  0.00000000  1
  Co  Co5  1  0.67177700  0.32822300  0.50000000  1
loop_
_geom_bond_atom_site_label_1
_geom_bond_atom_site_label_2
_geom_bond_distance
_geom_bond_site_symmetry_2
Ga0 Ga12 2.727070 1_555
Ga0 Ga16 2.738330 1_555
Ga0 Ga9 2.755266 1_556
Ga0 Ga4 2.805330 1_546
Ga0 Ga1 2.820330 1_446
Ga0 Tb1 2.979395 1_445
Ga0 Tb2 2.989475 1_545
Ga0 Tb0 3.039416 1_556
Ga1 Ga13 2.727070 1_555
Ga1 Ga17 2.738330 1_555
Ga1 Ga8 2.755266 1_554
Ga1 Ga5 2.805330 1_654
Ga1 Tb0 2.979395 1_665
Ga1 Tb3 2.989475 1_655
Ga1 Tb1 3.039416 1_554
Ga2 Ga6 2.805330 1_545
Ga2 Ga3 2.820330 1_445
Ga2 Tb1 2.979395 1_445
Ga2 Tb2 2.989475 1_545
Ga2 Tb0 3.039416 1_555
Ga3 Ga7 2.805330 1_655
Ga3 Tb0 2.979395 1_665
Ga3 Tb3 2.989475 1_655
Ga3 Tb1 3.039416 1_555
Ga4 Ga8 2.755266 1_554
Ga4 Ga5 2.820330 1_664
Ga4 Tb3 2.979395 1_665
Ga4 Tb0 2.989475 1_565
Ga4 Tb2 3.039416 1_554
Ga5 Ga9 2.755266 1_556
Ga5 Tb2 2.979395 1_445
Ga5 Tb1 2.989475 1_455
Ga5 Tb3 3.039416 1_556
Ga6 Ga7 2.820330 1_665
Ga6 Tb3 2.979395 1_665
Ga6 Tb0 2.989475 1_565
Ga6 Tb2 3.039416 1_555
Ga7 Tb2 2.979395 1_445
Ga7 Tb1 2.989475 1_455
Ga7 Tb3 3.039416 1_555
Ga8 Ga9 2.661712 1_556
Ga8 Tb1 3.033228 1_555
Ga8 Tb2 3.033228 1_555
Ga9 Tb0 3.033228 1_555
Ga9 Tb3 3.033228 1_555
Ga10 Ga11 2.661712 1_555
Ga10 Ga3 2.755266 1_555
Ga10 Ga6 2.755266 1_555
Ga10 Ga15 2.799173 1_555
Ga10 Ga16 2.799173 1_555
Ga10 Tb2 3.033228 1_555
Ga10 Tb1 3.033228 1_555
Ga11 Ga2 2.755266 1_555
Ga11 Ga7 2.755266 1_555
Ga11 Ga17 2.799173 1_555
Ga11 Ga14 2.799173 1_555
Ga11 Tb0 3.033228 1_555
Ga11 Tb3 3.033228 1_555
Ga12 Ga7 2.727070 1_555
Ga12 Ga2 2.727070 1_555
Ga12 Ga5 2.727070 1_555
Ga12 Ga16 2.731980 1_555
Ga12 Ga15 2.731980 1_555
Ga12 Tb1 2.988214 1_445
Ga12 Tb2 2.988214 1_445
Ga13 Ga3 2.727070 1_555
Ga13 Ga4 2.727070 1_555
Ga13 Ga6 2.727070 1_555
Ga13 Ga14 2.731980 1_555
Ga13 Ga17 2.731980 1_555
Ga13 Tb3 2.988214 1_665
Ga13 Tb0 2.988214 1_665
Ga14 Ga17 2.732233 1_555
Ga14 Ga6 2.738330 1_555
Ga14 Ga4 2.738330 1_555
Ga14 Ga9 2.799173 1_555
Ga14 Tb3 2.972587 1_555
Ga14 Tb0 3.030243 1_565
Ga15 Ga16 2.732233 1_555
Ga15 Ga7 2.738330 1_555
Ga15 Ga5 2.738330 1_555
Ga15 Ga8 2.799173 1_555
Ga15 Tb2 2.972587 1_555
Ga15 Tb1 3.030243 1_455
Ga16 Ga2 2.738330 1_555
Ga16 Ga8 2.799173 1_555
Ga16 Tb1 2.972587 1_555
Ga16 Tb2 3.030243 1_545
Ga17 Ga3 2.738330 1_555
Ga17 Ga9 2.799173 1_555
Ga17 Tb0 2.972587 1_555
Ga17 Tb3 3.030243 1_655
Co0 Ga13 2.520118 1_445
Co0 Ga12 2.520118 1_554
Co0 Ga9 2.535008 1_555
Co0 Ga8 2.535008 1_444
Co0 Ga5 2.554357 1_554
Co0 Ga0 2.554357 1_554
Co0 Ga4 2.554357 1_445
Co0 Ga1 2.554357 1_445
Co1 Ga12 2.520118 1_555
Co1 Ga13 2.520118 1_445
Co1 Ga10 2.535008 1_445
Co1 Ga11 2.535008 1_555
Co1 Ga7 2.554357 1_555
Co1 Ga2 2.554357 1_555
Co1 Ga6 2.554357 1_445
Co1 Ga3 2.554357 1_445
Co2 Ga0 2.494942 1_564
Co2 Ga1 2.494942 1_455
Co2 Ga15 2.531304 1_554
Co2 Ga14 2.531304 1_555
Co2 Ga4 2.551871 1_555
Co2 Ga5 2.551871 1_554
Co2 Ga8 2.564227 1_554
Co2 Ga9 2.564227 1_555
Co3 Ga2 2.494942 1_565
Co3 Ga3 2.494942 1_455
Co3 Ga15 2.531304 1_555
Co3 Ga14 2.531304 1_555
Co3 Ga6 2.551871 1_555
Co3 Ga7 2.551871 1_555
Co3 Ga10 2.564227 1_555
Co3 Ga11 2.564227 1_555
Co4 Ga5 2.494942 1_654
Co4 Ga4 2.494942 1_545
Co4 Ga16 2.531304 1_554
Co4 Ga17 2.531304 1_555
Co4 Ga1 2.551871 1_555
Co4 Ga0 2.551871 1_554
Co4 Ga9 2.564227 1_555
Co4 Ga8 2.564227 1_554
Co5 Ga7 2.494942 1_655
Co5 Ga6 2.494942 1_545
Co5 Ga16 2.531304 1_555
Co5 Ga17 2.531304 1_555
Co5 Ga3 2.551871 1_555
Co5 Ga2 2.551871 1_555
Co5 Ga10 2.564227 1_555
Co5 Ga11 2.564227 1_555
