# generated using pymatgen
data_Er15Fe4Ru4C25
_symmetry_space_group_name_H-M   'P 1'
_cell_length_a   5.07585607
_cell_length_b   12.00365956
_cell_length_c   12.00732332
_cell_angle_alpha   120.00677057
_cell_angle_beta   90.00887056
_cell_angle_gamma   89.98139980
_symmetry_Int_Tables_number   1
_chemical_formula_structural   Er15Fe4Ru4C25
_chemical_formula_sum   'Er15 Fe4 Ru4 C25'
_cell_volume   633.53432253
_cell_formula_units_Z   1
loop_
 _symmetry_equiv_pos_site_id
 _symmetry_equiv_pos_as_xyz
  1  'x, y, z'
loop_
 _atom_site_type_symbol
 _atom_site_label
 _atom_site_symmetry_multiplicity
 _atom_site_fract_x
 _atom_site_fract_y
 _atom_site_fract_z
 _atom_site_occupancy
  Er  Er0  1  0.25189000  0.11662400  0.70927800  1
  Er  Er1  1  0.25206100  0.29101600  0.40775200  1
  Er  Er2  1  0.25169800  0.59269900  0.88323100  1
  Er  Er3  1  0.74274200  0.88443500  0.59665300  1
  Er  Er4  1  0.74259300  0.40344900  0.28802700  1
  Er  Er5  1  0.74265000  0.71192400  0.11539600  1
  Er  Er6  1  0.24146400  0.63575500  0.48931900  1
  Er  Er7  1  0.24172800  0.51071900  0.14631900  1
  Er  Er8  1  0.24207700  0.85327300  0.36453700  1
  Er  Er9  1  0.75497400  0.36430900  0.85294700  1
  Er  Er10  1  0.75476200  0.14710600  0.51145600  1
  Er  Er11  1  0.75503900  0.48891700  0.63575100  1
  Er  Er12  1  0.50552400  0.83030500  0.83083600  1
  Er  Er13  1  0.50537300  0.16901300  0.99937400  1
  Er  Er14  1  0.50557700  0.00056900  0.16917400  1
  Fe  Fe0  1  0.00972200  0.74476600  0.74374900  1
  Fe  Fe1  1  0.00924800  0.25571000  0.00012000  1
  Fe  Fe2  1  0.00968000  0.99916100  0.25517100  1
  Fe  Fe3  1  0.26543500  0.33334800  0.66673000  1
  Ru  Ru0  1  0.74051700  0.66664400  0.33325100  1
  Ru  Ru1  1  0.00579500  0.13663700  0.13646400  1
  Ru  Ru2  1  0.00524700  0.86379400  0.00021200  1
  Ru  Ru3  1  0.00564200  0.99987200  0.86358900  1
  C  C0  1  0.24198300  0.87627500  0.57667900  1
  C  C1  1  0.24145400  0.42357500  0.29993000  1
  C  C2  1  0.24148000  0.70007500  0.12351400  1
  C  C3  1  0.75822300  0.12460100  0.69901300  1
  C  C4  1  0.75809000  0.30092200  0.42565400  1
  C  C5  1  0.75798300  0.57449300  0.87521300  1
  C  C6  1  0.18682900  0.88288800  0.69260400  1
  C  C7  1  0.18761500  0.30741000  0.19085000  1
  C  C8  1  0.18754200  0.80954800  0.11702200  1
  C  C9  1  0.80187000  0.11081100  0.80535700  1
  C  C10  1  0.80211600  0.19476200  0.30544700  1
  C  C11  1  0.80202900  0.69475600  0.88932700  1
  C  C12  1  0.25760000  0.35644200  0.82943100  1
  C  C13  1  0.25736800  0.17065700  0.52697000  1
  C  C14  1  0.25770500  0.47308700  0.64351100  1
  C  C15  1  0.73898400  0.63787300  0.48057900  1
  C  C16  1  0.73948500  0.51919800  0.15753800  1
  C  C17  1  0.73966900  0.84256600  0.36192100  1
  C  C18  1  0.23712700  0.32063300  0.91981700  1
  C  C19  1  0.23705500  0.08003200  0.40086100  1
  C  C20  1  0.23667200  0.59938800  0.67956800  1
  C  C21  1  0.76282900  0.68232600  0.60782000  1
  C  C22  1  0.76257500  0.39195900  0.07426100  1
  C  C23  1  0.76255000  0.92574100  0.31790100  1
  C  C24  1  0.25172800  0.99993700  0.99987500  1
loop_
_geom_bond_atom_site_label_1
_geom_bond_atom_site_label_2
_geom_bond_distance
_geom_bond_site_symmetry_2
Er12 Fe0 2.721775 1_555
Er12 Fe0 2.760912 1_655
Er12 Ru3 3.153433 1_655
Er13 Fe1 2.722813 1_556
Er13 Fe1 2.759855 1_656
Er13 Ru1 3.154441 1_656
Er14 Fe2 2.724082 1_545
Er14 Fe2 2.762312 1_645
Er14 Ru2 3.148237 1_645
C0 C6 1.382674 1_555
C0 Er8 2.421011 1_555
C0 Er0 2.503349 1_565
C0 Er6 2.531146 1_555
C0 Er3 2.542673 1_455
C0 Er3 2.550341 1_555
C1 C7 1.381283 1_555
C1 Er6 2.421808 1_555
C1 Er1 2.504258 1_555
C1 Er7 2.534960 1_555
C1 Er4 2.540926 1_455
C1 Er4 2.552337 1_555
C2 C8 1.382044 1_555
C2 Er7 2.421544 1_555
C2 Er2 2.503725 1_554
C2 Er8 2.536558 1_555
C2 Er5 2.540523 1_455
C2 Er5 2.552483 1_555
C3 C9 1.385017 1_555
C3 Er10 2.398653 1_555
C3 Er3 2.506766 1_545
C3 Er0 2.512939 1_655
C3 Er9 2.525160 1_555
C3 Er0 2.577150 1_555
C4 Er11 2.400554 1_555
C4 Er4 2.507140 1_555
C4 Er1 2.514246 1_655
C4 Er10 2.524551 1_555
C4 Er1 2.575297 1_555
C5 Er9 2.400517 1_555
C5 Er5 2.507211 1_556
C5 Er2 2.513251 1_655
C5 Er11 2.523602 1_555
C5 Er2 2.576766 1_555
C6 Ru3 2.036898 1_555
C6 Fe0 2.225686 1_555
C6 Er3 2.535615 1_455
C6 Er12 2.610839 1_555
C6 Er0 2.731257 1_565
C7 Ru1 2.035287 1_555
C7 Fe1 2.242280 1_555
C7 Er4 2.539031 1_455
C7 Er13 2.612728 1_554
C7 Er1 2.727822 1_555
C8 Ru2 2.039628 1_555
C8 Fe2 2.229331 1_555
C8 Er5 2.540064 1_455
C8 Er14 2.611831 1_565
C8 Er2 2.730035 1_554
C9 Ru3 2.064523 1_645
C9 Fe1 2.352501 1_656
C9 Er13 2.559825 1_555
C9 Er0 2.575840 1_655
C9 Er3 2.635004 1_545
C9 Er9 2.811204 1_555
C9 Er0 3.034520 1_555
C10 C4 1.384684 1_555
C10 Ru1 2.063207 1_655
C10 Fe2 2.359682 1_645
C10 Er14 2.561876 1_555
C10 Er1 2.577050 1_655
C10 Er4 2.633184 1_555
C10 Er10 2.814139 1_555
C10 Er1 3.036211 1_555
C11 C5 1.384982 1_555
C11 Ru2 2.062199 1_656
C11 Fe0 2.361733 1_655
C11 Er12 2.558668 1_555
C11 Er2 2.573766 1_655
C11 Er5 2.634850 1_556
C11 Er11 2.812117 1_555
C11 Er2 3.036722 1_555
C12 C18 1.356497 1_555
C12 Fe3 1.831212 1_555
C12 Er0 2.493030 1_555
C12 Er9 2.536831 1_555
C12 Er9 2.563388 1_455
C12 Er2 2.574564 1_555
C13 C19 1.356232 1_555
C13 Fe3 1.831324 1_555
C13 Er1 2.491127 1_555
C13 Er10 2.536876 1_555
C13 Er10 2.563331 1_455
C13 Er0 2.575542 1_555
C14 C20 1.356730 1_555
C14 Fe3 1.833186 1_555
C14 Er2 2.492783 1_555
C14 Er11 2.536820 1_555
C14 Er11 2.563603 1_455
C14 Er1 2.569600 1_555
C15 C21 1.348405 1_555
C15 Ru0 1.964642 1_555
C15 Er6 2.528200 1_555
C15 Er6 2.553299 1_655
C15 Er3 2.564486 1_555
C15 Er4 2.599392 1_555
C16 C22 1.348602 1_555
C16 Ru0 1.961893 1_555
C16 Er7 2.529481 1_555
C16 Er7 2.552201 1_655
C16 Er4 2.561842 1_555
C16 Er5 2.603669 1_555
C17 C23 1.348184 1_555
C17 Ru0 1.962327 1_555
C17 Er8 2.528333 1_555
C17 Er8 2.552827 1_655
C17 Er5 2.564900 1_555
C17 Er3 2.603837 1_555
C18 Fe1 1.904596 1_556
C18 Er0 2.490237 1_555
C18 Er7 2.529164 1_556
C18 Er9 2.707143 1_455
C18 Er13 2.795664 1_555
C18 Er9 2.872498 1_555
C19 Fe2 1.906868 1_545
C19 Er1 2.493419 1_555
C19 Er8 2.532263 1_545
C19 Er10 2.708315 1_455
C19 Er14 2.802315 1_555
C19 Er10 2.871925 1_555
C20 Fe0 1.902642 1_555
C20 Er2 2.487731 1_555
C20 Er6 2.531205 1_555
C20 Er11 2.704752 1_455
C20 Er12 2.794735 1_555
C20 Er11 2.873772 1_555
C21 Fe0 1.890124 1_655
C21 Er3 2.497855 1_555
C21 Er11 2.506547 1_555
C21 Er12 2.696982 1_555
C22 Fe1 1.891502 1_655
C22 Er4 2.502707 1_555
C22 Er9 2.508220 1_554
C22 Er13 2.696262 1_554
C23 Fe2 1.892754 1_655
C23 Er5 2.503601 1_555
C23 Er10 2.507337 1_565
C23 Er14 2.701877 1_565
C24 Ru3 2.058212 1_555
C24 Ru2 2.060066 1_556
C24 Ru1 2.061127 1_566
C24 Er14 2.403425 1_566
C24 Er13 2.406348 1_565
C24 Er12 2.406396 1_555
