# generated using pymatgen
data_K2NbO3F5
_symmetry_space_group_name_H-M   'P 1'
_cell_length_a   6.41012024
_cell_length_b   6.41012024
_cell_length_c   9.67650907
_cell_angle_alpha   86.76183574
_cell_angle_beta   86.76183574
_cell_angle_gamma   87.83895524
_symmetry_Int_Tables_number   1
_chemical_formula_structural   K2NbO3F5
_chemical_formula_sum   'K4 Nb2 O6 F10'
_cell_volume   396.09794457
_cell_formula_units_Z   2
loop_
 _symmetry_equiv_pos_site_id
 _symmetry_equiv_pos_as_xyz
  1  'x, y, z'
loop_
 _atom_site_type_symbol
 _atom_site_label
 _atom_site_symmetry_multiplicity
 _atom_site_fract_x
 _atom_site_fract_y
 _atom_site_fract_z
 _atom_site_occupancy
  K  K0  1  0.26378400  0.27639800  0.21599600  1
  K  K1  1  0.72360200  0.73621600  0.78400400  1
  K  K2  1  0.75519800  0.24480200  0.50000000  1
  K  K3  1  0.23774200  0.76225800  0.50000000  1
  Nb  Nb0  1  0.76959300  0.78243000  0.26952200  1
  Nb  Nb1  1  0.21757000  0.23040700  0.73047800  1
  O  O0  1  0.68611800  0.86222000  0.08023700  1
  O  O1  1  0.13778000  0.31388200  0.91976300  1
  O  O2  1  0.85798100  0.70494800  0.08073700  1
  O  O3  1  0.29505200  0.14201900  0.91926300  1
  O  O4  1  0.57528600  0.42471400  0.00000000  1
  O  O5  1  0.43496300  0.56503700  0.00000000  1
  F  F0  1  0.56623900  0.55860600  0.31631500  1
  F  F1  1  0.44139400  0.43376100  0.68368500  1
  F  F2  1  0.96982500  0.01092500  0.27296700  1
  F  F3  1  0.98907500  0.03017500  0.72703300  1
  F  F4  1  0.78133300  0.79644100  0.48090200  1
  F  F5  1  0.20355900  0.21866700  0.51909800  1
  F  F6  1  0.53350100  0.99263000  0.31266400  1
  F  F7  1  0.00737000  0.46649900  0.68733600  1
  F  F8  1  0.00356100  0.56952600  0.31165100  1
  F  F9  1  0.43047400  0.99643900  0.68834900  1
loop_
_geom_bond_atom_site_label_1
_geom_bond_atom_site_label_2
_geom_bond_distance
_geom_bond_site_symmetry_2
K0 O5 2.907388 1_555
K0 O4 2.950696 1_555
K0 O1 3.015968 1_554
K0 O3 3.037784 1_554
K1 O5 2.907388 1_556
K1 O4 2.950696 1_556
K1 O0 3.015968 1_556
K1 O2 3.037784 1_556
Nb0 O2 1.967019 1_555
Nb0 O0 1.971543 1_555
Nb1 O3 1.967019 1_555
Nb1 O1 1.971543 1_555
O0 O2 1.465028 1_555
O1 O3 1.465028 1_555
O4 O5 1.247853 1_555
F0 Nb0 1.990890 1_555
F0 K2 2.885854 1_555
F0 K0 2.940938 1_555
F0 K3 2.988210 1_555
F1 Nb1 1.990890 1_555
F1 K2 2.885854 1_555
F1 K1 2.940938 1_555
F1 K3 2.988210 1_555
F2 Nb0 1.986436 1_545
F2 K0 2.601704 1_655
F2 K2 2.973501 1_555
F2 K3 3.184442 1_645
F3 Nb1 1.986436 1_655
F3 K1 2.601704 1_545
F3 K2 2.973501 1_555
F3 K3 3.184442 1_645
F4 Nb0 2.058185 1_555
F4 K2 2.888349 1_565
F4 K1 2.940838 1_555
F4 K3 2.941033 1_655
F5 Nb1 2.058185 1_555
F5 K2 2.888349 1_455
F5 K0 2.940838 1_555
F5 K3 2.941033 1_545
F6 Nb0 2.029405 1_555
F6 K0 2.631761 1_565
F6 K3 2.929417 1_555
F6 K2 2.951926 1_565
F7 Nb1 2.029405 1_555
F7 K1 2.631761 1_455
F7 K3 2.929417 1_555
F7 K2 2.951926 1_455
F8 Nb0 2.032203 1_455
F8 K0 2.637317 1_555
F8 K3 2.793696 1_555
F8 K2 3.111682 1_455
F9 Nb1 2.032203 1_565
F9 K1 2.637317 1_555
F9 K3 2.793696 1_555
F9 K2 3.111682 1_565
