# generated using pymatgen
data_Cu7PSe6
_symmetry_space_group_name_H-M   'P 1'
_cell_length_a   10.07280800
_cell_length_b   10.07280800
_cell_length_c   10.07280800
_cell_angle_alpha   90.00000000
_cell_angle_beta   90.00000000
_cell_angle_gamma   90.00000000
_symmetry_Int_Tables_number   1
_chemical_formula_structural   Cu7PSe6
_chemical_formula_sum   'Cu28 P4 Se24'
_cell_volume   1022.00181610
_cell_formula_units_Z   4
loop_
 _symmetry_equiv_pos_site_id
 _symmetry_equiv_pos_as_xyz
  1  'x, y, z'
loop_
 _atom_site_type_symbol
 _atom_site_label
 _atom_site_symmetry_multiplicity
 _atom_site_fract_x
 _atom_site_fract_y
 _atom_site_fract_z
 _atom_site_occupancy
  Cu  Cu0  1  0.22488000  0.92713500  0.89694200  1
  Cu  Cu1  1  0.10305800  0.72488000  0.57286500  1
  Cu  Cu2  1  0.42713500  0.60305800  0.77512000  1
  Cu  Cu3  1  0.72488000  0.57286500  0.10305800  1
  Cu  Cu4  1  0.60305800  0.77512000  0.42713500  1
  Cu  Cu5  1  0.92713500  0.89694200  0.22488000  1
  Cu  Cu6  1  0.77512000  0.42713500  0.60305800  1
  Cu  Cu7  1  0.89694200  0.22488000  0.92713500  1
  Cu  Cu8  1  0.57286500  0.10305800  0.72488000  1
  Cu  Cu9  1  0.27512000  0.07286500  0.39694200  1
  Cu  Cu10  1  0.39694200  0.27512000  0.07286500  1
  Cu  Cu11  1  0.07286500  0.39694200  0.27512000  1
  Cu  Cu12  1  0.01227500  0.77891500  0.98561500  1
  Cu  Cu13  1  0.01438500  0.51227500  0.72108500  1
  Cu  Cu14  1  0.27891500  0.51438500  0.98772500  1
  Cu  Cu15  1  0.51227500  0.72108500  0.01438500  1
  Cu  Cu16  1  0.51438500  0.98772500  0.27891500  1
  Cu  Cu17  1  0.77891500  0.98561500  0.01227500  1
  Cu  Cu18  1  0.98772500  0.27891500  0.51438500  1
  Cu  Cu19  1  0.98561500  0.01227500  0.77891500  1
  Cu  Cu20  1  0.72108500  0.01438500  0.51227500  1
  Cu  Cu21  1  0.48772500  0.22108500  0.48561500  1
  Cu  Cu22  1  0.48561500  0.48772500  0.22108500  1
  Cu  Cu23  1  0.22108500  0.48561500  0.48772500  1
  Cu  Cu24  1  0.34940200  0.84940200  0.65059800  1
  Cu  Cu25  1  0.84940200  0.65059800  0.34940200  1
  Cu  Cu26  1  0.65059800  0.34940200  0.84940200  1
  Cu  Cu27  1  0.15059800  0.15059800  0.15059800  1
  P  P0  1  0.75005300  0.25005300  0.24994700  1
  P  P1  1  0.25005300  0.24994700  0.75005300  1
  P  P2  1  0.24994700  0.75005300  0.25005300  1
  P  P3  1  0.74994700  0.74994700  0.74994700  1
  Se  Se0  1  0.87841900  0.37841900  0.12158100  1
  Se  Se1  1  0.37841900  0.12158100  0.87841900  1
  Se  Se2  1  0.12158100  0.87841900  0.37841900  1
  Se  Se3  1  0.62158100  0.62158100  0.62158100  1
  Se  Se4  1  0.36830400  0.87955300  0.11588400  1
  Se  Se5  1  0.88411600  0.86830400  0.62044700  1
  Se  Se6  1  0.37955300  0.38411600  0.63169600  1
  Se  Se7  1  0.86830400  0.62044700  0.88411600  1
  Se  Se8  1  0.38411600  0.63169600  0.37955300  1
  Se  Se9  1  0.87955300  0.11588400  0.36830400  1
  Se  Se10  1  0.63169600  0.37955300  0.38411600  1
  Se  Se11  1  0.11588400  0.36830400  0.87955300  1
  Se  Se12  1  0.62044700  0.88411600  0.86830400  1
  Se  Se13  1  0.13169600  0.12044700  0.61588400  1
  Se  Se14  1  0.61588400  0.13169600  0.12044700  1
  Se  Se15  1  0.12044700  0.61588400  0.13169600  1
  Se  Se16  1  0.21857700  0.71857700  0.78142300  1
  Se  Se17  1  0.71857700  0.78142300  0.21857700  1
  Se  Se18  1  0.78142300  0.21857700  0.71857700  1
  Se  Se19  1  0.28142300  0.28142300  0.28142300  1
  Se  Se20  1  0.48324100  0.98324100  0.51675900  1
  Se  Se21  1  0.98324100  0.51675900  0.48324100  1
  Se  Se22  1  0.51675900  0.48324100  0.98324100  1
  Se  Se23  1  0.01675900  0.01675900  0.01675900  1
loop_
_geom_bond_atom_site_label_1
_geom_bond_atom_site_label_2
_geom_bond_distance
_geom_bond_site_symmetry_2
Cu0 Se16 2.402334 1_555
Cu0 Se1 2.502572 1_565
Cu0 Se23 2.581921 1_566
Cu0 Se4 2.679634 1_556
Cu1 Se16 2.402334 1_555
Cu1 Se2 2.502572 1_555
Cu1 Se21 2.581921 1_455
Cu1 Se5 2.679634 1_455
Cu2 Se16 2.402334 1_555
Cu2 Se3 2.502572 1_555
Cu2 Se22 2.581921 1_555
Cu2 Se6 2.679634 1_555
Cu3 Se17 2.402334 1_555
Cu3 Se0 2.502572 1_555
Cu3 Se22 2.581921 1_554
Cu3 Se7 2.679634 1_554
Cu4 Se17 2.402334 1_555
Cu4 Se3 2.502572 1_555
Cu4 Se20 2.581921 1_555
Cu4 Se8 2.679634 1_555
Cu5 Se17 2.402334 1_555
Cu5 Se2 2.502572 1_655
Cu5 Se23 2.581921 1_665
Cu5 Se9 2.679634 1_565
Cu6 Se18 2.402334 1_555
Cu6 Se3 2.502572 1_555
Cu6 Se21 2.581921 1_555
Cu6 Se10 2.679634 1_555
Cu7 Se18 2.402334 1_555
Cu7 Se0 2.502572 1_556
Cu7 Se23 2.581921 1_656
Cu7 Se11 2.679634 1_655
Cu8 Se18 2.402334 1_555
Cu8 Se1 2.502572 1_555
Cu8 Se20 2.581921 1_545
Cu8 Se12 2.679634 1_545
Cu9 Se19 2.402334 1_555
Cu9 Se2 2.502572 1_545
Cu9 Se20 2.581921 1_545
Cu9 Se13 2.679634 1_555
Cu10 Se19 2.402334 1_555
Cu10 Se1 2.502572 1_554
Cu10 Se22 2.581921 1_554
Cu10 Se14 2.679634 1_555
Cu11 Se19 2.402334 1_555
Cu11 Se0 2.502572 1_455
Cu11 Se21 2.581921 1_455
Cu11 Se15 2.679634 1_555
Cu12 Se7 2.386677 1_455
Cu12 Se23 2.416631 1_566
Cu12 Se15 2.459497 1_556
Cu12 Se16 2.986304 1_555
Cu13 Se11 2.386677 1_555
Cu13 Se21 2.416631 1_455
Cu13 Se7 2.459497 1_455
Cu13 Se16 2.986304 1_555
Cu14 Se15 2.386677 1_556
Cu14 Se22 2.416631 1_555
Cu14 Se11 2.459497 1_555
Cu14 Se16 2.986304 1_555
Cu15 Se4 2.386677 1_555
Cu15 Se22 2.416631 1_554
Cu15 Se12 2.459497 1_554
Cu15 Se17 2.986304 1_555
Cu16 Se14 2.386677 1_565
Cu16 Se20 2.416631 1_555
Cu16 Se4 2.459497 1_555
Cu16 Se17 2.986304 1_555
Cu17 Se12 2.386677 1_554
Cu17 Se23 2.416631 1_665
Cu17 Se14 2.459497 1_565
Cu17 Se17 2.986304 1_555
Cu18 Se13 2.386677 1_655
Cu18 Se21 2.416631 1_555
Cu18 Se9 2.459497 1_555
Cu18 Se18 2.986304 1_555
Cu19 Se5 2.386677 1_545
Cu19 Se23 2.416631 1_656
Cu19 Se13 2.459497 1_655
Cu19 Se18 2.986304 1_555
Cu20 Se9 2.386677 1_555
Cu20 Se20 2.416631 1_545
Cu20 Se5 2.459497 1_545
Cu20 Se18 2.986304 1_555
Cu21 Se10 2.386677 1_555
Cu21 Se20 2.416631 1_545
Cu21 Se6 2.459497 1_555
Cu21 Se19 2.986304 1_555
Cu22 Se8 2.386677 1_555
Cu22 Se22 2.416631 1_554
Cu22 Se10 2.459497 1_555
Cu22 Se19 2.986304 1_555
Cu23 Se6 2.386677 1_555
Cu23 Se21 2.416631 1_455
Cu23 Se8 2.459497 1_555
Cu23 Se19 2.986304 1_555
Cu24 Se16 2.282453 1_555
Cu24 Se20 2.335038 1_555
Cu25 Se17 2.282453 1_555
Cu25 Se21 2.335038 1_555
Cu26 Se18 2.282453 1_555
Cu26 Se22 2.335038 1_555
Cu27 Se19 2.282453 1_555
Cu27 Se23 2.335038 1_555
P0 Se10 2.224699 1_555
P0 Se14 2.224699 1_555
P0 Se9 2.224699 1_555
P0 Se0 2.239552 1_555
P1 Se6 2.224699 1_555
P1 Se13 2.224699 1_555
P1 Se11 2.224699 1_555
P1 Se1 2.239552 1_555
P2 Se8 2.224699 1_555
P2 Se15 2.224699 1_555
P2 Se4 2.224699 1_555
P2 Se2 2.239552 1_555
P3 Se5 2.224699 1_555
P3 Se7 2.224699 1_555
P3 Se12 2.224699 1_555
P3 Se3 2.239552 1_555
