# generated using pymatgen
data_NaBeHCO5
_symmetry_space_group_name_H-M   'P 1'
_cell_length_a   5.45177200
_cell_length_b   13.18105400
_cell_length_c   13.18105400
_cell_angle_alpha   90.00000000
_cell_angle_beta   90.00000000
_cell_angle_gamma   90.00000000
_symmetry_Int_Tables_number   1
_chemical_formula_structural   NaBeHCO5
_chemical_formula_sum   'Na8 Be8 H8 C8 O40'
_cell_volume   947.19187341
_cell_formula_units_Z   8
loop_
 _symmetry_equiv_pos_site_id
 _symmetry_equiv_pos_as_xyz
  1  'x, y, z'
loop_
 _atom_site_type_symbol
 _atom_site_label
 _atom_site_symmetry_multiplicity
 _atom_site_fract_x
 _atom_site_fract_y
 _atom_site_fract_z
 _atom_site_occupancy
  Na  Na0  1  0.00000000  0.41250200  0.10090100  1
  Na  Na1  1  0.00000000  0.58749800  0.89909900  1
  Na  Na2  1  0.00000000  0.89909900  0.41250200  1
  Na  Na3  1  0.50000000  0.58749800  0.10090100  1
  Na  Na4  1  0.00000000  0.10090100  0.58749800  1
  Na  Na5  1  0.50000000  0.41250200  0.89909900  1
  Na  Na6  1  0.50000000  0.10090100  0.41250200  1
  Na  Na7  1  0.50000000  0.89909900  0.58749800  1
  Be  Be0  1  0.25000000  0.15717400  0.15717400  1
  Be  Be1  1  0.75000000  0.84282600  0.84282600  1
  Be  Be2  1  0.25000000  0.84282600  0.84282600  1
  Be  Be3  1  0.25000000  0.84282600  0.15717400  1
  Be  Be4  1  0.75000000  0.15717400  0.15717400  1
  Be  Be5  1  0.75000000  0.15717400  0.84282600  1
  Be  Be6  1  0.25000000  0.15717400  0.84282600  1
  Be  Be7  1  0.75000000  0.84282600  0.15717400  1
  H  H0  1  0.00000000  0.11852000  0.02677800  1
  H  H1  1  0.00000000  0.88148000  0.97322200  1
  H  H2  1  0.00000000  0.97322200  0.11852000  1
  H  H3  1  0.50000000  0.88148000  0.02677800  1
  H  H4  1  0.00000000  0.02677800  0.88148000  1
  H  H5  1  0.50000000  0.11852000  0.97322200  1
  H  H6  1  0.50000000  0.02677800  0.11852000  1
  H  H7  1  0.50000000  0.97322200  0.88148000  1
  C  C0  1  0.00000000  0.11901800  0.32439300  1
  C  C1  1  0.00000000  0.88098200  0.67560700  1
  C  C2  1  0.00000000  0.67560700  0.11901800  1
  C  C3  1  0.50000000  0.88098200  0.32439300  1
  C  C4  1  0.00000000  0.32439300  0.88098200  1
  C  C5  1  0.50000000  0.11901800  0.67560700  1
  C  C6  1  0.50000000  0.32439300  0.11901800  1
  C  C7  1  0.50000000  0.67560700  0.88098200  1
  O  O0  1  0.00000000  0.08370200  0.41456200  1
  O  O1  1  0.00000000  0.91629800  0.58543800  1
  O  O2  1  0.00000000  0.58543800  0.08370200  1
  O  O3  1  0.50000000  0.91629800  0.41456200  1
  O  O4  1  0.00000000  0.41456200  0.91629800  1
  O  O5  1  0.50000000  0.08370200  0.58543800  1
  O  O6  1  0.50000000  0.41456200  0.08370200  1
  O  O7  1  0.50000000  0.58543800  0.91629800  1
  O  O8  1  0.20823400  0.13621500  0.27875700  1
  O  O9  1  0.79176600  0.86378500  0.72124300  1
  O  O10  1  0.20823400  0.86378500  0.72124300  1
  O  O11  1  0.20823400  0.72124300  0.13621500  1
  O  O12  1  0.29176600  0.86378500  0.27875700  1
  O  O13  1  0.79176600  0.13621500  0.27875700  1
  O  O14  1  0.79176600  0.27875700  0.86378500  1
  O  O15  1  0.70823400  0.13621500  0.72124300  1
  O  O16  1  0.20823400  0.27875700  0.86378500  1
  O  O17  1  0.29176600  0.13621500  0.72124300  1
  O  O18  1  0.79176600  0.72124300  0.13621500  1
  O  O19  1  0.70823400  0.86378500  0.27875700  1
  O  O20  1  0.29176600  0.27875700  0.13621500  1
  O  O21  1  0.70823400  0.72124300  0.86378500  1
  O  O22  1  0.29176600  0.72124300  0.86378500  1
  O  O23  1  0.70823400  0.27875700  0.13621500  1
  O  O24  1  0.00000000  0.42231400  0.29134300  1
  O  O25  1  0.00000000  0.57768600  0.70865700  1
  O  O26  1  0.00000000  0.70865700  0.42231400  1
  O  O27  1  0.50000000  0.57768600  0.29134300  1
  O  O28  1  0.00000000  0.29134300  0.57768600  1
  O  O29  1  0.50000000  0.42231400  0.70865700  1
  O  O30  1  0.50000000  0.29134300  0.42231400  1
  O  O31  1  0.50000000  0.70865700  0.57768600  1
  O  O32  1  0.00000000  0.11622700  0.10178400  1
  O  O33  1  0.00000000  0.88377300  0.89821600  1
  O  O34  1  0.00000000  0.89821600  0.11622700  1
  O  O35  1  0.50000000  0.88377300  0.10178400  1
  O  O36  1  0.00000000  0.10178400  0.88377300  1
  O  O37  1  0.50000000  0.11622700  0.89821600  1
  O  O38  1  0.50000000  0.10178400  0.11622700  1
  O  O39  1  0.50000000  0.89821600  0.88377300  1
loop_
_geom_bond_atom_site_label_1
_geom_bond_atom_site_label_2
_geom_bond_distance
_geom_bond_site_symmetry_2
Na0 O2 2.290724 1_555
Na0 O20 2.419633 1_555
Na0 O23 2.419633 1_455
Na0 O4 2.433414 1_554
Na0 O24 2.513556 1_555
Na0 O6 2.735431 1_555
Na0 O6 2.735431 1_455
Na1 O4 2.290724 1_555
Na1 O22 2.419633 1_555
Na1 O21 2.419633 1_455
Na1 O2 2.433414 1_556
Na1 O25 2.513556 1_555
Na1 O7 2.735431 1_455
Na1 O7 2.735431 1_555
Na2 O1 2.290724 1_555
Na2 O12 2.419633 1_555
Na2 O19 2.419633 1_455
Na2 O0 2.433414 1_565
Na2 O26 2.513556 1_555
Na2 O3 2.735431 1_555
Na2 O3 2.735431 1_455
Na3 O6 2.290724 1_555
Na3 O11 2.419633 1_555
Na3 O18 2.419633 1_555
Na3 O7 2.433414 1_554
Na3 O27 2.513556 1_555
Na3 O2 2.735431 1_655
Na3 O2 2.735431 1_555
Na4 O0 2.290724 1_555
Na4 O17 2.419633 1_555
Na4 O15 2.419633 1_455
Na4 O1 2.433414 1_545
Na4 O28 2.513556 1_555
Na4 O5 2.735431 1_555
Na4 O5 2.735431 1_455
Na5 O7 2.290724 1_555
Na5 O14 2.419633 1_555
Na5 O16 2.419633 1_555
Na5 O6 2.433414 1_556
Na5 O29 2.513556 1_555
Na5 O4 2.735431 1_555
Na5 O4 2.735431 1_655
Na6 O5 2.290724 1_555
Na6 O8 2.419633 1_555
Na6 O13 2.419633 1_555
Na6 O3 2.433414 1_545
Na6 O30 2.513556 1_555
Na6 O0 2.735431 1_655
Na6 O0 2.735431 1_555
Na7 O3 2.290724 1_555
Na7 O9 2.419633 1_555
Na7 O10 2.419633 1_555
Na7 O5 2.433414 1_565
Na7 O31 2.513556 1_555
Na7 O1 2.735431 1_555
Na7 O1 2.735431 1_655
Be0 O32 1.637669 1_555
Be0 O38 1.637669 1_555
Be0 O8 1.642093 1_555
Be0 O20 1.642093 1_555
Be1 O33 1.637669 1_655
Be1 O39 1.637669 1_555
Be1 O9 1.642093 1_555
Be1 O21 1.642093 1_555
Be2 O33 1.637669 1_555
Be2 O39 1.637669 1_555
Be2 O10 1.642093 1_555
Be2 O22 1.642093 1_555
Be3 O34 1.637669 1_555
Be3 O35 1.637669 1_555
Be3 O12 1.642093 1_555
Be3 O11 1.642093 1_555
Be4 O38 1.637669 1_555
Be4 O32 1.637669 1_655
Be4 O23 1.642093 1_555
Be4 O13 1.642093 1_555
Be5 O36 1.637669 1_655
Be5 O37 1.637669 1_555
Be5 O14 1.642093 1_555
Be5 O15 1.642093 1_555
Be6 O36 1.637669 1_555
Be6 O37 1.637669 1_555
Be6 O16 1.642093 1_555
Be6 O17 1.642093 1_555
Be7 O34 1.637669 1_655
Be7 O35 1.637669 1_555
Be7 O19 1.642093 1_555
Be7 O18 1.642093 1_555
H0 O32 0.989120 1_555
H1 O33 0.989120 1_555
H2 O34 0.989120 1_555
H3 O35 0.989120 1_555
H4 O36 0.989120 1_555
H5 O37 0.989120 1_555
H6 O38 0.989120 1_555
H7 O39 0.989120 1_555
C0 O0 1.276432 1_555
C0 O8 1.304607 1_555
C0 O13 1.304607 1_455
C1 O1 1.276432 1_555
C1 O10 1.304607 1_555
C1 O9 1.304607 1_455
C2 O2 1.276432 1_555
C2 O11 1.304607 1_555
C2 O18 1.304607 1_455
C3 O3 1.276432 1_555
C3 O12 1.304607 1_555
C3 O19 1.304607 1_555
C4 O4 1.276432 1_555
C4 O16 1.304607 1_555
C4 O14 1.304607 1_455
C5 O5 1.276432 1_555
C5 O17 1.304607 1_555
C5 O15 1.304607 1_555
C6 O6 1.276432 1_555
C6 O20 1.304607 1_555
C6 O23 1.304607 1_555
C7 O7 1.276432 1_555
C7 O22 1.304607 1_555
C7 O21 1.304607 1_555
