# generated using pymatgen
data_Ta2V4Si5
_symmetry_space_group_name_H-M   'P 1'
_cell_length_a   9.36650662
_cell_length_b   9.36645945
_cell_length_c   9.36645945
_cell_angle_alpha   148.26073256
_cell_angle_beta   132.37566998
_cell_angle_gamma   58.36942901
_symmetry_Int_Tables_number   1
_chemical_formula_structural   Ta2V4Si5
_chemical_formula_sum   'Ta4 V8 Si10'
_cell_volume   316.81602086
_cell_formula_units_Z   2
loop_
 _symmetry_equiv_pos_site_id
 _symmetry_equiv_pos_as_xyz
  1  'x, y, z'
loop_
 _atom_site_type_symbol
 _atom_site_label
 _atom_site_symmetry_multiplicity
 _atom_site_fract_x
 _atom_site_fract_y
 _atom_site_fract_z
 _atom_site_occupancy
  Ta  Ta0  1  0.68864033  0.93856327  0.24995116  1
  Ta  Ta1  1  0.68864033  0.43868917  0.75007706  1
  Ta  Ta2  1  0.31136202  0.06143175  0.75004334  1
  Ta  Ta3  1  0.31136202  0.56131869  0.24993027  1
  V  V0  1  0.02471538  0.64336615  0.38134924  1
  V  V1  1  0.68431374  0.43581377  0.24849997  1
  V  V2  1  0.73813166  0.85666420  0.88146746  1
  V  V3  1  0.26188962  0.14332844  0.11856118  1
  V  V4  1  0.18732597  0.93583006  0.25149591  1
  V  V5  1  0.81270733  0.06418406  0.74852327  1
  V  V6  1  0.31568223  0.56419874  0.75148350  1
  V  V7  1  0.97525407  0.35662544  0.61862863  1
  Si  Si0  1  0.65292339  0.55995309  0.09297030  1
  Si  Si1  1  0.01366246  0.20860148  0.80506198  1
  Si  Si2  1  0.40361513  0.70862853  0.69498660  1
  Si  Si3  1  0.59639162  0.29136847  0.30502315  1
  Si  Si4  1  -0.00000389  0.24995663  0.24996926  1
  Si  Si5  1  -0.00000389  0.75002685  0.75003948  1
  Si  Si6  1  0.98631643  0.79139464  0.19492079  1
  Si  Si7  1  0.46695732  0.05995041  0.40700691  1
  Si  Si8  1  0.34706050  0.44005229  0.90700821  1
  Si  Si9  1  0.53305621  0.94005389  0.59300233  1
loop_
_geom_bond_atom_site_label_1
_geom_bond_atom_site_label_2
_geom_bond_distance
_geom_bond_site_symmetry_2
Si0 V1 2.346424 1_555
Si0 Si8 2.413209 1_554
Si0 Ta0 2.561653 1_555
Si0 Ta1 2.561653 1_554
Si0 V0 2.572589 1_655
Si0 V6 2.583679 1_554
Si0 V5 2.819384 1_554
Si0 V5 2.819384 1_565
Si1 V5 2.400317 1_455
Si1 Ta3 2.576439 1_556
Si1 Ta2 2.576442 1_555
Si1 V3 2.600300 1_556
Si1 Ta1 2.659038 1_455
Si1 Ta0 2.659040 1_445
Si1 V7 2.801607 1_455
Si1 V0 2.833936 1_556
Si1 V0 2.833941 1_545
Si2 V6 2.400463 1_555
Si2 Ta2 2.576743 1_565
Si2 Ta3 2.576743 1_555
Si2 V0 2.601195 1_555
Si2 Ta0 2.658649 1_556
Si2 Ta1 2.658649 1_555
Si2 V2 2.801966 1_555
Si2 V3 2.834556 1_566
Si2 V3 2.834556 1_555
Si3 V1 2.400748 1_555
Si3 Ta1 2.576674 1_555
Si3 Ta0 2.576674 1_545
Si3 V7 2.600938 1_555
Si3 Ta2 2.658732 1_554
Si3 Ta3 2.658732 1_555
Si3 V3 2.801955 1_555
Si3 V2 2.834558 1_544
Si3 V2 2.834558 1_555
Si4 V4 2.521629 1_545
Si4 V5 2.521778 1_454
Si4 V1 2.522007 1_455
Si4 V6 2.522060 1_555
Si4 Si5 2.560894 1_544
Si4 Si5 2.561613 1_555
Si4 V2 2.817470 1_444
Si4 V3 2.817643 1_555
Si4 V7 2.818361 1_455
Si4 V0 2.818545 1_555
Si5 V4 2.521629 1_556
Si5 V5 2.521778 1_465
Si5 V1 2.522007 1_455
Si5 V6 2.522060 1_555
Si5 V2 2.817470 1_455
Si5 V3 2.817643 1_566
Si5 V7 2.818361 1_455
Si5 V0 2.818545 1_555
Si6 V4 2.400656 1_655
Si6 Ta1 2.576287 1_554
Si6 Ta0 2.576290 1_555
Si6 V2 2.599960 1_554
Si6 Ta3 2.659152 1_655
Si6 Ta2 2.659154 1_665
Si6 V0 2.801652 1_655
Si6 V7 2.833916 1_554
Si6 V7 2.833921 1_565
Si7 V4 2.346100 1_545
Si7 Si9 2.413283 1_545
Si7 Ta0 2.562125 1_545
Si7 Ta1 2.562125 1_555
Si7 V3 2.572697 1_555
Si7 V5 2.583898 1_555
Si7 V6 2.819297 1_544
Si7 V6 2.819297 1_555
Si8 V6 2.346506 1_555
Si8 Ta3 2.561769 1_556
Si8 Ta2 2.561769 1_555
Si8 V7 2.572713 1_455
Si8 V1 2.583713 1_556
Si8 V4 2.819252 1_556
Si8 V4 2.819252 1_545
Si9 V5 2.346276 1_565
Si9 Ta3 2.562165 1_555
Si9 Ta2 2.562165 1_565
Si9 V2 2.572922 1_555
Si9 V4 2.583819 1_555
Si9 V1 2.819212 1_566
Si9 V1 2.819212 1_555
