# generated using pymatgen
data_Y12Co5Bi
_symmetry_space_group_name_H-M   'P 1'
_cell_length_a   8.37535874
_cell_length_b   8.37535258
_cell_length_c   8.37535434
_cell_angle_alpha   110.23146161
_cell_angle_beta   110.95798183
_cell_angle_gamma   107.24782021
_symmetry_Int_Tables_number   1
_chemical_formula_structural   Y12Co5Bi
_chemical_formula_sum   'Y12 Co5 Bi1'
_cell_volume   451.73170336
_cell_formula_units_Z   1
loop_
 _symmetry_equiv_pos_site_id
 _symmetry_equiv_pos_as_xyz
  1  'x, y, z'
loop_
 _atom_site_type_symbol
 _atom_site_label
 _atom_site_symmetry_multiplicity
 _atom_site_fract_x
 _atom_site_fract_y
 _atom_site_fract_z
 _atom_site_occupancy
  Y  Y0  1  0.28811285  0.18153563  0.46966390  1
  Y  Y1  1  0.71185878  0.81845303  0.53032717  1
  Y  Y2  1  0.28812667  0.81845280  0.10659491  1
  Y  Y3  1  0.71187136  0.18153592  0.89342258  1
  Y  Y4  1  0.61909756  0.31197818  0.30711795  1
  Y  Y5  1  0.38087706  0.68803926  0.69283579  1
  Y  Y6  1  0.00486006  0.31197784  0.69288044  1
  Y  Y7  1  0.99520341  0.68803976  0.30716189  1
  Y  Y8  1  0.20915156  0.40721369  0.19806197  1
  Y  Y9  1  0.79082929  0.59280950  0.80197997  1
  Y  Y10  1  0.20916659  0.01110689  0.80194069  1
  Y  Y11  1  0.79084462  0.98886731  0.19802249  1
  Co  Co0  1  -0.00002224  0.38203956  0.38206257  1
  Co  Co1  1  -0.00002456  0.61789220  0.61791471  1
  Co  Co2  1  0.39105170  0.89105603  0.50000433  1
  Co  Co3  1  0.60898276  0.10898686  0.50000442  1
  Co  Co4  1  0.00001161  0.00001544  0.00000339  1
  Bi  Bi0  1  0.49999992  0.50000011  -0.00000013  1
loop_
_geom_bond_atom_site_label_1
_geom_bond_atom_site_label_2
_geom_bond_distance
_geom_bond_site_symmetry_2
Co0 Co1 2.259495 1_555
Co0 Y11 2.724912 1_445
Co0 Y8 2.724988 1_555
Co0 Y6 2.849082 1_555
Co0 Y4 2.849086 1_455
Co0 Y5 2.849223 1_555
Co0 Y7 2.849238 1_455
Co0 Y0 3.342267 1_555
Co0 Y3 3.342270 1_454
Co1 Y9 2.725180 1_455
Co1 Y10 2.725254 1_565
Co1 Y4 2.848988 1_455
Co1 Y6 2.849007 1_555
Co1 Y7 2.849158 1_455
Co1 Y5 2.849167 1_555
Co1 Y1 3.342507 1_455
Co1 Y2 3.342523 1_556
Co2 Co3 2.165048 1_565
Co2 Y7 2.723697 1_455
Co2 Y5 2.723700 1_555
Co2 Y2 2.870721 1_555
Co2 Y1 2.870729 1_555
Co2 Y3 2.870781 1_565
Co2 Y0 2.870787 1_565
Co2 Y10 3.410580 1_565
Co2 Y8 3.410702 1_555
Co3 Y6 2.723868 1_655
Co3 Y4 2.723874 1_555
Co3 Y2 2.870905 1_545
Co3 Y1 2.870912 1_545
Co3 Y3 2.870969 1_555
Co3 Y0 2.870976 1_555
Co3 Y9 3.410694 1_555
Co3 Y11 3.410828 1_545
Co4 Y11 2.813677 1_445
Co4 Y8 2.813726 1_555
Co4 Y9 2.813813 1_444
Co4 Y10 2.813870 1_554
Co4 Y0 3.241181 1_555
Co4 Y3 3.241187 1_454
Co4 Y1 3.241298 1_444
Co4 Y2 3.241314 1_545
Bi0 Y9 3.456391 1_554
Bi0 Y11 3.456526 1_555
Bi0 Y10 3.456629 1_554
Bi0 Y8 3.456771 1_555
Bi0 Y6 3.462465 1_554
Bi0 Y4 3.462469 1_555
Bi0 Y7 3.462923 1_555
Bi0 Y5 3.462925 1_554
Bi0 Y2 3.654141 1_555
Bi0 Y1 3.654143 1_555
Bi0 Y0 3.654177 1_554
Bi0 Y3 3.654181 1_554
