# generated using pymatgen
data_Mg3Cr3(AsO4)4
_symmetry_space_group_name_H-M   'P 1'
_cell_length_a   5.21650200
_cell_length_b   8.80095300
_cell_length_c   16.19510640
_cell_angle_alpha   66.88610804
_cell_angle_beta   90.00000000
_cell_angle_gamma   90.00000000
_symmetry_Int_Tables_number   1
_chemical_formula_structural   Mg3Cr3(AsO4)4
_chemical_formula_sum   'Mg6 Cr6 As8 O32'
_cell_volume   683.83529413
_cell_formula_units_Z   2
loop_
 _symmetry_equiv_pos_site_id
 _symmetry_equiv_pos_as_xyz
  1  'x, y, z'
loop_
 _atom_site_type_symbol
 _atom_site_label
 _atom_site_symmetry_multiplicity
 _atom_site_fract_x
 _atom_site_fract_y
 _atom_site_fract_z
 _atom_site_occupancy
  Mg  Mg0  1  0.53675400  0.29895100  0.21743600  1
  Mg  Mg1  1  0.03675400  0.70104900  0.28256400  1
  Mg  Mg2  1  0.46324600  0.70104900  0.78256400  1
  Mg  Mg3  1  0.96324600  0.29895100  0.71743600  1
  Mg  Mg4  1  0.50000000  0.00000000  0.50000000  1
  Mg  Mg5  1  0.00000000  0.00000000  0.00000000  1
  Cr  Cr0  1  0.50144100  0.20554700  0.62223700  1
  Cr  Cr1  1  0.49855900  0.79445300  0.37776300  1
  Cr  Cr2  1  0.00144100  0.79445300  0.87776300  1
  Cr  Cr3  1  0.99855900  0.20554700  0.12223700  1
  Cr  Cr4  1  0.00000000  0.50000000  0.50000000  1
  Cr  Cr5  1  0.50000000  0.50000000  0.00000000  1
  As  As0  1  0.98900700  0.03690400  0.35100500  1
  As  As1  1  0.50180800  0.41843000  0.39451400  1
  As  As2  1  0.00180800  0.58157000  0.10548600  1
  As  As3  1  0.99819200  0.41843000  0.89451400  1
  As  As4  1  0.01099300  0.96309600  0.64899500  1
  As  As5  1  0.49819200  0.58157000  0.60548600  1
  As  As6  1  0.51099300  0.03690400  0.85100500  1
  As  As7  1  0.48900700  0.96309600  0.14899500  1
  O  O0  1  0.39771900  0.81211000  0.25275700  1
  O  O1  1  0.95088200  0.75674200  0.01017500  1
  O  O2  1  0.41834400  0.39949000  0.29938900  1
  O  O3  1  0.40306200  0.15302600  0.15329900  1
  O  O4  1  0.58165600  0.60051000  0.70061100  1
  O  O5  1  0.10228100  0.81211000  0.75275700  1
  O  O6  1  0.91834400  0.60051000  0.20061100  1
  O  O7  1  0.70099500  0.50863600  0.89004900  1
  O  O8  1  0.68284000  0.08102100  0.92612900  1
  O  O9  1  0.60228100  0.18789000  0.74724300  1
  O  O10  1  0.09693800  0.15302600  0.65329900  1
  O  O11  1  0.29900500  0.49136400  0.10995100  1
  O  O12  1  0.29182600  0.56675400  0.40773300  1
  O  O13  1  0.31716000  0.91897900  0.07387100  1
  O  O14  1  0.68248800  0.96710900  0.63406800  1
  O  O15  1  0.18248800  0.03289100  0.86593200  1
  O  O16  1  0.79182600  0.43324600  0.09226700  1
  O  O17  1  0.08165600  0.39949000  0.79938900  1
  O  O18  1  0.18284000  0.91897900  0.57387100  1
  O  O19  1  0.20099500  0.49136400  0.60995100  1
  O  O20  1  0.81751200  0.96710900  0.13406800  1
  O  O21  1  0.31751200  0.03289100  0.36593200  1
  O  O22  1  0.04911800  0.24325800  0.98982500  1
  O  O23  1  0.45088200  0.24325800  0.48982500  1
  O  O24  1  0.70817400  0.43324600  0.59226700  1
  O  O25  1  0.89771900  0.18789000  0.24724300  1
  O  O26  1  0.59693800  0.84697400  0.84670100  1
  O  O27  1  0.81716000  0.08102100  0.42612900  1
  O  O28  1  0.54911800  0.75674200  0.51017500  1
  O  O29  1  0.79900500  0.50863600  0.39004900  1
  O  O30  1  0.20817400  0.56675400  0.90773300  1
  O  O31  1  0.90306200  0.84697400  0.34670100  1
loop_
_geom_bond_atom_site_label_1
_geom_bond_atom_site_label_2
_geom_bond_distance
_geom_bond_site_symmetry_2
Mg0 O2 1.961651 1_555
Mg0 O3 2.064460 1_555
Mg0 O25 2.088914 1_555
Mg0 O11 2.263092 1_555
Mg0 O16 2.322834 1_555
Mg1 O6 1.961651 1_455
Mg1 O31 2.064460 1_455
Mg1 O0 2.088914 1_555
Mg1 O29 2.263092 1_455
Mg1 O12 2.322834 1_555
Mg2 O4 1.961651 1_555
Mg2 O26 2.064460 1_555
Mg2 O5 2.088914 1_555
Mg2 O7 2.263092 1_555
Mg2 O30 2.322834 1_555
Mg3 O17 1.961651 1_655
Mg3 O10 2.064460 1_655
Mg3 O9 2.088914 1_555
Mg3 O19 2.263092 1_655
Mg3 O24 2.322834 1_555
Mg4 O18 2.001800 1_545
Mg4 O27 2.001800 1_555
Mg4 O28 2.097447 1_545
Mg4 O23 2.097447 1_555
Mg4 O14 2.282728 1_545
Mg4 O21 2.282728 1_555
Mg5 O8 2.001800 1_454
Mg5 O13 2.001800 1_545
Mg5 O1 2.097447 1_445
Mg5 O22 2.097447 1_554
Mg5 O15 2.282728 1_554
Mg5 O20 2.282728 1_445
Cr0 O9 2.037744 1_555
Cr0 O23 2.054140 1_555
Cr0 O24 2.156574 1_555
Cr0 O10 2.176383 1_555
Cr0 O14 2.239779 1_545
Cr1 O0 2.037744 1_555
Cr1 O28 2.054140 1_555
Cr1 O12 2.156574 1_555
Cr1 O31 2.176383 1_555
Cr1 O21 2.239779 1_565
Cr2 O5 2.037744 1_555
Cr2 O1 2.054140 1_456
Cr2 O30 2.156574 1_555
Cr2 O26 2.176383 1_455
Cr2 O15 2.239779 1_565
Cr3 O25 2.037744 1_555
Cr3 O22 2.054140 1_654
Cr3 O16 2.156574 1_555
Cr3 O3 2.176383 1_655
Cr3 O20 2.239779 1_545
Cr4 O19 2.041967 1_555
Cr4 O29 2.041967 1_455
Cr4 O24 2.050901 1_455
Cr4 O12 2.050901 1_555
Cr5 O11 2.041967 1_555
Cr5 O7 2.041967 1_554
Cr5 O16 2.050901 1_555
Cr5 O30 2.050901 1_554
As0 O27 1.674950 1_555
As0 O21 1.729037 1_655
As0 O25 1.750208 1_555
As0 O31 1.758257 1_545
As1 O2 1.671014 1_555
As1 O23 1.720936 1_555
As1 O29 1.730304 1_555
As1 O12 1.780206 1_555
As2 O6 1.671014 1_455
As2 O1 1.720936 1_455
As2 O11 1.730304 1_555
As2 O16 1.780206 1_455
As3 O17 1.671014 1_655
As3 O22 1.720936 1_655
As3 O7 1.730304 1_555
As3 O30 1.780206 1_655
As4 O18 1.674950 1_555
As4 O14 1.729037 1_455
As4 O5 1.750208 1_555
As4 O10 1.758257 1_565
As5 O4 1.671014 1_555
As5 O28 1.720936 1_555
As5 O19 1.730304 1_555
As5 O24 1.780206 1_555
As6 O8 1.674950 1_555
As6 O15 1.729037 1_555
As6 O9 1.750208 1_555
As6 O26 1.758257 1_545
As7 O13 1.674950 1_555
As7 O20 1.729037 1_555
As7 O0 1.750208 1_555
As7 O3 1.758257 1_565
