# generated using pymatgen
data_ZnCoO2
_symmetry_space_group_name_H-M   'P 1'
_cell_length_a   2.95969300
_cell_length_b   8.07842557
_cell_length_c   8.35668231
_cell_angle_alpha   88.74829168
_cell_angle_beta   81.19824491
_cell_angle_gamma   82.29021220
_symmetry_Int_Tables_number   1
_chemical_formula_structural   ZnCoO2
_chemical_formula_sum   'Zn4 Co4 O8'
_cell_volume   195.66737118
_cell_formula_units_Z   4
loop_
 _symmetry_equiv_pos_site_id
 _symmetry_equiv_pos_as_xyz
  1  'x, y, z'
loop_
 _atom_site_type_symbol
 _atom_site_label
 _atom_site_symmetry_multiplicity
 _atom_site_fract_x
 _atom_site_fract_y
 _atom_site_fract_z
 _atom_site_occupancy
  Zn  Zn0  1  0.60771000  0.58570800  0.24988200  1
  Zn  Zn1  1  0.39229000  0.41429200  0.75011800  1
  Zn  Zn2  1  0.17808500  0.23654200  0.40281500  1
  Zn  Zn3  1  0.82191500  0.76345800  0.59718500  1
  Co  Co0  1  0.15367500  0.73663500  0.91629200  1
  Co  Co1  1  0.36538400  0.91501900  0.26259200  1
  Co  Co2  1  0.63461600  0.08498100  0.73740800  1
  Co  Co3  1  0.84632500  0.26336500  0.08370800  1
  O  O0  1  0.39787600  0.23724600  0.92937100  1
  O  O1  1  0.21148700  0.90554600  0.71727000  1
  O  O2  1  0.78851300  0.09445400  0.28273000  1
  O  O3  1  0.60212400  0.76275400  0.07062900  1
  O  O4  1  0.81586100  0.59226500  0.77056400  1
  O  O5  1  0.95716300  0.74271300  0.37031800  1
  O  O6  1  0.18413900  0.40773500  0.22943600  1
  O  O7  1  0.04283700  0.25728700  0.62968200  1
loop_
_geom_bond_atom_site_label_1
_geom_bond_atom_site_label_2
_geom_bond_distance
_geom_bond_site_symmetry_2
Co0 O3 1.909951 1_456
Co0 O3 2.020031 1_556
Co0 O1 2.129261 1_555
Co0 O4 2.142535 1_455
Co0 O4 2.324366 1_555
Co1 O3 2.021967 1_555
Co1 O2 2.063997 1_565
Co1 O5 2.066730 1_455
Co1 O2 2.074436 1_465
Co1 O5 2.364173 1_555
Co2 O0 2.021967 1_555
Co2 O1 2.063997 1_545
Co2 O7 2.066730 1_655
Co2 O1 2.074436 1_645
Co2 O7 2.364173 1_555
Co3 O0 1.909951 1_654
Co3 O0 2.020031 1_554
Co3 O2 2.129261 1_555
Co3 O6 2.142535 1_655
Co3 O6 2.324366 1_555
O0 Zn1 2.048759 1_555
O1 Zn3 2.100847 1_455
O1 Zn3 2.127849 1_555
O2 Zn2 2.100847 1_655
O2 Zn2 2.127849 1_555
O3 Zn0 2.048759 1_555
O4 Zn3 1.980738 1_555
O4 Zn1 2.056161 1_555
O4 Zn1 2.066472 1_655
O5 Zn3 1.883142 1_555
O5 Zn0 2.101828 1_555
O5 Zn0 2.266358 1_655
O6 Zn2 1.980738 1_555
O6 Zn0 2.056161 1_555
O6 Zn0 2.066472 1_455
O7 Zn2 1.883142 1_555
O7 Zn1 2.101828 1_555
O7 Zn1 2.266358 1_455
