# generated using pymatgen
data_YGeRh2
_symmetry_space_group_name_H-M   'P 1'
_cell_length_a   5.54423511
_cell_length_b   5.54423076
_cell_length_c   15.49548550
_cell_angle_alpha   90.00002570
_cell_angle_beta   89.99999953
_cell_angle_gamma   119.99979183
_symmetry_Int_Tables_number   1
_chemical_formula_structural   YGeRh2
_chemical_formula_sum   'Y6 Ge6 Rh12'
_cell_volume   412.49592965
_cell_formula_units_Z   6
loop_
 _symmetry_equiv_pos_site_id
 _symmetry_equiv_pos_as_xyz
  1  'x, y, z'
loop_
 _atom_site_type_symbol
 _atom_site_label
 _atom_site_symmetry_multiplicity
 _atom_site_fract_x
 _atom_site_fract_y
 _atom_site_fract_z
 _atom_site_occupancy
  Y  Y0  1  0.33333237  0.66666567  0.53815685  1
  Y  Y1  1  0.66666624  0.33333150  0.46182105  1
  Y  Y2  1  0.66666739  0.33333359  0.03814018  1
  Y  Y3  1  0.33333329  0.66666721  0.96183419  1
  Y  Y4  1  0.33333344  0.66666704  0.75003813  1
  Y  Y5  1  0.66666705  0.33333381  0.24999112  1
  Ge  Ge0  1  0.00000109  0.00000014  0.24998921  1
  Ge  Ge1  1  -0.00000045  0.00000046  0.74999130  1
  Ge  Ge2  1  0.33333270  0.66666662  0.24999099  1
  Ge  Ge3  1  0.66666703  0.33333325  0.74998322  1
  Ge  Ge4  1  0.00000021  0.00000080  0.00000568  1
  Ge  Ge5  1  -0.00000085  -0.00000127  0.50001602  1
  Rh  Rh0  1  0.16773269  0.33546506  0.12820236  1
  Rh  Rh1  1  0.83226855  0.66453776  0.87180034  1
  Rh  Rh2  1  0.66453511  0.83226775  0.12820195  1
  Rh  Rh3  1  0.83227279  0.66454520  0.62825610  1
  Rh  Rh4  1  0.33546241  0.16773137  0.87180001  1
  Rh  Rh5  1  0.16772311  0.33544719  0.37175597  1
  Rh  Rh6  1  0.16773251  0.83226720  0.12820190  1
  Rh  Rh7  1  0.33545439  0.16772685  0.62825611  1
  Rh  Rh8  1  0.83227119  0.16773331  0.87180018  1
  Rh  Rh9  1  0.66455346  0.83227644  0.37175605  1
  Rh  Rh10  1  0.83227210  0.16772682  0.62825587  1
  Rh  Rh11  1  0.16772317  0.83227620  0.37175623  1
loop_
_geom_bond_atom_site_label_1
_geom_bond_atom_site_label_2
_geom_bond_distance
_geom_bond_site_symmetry_2
Y0 Y4 3.283203 1_555
Y1 Y5 3.282408 1_555
Y2 Y5 3.282733 1_555
Y3 Y4 3.281883 1_555
Ge0 Rh11 2.480781 1_545
Ge0 Rh5 2.480783 1_555
Ge0 Rh9 2.480788 1_445
Ge0 Rh6 2.481077 1_545
Ge0 Rh0 2.481077 1_555
Ge0 Rh2 2.481085 1_445
Ge0 Y5 3.200966 1_455
Ge0 Y5 3.200968 1_445
Ge0 Y5 3.200969 1_555
Ge1 Rh10 2.480433 1_455
Ge1 Rh3 2.480437 1_445
Ge1 Rh7 2.480437 1_555
Ge1 Rh8 2.481321 1_455
Ge1 Rh4 2.481328 1_555
Ge1 Rh1 2.481331 1_445
Ge1 Y4 3.200964 1_545
Ge1 Y4 3.200970 1_555
Ge1 Y4 3.200970 1_445
Ge2 Rh11 2.467631 1_555
Ge2 Rh5 2.467633 1_555
Ge2 Rh9 2.467638 1_555
Ge2 Rh0 2.467856 1_555
Ge2 Rh6 2.467858 1_555
Ge2 Rh2 2.467866 1_555
Ge2 Y5 3.200963 1_555
Ge2 Y5 3.200967 1_455
Ge2 Y5 3.200972 1_565
Ge3 Rh10 2.467159 1_555
Ge3 Rh3 2.467161 1_555
Ge3 Rh7 2.467163 1_555
Ge3 Rh8 2.468198 1_555
Ge3 Rh4 2.468201 1_555
Ge3 Rh1 2.468203 1_555
Ge3 Y4 3.200965 1_555
Ge3 Y4 3.200968 1_545
Ge3 Y4 3.200971 1_655
Ge4 Rh6 2.557431 1_545
Ge4 Rh2 2.557433 1_445
Ge4 Rh0 2.557434 1_555
Ge4 Rh8 2.557530 1_454
Ge4 Rh1 2.557534 1_444
Ge4 Rh4 2.557537 1_554
Ge4 Y2 3.255042 1_455
Ge4 Y2 3.255058 1_445
Ge4 Y2 3.255060 1_555
Ge4 Y3 3.255151 1_544
Ge4 Y3 3.255159 1_554
Ge4 Y3 3.255163 1_444
Ge5 Rh10 2.557923 1_455
Ge5 Rh3 2.557925 1_445
Ge5 Rh7 2.557930 1_555
Ge5 Rh11 2.558137 1_545
Ge5 Rh9 2.558140 1_445
Ge5 Rh5 2.558150 1_555
Ge5 Y0 3.255063 1_545
Ge5 Y0 3.255074 1_555
Ge5 Y0 3.255076 1_445
Ge5 Y1 3.255212 1_455
Ge5 Y1 3.255228 1_445
Ge5 Y1 3.255230 1_555
Rh0 Rh6 2.754386 1_555
Rh0 Rh2 2.754398 1_555
Rh0 Rh6 2.789845 1_545
Rh0 Rh2 2.789853 1_445
Rh0 Y3 3.028987 1_554
Rh0 Y2 3.103596 1_455
Rh0 Y2 3.103600 1_555
Rh0 Y5 3.353531 1_555
Rh0 Y5 3.353532 1_455
Rh1 Rh8 2.754406 1_555
Rh1 Rh4 2.754418 1_555
Rh1 Rh8 2.789825 1_565
Rh1 Rh4 2.789832 1_665
Rh1 Y2 3.028618 1_556
Rh1 Y3 3.103400 1_555
Rh1 Y3 3.103401 1_655
Rh1 Y4 3.353299 1_555
Rh1 Y4 3.353301 1_655
Rh2 Rh6 2.754389 1_555
Rh2 Rh6 2.789846 1_655
Rh2 Y3 3.028980 1_554
Rh2 Y2 3.103592 1_565
Rh2 Y2 3.103594 1_555
Rh2 Y5 3.353533 1_565
Rh2 Y5 3.353534 1_555
Rh3 Rh7 2.754485 1_555
Rh3 Rh7 2.789765 1_665
Rh3 Y1 3.029897 1_555
Rh3 Y0 3.103853 1_655
Rh3 Y0 3.103859 1_555
Rh3 Y4 3.353471 1_655
Rh3 Y4 3.353474 1_555
Rh4 Rh8 2.754419 1_555
Rh4 Rh8 2.789816 1_455
Rh4 Y2 3.028624 1_556
Rh4 Y3 3.103400 1_545
Rh4 Y3 3.103402 1_555
Rh4 Y4 3.353294 1_545
Rh4 Y4 3.353297 1_555
Rh5 Rh9 2.754549 1_555
Rh5 Rh9 2.789702 1_445
Rh5 Y0 3.029458 1_555
Rh5 Y1 3.103613 1_455
Rh5 Y1 3.103623 1_555
Rh5 Y5 3.353320 1_455
Rh5 Y5 3.353326 1_555
Rh6 Y3 3.028974 1_554
Rh6 Y2 3.103598 1_455
Rh6 Y2 3.103605 1_565
Rh6 Y5 3.353540 1_455
Rh6 Y5 3.353544 1_565
Rh7 Y1 3.029894 1_555
Rh7 Y0 3.103854 1_555
Rh7 Y0 3.103855 1_545
Rh7 Y4 3.353468 1_545
Rh7 Y4 3.353473 1_555
Rh8 Y2 3.028617 1_556
Rh8 Y3 3.103398 1_655
Rh8 Y3 3.103419 1_545
Rh8 Y4 3.353296 1_655
Rh8 Y4 3.353313 1_545
Rh9 Y0 3.029465 1_555
Rh9 Y1 3.103608 1_565
Rh9 Y1 3.103623 1_555
Rh9 Y5 3.353318 1_555
Rh9 Y5 3.353325 1_565
Rh10 Rh3 2.754474 1_555
Rh10 Rh7 2.754474 1_555
Rh10 Rh3 2.789757 1_545
Rh10 Rh7 2.789761 1_655
Rh10 Y1 3.029884 1_555
Rh10 Y0 3.103860 1_655
Rh10 Y0 3.103863 1_545
Rh10 Y4 3.353478 1_545
Rh10 Y4 3.353484 1_655
Rh11 Rh5 2.754535 1_555
Rh11 Rh9 2.754543 1_555
Rh11 Rh9 2.789692 1_455
Rh11 Rh5 2.789696 1_565
Rh11 Y0 3.029456 1_555
Rh11 Y1 3.103618 1_565
Rh11 Y1 3.103627 1_455
Rh11 Y5 3.353327 1_455
Rh11 Y5 3.353335 1_565
