# generated using pymatgen
data_SrCa3IrO6
_symmetry_space_group_name_H-M   'P 1'
_cell_length_a   6.68235800
_cell_length_b   6.68235800
_cell_length_c   6.72167424
_cell_angle_alpha   89.13156517
_cell_angle_beta   89.13156517
_cell_angle_gamma   91.72627208
_symmetry_Int_Tables_number   1
_chemical_formula_structural   SrCa3IrO6
_chemical_formula_sum   'Sr2 Ca6 Ir2 O12'
_cell_volume   299.94173635
_cell_formula_units_Z   2
loop_
 _symmetry_equiv_pos_site_id
 _symmetry_equiv_pos_as_xyz
  1  'x, y, z'
loop_
 _atom_site_type_symbol
 _atom_site_label
 _atom_site_symmetry_multiplicity
 _atom_site_fract_x
 _atom_site_fract_y
 _atom_site_fract_z
 _atom_site_occupancy
  Sr  Sr0  1  0.88431700  0.74858500  0.13565100  1
  Sr  Sr1  1  0.25141500  0.11568300  0.86434900  1
  Ca  Ca0  1  0.25060100  0.74939900  0.50000000  1
  Ca  Ca1  1  0.74928400  0.25071600  0.00000000  1
  Ca  Ca2  1  0.61035000  0.38965000  0.50000000  1
  Ca  Ca3  1  0.74846700  0.89091700  0.63914600  1
  Ca  Ca4  1  0.39046100  0.60953900  0.00000000  1
  Ca  Ca5  1  0.10908300  0.25153300  0.36085400  1
  Ir  Ir0  1  0.50309300  0.00147000  0.25209400  1
  Ir  Ir1  1  0.99853000  0.49690700  0.74790600  1
  O  O0  1  0.21026600  0.92591000  0.20249700  1
  O  O1  1  0.43193300  0.05663400  0.54028700  1
  O  O2  1  0.54918800  0.70686500  0.32731400  1
  O  O3  1  0.91649200  0.20566800  0.69246600  1
  O  O4  1  0.70373100  0.55024000  0.82053700  1
  O  O5  1  0.05861000  0.42050300  0.04140100  1
  O  O6  1  0.79433200  0.08350800  0.30753400  1
  O  O7  1  0.57949700  0.94139000  0.95859900  1
  O  O8  1  0.44976000  0.29626900  0.17946300  1
  O  O9  1  0.07409000  0.78973400  0.79750300  1
  O  O10  1  0.29313500  0.45081200  0.67268600  1
  O  O11  1  0.94336600  0.56806700  0.45971300  1
loop_
_geom_bond_atom_site_label_1
_geom_bond_atom_site_label_2
_geom_bond_distance
_geom_bond_site_symmetry_2
Ca0 O10 2.320161 1_555
Ca0 O2 2.320161 1_555
Ca0 O0 2.329540 1_555
Ca0 O9 2.329540 1_555
Ca0 O11 2.373511 1_455
Ca0 O1 2.373511 1_565
Ca1 O7 2.350111 1_544
Ca1 O5 2.350111 1_655
Ca1 O4 2.351289 1_554
Ca1 O8 2.351289 1_555
Ca1 O6 2.362471 1_555
Ca1 O3 2.362471 1_554
Ca2 O10 2.449421 1_555
Ca2 O2 2.449421 1_555
Ca2 O8 2.500706 1_555
Ca2 O4 2.500706 1_555
Ca2 O1 2.501796 1_555
Ca2 O11 2.501796 1_555
Ca2 O3 2.748416 1_555
Ca2 O6 2.748416 1_555
Ca3 O3 2.388658 1_565
Ca3 O7 2.443520 1_555
Ca3 O1 2.510640 1_565
Ca3 O9 2.542020 1_655
Ca3 O6 2.566547 1_565
Ca3 O4 2.573387 1_555
Ca3 O2 2.782695 1_555
Ca3 O11 2.829448 1_555
Ca4 O4 2.445880 1_554
Ca4 O8 2.445880 1_555
Ca4 O7 2.528342 1_554
Ca4 O5 2.528342 1_555
Ca4 O10 2.541846 1_554
Ca4 O2 2.541846 1_555
Ca4 O0 2.821865 1_555
Ca4 O9 2.821865 1_554
Ca5 O6 2.388658 1_455
Ca5 O5 2.443520 1_555
Ca5 O11 2.510640 1_455
Ca5 O0 2.542020 1_545
Ca5 O3 2.566547 1_455
Ca5 O8 2.573387 1_555
Ca5 O10 2.782695 1_555
Ca5 O1 2.829448 1_555
Ir0 O1 2.029481 1_555
Ir0 O0 2.039706 1_545
Ir0 O6 2.047156 1_555
Ir0 O2 2.058447 1_545
Ir0 O8 2.065064 1_555
Ir0 O7 2.078348 1_544
Ir1 O11 2.029481 1_555
Ir1 O9 2.039706 1_655
Ir1 O3 2.047156 1_555
Ir1 O10 2.058447 1_655
Ir1 O4 2.065064 1_555
Ir1 O5 2.078348 1_656
O0 Sr0 2.498089 1_455
O0 Sr1 2.592799 1_564
O1 Sr1 2.516075 1_555
O2 Sr0 2.572279 1_555
O3 Sr1 2.616061 1_655
O4 Sr0 2.786660 1_556
O5 Sr0 2.595740 1_455
O5 Sr1 2.722206 1_554
O6 Sr0 2.616061 1_545
O7 Sr1 2.595740 1_565
O7 Sr0 2.722206 1_556
O8 Sr1 2.786660 1_554
O9 Sr1 2.498089 1_565
O9 Sr0 2.592799 1_456
O10 Sr1 2.572279 1_555
O11 Sr0 2.516075 1_555
