# generated using pymatgen
data_AlNF4
_symmetry_space_group_name_H-M   'P 1'
_cell_length_a   7.16059163
_cell_length_b   7.16059163
_cell_length_c   7.16059163
_cell_angle_alpha   138.73241732
_cell_angle_beta   138.73241732
_cell_angle_gamma   59.78309880
_symmetry_Int_Tables_number   1
_chemical_formula_structural   AlNF4
_chemical_formula_sum   'Al2 N2 F8'
_cell_volume   158.11280839
_cell_formula_units_Z   2
loop_
 _symmetry_equiv_pos_site_id
 _symmetry_equiv_pos_as_xyz
  1  'x, y, z'
loop_
 _atom_site_type_symbol
 _atom_site_label
 _atom_site_symmetry_multiplicity
 _atom_site_fract_x
 _atom_site_fract_y
 _atom_site_fract_z
 _atom_site_occupancy
  Al  Al0  1  0.50000000  0.50000000  0.00000000  1
  Al  Al1  1  0.00000000  0.00000000  0.00000000  1
  N  N0  1  0.25000000  0.75000000  0.50000000  1
  N  N1  1  0.75000000  0.25000000  0.50000000  1
  F  F0  1  0.35418500  0.35418500  0.00000000  1
  F  F1  1  0.85418500  0.85418500  0.00000000  1
  F  F2  1  0.64581500  0.64581500  0.00000000  1
  F  F3  1  0.14581500  0.14581500  0.00000000  1
  F  F4  1  0.70408300  0.20408300  0.90816600  1
  F  F5  1  0.29591700  0.79591700  0.09183400  1
  F  F6  1  0.20408300  0.29591700  0.50000000  1
  F  F7  1  0.79591700  0.70408300  0.50000000  1
loop_
_geom_bond_atom_site_label_1
_geom_bond_atom_site_label_2
_geom_bond_distance
_geom_bond_site_symmetry_2
Al0 F2 1.810445 1_555
Al0 F0 1.810445 1_555
Al0 F7 1.814121 1_555
Al0 F5 1.814121 1_555
Al0 F6 1.814121 1_554
Al0 F4 1.814121 1_554
Al1 F3 1.810445 1_555
Al1 F1 1.810445 1_445
Al1 F7 1.814121 1_444
Al1 F6 1.814121 1_555
Al1 F5 1.814121 1_545
Al1 F4 1.814121 1_454
