# generated using pymatgen
data_CeLuS3
_symmetry_space_group_name_H-M   'P 1'
_cell_length_a   6.59452848
_cell_length_b   6.59452848
_cell_length_c   9.46316431
_cell_angle_alpha   90.00000000
_cell_angle_beta   90.00000000
_cell_angle_gamma   145.96079716
_symmetry_Int_Tables_number   1
_chemical_formula_structural   CeLuS3
_chemical_formula_sum   'Ce2 Lu2 S6'
_cell_volume   230.35929964
_cell_formula_units_Z   2
loop_
 _symmetry_equiv_pos_site_id
 _symmetry_equiv_pos_as_xyz
  1  'x, y, z'
loop_
 _atom_site_type_symbol
 _atom_site_label
 _atom_site_symmetry_multiplicity
 _atom_site_fract_x
 _atom_site_fract_y
 _atom_site_fract_z
 _atom_site_occupancy
  Ce  Ce0  1  0.74728958  0.25271042  0.25000000  1
  Ce  Ce1  1  0.25271042  0.74728958  0.75000000  1
  Lu  Lu0  1  -0.00000000  0.00000000  0.50000000  1
  Lu  Lu1  1  -0.00000000  0.00000000  -0.00000000  1
  S  S0  1  0.64046967  0.35953033  0.56283383  1
  S  S1  1  0.64046967  0.35953033  0.93716617  1
  S  S2  1  0.35953033  0.64046967  0.06283383  1
  S  S3  1  0.35953033  0.64046967  0.43716617  1
  S  S4  1  0.08519140  0.91480860  0.25000000  1
  S  S5  1  0.91480860  0.08519140  0.75000000  1
loop_
_geom_bond_atom_site_label_1
_geom_bond_atom_site_label_2
_geom_bond_distance
_geom_bond_site_symmetry_2
Ce0 S4 2.811555 1_545
Ce0 S4 2.811555 1_655
Ce0 S2 2.977666 1_545
Ce0 S3 2.977666 1_545
Ce0 S2 2.977666 1_655
Ce0 S3 2.977666 1_655
Ce0 S0 3.252503 1_555
Ce0 S1 3.252503 1_554
Ce1 S5 2.811555 1_455
Ce1 S5 2.811555 1_565
Ce1 S1 2.977666 1_455
Ce1 S0 2.977666 1_455
Ce1 S1 2.977666 1_565
Ce1 S0 2.977666 1_565
Ce1 S3 3.252503 1_555
Ce1 S2 3.252503 1_556
Lu0 S4 2.598321 1_545
Lu0 S5 2.598321 1_455
Lu0 S3 2.686554 1_555
Lu0 S3 2.686554 1_445
Lu0 S0 2.686554 1_555
Lu0 S0 2.686554 1_445
Lu1 S4 2.598321 1_545
Lu1 S5 2.598321 1_454
Lu1 S2 2.686554 1_445
Lu1 S1 2.686554 1_554
Lu1 S1 2.686554 1_444
Lu1 S2 2.686554 1_555
