# generated using pymatgen
data_CoPO4
_symmetry_space_group_name_H-M   'P 1'
_cell_length_a   4.97557613
_cell_length_b   9.34208218
_cell_length_c   14.22102950
_cell_angle_alpha   79.32095722
_cell_angle_beta   79.92498493
_cell_angle_gamma   74.55584246
_symmetry_Int_Tables_number   1
_chemical_formula_structural   CoPO4
_chemical_formula_sum   'Co8 P8 O32'
_cell_volume   620.59269527
_cell_formula_units_Z   8
loop_
 _symmetry_equiv_pos_site_id
 _symmetry_equiv_pos_as_xyz
  1  'x, y, z'
loop_
 _atom_site_type_symbol
 _atom_site_label
 _atom_site_symmetry_multiplicity
 _atom_site_fract_x
 _atom_site_fract_y
 _atom_site_fract_z
 _atom_site_occupancy
  Co  Co0  1  0.20696300  0.22580500  0.97277200  1
  Co  Co1  1  0.40553900  0.27419500  0.52722800  1
  Co  Co2  1  0.79303700  0.77419500  0.02722800  1
  Co  Co3  1  0.50000000  0.50000000  0.00000000  1
  Co  Co4  1  0.59446100  0.72580500  0.47277200  1
  Co  Co5  1  0.67748500  0.75000000  0.25000000  1
  Co  Co6  1  0.32251500  0.25000000  0.75000000  1
  Co  Co7  1  0.00000000  0.00000000  0.50000000  1
  P  P0  1  0.05187400  0.56354800  0.86589300  1
  P  P1  1  0.77633500  0.41036000  0.61975800  1
  P  P2  1  0.94812600  0.43645200  0.13410700  1
  P  P3  1  0.19354700  0.91036000  0.11975800  1
  P  P4  1  0.51868400  0.06354800  0.36589300  1
  P  P5  1  0.48131600  0.93645200  0.63410700  1
  P  P6  1  0.22366500  0.58964000  0.38024200  1
  P  P7  1  0.80645300  0.08964000  0.88024200  1
  O  O0  1  0.70288700  0.39493100  0.09858400  1
  O  O1  1  0.84939100  0.92356700  0.93247100  1
  O  O2  1  0.80359800  0.89493100  0.59858400  1
  O  O3  1  0.75823200  0.30322700  0.54979100  1
  O  O4  1  0.21286800  0.39110200  0.05399600  1
  O  O5  1  0.56700300  0.39763200  0.71119000  1
  O  O6  1  0.61125000  0.19677300  0.95020900  1
  O  O7  1  0.90100800  0.87202900  0.13890400  1
  O  O8  1  0.24176800  0.69677300  0.45020900  1
  O  O9  1  0.70542700  0.57643300  0.56752900  1
  O  O10  1  0.88776400  0.61155500  0.12889500  1
  O  O11  1  0.58951300  0.14486500  0.26694900  1
  O  O12  1  0.15060900  0.07643300  0.06752900  1
  O  O13  1  0.08805800  0.37202900  0.63890400  1
  O  O14  1  0.29711300  0.60506900  0.90141600  1
  O  O15  1  0.11223600  0.38844500  0.87110500  1
  O  O16  1  0.99867100  0.64486500  0.76694900  1
  O  O17  1  0.38875000  0.80322700  0.04979100  1
  O  O18  1  0.37178600  0.11155500  0.62889500  1
  O  O19  1  0.41048700  0.85513500  0.73305100  1
  O  O20  1  0.91194200  0.62797100  0.36109600  1
  O  O21  1  0.34203500  0.89110200  0.55399600  1
  O  O22  1  0.09899200  0.12797100  0.86109600  1
  O  O23  1  0.32417600  0.89763200  0.21119000  1
  O  O24  1  0.29457300  0.42356700  0.43247100  1
  O  O25  1  0.19640200  0.10506900  0.40141600  1
  O  O26  1  0.00132900  0.35513500  0.23305100  1
  O  O27  1  0.65796500  0.10889800  0.44600400  1
  O  O28  1  0.78713200  0.60889800  0.94600400  1
  O  O29  1  0.67582400  0.10236800  0.78881000  1
  O  O30  1  0.43299700  0.60236800  0.28881000  1
  O  O31  1  0.62821500  0.88844500  0.37110500  1
loop_
_geom_bond_atom_site_label_1
_geom_bond_atom_site_label_2
_geom_bond_distance
_geom_bond_site_symmetry_2
Co0 O12 1.794726 1_556
Co0 O15 1.914141 1_555
Co0 O6 1.933584 1_555
Co0 O4 2.101621 1_556
Co0 O22 2.178103 1_555
Co1 O24 1.794723 1_555
Co1 O18 1.914140 1_555
Co1 O3 1.933589 1_555
Co1 O27 2.101621 1_555
Co1 O13 2.178103 1_555
Co2 O1 1.794726 1_554
Co2 O10 1.914141 1_555
Co2 O17 1.933584 1_555
Co2 O28 2.101621 1_554
Co2 O7 2.178103 1_555
Co3 O14 1.845384 1_554
Co3 O0 1.845384 1_555
Co3 O4 1.940717 1_555
Co3 O28 1.940717 1_554
Co4 O9 1.794723 1_555
Co4 O31 1.914141 1_555
Co4 O8 1.933589 1_555
Co4 O21 2.101621 1_555
Co4 O20 2.178103 1_555
Co5 O23 2.015715 1_555
Co5 O30 2.015719 1_555
Co5 O7 2.103704 1_555
Co5 O20 2.103707 1_555
Co5 O10 2.282091 1_555
Co5 O31 2.282092 1_555
Co6 O29 2.015715 1_555
Co6 O5 2.015719 1_555
Co6 O22 2.103704 1_555
Co6 O13 2.103707 1_555
Co6 O15 2.282091 1_555
Co6 O18 2.282091 1_555
Co7 O2 1.845384 1_445
Co7 O25 1.845384 1_555
Co7 O27 1.940721 1_455
Co7 O21 1.940721 1_545
O0 P2 1.560428 1_555
O1 P7 1.567252 1_565
O2 P5 1.560424 1_555
O3 P1 1.564698 1_555
O4 P2 1.602854 1_455
O5 P1 1.524618 1_555
O6 P7 1.564698 1_555
O7 P3 1.556855 1_655
O8 P6 1.564698 1_555
O9 P1 1.567252 1_555
O10 P2 1.572518 1_555
O11 P4 1.501372 1_555
O12 P3 1.567252 1_545
O13 P1 1.556850 1_455
O14 P0 1.560428 1_555
O15 P0 1.572518 1_555
O16 P0 1.501373 1_655
O17 P3 1.564698 1_555
O18 P5 1.572518 1_545
O19 P5 1.501372 1_555
O20 P6 1.556850 1_655
O21 P5 1.602854 1_555
O22 P7 1.556855 1_455
O23 P3 1.524621 1_555
O24 P6 1.567252 1_555
O25 P4 1.560424 1_555
O26 P2 1.501373 1_455
O27 P4 1.602854 1_555
O28 P0 1.602854 1_655
O29 P7 1.524621 1_555
O30 P6 1.524618 1_555
O31 P4 1.572519 1_565
