# generated using pymatgen
data_Eu3(SnPd)2
_symmetry_space_group_name_H-M   'P 1'
_cell_length_a   6.01194400
_cell_length_b   8.81202700
_cell_length_c   14.09512600
_cell_angle_alpha   90.00000000
_cell_angle_beta   90.00000000
_cell_angle_gamma   90.00000000
_symmetry_Int_Tables_number   1
_chemical_formula_structural   Eu3(SnPd)2
_chemical_formula_sum   'Eu12 Sn8 Pd8'
_cell_volume   746.72330928
_cell_formula_units_Z   4
loop_
 _symmetry_equiv_pos_site_id
 _symmetry_equiv_pos_as_xyz
  1  'x, y, z'
loop_
 _atom_site_type_symbol
 _atom_site_label
 _atom_site_symmetry_multiplicity
 _atom_site_fract_x
 _atom_site_fract_y
 _atom_site_fract_z
 _atom_site_occupancy
  Eu  Eu0  1  0.14590500  0.39288100  0.59837900  1
  Eu  Eu1  1  0.85409500  0.60711900  0.09837900  1
  Eu  Eu2  1  0.14590500  0.10711900  0.40162100  1
  Eu  Eu3  1  0.85409500  0.89288100  0.90162100  1
  Eu  Eu4  1  0.85409500  0.60711900  0.40162100  1
  Eu  Eu5  1  0.14590500  0.39288100  0.90162100  1
  Eu  Eu6  1  0.85409500  0.89288100  0.59837900  1
  Eu  Eu7  1  0.14590500  0.10711900  0.09837900  1
  Eu  Eu8  1  0.64640100  0.25054800  0.75000000  1
  Eu  Eu9  1  0.35359900  0.74945200  0.25000000  1
  Eu  Eu10  1  0.64640100  0.24945200  0.25000000  1
  Eu  Eu11  1  0.35359900  0.75054800  0.75000000  1
  Sn  Sn0  1  0.64320500  0.25000000  0.50000000  1
  Sn  Sn1  1  0.35679500  0.75000000  0.00000000  1
  Sn  Sn2  1  0.35679500  0.75000000  0.50000000  1
  Sn  Sn3  1  0.64320500  0.25000000  0.00000000  1
  Sn  Sn4  1  0.14995000  0.10213900  0.75000000  1
  Sn  Sn5  1  0.85005000  0.89786100  0.25000000  1
  Sn  Sn6  1  0.14995000  0.39786100  0.25000000  1
  Sn  Sn7  1  0.85005000  0.60213900  0.75000000  1
  Pd  Pd0  1  0.38102700  0.03240100  0.58872400  1
  Pd  Pd1  1  0.61897300  0.96759900  0.08872400  1
  Pd  Pd2  1  0.38102700  0.46759900  0.41127600  1
  Pd  Pd3  1  0.61897300  0.53240100  0.91127600  1
  Pd  Pd4  1  0.61897300  0.96759900  0.41127600  1
  Pd  Pd5  1  0.38102700  0.03240100  0.91127600  1
  Pd  Pd6  1  0.61897300  0.53240100  0.58872400  1
  Pd  Pd7  1  0.38102700  0.46759900  0.08872400  1
loop_
_geom_bond_atom_site_label_1
_geom_bond_atom_site_label_2
_geom_bond_distance
_geom_bond_site_symmetry_2
Eu0 Pd2 3.063763 1_555
Eu0 Pd6 3.101410 1_555
Eu0 Sn7 3.336346 1_455
Eu0 Sn4 3.336441 1_555
Eu0 Pd6 3.400820 1_455
Eu0 Pd0 3.479533 1_555
Eu0 Sn0 3.527980 1_555
Eu0 Sn0 3.555533 1_455
Eu0 Sn2 3.665181 1_555
Eu0 Eu2 3.745984 1_555
Eu0 Eu4 3.785913 1_455
Eu0 Eu8 3.893372 1_455
Eu0 Eu8 3.897973 1_555
Eu0 Eu11 4.007499 1_555
Eu0 Eu5 4.274234 1_555
Eu1 Pd3 3.063763 1_554
Eu1 Pd7 3.101410 1_555
Eu1 Sn6 3.336346 1_655
Eu1 Sn5 3.336441 1_555
Eu1 Pd7 3.400820 1_655
Eu1 Pd1 3.479533 1_555
Eu1 Sn1 3.527980 1_555
Eu1 Sn1 3.555533 1_655
Eu1 Sn3 3.665181 1_555
Eu1 Eu3 3.745984 1_554
Eu1 Eu5 3.785913 1_654
Eu1 Eu9 3.893372 1_655
Eu1 Eu9 3.897973 1_555
Eu1 Eu10 4.007499 1_555
Eu1 Eu4 4.274234 1_555
Eu2 Pd0 3.063763 1_555
Eu2 Pd4 3.101410 1_545
Eu2 Sn5 3.336346 1_445
Eu2 Sn6 3.336441 1_555
Eu2 Pd4 3.400820 1_445
Eu2 Pd2 3.479533 1_555
Eu2 Sn0 3.527980 1_555
Eu2 Sn0 3.555533 1_455
Eu2 Sn2 3.665181 1_545
Eu2 Eu6 3.785913 1_445
Eu2 Eu9 4.007499 1_545
Eu2 Eu7 4.274234 1_555
Eu3 Pd1 3.063763 1_556
Eu3 Pd5 3.101410 1_565
Eu3 Sn4 3.336346 1_665
Eu3 Sn7 3.336441 1_555
Eu3 Pd5 3.400820 1_665
Eu3 Pd3 3.479533 1_555
Eu3 Sn1 3.527980 1_556
Eu3 Sn1 3.555533 1_656
Eu3 Sn3 3.665181 1_566
Eu3 Eu7 3.785913 1_666
Eu3 Eu8 4.007499 1_565
Eu3 Eu6 4.274234 1_555
Eu4 Pd6 3.063763 1_555
Eu4 Pd2 3.101410 1_555
Eu4 Sn6 3.336346 1_655
Eu4 Sn5 3.336441 1_555
Eu4 Pd2 3.400820 1_655
Eu4 Pd4 3.479533 1_555
Eu4 Sn2 3.527980 1_555
Eu4 Sn2 3.555533 1_655
Eu4 Sn0 3.665181 1_555
Eu4 Eu6 3.745984 1_555
Eu4 Eu9 3.893372 1_655
Eu4 Eu9 3.897973 1_555
Eu5 Pd7 3.063763 1_556
Eu5 Pd3 3.101410 1_555
Eu5 Sn7 3.336346 1_455
Eu5 Sn4 3.336441 1_555
Eu5 Pd3 3.400820 1_455
Eu5 Pd5 3.479533 1_555
Eu5 Sn3 3.527980 1_556
Eu5 Sn3 3.555533 1_456
Eu5 Sn1 3.665181 1_556
Eu5 Eu7 3.745984 1_556
Eu5 Eu8 3.893372 1_455
Eu5 Eu8 3.897973 1_555
Eu6 Pd4 3.063763 1_555
Eu6 Pd0 3.101410 1_565
Eu6 Sn4 3.336346 1_665
Eu6 Sn7 3.336441 1_555
Eu6 Pd0 3.400820 1_665
Eu6 Pd6 3.479533 1_555
Eu6 Sn2 3.527980 1_555
Eu6 Sn2 3.555533 1_655
Eu6 Sn0 3.665181 1_565
Eu6 Eu8 4.007499 1_565
Eu7 Pd5 3.063763 1_554
Eu7 Pd1 3.101410 1_545
Eu7 Sn5 3.336346 1_445
Eu7 Sn6 3.336441 1_555
Eu7 Pd1 3.400820 1_445
Eu7 Pd7 3.479533 1_555
Eu7 Sn3 3.527980 1_555
Eu7 Sn3 3.555533 1_455
Eu7 Sn1 3.665181 1_545
Eu7 Eu9 4.007499 1_545
Eu8 Sn4 3.258581 1_555
Eu8 Sn4 3.297711 1_655
Eu8 Sn7 3.331366 1_555
Eu8 Pd3 3.370964 1_555
Eu8 Pd6 3.370964 1_555
Eu8 Pd0 3.377590 1_555
Eu8 Pd5 3.377590 1_555
Eu8 Sn3 3.523837 1_556
Eu8 Sn0 3.523837 1_555
Eu9 Sn5 3.258581 1_555
Eu9 Sn5 3.297711 1_455
Eu9 Sn6 3.331366 1_555
Eu9 Pd2 3.370964 1_555
Eu9 Pd7 3.370964 1_555
Eu9 Pd4 3.377590 1_555
Eu9 Pd1 3.377590 1_555
Eu9 Sn2 3.523837 1_555
Eu9 Sn1 3.523837 1_555
Eu10 Sn6 3.258581 1_555
Eu10 Sn6 3.297711 1_655
Eu10 Sn5 3.331366 1_545
Eu10 Pd1 3.370964 1_545
Eu10 Pd4 3.370964 1_545
Eu10 Pd2 3.377590 1_555
Eu10 Pd7 3.377590 1_555
Eu10 Sn0 3.523837 1_555
Eu10 Sn3 3.523837 1_555
Eu10 Eu2 3.893372 1_655
Eu10 Eu7 3.893372 1_655
Eu10 Eu2 3.897973 1_555
Eu10 Eu7 3.897973 1_555
Eu10 Eu4 4.007499 1_555
Eu11 Sn7 3.258581 1_555
Eu11 Sn7 3.297711 1_455
Eu11 Sn4 3.331366 1_565
Eu11 Pd5 3.370964 1_565
Eu11 Pd0 3.370964 1_565
Eu11 Pd3 3.377590 1_555
Eu11 Pd6 3.377590 1_555
Eu11 Sn2 3.523837 1_555
Eu11 Sn1 3.523837 1_556
Eu11 Eu6 3.893372 1_455
Eu11 Eu3 3.893372 1_455
Eu11 Eu3 3.897973 1_555
Eu11 Eu6 3.897973 1_555
Eu11 Eu5 4.007499 1_555
Pd0 Sn4 2.734054 1_555
Pd0 Sn0 2.779408 1_555
Pd0 Sn2 2.788892 1_545
Pd0 Pd4 2.937384 1_545
Pd1 Sn5 2.734054 1_555
Pd1 Sn1 2.779408 1_555
Pd1 Sn3 2.788892 1_565
Pd1 Pd5 2.937384 1_564
Pd2 Sn6 2.734054 1_555
Pd2 Sn0 2.779408 1_555
Pd2 Sn2 2.788892 1_555
Pd2 Pd6 2.937384 1_555
Pd3 Sn7 2.734054 1_555
Pd3 Sn1 2.779408 1_556
Pd3 Sn3 2.788892 1_556
Pd3 Pd7 2.937384 1_556
Pd4 Sn5 2.734054 1_555
Pd4 Sn2 2.779408 1_555
Pd4 Sn0 2.788892 1_565
Pd5 Sn4 2.734054 1_555
Pd5 Sn3 2.779408 1_556
Pd5 Sn1 2.788892 1_546
Pd6 Sn7 2.734054 1_555
Pd6 Sn2 2.779408 1_555
Pd6 Sn0 2.788892 1_555
Pd7 Sn6 2.734054 1_555
Pd7 Sn3 2.779408 1_555
Pd7 Sn1 2.788892 1_555
