# generated using pymatgen
data_Pr(BIr)2
_symmetry_space_group_name_H-M   'P 1'
_cell_length_a   7.11603652
_cell_length_b   6.12935825
_cell_length_c   5.60249727
_cell_angle_alpha   74.53007845
_cell_angle_beta   56.11296026
_cell_angle_gamma   49.35696129
_symmetry_Int_Tables_number   1
_chemical_formula_structural   Pr(BIr)2
_chemical_formula_sum   'Pr2 B4 Ir4'
_cell_volume   152.10828401
_cell_formula_units_Z   2
loop_
 _symmetry_equiv_pos_site_id
 _symmetry_equiv_pos_as_xyz
  1  'x, y, z'
loop_
 _atom_site_type_symbol
 _atom_site_label
 _atom_site_symmetry_multiplicity
 _atom_site_fract_x
 _atom_site_fract_y
 _atom_site_fract_z
 _atom_site_occupancy
  Pr  Pr0  1  0.50000000  0.50000000  0.50000000  1
  Pr  Pr1  1  0.75000000  0.75000000  0.75000000  1
  B  B0  1  0.17795398  0.82204602  0.17795398  1
  B  B1  1  0.07204602  0.42795398  0.07204602  1
  B  B2  1  0.82204602  0.17795398  0.82204602  1
  B  B3  1  0.42795398  0.07204602  0.42795398  1
  Ir  Ir0  1  0.87008751  0.87008751  0.12991249  1
  Ir  Ir1  1  0.12991249  0.12991249  0.87008751  1
  Ir  Ir2  1  0.37991249  0.37991249  0.12008751  1
  Ir  Ir3  1  0.12008751  0.12008751  0.37991249  1
loop_
_geom_bond_atom_site_label_1
_geom_bond_atom_site_label_2
_geom_bond_distance
_geom_bond_site_symmetry_2
B0 Ir3 2.095274 1_565
B0 Ir2 2.095274 1_555
B0 Ir1 2.175681 1_564
B0 Ir0 2.175681 1_455
B0 Pr0 3.036705 1_555
B0 Pr1 3.139073 1_554
B0 Pr1 3.139073 1_455
B1 Ir1 2.095274 1_554
B1 Ir0 2.095274 1_455
B1 Ir2 2.175681 1_555
B1 Ir3 2.175681 1_555
B1 Pr1 3.036705 1_454
B1 Pr0 3.139073 1_455
B1 Pr0 3.139073 1_554
B2 Ir3 2.095274 1_655
B2 Ir2 2.095274 1_556
B2 Ir0 2.175681 1_546
B2 Ir1 2.175681 1_655
B2 Pr0 3.036705 1_555
B2 Pr1 3.139073 1_555
B2 Pr1 3.139073 1_545
B3 Ir1 2.095274 1_555
B3 Ir0 2.095274 1_545
B3 Ir2 2.175681 1_555
B3 Ir3 2.175681 1_555
B3 Pr1 3.036705 1_545
B3 Pr0 3.139073 1_555
B3 Pr0 3.139073 1_545
Ir0 Pr1 3.079898 1_555
Ir0 Pr1 3.079898 1_554
Ir0 Pr0 3.328275 1_654
Ir0 Pr0 3.328275 1_565
Ir1 Pr1 3.079898 1_545
Ir1 Pr1 3.079898 1_455
Ir1 Pr0 3.328275 1_545
Ir1 Pr0 3.328275 1_456
Ir2 Pr0 3.079898 1_555
Ir2 Pr0 3.079898 1_554
Ir2 Pr1 3.328275 1_544
Ir2 Pr1 3.328275 1_455
Ir3 Pr0 3.079898 1_455
Ir3 Pr0 3.079898 1_545
Ir3 Pr1 3.328275 1_544
Ir3 Pr1 3.328275 1_455
