# generated using pymatgen
data_Sm2ThS5
_symmetry_space_group_name_H-M   'P 1'
_cell_length_a   7.53312751
_cell_length_b   8.17078611
_cell_length_c   12.03223938
_cell_angle_alpha   90.00000000
_cell_angle_beta   90.00000000
_cell_angle_gamma   90.00000000
_symmetry_Int_Tables_number   1
_chemical_formula_structural   Sm2ThS5
_chemical_formula_sum   'Sm8 Th4 S20'
_cell_volume   740.60326805
_cell_formula_units_Z   4
loop_
 _symmetry_equiv_pos_site_id
 _symmetry_equiv_pos_as_xyz
  1  'x, y, z'
loop_
 _atom_site_type_symbol
 _atom_site_label
 _atom_site_symmetry_multiplicity
 _atom_site_fract_x
 _atom_site_fract_y
 _atom_site_fract_z
 _atom_site_occupancy
  Sm  Sm0  1  0.51448988  0.49856887  0.32095782  1
  Sm  Sm1  1  0.98551012  0.00143113  0.82095782  1
  Sm  Sm2  1  0.48551012  0.99856887  0.67904218  1
  Sm  Sm3  1  0.01448988  0.50143113  0.17904218  1
  Sm  Sm4  1  0.48551012  0.50143113  0.67904218  1
  Sm  Sm5  1  0.01448988  0.99856887  0.17904218  1
  Sm  Sm6  1  0.51448988  0.00143113  0.32095782  1
  Sm  Sm7  1  0.98551012  0.49856887  0.82095782  1
  Th  Th0  1  0.07735215  0.75000000  0.49132196  1
  Th  Th1  1  0.42264785  0.75000000  0.99132196  1
  Th  Th2  1  0.92264785  0.25000000  0.50867804  1
  Th  Th3  1  0.57735215  0.25000000  0.00867804  1
  S  S0  1  0.83915546  0.95676130  0.60310398  1
  S  S1  1  0.66084454  0.54323870  0.10310398  1
  S  S2  1  0.16084454  0.45676130  0.39689602  1
  S  S3  1  0.33915546  0.04323870  0.89689602  1
  S  S4  1  0.16084454  0.04323870  0.39689602  1
  S  S5  1  0.33915546  0.45676130  0.89689602  1
  S  S6  1  0.83915546  0.54323870  0.60310398  1
  S  S7  1  0.66084454  0.95676130  0.10310398  1
  S  S8  1  0.82564590  0.75000000  0.31412698  1
  S  S9  1  0.67435410  0.75000000  0.81412698  1
  S  S10  1  0.17435410  0.25000000  0.68587302  1
  S  S11  1  0.32564590  0.25000000  0.18587302  1
  S  S12  1  0.46105015  0.75000000  0.49948520  1
  S  S13  1  0.03894985  0.75000000  -0.00051480  1
  S  S14  1  0.53894985  0.25000000  0.50051480  1
  S  S15  1  0.96105015  0.25000000  0.00051480  1
  S  S16  1  0.20309221  0.75000000  0.71783672  1
  S  S17  1  0.29690779  0.75000000  0.21783672  1
  S  S18  1  0.79690779  0.25000000  0.28216328  1
  S  S19  1  0.70309221  0.25000000  0.78216328  1
loop_
_geom_bond_atom_site_label_1
_geom_bond_atom_site_label_2
_geom_bond_distance
_geom_bond_site_symmetry_2
S0 Th2 2.725291 1_565
S0 Th0 2.807636 1_655
S0 Sm2 2.837031 1_555
S0 Sm1 2.867018 1_565
S1 Th3 2.725291 1_555
S1 Th1 2.807636 1_554
S1 Sm3 2.837031 1_655
S1 Sm0 2.867018 1_555
S2 Th0 2.725291 1_555
S2 Th2 2.807636 1_455
S2 Sm0 2.837031 1_555
S2 Sm3 2.867018 1_555
S3 Th1 2.725291 1_545
S3 Th3 2.807636 1_556
S3 Sm1 2.837031 1_455
S3 Sm2 2.867018 1_545
S4 Th0 2.725291 1_545
S4 Th2 2.807636 1_455
S4 Sm6 2.837031 1_555
S4 Sm5 2.867018 1_545
S5 Th1 2.725291 1_555
S5 Th3 2.807636 1_556
S5 Sm7 2.837031 1_455
S5 Sm4 2.867018 1_555
S6 Th2 2.725291 1_555
S6 Th0 2.807636 1_655
S6 Sm4 2.837031 1_555
S6 Sm7 2.867018 1_555
S7 Th3 2.725291 1_565
S7 Th1 2.807636 1_554
S7 Sm5 2.837031 1_655
S7 Sm6 2.867018 1_565
S8 Th0 2.853240 1_655
S8 Sm3 2.964888 1_655
S8 Sm5 2.964888 1_655
S8 Sm0 3.117933 1_555
S8 Sm6 3.117933 1_565
S9 Th1 2.853240 1_555
S9 Sm4 2.964888 1_555
S9 Sm2 2.964888 1_555
S9 Sm7 3.117933 1_555
S9 Sm1 3.117933 1_565
S10 Th2 2.853240 1_455
S10 Sm7 2.964888 1_455
S10 Sm1 2.964888 1_455
S10 Sm2 3.117933 1_545
S10 Sm4 3.117933 1_555
S11 Th3 2.853240 1_555
S11 Sm6 2.964888 1_555
S11 Sm0 2.964888 1_555
S11 Sm5 3.117933 1_545
S11 Sm3 3.117933 1_555
S12 Th0 2.892114 1_555
S12 Sm4 2.970954 1_555
S12 Sm2 2.970954 1_555
S12 Sm0 2.999474 1_555
S12 Sm6 2.999474 1_565
S13 Th1 2.892114 1_554
S13 Sm3 2.970954 1_555
S13 Sm5 2.970954 1_555
S13 Sm7 2.999474 1_454
S13 Sm1 2.999474 1_464
S14 Th2 2.892114 1_555
S14 Sm0 2.970954 1_555
S14 Sm6 2.970954 1_555
S14 Sm2 2.999474 1_545
S14 Sm4 2.999474 1_555
S15 Th3 2.892114 1_555
S15 Sm1 2.970954 1_554
S15 Sm7 2.970954 1_554
S15 Sm5 2.999474 1_645
S15 Sm3 2.999474 1_655
S16 Th0 2.885387 1_555
S16 Sm7 2.906305 1_455
S16 Sm1 2.906305 1_465
S16 Sm4 2.978099 1_555
S16 Sm2 2.978099 1_555
S17 Th1 2.885387 1_554
S17 Sm0 2.906305 1_555
S17 Sm6 2.906305 1_565
S17 Sm3 2.978099 1_555
S17 Sm5 2.978099 1_555
S18 Th2 2.885387 1_555
S18 Sm5 2.906305 1_645
S18 Sm3 2.906305 1_655
S18 Sm6 2.978099 1_555
S18 Sm0 2.978099 1_555
S19 Th3 2.885387 1_556
S19 Sm2 2.906305 1_545
S19 Sm4 2.906305 1_555
S19 Sm7 2.978099 1_555
S19 Sm1 2.978099 1_555
