# generated using pymatgen
data_Zr6B(Cl3O4)6
_symmetry_space_group_name_H-M   'P 1'
_cell_length_a   12.11144841
_cell_length_b   12.11144841
_cell_length_c   12.11144841
_cell_angle_alpha   109.47122063
_cell_angle_beta   109.47122063
_cell_angle_gamma   109.47122063
_symmetry_Int_Tables_number   1
_chemical_formula_structural   Zr6B(Cl3O4)6
_chemical_formula_sum   'Zr6 B1 Cl18 O24'
_cell_volume   1367.62288706
_cell_formula_units_Z   1
loop_
 _symmetry_equiv_pos_site_id
 _symmetry_equiv_pos_as_xyz
  1  'x, y, z'
loop_
 _atom_site_type_symbol
 _atom_site_label
 _atom_site_symmetry_multiplicity
 _atom_site_fract_x
 _atom_site_fract_y
 _atom_site_fract_z
 _atom_site_occupancy
  Zr  Zr0  1  0.18020400  0.00000000  0.18020400  1
  Zr  Zr1  1  0.00000000  0.18020400  0.18020400  1
  Zr  Zr2  1  0.81979600  0.81979600  0.00000000  1
  Zr  Zr3  1  0.81979600  0.00000000  0.81979600  1
  Zr  Zr4  1  0.18020400  0.18020400  0.00000000  1
  Zr  Zr5  1  0.00000000  0.81979600  0.81979600  1
  B  B0  1  0.00000000  0.00000000  0.00000000  1
  Cl  Cl0  1  0.00000000  0.81824200  0.18175800  1
  Cl  Cl1  1  0.18175800  0.18175800  0.36351600  1
  Cl  Cl2  1  0.81824200  0.00000000  0.18175800  1
  Cl  Cl3  1  0.00000000  0.18175800  0.81824200  1
  Cl  Cl4  1  0.81824200  0.18175800  0.00000000  1
  Cl  Cl5  1  0.18175800  0.36351600  0.18175800  1
  Cl  Cl6  1  0.36351600  0.18175800  0.18175800  1
  Cl  Cl7  1  0.18175800  0.81824200  0.00000000  1
  Cl  Cl8  1  0.18175800  0.00000000  0.81824200  1
  Cl  Cl9  1  0.63648400  0.81824200  0.81824200  1
  Cl  Cl10  1  0.81824200  0.81824200  0.63648400  1
  Cl  Cl11  1  0.81824200  0.63648400  0.81824200  1
  Cl  Cl12  1  0.35127100  0.00000000  0.35127100  1
  Cl  Cl13  1  0.00000000  0.35127100  0.35127100  1
  Cl  Cl14  1  0.64872900  0.64872900  0.00000000  1
  Cl  Cl15  1  0.64872900  0.00000000  0.64872900  1
  Cl  Cl16  1  0.35127100  0.35127100  0.00000000  1
  Cl  Cl17  1  0.00000000  0.64872900  0.64872900  1
  O  O0  1  0.30334800  0.00000000  0.60847000  1
  O  O1  1  0.00000000  0.30334800  0.60847000  1
  O  O2  1  0.69665200  0.69665200  0.30512200  1
  O  O3  1  0.69665200  0.30512200  0.69665200  1
  O  O4  1  0.00000000  0.60847000  0.30334800  1
  O  O5  1  0.30334800  0.60847000  0.00000000  1
  O  O6  1  0.60847000  0.00000000  0.30334800  1
  O  O7  1  0.30512200  0.69665200  0.69665200  1
  O  O8  1  0.60847000  0.30334800  0.00000000  1
  O  O9  1  0.39153000  0.69487800  0.39153000  1
  O  O10  1  0.69487800  0.39153000  0.39153000  1
  O  O11  1  0.39153000  0.39153000  0.69487800  1
  O  O12  1  0.69665200  0.00000000  0.39153000  1
  O  O13  1  0.00000000  0.69665200  0.39153000  1
  O  O14  1  0.30334800  0.30334800  0.69487800  1
  O  O15  1  0.30334800  0.69487800  0.30334800  1
  O  O16  1  0.00000000  0.39153000  0.69665200  1
  O  O17  1  0.69665200  0.39153000  0.00000000  1
  O  O18  1  0.39153000  0.00000000  0.69665200  1
  O  O19  1  0.69487800  0.30334800  0.30334800  1
  O  O20  1  0.39153000  0.69665200  0.00000000  1
  O  O21  1  0.60847000  0.30512200  0.60847000  1
  O  O22  1  0.30512200  0.60847000  0.60847000  1
  O  O23  1  0.60847000  0.60847000  0.30512200  1
loop_
_geom_bond_atom_site_label_1
_geom_bond_atom_site_label_2
_geom_bond_distance
_geom_bond_site_symmetry_2
B0 Zr0 2.520170 1_555
B0 Zr1 2.520170 1_555
B0 Zr4 2.520170 1_555
B0 Zr2 2.520170 1_445
B0 Zr5 2.520170 1_544
B0 Zr3 2.520170 1_454
Cl0 Zr0 2.541996 1_565
Cl0 Zr2 2.541996 1_455
Cl1 Zr0 2.541996 1_555
Cl1 Zr1 2.541996 1_555
Cl2 Zr2 2.541996 1_545
Cl2 Zr1 2.541996 1_655
Cl3 Zr3 2.541996 1_455
Cl3 Zr4 2.541996 1_556
Cl4 Zr3 2.541996 1_554
Cl4 Zr1 2.541996 1_655
Cl5 Zr4 2.541996 1_555
Cl5 Zr1 2.541996 1_555
Cl6 Zr0 2.541996 1_555
Cl6 Zr4 2.541996 1_555
Cl7 Zr5 2.541996 1_554
Cl7 Zr0 2.541996 1_565
Cl8 Zr5 2.541996 1_545
Cl8 Zr4 2.541996 1_556
Cl9 Zr2 2.541996 1_556
Cl9 Zr3 2.541996 1_565
Cl10 Zr5 2.541996 1_655
Cl10 Zr3 2.541996 1_565
Cl11 Zr2 2.541996 1_556
Cl11 Zr5 2.541996 1_655
Cl12 Zr0 2.392388 1_555
Cl13 Zr1 2.392388 1_555
Cl14 Zr2 2.392388 1_555
Cl15 Zr3 2.392388 1_555
Cl16 Zr4 2.392388 1_555
Cl17 Zr5 2.392388 1_555
O0 O18 1.233234 1_555
O1 O16 1.233234 1_555
O2 O23 1.233234 1_555
O10 O19 1.233234 1_555
O11 O14 1.233234 1_555
O12 O6 1.233234 1_555
O13 O4 1.233234 1_555
O15 O9 1.233234 1_555
O17 O8 1.233234 1_555
O20 O5 1.233234 1_555
O21 O3 1.233234 1_555
O22 O7 1.233234 1_555
