# generated using pymatgen
data_CaMn6(OF2)4
_symmetry_space_group_name_H-M   'P 1'
_cell_length_a   5.68521149
_cell_length_b   7.79444161
_cell_length_c   6.22413281
_cell_angle_alpha   97.23354553
_cell_angle_beta   101.31611604
_cell_angle_gamma   81.90801625
_symmetry_Int_Tables_number   1
_chemical_formula_structural   CaMn6(OF2)4
_chemical_formula_sum   'Ca1 Mn6 O4 F8'
_cell_volume   266.37965796
_cell_formula_units_Z   1
loop_
 _symmetry_equiv_pos_site_id
 _symmetry_equiv_pos_as_xyz
  1  'x, y, z'
loop_
 _atom_site_type_symbol
 _atom_site_label
 _atom_site_symmetry_multiplicity
 _atom_site_fract_x
 _atom_site_fract_y
 _atom_site_fract_z
 _atom_site_occupancy
  Ca  Ca0  1  0.51887900  0.19648400  0.19256300  1
  Mn  Mn0  1  0.41838100  0.96480400  0.56296800  1
  Mn  Mn1  1  0.67895800  0.68402200  0.17363200  1
  Mn  Mn2  1  0.54104600  0.36863400  0.76459000  1
  Mn  Mn3  1  0.93977800  0.65924100  0.67284900  1
  Mn  Mn4  1  0.01992500  0.33034800  0.32980500  1
  Mn  Mn5  1  0.01325700  0.96759500  0.99621400  1
  O  O0  1  0.83198700  0.74841900  0.94546400  1
  O  O1  1  0.65353300  0.74970100  0.48677300  1
  O  O2  1  0.68328000  0.43387100  0.10902600  1
  O  O3  1  0.35590900  0.22449000  0.49570600  1
  F  F0  1  0.82038800  0.39987200  0.60086200  1
  F  F1  1  0.89793600  0.06970900  0.29478900  1
  F  F2  1  0.64411700  0.09430300  0.85617200  1
  F  F3  1  0.25655500  0.56165600  0.82525500  1
  F  F4  1  0.39431400  0.90769400  0.16202100  1
  F  F5  1  0.07142200  0.59758700  0.39370100  1
  F  F6  1  0.13471500  0.21717400  0.02077300  1
  F  F7  1  0.13950400  0.89939300  0.70017000  1
loop_
_geom_bond_atom_site_label_1
_geom_bond_atom_site_label_2
_geom_bond_distance
_geom_bond_site_symmetry_2
Ca0 F6 2.228716 1_555
Ca0 O3 2.234168 1_555
Ca0 F1 2.246351 1_555
Ca0 O2 2.342517 1_555
Ca0 F2 2.351699 1_554
Ca0 F4 2.427477 1_545
Mn0 O1 2.059309 1_555
Mn0 O3 2.085923 1_565
Mn1 O2 1.938277 1_555
Mn1 O0 1.952688 1_554
Mn1 O1 1.979937 1_555
Mn2 O3 2.083051 1_555
Mn2 O2 2.160857 1_556
Mn3 O1 1.905190 1_555
Mn3 O0 1.931046 1_555
Mn4 O3 2.095823 1_555
Mn4 O2 2.239362 1_455
Mn5 O0 2.076608 1_455
F0 Mn2 2.103894 1_555
F0 Mn4 2.185090 1_655
F0 Mn3 2.187997 1_555
F1 Mn5 2.115570 1_644
F1 Mn4 2.209402 1_655
F2 Mn0 2.231127 1_545
F2 Mn5 2.248295 1_645
F2 Mn2 2.250233 1_555
F3 Mn3 1.961478 1_455
F3 Mn2 2.105611 1_555
F4 Mn1 2.203407 1_555
F4 Mn5 2.221589 1_554
F4 Mn0 2.459273 1_555
F5 Mn3 2.002154 1_455
F5 Mn4 2.121334 1_555
F5 Mn1 2.432758 1_455
F6 Mn5 2.132215 1_544
F6 Mn4 2.192485 1_555
F7 Mn5 2.087561 1_555
F7 Mn0 2.090808 1_555
F7 Mn3 2.294450 1_455
