# generated using pymatgen
data_SrMgTi(PO4)2
_symmetry_space_group_name_H-M   'P 1'
_cell_length_a   5.60808900
_cell_length_b   6.76537626
_cell_length_c   9.46718763
_cell_angle_alpha   107.40885744
_cell_angle_beta   105.01039187
_cell_angle_gamma   97.35882436
_symmetry_Int_Tables_number   1
_chemical_formula_structural   SrMgTi(PO4)2
_chemical_formula_sum   'Sr2 Mg2 Ti2 P4 O16'
_cell_volume   322.70512125
_cell_formula_units_Z   2
loop_
 _symmetry_equiv_pos_site_id
 _symmetry_equiv_pos_as_xyz
  1  'x, y, z'
loop_
 _atom_site_type_symbol
 _atom_site_label
 _atom_site_symmetry_multiplicity
 _atom_site_fract_x
 _atom_site_fract_y
 _atom_site_fract_z
 _atom_site_occupancy
  Sr  Sr0  1  0.78732000  0.25999200  0.05133700  1
  Sr  Sr1  1  0.21268000  0.74000800  0.94866300  1
  Mg  Mg0  1  0.65738800  0.25069800  0.64720300  1
  Mg  Mg1  1  0.34261200  0.74930200  0.35279700  1
  Ti  Ti0  1  0.94219300  0.66480000  0.54937600  1
  Ti  Ti1  1  0.05780700  0.33520000  0.45062400  1
  P  P0  1  0.84252700  0.82194900  0.23634700  1
  P  P1  1  0.15747300  0.17805100  0.76365300  1
  P  P2  1  0.44214800  0.27025100  0.29695600  1
  P  P3  1  0.55785200  0.72974900  0.70304400  1
  O  O0  1  0.06733400  0.32519600  0.89037000  1
  O  O1  1  0.55659300  0.74184200  0.21122200  1
  O  O2  1  0.10677600  0.94614000  0.75819200  1
  O  O3  1  0.74298900  0.57180200  0.69211600  1
  O  O4  1  0.44340700  0.25815800  0.78877800  1
  O  O5  1  0.57188100  0.83329900  0.57700600  1
  O  O6  1  0.42811900  0.16670100  0.42299400  1
  O  O7  1  0.62521700  0.88156400  0.86909600  1
  O  O8  1  0.89322400  0.05386000  0.24180800  1
  O  O9  1  0.37478300  0.11843600  0.13090400  1
  O  O10  1  0.93266600  0.67480400  0.10963000  1
  O  O11  1  0.01446800  0.80995600  0.39269300  1
  O  O12  1  0.98553200  0.19004400  0.60730700  1
  O  O13  1  0.71680300  0.41115000  0.34612500  1
  O  O14  1  0.25701100  0.42819800  0.30788400  1
  O  O15  1  0.28319700  0.58885000  0.65387500  1
loop_
_geom_bond_atom_site_label_1
_geom_bond_atom_site_label_2
_geom_bond_distance
_geom_bond_site_symmetry_2
Mg0 O4 2.011774 1_555
Mg0 O12 2.039202 1_555
Mg0 O6 2.039369 1_555
Mg0 O3 2.050592 1_555
Mg0 O5 2.647810 1_545
Mg1 O1 2.011774 1_555
Mg1 O11 2.039202 1_555
Mg1 O5 2.039369 1_555
Mg1 O14 2.050592 1_555
Mg1 O6 2.647810 1_565
O0 P1 1.553749 1_555
O0 Sr0 2.539140 1_456
O0 Sr1 2.664376 1_555
O1 P0 1.557021 1_555
O1 Sr1 2.718603 1_554
O2 P1 1.541018 1_565
O2 Ti0 2.176265 1_455
O2 Sr1 2.590622 1_555
O3 P3 1.582478 1_555
O3 Ti0 2.140259 1_555
O3 Sr1 2.897706 1_655
O4 P1 1.557021 1_555
O4 Sr0 2.718603 1_556
O5 P3 1.566990 1_555
O5 Ti0 2.527884 1_555
O6 P2 1.566990 1_555
O6 Ti1 2.527884 1_555
O7 P3 1.515180 1_555
O7 Sr0 2.511179 1_566
O7 Sr1 2.757513 1_555
O8 P0 1.541018 1_545
O8 Ti1 2.176265 1_655
O8 Sr0 2.590622 1_555
O9 P2 1.515180 1_555
O9 Sr1 2.511179 1_544
O9 Sr0 2.757513 1_555
O10 P0 1.553749 1_555
O10 Sr1 2.539140 1_654
O10 Sr0 2.664376 1_555
O11 P0 1.574753 1_455
O11 Ti0 2.100029 1_455
O12 P1 1.574753 1_655
O12 Ti1 2.100029 1_655
O13 P2 1.576327 1_555
O13 Ti0 2.110389 1_555
O13 Ti1 2.115621 1_655
O13 Sr0 2.821054 1_555
O14 P2 1.582478 1_555
O14 Ti1 2.140259 1_555
O14 Sr0 2.897706 1_455
O15 P3 1.576327 1_555
O15 Ti1 2.110389 1_555
O15 Ti0 2.115621 1_455
O15 Sr1 2.821054 1_555
