# generated using pymatgen
data_NaBe4SbO7
_symmetry_space_group_name_H-M   'P 1'
_cell_length_a   5.75208908
_cell_length_b   5.75208908
_cell_length_c   9.34552500
_cell_angle_alpha   90.00000000
_cell_angle_beta   90.00000000
_cell_angle_gamma   119.99998939
_symmetry_Int_Tables_number   1
_chemical_formula_structural   NaBe4SbO7
_chemical_formula_sum   'Na2 Be8 Sb2 O14'
_cell_volume   267.78459389
_cell_formula_units_Z   2
loop_
 _symmetry_equiv_pos_site_id
 _symmetry_equiv_pos_as_xyz
  1  'x, y, z'
loop_
 _atom_site_type_symbol
 _atom_site_label
 _atom_site_symmetry_multiplicity
 _atom_site_fract_x
 _atom_site_fract_y
 _atom_site_fract_z
 _atom_site_occupancy
  Na  Na0  1  0.33333300  0.66666700  0.50480700  1
  Na  Na1  1  0.66666700  0.33333300  0.00480700  1
  Be  Be0  1  0.31874500  0.15937300  0.31292900  1
  Be  Be1  1  0.15937300  0.31874500  0.81292900  1
  Be  Be2  1  0.15937300  0.84062700  0.81292900  1
  Be  Be3  1  0.00000000  0.00000000  0.56599900  1
  Be  Be4  1  0.00000000  0.00000000  0.06599900  1
  Be  Be5  1  0.84062700  0.15937300  0.31292900  1
  Be  Be6  1  0.84062700  0.68125500  0.31292900  1
  Be  Be7  1  0.68125500  0.84062700  0.81292900  1
  Sb  Sb0  1  0.66666700  0.33333300  0.53012700  1
  Sb  Sb1  1  0.33333300  0.66666700  0.03012700  1
  O  O0  1  0.28780500  0.14390300  0.14365300  1
  O  O1  1  0.14390300  0.28780500  0.64365300  1
  O  O2  1  0.52094300  0.04188700  0.37722800  1
  O  O3  1  0.14390300  0.85609700  0.64365300  1
  O  O4  1  0.04188700  0.52094300  0.87722800  1
  O  O5  1  0.47905700  0.52094300  0.87722800  1
  O  O6  1  0.00000000  0.00000000  0.88813700  1
  O  O7  1  0.00000000  0.00000000  0.38813700  1
  O  O8  1  0.52094300  0.47905700  0.37722800  1
  O  O9  1  0.95811300  0.47905700  0.37722800  1
  O  O10  1  0.85609700  0.14390300  0.14365300  1
  O  O11  1  0.47905700  0.95811300  0.87722800  1
  O  O12  1  0.85609700  0.71219500  0.14365300  1
  O  O13  1  0.71219500  0.85609700  0.64365300  1
loop_
_geom_bond_atom_site_label_1
_geom_bond_atom_site_label_2
_geom_bond_distance
_geom_bond_site_symmetry_2
Na0 O8 2.217037 1_555
Na0 O9 2.217037 1_455
Na0 O2 2.217037 1_565
Na0 O3 2.290314 1_555
Na0 O13 2.290323 1_555
Na0 O1 2.290323 1_555
Na1 O5 2.217037 1_554
Na1 O4 2.217037 1_654
Na1 O11 2.217037 1_544
Na1 O10 2.290314 1_555
Na1 O12 2.290323 1_555
Na1 O0 2.290323 1_555
Be0 O0 1.589463 1_555
Be0 O2 1.719441 1_555
Be0 O8 1.719441 1_555
Be0 O7 1.736423 1_555
Be1 O1 1.589463 1_555
Be1 O4 1.719441 1_555
Be1 O5 1.719441 1_555
Be1 O6 1.736423 1_555
Be2 O3 1.589463 1_555
Be2 O11 1.719441 1_555
Be2 O4 1.719441 1_555
Be2 O6 1.736427 1_565
Be3 O1 1.606900 1_555
Be3 O13 1.606900 1_445
Be3 O3 1.606904 1_545
Be3 O7 1.662214 1_555
Be4 O0 1.606900 1_555
Be4 O12 1.606900 1_445
Be4 O10 1.606904 1_455
Be4 O6 1.662214 1_554
Be5 O10 1.589463 1_555
Be5 O9 1.719441 1_555
Be5 O2 1.719441 1_555
Be5 O7 1.736427 1_655
Be6 O12 1.589463 1_555
Be6 O9 1.719441 1_555
Be6 O8 1.719441 1_555
Be6 O7 1.736423 1_665
Be7 O13 1.589463 1_555
Be7 O11 1.719441 1_555
Be7 O5 1.719441 1_555
Be7 O6 1.736423 1_665
O2 Sb0 2.037060 1_555
O4 Sb1 2.037060 1_556
O5 Sb1 2.037067 1_556
O8 Sb0 2.037067 1_555
O9 Sb0 2.037060 1_555
O11 Sb1 2.037060 1_556
