# generated using pymatgen
data_Y6Cr(GeS7)2
_symmetry_space_group_name_H-M   'P 1'
_cell_length_a   5.79200300
_cell_length_b   9.82957785
_cell_length_c   9.87866494
_cell_angle_alpha   60.38328225
_cell_angle_beta   89.73398426
_cell_angle_gamma   89.82885696
_symmetry_Int_Tables_number   1
_chemical_formula_structural   Y6Cr(GeS7)2
_chemical_formula_sum   'Y6 Cr1 Ge2 S14'
_cell_volume   488.93612345
_cell_formula_units_Z   1
loop_
 _symmetry_equiv_pos_site_id
 _symmetry_equiv_pos_as_xyz
  1  'x, y, z'
loop_
 _atom_site_type_symbol
 _atom_site_label
 _atom_site_symmetry_multiplicity
 _atom_site_fract_x
 _atom_site_fract_y
 _atom_site_fract_z
 _atom_site_occupancy
  Y  Y0  1  0.74536900  0.22887700  0.63977100  1
  Y  Y1  1  0.74831800  0.64305600  0.13201400  1
  Y  Y2  1  0.74769200  0.12779700  0.22810300  1
  Y  Y3  1  0.24444000  0.77374500  0.35885600  1
  Y  Y4  1  0.24950100  0.35333200  0.87051400  1
  Y  Y5  1  0.24684000  0.87079500  0.77452400  1
  Cr  Cr0  1  0.53309200  0.00088300  0.99653600  1
  Ge  Ge0  1  0.17021200  0.33192800  0.33391000  1
  Ge  Ge1  1  0.66427600  0.66746300  0.66599600  1
  S  S0  1  0.28776800  0.15775800  0.74666200  1
  S  S1  1  0.30175400  0.75982100  0.09181300  1
  S  S2  1  0.29944700  0.09106500  0.15137800  1
  S  S3  1  0.78100300  0.83946700  0.25509700  1
  S  S4  1  0.76347400  0.24354500  0.91100500  1
  S  S5  1  0.76729600  0.91047400  0.84494700  1
  S  S6  1  0.55040600  0.33447500  0.33213600  1
  S  S7  1  0.04478300  0.66477100  0.66907600  1
  S  S8  1  0.00684200  0.09648000  0.48298600  1
  S  S9  1  0.00738500  0.48632000  0.41456400  1
  S  S10  1  0.01063500  0.41688700  0.09916900  1
  S  S11  1  0.50213900  0.90278500  0.51823500  1
  S  S12  1  0.50198000  0.51616200  0.58180700  1
  S  S13  1  0.50235000  0.58211600  0.90090300  1
loop_
_geom_bond_atom_site_label_1
_geom_bond_atom_site_label_2
_geom_bond_distance
_geom_bond_site_symmetry_2
Cr0 S1 2.469587 1_546
Cr0 S5 2.482269 1_545
Cr0 S4 2.490082 1_555
Cr0 S2 2.504143 1_556
Cr0 S0 2.597546 1_555
Cr0 S3 2.667998 1_546
Ge0 S6 2.202192 1_555
Ge0 S9 2.237627 1_555
Ge0 S10 2.242838 1_555
Ge0 S8 2.247619 1_555
Ge1 S7 2.204148 1_655
Ge1 S12 2.241717 1_555
Ge1 S11 2.241789 1_555
Ge1 S13 2.242487 1_555
S0 Y5 2.706376 1_545
S0 Y4 2.749801 1_555
S0 Y0 2.807836 1_555
S0 Y0 3.280440 1_455
S1 Y3 2.727011 1_555
S1 Y1 2.776025 1_555
S1 Y5 2.782674 1_554
S1 Y1 3.363025 1_455
S2 Y4 2.713137 1_554
S2 Y3 2.777126 1_545
S2 Y2 2.782021 1_555
S2 Y2 3.340488 1_455
S3 Y2 2.718644 1_565
S3 Y1 2.750659 1_555
S3 Y3 2.834388 1_655
S3 Y3 3.233289 1_555
S4 Y2 2.755130 1_556
S4 Y0 2.756023 1_555
S4 Y4 2.971573 1_655
S4 Y4 3.122808 1_555
S5 Y1 2.755848 1_556
S5 Y0 2.765826 1_565
S5 Y5 2.931636 1_655
S5 Y5 3.165105 1_555
S6 Y0 2.914661 1_555
S6 Y1 2.914719 1_555
S6 Y2 2.920268 1_555
S7 Y3 2.933626 1_555
S7 Y5 2.943880 1_555
S7 Y4 2.952383 1_555
S8 Y2 2.820254 1_455
S8 Y0 2.888735 1_455
S8 Y5 2.975218 1_545
S9 Y0 2.843134 1_455
S9 Y1 2.861950 1_455
S9 Y3 2.941017 1_555
S10 Y1 2.836239 1_455
S10 Y2 2.906387 1_455
S10 Y4 2.960936 1_554
S11 Y5 2.806515 1_555
S11 Y3 2.884890 1_555
S11 Y2 2.974000 1_565
S12 Y3 2.825384 1_555
S12 Y4 2.880590 1_555
S12 Y0 2.945339 1_555
S13 Y4 2.825464 1_555
S13 Y5 2.879463 1_555
S13 Y1 2.997975 1_556
