# generated using pymatgen
data_Pr2Al3Co14
_symmetry_space_group_name_H-M   'P 1'
_cell_length_a   6.38542251
_cell_length_b   6.38542251
_cell_length_c   6.38542247
_cell_angle_alpha   82.63303076
_cell_angle_beta   82.63303076
_cell_angle_gamma   82.63302853
_symmetry_Int_Tables_number   1
_chemical_formula_structural   Pr2Al3Co14
_chemical_formula_sum   'Pr2 Al3 Co14'
_cell_volume   254.41698286
_cell_formula_units_Z   1
loop_
 _symmetry_equiv_pos_site_id
 _symmetry_equiv_pos_as_xyz
  1  'x, y, z'
loop_
 _atom_site_type_symbol
 _atom_site_label
 _atom_site_symmetry_multiplicity
 _atom_site_fract_x
 _atom_site_fract_y
 _atom_site_fract_z
 _atom_site_occupancy
  Pr  Pr0  1  0.65567200  0.65567200  0.65567200  1
  Pr  Pr1  1  0.34432800  0.34432800  0.34432800  1
  Al  Al0  1  0.00000000  0.00000000  0.50000000  1
  Al  Al1  1  0.50000000  0.00000000  0.00000000  1
  Al  Al2  1  0.00000000  0.50000000  0.00000000  1
  Co  Co0  1  0.71337600  0.28662400  0.00000000  1
  Co  Co1  1  0.00000000  0.71337600  0.28662400  1
  Co  Co2  1  0.28662400  0.00000000  0.71337600  1
  Co  Co3  1  0.00000000  0.28662400  0.71337600  1
  Co  Co4  1  0.71337600  0.00000000  0.28662400  1
  Co  Co5  1  0.28662400  0.71337600  0.00000000  1
  Co  Co6  1  0.34455700  0.34455700  0.84072900  1
  Co  Co7  1  0.84072900  0.34455700  0.34455700  1
  Co  Co8  1  0.34455700  0.84072900  0.34455700  1
  Co  Co9  1  0.65544300  0.65544300  0.15927100  1
  Co  Co10  1  0.15927100  0.65544300  0.65544300  1
  Co  Co11  1  0.65544300  0.15927100  0.65544300  1
  Co  Co12  1  0.90749900  0.90749900  0.90749900  1
  Co  Co13  1  0.09250100  0.09250100  0.09250100  1
loop_
_geom_bond_atom_site_label_1
_geom_bond_atom_site_label_2
_geom_bond_distance
_geom_bond_site_symmetry_2
Al0 Co1 2.417763 1_545
Al0 Co4 2.417763 1_455
Al0 Co3 2.417763 1_555
Al0 Co2 2.417763 1_555
Al0 Co7 2.446458 1_455
Al0 Co11 2.446458 1_455
Al0 Co10 2.446458 1_545
Al0 Co8 2.446458 1_545
Al0 Co12 2.601850 1_445
Al0 Co13 2.601850 1_555
Al0 Pr1 3.282566 1_555
Al0 Pr0 3.282566 1_445
Al1 Co4 2.417763 1_555
Al1 Co2 2.417763 1_554
Al1 Co5 2.417763 1_545
Al1 Co0 2.417763 1_555
Al1 Co9 2.446458 1_545
Al1 Co6 2.446458 1_554
Al1 Co11 2.446458 1_554
Al1 Co8 2.446458 1_545
Al1 Co12 2.601850 1_544
Al1 Co13 2.601850 1_555
Al1 Pr1 3.282566 1_555
Al1 Pr0 3.282566 1_544
Al2 Co1 2.417763 1_555
Al2 Co3 2.417763 1_554
Al2 Co5 2.417763 1_555
Al2 Co0 2.417763 1_455
Al2 Co9 2.446458 1_455
Al2 Co6 2.446458 1_554
Al2 Co10 2.446458 1_554
Al2 Co7 2.446458 1_455
Al2 Co12 2.601850 1_454
Al2 Co13 2.601850 1_555
Al2 Pr1 3.282566 1_555
Al2 Pr0 3.282566 1_454
Co0 Co3 2.416683 1_654
Co0 Co4 2.416683 1_555
Co0 Co7 2.526551 1_555
Co0 Co11 2.526551 1_554
Co0 Co6 2.647984 1_554
Co0 Co9 2.647984 1_555
Co0 Co13 2.674957 1_655
Co0 Co12 2.674957 1_544
Co0 Pr1 3.029776 1_555
Co0 Pr0 3.029776 1_554
Co1 Co4 2.416683 1_465
Co1 Co5 2.416683 1_555
Co1 Co9 2.526551 1_455
Co1 Co8 2.526552 1_555
Co1 Co10 2.647984 1_555
Co1 Co7 2.647984 1_455
Co1 Co12 2.674957 1_454
Co1 Co13 2.674957 1_565
Co1 Pr1 3.029776 1_555
Co1 Pr0 3.029776 1_455
Co2 Co3 2.416683 1_555
Co2 Co5 2.416683 1_546
Co2 Co6 2.526551 1_555
Co2 Co8 2.647984 1_545
Co2 Pr0 3.029776 1_545
Co2 Pr1 3.029776 1_555
Co3 Co6 2.526551 1_555
Co3 Co7 2.647984 1_455
Co3 Pr0 3.029776 1_455
Co3 Pr1 3.029776 1_555
Co4 Co9 2.526551 1_545
Co4 Co7 2.526552 1_555
Co4 Co8 2.647984 1_545
Co4 Pr1 3.029776 1_555
Co4 Pr0 3.029776 1_545
Co5 Co8 2.526551 1_555
Co5 Co6 2.647984 1_554
Co5 Co9 2.647984 1_555
Co5 Pr1 3.029776 1_555
Co5 Pr0 3.029776 1_554
Co6 Pr0 3.016218 1_555
Co6 Pr1 3.170106 1_555
Co6 Pr1 3.215318 1_556
Co7 Co9 2.427903 1_555
Co7 Pr0 3.016218 1_555
Co7 Pr1 3.170106 1_555
Co7 Pr1 3.215318 1_655
Co8 Co9 2.427903 1_555
Co8 Pr0 3.016218 1_555
Co8 Pr1 3.170106 1_555
Co8 Pr1 3.215318 1_565
Co9 Pr1 3.016218 1_555
Co9 Pr0 3.170106 1_555
Co9 Pr0 3.215318 1_554
Co10 Co6 2.427903 1_555
Co10 Co8 2.427903 1_555
Co10 Co5 2.526551 1_556
Co10 Co2 2.526552 1_565
Co10 Co3 2.647984 1_555
Co10 Co12 2.665083 1_455
Co10 Pr1 3.016218 1_555
Co10 Pr0 3.170106 1_555
Co10 Pr0 3.215318 1_455
Co11 Co6 2.427903 1_555
Co11 Co7 2.427903 1_555
Co11 Co3 2.526552 1_655
Co11 Co4 2.647984 1_555
Co11 Co2 2.647984 1_555
Co11 Co12 2.665083 1_545
Co11 Pr1 3.016218 1_555
Co11 Pr0 3.170106 1_555
Co11 Pr0 3.215318 1_545
Co12 Co13 2.293501 1_666
Co12 Co9 2.665083 1_556
Co12 Co5 2.674957 1_656
Co12 Co4 2.674957 1_566
Co12 Co3 2.674957 1_665
Co12 Co2 2.674957 1_665
Co12 Pr0 3.121942 1_555
Co13 Co7 2.665083 1_455
Co13 Co8 2.665083 1_545
Co13 Co6 2.665083 1_554
Co13 Co5 2.674957 1_545
Co13 Co2 2.674957 1_554
Co13 Co3 2.674957 1_554
Co13 Co4 2.674957 1_455
Co13 Pr1 3.121942 1_555
