# generated using pymatgen
data_AlCuF5
_symmetry_space_group_name_H-M   'P 1'
_cell_length_a   5.16082438
_cell_length_b   5.16082438
_cell_length_c   5.16082438
_cell_angle_alpha   139.25209255
_cell_angle_beta   105.37693396
_cell_angle_gamma   88.69601907
_symmetry_Int_Tables_number   1
_chemical_formula_structural   AlCuF5
_chemical_formula_sum   'Al1 Cu1 F5'
_cell_volume   82.97147001
_cell_formula_units_Z   1
loop_
 _symmetry_equiv_pos_site_id
 _symmetry_equiv_pos_as_xyz
  1  'x, y, z'
loop_
 _atom_site_type_symbol
 _atom_site_label
 _atom_site_symmetry_multiplicity
 _atom_site_fract_x
 _atom_site_fract_y
 _atom_site_fract_z
 _atom_site_occupancy
  Al  Al0  1  0.50000000  0.50000000  0.00000000  1
  Cu  Cu0  1  0.00000000  0.00000000  0.00000000  1
  F  F0  1  0.79210000  0.50000000  0.29210000  1
  F  F1  1  0.20790000  0.50000000  0.70790000  1
  F  F2  1  0.25305100  0.25305100  0.00000000  1
  F  F3  1  0.74694900  0.74694900  0.00000000  1
  F  F4  1  0.50000000  0.00000000  0.50000000  1
loop_
_geom_bond_atom_site_label_1
_geom_bond_atom_site_label_2
_geom_bond_distance
_geom_bond_site_symmetry_2
Al0 F4 1.796720 1_565
Al0 F4 1.796720 1_554
Al0 F3 1.822752 1_555
Al0 F2 1.822752 1_555
Al0 F1 1.827510 1_554
Al0 F0 1.827510 1_555
Cu0 F2 1.867791 1_555
Cu0 F3 1.867791 1_445
Cu0 F0 2.218122 1_444
Cu0 F0 2.218122 1_455
Cu0 F1 2.218122 1_544
Cu0 F1 2.218122 1_555
