# generated using pymatgen
data_CaMg7(SiO3)8
_symmetry_space_group_name_H-M   'P 1'
_cell_length_a   5.29904400
_cell_length_b   8.98335467
_cell_length_c   9.54989824
_cell_angle_alpha   89.68563513
_cell_angle_beta   76.90505678
_cell_angle_gamma   89.89645322
_symmetry_Int_Tables_number   1
_chemical_formula_structural   CaMg7(SiO3)8
_chemical_formula_sum   'Ca1 Mg7 Si8 O24'
_cell_volume   442.77731759
_cell_formula_units_Z   1
loop_
 _symmetry_equiv_pos_site_id
 _symmetry_equiv_pos_as_xyz
  1  'x, y, z'
loop_
 _atom_site_type_symbol
 _atom_site_label
 _atom_site_symmetry_multiplicity
 _atom_site_fract_x
 _atom_site_fract_y
 _atom_site_fract_z
 _atom_site_occupancy
  Ca  Ca0  1  0.52861500  0.53709800  0.73885900  1
  Mg  Mg0  1  0.52226400  0.15377300  0.74891900  1
  Mg  Mg1  1  0.97789100  0.65142400  0.25084900  1
  Mg  Mg2  1  0.47686500  0.84879200  0.25066800  1
  Mg  Mg3  1  0.01943200  0.34283400  0.75044600  1
  Mg  Mg4  1  0.97143200  0.01157400  0.25131800  1
  Mg  Mg5  1  0.47153300  0.48850500  0.25186000  1
  Mg  Mg6  1  0.02613500  0.99152400  0.74963900  1
  Si  Si0  1  0.81189200  0.33470100  0.44981900  1
  Si  Si1  1  0.68926600  0.84264000  0.54749600  1
  Si  Si2  1  0.18411200  0.66064700  0.54318300  1
  Si  Si3  1  0.30967100  0.16092100  0.44961200  1
  Si  Si4  1  0.26138500  0.84406300  0.95924200  1
  Si  Si5  1  0.24014500  0.33928100  0.04310900  1
  Si  Si6  1  0.74136200  0.15876300  0.04382200  1
  Si  Si7  1  0.76692700  0.65918600  0.96348600  1
  O  O0  1  0.74878900  0.48555800  0.37022100  1
  O  O1  1  0.74714100  0.98705800  0.63357800  1
  O  O2  1  0.21651700  0.50500200  0.61940800  1
  O  O3  1  0.24875000  0.01283300  0.36778400  1
  O  O4  1  0.74371500  0.33131500  0.62537700  1
  O  O5  1  0.75879900  0.84512700  0.37213400  1
  O  O6  1  0.26083800  0.66142200  0.36795500  1
  O  O7  1  0.24015600  0.15494300  0.62578500  1
  O  O8  1  0.19107600  0.84306800  0.13444000  1
  O  O9  1  0.30242400  0.33401200  0.86836900  1
  O  O10  1  0.80590000  0.15725900  0.86845100  1
  O  O11  1  0.69373600  0.66095200  0.13853700  1
  O  O12  1  0.01714200  0.77074100  0.89711700  1
  O  O13  1  0.48985200  0.27006000  0.10476300  1
  O  O14  1  0.98798000  0.22785600  0.10755700  1
  O  O15  1  0.52048800  0.73605800  0.90385300  1
  O  O16  1  0.62666400  0.20317500  0.39646600  1
  O  O17  1  0.87315700  0.70976700  0.59921400  1
  O  O18  1  0.37766000  0.78547400  0.60212000  1
  O  O19  1  0.12941500  0.29470000  0.39451700  1
  O  O20  1  0.29200600  0.00076200  0.87549800  1
  O  O21  1  0.20935300  0.49929700  0.12228100  1
  O  O22  1  0.70805100  0.99884800  0.12335400  1
  O  O23  1  0.81146500  0.49898700  0.88889500  1
loop_
_geom_bond_atom_site_label_1
_geom_bond_atom_site_label_2
_geom_bond_distance
_geom_bond_site_symmetry_2
Ca0 O2 2.231538 1_555
Ca0 O4 2.312082 1_555
Ca0 O23 2.320045 1_555
Ca0 O9 2.367730 1_555
Ca0 O15 2.383071 1_555
Ca0 O17 2.530242 1_555
Ca0 O18 2.785403 1_555
Mg0 O20 2.039334 1_555
Mg0 O1 2.071991 1_545
Mg0 O10 2.083519 1_555
Mg0 O7 2.100948 1_555
Mg0 O4 2.161378 1_555
Mg0 O9 2.165942 1_555
Mg1 O11 2.038468 1_555
Mg1 O21 2.051702 1_655
Mg1 O6 2.065967 1_655
Mg1 O0 2.086721 1_555
Mg1 O8 2.211995 1_655
Mg1 O5 2.263377 1_555
Mg2 O22 2.027120 1_555
Mg2 O3 2.069478 1_565
Mg2 O8 2.071399 1_555
Mg2 O5 2.088854 1_555
Mg2 O11 2.184033 1_555
Mg2 O6 2.191683 1_555
Mg3 O2 2.042618 1_555
Mg3 O23 2.070003 1_455
Mg3 O9 2.070527 1_555
Mg3 O4 2.089153 1_455
Mg3 O10 2.176668 1_455
Mg3 O7 2.240145 1_555
Mg4 O3 2.034088 1_655
Mg4 O22 2.056526 1_545
Mg4 O5 2.057823 1_545
Mg4 O8 2.077367 1_645
Mg4 O14 2.363124 1_555
Mg4 O16 2.662521 1_555
Mg5 O0 2.046685 1_555
Mg5 O21 2.061095 1_555
Mg5 O6 2.083372 1_555
Mg5 O11 2.090044 1_555
Mg5 O13 2.408618 1_555
Mg5 O19 2.653300 1_555
Mg6 O1 2.039357 1_455
Mg6 O20 2.050677 1_565
Mg6 O7 2.054142 1_565
Mg6 O10 2.068408 1_465
Mg6 O12 2.420517 1_555
O0 Si0 1.621251 1_555
O1 Si1 1.606356 1_555
O2 Si2 1.599685 1_555
O3 Si3 1.616143 1_555
O4 Si0 1.633193 1_555
O5 Si1 1.631214 1_555
O6 Si2 1.630104 1_555
O7 Si3 1.639333 1_555
O8 Si4 1.629606 1_554
O9 Si5 1.627003 1_556
O10 Si6 1.631781 1_556
O11 Si7 1.628433 1_554
O12 Si7 1.667647 1_455
O12 Si4 1.678170 1_555
O13 Si6 1.662739 1_555
O13 Si5 1.682341 1_555
O14 Si5 1.670832 1_655
O14 Si6 1.682576 1_555
O15 Si4 1.666742 1_555
O15 Si7 1.684033 1_555
O16 Si3 1.684384 1_555
O16 Si0 1.690109 1_555
O17 Si2 1.672303 1_655
O17 Si1 1.680977 1_555
O18 Si1 1.694748 1_555
O18 Si2 1.702588 1_555
O19 Si0 1.684139 1_455
O19 Si3 1.688236 1_555
O20 Si4 1.605355 1_545
O21 Si5 1.618584 1_555
O22 Si6 1.612442 1_565
O23 Si7 1.602512 1_555
