# generated using pymatgen
data_LaTl2P2S7
_symmetry_space_group_name_H-M   'P 1'
_cell_length_a   11.01019196
_cell_length_b   11.01019196
_cell_length_c   9.42625236
_cell_angle_alpha   72.45438545
_cell_angle_beta   72.45438545
_cell_angle_gamma   35.72654946
_symmetry_Int_Tables_number   1
_chemical_formula_structural   LaTl2P2S7
_chemical_formula_sum   'La2 Tl4 P4 S14'
_cell_volume   632.88408086
_cell_formula_units_Z   2
loop_
 _symmetry_equiv_pos_site_id
 _symmetry_equiv_pos_as_xyz
  1  'x, y, z'
loop_
 _atom_site_type_symbol
 _atom_site_label
 _atom_site_symmetry_multiplicity
 _atom_site_fract_x
 _atom_site_fract_y
 _atom_site_fract_z
 _atom_site_occupancy
  La  La0  1  0.34739700  0.34739700  0.83835500  1
  La  La1  1  0.65260300  0.65260300  0.16164500  1
  Tl  Tl0  1  0.01002900  0.01002900  0.74676200  1
  Tl  Tl1  1  0.98997100  0.98997100  0.25323800  1
  Tl  Tl2  1  0.31326200  0.31326200  0.32673700  1
  Tl  Tl3  1  0.68673800  0.68673800  0.67326300  1
  P  P0  1  0.45394800  0.45394800  0.46609700  1
  P  P1  1  0.54605200  0.54605200  0.53390300  1
  P  P2  1  0.16483500  0.16483500  0.93132600  1
  P  P3  1  0.83516500  0.83516500  0.06867400  1
  S  S0  1  0.51077300  0.51077300  0.75977100  1
  S  S1  1  0.48922700  0.48922700  0.24022900  1
  S  S2  1  0.23368600  0.23368600  0.72122800  1
  S  S3  1  0.76631400  0.76631400  0.27877200  1
  S  S4  1  0.84501600  0.35325800  0.43964700  1
  S  S5  1  0.35325800  0.84501600  0.43964700  1
  S  S6  1  0.15498400  0.64674200  0.56035300  1
  S  S7  1  0.64674200  0.15498400  0.56035300  1
  S  S8  1  0.86038200  0.34692300  0.95884100  1
  S  S9  1  0.34692300  0.86038200  0.95884100  1
  S  S10  1  0.13961800  0.65307700  0.04115900  1
  S  S11  1  0.65307700  0.13961800  0.04115900  1
  S  S12  1  0.78651000  0.78651000  0.90894600  1
  S  S13  1  0.21349000  0.21349000  0.09105400  1
loop_
_geom_bond_atom_site_label_1
_geom_bond_atom_site_label_2
_geom_bond_distance
_geom_bond_site_symmetry_2
La0 S2 2.926715 1_555
La0 S10 2.992772 1_556
La0 S11 2.992772 1_556
La0 S6 3.003498 1_555
La0 S7 3.003498 1_555
La0 S13 3.052166 1_556
La0 S0 3.266016 1_555
La0 S12 3.597188 1_455
La0 S12 3.597188 1_545
La1 S3 2.926715 1_555
La1 S9 2.992772 1_554
La1 S8 2.992772 1_554
La1 S4 3.003498 1_555
La1 S5 3.003498 1_555
La1 S12 3.052166 1_554
La1 S1 3.266016 1_555
La1 S13 3.597188 1_655
La1 S13 3.597188 1_565
P0 S1 2.020519 1_555
P0 S6 2.039471 1_555
P0 S7 2.039471 1_555
P0 P1 2.217321 1_555
P1 S0 2.020519 1_555
P1 S5 2.039471 1_555
P1 S4 2.039471 1_555
P2 S2 2.047957 1_555
P2 S9 2.049650 1_545
P2 S8 2.049650 1_455
P2 S13 2.068682 1_556
P3 S3 2.047957 1_555
P3 S11 2.049650 1_565
P3 S10 2.049650 1_655
P3 S12 2.068682 1_554
S8 Tl3 3.211943 1_555
S9 Tl3 3.211943 1_555
S10 Tl2 3.211943 1_555
S11 Tl2 3.211943 1_555
