# generated using pymatgen
data_V2Zn3TePb3O14
_symmetry_space_group_name_H-M   'P 1'
_cell_length_a   5.27676600
_cell_length_b   8.78446729
_cell_length_c   8.78440138
_cell_angle_alpha   119.99973141
_cell_angle_beta   89.99997989
_cell_angle_gamma   90.00092620
_symmetry_Int_Tables_number   1
_chemical_formula_structural   V2Zn3TePb3O14
_chemical_formula_sum   'V2 Zn3 Te1 Pb3 O14'
_cell_volume   352.63648552
_cell_formula_units_Z   1
loop_
 _symmetry_equiv_pos_site_id
 _symmetry_equiv_pos_as_xyz
  1  'x, y, z'
loop_
 _atom_site_type_symbol
 _atom_site_label
 _atom_site_symmetry_multiplicity
 _atom_site_fract_x
 _atom_site_fract_y
 _atom_site_fract_z
 _atom_site_occupancy
  V  V0  1  0.54572000  0.66664200  0.33332000  1
  V  V1  1  0.45428400  0.33335500  0.66667600  1
  Zn  Zn0  1  0.50000100  0.24181200  0.99999400  1
  Zn  Zn1  1  0.50000200  0.00000000  0.24182200  1
  Zn  Zn2  1  0.50000000  0.75818800  0.75818300  1
  Te  Te0  1  0.00000000  0.00000100  0.00000400  1
  Pb  Pb0  1  0.99999900  0.00000100  0.60803500  1
  Pb  Pb1  1  0.00000400  0.39197300  0.39197300  1
  Pb  Pb2  1  0.99999500  0.60802700  0.99999900  1
  O  O0  1  0.22039300  0.66661200  0.33330800  1
  O  O1  1  0.77960700  0.33339000  0.66669700  1
  O  O2  1  0.78733200  0.08663300  0.87673200  1
  O  O3  1  0.78733300  0.12326100  0.20989900  1
  O  O4  1  0.78732600  0.79010000  0.91336400  1
  O  O5  1  0.21266900  0.91336700  0.79009800  1
  O  O6  1  0.21267300  0.20989500  0.12325900  1
  O  O7  1  0.21267200  0.87674000  0.08663900  1
  O  O8  1  0.66865600  0.73858600  0.54472700  1
  O  O9  1  0.66868000  0.45526100  0.19385800  1
  O  O10  1  0.66864500  0.80613000  0.26140300  1
  O  O11  1  0.33133900  0.26141400  0.80614200  1
  O  O12  1  0.33135300  0.19387100  0.45527100  1
  O  O13  1  0.33131700  0.54474000  0.73859700  1
loop_
_geom_bond_atom_site_label_1
_geom_bond_atom_site_label_2
_geom_bond_distance
_geom_bond_site_symmetry_2
O0 V0 1.716674 1_555
O1 V1 1.716653 1_555
O2 Te0 1.958364 1_656
O2 Zn0 1.963033 1_555
O2 Pb0 2.369275 1_555
O3 Te0 1.958305 1_655
O3 Zn1 1.963017 1_555
O3 Pb1 2.369378 1_655
O4 Te0 1.958344 1_666
O4 Zn2 1.963006 1_555
O4 Pb2 2.369369 1_555
O5 Te0 1.958378 1_566
O5 Zn2 1.963037 1_555
O5 Pb0 2.369279 1_465
O6 Te0 1.958295 1_555
O6 Zn0 1.963010 1_554
O6 Pb1 2.369411 1_555
O7 Te0 1.958327 1_565
O7 Zn1 1.963008 1_565
O7 Pb2 2.369397 1_454
O8 V0 1.759355 1_555
O8 Zn2 2.003682 1_555
O8 Pb0 2.713386 1_565
O9 V0 1.759266 1_555
O9 Zn0 2.003738 1_554
O9 Pb1 2.713297 1_655
O10 V0 1.759358 1_555
O10 Zn1 2.003705 1_565
O10 Pb2 2.713387 1_554
O11 V1 1.759376 1_555
O11 Zn0 2.003681 1_555
O11 Pb0 2.713367 1_455
O12 V1 1.759365 1_555
O12 Zn1 2.003714 1_555
O12 Pb1 2.713363 1_555
O13 V1 1.759307 1_555
O13 Zn2 2.003735 1_555
O13 Pb2 2.713285 1_455
