# generated using pymatgen
data_Ba3Ga2B10H4O23
_symmetry_space_group_name_H-M   'P 1'
_cell_length_a   24.02467466
_cell_length_b   23.51205577
_cell_length_c   7.16185724
_cell_angle_alpha   85.41457889
_cell_angle_beta   77.29891077
_cell_angle_gamma   17.28651033
_symmetry_Int_Tables_number   1
_chemical_formula_structural   Ba3Ga2B10H4O23
_chemical_formula_sum   'Ba6 Ga4 B20 H8 O46'
_cell_volume   1048.19293714
_cell_formula_units_Z   2
loop_
 _symmetry_equiv_pos_site_id
 _symmetry_equiv_pos_as_xyz
  1  'x, y, z'
loop_
 _atom_site_type_symbol
 _atom_site_label
 _atom_site_symmetry_multiplicity
 _atom_site_fract_x
 _atom_site_fract_y
 _atom_site_fract_z
 _atom_site_occupancy
  Ba  Ba0  1  0.52382000  0.78948200  0.47514300  1
  Ba  Ba1  1  0.47514300  0.21155600  0.52382000  1
  Ba  Ba2  1  0.03844400  0.77485700  0.46051800  1
  Ba  Ba3  1  0.46051800  0.72618000  0.03844400  1
  Ba  Ba4  1  0.75875800  0.74124200  0.75875800  1
  Ba  Ba5  1  0.50875800  0.49124200  0.50875800  1
  Ga  Ga0  1  0.87980200  0.45516900  0.76550700  1
  Ga  Ga1  1  0.76550700  0.89952300  0.87980200  1
  Ga  Ga2  1  0.35047700  0.48449300  0.79483100  1
  Ga  Ga3  1  0.79483100  0.37019800  0.35047700  1
  B  B0  1  0.37916400  0.15692800  0.56980800  1
  B  B1  1  0.56980800  0.89410000  0.37916400  1
  B  B2  1  0.35590000  0.68019200  0.09307200  1
  B  B3  1  0.09307200  0.87083600  0.35590000  1
  B  B4  1  0.42948900  0.90612100  0.97982300  1
  B  B5  1  0.97982300  0.68456700  0.42948900  1
  B  B6  1  0.56543300  0.27017700  0.34387900  1
  B  B7  1  0.34387900  0.82051100  0.56543300  1
  B  B8  1  0.04382400  0.28101500  0.06798300  1
  B  B9  1  0.06798300  0.60717900  0.04382400  1
  B  B10  1  0.64282100  0.18201700  0.96898500  1
  B  B11  1  0.96898500  0.20617600  0.64282100  1
  B  B12  1  0.18281900  0.25902800  0.56188200  1
  B  B13  1  0.56188200  0.99627100  0.18281900  1
  B  B14  1  0.25372900  0.68811800  0.99097200  1
  B  B15  1  0.99097200  0.06718100  0.25372900  1
  B  B16  1  0.13227800  0.17149600  0.35366800  1
  B  B17  1  0.35366800  0.34255800  0.13227800  1
  B  B18  1  0.90744200  0.89633200  0.07850400  1
  B  B19  1  0.07850400  0.11772200  0.90744200  1
  H  H0  1  0.44131100  0.96259800  0.13874500  1
  H  H1  1  0.13874500  0.45734600  0.44131100  1
  H  H2  1  0.79265400  0.11125500  0.28740200  1
  H  H3  1  0.28740200  0.80868900  0.79265400  1
  H  H4  1  0.35880900  0.20073200  0.85227500  1
  H  H5  1  0.85227500  0.58818400  0.35880900  1
  H  H6  1  0.66181600  0.39772500  0.04926800  1
  H  H7  1  0.04926800  0.89119100  0.66181600  1
  O  O0  1  0.34113700  0.95975900  0.19929500  1
  O  O1  1  0.19929500  0.49981000  0.34113700  1
  O  O2  1  0.75019000  0.05070500  0.29024100  1
  O  O3  1  0.29024100  0.90886300  0.75019000  1
  O  O4  1  0.08044900  0.21424300  0.56406900  1
  O  O5  1  0.56406900  0.14123800  0.08044900  1
  O  O6  1  0.10876200  0.68593100  0.03575700  1
  O  O7  1  0.03575700  0.16955100  0.10876200  1
  O  O8  1  0.18028700  0.31735400  0.61219500  1
  O  O9  1  0.61219500  0.89016400  0.18028700  1
  O  O10  1  0.35983600  0.63780500  0.93264600  1
  O  O11  1  0.93264600  0.06971300  0.35983600  1
  O  O12  1  0.87756000  0.44625200  0.02526600  1
  O  O13  1  0.02526600  0.65092300  0.87756000  1
  O  O14  1  0.59907700  0.22473400  0.80374800  1
  O  O15  1  0.80374800  0.37244000  0.59907700  1
  O  O16  1  0.98548000  0.42510700  0.62766100  1
  O  O17  1  0.62766100  0.96175200  0.98548000  1
  O  O18  1  0.28824800  0.62233900  0.82489300  1
  O  O19  1  0.82489300  0.26452000  0.28824800  1
  O  O20  1  0.25613800  0.07751800  0.91757800  1
  O  O21  1  0.91757800  0.74876600  0.25613800  1
  O  O22  1  0.50123400  0.33242200  0.17248200  1
  O  O23  1  0.17248200  0.99386200  0.50123400  1
  O  O24  1  0.50199100  0.89336700  0.99123000  1
  O  O25  1  0.99123000  0.61341300  0.50199100  1
  O  O26  1  0.63658700  0.25877000  0.35663300  1
  O  O27  1  0.35663300  0.74800900  0.63658700  1
  O  O28  1  0.54168300  0.95831700  0.54168300  1
  O  O29  1  0.29168300  0.70831700  0.29168300  1
  O  O30  1  0.98258400  0.33442300  0.28968400  1
  O  O31  1  0.28968400  0.39331000  0.98258400  1
  O  O32  1  0.85669000  0.96031600  0.91557700  1
  O  O33  1  0.91557700  0.26741600  0.85669000  1
  O  O34  1  0.33842800  0.23526300  0.73365400  1
  O  O35  1  0.73365400  0.69265500  0.33842800  1
  O  O36  1  0.55734500  0.51634600  0.01473700  1
  O  O37  1  0.01473700  0.91157200  0.55734500  1
  O  O38  1  0.60602400  0.70363200  0.81950700  1
  O  O39  1  0.81950700  0.87083700  0.60602400  1
  O  O40  1  0.37916300  0.43049300  0.54636800  1
  O  O41  1  0.54636800  0.64397600  0.37916300  1
  O  O42  1  0.37329200  0.04776000  0.44170300  1
  O  O43  1  0.44170300  0.13724500  0.37329200  1
  O  O44  1  0.11275500  0.80829700  0.20224000  1
  O  O45  1  0.20224000  0.87670800  0.11275500  1
loop_
_geom_bond_atom_site_label_1
_geom_bond_atom_site_label_2
_geom_bond_distance
_geom_bond_site_symmetry_2
Ba0 O38 2.791133 1_555
Ba0 O35 2.797208 1_555
Ba0 O0 2.861272 1_555
Ba0 O42 2.867544 1_565
Ba0 O30 2.890694 1_555
Ba0 O4 2.914057 1_565
Ba0 O20 2.926069 1_565
Ba0 O12 2.979439 1_555
Ba0 O41 3.023799 1_555
Ba0 O3 3.032030 1_555
Ba1 O39 2.791133 1_545
Ba1 O34 2.797228 1_555
Ba1 O1 2.861272 1_555
Ba1 O43 2.867565 1_555
Ba1 O31 2.890694 1_555
Ba1 O5 2.914054 1_555
Ba1 O21 2.926076 1_545
Ba1 O13 2.979439 1_555
Ba1 O40 3.023776 1_555
Ba1 O2 3.031993 1_555
Ba2 O40 2.791138 1_555
Ba2 O37 2.797231 1_555
Ba2 O2 2.861272 1_465
Ba2 O44 2.867562 1_555
Ba2 O32 2.890694 1_455
Ba2 O6 2.914040 1_555
Ba2 O22 2.926075 1_555
Ba2 O14 2.979439 1_465
Ba2 O39 3.023776 1_455
Ba2 O1 3.031990 1_555
Ba3 O41 2.791140 1_555
Ba3 O36 2.797208 1_555
Ba3 O3 2.861272 1_554
Ba3 O45 2.867543 1_555
Ba3 O33 2.890694 1_554
Ba3 O7 2.914052 1_565
Ba3 O23 2.926075 1_555
Ba3 O15 2.979439 1_554
Ba3 O38 3.023797 1_554
Ba3 O0 3.032034 1_555
Ba4 O28 2.670295 1_555
Ba4 O8 2.691455 1_655
Ba4 O9 2.691455 1_556
Ba4 O16 2.711183 1_555
Ba4 O17 2.711183 1_555
Ba4 O24 2.814154 1_555
Ba4 O25 2.814172 1_555
Ba5 O29 2.670295 1_555
Ba5 O11 2.691455 1_555
Ba5 O10 2.691455 1_555
Ba5 O18 2.711183 1_555
Ba5 O19 2.711183 1_555
Ba5 O27 2.814153 1_555
Ba5 O26 2.814175 1_555
Ga0 O38 1.845126 1_555
Ga0 O12 1.850115 1_556
Ga0 O16 1.871521 1_555
Ga0 O4 1.873337 1_655
Ga1 O39 1.845120 1_555
Ga1 O13 1.850115 1_655
Ga1 O17 1.871542 1_555
Ga1 O5 1.873308 1_566
Ga2 O40 1.845114 1_555
Ga2 O14 1.850115 1_555
Ga2 O18 1.871543 1_555
Ga2 O6 1.873314 1_556
Ga3 O41 1.845123 1_555
Ga3 O15 1.850115 1_555
Ga3 O19 1.871520 1_555
Ga3 O7 1.873331 1_655
B0 O28 1.441503 1_545
B0 O34 1.457876 1_555
B0 O8 1.509168 1_555
B0 O43 1.516208 1_555
B1 O28 1.441503 1_555
B1 O35 1.457876 1_555
B1 O9 1.509168 1_555
B1 O42 1.516208 1_565
B2 O29 1.441503 1_555
B2 O36 1.457876 1_555
B2 O10 1.509168 1_554
B2 O45 1.516208 1_555
B3 O29 1.441503 1_555
B3 O37 1.457876 1_555
B3 O11 1.509168 1_465
B3 O44 1.516208 1_555
B4 O38 1.464662 1_555
B4 O24 1.480465 1_555
B4 O20 1.504072 1_565
B4 O0 1.518047 1_556
B5 O39 1.464662 1_555
B5 O25 1.480444 1_555
B5 O21 1.504072 1_555
B5 O1 1.518057 1_655
B6 O40 1.464662 1_555
B6 O26 1.480441 1_555
B6 O22 1.504072 1_555
B6 O2 1.518056 1_555
B7 O41 1.464662 1_555
B7 O27 1.480463 1_555
B7 O23 1.504072 1_555
B7 O3 1.518041 1_555
B8 O12 1.361914 1_455
B8 O20 1.368572 1_554
B8 O30 1.423375 1_455
B9 O13 1.361914 1_554
B9 O21 1.368572 1_455
B9 O31 1.423375 1_554
B10 O14 1.361914 1_555
B10 O22 1.368578 1_556
B10 O32 1.423375 1_545
B11 O15 1.361914 1_555
B11 O23 1.368571 1_645
B11 O33 1.423375 1_555
B12 O42 1.378063 1_555
B12 O16 1.380402 1_455
B12 O8 1.387172 1_555
B13 O43 1.378063 1_565
B13 O17 1.380402 1_554
B13 O9 1.387172 1_555
B14 O44 1.378063 1_556
B14 O18 1.380402 1_555
B14 O10 1.387172 1_555
B15 O45 1.378063 1_645
B15 O19 1.380402 1_555
B15 O11 1.387172 1_555
B16 O4 1.363242 1_555
B16 O0 1.386064 1_545
B16 O30 1.397676 1_455
B17 O5 1.363241 1_555
B17 O1 1.386068 1_555
B17 O31 1.397670 1_554
B18 O6 1.363242 1_655
B18 O2 1.386063 1_565
B18 O32 1.397677 1_554
B19 O7 1.363249 1_556
B19 O3 1.386066 1_545
B19 O33 1.397681 1_455
H0 O24 0.978324 1_554
H1 O25 0.978332 1_455
H2 O26 0.978332 1_555
H3 O27 0.978330 1_555
H4 O34 0.966499 1_555
H5 O35 0.966499 1_555
H6 O36 0.966499 1_555
H7 O37 0.966499 1_555
