# generated using pymatgen
data_Mg14VCr
_symmetry_space_group_name_H-M   'P 1'
_cell_length_a   6.27513091
_cell_length_b   6.27513116
_cell_length_c   10.06688037
_cell_angle_alpha   90.00000000
_cell_angle_beta   90.00000000
_cell_angle_gamma   120.00016019
_symmetry_Int_Tables_number   1
_chemical_formula_structural   Mg14VCr
_chemical_formula_sum   'Mg14 V1 Cr1'
_cell_volume   343.29733849
_cell_formula_units_Z   1
loop_
 _symmetry_equiv_pos_site_id
 _symmetry_equiv_pos_as_xyz
  1  'x, y, z'
loop_
 _atom_site_type_symbol
 _atom_site_label
 _atom_site_symmetry_multiplicity
 _atom_site_fract_x
 _atom_site_fract_y
 _atom_site_fract_z
 _atom_site_occupancy
  Mg  Mg0  1  0.16756483  0.83378173  0.12500000  1
  Mg  Mg1  1  0.16725725  0.83362795  0.62500000  1
  Mg  Mg2  1  0.66621808  0.33243505  0.12500000  1
  Mg  Mg3  1  0.66637180  0.33274255  0.62500000  1
  Mg  Mg4  1  0.66621782  0.83378212  0.12500000  1
  Mg  Mg5  1  0.66637188  0.83362827  0.62500000  1
  Mg  Mg6  1  0.32833463  0.17166569  0.37487754  1
  Mg  Mg7  1  0.32833463  0.17166569  0.87512246  1
  Mg  Mg8  1  0.32833409  0.65666932  0.37487759  1
  Mg  Mg9  1  0.32833409  0.65666932  0.87512241  1
  Mg  Mg10  1  0.84333077  0.17166598  0.37487747  1
  Mg  Mg11  1  0.84333077  0.17166598  0.87512253  1
  Mg  Mg12  1  0.83333295  0.66666696  0.37477382  1
  Mg  Mg13  1  0.83333295  0.66666696  0.87522618  1
  V  V0  1  0.16666787  0.33333394  0.12500000  1
  Cr  Cr0  1  0.16666556  0.33333253  0.62500000  1
loop_
_geom_bond_atom_site_label_1
_geom_bond_atom_site_label_2
_geom_bond_distance
_geom_bond_site_symmetry_2
Mg0 Mg13 3.101865 1_454
Mg0 Mg12 3.101865 1_455
Mg0 Mg9 3.114790 1_554
Mg0 Mg8 3.114790 1_555
Mg0 Mg7 3.114794 1_564
Mg0 Mg6 3.114794 1_565
Mg0 Mg2 3.129107 1_565
Mg0 Mg4 3.129112 1_555
Mg0 V0 3.137565 1_555
Mg0 V0 3.137574 1_565
Mg0 Mg2 3.146009 1_455
Mg0 Mg4 3.146019 1_455
Mg1 Mg12 3.104580 1_455
Mg1 Mg13 3.104580 1_455
Mg1 Mg8 3.117249 1_555
Mg1 Mg9 3.117249 1_555
Mg1 Mg7 3.117255 1_565
Mg1 Mg6 3.117255 1_565
Mg1 Mg3 3.132002 1_565
Mg1 Mg5 3.132009 1_555
Mg1 Mg3 3.143114 1_455
Mg1 Mg5 3.143122 1_455
Mg2 Mg7 3.114792 1_554
Mg2 Mg6 3.114792 1_555
Mg2 Mg4 3.129112 1_545
Mg2 V0 3.137567 1_555
Mg2 V0 3.137571 1_655
Mg2 Mg4 3.146019 1_555
Mg3 Mg6 3.117253 1_555
Mg3 Mg7 3.117253 1_555
Mg3 Mg5 3.132008 1_545
Mg3 Mg5 3.143123 1_555
Mg4 Mg9 3.114793 1_554
Mg4 Mg8 3.114793 1_555
Mg4 V0 3.137556 1_555
Mg4 V0 3.137568 1_665
Mg5 Mg8 3.117254 1_555
Mg5 Mg9 3.117254 1_555
Mg6 Mg8 3.043463 1_555
Mg6 V0 3.068423 1_555
Mg6 Mg8 3.231668 1_545
Mg7 Mg9 3.043463 1_555
Mg7 V0 3.068423 1_556
Mg7 Mg9 3.231668 1_545
Mg8 V0 3.068422 1_555
Mg9 V0 3.068422 1_556
Mg10 Mg8 3.043452 1_655
Mg10 Mg6 3.043464 1_655
Mg10 V0 3.068426 1_655
Mg10 Mg2 3.114789 1_555
Mg10 Mg4 3.114793 1_545
Mg10 Mg3 3.117251 1_555
Mg10 Mg5 3.117255 1_545
Mg10 Mg12 3.138036 1_555
Mg10 Mg12 3.138037 1_545
Mg10 Mg8 3.231664 1_545
Mg10 Mg6 3.231667 1_555
Mg11 Mg9 3.043452 1_655
Mg11 Mg7 3.043464 1_655
Mg11 V0 3.068426 1_656
Mg11 Mg2 3.114789 1_556
Mg11 Mg4 3.114793 1_546
Mg11 Mg3 3.117251 1_555
Mg11 Mg5 3.117255 1_545
Mg11 Mg13 3.138036 1_555
Mg11 Mg13 3.138037 1_545
Mg11 Mg9 3.231664 1_545
Mg11 Mg7 3.231667 1_555
Mg12 Mg4 3.101863 1_555
Mg12 Mg2 3.101865 1_555
Mg12 Mg5 3.104577 1_555
Mg12 Mg3 3.104581 1_555
Mg12 Mg6 3.138027 1_555
Mg12 Mg6 3.138030 1_665
Mg12 Mg8 3.138036 1_655
Mg12 Mg8 3.138036 1_555
Mg13 Mg4 3.101863 1_556
Mg13 Mg2 3.101865 1_556
Mg13 Mg5 3.104577 1_555
Mg13 Mg3 3.104581 1_555
Mg13 Mg7 3.138027 1_555
Mg13 Mg7 3.138030 1_665
Mg13 Mg9 3.138036 1_655
Mg13 Mg9 3.138036 1_555
Cr0 Mg10 3.070442 1_455
Cr0 Mg11 3.070442 1_455
Cr0 Mg8 3.070447 1_555
Cr0 Mg9 3.070447 1_555
Cr0 Mg7 3.070447 1_555
Cr0 Mg6 3.070447 1_555
Cr0 Mg5 3.137553 1_445
Cr0 Mg3 3.137559 1_455
Cr0 Mg1 3.137565 1_555
Cr0 Mg5 3.137566 1_555
Cr0 Mg1 3.137570 1_545
Cr0 Mg3 3.137575 1_555
