# generated using pymatgen
data_ZnCu2SnS4
_symmetry_space_group_name_H-M   'P 1'
_cell_length_a   6.62697690
_cell_length_b   6.62697690
_cell_length_c   6.62697690
_cell_angle_alpha   131.81608696
_cell_angle_beta   131.81608696
_cell_angle_gamma   70.51965308
_symmetry_Int_Tables_number   1
_chemical_formula_structural   ZnCu2SnS4
_chemical_formula_sum   'Zn1 Cu2 Sn1 S4'
_cell_volume   158.39304176
_cell_formula_units_Z   1
loop_
 _symmetry_equiv_pos_site_id
 _symmetry_equiv_pos_as_xyz
  1  'x, y, z'
loop_
 _atom_site_type_symbol
 _atom_site_label
 _atom_site_symmetry_multiplicity
 _atom_site_fract_x
 _atom_site_fract_y
 _atom_site_fract_z
 _atom_site_occupancy
  Zn  Zn0  1  0.75000000  0.25000000  0.50000000  1
  Cu  Cu0  1  0.00000000  -0.00000000  -0.00000000  1
  Cu  Cu1  1  0.25000000  0.75000000  0.50000000  1
  Sn  Sn0  1  0.50000000  0.50000000  -0.00000000  1
  S  S0  1  0.36432714  0.37124032  0.47758056  1
  S  S1  1  0.89365977  0.88674759  0.52241944  1
  S  S2  1  0.11325241  0.63567286  0.00691218  1
  S  S3  1  0.62875968  0.10634023  0.99308782  1
loop_
_geom_bond_atom_site_label_1
_geom_bond_atom_site_label_2
_geom_bond_distance
_geom_bond_site_symmetry_2
Cu0 S2 2.299501 1_545
Cu0 S0 2.299504 1_555
Cu0 S3 2.299507 1_454
Cu0 S1 2.299507 1_444
Cu1 S1 2.297998 1_455
Cu1 S0 2.297998 1_555
Cu1 S3 2.297998 1_565
Cu1 S2 2.298002 1_555
S0 Zn0 2.341614 1_555
S0 Sn0 2.438025 1_556
S1 Zn0 2.341607 1_565
S1 Sn0 2.438028 1_555
S2 Zn0 2.341611 1_454
S2 Sn0 2.438028 1_555
S3 Zn0 2.341607 1_556
S3 Sn0 2.438028 1_556
