# generated using pymatgen
data_Y3Co2Si3
_symmetry_space_group_name_H-M   'P 1'
_cell_length_a   5.65340229
_cell_length_b   5.65340229
_cell_length_c   13.69262800
_cell_angle_alpha   90.00000000
_cell_angle_beta   90.00000000
_cell_angle_gamma   137.27538669
_symmetry_Int_Tables_number   1
_chemical_formula_structural   Y3Co2Si3
_chemical_formula_sum   'Y6 Co4 Si6'
_cell_volume   296.92081321
_cell_formula_units_Z   2
loop_
 _symmetry_equiv_pos_site_id
 _symmetry_equiv_pos_as_xyz
  1  'x, y, z'
loop_
 _atom_site_type_symbol
 _atom_site_label
 _atom_site_symmetry_multiplicity
 _atom_site_fract_x
 _atom_site_fract_y
 _atom_site_fract_z
 _atom_site_occupancy
  Y  Y0  1  0.63847000  0.36153000  0.25000000  1
  Y  Y1  1  0.36153000  0.63847000  0.75000000  1
  Y  Y2  1  0.92049900  0.07950100  0.11259800  1
  Y  Y3  1  0.07950100  0.92049900  0.88740200  1
  Y  Y4  1  0.07950100  0.92049900  0.61259800  1
  Y  Y5  1  0.92049900  0.07950100  0.38740200  1
  Co  Co0  1  0.78562200  0.21437800  0.58122800  1
  Co  Co1  1  0.21437800  0.78562200  0.41877200  1
  Co  Co2  1  0.21437800  0.78562200  0.08122800  1
  Co  Co3  1  0.78562200  0.21437800  0.91877200  1
  Si  Si0  1  0.33038200  0.66961800  0.25000000  1
  Si  Si1  1  0.66961800  0.33038200  0.75000000  1
  Si  Si2  1  0.62035200  0.37964800  0.03882700  1
  Si  Si3  1  0.37964800  0.62035200  0.96117300  1
  Si  Si4  1  0.37964800  0.62035200  0.53882700  1
  Si  Si5  1  0.62035200  0.37964800  0.46117300  1
loop_
_geom_bond_atom_site_label_1
_geom_bond_atom_site_label_2
_geom_bond_distance
_geom_bond_site_symmetry_2
Co0 Si4 2.357584 1_655
Co0 Si4 2.357584 1_545
Co0 Si5 2.393932 1_555
Co0 Si1 2.613909 1_555
Co0 Y5 3.010110 1_555
Co0 Y4 3.022615 1_545
Co0 Y4 3.022615 1_655
Co0 Y4 3.124208 1_645
Co0 Y1 3.196897 1_655
Co0 Y1 3.196897 1_545
Co1 Si5 2.357584 1_455
Co1 Si5 2.357584 1_565
Co1 Si4 2.393932 1_555
Co1 Si0 2.613909 1_555
Co1 Y4 3.010110 1_555
Co1 Y5 3.022615 1_565
Co1 Y5 3.022615 1_455
Co1 Y5 3.124208 1_465
Co1 Y0 3.196897 1_565
Co1 Y0 3.196897 1_455
Co2 Si2 2.357584 1_455
Co2 Si2 2.357584 1_565
Co2 Si3 2.393932 1_554
Co2 Si0 2.613909 1_555
Co2 Y3 3.010110 1_554
Co2 Y2 3.022615 1_565
Co2 Y2 3.022615 1_455
Co2 Y2 3.124208 1_465
Co2 Y0 3.196897 1_455
Co2 Y0 3.196897 1_565
Co3 Si3 2.357584 1_655
Co3 Si3 2.357584 1_545
Co3 Si2 2.393932 1_556
Co3 Si1 2.613909 1_555
Co3 Y2 3.010110 1_556
Co3 Y3 3.022615 1_545
Co3 Y3 3.022615 1_655
Co3 Y3 3.124208 1_645
Co3 Y1 3.196897 1_655
Co3 Y1 3.196897 1_545
Si0 Y0 2.885238 1_455
Si0 Y0 2.885238 1_565
Si0 Y5 2.946347 1_455
Si0 Y2 2.946347 1_565
Si0 Y2 2.946347 1_455
Si0 Y5 2.946347 1_565
Si0 Y0 3.244160 1_555
Si1 Y1 2.885238 1_545
Si1 Y1 2.885238 1_655
Si1 Y4 2.946347 1_545
Si1 Y3 2.946347 1_545
Si1 Y4 2.946347 1_655
Si1 Y3 2.946347 1_655
Si1 Y1 3.244160 1_555
Si2 Si3 2.748603 1_554
Si2 Y0 2.897800 1_555
Si2 Y3 2.953794 1_544
Si2 Y3 2.953794 1_654
Si2 Y2 3.112859 1_565
Si2 Y2 3.112859 1_455
Si2 Y2 3.318036 1_555
Si3 Y1 2.897800 1_555
Si3 Y2 2.953794 1_566
Si3 Y2 2.953794 1_456
Si3 Y3 3.112859 1_545
Si3 Y3 3.112859 1_655
Si3 Y3 3.318036 1_555
Si4 Si5 2.748603 1_555
Si4 Y1 2.897800 1_555
Si4 Y5 2.953794 1_565
Si4 Y5 2.953794 1_455
Si4 Y4 3.112859 1_655
Si4 Y4 3.112859 1_545
Si4 Y4 3.318036 1_555
Si5 Y0 2.897800 1_555
Si5 Y4 2.953794 1_545
Si5 Y4 2.953794 1_655
Si5 Y5 3.112859 1_455
Si5 Y5 3.112859 1_565
Si5 Y5 3.318036 1_555
