# generated using pymatgen
data_Na4Mg3P4O15
_symmetry_space_group_name_H-M   'P 1'
_cell_length_a   6.59298900
_cell_length_b   10.63309800
_cell_length_c   18.20090000
_cell_angle_alpha   90.00000000
_cell_angle_beta   90.00000000
_cell_angle_gamma   90.00000000
_symmetry_Int_Tables_number   1
_chemical_formula_structural   Na4Mg3P4O15
_chemical_formula_sum   'Na16 Mg12 P16 O60'
_cell_volume   1275.95403984
_cell_formula_units_Z   4
loop_
 _symmetry_equiv_pos_site_id
 _symmetry_equiv_pos_as_xyz
  1  'x, y, z'
loop_
 _atom_site_type_symbol
 _atom_site_label
 _atom_site_symmetry_multiplicity
 _atom_site_fract_x
 _atom_site_fract_y
 _atom_site_fract_z
 _atom_site_occupancy
  Na  Na0  1  0.57005000  0.76442100  0.89318400  1
  Na  Na1  1  0.07005000  0.23557900  0.10681600  1
  Na  Na2  1  0.07005000  0.26442100  0.60681600  1
  Na  Na3  1  0.57005000  0.73557900  0.39318400  1
  Na  Na4  1  0.99043400  0.24830800  0.79377800  1
  Na  Na5  1  0.49043400  0.75169200  0.20622200  1
  Na  Na6  1  0.49043400  0.74830800  0.70622200  1
  Na  Na7  1  0.99043400  0.25169200  0.29377800  1
  Na  Na8  1  0.95792100  0.47514900  0.99226000  1
  Na  Na9  1  0.45792100  0.52485100  0.00774000  1
  Na  Na10  1  0.45792100  0.97514900  0.50774000  1
  Na  Na11  1  0.95792100  0.02485100  0.49226000  1
  Na  Na12  1  0.81388800  0.04115600  0.96130100  1
  Na  Na13  1  0.31388800  0.95884400  0.03869900  1
  Na  Na14  1  0.31388800  0.54115600  0.53869900  1
  Na  Na15  1  0.81388800  0.45884400  0.46130100  1
  Mg  Mg0  1  0.73905700  0.99415400  0.63972700  1
  Mg  Mg1  1  0.23905700  0.00584600  0.36027300  1
  Mg  Mg2  1  0.23905700  0.49415400  0.86027300  1
  Mg  Mg3  1  0.73905700  0.50584600  0.13972700  1
  Mg  Mg4  1  0.47125300  0.24444700  0.73932800  1
  Mg  Mg5  1  0.97125300  0.75555300  0.26067200  1
  Mg  Mg6  1  0.97125300  0.74444700  0.76067200  1
  Mg  Mg7  1  0.47125300  0.25555300  0.23932800  1
  Mg  Mg8  1  0.74984600  0.50520500  0.66666500  1
  Mg  Mg9  1  0.24984600  0.49479500  0.33333500  1
  Mg  Mg10  1  0.24984600  0.00520500  0.83333500  1
  Mg  Mg11  1  0.74984600  0.99479500  0.16666500  1
  P  P0  1  0.73194900  0.48774400  0.81991000  1
  P  P1  1  0.23194900  0.51225600  0.18009000  1
  P  P2  1  0.23194900  0.98774400  0.68009000  1
  P  P3  1  0.73194900  0.01225600  0.31991000  1
  P  P4  1  0.74211000  0.00308200  0.79194000  1
  P  P5  1  0.24211000  0.99691800  0.20806000  1
  P  P6  1  0.24211000  0.50308200  0.70806000  1
  P  P7  1  0.74211000  0.49691800  0.29194000  1
  P  P8  1  0.59968600  0.26389300  0.56919900  1
  P  P9  1  0.09968600  0.73610700  0.43080100  1
  P  P10  1  0.09968600  0.76389300  0.93080100  1
  P  P11  1  0.59968600  0.23610700  0.06919900  1
  P  P12  1  0.28897400  0.27085900  0.44853600  1
  P  P13  1  0.78897400  0.72914100  0.55146400  1
  P  P14  1  0.78897400  0.77085900  0.05146400  1
  P  P15  1  0.28897400  0.22914100  0.94853600  1
  O  O0  1  0.71206700  0.13769800  0.56131400  1
  O  O1  1  0.21206700  0.86230200  0.43868600  1
  O  O2  1  0.21206700  0.63769800  0.93868600  1
  O  O3  1  0.71206700  0.36230200  0.06131400  1
  O  O4  1  0.70251500  0.11416200  0.73659600  1
  O  O5  1  0.20251500  0.88583800  0.26340400  1
  O  O6  1  0.20251500  0.61416200  0.76340400  1
  O  O7  1  0.70251500  0.38583800  0.23659600  1
  O  O8  1  0.56131100  0.97618400  0.84248900  1
  O  O9  1  0.06131100  0.02381600  0.15751100  1
  O  O10  1  0.06131100  0.47618400  0.65751100  1
  O  O11  1  0.56131100  0.52381600  0.34248900  1
  O  O12  1  0.93205700  0.03594700  0.83811000  1
  O  O13  1  0.43205700  0.96405300  0.16189000  1
  O  O14  1  0.43205700  0.53594700  0.66189000  1
  O  O15  1  0.93205700  0.46405300  0.33811000  1
  O  O16  1  0.74679100  0.37259300  0.58407000  1
  O  O17  1  0.24679100  0.62740700  0.41593000  1
  O  O18  1  0.24679100  0.87259300  0.91593000  1
  O  O19  1  0.74679100  0.12740700  0.08407000  1
  O  O20  1  0.75744800  0.60479900  0.76807800  1
  O  O21  1  0.25744800  0.39520100  0.23192200  1
  O  O22  1  0.25744800  0.10479900  0.73192200  1
  O  O23  1  0.75744800  0.89520100  0.26807800  1
  O  O24  1  0.92684200  0.45644400  0.86349600  1
  O  O25  1  0.42684200  0.54355600  0.13650400  1
  O  O26  1  0.42684200  0.95644400  0.63650400  1
  O  O27  1  0.92684200  0.04355600  0.36349600  1
  O  O28  1  0.55163400  0.51238700  0.87209300  1
  O  O29  1  0.05163400  0.48761300  0.12790700  1
  O  O30  1  0.05163400  0.01238700  0.62790700  1
  O  O31  1  0.55163400  0.98761300  0.37209300  1
  O  O32  1  0.27219600  0.38720500  0.76082700  1
  O  O33  1  0.77219600  0.61279500  0.23917300  1
  O  O34  1  0.77219600  0.88720500  0.73917300  1
  O  O35  1  0.27219600  0.11279500  0.26082700  1
  O  O36  1  0.69659600  0.37706000  0.76357200  1
  O  O37  1  0.19659600  0.62294000  0.23642800  1
  O  O38  1  0.19659600  0.87706000  0.73642800  1
  O  O39  1  0.69659600  0.12294000  0.26357200  1
  O  O40  1  0.92653900  0.75856400  0.87572800  1
  O  O41  1  0.42653900  0.24143600  0.12427200  1
  O  O42  1  0.42653900  0.25856400  0.62427200  1
  O  O43  1  0.92653900  0.74143600  0.37572800  1
  O  O44  1  0.51356400  0.29860600  0.48693500  1
  O  O45  1  0.01356400  0.70139400  0.51306500  1
  O  O46  1  0.01356400  0.79860600  0.01306500  1
  O  O47  1  0.51356400  0.20139400  0.98693500  1
  O  O48  1  0.31294800  0.31251300  0.36864500  1
  O  O49  1  0.81294800  0.68748700  0.63135500  1
  O  O50  1  0.81294800  0.81251300  0.13135500  1
  O  O51  1  0.31294800  0.18748700  0.86864500  1
  O  O52  1  0.13897400  0.35112600  0.49150300  1
  O  O53  1  0.63897400  0.64887400  0.50849700  1
  O  O54  1  0.63897400  0.85112600  0.00849700  1
  O  O55  1  0.13897400  0.14887400  0.99150300  1
  O  O56  1  0.25164900  0.12855900  0.45430300  1
  O  O57  1  0.75164900  0.87144100  0.54569700  1
  O  O58  1  0.75164900  0.62855900  0.04569700  1
  O  O59  1  0.25164900  0.37144100  0.95430300  1
loop_
_geom_bond_atom_site_label_1
_geom_bond_atom_site_label_2
_geom_bond_distance
_geom_bond_site_symmetry_2
Na0 O54 2.336971 1_556
Na0 O40 2.372523 1_555
Na0 O8 2.434096 1_555
Na0 O18 2.456941 1_555
Na0 O28 2.709977 1_555
Na0 O2 2.841120 1_555
Na1 O55 2.336971 1_554
Na1 O41 2.372523 1_555
Na1 O9 2.434096 1_555
Na1 O19 2.456941 1_455
Na1 O29 2.709977 1_555
Na1 O3 2.841120 1_455
Na2 O52 2.336971 1_555
Na2 O42 2.372523 1_555
Na2 O10 2.434096 1_555
Na2 O16 2.456941 1_455
Na2 O30 2.709977 1_555
Na2 O0 2.841120 1_455
Na3 O53 2.336971 1_555
Na3 O43 2.372523 1_555
Na3 O11 2.434096 1_555
Na3 O17 2.456941 1_555
Na3 O31 2.709977 1_555
Na3 O1 2.841120 1_555
Na4 O12 2.428581 1_555
Na4 O36 2.435061 1_555
Na4 O32 2.447818 1_655
Na4 O24 2.585326 1_555
Na4 O22 2.587488 1_655
Na4 O4 2.592511 1_555
Na4 O51 2.606978 1_655
Na5 O13 2.428581 1_555
Na5 O37 2.435061 1_555
Na5 O33 2.447818 1_555
Na5 O25 2.585326 1_555
Na5 O23 2.587488 1_555
Na5 O5 2.592511 1_555
Na5 O50 2.606978 1_555
Na6 O14 2.428581 1_555
Na6 O38 2.435061 1_555
Na6 O34 2.447818 1_555
Na6 O26 2.585326 1_555
Na6 O20 2.587488 1_555
Na6 O6 2.592511 1_555
Na6 O49 2.606978 1_555
Na7 O15 2.428581 1_555
Na7 O39 2.435061 1_555
Na7 O35 2.447818 1_655
Na7 O27 2.585326 1_555
Na7 O21 2.587488 1_655
Na7 O7 2.592511 1_555
Na7 O48 2.606978 1_655
Na8 O59 2.333134 1_655
Na8 O58 2.335874 1_556
Na8 O24 2.360954 1_555
Na8 O3 2.376302 1_556
Na8 O29 2.548481 1_656
Na8 O2 2.597258 1_655
Na9 O58 2.333134 1_555
Na9 O59 2.335874 1_554
Na9 O25 2.360954 1_555
Na9 O2 2.376302 1_554
Na9 O28 2.548481 1_554
Na9 O3 2.597258 1_555
Na10 O57 2.333134 1_555
Na10 O56 2.335874 1_565
Na10 O26 2.360954 1_555
Na10 O1 2.376302 1_555
Na10 O31 2.548481 1_555
Na10 O0 2.597258 1_565
Na11 O56 2.333134 1_655
Na11 O57 2.335874 1_545
Na11 O27 2.360954 1_555
Na11 O0 2.376302 1_555
Na11 O30 2.548481 1_655
Na11 O1 2.597258 1_645
Na12 O12 2.374331 1_555
Na12 O19 2.455567 1_556
Na12 O54 2.480048 1_546
Na12 O55 2.491535 1_655
Na12 O47 2.653532 1_555
Na12 O8 2.815428 1_545
Na13 O13 2.374331 1_555
Na13 O18 2.455567 1_554
Na13 O55 2.480048 1_564
Na13 O54 2.491535 1_555
Na13 O46 2.653532 1_555
Na13 O9 2.815428 1_565
Na14 O14 2.374331 1_555
Na14 O17 2.455567 1_555
Na14 O52 2.480048 1_555
Na14 O53 2.491535 1_555
Na14 O45 2.653532 1_555
Na14 O10 2.815428 1_555
Na15 O15 2.374331 1_555
Na15 O16 2.455567 1_555
Na15 O53 2.480048 1_555
Na15 O52 2.491535 1_655
Na15 O44 2.653532 1_555
Na15 O11 2.815428 1_555
Mg0 O30 2.081066 1_665
Mg0 O0 2.097182 1_565
Mg0 O26 2.097941 1_555
Mg0 O34 2.148740 1_555
Mg0 O57 2.153704 1_555
Mg0 O4 2.189725 1_565
Mg1 O31 2.081066 1_545
Mg1 O1 2.097182 1_545
Mg1 O27 2.097941 1_455
Mg1 O35 2.148740 1_555
Mg1 O56 2.153704 1_555
Mg1 O5 2.189725 1_545
Mg2 O28 2.081066 1_555
Mg2 O2 2.097182 1_555
Mg2 O24 2.097941 1_455
Mg2 O32 2.148740 1_555
Mg2 O59 2.153704 1_555
Mg2 O6 2.189725 1_555
Mg3 O29 2.081066 1_655
Mg3 O3 2.097182 1_555
Mg3 O25 2.097941 1_555
Mg3 O33 2.148740 1_555
Mg3 O58 2.153704 1_555
Mg3 O7 2.189725 1_555
Mg4 O32 2.044422 1_555
Mg4 O22 2.051849 1_555
Mg4 O4 2.060668 1_555
Mg4 O36 2.095308 1_555
Mg4 O42 2.120092 1_555
Mg4 O51 2.644991 1_555
Mg5 O33 2.044422 1_555
Mg5 O23 2.051849 1_555
Mg5 O5 2.060668 1_655
Mg5 O37 2.095308 1_655
Mg5 O43 2.120092 1_555
Mg5 O50 2.644991 1_555
Mg6 O34 2.044422 1_555
Mg6 O20 2.051849 1_555
Mg6 O6 2.060668 1_655
Mg6 O38 2.095308 1_655
Mg6 O40 2.120092 1_555
Mg6 O49 2.644991 1_555
Mg7 O35 2.044422 1_555
Mg7 O21 2.051849 1_555
Mg7 O7 2.060668 1_555
Mg7 O39 2.095308 1_555
Mg7 O41 2.120092 1_555
Mg7 O48 2.644991 1_555
Mg8 O16 2.061223 1_555
Mg8 O10 2.083215 1_655
Mg8 O49 2.083943 1_555
Mg8 O14 2.122306 1_555
Mg8 O20 2.128611 1_555
Mg8 O36 2.256290 1_555
Mg9 O17 2.061223 1_555
Mg9 O11 2.083215 1_555
Mg9 O48 2.083943 1_555
Mg9 O15 2.122306 1_455
Mg9 O21 2.128611 1_555
Mg9 O37 2.256290 1_555
Mg10 O18 2.061223 1_545
Mg10 O8 2.083215 1_545
Mg10 O51 2.083943 1_555
Mg10 O12 2.122306 1_455
Mg10 O22 2.128611 1_555
Mg10 O38 2.256290 1_545
Mg11 O19 2.061223 1_565
Mg11 O9 2.083215 1_665
Mg11 O50 2.083943 1_555
Mg11 O13 2.122306 1_555
Mg11 O23 2.128611 1_555
Mg11 O39 2.256290 1_565
O0 P8 1.539517 1_555
O1 P9 1.539517 1_555
O2 P10 1.539517 1_555
O3 P11 1.539517 1_555
O4 P4 1.574127 1_555
O5 P5 1.574127 1_555
O6 P6 1.574127 1_555
O7 P7 1.574127 1_555
O8 P4 1.532693 1_565
O9 P5 1.532693 1_545
O10 P6 1.532693 1_555
O11 P7 1.532693 1_555
O12 P4 1.548091 1_555
O13 P5 1.548091 1_555
O14 P6 1.548091 1_555
O15 P7 1.548091 1_555
O16 P8 1.532908 1_555
O17 P9 1.532908 1_555
O18 P10 1.532908 1_555
O19 P11 1.532908 1_555
O20 P0 1.570801 1_555
O21 P1 1.570801 1_555
O22 P2 1.570801 1_545
O23 P3 1.570801 1_565
O24 P0 1.546330 1_555
O25 P1 1.546330 1_555
O26 P2 1.546330 1_555
O27 P3 1.546330 1_555
O28 P0 1.544027 1_555
O29 P1 1.544027 1_555
O30 P2 1.544027 1_545
O31 P3 1.544027 1_565
O32 P6 1.574762 1_555
O33 P7 1.574762 1_555
O34 P4 1.574762 1_565
O35 P5 1.574762 1_545
O36 P0 1.578260 1_555
O37 P1 1.578260 1_555
O38 P2 1.578260 1_555
O39 P3 1.578260 1_555
O40 P10 1.520238 1_655
O41 P11 1.520238 1_555
O42 P8 1.520238 1_555
O43 P9 1.520238 1_655
O44 P8 1.643314 1_555
O44 P12 1.663741 1_555
O45 P9 1.643314 1_555
O45 P13 1.663741 1_455
O46 P10 1.643314 1_554
O46 P14 1.663741 1_455
O47 P11 1.643314 1_556
O47 P15 1.663741 1_555
O48 P12 1.528243 1_555
O49 P13 1.528243 1_555
O50 P14 1.528243 1_555
O51 P15 1.528243 1_555
O52 P12 1.522512 1_555
O53 P13 1.522512 1_555
O54 P14 1.522512 1_555
O55 P15 1.522512 1_555
O56 P12 1.536560 1_555
O57 P13 1.536560 1_555
O58 P14 1.536560 1_555
O59 P15 1.536560 1_555
