# generated using pymatgen
data_Mg14CrB
_symmetry_space_group_name_H-M   'P 1'
_cell_length_a   6.19462885
_cell_length_b   6.19462837
_cell_length_c   10.03748840
_cell_angle_alpha   90.00000000
_cell_angle_beta   90.00000000
_cell_angle_gamma   120.00000251
_symmetry_Int_Tables_number   1
_chemical_formula_structural   Mg14CrB
_chemical_formula_sum   'Mg14 Cr1 B1'
_cell_volume   333.56941639
_cell_formula_units_Z   1
loop_
 _symmetry_equiv_pos_site_id
 _symmetry_equiv_pos_as_xyz
  1  'x, y, z'
loop_
 _atom_site_type_symbol
 _atom_site_label
 _atom_site_symmetry_multiplicity
 _atom_site_fract_x
 _atom_site_fract_y
 _atom_site_fract_z
 _atom_site_occupancy
  Mg  Mg0  1  0.16924415  0.83462158  0.12500000  1
  Mg  Mg1  1  0.16389954  0.83194927  0.62500000  1
  Mg  Mg2  1  0.66537842  0.33075585  0.12500000  1
  Mg  Mg3  1  0.66805073  0.33610046  0.62500000  1
  Mg  Mg4  1  0.66537842  0.83462158  0.12500000  1
  Mg  Mg5  1  0.66805073  0.83194927  0.62500000  1
  Mg  Mg6  1  0.32712918  0.17287082  0.38078217  1
  Mg  Mg7  1  0.32712918  0.17287082  0.86921783  1
  Mg  Mg8  1  0.32712918  0.65425937  0.38078217  1
  Mg  Mg9  1  0.32712918  0.65425937  0.86921783  1
  Mg  Mg10  1  0.84574063  0.17287082  0.38078217  1
  Mg  Mg11  1  0.84574063  0.17287082  0.86921783  1
  Mg  Mg12  1  0.83333300  0.66666700  0.37247965  1
  Mg  Mg13  1  0.83333300  0.66666700  0.87752035  1
  Cr  Cr0  1  0.16666700  0.33333300  0.12500000  1
  B  B0  1  0.16666700  0.33333300  0.62500000  1
loop_
_geom_bond_atom_site_label_1
_geom_bond_atom_site_label_2
_geom_bond_distance
_geom_bond_site_symmetry_2
Mg0 Mg13 3.068886 1_454
Mg0 Mg12 3.068886 1_455
Mg0 Mg2 3.073367 1_565
Mg0 Mg4 3.073368 1_555
Mg0 Mg2 3.121261 1_455
Mg0 Mg4 3.121261 1_455
Mg0 Mg8 3.144711 1_555
Mg0 Mg9 3.144711 1_554
Mg0 Mg7 3.144717 1_564
Mg0 Mg6 3.144717 1_565
Mg1 Mg9 3.058764 1_555
Mg1 Mg8 3.058764 1_555
Mg1 Mg6 3.058771 1_565
Mg1 Mg7 3.058771 1_565
Mg1 Mg12 3.093456 1_455
Mg1 Mg13 3.093456 1_455
Mg2 Mg4 3.073367 1_545
Mg2 Mg4 3.121261 1_555
Mg2 Mg6 3.144717 1_555
Mg2 Mg7 3.144717 1_554
Mg3 Mg6 3.058771 1_555
Mg3 Mg7 3.058771 1_555
Mg4 Mg8 3.144717 1_555
Mg4 Mg9 3.144717 1_554
Mg5 Mg9 3.058771 1_555
Mg5 Mg8 3.058771 1_555
Mg6 Mg8 2.982023 1_555
Mg6 Mg8 3.212605 1_545
Mg7 Mg9 2.982023 1_555
Mg7 Mg9 3.212605 1_545
Mg10 Mg8 2.982023 1_655
Mg10 Mg6 2.982023 1_655
Mg10 Mg3 3.058764 1_555
Mg10 Mg5 3.058771 1_545
Mg10 Mg12 3.099150 1_555
Mg10 Mg12 3.099150 1_545
Mg10 Mg2 3.144711 1_555
Mg10 Mg4 3.144717 1_545
Mg10 Mg8 3.212605 1_545
Mg10 Mg6 3.212605 1_555
Mg11 Mg9 2.982023 1_655
Mg11 Mg7 2.982023 1_655
Mg11 Mg3 3.058764 1_555
Mg11 Mg5 3.058771 1_545
Mg11 Mg13 3.099150 1_555
Mg11 Mg13 3.099150 1_545
Mg11 Mg2 3.144711 1_556
Mg11 Mg4 3.144717 1_546
Mg11 Mg9 3.212605 1_545
Mg11 Mg7 3.212605 1_555
Mg12 Mg4 3.068880 1_555
Mg12 Mg2 3.068886 1_555
Mg12 Mg5 3.093450 1_555
Mg12 Mg3 3.093456 1_555
Mg12 Mg6 3.099150 1_665
Mg12 Mg6 3.099150 1_555
Mg12 Mg8 3.099150 1_655
Mg12 Mg8 3.099150 1_555
Mg13 Mg4 3.068880 1_556
Mg13 Mg2 3.068886 1_556
Mg13 Mg5 3.093450 1_555
Mg13 Mg3 3.093456 1_555
Mg13 Mg7 3.099150 1_665
Mg13 Mg7 3.099150 1_555
Mg13 Mg9 3.099150 1_655
Mg13 Mg9 3.099150 1_555
Cr0 Mg6 3.091234 1_555
Cr0 Mg7 3.091234 1_554
Cr0 Mg8 3.091240 1_555
Cr0 Mg9 3.091240 1_554
Cr0 Mg10 3.091240 1_455
Cr0 Mg11 3.091240 1_454
Cr0 Mg0 3.097345 1_545
Cr0 Mg4 3.097345 1_555
Cr0 Mg4 3.097345 1_445
Cr0 Mg0 3.097345 1_555
Cr0 Mg2 3.097345 1_555
Cr0 Mg2 3.097345 1_455
B0 Mg6 2.995524 1_555
B0 Mg7 2.995524 1_555
B0 Mg8 2.995530 1_555
B0 Mg9 2.995530 1_555
B0 Mg11 2.995531 1_455
B0 Mg10 2.995531 1_455
