# generated using pymatgen
data_Ta3Mn8Al
_symmetry_space_group_name_H-M   'P 1'
_cell_length_a   4.86383148
_cell_length_b   4.86384816
_cell_length_c   7.80869501
_cell_angle_alpha   89.99950832
_cell_angle_beta   89.99938388
_cell_angle_gamma   119.99912550
_symmetry_Int_Tables_number   1
_chemical_formula_structural   Ta3Mn8Al
_chemical_formula_sum   'Ta3 Mn8 Al1'
_cell_volume   159.98211984
_cell_formula_units_Z   1
loop_
 _symmetry_equiv_pos_site_id
 _symmetry_equiv_pos_as_xyz
  1  'x, y, z'
loop_
 _atom_site_type_symbol
 _atom_site_label
 _atom_site_symmetry_multiplicity
 _atom_site_fract_x
 _atom_site_fract_y
 _atom_site_fract_z
 _atom_site_occupancy
  Ta  Ta0  1  0.00000263  1.00000126  0.56027497  1
  Ta  Ta1  1  0.00000093  0.00000078  0.93878528  1
  Ta  Ta2  1  0.66664794  0.33331728  0.06904883  1
  Mn  Mn0  1  0.33335043  0.66668088  0.49991110  1
  Mn  Mn1  1  0.33334502  0.66667643  0.99536777  1
  Mn  Mn2  1  0.16507453  0.83493033  0.25118433  1
  Mn  Mn3  1  0.16507601  0.33015011  0.25118381  1
  Mn  Mn4  1  0.66986050  0.83493053  0.25118317  1
  Mn  Mn5  1  0.50402557  0.49595792  0.74833051  1
  Mn  Mn6  1  0.50402629  0.00806182  0.74833089  1
  Mn  Mn7  1  0.99192619  0.49595964  0.74833347  1
  Al  Al0  1  0.66666498  0.33333302  0.43805986  1
loop_
_geom_bond_atom_site_label_1
_geom_bond_atom_site_label_2
_geom_bond_distance
_geom_bond_site_symmetry_2
Ta0 Ta1 2.955672 1_565
Ta1 Ta2 2.986648 1_556
Ta1 Ta2 2.986688 1_456
Ta1 Ta2 2.986769 1_446
Mn0 Mn4 2.404454 1_555
Mn0 Mn2 2.404496 1_555
Mn0 Mn3 2.404542 1_555
Mn0 Mn6 2.414714 1_565
Mn0 Mn5 2.414724 1_555
Mn0 Mn7 2.414797 1_455
Mn0 Ta0 2.847393 1_655
Mn0 Ta0 2.847418 1_555
Mn0 Ta0 2.847500 1_545
Mn1 Mn6 2.406021 1_565
Mn1 Mn5 2.406062 1_555
Mn1 Mn7 2.406125 1_455
Mn1 Mn3 2.449423 1_556
Mn1 Mn2 2.449427 1_556
Mn1 Mn4 2.449429 1_556
Mn1 Ta1 2.842653 1_665
Mn1 Ta1 2.842682 1_565
Mn1 Ta1 2.842760 1_555
Mn1 Ta2 2.866406 1_566
Mn1 Ta2 2.866444 1_556
Mn1 Ta2 2.866610 1_456
Mn2 Mn4 2.408638 1_455
Mn2 Mn3 2.408670 1_565
Mn2 Mn3 2.455178 1_555
Mn2 Mn4 2.455193 1_555
Mn2 Ta0 2.785546 1_555
Mn2 Ta1 2.807966 1_564
Mn2 Ta2 2.817221 1_565
Mn2 Ta2 2.817435 1_455
Mn3 Mn4 2.408691 1_445
Mn3 Mn4 2.455213 1_555
Mn3 Ta0 2.785555 1_545
Mn3 Ta1 2.808002 1_554
Mn3 Ta2 2.817233 1_555
Mn3 Ta2 2.817356 1_455
Mn4 Ta0 2.785583 1_655
Mn4 Ta1 2.807936 1_664
Mn4 Ta2 2.817260 1_565
Mn4 Ta2 2.817340 1_555
Mn5 Mn6 2.373054 1_555
Mn5 Mn7 2.373062 1_555
Mn5 Mn7 2.490769 1_455
Mn5 Mn6 2.490794 1_565
Mn5 Ta0 2.841099 1_545
Mn5 Ta0 2.841135 1_655
Mn5 Ta1 2.850783 1_555
Mn5 Ta1 2.850908 1_665
Mn5 Ta2 2.854659 1_556
Mn6 Mn7 2.373093 1_555
Mn6 Mn7 2.490811 1_445
Mn6 Ta0 2.841074 1_545
Mn6 Ta0 2.841101 1_645
Mn6 Ta1 2.850778 1_555
Mn6 Ta1 2.850847 1_655
Mn6 Ta2 2.854669 1_556
Mn7 Ta0 2.841101 1_645
Mn7 Ta0 2.841109 1_655
Mn7 Ta1 2.850783 1_655
Mn7 Ta1 2.850837 1_665
Mn7 Ta2 2.854654 1_556
Al0 Mn5 2.783361 1_555
Al0 Mn6 2.783371 1_555
Al0 Mn7 2.783405 1_555
Al0 Mn3 2.836161 1_655
Al0 Mn4 2.836163 1_555
Al0 Mn3 2.836168 1_555
Al0 Mn2 2.836184 1_655
Al0 Mn4 2.836186 1_545
Al0 Mn2 2.836203 1_545
Al0 Mn0 2.849332 1_545
Al0 Mn0 2.849340 1_555
Al0 Mn0 2.849477 1_655
Al0 Ta2 2.881495 1_555
Al0 Ta0 2.965860 1_545
Al0 Ta0 2.965875 1_645
Al0 Ta0 2.965923 1_655
