# generated using pymatgen
data_Bi2C3(BrN)9
_symmetry_space_group_name_H-M   'P 1'
_cell_length_a   20.64178300
_cell_length_b   7.75470400
_cell_length_c   8.51873034
_cell_angle_alpha   73.99548209
_cell_angle_beta   90.00000000
_cell_angle_gamma   90.00000000
_symmetry_Int_Tables_number   1
_chemical_formula_structural   Bi2C3(BrN)9
_chemical_formula_sum   'Bi4 C6 Br18 N18'
_cell_volume   1310.74774859
_cell_formula_units_Z   2
loop_
 _symmetry_equiv_pos_site_id
 _symmetry_equiv_pos_as_xyz
  1  'x, y, z'
loop_
 _atom_site_type_symbol
 _atom_site_label
 _atom_site_symmetry_multiplicity
 _atom_site_fract_x
 _atom_site_fract_y
 _atom_site_fract_z
 _atom_site_occupancy
  Bi  Bi0  1  0.34468100  0.84548300  0.20892600  1
  Bi  Bi1  1  0.84468100  0.15451700  0.79107400  1
  Bi  Bi2  1  0.65531900  0.15451700  0.79107400  1
  Bi  Bi3  1  0.15531900  0.84548300  0.20892600  1
  C  C0  1  0.58737800  0.69056600  0.37597600  1
  C  C1  1  0.08737800  0.30943400  0.62402400  1
  C  C2  1  0.41262200  0.30943400  0.62402400  1
  C  C3  1  0.91262200  0.69056600  0.37597600  1
  C  C4  1  0.25000000  0.38400800  0.88764900  1
  C  C5  1  0.75000000  0.61599200  0.11235100  1
  Br  Br0  1  0.25000000  0.53475500  0.33738600  1
  Br  Br1  1  0.75000000  0.46524500  0.66261400  1
  Br  Br2  1  0.25000000  0.00750700  0.40690400  1
  Br  Br3  1  0.75000000  0.99249300  0.59309600  1
  Br  Br4  1  0.42230500  0.13521200  0.13373800  1
  Br  Br5  1  0.92230500  0.86478800  0.86626200  1
  Br  Br6  1  0.57769500  0.86478800  0.86626200  1
  Br  Br7  1  0.07769500  0.13521200  0.13373800  1
  Br  Br8  1  0.41340900  0.67709500  0.59708000  1
  Br  Br9  1  0.91340900  0.32290500  0.40292000  1
  Br  Br10  1  0.58659100  0.32290500  0.40292000  1
  Br  Br11  1  0.08659100  0.67709500  0.59708000  1
  Br  Br12  1  0.41751600  0.65487300  0.05828900  1
  Br  Br13  1  0.91751600  0.34512700  0.94171100  1
  Br  Br14  1  0.58248400  0.34512700  0.94171100  1
  Br  Br15  1  0.08248400  0.65487300  0.05828900  1
  Br  Br16  1  0.25000000  0.93280900  0.95350300  1
  Br  Br17  1  0.75000000  0.06719100  0.04649700  1
  N  N0  1  0.57898900  0.56523800  0.28514300  1
  N  N1  1  0.07898900  0.43476200  0.71485700  1
  N  N2  1  0.42101100  0.43476200  0.71485700  1
  N  N3  1  0.92101100  0.56523800  0.28514300  1
  N  N4  1  0.59964800  0.63548400  0.53639400  1
  N  N5  1  0.09964800  0.36451600  0.46360600  1
  N  N6  1  0.40035200  0.36451600  0.46360600  1
  N  N7  1  0.90035200  0.63548400  0.53639400  1
  N  N8  1  0.58230800  0.86215600  0.28779400  1
  N  N9  1  0.08230800  0.13784400  0.71220600  1
  N  N10  1  0.41769200  0.13784400  0.71220600  1
  N  N11  1  0.91769200  0.86215600  0.28779400  1
  N  N12  1  0.25000000  0.51733900  0.71960200  1
  N  N13  1  0.75000000  0.48266100  0.28039800  1
  N  N14  1  0.25000000  0.35510300  0.72729000  1
  N  N15  1  0.75000000  0.64489700  0.27271000  1
  N  N16  1  0.25000000  0.34131500  0.03479300  1
  N  N17  1  0.75000000  0.65868500  0.96520700  1
loop_
_geom_bond_atom_site_label_1
_geom_bond_atom_site_label_2
_geom_bond_distance
_geom_bond_site_symmetry_2
Bi0 Br12 2.671671 1_555
Bi0 Br4 2.689240 1_565
Bi0 Br16 2.863589 1_554
Bi0 Br0 3.060931 1_555
Bi0 Br2 3.067755 1_565
Bi1 Br13 2.671671 1_555
Bi1 Br5 2.689240 1_545
Bi1 Br17 2.863589 1_556
Bi1 Br1 3.060931 1_555
Bi1 Br3 3.067755 1_545
Bi2 Br14 2.671671 1_555
Bi2 Br6 2.689240 1_545
Bi2 Br17 2.863589 1_556
Bi2 Br1 3.060931 1_555
Bi2 Br3 3.067755 1_545
Bi3 Br15 2.671671 1_555
Bi3 Br7 2.689240 1_565
Bi3 Br16 2.863589 1_554
Bi3 Br0 3.060931 1_555
Bi3 Br2 3.067755 1_565
C0 N4 1.338732 1_555
C0 N8 1.339642 1_555
C0 N0 1.409952 1_555
C1 N5 1.338732 1_555
C1 N9 1.339642 1_555
C1 N1 1.409952 1_555
C2 N6 1.338732 1_555
C2 N10 1.339642 1_555
C2 N2 1.409952 1_555
C3 N7 1.338732 1_555
C3 N11 1.339642 1_555
C3 N3 1.409952 1_555
C4 N16 1.204983 1_556
C4 N14 1.444021 1_555
C4 N12 1.517293 1_555
C5 N17 1.204983 1_554
C5 N15 1.444021 1_555
C5 N13 1.517293 1_555
Br8 N2 1.876977 1_555
Br9 N3 1.876977 1_555
Br10 N0 1.876977 1_555
Br11 N1 1.876977 1_555
N12 N14 1.241632 1_555
N13 N15 1.241632 1_555
