# generated using pymatgen
data_Er2NiAs2
_symmetry_space_group_name_H-M   'P 1'
_cell_length_a   4.10292141
_cell_length_b   4.10292141
_cell_length_c   14.03128800
_cell_angle_alpha   90.00000000
_cell_angle_beta   90.00000000
_cell_angle_gamma   119.99999048
_symmetry_Int_Tables_number   1
_chemical_formula_structural   Er2NiAs2
_chemical_formula_sum   'Er4 Ni2 As4'
_cell_volume   204.55712385
_cell_formula_units_Z   2
loop_
 _symmetry_equiv_pos_site_id
 _symmetry_equiv_pos_as_xyz
  1  'x, y, z'
loop_
 _atom_site_type_symbol
 _atom_site_label
 _atom_site_symmetry_multiplicity
 _atom_site_fract_x
 _atom_site_fract_y
 _atom_site_fract_z
 _atom_site_occupancy
  Er  Er0  1  0.66666700  0.33333300  0.61793200  1
  Er  Er1  1  0.33333300  0.66666700  0.11793200  1
  Er  Er2  1  0.66666700  0.33333300  0.35234600  1
  Er  Er3  1  0.33333300  0.66666700  0.85234600  1
  Ni  Ni0  1  0.00000000  0.00000000  0.99838500  1
  Ni  Ni1  1  0.00000000  0.00000000  0.49838500  1
  As  As0  1  0.66666700  0.33333300  0.98263800  1
  As  As1  1  0.33333300  0.66666700  0.48263800  1
  As  As2  1  0.00000000  0.00000000  0.73302900  1
  As  As3  1  0.00000000  0.00000000  0.23302900  1
loop_
_geom_bond_atom_site_label_1
_geom_bond_atom_site_label_2
_geom_bond_distance
_geom_bond_site_symmetry_2
Er0 Ni1 2.902581 1_655
Er0 Ni1 2.902584 1_555
Er0 Ni1 2.902584 1_665
Er1 Ni0 2.902581 1_564
Er1 Ni0 2.902584 1_554
Er1 Ni0 2.902584 1_664
Er2 Ni1 3.132121 1_655
Er2 Ni1 3.132124 1_665
Er2 Ni1 3.132124 1_555
Er3 Ni0 3.132121 1_565
Er3 Ni0 3.132124 1_665
Er3 Ni0 3.132124 1_555
As0 Ni0 2.379103 1_655
As0 Ni0 2.379106 1_665
As0 Ni0 2.379106 1_555
As0 Er3 2.992239 1_545
As0 Er3 2.992239 1_655
As0 Er3 2.992245 1_555
As0 Er1 3.035629 1_546
As0 Er1 3.035629 1_656
As0 Er1 3.035634 1_556
As1 Ni1 2.379103 1_565
As1 Ni1 2.379106 1_555
As1 Ni1 2.379106 1_665
As1 Er2 2.992239 1_455
As1 Er2 2.992239 1_565
As1 Er2 2.992245 1_555
As1 Er0 3.035629 1_455
As1 Er0 3.035629 1_565
As1 Er0 3.035634 1_555
As2 Er0 2.866950 1_455
As2 Er0 2.866953 1_445
As2 Er0 2.866953 1_555
As2 Er3 2.900717 1_545
As2 Er3 2.900720 1_445
As2 Er3 2.900720 1_555
As3 Er1 2.866950 1_545
As3 Er1 2.866953 1_555
As3 Er1 2.866953 1_445
As3 Er2 2.900717 1_455
As3 Er2 2.900720 1_445
As3 Er2 2.900720 1_555
