# generated using pymatgen
data_Li2MgCr3(SO4)6
_symmetry_space_group_name_H-M   'P 1'
_cell_length_a   8.39188200
_cell_length_b   8.45293946
_cell_length_c   8.96089620
_cell_angle_alpha   62.40835361
_cell_angle_beta   63.20777093
_cell_angle_gamma   60.40190752
_symmetry_Int_Tables_number   1
_chemical_formula_structural   Li2MgCr3(SO4)6
_chemical_formula_sum   'Li2 Mg1 Cr3 S6 O24'
_cell_volume   469.08222799
_cell_formula_units_Z   1
loop_
 _symmetry_equiv_pos_site_id
 _symmetry_equiv_pos_as_xyz
  1  'x, y, z'
loop_
 _atom_site_type_symbol
 _atom_site_label
 _atom_site_symmetry_multiplicity
 _atom_site_fract_x
 _atom_site_fract_y
 _atom_site_fract_z
 _atom_site_occupancy
  Li  Li0  1  0.18214500  0.76455600  0.62624900  1
  Li  Li1  1  0.76199200  0.42845800  0.62381000  1
  Mg  Mg0  1  0.16340300  0.15691200  0.53911200  1
  Cr  Cr0  1  0.84616400  0.85273700  0.45086900  1
  Cr  Cr1  1  0.64128300  0.64638600  0.06847100  1
  Cr  Cr2  1  0.35750100  0.34437700  0.93993100  1
  S  S0  1  0.03334300  0.46681000  0.75181500  1
  S  S1  1  0.54317600  0.25556200  0.24922400  1
  S  S2  1  0.25077100  0.94646000  0.25384000  1
  S  S3  1  0.75920900  0.03244900  0.74394600  1
  S  S4  1  0.46267900  0.75466600  0.74599500  1
  S  S5  1  0.94932200  0.54743500  0.25284300  1
  O  O0  1  0.00255600  0.34573700  0.69736400  1
  O  O1  1  0.02272000  0.65916900  0.60876300  1
  O  O2  1  0.35868300  0.28162400  0.38731300  1
  O  O3  1  0.04915000  0.96846000  0.29519600  1
  O  O4  1  0.49120900  0.69545800  0.91765200  1
  O  O5  1  0.22726900  0.38215200  0.76939100  1
  O  O6  1  0.67855600  0.05335300  0.29499400  1
  O  O7  1  0.38256200  0.75283900  0.23403400  1
  O  O8  1  0.29388400  0.09587800  0.09172600  1
  O  O9  1  0.09702200  0.51699500  0.09150600  1
  O  O10  1  0.62911700  0.38551400  0.22893600  1
  O  O11  1  0.27196800  0.95791100  0.40566300  1
  O  O12  1  0.72125100  0.01941700  0.60292700  1
  O  O13  1  0.37981500  0.62908900  0.75410000  1
  O  O14  1  0.88684700  0.49680800  0.91744400  1
  O  O15  1  0.69773100  0.89554300  0.91548800  1
  O  O16  1  0.64592100  0.23082000  0.75230400  1
  O  O17  1  0.33919900  0.95496000  0.69731500  1
  O  O18  1  0.75279300  0.63023400  0.23334600  1
  O  O19  1  0.52150700  0.29823300  0.07832100  1
  O  O20  1  0.96586100  0.99562300  0.70030700  1
  O  O21  1  0.65683700  0.71305700  0.60792100  1
  O  O22  1  0.96099100  0.36535400  0.40417300  1
  O  O23  1  0.96896300  0.68416000  0.29891300  1
loop_
_geom_bond_atom_site_label_1
_geom_bond_atom_site_label_2
_geom_bond_distance
_geom_bond_site_symmetry_2
Li0 O13 1.999279 1_555
Li0 O11 2.006925 1_555
Li0 O1 2.025744 1_555
Li0 O20 2.040242 1_455
Li1 O16 1.969777 1_555
Li1 O22 2.019021 1_555
Li1 O21 2.070094 1_555
Li1 O0 2.092142 1_655
Mg0 O2 2.003936 1_555
Mg0 O17 2.063046 1_545
Mg0 O22 2.091294 1_455
Mg0 O11 2.111147 1_545
Mg0 O0 2.150208 1_555
Mg0 O20 2.223284 1_445
Cr0 O12 1.993066 1_565
Cr0 O6 2.006463 1_565
Cr0 O23 2.007094 1_555
Cr0 O3 2.011037 1_655
Cr0 O21 2.048668 1_555
Cr0 O1 2.055461 1_655
Cr1 O18 2.002607 1_555
Cr1 O4 2.020821 1_554
Cr1 O10 2.023233 1_555
Cr1 O7 2.031637 1_555
Cr1 O14 2.043002 1_554
Cr1 O15 2.065178 1_554
Cr2 O19 2.035815 1_556
Cr2 O5 2.083424 1_555
Cr2 O8 2.086597 1_556
Cr2 O9 2.181895 1_556
Cr2 O13 2.247593 1_555
Cr2 O16 2.266668 1_555
O0 S0 1.479741 1_555
O1 S0 1.524491 1_555
O2 S1 1.471471 1_555
O3 S2 1.490793 1_555
O4 S4 1.474576 1_555
O5 S0 1.470239 1_555
O6 S1 1.494299 1_555
O7 S2 1.495795 1_555
O8 S2 1.454093 1_545
O9 S5 1.451455 1_455
O10 S1 1.496407 1_555
O11 S2 1.499685 1_555
O12 S3 1.495634 1_555
O13 S4 1.492589 1_555
O14 S0 1.474528 1_655
O15 S3 1.481649 1_565
O16 S3 1.482754 1_555
O17 S4 1.456318 1_555
O18 S5 1.498880 1_555
O19 S1 1.477519 1_555
O20 S3 1.491777 1_565
O21 S4 1.526086 1_555
O22 S5 1.501603 1_555
O23 S5 1.491573 1_555
