# generated using pymatgen
data_CeAlCu
_symmetry_space_group_name_H-M   'P 1'
_cell_length_a   7.16573773
_cell_length_b   7.16635197
_cell_length_c   4.10989494
_cell_angle_alpha   90.00000000
_cell_angle_beta   90.00000000
_cell_angle_gamma   119.99842467
_symmetry_Int_Tables_number   1
_chemical_formula_structural   CeAlCu
_chemical_formula_sum   'Ce3 Al3 Cu3'
_cell_volume   182.77941739
_cell_formula_units_Z   3
loop_
 _symmetry_equiv_pos_site_id
 _symmetry_equiv_pos_as_xyz
  1  'x, y, z'
loop_
 _atom_site_type_symbol
 _atom_site_label
 _atom_site_symmetry_multiplicity
 _atom_site_fract_x
 _atom_site_fract_y
 _atom_site_fract_z
 _atom_site_occupancy
  Ce  Ce0  1  0.42478615  0.42474623  0.50000000  1
  Ce  Ce1  1  0.57519773  -0.00002421  0.50000000  1
  Ce  Ce2  1  0.00002798  0.57527081  0.50000000  1
  Al  Al0  1  0.77358381  0.77361638  0.00000000  1
  Al  Al1  1  0.22639359  0.00002135  0.00000000  1
  Al  Al2  1  -0.00001324  0.22643123  -0.00000000  1
  Cu  Cu0  1  0.66672500  0.33333442  -0.00000000  1
  Cu  Cu1  1  0.33330277  0.66665157  -0.00000000  1
  Cu  Cu2  1  -0.00000278  -0.00004677  0.50000000  1
loop_
_geom_bond_atom_site_label_1
_geom_bond_atom_site_label_2
_geom_bond_distance
_geom_bond_site_symmetry_2
Ce0 Cu0 2.965336 1_555
Ce0 Cu0 2.965336 1_556
Ce0 Cu1 2.965507 1_555
Ce0 Cu1 2.965507 1_556
Ce0 Cu2 3.044144 1_555
Ce1 Cu1 2.965300 1_546
Ce1 Cu1 2.965300 1_545
Ce1 Cu0 2.965361 1_555
Ce1 Cu0 2.965361 1_556
Ce1 Cu2 3.044083 1_655
Ce2 Cu1 2.964981 1_555
Ce2 Cu1 2.964981 1_556
Ce2 Cu0 2.965198 1_456
Ce2 Cu0 2.965198 1_455
Ce2 Cu2 3.043534 1_565
Al0 Cu2 2.618113 1_665
Al0 Cu2 2.618113 1_664
Al0 Al1 2.810051 1_665
Al0 Al2 2.810324 1_665
Al0 Cu1 2.850077 1_555
Al0 Cu0 2.850581 1_555
Al0 Ce0 3.236032 1_554
Al0 Ce0 3.236032 1_555
Al0 Ce1 3.343813 1_565
Al0 Ce1 3.343813 1_564
Al0 Ce2 3.344027 1_655
Al0 Ce2 3.344027 1_654
Al1 Cu2 2.617989 1_555
Al1 Cu2 2.617989 1_554
Al1 Al2 2.810148 1_555
Al1 Cu1 2.850358 1_545
Al1 Cu0 2.850438 1_555
Al1 Ce1 3.235865 1_555
Al1 Ce1 3.235865 1_554
Al1 Ce0 3.343841 1_554
Al1 Ce0 3.343841 1_555
Al1 Ce2 3.343967 1_544
Al1 Ce2 3.343967 1_545
Al2 Cu2 2.618612 1_555
Al2 Cu2 2.618612 1_554
Al2 Cu0 2.849422 1_455
Al2 Cu1 2.850024 1_555
Al2 Ce2 3.235986 1_555
Al2 Ce2 3.235986 1_554
Al2 Ce1 3.344001 1_455
Al2 Ce1 3.344001 1_454
Al2 Ce0 3.344044 1_555
Al2 Ce0 3.344044 1_554
