# generated using pymatgen
data_YCrN2
_symmetry_space_group_name_H-M   'P 1'
_cell_length_a   6.50415646
_cell_length_b   11.16668532
_cell_length_c   13.03657005
_cell_angle_alpha   90.00000000
_cell_angle_beta   90.00000000
_cell_angle_gamma   90.00000000
_symmetry_Int_Tables_number   1
_chemical_formula_structural   YCrN2
_chemical_formula_sum   'Y16 Cr16 N32'
_cell_volume   946.84436791
_cell_formula_units_Z   16
loop_
 _symmetry_equiv_pos_site_id
 _symmetry_equiv_pos_as_xyz
  1  'x, y, z'
loop_
 _atom_site_type_symbol
 _atom_site_label
 _atom_site_symmetry_multiplicity
 _atom_site_fract_x
 _atom_site_fract_y
 _atom_site_fract_z
 _atom_site_occupancy
  Y  Y0  1  0.53558894  0.08779184  0.29618312  1
  Y  Y1  1  0.03558894  0.41220816  0.70381688  1
  Y  Y2  1  0.46441106  0.58779184  0.20381688  1
  Y  Y3  1  0.96441106  0.91220816  0.79618312  1
  Y  Y4  1  0.46441106  0.91220816  0.70381688  1
  Y  Y5  1  0.96441106  0.58779184  0.29618312  1
  Y  Y6  1  0.53558894  0.41220816  0.79618312  1
  Y  Y7  1  0.03558894  0.08779184  0.20381688  1
  Y  Y8  1  0.89954301  0.28607672  0.45464889  1
  Y  Y9  1  0.39954301  0.21392328  0.54535111  1
  Y  Y10  1  0.10045699  0.78607672  0.04535111  1
  Y  Y11  1  0.60045699  0.71392328  0.95464889  1
  Y  Y12  1  0.10045699  0.71392328  0.54535111  1
  Y  Y13  1  0.60045699  0.78607672  0.45464889  1
  Y  Y14  1  0.89954301  0.21392328  0.95464889  1
  Y  Y15  1  0.39954301  0.28607672  0.04535111  1
  Cr  Cr0  1  0.15874352  0.95946317  0.46542573  1
  Cr  Cr1  1  0.65874352  0.54053683  0.53457427  1
  Cr  Cr2  1  0.84125648  0.45946317  0.03457427  1
  Cr  Cr3  1  0.34125648  0.04053683  0.96542573  1
  Cr  Cr4  1  0.84125648  0.04053683  0.53457427  1
  Cr  Cr5  1  0.34125648  0.45946317  0.46542573  1
  Cr  Cr6  1  0.15874352  0.54053683  0.96542573  1
  Cr  Cr7  1  0.65874352  0.95946317  0.03457427  1
  Cr  Cr8  1  0.26436667  0.33926275  0.28853994  1
  Cr  Cr9  1  0.76436667  0.16073725  0.71146006  1
  Cr  Cr10  1  0.73563333  0.83926275  0.21146006  1
  Cr  Cr11  1  0.23563333  0.66073725  0.78853994  1
  Cr  Cr12  1  0.73563333  0.66073725  0.71146006  1
  Cr  Cr13  1  0.23563333  0.83926275  0.28853994  1
  Cr  Cr14  1  0.26436667  0.16073725  0.78853994  1
  Cr  Cr15  1  0.76436667  0.33926275  0.21146006  1
  N  N0  1  0.16450494  0.38411243  0.54677104  1
  N  N1  1  0.66450494  0.11588757  0.45322896  1
  N  N2  1  0.83549506  0.88411243  0.95322896  1
  N  N3  1  0.33549506  0.61588757  0.04677104  1
  N  N4  1  0.83549506  0.61588757  0.45322896  1
  N  N5  1  0.33549506  0.88411243  0.54677104  1
  N  N6  1  0.16450494  0.11588757  0.04677104  1
  N  N7  1  0.66450494  0.38411243  0.95322896  1
  N  N8  1  0.58844214  0.38559602  0.48700728  1
  N  N9  1  0.08844214  0.11440398  0.51299272  1
  N  N10  1  0.41155786  0.88559602  0.01299272  1
  N  N11  1  0.91155786  0.61440398  0.98700728  1
  N  N12  1  0.41155786  0.61440398  0.51299272  1
  N  N13  1  0.91155786  0.88559602  0.48700728  1
  N  N14  1  0.58844214  0.11440398  0.98700728  1
  N  N15  1  0.08844214  0.38559602  0.01299272  1
  N  N16  1  0.99672165  0.28140345  0.27617229  1
  N  N17  1  0.49672165  0.21859655  0.72382771  1
  N  N18  1  0.00327835  0.78140345  0.22382771  1
  N  N19  1  0.50327835  0.71859655  0.77617229  1
  N  N20  1  0.00327835  0.71859655  0.72382771  1
  N  N21  1  0.50327835  0.78140345  0.27617229  1
  N  N22  1  0.99672165  0.21859655  0.77617229  1
  N  N23  1  0.49672165  0.28140345  0.22382771  1
  N  N24  1  0.76605890  0.49711577  0.17172522  1
  N  N25  1  0.26605890  0.00288423  0.82827478  1
  N  N26  1  0.23394110  0.99711577  0.32827478  1
  N  N27  1  0.73394110  0.50288423  0.67172522  1
  N  N28  1  0.23394110  0.50288423  0.82827478  1
  N  N29  1  0.73394110  0.99711577  0.17172522  1
  N  N30  1  0.76605890  0.00288423  0.67172522  1
  N  N31  1  0.26605890  0.49711577  0.32827478  1
loop_
_geom_bond_atom_site_label_1
_geom_bond_atom_site_label_2
_geom_bond_distance
_geom_bond_site_symmetry_2
Cr0 N5 1.776005 1_555
Cr0 N13 1.828755 1_455
Cr0 N9 1.893970 1_565
Cr0 N26 1.900753 1_555
Cr1 N4 1.776005 1_555
Cr1 N12 1.828755 1_555
Cr1 N8 1.893970 1_555
Cr1 N27 1.900753 1_555
Cr2 N7 1.776005 1_554
Cr2 N15 1.828755 1_655
Cr2 N11 1.893970 1_554
Cr2 N24 1.900753 1_555
Cr3 N6 1.776005 1_556
Cr3 N14 1.828755 1_555
Cr3 N10 1.893970 1_546
Cr3 N25 1.900753 1_555
Cr4 N1 1.776005 1_555
Cr4 N9 1.828755 1_655
Cr4 N13 1.893970 1_545
Cr4 N30 1.900753 1_555
Cr5 N0 1.776005 1_555
Cr5 N8 1.828755 1_555
Cr5 N12 1.893970 1_555
Cr5 N31 1.900753 1_555
Cr6 N3 1.776005 1_556
Cr6 N11 1.828755 1_455
Cr6 N15 1.893970 1_556
Cr6 N28 1.900753 1_555
Cr7 N2 1.776005 1_554
Cr7 N10 1.828755 1_555
Cr7 N14 1.893970 1_564
Cr7 N29 1.900753 1_555
Cr8 N31 1.837266 1_555
Cr8 N23 1.847455 1_555
Cr8 N16 1.863824 1_455
Cr9 N30 1.837266 1_555
Cr9 N22 1.847455 1_555
Cr9 N17 1.863824 1_555
Cr10 N29 1.837266 1_555
Cr10 N21 1.847455 1_555
Cr10 N18 1.863824 1_655
Cr11 N28 1.837266 1_555
Cr11 N20 1.847455 1_555
Cr11 N19 1.863824 1_555
Cr12 N27 1.837266 1_555
Cr12 N19 1.847455 1_555
Cr12 N20 1.863824 1_655
Cr13 N26 1.837266 1_555
Cr13 N18 1.847455 1_555
Cr13 N21 1.863824 1_555
Cr14 N25 1.837266 1_555
Cr14 N17 1.847455 1_555
Cr14 N22 1.863824 1_455
Cr15 N24 1.837266 1_555
Cr15 N16 1.847455 1_555
Cr15 N23 1.863824 1_555
N0 Y1 2.234523 1_555
N0 Y8 2.368689 1_455
N0 Y9 2.439067 1_555
N1 Y0 2.234523 1_555
N1 Y9 2.368689 1_555
N1 Y8 2.439067 1_555
N2 Y3 2.234523 1_555
N2 Y10 2.368689 1_656
N2 Y11 2.439067 1_555
N3 Y2 2.234523 1_555
N3 Y11 2.368689 1_554
N3 Y10 2.439067 1_555
N4 Y5 2.234523 1_555
N4 Y12 2.368689 1_655
N4 Y13 2.439067 1_555
N5 Y4 2.234523 1_555
N5 Y13 2.368689 1_555
N5 Y12 2.439067 1_555
N6 Y7 2.234523 1_555
N6 Y14 2.368689 1_454
N6 Y15 2.439067 1_555
N7 Y6 2.234523 1_555
N7 Y15 2.368689 1_556
N7 Y14 2.439067 1_555
N8 Y8 2.346761 1_555
N8 Y9 2.400624 1_555
N9 Y9 2.346761 1_555
N9 Y8 2.400624 1_455
N10 Y10 2.346761 1_555
N10 Y11 2.400624 1_554
N11 Y11 2.346761 1_555
N11 Y10 2.400624 1_656
N12 Y12 2.346761 1_555
N12 Y13 2.400624 1_555
N13 Y13 2.346761 1_555
N13 Y12 2.400624 1_655
N14 Y14 2.346761 1_555
N14 Y15 2.400624 1_556
N15 Y15 2.346761 1_555
N15 Y14 2.400624 1_454
N16 Y7 2.372320 1_655
N16 Y8 2.411611 1_555
N17 Y6 2.372320 1_555
N17 Y9 2.411611 1_555
N18 Y5 2.372320 1_455
N18 Y10 2.411611 1_555
N19 Y4 2.372320 1_555
N19 Y11 2.411611 1_555
N20 Y3 2.372320 1_455
N20 Y12 2.411611 1_555
N21 Y2 2.372320 1_555
N21 Y13 2.411611 1_555
N22 Y1 2.372320 1_655
N22 Y14 2.411611 1_555
N23 Y0 2.372320 1_555
N23 Y15 2.411611 1_555
N24 Y2 2.247130 1_555
N24 Y5 2.306983 1_555
N25 Y3 2.247130 1_445
N25 Y4 2.306983 1_545
N26 Y0 2.247130 1_565
N26 Y7 2.306983 1_565
N27 Y1 2.247130 1_655
N27 Y6 2.306983 1_555
N28 Y6 2.247130 1_555
N28 Y1 2.306983 1_555
N29 Y7 2.247130 1_665
N29 Y0 2.306983 1_565
N30 Y4 2.247130 1_545
N30 Y3 2.306983 1_545
N31 Y5 2.247130 1_455
N31 Y2 2.306983 1_555
