# generated using pymatgen
data_Al12W
_symmetry_space_group_name_H-M   'P 1'
_cell_length_a   6.52197870
_cell_length_b   6.52197950
_cell_length_c   6.52197893
_cell_angle_alpha   109.47122505
_cell_angle_beta   109.47121821
_cell_angle_gamma   109.47121747
_symmetry_Int_Tables_number   1
_chemical_formula_structural   Al12W
_chemical_formula_sum   'Al12 W1'
_cell_volume   213.55822991
_cell_formula_units_Z   1
loop_
 _symmetry_equiv_pos_site_id
 _symmetry_equiv_pos_as_xyz
  1  'x, y, z'
loop_
 _atom_site_type_symbol
 _atom_site_label
 _atom_site_symmetry_multiplicity
 _atom_site_fract_x
 _atom_site_fract_y
 _atom_site_fract_z
 _atom_site_occupancy
  Al  Al0  1  0.49450625  0.30760668  0.18689957  1
  Al  Al1  1  0.30760668  0.81310043  0.12070812  1
  Al  Al2  1  0.18689957  0.87929188  0.69239332  1
  Al  Al3  1  0.69239332  0.81310043  0.50549375  1
  Al  Al4  1  0.81310043  0.12070812  0.30760668  1
  Al  Al5  1  0.69239332  0.18689957  0.87929188  1
  Al  Al6  1  0.81310043  0.50549375  0.69239332  1
  Al  Al7  1  0.18689957  0.49450625  0.30760668  1
  Al  Al8  1  0.30760668  0.18689957  0.49450625  1
  Al  Al9  1  0.12070812  0.30760668  0.81310043  1
  Al  Al10  1  0.87929188  0.69239332  0.18689957  1
  Al  Al11  1  0.50549375  0.69239332  0.81310043  1
  W  W0  1  -0.00000000  -0.00000000  -0.00000000  1
loop_
_geom_bond_atom_site_label_1
_geom_bond_atom_site_label_2
_geom_bond_distance
_geom_bond_site_symmetry_2
Al0 W0 2.710647 1_555
Al0 Al4 2.767828 1_555
Al0 Al6 2.767833 1_555
Al0 Al3 2.767833 1_555
Al0 Al5 2.767838 1_554
Al0 Al9 2.815052 1_554
Al0 Al7 2.859013 1_555
Al0 Al8 2.859013 1_555
Al0 Al2 2.859016 1_544
Al0 Al1 2.859016 1_545
Al0 Al10 2.897799 1_555
Al1 W0 2.710649 1_565
Al1 Al7 2.767828 1_555
Al1 Al4 2.767835 1_565
Al1 Al9 2.767836 1_554
Al1 Al11 2.767838 1_554
Al1 Al8 2.815052 1_565
Al1 Al10 2.859016 1_455
Al1 Al6 2.859016 1_454
Al1 Al2 2.859016 1_554
Al1 Al3 2.897798 1_555
Al2 W0 2.710649 1_566
Al2 Al5 2.767835 1_565
Al2 Al8 2.767838 1_565
Al2 Al6 2.815053 1_455
Al2 Al3 2.859016 1_455
Al2 Al9 2.859016 1_565
Al2 Al7 2.897798 1_555
Al3 W0 2.710647 1_666
Al3 Al7 2.767833 1_555
Al3 Al4 2.767838 1_565
Al3 Al5 2.815052 1_565
Al3 Al6 2.859014 1_555
Al3 Al9 2.859016 1_665
Al4 W0 2.710649 1_655
Al4 Al9 2.767835 1_655
Al4 Al7 2.815053 1_655
Al4 Al8 2.859016 1_655
Al4 Al5 2.859016 1_554
Al4 Al6 2.897798 1_555
Al5 W0 2.710649 1_656
Al5 Al6 2.767828 1_555
Al5 Al9 2.859016 1_655
Al5 Al7 2.859016 1_656
Al5 Al8 2.897798 1_555
Al6 W0 2.710648 1_666
Al6 Al8 2.767833 1_555
Al6 Al9 2.767838 1_655
Al7 W0 2.710648 1_555
Al7 Al8 2.859014 1_555
Al7 Al9 2.859016 1_554
Al8 W0 2.710647 1_555
Al8 Al9 2.767828 1_555
Al9 W0 2.710649 1_556
Al10 W0 2.710649 1_665
Al10 Al3 2.767828 1_555
Al10 Al2 2.767835 1_655
Al10 Al5 2.767836 1_554
Al10 Al7 2.767838 1_655
Al10 Al11 2.815052 1_554
Al10 Al6 2.859016 1_554
Al10 Al4 2.859016 1_565
Al10 Al8 2.859016 1_665
Al11 W0 2.710647 1_666
Al11 Al2 2.767828 1_555
Al11 Al7 2.767833 1_555
Al11 Al8 2.767833 1_555
Al11 Al6 2.859013 1_555
Al11 Al3 2.859013 1_555
Al11 Al4 2.859016 1_566
Al11 Al5 2.859016 1_565
Al11 Al9 2.897799 1_555
