# generated using pymatgen
data_VZn(SiO3)2
_symmetry_space_group_name_H-M   'P 1'
_cell_length_a   5.27030100
_cell_length_b   9.03492000
_cell_length_c   18.83906900
_cell_angle_alpha   90.00000000
_cell_angle_beta   90.00000000
_cell_angle_gamma   90.00000000
_symmetry_Int_Tables_number   1
_chemical_formula_structural   VZn(SiO3)2
_chemical_formula_sum   'V8 Zn8 Si16 O48'
_cell_volume   897.05519945
_cell_formula_units_Z   8
loop_
 _symmetry_equiv_pos_site_id
 _symmetry_equiv_pos_as_xyz
  1  'x, y, z'
loop_
 _atom_site_type_symbol
 _atom_site_label
 _atom_site_symmetry_multiplicity
 _atom_site_fract_x
 _atom_site_fract_y
 _atom_site_fract_z
 _atom_site_occupancy
  V  V0  1  0.35026200  0.97759100  0.87761900  1
  V  V1  1  0.64973800  0.02240900  0.12238100  1
  V  V2  1  0.85026200  0.02240900  0.62238100  1
  V  V3  1  0.14973800  0.97759100  0.37761900  1
  V  V4  1  0.35026200  0.47759100  0.62238100  1
  V  V5  1  0.64973800  0.52240900  0.37761900  1
  V  V6  1  0.85026200  0.52240900  0.87761900  1
  V  V7  1  0.14973800  0.47759100  0.12238100  1
  Zn  Zn0  1  0.63344000  0.14843600  0.37676400  1
  Zn  Zn1  1  0.36656000  0.85156400  0.62323600  1
  Zn  Zn2  1  0.63344000  0.64843600  0.12323600  1
  Zn  Zn3  1  0.13344000  0.85156400  0.12323600  1
  Zn  Zn4  1  0.86656000  0.14843600  0.87676400  1
  Zn  Zn5  1  0.36656000  0.35156400  0.87676400  1
  Zn  Zn6  1  0.13344000  0.35156400  0.37676400  1
  Zn  Zn7  1  0.86656000  0.64843600  0.62323600  1
  Si  Si0  1  0.54841100  0.65876300  0.76770700  1
  Si  Si1  1  0.69927900  0.83673900  0.47510500  1
  Si  Si2  1  0.80072100  0.83673900  0.97510500  1
  Si  Si3  1  0.95158900  0.15876300  0.23229300  1
  Si  Si4  1  0.04841100  0.34123700  0.73229300  1
  Si  Si5  1  0.45158900  0.84123700  0.26770700  1
  Si  Si6  1  0.19927900  0.66326100  0.47510500  1
  Si  Si7  1  0.69927900  0.33673900  0.02489500  1
  Si  Si8  1  0.80072100  0.33673900  0.52489500  1
  Si  Si9  1  0.95158900  0.65876300  0.26770700  1
  Si  Si10  1  0.45158900  0.34123700  0.23229300  1
  Si  Si11  1  0.54841100  0.15876300  0.73229300  1
  Si  Si12  1  0.30072100  0.16326100  0.52489500  1
  Si  Si13  1  0.04841100  0.84123700  0.76770700  1
  Si  Si14  1  0.30072100  0.66326100  0.97510500  1
  Si  Si15  1  0.19927900  0.16326100  0.02489500  1
  O  O0  1  0.96348700  0.50194000  0.30813000  1
  O  O1  1  0.30020100  0.01766500  0.06458400  1
  O  O2  1  0.03651300  0.49806000  0.69187000  1
  O  O3  1  0.70163000  0.33907100  0.93807400  1
  O  O4  1  0.20163000  0.16092900  0.93807400  1
  O  O5  1  0.89755500  0.19900600  0.05152400  1
  O  O6  1  0.96672900  0.65670800  0.18119500  1
  O  O7  1  0.03327100  0.84329200  0.68119500  1
  O  O8  1  0.70163000  0.83907100  0.56192600  1
  O  O9  1  0.96672900  0.15670800  0.31880500  1
  O  O10  1  0.46348700  0.49806000  0.19187000  1
  O  O11  1  0.79837000  0.33907100  0.43807400  1
  O  O12  1  0.69979900  0.98233500  0.93541600  1
  O  O13  1  0.46672900  0.84329200  0.18119500  1
  O  O14  1  0.53651300  0.00194000  0.69187000  1
  O  O15  1  0.30020100  0.51766500  0.43541600  1
  O  O16  1  0.46348700  0.99806000  0.30813000  1
  O  O17  1  0.17111000  0.77651800  0.29744600  1
  O  O18  1  0.32889000  0.77651800  0.79744600  1
  O  O19  1  0.60244500  0.69900600  0.94847600  1
  O  O20  1  0.79837000  0.83907100  0.06192600  1
  O  O21  1  0.53327100  0.65670800  0.68119500  1
  O  O22  1  0.80020100  0.48233500  0.06458400  1
  O  O23  1  0.17111000  0.27651800  0.20255400  1
  O  O24  1  0.29837000  0.16092900  0.43807400  1
  O  O25  1  0.53327100  0.15670800  0.81880500  1
  O  O26  1  0.69979900  0.48233500  0.56458400  1
  O  O27  1  0.20163000  0.66092900  0.56192600  1
  O  O28  1  0.19979900  0.51766500  0.93541600  1
  O  O29  1  0.67111000  0.72348200  0.29744600  1
  O  O30  1  0.03651300  0.99806000  0.80813000  1
  O  O31  1  0.82889000  0.72348200  0.79744600  1
  O  O32  1  0.82889000  0.22348200  0.70255400  1
  O  O33  1  0.80020100  0.98233500  0.43541600  1
  O  O34  1  0.29837000  0.66092900  0.06192600  1
  O  O35  1  0.19979900  0.01766500  0.56458400  1
  O  O36  1  0.32889000  0.27651800  0.70255400  1
  O  O37  1  0.10244500  0.80099400  0.94847600  1
  O  O38  1  0.39755500  0.80099400  0.44847600  1
  O  O39  1  0.67111000  0.22348200  0.20255400  1
  O  O40  1  0.39755500  0.30099400  0.05152400  1
  O  O41  1  0.60244500  0.19900600  0.55152400  1
  O  O42  1  0.10244500  0.30099400  0.55152400  1
  O  O43  1  0.46672900  0.34329200  0.31880500  1
  O  O44  1  0.53651300  0.50194000  0.80813000  1
  O  O45  1  0.89755500  0.69900600  0.44847600  1
  O  O46  1  0.03327100  0.34329200  0.81880500  1
  O  O47  1  0.96348700  0.00194000  0.19187000  1
loop_
_geom_bond_atom_site_label_1
_geom_bond_atom_site_label_2
_geom_bond_distance
_geom_bond_site_symmetry_2
O0 Si9 1.609789 1_555
O0 Zn6 2.078467 1_655
O0 V5 2.117120 1_555
O1 Si15 1.603861 1_555
O1 Zn3 2.060454 1_545
O1 V1 2.140324 1_555
O2 Si4 1.609789 1_555
O2 Zn7 2.078467 1_455
O2 V4 2.117120 1_555
O3 Si7 1.635809 1_556
O3 Zn5 2.113124 1_555
O3 V6 2.157441 1_555
O3 Zn4 2.248601 1_555
O4 Si15 1.635809 1_556
O4 Zn4 2.113124 1_455
O4 V0 2.157441 1_545
O4 Zn5 2.248601 1_555
O5 Si15 1.698419 1_655
O5 Si7 1.700643 1_555
O5 V1 2.456312 1_555
O6 Si9 1.631863 1_555
O6 Zn2 2.069596 1_555
O6 V7 2.185605 1_655
O6 Zn3 2.250242 1_655
O7 Si13 1.631863 1_555
O7 Zn1 2.069596 1_555
O7 V2 2.185605 1_465
O7 Zn7 2.250242 1_455
O8 Si1 1.635809 1_555
O8 Zn1 2.113124 1_555
O8 V2 2.157441 1_565
O8 Zn7 2.248601 1_555
O9 Si3 1.631863 1_555
O9 Zn0 2.069596 1_555
O9 V3 2.185605 1_645
O9 Zn6 2.250242 1_655
O10 Si10 1.609789 1_555
O10 Zn2 2.078467 1_555
O10 V7 2.117120 1_555
O11 Si8 1.635809 1_555
O11 Zn6 2.113124 1_655
O11 V5 2.157441 1_555
O11 Zn0 2.248601 1_555
O12 Si2 1.603861 1_555
O12 Zn4 2.060454 1_565
O12 V0 2.140324 1_555
O13 Si5 1.631863 1_555
O13 Zn3 2.069596 1_555
O13 V1 2.185605 1_565
O13 Zn2 2.250242 1_555
O14 Si11 1.609789 1_555
O14 Zn1 2.078467 1_545
O14 V2 2.117120 1_555
O15 Si6 1.603861 1_555
O15 Zn6 2.060454 1_555
O15 V5 2.140324 1_555
O16 Si5 1.609789 1_555
O16 Zn0 2.078467 1_565
O16 V3 2.117120 1_555
O17 Si9 1.668622 1_455
O17 Si5 1.685496 1_555
O17 V3 2.365221 1_555
O18 Si0 1.668622 1_555
O18 Si13 1.685496 1_555
O18 V0 2.365221 1_555
O19 Si14 1.698419 1_555
O19 Si2 1.700643 1_555
O19 V6 2.456312 1_555
O20 Si2 1.635809 1_554
O20 Zn3 2.113124 1_655
O20 V1 2.157441 1_565
O20 Zn2 2.248601 1_555
O21 Si0 1.631863 1_555
O21 Zn7 2.069596 1_555
O21 V4 2.185605 1_555
O21 Zn1 2.250242 1_555
O22 Si7 1.603861 1_555
O22 Zn2 2.060454 1_555
O22 V7 2.140324 1_655
O23 Si3 1.668622 1_455
O23 Si10 1.685496 1_555
O23 V7 2.365221 1_555
O24 Si12 1.635809 1_555
O24 Zn0 2.113124 1_555
O24 V3 2.157441 1_545
O24 Zn6 2.248601 1_555
O25 Si11 1.631863 1_555
O25 Zn4 2.069596 1_555
O25 V0 2.185605 1_545
O25 Zn5 2.250242 1_555
O26 Si8 1.603861 1_555
O26 Zn7 2.060454 1_555
O26 V4 2.140324 1_555
O27 Si6 1.635809 1_555
O27 Zn7 2.113124 1_455
O27 V4 2.157441 1_555
O27 Zn1 2.248601 1_555
O28 Si14 1.603861 1_555
O28 Zn5 2.060454 1_555
O28 V6 2.140324 1_455
O29 Si5 1.668622 1_555
O29 Si9 1.685496 1_555
O29 V5 2.365221 1_555
O30 Si13 1.609789 1_555
O30 Zn4 2.078467 1_465
O30 V0 2.117120 1_555
O31 Si13 1.668622 1_655
O31 Si0 1.685496 1_555
O31 V6 2.365221 1_555
O32 Si4 1.668622 1_655
O32 Si11 1.685496 1_555
O32 V2 2.365221 1_555
O33 Si1 1.603861 1_555
O33 Zn0 2.060454 1_565
O33 V3 2.140324 1_655
O34 Si14 1.635809 1_554
O34 Zn2 2.113124 1_555
O34 V7 2.157441 1_555
O34 Zn3 2.248601 1_555
O35 Si12 1.603861 1_555
O35 Zn1 2.060454 1_545
O35 V2 2.140324 1_455
O36 Si11 1.668622 1_555
O36 Si4 1.685496 1_555
O36 V4 2.365221 1_555
O37 Si2 1.698419 1_455
O37 Si14 1.700643 1_555
O37 V0 2.456312 1_555
O38 Si1 1.698419 1_555
O38 Si6 1.700643 1_555
O38 V3 2.456312 1_555
O39 Si10 1.668622 1_555
O39 Si3 1.685496 1_555
O39 V1 2.365221 1_555
O40 Si7 1.698419 1_555
O40 Si15 1.700643 1_555
O40 V7 2.456312 1_555
O41 Si12 1.698419 1_555
O41 Si8 1.700643 1_555
O41 V2 2.456312 1_555
O42 Si8 1.698419 1_455
O42 Si12 1.700643 1_555
O42 V4 2.456312 1_555
O43 Si10 1.631863 1_555
O43 Zn6 2.069596 1_555
O43 V5 2.185605 1_555
O43 Zn0 2.250242 1_555
O44 Si0 1.609789 1_555
O44 Zn5 2.078467 1_555
O44 V6 2.117120 1_555
O45 Si6 1.698419 1_655
O45 Si1 1.700643 1_555
O45 V5 2.456312 1_555
O46 Si4 1.631863 1_555
O46 Zn5 2.069596 1_555
O46 V6 2.185605 1_455
O46 Zn4 2.250242 1_455
O47 Si3 1.609789 1_555
O47 Zn3 2.078467 1_645
O47 V1 2.117120 1_555
