# generated using pymatgen
data_Lu2B6Rh
_symmetry_space_group_name_H-M   'P 1'
_cell_length_a   3.57448331
_cell_length_b   9.03857848
_cell_length_c   11.35726748
_cell_angle_alpha   90.00000000
_cell_angle_beta   90.00000000
_cell_angle_gamma   90.00000000
_symmetry_Int_Tables_number   1
_chemical_formula_structural   Lu2B6Rh
_chemical_formula_sum   'Lu8 B24 Rh4'
_cell_volume   366.93341347
_cell_formula_units_Z   4
loop_
 _symmetry_equiv_pos_site_id
 _symmetry_equiv_pos_as_xyz
  1  'x, y, z'
loop_
 _atom_site_type_symbol
 _atom_site_label
 _atom_site_symmetry_multiplicity
 _atom_site_fract_x
 _atom_site_fract_y
 _atom_site_fract_z
 _atom_site_occupancy
  Lu  Lu0  1  0.50000000  0.32139653  0.41382075  1
  Lu  Lu1  1  0.50000000  0.67860347  0.58617925  1
  Lu  Lu2  1  0.50000000  0.17860347  0.91382075  1
  Lu  Lu3  1  0.50000000  0.82139653  0.08617925  1
  Lu  Lu4  1  0.50000000  0.44441728  0.12634270  1
  Lu  Lu5  1  0.50000000  0.55558272  0.87365730  1
  Lu  Lu6  1  0.50000000  0.05558272  0.62634270  1
  Lu  Lu7  1  0.50000000  0.94441728  0.37365730  1
  B  B0  1  -0.00000000  0.10822546  0.47049896  1
  B  B1  1  -0.00000000  0.89177454  0.52950104  1
  B  B2  1  -0.00000000  0.39177454  0.97049896  1
  B  B3  1  -0.00000000  0.60822546  0.02950104  1
  B  B4  1  -0.00000000  0.13306128  0.31661918  1
  B  B5  1  -0.00000000  0.86693872  0.68338082  1
  B  B6  1  -0.00000000  0.36693872  0.81661918  1
  B  B7  1  -0.00000000  0.63306128  0.18338082  1
  B  B8  1  0.00000000  0.05341853  0.06517263  1
  B  B9  1  0.00000000  0.94658147  0.93482737  1
  B  B10  1  0.00000000  0.44658147  0.56517263  1
  B  B11  1  0.00000000  0.55341853  0.43482737  1
  B  B12  1  0.00000000  0.48184916  0.28728000  1
  B  B13  1  0.00000000  0.51815084  0.71272000  1
  B  B14  1  -0.00000000  0.01815084  0.78728000  1
  B  B15  1  -0.00000000  0.98184916  0.21272000  1
  B  B16  1  -0.00000000  0.25008939  0.07919466  1
  B  B17  1  0.00000000  0.74991061  0.92080534  1
  B  B18  1  -0.00000000  0.24991061  0.57919466  1
  B  B19  1  -0.00000000  0.75008939  0.42080534  1
  B  B20  1  0.00000000  0.29511955  0.23635716  1
  B  B21  1  -0.00000000  0.70488045  0.76364284  1
  B  B22  1  -0.00000000  0.20488045  0.73635716  1
  B  B23  1  -0.00000000  0.79511955  0.26364284  1
  Rh  Rh0  1  0.50000000  0.13995379  0.17931391  1
  Rh  Rh1  1  0.50000000  0.86004621  0.82068609  1
  Rh  Rh2  1  0.50000000  0.36004621  0.67931391  1
  Rh  Rh3  1  0.50000000  0.63995379  0.32068609  1
loop_
_geom_bond_atom_site_label_1
_geom_bond_atom_site_label_2
_geom_bond_distance
_geom_bond_site_symmetry_2
Lu0 Rh2 3.035446 1_555
Lu0 Rh3 3.067449 1_555
Lu0 Rh0 3.127782 1_555
Lu1 Rh3 3.035446 1_555
Lu1 Rh2 3.067449 1_555
Lu1 Rh1 3.127782 1_555
Lu2 Rh0 3.035446 1_556
Lu2 Rh1 3.067449 1_545
Lu2 Rh2 3.127782 1_555
Lu3 Rh1 3.035446 1_554
Lu3 Rh0 3.067449 1_565
Lu3 Rh3 3.127782 1_555
Lu4 Rh0 2.816910 1_555
Lu4 Rh3 2.827610 1_555
Lu5 Rh1 2.816910 1_555
Lu5 Rh2 2.827610 1_555
Lu6 Rh2 2.816910 1_555
Lu6 Rh1 2.827610 1_545
Lu7 Rh3 2.816910 1_555
Lu7 Rh0 2.827610 1_565
B0 B4 1.762012 1_555
B0 B18 1.778757 1_555
B0 B1 2.067987 1_545
B0 Lu6 2.559959 1_555
B0 Lu6 2.559959 1_455
B0 Lu7 2.568282 1_545
B0 Lu7 2.568282 1_445
B0 Lu0 2.705737 1_555
B0 Lu0 2.705737 1_455
B1 B5 1.762012 1_555
B1 B19 1.778757 1_555
B1 Lu7 2.559959 1_555
B1 Lu7 2.559959 1_455
B1 Lu6 2.568282 1_565
B1 Lu6 2.568282 1_465
B1 Lu1 2.705737 1_455
B1 Lu1 2.705737 1_555
B2 B6 1.762012 1_555
B2 B3 2.067987 1_556
B2 Lu4 2.559959 1_556
B2 Lu4 2.559959 1_456
B2 Lu5 2.568282 1_455
B2 Lu5 2.568282 1_555
B2 Lu2 2.705737 1_455
B2 Lu2 2.705737 1_555
B3 B7 1.762012 1_555
B3 Lu5 2.559959 1_454
B3 Lu5 2.559959 1_554
B3 Lu4 2.568282 1_455
B3 Lu4 2.568282 1_555
B3 Lu3 2.705737 1_455
B3 Lu3 2.705737 1_555
B4 Rh0 2.372737 1_455
B4 Rh0 2.372737 1_555
B4 Lu7 2.553654 1_545
B4 Lu7 2.553654 1_445
B4 Lu0 2.703829 1_555
B4 Lu0 2.703829 1_455
B5 Rh1 2.372737 1_555
B5 Rh1 2.372737 1_455
B5 Lu6 2.553654 1_565
B5 Lu6 2.553654 1_465
B5 Lu1 2.703829 1_455
B5 Lu1 2.703829 1_555
B6 Rh2 2.372737 1_455
B6 Rh2 2.372737 1_555
B6 Lu5 2.553654 1_455
B6 Lu5 2.553654 1_555
B6 Lu2 2.703829 1_555
B6 Lu2 2.703829 1_455
B7 Rh3 2.372737 1_455
B7 Rh3 2.372737 1_555
B7 Lu4 2.553654 1_455
B7 Lu4 2.553654 1_555
B7 Lu3 2.703829 1_555
B7 Lu3 2.703829 1_455
B8 B9 1.767477 1_544
B8 Rh0 2.342324 1_555
B8 Rh0 2.342324 1_455
B8 Lu2 2.725670 1_454
B8 Lu2 2.725670 1_554
B8 Lu3 2.765716 1_545
B8 Lu3 2.765716 1_445
B9 Rh1 2.342324 1_455
B9 Rh1 2.342324 1_555
B9 Lu3 2.725670 1_456
B9 Lu3 2.725670 1_556
B9 Lu2 2.765716 1_465
B9 Lu2 2.765716 1_565
B10 B11 1.767477 1_555
B10 B18 1.784744 1_555
B10 B13 1.796260 1_555
B10 Rh2 2.342324 1_455
B10 Rh2 2.342324 1_555
B10 Lu0 2.725670 1_455
B10 Lu0 2.725670 1_555
B10 Lu1 2.765716 1_455
B10 Lu1 2.765716 1_555
B11 B19 1.784744 1_555
B11 B12 1.796260 1_555
B11 Rh3 2.342324 1_555
B11 Rh3 2.342324 1_455
B11 Lu1 2.725670 1_455
B11 Lu1 2.725670 1_555
B11 Lu0 2.765716 1_555
B11 Lu0 2.765716 1_455
B12 B20 1.784111 1_555
B12 B7 1.805661 1_555
B12 Rh3 2.319555 1_555
B12 Rh3 2.319555 1_455
B12 Lu4 2.578678 1_455
B12 Lu4 2.578678 1_555
B12 Lu0 2.713470 1_455
B12 Lu0 2.713470 1_555
B13 B21 1.784111 1_555
B13 B6 1.805661 1_555
B13 Rh2 2.319555 1_455
B13 Rh2 2.319555 1_555
B13 Lu5 2.578678 1_455
B13 Lu5 2.578678 1_555
B13 Lu1 2.713470 1_455
B13 Lu1 2.713470 1_555
B14 B22 1.784111 1_555
B14 B9 1.796260 1_545
B14 B5 1.805661 1_545
B14 Rh1 2.319555 1_545
B14 Rh1 2.319555 1_445
B14 Lu6 2.578678 1_455
B14 Lu6 2.578678 1_555
B14 Lu2 2.713470 1_555
B14 Lu2 2.713470 1_455
B15 B23 1.784111 1_555
B15 B8 1.796260 1_565
B15 B4 1.805661 1_565
B15 Rh0 2.319555 1_465
B15 Rh0 2.319555 1_565
B15 Lu7 2.578678 1_455
B15 Lu7 2.578678 1_555
B15 Lu3 2.713470 1_455
B15 Lu3 2.713470 1_555
B16 B2 1.778757 1_554
B16 B8 1.784744 1_555
B16 B20 1.830752 1_555
B16 Rh0 2.340544 1_555
B16 Rh0 2.340544 1_455
B16 Lu4 2.562435 1_455
B16 Lu4 2.562435 1_555
B16 Lu2 2.671954 1_554
B16 Lu2 2.671954 1_454
B17 B3 1.778757 1_556
B17 B9 1.784744 1_555
B17 B21 1.830752 1_555
B17 Rh1 2.340544 1_455
B17 Rh1 2.340544 1_555
B17 Lu5 2.562435 1_455
B17 Lu5 2.562435 1_555
B17 Lu3 2.671954 1_556
B17 Lu3 2.671954 1_456
B18 B22 1.830752 1_555
B18 Rh2 2.340544 1_455
B18 Rh2 2.340544 1_555
B18 Lu6 2.562435 1_455
B18 Lu6 2.562435 1_555
B18 Lu0 2.671954 1_455
B18 Lu0 2.671954 1_555
B19 B23 1.830752 1_555
B19 Rh3 2.340544 1_455
B19 Rh3 2.340544 1_555
B19 Lu7 2.562435 1_455
B19 Lu7 2.562435 1_555
B19 Lu1 2.671954 1_455
B19 Lu1 2.671954 1_555
B20 B4 1.725255 1_555
B20 Rh0 2.362392 1_455
B20 Rh0 2.362392 1_555
B20 Lu4 2.564445 1_455
B20 Lu4 2.564445 1_555
B20 Lu0 2.704235 1_555
B20 Lu0 2.704235 1_455
B21 B5 1.725255 1_555
B21 Rh1 2.362392 1_555
B21 Rh1 2.362392 1_455
B21 Lu5 2.564445 1_555
B21 Lu5 2.564445 1_455
B21 Lu1 2.704235 1_455
B21 Lu1 2.704235 1_555
B22 B6 1.725255 1_555
B22 Rh2 2.362392 1_555
B22 Rh2 2.362392 1_455
B22 Lu6 2.564445 1_455
B22 Lu6 2.564445 1_555
B22 Lu2 2.704235 1_455
B22 Lu2 2.704235 1_555
B23 B7 1.725255 1_555
B23 Rh3 2.362392 1_455
B23 Rh3 2.362392 1_555
B23 Lu7 2.564445 1_555
B23 Lu7 2.564445 1_455
B23 Lu3 2.704235 1_555
B23 Lu3 2.704235 1_455
