# generated using pymatgen
data_BaTiMnNbO6
_symmetry_space_group_name_H-M   'P 1'
_cell_length_a   5.65272965
_cell_length_b   5.65274329
_cell_length_c   5.65273564
_cell_angle_alpha   59.99989767
_cell_angle_beta   59.99996826
_cell_angle_gamma   60.00027112
_symmetry_Int_Tables_number   1
_chemical_formula_structural   BaTiMnNbO6
_chemical_formula_sum   'Ba1 Ti1 Mn1 Nb1 O6'
_cell_volume   127.72079286
_cell_formula_units_Z   1
loop_
 _symmetry_equiv_pos_site_id
 _symmetry_equiv_pos_as_xyz
  1  'x, y, z'
loop_
 _atom_site_type_symbol
 _atom_site_label
 _atom_site_symmetry_multiplicity
 _atom_site_fract_x
 _atom_site_fract_y
 _atom_site_fract_z
 _atom_site_occupancy
  Ba  Ba0  1  0.25000003  0.25000007  0.25000003  1
  Ti  Ti0  1  0.50000033  0.50000028  0.49999943  1
  Mn  Mn0  1  0.74999925  0.74999983  0.74999965  1
  Nb  Nb0  1  0.99999983  0.99999983  0.00000023  1
  O  O0  1  0.74731569  0.25268438  0.25268385  1
  O  O1  1  0.25268432  0.74731605  0.74731641  1
  O  O2  1  0.74731639  0.25268414  0.74731584  1
  O  O3  1  0.25268413  0.74731570  0.25268354  1
  O  O4  1  0.74731564  0.74731597  0.25268456  1
  O  O5  1  0.25268440  0.25268375  0.74731645  1
loop_
_geom_bond_atom_site_label_1
_geom_bond_atom_site_label_2
_geom_bond_distance
_geom_bond_site_symmetry_2
Ba0 O0 2.826445 1_555
Ba0 O2 2.826445 1_455
Ba0 O1 2.826446 1_554
Ba0 O5 2.826447 1_554
Ba0 O0 2.826448 1_455
Ba0 O2 2.826448 1_554
Ba0 O1 2.826448 1_545
Ba0 O3 2.826450 1_555
Ba0 O5 2.826452 1_555
Ba0 O3 2.826456 1_545
Ba0 O4 2.826460 1_545
Ba0 O4 2.826462 1_455
Mn0 O1 2.826437 1_555
Mn0 O4 2.826443 1_555
Mn0 O3 2.826444 1_556
Mn0 O0 2.826446 1_556
Mn0 O2 2.826447 1_555
Mn0 O0 2.826448 1_565
Mn0 O3 2.826449 1_655
Mn0 O1 2.826455 1_655
Mn0 O4 2.826456 1_556
Mn0 O5 2.826458 1_565
Mn0 O2 2.826459 1_565
Mn0 O5 2.826465 1_655
Nb0 O4 2.019995 1_555
Nb0 O5 2.019996 1_664
Nb0 O3 2.020001 1_655
Nb0 O2 2.020002 1_564
Nb0 O1 2.020005 1_654
Nb0 O0 2.020007 1_565
O0 Ti0 1.977092 1_555
O1 Ti0 1.977097 1_555
O2 Ti0 1.977091 1_555
O3 Ti0 1.977090 1_555
O4 Ti0 1.977078 1_555
O5 Ti0 1.977084 1_555
