# generated using pymatgen
data_ZnNi(GeO3)2
_symmetry_space_group_name_H-M   'P 1'
_cell_length_a   5.25630801
_cell_length_b   6.71039039
_cell_length_c   6.70956434
_cell_angle_alpha   85.67717153
_cell_angle_beta   80.26548082
_cell_angle_gamma   80.25340605
_symmetry_Int_Tables_number   1
_chemical_formula_structural   ZnNi(GeO3)2
_chemical_formula_sum   'Zn2 Ni2 Ge4 O12'
_cell_volume   229.61833778
_cell_formula_units_Z   2
loop_
 _symmetry_equiv_pos_site_id
 _symmetry_equiv_pos_as_xyz
  1  'x, y, z'
loop_
 _atom_site_type_symbol
 _atom_site_label
 _atom_site_symmetry_multiplicity
 _atom_site_fract_x
 _atom_site_fract_y
 _atom_site_fract_z
 _atom_site_occupancy
  Zn  Zn0  1  0.74987000  0.26272300  0.73696900  1
  Zn  Zn1  1  0.25011300  0.73715300  0.26276300  1
  Ni  Ni0  1  0.24965500  0.09289100  0.90745700  1
  Ni  Ni1  1  0.75012300  0.90736100  0.09302700  1
  Ge  Ge0  1  0.77910200  0.39253500  0.20666600  1
  Ge  Ge1  1  0.72082000  0.79324200  0.60750200  1
  Ge  Ge2  1  0.22074600  0.60747700  0.79320300  1
  Ge  Ge3  1  0.27910600  0.20668100  0.39251700  1
  O  O0  1  0.57746600  0.29288000  0.42546700  1
  O  O1  1  0.92246800  0.57452100  0.70706600  1
  O  O2  1  0.42256000  0.70710000  0.57447900  1
  O  O3  1  0.07746900  0.42542600  0.29290600  1
  O  O4  1  0.11588100  0.13676000  0.62889500  1
  O  O5  1  0.38418700  0.37138300  0.86312700  1
  O  O6  1  0.88439800  0.86319700  0.37132700  1
  O  O7  1  0.61604200  0.62878500  0.13677000  1
  O  O8  1  0.86748200  0.20172200  0.02780100  1
  O  O9  1  0.63237700  0.97198000  0.79830900  1
  O  O10  1  0.13248500  0.79833100  0.97195900  1
  O  O11  1  0.36765100  0.02785100  0.20179100  1
loop_
_geom_bond_atom_site_label_1
_geom_bond_atom_site_label_2
_geom_bond_distance
_geom_bond_site_symmetry_2
Ni0 O8 2.065028 1_456
Ni0 O9 2.068891 1_545
Ni0 O4 2.089440 1_555
Ni0 O5 2.091269 1_555
Ni0 O10 2.160252 1_545
Ni0 O11 2.160514 1_556
Ni1 O11 2.066499 1_565
Ni1 O10 2.067396 1_654
Ni1 O6 2.089043 1_555
Ni1 O7 2.090631 1_555
Ni1 O8 2.159799 1_565
Ni1 O9 2.162184 1_554
Ge0 O7 1.741150 1_555
Ge0 O8 1.771239 1_555
Ge0 O3 1.812857 1_655
Ge0 O0 1.814250 1_555
Ge1 O6 1.741973 1_555
Ge1 O9 1.770623 1_555
Ge1 O2 1.812365 1_555
Ge1 O1 1.813498 1_555
Ge2 O5 1.741129 1_555
Ge2 O10 1.770921 1_555
Ge2 O1 1.812217 1_455
Ge2 O2 1.814287 1_555
Ge3 O4 1.742293 1_555
Ge3 O11 1.770665 1_555
Ge3 O0 1.812898 1_555
Ge3 O3 1.813707 1_555
O0 Zn0 2.396891 1_555
O1 Zn0 2.399757 1_555
O2 Zn1 2.398373 1_555
O3 Zn1 2.399364 1_555
O4 Zn0 2.002895 1_455
O5 Zn0 2.002773 1_555
O6 Zn1 2.002528 1_655
O7 Zn1 2.003068 1_555
O8 Zn0 2.135269 1_554
O9 Zn0 2.134981 1_565
O10 Zn1 2.135213 1_556
O11 Zn1 2.134608 1_545
