# generated using pymatgen
data_Mg4V5(TeO6)3
_symmetry_space_group_name_H-M   'P 1'
_cell_length_a   8.75280513
_cell_length_b   8.75280513
_cell_length_c   10.66941005
_cell_angle_alpha   85.77169731
_cell_angle_beta   85.77169731
_cell_angle_gamma   63.79132181
_symmetry_Int_Tables_number   1
_chemical_formula_structural   Mg4V5(TeO6)3
_chemical_formula_sum   'Mg8 V10 Te6 O36'
_cell_volume   730.59416106
_cell_formula_units_Z   2
loop_
 _symmetry_equiv_pos_site_id
 _symmetry_equiv_pos_as_xyz
  1  'x, y, z'
loop_
 _atom_site_type_symbol
 _atom_site_label
 _atom_site_symmetry_multiplicity
 _atom_site_fract_x
 _atom_site_fract_y
 _atom_site_fract_z
 _atom_site_occupancy
  Mg  Mg0  1  0.35092700  0.06518600  0.07345000  1
  Mg  Mg1  1  0.36623400  0.68268200  0.97366900  1
  Mg  Mg2  1  0.93481400  0.64907300  0.42655000  1
  Mg  Mg3  1  0.31731800  0.63376600  0.52633100  1
  Mg  Mg4  1  0.68268200  0.36623400  0.47366900  1
  Mg  Mg5  1  0.06518600  0.35092700  0.57345000  1
  Mg  Mg6  1  0.64907300  0.93481400  0.92655000  1
  Mg  Mg7  1  0.63376600  0.31731800  0.02633100  1
  V  V0  1  0.30426500  0.99098200  0.73178100  1
  V  V1  1  0.99098200  0.30426500  0.23178100  1
  V  V2  1  0.14406100  0.52653800  0.04995800  1
  V  V3  1  0.52653800  0.14406100  0.54995800  1
  V  V4  1  0.47346200  0.85593900  0.45004200  1
  V  V5  1  0.83201100  0.16798900  0.75000000  1
  V  V6  1  0.16798900  0.83201100  0.25000000  1
  V  V7  1  0.85593900  0.47346200  0.95004200  1
  V  V8  1  0.69573500  0.00901800  0.26821900  1
  V  V9  1  0.00901800  0.69573500  0.76821900  1
  Te  Te0  1  0.65873400  0.65400900  0.69777800  1
  Te  Te1  1  0.00000000  0.00000000  0.00000000  1
  Te  Te2  1  0.00000000  0.00000000  0.50000000  1
  Te  Te3  1  0.65400900  0.65873400  0.19777800  1
  Te  Te4  1  0.34126600  0.34599100  0.30222200  1
  Te  Te5  1  0.34599100  0.34126600  0.80222200  1
  O  O0  1  0.91180300  0.59934200  0.61266800  1
  O  O1  1  0.25199900  0.91173100  0.56854100  1
  O  O2  1  0.38135000  0.77125700  0.33151900  1
  O  O3  1  0.93116600  0.92545700  0.17973500  1
  O  O4  1  0.08826900  0.74800100  0.93145900  1
  O  O5  1  0.07454300  0.06883400  0.32026500  1
  O  O6  1  0.61188100  0.56070200  0.03903800  1
  O  O7  1  0.90553100  0.24400000  0.57541800  1
  O  O8  1  0.09446900  0.75600000  0.42458200  1
  O  O9  1  0.21334700  0.28791600  0.14899800  1
  O  O10  1  0.43092900  0.76999400  0.81167400  1
  O  O11  1  0.78665300  0.71208400  0.85100200  1
  O  O12  1  0.74800100  0.08826900  0.43145900  1
  O  O13  1  0.55179300  0.90134900  0.61952700  1
  O  O14  1  0.23000600  0.56907100  0.68832600  1
  O  O15  1  0.38811900  0.43929800  0.96096200  1
  O  O16  1  0.56907100  0.23000600  0.18832600  1
  O  O17  1  0.09865100  0.44820700  0.88047300  1
  O  O18  1  0.22874300  0.61865000  0.16848100  1
  O  O19  1  0.76999400  0.43092900  0.31167400  1
  O  O20  1  0.59934200  0.91180300  0.11266800  1
  O  O21  1  0.44820700  0.09865100  0.38047300  1
  O  O22  1  0.75600000  0.09446900  0.92458200  1
  O  O23  1  0.56070200  0.61188100  0.53903800  1
  O  O24  1  0.61865000  0.22874300  0.66848100  1
  O  O25  1  0.92545700  0.93116600  0.67973500  1
  O  O26  1  0.28791600  0.21334700  0.64899800  1
  O  O27  1  0.43929800  0.38811900  0.46096200  1
  O  O28  1  0.91173100  0.25199900  0.06854100  1
  O  O29  1  0.90134900  0.55179300  0.11952700  1
  O  O30  1  0.08819700  0.40065800  0.38733200  1
  O  O31  1  0.06883400  0.07454300  0.82026500  1
  O  O32  1  0.24400000  0.90553100  0.07541800  1
  O  O33  1  0.71208400  0.78665300  0.35100200  1
  O  O34  1  0.77125700  0.38135000  0.83151900  1
  O  O35  1  0.40065800  0.08819700  0.88733200  1
loop_
_geom_bond_atom_site_label_1
_geom_bond_atom_site_label_2
_geom_bond_distance
_geom_bond_site_symmetry_2
Mg0 O9 1.978740 1_555
Mg0 O32 1.994285 1_545
Mg0 O35 2.016015 1_554
Mg0 O20 2.044042 1_545
Mg1 O10 1.983726 1_555
Mg1 O15 2.066771 1_555
Mg1 O6 2.081573 1_556
Mg1 O32 2.103695 1_556
Mg1 O4 2.311713 1_555
Mg1 O18 2.477450 1_556
Mg2 O33 1.978740 1_555
Mg2 O8 1.994285 1_655
Mg2 O0 2.016015 1_555
Mg2 O30 2.044042 1_655
Mg3 O14 1.983726 1_555
Mg3 O23 2.066771 1_555
Mg3 O27 2.081573 1_555
Mg3 O8 2.103695 1_555
Mg3 O1 2.311713 1_555
Mg3 O2 2.477450 1_555
Mg4 O19 1.983726 1_555
Mg4 O27 2.066771 1_555
Mg4 O23 2.081573 1_555
Mg4 O7 2.103695 1_555
Mg4 O12 2.311713 1_555
Mg4 O24 2.477450 1_555
Mg5 O26 1.978740 1_555
Mg5 O7 1.994285 1_455
Mg5 O30 2.016015 1_555
Mg5 O0 2.044042 1_455
Mg6 O11 1.978740 1_555
Mg6 O22 1.994285 1_565
Mg6 O20 2.016015 1_556
Mg6 O35 2.044042 1_565
Mg7 O16 1.983726 1_555
Mg7 O6 2.066771 1_555
Mg7 O15 2.081573 1_554
Mg7 O22 2.103695 1_554
Mg7 O28 2.311713 1_555
Mg7 O34 2.477450 1_554
O0 Te0 2.188913 1_555
O0 V9 2.288914 1_655
O1 V0 2.073604 1_555
O1 V4 2.118484 1_555
O1 Te2 2.155486 1_565
O2 V4 1.901301 1_555
O2 V6 1.954735 1_555
O2 Te3 2.516074 1_555
O3 V8 2.038701 1_565
O3 V6 2.041807 1_655
O3 Te1 2.111513 1_665
O4 V9 2.073604 1_555
O4 V2 2.118484 1_556
O4 Te1 2.155486 1_566
O5 V1 2.038701 1_455
O5 V6 2.041807 1_545
O5 Te2 2.111513 1_555
O6 Te3 2.080043 1_555
O6 V7 2.101195 1_554
O7 V5 2.084467 1_555
O7 Te2 2.118450 1_655
O8 V6 2.084467 1_555
O8 Te2 2.118450 1_565
O9 V1 2.026791 1_455
O9 V2 2.120599 1_555
O9 Te4 2.253836 1_555
O10 V0 1.923327 1_555
O10 Te0 2.125971 1_555
O11 V9 2.026791 1_655
O11 V7 2.120599 1_555
O11 Te0 2.253836 1_555
O12 V8 2.073604 1_555
O12 V3 2.118484 1_555
O12 Te2 2.155486 1_655
O13 Te0 2.078188 1_555
O13 V4 2.104169 1_555
O13 V3 2.118917 1_565
O13 V0 2.235733 1_555
O14 V9 1.923327 1_555
O14 Te5 2.125971 1_555
O15 Te5 2.080043 1_555
O15 V2 2.101195 1_556
O16 V8 1.923327 1_555
O16 Te4 2.125971 1_555
O17 Te5 2.078188 1_555
O17 V2 2.104169 1_556
O17 V7 2.118917 1_455
O17 V9 2.235733 1_555
O18 V2 1.901301 1_555
O18 V6 1.954735 1_555
O18 Te4 2.516074 1_555
O19 V1 1.923327 1_555
O19 Te3 2.125971 1_555
O20 Te3 2.188913 1_555
O20 V8 2.288914 1_565
O21 Te4 2.078188 1_555
O21 V3 2.104169 1_555
O21 V4 2.118917 1_545
O21 V8 2.235733 1_555
O22 V5 2.084467 1_555
O22 Te1 2.118450 1_656
O23 Te0 2.080043 1_555
O23 V4 2.101195 1_555
O24 V3 1.901301 1_555
O24 V5 1.954735 1_555
O24 Te5 2.516074 1_555
O25 V9 2.038701 1_655
O25 V5 2.041807 1_565
O25 Te2 2.111513 1_665
O26 V0 2.026791 1_545
O26 V3 2.120599 1_555
O26 Te5 2.253836 1_555
O27 Te4 2.080043 1_555
O27 V3 2.101195 1_555
O28 V1 2.073604 1_555
O28 V7 2.118484 1_554
O28 Te1 2.155486 1_655
O29 Te3 2.078188 1_555
O29 V7 2.104169 1_554
O29 V2 2.118917 1_655
O29 V1 2.235733 1_555
O30 Te4 2.188913 1_555
O30 V1 2.288914 1_455
O31 V0 2.038701 1_545
O31 V5 2.041807 1_455
O31 Te1 2.111513 1_556
O32 V6 2.084467 1_555
O32 Te1 2.118450 1_565
O33 V8 2.026791 1_565
O33 V4 2.120599 1_555
O33 Te3 2.253836 1_555
O34 V7 1.901301 1_555
O34 V5 1.954735 1_555
O34 Te0 2.516074 1_555
O35 Te5 2.188913 1_555
O35 V0 2.288914 1_545
