# generated using pymatgen
data_Li4MnCo2O7
_symmetry_space_group_name_H-M   'P 1'
_cell_length_a   5.11233042
_cell_length_b   5.11233042
_cell_length_c   18.13743494
_cell_angle_alpha   83.23783354
_cell_angle_beta   83.23783354
_cell_angle_gamma   32.72839591
_symmetry_Int_Tables_number   1
_chemical_formula_structural   Li4MnCo2O7
_chemical_formula_sum   'Li8 Mn2 Co4 O14'
_cell_volume   254.35521218
_cell_formula_units_Z   2
loop_
 _symmetry_equiv_pos_site_id
 _symmetry_equiv_pos_as_xyz
  1  'x, y, z'
loop_
 _atom_site_type_symbol
 _atom_site_label
 _atom_site_symmetry_multiplicity
 _atom_site_fract_x
 _atom_site_fract_y
 _atom_site_fract_z
 _atom_site_occupancy
  Li  Li0  1  0.28397000  0.28397000  0.92560200  1
  Li  Li1  1  0.85748900  0.85748900  0.77551000  1
  Li  Li2  1  0.41628500  0.41628500  0.63096200  1
  Li  Li3  1  0.00939800  0.00939800  0.50746000  1
  Li  Li4  1  0.57019700  0.57019700  0.36311900  1
  Li  Li5  1  0.14965500  0.14965500  0.21675900  1
  Li  Li6  1  0.71372900  0.71372900  0.08309500  1
  Li  Li7  1  0.71431900  0.71431900  0.56826600  1
  Mn  Mn0  1  0.99889500  0.99889500  0.00336100  1
  Mn  Mn1  1  0.56847900  0.56847900  0.85278500  1
  Co  Co0  1  0.13718300  0.13718300  0.69713900  1
  Co  Co1  1  0.29049300  0.29049300  0.43943400  1
  Co  Co2  1  0.85680000  0.85680000  0.28812600  1
  Co  Co3  1  0.43525900  0.43525900  0.14883000  1
  O  O0  1  0.36850100  0.36850100  0.03616800  1
  O  O1  1  0.93920900  0.93920900  0.88539300  1
  O  O2  1  0.51435700  0.51435700  0.75645900  1
  O  O3  1  0.06745900  0.06745900  0.61159800  1
  O  O4  1  0.65592500  0.65592500  0.45792300  1
  O  O5  1  0.23438200  0.23438200  0.31755000  1
  O  O6  1  0.79837600  0.79837600  0.18853700  1
  O  O7  1  0.19666400  0.19666400  0.82800700  1
  O  O8  1  0.77255700  0.77255700  0.68112700  1
  O  O9  1  0.36002900  0.36002900  0.52558600  1
  O  O10  1  0.91296000  0.91296000  0.38288000  1
  O  O11  1  0.48247100  0.48247100  0.25676900  1
  O  O12  1  0.07192700  0.07192700  0.11179000  1
  O  O13  1  0.62303300  0.62303300  0.95976600  1
loop_
_geom_bond_atom_site_label_1
_geom_bond_atom_site_label_2
_geom_bond_distance
_geom_bond_site_symmetry_2
Li0 O7 2.058899 1_555
Li0 O1 2.157154 1_545
Li0 O1 2.157154 1_455
Li0 O13 2.170551 1_545
Li0 O13 2.170551 1_455
Li0 O0 2.262180 1_556
Li1 O8 1.993697 1_555
Li1 O2 2.105201 1_655
Li1 O2 2.105201 1_565
Li1 O1 2.237619 1_555
Li1 O7 2.258732 1_655
Li1 O7 2.258732 1_565
Li2 O9 2.053378 1_555
Li2 O3 2.066321 1_565
Li2 O3 2.066321 1_655
Li2 O8 2.139114 1_545
Li2 O8 2.139114 1_455
Li2 O2 2.577647 1_555
Li3 O3 2.038642 1_555
Li3 O9 2.052269 1_545
Li3 O9 2.052269 1_455
Li3 O4 2.152043 1_545
Li3 O4 2.152043 1_455
Li3 O10 2.554490 1_445
Li4 O4 2.004735 1_555
Li4 O10 2.108769 1_545
Li4 O10 2.108769 1_455
Li4 O11 2.206549 1_555
Li4 O5 2.241751 1_655
Li4 O5 2.241751 1_565
Li5 O6 2.069321 1_455
Li5 O6 2.069321 1_545
Li5 O5 2.098994 1_555
Li5 O12 2.136006 1_555
Li5 O11 2.235892 1_455
Li5 O11 2.235892 1_545
Li6 O12 2.025606 1_655
Li6 O12 2.025606 1_565
Li6 O6 2.176432 1_555
Li6 O0 2.188004 1_655
Li6 O0 2.188004 1_565
Li6 O13 2.506747 1_554
Li7 O9 2.108482 1_655
Li7 O9 2.108482 1_565
Li7 O3 2.119009 1_565
Li7 O3 2.119009 1_655
Li7 O4 2.148241 1_555
Li7 O8 2.191741 1_555
Mn0 O0 1.969338 1_565
Mn0 O0 1.969338 1_655
Mn0 O13 1.986619 1_654
Mn0 O13 1.986619 1_564
Mn0 O12 2.174117 1_665
Mn0 O1 2.286572 1_554
Mn1 O2 1.887322 1_555
Mn1 O7 1.928557 1_565
Mn1 O7 1.928557 1_655
Mn1 O1 1.961798 1_455
Mn1 O1 1.961798 1_545
Mn1 O13 2.075168 1_555
Co0 O3 1.770734 1_555
Co0 O8 1.956555 1_545
Co0 O8 1.956555 1_455
Co0 O2 2.089496 1_545
Co0 O2 2.089496 1_455
Co0 O7 2.512865 1_555
Co1 O9 1.780068 1_555
Co1 O4 1.954811 1_545
Co1 O4 1.954811 1_455
Co1 O10 2.065867 1_455
Co1 O10 2.065867 1_545
Co1 O5 2.342804 1_555
Co2 O10 1.868025 1_555
Co2 O5 1.909051 1_655
Co2 O5 1.909051 1_565
Co2 O11 1.935462 1_655
Co2 O11 1.935462 1_565
Co2 O6 1.960945 1_555
Co3 O12 2.025478 1_565
Co3 O12 2.025478 1_655
Co3 O6 2.039428 1_455
Co3 O6 2.039428 1_545
Co3 O11 2.066354 1_555
Co3 O0 2.221008 1_555
