# generated using pymatgen
data_UH16C6Se(NO2)4
_symmetry_space_group_name_H-M   'P 1'
_cell_length_a   15.04325200
_cell_length_b   7.21957500
_cell_length_c   16.17765681
_cell_angle_alpha   66.69176067
_cell_angle_beta   90.00000000
_cell_angle_gamma   90.00000000
_symmetry_Int_Tables_number   1
_chemical_formula_structural   UH16C6Se(NO2)4
_chemical_formula_sum   'U4 H64 C24 Se4 N16 O32'
_cell_volume   1613.60000546
_cell_formula_units_Z   4
loop_
 _symmetry_equiv_pos_site_id
 _symmetry_equiv_pos_as_xyz
  1  'x, y, z'
loop_
 _atom_site_type_symbol
 _atom_site_label
 _atom_site_symmetry_multiplicity
 _atom_site_fract_x
 _atom_site_fract_y
 _atom_site_fract_z
 _atom_site_occupancy
  U  U0  1  0.63627100  0.35525300  0.38752700  1
  U  U1  1  0.86372900  0.35525300  0.88752700  1
  U  U2  1  0.36372900  0.64474700  0.61247300  1
  U  U3  1  0.13627100  0.64474700  0.11247300  1
  H  H0  1  0.92387200  0.20763400  0.22795600  1
  H  H1  1  0.57612800  0.20763400  0.72795600  1
  H  H2  1  0.07612800  0.79236600  0.77204400  1
  H  H3  1  0.42387200  0.79236600  0.27204400  1
  H  H4  1  0.81141300  0.19909400  0.14476800  1
  H  H5  1  0.68858700  0.19909400  0.64476800  1
  H  H6  1  0.18858700  0.80090600  0.85523200  1
  H  H7  1  0.31141300  0.80090600  0.35523200  1
  H  H8  1  0.66886400  0.16121100  0.11006200  1
  H  H9  1  0.83113600  0.16121100  0.61006200  1
  H  H10  1  0.33113600  0.83878900  0.88993800  1
  H  H11  1  0.16886400  0.83878900  0.38993800  1
  H  H12  1  0.62980100  0.27339700  0.18421500  1
  H  H13  1  0.87019900  0.27339700  0.68421500  1
  H  H14  1  0.37019900  0.72660300  0.81578500  1
  H  H15  1  0.12980100  0.72660300  0.31578500  1
  H  H16  1  0.65244300  0.00909900  0.22729900  1
  H  H17  1  0.84755700  0.00909900  0.72729900  1
  H  H18  1  0.34755700  0.99090100  0.77270100  1
  H  H19  1  0.15244300  0.99090100  0.27270100  1
  H  H20  1  0.99830900  0.22409300  0.34860000  1
  H  H21  1  0.50169100  0.22409300  0.84860000  1
  H  H22  1  0.00169100  0.77590700  0.65140000  1
  H  H23  1  0.49830900  0.77590700  0.15140000  1
  H  H24  1  0.91403300  0.05600700  0.41639500  1
  H  H25  1  0.58596700  0.05600700  0.91639500  1
  H  H26  1  0.08596700  0.94399300  0.58360500  1
  H  H27  1  0.41403300  0.94399300  0.08360500  1
  H  H28  1  0.90273500  0.32156800  0.38140800  1
  H  H29  1  0.59726500  0.32156800  0.88140800  1
  H  H30  1  0.09726500  0.67843200  0.61859200  1
  H  H31  1  0.40273500  0.67843200  0.11859200  1
  H  H32  1  0.86662300  0.83432100  0.12595100  1
  H  H33  1  0.63337700  0.83432100  0.62595100  1
  H  H34  1  0.13337700  0.16567900  0.87404900  1
  H  H35  1  0.36662300  0.16567900  0.37404900  1
  H  H36  1  0.93069500  0.78949600  0.25308100  1
  H  H37  1  0.56930500  0.78949600  0.75308100  1
  H  H38  1  0.06930500  0.21050400  0.74691900  1
  H  H39  1  0.43069500  0.21050400  0.24691900  1
  H  H40  1  0.76431400  0.79974400  0.03049000  1
  H  H41  1  0.73568600  0.79974400  0.53049000  1
  H  H42  1  0.23568600  0.20025600  0.96951000  1
  H  H43  1  0.26431400  0.20025600  0.46951000  1
  H  H44  1  0.67964400  0.80329800  0.10743800  1
  H  H45  1  0.82035600  0.80329800  0.60743800  1
  H  H46  1  0.32035600  0.19670200  0.89256200  1
  H  H47  1  0.17964400  0.19670200  0.39256200  1
  H  H48  1  0.72778300  0.56925000  0.11691600  1
  H  H49  1  0.77221700  0.56925000  0.61691600  1
  H  H50  1  0.27221700  0.43075000  0.88308400  1
  H  H51  1  0.22778300  0.43075000  0.38308400  1
  H  H52  1  0.94039200  0.71511100  0.40474000  1
  H  H53  1  0.55960800  0.71511100  0.90474000  1
  H  H54  1  0.05960800  0.28488900  0.59526000  1
  H  H55  1  0.44039200  0.28488900  0.09526000  1
  H  H56  1  0.86052000  0.51844900  0.42772100  1
  H  H57  1  0.63948000  0.51844900  0.92772100  1
  H  H58  1  0.13948000  0.48155100  0.57227900  1
  H  H59  1  0.36052000  0.48155100  0.07227900  1
  H  H60  1  0.82379600  0.76941600  0.40003800  1
  H  H61  1  0.67620400  0.76941600  0.90003800  1
  H  H62  1  0.17620400  0.23058400  0.59996200  1
  H  H63  1  0.32379600  0.23058400  0.09996200  1
  C  C0  1  0.67377000  0.15779600  0.17820200  1
  C  C1  1  0.82623000  0.15779600  0.67820200  1
  C  C2  1  0.32623000  0.84220400  0.82179800  1
  C  C3  1  0.17377000  0.84220400  0.32179800  1
  C  C4  1  0.92670900  0.20290000  0.36095000  1
  C  C5  1  0.57329100  0.20290000  0.86095000  1
  C  C6  1  0.07329100  0.79710000  0.63905000  1
  C  C7  1  0.42670900  0.79710000  0.13905000  1
  C  C8  1  0.74139600  0.72938000  0.10028200  1
  C  C9  1  0.75860400  0.72938000  0.60028200  1
  C  C10  1  0.25860400  0.27062000  0.89971800  1
  C  C11  1  0.24139600  0.27062000  0.39971800  1
  C  C12  1  0.87503800  0.67738100  0.38580100  1
  C  C13  1  0.62496200  0.67738100  0.88580100  1
  C  C14  1  0.12496200  0.32261900  0.61419900  1
  C  C15  1  0.37503800  0.32261900  0.11419900  1
  C  C16  1  0.79621200  0.20042300  0.26998500  1
  C  C17  1  0.70378800  0.20042300  0.76998500  1
  C  C18  1  0.20378800  0.79957700  0.73001500  1
  C  C19  1  0.29621200  0.79957700  0.23001500  1
  C  C20  1  0.80631800  0.68557500  0.24690800  1
  C  C21  1  0.69368200  0.68557500  0.74690800  1
  C  C22  1  0.19368200  0.31442500  0.75309200  1
  C  C23  1  0.30631800  0.31442500  0.25309200  1
  Se  Se0  1  0.53993000  0.82041100  0.43125500  1
  Se  Se1  1  0.96007000  0.82041100  0.93125500  1
  Se  Se2  1  0.46007000  0.17958900  0.56874500  1
  Se  Se3  1  0.03993000  0.17958900  0.06874500  1
  N  N0  1  0.76611400  0.19734200  0.19185000  1
  N  N1  1  0.73388600  0.19734200  0.69185000  1
  N  N2  1  0.23388600  0.80265800  0.80815000  1
  N  N3  1  0.26611400  0.80265800  0.30815000  1
  N  N4  1  0.88498600  0.21711100  0.27798800  1
  N  N5  1  0.61501400  0.21711100  0.77798800  1
  N  N6  1  0.11501400  0.78288900  0.72201200  1
  N  N7  1  0.38498600  0.78288900  0.22201200  1
  N  N8  1  0.81164100  0.75434900  0.15645100  1
  N  N9  1  0.68835900  0.75434900  0.65645100  1
  N  N10  1  0.18835900  0.24565100  0.84354900  1
  N  N11  1  0.31164100  0.24565100  0.34354900  1
  N  N12  1  0.87809300  0.71385200  0.29106000  1
  N  N13  1  0.62190700  0.71385200  0.79106000  1
  N  N14  1  0.12190700  0.28614800  0.70894000  1
  N  N15  1  0.37809300  0.28614800  0.20894000  1
  O  O0  1  0.70311200  0.29503500  0.48824400  1
  O  O1  1  0.79688800  0.29503500  0.98824400  1
  O  O2  1  0.29688800  0.70496500  0.51175600  1
  O  O3  1  0.20311200  0.70496500  0.01175600  1
  O  O4  1  0.56589700  0.40925500  0.29001800  1
  O  O5  1  0.93410300  0.40925500  0.79001800  1
  O  O6  1  0.43410300  0.59074500  0.70998200  1
  O  O7  1  0.06589700  0.59074500  0.20998200  1
  O  O8  1  0.60993100  0.68048700  0.39986900  1
  O  O9  1  0.89006900  0.68048700  0.89986900  1
  O  O10  1  0.39006900  0.31951300  0.60013100  1
  O  O11  1  0.10993100  0.31951300  0.10013100  1
  O  O12  1  0.50062500  0.32212900  0.46593900  1
  O  O13  1  0.99937500  0.32212900  0.96593900  1
  O  O14  1  0.49937500  0.67787100  0.53406100  1
  O  O15  1  0.00062500  0.67787100  0.03406100  1
  O  O16  1  0.60028900  0.00032300  0.44680000  1
  O  O17  1  0.89971100  0.00032300  0.94680000  1
  O  O18  1  0.39971100  0.99967700  0.55320000  1
  O  O19  1  0.10028900  0.99967700  0.05320000  1
  O  O20  1  0.74349400  0.18671100  0.33379200  1
  O  O21  1  0.75650600  0.18671100  0.83379200  1
  O  O22  1  0.25650600  0.81328900  0.66620800  1
  O  O23  1  0.24349400  0.81328900  0.16620800  1
  O  O24  1  0.73663300  0.59883000  0.28922800  1
  O  O25  1  0.76336700  0.59883000  0.78922800  1
  O  O26  1  0.26336700  0.40117000  0.71077200  1
  O  O27  1  0.23663300  0.40117000  0.21077200  1
  O  O28  1  0.45995400  0.91744200  0.35544600  1
  O  O29  1  0.04004600  0.91744200  0.85544600  1
  O  O30  1  0.54004600  0.08255800  0.64455400  1
  O  O31  1  0.95995400  0.08255800  0.14455400  1
loop_
_geom_bond_atom_site_label_1
_geom_bond_atom_site_label_2
_geom_bond_distance
_geom_bond_site_symmetry_2
H0 N4 1.022657 1_555
H1 N5 1.022657 1_555
H2 N6 1.022657 1_555
H3 N7 1.022657 1_555
H4 N0 1.018358 1_555
H5 N1 1.018358 1_555
H6 N2 1.018358 1_555
H7 N3 1.018358 1_555
H32 N8 1.017583 1_555
H33 N9 1.017583 1_555
H34 N10 1.017583 1_555
H35 N11 1.017583 1_555
H36 N12 1.018026 1_555
H37 N13 1.018026 1_555
H38 N14 1.018026 1_555
H39 N15 1.018026 1_555
C0 H8 1.095314 1_555
C0 H12 1.098976 1_555
C0 H16 1.100680 1_555
C0 N0 1.452548 1_555
C1 H9 1.095314 1_555
C1 H13 1.098976 1_555
C1 H17 1.100680 1_555
C1 N1 1.452548 1_555
C2 H10 1.095314 1_555
C2 H14 1.098976 1_555
C2 H18 1.100680 1_555
C2 N2 1.452548 1_555
C3 H11 1.095314 1_555
C3 H15 1.098976 1_555
C3 H19 1.100680 1_555
C3 N3 1.452548 1_555
C4 H28 1.094522 1_555
C4 H20 1.095114 1_555
C4 H24 1.101280 1_555
C4 N4 1.448039 1_555
C5 H29 1.094522 1_555
C5 H21 1.095114 1_555
C5 H25 1.101280 1_555
C5 N5 1.448039 1_555
C6 H30 1.094522 1_555
C6 H22 1.095114 1_555
C6 H26 1.101280 1_555
C6 N6 1.448039 1_555
C7 H31 1.094522 1_555
C7 H23 1.095114 1_555
C7 H27 1.101280 1_555
C7 N7 1.448039 1_555
C8 H40 1.094454 1_555
C8 H48 1.097571 1_555
C8 H44 1.100014 1_555
C8 N8 1.450679 1_555
C9 H41 1.094454 1_555
C9 H49 1.097571 1_555
C9 H45 1.100014 1_555
C9 N9 1.450679 1_555
C10 H42 1.094454 1_555
C10 H50 1.097571 1_555
C10 H46 1.100014 1_555
C10 N10 1.450679 1_555
C11 H43 1.094454 1_555
C11 H51 1.097571 1_555
C11 H47 1.100014 1_555
C11 N11 1.450679 1_555
C12 H52 1.095754 1_555
C12 H56 1.099271 1_555
C12 H60 1.099935 1_555
C12 N12 1.449555 1_555
C13 H53 1.095754 1_555
C13 H57 1.099271 1_555
C13 H61 1.099935 1_555
C13 N13 1.449555 1_555
C14 H54 1.095754 1_555
C14 H58 1.099271 1_555
C14 H62 1.099935 1_555
C14 N14 1.449555 1_555
C15 H55 1.095754 1_555
C15 H59 1.099271 1_555
C15 H63 1.099935 1_555
C15 N15 1.449555 1_555
C16 O20 1.274126 1_555
C16 N0 1.351128 1_555
C16 N4 1.351683 1_555
C17 O21 1.274126 1_555
C17 N1 1.351128 1_555
C17 N5 1.351683 1_555
C18 O22 1.274126 1_555
C18 N2 1.351128 1_555
C18 N6 1.351683 1_555
C19 O23 1.274126 1_555
C19 N3 1.351128 1_555
C19 N7 1.351683 1_555
C20 O24 1.273004 1_555
C20 N8 1.348864 1_555
C20 N12 1.353911 1_555
C21 O25 1.273004 1_555
C21 N9 1.348864 1_555
C21 N13 1.353911 1_555
C22 O26 1.273004 1_555
C22 N10 1.348864 1_555
C22 N14 1.353911 1_555
C23 O27 1.273004 1_555
C23 N11 1.348864 1_555
C23 N15 1.353911 1_555
O0 U0 1.815024 1_555
O1 U1 1.815024 1_555
O2 U2 1.815024 1_555
O3 U3 1.815024 1_555
O4 U0 1.809547 1_555
O5 U1 1.809547 1_555
O6 U2 1.809547 1_555
O7 U3 1.809547 1_555
O8 Se0 1.671259 1_555
O8 U0 2.466013 1_555
O9 Se1 1.671259 1_555
O9 U1 2.466013 1_555
O10 Se2 1.671259 1_555
O10 U2 2.466013 1_555
O11 Se3 1.671259 1_555
O11 U3 2.466013 1_555
O12 Se2 1.686084 1_555
O12 U0 2.364349 1_555
O13 Se3 1.686084 1_656
O13 U1 2.364349 1_555
O14 Se0 1.686084 1_555
O14 U2 2.364349 1_555
O15 Se1 1.686084 1_454
O15 U3 2.364349 1_555
O16 Se0 1.683242 1_545
O16 U0 2.415396 1_555
O17 Se1 1.683242 1_545
O17 U1 2.415396 1_555
O18 Se2 1.683242 1_565
O18 U2 2.415396 1_555
O19 Se3 1.683242 1_565
O19 U3 2.415396 1_555
O20 U0 2.382244 1_555
O21 U1 2.382244 1_555
O22 U2 2.382244 1_555
O23 U3 2.382244 1_555
O24 U0 2.384886 1_555
O25 U1 2.384886 1_555
O26 U2 2.384886 1_555
O27 U3 2.384886 1_555
O28 Se0 1.662044 1_555
O29 Se1 1.662044 1_455
O30 Se2 1.662044 1_555
O31 Se3 1.662044 1_655
