# generated using pymatgen
data_V2NiP
_symmetry_space_group_name_H-M   'P 1'
_cell_length_a   3.53910100
_cell_length_b   3.53910100
_cell_length_c   3.82807400
_cell_angle_alpha   90.00000000
_cell_angle_beta   90.00000000
_cell_angle_gamma   90.00000000
_symmetry_Int_Tables_number   1
_chemical_formula_structural   V2NiP
_chemical_formula_sum   'V2 Ni1 P1'
_cell_volume   47.94752985
_cell_formula_units_Z   1
loop_
 _symmetry_equiv_pos_site_id
 _symmetry_equiv_pos_as_xyz
  1  'x, y, z'
loop_
 _atom_site_type_symbol
 _atom_site_label
 _atom_site_symmetry_multiplicity
 _atom_site_fract_x
 _atom_site_fract_y
 _atom_site_fract_z
 _atom_site_occupancy
  V  V0  1  0.50000000  0.00000000  0.50000000  1
  V  V1  1  0.00000000  0.50000000  0.50000000  1
  Ni  Ni0  1  0.50000000  0.50000000  0.00000000  1
  P  P0  1  0.00000000  0.00000000  0.00000000  1
loop_
_geom_bond_atom_site_label_1
_geom_bond_atom_site_label_2
_geom_bond_distance
_geom_bond_site_symmetry_2
V0 V1 2.502522 1_655
V0 V1 2.502522 1_645
V0 V1 2.502522 1_545
V0 V1 2.502522 1_555
Ni0 P0 2.502522 1_565
Ni0 P0 2.502522 1_665
Ni0 P0 2.502522 1_555
Ni0 P0 2.502522 1_655
Ni0 V1 2.606693 1_654
Ni0 V0 2.606693 1_565
Ni0 V0 2.606693 1_555
Ni0 V1 2.606693 1_554
Ni0 V1 2.606693 1_655
Ni0 V0 2.606693 1_564
Ni0 V0 2.606693 1_554
Ni0 V1 2.606693 1_555
P0 V0 2.606693 1_454
P0 V1 2.606693 1_545
P0 V0 2.606693 1_555
P0 V1 2.606693 1_554
P0 V0 2.606693 1_455
P0 V0 2.606693 1_554
P0 V1 2.606693 1_544
P0 V1 2.606693 1_555
