# generated using pymatgen
data_Cu(ClO)2
_symmetry_space_group_name_H-M   'P 1'
_cell_length_a   4.12806100
_cell_length_b   6.89622800
_cell_length_c   7.00060500
_cell_angle_alpha   90.00000000
_cell_angle_beta   90.00000000
_cell_angle_gamma   90.00000000
_symmetry_Int_Tables_number   1
_chemical_formula_structural   Cu(ClO)2
_chemical_formula_sum   'Cu2 Cl4 O4'
_cell_volume   199.29357215
_cell_formula_units_Z   2
loop_
 _symmetry_equiv_pos_site_id
 _symmetry_equiv_pos_as_xyz
  1  'x, y, z'
loop_
 _atom_site_type_symbol
 _atom_site_label
 _atom_site_symmetry_multiplicity
 _atom_site_fract_x
 _atom_site_fract_y
 _atom_site_fract_z
 _atom_site_occupancy
  Cu  Cu0  1  0.00000000  0.50000000  0.50000000  1
  Cu  Cu1  1  0.00000000  0.00000000  0.00000000  1
  Cl  Cl0  1  0.30935700  0.24114800  0.50000000  1
  Cl  Cl1  1  0.69064300  0.75885200  0.50000000  1
  Cl  Cl2  1  0.30935700  0.25885200  0.00000000  1
  Cl  Cl3  1  0.69064300  0.74114800  0.00000000  1
  O  O0  1  0.00000000  0.50000000  0.75250700  1
  O  O1  1  0.00000000  0.00000000  0.74749300  1
  O  O2  1  0.00000000  0.50000000  0.24749300  1
  O  O3  1  0.00000000  0.00000000  0.25250700  1
loop_
_geom_bond_atom_site_label_1
_geom_bond_atom_site_label_2
_geom_bond_distance
_geom_bond_site_symmetry_2
Cu0 O2 1.767702 1_555
Cu0 O0 1.767702 1_555
Cu1 O3 1.767702 1_555
Cu1 O1 1.767702 1_554
Cl0 Cu0 2.194865 1_555
Cl1 Cu0 2.194865 1_655
Cl2 Cu1 2.194865 1_555
Cl3 Cu1 2.194865 1_665
