# generated using pymatgen
data_Li9Mn2Co5O16
_symmetry_space_group_name_H-M   'P 1'
_cell_length_a   5.00191200
_cell_length_b   5.22455129
_cell_length_c   11.33778574
_cell_angle_alpha   83.44664868
_cell_angle_beta   87.27019039
_cell_angle_gamma   78.07580576
_symmetry_Int_Tables_number   1
_chemical_formula_structural   Li9Mn2Co5O16
_chemical_formula_sum   'Li9 Mn2 Co5 O16'
_cell_volume   287.91183414
_cell_formula_units_Z   1
loop_
 _symmetry_equiv_pos_site_id
 _symmetry_equiv_pos_as_xyz
  1  'x, y, z'
loop_
 _atom_site_type_symbol
 _atom_site_label
 _atom_site_symmetry_multiplicity
 _atom_site_fract_x
 _atom_site_fract_y
 _atom_site_fract_z
 _atom_site_occupancy
  Li  Li0  1  0.24864800  0.43352000  0.06172500  1
  Li  Li1  1  0.75336300  0.57681200  0.92829700  1
  Li  Li2  1  0.25382900  0.68983500  0.80453300  1
  Li  Li3  1  0.23818100  0.18314700  0.32510700  1
  Li  Li4  1  0.75413800  0.30893800  0.19226900  1
  Li  Li5  1  0.23297800  0.92606500  0.56676800  1
  Li  Li6  1  0.75103400  0.06785800  0.44133700  1
  Li  Li7  1  0.76288200  0.81336300  0.68152300  1
  Li  Li8  1  0.00284100  0.50007300  0.50053600  1
  Mn  Mn0  1  0.00202000  0.99873600  0.00147000  1
  Mn  Mn1  1  0.49837900  0.86762800  0.12996700  1
  Co  Co0  1  0.50475600  0.13443400  0.86820400  1
  Co  Co1  1  0.00174600  0.25603400  0.74519200  1
  Co  Co2  1  0.48673200  0.38951600  0.61637700  1
  Co  Co3  1  0.50736500  0.62229700  0.37714000  1
  Co  Co4  1  0.99700500  0.73280900  0.25742400  1
  O  O0  1  0.14026300  0.08315600  0.14684500  1
  O  O1  1  0.62589500  0.17295000  0.04207900  1
  O  O2  1  0.14016600  0.33082100  0.89572100  1
  O  O3  1  0.13802100  0.82944200  0.38926300  1
  O  O4  1  0.62455000  0.93290400  0.28090900  1
  O  O5  1  0.14927600  0.59013200  0.65270700  1
  O  O6  1  0.60307000  0.71163000  0.51670000  1
  O  O7  1  0.64683100  0.44448200  0.78185000  1
  O  O8  1  0.37073300  0.78594600  0.98156700  1
  O  O9  1  0.86126500  0.91112800  0.85806000  1
  O  O10  1  0.36160100  0.05606100  0.71778300  1
  O  O11  1  0.37295900  0.56860300  0.22170700  1
  O  O12  1  0.85948600  0.66128800  0.10971400  1
  O  O13  1  0.39820600  0.32248200  0.45736100  1
  O  O14  1  0.84669900  0.42622000  0.34415200  1
  O  O15  1  0.86508500  0.17169000  0.60571300  1
loop_
_geom_bond_atom_site_label_1
_geom_bond_atom_site_label_2
_geom_bond_distance
_geom_bond_site_symmetry_2
Li0 O1 2.105035 1_555
Li0 O0 2.129084 1_555
Li0 O2 2.138408 1_554
Li0 O12 2.142632 1_455
Li0 O8 2.149169 1_554
Li0 O11 2.180755 1_555
Li1 O9 2.001839 1_555
Li1 O7 2.004331 1_555
Li1 O8 2.097127 1_555
Li1 O2 2.131705 1_655
Li1 O12 2.261698 1_556
Li1 O1 2.525681 1_556
Li2 O5 1.977609 1_555
Li2 O7 2.135259 1_555
Li2 O9 2.160818 1_455
Li2 O2 2.202807 1_555
Li2 O10 2.205698 1_565
Li2 O8 2.255215 1_555
Li3 O13 2.005813 1_555
Li3 O3 2.058167 1_545
Li3 O14 2.118603 1_455
Li3 O4 2.169906 1_545
Li3 O0 2.244693 1_555
Li3 O11 2.414789 1_555
Li4 O14 1.997291 1_555
Li4 O1 2.093889 1_555
Li4 O0 2.118808 1_655
Li4 O12 2.122057 1_555
Li4 O11 2.135634 1_555
Li4 O4 2.302897 1_545
Li5 O5 2.019773 1_555
Li5 O6 2.047498 1_555
Li5 O15 2.074633 1_465
Li5 O10 2.087499 1_565
Li5 O3 2.225458 1_555
Li5 O13 2.556253 1_565
Li6 O13 1.992920 1_555
Li6 O15 2.133744 1_555
Li6 O3 2.170168 1_645
Li6 O4 2.189168 1_545
Li6 O14 2.190345 1_555
Li6 O6 2.210798 1_545
Li7 O5 2.073084 1_655
Li7 O15 2.119244 1_565
Li7 O10 2.189571 1_565
Li7 O9 2.222670 1_555
Li7 O6 2.226703 1_555
Li7 O7 2.289997 1_555
Li8 O5 2.045129 1_555
Li8 O13 2.065079 1_555
Li8 O14 2.077292 1_455
Li8 O6 2.086084 1_455
Li8 O15 2.187122 1_455
Li8 O3 2.216753 1_555
Mn0 O9 1.939323 1_454
Mn0 O0 1.946757 1_565
Mn0 O8 1.964320 1_554
Mn0 O1 1.971146 1_465
Mn0 O2 2.206098 1_564
Mn0 O12 2.250520 1_455
Mn1 O12 1.920857 1_555
Mn1 O0 1.922559 1_565
Mn1 O4 1.941220 1_555
Mn1 O8 1.949225 1_554
Mn1 O11 1.971815 1_555
Mn1 O1 1.985295 1_565
Co0 O9 1.925002 1_545
Co0 O2 1.929100 1_555
Co0 O10 1.996444 1_555
Co0 O7 2.033459 1_555
Co0 O1 2.132745 1_556
Co0 O8 2.303136 1_545
Co1 O15 1.883804 1_455
Co1 O7 1.895909 1_455
Co1 O10 1.916168 1_555
Co1 O2 1.980227 1_555
Co1 O5 2.175238 1_555
Co1 O9 2.299931 1_445
Co2 O5 1.848937 1_555
Co2 O13 1.963004 1_555
Co2 O15 2.002720 1_555
Co2 O6 2.087071 1_555
Co2 O7 2.145834 1_555
Co2 O10 2.161839 1_555
Co3 O6 1.812102 1_555
Co3 O14 1.838116 1_555
Co3 O13 1.886768 1_555
Co3 O3 1.945940 1_555
Co3 O11 1.984911 1_555
Co3 O4 2.023707 1_555
Co4 O3 1.845686 1_655
Co4 O12 1.943241 1_555
Co4 O11 1.943276 1_655
Co4 O4 1.961116 1_555
Co4 O14 2.040969 1_555
Co4 O0 2.316956 1_665
