# generated using pymatgen
data_Cu4S3N
_symmetry_space_group_name_H-M   'P 1'
_cell_length_a   3.87894300
_cell_length_b   3.87894300
_cell_length_c   9.11824800
_cell_angle_alpha   90.00000000
_cell_angle_beta   90.00000000
_cell_angle_gamma   90.00000000
_symmetry_Int_Tables_number   1
_chemical_formula_structural   Cu4S3N
_chemical_formula_sum   'Cu4 S3 N1'
_cell_volume   137.19497209
_cell_formula_units_Z   1
loop_
 _symmetry_equiv_pos_site_id
 _symmetry_equiv_pos_as_xyz
  1  'x, y, z'
loop_
 _atom_site_type_symbol
 _atom_site_label
 _atom_site_symmetry_multiplicity
 _atom_site_fract_x
 _atom_site_fract_y
 _atom_site_fract_z
 _atom_site_occupancy
  Cu  Cu0  1  0.50000000  0.00000000  0.83311900  1
  Cu  Cu1  1  0.00000000  0.50000000  0.83311900  1
  Cu  Cu2  1  0.50000000  0.00000000  0.16688100  1
  Cu  Cu3  1  0.00000000  0.50000000  0.16688100  1
  S  S0  1  0.00000000  0.00000000  0.00000000  1
  S  S1  1  0.50000000  0.50000000  0.70707700  1
  S  S2  1  0.50000000  0.50000000  0.29292300  1
  N  N0  1  0.00000000  0.00000000  0.50000000  1
loop_
_geom_bond_atom_site_label_1
_geom_bond_atom_site_label_2
_geom_bond_distance
_geom_bond_site_symmetry_2
Cu0 S1 2.254418 1_555
Cu0 S1 2.254418 1_545
Cu0 S0 2.465158 1_556
Cu0 S0 2.465158 1_656
Cu1 S1 2.254418 1_455
Cu1 S1 2.254418 1_555
Cu1 S0 2.465158 1_566
Cu1 S0 2.465158 1_556
Cu2 S2 2.254418 1_555
Cu2 S2 2.254418 1_545
Cu2 S0 2.465158 1_655
Cu2 S0 2.465158 1_555
Cu3 S2 2.254418 1_555
Cu3 S2 2.254418 1_455
Cu3 S0 2.465158 1_565
Cu3 S0 2.465158 1_555
