# generated using pymatgen
data_CeZnGe
_symmetry_space_group_name_H-M   'P 1'
_cell_length_a   4.27720243
_cell_length_b   4.27720302
_cell_length_c   16.79895133
_cell_angle_alpha   90.00000000
_cell_angle_beta   90.00000000
_cell_angle_gamma   119.99999551
_symmetry_Int_Tables_number   1
_chemical_formula_structural   CeZnGe
_chemical_formula_sum   'Ce4 Zn4 Ge4'
_cell_volume   266.15369073
_cell_formula_units_Z   4
loop_
 _symmetry_equiv_pos_site_id
 _symmetry_equiv_pos_as_xyz
  1  'x, y, z'
loop_
 _atom_site_type_symbol
 _atom_site_label
 _atom_site_symmetry_multiplicity
 _atom_site_fract_x
 _atom_site_fract_y
 _atom_site_fract_z
 _atom_site_occupancy
  Ce  Ce0  1  0.00000000  0.00000000  0.75000000  1
  Ce  Ce1  1  0.00000000  0.00000000  0.25000000  1
  Ce  Ce2  1  0.00000000  0.00000000  0.50000000  1
  Ce  Ce3  1  0.00000000  0.00000000  -0.00000000  1
  Zn  Zn0  1  0.66666700  0.33333300  0.85682066  1
  Zn  Zn1  1  0.66666700  0.33333300  0.64317934  1
  Zn  Zn2  1  0.33333300  0.66666700  0.14317934  1
  Zn  Zn3  1  0.33333300  0.66666700  0.35682066  1
  Ge  Ge0  1  0.66666700  0.33333300  0.11669305  1
  Ge  Ge1  1  0.66666700  0.33333300  0.38330695  1
  Ge  Ge2  1  0.33333300  0.66666700  0.88330695  1
  Ge  Ge3  1  0.33333300  0.66666700  0.61669305  1
loop_
_geom_bond_atom_site_label_1
_geom_bond_atom_site_label_2
_geom_bond_distance
_geom_bond_site_symmetry_2
Ce0 Zn1 3.052586 1_455
Ce0 Zn0 3.052586 1_455
Ce0 Zn0 3.052589 1_555
Ce0 Zn1 3.052589 1_555
Ce0 Zn0 3.052589 1_445
Ce0 Zn1 3.052589 1_445
Ce0 Ge2 3.333636 1_545
Ce0 Ge3 3.333636 1_545
Ce0 Ge2 3.333639 1_445
Ce0 Ge3 3.333639 1_445
Ce0 Ge2 3.333639 1_555
Ce0 Ge3 3.333639 1_555
Ce1 Zn2 3.052586 1_545
Ce1 Zn3 3.052586 1_545
Ce1 Zn2 3.052589 1_445
Ce1 Zn3 3.052589 1_445
Ce1 Zn2 3.052589 1_555
Ce1 Zn3 3.052589 1_555
Ce1 Ge0 3.333636 1_455
Ce1 Ge1 3.333636 1_455
Ce1 Ge0 3.333639 1_555
Ce1 Ge1 3.333639 1_555
Ce1 Ge0 3.333639 1_445
Ce1 Ge1 3.333639 1_445
Ce2 Ge1 3.152935 1_455
Ce2 Ge3 3.152935 1_545
Ce2 Ge1 3.152938 1_555
Ce2 Ge3 3.152938 1_445
Ce2 Ge3 3.152938 1_555
Ce2 Ge1 3.152938 1_445
Ce2 Zn3 3.447235 1_545
Ce2 Zn1 3.447235 1_455
Ce2 Zn1 3.447238 1_555
Ce2 Zn3 3.447238 1_445
Ce2 Zn3 3.447238 1_555
Ce2 Zn1 3.447238 1_445
Ce3 Ge2 3.152935 1_544
Ce3 Ge0 3.152935 1_455
Ce3 Ge2 3.152938 1_444
Ce3 Ge0 3.152938 1_555
Ce3 Ge2 3.152938 1_554
Ce3 Ge0 3.152938 1_445
Ce3 Zn0 3.447235 1_454
Ce3 Zn2 3.447235 1_545
Ce3 Zn0 3.447238 1_554
Ce3 Zn2 3.447238 1_445
Ce3 Zn0 3.447238 1_444
Ce3 Zn2 3.447238 1_555
Ge0 Zn2 2.509206 1_655
Ge0 Zn2 2.509206 1_545
Ge0 Zn2 2.509213 1_555
Ge1 Zn3 2.509206 1_655
Ge1 Zn3 2.509206 1_545
Ge1 Zn3 2.509213 1_555
Ge2 Zn0 2.509206 1_455
Ge2 Zn0 2.509206 1_565
Ge2 Zn0 2.509213 1_555
Ge3 Zn1 2.509206 1_455
Ge3 Zn1 2.509206 1_565
Ge3 Zn1 2.509213 1_555
