# generated using pymatgen
data_PrZn5
_symmetry_space_group_name_H-M   'P 1'
_cell_length_a   5.35663400
_cell_length_b   5.35663492
_cell_length_c   4.21194546
_cell_angle_alpha   90.00000000
_cell_angle_beta   90.00000000
_cell_angle_gamma   119.99999435
_symmetry_Int_Tables_number   1
_chemical_formula_structural   PrZn5
_chemical_formula_sum   'Pr1 Zn5'
_cell_volume   104.66402129
_cell_formula_units_Z   1
loop_
 _symmetry_equiv_pos_site_id
 _symmetry_equiv_pos_as_xyz
  1  'x, y, z'
loop_
 _atom_site_type_symbol
 _atom_site_label
 _atom_site_symmetry_multiplicity
 _atom_site_fract_x
 _atom_site_fract_y
 _atom_site_fract_z
 _atom_site_occupancy
  Pr  Pr0  1  -0.00000000  -0.00000000  -0.00000000  1
  Zn  Zn0  1  -0.00000000  0.50000000  0.50000000  1
  Zn  Zn1  1  0.33333300  0.66666700  -0.00000000  1
  Zn  Zn2  1  0.66666700  0.33333300  0.00000000  1
  Zn  Zn3  1  0.50000000  -0.00000000  0.50000000  1
  Zn  Zn4  1  0.50000000  0.50000000  0.50000000  1
loop_
_geom_bond_atom_site_label_1
_geom_bond_atom_site_label_2
_geom_bond_distance
_geom_bond_site_symmetry_2
Pr0 Zn1 3.092651 1_545
Pr0 Zn2 3.092651 1_455
Pr0 Zn2 3.092656 1_555
Pr0 Zn1 3.092656 1_445
Pr0 Zn1 3.092656 1_555
Pr0 Zn2 3.092656 1_445
Pr0 Zn3 3.407125 1_554
Pr0 Zn3 3.407125 1_454
Pr0 Zn3 3.407125 1_455
Pr0 Zn3 3.407125 1_555
Pr0 Zn0 3.407126 1_554
Pr0 Zn0 3.407126 1_555
Pr0 Zn4 3.407126 1_554
Pr0 Zn4 3.407126 1_444
Pr0 Zn0 3.407126 1_544
Pr0 Zn0 3.407126 1_545
Pr0 Zn4 3.407126 1_445
Pr0 Zn4 3.407126 1_555
Zn0 Zn2 2.612708 1_456
Zn0 Zn1 2.612708 1_555
Zn0 Zn1 2.612708 1_556
Zn0 Zn2 2.612708 1_455
Zn0 Zn4 2.678317 1_555
Zn0 Zn4 2.678317 1_455
Zn0 Zn3 2.678317 1_455
Zn0 Zn3 2.678317 1_565
Zn1 Zn3 2.612708 1_565
Zn1 Zn3 2.612708 1_564
Zn1 Zn4 2.612711 1_555
Zn1 Zn4 2.612711 1_554
Zn2 Zn3 2.612708 1_555
Zn2 Zn3 2.612708 1_554
Zn2 Zn4 2.612711 1_555
Zn2 Zn4 2.612711 1_554
Zn3 Zn4 2.678317 1_545
Zn3 Zn4 2.678317 1_555
