# generated using pymatgen
data_YErAl6
_symmetry_space_group_name_H-M   'P 1'
_cell_length_a   14.41637455
_cell_length_b   14.41637455
_cell_length_c   14.41637491
_cell_angle_alpha   25.01519576
_cell_angle_beta   25.01519576
_cell_angle_gamma   25.01519636
_symmetry_Int_Tables_number   1
_chemical_formula_structural   YErAl6
_chemical_formula_sum   'Y3 Er3 Al18'
_cell_volume   471.33419714
_cell_formula_units_Z   3
loop_
 _symmetry_equiv_pos_site_id
 _symmetry_equiv_pos_as_xyz
  1  'x, y, z'
loop_
 _atom_site_type_symbol
 _atom_site_label
 _atom_site_symmetry_multiplicity
 _atom_site_fract_x
 _atom_site_fract_y
 _atom_site_fract_z
 _atom_site_occupancy
  Y  Y0  1  0.10879200  0.10879200  0.10879200  1
  Y  Y1  1  0.89134200  0.89134200  0.89134200  1
  Y  Y2  1  0.39108300  0.39108300  0.39108300  1
  Er  Er0  1  0.99989400  0.99989400  0.99989400  1
  Er  Er1  1  0.49998500  0.49998500  0.49998500  1
  Er  Er2  1  0.60876700  0.60876700  0.60876700  1
  Al  Al0  1  0.92908400  0.36859700  0.36859700  1
  Al  Al1  1  0.43028300  0.86750000  0.86750000  1
  Al  Al2  1  0.36859700  0.36859700  0.92908400  1
  Al  Al3  1  0.86750000  0.86750000  0.43028300  1
  Al  Al4  1  0.36859700  0.92908400  0.36859700  1
  Al  Al5  1  0.86750000  0.43028300  0.86750000  1
  Al  Al6  1  0.57003000  0.13223600  0.13223600  1
  Al  Al7  1  0.06970500  0.63240500  0.63240500  1
  Al  Al8  1  0.13223600  0.13223600  0.57003000  1
  Al  Al9  1  0.63240500  0.63240500  0.06970500  1
  Al  Al10  1  0.13223600  0.57003000  0.13223600  1
  Al  Al11  1  0.63240500  0.06970500  0.63240500  1
  Al  Al12  1  0.50074600  0.50074600  0.99784000  1
  Al  Al13  1  0.00020800  0.00020800  0.49981100  1
  Al  Al14  1  0.50074600  0.99784000  0.50074600  1
  Al  Al15  1  0.00020800  0.49981100  0.00020800  1
  Al  Al16  1  0.99784000  0.50074600  0.50074600  1
  Al  Al17  1  0.49981100  0.00020800  0.00020800  1
loop_
_geom_bond_atom_site_label_1
_geom_bond_atom_site_label_2
_geom_bond_distance
_geom_bond_site_symmetry_2
Al0 Al2 2.744443 1_654
Al0 Al4 2.744443 1_645
Al0 Al10 2.831001 1_655
Al0 Al8 2.831001 1_655
Al0 Al13 2.876284 1_655
Al0 Al15 2.876284 1_655
Al0 Er2 3.012003 1_555
Al0 Er1 3.077782 1_555
Al0 Y1 3.131615 1_554
Al0 Y1 3.131615 1_545
Al1 Al3 2.730106 1_555
Al1 Al5 2.730106 1_555
Al1 Al11 2.839882 1_565
Al1 Al9 2.839882 1_556
Al1 Al12 2.870025 1_555
Al1 Al14 2.870025 1_555
Al1 Y0 3.028635 1_566
Al1 Er0 3.075641 1_455
Al1 Y2 3.132309 1_565
Al1 Y2 3.132309 1_556
Al2 Al4 2.744443 1_546
Al2 Al6 2.831001 1_556
Al2 Er2 3.012003 1_555
Al2 Er1 3.077782 1_555
Al2 Y1 3.131615 1_545
Al2 Y1 3.131615 1_455
Al3 Al5 2.730106 1_555
Al3 Al7 2.839882 1_655
Al3 Y0 3.028634 1_665
Al3 Er0 3.075641 1_554
Al3 Y2 3.132309 1_565
Al3 Y2 3.132309 1_655
Al4 Al6 2.831001 1_565
Al4 Al8 2.831001 1_565
Al4 Er2 3.012003 1_555
Al4 Er1 3.077782 1_555
Al4 Y1 3.131615 1_554
Al4 Y1 3.131615 1_455
Al5 Al7 2.839882 1_655
Al5 Al9 2.839882 1_556
Al5 Y0 3.028635 1_656
Al5 Er0 3.075641 1_545
Al5 Y2 3.132309 1_655
Al5 Y2 3.132309 1_556
Al6 Al8 2.733709 1_555
Al6 Y1 3.020850 1_544
Al6 Er0 3.069853 1_544
Al6 Er2 3.132277 1_545
Al6 Er2 3.132277 1_554
Al7 Al9 2.730624 1_456
Al7 Y2 3.030228 1_555
Al7 Er1 3.073755 1_555
Al7 Y0 3.132374 1_556
Al7 Y0 3.132374 1_565
Al8 Y1 3.020850 1_445
Al8 Er0 3.069853 1_445
Al8 Er2 3.132277 1_455
Al8 Er2 3.132277 1_545
Al9 Y2 3.030227 1_555
Al9 Er1 3.073755 1_555
Al9 Y0 3.132374 1_565
Al9 Y0 3.132374 1_655
Al10 Al8 2.733709 1_555
Al10 Al6 2.733709 1_555
Al10 Al2 2.831001 1_554
Al10 Al12 2.865327 1_554
Al10 Al16 2.865327 1_455
Al10 Y1 3.020850 1_454
Al10 Er0 3.069853 1_454
Al10 Er2 3.132277 1_455
Al10 Er2 3.132277 1_554
Al11 Al9 2.730624 1_546
Al11 Al7 2.730625 1_645
Al11 Al3 2.839882 1_545
Al11 Al13 2.871594 1_655
Al11 Al17 2.871594 1_556
Al11 Y2 3.030228 1_555
Al11 Er1 3.073755 1_555
Al11 Y0 3.132374 1_556
Al11 Y0 3.132374 1_655
Al12 Al6 2.865327 1_556
Al12 Al5 2.870025 1_555
Al12 Er2 3.007474 1_555
Al12 Y2 3.029906 1_556
Al12 Er0 3.122162 1_545
Al12 Er0 3.122162 1_455
Al13 Al7 2.871594 1_545
Al13 Al4 2.876284 1_545
Al13 Y0 3.022055 1_555
Al13 Y1 3.023180 1_445
Al13 Er1 3.122144 1_455
Al13 Er1 3.122144 1_545
Al14 Al8 2.865327 1_565
Al14 Al6 2.865327 1_565
Al14 Al3 2.870025 1_555
Al14 Er2 3.007473 1_555
Al14 Y2 3.029905 1_565
Al14 Er0 3.122162 1_554
Al14 Er0 3.122162 1_455
Al15 Al9 2.871594 1_455
Al15 Al7 2.871594 1_554
Al15 Al2 2.876284 1_554
Al15 Y0 3.022055 1_555
Al15 Y1 3.023180 1_454
Al15 Er1 3.122144 1_455
Al15 Er1 3.122144 1_554
Al16 Al8 2.865327 1_655
Al16 Al3 2.870025 1_555
Al16 Al5 2.870025 1_555
Al16 Er2 3.007473 1_555
Al16 Y2 3.029905 1_655
Al16 Er0 3.122162 1_554
Al16 Er0 3.122162 1_545
Al17 Al9 2.871594 1_545
Al17 Al2 2.876284 1_554
Al17 Al4 2.876284 1_545
Al17 Y0 3.022055 1_555
Al17 Y1 3.023180 1_544
Al17 Er1 3.122144 1_545
Al17 Er1 3.122144 1_554
