# generated using pymatgen
data_K2MgFe4P6(O4F3)4
_symmetry_space_group_name_H-M   'P 1'
_cell_length_a   7.39566417
_cell_length_b   7.88991544
_cell_length_c   10.68976208
_cell_angle_alpha   98.68724140
_cell_angle_beta   109.37749508
_cell_angle_gamma   88.77723207
_symmetry_Int_Tables_number   1
_chemical_formula_structural   K2MgFe4P6(O4F3)4
_chemical_formula_sum   'K2 Mg1 Fe4 P6 O16 F12'
_cell_volume   581.39830568
_cell_formula_units_Z   1
loop_
 _symmetry_equiv_pos_site_id
 _symmetry_equiv_pos_as_xyz
  1  'x, y, z'
loop_
 _atom_site_type_symbol
 _atom_site_label
 _atom_site_symmetry_multiplicity
 _atom_site_fract_x
 _atom_site_fract_y
 _atom_site_fract_z
 _atom_site_occupancy
  K  K0  1  0.80297338  0.07958359  0.77404794  1
  K  K1  1  0.24675363  0.94559251  0.21413665  1
  Mg  Mg0  1  0.64549769  0.74013278  0.93888768  1
  Fe  Fe0  1  0.67206163  0.33371640  0.34437735  1
  Fe  Fe1  1  0.33069053  0.66617439  0.65349342  1
  Fe  Fe2  1  0.46014044  0.44671072  0.00145857  1
  Fe  Fe3  1  0.01590023  0.99609763  0.50002429  1
  P  P0  1  0.67439832  0.72644038  0.51454153  1
  P  P1  1  0.34374767  0.27065369  0.49083278  1
  P  P2  1  0.32295498  0.04875233  0.83028729  1
  P  P3  1  0.70672686  0.93962612  0.18865978  1
  P  P4  1  0.03646011  0.58333682  0.83009845  1
  P  P5  1  0.93370960  0.43789326  0.15707377  1
  O  O0  1  0.73861003  0.55549683  0.45871702  1
  O  O1  1  0.27319933  0.43781713  0.54046661  1
  O  O2  1  0.81822808  0.87681968  0.54662663  1
  O  O3  1  0.19582354  0.12256535  0.44106804  1
  O  O4  1  0.60754268  0.10363125  0.21373241  1
  O  O5  1  0.44135430  0.88753400  0.81632413  1
  O  O6  1  0.45282345  0.20290155  0.90316008  1
  O  O7  1  0.56795852  0.79295932  0.10517460  1
  O  O8  1  0.88205914  0.89831443  0.29973469  1
  O  O9  1  0.15820627  0.07418199  0.70448893  1
  O  O10  1  0.88416900  0.36798423  0.26348310  1
  O  O11  1  0.08583496  0.65489524  0.72569080  1
  O  O12  1  0.78466542  0.51431055  0.04833851  1
  O  O13  1  0.17731626  0.53492991  0.95442793  1
  O  O14  1  0.44479846  0.27407773  0.38794380  1
  O  O15  1  0.59908997  0.72232552  0.62944385  1
  F  F0  1  0.84714891  0.20288325  0.48123276  1
  F  F1  1  0.18084440  0.80611410  0.50741196  1
  F  F2  1  0.49863889  0.43675944  0.19071623  1
  F  F3  1  0.48234141  0.54937853  0.83844793  1
  F  F4  1  0.80644661  0.96450863  0.06772570  1
  F  F5  1  0.21031657  0.00880676  0.93074499  1
  F  F6  1  0.87815775  0.43609794  0.76713648  1
  F  F7  1  0.10920805  0.56605800  0.22160151  1
  F  F8  1  0.50580026  0.21358929  0.61926274  1
  F  F9  1  0.49834705  0.77594342  0.39074883  1
  F  F10  1  0.02910590  0.28821285  0.08656595  1
  F  F11  1  0.89994972  0.72452547  0.88416429  1
loop_
_geom_bond_atom_site_label_1
_geom_bond_atom_site_label_2
_geom_bond_distance
_geom_bond_site_symmetry_2
K0 O2 2.735259 1_545
K0 O9 2.956138 1_655
K0 O15 3.150688 1_545
K0 O5 3.291588 1_545
K0 O6 3.378765 1_555
K1 O3 2.745344 1_565
K1 O4 2.970821 1_565
K1 O14 3.035767 1_565
K1 O7 3.120953 1_555
K1 O8 3.167777 1_455
Mg0 O7 2.026013 1_556
Mg0 O5 2.102676 1_555
Mg0 O12 2.314114 1_556
Fe0 O0 1.946678 1_555
Fe0 O14 1.970441 1_555
Fe0 O10 2.066516 1_555
Fe0 O4 2.074245 1_555
Fe1 O1 1.980150 1_555
Fe1 O15 2.147820 1_555
Fe1 O11 2.199508 1_555
Fe1 O5 2.224239 1_555
Fe2 O6 2.040479 1_554
Fe2 O13 2.111418 1_554
Fe2 O12 2.339175 1_555
Fe3 O2 1.988628 1_455
Fe3 O3 1.991630 1_565
Fe3 O8 2.070355 1_455
Fe3 O9 2.087786 1_565
O0 P0 1.522592 1_555
O1 P1 1.495388 1_555
O2 P0 1.531568 1_555
O3 P1 1.524991 1_555
O4 P3 1.506483 1_545
O5 P2 1.545590 1_565
O6 P2 1.508539 1_555
O7 P3 1.523069 1_555
O8 P3 1.508207 1_555
O9 P2 1.522165 1_555
O10 P5 1.485621 1_555
O11 P4 1.472196 1_555
O12 P5 1.504241 1_555
O13 P4 1.488309 1_555
O14 P1 1.524536 1_555
O15 P0 1.512181 1_555
F0 Fe0 2.006142 1_555
F0 Fe3 2.026210 1_645
F1 Fe3 1.906562 1_555
F1 Fe1 2.050845 1_555
F2 Fe2 1.960876 1_555
F2 Fe0 1.991233 1_555
F3 Mg0 1.898309 1_555
F3 Fe2 2.083631 1_556
F3 Fe1 2.247415 1_555
F4 P3 1.723126 1_555
F4 Mg0 2.170997 1_554
F4 K1 3.121468 1_655
F4 K0 3.389249 1_564
F5 P2 1.628969 1_555
F5 K0 3.009224 1_455
F5 K1 3.067172 1_546
F6 P4 1.572315 1_655
F6 K0 2.895454 1_555
F7 P5 1.560184 1_455
F7 K1 3.203780 1_555
F8 P1 1.611130 1_555
F8 K0 2.588840 1_555
F9 P0 1.609363 1_555
F9 K1 2.672853 1_555
F10 P5 1.583963 1_455
F10 K1 3.351039 1_545
F10 K0 3.378739 1_454
F11 P4 1.654968 1_655
F11 Mg0 2.144187 1_555
F11 K0 3.177715 1_565
