# generated using pymatgen
data_DyTlS2O9
_symmetry_space_group_name_H-M   'P 1'
_cell_length_a   8.52455600
_cell_length_b   10.48700602
_cell_length_c   10.17714607
_cell_angle_alpha   119.83337270
_cell_angle_beta   90.00000000
_cell_angle_gamma   90.00000000
_symmetry_Int_Tables_number   1
_chemical_formula_structural   DyTlS2O9
_chemical_formula_sum   'Dy4 Tl4 S8 O36'
_cell_volume   789.23562391
_cell_formula_units_Z   4
loop_
 _symmetry_equiv_pos_site_id
 _symmetry_equiv_pos_as_xyz
  1  'x, y, z'
loop_
 _atom_site_type_symbol
 _atom_site_label
 _atom_site_symmetry_multiplicity
 _atom_site_fract_x
 _atom_site_fract_y
 _atom_site_fract_z
 _atom_site_occupancy
  Dy  Dy0  1  0.36253500  0.96299400  0.71686400  1
  Dy  Dy1  1  0.63746500  0.03700600  0.28313600  1
  Dy  Dy2  1  0.86253500  0.53700600  0.78313600  1
  Dy  Dy3  1  0.13746500  0.46299400  0.21686400  1
  Tl  Tl0  1  0.33274300  0.68742700  0.96532200  1
  Tl  Tl1  1  0.66725700  0.31257300  0.03467800  1
  Tl  Tl2  1  0.83274300  0.81257300  0.53467800  1
  Tl  Tl3  1  0.16725700  0.18742700  0.46532200  1
  S  S0  1  0.12959900  0.31631100  0.87319900  1
  S  S1  1  0.87040100  0.68368900  0.12680100  1
  S  S2  1  0.62959900  0.18368900  0.62680100  1
  S  S3  1  0.37040100  0.81631100  0.37319900  1
  S  S4  1  0.19896300  0.60336600  0.59861800  1
  S  S5  1  0.80103700  0.39663400  0.40138200  1
  S  S6  1  0.69896300  0.89663400  0.90138200  1
  S  S7  1  0.30103700  0.10336600  0.09861800  1
  O  O0  1  0.78442500  0.03811100  0.96826400  1
  O  O1  1  0.21557500  0.96188900  0.03173600  1
  O  O2  1  0.28442500  0.46188900  0.53173600  1
  O  O3  1  0.71557500  0.53811100  0.46826400  1
  O  O4  1  0.20387400  0.17508200  0.76232200  1
  O  O5  1  0.79612600  0.82491800  0.23767800  1
  O  O6  1  0.70387400  0.32491800  0.73767800  1
  O  O7  1  0.29612600  0.67508200  0.26232200  1
  O  O8  1  0.30975700  0.72982500  0.67595300  1
  O  O9  1  0.69024300  0.27017500  0.32404700  1
  O  O10  1  0.80975700  0.77017500  0.82404700  1
  O  O11  1  0.19024300  0.22982500  0.17595300  1
  O  O12  1  0.38530700  0.11630200  0.97696200  1
  O  O13  1  0.61469300  0.88369800  0.02303800  1
  O  O14  1  0.88530700  0.38369800  0.52303800  1
  O  O15  1  0.11469300  0.61630200  0.47696200  1
  O  O16  1  0.09423800  0.94437400  0.76854600  1
  O  O17  1  0.90576200  0.05562600  0.23145400  1
  O  O18  1  0.59423800  0.55562600  0.73145400  1
  O  O19  1  0.40576200  0.44437400  0.26854600  1
  O  O20  1  0.25025800  0.42041000  0.98197600  1
  O  O21  1  0.74974200  0.57959000  0.01802400  1
  O  O22  1  0.75025800  0.07959000  0.51802400  1
  O  O23  1  0.24974200  0.92041000  0.48197600  1
  O  O24  1  0.01136300  0.29872400  0.97096600  1
  O  O25  1  0.98863700  0.70127600  0.02903400  1
  O  O26  1  0.51136300  0.20127600  0.52903400  1
  O  O27  1  0.48863700  0.79872400  0.47096600  1
  O  O28  1  0.05717800  0.38046400  0.78624600  1
  O  O29  1  0.94282200  0.61953600  0.21375400  1
  O  O30  1  0.55717800  0.11953600  0.71375400  1
  O  O31  1  0.44282200  0.88046400  0.28624600  1
  O  O32  1  0.58730400  0.88486600  0.78405100  1
  O  O33  1  0.41269600  0.11513400  0.21594900  1
  O  O34  1  0.08730400  0.61513400  0.71594900  1
  O  O35  1  0.91269600  0.38486600  0.28405100  1
loop_
_geom_bond_atom_site_label_1
_geom_bond_atom_site_label_2
_geom_bond_distance
_geom_bond_site_symmetry_2
Dy0 O8 2.311283 1_555
Dy0 O32 2.316792 1_555
Dy0 O12 2.322734 1_565
Dy0 O30 2.345385 1_565
Dy0 O16 2.376521 1_555
Dy0 O23 2.403376 1_555
Dy0 O4 2.442634 1_565
Dy0 O27 2.469121 1_555
Dy1 O9 2.311283 1_555
Dy1 O33 2.316792 1_555
Dy1 O13 2.322734 1_545
Dy1 O31 2.345385 1_545
Dy1 O17 2.376521 1_555
Dy1 O22 2.403376 1_555
Dy1 O5 2.442634 1_545
Dy1 O26 2.469121 1_555
Dy2 O10 2.311283 1_555
Dy2 O34 2.316792 1_655
Dy2 O14 2.322734 1_555
Dy2 O28 2.345385 1_655
Dy2 O18 2.376521 1_555
Dy2 O21 2.403376 1_556
Dy2 O6 2.442634 1_555
Dy2 O25 2.469121 1_556
Dy3 O11 2.311283 1_555
Dy3 O35 2.316792 1_455
Dy3 O15 2.322734 1_555
Dy3 O29 2.345385 1_455
Dy3 O19 2.376521 1_555
Dy3 O20 2.403376 1_554
Dy3 O7 2.442634 1_555
Dy3 O24 2.469121 1_554
O0 S6 1.480047 1_545
O0 Tl1 2.793446 1_556
O1 S7 1.480047 1_565
O1 Tl0 2.793446 1_554
O2 S4 1.480047 1_555
O2 Tl3 2.793446 1_555
O3 S5 1.480047 1_555
O3 Tl2 2.793446 1_555
O4 S0 1.484905 1_555
O5 S1 1.484905 1_555
O6 S2 1.484905 1_555
O7 S3 1.484905 1_555
O8 S4 1.493891 1_555
O9 S5 1.493891 1_555
O10 S6 1.493891 1_555
O11 S7 1.493891 1_555
O12 S7 1.494819 1_556
O13 S6 1.494819 1_554
O14 S5 1.494819 1_555
O15 S4 1.494819 1_555
O20 S0 1.507585 1_555
O21 S1 1.507585 1_555
O22 S2 1.507585 1_555
O23 S3 1.507585 1_555
O24 S0 1.490801 1_555
O25 S1 1.490801 1_555
O26 S2 1.490801 1_555
O27 S3 1.490801 1_555
O28 S0 1.486344 1_555
O29 S1 1.486344 1_555
O30 S2 1.486344 1_555
O31 S3 1.486344 1_555
O32 S6 1.483400 1_555
O33 S7 1.483400 1_555
O34 S4 1.483400 1_555
O35 S5 1.483400 1_555
