# generated using pymatgen
data_BaSr3Mn4O12
_symmetry_space_group_name_H-M   'P 1'
_cell_length_a   5.59171951
_cell_length_b   5.59171951
_cell_length_c   9.33598600
_cell_angle_alpha   90.00000000
_cell_angle_beta   90.00000000
_cell_angle_gamma   119.99999415
_symmetry_Int_Tables_number   1
_chemical_formula_structural   BaSr3Mn4O12
_chemical_formula_sum   'Ba1 Sr3 Mn4 O12'
_cell_volume   252.80264009
_cell_formula_units_Z   1
loop_
 _symmetry_equiv_pos_site_id
 _symmetry_equiv_pos_as_xyz
  1  'x, y, z'
loop_
 _atom_site_type_symbol
 _atom_site_label
 _atom_site_symmetry_multiplicity
 _atom_site_fract_x
 _atom_site_fract_y
 _atom_site_fract_z
 _atom_site_occupancy
  Ba  Ba0  1  0.66666700  0.33333300  0.50000000  1
  Sr  Sr0  1  0.33333300  0.66666700  0.00000000  1
  Sr  Sr1  1  0.00000000  0.00000000  0.75230800  1
  Sr  Sr2  1  0.00000000  0.00000000  0.24769200  1
  Mn  Mn0  1  0.66666700  0.33333300  0.13675400  1
  Mn  Mn1  1  0.33333300  0.66666700  0.36179100  1
  Mn  Mn2  1  0.33333300  0.66666700  0.63820900  1
  Mn  Mn3  1  0.66666700  0.33333300  0.86324600  1
  O  O0  1  0.63410100  0.81705000  0.50000000  1
  O  O1  1  0.18295000  0.81705000  0.50000000  1
  O  O2  1  0.18295000  0.36589900  0.50000000  1
  O  O3  1  0.36434000  0.18217000  0.00000000  1
  O  O4  1  0.81783000  0.18217000  0.00000000  1
  O  O5  1  0.81783000  0.63566000  0.00000000  1
  O  O6  1  0.00390100  0.50195000  0.75389100  1
  O  O7  1  0.49805000  0.50195000  0.75389100  1
  O  O8  1  0.49805000  0.99609900  0.75389100  1
  O  O9  1  0.00390100  0.50195000  0.24610900  1
  O  O10  1  0.49805000  0.50195000  0.24610900  1
  O  O11  1  0.49805000  0.99609900  0.24610900  1
loop_
_geom_bond_atom_site_label_1
_geom_bond_atom_site_label_2
_geom_bond_distance
_geom_bond_site_symmetry_2
Ba0 O2 2.800304 1_555
Ba0 O0 2.800304 1_555
Ba0 O2 2.800304 1_655
Ba0 O0 2.800304 1_545
Ba0 O1 2.800304 1_655
Ba0 O1 2.800304 1_545
Ba0 O10 2.878433 1_555
Ba0 O7 2.878433 1_555
Ba0 O9 2.878434 1_655
Ba0 O6 2.878434 1_655
Ba0 O11 2.878434 1_545
Ba0 O8 2.878434 1_545
Mn0 O10 1.925944 1_555
Mn0 O9 1.925944 1_655
Mn0 O11 1.925944 1_545
Mn0 O4 1.942536 1_555
Mn0 O3 1.942540 1_555
Mn0 O5 1.942540 1_555
Mn1 O11 1.926496 1_555
Mn1 O9 1.926496 1_555
Mn1 O10 1.926504 1_555
Mn1 O1 1.945830 1_555
Mn1 O2 1.945837 1_555
Mn1 O0 1.945837 1_555
Mn2 O8 1.926496 1_555
Mn2 O6 1.926496 1_555
Mn2 O7 1.926504 1_555
Mn2 O1 1.945830 1_555
Mn2 O2 1.945837 1_555
Mn2 O0 1.945837 1_555
Mn3 O7 1.925944 1_555
Mn3 O6 1.925944 1_655
Mn3 O8 1.925944 1_545
Mn3 O4 1.942536 1_556
Mn3 O3 1.942540 1_556
Mn3 O5 1.942540 1_556
O0 Sr2 2.947573 1_665
O0 Sr1 2.947573 1_665
O1 Sr2 2.947576 1_565
O1 Sr1 2.947576 1_565
O2 Sr1 2.947573 1_555
O2 Sr2 2.947573 1_555
O3 Sr0 2.799886 1_545
O3 Sr0 2.799892 1_555
O3 Sr1 2.908664 1_554
O3 Sr2 2.908664 1_555
O4 Sr0 2.799889 1_545
O4 Sr0 2.799889 1_655
O4 Sr2 2.908664 1_655
O4 Sr1 2.908664 1_654
O5 Sr0 2.799886 1_655
O5 Sr0 2.799892 1_555
O5 Sr2 2.908664 1_665
O5 Sr1 2.908664 1_664
O6 Sr1 2.795960 1_555
O6 Sr1 2.795965 1_565
O6 Sr0 2.797189 1_556
O7 Sr1 2.795963 1_555
O7 Sr1 2.795963 1_665
O7 Sr0 2.797194 1_556
O8 Sr1 2.795960 1_665
O8 Sr1 2.795965 1_565
O8 Sr0 2.797189 1_556
O9 Sr2 2.795960 1_555
O9 Sr2 2.795965 1_565
O9 Sr0 2.797189 1_555
O10 Sr2 2.795963 1_665
O10 Sr2 2.795963 1_555
O10 Sr0 2.797194 1_555
O11 Sr2 2.795960 1_665
O11 Sr2 2.795965 1_565
O11 Sr0 2.797189 1_555
