# generated using pymatgen
data_Os2Xe(O3F5)2
_symmetry_space_group_name_H-M   'P 1'
_cell_length_a   7.84387000
_cell_length_b   11.83770500
_cell_length_c   13.17169100
_cell_angle_alpha   90.00000000
_cell_angle_beta   90.00000000
_cell_angle_gamma   90.00000000
_symmetry_Int_Tables_number   1
_chemical_formula_structural   Os2Xe(O3F5)2
_chemical_formula_sum   'Os8 Xe4 O24 F40'
_cell_volume   1223.03654492
_cell_formula_units_Z   4
loop_
 _symmetry_equiv_pos_site_id
 _symmetry_equiv_pos_as_xyz
  1  'x, y, z'
loop_
 _atom_site_type_symbol
 _atom_site_label
 _atom_site_symmetry_multiplicity
 _atom_site_fract_x
 _atom_site_fract_y
 _atom_site_fract_z
 _atom_site_occupancy
  Os  Os0  1  0.00846600  0.57041500  0.17666500  1
  Os  Os1  1  0.49153400  0.92958500  0.67666500  1
  Os  Os2  1  0.99153400  0.07041500  0.82333500  1
  Os  Os3  1  0.50846600  0.42958500  0.32333500  1
  Os  Os4  1  0.99153400  0.42958500  0.82333500  1
  Os  Os5  1  0.50846600  0.07041500  0.32333500  1
  Os  Os6  1  0.00846600  0.92958500  0.17666500  1
  Os  Os7  1  0.49153400  0.57041500  0.67666500  1
  Xe  Xe0  1  0.63307500  0.75000000  0.05265900  1
  Xe  Xe1  1  0.86692500  0.75000000  0.55265900  1
  Xe  Xe2  1  0.36692500  0.25000000  0.94734100  1
  Xe  Xe3  1  0.13307500  0.25000000  0.44734100  1
  O  O0  1  0.92628700  0.43747700  0.16106700  1
  O  O1  1  0.57371300  0.06252300  0.66106700  1
  O  O2  1  0.07371300  0.93747700  0.83893300  1
  O  O3  1  0.42628700  0.56252300  0.33893300  1
  O  O4  1  0.07371300  0.56252300  0.83893300  1
  O  O5  1  0.42628700  0.93747700  0.33893300  1
  O  O6  1  0.92628700  0.06252300  0.16106700  1
  O  O7  1  0.57371300  0.43747700  0.66106700  1
  O  O8  1  0.04825000  0.57484500  0.30444700  1
  O  O9  1  0.45175000  0.92515500  0.80444700  1
  O  O10  1  0.95175000  0.07484500  0.69555300  1
  O  O11  1  0.54825000  0.42515500  0.19555300  1
  O  O12  1  0.95175000  0.42515500  0.69555300  1
  O  O13  1  0.54825000  0.07484500  0.19555300  1
  O  O14  1  0.04825000  0.92515500  0.30444700  1
  O  O15  1  0.45175000  0.57484500  0.80444700  1
  O  O16  1  0.20881800  0.55709800  0.12534700  1
  O  O17  1  0.29118200  0.94290200  0.62534700  1
  O  O18  1  0.79118200  0.05709800  0.87465300  1
  O  O19  1  0.70881800  0.44290200  0.37465300  1
  O  O20  1  0.79118200  0.44290200  0.87465300  1
  O  O21  1  0.70881800  0.05709800  0.37465300  1
  O  O22  1  0.20881800  0.94290200  0.12534700  1
  O  O23  1  0.29118200  0.55709800  0.62534700  1
  F  F0  1  0.06484400  0.75000000  0.18329000  1
  F  F1  1  0.43515600  0.75000000  0.68329000  1
  F  F2  1  0.93515600  0.25000000  0.81671000  1
  F  F3  1  0.56484400  0.25000000  0.31671000  1
  F  F4  1  0.47378800  0.75000000  0.17003900  1
  F  F5  1  0.02621200  0.75000000  0.67003900  1
  F  F6  1  0.52621200  0.25000000  0.82996100  1
  F  F7  1  0.97378800  0.25000000  0.32996100  1
  F  F8  1  0.41119400  0.75000000  0.98128200  1
  F  F9  1  0.08880600  0.75000000  0.48128200  1
  F  F10  1  0.58880600  0.25000000  0.01871800  1
  F  F11  1  0.91119400  0.25000000  0.51871800  1
  F  F12  1  0.71170400  0.75000000  0.90922500  1
  F  F13  1  0.78829600  0.75000000  0.40922500  1
  F  F14  1  0.28829600  0.25000000  0.09077500  1
  F  F15  1  0.21170400  0.25000000  0.59077500  1
  F  F16  1  0.58625800  0.58648000  0.03683600  1
  F  F17  1  0.91374200  0.91352000  0.53683600  1
  F  F18  1  0.41374200  0.08648000  0.96316400  1
  F  F19  1  0.08625800  0.41352000  0.46316400  1
  F  F20  1  0.41374200  0.41352000  0.96316400  1
  F  F21  1  0.08625800  0.08648000  0.46316400  1
  F  F22  1  0.58625800  0.91352000  0.03683600  1
  F  F23  1  0.91374200  0.58648000  0.53683600  1
  F  F24  1  0.77571800  0.63579800  0.20475900  1
  F  F25  1  0.72428200  0.86420200  0.70475900  1
  F  F26  1  0.22428200  0.13579800  0.79524100  1
  F  F27  1  0.27571800  0.36420200  0.29524100  1
  F  F28  1  0.22428200  0.36420200  0.79524100  1
  F  F29  1  0.27571800  0.13579800  0.29524100  1
  F  F30  1  0.77571800  0.86420200  0.20475900  1
  F  F31  1  0.72428200  0.63579800  0.70475900  1
  F  F32  1  0.92479900  0.62749300  0.04264300  1
  F  F33  1  0.57520100  0.87250700  0.54264300  1
  F  F34  1  0.07520100  0.12749300  0.95735700  1
  F  F35  1  0.42479900  0.37250700  0.45735700  1
  F  F36  1  0.07520100  0.37250700  0.95735700  1
  F  F37  1  0.42479900  0.12749300  0.45735700  1
  F  F38  1  0.92479900  0.87250700  0.04264300  1
  F  F39  1  0.57520100  0.62749300  0.54264300  1
loop_
_geom_bond_atom_site_label_1
_geom_bond_atom_site_label_2
_geom_bond_distance
_geom_bond_site_symmetry_2
O0 Os0 1.712949 1_655
O1 Os1 1.712949 1_545
O2 Os2 1.712949 1_465
O3 Os3 1.712949 1_555
O4 Os4 1.712949 1_455
O5 Os5 1.712949 1_565
O6 Os6 1.712949 1_645
O7 Os7 1.712949 1_555
O8 Os0 1.712593 1_555
O9 Os1 1.712593 1_555
O10 Os2 1.712593 1_555
O11 Os3 1.712593 1_555
O12 Os4 1.712593 1_555
O13 Os5 1.712593 1_555
O14 Os6 1.712593 1_555
O15 Os7 1.712593 1_555
O16 Os0 1.717986 1_555
O17 Os1 1.717986 1_555
O18 Os2 1.717986 1_555
O19 Os3 1.717986 1_555
O20 Os4 1.717986 1_555
O21 Os5 1.717986 1_555
O22 Os6 1.717986 1_555
O23 Os7 1.717986 1_555
F0 Os0 2.173135 1_555
F0 Os6 2.173135 1_555
F1 Os1 2.173135 1_555
F1 Os7 2.173135 1_555
F2 Os4 2.173135 1_555
F2 Os2 2.173135 1_555
F3 Os3 2.173135 1_555
F3 Os5 2.173135 1_555
F4 Xe0 1.987831 1_555
F5 Xe1 1.987831 1_455
F6 Xe2 1.987831 1_555
F7 Xe3 1.987831 1_655
F8 Xe0 1.978106 1_556
F9 Xe1 1.978106 1_455
F10 Xe2 1.978106 1_554
F11 Xe3 1.978106 1_655
F12 Xe0 1.987391 1_556
F13 Xe1 1.987391 1_555
F14 Xe2 1.987391 1_554
F15 Xe3 1.987391 1_555
F16 Xe0 1.981220 1_555
F17 Xe1 1.981220 1_555
F18 Xe2 1.981220 1_555
F19 Xe3 1.981220 1_555
F20 Xe2 1.981220 1_555
F21 Xe3 1.981220 1_555
F22 Xe0 1.981220 1_555
F23 Xe1 1.981220 1_555
F24 Os0 2.017168 1_655
F25 Os1 2.017168 1_555
F26 Os2 2.017168 1_455
F27 Os3 2.017168 1_555
F28 Os4 2.017168 1_455
F29 Os5 2.017168 1_555
F30 Os6 2.017168 1_655
F31 Os7 2.017168 1_555
F32 Os0 2.000875 1_655
F33 Os1 2.000875 1_555
F34 Os2 2.000875 1_455
F35 Os3 2.000875 1_555
F36 Os4 2.000875 1_455
F37 Os5 2.000875 1_555
F38 Os6 2.000875 1_655
F39 Os7 2.000875 1_555
