# generated using pymatgen
data_RbMg30CrO32
_symmetry_space_group_name_H-M   'P 1'
_cell_length_a   8.61876100
_cell_length_b   8.61876100
_cell_length_c   8.61981800
_cell_angle_alpha   90.00000000
_cell_angle_beta   90.00000000
_cell_angle_gamma   90.00000000
_symmetry_Int_Tables_number   1
_chemical_formula_structural   RbMg30CrO32
_chemical_formula_sum   'Rb1 Mg30 Cr1 O32'
_cell_volume   640.30629542
_cell_formula_units_Z   1
loop_
 _symmetry_equiv_pos_site_id
 _symmetry_equiv_pos_as_xyz
  1  'x, y, z'
loop_
 _atom_site_type_symbol
 _atom_site_label
 _atom_site_symmetry_multiplicity
 _atom_site_fract_x
 _atom_site_fract_y
 _atom_site_fract_z
 _atom_site_occupancy
  Rb  Rb0  1  0.00000000  0.00000000  0.00000000  1
  Mg  Mg0  1  0.00000000  0.50000000  0.00000000  1
  Mg  Mg1  1  0.50000000  0.00000000  0.00000000  1
  Mg  Mg2  1  0.00000000  0.00000000  0.50000000  1
  Mg  Mg3  1  0.00000000  0.50000000  0.50000000  1
  Mg  Mg4  1  0.50000000  0.00000000  0.50000000  1
  Mg  Mg5  1  0.50000000  0.50000000  0.50000000  1
  Mg  Mg6  1  0.25049000  0.25049000  0.00000000  1
  Mg  Mg7  1  0.25049000  0.74951000  0.00000000  1
  Mg  Mg8  1  0.74951000  0.25049000  0.00000000  1
  Mg  Mg9  1  0.74951000  0.74951000  0.00000000  1
  Mg  Mg10  1  0.24909900  0.24909900  0.50000000  1
  Mg  Mg11  1  0.24909900  0.75090100  0.50000000  1
  Mg  Mg12  1  0.75090100  0.24909900  0.50000000  1
  Mg  Mg13  1  0.75090100  0.75090100  0.50000000  1
  Mg  Mg14  1  0.00000000  0.25174700  0.25305200  1
  Mg  Mg15  1  0.00000000  0.74825300  0.25305200  1
  Mg  Mg16  1  0.50000000  0.24789700  0.25119100  1
  Mg  Mg17  1  0.50000000  0.75210300  0.25119100  1
  Mg  Mg18  1  0.00000000  0.25174700  0.74694800  1
  Mg  Mg19  1  0.00000000  0.74825300  0.74694800  1
  Mg  Mg20  1  0.50000000  0.24789700  0.74880900  1
  Mg  Mg21  1  0.50000000  0.75210300  0.74880900  1
  Mg  Mg22  1  0.25174700  0.00000000  0.25305200  1
  Mg  Mg23  1  0.24789700  0.50000000  0.25119100  1
  Mg  Mg24  1  0.74825300  0.00000000  0.25305200  1
  Mg  Mg25  1  0.75210300  0.50000000  0.25119100  1
  Mg  Mg26  1  0.25174700  0.00000000  0.74694800  1
  Mg  Mg27  1  0.24789700  0.50000000  0.74880900  1
  Mg  Mg28  1  0.74825300  0.00000000  0.74694800  1
  Mg  Mg29  1  0.75210300  0.50000000  0.74880900  1
  Cr  Cr0  1  0.50000000  0.50000000  0.00000000  1
  O  O0  1  0.00000000  0.00000000  0.27887200  1
  O  O1  1  0.00000000  0.50000000  0.25413200  1
  O  O2  1  0.50000000  0.00000000  0.25413200  1
  O  O3  1  0.50000000  0.50000000  0.24221700  1
  O  O4  1  0.00000000  0.00000000  0.72112800  1
  O  O5  1  0.00000000  0.50000000  0.74586800  1
  O  O6  1  0.50000000  0.00000000  0.74586800  1
  O  O7  1  0.50000000  0.50000000  0.75778300  1
  O  O8  1  0.25048300  0.25048300  0.24895800  1
  O  O9  1  0.25048300  0.74951700  0.24895800  1
  O  O10  1  0.74951700  0.25048300  0.24895800  1
  O  O11  1  0.74951700  0.74951700  0.24895800  1
  O  O12  1  0.25048300  0.25048300  0.75104200  1
  O  O13  1  0.25048300  0.74951700  0.75104200  1
  O  O14  1  0.74951700  0.25048300  0.75104200  1
  O  O15  1  0.74951700  0.74951700  0.75104200  1
  O  O16  1  0.00000000  0.27981000  0.00000000  1
  O  O17  1  0.00000000  0.72019000  0.00000000  1
  O  O18  1  0.50000000  0.26266400  0.00000000  1
  O  O19  1  0.50000000  0.73733600  0.00000000  1
  O  O20  1  0.00000000  0.25637700  0.50000000  1
  O  O21  1  0.00000000  0.74362300  0.50000000  1
  O  O22  1  0.50000000  0.25401200  0.50000000  1
  O  O23  1  0.50000000  0.74598800  0.50000000  1
  O  O24  1  0.27981000  0.00000000  0.00000000  1
  O  O25  1  0.26266400  0.50000000  0.00000000  1
  O  O26  1  0.72019000  0.00000000  0.00000000  1
  O  O27  1  0.73733600  0.50000000  0.00000000  1
  O  O28  1  0.25637700  0.00000000  0.50000000  1
  O  O29  1  0.25401200  0.50000000  0.50000000  1
  O  O30  1  0.74362300  0.00000000  0.50000000  1
  O  O31  1  0.74598800  0.50000000  0.50000000  1
loop_
_geom_bond_atom_site_label_1
_geom_bond_atom_site_label_2
_geom_bond_distance
_geom_bond_site_symmetry_2
Mg0 O17 1.897765 1_555
Mg0 O16 1.897765 1_555
Mg0 O5 2.190572 1_554
Mg0 O1 2.190572 1_555
Mg0 O25 2.263838 1_555
Mg0 O27 2.263838 1_455
Mg1 O24 1.897765 1_555
Mg1 O26 1.897765 1_555
Mg1 O6 2.190572 1_554
Mg1 O2 2.190572 1_555
Mg1 O19 2.263838 1_545
Mg1 O18 2.263838 1_555
Mg2 O0 1.906083 1_555
Mg2 O4 1.906083 1_555
Mg2 O30 2.209652 1_455
Mg2 O21 2.209652 1_545
Mg2 O20 2.209652 1_555
Mg2 O28 2.209652 1_555
Mg3 O20 2.099728 1_555
Mg3 O21 2.099728 1_555
Mg3 O1 2.119337 1_555
Mg3 O5 2.119337 1_555
Mg3 O31 2.189269 1_455
Mg3 O29 2.189269 1_555
Mg4 O28 2.099728 1_555
Mg4 O30 2.099728 1_555
Mg4 O2 2.119337 1_555
Mg4 O6 2.119337 1_555
Mg4 O23 2.189269 1_545
Mg4 O22 2.189269 1_555
Mg5 O29 2.120112 1_555
Mg5 O31 2.120112 1_555
Mg5 O22 2.120112 1_555
Mg5 O23 2.120112 1_555
Mg5 O3 2.222043 1_555
Mg5 O7 2.222043 1_555
Mg6 O12 2.145973 1_554
Mg6 O8 2.145973 1_555
Mg6 O18 2.153025 1_555
Mg6 O25 2.153025 1_555
Mg6 O24 2.173653 1_555
Mg6 O16 2.173653 1_555
Mg7 O9 2.145973 1_555
Mg7 O13 2.145973 1_554
Mg7 O19 2.153025 1_555
Mg7 O25 2.153025 1_555
Mg7 O17 2.173653 1_555
Mg7 O24 2.173653 1_565
Mg8 O10 2.145973 1_555
Mg8 O14 2.145973 1_554
Mg8 O18 2.153025 1_555
Mg8 O27 2.153025 1_555
Mg8 O26 2.173653 1_555
Mg8 O16 2.173653 1_655
Mg9 O15 2.145973 1_554
Mg9 O11 2.145973 1_555
Mg9 O19 2.153025 1_555
Mg9 O27 2.153025 1_555
Mg9 O17 2.173653 1_655
Mg9 O26 2.173653 1_565
Mg10 O28 2.147841 1_555
Mg10 O20 2.147841 1_555
Mg10 O29 2.162870 1_555
Mg10 O22 2.162870 1_555
Mg10 O12 2.164002 1_555
Mg10 O8 2.164002 1_555
Mg11 O28 2.147841 1_565
Mg11 O21 2.147841 1_555
Mg11 O23 2.162870 1_555
Mg11 O29 2.162870 1_555
Mg11 O9 2.164002 1_555
Mg11 O13 2.164002 1_555
Mg12 O20 2.147841 1_655
Mg12 O30 2.147841 1_555
Mg12 O22 2.162870 1_555
Mg12 O31 2.162870 1_555
Mg12 O14 2.164002 1_555
Mg12 O10 2.164002 1_555
Mg13 O30 2.147841 1_565
Mg13 O21 2.147841 1_655
Mg13 O23 2.162870 1_555
Mg13 O31 2.162870 1_555
Mg13 O11 2.164002 1_555
Mg13 O15 2.164002 1_555
Mg14 O20 2.129021 1_555
Mg14 O1 2.139654 1_555
Mg14 O8 2.159169 1_555
Mg14 O10 2.159169 1_455
Mg14 O0 2.181132 1_555
Mg14 O16 2.194631 1_555
Mg15 O21 2.129021 1_555
Mg15 O1 2.139654 1_555
Mg15 O9 2.159169 1_555
Mg15 O11 2.159169 1_455
Mg15 O0 2.181132 1_565
Mg15 O17 2.194631 1_555
Mg16 O2 2.136715 1_555
Mg16 O22 2.145336 1_555
Mg16 O10 2.150729 1_555
Mg16 O8 2.150729 1_555
Mg16 O18 2.168958 1_555
Mg16 O3 2.174192 1_555
Mg17 O2 2.136715 1_565
Mg17 O23 2.145336 1_555
Mg17 O9 2.150729 1_555
Mg17 O11 2.150729 1_555
Mg17 O19 2.168958 1_555
Mg17 O3 2.174192 1_555
Mg18 O20 2.129021 1_555
Mg18 O5 2.139654 1_555
Mg18 O12 2.159169 1_555
Mg18 O14 2.159169 1_455
Mg18 O4 2.181132 1_555
Mg18 O16 2.194631 1_556
Mg19 O21 2.129021 1_555
Mg19 O5 2.139654 1_555
Mg19 O15 2.159169 1_455
Mg19 O13 2.159169 1_555
Mg19 O4 2.181132 1_565
Mg19 O17 2.194631 1_556
Mg20 O6 2.136715 1_555
Mg20 O22 2.145336 1_555
Mg20 O12 2.150729 1_555
Mg20 O14 2.150729 1_555
Mg20 O18 2.168958 1_556
Mg20 O7 2.174192 1_555
Mg21 O6 2.136715 1_565
Mg21 O23 2.145336 1_555
Mg21 O15 2.150729 1_555
Mg21 O13 2.150729 1_555
Mg21 O19 2.168958 1_556
Mg21 O7 2.174192 1_555
Mg22 O28 2.129021 1_555
Mg22 O2 2.139654 1_555
Mg22 O9 2.159169 1_545
Mg22 O8 2.159169 1_555
Mg22 O0 2.181132 1_555
Mg22 O24 2.194631 1_555
Mg23 O1 2.136715 1_555
Mg23 O29 2.145336 1_555
Mg23 O8 2.150729 1_555
Mg23 O9 2.150729 1_555
Mg23 O25 2.168958 1_555
Mg23 O3 2.174192 1_555
Mg24 O30 2.129021 1_555
Mg24 O2 2.139654 1_555
Mg24 O10 2.159169 1_555
Mg24 O11 2.159169 1_545
Mg24 O0 2.181132 1_655
Mg24 O26 2.194631 1_555
Mg25 O1 2.136715 1_655
Mg25 O31 2.145336 1_555
Mg25 O11 2.150729 1_555
Mg25 O10 2.150729 1_555
Mg25 O27 2.168958 1_555
Mg25 O3 2.174192 1_555
Mg26 O28 2.129021 1_555
Mg26 O6 2.139654 1_555
Mg26 O12 2.159169 1_555
Mg26 O13 2.159169 1_545
Mg26 O4 2.181132 1_555
Mg26 O24 2.194631 1_556
Mg27 O5 2.136715 1_555
Mg27 O29 2.145336 1_555
Mg27 O13 2.150729 1_555
Mg27 O12 2.150729 1_555
Mg27 O25 2.168958 1_556
Mg27 O7 2.174192 1_555
Mg28 O30 2.129021 1_555
Mg28 O6 2.139654 1_555
Mg28 O14 2.159169 1_555
Mg28 O15 2.159169 1_545
Mg28 O4 2.181132 1_655
Mg28 O26 2.194631 1_556
Mg29 O5 2.136715 1_655
Mg29 O31 2.145336 1_555
Mg29 O14 2.150729 1_555
Mg29 O15 2.150729 1_555
Mg29 O27 2.168958 1_556
Mg29 O7 2.174192 1_555
Cr0 O27 2.045542 1_555
Cr0 O25 2.045542 1_555
Cr0 O18 2.045542 1_555
Cr0 O19 2.045542 1_555
Cr0 O7 2.087866 1_554
Cr0 O3 2.087866 1_555
O0 Rb0 2.403826 1_555
O4 Rb0 2.403826 1_556
O16 Rb0 2.411616 1_555
O17 Rb0 2.411616 1_565
O24 Rb0 2.411616 1_555
O26 Rb0 2.411616 1_655
