# generated using pymatgen
data_TeMo2Se2S
_symmetry_space_group_name_H-M   'P 1'
_cell_length_a   3.34464119
_cell_length_b   3.34464119
_cell_length_c   38.00496100
_cell_angle_alpha   90.00000000
_cell_angle_beta   90.00000000
_cell_angle_gamma   119.99998392
_symmetry_Int_Tables_number   1
_chemical_formula_structural   TeMo2Se2S
_chemical_formula_sum   'Te2 Mo4 Se4 S2'
_cell_volume   368.18836494
_cell_formula_units_Z   2
loop_
 _symmetry_equiv_pos_site_id
 _symmetry_equiv_pos_as_xyz
  1  'x, y, z'
loop_
 _atom_site_type_symbol
 _atom_site_label
 _atom_site_symmetry_multiplicity
 _atom_site_fract_x
 _atom_site_fract_y
 _atom_site_fract_z
 _atom_site_occupancy
  Te  Te0  1  0.33333300  0.66666700  0.70743600  1
  Te  Te1  1  0.33333300  0.66666700  0.60767400  1
  Mo  Mo0  1  0.33333300  0.66666700  0.09391000  1
  Mo  Mo1  1  0.33333300  0.66666700  0.46963400  1
  Mo  Mo2  1  0.66666700  0.33333300  0.28179200  1
  Mo  Mo3  1  0.66666700  0.33333300  0.65758000  1
  Se  Se0  1  0.66666700  0.33333300  0.05011000  1
  Se  Se1  1  0.66666700  0.33333300  0.42581700  1
  Se  Se2  1  0.66666700  0.33333300  0.13774100  1
  Se  Se3  1  0.66666700  0.33333300  0.51345900  1
  S  S0  1  0.33333300  0.66666700  0.32176200  1
  S  S1  1  0.33333300  0.66666700  0.24183400  1
loop_
_geom_bond_atom_site_label_1
_geom_bond_atom_site_label_2
_geom_bond_distance
_geom_bond_site_symmetry_2
Mo0 Se0 2.549474 1_455
Mo0 Se0 2.549474 1_565
Mo0 Se0 2.549478 1_555
Mo0 Se2 2.550244 1_455
Mo0 Se2 2.550244 1_565
Mo0 Se2 2.550248 1_555
Mo1 Se1 2.549896 1_455
Mo1 Se1 2.549896 1_565
Mo1 Se1 2.549900 1_555
Mo1 Se3 2.550095 1_455
Mo1 Se3 2.550095 1_565
Mo1 Se3 2.550099 1_555
Mo2 S1 2.456628 1_545
Mo2 S1 2.456628 1_655
Mo2 S1 2.456632 1_555
Mo2 S0 2.456910 1_545
Mo2 S0 2.456910 1_655
Mo2 S0 2.456914 1_555
Mo3 Te0 2.705373 1_545
Mo3 Te0 2.705373 1_655
Mo3 Te0 2.705377 1_555
Mo3 Te1 2.706704 1_655
Mo3 Te1 2.706704 1_545
Mo3 Te1 2.706708 1_555
