# generated using pymatgen
data_Ba2GdMoO6
_symmetry_space_group_name_H-M   'P 1'
_cell_length_a   6.04221100
_cell_length_b   6.05383953
_cell_length_c   6.05822619
_cell_angle_alpha   119.57834519
_cell_angle_beta   119.48028717
_cell_angle_gamma   90.66726266
_symmetry_Int_Tables_number   1
_chemical_formula_structural   Ba2GdMoO6
_chemical_formula_sum   'Ba2 Gd1 Mo1 O6'
_cell_volume   158.00130671
_cell_formula_units_Z   1
loop_
 _symmetry_equiv_pos_site_id
 _symmetry_equiv_pos_as_xyz
  1  'x, y, z'
loop_
 _atom_site_type_symbol
 _atom_site_label
 _atom_site_symmetry_multiplicity
 _atom_site_fract_x
 _atom_site_fract_y
 _atom_site_fract_z
 _atom_site_occupancy
  Ba  Ba0  1  0.25328200  0.75169100  0.50266500  1
  Ba  Ba1  1  0.74671800  0.24830900  0.49733500  1
  Gd  Gd0  1  0.00000000  0.00000000  0.00000000  1
  Mo  Mo0  1  0.50000000  0.50000000  0.00000000  1
  O  O0  1  0.72370400  0.73477400  0.47364500  1
  O  O1  1  0.27629600  0.26522600  0.52635500  1
  O  O2  1  0.75892900  0.28692600  0.00894200  1
  O  O3  1  0.24107100  0.71307400  0.99105800  1
  O  O4  1  0.71337600  0.75996800  0.01304400  1
  O  O5  1  0.28662400  0.24003200  0.98695600  1
loop_
_geom_bond_atom_site_label_1
_geom_bond_atom_site_label_2
_geom_bond_distance
_geom_bond_site_symmetry_2
Ba0 O5 2.868794 1_565
Ba0 O2 2.913330 1_455
Ba0 O0 2.932819 1_555
Ba0 O4 2.945293 1_556
Ba0 O3 2.953939 1_554
Ba0 O1 3.019935 1_555
Ba0 O1 3.038872 1_565
Ba0 O0 3.114667 1_455
Ba0 O3 3.116393 1_555
Ba0 O2 3.158444 1_566
Ba0 O4 3.173265 1_455
Ba0 O5 3.236730 1_554
Ba1 O4 2.868794 1_545
Ba1 O3 2.913330 1_655
Ba1 O1 2.932819 1_555
Ba1 O5 2.945293 1_554
Ba1 O2 2.953939 1_556
Ba1 O0 3.019935 1_555
Ba1 O0 3.038872 1_545
Ba1 O1 3.114667 1_655
Ba1 O2 3.116393 1_555
Ba1 O3 3.158444 1_544
Ba1 O5 3.173265 1_655
Ba1 O4 3.236730 1_556
Gd0 O1 2.275244 1_555
Gd0 O0 2.275244 1_444
Gd0 O2 2.277170 1_455
Gd0 O3 2.277170 1_544
Gd0 O4 2.303588 1_445
Gd0 O5 2.303588 1_554
Mo0 O4 1.968499 1_555
Mo0 O5 1.968499 1_554
Mo0 O3 2.036433 1_554
Mo0 O2 2.036433 1_555
Mo0 O0 2.047533 1_555
Mo0 O1 2.047533 1_554
