# generated using pymatgen
data_Mn(N2O5)2
_symmetry_space_group_name_H-M   'P 1'
_cell_length_a   9.66360700
_cell_length_b   10.51209000
_cell_length_c   16.22166900
_cell_angle_alpha   90.00000000
_cell_angle_beta   90.00000000
_cell_angle_gamma   90.00000000
_symmetry_Int_Tables_number   1
_chemical_formula_structural   Mn(N2O5)2
_chemical_formula_sum   'Mn8 N32 O80'
_cell_volume   1647.87348445
_cell_formula_units_Z   8
loop_
 _symmetry_equiv_pos_site_id
 _symmetry_equiv_pos_as_xyz
  1  'x, y, z'
loop_
 _atom_site_type_symbol
 _atom_site_label
 _atom_site_symmetry_multiplicity
 _atom_site_fract_x
 _atom_site_fract_y
 _atom_site_fract_z
 _atom_site_occupancy
  Mn  Mn0  1  0.13400500  0.93389300  0.03557400  1
  Mn  Mn1  1  0.86599500  0.43389300  0.96442600  1
  Mn  Mn2  1  0.36599500  0.43389300  0.03557400  1
  Mn  Mn3  1  0.63400500  0.93389300  0.96442600  1
  Mn  Mn4  1  0.85554300  0.75925300  0.46393200  1
  Mn  Mn5  1  0.14445700  0.25925300  0.53606800  1
  Mn  Mn6  1  0.64445700  0.25925300  0.46393200  1
  Mn  Mn7  1  0.35554300  0.75925300  0.53606800  1
  N  N0  1  0.72424400  0.74050700  0.21022400  1
  N  N1  1  0.27575600  0.24050700  0.78977600  1
  N  N2  1  0.77575600  0.24050700  0.21022400  1
  N  N3  1  0.22424400  0.74050700  0.78977600  1
  N  N4  1  0.69298600  0.59069100  0.70404300  1
  N  N5  1  0.30701400  0.09069100  0.29595700  1
  N  N6  1  0.80701400  0.09069100  0.70404300  1
  N  N7  1  0.19298600  0.59069100  0.29595700  1
  N  N8  1  0.91185500  0.95191700  0.88771300  1
  N  N9  1  0.08814500  0.45191700  0.11228700  1
  N  N10  1  0.58814500  0.45191700  0.88771300  1
  N  N11  1  0.41185500  0.95191700  0.11228700  1
  N  N12  1  0.24600900  0.69391200  0.99093600  1
  N  N13  1  0.75399100  0.19391200  0.00906400  1
  N  N14  1  0.25399100  0.19391200  0.99093600  1
  N  N15  1  0.74600900  0.69391200  0.00906400  1
  N  N16  1  0.93850100  0.93973100  0.15744000  1
  N  N17  1  0.06149900  0.43973100  0.84256000  1
  N  N18  1  0.56149900  0.43973100  0.15744000  1
  N  N19  1  0.43850100  0.93973100  0.84256000  1
  N  N20  1  0.07196900  0.75983900  0.61331200  1
  N  N21  1  0.92803100  0.25983900  0.38668800  1
  N  N22  1  0.42803100  0.25983900  0.61331200  1
  N  N23  1  0.57196900  0.75983900  0.38668800  1
  N  N24  1  0.73746600  0.02489300  0.52017400  1
  N  N25  1  0.26253400  0.52489300  0.47982600  1
  N  N26  1  0.76253400  0.52489300  0.52017400  1
  N  N27  1  0.23746600  0.02489300  0.47982600  1
  N  N28  1  0.03935900  0.84427100  0.34680100  1
  N  N29  1  0.96064100  0.34427100  0.65319900  1
  N  N30  1  0.46064100  0.34427100  0.34680100  1
  N  N31  1  0.53935900  0.84427100  0.65319900  1
  O  O0  1  0.93099200  0.93797200  0.96608300  1
  O  O1  1  0.06900800  0.43797200  0.03391700  1
  O  O2  1  0.56900800  0.43797200  0.96608300  1
  O  O3  1  0.43099200  0.93797200  0.03391700  1
  O  O4  1  0.28571600  0.95194900  0.13691200  1
  O  O5  1  0.71428400  0.45194900  0.86308800  1
  O  O6  1  0.21428400  0.45194900  0.13691200  1
  O  O7  1  0.78571600  0.95194900  0.86308800  1
  O  O8  1  0.00853200  0.96514300  0.83888100  1
  O  O9  1  0.99146800  0.46514300  0.16111900  1
  O  O10  1  0.49146800  0.46514300  0.83888100  1
  O  O11  1  0.50853200  0.96514300  0.16111900  1
  O  O12  1  0.19612200  0.78157100  0.94431100  1
  O  O13  1  0.80387800  0.28157100  0.05568900  1
  O  O14  1  0.30387800  0.28157100  0.94431100  1
  O  O15  1  0.69612200  0.78157100  0.05568900  1
  O  O16  1  0.19710700  0.09826500  0.95737400  1
  O  O17  1  0.80289300  0.59826500  0.04262600  1
  O  O18  1  0.30289300  0.59826500  0.95737400  1
  O  O19  1  0.69710700  0.09826500  0.04262600  1
  O  O20  1  0.23738700  0.70610100  0.06716200  1
  O  O21  1  0.76261300  0.20610100  0.93283800  1
  O  O22  1  0.26261300  0.20610100  0.06716200  1
  O  O23  1  0.73738700  0.70610100  0.93283800  1
  O  O24  1  0.98683300  0.83814500  0.12584100  1
  O  O25  1  0.01316700  0.33814500  0.87415900  1
  O  O26  1  0.51316700  0.33814500  0.12584100  1
  O  O27  1  0.48683300  0.83814500  0.87415900  1
  O  O28  1  0.98791200  0.04562100  0.13454000  1
  O  O29  1  0.01208800  0.54562100  0.86546000  1
  O  O30  1  0.51208800  0.54562100  0.13454000  1
  O  O31  1  0.48791200  0.04562100  0.86546000  1
  O  O32  1  0.84333400  0.93458400  0.21063600  1
  O  O33  1  0.15666600  0.43458400  0.78936400  1
  O  O34  1  0.65666600  0.43458400  0.21063600  1
  O  O35  1  0.34333400  0.93458400  0.78936400  1
  O  O36  1  0.05301400  0.74881900  0.53500900  1
  O  O37  1  0.94698600  0.24881900  0.46499100  1
  O  O38  1  0.44698600  0.24881900  0.53500900  1
  O  O39  1  0.55301400  0.74881900  0.46499100  1
  O  O40  1  0.69985800  0.76533000  0.36338500  1
  O  O41  1  0.30014200  0.26533000  0.63661500  1
  O  O42  1  0.80014200  0.26533000  0.36338500  1
  O  O43  1  0.19985800  0.76533000  0.63661500  1
  O  O44  1  0.97724700  0.76495900  0.66343200  1
  O  O45  1  0.02275300  0.26495900  0.33656800  1
  O  O46  1  0.52275300  0.26495900  0.66343200  1
  O  O47  1  0.47724700  0.76495900  0.33656800  1
  O  O48  1  0.79187300  0.92251000  0.54325200  1
  O  O49  1  0.20812700  0.42251000  0.45674800  1
  O  O50  1  0.70812700  0.42251000  0.54325200  1
  O  O51  1  0.29187300  0.92251000  0.45674800  1
  O  O52  1  0.76675100  0.62071000  0.56912100  1
  O  O53  1  0.23324900  0.12071000  0.43087900  1
  O  O54  1  0.73324900  0.12071000  0.56912100  1
  O  O55  1  0.26675100  0.62071000  0.43087900  1
  O  O56  1  0.81466700  0.54007200  0.44947600  1
  O  O57  1  0.18533300  0.04007200  0.55052400  1
  O  O58  1  0.68533300  0.04007200  0.44947600  1
  O  O59  1  0.31466700  0.54007200  0.55052400  1
  O  O60  1  0.97869100  0.91902000  0.39657500  1
  O  O61  1  0.02130900  0.41902000  0.60342500  1
  O  O62  1  0.52130900  0.41902000  0.39657500  1
  O  O63  1  0.47869100  0.91902000  0.60342500  1
  O  O64  1  0.00428200  0.72499700  0.35166500  1
  O  O65  1  0.99571800  0.22499700  0.64833500  1
  O  O66  1  0.49571800  0.22499700  0.35166500  1
  O  O67  1  0.50428200  0.72499700  0.64833500  1
  O  O68  1  0.12734200  0.87970200  0.29651000  1
  O  O69  1  0.87265700  0.37970200  0.70349000  1
  O  O70  1  0.37265700  0.37970200  0.29651000  1
  O  O71  1  0.62734300  0.87970200  0.70349000  1
  O  O72  1  0.70338900  0.15789900  0.20881900  1
  O  O73  1  0.29661100  0.65789900  0.79118100  1
  O  O74  1  0.79661100  0.65789900  0.20881900  1
  O  O75  1  0.20338900  0.15789900  0.79118100  1
  O  O76  1  0.75646600  0.65639400  0.74274700  1
  O  O77  1  0.24353400  0.15639400  0.25725300  1
  O  O78  1  0.74353400  0.15639400  0.74274700  1
  O  O79  1  0.25646600  0.65639400  0.25725300  1
loop_
_geom_bond_atom_site_label_1
_geom_bond_atom_site_label_2
_geom_bond_distance
_geom_bond_site_symmetry_2
Mn0 O4 2.210818 1_555
Mn0 O16 2.228596 1_564
Mn0 O12 2.261844 1_554
Mn0 O0 2.263043 1_454
Mn0 O24 2.275934 1_455
Mn0 O28 2.439234 1_465
Mn0 O20 2.644734 1_555
Mn1 O5 2.210818 1_555
Mn1 O17 2.228596 1_556
Mn1 O13 2.261844 1_556
Mn1 O1 2.263043 1_656
Mn1 O25 2.275934 1_655
Mn1 O29 2.439234 1_655
Mn1 O21 2.644734 1_555
Mn2 O6 2.210818 1_555
Mn2 O18 2.228596 1_554
Mn2 O14 2.261844 1_554
Mn2 O2 2.263043 1_554
Mn2 O26 2.275934 1_555
Mn2 O30 2.439234 1_555
Mn2 O22 2.644734 1_555
Mn3 O7 2.210818 1_555
Mn3 O19 2.228596 1_566
Mn3 O15 2.261844 1_556
Mn3 O3 2.263043 1_556
Mn3 O27 2.275934 1_555
Mn3 O31 2.439234 1_565
Mn3 O23 2.644734 1_555
Mn4 O40 2.219871 1_555
Mn4 O48 2.231462 1_555
Mn4 O36 2.232253 1_655
Mn4 O60 2.330401 1_555
Mn4 O64 2.347825 1_655
Mn4 O56 2.349398 1_555
Mn4 O52 2.401850 1_555
Mn5 O41 2.219871 1_555
Mn5 O49 2.231462 1_555
Mn5 O37 2.232253 1_455
Mn5 O61 2.330401 1_555
Mn5 O65 2.347825 1_455
Mn5 O57 2.349398 1_555
Mn5 O53 2.401850 1_555
Mn6 O42 2.219871 1_555
Mn6 O50 2.231462 1_555
Mn6 O38 2.232253 1_555
Mn6 O62 2.330401 1_555
Mn6 O66 2.347825 1_555
Mn6 O58 2.349398 1_555
Mn6 O54 2.401850 1_555
Mn7 O43 2.219871 1_555
Mn7 O51 2.231462 1_555
Mn7 O39 2.232253 1_555
Mn7 O63 2.330401 1_555
Mn7 O67 2.347825 1_555
Mn7 O59 2.349398 1_555
Mn7 O55 2.401850 1_555
N0 O74 1.115197 1_555
N1 O75 1.115197 1_555
N2 O72 1.115197 1_555
N3 O73 1.115197 1_555
N4 O76 1.116932 1_555
N5 O77 1.116932 1_555
N6 O78 1.116932 1_555
N7 O79 1.116932 1_555
N8 O8 1.232733 1_655
N8 O7 1.282741 1_555
N8 O0 1.293009 1_555
N9 O9 1.232733 1_455
N9 O6 1.282741 1_555
N9 O1 1.293009 1_555
N10 O10 1.232733 1_555
N10 O5 1.282741 1_555
N10 O2 1.293009 1_555
N11 O11 1.232733 1_555
N11 O4 1.282741 1_555
N11 O3 1.293009 1_555
N12 O20 1.245923 1_556
N12 O18 1.268665 1_555
N12 O12 1.285915 1_555
N13 O21 1.245923 1_554
N13 O19 1.268665 1_555
N13 O13 1.285915 1_555
N14 O22 1.245923 1_556
N14 O16 1.268665 1_555
N14 O14 1.285915 1_555
N15 O23 1.245923 1_554
N15 O17 1.268665 1_555
N15 O15 1.285915 1_555
N16 O32 1.262276 1_555
N16 O28 1.266901 1_565
N16 O24 1.273288 1_555
N17 O33 1.262276 1_555
N17 O29 1.266901 1_555
N17 O25 1.273288 1_555
N18 O34 1.262276 1_555
N18 O30 1.266901 1_555
N18 O26 1.273288 1_555
N19 O35 1.262276 1_555
N19 O31 1.266901 1_565
N19 O27 1.273288 1_555
N20 O44 1.225476 1_455
N20 O36 1.288563 1_555
N20 O43 1.293676 1_555
N21 O45 1.225476 1_655
N21 O37 1.288563 1_555
N21 O42 1.293676 1_555
N22 O46 1.225476 1_555
N22 O38 1.288563 1_555
N22 O41 1.293676 1_555
N23 O47 1.225476 1_555
N23 O39 1.288563 1_555
N23 O40 1.293676 1_555
N24 O48 1.254956 1_545
N24 O58 1.262739 1_555
N24 O54 1.283209 1_555
N25 O49 1.254956 1_555
N25 O59 1.262739 1_555
N25 O55 1.283209 1_555
N26 O50 1.254956 1_555
N26 O56 1.262739 1_555
N26 O52 1.283209 1_555
N27 O51 1.254956 1_545
N27 O57 1.262739 1_555
N27 O53 1.283209 1_555
N28 O68 1.235781 1_555
N28 O60 1.270067 1_455
N28 O64 1.301226 1_555
N29 O69 1.235788 1_555
N29 O61 1.270067 1_655
N29 O65 1.301226 1_555
N30 O70 1.235788 1_555
N30 O62 1.270067 1_555
N30 O66 1.301226 1_555
N31 O71 1.235788 1_555
N31 O63 1.270067 1_555
N31 O67 1.301226 1_555
