# generated using pymatgen
data_Sc7CoCl12
_symmetry_space_group_name_H-M   'P 1'
_cell_length_a   8.24023962
_cell_length_b   8.24023961
_cell_length_c   8.24024072
_cell_angle_alpha   106.84465948
_cell_angle_beta   106.84465955
_cell_angle_gamma   106.84466690
_symmetry_Int_Tables_number   1
_chemical_formula_structural   Sc7CoCl12
_chemical_formula_sum   'Sc7 Co1 Cl12'
_cell_volume   467.93838035
_cell_formula_units_Z   1
loop_
 _symmetry_equiv_pos_site_id
 _symmetry_equiv_pos_as_xyz
  1  'x, y, z'
loop_
 _atom_site_type_symbol
 _atom_site_label
 _atom_site_symmetry_multiplicity
 _atom_site_fract_x
 _atom_site_fract_y
 _atom_site_fract_z
 _atom_site_occupancy
  Sc  Sc0  1  0.97807886  0.89858550  0.68974150  1
  Sc  Sc1  1  0.89858550  0.68974150  0.97807886  1
  Sc  Sc2  1  0.68974150  0.97807886  0.89858550  1
  Sc  Sc3  1  0.02192114  0.10141450  0.31025850  1
  Sc  Sc4  1  0.10141450  0.31025850  0.02192114  1
  Sc  Sc5  1  0.31025850  0.02192114  0.10141450  1
  Sc  Sc6  1  0.50000000  0.50000000  0.50000000  1
  Co  Co0  1  0.00000000  0.00000000  -0.00000000  1
  Cl  Cl0  1  0.83180517  0.53795499  0.61474625  1
  Cl  Cl1  1  0.53795499  0.61474625  0.83180517  1
  Cl  Cl2  1  0.61474625  0.83180517  0.53795499  1
  Cl  Cl3  1  0.16819483  0.46204501  0.38525375  1
  Cl  Cl4  1  0.46204501  0.38525375  0.16819483  1
  Cl  Cl5  1  0.38525375  0.16819483  0.46204501  1
  Cl  Cl6  1  0.07085975  0.22034507  0.67724164  1
  Cl  Cl7  1  0.22034507  0.67724164  0.07085975  1
  Cl  Cl8  1  0.67724164  0.07085975  0.22034507  1
  Cl  Cl9  1  0.92914025  0.77965493  0.32275836  1
  Cl  Cl10  1  0.77965493  0.32275836  0.92914025  1
  Cl  Cl11  1  0.32275836  0.92914025  0.77965493  1
loop_
_geom_bond_atom_site_label_1
_geom_bond_atom_site_label_2
_geom_bond_distance
_geom_bond_site_symmetry_2
Co0 Sc1 2.381987 1_444
Co0 Sc4 2.381987 1_555
Co0 Sc2 2.381987 1_444
Co0 Sc5 2.381987 1_555
Co0 Sc0 2.381987 1_444
Co0 Sc3 2.381987 1_555
Cl0 Sc6 2.510414 1_555
Cl0 Sc0 2.663403 1_555
Cl0 Sc1 2.703136 1_555
Cl1 Sc6 2.510415 1_555
Cl1 Sc1 2.663403 1_555
Cl1 Sc2 2.703135 1_555
Cl2 Sc6 2.510414 1_555
Cl2 Sc2 2.663403 1_555
Cl2 Sc0 2.703135 1_555
Cl3 Sc6 2.510414 1_555
Cl3 Sc3 2.663403 1_555
Cl3 Sc4 2.703136 1_555
Cl4 Sc6 2.510415 1_555
Cl4 Sc4 2.663403 1_555
Cl4 Sc5 2.703135 1_555
Cl5 Sc6 2.510414 1_555
Cl5 Sc5 2.663403 1_555
Cl5 Sc3 2.703135 1_555
Cl6 Sc0 2.579541 1_445
Cl6 Sc4 2.633849 1_556
Cl6 Sc3 2.759426 1_555
Cl7 Sc1 2.579541 1_454
Cl7 Sc5 2.633848 1_565
Cl7 Sc4 2.759426 1_555
Cl8 Sc2 2.579541 1_544
Cl8 Sc3 2.633848 1_655
Cl8 Sc5 2.759426 1_555
Cl9 Sc3 2.579541 1_665
Cl9 Sc1 2.633849 1_554
Cl9 Sc0 2.759426 1_555
Cl10 Sc4 2.579541 1_656
Cl10 Sc2 2.633848 1_545
Cl10 Sc1 2.759426 1_555
Cl11 Sc5 2.579541 1_566
Cl11 Sc0 2.633848 1_455
Cl11 Sc2 2.759426 1_555
