# generated using pymatgen
data_Er2(Ga3Ru)3
_symmetry_space_group_name_H-M   'P 1'
_cell_length_a   7.37154423
_cell_length_b   7.37154423
_cell_length_c   9.62642077
_cell_angle_alpha   90.00000000
_cell_angle_beta   90.00000000
_cell_angle_gamma   118.88780821
_symmetry_Int_Tables_number   1
_chemical_formula_structural   Er2(Ga3Ru)3
_chemical_formula_sum   'Er4 Ga18 Ru6'
_cell_volume   458.00618927
_cell_formula_units_Z   2
loop_
 _symmetry_equiv_pos_site_id
 _symmetry_equiv_pos_as_xyz
  1  'x, y, z'
loop_
 _atom_site_type_symbol
 _atom_site_label
 _atom_site_symmetry_multiplicity
 _atom_site_fract_x
 _atom_site_fract_y
 _atom_site_fract_z
 _atom_site_occupancy
  Er  Er0  1  0.99797680  0.67569674  0.25000000  1
  Er  Er1  1  0.00202320  0.32430326  0.75000000  1
  Er  Er2  1  0.67569674  0.99797680  0.25000000  1
  Er  Er3  1  0.32430326  0.00202320  0.75000000  1
  Ga  Ga0  1  0.13301908  0.13301908  0.25000000  1
  Ga  Ga1  1  0.86698092  0.86698092  0.75000000  1
  Ga  Ga2  1  0.01117013  0.33849669  0.07728228  1
  Ga  Ga3  1  0.98882987  0.66150331  0.92271772  1
  Ga  Ga4  1  0.98882987  0.66150331  0.57728228  1
  Ga  Ga5  1  0.33849669  0.01117013  0.42271772  1
  Ga  Ga6  1  0.01117013  0.33849669  0.42271772  1
  Ga  Ga7  1  0.66150331  0.98882987  0.57728228  1
  Ga  Ga8  1  0.66150331  0.98882987  0.92271772  1
  Ga  Ga9  1  0.33849669  0.01117013  0.07728228  1
  Ga  Ga10  1  0.33851650  0.33851650  0.56373400  1
  Ga  Ga11  1  0.66148350  0.66148350  0.43626600  1
  Ga  Ga12  1  0.66148350  0.66148350  0.06373400  1
  Ga  Ga13  1  0.33851650  0.33851650  0.93626600  1
  Ga  Ga14  1  0.33971313  0.55522936  0.25000000  1
  Ga  Ga15  1  0.66028687  0.44477064  0.75000000  1
  Ga  Ga16  1  0.55522936  0.33971313  0.25000000  1
  Ga  Ga17  1  0.44477064  0.66028687  0.75000000  1
  Ru  Ru0  1  0.67715421  0.32284579  -0.00000000  1
  Ru  Ru1  1  0.32284579  0.67715421  -0.00000000  1
  Ru  Ru2  1  0.32284579  0.67715421  0.50000000  1
  Ru  Ru3  1  0.67715421  0.32284579  0.50000000  1
  Ru  Ru4  1  0.00000000  0.00000000  -0.00000000  1
  Ru  Ru5  1  0.00000000  0.00000000  0.50000000  1
loop_
_geom_bond_atom_site_label_1
_geom_bond_atom_site_label_2
_geom_bond_distance
_geom_bond_site_symmetry_2
Er0 Ga16 2.996000 1_555
Er0 Ga0 3.018827 1_665
Er0 Ga11 3.021217 1_555
Er0 Ga12 3.021217 1_555
Er0 Ga5 3.030375 1_665
Er0 Ga9 3.030375 1_665
Er0 Ga2 3.030854 1_655
Er0 Ga6 3.030854 1_655
Er0 Ga14 3.048937 1_655
Er0 Ga3 3.151934 1_554
Er0 Ga4 3.151934 1_555
Er1 Ga17 2.996000 1_555
Er1 Ga1 3.018827 1_445
Er1 Ga13 3.021217 1_555
Er1 Ga10 3.021217 1_555
Er1 Ga7 3.030375 1_445
Er1 Ga8 3.030375 1_445
Er1 Ga4 3.030854 1_455
Er1 Ga3 3.030854 1_455
Er1 Ga15 3.048937 1_455
Er1 Ga2 3.151934 1_556
Er1 Ga6 3.151934 1_555
Er2 Ga14 2.996000 1_555
Er2 Ga0 3.018827 1_665
Er2 Ga11 3.021217 1_555
Er2 Ga12 3.021217 1_555
Er2 Ga2 3.030375 1_665
Er2 Ga6 3.030375 1_665
Er2 Ga9 3.030854 1_565
Er2 Ga5 3.030854 1_565
Er2 Ga16 3.048937 1_565
Er2 Ga8 3.151934 1_554
Er2 Ga7 3.151934 1_555
Er3 Ga15 2.996000 1_555
Er3 Ga1 3.018827 1_445
Er3 Ga13 3.021217 1_555
Er3 Ga10 3.021217 1_555
Er3 Ga4 3.030375 1_445
Er3 Ga3 3.030375 1_445
Er3 Ga7 3.030854 1_545
Er3 Ga8 3.030854 1_545
Er3 Ga17 3.048937 1_545
Er3 Ga9 3.151934 1_556
Er3 Ga5 3.151934 1_555
Ga0 Ru5 2.604946 1_555
Ga0 Ru4 2.604946 1_555
Ga0 Ga2 2.679553 1_555
Ga0 Ga5 2.679553 1_555
Ga0 Ga6 2.679553 1_555
Ga0 Ga9 2.679553 1_555
Ga0 Ga14 2.725139 1_555
Ga0 Ga16 2.725139 1_555
Ga1 Ru4 2.604946 1_666
Ga1 Ru5 2.604946 1_665
Ga1 Ga7 2.679553 1_555
Ga1 Ga4 2.679553 1_555
Ga1 Ga8 2.679553 1_555
Ga1 Ga3 2.679553 1_555
Ga1 Ga17 2.725139 1_555
Ga1 Ga15 2.725139 1_555
Ga2 Ru0 2.520874 1_455
Ga2 Ru1 2.553930 1_555
Ga2 Ru4 2.566704 1_555
Ga3 Ru1 2.520874 1_656
Ga3 Ru0 2.553930 1_556
Ga3 Ru4 2.566704 1_666
Ga4 Ru2 2.520874 1_655
Ga4 Ru3 2.553930 1_555
Ga4 Ru5 2.566704 1_665
Ga5 Ru2 2.520874 1_545
Ga5 Ru3 2.553930 1_555
Ga5 Ru5 2.566704 1_555
Ga6 Ru3 2.520874 1_455
Ga6 Ru2 2.553930 1_555
Ga6 Ru5 2.566704 1_555
Ga7 Ru3 2.520874 1_565
Ga7 Ru2 2.553930 1_555
Ga7 Ru5 2.566704 1_665
Ga8 Ru0 2.520874 1_566
Ga8 Ru1 2.553930 1_556
Ga8 Ru4 2.566704 1_666
Ga9 Ru1 2.520874 1_545
Ga9 Ru0 2.553930 1_555
Ga9 Ru4 2.566704 1_555
Ga10 Ru5 2.610346 1_555
Ga10 Ru2 2.626748 1_555
Ga10 Ru3 2.626748 1_555
Ga10 Ga11 2.713917 1_555
Ga10 Ga15 2.767616 1_555
Ga10 Ga17 2.767616 1_555
Ga10 Ga5 2.768613 1_555
Ga10 Ga6 2.768613 1_555
Ga11 Ru5 2.610346 1_665
Ga11 Ru2 2.626748 1_555
Ga11 Ru3 2.626748 1_555
Ga11 Ga14 2.767616 1_555
Ga11 Ga16 2.767616 1_555
Ga11 Ga4 2.768613 1_555
Ga11 Ga7 2.768613 1_555
Ga12 Ru4 2.610346 1_665
Ga12 Ru1 2.626748 1_555
Ga12 Ru0 2.626748 1_555
Ga12 Ga13 2.713917 1_554
Ga12 Ga14 2.767616 1_555
Ga12 Ga16 2.767616 1_555
Ga12 Ga3 2.768613 1_554
Ga12 Ga8 2.768613 1_554
Ga13 Ru4 2.610346 1_556
Ga13 Ru0 2.626748 1_556
Ga13 Ru1 2.626748 1_556
Ga13 Ga15 2.767616 1_555
Ga13 Ga17 2.767616 1_555
Ga13 Ga2 2.768613 1_556
Ga13 Ga9 2.768613 1_556
Ga14 Ru1 2.592871 1_555
Ga14 Ru2 2.592871 1_555
Ga14 Ga6 2.728346 1_555
Ga14 Ga2 2.728346 1_555
Ga14 Ga16 2.736139 1_555
Ga15 Ru3 2.592871 1_555
Ga15 Ru0 2.592871 1_556
Ga15 Ga4 2.728346 1_555
Ga15 Ga3 2.728346 1_555
Ga15 Ga17 2.736139 1_555
Ga16 Ru0 2.592871 1_555
Ga16 Ru3 2.592871 1_555
Ga16 Ga5 2.728346 1_555
Ga16 Ga9 2.728346 1_555
Ga17 Ru1 2.592871 1_556
Ga17 Ru2 2.592871 1_555
Ga17 Ga7 2.728346 1_555
Ga17 Ga8 2.728346 1_555
