# generated using pymatgen
data_KMnO2
_symmetry_space_group_name_H-M   'P 1'
_cell_length_a   5.81367900
_cell_length_b   7.28767235
_cell_length_c   6.53987800
_cell_angle_alpha   90.00860185
_cell_angle_beta   89.99992336
_cell_angle_gamma   113.51199998
_symmetry_Int_Tables_number   1
_chemical_formula_structural   KMnO2
_chemical_formula_sum   'K4 Mn4 O8'
_cell_volume   254.07840462
_cell_formula_units_Z   4
loop_
 _symmetry_equiv_pos_site_id
 _symmetry_equiv_pos_as_xyz
  1  'x, y, z'
loop_
 _atom_site_type_symbol
 _atom_site_label
 _atom_site_symmetry_multiplicity
 _atom_site_fract_x
 _atom_site_fract_y
 _atom_site_fract_z
 _atom_site_occupancy
  K  K0  1  0.49999500  0.49998500  0.00011300  1
  K  K1  1  0.99999500  0.49998500  0.00011300  1
  K  K2  1  0.99998500  0.99997500  0.49988100  1
  K  K3  1  0.49998500  0.99997500  0.49988100  1
  Mn  Mn0  1  0.49999500  0.49998500  0.50014100  1
  Mn  Mn1  1  0.49999500  0.00000200  0.99986900  1
  Mn  Mn2  1  0.99999700  0.49998700  0.50014200  1
  Mn  Mn3  1  0.99999300  0.99999800  0.99986900  1
  O  O0  1  0.19386900  0.38774600  0.34196300  1
  O  O1  1  0.69387800  0.38774600  0.34196300  1
  O  O2  1  0.69388000  0.88775300  0.15800400  1
  O  O3  1  0.19387100  0.88775200  0.15800500  1
  O  O4  1  0.80615700  0.61230400  0.65826100  1
  O  O5  1  0.30614800  0.61230300  0.65826100  1
  O  O6  1  0.30614600  0.11229900  0.84176600  1
  O  O7  1  0.80615400  0.11230000  0.84176600  1
loop_
_geom_bond_atom_site_label_1
_geom_bond_atom_site_label_2
_geom_bond_distance
_geom_bond_site_symmetry_2
K0 O0 2.770135 1_555
K0 O1 2.770187 1_555
K0 O4 2.770279 1_554
K0 O5 2.770351 1_554
K0 O2 2.789308 1_555
K0 O6 2.789905 1_554
K1 O1 2.770108 1_555
K1 O0 2.770159 1_655
K1 O5 2.770251 1_654
K1 O4 2.770327 1_554
K1 O3 2.789305 1_655
K1 O7 2.789898 1_554
K2 O2 2.770015 1_555
K2 O3 2.770079 1_655
K2 O6 2.770257 1_665
K2 O7 2.770299 1_565
K2 O0 2.789705 1_665
K2 O4 2.790205 1_555
K3 O3 2.770037 1_555
K3 O2 2.770109 1_555
K3 O7 2.770281 1_565
K3 O6 2.770320 1_565
K3 O1 2.789705 1_565
K3 O5 2.790212 1_555
Mn0 O4 1.935140 1_555
Mn0 O0 1.935153 1_555
Mn0 O1 1.935220 1_555
Mn0 O5 1.935237 1_555
Mn1 O3 1.935131 1_546
Mn1 O7 1.935188 1_555
Mn1 O6 1.935219 1_555
Mn1 O2 1.935259 1_546
Mn2 O5 1.935087 1_655
Mn2 O1 1.935127 1_555
Mn2 O0 1.935185 1_655
Mn2 O4 1.935198 1_555
Mn3 O2 1.935077 1_556
Mn3 O6 1.935163 1_665
Mn3 O7 1.935199 1_565
Mn3 O3 1.935217 1_656
