# generated using pymatgen
data_Mg4Si3
_symmetry_space_group_name_H-M   'P 1'
_cell_length_a   7.83859545
_cell_length_b   12.91848749
_cell_length_c   6.49039454
_cell_angle_alpha   114.96931083
_cell_angle_beta   65.97886804
_cell_angle_gamma   104.72283983
_symmetry_Int_Tables_number   1
_chemical_formula_structural   Mg4Si3
_chemical_formula_sum   'Mg16 Si12'
_cell_volume   541.51169003
_cell_formula_units_Z   4
loop_
 _symmetry_equiv_pos_site_id
 _symmetry_equiv_pos_as_xyz
  1  'x, y, z'
loop_
 _atom_site_type_symbol
 _atom_site_label
 _atom_site_symmetry_multiplicity
 _atom_site_fract_x
 _atom_site_fract_y
 _atom_site_fract_z
 _atom_site_occupancy
  Mg  Mg0  1  0.00048900  0.07839700  0.70144200  1
  Mg  Mg1  1  0.32812100  0.09169500  0.95014800  1
  Mg  Mg2  1  0.23492700  0.65410400  0.76850400  1
  Mg  Mg3  1  0.53117900  0.75040800  0.05216200  1
  Mg  Mg4  1  0.98054100  0.19889400  0.35234700  1
  Mg  Mg5  1  0.65034400  0.10969400  0.14368700  1
  Mg  Mg6  1  0.09298700  0.62423900  0.25280400  1
  Mg  Mg7  1  0.78111300  0.57874500  0.98470100  1
  Mg  Mg8  1  0.06309900  0.39211100  0.76655700  1
  Mg  Mg9  1  0.62407500  0.33218700  0.62452500  1
  Mg  Mg10  1  0.24121800  0.85284700  0.60227300  1
  Mg  Mg11  1  0.69095900  0.56527100  0.50470600  1
  Mg  Mg12  1  0.48231000  0.33838000  0.23876800  1
  Mg  Mg13  1  0.22462900  0.31419800  0.98639200  1
  Mg  Mg14  1  0.65014500  0.98005900  0.48285400  1
  Mg  Mg15  1  0.01148500  0.84115900  0.22435600  1
  Si  Si0  1  0.85234900  0.33944800  0.17498300  1
  Si  Si1  1  0.39587100  0.51243100  0.86263900  1
  Si  Si2  1  0.92672100  0.97212400  0.02655500  1
  Si  Si3  1  0.42262500  0.88635600  0.91142500  1
  Si  Si4  1  0.30692100  0.19653900  0.48855300  1
  Si  Si5  1  0.70661300  0.19794900  0.79487400  1
  Si  Si6  1  0.55284500  0.71766700  0.42109300  1
  Si  Si7  1  0.91200200  0.74906700  0.78130800  1
  Si  Si8  1  0.37491200  0.52756900  0.26305600  1
  Si  Si9  1  0.01117300  0.47615800  0.49444300  1
  Si  Si10  1  0.33319600  0.99002000  0.35210700  1
  Si  Si11  1  0.76031400  0.86815700  0.70956000  1
loop_
_geom_bond_atom_site_label_1
_geom_bond_atom_site_label_2
_geom_bond_distance
_geom_bond_site_symmetry_2
Mg0 Si4 2.687576 1_555
Mg0 Si2 2.778606 1_446
Mg0 Si10 2.785588 1_545
Mg0 Si5 2.817765 1_455
Mg0 Si11 2.892185 1_445
Mg1 Si3 2.816547 1_545
Mg1 Si5 2.892341 1_555
Mg1 Si2 3.072112 1_446
Mg1 Si4 3.117542 1_556
Mg2 Si6 2.813725 1_555
Mg2 Si1 2.838960 1_555
Mg2 Si8 2.844599 1_555
Mg2 Si3 2.923161 1_555
Mg2 Si9 2.926275 1_555
Mg2 Si7 3.039790 1_455
Mg3 Si6 2.676578 1_555
Mg3 Si3 2.718379 1_554
Mg3 Si7 2.780251 1_554
Mg3 Si1 2.881227 1_554
Mg3 Si11 2.949530 1_554
Mg4 Si5 2.802740 1_555
Mg4 Si2 2.845968 1_545
Mg4 Si4 3.038296 1_655
Mg4 Si0 3.043956 1_555
Mg5 Si10 2.733937 1_545
Mg5 Si5 2.780364 1_554
Mg5 Si2 2.811605 1_545
Mg5 Si4 2.832796 1_555
Mg5 Si0 2.953308 1_555
Mg5 Si3 3.111918 1_544
Mg5 Si11 3.222651 1_544
Mg6 Si9 2.760612 1_555
Mg6 Si1 2.809959 1_554
Mg6 Si8 2.835539 1_555
Mg6 Si7 2.984996 1_455
Mg7 Si6 2.767545 1_556
Mg7 Si7 2.799783 1_555
Mg7 Si9 2.848879 1_655
Mg7 Si8 3.015671 1_556
Mg8 Si9 2.625375 1_555
Mg8 Si0 2.757703 1_456
Mg8 Si1 2.837982 1_555
Mg8 Si4 3.014905 1_555
Mg9 Si5 2.723911 1_555
Mg9 Si0 2.760222 1_555
Mg9 Si1 2.799697 1_555
Mg9 Si4 2.880322 1_555
Mg9 Si9 3.122585 1_655
Mg10 Si7 2.631065 1_455
Mg10 Si10 2.668907 1_555
Mg10 Si3 2.740851 1_555
Mg10 Si6 2.914653 1_555
Mg10 Si2 2.975942 1_456
Mg11 Si1 2.715622 1_555
Mg11 Si6 2.793946 1_555
Mg11 Si7 2.950477 1_555
Mg11 Si9 2.982920 1_655
Mg11 Si0 3.015235 1_555
Mg12 Si4 2.699802 1_555
Mg12 Si8 2.705431 1_555
Mg12 Si0 2.755326 1_555
Mg12 Si5 2.787013 1_554
Mg13 Si0 2.712738 1_456
Mg13 Si4 2.796765 1_555
Mg13 Si8 2.846564 1_556
Mg13 Si1 2.848957 1_555
Mg13 Si9 3.084344 1_556
Mg14 Si5 2.739365 1_565
Mg14 Si2 2.847946 1_555
Mg14 Si11 2.909543 1_555
Mg14 Si10 2.979974 1_555
Mg14 Si6 3.165465 1_555
Mg14 Si3 3.176451 1_555
Mg15 Si2 2.837547 1_455
Mg15 Si11 2.879072 1_455
Mg15 Si10 2.938730 1_555
Mg15 Si7 2.959410 1_454
Mg15 Si3 3.093209 1_554
Si0 Si9 2.619254 1_655
Si0 Si5 2.856313 1_554
Si1 Si8 2.461496 1_556
Si2 Si7 2.637894 1_554
Si3 Si6 2.923968 1_555
Si6 Si8 2.515028 1_555
Si8 Si9 2.686877 1_555
Si10 Si3 2.465063 1_554
Si10 Si4 2.465871 1_565
Si11 Si7 2.446000 1_555
Si11 Si3 2.451784 1_555
Si11 Si2 2.588400 1_556
Si11 Si6 2.780023 1_555
