# generated using pymatgen
data_Li9Mn2Co5O16
_symmetry_space_group_name_H-M   'P 1'
_cell_length_a   4.97913400
_cell_length_b   5.93069007
_cell_length_c   10.22226489
_cell_angle_alpha   91.91963466
_cell_angle_beta   99.88166933
_cell_angle_gamma   103.67590101
_symmetry_Int_Tables_number   1
_chemical_formula_structural   Li9Mn2Co5O16
_chemical_formula_sum   'Li9 Mn2 Co5 O16'
_cell_volume   288.08451538
_cell_formula_units_Z   1
loop_
 _symmetry_equiv_pos_site_id
 _symmetry_equiv_pos_as_xyz
  1  'x, y, z'
loop_
 _atom_site_type_symbol
 _atom_site_label
 _atom_site_symmetry_multiplicity
 _atom_site_fract_x
 _atom_site_fract_y
 _atom_site_fract_z
 _atom_site_occupancy
  Li  Li0  1  0.50723800  0.38099200  0.13413000  1
  Li  Li1  1  0.00061000  0.24282500  0.25862900  1
  Li  Li2  1  0.00416000  0.50635500  0.99861600  1
  Li  Li3  1  0.50179400  0.12502800  0.37544800  1
  Li  Li4  1  0.99448500  0.99868600  0.49786500  1
  Li  Li5  1  0.49634300  0.87117200  0.61730200  1
  Li  Li6  1  0.00242600  0.74877400  0.74651000  1
  Li  Li7  1  0.49611200  0.62259900  0.87271500  1
  Li  Li8  1  0.50238200  0.62736300  0.37552200  1
  Mn  Mn0  1  0.99867900  0.99867800  0.00231900  1
  Mn  Mn1  1  0.50087900  0.87073000  0.13061200  1
  Co  Co0  1  0.99413500  0.74078700  0.25524800  1
  Co  Co1  1  0.00479200  0.51241600  0.49341800  1
  Co  Co2  1  0.50216700  0.37514200  0.62200900  1
  Co  Co3  1  0.00030300  0.25135500  0.74796000  1
  Co  Co4  1  0.49793500  0.12658500  0.87178300  1
  O  O0  1  0.25905200  0.06210600  0.17590300  1
  O  O1  1  0.74942900  0.92843100  0.29751300  1
  O  O2  1  0.73737300  0.15281500  0.06452500  1
  O  O3  1  0.22570900  0.80572200  0.42582900  1
  O  O4  1  0.76796200  0.66091800  0.56042800  1
  O  O5  1  0.25492100  0.55715800  0.67359000  1
  O  O6  1  0.75247000  0.41530200  0.81039500  1
  O  O7  1  0.24940000  0.30691800  0.92101900  1
  O  O8  1  0.74205200  0.68759900  0.07824300  1
  O  O9  1  0.25738800  0.60377100  0.18256900  1
  O  O10  1  0.25827800  0.82920900  0.94723600  1
  O  O11  1  0.77527900  0.44597100  0.32413200  1
  O  O12  1  0.22780100  0.32838800  0.44638400  1
  O  O13  1  0.74595000  0.19064200  0.57647800  1
  O  O14  1  0.24619800  0.08354200  0.69046800  1
  O  O15  1  0.74629900  0.94201800  0.82520300  1
loop_
_geom_bond_atom_site_label_1
_geom_bond_atom_site_label_2
_geom_bond_distance
_geom_bond_site_symmetry_2
Li0 O8 2.072059 1_555
Li0 O0 2.101482 1_555
Li0 O9 2.117376 1_555
Li0 O11 2.125792 1_555
Li0 O2 2.144559 1_555
Li0 O7 2.301347 1_554
Li1 O11 2.000410 1_455
Li1 O12 2.034433 1_555
Li1 O1 2.077589 1_445
Li1 O0 2.117709 1_555
Li1 O2 2.155327 1_455
Li1 O9 2.445426 1_555
Li2 O9 2.056332 1_556
Li2 O6 2.084912 1_455
Li2 O7 2.114660 1_555
Li2 O8 2.119079 1_456
Li2 O10 2.166318 1_555
Li2 O2 2.387381 1_456
Li3 O1 2.114041 1_545
Li3 O0 2.156480 1_555
Li3 O13 2.171991 1_555
Li3 O3 2.195093 1_545
Li3 O11 2.199746 1_555
Li3 O12 2.213719 1_555
Li4 O3 2.008715 1_655
Li4 O13 2.102232 1_565
Li4 O14 2.118683 1_665
Li4 O12 2.157450 1_665
Li4 O1 2.168327 1_555
Li4 O4 2.226876 1_555
Li5 O13 2.103828 1_565
Li5 O5 2.120121 1_555
Li5 O3 2.143355 1_555
Li5 O14 2.166891 1_565
Li5 O4 2.177312 1_555
Li5 O15 2.242123 1_555
Li6 O4 2.033824 1_455
Li6 O5 2.090004 1_555
Li6 O15 2.137381 1_455
Li6 O10 2.193290 1_555
Li6 O14 2.217796 1_565
Li6 O6 2.255744 1_455
Li7 O10 2.101746 1_555
Li7 O7 2.107271 1_555
Li7 O6 2.124916 1_555
Li7 O15 2.128326 1_555
Li7 O5 2.150303 1_555
Li7 O8 2.213975 1_556
Li8 O3 2.043746 1_555
Li8 O11 2.043996 1_555
Li8 O4 2.086483 1_555
Li8 O9 2.114954 1_555
Li8 O1 2.175004 1_555
Li8 O12 2.194888 1_555
Mn0 O2 1.933967 1_565
Mn0 O10 1.955548 1_654
Mn0 O0 1.976341 1_665
Mn0 O15 1.987138 1_554
Mn0 O8 2.227190 1_555
Mn0 O7 2.229289 1_664
Mn1 O1 1.896154 1_555
Mn1 O9 1.904814 1_555
Mn1 O8 1.925247 1_555
Mn1 O0 1.937715 1_565
Mn1 O2 2.014695 1_565
Mn1 O10 2.021096 1_554
Co0 O3 1.890326 1_655
Co0 O1 1.923358 1_555
Co0 O9 1.930768 1_655
Co0 O8 1.985917 1_555
Co0 O11 2.045807 1_555
Co0 O0 2.304649 1_665
Co1 O4 1.833938 1_455
Co1 O12 1.837513 1_555
Co1 O11 1.875747 1_455
Co1 O5 2.009303 1_555
Co1 O3 2.037101 1_555
Co1 O13 2.311893 1_455
Co2 O13 1.917065 1_555
Co2 O5 1.942134 1_555
Co2 O12 2.027789 1_555
Co2 O4 2.077747 1_555
Co2 O6 2.079319 1_555
Co2 O14 2.109466 1_555
Co3 O14 1.902340 1_555
Co3 O6 1.916135 1_455
Co3 O13 1.945882 1_455
Co3 O7 1.947062 1_555
Co3 O5 2.193258 1_555
Co3 O15 2.220660 1_445
Co4 O7 1.931854 1_555
Co4 O15 1.939440 1_545
Co4 O14 2.022661 1_555
Co4 O6 2.061734 1_555
Co4 O2 2.100714 1_556
Co4 O10 2.131001 1_545
