# generated using pymatgen
data_Zn(CoO2)2
_symmetry_space_group_name_H-M   'P 1'
_cell_length_a   5.95410372
_cell_length_b   5.95410372
_cell_length_c   14.64014700
_cell_angle_alpha   90.00000000
_cell_angle_beta   90.00000000
_cell_angle_gamma   119.99999691
_symmetry_Int_Tables_number   1
_chemical_formula_structural   Zn(CoO2)2
_chemical_formula_sum   'Zn6 Co12 O24'
_cell_volume   449.47844991
_cell_formula_units_Z   6
loop_
 _symmetry_equiv_pos_site_id
 _symmetry_equiv_pos_as_xyz
  1  'x, y, z'
loop_
 _atom_site_type_symbol
 _atom_site_label
 _atom_site_symmetry_multiplicity
 _atom_site_fract_x
 _atom_site_fract_y
 _atom_site_fract_z
 _atom_site_occupancy
  Zn  Zn0  1  0.33333300  0.66666700  0.95700200  1
  Zn  Zn1  1  0.00000000  0.00000000  0.62433900  1
  Zn  Zn2  1  0.00000000  0.00000000  0.00010400  1
  Zn  Zn3  1  0.66666700  0.33333300  0.29234000  1
  Zn  Zn4  1  0.33333300  0.66666700  0.70838800  1
  Zn  Zn5  1  0.00000000  0.00000000  0.37521700  1
  Co  Co0  1  0.83436800  0.66873600  0.83317500  1
  Co  Co1  1  0.33126400  0.16563200  0.83317500  1
  Co  Co2  1  0.49974700  0.99949400  0.49992300  1
  Co  Co3  1  0.83436800  0.16563200  0.83317500  1
  Co  Co4  1  0.66666700  0.33333300  0.66821700  1
  Co  Co5  1  0.00050600  0.50025300  0.49992300  1
  Co  Co6  1  0.16674000  0.33348000  0.16709500  1
  Co  Co7  1  0.49974700  0.50025300  0.49992300  1
  Co  Co8  1  0.16674000  0.83326000  0.16709500  1
  Co  Co9  1  0.33333300  0.66666700  0.33184300  1
  Co  Co10  1  0.66652000  0.83326000  0.16709500  1
  Co  Co11  1  0.66666700  0.33333300  0.04301800  1
  O  O0  1  0.68752900  0.84376400  0.90594300  1
  O  O1  1  0.00000000  0.00000000  0.75819400  1
  O  O2  1  0.15623600  0.84376400  0.90594300  1
  O  O3  1  0.15623600  0.31247100  0.90594300  1
  O  O4  1  0.51501900  0.03003800  0.75324800  1
  O  O5  1  0.36086300  0.18043100  0.57791700  1
  O  O6  1  0.51501900  0.48498100  0.75324800  1
  O  O7  1  0.66666700  0.33333300  0.90862400  1
  O  O8  1  0.81956900  0.18043100  0.57791700  1
  O  O9  1  0.66666700  0.33333300  0.42734200  1
  O  O10  1  0.96996200  0.48498100  0.75324800  1
  O  O11  1  0.81956900  0.63913700  0.57791700  1
  O  O12  1  0.18111500  0.36223100  0.41973600  1
  O  O13  1  0.02754000  0.51377000  0.24692300  1
  O  O14  1  0.18111500  0.81888500  0.41973600  1
  O  O15  1  0.33333300  0.66666700  0.57346900  1
  O  O16  1  0.33333300  0.66666700  0.09170600  1
  O  O17  1  0.48623000  0.51377000  0.24692300  1
  O  O18  1  0.63776900  0.81888500  0.41973600  1
  O  O19  1  0.48623000  0.97246000  0.24692300  1
  O  O20  1  0.84163100  0.68326300  0.09318100  1
  O  O21  1  0.00000000  0.00000000  0.24117700  1
  O  O22  1  0.84163100  0.15836900  0.09318100  1
  O  O23  1  0.31673700  0.15836900  0.09318100  1
loop_
_geom_bond_atom_site_label_1
_geom_bond_atom_site_label_2
_geom_bond_distance
_geom_bond_site_symmetry_2
Co0 O0 1.973957 1_555
Co0 O2 1.973961 1_655
Co0 O10 2.025189 1_555
Co0 O6 2.025189 1_555
Co0 O1 2.030451 1_665
Co0 O7 2.052118 1_555
Co1 O3 1.973957 1_555
Co1 O2 1.973961 1_545
Co1 O4 2.025189 1_555
Co1 O6 2.025189 1_555
Co1 O1 2.030451 1_555
Co1 O7 2.052118 1_555
Co2 O5 2.009751 1_565
Co2 O8 2.009755 1_565
Co2 O9 2.022958 1_565
Co2 O18 2.023277 1_555
Co2 O14 2.023281 1_555
Co2 O15 2.025993 1_555
Co3 O3 1.973961 1_655
Co3 O0 1.973961 1_545
Co3 O4 2.025189 1_555
Co3 O10 2.025189 1_555
Co3 O1 2.030451 1_655
Co3 O7 2.052113 1_555
Co4 O4 1.998878 1_555
Co4 O10 1.998878 1_555
Co4 O6 1.998882 1_555
Co4 O8 2.057705 1_555
Co4 O11 2.057705 1_555
Co4 O5 2.057705 1_555
Co5 O11 2.009751 1_455
Co5 O8 2.009755 1_455
Co5 O9 2.022958 1_455
Co5 O12 2.023277 1_555
Co5 O14 2.023281 1_555
Co5 O15 2.025993 1_555
Co6 O23 1.996706 1_555
Co6 O22 1.996710 1_455
Co6 O13 2.023561 1_555
Co6 O17 2.023562 1_555
Co6 O21 2.033021 1_555
Co6 O16 2.042022 1_555
Co7 O11 2.009755 1_555
Co7 O5 2.009755 1_555
Co7 O9 2.022963 1_555
Co7 O18 2.023281 1_555
Co7 O12 2.023281 1_555
Co7 O15 2.025997 1_555
Co8 O20 1.996710 1_455
Co8 O23 1.996710 1_565
Co8 O13 2.023561 1_555
Co8 O19 2.023561 1_555
Co8 O21 2.033021 1_565
Co8 O16 2.042017 1_555
Co9 O19 2.007965 1_555
Co9 O13 2.007965 1_555
Co9 O17 2.007969 1_555
Co9 O14 2.029785 1_555
Co9 O12 2.029785 1_555
Co9 O18 2.029785 1_555
Co10 O20 1.996706 1_555
Co10 O22 1.996710 1_565
Co10 O19 2.023561 1_555
Co10 O17 2.023562 1_555
Co10 O21 2.033021 1_665
Co10 O16 2.042022 1_555
Co11 O22 1.948098 1_555
Co11 O20 1.948108 1_555
Co11 O23 1.948108 1_555
Co11 O7 1.967548 1_554
O0 Zn0 1.973431 1_555
O0 Zn2 2.120472 1_666
O1 Zn1 1.959657 1_555
O2 Zn0 1.973421 1_555
O2 Zn2 2.120476 1_566
O3 Zn0 1.973431 1_555
O3 Zn2 2.120472 1_556
O4 Zn4 1.985456 1_545
O5 Zn1 1.980985 1_555
O6 Zn4 1.985461 1_555
O8 Zn1 1.980980 1_655
O9 Zn3 1.976449 1_555
O10 Zn4 1.985456 1_655
O11 Zn1 1.980985 1_665
O12 Zn5 1.978260 1_555
O13 Zn3 1.976034 1_455
O14 Zn5 1.978255 1_565
O15 Zn4 1.975234 1_555
O16 Zn0 1.972086 1_554
O17 Zn3 1.976039 1_555
O18 Zn5 1.978260 1_665
O19 Zn3 1.976034 1_565
O20 Zn2 2.127032 1_665
O21 Zn5 1.962365 1_555
O22 Zn2 2.127036 1_655
O23 Zn2 2.127032 1_555
