# generated using pymatgen
data_CaTi2MnO6
_symmetry_space_group_name_H-M   'P 1'
_cell_length_a   7.59888000
_cell_length_b   7.59888000
_cell_length_c   7.71094100
_cell_angle_alpha   90.00000000
_cell_angle_beta   90.00000000
_cell_angle_gamma   90.00000000
_symmetry_Int_Tables_number   1
_chemical_formula_structural   CaTi2MnO6
_chemical_formula_sum   'Ca4 Ti8 Mn4 O24'
_cell_volume   445.25269077
_cell_formula_units_Z   4
loop_
 _symmetry_equiv_pos_site_id
 _symmetry_equiv_pos_as_xyz
  1  'x, y, z'
loop_
 _atom_site_type_symbol
 _atom_site_label
 _atom_site_symmetry_multiplicity
 _atom_site_fract_x
 _atom_site_fract_y
 _atom_site_fract_z
 _atom_site_occupancy
  Ca  Ca0  1  0.50000000  0.50000000  0.54903900  1
  Ca  Ca1  1  0.50000000  0.50000000  0.04903900  1
  Ca  Ca2  1  0.00000000  0.00000000  0.49819300  1
  Ca  Ca3  1  0.00000000  0.00000000  0.99819300  1
  Ti  Ti0  1  0.75484200  0.74297200  0.78229900  1
  Ti  Ti1  1  0.24515800  0.25702800  0.78229900  1
  Ti  Ti2  1  0.25702800  0.75484200  0.28229900  1
  Ti  Ti3  1  0.74297200  0.24515800  0.28229900  1
  Ti  Ti4  1  0.24515800  0.74297200  0.78229900  1
  Ti  Ti5  1  0.75484200  0.25702800  0.78229900  1
  Ti  Ti6  1  0.74297200  0.75484200  0.28229900  1
  Ti  Ti7  1  0.25702800  0.24515800  0.28229900  1
  Mn  Mn0  1  0.50000000  0.00000000  0.57496200  1
  Mn  Mn1  1  0.00000000  0.50000000  0.07496200  1
  Mn  Mn2  1  0.50000000  0.00000000  0.02025000  1
  Mn  Mn3  1  0.00000000  0.50000000  0.52025000  1
  O  O0  1  0.50000000  0.69690000  0.80174600  1
  O  O1  1  0.50000000  0.30310000  0.80174600  1
  O  O2  1  0.30310000  0.50000000  0.30174600  1
  O  O3  1  0.69690000  0.50000000  0.30174600  1
  O  O4  1  0.00000000  0.70322100  0.32553900  1
  O  O5  1  0.00000000  0.29677900  0.32553900  1
  O  O6  1  0.29677900  0.00000000  0.82553900  1
  O  O7  1  0.70322100  0.00000000  0.82553900  1
  O  O8  1  0.00000000  0.80328200  0.73229700  1
  O  O9  1  0.00000000  0.19671800  0.73229700  1
  O  O10  1  0.19671800  0.00000000  0.23229700  1
  O  O11  1  0.80328200  0.00000000  0.23229700  1
  O  O12  1  0.50000000  0.78972100  0.20170700  1
  O  O13  1  0.50000000  0.21027900  0.20170700  1
  O  O14  1  0.21027900  0.50000000  0.70170700  1
  O  O15  1  0.78972100  0.50000000  0.70170700  1
  O  O16  1  0.69904700  0.80127700  0.51639500  1
  O  O17  1  0.30095300  0.19872300  0.51639500  1
  O  O18  1  0.19872300  0.69904700  0.01639500  1
  O  O19  1  0.80127700  0.30095300  0.01639500  1
  O  O20  1  0.30095300  0.80127700  0.51639500  1
  O  O21  1  0.69904700  0.19872300  0.51639500  1
  O  O22  1  0.80127700  0.69904700  0.01639500  1
  O  O23  1  0.19872300  0.30095300  0.01639500  1
loop_
_geom_bond_atom_site_label_1
_geom_bond_atom_site_label_2
_geom_bond_distance
_geom_bond_site_symmetry_2
Ca0 O3 2.423798 1_555
Ca0 O2 2.423798 1_555
Ca0 O1 2.456776 1_555
Ca0 O0 2.456776 1_555
Ca0 O14 2.496533 1_555
Ca0 O15 2.496533 1_555
Ca0 O21 2.755418 1_555
Ca0 O16 2.755418 1_555
Ca0 O20 2.755418 1_555
Ca0 O17 2.755418 1_555
Ca1 O0 2.423798 1_554
Ca1 O1 2.423798 1_554
Ca1 O3 2.456776 1_555
Ca1 O2 2.456776 1_555
Ca1 O12 2.496533 1_555
Ca1 O13 2.496533 1_555
Ca1 O18 2.755418 1_555
Ca1 O19 2.755418 1_555
Ca1 O22 2.755418 1_555
Ca1 O23 2.755418 1_555
Ca2 O8 2.343746 1_545
Ca2 O9 2.343746 1_555
Ca2 O11 2.537381 1_455
Ca2 O10 2.537381 1_555
Ca2 O5 2.618835 1_555
Ca2 O4 2.618835 1_545
Ca2 O17 2.744076 1_555
Ca2 O16 2.744076 1_445
Ca2 O21 2.744076 1_455
Ca2 O20 2.744076 1_545
Ca3 O11 2.343746 1_456
Ca3 O10 2.343746 1_556
Ca3 O8 2.537381 1_545
Ca3 O9 2.537381 1_555
Ca3 O6 2.618835 1_555
Ca3 O7 2.618835 1_455
Ca3 O18 2.744076 1_546
Ca3 O23 2.744076 1_556
Ca3 O22 2.744076 1_446
Ca3 O19 2.744076 1_456
Mn0 O16 2.184497 1_545
Mn0 O17 2.184497 1_555
Mn0 O21 2.184497 1_555
Mn0 O20 2.184497 1_545
Mn0 O7 2.473469 1_555
Mn0 O6 2.473469 1_555
Mn1 O23 2.184497 1_555
Mn1 O18 2.184497 1_555
Mn1 O19 2.184497 1_455
Mn1 O22 2.184497 1_455
Mn1 O4 2.473469 1_555
Mn1 O5 2.473469 1_555
Mn2 O13 2.123914 1_555
Mn2 O12 2.123914 1_545
Mn2 O6 2.153818 1_554
Mn2 O7 2.153818 1_554
Mn3 O15 2.123914 1_455
Mn3 O14 2.123914 1_555
Mn3 O4 2.153818 1_555
Mn3 O5 2.153818 1_555
O0 Ti0 1.973611 1_555
O0 Ti4 1.973611 1_555
O1 Ti1 1.973611 1_555
O1 Ti5 1.973611 1_555
O2 Ti2 1.973611 1_555
O2 Ti7 1.973611 1_555
O3 Ti6 1.973611 1_555
O3 Ti3 1.973611 1_555
O4 Ti2 2.019836 1_555
O4 Ti6 2.019836 1_455
O5 Ti7 2.019836 1_555
O5 Ti3 2.019836 1_455
O6 Ti1 2.019836 1_555
O6 Ti4 2.019836 1_545
O7 Ti5 2.019836 1_555
O7 Ti0 2.019836 1_545
O8 Ti4 1.956829 1_555
O8 Ti0 1.956829 1_455
O9 Ti5 1.956829 1_455
O9 Ti1 1.956829 1_555
O10 Ti7 1.956829 1_555
O10 Ti2 1.956829 1_545
O11 Ti3 1.956829 1_555
O11 Ti6 1.956829 1_545
O12 Ti6 1.966040 1_555
O12 Ti2 1.966040 1_555
O13 Ti3 1.966040 1_555
O13 Ti7 1.966040 1_555
O14 Ti4 1.966040 1_555
O14 Ti1 1.966040 1_555
O15 Ti0 1.966040 1_555
O15 Ti5 1.966040 1_555
O16 Ti6 1.869306 1_555
O16 Ti0 2.140110 1_555
O17 Ti7 1.869306 1_555
O17 Ti1 2.140110 1_555
O18 Ti4 1.869306 1_554
O18 Ti2 2.140110 1_555
O19 Ti5 1.869306 1_554
O19 Ti3 2.140110 1_555
O20 Ti2 1.869306 1_555
O20 Ti4 2.140110 1_555
O21 Ti3 1.869306 1_555
O21 Ti5 2.140110 1_555
O22 Ti0 1.869306 1_554
O22 Ti6 2.140110 1_555
O23 Ti1 1.869306 1_554
O23 Ti7 2.140110 1_555
