# generated using pymatgen
data_Eu5V3S6O7
_symmetry_space_group_name_H-M   'P 1'
_cell_length_a   3.73496200
_cell_length_b   10.21311300
_cell_length_c   18.00732900
_cell_angle_alpha   90.00000000
_cell_angle_beta   90.00000000
_cell_angle_gamma   90.00000000
_symmetry_Int_Tables_number   1
_chemical_formula_structural   Eu5V3S6O7
_chemical_formula_sum   'Eu10 V6 S12 O14'
_cell_volume   686.90017024
_cell_formula_units_Z   2
loop_
 _symmetry_equiv_pos_site_id
 _symmetry_equiv_pos_as_xyz
  1  'x, y, z'
loop_
 _atom_site_type_symbol
 _atom_site_label
 _atom_site_symmetry_multiplicity
 _atom_site_fract_x
 _atom_site_fract_y
 _atom_site_fract_z
 _atom_site_occupancy
  Eu  Eu0  1  0.50000000  0.46986600  0.88763200  1
  Eu  Eu1  1  0.50000000  0.46986600  0.11236800  1
  Eu  Eu2  1  0.00000000  0.53013400  0.61236800  1
  Eu  Eu3  1  0.00000000  0.53013400  0.38763200  1
  Eu  Eu4  1  0.00000000  0.72293300  0.00000000  1
  Eu  Eu5  1  0.50000000  0.27706700  0.50000000  1
  Eu  Eu6  1  0.00000000  0.08788200  0.83674300  1
  Eu  Eu7  1  0.00000000  0.08788200  0.16325700  1
  Eu  Eu8  1  0.50000000  0.91211800  0.66325700  1
  Eu  Eu9  1  0.50000000  0.91211800  0.33674300  1
  V  V0  1  0.00000000  0.74676100  0.80622200  1
  V  V1  1  0.00000000  0.74676100  0.19377800  1
  V  V2  1  0.50000000  0.25323900  0.69377800  1
  V  V3  1  0.50000000  0.25323900  0.30622200  1
  V  V4  1  0.50000000  0.18469800  0.00000000  1
  V  V5  1  0.00000000  0.81530200  0.50000000  1
  S  S0  1  0.00000000  0.35730600  0.00000000  1
  S  S1  1  0.50000000  0.64269400  0.50000000  1
  S  S2  1  0.50000000  0.64822500  0.73521300  1
  S  S3  1  0.50000000  0.64822500  0.26478700  1
  S  S4  1  0.00000000  0.35177500  0.76478700  1
  S  S5  1  0.00000000  0.35177500  0.23521300  1
  S  S6  1  0.00000000  0.03279900  0.00000000  1
  S  S7  1  0.50000000  0.96720100  0.50000000  1
  S  S8  1  0.50000000  0.85302600  0.88212900  1
  S  S9  1  0.50000000  0.85302600  0.11787100  1
  S  S10  1  0.00000000  0.14697400  0.61787100  1
  S  S11  1  0.00000000  0.14697400  0.38212900  1
  O  O0  1  0.50000000  0.59276600  0.00000000  1
  O  O1  1  0.00000000  0.40723400  0.50000000  1
  O  O2  1  0.00000000  0.61246800  0.87556100  1
  O  O3  1  0.00000000  0.61246800  0.12443900  1
  O  O4  1  0.50000000  0.38753200  0.62443900  1
  O  O5  1  0.50000000  0.38753200  0.37556100  1
  O  O6  1  0.00000000  0.89400100  0.74967300  1
  O  O7  1  0.00000000  0.89400100  0.25032700  1
  O  O8  1  0.50000000  0.10599900  0.75032700  1
  O  O9  1  0.50000000  0.10599900  0.24967300  1
  O  O10  1  0.50000000  0.20651900  0.89888700  1
  O  O11  1  0.50000000  0.20651900  0.10111300  1
  O  O12  1  0.00000000  0.79348100  0.60111300  1
  O  O13  1  0.00000000  0.79348100  0.39888700  1
loop_
_geom_bond_atom_site_label_1
_geom_bond_atom_site_label_2
_geom_bond_distance
_geom_bond_site_symmetry_2
Eu0 O2 2.378206 1_555
Eu0 O2 2.378206 1_655
Eu0 O0 2.381144 1_556
Eu0 O10 2.697218 1_555
Eu0 S0 2.983853 1_556
Eu0 S0 2.983853 1_656
Eu0 S4 3.136166 1_555
Eu0 S4 3.136166 1_655
Eu0 S2 3.294144 1_555
Eu1 O3 2.378206 1_555
Eu1 O3 2.378206 1_655
Eu1 O0 2.381144 1_555
Eu1 O11 2.697218 1_555
Eu1 S0 2.983853 1_555
Eu1 S0 2.983853 1_655
Eu1 S5 3.136166 1_555
Eu1 S5 3.136166 1_655
Eu1 S3 3.294144 1_555
Eu2 O4 2.378206 1_555
Eu2 O4 2.378206 1_455
Eu2 O1 2.381144 1_555
Eu2 O12 2.697218 1_555
Eu2 S1 2.983853 1_555
Eu2 S1 2.983853 1_455
Eu2 S2 3.136166 1_455
Eu2 S2 3.136166 1_555
Eu2 S4 3.294144 1_555
Eu3 O5 2.378206 1_455
Eu3 O5 2.378206 1_555
Eu3 O1 2.381144 1_555
Eu3 O13 2.697218 1_555
Eu3 S1 2.983853 1_555
Eu3 S1 2.983853 1_455
Eu3 S3 3.136166 1_555
Eu3 S3 3.136166 1_455
Eu3 S5 3.294144 1_555
Eu4 O0 2.292339 1_455
Eu4 O0 2.292339 1_555
Eu4 O2 2.508797 1_554
Eu4 O3 2.508797 1_555
Eu4 S8 3.123778 1_554
Eu4 S8 3.123778 1_454
Eu4 S9 3.123778 1_555
Eu4 S9 3.123778 1_455
Eu4 S6 3.164696 1_565
Eu5 O1 2.292339 1_555
Eu5 O1 2.292339 1_655
Eu5 O4 2.508797 1_555
Eu5 O5 2.508797 1_555
Eu5 S10 3.123778 1_555
Eu5 S10 3.123778 1_655
Eu5 S11 3.123778 1_655
Eu5 S11 3.123778 1_555
Eu5 S7 3.164696 1_545
Eu6 O8 2.437875 1_455
Eu6 O8 2.437875 1_555
Eu6 O10 2.491557 1_455
Eu6 O10 2.491557 1_555
Eu6 O6 2.525711 1_545
Eu6 S4 2.990463 1_555
Eu6 S6 2.993166 1_556
Eu6 S8 3.147819 1_545
Eu6 S8 3.147819 1_445
Eu7 O9 2.437875 1_455
Eu7 O9 2.437875 1_555
Eu7 O11 2.491557 1_555
Eu7 O11 2.491557 1_455
Eu7 O7 2.525711 1_545
Eu7 S5 2.990463 1_555
Eu7 S6 2.993166 1_555
Eu7 S9 3.147819 1_445
Eu7 S9 3.147819 1_545
Eu8 O6 2.437875 1_555
Eu8 O6 2.437875 1_655
Eu8 O12 2.491557 1_555
Eu8 O12 2.491557 1_655
Eu8 O8 2.525711 1_565
Eu8 S2 2.990463 1_555
Eu8 S7 2.993166 1_555
Eu8 S10 3.147819 1_665
Eu8 S10 3.147819 1_565
Eu9 O7 2.437875 1_655
Eu9 O7 2.437875 1_555
Eu9 O13 2.491557 1_555
Eu9 O13 2.491557 1_655
Eu9 O9 2.525711 1_565
Eu9 S3 2.990463 1_555
Eu9 S7 2.993166 1_555
Eu9 S11 3.147819 1_565
Eu9 S11 3.147819 1_665
S0 V4 2.568108 1_555
S0 V4 2.568108 1_455
S1 V5 2.568108 1_655
S1 V5 2.568108 1_555
S2 V0 2.476948 1_655
S2 V0 2.476948 1_555
S3 V1 2.476948 1_555
S3 V1 2.476948 1_655
S4 V2 2.476948 1_455
S4 V2 2.476948 1_555
S5 V3 2.476948 1_455
S5 V3 2.476948 1_555
S6 V4 2.427799 1_455
S6 V4 2.427799 1_555
S7 V5 2.427799 1_555
S7 V5 2.427799 1_655
S8 V0 2.556114 1_555
S8 V0 2.556114 1_655
S9 V1 2.556114 1_555
S9 V1 2.556114 1_655
S10 V2 2.556114 1_455
S10 V2 2.556114 1_555
S11 V3 2.556114 1_555
S11 V3 2.556114 1_455
O2 V0 1.854771 1_555
O3 V1 1.854771 1_555
O4 V2 1.854771 1_555
O5 V3 1.854771 1_555
O6 V0 1.816116 1_555
O7 V1 1.816116 1_555
O8 V2 1.816116 1_555
O9 V3 1.816116 1_555
O10 V4 1.834363 1_556
O11 V4 1.834363 1_555
O12 V5 1.834363 1_555
O13 V5 1.834363 1_555
