# generated using pymatgen
data_Cu2H3ClO3
_symmetry_space_group_name_H-M   'P 1'
_cell_length_a   6.12838670
_cell_length_b   6.12838670
_cell_length_c   6.16099775
_cell_angle_alpha   68.85408637
_cell_angle_beta   68.85408637
_cell_angle_gamma   68.64567069
_symmetry_Int_Tables_number   1
_chemical_formula_structural   Cu2H3ClO3
_chemical_formula_sum   'Cu4 H6 Cl2 O6'
_cell_volume   193.85781427
_cell_formula_units_Z   2
loop_
 _symmetry_equiv_pos_site_id
 _symmetry_equiv_pos_as_xyz
  1  'x, y, z'
loop_
 _atom_site_type_symbol
 _atom_site_label
 _atom_site_symmetry_multiplicity
 _atom_site_fract_x
 _atom_site_fract_y
 _atom_site_fract_z
 _atom_site_occupancy
  Cu  Cu0  1  0.00000000  0.00000000  0.50000000  1
  Cu  Cu1  1  0.00000000  0.00000000  0.00000000  1
  Cu  Cu2  1  0.50000000  0.00000000  0.50000000  1
  Cu  Cu3  1  0.00000000  0.50000000  0.50000000  1
  H  H0  1  0.27627700  0.67370500  0.77402500  1
  H  H1  1  0.67370500  0.27627700  0.77402500  1
  H  H2  1  0.72372300  0.32629500  0.22597500  1
  H  H3  1  0.32629500  0.72372300  0.22597500  1
  H  H4  1  0.73623200  0.73623200  0.82516800  1
  H  H5  1  0.26376800  0.26376800  0.17483200  1
  Cl  Cl0  1  0.31375600  0.31375600  0.81265000  1
  Cl  Cl1  1  0.68624400  0.68624400  0.18735000  1
  O  O0  1  0.23550300  0.85377300  0.73380500  1
  O  O1  1  0.85377300  0.23550300  0.73380500  1
  O  O2  1  0.76449700  0.14622700  0.26619500  1
  O  O3  1  0.14622700  0.76449700  0.26619500  1
  O  O4  1  0.77893200  0.77893200  0.64552800  1
  O  O5  1  0.22106800  0.22106800  0.35447200  1
loop_
_geom_bond_atom_site_label_1
_geom_bond_atom_site_label_2
_geom_bond_distance
_geom_bond_site_symmetry_2
Cu0 O5 2.014626 1_555
Cu0 O4 2.014626 1_445
Cu0 O2 2.141892 1_455
Cu0 O3 2.141892 1_545
Cu0 O1 2.141892 1_455
Cu0 O0 2.141892 1_545
Cu1 O1 1.996606 1_454
Cu1 O0 1.996606 1_544
Cu1 O2 1.996606 1_455
Cu1 O3 1.996606 1_545
Cu2 O2 1.986801 1_555
Cu2 O0 1.986801 1_545
Cu2 O4 2.025885 1_545
Cu2 O5 2.025885 1_555
Cu3 O3 1.986801 1_555
Cu3 O1 1.986801 1_455
Cu3 O4 2.025885 1_455
Cu3 O5 2.025885 1_555
H0 O0 0.994071 1_555
H1 O1 0.994071 1_555
H2 O2 0.994071 1_555
H3 O3 0.994071 1_555
H4 O4 0.996911 1_555
H5 O5 0.996911 1_555
Cl0 H5 2.061264 1_556
Cl0 H0 2.065701 1_555
Cl0 H1 2.065701 1_555
Cl0 Cu2 2.863227 1_555
Cl0 Cu3 2.863227 1_555
Cl0 Cu1 2.866489 1_556
Cl1 H4 2.061264 1_554
Cl1 H2 2.065701 1_555
Cl1 H3 2.065701 1_555
Cl1 Cu3 2.863227 1_655
Cl1 Cu2 2.863227 1_565
Cl1 Cu1 2.866489 1_665
