# generated using pymatgen
data_Li9Mn2Co5O16
_symmetry_space_group_name_H-M   'P 1'
_cell_length_a   3.01181300
_cell_length_b   5.00669918
_cell_length_c   19.39849633
_cell_angle_alpha   92.71608295
_cell_angle_beta   91.06735514
_cell_angle_gamma   91.26082197
_symmetry_Int_Tables_number   1
_chemical_formula_structural   Li9Mn2Co5O16
_chemical_formula_sum   'Li9 Mn2 Co5 O16'
_cell_volume   292.05859176
_cell_formula_units_Z   1
loop_
 _symmetry_equiv_pos_site_id
 _symmetry_equiv_pos_as_xyz
  1  'x, y, z'
loop_
 _atom_site_type_symbol
 _atom_site_label
 _atom_site_symmetry_multiplicity
 _atom_site_fract_x
 _atom_site_fract_y
 _atom_site_fract_z
 _atom_site_occupancy
  Li  Li0  1  0.99802400  0.37537700  0.12752200  1
  Li  Li1  1  0.50531900  0.62067800  0.37954100  1
  Li  Li2  1  0.00090500  0.87061000  0.62012900  1
  Li  Li3  1  0.50199000  0.12445700  0.87251900  1
  Li  Li4  1  0.49801000  0.87554300  0.12748100  1
  Li  Li5  1  0.99909500  0.12939000  0.37987100  1
  Li  Li6  1  0.49468100  0.37932200  0.62045900  1
  Li  Li7  1  0.00197600  0.62462300  0.87247800  1
  Li  Li8  1  0.00000000  0.50000000  0.50000000  1
  Mn  Mn0  1  0.00000000  0.00000000  0.00000000  1
  Mn  Mn1  1  0.50000000  0.50000000  0.00000000  1
  Co  Co0  1  0.50021900  0.24999900  0.25158200  1
  Co  Co1  1  0.49978100  0.75000100  0.74841800  1
  Co  Co2  1  0.00036300  0.75028600  0.25117500  1
  Co  Co3  1  0.50000000  0.00000000  0.50000000  1
  Co  Co4  1  0.99963700  0.24971400  0.74882500  1
  O  O0  1  0.45618300  0.19418800  0.05882000  1
  O  O1  1  0.00736100  0.44465200  0.30968200  1
  O  O2  1  0.49814200  0.72374600  0.55548500  1
  O  O3  1  0.00726400  0.94361300  0.80723400  1
  O  O4  1  0.95618800  0.69418600  0.05891400  1
  O  O5  1  0.50737400  0.94131600  0.30774200  1
  O  O6  1  0.01257500  0.16498100  0.55298500  1
  O  O7  1  0.50700600  0.44521100  0.80702200  1
  O  O8  1  0.49299400  0.55478900  0.19297800  1
  O  O9  1  0.98742500  0.83501900  0.44701500  1
  O  O10  1  0.49262600  0.05868400  0.69225800  1
  O  O11  1  0.04381200  0.30581400  0.94108600  1
  O  O12  1  0.99273600  0.05638700  0.19276600  1
  O  O13  1  0.50185800  0.27625400  0.44451500  1
  O  O14  1  0.99263900  0.55534800  0.69031800  1
  O  O15  1  0.54381700  0.80581200  0.94118000  1
loop_
_geom_bond_atom_site_label_1
_geom_bond_atom_site_label_2
_geom_bond_distance
_geom_bond_site_symmetry_2
Li0 O12 2.084220 1_555
Li0 O8 2.098558 1_655
Li0 O0 2.124190 1_655
Li0 O4 2.130464 1_555
Li0 O8 2.180993 1_555
Li0 O0 2.236400 1_555
Li1 O1 2.148338 1_555
Li1 O9 2.168105 1_555
Li1 O5 2.174582 1_555
Li1 O13 2.183586 1_555
Li1 O1 2.218394 1_655
Li1 O9 2.305301 1_455
Li2 O6 2.012771 1_565
Li2 O2 2.049131 1_455
Li2 O2 2.094511 1_555
Li2 O14 2.132861 1_455
Li2 O10 2.185006 1_565
Li2 O10 2.281722 1_465
Li3 O7 2.094399 1_555
Li3 O3 2.098922 1_545
Li3 O11 2.122954 1_555
Li3 O15 2.130500 1_545
Li3 O3 2.182490 1_645
Li3 O11 2.235191 1_655
Li4 O8 2.094399 1_555
Li4 O12 2.098922 1_565
Li4 O4 2.122954 1_555
Li4 O0 2.130500 1_565
Li4 O12 2.182490 1_465
Li4 O4 2.235191 1_455
Li5 O9 2.012771 1_545
Li5 O13 2.049131 1_655
Li5 O13 2.094511 1_555
Li5 O1 2.132861 1_655
Li5 O5 2.185006 1_545
Li5 O5 2.281722 1_645
Li6 O14 2.148338 1_555
Li6 O6 2.168105 1_555
Li6 O10 2.174582 1_555
Li6 O2 2.183586 1_555
Li6 O14 2.218394 1_455
Li6 O6 2.305301 1_655
Li7 O3 2.084220 1_555
Li7 O7 2.098558 1_455
Li7 O15 2.124190 1_455
Li7 O11 2.130464 1_555
Li7 O7 2.180993 1_555
Li7 O15 2.236400 1_555
Li8 O9 2.008998 1_455
Li8 O6 2.008998 1_555
Li8 O13 2.101410 1_455
Li8 O2 2.101410 1_555
Li8 O13 2.172299 1_555
Li8 O2 2.172299 1_455
Mn0 O11 1.957139 1_554
Mn0 O4 1.957139 1_445
Mn0 O0 1.978018 1_555
Mn0 O15 1.978018 1_444
Mn0 O0 2.228089 1_455
Mn0 O15 2.228089 1_544
Mn1 O15 1.955997 1_554
Mn1 O0 1.955997 1_555
Mn1 O4 1.979010 1_555
Mn1 O11 1.979010 1_554
Mn1 O4 2.228995 1_455
Mn1 O11 2.228995 1_654
Co0 O5 1.932867 1_545
Co0 O8 1.945882 1_555
Co0 O1 2.078291 1_655
Co0 O12 2.083880 1_455
Co0 O1 2.108402 1_555
Co0 O12 2.112652 1_555
Co1 O10 1.932867 1_565
Co1 O7 1.945882 1_555
Co1 O14 2.078291 1_455
Co1 O3 2.083880 1_655
Co1 O14 2.108402 1_555
Co1 O3 2.112652 1_555
Co2 O1 1.948137 1_555
Co2 O12 1.948897 1_465
Co2 O5 2.055357 1_555
Co2 O8 2.081539 1_455
Co2 O5 2.084992 1_455
Co2 O8 2.110811 1_555
Co3 O13 1.792346 1_555
Co3 O2 1.792346 1_545
Co3 O6 1.980647 1_555
Co3 O9 1.980647 1_545
Co3 O6 1.981486 1_655
Co3 O9 1.981486 1_445
Co4 O14 1.948137 1_555
Co4 O3 1.948897 1_645
Co4 O10 2.055357 1_555
Co4 O7 2.081539 1_655
Co4 O10 2.084992 1_655
Co4 O7 2.110811 1_555
