# generated using pymatgen
data_Mg14MoW
_symmetry_space_group_name_H-M   'P 1'
_cell_length_a   6.25633273
_cell_length_b   6.02459013
_cell_length_c   9.97301618
_cell_angle_alpha   90.00000000
_cell_angle_beta   90.00000000
_cell_angle_gamma   118.78207079
_symmetry_Int_Tables_number   1
_chemical_formula_structural   Mg14MoW
_chemical_formula_sum   'Mg14 Mo1 W1'
_cell_volume   329.46150188
_cell_formula_units_Z   1
loop_
 _symmetry_equiv_pos_site_id
 _symmetry_equiv_pos_as_xyz
  1  'x, y, z'
loop_
 _atom_site_type_symbol
 _atom_site_label
 _atom_site_symmetry_multiplicity
 _atom_site_fract_x
 _atom_site_fract_y
 _atom_site_fract_z
 _atom_site_occupancy
  Mg  Mg0  1  0.16648734  0.33324317  0.62500000  1
  Mg  Mg1  1  0.16626560  0.83313230  0.62500000  1
  Mg  Mg2  1  0.66172140  0.33105869  0.12500000  1
  Mg  Mg3  1  0.66301573  0.33148251  0.62500000  1
  Mg  Mg4  1  0.66172140  0.83066171  0.12500000  1
  Mg  Mg5  1  0.66301573  0.83153222  0.62500000  1
  Mg  Mg6  1  0.32607803  0.16277228  0.36113871  1
  Mg  Mg7  1  0.32607803  0.16277228  0.88886129  1
  Mg  Mg8  1  0.32607803  0.66330675  0.36113871  1
  Mg  Mg9  1  0.32607803  0.66330675  0.88886129  1
  Mg  Mg10  1  0.85132960  0.17566530  0.36755572  1
  Mg  Mg11  1  0.85132960  0.17566530  0.88244428  1
  Mg  Mg12  1  0.85130903  0.67565501  0.36754426  1
  Mg  Mg13  1  0.85130903  0.67565501  0.88245574  1
  Mo  Mo0  1  0.15447087  0.32723494  0.12500000  1
  W  W0  1  0.15371256  0.82685578  0.12500000  1
loop_
_geom_bond_atom_site_label_1
_geom_bond_atom_site_label_2
_geom_bond_distance
_geom_bond_site_symmetry_2
Mg0 Mg1 3.012295 1_545
Mg0 Mg1 3.012295 1_555
Mg0 Mg11 3.094915 1_455
Mg0 Mg10 3.094915 1_455
Mg0 Mg5 3.111568 1_555
Mg0 Mg3 3.111568 1_555
Mg0 Mg5 3.144792 1_445
Mg0 Mg3 3.144792 1_455
Mg0 Mg7 3.156560 1_555
Mg0 Mg6 3.156560 1_555
Mg0 Mg9 3.156566 1_555
Mg0 Mg8 3.156566 1_555
Mg1 Mg12 3.094394 1_455
Mg1 Mg13 3.094394 1_455
Mg1 Mg3 3.112487 1_565
Mg1 Mg5 3.112487 1_555
Mg1 Mg3 3.143868 1_455
Mg1 Mg5 3.143869 1_455
Mg1 Mg8 3.155361 1_555
Mg1 Mg9 3.155361 1_555
Mg1 Mg6 3.155366 1_565
Mg1 Mg7 3.155366 1_565
Mg2 Mg6 2.988885 1_555
Mg2 Mg7 2.988885 1_554
Mg2 Mg4 3.009903 1_555
Mg2 Mg4 3.014687 1_545
Mg2 W0 3.089165 1_655
Mg2 Mo0 3.093962 1_655
Mg2 Mo0 3.162501 1_555
Mg2 W0 3.167296 1_545
Mg3 Mg5 3.011996 1_545
Mg3 Mg5 3.012595 1_555
Mg3 Mg6 3.215317 1_555
Mg3 Mg7 3.215317 1_555
Mg4 Mg8 2.988885 1_555
Mg4 Mg9 2.988885 1_554
Mg4 W0 3.089166 1_655
Mg4 Mo0 3.093962 1_665
Mg4 Mo0 3.162501 1_555
Mg4 W0 3.167296 1_555
Mg5 Mg9 3.215317 1_555
Mg5 Mg8 3.215317 1_555
Mg6 W0 2.950094 1_545
Mg6 Mo0 2.950403 1_555
Mg7 W0 2.950094 1_546
Mg7 Mo0 2.950403 1_556
Mg8 W0 2.950088 1_555
Mg8 Mo0 2.950409 1_555
Mg9 W0 2.950088 1_556
Mg9 Mo0 2.950409 1_556
Mg10 Mo0 2.935079 1_655
Mg10 Mg2 3.033918 1_555
Mg10 Mg4 3.033924 1_545
Mg10 Mg3 3.150605 1_555
Mg10 Mg5 3.150611 1_545
Mg11 Mo0 2.935079 1_656
Mg11 Mg2 3.033918 1_556
Mg11 Mg4 3.033924 1_546
Mg11 Mg3 3.150605 1_555
Mg11 Mg5 3.150611 1_545
Mg12 W0 2.932695 1_655
Mg12 Mg4 3.032601 1_555
Mg12 Mg2 3.032607 1_555
Mg12 Mg5 3.150805 1_555
Mg12 Mg3 3.150810 1_555
Mg13 W0 2.932695 1_656
Mg13 Mg4 3.032601 1_556
Mg13 Mg2 3.032607 1_556
Mg13 Mg5 3.150805 1_555
Mg13 Mg3 3.150810 1_555
Mo0 W0 3.012298 1_555
Mo0 W0 3.012298 1_545
