# generated using pymatgen
data_Na2P2O13
_symmetry_space_group_name_H-M   'P 1'
_cell_length_a   7.06990347
_cell_length_b   7.06990347
_cell_length_c   12.31010577
_cell_angle_alpha   69.50286826
_cell_angle_beta   69.50286826
_cell_angle_gamma   72.35655949
_symmetry_Int_Tables_number   1
_chemical_formula_structural   Na2P2O13
_chemical_formula_sum   'Na4 P4 O26'
_cell_volume   528.31387135
_cell_formula_units_Z   2
loop_
 _symmetry_equiv_pos_site_id
 _symmetry_equiv_pos_as_xyz
  1  'x, y, z'
loop_
 _atom_site_type_symbol
 _atom_site_label
 _atom_site_symmetry_multiplicity
 _atom_site_fract_x
 _atom_site_fract_y
 _atom_site_fract_z
 _atom_site_occupancy
  Na  Na0  1  0.39243000  0.09921400  0.76319500  1
  Na  Na1  1  0.60757000  0.90078600  0.23680500  1
  Na  Na2  1  0.90078600  0.60757000  0.73680500  1
  Na  Na3  1  0.09921400  0.39243000  0.26319500  1
  P  P0  1  0.28627000  0.47785400  0.86670100  1
  P  P1  1  0.71373000  0.52214600  0.13329900  1
  P  P2  1  0.52214600  0.71373000  0.63329900  1
  P  P3  1  0.47785400  0.28627000  0.36670100  1
  O  O0  1  0.61996900  0.09034500  0.34606400  1
  O  O1  1  0.38003100  0.90965500  0.65393600  1
  O  O2  1  0.90965500  0.38003100  0.15393600  1
  O  O3  1  0.09034500  0.61996900  0.84606400  1
  O  O4  1  0.48343300  0.51656700  0.75000000  1
  O  O5  1  0.51656700  0.48343300  0.25000000  1
  O  O6  1  0.41641300  0.65995000  0.53850400  1
  O  O7  1  0.58358700  0.34005000  0.46149600  1
  O  O8  1  0.34005000  0.58358700  0.96149600  1
  O  O9  1  0.65995000  0.41641300  0.03850400  1
  O  O10  1  0.30961300  0.25042100  0.91479600  1
  O  O11  1  0.69038700  0.74957900  0.08520400  1
  O  O12  1  0.74957900  0.69038700  0.58520400  1
  O  O13  1  0.25042100  0.30961300  0.41479600  1
  O  O14  1  0.82133200  0.07819000  0.88302300  1
  O  O15  1  0.17866800  0.92181000  0.11697700  1
  O  O16  1  0.92181000  0.17866800  0.61697700  1
  O  O17  1  0.07819000  0.82133200  0.38302300  1
  O  O18  1  0.94530100  0.19126400  0.85038100  1
  O  O19  1  0.05469900  0.80873600  0.14961900  1
  O  O20  1  0.80873600  0.05469900  0.64961900  1
  O  O21  1  0.19126400  0.94530100  0.35038100  1
  O  O22  1  0.32462200  0.49820200  0.58507900  1
  O  O23  1  0.67537800  0.50179800  0.41492100  1
  O  O24  1  0.50179800  0.67537800  0.91492100  1
  O  O25  1  0.49820200  0.32462200  0.08507900  1
loop_
_geom_bond_atom_site_label_1
_geom_bond_atom_site_label_2
_geom_bond_distance
_geom_bond_site_symmetry_2
Na0 O1 2.242507 1_545
Na0 O10 2.284933 1_555
Na0 O20 2.753416 1_555
Na0 O18 2.904205 1_455
Na0 O22 2.929046 1_555
Na0 O24 2.958498 1_545
Na1 O0 2.242507 1_565
Na1 O11 2.284933 1_555
Na1 O21 2.753416 1_555
Na1 O19 2.904205 1_655
Na1 O23 2.929046 1_555
Na1 O25 2.958498 1_565
Na2 O3 2.242507 1_655
Na2 O12 2.284933 1_555
Na2 O18 2.753416 1_555
Na2 O20 2.904205 1_565
Na2 O24 2.929046 1_555
Na2 O22 2.958498 1_655
Na3 O2 2.242507 1_455
Na3 O13 2.284933 1_555
Na3 O19 2.753416 1_555
Na3 O21 2.904205 1_545
Na3 O25 2.929046 1_555
Na3 O23 2.958498 1_455
O0 P3 1.488883 1_555
O1 P2 1.488883 1_555
O2 P1 1.488883 1_555
O3 P0 1.488883 1_555
O4 P0 1.623349 1_555
O4 P2 1.623349 1_555
O5 P3 1.623349 1_555
O5 P1 1.623349 1_555
O6 P2 1.777361 1_555
O7 P3 1.777361 1_555
O8 P0 1.777361 1_555
O9 P1 1.777361 1_555
O10 P0 1.484614 1_555
O11 P1 1.484614 1_555
O12 P2 1.484614 1_555
O13 P3 1.484614 1_555
O14 O18 1.233623 1_555
O15 O19 1.233623 1_555
O16 O20 1.233623 1_555
O17 O21 1.233623 1_555
O22 O6 1.337040 1_555
O23 O7 1.337040 1_555
O24 O8 1.337040 1_555
O25 O9 1.337040 1_555
