# generated using pymatgen
data_MgTi2
_symmetry_space_group_name_H-M   'P 1'
_cell_length_a   5.71287729
_cell_length_b   5.71287729
_cell_length_c   5.71286870
_cell_angle_alpha   53.39603886
_cell_angle_beta   53.39603886
_cell_angle_gamma   53.39620546
_symmetry_Int_Tables_number   1
_chemical_formula_structural   MgTi2
_chemical_formula_sum   'Mg2 Ti4'
_cell_volume   111.46034803
_cell_formula_units_Z   2
loop_
 _symmetry_equiv_pos_site_id
 _symmetry_equiv_pos_as_xyz
  1  'x, y, z'
loop_
 _atom_site_type_symbol
 _atom_site_label
 _atom_site_symmetry_multiplicity
 _atom_site_fract_x
 _atom_site_fract_y
 _atom_site_fract_z
 _atom_site_occupancy
  Mg  Mg0  1  0.16523271  0.16523245  0.16523169  1
  Mg  Mg1  1  0.83476755  0.83476729  0.83476831  1
  Ti  Ti0  1  0.34063837  0.00000007  0.65936624  1
  Ti  Ti1  1  0.65936265  0.34063735  -0.00000000  1
  Ti  Ti2  1  0.49999879  0.50000121  0.50000000  1
  Ti  Ti3  1  0.99999993  0.65936163  0.34063376  1
loop_
_geom_bond_atom_site_label_1
_geom_bond_atom_site_label_2
_geom_bond_distance
_geom_bond_site_symmetry_2
Mg0 Ti2 2.963868 1_554
Mg0 Ti2 2.963877 1_545
Mg0 Ti2 2.963889 1_455
Mg0 Mg1 2.964100 1_445
Mg0 Mg1 2.964102 1_544
Mg0 Mg1 2.964102 1_454
Mg0 Ti0 2.986405 1_554
Mg0 Ti1 2.986434 1_455
Mg0 Ti3 2.986446 1_445
Mg0 Ti3 2.988556 1_455
Mg0 Ti1 2.988572 1_555
Mg0 Ti0 2.988597 1_555
Mg1 Ti2 2.963868 1_556
Mg1 Ti2 2.963877 1_655
Mg1 Ti2 2.963889 1_565
Mg1 Ti3 2.986405 1_556
Mg1 Ti1 2.986434 1_566
Mg1 Ti0 2.986446 1_665
Mg1 Ti0 2.988556 1_565
Mg1 Ti1 2.988572 1_556
Mg1 Ti3 2.988597 1_555
Ti0 Ti1 2.931868 1_546
Ti0 Ti1 2.931873 1_555
Ti0 Ti3 2.931884 1_455
Ti0 Ti3 2.931884 1_545
Ti0 Ti2 2.971266 1_555
Ti0 Ti2 2.971294 1_545
Ti0 Ti3 3.028721 1_446
Ti0 Ti1 3.028748 1_456
Ti1 Ti3 2.931868 1_455
Ti1 Ti3 2.931873 1_554
Ti1 Ti2 2.971277 1_555
Ti1 Ti2 2.971277 1_554
Ti1 Ti3 3.028748 1_545
Ti2 Ti3 2.971266 1_555
Ti2 Ti3 2.971294 1_455
