# generated using pymatgen
data_Cs3Er2I9
_symmetry_space_group_name_H-M   'P 1'
_cell_length_a   8.48247215
_cell_length_b   8.48150452
_cell_length_c   21.43408544
_cell_angle_alpha   90.01911297
_cell_angle_beta   89.98691282
_cell_angle_gamma   119.99948089
_symmetry_Int_Tables_number   1
_chemical_formula_structural   Cs3Er2I9
_chemical_formula_sum   'Cs6 Er4 I18'
_cell_volume   1335.46704676
_cell_formula_units_Z   2
loop_
 _symmetry_equiv_pos_site_id
 _symmetry_equiv_pos_as_xyz
  1  'x, y, z'
loop_
 _atom_site_type_symbol
 _atom_site_label
 _atom_site_symmetry_multiplicity
 _atom_site_fract_x
 _atom_site_fract_y
 _atom_site_fract_z
 _atom_site_occupancy
  Cs  Cs0  1  0.33333025  0.66665680  0.43207425  1
  Cs  Cs1  1  0.66664154  0.33332907  0.56794597  1
  Cs  Cs2  1  0.66667120  0.33332399  0.93207933  1
  Cs  Cs3  1  0.33331618  0.66666914  0.06793073  1
  Cs  Cs4  1  0.99996461  0.00000093  0.24999811  1
  Cs  Cs5  1  0.00001368  0.99996102  0.75000878  1
  Er  Er0  1  0.66665222  0.33329983  0.34409778  1
  Er  Er1  1  0.33338891  0.66671267  0.65589297  1
  Er  Er2  1  0.33334566  0.66666465  0.84410465  1
  Er  Er3  1  0.66657540  0.33335076  0.15588820  1
  I  I0  1  0.83519661  0.67049689  0.41478740  1
  I  I1  1  0.32950878  0.16475377  0.41477476  1
  I  I2  1  0.83515673  0.16467769  0.41476424  1
  I  I3  1  0.16481175  0.32958387  0.58518710  1
  I  I4  1  0.67055456  0.83516699  0.58520510  1
  I  I5  1  0.16476168  0.83525850  0.58524520  1
  I  I6  1  0.16475865  0.32954338  0.91479430  1
  I  I7  1  0.67061950  0.83523701  0.91472696  1
  I  I8  1  0.16470567  0.83522055  0.91477875  1
  I  I9  1  0.83521955  0.67070300  0.08530512  1
  I  I10  1  0.32944937  0.16471841  0.08524641  1
  I  I11  1  0.83522852  0.16473553  0.08522412  1
  I  I12  1  0.50494771  0.01003608  0.24993406  1
  I  I13  1  0.98990481  0.49497072  0.24994744  1
  I  I14  1  0.50494989  0.49491926  0.25007285  1
  I  I15  1  0.49498176  0.98995925  0.75007116  1
  I  I16  1  0.01032716  0.50503036  0.74999331  1
  I  I17  1  0.49501765  0.50501986  0.74991993  1
loop_
_geom_bond_atom_site_label_1
_geom_bond_atom_site_label_2
_geom_bond_distance
_geom_bond_site_symmetry_2
Cs0 I3 4.111512 1_555
Cs0 I5 4.111868 1_555
Cs0 I4 4.112301 1_555
Cs0 I2 4.256715 1_565
Cs0 I1 4.256835 1_555
Cs0 I0 4.256949 1_555
Cs0 I1 4.257215 1_565
Cs0 I2 4.257919 1_455
Cs0 I0 4.258020 1_455
Cs1 I2 4.112036 1_555
Cs1 I1 4.112586 1_555
Cs1 I0 4.112715 1_555
Cs1 I4 4.255828 1_555
Cs1 I3 4.256951 1_555
Cs1 I5 4.257130 1_545
Cs1 I5 4.257464 1_655
Cs1 I3 4.257839 1_655
Cs1 I4 4.258081 1_545
Cs2 I11 4.112595 1_556
Cs2 I10 4.112628 1_556
Cs2 I9 4.113797 1_556
Cs2 I7 4.256735 1_555
Cs2 I8 4.257047 1_655
Cs2 I6 4.257203 1_655
Cs2 I7 4.257524 1_545
Cs2 I8 4.257560 1_545
Cs2 I6 4.257751 1_555
Cs3 I6 4.111148 1_554
Cs3 I8 4.112790 1_554
Cs3 I7 4.113616 1_554
Cs3 I9 4.256784 1_555
Cs3 I10 4.256789 1_565
Cs3 I11 4.257164 1_565
Cs3 I10 4.257325 1_555
Cs3 I11 4.257414 1_455
Cs3 I9 4.258529 1_455
Cs4 I14 4.241273 1_655
Cs4 I13 4.241394 1_545
Cs4 I13 4.241398 1_555
Cs4 I12 4.241590 1_655
Cs4 I14 4.242072 1_545
Cs4 I12 4.242164 1_555
Cs4 I9 4.278708 1_545
Cs4 I2 4.280701 1_555
Cs4 I10 4.281041 1_655
Cs4 I1 4.282013 1_655
Cs4 I11 4.282077 1_555
Cs4 I0 4.282277 1_545
Cs5 I16 4.240684 1_565
Cs5 I17 4.241414 1_455
Cs5 I15 4.241604 1_555
Cs5 I17 4.241928 1_565
Cs5 I15 4.242141 1_455
Cs5 I16 4.242174 1_555
Cs5 I7 4.280072 1_455
Cs5 I5 4.280514 1_555
Cs5 I6 4.281524 1_565
Cs5 I8 4.281847 1_555
Cs5 I4 4.282137 1_455
Cs5 I3 4.283343 1_565
Er0 I1 2.903158 1_555
Er0 I0 2.903159 1_555
Er0 I2 2.903309 1_555
Er0 I14 3.115330 1_555
Er0 I12 3.115954 1_555
Er0 I13 3.116192 1_555
Er1 I3 2.902913 1_555
Er1 I5 2.903391 1_555
Er1 I4 2.903419 1_555
Er1 I16 3.114430 1_555
Er1 I17 3.115357 1_555
Er1 I15 3.116058 1_555
Er2 I8 2.902990 1_555
Er2 I6 2.903339 1_555
Er2 I7 2.903548 1_555
Er2 I16 3.114559 1_555
Er2 I15 3.115098 1_555
Er2 I17 3.116521 1_555
Er3 I10 2.902839 1_555
Er3 I11 2.903332 1_555
Er3 I9 2.903595 1_555
Er3 I12 3.115382 1_555
Er3 I13 3.115577 1_555
Er3 I14 3.115834 1_555
