# generated using pymatgen
data_V2H38S4(N2O9)3
_symmetry_space_group_name_H-M   'P 1'
_cell_length_a   7.24670662
_cell_length_b   7.92121035
_cell_length_c   13.61126329
_cell_angle_alpha   90.74073365
_cell_angle_beta   91.92241361
_cell_angle_gamma   83.90241963
_symmetry_Int_Tables_number   1
_chemical_formula_structural   V2H38S4(N2O9)3
_chemical_formula_sum   'V2 H38 S4 N6 O27'
_cell_volume   776.43096479
_cell_formula_units_Z   1
loop_
 _symmetry_equiv_pos_site_id
 _symmetry_equiv_pos_as_xyz
  1  'x, y, z'
loop_
 _atom_site_type_symbol
 _atom_site_label
 _atom_site_symmetry_multiplicity
 _atom_site_fract_x
 _atom_site_fract_y
 _atom_site_fract_z
 _atom_site_occupancy
  V  V0  1  0.45618900  0.57147400  0.76783400  1
  V  V1  1  0.54381100  0.42852600  0.23216600  1
  H  H0  1  0.02199400  0.06027600  0.89667200  1
  H  H1  1  0.10384700  0.56397600  0.00148700  1
  H  H2  1  0.15277200  0.17773800  0.68217000  1
  H  H3  1  0.09829700  0.34017400  0.26767800  1
  H  H4  1  0.10381900  0.53337000  0.28480100  1
  H  H5  1  0.18644600  0.39681300  0.43253300  1
  H  H6  1  0.12954200  0.93166900  0.81208500  1
  H  H7  1  0.17078500  0.34145900  0.74757000  1
  H  H8  1  0.18284500  0.30187700  0.54732400  1
  H  H9  1  0.24470700  0.07605700  0.87620100  1
  H  H10  1  0.18817600  0.90443900  0.93634500  1
  H  H11  1  0.23595800  0.50441900  0.54004600  1
  H  H12  1  0.19034300  0.98623700  0.35808500  1
  H  H13  1  0.27996500  0.81397700  0.42090900  1
  H  H14  1  0.38137500  0.34486200  0.50147400  1
  H  H15  1  0.40336700  0.25898000  0.07703900  1
  H  H16  1  0.42762900  0.12963100  0.16794000  1
  H  H17  1  0.34909500  0.85010700  0.30076500  1
  H  H18  1  0.41774500  0.96392000  0.39606800  1
  H  H19  1  0.58225500  0.03608000  0.60393200  1
  H  H20  1  0.65090500  0.14989300  0.69923500  1
  H  H21  1  0.57237100  0.87036900  0.83205900  1
  H  H22  1  0.59663300  0.74102000  0.92296100  1
  H  H23  1  0.61862500  0.65513800  0.49852600  1
  H  H24  1  0.72003500  0.18602300  0.57909100  1
  H  H25  1  0.80965700  0.01376300  0.64191500  1
  H  H26  1  0.76404200  0.49558100  0.45995400  1
  H  H27  1  0.81182400  0.09556100  0.06365500  1
  H  H28  1  0.75529300  0.92394300  0.12379900  1
  H  H29  1  0.81715500  0.69812300  0.45267600  1
  H  H30  1  0.82921500  0.65854100  0.25243000  1
  H  H31  1  0.87045800  0.06833100  0.18791500  1
  H  H32  1  0.81355400  0.60318600  0.56746700  1
  H  H33  1  0.89618100  0.46663000  0.71519900  1
  H  H34  1  0.90170300  0.65982600  0.73232200  1
  H  H35  1  0.84722800  0.82226200  0.31783000  1
  H  H36  1  0.89615300  0.43602400  0.99851300  1
  H  H37  1  0.97800600  0.93972400  0.10332800  1
  S  S0  1  0.23775100  0.85794100  0.62462700  1
  S  S1  1  0.40881200  0.75648100  0.10105600  1
  S  S2  1  0.59118800  0.24351900  0.89894400  1
  S  S3  1  0.76224900  0.14205900  0.37537300  1
  N  N0  1  0.14633700  0.99141900  0.87993800  1
  N  N1  1  0.24298200  0.38607800  0.50500100  1
  N  N2  1  0.30810700  0.90222900  0.36912200  1
  N  N3  1  0.69189300  0.09777100  0.63087800  1
  N  N4  1  0.75701800  0.61392200  0.49499900  1
  N  N5  1  0.85366300  0.00858100  0.12006200  1
  O  O0  1  0.08039500  0.27236800  0.71567900  1
  O  O1  1  0.06528300  0.87971400  0.68152800  1
  O  O2  1  0.16441500  0.42172500  0.30560800  1
  O  O3  1  0.28378700  0.02377700  0.58812800  1
  O  O4  1  0.22126000  0.73546200  0.54175000  1
  O  O5  1  0.23140200  0.80243200  0.04494600  1
  O  O6  1  0.24905100  0.56113700  0.81156200  1
  O  O7  1  0.39915700  0.24952600  0.15085400  1
  O  O8  1  0.39286800  0.57907300  0.13948900  1
  O  O9  1  0.42677900  0.24496800  0.96012100  1
  O  O10  1  0.46733100  0.44895200  0.66791800  1
  O  O11  1  0.40023000  0.79374000  0.69287300  1
  O  O12  1  0.43033800  0.87375500  0.18586800  1
  O  O13  1  0.56966200  0.12624500  0.81413200  1
  O  O14  1  0.59977000  0.20626000  0.30712700  1
  O  O15  1  0.53266900  0.55104800  0.33208200  1
  O  O16  1  0.57322100  0.75503200  0.03987900  1
  O  O17  1  0.60713200  0.42092700  0.86051100  1
  O  O18  1  0.60084300  0.75047400  0.84914600  1
  O  O19  1  0.75094900  0.43886300  0.18843800  1
  O  O20  1  0.76859800  0.19756800  0.95505400  1
  O  O21  1  0.77874000  0.26453800  0.45825000  1
  O  O22  1  0.71621300  0.97622300  0.41187200  1
  O  O23  1  0.83558500  0.57827500  0.69439200  1
  O  O24  1  0.93471700  0.12028600  0.31847200  1
  O  O25  1  0.91960500  0.72763200  0.28432100  1
  O  O26  1  0.00000000  0.50000000  0.00000000  1
loop_
_geom_bond_atom_site_label_1
_geom_bond_atom_site_label_2
_geom_bond_distance
_geom_bond_site_symmetry_2
H0 N0 1.033180 1_545
H1 O26 0.950413 1_555
H2 O0 0.984218 1_555
H3 O2 0.976699 1_555
H4 O2 0.985274 1_555
H5 N1 1.056261 1_555
H6 N0 1.041722 1_555
H7 O0 0.983843 1_555
H8 N1 1.027208 1_555
H9 N0 1.032030 1_545
H10 N0 1.053462 1_555
H10 O5 1.697683 1_556
H11 N1 1.043448 1_555
H12 N2 1.032965 1_555
H13 N2 1.039142 1_555
H14 N1 1.023697 1_555
H15 O7 1.010188 1_555
H15 O9 1.607237 1_554
H16 O7 0.979528 1_555
H17 N2 1.052109 1_555
H17 O12 1.708874 1_555
H18 N2 1.030954 1_555
H19 N3 1.030954 1_555
H20 N3 1.052109 1_555
H20 O13 1.708874 1_555
H21 O18 0.979531 1_555
H22 O18 1.010188 1_555
H22 O16 1.607237 1_556
H23 N4 1.023697 1_555
H24 N3 1.039142 1_555
H25 N3 1.032965 1_555
H26 N4 1.043448 1_555
H27 N5 1.053462 1_555
H27 O20 1.697683 1_554
H28 N5 1.032030 1_565
H29 N4 1.027208 1_555
H30 O25 0.983843 1_555
H31 N5 1.041722 1_555
H32 N4 1.056261 1_555
H33 O23 0.985274 1_555
H34 O23 0.976699 1_555
H35 O25 0.984218 1_555
H36 O26 0.950413 1_656
H37 N5 1.033180 1_565
O1 S0 1.485714 1_555
O3 S0 1.484857 1_545
O4 S0 1.488403 1_555
O5 S1 1.486785 1_555
O6 V0 1.643618 1_555
O7 V1 2.128745 1_555
O8 S1 1.522955 1_555
O8 V1 1.969527 1_555
O9 S2 1.475268 1_555
O10 V0 1.659693 1_555
O11 S0 1.522987 1_555
O11 V0 2.042612 1_555
O12 S1 1.486909 1_555
O13 S2 1.486909 1_555
O14 S3 1.522987 1_555
O14 V1 2.042612 1_555
O15 V1 1.659693 1_555
O16 S1 1.475268 1_555
O17 S2 1.522955 1_555
O17 V0 1.969527 1_555
O18 V0 2.128745 1_555
O19 V1 1.643618 1_555
O20 S2 1.486785 1_555
O21 S3 1.488403 1_555
O22 S3 1.484857 1_565
O24 S3 1.485714 1_555
