# generated using pymatgen
data_Na4RuN6O13
_symmetry_space_group_name_H-M   'P 1'
_cell_length_a   7.59444057
_cell_length_b   7.59444057
_cell_length_c   12.24837168
_cell_angle_alpha   87.62622418
_cell_angle_beta   87.62622418
_cell_angle_gamma   116.60934996
_symmetry_Int_Tables_number   1
_chemical_formula_structural   Na4RuN6O13
_chemical_formula_sum   'Na8 Ru2 N12 O26'
_cell_volume   629.64131321
_cell_formula_units_Z   2
loop_
 _symmetry_equiv_pos_site_id
 _symmetry_equiv_pos_as_xyz
  1  'x, y, z'
loop_
 _atom_site_type_symbol
 _atom_site_label
 _atom_site_symmetry_multiplicity
 _atom_site_fract_x
 _atom_site_fract_y
 _atom_site_fract_z
 _atom_site_occupancy
  Na  Na0  1  0.32582100  0.16064600  0.69322000  1
  Na  Na1  1  0.67417900  0.83935400  0.30678000  1
  Na  Na2  1  0.83935400  0.67417900  0.80678000  1
  Na  Na3  1  0.16064600  0.32582100  0.19322000  1
  Na  Na4  1  0.53147700  0.78151500  0.62091300  1
  Na  Na5  1  0.46852300  0.21848500  0.37908700  1
  Na  Na6  1  0.21848500  0.46852300  0.87908700  1
  Na  Na7  1  0.78151500  0.53147700  0.12091300  1
  Ru  Ru0  1  0.50000000  0.00000000  0.00000000  1
  Ru  Ru1  1  0.00000000  0.50000000  0.50000000  1
  N  N0  1  0.54490700  0.92432200  0.84169600  1
  N  N1  1  0.45509300  0.07567800  0.15830400  1
  N  N2  1  0.07567800  0.45509300  0.65830400  1
  N  N3  1  0.92432200  0.54490700  0.34169600  1
  N  N4  1  0.51223000  0.26097300  0.93234200  1
  N  N5  1  0.48777000  0.73902700  0.06765800  1
  N  N6  1  0.73902700  0.48777000  0.56765800  1
  N  N7  1  0.26097300  0.51223000  0.43234200  1
  N  N8  1  0.80499000  0.15082800  0.01515300  1
  N  N9  1  0.19501000  0.84917200  0.98484700  1
  N  N10  1  0.84917200  0.19501000  0.48484700  1
  N  N11  1  0.15082800  0.80499000  0.51515300  1
  O  O0  1  0.84676600  0.06850200  0.55468600  1
  O  O1  1  0.15323400  0.93149800  0.44531400  1
  O  O2  1  0.93149800  0.15323400  0.94531400  1
  O  O3  1  0.06850200  0.84676600  0.05468600  1
  O  O4  1  0.55929400  0.03064700  0.75750800  1
  O  O5  1  0.44070600  0.96935300  0.24249200  1
  O  O6  1  0.96935300  0.44070600  0.74249200  1
  O  O7  1  0.03064700  0.55929400  0.25750800  1
  O  O8  1  0.25259800  0.86837000  0.59768000  1
  O  O9  1  0.74740200  0.13163000  0.40232000  1
  O  O10  1  0.13163000  0.74740200  0.90232000  1
  O  O11  1  0.86837000  0.25259800  0.09768000  1
  O  O12  1  0.57383800  0.34395400  0.55518400  1
  O  O13  1  0.42616200  0.65604600  0.44481600  1
  O  O14  1  0.65604600  0.42616200  0.94481600  1
  O  O15  1  0.34395400  0.57383800  0.05518400  1
  O  O16  1  0.98882300  0.01117700  0.75000000  1
  O  O17  1  0.01117700  0.98882300  0.25000000  1
  O  O18  1  0.55005500  0.76166900  0.82744200  1
  O  O19  1  0.44994500  0.23833100  0.17255800  1
  O  O20  1  0.23833100  0.44994500  0.67255800  1
  O  O21  1  0.76166900  0.55005500  0.32744200  1
  O  O22  1  0.37793500  0.25952800  0.87467700  1
  O  O23  1  0.62206500  0.74047200  0.12532300  1
  O  O24  1  0.74047200  0.62206500  0.62532300  1
  O  O25  1  0.25952800  0.37793500  0.37467700  1
loop_
_geom_bond_atom_site_label_1
_geom_bond_atom_site_label_2
_geom_bond_distance
_geom_bond_site_symmetry_2
Na0 O16 2.346692 1_455
Na0 O12 2.352995 1_555
Na0 O22 2.367528 1_555
Na0 O8 2.401857 1_545
Na0 O4 2.521508 1_555
Na0 O20 2.570642 1_555
Na1 O17 2.346692 1_655
Na1 O13 2.352995 1_555
Na1 O23 2.367528 1_555
Na1 O9 2.401857 1_565
Na1 O5 2.521508 1_555
Na1 O21 2.570642 1_555
Na2 O16 2.346692 1_565
Na2 O14 2.352995 1_555
Na2 O24 2.367528 1_555
Na2 O10 2.401857 1_655
Na2 O6 2.521508 1_555
Na2 O18 2.570642 1_555
Na3 O17 2.346692 1_545
Na3 O15 2.352995 1_555
Na3 O25 2.367528 1_555
Na3 O11 2.401857 1_455
Na3 O7 2.521508 1_555
Na3 O19 2.570642 1_555
Na4 O24 2.389960 1_555
Na4 O13 2.414605 1_555
Na4 O0 2.481792 1_565
Na4 O8 2.507496 1_555
Na4 O4 2.521300 1_565
Na4 O20 2.535103 1_555
Na4 O18 2.541408 1_555
Na5 O25 2.389960 1_555
Na5 O12 2.414605 1_555
Na5 O1 2.481792 1_545
Na5 O9 2.507496 1_555
Na5 O5 2.521300 1_545
Na5 O21 2.535103 1_555
Na5 O19 2.541408 1_555
Na6 O22 2.389960 1_555
Na6 O15 2.414605 1_556
Na6 O2 2.481792 1_455
Na6 O10 2.507496 1_555
Na6 O6 2.521300 1_455
Na6 O18 2.535103 1_555
Na6 O20 2.541408 1_555
Na7 O23 2.389960 1_555
Na7 O14 2.414605 1_554
Na7 O3 2.481792 1_655
Na7 O11 2.507496 1_555
Na7 O7 2.521300 1_655
Na7 O19 2.535103 1_555
Na7 O21 2.541408 1_555
N0 O4 1.252966 1_565
N0 O18 1.272177 1_555
N0 Ru0 2.102222 1_566
N1 O5 1.252966 1_545
N1 O19 1.272177 1_555
N1 Ru0 2.102222 1_555
N2 O6 1.252966 1_455
N2 O20 1.272177 1_555
N2 Ru1 2.102222 1_555
N3 O7 1.252966 1_655
N3 O21 1.272177 1_555
N3 Ru1 2.102222 1_655
N4 O22 1.260737 1_555
N4 O14 1.261879 1_555
N4 Ru0 2.077532 1_556
N5 O23 1.260737 1_555
N5 O15 1.261879 1_555
N5 Ru0 2.077532 1_565
N6 O24 1.260737 1_555
N6 O12 1.261879 1_555
N6 Ru1 2.077532 1_655
N7 O25 1.260737 1_555
N7 O13 1.261879 1_555
N7 Ru1 2.077532 1_555
N8 O2 1.253005 1_554
N8 O11 1.273797 1_555
N8 Ru0 2.094742 1_555
N9 O3 1.253005 1_556
N9 O10 1.273797 1_555
N9 Ru0 2.094742 1_566
N10 O0 1.253005 1_555
N10 O9 1.273797 1_555
N10 Ru1 2.094742 1_655
N11 O1 1.253005 1_555
N11 O8 1.273797 1_555
N11 Ru1 2.094742 1_555
