# generated using pymatgen
data_Ca3SiO
_symmetry_space_group_name_H-M   'P 1'
_cell_length_a   6.65263113
_cell_length_b   6.66897385
_cell_length_c   9.43018274
_cell_angle_alpha   90.00000000
_cell_angle_beta   90.00000000
_cell_angle_gamma   90.00000000
_symmetry_Int_Tables_number   1
_chemical_formula_structural   Ca3SiO
_chemical_formula_sum   'Ca12 Si4 O4'
_cell_volume   418.38159075
_cell_formula_units_Z   4
loop_
 _symmetry_equiv_pos_site_id
 _symmetry_equiv_pos_as_xyz
  1  'x, y, z'
loop_
 _atom_site_type_symbol
 _atom_site_label
 _atom_site_symmetry_multiplicity
 _atom_site_fract_x
 _atom_site_fract_y
 _atom_site_fract_z
 _atom_site_occupancy
  Ca  Ca0  1  0.23037263  0.76955678  0.01958217  1
  Ca  Ca1  1  0.73037263  0.73044322  0.48041783  1
  Ca  Ca2  1  0.26962737  0.26955678  0.98041783  1
  Ca  Ca3  1  0.76962737  0.23044322  0.51958217  1
  Ca  Ca4  1  0.23037263  0.76955678  0.48041783  1
  Ca  Ca5  1  0.73037263  0.73044322  0.01958217  1
  Ca  Ca6  1  0.26962737  0.26955678  0.51958217  1
  Ca  Ca7  1  0.76962737  0.23044322  0.98041783  1
  Ca  Ca8  1  0.50206936  0.03848636  0.25000000  1
  Ca  Ca9  1  0.00206936  0.46151364  0.25000000  1
  Ca  Ca10  1  0.99793064  0.53848636  0.75000000  1
  Ca  Ca11  1  0.49793064  0.96151364  0.75000000  1
  Si  Si0  1  0.99090072  0.99856165  0.25000000  1
  Si  Si1  1  0.49090072  0.50143835  0.25000000  1
  Si  Si2  1  0.50909928  0.49856165  0.75000000  1
  Si  Si3  1  0.00909928  0.00143835  0.75000000  1
  O  O0  1  -0.00000000  0.50000000  0.50000000  1
  O  O1  1  0.50000000  -0.00000000  0.00000000  1
  O  O2  1  0.50000000  -0.00000000  0.50000000  1
  O  O3  1  -0.00000000  0.50000000  0.00000000  1
loop_
_geom_bond_atom_site_label_1
_geom_bond_atom_site_label_2
_geom_bond_distance
_geom_bond_site_symmetry_2
Ca0 O1 2.369259 1_565
Ca0 O3 2.369498 1_555
Ca0 Si0 3.097074 1_455
Ca0 Si1 3.304936 1_555
Ca0 Si3 3.319812 1_564
Ca1 O0 2.369259 1_655
Ca1 O2 2.369498 1_565
Ca1 Si1 3.097074 1_555
Ca1 Si0 3.304936 1_555
Ca1 Si2 3.319812 1_555
Ca2 O3 2.369259 1_556
Ca2 O1 2.369498 1_556
Ca2 Si2 3.097074 1_555
Ca2 Si3 3.304936 1_555
Ca2 Si1 3.319812 1_556
Ca3 O2 2.369259 1_555
Ca3 O0 2.369498 1_655
Ca3 Si3 3.097074 1_655
Ca3 Si2 3.304936 1_555
Ca3 Si0 3.319812 1_545
Ca4 O2 2.369259 1_565
Ca4 O0 2.369498 1_555
Ca4 Si0 3.097074 1_455
Ca4 Si1 3.304936 1_555
Ca4 Si3 3.319812 1_565
Ca5 O3 2.369259 1_655
Ca5 O1 2.369498 1_565
Ca5 Si1 3.097074 1_555
Ca5 Si0 3.304936 1_555
Ca5 Si2 3.319812 1_554
Ca6 O0 2.369259 1_555
Ca6 O2 2.369498 1_555
Ca6 Si2 3.097074 1_555
Ca6 Si3 3.304936 1_555
Ca6 Si1 3.319812 1_555
Ca7 O1 2.369259 1_556
Ca7 O3 2.369498 1_656
Ca7 Si3 3.097074 1_655
Ca7 Si2 3.304936 1_555
Ca7 Si0 3.319812 1_546
Ca8 O2 2.371516 1_555
Ca8 O1 2.371516 1_555
Ca8 Si1 3.088309 1_555
Ca8 Si0 3.262896 1_545
Ca8 Si0 3.411024 1_445
Ca9 O0 2.371516 1_555
Ca9 O3 2.371516 1_555
Ca9 Si0 3.088309 1_445
Ca9 Si1 3.262896 1_555
Ca9 Si1 3.411024 1_455
Ca10 O3 2.371516 1_656
Ca10 O0 2.371516 1_655
Ca10 Si3 3.088309 1_665
Ca10 Si2 3.262896 1_555
Ca10 Si2 3.411024 1_655
Ca11 O2 2.371516 1_565
Ca11 O1 2.371516 1_566
Ca11 Si2 3.088309 1_555
Ca11 Si3 3.262896 1_565
Ca11 Si3 3.411024 1_665
