# generated using pymatgen
data_Ba6Y2Ti4O17
_symmetry_space_group_name_H-M   'P 1'
_cell_length_a   6.00232841
_cell_length_b   6.00232841
_cell_length_c   30.01966900
_cell_angle_alpha   90.00000000
_cell_angle_beta   90.00000000
_cell_angle_gamma   120.00000449
_symmetry_Int_Tables_number   1
_chemical_formula_structural   Ba6Y2Ti4O17
_chemical_formula_sum   'Ba12 Y4 Ti8 O34'
_cell_volume   936.64715486
_cell_formula_units_Z   2
loop_
 _symmetry_equiv_pos_site_id
 _symmetry_equiv_pos_as_xyz
  1  'x, y, z'
loop_
 _atom_site_type_symbol
 _atom_site_label
 _atom_site_symmetry_multiplicity
 _atom_site_fract_x
 _atom_site_fract_y
 _atom_site_fract_z
 _atom_site_occupancy
  Ba  Ba0  1  0.66666700  0.33333300  0.81547800  1
  Ba  Ba1  1  0.33333300  0.66666700  0.18452200  1
  Ba  Ba2  1  0.66666700  0.33333300  0.41038900  1
  Ba  Ba3  1  0.33333300  0.66666700  0.91038900  1
  Ba  Ba4  1  0.33333300  0.66666700  0.58961100  1
  Ba  Ba5  1  0.66666700  0.33333300  0.08961100  1
  Ba  Ba6  1  0.00000000  0.00000000  0.50000000  1
  Ba  Ba7  1  0.00000000  0.00000000  0.00000000  1
  Ba  Ba8  1  0.33333300  0.66666700  0.31547800  1
  Ba  Ba9  1  0.00000000  0.00000000  0.25000000  1
  Ba  Ba10  1  0.00000000  0.00000000  0.75000000  1
  Ba  Ba11  1  0.66666700  0.33333300  0.68452200  1
  Y  Y0  1  0.00000000  0.00000000  0.62687300  1
  Y  Y1  1  0.00000000  0.00000000  0.87312700  1
  Y  Y2  1  0.00000000  0.00000000  0.37312700  1
  Y  Y3  1  0.00000000  0.00000000  0.12687300  1
  Ti  Ti0  1  0.66666700  0.33333300  0.29615600  1
  Ti  Ti1  1  0.33333300  0.66666700  0.79615600  1
  Ti  Ti2  1  0.33333300  0.66666700  0.70384400  1
  Ti  Ti3  1  0.66666700  0.33333300  0.20384400  1
  Ti  Ti4  1  0.66666700  0.33333300  0.55473900  1
  Ti  Ti5  1  0.66666700  0.33333300  0.94526100  1
  Ti  Ti6  1  0.33333300  0.66666700  0.05473900  1
  Ti  Ti7  1  0.33333300  0.66666700  0.44526100  1
  O  O0  1  0.48160300  0.96320500  0.75000000  1
  O  O1  1  0.51839700  0.48160300  0.25000000  1
  O  O2  1  0.96320500  0.48160300  0.25000000  1
  O  O3  1  0.03679500  0.51839700  0.75000000  1
  O  O4  1  0.48160300  0.51839700  0.75000000  1
  O  O5  1  0.51839700  0.03679500  0.25000000  1
  O  O6  1  0.35159200  0.17579600  0.33027300  1
  O  O7  1  0.82420400  0.17579600  0.33027300  1
  O  O8  1  0.82420400  0.64840800  0.33027300  1
  O  O9  1  0.17579600  0.35159200  0.83027300  1
  O  O10  1  0.64840800  0.82420400  0.66972700  1
  O  O11  1  0.64840800  0.82420400  0.83027300  1
  O  O12  1  0.17579600  0.82420400  0.83027300  1
  O  O13  1  0.82420400  0.64840800  0.16972700  1
  O  O14  1  0.82420400  0.17579600  0.16972700  1
  O  O15  1  0.17579600  0.82420400  0.66972700  1
  O  O16  1  0.17579600  0.35159200  0.66972700  1
  O  O17  1  0.35159200  0.17579600  0.16972700  1
  O  O18  1  0.66369500  0.83184800  0.42256700  1
  O  O19  1  0.16815200  0.83184800  0.42256700  1
  O  O20  1  0.16815200  0.33630500  0.42256700  1
  O  O21  1  0.83184800  0.66369500  0.92256700  1
  O  O22  1  0.33630500  0.16815200  0.57743300  1
  O  O23  1  0.33630500  0.16815200  0.92256700  1
  O  O24  1  0.33333300  0.66666700  0.99557400  1
  O  O25  1  0.66666700  0.33333300  0.49557400  1
  O  O26  1  0.66666700  0.33333300  0.00442600  1
  O  O27  1  0.33333300  0.66666700  0.50442600  1
  O  O28  1  0.66369500  0.83184800  0.07743300  1
  O  O29  1  0.83184800  0.66369500  0.57743300  1
  O  O30  1  0.83184800  0.16815200  0.57743300  1
  O  O31  1  0.16815200  0.83184800  0.07743300  1
  O  O32  1  0.16815200  0.33630500  0.07743300  1
  O  O33  1  0.83184800  0.16815200  0.92256700  1
loop_
_geom_bond_atom_site_label_1
_geom_bond_atom_site_label_2
_geom_bond_distance
_geom_bond_site_symmetry_2
Ba0 O0 2.750531 1_545
Ba0 O3 2.750531 1_655
Ba0 O4 2.750531 1_555
Ba0 O9 3.035332 1_655
Ba0 O11 3.035332 1_545
Ba0 O12 3.035334 1_545
Ba0 O12 3.035334 1_655
Ba0 O9 3.035338 1_555
Ba0 O11 3.035338 1_555
Ba1 O5 2.750531 1_565
Ba1 O2 2.750531 1_455
Ba1 O1 2.750531 1_555
Ba1 O13 3.035332 1_455
Ba1 O17 3.035332 1_565
Ba1 O14 3.035334 1_455
Ba1 O14 3.035334 1_565
Ba1 O13 3.035338 1_555
Ba1 O17 3.035338 1_555
Ba2 O25 2.557226 1_555
Ba2 O7 2.909761 1_555
Ba2 O6 2.909764 1_555
Ba2 O8 2.909764 1_555
Ba2 O18 3.023382 1_545
Ba2 O20 3.023382 1_655
Ba2 O19 3.023388 1_545
Ba2 O19 3.023388 1_655
Ba2 O20 3.023394 1_555
Ba2 O18 3.023394 1_555
Ba3 O24 2.557226 1_555
Ba3 O12 2.909761 1_555
Ba3 O9 2.909764 1_555
Ba3 O11 2.909764 1_555
Ba3 O21 3.023382 1_455
Ba3 O23 3.023382 1_565
Ba3 O33 3.023388 1_455
Ba3 O33 3.023388 1_565
Ba3 O21 3.023394 1_555
Ba3 O23 3.023394 1_555
Ba4 O27 2.557226 1_555
Ba4 O15 2.909761 1_555
Ba4 O16 2.909764 1_555
Ba4 O10 2.909764 1_555
Ba4 O29 3.023382 1_455
Ba4 O22 3.023382 1_565
Ba4 O30 3.023388 1_455
Ba4 O30 3.023388 1_565
Ba4 O29 3.023394 1_555
Ba4 O22 3.023394 1_555
Ba5 O26 2.557226 1_555
Ba5 O14 2.909761 1_555
Ba5 O17 2.909764 1_555
Ba5 O13 2.909764 1_555
Ba5 O32 3.023382 1_655
Ba5 O28 3.023382 1_545
Ba5 O31 3.023388 1_545
Ba5 O31 3.023388 1_655
Ba5 O28 3.023394 1_555
Ba5 O32 3.023394 1_555
Ba6 O19 2.908512 1_545
Ba6 O30 2.908512 1_455
Ba6 O29 2.908515 1_445
Ba6 O18 2.908515 1_445
Ba6 O22 2.908515 1_555
Ba6 O20 2.908515 1_555
Ba7 O33 2.908512 1_454
Ba7 O31 2.908512 1_545
Ba7 O23 2.908515 1_554
Ba7 O21 2.908515 1_444
Ba7 O32 2.908515 1_555
Ba7 O28 2.908515 1_445
Ba8 O5 2.750531 1_565
Ba8 O2 2.750531 1_455
Ba8 O1 2.750531 1_555
Ba8 O8 3.035332 1_455
Ba8 O6 3.035332 1_565
Ba8 O7 3.035334 1_455
Ba8 O7 3.035334 1_565
Ba8 O6 3.035338 1_555
Ba8 O8 3.035338 1_555
Ba9 O5 3.007250 1_555
Ba9 O2 3.007250 1_445
Ba9 O1 3.007252 1_445
Ba9 O1 3.007252 1_555
Ba9 O2 3.007256 1_455
Ba9 O5 3.007256 1_455
Ba9 O8 3.024439 1_445
Ba9 O6 3.024439 1_555
Ba9 O17 3.024439 1_555
Ba9 O13 3.024439 1_445
Ba9 O7 3.024440 1_455
Ba9 O14 3.024440 1_455
Ba10 O0 3.007250 1_445
Ba10 O3 3.007250 1_555
Ba10 O4 3.007252 1_555
Ba10 O4 3.007252 1_445
Ba10 O3 3.007256 1_545
Ba10 O0 3.007256 1_545
Ba10 O16 3.024439 1_555
Ba10 O11 3.024439 1_445
Ba10 O10 3.024439 1_445
Ba10 O9 3.024439 1_555
Ba10 O12 3.024440 1_545
Ba10 O15 3.024440 1_545
Ba11 O0 2.750531 1_545
Ba11 O3 2.750531 1_655
Ba11 O4 2.750531 1_555
Ba11 O16 3.035332 1_655
Ba11 O10 3.035332 1_545
Ba11 O15 3.035334 1_545
Ba11 O15 3.035334 1_655
Ba11 O16 3.035338 1_555
Ba11 O10 3.035338 1_555
O0 Ti2 2.072664 1_555
O0 Ti1 2.072664 1_555
O1 Ti0 2.072672 1_555
O1 Ti3 2.072672 1_555
O2 Ti0 2.072664 1_555
O2 Ti3 2.072664 1_555
O3 Ti2 2.072664 1_555
O3 Ti1 2.072664 1_555
O4 Ti1 2.072672 1_555
O4 Ti2 2.072672 1_555
O5 Ti0 2.072664 1_555
O5 Ti3 2.072664 1_555
O6 Ti0 1.931678 1_555
O6 Y2 2.235002 1_555
O7 Ti0 1.931673 1_555
O7 Y2 2.235002 1_655
O8 Ti0 1.931678 1_555
O8 Y2 2.235002 1_665
O9 Ti1 1.931678 1_555
O9 Y1 2.235002 1_555
O10 Ti2 1.931678 1_555
O10 Y0 2.235002 1_665
O11 Ti1 1.931678 1_555
O11 Y1 2.235002 1_665
O12 Ti1 1.931673 1_555
O12 Y1 2.235002 1_565
O13 Ti3 1.931678 1_555
O13 Y3 2.235002 1_665
O14 Ti3 1.931673 1_555
O14 Y3 2.235002 1_655
O15 Ti2 1.931673 1_555
O15 Y0 2.235002 1_565
O16 Ti2 1.931678 1_555
O16 Y0 2.235002 1_555
O17 Ti3 1.931678 1_555
O17 Y3 2.235002 1_555
O18 Ti7 1.847475 1_555
O18 Y2 2.293222 1_665
O19 Ti7 1.847476 1_555
O19 Y2 2.293218 1_565
O20 Ti7 1.847475 1_555
O20 Y2 2.293222 1_555
O21 Ti5 1.847475 1_555
O21 Y1 2.293222 1_665
O22 Ti4 1.847475 1_555
O22 Y0 2.293222 1_555
O23 Ti5 1.847475 1_555
O23 Y1 2.293222 1_555
O24 Ti6 1.776114 1_556
O25 Ti4 1.776114 1_555
O26 Ti5 1.776114 1_554
O27 Ti7 1.776114 1_555
O28 Ti6 1.847475 1_555
O28 Y3 2.293222 1_665
O29 Ti4 1.847475 1_555
O29 Y0 2.293222 1_665
O30 Ti4 1.847476 1_555
O30 Y0 2.293218 1_655
O31 Ti6 1.847476 1_555
O31 Y3 2.293218 1_565
O32 Ti6 1.847475 1_555
O32 Y3 2.293222 1_555
O33 Ti5 1.847476 1_555
O33 Y1 2.293218 1_655
