# generated using pymatgen
data_Pt2CN4O7
_symmetry_space_group_name_H-M   'P 1'
_cell_length_a   7.73510822
_cell_length_b   10.67429200
_cell_length_c   12.41236589
_cell_angle_alpha   90.00000000
_cell_angle_beta   90.51079977
_cell_angle_gamma   90.00000000
_symmetry_Int_Tables_number   1
_chemical_formula_structural   Pt2CN4O7
_chemical_formula_sum   'Pt8 C4 N16 O28'
_cell_volume   1024.80865227
_cell_formula_units_Z   4
loop_
 _symmetry_equiv_pos_site_id
 _symmetry_equiv_pos_as_xyz
  1  'x, y, z'
loop_
 _atom_site_type_symbol
 _atom_site_label
 _atom_site_symmetry_multiplicity
 _atom_site_fract_x
 _atom_site_fract_y
 _atom_site_fract_z
 _atom_site_occupancy
  Pt  Pt0  1  0.14838100  0.56308400  0.18208800  1
  Pt  Pt1  1  0.35161900  0.06308400  0.31791200  1
  Pt  Pt2  1  0.85161900  0.43691600  0.81791200  1
  Pt  Pt3  1  0.64838100  0.93691600  0.68208800  1
  Pt  Pt4  1  0.29423200  0.44226600  0.97075400  1
  Pt  Pt5  1  0.20576800  0.94226600  0.52924600  1
  Pt  Pt6  1  0.70576800  0.55773400  0.02924600  1
  Pt  Pt7  1  0.79423200  0.05773400  0.47075400  1
  C  C0  1  0.94349300  0.21266100  0.12924400  1
  C  C1  1  0.55650700  0.71266100  0.37075600  1
  C  C2  1  0.05650700  0.78733900  0.87075600  1
  C  C3  1  0.44349300  0.28733900  0.62924400  1
  N  N0  1  0.10851600  0.73121400  0.19116500  1
  N  N1  1  0.39148400  0.23121400  0.30883500  1
  N  N2  1  0.89148400  0.26878600  0.80883500  1
  N  N3  1  0.60851600  0.76878600  0.69116500  1
  N  N4  1  0.07758600  0.50012300  0.31691800  1
  N  N5  1  0.42241400  0.00012300  0.18308200  1
  N  N6  1  0.92241400  0.49987700  0.68308200  1
  N  N7  1  0.57758600  0.99987700  0.81691800  1
  N  N8  1  0.34927800  0.54339400  0.83360200  1
  N  N9  1  0.15072200  0.04339400  0.66639800  1
  N  N10  1  0.65072200  0.45660600  0.16639800  1
  N  N11  1  0.84927800  0.95660600  0.33360200  1
  N  N12  1  0.34324800  0.27964200  0.94501200  1
  N  N13  1  0.15675200  0.77964200  0.55498800  1
  N  N14  1  0.65675200  0.72035800  0.05498800  1
  N  N15  1  0.84324800  0.22035800  0.44501200  1
  O  O0  1  0.23653300  0.60218100  0.02607600  1
  O  O1  1  0.26346700  0.10218100  0.47392400  1
  O  O2  1  0.76346700  0.39781900  0.97392400  1
  O  O3  1  0.73653300  0.89781900  0.52607600  1
  O  O4  1  0.21660500  0.40177800  0.13738500  1
  O  O5  1  0.28339500  0.90177800  0.36261500  1
  O  O6  1  0.78339500  0.59822200  0.86261500  1
  O  O7  1  0.71660500  0.09822200  0.63738500  1
  O  O8  1  0.87620200  0.26052900  0.20311100  1
  O  O9  1  0.62379800  0.76052900  0.29688900  1
  O  O10  1  0.12379800  0.73947100  0.79688900  1
  O  O11  1  0.37620200  0.23947100  0.70311100  1
  O  O12  1  0.00988600  0.16106700  0.05698800  1
  O  O13  1  0.49011400  0.66106700  0.44301200  1
  O  O14  1  0.99011400  0.83893300  0.94301200  1
  O  O15  1  0.50988600  0.33893300  0.55698800  1
  O  O16  1  0.84440400  0.99882000  0.24569500  1
  O  O17  1  0.65559600  0.49882000  0.25430500  1
  O  O18  1  0.15559600  0.00118000  0.75430500  1
  O  O19  1  0.34440400  0.50118000  0.74569500  1
  O  O20  1  0.10947800  0.83494400  0.16284100  1
  O  O21  1  0.39052200  0.33494400  0.33715900  1
  O  O22  1  0.89052200  0.16505600  0.83715900  1
  O  O23  1  0.60947800  0.66505600  0.66284100  1
  O  O24  1  0.37099100  0.17386200  0.95744800  1
  O  O25  1  0.12900900  0.67386200  0.54255200  1
  O  O26  1  0.62900900  0.82613800  0.04255200  1
  O  O27  1  0.87099100  0.32613800  0.45744800  1
loop_
_geom_bond_atom_site_label_1
_geom_bond_atom_site_label_2
_geom_bond_distance
_geom_bond_site_symmetry_2
C0 O12 1.174576 1_655
C0 O8 1.175223 1_555
C1 O13 1.174576 1_555
C1 O9 1.175223 1_555
C2 O14 1.174576 1_455
C2 O10 1.175223 1_555
C3 O15 1.174576 1_555
C3 O11 1.175223 1_555
N0 O20 1.161762 1_555
N0 Pt0 1.824619 1_555
N1 O21 1.161762 1_555
N1 Pt1 1.824619 1_555
N2 O22 1.161762 1_555
N2 Pt2 1.824619 1_555
N3 O23 1.161762 1_555
N3 Pt3 1.824619 1_555
N4 Pt0 1.889096 1_555
N5 Pt1 1.889096 1_555
N6 Pt2 1.889096 1_555
N7 Pt3 1.889096 1_555
N8 O19 1.180807 1_555
N8 Pt4 2.063389 1_555
N9 O18 1.180807 1_555
N9 Pt5 2.063389 1_545
N10 O17 1.180807 1_555
N10 Pt6 2.063389 1_555
N11 O16 1.180807 1_555
N11 Pt7 2.063389 1_565
N12 O24 1.159403 1_555
N12 Pt4 1.805917 1_555
N13 O25 1.159403 1_555
N13 Pt5 1.805917 1_555
N14 O26 1.159403 1_555
N14 Pt6 1.805917 1_555
N15 O27 1.159403 1_555
N15 Pt7 1.805917 1_555
O0 Pt4 1.894719 1_554
O0 Pt0 2.100618 1_555
O1 Pt5 1.894719 1_545
O1 Pt1 2.100618 1_555
O2 Pt6 1.894719 1_556
O2 Pt2 2.100618 1_555
O3 Pt7 1.894719 1_565
O3 Pt3 2.100618 1_555
O4 Pt0 1.885810 1_555
O4 Pt4 2.201652 1_554
O5 Pt1 1.885810 1_565
O5 Pt5 2.201652 1_555
O6 Pt2 1.885810 1_555
O6 Pt6 2.201652 1_556
O7 Pt3 1.885810 1_545
O7 Pt7 2.201652 1_555
