# generated using pymatgen
data_Tb(AlCu)6
_symmetry_space_group_name_H-M   'P 1'
_cell_length_a   6.58837449
_cell_length_b   6.58837449
_cell_length_c   6.58837449
_cell_angle_alpha   135.54794740
_cell_angle_beta   98.97809078
_cell_angle_gamma   97.47574534
_symmetry_Int_Tables_number   1
_chemical_formula_structural   Tb(AlCu)6
_chemical_formula_sum   'Tb1 Al6 Cu6'
_cell_volume   185.37297711
_cell_formula_units_Z   1
loop_
 _symmetry_equiv_pos_site_id
 _symmetry_equiv_pos_as_xyz
  1  'x, y, z'
loop_
 _atom_site_type_symbol
 _atom_site_label
 _atom_site_symmetry_multiplicity
 _atom_site_fract_x
 _atom_site_fract_y
 _atom_site_fract_z
 _atom_site_occupancy
  Tb  Tb0  1  0.00000000  0.00000000  -0.00000000  1
  Al  Al0  1  0.34932923  0.34932923  -0.00000000  1
  Al  Al1  1  0.65067077  0.65067077  0.00000000  1
  Al  Al2  1  0.65354091  0.00000000  0.65354091  1
  Al  Al3  1  0.34645909  -0.00000000  0.34645909  1
  Al  Al4  1  0.79658867  0.29658867  0.50000000  1
  Al  Al5  1  0.20341133  0.70341133  0.50000000  1
  Cu  Cu0  1  0.50000000  0.00000000  -0.00000000  1
  Cu  Cu1  1  0.50000000  0.50000000  0.50000000  1
  Cu  Cu2  1  0.00000000  0.00000000  0.50000000  1
  Cu  Cu3  1  0.00000000  0.50000000  -0.00000000  1
  Cu  Cu4  1  0.22973873  0.50000000  0.72973873  1
  Cu  Cu5  1  0.77026127  0.50000000  0.27026127  1
loop_
_geom_bond_atom_site_label_1
_geom_bond_atom_site_label_2
_geom_bond_distance
_geom_bond_site_symmetry_2
Al0 Al1 2.618697 1_555
Al0 Cu0 2.622376 1_555
Al0 Cu3 2.622376 1_555
Al0 Cu2 2.622376 1_554
Al0 Cu1 2.622376 1_555
Al0 Cu4 2.658156 1_554
Al0 Cu5 2.658156 1_555
Al0 Al5 2.796183 1_544
Al0 Al5 2.796183 1_555
Al0 Tb0 3.035717 1_555
Al1 Cu1 2.622376 1_554
Al1 Cu0 2.622376 1_565
Al1 Cu3 2.622376 1_655
Al1 Cu2 2.622376 1_665
Al1 Cu5 2.658156 1_555
Al1 Cu4 2.658156 1_554
Al1 Al4 2.796183 1_565
Al1 Al4 2.796183 1_554
Al1 Tb0 3.035717 1_665
Al2 Al3 2.628476 1_555
Al2 Cu2 2.637093 1_655
Al2 Cu1 2.637093 1_545
Al2 Cu0 2.637093 1_556
Al2 Cu3 2.637093 1_656
Al2 Cu5 2.684929 1_545
Al2 Cu5 2.684929 1_556
Al2 Al5 2.893127 1_545
Al2 Al4 2.893127 1_555
Al2 Tb0 2.965527 1_656
Al3 Cu2 2.637093 1_555
Al3 Cu3 2.637093 1_545
Al3 Cu1 2.637093 1_555
Al3 Cu0 2.637093 1_555
Al3 Cu4 2.684929 1_555
Al3 Cu4 2.684929 1_544
Al3 Al4 2.893127 1_555
Al3 Al5 2.893127 1_545
Al3 Tb0 2.965527 1_555
Al4 Cu1 2.509120 1_555
Al4 Cu2 2.509120 1_655
Al4 Cu0 2.509120 1_555
Al4 Cu3 2.509120 1_656
Al4 Cu5 2.644165 1_555
Al4 Cu4 2.644165 1_655
Al4 Tb0 3.055382 1_666
Al4 Tb0 3.055382 1_655
Al5 Cu0 2.509120 1_566
Al5 Cu3 2.509120 1_555
Al5 Cu1 2.509120 1_555
Al5 Cu2 2.509120 1_565
Al5 Cu5 2.644165 1_455
Al5 Cu4 2.644165 1_555
Al5 Tb0 3.055382 1_555
Al5 Tb0 3.055382 1_566
Cu0 Cu1 2.492127 1_555
Cu0 Cu1 2.492127 1_544
Cu0 Cu5 2.510508 1_555
Cu0 Cu4 2.510508 1_544
Cu0 Tb0 3.294187 1_555
Cu0 Tb0 3.294187 1_655
Cu1 Cu5 2.510508 1_555
Cu1 Cu4 2.510508 1_555
Cu1 Tb0 3.294187 1_555
Cu1 Tb0 3.294187 1_666
Cu2 Cu3 2.492127 1_556
Cu2 Cu3 2.492127 1_545
Cu2 Cu5 2.510508 1_445
Cu2 Cu4 2.510508 1_555
Cu2 Tb0 3.294187 1_555
Cu2 Tb0 3.294187 1_556
Cu3 Cu5 2.510508 1_455
Cu3 Cu4 2.510508 1_554
Cu3 Tb0 3.294187 1_555
Cu3 Tb0 3.294187 1_565
Cu4 Tb0 3.174531 1_566
Cu4 Tb0 3.174531 1_555
Cu5 Tb0 3.174531 1_666
Cu5 Tb0 3.174531 1_655
