# generated using pymatgen
data_Bi13Pb3Cl7O19
_symmetry_space_group_name_H-M   'P 1'
_cell_length_a   15.23966048
_cell_length_b   15.23966048
_cell_length_c   15.53052081
_cell_angle_alpha   62.47095551
_cell_angle_beta   62.47095551
_cell_angle_gamma   15.20177903
_symmetry_Int_Tables_number   1
_chemical_formula_structural   Bi13Pb3Cl7O19
_chemical_formula_sum   'Bi13 Pb3 Cl7 O19'
_cell_volume   836.68547158
_cell_formula_units_Z   1
loop_
 _symmetry_equiv_pos_site_id
 _symmetry_equiv_pos_as_xyz
  1  'x, y, z'
loop_
 _atom_site_type_symbol
 _atom_site_label
 _atom_site_symmetry_multiplicity
 _atom_site_fract_x
 _atom_site_fract_y
 _atom_site_fract_z
 _atom_site_occupancy
  Bi  Bi0  1  0.42460800  0.42460800  0.67855200  1
  Bi  Bi1  1  0.57645000  0.57645000  0.32190700  1
  Bi  Bi2  1  0.30887400  0.30887400  0.94746000  1
  Bi  Bi3  1  0.69178100  0.69178100  0.04893500  1
  Bi  Bi4  1  0.13149500  0.13149500  0.66903800  1
  Bi  Bi5  1  0.87049200  0.87049200  0.30444200  1
  Bi  Bi6  1  0.59879900  0.59879900  0.92717000  1
  Bi  Bi7  1  0.39842700  0.39842700  0.07658000  1
  Bi  Bi8  1  0.21529900  0.21529900  0.82788700  1
  Bi  Bi9  1  0.78257700  0.78257700  0.17033400  1
  Bi  Bi10  1  0.51585500  0.51585500  0.79545400  1
  Bi  Bi11  1  0.48862100  0.48862100  0.20285900  1
  Bi  Bi12  1  0.66489300  0.66489300  0.44702400  1
  Pb  Pb0  1  0.04621500  0.04621500  0.55877500  1
  Pb  Pb1  1  0.95269600  0.95269600  0.44984800  1
  Pb  Pb2  1  0.33197300  0.33197300  0.55797900  1
  Cl  Cl0  1  0.90144800  0.90144800  0.89485200  1
  Cl  Cl1  1  0.09546100  0.09546100  0.11579600  1
  Cl  Cl2  1  0.72473400  0.72473400  0.67759900  1
  Cl  Cl3  1  0.28112000  0.28112000  0.32538700  1
  Cl  Cl4  1  0.99507800  0.99507800  0.00751200  1
  Cl  Cl5  1  0.81282000  0.81282000  0.78468900  1
  Cl  Cl6  1  0.19050000  0.19050000  0.21591400  1
  O  O0  1  0.95318500  0.95318500  0.61193100  1
  O  O1  1  0.04722600  0.04722600  0.38710300  1
  O  O2  1  0.13601800  0.13601800  0.87051100  1
  O  O3  1  0.86280400  0.86280400  0.13665500  1
  O  O4  1  0.04861500  0.04861500  0.73468100  1
  O  O5  1  0.95158000  0.95158000  0.25955200  1
  O  O6  1  0.40595600  0.40595600  0.55569200  1
  O  O7  1  0.59530800  0.59530800  0.44237800  1
  O  O8  1  0.49976900  0.49976900  0.67229300  1
  O  O9  1  0.50025800  0.50025800  0.32534400  1
  O  O10  1  0.58880100  0.58880100  0.80357400  1
  O  O11  1  0.40360400  0.40360400  0.21713900  1
  O  O12  1  0.22717500  0.22717500  0.97534600  1
  O  O13  1  0.77409000  0.77409000  0.02607300  1
  O  O14  1  0.31673700  0.31673700  0.08900200  1
  O  O15  1  0.68527200  0.68527200  0.91146200  1
  O  O16  1  0.85467000  0.85467000  0.45959100  1
  O  O17  1  0.15131900  0.15131900  0.50692500  1
  O  O18  1  0.62499700  0.62499700  0.60875500  1
loop_
_geom_bond_atom_site_label_1
_geom_bond_atom_site_label_2
_geom_bond_distance
_geom_bond_site_symmetry_2
Bi0 O8 2.227062 1_555
Bi0 O6 2.227339 1_555
Bi0 O0 2.246374 1_455
Bi0 O0 2.246374 1_545
Bi1 O7 2.195277 1_555
Bi1 O1 2.243743 1_565
Bi1 O1 2.243743 1_655
Bi1 O9 2.277475 1_555
Bi2 O12 2.298460 1_555
Bi2 O14 2.318534 1_556
Bi2 O13 2.337043 1_456
Bi2 O13 2.337043 1_546
Bi2 Cl5 3.191691 1_455
Bi2 Cl5 3.191691 1_545
Bi2 Cl0 3.228305 1_545
Bi2 Cl0 3.228305 1_455
Bi3 O15 2.233508 1_554
Bi3 O12 2.318024 1_564
Bi3 O12 2.318024 1_654
Bi3 O13 2.342273 1_555
Bi3 Cl6 3.270522 1_565
Bi3 Cl6 3.270522 1_655
Bi4 O4 2.219995 1_555
Bi4 O18 2.269322 1_545
Bi4 O18 2.269322 1_455
Bi4 O17 2.300276 1_555
Bi4 O10 2.753064 1_455
Bi4 O10 2.753064 1_545
Bi5 O5 2.212405 1_555
Bi5 O16 2.227164 1_555
Bi5 O11 2.374346 1_655
Bi5 O11 2.374346 1_565
Bi5 O3 2.721890 1_555
Bi5 Cl3 3.261966 1_565
Bi5 Cl3 3.261966 1_655
Bi6 O10 2.077612 1_555
Bi6 O2 2.275803 1_655
Bi6 O2 2.275803 1_565
Bi6 O15 2.508028 1_555
Bi7 O11 2.260124 1_555
Bi7 O3 2.270610 1_455
Bi7 O3 2.270610 1_545
Bi7 O14 2.384137 1_555
Bi8 O2 2.167144 1_555
Bi8 O15 2.339427 1_455
Bi8 O15 2.339427 1_545
Bi8 O12 2.477831 1_555
Bi8 Cl2 2.995319 1_455
Bi8 Cl2 2.995319 1_545
Bi9 O3 2.228449 1_555
Bi9 O14 2.346960 1_655
Bi9 O14 2.346960 1_565
Bi9 O13 2.370884 1_555
Bi9 Cl3 3.124926 1_655
Bi9 Cl3 3.124926 1_565
Bi9 Cl6 3.235174 1_655
Bi9 Cl6 3.235174 1_565
Bi10 O8 2.182135 1_555
Bi10 O4 2.250017 1_655
Bi10 O4 2.250017 1_565
Bi10 O10 2.265361 1_555
Bi11 O9 2.089468 1_555
Bi11 O5 2.274205 1_455
Bi11 O5 2.274205 1_545
Bi11 O11 2.472874 1_555
Bi12 O7 2.136867 1_555
Bi12 O17 2.177427 1_565
Bi12 O17 2.177427 1_655
Bi12 O18 2.222243 1_555
O0 Pb1 2.524156 1_555
O0 Pb0 2.533184 1_665
O1 Pb1 2.551538 1_445
O1 Pb0 2.652051 1_555
O4 Pb0 2.766465 1_555
O6 Pb2 2.218799 1_555
O6 Pb1 2.568021 1_455
O6 Pb1 2.568021 1_545
O7 Pb0 2.651519 1_565
O7 Pb0 2.651519 1_655
O8 Pb0 2.614078 1_655
O8 Pb0 2.614078 1_565
O9 Pb1 2.697369 1_455
O9 Pb1 2.697369 1_545
O16 Pb2 2.427189 1_655
O16 Pb2 2.427189 1_565
