# generated using pymatgen
data_CrN2
_symmetry_space_group_name_H-M   'P 1'
_cell_length_a   13.78444903
_cell_length_b   13.78444903
_cell_length_c   26.62893306
_cell_angle_alpha   72.38956015
_cell_angle_beta   72.38956015
_cell_angle_gamma   23.45208432
_symmetry_Int_Tables_number   1
_chemical_formula_structural   CrN2
_chemical_formula_sum   'Cr28 N56'
_cell_volume   1915.16435208
_cell_formula_units_Z   28
loop_
 _symmetry_equiv_pos_site_id
 _symmetry_equiv_pos_as_xyz
  1  'x, y, z'
loop_
 _atom_site_type_symbol
 _atom_site_label
 _atom_site_symmetry_multiplicity
 _atom_site_fract_x
 _atom_site_fract_y
 _atom_site_fract_z
 _atom_site_occupancy
  Cr  Cr0  1  0.09371800  0.02930300  0.41321000  1
  Cr  Cr1  1  0.97069700  0.90628200  0.08679000  1
  Cr  Cr2  1  0.90628200  0.97069700  0.58679000  1
  Cr  Cr3  1  0.02930300  0.09371800  0.91321000  1
  Cr  Cr4  1  0.86955600  0.99407000  0.46025800  1
  Cr  Cr5  1  0.00593000  0.13044400  0.03974200  1
  Cr  Cr6  1  0.13044400  0.00593000  0.53974200  1
  Cr  Cr7  1  0.99407000  0.86955600  0.96025800  1
  Cr  Cr8  1  0.65551500  0.59445500  0.36222400  1
  Cr  Cr9  1  0.40554500  0.34448500  0.13777600  1
  Cr  Cr10  1  0.34448500  0.40554500  0.63777600  1
  Cr  Cr11  1  0.59445500  0.65551500  0.86222400  1
  Cr  Cr12  1  0.29805800  0.43591000  0.44785400  1
  Cr  Cr13  1  0.56409000  0.70194200  0.05214600  1
  Cr  Cr14  1  0.70194200  0.56409000  0.55214600  1
  Cr  Cr15  1  0.43591000  0.29805800  0.94785400  1
  Cr  Cr16  1  0.79354400  0.63921600  0.42667900  1
  Cr  Cr17  1  0.36078400  0.20645600  0.07332100  1
  Cr  Cr18  1  0.20645600  0.36078400  0.57332100  1
  Cr  Cr19  1  0.63921600  0.79354400  0.92667900  1
  Cr  Cr20  1  0.36515100  0.20874600  0.38121000  1
  Cr  Cr21  1  0.79125400  0.63484900  0.11879000  1
  Cr  Cr22  1  0.63484900  0.79125400  0.61879000  1
  Cr  Cr23  1  0.20874600  0.36515100  0.88121000  1
  Cr  Cr24  1  0.72518400  0.70400500  0.24499200  1
  Cr  Cr25  1  0.29599500  0.27481600  0.25500800  1
  Cr  Cr26  1  0.27481600  0.29599500  0.75500800  1
  Cr  Cr27  1  0.70400500  0.72518400  0.74499200  1
  N  N0  1  0.09630900  0.04886900  0.47466100  1
  N  N1  1  0.95113100  0.90369100  0.02533900  1
  N  N2  1  0.90369100  0.95113100  0.52533900  1
  N  N3  1  0.04886900  0.09630900  0.97466100  1
  N  N4  1  0.96704000  0.02591000  0.42304900  1
  N  N5  1  0.97409000  0.03296000  0.07695100  1
  N  N6  1  0.03296000  0.97409000  0.57695100  1
  N  N7  1  0.02591000  0.96704000  0.92304900  1
  N  N8  1  0.39843500  0.75801600  0.38658000  1
  N  N9  1  0.24198400  0.60156500  0.11342000  1
  N  N10  1  0.60156500  0.24198400  0.61342000  1
  N  N11  1  0.75801600  0.39843500  0.88658000  1
  N  N12  1  0.68583600  0.65447700  0.39561700  1
  N  N13  1  0.34552300  0.31416400  0.10438300  1
  N  N14  1  0.31416400  0.34552300  0.60438300  1
  N  N15  1  0.65447700  0.68583600  0.89561700  1
  N  N16  1  0.55213000  0.26736700  0.45195200  1
  N  N17  1  0.73263300  0.44787000  0.04804800  1
  N  N18  1  0.44787000  0.73263300  0.54804800  1
  N  N19  1  0.26736700  0.55213000  0.95195200  1
  N  N20  1  0.64307900  0.66886600  0.29611800  1
  N  N21  1  0.33113400  0.35692100  0.20388200  1
  N  N22  1  0.35692100  0.33113400  0.70388200  1
  N  N23  1  0.66886600  0.64307900  0.79611800  1
  N  N24  1  0.00860300  0.49534600  0.25927500  1
  N  N25  1  0.50465400  0.99139700  0.24072500  1
  N  N26  1  0.99139700  0.50465400  0.74072500  1
  N  N27  1  0.49534600  0.00860300  0.75927500  1
  N  N28  1  0.11331600  0.36831200  0.40929800  1
  N  N29  1  0.63168800  0.88668400  0.09070200  1
  N  N30  1  0.88668400  0.63168800  0.59070200  1
  N  N31  1  0.36831200  0.11331600  0.90929800  1
  N  N32  1  0.35432900  0.33107000  0.39550500  1
  N  N33  1  0.66893000  0.64567100  0.10449500  1
  N  N34  1  0.64567100  0.66893000  0.60449500  1
  N  N35  1  0.33107000  0.35432900  0.89550500  1
  N  N36  1  0.25351000  0.37870600  0.50555300  1
  N  N37  1  0.62129400  0.74649000  0.99444700  1
  N  N38  1  0.74649000  0.62129400  0.49444700  1
  N  N39  1  0.37870600  0.25351000  0.00555300  1
  N  N40  1  0.77685600  0.62704900  0.18696600  1
  N  N41  1  0.37295100  0.22314400  0.31303400  1
  N  N42  1  0.22314400  0.37295100  0.81303400  1
  N  N43  1  0.62704900  0.77685600  0.68696600  1
  N  N44  1  0.91876800  0.27479900  0.37236100  1
  N  N45  1  0.72520100  0.08123200  0.12763900  1
  N  N46  1  0.08123200  0.72520100  0.62763900  1
  N  N47  1  0.27479900  0.91876800  0.87236100  1
  N  N48  1  0.03534200  0.75431600  0.44044300  1
  N  N49  1  0.24568400  0.96465800  0.05955700  1
  N  N50  1  0.96465800  0.24568400  0.55955700  1
  N  N51  1  0.75431600  0.03534200  0.94044300  1
  N  N52  1  0.62686400  0.89735300  0.40983500  1
  N  N53  1  0.10264700  0.37313600  0.09016500  1
  N  N54  1  0.37313600  0.10264700  0.59016500  1
  N  N55  1  0.89735300  0.62686400  0.90983500  1
loop_
_geom_bond_atom_site_label_1
_geom_bond_atom_site_label_2
_geom_bond_distance
_geom_bond_site_symmetry_2
Cr0 N44 1.684371 1_455
Cr0 N4 1.727890 1_455
Cr0 N0 1.752663 1_555
Cr0 N8 1.764245 1_545
Cr1 N45 1.684371 1_565
Cr1 N5 1.727890 1_565
Cr1 N1 1.752663 1_555
Cr1 N9 1.764245 1_655
Cr2 N46 1.684371 1_655
Cr2 N6 1.727890 1_655
Cr2 N2 1.752663 1_555
Cr2 N10 1.764245 1_565
Cr3 N47 1.684371 1_545
Cr3 N7 1.727890 1_545
Cr3 N3 1.752663 1_555
Cr3 N11 1.764245 1_455
Cr4 N48 1.700392 1_655
Cr4 N2 1.713738 1_555
Cr4 N4 1.730149 1_565
Cr4 N16 1.795464 1_565
Cr5 N49 1.700392 1_545
Cr5 N3 1.713738 1_554
Cr5 N5 1.730149 1_455
Cr5 N17 1.795464 1_455
Cr6 N50 1.700392 1_455
Cr6 N0 1.713738 1_555
Cr6 N6 1.730149 1_545
Cr6 N18 1.795464 1_545
Cr7 N51 1.700392 1_565
Cr7 N1 1.713738 1_556
Cr7 N7 1.730149 1_655
Cr7 N19 1.795464 1_655
Cr8 N8 1.701923 1_555
Cr8 N20 1.716881 1_555
Cr8 N12 1.718860 1_555
Cr8 N44 1.786628 1_555
Cr9 N9 1.701923 1_555
Cr9 N21 1.716881 1_555
Cr9 N13 1.718860 1_555
Cr9 N45 1.786628 1_555
Cr10 N10 1.701923 1_555
Cr10 N22 1.716881 1_555
Cr10 N14 1.718860 1_555
Cr10 N46 1.786628 1_555
Cr11 N11 1.701923 1_555
Cr11 N23 1.716881 1_555
Cr11 N15 1.718860 1_555
Cr11 N47 1.786628 1_555
Cr12 N16 1.680480 1_555
Cr12 N36 1.715812 1_555
Cr12 N32 1.772391 1_555
Cr12 N48 1.778359 1_555
Cr13 N17 1.680480 1_555
Cr13 N37 1.715812 1_554
Cr13 N33 1.772391 1_555
Cr13 N49 1.778359 1_555
Cr14 N18 1.680480 1_555
Cr14 N38 1.715812 1_555
Cr14 N34 1.772391 1_555
Cr14 N50 1.778359 1_555
Cr15 N19 1.680480 1_555
Cr15 N39 1.715812 1_556
Cr15 N35 1.772391 1_555
Cr15 N51 1.778359 1_555
Cr16 N52 1.673037 1_555
Cr16 N12 1.731327 1_555
Cr16 N38 1.747648 1_555
Cr16 N28 1.788512 1_655
Cr17 N53 1.673037 1_555
Cr17 N13 1.731327 1_555
Cr17 N39 1.747648 1_555
Cr17 N29 1.788512 1_545
Cr18 N54 1.673037 1_555
Cr18 N14 1.731327 1_555
Cr18 N36 1.747648 1_555
Cr18 N30 1.788512 1_455
Cr19 N55 1.673037 1_555
Cr19 N15 1.731327 1_555
Cr19 N37 1.747648 1_555
Cr19 N31 1.788512 1_565
Cr20 N28 1.692030 1_555
Cr20 N32 1.703769 1_555
Cr20 N41 1.746381 1_555
Cr20 N52 1.814520 1_545
Cr21 N29 1.692030 1_555
Cr21 N33 1.703769 1_555
Cr21 N40 1.746381 1_555
Cr21 N53 1.814520 1_655
Cr22 N30 1.692030 1_555
Cr22 N34 1.703769 1_555
Cr22 N43 1.746381 1_555
Cr22 N54 1.814520 1_565
Cr23 N31 1.692030 1_555
Cr23 N35 1.703769 1_555
Cr23 N42 1.746381 1_555
Cr23 N55 1.814520 1_455
Cr24 N25 1.669910 1_555
Cr24 N40 1.720381 1_555
Cr24 N20 1.744561 1_555
Cr24 N24 1.816669 1_655
Cr25 N24 1.669910 1_555
Cr25 N41 1.720381 1_555
Cr25 N21 1.744561 1_555
Cr25 N25 1.816669 1_545
Cr26 N27 1.669910 1_555
Cr26 N42 1.720381 1_555
Cr26 N22 1.744561 1_555
Cr26 N26 1.816669 1_455
Cr27 N26 1.669910 1_555
Cr27 N43 1.720381 1_555
Cr27 N23 1.744561 1_555
Cr27 N27 1.816669 1_565
