# generated using pymatgen
data_YMg14B
_symmetry_space_group_name_H-M   'P 1'
_cell_length_a   6.56886508
_cell_length_b   6.00371717
_cell_length_c   10.22837369
_cell_angle_alpha   90.00000000
_cell_angle_beta   90.00000000
_cell_angle_gamma   117.19259148
_symmetry_Int_Tables_number   1
_chemical_formula_structural   YMg14B
_chemical_formula_sum   'Y1 Mg14 B1'
_cell_volume   358.79892121
_cell_formula_units_Z   1
loop_
 _symmetry_equiv_pos_site_id
 _symmetry_equiv_pos_as_xyz
  1  'x, y, z'
loop_
 _atom_site_type_symbol
 _atom_site_label
 _atom_site_symmetry_multiplicity
 _atom_site_fract_x
 _atom_site_fract_y
 _atom_site_fract_z
 _atom_site_occupancy
  Y  Y0  1  0.11240355  0.30620127  0.12500000  1
  Mg  Mg0  1  0.15990901  0.32995401  0.62500000  1
  Mg  Mg1  1  0.14659246  0.82329573  0.62500000  1
  Mg  Mg2  1  0.58794665  0.27852545  0.12500000  1
  Mg  Mg3  1  0.66011781  0.33456857  0.62500000  1
  Mg  Mg4  1  0.58794665  0.80942020  0.12500000  1
  Mg  Mg5  1  0.66011781  0.82554824  0.62500000  1
  Mg  Mg6  1  0.34351082  0.17238852  0.37794512  1
  Mg  Mg7  1  0.34351082  0.17238852  0.87205488  1
  Mg  Mg8  1  0.34351082  0.67112330  0.37794512  1
  Mg  Mg9  1  0.34351082  0.67112330  0.87205488  1
  Mg  Mg10  1  0.82778105  0.16389102  0.38405895  1
  Mg  Mg11  1  0.82778105  0.16389102  0.86594105  1
  Mg  Mg12  1  0.91066490  0.70533295  0.29948247  1
  Mg  Mg13  1  0.91066490  0.70533295  0.95051753  1
  B  B0  1  0.23403089  0.86701495  0.12500000  1
loop_
_geom_bond_atom_site_label_1
_geom_bond_atom_site_label_2
_geom_bond_distance
_geom_bond_site_symmetry_2
Mg0 Mg1 3.002867 1_555
Mg0 Mg1 3.002867 1_545
Mg0 Mg7 3.126942 1_555
Mg0 Mg6 3.126942 1_555
Mg0 Mg8 3.126948 1_555
Mg0 Mg9 3.126948 1_555
Mg0 Mg11 3.136759 1_455
Mg0 Mg10 3.136759 1_455
Mg0 Mg5 3.273236 1_555
Mg0 Mg3 3.273236 1_555
Mg0 Mg5 3.295813 1_445
Mg0 Mg3 3.295814 1_455
Mg1 Mg8 3.158094 1_555
Mg1 Mg9 3.158094 1_555
Mg1 Mg6 3.158100 1_565
Mg1 Mg7 3.158100 1_565
Mg1 Mg3 3.201789 1_455
Mg1 Mg5 3.201789 1_455
Mg1 Mg3 3.367120 1_565
Mg1 Mg5 3.367120 1_555
Mg2 Mg6 2.956818 1_555
Mg2 Mg7 2.956818 1_554
Mg2 Y0 3.203121 1_555
Mg2 Y0 3.372395 1_655
Mg3 Mg5 2.947703 1_555
Mg3 Mg5 3.056014 1_545
Mg3 Mg6 3.131803 1_555
Mg3 Mg7 3.131803 1_555
Mg4 Mg8 2.956817 1_555
Mg4 Mg9 2.956817 1_554
Mg4 Y0 3.203121 1_555
Mg4 Y0 3.372395 1_665
Mg5 Mg8 3.131804 1_555
Mg5 Mg9 3.131804 1_555
Mg6 Mg8 2.994263 1_555
Mg6 Mg8 3.009455 1_545
Mg6 Y0 3.280008 1_555
Mg7 Mg9 2.994263 1_555
Mg7 Mg9 3.009455 1_545
Mg7 Y0 3.280008 1_556
Mg8 Y0 3.280013 1_555
Mg9 Y0 3.280013 1_556
Mg10 Mg3 3.060703 1_555
Mg10 Mg5 3.060709 1_545
Mg10 Y0 3.128381 1_655
Mg10 Mg12 3.161336 1_555
Mg10 Mg12 3.161336 1_545
Mg10 Mg8 3.205351 1_545
Mg10 Mg6 3.205351 1_555
Mg10 Mg2 3.311774 1_555
Mg10 Mg4 3.311779 1_545
Mg10 Mg8 3.365332 1_655
Mg10 Mg6 3.365333 1_655
Mg11 Mg3 3.060703 1_555
Mg11 Mg5 3.060709 1_545
Mg11 Y0 3.128381 1_656
Mg11 Mg13 3.161336 1_555
Mg11 Mg13 3.161336 1_545
Mg11 Mg9 3.205351 1_545
Mg11 Mg7 3.205351 1_555
Mg11 Mg2 3.311774 1_556
Mg11 Mg4 3.311779 1_546
Mg11 Mg9 3.365332 1_655
Mg11 Mg7 3.365333 1_655
Mg12 Mg6 3.050309 1_665
Mg12 Mg8 3.050309 1_655
Mg13 Mg7 3.050309 1_665
Mg13 Mg9 3.050309 1_655
B0 Mg2 2.501819 1_565
B0 Mg4 2.501819 1_555
B0 Mg13 2.599000 1_454
B0 Mg12 2.599000 1_455
B0 Mg8 3.060566 1_555
B0 Mg9 3.060566 1_554
B0 Mg6 3.060572 1_565
B0 Mg7 3.060572 1_564
B0 Y0 3.084830 1_555
B0 Y0 3.084830 1_565
