# generated using pymatgen
data_KH2OsBr4N
_symmetry_space_group_name_H-M   'P 1'
_cell_length_a   7.75641900
_cell_length_b   8.52269021
_cell_length_c   8.52269021
_cell_angle_alpha   115.03073563
_cell_angle_beta   90.00000000
_cell_angle_gamma   90.00000000
_symmetry_Int_Tables_number   1
_chemical_formula_structural   KH2OsBr4N
_chemical_formula_sum   'K2 H4 Os2 Br8 N2'
_cell_volume   510.48344885
_cell_formula_units_Z   2
loop_
 _symmetry_equiv_pos_site_id
 _symmetry_equiv_pos_as_xyz
  1  'x, y, z'
loop_
 _atom_site_type_symbol
 _atom_site_label
 _atom_site_symmetry_multiplicity
 _atom_site_fract_x
 _atom_site_fract_y
 _atom_site_fract_z
 _atom_site_occupancy
  K  K0  1  0.81166500  0.33169500  0.66830500  1
  K  K1  1  0.31166500  0.66830500  0.33169500  1
  H  H0  1  0.97395900  0.54111200  0.45888800  1
  H  H1  1  0.47395900  0.45888800  0.54111200  1
  H  H2  1  0.52728100  0.85687000  0.14313000  1
  H  H3  1  0.02728100  0.14313000  0.85687000  1
  Os  Os0  1  0.78057500  0.83501000  0.16499000  1
  Os  Os1  1  0.28057500  0.16499000  0.83501000  1
  Br  Br0  1  0.68856800  0.53068900  0.09477000  1
  Br  Br1  1  0.18856800  0.46931100  0.90523100  1
  Br  Br2  1  0.18856800  0.09477000  0.53068900  1
  Br  Br3  1  0.68856800  0.90523100  0.46931100  1
  Br  Br4  1  0.73131600  0.76999900  0.85387600  1
  Br  Br5  1  0.23131600  0.23000100  0.14612400  1
  Br  Br6  1  0.23131600  0.85387600  0.76999900  1
  Br  Br7  1  0.73131600  0.14612400  0.23000100  1
  N  N0  1  0.99475200  0.82212500  0.17787500  1
  N  N1  1  0.49475200  0.17787500  0.82212500  1
loop_
_geom_bond_atom_site_label_1
_geom_bond_atom_site_label_2
_geom_bond_distance
_geom_bond_site_symmetry_2
K0 N1 3.306637 1_555
K1 N0 3.306637 1_455
H2 Os0 1.989638 1_555
H3 Os1 1.989638 1_555
Br0 Os0 2.506173 1_555
Br0 K0 3.432528 1_554
Br0 K1 3.463413 1_555
Br1 Os1 2.506171 1_555
Br1 K1 3.432521 1_556
Br1 K0 3.463417 1_455
Br2 Os1 2.506173 1_555
Br2 K1 3.432528 1_545
Br2 K0 3.463413 1_455
Br3 Os0 2.506171 1_555
Br3 K0 3.432521 1_565
Br3 K1 3.463417 1_555
Br4 Os0 2.498076 1_556
Br4 K0 3.441590 1_555
Br5 Os1 2.498076 1_554
Br5 K1 3.441590 1_555
Br6 Os1 2.498076 1_565
Br6 K1 3.441590 1_555
Br7 Os0 2.498076 1_545
Br7 K0 3.441590 1_555
N0 Os0 1.671545 1_555
N1 Os1 1.671545 1_555
