# generated using pymatgen
data_ZnS
_symmetry_space_group_name_H-M   'P 1'
_cell_length_a   13.64316637
_cell_length_b   13.25758009
_cell_length_c   13.44838112
_cell_angle_alpha   99.05571284
_cell_angle_beta   91.27524956
_cell_angle_gamma   86.84637480
_symmetry_Int_Tables_number   1
_chemical_formula_structural   ZnS
_chemical_formula_sum   'Zn50 S50'
_cell_volume   2398.29607130
_cell_formula_units_Z   50
loop_
 _symmetry_equiv_pos_site_id
 _symmetry_equiv_pos_as_xyz
  1  'x, y, z'
loop_
 _atom_site_type_symbol
 _atom_site_label
 _atom_site_symmetry_multiplicity
 _atom_site_fract_x
 _atom_site_fract_y
 _atom_site_fract_z
 _atom_site_occupancy
  Zn  Zn0  1  0.51378684  0.87450518  0.28312113  1
  Zn  Zn1  1  0.46142884  0.64485045  0.54035522  1
  Zn  Zn2  1  0.35850836  0.85510186  0.60416372  1
  Zn  Zn3  1  0.02369514  0.36742902  0.23123750  1
  Zn  Zn4  1  0.48785529  0.16974003  0.62540020  1
  Zn  Zn5  1  0.88931516  0.71009895  0.92331799  1
  Zn  Zn6  1  0.43382207  0.36426886  0.13573831  1
  Zn  Zn7  1  0.97809824  0.74539274  0.31825394  1
  Zn  Zn8  1  0.02362700  0.45478359  0.52572038  1
  Zn  Zn9  1  0.26828512  0.36105136  0.89806712  1
  Zn  Zn10  1  0.06910124  0.04710841  0.30529438  1
  Zn  Zn11  1  0.11619304  0.29459570  0.91840137  1
  Zn  Zn12  1  0.56818268  0.96295761  0.53277466  1
  Zn  Zn13  1  0.81198080  0.15997556  0.22937558  1
  Zn  Zn14  1  0.94984376  0.11214719  0.78175736  1
  Zn  Zn15  1  0.24615697  0.72169818  0.53281915  1
  Zn  Zn16  1  0.15166366  0.00005592  0.74009750  1
  Zn  Zn17  1  0.68410112  0.57983674  0.91933437  1
  Zn  Zn18  1  0.95956229  0.23190430  0.09381891  1
  Zn  Zn19  1  0.73274934  0.27841185  0.01709962  1
  Zn  Zn20  1  0.93297951  0.92767269  0.53371231  1
  Zn  Zn21  1  0.80160711  0.79110062  0.33531786  1
  Zn  Zn22  1  0.48409447  0.72459533  0.99246458  1
  Zn  Zn23  1  0.37997433  0.05781838  0.81571786  1
  Zn  Zn24  1  0.75370077  0.96461574  0.96789339  1
  Zn  Zn25  1  0.00455907  0.20616241  0.55439509  1
  Zn  Zn26  1  0.72617223  0.39700504  0.37693664  1
  Zn  Zn27  1  0.95411570  0.84290969  0.14756374  1
  Zn  Zn28  1  0.50094539  0.62856559  0.71322045  1
  Zn  Zn29  1  0.71058088  0.02605106  0.79626108  1
  Zn  Zn30  1  0.25192385  0.16013429  0.13249967  1
  Zn  Zn31  1  0.68471072  0.71524113  0.12010030  1
  Zn  Zn32  1  0.93520219  0.45356119  0.76516994  1
  Zn  Zn33  1  0.13769536  0.62497763  0.25614009  1
  Zn  Zn34  1  0.39686923  0.48202521  0.42190298  1
  Zn  Zn35  1  0.82846034  0.39942381  0.94314296  1
  Zn  Zn36  1  0.59643298  0.57019423  0.22852123  1
  Zn  Zn37  1  0.10800136  0.71050158  0.77272005  1
  Zn  Zn38  1  0.63748626  0.85873698  0.77901085  1
  Zn  Zn39  1  0.74835433  0.28329474  0.69934395  1
  Zn  Zn40  1  0.33273776  0.42054050  0.56413931  1
  Zn  Zn41  1  0.16724349  0.98726861  0.97314027  1
  Zn  Zn42  1  0.85542123  0.39447458  0.13360840  1
  Zn  Zn43  1  0.88891226  0.71400535  0.63222931  1
  Zn  Zn44  1  0.22509188  0.86698310  0.23970829  1
  Zn  Zn45  1  0.38618205  0.67769376  0.37613508  1
  Zn  Zn46  1  0.61992782  0.33278921  0.53485458  1
  Zn  Zn47  1  0.54094763  0.27819662  0.85934895  1
  Zn  Zn48  1  0.87483279  0.58971869  0.33567468  1
  Zn  Zn49  1  0.47039522  0.11991173  0.06716765  1
  S  S0  1  0.29978835  0.57534019  0.03163574  1
  S  S1  1  0.91765699  0.35309184  0.60865158  1
  S  S2  1  0.10766803  0.87683244  0.83463469  1
  S  S3  1  0.75223981  0.44885910  0.79573250  1
  S  S4  1  0.59676773  0.71527679  0.84790615  1
  S  S5  1  0.12333206  0.27162543  0.10063577  1
  S  S6  1  0.53298228  0.10873110  0.77848320  1
  S  S7  1  0.82939914  0.96777624  0.39523266  1
  S  S8  1  0.81693114  0.62534761  0.03181362  1
  S  S9  1  0.56365723  0.26195202  0.02451232  1
  S  S10  1  0.10719993  0.19761062  0.41917475  1
  S  S11  1  0.15687018  0.93813711  0.40520994  1
  S  S12  1  0.52477705  0.39509203  0.74978362  1
  S  S13  1  0.59702167  0.98802574  0.04239554  1
  S  S14  1  0.57278316  0.58830627  0.05440946  1
  S  S15  1  0.10441316  0.75678244  0.16408782  1
  S  S16  1  0.99834319  0.53777806  0.21528737  1
  S  S17  1  0.39304302  0.44336359  0.99131239  1
  S  S18  1  0.08594672  0.11938759  0.88133942  1
  S  S19  1  0.62831515  0.48291908  0.49804974  1
  S  S20  1  0.16661711  0.46958039  0.63508660  1
  S  S21  1  0.99082415  0.42089117  0.91729748  1
  S  S22  1  0.54209840  0.84466565  0.62574620  1
  S  S23  1  0.01739988  0.06093237  0.62574332  1
  S  S24  1  0.39606134  0.32305115  0.69356496  1
  S  S25  1  0.79559784  0.17405802  0.81602692  1
  S  S26  1  0.33411893  0.04360191  0.97180184  1
  S  S27  1  0.75309662  0.49285708  0.25300797  1
  S  S28  1  0.21665285  0.61852848  0.66555215  1
  S  S29  1  0.39484270  0.21862657  0.20285356  1
  S  S30  1  0.07263915  0.82765309  0.45307024  1
  S  S31  1  0.90556005  0.99406514  0.26830792  1
  S  S32  1  0.42312135  0.06228577  0.48407547  1
  S  S33  1  0.54883193  0.02752011  0.38594015  1
  S  S34  1  0.23240528  0.59766712  0.38553978  1
  S  S35  1  0.29637238  0.02111034  0.66982493  1
  S  S36  1  0.33017453  0.68000037  0.94210792  1
  S  S37  1  0.46011358  0.49485141  0.26538132  1
  S  S38  1  0.94524708  0.60607422  0.49400458  1
  S  S39  1  0.65570769  0.18460496  0.57868402  1
  S  S40  1  0.56367116  0.85963293  0.10266982  1
  S  S41  1  0.95248696  0.63883152  0.77063299  1
  S  S42  1  0.82172648  0.13059232  0.06104615  1
  S  S43  1  0.16988610  0.01153234  0.15793414  1
  S  S44  1  0.09645784  0.34671772  0.38391748  1
  S  S45  1  0.64476756  0.74530205  0.29726131  1
  S  S46  1  0.89931118  0.87559274  0.99423015  1
  S  S47  1  0.82021154  0.86978315  0.63139109  1
  S  S48  1  0.37653079  0.78523506  0.25595617  1
  S  S49  1  0.79596235  0.24134558  0.37963213  1
loop_
_geom_bond_atom_site_label_1
_geom_bond_atom_site_label_2
_geom_bond_distance
_geom_bond_site_symmetry_2
Zn1 Zn28 2.414782 1_555
Zn1 Zn45 2.504710 1_555
Zn1 Zn34 2.652836 1_555
Zn1 Zn2 3.057418 1_555
Zn1 Zn15 3.060097 1_555
S0 S36 2.039155 1_554
S0 S17 2.112180 1_554
S1 Zn25 2.251556 1_655
S1 Zn32 2.322117 1_555
S1 Zn8 2.431311 1_655
S1 Zn39 2.897407 1_555
S2 Zn37 2.230934 1_555
S2 Zn16 2.332625 1_565
S2 Zn41 2.340705 1_555
S3 Zn39 2.369631 1_555
S3 Zn17 2.371724 1_555
S3 Zn35 2.383945 1_555
S3 Zn32 2.544528 1_555
S4 Zn38 2.340580 1_555
S4 Zn28 2.390802 1_555
S4 Zn17 2.413141 1_555
S4 Zn22 2.488828 1_555
S5 Zn30 2.308015 1_555
S5 Zn18 2.320157 1_455
S5 Zn3 2.400005 1_555
S5 Zn11 2.515847 1_554
S6 Zn23 2.317760 1_555
S6 Zn47 2.344065 1_555
S6 Zn4 2.384229 1_555
S6 Zn29 2.625667 1_555
S7 Zn21 2.401948 1_555
S7 Zn20 2.420714 1_555
S8 Zn5 2.251436 1_554
S8 Zn31 2.344668 1_555
S8 Zn17 2.376412 1_554
S9 Zn47 2.277856 1_554
S9 Zn19 2.334964 1_555
S9 Zn49 2.475947 1_555
S9 Zn6 2.535752 1_555
S10 S44 2.100981 1_555
S10 Zn25 2.304718 1_555
S10 Zn10 2.390321 1_555
S11 S30 2.096493 1_555
S11 Zn10 2.382369 1_565
S11 Zn44 2.458603 1_555
S12 S24 2.113242 1_555
S12 Zn47 2.299624 1_555
S13 S40 2.073034 1_555
S13 Zn24 2.365158 1_554
S13 Zn49 2.379632 1_565
S14 Zn22 2.368805 1_554
S14 Zn17 2.378823 1_554
S14 Zn31 2.387261 1_555
S14 Zn36 2.404023 1_555
S15 Zn27 2.315134 1_455
S15 Zn33 2.315340 1_555
S15 Zn44 2.366838 1_555
S15 Zn7 2.752710 1_455
S16 Zn33 2.290914 1_655
S16 Zn3 2.308535 1_655
S16 Zn48 2.361710 1_555
S17 Zn9 2.310643 1_555
S17 Zn6 2.389656 1_556
S18 Zn14 2.262556 1_455
S18 Zn11 2.355023 1_555
S18 Zn16 2.426629 1_555
S18 Zn41 2.495678 1_545
S19 Zn46 2.134786 1_555
S19 Zn26 2.253481 1_555
S19 Zn1 3.041704 1_555
S20 S28 2.101062 1_555
S20 Zn8 2.414760 1_555
S20 Zn40 2.491692 1_555
S21 Zn32 2.263342 1_555
S21 Zn35 2.289870 1_555
S21 Zn11 2.328282 1_655
S22 Zn12 2.201784 1_555
S22 Zn38 2.400643 1_555
S22 Zn2 2.513824 1_555
S22 Zn1 2.975652 1_555
S23 Zn25 2.279362 1_555
S23 Zn14 2.298143 1_455
S23 Zn20 2.334893 1_445
S23 Zn16 2.544509 1_555
S24 Zn4 2.392583 1_555
S24 Zn40 2.442296 1_555
S25 Zn14 2.246920 1_555
S25 Zn29 2.310588 1_555
S25 Zn39 2.354315 1_555
S26 Zn23 2.242544 1_555
S26 Zn49 2.411950 1_556
S26 Zn41 2.436112 1_545
S26 Zn30 2.679751 1_556
S27 Zn26 2.296253 1_555
S27 Zn48 2.312260 1_555
S27 Zn42 2.338516 1_555
S27 Zn36 2.358380 1_555
S28 Zn37 2.259278 1_555
S28 Zn15 2.465841 1_555
S29 Zn30 2.269758 1_555
S29 Zn49 2.299680 1_555
S29 Zn6 2.347057 1_555
S30 Zn7 2.359761 1_455
S30 Zn20 2.434403 1_455
S30 Zn15 2.953481 1_555
S31 S7 2.102577 1_555
S31 Zn10 2.394454 1_665
S31 Zn27 2.443139 1_555
S31 Zn13 2.601162 1_565
S32 S33 2.172103 1_555
S32 Zn4 2.373412 1_555
S32 Zn12 2.450896 1_545
S33 Zn12 2.277217 1_545
S33 Zn0 2.334553 1_545
S34 Zn33 2.208136 1_555
S34 Zn15 2.377878 1_555
S34 Zn45 2.417065 1_555
S34 Zn34 2.726351 1_555
S35 Zn23 2.246825 1_555
S35 Zn16 2.257335 1_555
S35 Zn2 2.357646 1_545
S36 Zn22 2.272717 1_555
S37 Zn36 2.259141 1_555
S37 Zn6 2.292563 1_555
S37 Zn34 2.326792 1_555
S37 Zn45 2.788043 1_555
S38 Zn43 2.280131 1_555
S38 Zn48 2.300061 1_555
S38 Zn8 2.315485 1_655
S39 Zn46 2.165972 1_555
S39 Zn39 2.316245 1_555
S39 Zn4 2.414641 1_555
S40 Zn22 2.426382 1_554
S40 Zn31 2.494524 1_555
S40 Zn0 2.509869 1_555
S41 Zn5 2.286982 1_555
S41 Zn37 2.369816 1_655
S41 Zn43 2.372130 1_555
S41 Zn32 2.469870 1_555
S42 Zn13 2.241458 1_555
S42 Zn18 2.364174 1_555
S42 Zn19 2.394654 1_555
S42 Zn24 2.564741 1_544
S43 Zn30 2.392241 1_555
S43 Zn10 2.407532 1_555
S43 Zn44 2.432471 1_545
S43 Zn41 2.454898 1_544
S44 Zn3 2.309474 1_555
S44 Zn8 2.396729 1_555
S45 Zn21 2.281596 1_555
S45 Zn31 2.422239 1_555
S45 Zn0 2.431917 1_555
S45 Zn36 2.478825 1_555
S46 Zn5 2.260614 1_555
S46 Zn27 2.275085 1_556
S46 Zn24 2.303740 1_555
S47 Zn43 2.222100 1_555
S47 Zn20 2.284486 1_555
S48 Zn0 2.262321 1_555
S48 Zn44 2.301999 1_555
S48 Zn45 2.314616 1_555
S49 Zn13 2.145292 1_555
S49 Zn26 2.229901 1_555
