# generated using pymatgen
data_Th3Pt
_symmetry_space_group_name_H-M   'P 1'
_cell_length_a   7.00590900
_cell_length_b   7.00590774
_cell_length_c   5.14502900
_cell_angle_alpha   90.00000000
_cell_angle_beta   90.00000000
_cell_angle_gamma   120.00000125
_symmetry_Int_Tables_number   1
_chemical_formula_structural   Th3Pt
_chemical_formula_sum   'Th6 Pt2'
_cell_volume   218.69928280
_cell_formula_units_Z   2
loop_
 _symmetry_equiv_pos_site_id
 _symmetry_equiv_pos_as_xyz
  1  'x, y, z'
loop_
 _atom_site_type_symbol
 _atom_site_label
 _atom_site_symmetry_multiplicity
 _atom_site_fract_x
 _atom_site_fract_y
 _atom_site_fract_z
 _atom_site_occupancy
  Th  Th0  1  0.17773300  0.35546500  0.25000100  1
  Th  Th1  1  0.64453400  0.82226600  0.25000100  1
  Th  Th2  1  0.17773300  0.82226600  0.25000100  1
  Th  Th3  1  0.82226800  0.64453500  0.74999900  1
  Th  Th4  1  0.35546600  0.17773400  0.74999900  1
  Th  Th5  1  0.82226800  0.17773400  0.74999900  1
  Pt  Pt0  1  0.33333300  0.66666600  0.74999900  1
  Pt  Pt1  1  0.66666800  0.33333300  0.25000100  1
loop_
_geom_bond_atom_site_label_1
_geom_bond_atom_site_label_2
_geom_bond_distance
_geom_bond_site_symmetry_2
Pt0 Th2 3.191059 1_555
Pt0 Th0 3.191063 1_555
Pt0 Th1 3.191063 1_555
Pt0 Th2 3.191076 1_556
Pt0 Th0 3.191079 1_556
Pt0 Th1 3.191079 1_556
Pt0 Th4 3.505516 1_555
Pt0 Th5 3.505517 1_455
Pt0 Th3 3.505524 1_455
Pt0 Th3 3.505531 1_555
Pt0 Th4 3.505537 1_565
Pt0 Th5 3.505538 1_565
Pt1 Th5 3.191056 1_555
Pt1 Th3 3.191066 1_555
Pt1 Th4 3.191066 1_555
Pt1 Th5 3.191072 1_554
Pt1 Th3 3.191083 1_554
Pt1 Th4 3.191083 1_554
Pt1 Th2 3.505520 1_655
Pt1 Th0 3.505520 1_655
Pt1 Th1 3.505527 1_545
Pt1 Th1 3.505527 1_555
Pt1 Th2 3.505534 1_545
Pt1 Th0 3.505534 1_555
