# generated using pymatgen
data_V2O5
_symmetry_space_group_name_H-M   'P 1'
_cell_length_a   3.32501200
_cell_length_b   5.72129400
_cell_length_c   10.71310400
_cell_angle_alpha   90.00000000
_cell_angle_beta   90.00000000
_cell_angle_gamma   90.00000000
_symmetry_Int_Tables_number   1
_chemical_formula_structural   V2O5
_chemical_formula_sum   'V4 O10'
_cell_volume   203.79935416
_cell_formula_units_Z   2
loop_
 _symmetry_equiv_pos_site_id
 _symmetry_equiv_pos_as_xyz
  1  'x, y, z'
loop_
 _atom_site_type_symbol
 _atom_site_label
 _atom_site_symmetry_multiplicity
 _atom_site_fract_x
 _atom_site_fract_y
 _atom_site_fract_z
 _atom_site_occupancy
  V  V0  1  0.00000000  0.70380200  0.37163600  1
  V  V1  1  0.00000000  0.29619800  0.62836400  1
  V  V2  1  0.00000000  0.20380200  0.12836400  1
  V  V3  1  0.00000000  0.79619800  0.87163600  1
  O  O0  1  0.50000000  0.81899200  0.40222500  1
  O  O1  1  0.50000000  0.18100800  0.59777500  1
  O  O2  1  0.50000000  0.31899200  0.09777500  1
  O  O3  1  0.50000000  0.68100800  0.90222500  1
  O  O4  1  0.00000000  0.03070900  0.25184000  1
  O  O5  1  0.00000000  0.96929100  0.74816000  1
  O  O6  1  0.00000000  0.53070900  0.24816000  1
  O  O7  1  0.00000000  0.46929100  0.75184000  1
  O  O8  1  0.00000000  0.50000000  0.50000000  1
  O  O9  1  0.00000000  0.00000000  0.00000000  1
loop_
_geom_bond_atom_site_label_1
_geom_bond_atom_site_label_2
_geom_bond_distance
_geom_bond_site_symmetry_2
O0 V0 1.818143 1_655
O0 V0 1.818143 1_555
O1 V1 1.818143 1_555
O1 V1 1.818143 1_655
O2 V2 1.818143 1_655
O2 V2 1.818143 1_555
O3 V3 1.818143 1_655
O3 V3 1.818143 1_555
O4 V2 1.652439 1_555
O4 V0 2.268308 1_545
O5 V3 1.652439 1_555
O5 V1 2.268308 1_565
O6 V0 1.652439 1_555
O6 V2 2.268308 1_555
O7 V1 1.652439 1_555
O7 V3 2.268308 1_555
O8 V1 1.802968 1_555
O8 V0 1.802968 1_555
O9 V2 1.802968 1_555
O9 V3 1.802968 1_544
