# generated using pymatgen
data_SrCaBiSbO6
_symmetry_space_group_name_H-M   'P 1'
_cell_length_a   8.44013375
_cell_length_b   8.43283857
_cell_length_c   8.44251081
_cell_angle_alpha   90.00000000
_cell_angle_beta   90.00000000
_cell_angle_gamma   90.00000000
_symmetry_Int_Tables_number   1
_chemical_formula_structural   SrCaBiSbO6
_chemical_formula_sum   'Sr4 Ca4 Bi4 Sb4 O24'
_cell_volume   600.88967408
_cell_formula_units_Z   4
loop_
 _symmetry_equiv_pos_site_id
 _symmetry_equiv_pos_as_xyz
  1  'x, y, z'
loop_
 _atom_site_type_symbol
 _atom_site_label
 _atom_site_symmetry_multiplicity
 _atom_site_fract_x
 _atom_site_fract_y
 _atom_site_fract_z
 _atom_site_occupancy
  Sr  Sr0  1  0.00000000  0.50000000  0.50000000  1
  Sr  Sr1  1  0.50000000  0.00000000  0.50000000  1
  Sr  Sr2  1  0.50000000  0.50000000  0.00000000  1
  Sr  Sr3  1  0.50000000  0.00000000  0.00000000  1
  Ca  Ca0  1  0.00000000  0.50000000  0.00000000  1
  Ca  Ca1  1  0.00000000  -0.00000000  0.50000000  1
  Ca  Ca2  1  0.00000000  0.00000000  0.00000000  1
  Ca  Ca3  1  0.50000000  0.50000000  0.50000000  1
  Bi  Bi0  1  0.75326751  0.75048502  0.74968492  1
  Bi  Bi1  1  0.24673249  0.24951498  0.74968492  1
  Bi  Bi2  1  0.24673249  0.75048502  0.25031508  1
  Bi  Bi3  1  0.75326751  0.24951498  0.25031508  1
  Sb  Sb0  1  0.24730335  0.25004564  0.25052590  1
  Sb  Sb1  1  0.75269665  0.74995436  0.25052590  1
  Sb  Sb2  1  0.75269665  0.25004564  0.74947410  1
  Sb  Sb3  1  0.24730335  0.74995436  0.74947410  1
  O  O0  1  0.01839004  0.19446099  0.29664996  1
  O  O1  1  0.98160996  0.80553901  0.29664996  1
  O  O2  1  0.98160996  0.19446099  0.70335004  1
  O  O3  1  0.01839004  0.80553901  0.70335004  1
  O  O4  1  0.28413942  0.01950486  0.20079719  1
  O  O5  1  0.28413942  0.98049514  0.79920281  1
  O  O6  1  0.71586058  0.98049514  0.20079719  1
  O  O7  1  0.71586058  0.01950486  0.79920281  1
  O  O8  1  0.19146831  0.29301808  0.02158762  1
  O  O9  1  0.80853169  0.29301808  0.97841238  1
  O  O10  1  0.19146831  0.70698192  0.97841238  1
  O  O11  1  0.80853169  0.70698192  0.02158762  1
  O  O12  1  0.47985678  0.29404793  0.21426019  1
  O  O13  1  0.52014322  0.70595207  0.21426019  1
  O  O14  1  0.52014322  0.29404793  0.78573981  1
  O  O15  1  0.47985678  0.70595207  0.78573981  1
  O  O16  1  0.21347726  0.48178374  0.29728692  1
  O  O17  1  0.21347726  0.51821626  0.70271308  1
  O  O18  1  0.78652274  0.51821626  0.29728692  1
  O  O19  1  0.78652274  0.48178374  0.70271308  1
  O  O20  1  0.29682658  0.21644443  0.48286531  1
  O  O21  1  0.70317342  0.21644443  0.51713469  1
  O  O22  1  0.29682658  0.78355557  0.51713469  1
  O  O23  1  0.70317342  0.78355557  0.48286531  1
loop_
_geom_bond_atom_site_label_1
_geom_bond_atom_site_label_2
_geom_bond_distance
_geom_bond_site_symmetry_2
Ca0 O9 2.385647 1_454
Ca0 O11 2.385647 1_455
Ca0 O8 2.385647 1_555
Ca0 O10 2.385647 1_554
Ca1 O2 2.379197 1_455
Ca1 O3 2.379197 1_545
Ca1 O1 2.379197 1_445
Ca1 O0 2.379197 1_555
Ca2 O5 2.941447 1_544
Ca2 O4 2.941447 1_555
Ca2 O7 2.941447 1_454
Ca2 O6 2.941447 1_445
Ca2 O10 2.958115 1_544
Ca2 O9 2.958115 1_454
Ca2 O8 2.958115 1_555
Ca2 O11 2.958115 1_445
Ca2 O3 2.997599 1_544
Ca2 O0 2.997599 1_555
Ca2 O2 2.997599 1_454
Ca2 O1 2.997599 1_445
Ca3 O22 2.946054 1_555
Ca3 O20 2.946054 1_555
Ca3 O23 2.946054 1_555
Ca3 O21 2.946054 1_555
Ca3 O18 2.966587 1_555
Ca3 O19 2.966587 1_555
Ca3 O16 2.966587 1_555
Ca3 O17 2.966587 1_555
Ca3 O14 2.977369 1_555
Ca3 O12 2.977369 1_555
Ca3 O13 2.977369 1_555
Ca3 O15 2.977369 1_555
Bi0 O23 2.308866 1_555
Bi0 O19 2.317414 1_555
Bi0 O3 2.318562 1_655
Bi0 O7 2.328304 1_565
Bi0 O15 2.357713 1_555
Bi0 O11 2.371003 1_556
Bi1 O20 2.308866 1_555
Bi1 O17 2.317414 1_555
Bi1 O2 2.318562 1_455
Bi1 O5 2.328304 1_545
Bi1 O14 2.357713 1_555
Bi1 O8 2.371003 1_556
Bi2 O22 2.308866 1_555
Bi2 O16 2.317414 1_555
Bi2 O1 2.318562 1_455
Bi2 O4 2.328304 1_565
Bi2 O13 2.357713 1_555
Bi2 O10 2.371003 1_554
Bi3 O21 2.308866 1_555
Bi3 O18 2.317414 1_555
Bi3 O0 2.318562 1_655
Bi3 O6 2.328304 1_545
Bi3 O12 2.357713 1_555
Bi3 O9 2.371003 1_554
O0 Sb0 2.025883 1_555
O1 Sb1 2.025883 1_555
O2 Sb2 2.025883 1_555
O3 Sb3 2.025883 1_555
O4 Sb0 2.013082 1_555
O4 Sr3 2.494025 1_555
O4 Sr1 3.118836 1_555
O5 Sb3 2.013082 1_555
O5 Sr3 2.494025 1_566
O5 Sr1 3.118836 1_565
O6 Sb1 2.013082 1_555
O6 Sr3 2.494025 1_565
O6 Sr1 3.118836 1_565
O7 Sb2 2.013082 1_555
O7 Sr3 2.494025 1_556
O7 Sr1 3.118836 1_555
O8 Sb0 2.022170 1_555
O8 Sr2 3.140201 1_555
O9 Sb2 2.022170 1_555
O9 Sr2 3.140201 1_556
O10 Sb3 2.022170 1_555
O10 Sr2 3.140201 1_556
O11 Sb1 2.022170 1_555
O11 Sr2 3.140201 1_555
O12 Sb0 2.020877 1_555
O12 Sr2 2.513432 1_555
O12 Sr3 3.074038 1_555
O13 Sb1 2.020877 1_555
O13 Sr2 2.513432 1_555
O13 Sr3 3.074038 1_565
O14 Sb2 2.020877 1_555
O14 Sr2 2.513432 1_556
O14 Sr3 3.074038 1_556
O15 Sb3 2.020877 1_555
O15 Sr2 2.513432 1_556
O15 Sr3 3.074038 1_566
O16 Sb0 2.014025 1_555
O16 Sr0 2.489761 1_555
O17 Sb3 2.014025 1_555
O17 Sr0 2.489761 1_555
O18 Sb1 2.014025 1_555
O18 Sr0 2.489761 1_655
O19 Sb2 2.014025 1_555
O19 Sr0 2.489761 1_655
O20 Sb0 2.025485 1_555
O20 Sr1 2.508587 1_555
O21 Sb2 2.025485 1_555
O21 Sr1 2.508587 1_555
O22 Sb3 2.025485 1_555
O22 Sr1 2.508587 1_565
O23 Sb1 2.025485 1_555
O23 Sr1 2.508587 1_565
