# generated using pymatgen
data_Ba20Zn5Hg99
_symmetry_space_group_name_H-M   'P 1'
_cell_length_a   17.10467403
_cell_length_b   17.10467403
_cell_length_c   17.10467403
_cell_angle_alpha   60.00000000
_cell_angle_beta   60.00000000
_cell_angle_gamma   60.00000000
_symmetry_Int_Tables_number   1
_chemical_formula_structural   Ba20Zn5Hg99
_chemical_formula_sum   'Ba20 Zn5 Hg99'
_cell_volume   3538.58317975
_cell_formula_units_Z   1
loop_
 _symmetry_equiv_pos_site_id
 _symmetry_equiv_pos_as_xyz
  1  'x, y, z'
loop_
 _atom_site_type_symbol
 _atom_site_label
 _atom_site_symmetry_multiplicity
 _atom_site_fract_x
 _atom_site_fract_y
 _atom_site_fract_z
 _atom_site_occupancy
  Ba  Ba0  1  0.59661800  0.59661800  0.21014500  1
  Ba  Ba1  1  0.59661800  0.21014500  0.59661800  1
  Ba  Ba2  1  0.21014500  0.59661800  0.59661800  1
  Ba  Ba3  1  0.59661800  0.59661800  0.59661800  1
  Ba  Ba4  1  0.84382900  0.84382900  0.46851200  1
  Ba  Ba5  1  0.84382900  0.46851200  0.84382900  1
  Ba  Ba6  1  0.46851200  0.84382900  0.84382900  1
  Ba  Ba7  1  0.84382900  0.84382900  0.84382900  1
  Ba  Ba8  1  0.18515000  0.18515000  0.81485000  1
  Ba  Ba9  1  0.81485000  0.18515000  0.81485000  1
  Ba  Ba10  1  0.18515000  0.81485000  0.81485000  1
  Ba  Ba11  1  0.81485000  0.81485000  0.18515000  1
  Ba  Ba12  1  0.18515000  0.81485000  0.18515000  1
  Ba  Ba13  1  0.81485000  0.18515000  0.18515000  1
  Ba  Ba14  1  0.05137800  0.05137800  0.44862200  1
  Ba  Ba15  1  0.44862200  0.05137800  0.44862200  1
  Ba  Ba16  1  0.05137800  0.44862200  0.44862200  1
  Ba  Ba17  1  0.44862200  0.44862200  0.05137800  1
  Ba  Ba18  1  0.05137800  0.44862200  0.05137800  1
  Ba  Ba19  1  0.44862200  0.05137800  0.05137800  1
  Zn  Zn0  1  0.00000000  0.00000000  0.00000000  1
  Zn  Zn1  1  0.13085000  0.13085000  0.60744900  1
  Zn  Zn2  1  0.13085000  0.60744900  0.13085000  1
  Zn  Zn3  1  0.60744900  0.13085000  0.13085000  1
  Zn  Zn4  1  0.13085000  0.13085000  0.13085000  1
  Hg  Hg0  1  0.41764700  0.82625500  0.10834700  1
  Hg  Hg1  1  0.64775100  0.41764800  0.10834700  1
  Hg  Hg2  1  0.82625500  0.64775100  0.10834700  1
  Hg  Hg3  1  0.64775100  0.82625500  0.10834700  1
  Hg  Hg4  1  0.82625500  0.41764800  0.10834700  1
  Hg  Hg5  1  0.41764700  0.64775100  0.10834700  1
  Hg  Hg6  1  0.64775100  0.10834700  0.82625500  1
  Hg  Hg7  1  0.82625500  0.10834700  0.41764700  1
  Hg  Hg8  1  0.41764800  0.10834700  0.64775100  1
  Hg  Hg9  1  0.41764800  0.10834700  0.82625500  1
  Hg  Hg10  1  0.64775100  0.10834700  0.41764700  1
  Hg  Hg11  1  0.82625500  0.10834700  0.64775100  1
  Hg  Hg12  1  0.10834700  0.64775100  0.41764800  1
  Hg  Hg13  1  0.10834700  0.82625500  0.64775100  1
  Hg  Hg14  1  0.10834700  0.41764800  0.82625500  1
  Hg  Hg15  1  0.10834700  0.41764800  0.64775100  1
  Hg  Hg16  1  0.10834700  0.64775100  0.82625500  1
  Hg  Hg17  1  0.10834700  0.82625500  0.41764700  1
  Hg  Hg18  1  0.82625500  0.41764800  0.64775100  1
  Hg  Hg19  1  0.41764700  0.64775100  0.82625500  1
  Hg  Hg20  1  0.64775100  0.82625500  0.41764700  1
  Hg  Hg21  1  0.82625500  0.64775100  0.41764700  1
  Hg  Hg22  1  0.41764800  0.82625500  0.64775100  1
  Hg  Hg23  1  0.64775100  0.41764700  0.82625500  1
  Hg  Hg24  1  0.61770900  0.79561600  0.96896600  1
  Hg  Hg25  1  0.61770900  0.61770900  0.96896600  1
  Hg  Hg26  1  0.79561600  0.61770900  0.96896600  1
  Hg  Hg27  1  0.61770900  0.96896600  0.79561600  1
  Hg  Hg28  1  0.79561600  0.96896600  0.61770900  1
  Hg  Hg29  1  0.61770900  0.96896600  0.61770900  1
  Hg  Hg30  1  0.96896600  0.61770900  0.61770900  1
  Hg  Hg31  1  0.96896600  0.79561600  0.61770900  1
  Hg  Hg32  1  0.96896600  0.61770900  0.79561600  1
  Hg  Hg33  1  0.79561600  0.61770900  0.61770900  1
  Hg  Hg34  1  0.61770900  0.61770900  0.79561600  1
  Hg  Hg35  1  0.61770900  0.79561600  0.61770900  1
  Hg  Hg36  1  0.99913300  0.29501700  0.70671600  1
  Hg  Hg37  1  0.99913300  0.99913300  0.70671600  1
  Hg  Hg38  1  0.29501700  0.99913300  0.70671600  1
  Hg  Hg39  1  0.99913300  0.70671600  0.29501700  1
  Hg  Hg40  1  0.29501700  0.70671600  0.99913300  1
  Hg  Hg41  1  0.99913300  0.70671600  0.99913300  1
  Hg  Hg42  1  0.70671600  0.99913300  0.99913300  1
  Hg  Hg43  1  0.70671600  0.29501700  0.99913300  1
  Hg  Hg44  1  0.70671600  0.99913300  0.29501700  1
  Hg  Hg45  1  0.29501700  0.99913300  0.99913300  1
  Hg  Hg46  1  0.99913300  0.99913300  0.29501700  1
  Hg  Hg47  1  0.99913300  0.29501700  0.99913300  1
  Hg  Hg48  1  0.45292400  0.82719600  0.26695600  1
  Hg  Hg49  1  0.45292400  0.45292400  0.26695600  1
  Hg  Hg50  1  0.82719600  0.45292400  0.26695600  1
  Hg  Hg51  1  0.45292400  0.26695600  0.82719600  1
  Hg  Hg52  1  0.82719600  0.26695600  0.45292400  1
  Hg  Hg53  1  0.45292400  0.26695600  0.45292400  1
  Hg  Hg54  1  0.26695600  0.45292400  0.45292400  1
  Hg  Hg55  1  0.26695600  0.82719600  0.45292400  1
  Hg  Hg56  1  0.26695600  0.45292400  0.82719600  1
  Hg  Hg57  1  0.82719600  0.45292400  0.45292400  1
  Hg  Hg58  1  0.45292400  0.45292400  0.82719600  1
  Hg  Hg59  1  0.45292400  0.82719600  0.45292400  1
  Hg  Hg60  1  0.20123500  0.20123500  0.39629500  1
  Hg  Hg61  1  0.20123500  0.39629500  0.20123500  1
  Hg  Hg62  1  0.39629500  0.20123500  0.20123500  1
  Hg  Hg63  1  0.20123500  0.20123500  0.20123500  1
  Hg  Hg64  1  0.32656100  0.32656100  0.02031700  1
  Hg  Hg65  1  0.32656100  0.02031700  0.32656100  1
  Hg  Hg66  1  0.02031700  0.32656100  0.32656100  1
  Hg  Hg67  1  0.32656100  0.32656100  0.32656100  1
  Hg  Hg68  1  0.45384900  0.45384900  0.63845400  1
  Hg  Hg69  1  0.45384900  0.63845400  0.45384900  1
  Hg  Hg70  1  0.63845400  0.45384900  0.45384900  1
  Hg  Hg71  1  0.45384900  0.45384900  0.45384900  1
  Hg  Hg72  1  0.06413600  0.06413600  0.80759300  1
  Hg  Hg73  1  0.06413600  0.80759300  0.06413600  1
  Hg  Hg74  1  0.80759300  0.06413600  0.06413600  1
  Hg  Hg75  1  0.06413600  0.06413600  0.06413600  1
  Hg  Hg76  1  0.92877900  0.92877900  0.21366400  1
  Hg  Hg77  1  0.92877900  0.21366400  0.92877900  1
  Hg  Hg78  1  0.21366400  0.92877900  0.92877900  1
  Hg  Hg79  1  0.92877900  0.92877900  0.92877900  1
  Hg  Hg80  1  0.23645200  0.96642600  0.56067000  1
  Hg  Hg81  1  0.23645200  0.23645200  0.56067000  1
  Hg  Hg82  1  0.96642600  0.23645200  0.56067000  1
  Hg  Hg83  1  0.23645200  0.56067000  0.96642600  1
  Hg  Hg84  1  0.96642600  0.56067000  0.23645200  1
  Hg  Hg85  1  0.23645200  0.56067000  0.23645200  1
  Hg  Hg86  1  0.56067000  0.23645200  0.23645200  1
  Hg  Hg87  1  0.56067000  0.96642600  0.23645200  1
  Hg  Hg88  1  0.56067000  0.23645200  0.96642600  1
  Hg  Hg89  1  0.96642600  0.23645200  0.23645200  1
  Hg  Hg90  1  0.23645200  0.23645200  0.96642600  1
  Hg  Hg91  1  0.23645200  0.96642600  0.23645200  1
  Hg  Hg92  1  0.32663000  0.32663000  0.67337000  1
  Hg  Hg93  1  0.67337000  0.32663000  0.67337000  1
  Hg  Hg94  1  0.32663000  0.67337000  0.67337000  1
  Hg  Hg95  1  0.67337000  0.67337000  0.32663000  1
  Hg  Hg96  1  0.32663000  0.67337000  0.32663000  1
  Hg  Hg97  1  0.67337000  0.32663000  0.32663000  1
  Hg  Hg98  1  0.75000000  0.75000000  0.75000000  1
loop_
_geom_bond_atom_site_label_1
_geom_bond_atom_site_label_2
_geom_bond_distance
_geom_bond_site_symmetry_2
Ba0 Hg49 3.780272 1_555
Ba0 Hg48 3.780286 1_555
Ba0 Hg50 3.780286 1_555
Ba0 Hg1 3.781253 1_555
Ba0 Hg4 3.781267 1_555
Ba0 Hg5 3.781269 1_555
Ba0 Hg0 3.781276 1_555
Ba0 Hg2 3.781285 1_555
Ba0 Hg3 3.781285 1_555
Ba0 Hg97 3.790989 1_555
Ba0 Hg96 3.790989 1_555
Ba0 Hg95 3.791002 1_555
Ba0 Hg25 3.798947 1_554
Ba0 Hg26 3.798954 1_554
Ba0 Hg24 3.798954 1_554
Ba0 Hg71 3.861031 1_555
Ba0 Hg70 3.861045 1_555
Ba0 Hg69 3.861045 1_555
Ba1 Hg53 3.780272 1_555
Ba1 Hg52 3.780286 1_555
Ba1 Hg51 3.780286 1_555
Ba1 Hg8 3.781253 1_555
Ba1 Hg9 3.781267 1_555
Ba1 Hg10 3.781269 1_555
Ba1 Hg7 3.781276 1_555
Ba1 Hg11 3.781285 1_555
Ba1 Hg6 3.781285 1_555
Ba1 Hg92 3.790989 1_555
Ba1 Hg97 3.790989 1_555
Ba1 Hg93 3.791002 1_555
Ba1 Hg29 3.798947 1_545
Ba1 Hg27 3.798954 1_545
Ba1 Hg28 3.798954 1_545
Ba1 Hg71 3.861031 1_555
Ba1 Hg70 3.861045 1_555
Ba1 Hg68 3.861045 1_555
Ba2 Hg54 3.780272 1_555
Ba2 Hg56 3.780286 1_555
Ba2 Hg55 3.780286 1_555
Ba2 Hg12 3.781253 1_555
Ba2 Hg15 3.781253 1_555
Ba2 Hg14 3.781267 1_555
Ba2 Hg17 3.781276 1_555
Ba2 Hg16 3.781285 1_555
Ba2 Hg13 3.781285 1_555
Ba2 Hg96 3.790989 1_555
Ba2 Hg92 3.790989 1_555
Ba2 Hg94 3.791002 1_555
Ba2 Hg30 3.798947 1_455
Ba2 Hg32 3.798954 1_455
Ba2 Hg31 3.798954 1_455
Ba2 Hg71 3.861031 1_555
Ba2 Hg69 3.861045 1_555
Ba2 Hg68 3.861045 1_555
Ba3 Hg57 3.780278 1_555
Ba3 Hg58 3.780278 1_555
Ba3 Hg59 3.780278 1_555
Ba3 Hg18 3.781279 1_555
Ba3 Hg22 3.781279 1_555
Ba3 Hg23 3.781282 1_555
Ba3 Hg20 3.781282 1_555
Ba3 Hg21 3.781282 1_555
Ba3 Hg19 3.781282 1_555
Ba3 Hg95 3.790987 1_555
Ba3 Hg94 3.790987 1_555
Ba3 Hg93 3.790987 1_555
Ba3 Hg35 3.798964 1_555
Ba3 Hg34 3.798964 1_555
Ba3 Hg33 3.798964 1_555
Ba3 Hg68 3.861016 1_555
Ba3 Hg70 3.861016 1_555
Ba3 Hg69 3.861016 1_555
Ba4 Hg76 3.559184 1_555
Ba4 Hg33 3.656032 1_555
Ba4 Hg35 3.656032 1_555
Ba4 Hg30 3.656039 1_555
Ba4 Hg29 3.656039 1_555
Ba4 Hg28 3.656046 1_555
Ba4 Hg31 3.656046 1_555
Ba4 Hg44 3.769615 1_555
Ba4 Hg39 3.769615 1_555
Ba4 Hg46 3.769615 1_555
Ba4 Hg98 3.931235 1_555
Ba4 Hg20 4.035252 1_555
Ba4 Hg21 4.035252 1_555
Ba4 Hg12 4.035261 1_655
Ba4 Hg10 4.035262 1_565
Ba4 Hg7 4.035268 1_565
Ba4 Hg17 4.035268 1_655
Ba5 Hg77 3.559184 1_555
Ba5 Hg33 3.656032 1_555
Ba5 Hg34 3.656032 1_555
Ba5 Hg30 3.656039 1_555
Ba5 Hg25 3.656039 1_555
Ba5 Hg32 3.656046 1_555
Ba5 Hg26 3.656046 1_555
Ba5 Hg43 3.769615 1_555
Ba5 Hg36 3.769615 1_555
Ba5 Hg47 3.769615 1_555
Ba5 Hg98 3.931235 1_555
Ba5 Hg18 4.035240 1_555
Ba5 Hg23 4.035252 1_555
Ba5 Hg1 4.035261 1_556
Ba5 Hg15 4.035261 1_655
Ba5 Hg14 4.035274 1_655
Ba5 Hg4 4.035274 1_556
Ba6 Hg78 3.559184 1_555
Ba6 Hg35 3.656032 1_555
Ba6 Hg34 3.656032 1_555
Ba6 Hg25 3.656039 1_555
Ba6 Hg29 3.656039 1_555
Ba6 Hg24 3.656046 1_555
Ba6 Hg27 3.656046 1_555
Ba6 Hg40 3.769615 1_555
Ba6 Hg38 3.769615 1_555
Ba6 Hg45 3.769615 1_555
Ba6 Hg98 3.931235 1_555
Ba6 Hg22 4.035240 1_555
Ba6 Hg19 4.035252 1_555
Ba6 Hg8 4.035261 1_565
Ba6 Hg5 4.035262 1_556
Ba6 Hg0 4.035268 1_556
Ba6 Hg9 4.035274 1_565
Ba7 Hg79 3.559212 1_555
Ba7 Hg28 3.656031 1_555
Ba7 Hg31 3.656031 1_555
Ba7 Hg26 3.656031 1_555
Ba7 Hg32 3.656031 1_555
Ba7 Hg27 3.656031 1_555
Ba7 Hg24 3.656031 1_555
Ba7 Hg42 3.769615 1_555
Ba7 Hg37 3.769615 1_555
Ba7 Hg41 3.769615 1_555
Ba7 Hg98 3.931222 1_555
Ba7 Hg16 4.035263 1_655
Ba7 Hg13 4.035263 1_655
Ba7 Hg2 4.035263 1_556
Ba7 Hg3 4.035263 1_556
Ba7 Hg11 4.035263 1_565
Ba7 Hg6 4.035263 1_565
Ba8 Hg92 3.422353 1_555
Ba8 Hg15 3.588032 1_555
Ba8 Hg8 3.588032 1_555
Ba8 Hg14 3.588039 1_555
Ba8 Hg9 3.588039 1_555
Ba8 Hg72 3.658251 1_555
Ba8 Hg75 3.658261 1_556
Ba8 Hg47 3.675039 1_455
Ba8 Hg45 3.675039 1_545
Ba8 Hg36 3.675051 1_455
Ba8 Hg38 3.675051 1_545
Ba8 Hg78 3.678470 1_545
Ba8 Hg77 3.678470 1_455
Ba8 Hg90 3.685383 1_555
Ba8 Hg81 3.685383 1_555
Ba9 Hg93 3.422353 1_555
Ba9 Hg23 3.588023 1_555
Ba9 Hg11 3.588023 1_555
Ba9 Hg6 3.588023 1_555
Ba9 Hg18 3.588036 1_555
Ba9 Hg74 3.658265 1_556
Ba9 Hg72 3.658265 1_655
Ba9 Hg36 3.675036 1_555
Ba9 Hg43 3.675036 1_555
Ba9 Hg37 3.675048 1_545
Ba9 Hg42 3.675048 1_545
Ba9 Hg79 3.678474 1_545
Ba9 Hg77 3.678485 1_555
Ba9 Hg82 3.685383 1_555
Ba9 Hg88 3.685383 1_555
Ba10 Hg94 3.422353 1_555
Ba10 Hg19 3.588023 1_555
Ba10 Hg13 3.588023 1_555
Ba10 Hg16 3.588023 1_555
Ba10 Hg22 3.588036 1_555
Ba10 Hg73 3.658265 1_556
Ba10 Hg72 3.658265 1_565
Ba10 Hg38 3.675036 1_555
Ba10 Hg40 3.675036 1_555
Ba10 Hg37 3.675048 1_455
Ba10 Hg41 3.675048 1_455
Ba10 Hg79 3.678474 1_455
Ba10 Hg78 3.678485 1_555
Ba10 Hg83 3.685383 1_555
Ba10 Hg80 3.685383 1_555
Ba11 Hg95 3.422353 1_555
Ba11 Hg20 3.588023 1_555
Ba11 Hg21 3.588023 1_555
Ba11 Hg2 3.588023 1_555
Ba11 Hg3 3.588023 1_555
Ba11 Hg73 3.658265 1_655
Ba11 Hg74 3.658265 1_565
Ba11 Hg39 3.675036 1_555
Ba11 Hg44 3.675036 1_555
Ba11 Hg41 3.675048 1_554
Ba11 Hg42 3.675048 1_554
Ba11 Hg79 3.678474 1_554
Ba11 Hg76 3.678485 1_555
Ba11 Hg87 3.685383 1_555
Ba11 Hg84 3.685383 1_555
Ba12 Hg96 3.422353 1_555
Ba12 Hg17 3.588023 1_555
Ba12 Hg0 3.588023 1_555
Ba12 Hg5 3.588023 1_555
Ba12 Hg12 3.588032 1_555
Ba12 Hg73 3.658251 1_555
Ba12 Hg75 3.658261 1_565
Ba12 Hg46 3.675039 1_455
Ba12 Hg45 3.675039 1_554
Ba12 Hg39 3.675051 1_455
Ba12 Hg40 3.675051 1_554
Ba12 Hg78 3.678470 1_554
Ba12 Hg76 3.678470 1_455
Ba12 Hg91 3.685383 1_555
Ba12 Hg85 3.685383 1_555
Ba13 Hg97 3.422353 1_555
Ba13 Hg7 3.588023 1_555
Ba13 Hg10 3.588023 1_555
Ba13 Hg1 3.588032 1_555
Ba13 Hg4 3.588039 1_555
Ba13 Hg74 3.658251 1_555
Ba13 Hg75 3.658261 1_655
Ba13 Hg46 3.675039 1_545
Ba13 Hg47 3.675039 1_554
Ba13 Hg43 3.675051 1_554
Ba13 Hg44 3.675051 1_545
Ba13 Hg77 3.678470 1_554
Ba13 Hg76 3.678470 1_545
Ba13 Hg89 3.685383 1_555
Ba13 Hg86 3.685383 1_555
Ba14 Hg17 3.718795 1_545
Ba14 Hg7 3.718795 1_455
Ba14 Hg11 3.718795 1_455
Ba14 Hg13 3.718795 1_545
Ba14 Hg37 3.740917 1_445
Ba14 Hg46 3.740933 1_445
Ba14 Hg55 3.762415 1_545
Ba14 Hg52 3.762415 1_455
Ba14 Hg89 3.806320 1_455
Ba14 Hg91 3.806320 1_545
Ba14 Hg82 3.806320 1_455
Ba14 Hg80 3.806320 1_545
Ba14 Hg66 3.946850 1_555
Ba14 Hg65 3.946850 1_555
Ba14 Hg63 3.990427 1_555
Ba14 Hg60 3.990427 1_555
Ba15 Hg22 3.718791 1_545
Ba15 Hg20 3.718795 1_545
Ba15 Hg10 3.718795 1_555
Ba15 Hg8 3.718802 1_555
Ba15 Hg38 3.740921 1_545
Ba15 Hg44 3.740921 1_545
Ba15 Hg59 3.762415 1_545
Ba15 Hg53 3.762415 1_555
Ba15 Hg80 3.806320 1_545
Ba15 Hg87 3.806320 1_545
Ba15 Hg81 3.806320 1_555
Ba15 Hg86 3.806320 1_555
Ba15 Hg65 3.946850 1_555
Ba15 Hg67 3.946850 1_555
Ba15 Hg62 3.990427 1_555
Ba15 Hg60 3.990427 1_555
Ba16 Hg18 3.718791 1_455
Ba16 Hg21 3.718795 1_455
Ba16 Hg15 3.718802 1_555
Ba16 Hg12 3.718802 1_555
Ba16 Hg39 3.740921 1_455
Ba16 Hg36 3.740921 1_455
Ba16 Hg57 3.762415 1_455
Ba16 Hg54 3.762415 1_555
Ba16 Hg84 3.806320 1_455
Ba16 Hg82 3.806320 1_455
Ba16 Hg85 3.806320 1_555
Ba16 Hg81 3.806320 1_555
Ba16 Hg66 3.946850 1_555
Ba16 Hg67 3.946850 1_555
Ba16 Hg61 3.990427 1_555
Ba16 Hg60 3.990427 1_555
Ba17 Hg19 3.718795 1_554
Ba17 Hg23 3.718795 1_554
Ba17 Hg5 3.718795 1_555
Ba17 Hg1 3.718802 1_555
Ba17 Hg43 3.740921 1_554
Ba17 Hg40 3.740921 1_554
Ba17 Hg49 3.762415 1_555
Ba17 Hg58 3.762415 1_554
Ba17 Hg83 3.806320 1_554
Ba17 Hg88 3.806320 1_554
Ba17 Hg85 3.806320 1_555
Ba17 Hg86 3.806320 1_555
Ba17 Hg64 3.946850 1_555
Ba17 Hg67 3.946850 1_555
Ba17 Hg61 3.990427 1_555
Ba17 Hg62 3.990427 1_555
Ba18 Hg14 3.718785 1_554
Ba18 Hg4 3.718785 1_455
Ba18 Hg16 3.718795 1_554
Ba18 Hg2 3.718795 1_455
Ba18 Hg41 3.740917 1_454
Ba18 Hg47 3.740933 1_454
Ba18 Hg50 3.762415 1_455
Ba18 Hg56 3.762415 1_554
Ba18 Hg89 3.806320 1_455
Ba18 Hg90 3.806320 1_554
Ba18 Hg84 3.806320 1_455
Ba18 Hg83 3.806320 1_554
Ba18 Hg64 3.946850 1_555
Ba18 Hg66 3.946850 1_555
Ba18 Hg63 3.990427 1_555
Ba18 Hg61 3.990427 1_555
Ba19 Hg9 3.718785 1_554
Ba19 Hg0 3.718795 1_545
Ba19 Hg3 3.718795 1_545
Ba19 Hg6 3.718795 1_554
Ba19 Hg42 3.740917 1_544
Ba19 Hg45 3.740933 1_544
Ba19 Hg48 3.762415 1_545
Ba19 Hg51 3.762415 1_554
Ba19 Hg90 3.806320 1_554
Ba19 Hg91 3.806320 1_545
Ba19 Hg87 3.806320 1_545
Ba19 Hg88 3.806320 1_554
Ba19 Hg65 3.946850 1_555
Ba19 Hg64 3.946850 1_555
Ba19 Hg63 3.990427 1_555
Ba19 Hg62 3.990427 1_555
Hg0 Hg45 2.970743 1_554
Hg0 Hg24 2.994372 1_554
Hg0 Hg5 3.053253 1_555
Hg0 Hg48 3.068364 1_555
Hg1 Hg43 2.970763 1_554
Hg1 Hg25 2.994361 1_554
Hg1 Hg4 3.053253 1_555
Hg1 Hg49 3.068363 1_555
Hg2 Hg41 2.970734 1_554
Hg2 Hg26 2.994372 1_554
Hg2 Hg3 3.053253 1_555
Hg2 Hg50 3.068364 1_555
Hg3 Hg42 2.970734 1_554
Hg3 Hg48 3.068364 1_555
Hg4 Hg47 2.970752 1_554
Hg4 Hg50 3.068353 1_555
Hg8 Hg9 3.053253 1_555
Hg10 Hg44 2.970748 1_545
Hg10 Hg29 2.994372 1_545
Hg10 Hg7 3.053253 1_555
Hg10 Hg53 3.068364 1_555
Hg11 Hg37 2.970734 1_545
Hg11 Hg28 2.994372 1_545
Hg11 Hg6 3.053253 1_555
Hg11 Hg52 3.068364 1_555
Hg12 Hg39 2.970763 1_455
Hg12 Hg30 2.994361 1_455
Hg12 Hg17 3.053244 1_555
Hg12 Hg54 3.068363 1_555
Hg13 Hg37 2.970734 1_455
Hg13 Hg31 2.994372 1_455
Hg13 Hg16 3.053253 1_555
Hg13 Hg55 3.068364 1_555
Hg14 Hg47 2.970752 1_455
Hg14 Hg32 2.994361 1_455
Hg14 Hg15 3.053253 1_555
Hg14 Hg56 3.068353 1_555
Hg15 Hg36 2.970763 1_455
Hg15 Hg30 2.994361 1_455
Hg15 Hg54 3.068363 1_555
Hg16 Hg41 2.970734 1_455
Hg16 Hg32 2.994372 1_455
Hg16 Hg56 3.068364 1_555
Hg17 Hg46 2.970743 1_455
Hg17 Hg31 2.994372 1_455
Hg17 Hg55 3.068364 1_555
Hg18 Hg36 2.970735 1_555
Hg18 Hg33 2.994355 1_555
Hg18 Hg23 3.053253 1_555
Hg18 Hg57 3.068370 1_555
Hg19 Hg40 2.970735 1_555
Hg19 Hg34 2.994372 1_555
Hg19 Hg22 3.053253 1_555
Hg19 Hg58 3.068364 1_555
Hg20 Hg44 2.970735 1_555
Hg20 Hg35 2.994372 1_555
Hg20 Hg21 3.053253 1_555
Hg20 Hg59 3.068364 1_555
Hg21 Hg39 2.970735 1_555
Hg21 Hg33 2.994372 1_555
Hg21 Hg57 3.068364 1_555
Hg22 Hg38 2.970735 1_555
Hg22 Hg35 2.994355 1_555
Hg22 Hg59 3.068370 1_555
Hg23 Hg43 2.970735 1_555
Hg23 Hg34 2.994372 1_555
Hg23 Hg58 3.068364 1_555
Hg24 Hg27 2.965095 1_555
Hg24 Hg3 2.994372 1_556
Hg24 Hg25 3.043041 1_555
Hg24 Hg26 3.043041 1_555
Hg25 Hg34 2.965095 1_555
Hg25 Hg5 2.994372 1_556
Hg25 Hg26 3.043041 1_555
Hg26 Hg32 2.965095 1_555
Hg26 Hg4 2.994361 1_556
Hg27 Hg9 2.994361 1_565
Hg27 Hg6 2.994372 1_565
Hg27 Hg28 3.043041 1_555
Hg27 Hg29 3.043041 1_555
Hg28 Hg31 2.965095 1_555
Hg28 Hg7 2.994372 1_565
Hg28 Hg29 3.043041 1_555
Hg29 Hg35 2.965095 1_555
Hg29 Hg8 2.994361 1_565
Hg30 Hg33 2.965095 1_555
Hg30 Hg32 3.043041 1_555
Hg30 Hg31 3.043041 1_555
Hg31 Hg32 3.043041 1_555
Hg33 Hg35 3.043041 1_555
Hg33 Hg34 3.043041 1_555
Hg34 Hg35 3.043041 1_555
Hg36 Hg77 3.103213 1_555
Hg36 Zn1 3.234174 1_655
Hg36 Hg72 3.243867 1_655
Hg37 Hg79 3.103214 1_555
Hg37 Zn1 3.234174 1_665
Hg37 Hg72 3.243894 1_665
Hg38 Hg8 2.970763 1_565
Hg38 Hg78 3.103213 1_555
Hg38 Zn1 3.234174 1_565
Hg38 Hg72 3.243867 1_565
Hg39 Hg76 3.103213 1_555
Hg39 Zn2 3.234174 1_655
Hg39 Hg73 3.243867 1_655
Hg40 Hg5 2.970748 1_556
Hg40 Hg78 3.103213 1_555
Hg40 Zn2 3.234174 1_556
Hg40 Hg73 3.243867 1_556
Hg41 Hg79 3.103214 1_555
Hg41 Zn2 3.234174 1_656
Hg41 Hg73 3.243894 1_656
Hg42 Hg6 2.970734 1_565
Hg42 Hg79 3.103214 1_555
Hg42 Zn3 3.234174 1_566
Hg42 Hg74 3.243894 1_566
Hg43 Hg77 3.103213 1_555
Hg43 Zn3 3.234174 1_556
Hg43 Hg74 3.243867 1_556
Hg44 Hg76 3.103213 1_555
Hg44 Zn3 3.234174 1_565
Hg44 Hg74 3.243867 1_565
Hg45 Hg9 2.970752 1_565
Hg45 Hg78 3.103185 1_555
Hg45 Zn4 3.234174 1_566
Hg45 Hg75 3.243864 1_566
Hg46 Hg7 2.970743 1_565
Hg46 Hg76 3.103185 1_555
Hg46 Zn4 3.234174 1_665
Hg46 Hg75 3.243864 1_665
Hg47 Hg77 3.103185 1_555
Hg47 Zn4 3.234174 1_656
Hg47 Hg75 3.243864 1_656
Hg48 Hg55 3.180922 1_555
Hg48 Hg59 3.180922 1_555
Hg48 Hg69 3.212635 1_555
Hg48 Hg65 3.262998 1_565
Hg48 Hg91 3.394854 1_555
Hg48 Hg87 3.394854 1_555
Hg49 Hg5 3.068364 1_555
Hg49 Hg53 3.180922 1_555
Hg49 Hg54 3.180922 1_555
Hg49 Hg71 3.212644 1_555
Hg49 Hg67 3.262998 1_555
Hg49 Hg85 3.394854 1_555
Hg49 Hg86 3.394854 1_555
Hg50 Hg52 3.180922 1_555
Hg50 Hg57 3.180922 1_555
Hg50 Hg70 3.212635 1_555
Hg50 Hg66 3.262998 1_655
Hg50 Hg89 3.394854 1_555
Hg50 Hg84 3.394854 1_555
Hg51 Hg9 3.068353 1_555
Hg51 Hg6 3.068364 1_555
Hg51 Hg56 3.180922 1_555
Hg51 Hg58 3.180922 1_555
Hg51 Hg68 3.212635 1_555
Hg51 Hg64 3.262998 1_556
Hg51 Hg90 3.394854 1_555
Hg51 Hg88 3.394854 1_555
Hg52 Hg7 3.068364 1_555
Hg52 Hg57 3.180922 1_555
Hg52 Hg70 3.212635 1_555
Hg52 Hg66 3.262998 1_655
Hg52 Hg89 3.394854 1_555
Hg52 Hg82 3.394854 1_555
Hg53 Hg8 3.068363 1_555
Hg53 Hg54 3.180922 1_555
Hg53 Hg71 3.212644 1_555
Hg53 Hg67 3.262998 1_555
Hg53 Hg81 3.394854 1_555
Hg53 Hg86 3.394854 1_555
Hg54 Hg71 3.212644 1_555
Hg54 Hg67 3.262998 1_555
Hg54 Hg81 3.394854 1_555
Hg54 Hg85 3.394854 1_555
Hg55 Hg59 3.180922 1_555
Hg55 Hg69 3.212635 1_555
Hg55 Hg65 3.262998 1_565
Hg55 Hg91 3.394854 1_555
Hg55 Hg80 3.394854 1_555
Hg56 Hg58 3.180922 1_555
Hg56 Hg68 3.212635 1_555
Hg56 Hg64 3.262998 1_556
Hg56 Hg90 3.394854 1_555
Hg56 Hg83 3.394854 1_555
Hg57 Hg70 3.212626 1_555
Hg57 Hg66 3.262998 1_655
Hg57 Hg82 3.394854 1_555
Hg57 Hg84 3.394854 1_555
Hg58 Hg68 3.212626 1_555
Hg58 Hg64 3.262998 1_556
Hg58 Hg83 3.394854 1_555
Hg58 Hg88 3.394854 1_555
Hg59 Hg69 3.212626 1_555
Hg59 Hg65 3.262998 1_565
Hg59 Hg80 3.394854 1_555
Hg59 Hg87 3.394854 1_555
Hg60 Zn1 2.948957 1_555
Hg60 Hg67 3.177222 1_555
Hg60 Hg65 3.177222 1_555
Hg60 Hg66 3.177222 1_555
Hg61 Zn2 2.948957 1_555
Hg61 Hg67 3.177222 1_555
Hg61 Hg66 3.177222 1_555
Hg61 Hg64 3.177222 1_555
Hg62 Zn3 2.948957 1_555
Hg62 Hg67 3.177222 1_555
Hg62 Hg65 3.177222 1_555
Hg62 Hg64 3.177222 1_555
Hg63 Zn4 2.948971 1_555
Hg63 Hg65 3.177222 1_555
Hg63 Hg64 3.177222 1_555
Hg63 Hg66 3.177222 1_555
Hg64 Hg90 3.289050 1_554
Hg64 Hg88 3.289050 1_554
Hg64 Hg83 3.289050 1_554
Hg65 Hg91 3.289050 1_545
Hg65 Hg80 3.289050 1_545
Hg65 Hg87 3.289050 1_545
Hg66 Hg89 3.289050 1_455
Hg66 Hg84 3.289050 1_455
Hg66 Hg82 3.289050 1_455
Hg67 Hg86 3.289050 1_555
Hg67 Hg81 3.289050 1_555
Hg67 Hg85 3.289050 1_555
Hg68 Hg70 3.157608 1_555
Hg68 Hg71 3.157608 1_555
Hg68 Hg69 3.157608 1_555
Hg69 Hg70 3.157608 1_555
Hg69 Hg71 3.157608 1_555
Hg70 Hg71 3.157608 1_555
Hg72 Zn0 2.687138 1_556
Hg72 Zn1 2.795193 1_555
Hg72 Hg78 3.283200 1_545
Hg72 Hg77 3.283200 1_455
Hg72 Hg79 3.283200 1_445
Hg73 Zn0 2.687138 1_565
Hg73 Zn2 2.795193 1_555
Hg73 Hg76 3.283200 1_455
Hg73 Hg78 3.283200 1_554
Hg73 Hg79 3.283200 1_454
Hg74 Zn0 2.687138 1_655
Hg74 Zn3 2.795193 1_555
Hg74 Hg77 3.283200 1_554
Hg74 Hg76 3.283200 1_545
Hg74 Hg79 3.283200 1_544
Hg75 Zn0 2.687152 1_555
Hg75 Zn4 2.795165 1_555
Hg75 Hg78 3.283200 1_544
Hg75 Hg77 3.283200 1_454
Hg75 Hg76 3.283200 1_445
Hg76 Zn0 2.984012 1_665
Hg77 Zn0 2.984012 1_656
Hg78 Zn0 2.984012 1_566
Hg79 Zn0 2.983998 1_666
Hg80 Zn1 2.745470 1_565
Hg81 Zn1 2.745485 1_555
Hg82 Zn1 2.745470 1_655
Hg83 Zn2 2.745470 1_556
Hg84 Zn2 2.745470 1_655
Hg85 Zn2 2.745485 1_555
Hg86 Zn3 2.745485 1_555
Hg87 Zn3 2.745470 1_565
Hg88 Zn3 2.745470 1_556
Hg89 Zn4 2.745478 1_655
Hg90 Zn4 2.745478 1_556
Hg91 Zn4 2.745478 1_565
