# generated using pymatgen
data_CuNi
_symmetry_space_group_name_H-M   'P 1'
_cell_length_a   4.94312841
_cell_length_b   4.94312841
_cell_length_c   8.19994740
_cell_angle_alpha   90.00000000
_cell_angle_beta   90.00000000
_cell_angle_gamma   119.99831055
_symmetry_Int_Tables_number   1
_chemical_formula_structural   CuNi
_chemical_formula_sum   'Cu8 Ni8'
_cell_volume   173.52133361
_cell_formula_units_Z   8
loop_
 _symmetry_equiv_pos_site_id
 _symmetry_equiv_pos_as_xyz
  1  'x, y, z'
loop_
 _atom_site_type_symbol
 _atom_site_label
 _atom_site_symmetry_multiplicity
 _atom_site_fract_x
 _atom_site_fract_y
 _atom_site_fract_z
 _atom_site_occupancy
  Cu  Cu0_0  1  0.16666634  0.33333366  0.25000000  1
  Cu  Cu0_1  1  0.16666634  0.33333366  0.75000000  1
  Cu  Cu0_2  1  0.16666635  0.83333366  0.25000000  1
  Cu  Cu0_3  1  0.16666635  0.83333366  0.75000000  1
  Cu  Cu0_4  1  0.66666634  0.33333366  0.25000000  1
  Cu  Cu0_5  1  0.66666634  0.33333366  0.75000000  1
  Cu  Cu0_6  1  0.66666635  0.83333366  0.25000000  1
  Cu  Cu0_7  1  0.66666635  0.83333366  0.75000000  1
  Ni  Ni0_0  1  0.00000015  0.99999985  0.00000000  1
  Ni  Ni0_1  1  0.00000015  0.99999985  0.50000000  1
  Ni  Ni0_2  1  0.00000016  0.49999984  0.00000000  1
  Ni  Ni0_3  1  0.00000016  0.49999984  0.50000000  1
  Ni  Ni0_4  1  0.50000016  0.99999984  0.00000000  1
  Ni  Ni0_5  1  0.50000016  0.99999984  0.50000000  1
  Ni  Ni0_6  1  0.50000015  0.49999984  0.00000000  1
  Ni  Ni0_7  1  0.50000015  0.49999984  0.50000000  1
loop_
_geom_bond_atom_site_label_1
_geom_bond_atom_site_label_2
_geom_bond_distance
_geom_bond_site_symmetry_2
Cu0_0 Cu0_4 2.471564 1_455
Cu0_0 Cu0_2 2.471564 1_545
Cu0_0 Cu0_2 2.471564 1_555
Cu0_0 Cu0_4 2.471564 1_555
Cu0_0 Cu0_6 2.471627 1_445
Cu0_0 Cu0_6 2.471627 1_555
Cu0_0 Ni0_2 2.497721 1_555
Cu0_0 Ni0_3 2.497721 1_555
Cu0_0 Ni0_1 2.497745 1_545
Cu0_0 Ni0_6 2.497745 1_555
Cu0_0 Ni0_0 2.497745 1_545
Cu0_0 Ni0_7 2.497745 1_555
Cu0_1 Cu0_5 2.471564 1_555
Cu0_1 Cu0_5 2.471564 1_455
Cu0_1 Cu0_3 2.471564 1_555
Cu0_1 Cu0_3 2.471564 1_545
Cu0_1 Cu0_7 2.471627 1_445
Cu0_1 Cu0_7 2.471627 1_555
Cu0_1 Ni0_3 2.497721 1_555
Cu0_1 Ni0_2 2.497721 1_556
Cu0_1 Ni0_0 2.497745 1_546
Cu0_1 Ni0_6 2.497745 1_556
Cu0_1 Ni0_1 2.497745 1_545
Cu0_1 Ni0_7 2.497745 1_555
Cu0_2 Cu0_6 2.471564 1_455
Cu0_2 Cu0_6 2.471564 1_555
Cu0_2 Cu0_4 2.471627 1_455
Cu0_2 Cu0_4 2.471627 1_565
Cu0_2 Ni0_1 2.497721 1_555
Cu0_2 Ni0_0 2.497721 1_555
Cu0_2 Ni0_4 2.497745 1_555
Cu0_2 Ni0_5 2.497745 1_555
Cu0_2 Ni0_2 2.497745 1_555
Cu0_2 Ni0_3 2.497745 1_555
Cu0_3 Cu0_7 2.471564 1_455
Cu0_3 Cu0_7 2.471564 1_555
Cu0_3 Cu0_5 2.471627 1_455
Cu0_3 Cu0_5 2.471627 1_565
Cu0_3 Ni0_1 2.497721 1_555
Cu0_3 Ni0_0 2.497721 1_556
Cu0_3 Ni0_2 2.497745 1_556
Cu0_3 Ni0_5 2.497745 1_555
Cu0_3 Ni0_3 2.497745 1_555
Cu0_3 Ni0_4 2.497745 1_556
Cu0_4 Cu0_6 2.471564 1_545
Cu0_4 Cu0_6 2.471564 1_555
Cu0_4 Ni0_6 2.497721 1_555
Cu0_4 Ni0_7 2.497721 1_555
Cu0_4 Ni0_4 2.497745 1_545
Cu0_4 Ni0_5 2.497745 1_545
Cu0_4 Ni0_2 2.497745 1_655
Cu0_4 Ni0_3 2.497745 1_655
Cu0_5 Cu0_7 2.471564 1_545
Cu0_5 Cu0_7 2.471564 1_555
Cu0_5 Ni0_7 2.497721 1_555
Cu0_5 Ni0_6 2.497721 1_556
Cu0_5 Ni0_2 2.497745 1_656
Cu0_5 Ni0_3 2.497745 1_655
Cu0_5 Ni0_5 2.497745 1_545
Cu0_5 Ni0_4 2.497745 1_546
Cu0_6 Ni0_5 2.497721 1_555
Cu0_6 Ni0_4 2.497721 1_555
Cu0_6 Ni0_1 2.497745 1_655
Cu0_6 Ni0_0 2.497745 1_655
Cu0_6 Ni0_6 2.497745 1_555
Cu0_6 Ni0_7 2.497745 1_555
Cu0_7 Ni0_4 2.497721 1_556
Cu0_7 Ni0_5 2.497721 1_555
Cu0_7 Ni0_0 2.497745 1_656
Cu0_7 Ni0_1 2.497745 1_655
Cu0_7 Ni0_7 2.497745 1_555
Cu0_7 Ni0_6 2.497745 1_556
Ni0_0 Ni0_4 2.471564 1_455
Ni0_0 Ni0_2 2.471564 1_565
Ni0_0 Ni0_2 2.471564 1_555
Ni0_0 Ni0_4 2.471564 1_555
Ni0_0 Ni0_6 2.471627 1_565
Ni0_0 Ni0_6 2.471627 1_455
Ni0_1 Ni0_5 2.471564 1_455
Ni0_1 Ni0_3 2.471564 1_555
Ni0_1 Ni0_3 2.471564 1_565
Ni0_1 Ni0_5 2.471564 1_555
Ni0_1 Ni0_7 2.471627 1_565
Ni0_1 Ni0_7 2.471627 1_455
Ni0_2 Ni0_6 2.471564 1_555
Ni0_2 Ni0_6 2.471564 1_455
Ni0_2 Ni0_4 2.471627 1_445
Ni0_2 Ni0_4 2.471627 1_555
Ni0_3 Ni0_7 2.471564 1_555
Ni0_3 Ni0_7 2.471564 1_455
Ni0_3 Ni0_5 2.471627 1_445
Ni0_3 Ni0_5 2.471627 1_555
Ni0_4 Ni0_6 2.471564 1_555
Ni0_4 Ni0_6 2.471564 1_565
Ni0_5 Ni0_7 2.471564 1_555
Ni0_5 Ni0_7 2.471564 1_565
