# generated using pymatgen
data_TlFe(SeO4)2
_symmetry_space_group_name_H-M   'P 1'
_cell_length_a   5.19943629
_cell_length_b   5.19943629
_cell_length_c   9.09409400
_cell_angle_alpha   90.00000000
_cell_angle_beta   90.00000000
_cell_angle_gamma   120.00000373
_symmetry_Int_Tables_number   1
_chemical_formula_structural   TlFe(SeO4)2
_chemical_formula_sum   'Tl1 Fe1 Se2 O8'
_cell_volume   212.91319494
_cell_formula_units_Z   1
loop_
 _symmetry_equiv_pos_site_id
 _symmetry_equiv_pos_as_xyz
  1  'x, y, z'
loop_
 _atom_site_type_symbol
 _atom_site_label
 _atom_site_symmetry_multiplicity
 _atom_site_fract_x
 _atom_site_fract_y
 _atom_site_fract_z
 _atom_site_occupancy
  Tl  Tl0  1  0.00000000  0.00000000  0.50000000  1
  Fe  Fe0  1  0.00000000  0.00000000  0.00000000  1
  Se  Se0  1  0.66666700  0.33333300  0.79755800  1
  Se  Se1  1  0.33333300  0.66666700  0.20244200  1
  O  O0  1  0.92696800  0.25784300  0.85742500  1
  O  O1  1  0.33087500  0.07303200  0.85742500  1
  O  O2  1  0.66912500  0.74215700  0.14257500  1
  O  O3  1  0.74215700  0.66912500  0.85742500  1
  O  O4  1  0.25784300  0.92696800  0.14257500  1
  O  O5  1  0.07303200  0.33087500  0.14257500  1
  O  O6  1  0.66666700  0.33333300  0.61625800  1
  O  O7  1  0.33333300  0.66666700  0.38374200  1
loop_
_geom_bond_atom_site_label_1
_geom_bond_atom_site_label_2
_geom_bond_distance
_geom_bond_site_symmetry_2
Fe0 O2 2.032664 1_445
Fe0 O3 2.032664 1_444
Fe0 O5 2.032664 1_555
Fe0 O1 2.032664 1_554
Fe0 O4 2.032664 1_545
Fe0 O0 2.032664 1_454
O0 Se0 1.677330 1_555
O1 Se0 1.677334 1_555
O2 Se1 1.677335 1_555
O3 Se0 1.677335 1_555
O4 Se1 1.677330 1_555
O5 Se1 1.677334 1_555
O6 Se0 1.648759 1_555
O7 Se1 1.648759 1_555
