# generated using pymatgen
data_Eu2NiO4
_symmetry_space_group_name_H-M   'P 1'
_cell_length_a   6.67927382
_cell_length_b   6.67927382
_cell_length_c   5.39704300
_cell_angle_alpha   90.00000000
_cell_angle_beta   90.00000000
_cell_angle_gamma   132.44512069
_symmetry_Int_Tables_number   1
_chemical_formula_structural   Eu2NiO4
_chemical_formula_sum   'Eu4 Ni2 O8'
_cell_volume   177.67489441
_cell_formula_units_Z   2
loop_
 _symmetry_equiv_pos_site_id
 _symmetry_equiv_pos_as_xyz
  1  'x, y, z'
loop_
 _atom_site_type_symbol
 _atom_site_label
 _atom_site_symmetry_multiplicity
 _atom_site_fract_x
 _atom_site_fract_y
 _atom_site_fract_z
 _atom_site_occupancy
  Eu  Eu0  1  0.35989600  0.64010400  0.99224100  1
  Eu  Eu1  1  0.14010400  0.85989600  0.49224100  1
  Eu  Eu2  1  0.85989600  0.14010400  0.50775900  1
  Eu  Eu3  1  0.64010400  0.35989600  0.00775900  1
  Ni  Ni0  1  0.50000000  0.50000000  0.50000000  1
  Ni  Ni1  1  0.00000000  0.00000000  0.00000000  1
  O  O0  1  0.75569300  0.74430700  0.75000000  1
  O  O1  1  0.74430700  0.75569300  0.25000000  1
  O  O2  1  0.32733200  0.67266800  0.52057100  1
  O  O3  1  0.17266800  0.82733200  0.02057100  1
  O  O4  1  0.82733200  0.17266800  0.97942900  1
  O  O5  1  0.67266800  0.32733200  0.47942900  1
  O  O6  1  0.24430700  0.25569300  0.25000000  1
  O  O7  1  0.25569300  0.24430700  0.75000000  1
loop_
_geom_bond_atom_site_label_1
_geom_bond_atom_site_label_2
_geom_bond_distance
_geom_bond_site_symmetry_2
Eu0 O3 2.293899 1_556
Eu0 O6 2.539325 1_556
Eu0 O1 2.539325 1_556
Eu0 O2 2.576561 1_555
Eu0 O0 2.588233 1_555
Eu0 O7 2.588233 1_555
Eu0 O4 2.723125 1_565
Eu0 O4 2.723125 1_455
Eu0 O2 2.879074 1_556
Eu1 O2 2.293899 1_555
Eu1 O0 2.539325 1_455
Eu1 O7 2.539325 1_565
Eu1 O3 2.576561 1_555
Eu1 O1 2.588233 1_455
Eu1 O6 2.588233 1_565
Eu1 O5 2.723125 1_565
Eu1 O5 2.723125 1_455
Eu1 O3 2.879074 1_556
Eu2 O5 2.293899 1_555
Eu2 O1 2.539325 1_545
Eu2 O6 2.539325 1_655
Eu2 O4 2.576561 1_555
Eu2 O7 2.588233 1_655
Eu2 O0 2.588233 1_545
Eu2 O2 2.723125 1_655
Eu2 O2 2.723125 1_545
Eu2 O4 2.879074 1_554
Eu3 O4 2.293899 1_554
Eu3 O7 2.539325 1_554
Eu3 O0 2.539325 1_554
Eu3 O5 2.576561 1_555
Eu3 O1 2.588233 1_555
Eu3 O6 2.588233 1_555
Eu3 O3 2.723125 1_655
Eu3 O3 2.723125 1_545
Eu3 O5 2.879074 1_554
Ni0 O6 1.907456 1_555
Ni0 O7 1.907456 1_555
Ni0 O1 1.907456 1_555
Ni0 O0 1.907456 1_555
Ni0 O5 2.113724 1_555
Ni0 O2 2.113724 1_555
Ni1 O6 1.907456 1_555
Ni1 O7 1.907456 1_554
Ni1 O0 1.907456 1_444
Ni1 O1 1.907456 1_445
Ni1 O4 2.113724 1_454
Ni1 O3 2.113724 1_545
