# generated using pymatgen
data_ZrCu4Ag
_symmetry_space_group_name_H-M   'P 1'
_cell_length_a   4.90003891
_cell_length_b   4.90003891
_cell_length_c   4.90003891
_cell_angle_alpha   60.00000000
_cell_angle_beta   60.00000000
_cell_angle_gamma   60.00000000
_symmetry_Int_Tables_number   1
_chemical_formula_structural   ZrCu4Ag
_chemical_formula_sum   'Zr1 Cu4 Ag1'
_cell_volume   83.19238742
_cell_formula_units_Z   1
loop_
 _symmetry_equiv_pos_site_id
 _symmetry_equiv_pos_as_xyz
  1  'x, y, z'
loop_
 _atom_site_type_symbol
 _atom_site_label
 _atom_site_symmetry_multiplicity
 _atom_site_fract_x
 _atom_site_fract_y
 _atom_site_fract_z
 _atom_site_occupancy
  Zr  Zr0  1  0.25000000  0.25000000  0.25000000  1
  Cu  Cu0  1  0.62550128  0.62550128  0.12349615  1
  Cu  Cu1  1  0.62550128  0.12349615  0.62550128  1
  Cu  Cu2  1  0.12349615  0.62550128  0.62550128  1
  Cu  Cu3  1  0.62550128  0.62550128  0.62550128  1
  Ag  Ag0  1  -0.00000000  -0.00000000  -0.00000000  1
loop_
_geom_bond_atom_site_label_1
_geom_bond_atom_site_label_2
_geom_bond_distance
_geom_bond_site_symmetry_2
Cu0 Cu1 2.440194 1_564
Cu0 Cu3 2.440194 1_554
Cu0 Cu2 2.440194 1_654
Cu0 Cu1 2.459845 1_555
Cu0 Cu2 2.459845 1_555
Cu0 Cu3 2.459845 1_555
Cu0 Zr0 2.873956 1_555
Cu0 Zr0 2.873956 1_655
Cu0 Zr0 2.873956 1_565
Cu1 Cu3 2.440194 1_545
Cu1 Cu2 2.440194 1_645
Cu1 Cu2 2.459845 1_555
Cu1 Cu3 2.459845 1_555
Cu1 Zr0 2.873956 1_555
Cu1 Zr0 2.873956 1_655
Cu1 Zr0 2.873956 1_556
Cu2 Cu3 2.440194 1_455
Cu2 Cu3 2.459845 1_555
Cu2 Zr0 2.873956 1_555
Cu2 Zr0 2.873956 1_565
Cu2 Zr0 2.873956 1_556
Cu3 Zr0 2.873956 1_556
Cu3 Zr0 2.873956 1_655
Cu3 Zr0 2.873956 1_565
Ag0 Cu1 2.871861 1_455
Ag0 Cu0 2.871861 1_455
Ag0 Cu2 2.871861 1_545
Ag0 Cu1 2.871861 1_554
Ag0 Cu0 2.871861 1_545
Ag0 Cu2 2.871861 1_554
Ag0 Cu3 2.871861 1_454
Ag0 Cu3 2.871861 1_445
Ag0 Cu3 2.871861 1_544
Ag0 Cu2 2.871861 1_544
Ag0 Cu1 2.871861 1_454
Ag0 Cu0 2.871861 1_445
Ag0 Zr0 3.000649 1_545
Ag0 Zr0 3.000649 1_455
Ag0 Zr0 3.000649 1_555
Ag0 Zr0 3.000649 1_554
