# generated using pymatgen
data_Ca7TeN6
_symmetry_space_group_name_H-M   'P 1'
_cell_length_a   6.54328698
_cell_length_b   9.16988306
_cell_length_c   9.16988306
_cell_angle_alpha   81.14202002
_cell_angle_beta   69.09734302
_cell_angle_gamma   69.09734302
_symmetry_Int_Tables_number   1
_chemical_formula_structural   Ca7TeN6
_chemical_formula_sum   'Ca14 Te2 N12'
_cell_volume   479.94207578
_cell_formula_units_Z   2
loop_
 _symmetry_equiv_pos_site_id
 _symmetry_equiv_pos_as_xyz
  1  'x, y, z'
loop_
 _atom_site_type_symbol
 _atom_site_label
 _atom_site_symmetry_multiplicity
 _atom_site_fract_x
 _atom_site_fract_y
 _atom_site_fract_z
 _atom_site_occupancy
  Ca  Ca0  1  0.28006394  0.95424825  0.04575175  1
  Ca  Ca1  1  0.71993606  0.04575175  0.95424825  1
  Ca  Ca2  1  0.21993606  0.45424825  0.54575175  1
  Ca  Ca3  1  0.78006394  0.54575175  0.45424825  1
  Ca  Ca4  1  0.75619245  0.15137138  0.59116087  1
  Ca  Ca5  1  0.50127529  0.59116087  0.15137138  1
  Ca  Ca6  1  0.74380755  0.90883913  0.34862862  1
  Ca  Ca7  1  0.99872471  0.34862862  0.90883913  1
  Ca  Ca8  1  0.24380755  0.84862862  0.40883913  1
  Ca  Ca9  1  0.49872471  0.40883913  0.84862862  1
  Ca  Ca10  1  0.25619245  0.09116087  0.65137138  1
  Ca  Ca11  1  0.00127529  0.65137138  0.09116087  1
  Ca  Ca12  1  0.25000000  0.25000000  0.25000000  1
  Ca  Ca13  1  0.75000000  0.75000000  0.75000000  1
  Te  Te0  1  0.75000000  0.25000000  0.25000000  1
  Te  Te1  1  0.25000000  0.75000000  0.75000000  1
  N  N0  1  0.01669510  0.07379724  0.31597517  1
  N  N1  1  0.59353249  0.31597517  0.07379724  1
  N  N2  1  0.48330490  0.18402483  0.42620276  1
  N  N3  1  0.90646751  0.42620276  0.18402483  1
  N  N4  1  0.98330490  0.92620276  0.68402483  1
  N  N5  1  0.40646751  0.68402483  0.92620276  1
  N  N6  1  0.51669510  0.81597517  0.57379724  1
  N  N7  1  0.09353249  0.57379724  0.81597517  1
  N  N8  1  0.89577063  0.34998977  0.65001023  1
  N  N9  1  0.10422937  0.65001023  0.34998977  1
  N  N10  1  0.60422937  0.84998977  0.15001023  1
  N  N11  1  0.39577063  0.15001023  0.84998977  1
loop_
_geom_bond_atom_site_label_1
_geom_bond_atom_site_label_2
_geom_bond_distance
_geom_bond_site_symmetry_2
Ca0 N11 2.454721 1_564
Ca0 N10 2.458785 1_555
Ca0 N5 2.598670 1_554
Ca0 N0 2.598670 1_565
Ca1 N10 2.454721 1_546
Ca1 N11 2.458785 1_555
Ca1 N1 2.598670 1_556
Ca1 N4 2.598670 1_545
Ca2 N9 2.454721 1_555
Ca2 N8 2.458785 1_455
Ca2 N7 2.598670 1_555
Ca2 N2 2.598670 1_555
Ca3 N8 2.454721 1_555
Ca3 N9 2.458785 1_655
Ca3 N3 2.598670 1_555
Ca3 N6 2.598670 1_555
Ca4 N4 2.317069 1_545
Ca4 N8 2.506752 1_555
Ca4 N0 2.529330 1_655
Ca4 N2 2.640523 1_555
Ca4 N11 2.685689 1_555
Ca5 N5 2.317069 1_554
Ca5 N9 2.506752 1_555
Ca5 N1 2.529330 1_555
Ca5 N3 2.640523 1_555
Ca5 N10 2.685689 1_555
Ca6 N6 2.317069 1_555
Ca6 N10 2.506752 1_555
Ca6 N2 2.529330 1_565
Ca6 N0 2.640523 1_665
Ca6 N9 2.685689 1_655
Ca7 N7 2.317069 1_655
Ca7 N11 2.506752 1_655
Ca7 N3 2.529330 1_556
Ca7 N1 2.640523 1_556
Ca7 N8 2.685689 1_555
Ca8 N0 2.317069 1_565
Ca8 N9 2.506752 1_555
Ca8 N4 2.529330 1_455
Ca8 N6 2.640523 1_555
Ca8 N10 2.685689 1_555
Ca9 N1 2.317069 1_556
Ca9 N8 2.506752 1_555
Ca9 N5 2.529330 1_555
Ca9 N7 2.640523 1_555
Ca9 N11 2.685689 1_555
Ca10 N2 2.317069 1_555
Ca10 N11 2.506752 1_555
Ca10 N6 2.529330 1_545
Ca10 N4 2.640523 1_445
Ca10 N8 2.685689 1_455
Ca11 N3 2.317069 1_455
Ca11 N10 2.506752 1_455
Ca11 N7 2.529330 1_554
Ca11 N5 2.640523 1_554
Ca11 N9 2.685689 1_555
Ca12 N2 2.471262 1_555
Ca12 N0 2.471262 1_555
Ca12 N3 2.471262 1_455
Ca12 N1 2.471262 1_555
Ca13 N4 2.471262 1_555
Ca13 N6 2.471262 1_555
Ca13 N7 2.471262 1_655
Ca13 N5 2.471262 1_555
N0 Te0 2.112405 1_455
N1 Te0 2.112405 1_555
N2 Te0 2.112405 1_555
N3 Te0 2.112405 1_555
N4 Te1 2.112405 1_655
N5 Te1 2.112405 1_555
N6 Te1 2.112405 1_555
N7 Te1 2.112405 1_555
