# generated using pymatgen
data_SrMgMn(PO4)2
_symmetry_space_group_name_H-M   'P 1'
_cell_length_a   6.98920258
_cell_length_b   11.13012950
_cell_length_c   9.53499843
_cell_angle_alpha   106.50661806
_cell_angle_beta   72.70309870
_cell_angle_gamma   82.07607735
_symmetry_Int_Tables_number   1
_chemical_formula_structural   SrMgMn(PO4)2
_chemical_formula_sum   'Sr4 Mg4 Mn4 P8 O32'
_cell_volume   658.67302168
_cell_formula_units_Z   4
loop_
 _symmetry_equiv_pos_site_id
 _symmetry_equiv_pos_as_xyz
  1  'x, y, z'
loop_
 _atom_site_type_symbol
 _atom_site_label
 _atom_site_symmetry_multiplicity
 _atom_site_fract_x
 _atom_site_fract_y
 _atom_site_fract_z
 _atom_site_occupancy
  Sr  Sr0  1  0.75276100  0.39992900  0.04924800  1
  Sr  Sr1  1  0.75278400  0.89991200  0.04925000  1
  Sr  Sr2  1  0.24722900  0.60008000  0.95074800  1
  Sr  Sr3  1  0.24723400  0.10007900  0.95074700  1
  Mg  Mg0  1  0.73081800  0.33042300  0.65389500  1
  Mg  Mg1  1  0.73081400  0.83042600  0.65390100  1
  Mg  Mg2  1  0.26918100  0.66957200  0.34610200  1
  Mg  Mg3  1  0.26918500  0.16957600  0.34610300  1
  Mn  Mn0  1  0.27878800  0.46436000  0.55855700  1
  Mn  Mn1  1  0.72124900  0.03562300  0.44143300  1
  Mn  Mn2  1  0.27876200  0.96437200  0.55853800  1
  Mn  Mn3  1  0.72122300  0.53566200  0.44144300  1
  P  P0  1  0.19179500  0.42053000  0.22842300  1
  P  P1  1  0.19180300  0.92052900  0.22842100  1
  P  P2  1  0.80819800  0.57946900  0.77157800  1
  P  P3  1  0.80820300  0.07946900  0.77158000  1
  P  P4  1  0.72120800  0.23038300  0.30076400  1
  P  P5  1  0.72120700  0.73037600  0.30076200  1
  P  P6  1  0.27879100  0.76962500  0.69923800  1
  P  P7  1  0.27879300  0.26961500  0.69923700  1
  O  O0  1  0.65500000  0.53626000  0.89130900  1
  O  O1  1  0.65500800  0.03625700  0.89130700  1
  O  O2  1  0.34499100  0.46374300  0.10869600  1
  O  O3  1  0.34499300  0.96374400  0.10869700  1
  O  O4  1  0.26366200  0.27651500  0.20959800  1
  O  O5  1  0.26366400  0.77651900  0.20960300  1
  O  O6  1  0.73633200  0.72348200  0.79039800  1
  O  O7  1  0.73633900  0.22348500  0.79040100  1
  O  O8  1  0.02702300  0.55278100  0.77836300  1
  O  O9  1  0.02702800  0.05277400  0.77835700  1
  O  O10  1  0.97297000  0.44722400  0.22164500  1
  O  O11  1  0.97297900  0.94722100  0.22163800  1
  O  O12  1  0.42330000  0.36684400  0.69578400  1
  O  O13  1  0.42329700  0.86684800  0.69578500  1
  O  O14  1  0.57669800  0.63315300  0.30421700  1
  O  O15  1  0.57670100  0.13315300  0.30421800  1
  O  O16  1  0.17444300  0.78195900  0.57645200  1
  O  O17  1  0.17444500  0.28195900  0.57645100  1
  O  O18  1  0.82555700  0.21803900  0.42354900  1
  O  O19  1  0.82555200  0.71804000  0.42355000  1
  O  O20  1  0.12779600  0.80456300  0.86564700  1
  O  O21  1  0.12779500  0.30455900  0.86564500  1
  O  O22  1  0.87220600  0.19544100  0.13435600  1
  O  O23  1  0.87220400  0.69543500  0.13435700  1
  O  O24  1  0.18443400  0.51331100  0.39068900  1
  O  O25  1  0.18442800  0.01331200  0.39069000  1
  O  O26  1  0.81556700  0.48668800  0.60931100  1
  O  O27  1  0.81556700  0.98668700  0.60931300  1
  O  O28  1  0.58737400  0.37212800  0.35965900  1
  O  O29  1  0.58736700  0.87212500  0.35966000  1
  O  O30  1  0.41263300  0.62787300  0.64034100  1
  O  O31  1  0.41262400  0.12787100  0.64034200  1
loop_
_geom_bond_atom_site_label_1
_geom_bond_atom_site_label_2
_geom_bond_distance
_geom_bond_site_symmetry_2
Mg0 O7 2.002449 1_555
Mg0 O12 2.025009 1_555
Mg0 O26 2.027564 1_555
Mg0 O18 2.042716 1_555
Mg0 O0 2.580475 1_555
Mg1 O6 2.002427 1_555
Mg1 O13 2.025011 1_555
Mg1 O27 2.027546 1_555
Mg1 O19 2.042761 1_555
Mg1 O1 2.580406 1_565
Mg2 O5 2.002468 1_555
Mg2 O14 2.025009 1_555
Mg2 O24 2.027527 1_555
Mg2 O16 2.042756 1_555
Mg2 O2 2.580388 1_555
Mg3 O4 2.002451 1_555
Mg3 O15 2.025002 1_555
Mg3 O25 2.027584 1_555
Mg3 O17 2.042728 1_555
Mg3 O3 2.580411 1_545
Mn0 O24 2.077951 1_555
Mn0 O8 2.148226 1_555
Mn0 O30 2.211798 1_555
Mn0 O28 2.270049 1_555
Mn0 O12 2.280539 1_555
Mn0 O17 2.283308 1_555
Mn1 O27 2.077858 1_545
Mn1 O11 2.148034 1_545
Mn1 O29 2.211808 1_545
Mn1 O31 2.270283 1_555
Mn1 O15 2.280670 1_555
Mn1 O18 2.283343 1_555
Mn2 O25 2.077648 1_565
Mn2 O9 2.148185 1_565
Mn2 O31 2.211799 1_565
Mn2 O29 2.270067 1_555
Mn2 O13 2.280838 1_555
Mn2 O16 2.283410 1_555
Mn3 O26 2.078028 1_555
Mn3 O10 2.148134 1_555
Mn3 O28 2.211998 1_555
Mn3 O30 2.270047 1_555
Mn3 O14 2.280420 1_555
Mn3 O19 2.283021 1_555
O0 P2 1.551826 1_555
O0 Sr0 2.581030 1_556
O0 Sr2 2.683432 1_555
O1 P3 1.551812 1_555
O1 Sr1 2.581211 1_546
O1 Sr3 2.683452 1_555
O2 P0 1.551823 1_555
O2 Sr2 2.581151 1_554
O2 Sr0 2.683406 1_555
O3 P1 1.551797 1_555
O3 Sr3 2.581144 1_564
O3 Sr1 2.683561 1_555
O4 P0 1.553940 1_555
O4 Sr3 2.727217 1_554
O5 P1 1.553899 1_555
O5 Sr2 2.727280 1_554
O6 P2 1.553930 1_555
O6 Sr1 2.727262 1_556
O7 P3 1.553958 1_555
O7 Sr0 2.727215 1_556
O8 P2 1.541435 1_455
O8 Sr2 2.565846 1_555
O9 P3 1.541410 1_455
O9 Sr3 2.565889 1_555
O10 P0 1.541413 1_655
O10 Sr0 2.565945 1_555
O11 P1 1.541423 1_655
O11 Sr1 2.565816 1_555
O12 P7 1.579266 1_555
O12 Sr2 2.813799 1_555
O13 P6 1.579209 1_555
O13 Sr3 2.813752 1_565
O14 P5 1.579225 1_555
O14 Sr0 2.813736 1_555
O15 P4 1.579275 1_555
O15 Sr1 2.813856 1_545
O16 P6 1.578889 1_555
O17 P7 1.578915 1_555
O18 P4 1.578911 1_555
O19 P5 1.578898 1_555
O20 P6 1.524167 1_555
O20 Sr1 2.551400 1_456
O20 Sr2 2.731931 1_555
O21 P7 1.524157 1_555
O21 Sr0 2.551537 1_456
O21 Sr3 2.731920 1_555
O22 P4 1.524161 1_555
O22 Sr3 2.551512 1_654
O22 Sr0 2.732045 1_555
O23 P5 1.524138 1_555
O23 Sr2 2.551490 1_654
O23 Sr1 2.731883 1_555
O24 P0 1.578919 1_555
O25 P1 1.578916 1_545
O26 P2 1.578907 1_555
O27 P3 1.578923 1_565
O28 P4 1.567350 1_555
O28 Sr0 2.962555 1_555
O29 P5 1.567398 1_555
O29 Sr1 2.962500 1_555
O30 P6 1.567432 1_555
O30 Sr2 2.962494 1_555
O31 P7 1.567334 1_555
O31 Sr3 2.962461 1_555
