# generated using pymatgen
data_Zr10Sn7
_symmetry_space_group_name_H-M   'P 1'
_cell_length_a   5.92055203
_cell_length_b   8.72017560
_cell_length_c   8.72113213
_cell_angle_alpha   119.99638024
_cell_angle_beta   90.00622685
_cell_angle_gamma   89.98754503
_symmetry_Int_Tables_number   1
_chemical_formula_structural   Zr10Sn7
_chemical_formula_sum   'Zr10 Sn7'
_cell_volume   389.94805677
_cell_formula_units_Z   1
loop_
 _symmetry_equiv_pos_site_id
 _symmetry_equiv_pos_as_xyz
  1  'x, y, z'
loop_
 _atom_site_type_symbol
 _atom_site_label
 _atom_site_symmetry_multiplicity
 _atom_site_fract_x
 _atom_site_fract_y
 _atom_site_fract_z
 _atom_site_occupancy
  Zr  Zr0  1  0.50000100  0.33333300  0.66664800  1
  Zr  Zr1  1  0.50000100  0.66668500  0.33335200  1
  Zr  Zr2  1  0.00000500  0.66666000  0.33334100  1
  Zr  Zr3  1  0.00000500  0.33331900  0.66665900  1
  Zr  Zr4  1  0.76486000  0.27185900  0.00000000  1
  Zr  Zr5  1  0.76486000  0.72812700  0.72809600  1
  Zr  Zr6  1  0.76486000  0.00003000  0.27190400  1
  Zr  Zr7  1  0.23514100  0.72814300  0.00000000  1
  Zr  Zr8  1  0.23513900  0.27187600  0.27190900  1
  Zr  Zr9  1  0.23513900  0.99996700  0.72809100  1
  Sn  Sn0  1  0.74467500  0.61535200  0.00000000  1
  Sn  Sn1  1  0.74467800  0.38465300  0.38467200  1
  Sn  Sn2  1  0.74467800  0.99998100  0.61532800  1
  Sn  Sn3  1  0.25532500  0.38465100  0.00000000  1
  Sn  Sn4  1  0.25532000  0.61534800  0.61532900  1
  Sn  Sn5  1  0.25532000  0.00001900  0.38467100  1
  Sn  Sn6  1  0.49999200  0.99999900  0.00000000  1
loop_
_geom_bond_atom_site_label_1
_geom_bond_atom_site_label_2
_geom_bond_distance
_geom_bond_site_symmetry_2
Zr0 Zr3 2.960252 1_555
Zr0 Zr3 2.960300 1_655
Zr1 Zr2 2.960252 1_555
Zr1 Zr2 2.960300 1_655
Zr2 Zr8 3.497189 1_555
Zr2 Zr6 3.497382 1_465
Zr2 Zr5 3.497622 1_455
Zr2 Zr9 3.497627 1_555
Zr2 Zr4 3.497969 1_455
Zr2 Zr7 3.498063 1_555
Zr3 Zr9 3.497189 1_545
Zr3 Zr5 3.497390 1_455
Zr3 Zr6 3.497625 1_455
Zr3 Zr8 3.497627 1_555
Zr3 Zr4 3.497970 1_456
Zr3 Zr7 3.498062 1_556
Sn0 Zr6 2.989367 1_565
Sn0 Zr5 2.989373 1_554
Sn0 Zr4 2.997676 1_555
Sn0 Zr7 3.066081 1_655
Sn0 Zr0 3.074101 1_554
Sn0 Zr1 3.074101 1_555
Sn0 Zr3 3.104108 1_654
Sn0 Zr2 3.104109 1_655
Sn0 Zr7 3.172808 1_555
Sn1 Zr6 2.988704 1_555
Sn1 Zr4 2.989469 1_555
Sn1 Zr5 2.997659 1_555
Sn1 Zr8 3.065725 1_655
Sn1 Zr1 3.073474 1_555
Sn1 Zr0 3.073704 1_555
Sn1 Zr3 3.103720 1_655
Sn1 Zr2 3.104112 1_655
Sn1 Zr8 3.173118 1_555
Sn2 Zr5 2.988696 1_555
Sn2 Zr4 2.989469 1_566
Sn2 Zr6 2.997655 1_565
Sn2 Zr9 3.065725 1_655
Sn2 Zr0 3.073474 1_565
Sn2 Zr1 3.073703 1_555
Sn2 Zr2 3.103720 1_655
Sn2 Zr3 3.104111 1_665
Sn2 Zr9 3.173118 1_555
Sn3 Zr9 2.989415 1_544
Sn3 Zr8 2.989415 1_555
Sn3 Zr7 2.997667 1_555
Sn3 Zr4 3.066078 1_455
Sn3 Zr1 3.074149 1_555
Sn3 Zr0 3.074150 1_554
Sn3 Zr2 3.104012 1_555
Sn3 Zr3 3.104012 1_554
Sn3 Zr4 3.172816 1_555
Sn4 Zr9 2.988683 1_555
Sn4 Zr7 2.989458 1_556
Sn4 Zr8 2.997633 1_555
Sn4 Zr5 3.065728 1_455
Sn4 Zr0 3.073351 1_555
Sn4 Zr1 3.073803 1_555
Sn4 Zr2 3.103589 1_555
Sn4 Zr3 3.104238 1_555
Sn4 Zr5 3.173131 1_555
Sn5 Zr8 2.988683 1_555
Sn5 Zr7 2.989458 1_545
Sn5 Zr9 2.997633 1_545
Sn5 Zr6 3.065726 1_455
Sn5 Zr1 3.073351 1_545
Sn5 Zr0 3.073803 1_555
Sn5 Zr3 3.103589 1_555
Sn5 Zr2 3.104238 1_545
Sn5 Zr6 3.173130 1_555
Sn6 Zr7 2.842593 1_555
Sn6 Zr8 2.842659 1_565
Sn6 Zr9 2.842660 1_554
Sn6 Zr5 2.842672 1_554
Sn6 Zr6 2.842676 1_565
Sn6 Zr4 2.842678 1_565
