# generated using pymatgen
data_NaEuTi8(PO4)12
_symmetry_space_group_name_H-M   'P 1'
_cell_length_a   8.52750079
_cell_length_b   12.28270880
_cell_length_c   8.83764579
_cell_angle_alpha   87.20494525
_cell_angle_beta   89.95098449
_cell_angle_gamma   90.01265638
_symmetry_Int_Tables_number   1
_chemical_formula_structural   NaEuTi8(PO4)12
_chemical_formula_sum   'Na1 Eu1 Ti8 P12 O48'
_cell_volume   924.56058596
_cell_formula_units_Z   1
loop_
 _symmetry_equiv_pos_site_id
 _symmetry_equiv_pos_as_xyz
  1  'x, y, z'
loop_
 _atom_site_type_symbol
 _atom_site_label
 _atom_site_symmetry_multiplicity
 _atom_site_fract_x
 _atom_site_fract_y
 _atom_site_fract_z
 _atom_site_occupancy
  Na  Na0  1  0.99967800  0.99978200  0.00010600  1
  Eu  Eu0  1  0.50017400  0.50003800  0.49997900  1
  Ti  Ti0  1  0.00060200  0.36141300  0.72431000  1
  Ti  Ti1  1  0.49961800  0.86284300  0.22517200  1
  Ti  Ti2  1  0.99951100  0.63848900  0.27575900  1
  Ti  Ti3  1  0.50034600  0.13719800  0.77492500  1
  Ti  Ti4  1  0.49921400  0.34914700  0.19967300  1
  Ti  Ti5  1  0.00078600  0.85579100  0.70973300  1
  Ti  Ti6  1  0.50072100  0.65088400  0.80031900  1
  Ti  Ti7  1  0.99928100  0.14420600  0.28997400  1
  P  P0  1  0.21405700  0.24347500  0.99676300  1
  P  P1  1  0.71689000  0.74436800  0.49863800  1
  P  P2  1  0.63860800  0.39108700  0.84891600  1
  P  P3  1  0.13608700  0.89135100  0.35215600  1
  P  P4  1  0.14662600  0.60715500  0.63555700  1
  P  P5  1  0.64809700  0.10592700  0.13385700  1
  P  P6  1  0.78586700  0.75659100  0.00335200  1
  P  P7  1  0.28300200  0.25568700  0.50138600  1
  P  P8  1  0.36162800  0.60894900  0.15114900  1
  P  P9  1  0.86384100  0.10865800  0.64754500  1
  P  P10  1  0.85339400  0.39274100  0.36442500  1
  P  P11  1  0.35183600  0.89409000  0.86625200  1
  O  O0  1  0.95397400  0.48469900  0.28927100  1
  O  O1  1  0.45494600  0.98429000  0.79002200  1
  O  O2  1  0.86289900  0.66699600  0.10698900  1
  O  O3  1  0.36240700  0.16763400  0.60528200  1
  O  O4  1  0.18229600  0.62114400  0.15122200  1
  O  O5  1  0.68330300  0.12235900  0.65217400  1
  O  O6  1  0.04608900  0.51528100  0.71081000  1
  O  O7  1  0.54517200  0.01570900  0.21010500  1
  O  O8  1  0.13713700  0.33300200  0.89312400  1
  O  O9  1  0.63759100  0.83242600  0.39486300  1
  O  O10  1  0.81786900  0.37889800  0.84883000  1
  O  O11  1  0.31648600  0.87768200  0.34787500  1
  O  O12  1  0.91313300  0.82275700  0.91720500  1
  O  O13  1  0.41504100  0.32413400  0.41819900  1
  O  O14  1  0.40606900  0.50157500  0.24179000  1
  O  O15  1  0.90809800  0.00219900  0.73690600  1
  O  O16  1  0.67744000  0.41737000  0.32533000  1
  O  O17  1  0.17908200  0.91494200  0.82570200  1
  O  O18  1  0.08691000  0.17729200  0.08285200  1
  O  O19  1  0.58488500  0.67591900  0.58188600  1
  O  O20  1  0.59405600  0.49841600  0.75825500  1
  O  O21  1  0.09171700  0.99774600  0.26284700  1
  O  O22  1  0.32260900  0.58265700  0.67459900  1
  O  O23  1  0.82089100  0.08513100  0.17408600  1
  O  O24  1  0.31420700  0.30395900  0.11401400  1
  O  O25  1  0.81561100  0.80028400  0.61747100  1
  O  O26  1  0.58683600  0.40107900  0.01556300  1
  O  O27  1  0.08699500  0.90002600  0.51952000  1
  O  O28  1  0.10077300  0.71561000  0.70254500  1
  O  O29  1  0.59680300  0.21497200  0.20228800  1
  O  O30  1  0.68571300  0.69606900  0.88606300  1
  O  O31  1  0.18433700  0.19967100  0.38268300  1
  O  O32  1  0.41329000  0.59892900  0.98448500  1
  O  O33  1  0.91275700  0.09997400  0.48020400  1
  O  O34  1  0.89930900  0.28438900  0.29724000  1
  O  O35  1  0.40315100  0.78503900  0.79783200  1
  O  O36  1  0.63004500  0.11504300  0.96139900  1
  O  O37  1  0.13563100  0.61099800  0.46190600  1
  O  O38  1  0.31827400  0.16702600  0.90916100  1
  O  O39  1  0.81322800  0.66247400  0.41096800  1
  O  O40  1  0.55190100  0.29904500  0.77361400  1
  O  O41  1  0.05150000  0.79520500  0.28268800  1
  O  O42  1  0.36986000  0.88497700  0.03855700  1
  O  O43  1  0.86433900  0.38883500  0.53806400  1
  O  O44  1  0.68186300  0.83312000  0.09086600  1
  O  O45  1  0.18674200  0.33755900  0.58907500  1
  O  O46  1  0.44832400  0.70091200  0.22641900  1
  O  O47  1  0.94855000  0.20467700  0.71720900  1
loop_
_geom_bond_atom_site_label_1
_geom_bond_atom_site_label_2
_geom_bond_distance
_geom_bond_site_symmetry_2
Na0 O23 2.437503 1_565
Na0 O17 2.440364 1_654
Na0 O12 2.442294 1_554
Na0 O18 2.448990 1_665
Na0 O21 2.450681 1_655
Na0 O15 2.453108 1_564
Eu0 O16 2.418251 1_555
Eu0 O14 2.418637 1_555
Eu0 O20 2.418691 1_555
Eu0 O22 2.419404 1_555
Eu0 O19 2.421857 1_555
Eu0 O13 2.422805 1_555
O0 P10 1.542067 1_555
O0 Ti2 1.926346 1_555
O1 P11 1.542785 1_555
O1 Ti3 1.915774 1_565
O2 P6 1.544174 1_555
O2 Ti2 1.912226 1_555
O3 P7 1.541372 1_555
O3 Ti3 1.928642 1_555
O4 P8 1.536608 1_555
O4 Ti2 1.925191 1_455
O5 P9 1.549467 1_555
O5 Ti3 1.913297 1_555
O6 P4 1.541475 1_555
O6 Ti0 1.927195 1_555
O7 P5 1.542106 1_555
O7 Ti1 1.915529 1_545
O8 P0 1.543206 1_555
O8 Ti0 1.911955 1_555
O9 P1 1.540415 1_555
O9 Ti1 1.929109 1_555
O10 P2 1.535998 1_555
O10 Ti0 1.924985 1_655
O11 P3 1.548154 1_555
O11 Ti1 1.914272 1_555
O12 P6 1.534847 1_556
O12 Ti5 2.002561 1_655
O13 P7 1.566194 1_555
O13 Ti4 2.068578 1_555
O14 P8 1.556393 1_555
O14 Ti4 2.083939 1_555
O15 P9 1.541417 1_555
O15 Ti5 1.989636 1_645
O16 P10 1.566246 1_555
O16 Ti4 2.082873 1_555
O17 P11 1.535038 1_555
O17 Ti5 1.991163 1_555
O18 P0 1.533995 1_554
O18 Ti7 1.999786 1_455
O19 P1 1.566237 1_555
O19 Ti6 2.067818 1_555
O20 P2 1.556254 1_555
O20 Ti6 2.084899 1_555
O21 P3 1.540791 1_555
O21 Ti7 1.989298 1_465
O22 P4 1.566091 1_555
O22 Ti6 2.082493 1_555
O23 P5 1.534620 1_555
O23 Ti7 1.991031 1_555
O24 P0 1.559278 1_554
O24 Ti4 1.847363 1_555
O25 P1 1.534576 1_555
O25 Ti5 1.918098 1_655
O26 P2 1.547758 1_554
O26 Ti4 1.873263 1_555
O27 P3 1.545537 1_555
O27 Ti5 1.889486 1_555
O28 P4 1.534493 1_555
O28 Ti5 1.925320 1_555
O29 P5 1.558776 1_555
O29 Ti4 1.845538 1_555
O30 P6 1.559765 1_556
O30 Ti6 1.847562 1_555
O31 P7 1.534094 1_555
O31 Ti7 1.918823 1_455
O32 P8 1.547678 1_556
O32 Ti6 1.873121 1_555
O33 P9 1.544950 1_555
O33 Ti7 1.890653 1_555
O34 P10 1.534252 1_555
O34 Ti7 1.925338 1_555
O35 P11 1.558849 1_555
O35 Ti6 1.845281 1_555
O36 P5 1.530670 1_556
O36 Ti3 1.993162 1_555
O37 P4 1.536035 1_555
O37 Ti2 2.029042 1_455
O38 P0 1.530032 1_555
O38 Ti3 1.997929 1_555
O39 P1 1.536973 1_555
O39 Ti2 2.017265 1_555
O40 P2 1.530202 1_555
O40 Ti3 2.035337 1_555
O41 P3 1.537174 1_555
O41 Ti2 1.979063 1_455
O42 P11 1.529303 1_554
O42 Ti1 1.994440 1_555
O43 P10 1.535889 1_555
O43 Ti0 2.030336 1_655
O44 P6 1.529190 1_555
O44 Ti1 1.999174 1_555
O45 P7 1.536525 1_555
O45 Ti0 2.016162 1_555
O46 P8 1.529286 1_555
O46 Ti1 2.035889 1_555
O47 P9 1.537193 1_555
O47 Ti0 1.979543 1_655
