# generated using pymatgen
data_DyB4Os
_symmetry_space_group_name_H-M   'P 1'
_cell_length_a   3.56438351
_cell_length_b   5.95735530
_cell_length_c   11.52473511
_cell_angle_alpha   90.00000000
_cell_angle_beta   90.00000000
_cell_angle_gamma   90.00000000
_symmetry_Int_Tables_number   1
_chemical_formula_structural   DyB4Os
_chemical_formula_sum   'Dy4 B16 Os4'
_cell_volume   244.71967116
_cell_formula_units_Z   4
loop_
 _symmetry_equiv_pos_site_id
 _symmetry_equiv_pos_as_xyz
  1  'x, y, z'
loop_
 _atom_site_type_symbol
 _atom_site_label
 _atom_site_symmetry_multiplicity
 _atom_site_fract_x
 _atom_site_fract_y
 _atom_site_fract_z
 _atom_site_occupancy
  Dy  Dy0  1  0.00000000  0.62808992  0.34987888  1
  Dy  Dy1  1  0.00000000  0.37191008  0.65012112  1
  Dy  Dy2  1  -0.00000000  0.12808992  0.15012112  1
  Dy  Dy3  1  -0.00000000  0.87191008  0.84987888  1
  B  B0  1  0.50000000  0.78873663  0.18562821  1
  B  B1  1  0.50000000  0.21126337  0.81437179  1
  B  B2  1  0.50000000  0.28873663  0.31437179  1
  B  B3  1  0.50000000  0.71126337  0.68562821  1
  B  B4  1  0.50000000  0.86328981  0.03005145  1
  B  B5  1  0.50000000  0.13671019  0.96994855  1
  B  B6  1  0.50000000  0.36328981  0.46994855  1
  B  B7  1  0.50000000  0.63671019  0.53005145  1
  B  B8  1  0.50000000  0.88763331  0.45333751  1
  B  B9  1  0.50000000  0.11236669  0.54666249  1
  B  B10  1  0.50000000  0.38763331  0.04666249  1
  B  B11  1  0.50000000  0.61236669  0.95333751  1
  B  B12  1  0.50000000  0.97488231  0.30885314  1
  B  B13  1  0.50000000  0.02511769  0.69114686  1
  B  B14  1  0.50000000  0.47488231  0.19114686  1
  B  B15  1  0.50000000  0.52511769  0.80885314  1
  Os  Os0  1  -0.00000000  0.64108746  0.09362060  1
  Os  Os1  1  -0.00000000  0.35891254  0.90637940  1
  Os  Os2  1  0.00000000  0.14108746  0.40637940  1
  Os  Os3  1  -0.00000000  0.85891254  0.59362060  1
loop_
_geom_bond_atom_site_label_1
_geom_bond_atom_site_label_2
_geom_bond_distance
_geom_bond_site_symmetry_2
Dy0 Os0 2.954324 1_555
Dy0 Os2 2.973421 1_555
Dy0 Os2 3.124708 1_565
Dy0 Os3 3.127569 1_555
Dy1 Os1 2.954324 1_555
Dy1 Os3 2.973421 1_555
Dy1 Os3 3.124708 1_545
Dy1 Os2 3.127569 1_555
Dy2 Os2 2.954324 1_555
Dy2 Os0 2.973421 1_545
Dy2 Os0 3.124708 1_555
Dy2 Os1 3.127569 1_554
Dy3 Os3 2.954324 1_555
Dy3 Os1 2.973421 1_565
Dy3 Os1 3.124708 1_555
Dy3 Os0 3.127569 1_556
B0 B12 1.801811 1_555
B0 B4 1.847171 1_555
B0 B14 1.870823 1_555
B0 Os0 2.252614 1_555
B0 Os0 2.252614 1_655
B0 Dy2 2.725935 1_565
B0 Dy2 2.725935 1_665
B0 Dy0 2.770443 1_655
B0 Dy0 2.770443 1_555
B1 B13 1.801811 1_555
B1 B5 1.847171 1_555
B1 B15 1.870823 1_555
B1 Os1 2.252614 1_555
B1 Os1 2.252614 1_655
B1 Dy3 2.725935 1_545
B1 Dy3 2.725935 1_645
B1 Dy1 2.770443 1_655
B1 Dy1 2.770443 1_555
B2 B6 1.847171 1_555
B2 Os2 2.252614 1_655
B2 Os2 2.252614 1_555
B2 Dy0 2.725935 1_555
B2 Dy0 2.725935 1_655
B2 Dy2 2.770443 1_555
B2 Dy2 2.770443 1_655
B3 B7 1.847171 1_555
B3 Os3 2.252614 1_555
B3 Os3 2.252614 1_655
B3 Dy1 2.725935 1_555
B3 Dy1 2.725935 1_655
B3 Dy3 2.770443 1_555
B3 Dy3 2.770443 1_655
B4 B5 1.770024 1_564
B4 Os0 2.337781 1_555
B4 Os0 2.337781 1_655
B4 Dy3 2.736869 1_654
B4 Dy3 2.736869 1_554
B4 Dy2 2.753101 1_665
B4 Dy2 2.753101 1_565
B5 Os1 2.337781 1_555
B5 Os1 2.337781 1_655
B5 Dy2 2.736869 1_556
B5 Dy2 2.736869 1_656
B5 Dy3 2.753101 1_645
B5 Dy3 2.753101 1_545
B6 B9 1.736718 1_555
B6 B7 1.770024 1_555
B6 Os2 2.337781 1_555
B6 Os2 2.337781 1_655
B6 Dy1 2.736869 1_555
B6 Dy1 2.736869 1_655
B6 Dy0 2.753101 1_655
B6 Dy0 2.753101 1_555
B7 B8 1.736718 1_555
B7 Os3 2.337781 1_555
B7 Os3 2.337781 1_655
B7 Dy0 2.736869 1_655
B7 Dy0 2.736869 1_555
B7 Dy1 2.753101 1_555
B7 Dy1 2.753101 1_655
B8 B9 1.717332 1_565
B8 Os2 2.397693 1_565
B8 Os2 2.397693 1_665
B8 Os3 2.412319 1_555
B8 Os3 2.412319 1_655
B8 Dy0 2.643592 1_555
B8 Dy0 2.643592 1_655
B9 Os3 2.397693 1_545
B9 Os3 2.397693 1_645
B9 Os2 2.412319 1_555
B9 Os2 2.412319 1_655
B9 Dy1 2.643592 1_555
B9 Dy1 2.643592 1_655
B10 B11 1.717332 1_554
B10 B5 1.736718 1_554
B10 B14 1.744382 1_555
B10 Os0 2.397693 1_555
B10 Os0 2.397693 1_655
B10 Os1 2.412319 1_654
B10 Os1 2.412319 1_554
B10 Dy2 2.643592 1_555
B10 Dy2 2.643592 1_655
B11 B4 1.736718 1_556
B11 B15 1.744382 1_555
B11 Os1 2.397693 1_655
B11 Os1 2.397693 1_555
B11 Os0 2.412319 1_556
B11 Os0 2.412319 1_656
B11 Dy3 2.643592 1_655
B11 Dy3 2.643592 1_555
B12 B8 1.744382 1_555
B12 B2 1.870823 1_565
B12 Os2 2.328065 1_565
B12 Os2 2.328065 1_665
B12 Dy2 2.712149 1_665
B12 Dy2 2.712149 1_565
B12 Dy0 2.769110 1_555
B12 Dy0 2.769110 1_655
B13 B9 1.744382 1_555
B13 B3 1.870823 1_545
B13 Os3 2.328065 1_645
B13 Os3 2.328065 1_545
B13 Dy3 2.712149 1_545
B13 Dy3 2.712149 1_645
B13 Dy1 2.769110 1_555
B13 Dy1 2.769110 1_655
B14 B2 1.801811 1_555
B14 Os0 2.328065 1_555
B14 Os0 2.328065 1_655
B14 Dy0 2.712149 1_655
B14 Dy0 2.712149 1_555
B14 Dy2 2.769110 1_555
B14 Dy2 2.769110 1_655
B15 B3 1.801811 1_555
B15 Os1 2.328065 1_655
B15 Os1 2.328065 1_555
B15 Dy1 2.712149 1_655
B15 Dy1 2.712149 1_555
B15 Dy3 2.769110 1_655
B15 Dy3 2.769110 1_555
Os0 Os1 2.735392 1_554
Os2 Os3 2.735392 1_545
