# generated using pymatgen
data_KMg14C
_symmetry_space_group_name_H-M   'P 1'
_cell_length_a   6.44370802
_cell_length_b   6.44370748
_cell_length_c   10.24340269
_cell_angle_alpha   90.00000000
_cell_angle_beta   90.00000000
_cell_angle_gamma   120.00000276
_symmetry_Int_Tables_number   1
_chemical_formula_structural   KMg14C
_chemical_formula_sum   'K1 Mg14 C1'
_cell_volume   368.33800884
_cell_formula_units_Z   1
loop_
 _symmetry_equiv_pos_site_id
 _symmetry_equiv_pos_as_xyz
  1  'x, y, z'
loop_
 _atom_site_type_symbol
 _atom_site_label
 _atom_site_symmetry_multiplicity
 _atom_site_fract_x
 _atom_site_fract_y
 _atom_site_fract_z
 _atom_site_occupancy
  K  K0  1  0.16666700  0.33333300  0.12500000  1
  Mg  Mg0  1  0.17957757  0.83978828  0.12500000  1
  Mg  Mg1  1  0.15066782  0.82533341  0.62500000  1
  Mg  Mg2  1  0.66021172  0.32042243  0.12500000  1
  Mg  Mg3  1  0.67466659  0.34933218  0.62500000  1
  Mg  Mg4  1  0.66021172  0.83978828  0.12500000  1
  Mg  Mg5  1  0.67466659  0.82533341  0.62500000  1
  Mg  Mg6  1  0.32709813  0.17290187  0.40660596  1
  Mg  Mg7  1  0.32709813  0.17290187  0.84339404  1
  Mg  Mg8  1  0.32709813  0.65419726  0.40660596  1
  Mg  Mg9  1  0.32709813  0.65419726  0.84339404  1
  Mg  Mg10  1  0.84580274  0.17290187  0.40660596  1
  Mg  Mg11  1  0.84580274  0.17290187  0.84339404  1
  Mg  Mg12  1  0.83333300  0.66666700  0.36609435  1
  Mg  Mg13  1  0.83333300  0.66666700  0.88390565  1
  C  C0  1  0.16666700  0.33333300  0.62500000  1
loop_
_geom_bond_atom_site_label_1
_geom_bond_atom_site_label_2
_geom_bond_distance
_geom_bond_site_symmetry_2
K0 Mg0 3.222659 1_555
K0 Mg4 3.222659 1_555
K0 Mg4 3.222659 1_445
K0 Mg0 3.222659 1_545
K0 Mg2 3.222659 1_455
K0 Mg2 3.222659 1_555
K0 Mg7 3.395141 1_554
K0 Mg6 3.395141 1_555
K0 Mg9 3.395147 1_554
K0 Mg8 3.395147 1_555
K0 Mg10 3.395147 1_455
K0 Mg11 3.395147 1_454
Mg0 Mg2 3.097066 1_565
Mg0 Mg4 3.097066 1_555
Mg0 Mg12 3.135667 1_455
Mg0 Mg13 3.135667 1_454
Mg0 Mg2 3.346642 1_455
Mg0 Mg4 3.346642 1_455
Mg0 Mg8 3.433874 1_555
Mg0 Mg9 3.433874 1_554
Mg0 Mg7 3.433881 1_564
Mg0 Mg6 3.433881 1_565
Mg1 Mg8 2.960880 1_555
Mg1 Mg9 2.960880 1_555
Mg1 Mg6 2.960887 1_565
Mg1 Mg7 2.960887 1_565
Mg1 Mg3 3.067213 1_455
Mg1 Mg5 3.067213 1_455
Mg1 Mg13 3.188957 1_455
Mg1 Mg12 3.188957 1_455
Mg1 Mg3 3.376495 1_565
Mg1 Mg5 3.376495 1_555
Mg2 Mg4 3.097066 1_545
Mg2 Mg4 3.346642 1_555
Mg2 Mg7 3.433881 1_554
Mg2 Mg6 3.433881 1_555
Mg3 Mg6 2.960887 1_555
Mg3 Mg7 2.960887 1_555
Mg3 Mg5 3.067213 1_555
Mg3 Mg5 3.376495 1_545
Mg4 Mg9 3.433880 1_554
Mg4 Mg8 3.433880 1_555
Mg5 Mg9 2.960887 1_555
Mg5 Mg8 2.960887 1_555
Mg10 Mg3 2.960880 1_555
Mg10 Mg5 2.960887 1_545
Mg10 Mg12 3.249214 1_545
Mg10 Mg12 3.249214 1_555
Mg10 Mg2 3.433874 1_555
Mg10 Mg4 3.433880 1_545
Mg11 Mg3 2.960880 1_555
Mg11 Mg5 2.960887 1_545
Mg11 Mg13 3.249214 1_545
Mg11 Mg13 3.249214 1_555
Mg11 Mg2 3.433874 1_556
Mg11 Mg4 3.433880 1_546
Mg12 Mg4 3.135660 1_555
Mg12 Mg2 3.135667 1_555
Mg12 Mg5 3.188951 1_555
Mg12 Mg3 3.188957 1_555
Mg12 Mg6 3.249214 1_665
Mg12 Mg6 3.249214 1_555
Mg12 Mg8 3.249214 1_655
Mg12 Mg8 3.249214 1_555
Mg13 Mg4 3.135660 1_556
Mg13 Mg2 3.135667 1_556
Mg13 Mg5 3.188951 1_555
Mg13 Mg3 3.188957 1_555
Mg13 Mg7 3.249214 1_665
Mg13 Mg7 3.249214 1_555
Mg13 Mg9 3.249214 1_555
Mg13 Mg9 3.249214 1_655
C0 Mg6 2.865424 1_555
C0 Mg7 2.865424 1_555
C0 Mg8 2.865431 1_555
C0 Mg9 2.865431 1_555
C0 Mg10 2.865431 1_455
C0 Mg11 2.865431 1_455
