# generated using pymatgen
data_Li2MnCoO4
_symmetry_space_group_name_H-M   'P 1'
_cell_length_a   6.59115700
_cell_length_b   6.59115700
_cell_length_c   9.89861800
_cell_angle_alpha   52.29182444
_cell_angle_beta   52.29182444
_cell_angle_gamma   26.43502983
_symmetry_Int_Tables_number   1
_chemical_formula_structural   Li2MnCoO4
_chemical_formula_sum   'Li4 Mn2 Co2 O8'
_cell_volume   148.93850424
_cell_formula_units_Z   2
loop_
 _symmetry_equiv_pos_site_id
 _symmetry_equiv_pos_as_xyz
  1  'x, y, z'
loop_
 _atom_site_type_symbol
 _atom_site_label
 _atom_site_symmetry_multiplicity
 _atom_site_fract_x
 _atom_site_fract_y
 _atom_site_fract_z
 _atom_site_occupancy
  Li  Li0  1  0.50000000  0.50000000  0.50000000  1
  Li  Li1  1  0.74842100  0.74842100  0.75592100  1
  Li  Li2  1  0.00000000  0.00000000  0.00000000  1
  Li  Li3  1  0.25157900  0.25157900  0.24407900  1
  Mn  Mn0  1  0.87619200  0.87619200  0.37167900  1
  Mn  Mn1  1  0.12380800  0.12380800  0.62832100  1
  Co  Co0  1  0.37197800  0.37197800  0.88107700  1
  Co  Co1  1  0.62802200  0.62802200  0.11892300  1
  O  O0  1  0.56618100  0.56618100  0.80004200  1
  O  O1  1  0.81341800  0.81341800  0.05143000  1
  O  O2  1  0.05313900  0.05313900  0.30721400  1
  O  O3  1  0.30663200  0.30663200  0.55574300  1
  O  O4  1  0.43381900  0.43381900  0.19995800  1
  O  O5  1  0.69336800  0.69336800  0.44425700  1
  O  O6  1  0.94686100  0.94686100  0.69278600  1
  O  O7  1  0.18658200  0.18658200  0.94857000  1
loop_
_geom_bond_atom_site_label_1
_geom_bond_atom_site_label_2
_geom_bond_distance
_geom_bond_site_symmetry_2
Li0 O5 2.177570 1_555
Li0 O3 2.177570 1_555
Li0 O6 2.177772 1_455
Li0 O6 2.177772 1_545
Li0 O2 2.177772 1_655
Li0 O2 2.177772 1_565
Li1 O0 2.092085 1_555
Li1 O7 2.153111 1_565
Li1 O7 2.153111 1_655
Li1 O6 2.208147 1_555
Li1 O3 2.212591 1_655
Li1 O3 2.212591 1_565
Li2 O7 2.112043 1_554
Li2 O1 2.112043 1_445
Li2 O0 2.190403 1_544
Li2 O0 2.190403 1_454
Li2 O4 2.190403 1_455
Li2 O4 2.190403 1_545
Li3 O4 2.092085 1_555
Li3 O1 2.153111 1_545
Li3 O1 2.153111 1_455
Li3 O2 2.208147 1_555
Li3 O5 2.212591 1_545
Li3 O5 2.212591 1_455
Mn0 O2 1.934642 1_665
Mn0 O5 1.975540 1_555
Mn0 O4 2.031717 1_655
Mn0 O4 2.031717 1_565
Mn0 O3 2.084221 1_655
Mn0 O3 2.084221 1_565
Mn1 O6 1.934642 1_445
Mn1 O3 1.975540 1_555
Mn1 O0 2.031717 1_545
Mn1 O0 2.031717 1_455
Mn1 O5 2.084221 1_455
Mn1 O5 2.084221 1_545
Co0 O1 2.021655 1_456
Co0 O1 2.021655 1_546
Co0 O7 2.027221 1_555
Co0 O0 2.083893 1_555
Co0 O6 2.101881 1_545
Co0 O6 2.101881 1_455
Co1 O7 2.021655 1_654
Co1 O7 2.021655 1_564
Co1 O1 2.027221 1_555
Co1 O4 2.083893 1_555
Co1 O2 2.101881 1_655
Co1 O2 2.101881 1_565
