# generated using pymatgen
data_Ca4Mn4O11
_symmetry_space_group_name_H-M   'P 1'
_cell_length_a   5.40187361
_cell_length_b   10.85348958
_cell_length_c   15.49197191
_cell_angle_alpha   90.32647660
_cell_angle_beta   89.97368850
_cell_angle_gamma   90.84159773
_symmetry_Int_Tables_number   1
_chemical_formula_structural   Ca4Mn4O11
_chemical_formula_sum   'Ca16 Mn16 O44'
_cell_volume   908.16880362
_cell_formula_units_Z   4
loop_
 _symmetry_equiv_pos_site_id
 _symmetry_equiv_pos_as_xyz
  1  'x, y, z'
loop_
 _atom_site_type_symbol
 _atom_site_label
 _atom_site_symmetry_multiplicity
 _atom_site_fract_x
 _atom_site_fract_y
 _atom_site_fract_z
 _atom_site_occupancy
  Ca  Ca0  1  0.00207100  0.00706400  0.11091500  1
  Ca  Ca1  1  0.99202500  0.01878200  0.62702500  1
  Ca  Ca2  1  0.96843600  0.53711800  0.12598000  1
  Ca  Ca3  1  0.99731300  0.52362400  0.62559700  1
  Ca  Ca4  1  0.00107500  0.49432500  0.39292100  1
  Ca  Ca5  1  0.00218600  0.49429800  0.85729500  1
  Ca  Ca6  1  0.99902200  0.96498000  0.38580000  1
  Ca  Ca7  1  0.01882000  0.97138400  0.87320400  1
  Ca  Ca8  1  0.52569000  0.23162400  0.39396400  1
  Ca  Ca9  1  0.50473900  0.22521000  0.87265600  1
  Ca  Ca10  1  0.50048300  0.73494500  0.38968900  1
  Ca  Ca11  1  0.50112700  0.74051300  0.86133500  1
  Ca  Ca12  1  0.47947700  0.22473500  0.11473600  1
  Ca  Ca13  1  0.51859600  0.26872800  0.62900900  1
  Ca  Ca14  1  0.50771800  0.78325900  0.11997500  1
  Ca  Ca15  1  0.51010200  0.77195100  0.62562000  1
  Mn  Mn0  1  0.51005500  0.99241100  0.99293900  1
  Mn  Mn1  1  0.49754500  0.00134800  0.50257900  1
  Mn  Mn2  1  0.47164100  0.50817500  0.98606100  1
  Mn  Mn3  1  0.50603500  0.49722700  0.50459000  1
  Mn  Mn4  1  0.02164900  0.24374100  0.99728000  1
  Mn  Mn5  1  0.01291200  0.25019600  0.50481700  1
  Mn  Mn6  1  0.99427900  0.74387300  0.99855300  1
  Mn  Mn7  1  0.00356000  0.74916400  0.50362800  1
  Mn  Mn8  1  0.90891700  0.26882600  0.24028500  1
  Mn  Mn9  1  0.01068500  0.25126600  0.75210000  1
  Mn  Mn10  1  0.01030000  0.75228400  0.25002000  1
  Mn  Mn11  1  0.00186900  0.75170200  0.74706000  1
  Mn  Mn12  1  0.51611300  0.99085700  0.25515800  1
  Mn  Mn13  1  0.50242600  0.00272800  0.74887200  1
  Mn  Mn14  1  0.50699500  0.52026600  0.25446400  1
  Mn  Mn15  1  0.50714000  0.49974800  0.74644600  1
  O  O0  1  0.21215800  0.10846000  0.77613100  1
  O  O1  1  0.17892100  0.57606100  0.25944800  1
  O  O2  1  0.22543900  0.61127600  0.76434900  1
  O  O3  1  0.68692700  0.40230600  0.19164700  1
  O  O4  1  0.79962100  0.39787000  0.72931400  1
  O  O5  1  0.84363300  0.90782600  0.23601400  1
  O  O6  1  0.78469100  0.89333200  0.72883900  1
  O  O7  1  0.61814000  0.16185400  0.24788100  1
  O  O8  1  0.71045600  0.14857400  0.73522700  1
  O  O9  1  0.69855600  0.65516800  0.21953900  1
  O  O10  1  0.71715500  0.64413700  0.72558100  1
  O  O11  1  0.29888500  0.35792800  0.77444000  1
  O  O12  1  0.31106700  0.84435400  0.27552900  1
  O  O13  1  0.28275000  0.86094200  0.76830700  1
  O  O14  1  0.29701100  0.35530900  0.48404500  1
  O  O15  1  0.33396200  0.34879600  0.99691600  1
  O  O16  1  0.28309300  0.85867400  0.48133100  1
  O  O17  1  0.29703800  0.84444700  0.97823600  1
  O  O18  1  0.73350400  0.14035200  0.01555400  1
  O  O19  1  0.71227500  0.14733700  0.51848700  1
  O  O20  1  0.68758600  0.63069900  0.02931100  1
  O  O21  1  0.71517500  0.64280600  0.52050600  1
  O  O22  1  0.79847400  0.39536700  0.51908900  1
  O  O23  1  0.79123500  0.88632600  0.01775800  1
  O  O24  1  0.78761700  0.89409300  0.51742100  1
  O  O25  1  0.21214200  0.10758400  0.47593600  1
  O  O26  1  0.23645500  0.09725200  0.98114000  1
  O  O27  1  0.22626800  0.60913200  0.48596000  1
  O  O28  1  0.15735600  0.58464000  0.99092300  1
  O  O29  1  0.57062500  0.00956800  0.37840000  1
  O  O30  1  0.58765600  0.00165100  0.87190000  1
  O  O31  1  0.56257300  0.49562600  0.37636100  1
  O  O32  1  0.57957600  0.51729400  0.87009700  1
  O  O33  1  0.42384400  0.48537700  0.62634200  1
  O  O34  1  0.43124500  0.99940400  0.13141700  1
  O  O35  1  0.42488700  0.99527400  0.62444500  1
  O  O36  1  0.05516800  0.24079400  0.12982300  1
  O  O37  1  0.08295300  0.23714400  0.63079100  1
  O  O38  1  0.08450800  0.74376300  0.12546800  1
  O  O39  1  0.07821000  0.74554700  0.62459600  1
  O  O40  1  0.96436800  0.27982700  0.35788600  1
  O  O41  1  0.92788700  0.28182200  0.88326200  1
  O  O42  1  0.93208000  0.74453400  0.37517400  1
  O  O43  1  0.92956200  0.74834800  0.87346300  1
loop_
_geom_bond_atom_site_label_1
_geom_bond_atom_site_label_2
_geom_bond_distance
_geom_bond_site_symmetry_2
Ca0 O23 2.243488 1_445
Ca0 O34 2.342893 1_545
Ca0 O5 2.375657 1_445
Ca0 O18 2.543220 1_455
Ca0 O36 2.563901 1_555
Ca0 O26 2.566490 1_554
Ca1 O35 2.356164 1_645
Ca1 O6 2.360971 1_545
Ca1 O37 2.413663 1_655
Ca1 O24 2.421871 1_545
Ca1 O8 2.672342 1_555
Ca1 O19 2.673718 1_555
Ca1 O0 2.764079 1_655
Ca1 O25 2.794811 1_655
Ca2 O38 2.319984 1_655
Ca2 O3 2.332050 1_555
Ca2 O20 2.375020 1_555
Ca2 O28 2.383293 1_654
Ca2 O1 2.392664 1_655
Ca2 O9 2.428895 1_555
Ca3 O33 2.347201 1_655
Ca3 O4 2.359161 1_555
Ca3 O22 2.396988 1_555
Ca3 O39 2.441771 1_655
Ca3 O10 2.536394 1_555
Ca3 O21 2.594387 1_555
Ca3 O2 2.643640 1_655
Ca3 O27 2.656558 1_655
Ca4 O27 2.246457 1_555
Ca4 O31 2.382958 1_455
Ca4 O40 2.392879 1_455
Ca4 O1 2.445323 1_555
Ca4 O22 2.481770 1_455
Ca4 O14 2.630993 1_555
Ca4 O42 2.761800 1_455
Ca5 O2 2.261405 1_555
Ca5 O32 2.308453 1_455
Ca5 O41 2.371555 1_455
Ca5 O28 2.429796 1_555
Ca5 O4 2.483624 1_455
Ca5 O11 2.540306 1_555
Ca5 O43 2.800593 1_455
Ca6 O25 2.365438 1_665
Ca6 O29 2.374107 1_565
Ca6 O42 2.419212 1_555
Ca6 O16 2.439225 1_655
Ca6 O24 2.458412 1_555
Ca6 O5 2.538522 1_555
Ca6 O12 2.740514 1_655
Ca7 O0 2.354599 1_565
Ca7 O30 2.357031 1_465
Ca7 O26 2.443976 1_565
Ca7 O43 2.461340 1_455
Ca7 O13 2.477136 1_555
Ca7 O17 2.625458 1_555
Ca7 O6 2.696044 1_455
Ca7 O23 2.714105 1_456
Ca8 O14 2.302460 1_555
Ca8 O19 2.371327 1_555
Ca8 O7 2.436196 1_555
Ca8 O29 2.436404 1_555
Ca8 O40 2.483383 1_555
Ca8 O25 2.498880 1_555
Ca9 O41 2.363750 1_555
Ca9 O11 2.387504 1_555
Ca9 O30 2.473813 1_555
Ca9 O0 2.502288 1_555
Ca9 O15 2.522156 1_555
Ca9 O8 2.542512 1_555
Ca9 O26 2.611280 1_555
Ca9 O18 2.708380 1_556
Ca10 O16 2.284957 1_555
Ca10 O42 2.342996 1_555
Ca10 O12 2.376159 1_555
Ca10 O27 2.498982 1_555
Ca10 O21 2.551772 1_555
Ca10 O31 2.630831 1_555
Ca11 O13 2.290273 1_555
Ca11 O43 2.322325 1_555
Ca11 O17 2.403986 1_555
Ca11 O32 2.470115 1_555
Ca11 O2 2.521804 1_555
Ca11 O10 2.624402 1_555
Ca12 O18 2.258678 1_555
Ca12 O7 2.305203 1_555
Ca12 O36 2.312865 1_555
Ca12 O15 2.413076 1_554
Ca12 O34 2.470664 1_545
Ca12 O3 2.510265 1_555
Ca12 O26 2.799614 1_554
Ca13 O8 2.355476 1_555
Ca13 O37 2.373307 1_555
Ca13 O19 2.403170 1_555
Ca13 O33 2.414382 1_555
Ca13 O4 2.568778 1_555
Ca13 O22 2.652918 1_555
Ca13 O14 2.723761 1_555
Ca13 O11 2.725509 1_555
Ca14 O38 2.321384 1_555
Ca14 O9 2.332938 1_555
Ca14 O20 2.382868 1_555
Ca14 O34 2.393556 1_555
Ca14 O23 2.464173 1_555
Ca14 O17 2.568843 1_554
Ca14 O12 2.715804 1_555
Ca14 O5 2.873220 1_555
Ca15 O39 2.346429 1_555
Ca15 O10 2.375958 1_555
Ca15 O21 2.421068 1_555
Ca15 O35 2.473961 1_555
Ca15 O6 2.532490 1_555
Ca15 O24 2.603657 1_555
Ca15 O13 2.708419 1_555
Ca15 O16 2.728875 1_555
Mn0 O26 1.888008 1_565
Mn0 O30 1.924081 1_565
Mn0 O23 1.958967 1_556
Mn0 O17 1.974021 1_555
Mn0 O18 2.023595 1_566
Mn0 O34 2.188048 1_556
Mn1 O35 1.929432 1_545
Mn1 O16 1.946811 1_545
Mn1 O19 1.964341 1_555
Mn1 O29 1.965947 1_555
Mn1 O24 1.979954 1_545
Mn1 O25 1.983670 1_555
Mn2 O20 1.876985 1_556
Mn2 O15 1.881246 1_555
Mn2 O32 1.891181 1_555
Mn2 O28 1.901912 1_555
Mn3 O14 1.921565 1_555
Mn3 O33 1.942074 1_555
Mn3 O21 1.943459 1_555
Mn3 O22 1.955156 1_555
Mn3 O27 1.975018 1_555
Mn3 O31 2.009738 1_555
Mn4 O41 1.887509 1_455
Mn4 O18 1.927173 1_456
Mn4 O26 1.996541 1_555
Mn4 O15 2.022349 1_555
Mn4 O36 2.061874 1_556
Mn5 O14 1.926805 1_555
Mn5 O25 1.948032 1_555
Mn5 O19 1.969177 1_455
Mn5 O22 1.980571 1_455
Mn5 O37 1.994319 1_555
Mn5 O40 2.316220 1_455
Mn6 O23 1.930354 1_556
Mn6 O28 1.954248 1_655
Mn6 O43 1.970327 1_555
Mn6 O17 1.978979 1_655
Mn6 O38 2.025905 1_656
Mn6 O20 2.103980 1_556
Mn7 O39 1.917850 1_555
Mn7 O16 1.939997 1_555
Mn7 O21 1.943694 1_455
Mn7 O27 1.969973 1_555
Mn7 O24 1.982549 1_455
Mn7 O42 2.027495 1_455
Mn8 O40 1.849369 1_555
Mn8 O36 1.909203 1_655
Mn8 O7 1.943413 1_555
Mn8 O3 2.041777 1_555
Mn9 O37 1.924973 1_555
Mn9 O0 1.944708 1_555
Mn9 O11 1.956174 1_555
Mn9 O8 1.970986 1_455
Mn9 O4 2.004096 1_455
Mn9 O41 2.105879 1_455
Mn10 O12 1.934631 1_555
Mn10 O5 1.938189 1_455
Mn10 O38 1.972505 1_555
Mn10 O42 1.986187 1_455
Mn10 O9 2.027998 1_455
Mn10 O1 2.136275 1_555
Mn11 O13 1.938915 1_555
Mn11 O39 1.942311 1_555
Mn11 O10 1.944835 1_455
Mn11 O6 1.969048 1_455
Mn11 O2 1.977931 1_555
Mn11 O43 1.997061 1_455
Mn12 O7 1.932138 1_565
Mn12 O29 1.941024 1_565
Mn12 O12 1.951518 1_555
Mn12 O34 1.974264 1_555
Mn12 O5 2.018299 1_555
Mn13 O8 1.940241 1_555
Mn13 O13 1.954036 1_545
Mn13 O30 1.961111 1_555
Mn13 O6 1.969646 1_545
Mn13 O35 1.973746 1_545
Mn13 O0 2.000138 1_555
Mn14 O9 1.863141 1_555
Mn14 O1 1.882628 1_555
Mn14 O3 1.884771 1_555
Mn14 O31 1.932987 1_555
Mn15 O33 1.919426 1_555
Mn15 O11 1.944014 1_555
Mn15 O10 1.949514 1_555
Mn15 O4 1.958801 1_555
Mn15 O32 1.962965 1_555
Mn15 O2 1.976782 1_555
