# generated using pymatgen
data_NdGaSb2
_symmetry_space_group_name_H-M   'P 1'
_cell_length_a   22.87038700
_cell_length_b   22.87038700
_cell_length_c   22.87038700
_cell_angle_alpha   169.00046034
_cell_angle_beta   169.00046034
_cell_angle_gamma   15.57977513
_symmetry_Int_Tables_number   1
_chemical_formula_structural   NdGaSb2
_chemical_formula_sum   'Nd4 Ga4 Sb8'
_cell_volume   435.47543720
_cell_formula_units_Z   4
loop_
 _symmetry_equiv_pos_site_id
 _symmetry_equiv_pos_as_xyz
  1  'x, y, z'
loop_
 _atom_site_type_symbol
 _atom_site_label
 _atom_site_symmetry_multiplicity
 _atom_site_fract_x
 _atom_site_fract_y
 _atom_site_fract_z
 _atom_site_occupancy
  Nd  Nd0  1  0.55578800  0.05578800  0.50000000  1
  Nd  Nd1  1  0.80578800  0.80578800  0.00000000  1
  Nd  Nd2  1  0.19421200  0.19421200  0.00000000  1
  Nd  Nd3  1  0.94421200  0.44421200  0.50000000  1
  Ga  Ga0  1  0.87500000  0.28793600  0.91293600  1
  Ga  Ga1  1  0.71206400  0.62500000  0.58706400  1
  Ga  Ga2  1  0.37500000  0.96206400  0.08706400  1
  Ga  Ga3  1  0.03793600  0.12500000  0.41293600  1
  Sb  Sb0  1  0.42080800  0.92080800  0.50000000  1
  Sb  Sb1  1  0.67080800  0.67080800  0.00000000  1
  Sb  Sb2  1  0.32919200  0.32919200  0.00000000  1
  Sb  Sb3  1  0.07919200  0.57919200  0.50000000  1
  Sb  Sb4  1  0.00000000  0.00000000  0.00000000  1
  Sb  Sb5  1  0.75000000  0.25000000  0.50000000  1
  Sb  Sb6  1  0.25000000  0.75000000  0.50000000  1
  Sb  Sb7  1  0.50000000  0.50000000  0.00000000  1
loop_
_geom_bond_atom_site_label_1
_geom_bond_atom_site_label_2
_geom_bond_distance
_geom_bond_site_symmetry_2
Nd0 Sb3 3.276299 1_555
Nd0 Sb3 3.276299 1_656
Nd0 Sb3 3.276299 1_544
Nd0 Sb3 3.276299 1_645
Nd0 Sb4 3.346129 1_555
Nd0 Sb7 3.346129 1_556
Nd0 Sb4 3.346129 1_656
Nd0 Sb7 3.346129 1_545
Nd1 Sb2 3.276299 1_666
Nd1 Sb2 3.276299 1_655
Nd1 Sb2 3.276299 1_565
Nd1 Sb2 3.276299 1_554
Nd1 Sb5 3.346129 1_554
Nd1 Sb6 3.346129 1_554
Nd1 Sb5 3.346129 1_565
Nd1 Sb6 3.346129 1_655
Nd2 Sb1 3.276299 1_444
Nd2 Sb1 3.276299 1_545
Nd2 Sb1 3.276299 1_455
Nd2 Sb1 3.276299 1_556
Nd2 Sb6 3.346129 1_555
Nd2 Sb5 3.346129 1_555
Nd2 Sb5 3.346129 1_454
Nd2 Sb6 3.346129 1_544
Nd3 Sb0 3.276299 1_544
Nd3 Sb0 3.276299 1_645
Nd3 Sb0 3.276299 1_555
Nd3 Sb0 3.276299 1_656
Nd3 Sb4 3.346129 1_666
Nd3 Sb7 3.346129 1_555
Nd3 Sb4 3.346129 1_655
Nd3 Sb7 3.346129 1_656
Ga0 Ga2 2.616379 1_545
Ga0 Ga2 2.616379 1_646
Ga0 Sb3 2.773840 1_656
Ga0 Sb1 2.773840 1_556
Ga0 Nd0 3.398469 1_555
Ga0 Nd2 3.398469 1_656
Ga1 Ga3 2.616379 1_666
Ga1 Ga3 2.616379 1_655
Ga1 Sb0 2.773840 1_555
Ga1 Sb2 2.773840 1_555
Ga1 Nd3 3.398469 1_555
Ga1 Nd1 3.398469 1_556
Ga2 Sb3 2.773840 1_554
Ga2 Sb1 2.773840 1_555
Ga2 Nd0 3.398469 1_565
Ga2 Nd2 3.398469 1_565
Ga3 Sb0 2.773840 1_545
Ga3 Sb2 2.773840 1_556
Ga3 Nd3 3.398469 1_455
Ga3 Nd1 3.398469 1_445
Sb4 Sb7 3.099868 1_444
Sb4 Sb7 3.099868 1_545
Sb4 Sb7 3.099868 1_455
Sb4 Sb7 3.099868 1_556
Sb5 Sb6 3.099868 1_544
Sb5 Sb6 3.099868 1_645
Sb5 Sb6 3.099868 1_555
Sb5 Sb6 3.099868 1_656
