# generated using pymatgen
data_KLa(WO4)2
_symmetry_space_group_name_H-M   'P 1'
_cell_length_a   7.62322927
_cell_length_b   7.62322927
_cell_length_c   7.67165087
_cell_angle_alpha   66.11732726
_cell_angle_beta   66.11732726
_cell_angle_gamma   92.97139375
_symmetry_Int_Tables_number   1
_chemical_formula_structural   KLa(WO4)2
_chemical_formula_sum   'K2 La2 W4 O16'
_cell_volume   360.12468531
_cell_formula_units_Z   2
loop_
 _symmetry_equiv_pos_site_id
 _symmetry_equiv_pos_as_xyz
  1  'x, y, z'
loop_
 _atom_site_type_symbol
 _atom_site_label
 _atom_site_symmetry_multiplicity
 _atom_site_fract_x
 _atom_site_fract_y
 _atom_site_fract_z
 _atom_site_occupancy
  K  K0  1  0.69061100  0.69061100  0.47181600  1
  K  K1  1  0.30938900  0.30938900  0.52818400  1
  La  La0  1  0.70085500  0.29914500  0.00000000  1
  La  La1  1  0.29914500  0.70085500  0.00000000  1
  W  W0  1  0.20424200  0.20424200  0.05781300  1
  W  W1  1  0.79575800  0.79575800  0.94218700  1
  W  W2  1  0.83997600  0.16002400  0.50000000  1
  W  W3  1  0.16002400  0.83997600  0.50000000  1
  O  O0  1  0.34336300  0.09376300  0.26051000  1
  O  O1  1  0.65663700  0.90623700  0.73949000  1
  O  O2  1  0.90623700  0.65663700  0.73949000  1
  O  O3  1  0.09376300  0.34336300  0.26051000  1
  O  O4  1  0.69304300  0.21384800  0.35704100  1
  O  O5  1  0.30695700  0.78615200  0.64295900  1
  O  O6  1  0.78615200  0.30695700  0.64295900  1
  O  O7  1  0.21384800  0.69304300  0.35704100  1
  O  O8  1  0.70597400  0.95720400  0.06297500  1
  O  O9  1  0.29402600  0.04279600  0.93702500  1
  O  O10  1  0.04279600  0.29402600  0.93702500  1
  O  O11  1  0.95720400  0.70597400  0.06297500  1
  O  O12  1  0.98398600  0.98398600  0.34456200  1
  O  O13  1  0.01601400  0.01601400  0.65543800  1
  O  O14  1  0.57525300  0.57525300  0.10858100  1
  O  O15  1  0.42474700  0.42474700  0.89141900  1
loop_
_geom_bond_atom_site_label_1
_geom_bond_atom_site_label_2
_geom_bond_distance
_geom_bond_site_symmetry_2
K0 O12 2.627206 1_555
K0 O15 2.754292 1_555
K0 O8 2.915122 1_555
K0 O11 2.915122 1_555
K0 O6 2.948541 1_555
K0 O5 2.948541 1_555
K0 O1 3.054935 1_555
K0 O2 3.054935 1_555
K1 O13 2.627206 1_555
K1 O14 2.754292 1_555
K1 O9 2.915122 1_555
K1 O10 2.915122 1_555
K1 O4 2.948541 1_555
K1 O7 2.948541 1_555
K1 O3 3.054935 1_555
K1 O0 3.054935 1_555
La0 O8 2.456799 1_545
La0 O10 2.456799 1_654
La0 O4 2.520062 1_555
La0 O6 2.520062 1_554
La0 O0 2.546800 1_555
La0 O2 2.546800 1_554
La0 O14 2.650251 1_555
La0 O15 2.650251 1_554
La1 O11 2.456799 1_455
La1 O9 2.456799 1_564
La1 O7 2.520062 1_555
La1 O5 2.520062 1_554
La1 O1 2.546800 1_554
La1 O3 2.546800 1_555
La1 O15 2.650251 1_554
La1 O14 2.650251 1_555
O0 W3 1.958096 1_545
O0 W0 2.149349 1_555
O1 W2 1.958096 1_565
O1 W1 2.149349 1_555
O2 W3 1.958096 1_655
O2 W1 2.149349 1_555
O3 W2 1.958096 1_455
O3 W0 2.149349 1_555
O4 W2 1.817634 1_555
O5 W3 1.817634 1_555
O6 W2 1.817634 1_555
O7 W3 1.817634 1_555
O8 W1 1.827317 1_554
O9 W0 1.827317 1_556
O10 W0 1.827317 1_556
O11 W1 1.827317 1_554
O12 W0 2.050307 1_665
O12 W3 2.194671 1_655
O12 W2 2.194671 1_565
O13 W1 2.050307 1_445
O13 W3 2.194671 1_545
O13 W2 2.194671 1_455
O14 W1 1.874249 1_554
O15 W0 1.874249 1_556
