# generated using pymatgen
data_KEuSnWO6
_symmetry_space_group_name_H-M   'P 1'
_cell_length_a   6.00772286
_cell_length_b   6.00772286
_cell_length_c   8.43234801
_cell_angle_alpha   90.00000000
_cell_angle_beta   90.00000000
_cell_angle_gamma   90.00000000
_symmetry_Int_Tables_number   1
_chemical_formula_structural   KEuSnWO6
_chemical_formula_sum   'K2 Eu2 Sn2 W2 O12'
_cell_volume   304.34649340
_cell_formula_units_Z   2
loop_
 _symmetry_equiv_pos_site_id
 _symmetry_equiv_pos_as_xyz
  1  'x, y, z'
loop_
 _atom_site_type_symbol
 _atom_site_label
 _atom_site_symmetry_multiplicity
 _atom_site_fract_x
 _atom_site_fract_y
 _atom_site_fract_z
 _atom_site_occupancy
  K  K0  1  0.00000000  0.00000000  0.25000000  1
  K  K1  1  0.00000000  0.00000000  0.75000000  1
  Eu  Eu0  1  0.50000000  0.00000000  0.50000000  1
  Eu  Eu1  1  0.00000000  0.50000000  0.00000000  1
  Sn  Sn0  1  0.50000000  0.50000000  0.75000000  1
  Sn  Sn1  1  0.50000000  0.50000000  0.25000000  1
  W  W0  1  0.50000000  0.00000000  0.00000000  1
  W  W1  1  0.00000000  0.50000000  0.50000000  1
  O  O0  1  0.27763102  0.76247414  0.00000000  1
  O  O1  1  0.72236898  0.23752586  0.00000000  1
  O  O2  1  0.23752586  0.72236898  0.50000000  1
  O  O3  1  0.76247414  0.27763102  0.50000000  1
  O  O4  1  0.72236898  0.76247414  -0.00000000  1
  O  O5  1  0.76247414  0.72236898  0.50000000  1
  O  O6  1  0.27763102  0.23752586  -0.00000000  1
  O  O7  1  0.23752586  0.27763102  0.50000000  1
  O  O8  1  0.50000000  0.00000000  0.76959911  1
  O  O9  1  -0.00000000  0.50000000  0.73040089  1
  O  O10  1  0.50000000  0.00000000  0.23040089  1
  O  O11  1  -0.00000000  0.50000000  0.26959911  1
loop_
_geom_bond_atom_site_label_1
_geom_bond_atom_site_label_2
_geom_bond_distance
_geom_bond_site_symmetry_2
K0 O11 3.008404 1_545
K0 O11 3.008404 1_555
K0 O10 3.008404 1_555
K0 O10 3.008404 1_455
K0 O5 3.043406 1_445
K0 O4 3.043406 1_445
K0 O0 3.043406 1_545
K0 O3 3.043406 1_455
K0 O2 3.043406 1_545
K0 O6 3.043406 1_555
K0 O1 3.043406 1_455
K0 O7 3.043406 1_555
K1 O9 3.008404 1_555
K1 O9 3.008404 1_545
K1 O8 3.008404 1_555
K1 O8 3.008404 1_455
K1 O5 3.043406 1_445
K1 O4 3.043406 1_446
K1 O3 3.043406 1_455
K1 O2 3.043406 1_545
K1 O6 3.043406 1_556
K1 O1 3.043406 1_456
K1 O7 3.043406 1_555
K1 O0 3.043406 1_546
Eu0 O10 2.273354 1_555
Eu0 O8 2.273354 1_555
Eu0 O5 2.295325 1_545
Eu0 O2 2.295325 1_545
Eu0 O3 2.295325 1_555
Eu0 O7 2.295325 1_555
Eu1 O9 2.273354 1_554
Eu1 O11 2.273354 1_555
Eu1 O4 2.295325 1_455
Eu1 O1 2.295325 1_455
Eu1 O6 2.295325 1_555
Eu1 O0 2.295325 1_555
O0 W0 1.954741 1_565
O1 W0 1.954741 1_555
O2 W1 1.954741 1_555
O3 W1 1.954741 1_655
O4 W0 1.954741 1_565
O5 W1 1.954741 1_655
O6 W0 1.954741 1_555
O7 W1 1.954741 1_555
O8 W0 1.942820 1_556
O9 W1 1.942820 1_555
O10 W0 1.942820 1_555
O11 W1 1.942820 1_555
