# generated using pymatgen
data_Ca(CoO2)4
_symmetry_space_group_name_H-M   'P 1'
_cell_length_a   6.49866362
_cell_length_b   6.49866362
_cell_length_c   8.82083057
_cell_angle_alpha   50.55394232
_cell_angle_beta   50.55394232
_cell_angle_gamma   25.86390749
_symmetry_Int_Tables_number   1
_chemical_formula_structural   Ca(CoO2)4
_chemical_formula_sum   'Ca1 Co4 O8'
_cell_volume   123.23360249
_cell_formula_units_Z   1
loop_
 _symmetry_equiv_pos_site_id
 _symmetry_equiv_pos_as_xyz
  1  'x, y, z'
loop_
 _atom_site_type_symbol
 _atom_site_label
 _atom_site_symmetry_multiplicity
 _atom_site_fract_x
 _atom_site_fract_y
 _atom_site_fract_z
 _atom_site_occupancy
  Ca  Ca0  1  0.53212500  0.53212500  0.94863000  1
  Co  Co0  1  0.37224300  0.37224300  0.43806000  1
  Co  Co1  1  0.85053900  0.85053900  0.78721800  1
  Co  Co2  1  0.17894400  0.17894400  0.14868100  1
  Co  Co3  1  0.65710300  0.65710300  0.49804000  1
  O  O0  1  0.15100600  0.15100600  0.37323200  1
  O  O1  1  0.56026900  0.56026900  0.21645300  1
  O  O2  1  0.46821800  0.46821800  0.72002600  1
  O  O3  1  0.87987800  0.87987800  0.56120300  1
  O  O4  1  0.85678400  0.85678400  0.30783700  1
  O  O5  1  0.21419200  0.21419200  0.90242900  1
  O  O6  1  0.17027400  0.17027400  0.63383400  1
  O  O7  1  0.81271200  0.81271200  0.03371100  1
loop_
_geom_bond_atom_site_label_1
_geom_bond_atom_site_label_2
_geom_bond_distance
_geom_bond_site_symmetry_2
Ca0 O5 2.524902 1_655
Ca0 O5 2.524902 1_565
Ca0 O6 2.559806 1_565
Ca0 O6 2.559806 1_655
Ca0 O1 2.608877 1_556
Ca0 O2 2.617229 1_555
Ca0 O7 2.772031 1_456
Ca0 O7 2.772031 1_546
Ca0 O4 2.812919 1_546
Ca0 O4 2.812919 1_456
Co0 O1 1.850408 1_555
Co0 O3 1.855093 1_455
Co0 O3 1.855093 1_545
Co0 O4 1.940681 1_545
Co0 O4 1.940681 1_455
Co0 O6 1.941036 1_555
Co1 O3 1.773894 1_555
Co1 O2 1.880628 1_655
Co1 O2 1.880628 1_565
Co1 O7 1.897029 1_556
Co1 O5 1.960275 1_565
Co1 O5 1.960275 1_655
Co2 O0 1.770477 1_555
Co2 O1 1.887022 1_455
Co2 O1 1.887022 1_545
Co2 O5 1.911305 1_554
Co2 O7 1.942822 1_545
Co2 O7 1.942822 1_455
Co3 O0 1.855799 1_565
Co3 O0 1.855799 1_655
Co3 O2 1.857656 1_555
Co3 O4 1.918375 1_555
Co3 O6 1.959164 1_565
Co3 O6 1.959164 1_655
