# generated using pymatgen
data_TeMoWSe2S
_symmetry_space_group_name_H-M   'P 1'
_cell_length_a   3.34668815
_cell_length_b   3.34668815
_cell_length_c   38.04901100
_cell_angle_alpha   90.00000000
_cell_angle_beta   90.00000000
_cell_angle_gamma   120.00000297
_symmetry_Int_Tables_number   1
_chemical_formula_structural   TeMoWSe2S
_chemical_formula_sum   'Te2 Mo2 W2 Se4 S2'
_cell_volume   369.06637859
_cell_formula_units_Z   2
loop_
 _symmetry_equiv_pos_site_id
 _symmetry_equiv_pos_as_xyz
  1  'x, y, z'
loop_
 _atom_site_type_symbol
 _atom_site_label
 _atom_site_symmetry_multiplicity
 _atom_site_fract_x
 _atom_site_fract_y
 _atom_site_fract_z
 _atom_site_occupancy
  Te  Te0  1  0.33333300  0.66666700  0.70763400  1
  Te  Te1  1  0.33333300  0.66666700  0.60744400  1
  Mo  Mo0  1  0.33333300  0.66666700  0.09389800  1
  Mo  Mo1  1  0.33333300  0.66666700  0.46965800  1
  W  W0  1  0.66666700  0.33333300  0.28180600  1
  W  W1  1  0.66666700  0.33333300  0.65756700  1
  Se  Se0  1  0.33333300  0.66666700  0.32580800  1
  Se  Se1  1  0.66666700  0.33333300  0.05013500  1
  Se  Se2  1  0.66666700  0.33333300  0.13768700  1
  Se  Se3  1  0.33333300  0.66666700  0.23779200  1
  S  S0  1  0.66666700  0.33333300  0.42982900  1
  S  S1  1  0.66666700  0.33333300  0.50949000  1
loop_
_geom_bond_atom_site_label_1
_geom_bond_atom_site_label_2
_geom_bond_distance
_geom_bond_site_symmetry_2
Te0 W1 2.713385 1_455
Te0 W1 2.713385 1_565
Te0 W1 2.713389 1_555
Te1 W1 2.714881 1_565
Te1 W1 2.714881 1_455
Te1 W1 2.714885 1_555
Mo0 Se1 2.550710 1_455
Mo0 Se1 2.550710 1_565
Mo0 Se1 2.550714 1_555
Mo0 Se2 2.551356 1_455
Mo0 Se2 2.551356 1_565
Mo0 Se2 2.551360 1_555
Mo1 S0 2.455613 1_455
Mo1 S0 2.455613 1_565
Mo1 S0 2.455617 1_555
Mo1 S1 2.455683 1_455
Mo1 S1 2.455683 1_565
Mo1 S1 2.455688 1_555
Se0 W0 2.556656 1_565
Se0 W0 2.556656 1_455
Se0 W0 2.556660 1_555
Se3 W0 2.556955 1_455
Se3 W0 2.556955 1_565
Se3 W0 2.556959 1_555
