# generated using pymatgen
data_ReCSN2Cl3O2
_symmetry_space_group_name_H-M   'P 1'
_cell_length_a   7.97248300
_cell_length_b   11.07507600
_cell_length_c   13.22605800
_cell_angle_alpha   90.00000000
_cell_angle_beta   90.00000000
_cell_angle_gamma   90.00000000
_symmetry_Int_Tables_number   1
_chemical_formula_structural   ReCSN2Cl3O2
_chemical_formula_sum   'Re4 C4 S4 N8 Cl12 O8'
_cell_volume   1167.80610116
_cell_formula_units_Z   4
loop_
 _symmetry_equiv_pos_site_id
 _symmetry_equiv_pos_as_xyz
  1  'x, y, z'
loop_
 _atom_site_type_symbol
 _atom_site_label
 _atom_site_symmetry_multiplicity
 _atom_site_fract_x
 _atom_site_fract_y
 _atom_site_fract_z
 _atom_site_occupancy
  Re  Re0  1  0.81940300  0.67297500  0.75831200  1
  Re  Re1  1  0.18059700  0.32702500  0.25831200  1
  Re  Re2  1  0.81940300  0.82702500  0.25831200  1
  Re  Re3  1  0.18059700  0.17297500  0.75831200  1
  C  C0  1  0.69833100  0.43702800  0.48171500  1
  C  C1  1  0.30166900  0.56297200  0.98171500  1
  C  C2  1  0.69833100  0.06297200  0.98171500  1
  C  C3  1  0.30166900  0.93702800  0.48171500  1
  S  S0  1  0.49370400  0.44981400  0.64580800  1
  S  S1  1  0.50629600  0.55018600  0.14580800  1
  S  S2  1  0.49370400  0.05018600  0.14580800  1
  S  S3  1  0.50629600  0.94981400  0.64580800  1
  N  N0  1  0.76242800  0.44642300  0.40083400  1
  N  N1  1  0.23757200  0.55357700  0.90083400  1
  N  N2  1  0.76242800  0.05357700  0.90083400  1
  N  N3  1  0.23757200  0.94642300  0.40083400  1
  N  N4  1  0.63608700  0.42570100  0.56981500  1
  N  N5  1  0.36391300  0.57429900  0.06981500  1
  N  N6  1  0.63608700  0.07429900  0.06981500  1
  N  N7  1  0.36391300  0.92570100  0.56981500  1
  Cl  Cl0  1  0.00315300  0.79272200  0.84412400  1
  Cl  Cl1  1  0.99684700  0.20727800  0.34412400  1
  Cl  Cl2  1  0.00315300  0.70727800  0.34412400  1
  Cl  Cl3  1  0.99684700  0.29272200  0.84412400  1
  Cl  Cl4  1  0.60835700  0.77801500  0.84344500  1
  Cl  Cl5  1  0.39164300  0.22198500  0.34344500  1
  Cl  Cl6  1  0.60835700  0.72198500  0.34344500  1
  Cl  Cl7  1  0.39164300  0.27801500  0.84344500  1
  Cl  Cl8  1  0.05093300  0.58665100  0.67963300  1
  Cl  Cl9  1  0.94906700  0.41334900  0.17963300  1
  Cl  Cl10  1  0.05093300  0.91334900  0.17963300  1
  Cl  Cl11  1  0.94906700  0.08665100  0.67963300  1
  O  O0  1  0.74987900  0.53709100  0.80485900  1
  O  O1  1  0.25012100  0.46290900  0.30485900  1
  O  O2  1  0.74987900  0.96290900  0.30485900  1
  O  O3  1  0.25012100  0.03709100  0.80485900  1
  O  O4  1  0.73206500  0.71101500  0.64325400  1
  O  O5  1  0.26793500  0.28898500  0.14325400  1
  O  O6  1  0.73206500  0.78898500  0.14325400  1
  O  O7  1  0.26793500  0.21101500  0.64325400  1
loop_
_geom_bond_atom_site_label_1
_geom_bond_atom_site_label_2
_geom_bond_distance
_geom_bond_site_symmetry_2
C0 N0 1.190083 1_555
C0 N4 1.272681 1_555
C1 N1 1.190083 1_555
C1 N5 1.272681 1_556
C2 N2 1.190083 1_555
C2 N6 1.272681 1_556
C3 N3 1.190083 1_555
C3 N7 1.272681 1_555
N4 S0 1.539505 1_555
N5 S1 1.539505 1_555
N6 S2 1.539505 1_555
N7 S3 1.539505 1_555
Cl0 Re0 2.278817 1_455
Cl1 Re1 2.278817 1_655
Cl2 Re2 2.278817 1_455
Cl3 Re3 2.278817 1_655
Cl4 Re0 2.334985 1_555
Cl5 Re1 2.334985 1_555
Cl6 Re2 2.334985 1_555
Cl7 Re3 2.334985 1_555
Cl8 Re0 2.324678 1_455
Cl9 Re1 2.324678 1_655
Cl10 Re2 2.324678 1_455
Cl11 Re3 2.324678 1_655
O0 Re0 1.717856 1_555
O1 Re1 1.717856 1_555
O2 Re2 1.717856 1_555
O3 Re3 1.717856 1_555
O4 Re0 1.725714 1_555
O5 Re1 1.725714 1_555
O6 Re2 1.725714 1_555
O7 Re3 1.725714 1_555
