# generated using pymatgen
data_Fe2PO5
_symmetry_space_group_name_H-M   'P 1'
_cell_length_a   7.39922607
_cell_length_b   7.39922607
_cell_length_c   7.39922607
_cell_angle_alpha   137.04326479
_cell_angle_beta   137.04326479
_cell_angle_gamma   62.37148928
_symmetry_Int_Tables_number   1
_chemical_formula_structural   Fe2PO5
_chemical_formula_sum   'Fe4 P2 O10'
_cell_volume   185.84602607
_cell_formula_units_Z   2
loop_
 _symmetry_equiv_pos_site_id
 _symmetry_equiv_pos_as_xyz
  1  'x, y, z'
loop_
 _atom_site_type_symbol
 _atom_site_label
 _atom_site_symmetry_multiplicity
 _atom_site_fract_x
 _atom_site_fract_y
 _atom_site_fract_z
 _atom_site_occupancy
  Fe  Fe0  1  0.87500000  0.62500000  0.25000000  1
  Fe  Fe1  1  0.37500000  0.62500000  0.25000000  1
  Fe  Fe2  1  0.37500000  0.12500000  0.75000000  1
  Fe  Fe3  1  0.37500000  0.62500000  0.75000000  1
  P  P0  1  0.00000000  0.00000000  0.00000000  1
  P  P1  1  0.75000000  0.25000000  0.50000000  1
  O  O0  1  0.25000000  0.75000000  0.50000000  1
  O  O1  1  0.50000000  0.50000000  0.00000000  1
  O  O2  1  0.69482600  0.93246800  0.76235900  1
  O  O3  1  0.06753200  0.82989100  0.76235900  1
  O  O4  1  0.06753200  0.30517400  0.23764100  1
  O  O5  1  0.05517400  0.31753200  0.73764100  1
  O  O6  1  0.17010900  0.93246800  0.23764100  1
  O  O7  1  0.68246800  0.94482600  0.26235900  1
  O  O8  1  0.68246800  0.42010900  0.73764100  1
  O  O9  1  0.57989100  0.31753200  0.26235900  1
loop_
_geom_bond_atom_site_label_1
_geom_bond_atom_site_label_2
_geom_bond_distance
_geom_bond_site_symmetry_2
Fe0 O1 2.083092 1_555
Fe0 O0 2.083092 1_655
Fe0 O7 2.094077 1_555
Fe0 O4 2.094077 1_655
Fe0 O8 2.094083 1_554
Fe0 O3 2.094083 1_655
Fe1 O0 2.083092 1_555
Fe1 O1 2.083092 1_555
Fe1 O2 2.094081 1_555
Fe1 O5 2.094081 1_554
Fe1 O9 2.094083 1_555
Fe1 O6 2.094083 1_555
Fe2 O0 2.083092 1_545
Fe2 O1 2.083092 1_556
Fe2 O2 2.094077 1_545
Fe2 O5 2.094077 1_555
Fe2 O6 2.094083 1_545
Fe2 O9 2.094083 1_556
Fe3 O0 2.083092 1_555
Fe3 O1 2.083092 1_556
Fe3 O7 2.094081 1_556
Fe3 O4 2.094081 1_555
Fe3 O3 2.094083 1_555
Fe3 O8 2.094083 1_555
O2 P0 1.545638 1_666
O3 P0 1.545632 1_566
O4 P0 1.545638 1_555
O5 P1 1.545638 1_455
O6 P0 1.545632 1_565
O7 P1 1.545638 1_565
O8 P1 1.545632 1_555
O9 P1 1.545632 1_555
