# generated using pymatgen
data_Ca2CdN2
_symmetry_space_group_name_H-M   'P 1'
_cell_length_a   3.60290343
_cell_length_b   5.09512999
_cell_length_c   7.24359894
_cell_angle_alpha   90.00000208
_cell_angle_beta   104.37483434
_cell_angle_gamma   134.99837399
_symmetry_Int_Tables_number   1
_chemical_formula_structural   Ca2CdN2
_chemical_formula_sum   'Ca2 Cd1 N2'
_cell_volume   88.04286348
_cell_formula_units_Z   1
loop_
 _symmetry_equiv_pos_site_id
 _symmetry_equiv_pos_as_xyz
  1  'x, y, z'
loop_
 _atom_site_type_symbol
 _atom_site_label
 _atom_site_symmetry_multiplicity
 _atom_site_fract_x
 _atom_site_fract_y
 _atom_site_fract_z
 _atom_site_occupancy
  Ca  Ca0  1  0.66027600  0.33013800  0.16062700  1
  Ca  Ca1  1  0.33972400  0.66986200  0.83937300  1
  Cd  Cd0  1  0.00000000  0.00000000  0.50000000  1
  N  N0  1  0.30802200  0.15401200  0.80727600  1
  N  N1  1  0.69197800  0.84598800  0.19272400  1
loop_
_geom_bond_atom_site_label_1
_geom_bond_atom_site_label_2
_geom_bond_distance
_geom_bond_site_symmetry_2
Ca0 N0 2.396599 1_554
Ca0 N1 2.556137 1_655
Ca0 N1 2.556845 1_555
Ca0 N1 2.556855 1_545
Ca0 N1 2.557851 1_445
Ca1 N1 2.396599 1_556
Ca1 N0 2.556137 1_455
Ca1 N0 2.556845 1_555
Ca1 N0 2.556855 1_565
Ca1 N0 2.557851 1_665
Cd0 N1 2.084098 1_445
Cd0 N0 2.084098 1_555
