# generated using pymatgen
data_Cr5O7
_symmetry_space_group_name_H-M   'P 1'
_cell_length_a   5.30239030
_cell_length_b   5.30239030
_cell_length_c   18.23946800
_cell_angle_alpha   90.00000000
_cell_angle_beta   90.00000000
_cell_angle_gamma   146.91788466
_symmetry_Int_Tables_number   1
_chemical_formula_structural   Cr5O7
_chemical_formula_sum   'Cr10 O14'
_cell_volume   279.91183612
_cell_formula_units_Z   2
loop_
 _symmetry_equiv_pos_site_id
 _symmetry_equiv_pos_as_xyz
  1  'x, y, z'
loop_
 _atom_site_type_symbol
 _atom_site_label
 _atom_site_symmetry_multiplicity
 _atom_site_fract_x
 _atom_site_fract_y
 _atom_site_fract_z
 _atom_site_occupancy
  Cr  Cr0  1  0.73278100  0.26721900  0.57483900  1
  Cr  Cr1  1  0.00000000  0.00000000  0.50000000  1
  Cr  Cr2  1  0.00000000  0.00000000  0.00000000  1
  Cr  Cr3  1  0.26721900  0.73278100  0.42516100  1
  Cr  Cr4  1  0.26721900  0.73278100  0.07483900  1
  Cr  Cr5  1  0.73278100  0.26721900  0.92516100  1
  Cr  Cr6  1  0.53526400  0.46473600  0.15965800  1
  Cr  Cr7  1  0.46473600  0.53526400  0.84034200  1
  Cr  Cr8  1  0.46473600  0.53526400  0.65965800  1
  Cr  Cr9  1  0.53526400  0.46473600  0.34034200  1
  O  O0  1  0.35069100  0.64930900  0.96790400  1
  O  O1  1  0.64930900  0.35069100  0.03209600  1
  O  O2  1  0.64930900  0.35069100  0.46790400  1
  O  O3  1  0.35069100  0.64930900  0.53209600  1
  O  O4  1  0.84584600  0.15415400  0.83949600  1
  O  O5  1  0.15415400  0.84584600  0.16050400  1
  O  O6  1  0.15415400  0.84584600  0.33949600  1
  O  O7  1  0.84584600  0.15415400  0.66050400  1
  O  O8  1  0.10071500  0.89928500  0.90103500  1
  O  O9  1  0.89928500  0.10071500  0.09896500  1
  O  O10  1  0.89928500  0.10071500  0.40103500  1
  O  O11  1  0.10071500  0.89928500  0.59896500  1
  O  O12  1  0.54093400  0.45906600  0.75000000  1
  O  O13  1  0.45906600  0.54093400  0.25000000  1
loop_
_geom_bond_atom_site_label_1
_geom_bond_atom_site_label_2
_geom_bond_distance
_geom_bond_site_symmetry_2
Cr0 O7 1.939716 1_555
Cr0 O11 2.067617 1_655
Cr0 O11 2.067617 1_545
Cr0 O3 2.079299 1_655
Cr0 O3 2.079299 1_545
Cr0 O2 2.127035 1_555
Cr1 O11 2.075226 1_545
Cr1 O10 2.075226 1_455
Cr1 O3 2.219350 1_445
Cr1 O2 2.219350 1_555
Cr1 O2 2.219350 1_445
Cr1 O3 2.219350 1_555
Cr2 O9 2.075226 1_455
Cr2 O8 2.075226 1_544
Cr2 O1 2.219350 1_555
Cr2 O0 2.219350 1_444
Cr2 O1 2.219350 1_445
Cr2 O0 2.219350 1_554
Cr3 O6 1.939716 1_555
Cr3 O10 2.067617 1_565
Cr3 O10 2.067617 1_455
Cr3 O2 2.079299 1_455
Cr3 O2 2.079299 1_565
Cr3 O3 2.127035 1_555
Cr4 O5 1.939716 1_555
Cr4 O9 2.067617 1_565
Cr4 O9 2.067617 1_455
Cr4 O1 2.079299 1_455
Cr4 O1 2.079299 1_565
Cr4 O0 2.127035 1_554
Cr5 O4 1.939716 1_555
Cr5 O8 2.067617 1_655
Cr5 O8 2.067617 1_545
Cr5 O0 2.079299 1_655
Cr5 O0 2.079299 1_545
Cr5 O1 2.127035 1_556
Cr6 O13 1.820783 1_555
Cr6 O5 1.933886 1_655
Cr6 O5 1.933886 1_545
Cr6 O9 2.327071 1_455
Cr6 O9 2.327071 1_565
Cr6 O1 2.599520 1_555
Cr7 O12 1.820783 1_555
Cr7 O4 1.933886 1_565
Cr7 O4 1.933886 1_455
Cr7 O8 2.327071 1_545
Cr7 O8 2.327071 1_655
Cr7 O0 2.599520 1_555
Cr8 O12 1.820783 1_555
Cr8 O7 1.933886 1_565
Cr8 O7 1.933886 1_455
Cr8 O11 2.327071 1_545
Cr8 O11 2.327071 1_655
Cr8 O3 2.599520 1_555
Cr9 O13 1.820783 1_555
Cr9 O6 1.933886 1_655
Cr9 O6 1.933886 1_545
Cr9 O10 2.327071 1_455
Cr9 O10 2.327071 1_565
Cr9 O2 2.599520 1_555
