# generated using pymatgen
data_Tm(TiGa2)2
_symmetry_space_group_name_H-M   'P 1'
_cell_length_a   5.44358748
_cell_length_b   5.44358748
_cell_length_c   5.44358748
_cell_angle_alpha   104.36154593
_cell_angle_beta   104.36154593
_cell_angle_gamma   120.25971675
_symmetry_Int_Tables_number   1
_chemical_formula_structural   Tm(TiGa2)2
_chemical_formula_sum   'Tm1 Ti2 Ga4'
_cell_volume   120.82064428
_cell_formula_units_Z   1
loop_
 _symmetry_equiv_pos_site_id
 _symmetry_equiv_pos_as_xyz
  1  'x, y, z'
loop_
 _atom_site_type_symbol
 _atom_site_label
 _atom_site_symmetry_multiplicity
 _atom_site_fract_x
 _atom_site_fract_y
 _atom_site_fract_z
 _atom_site_occupancy
  Tm  Tm0  1  -0.00000000  0.00000000  -0.00000000  1
  Ti  Ti0  1  0.75000000  0.25000000  0.50000000  1
  Ti  Ti1  1  0.25000000  0.75000000  0.50000000  1
  Ga  Ga0  1  0.69704082  0.69704082  0.39408064  1
  Ga  Ga1  1  0.30295918  0.30295918  0.60591936  1
  Ga  Ga2  1  0.30295918  0.69704082  -0.00000000  1
  Ga  Ga3  1  0.69704082  0.30295918  0.00000000  1
loop_
_geom_bond_atom_site_label_1
_geom_bond_atom_site_label_2
_geom_bond_distance
_geom_bond_site_symmetry_2
Ti0 Ti1 2.711102 1_655
Ti0 Ti1 2.711102 1_545
Ga0 Ga3 2.630772 1_555
Ga0 Ga2 2.630772 1_555
Ga0 Ti1 2.767334 1_655
Ga0 Ti0 2.767334 1_565
Ga0 Ti0 2.767337 1_555
Ga0 Ti1 2.767337 1_555
Ga0 Tm0 2.860207 1_666
Ga0 Ga1 2.889635 1_665
Ga0 Ga1 2.889645 1_555
Ga0 Tm0 3.287937 1_665
Ga0 Tm0 3.287942 1_555
Ga1 Ga3 2.630772 1_556
Ga1 Ga2 2.630772 1_556
Ga1 Ti1 2.767334 1_545
Ga1 Ti0 2.767334 1_455
Ga1 Ti0 2.767337 1_555
Ga1 Ti1 2.767337 1_555
Ga1 Tm0 2.860207 1_555
Ga1 Tm0 3.287937 1_556
Ga1 Tm0 3.287942 1_666
Ga2 Ti0 2.767335 1_454
Ga2 Ti1 2.767335 1_555
Ga2 Ti1 2.767335 1_554
Ga2 Ti0 2.767335 1_565
Ga2 Tm0 2.860202 1_565
Ga2 Ga3 2.889637 1_565
Ga2 Ga3 2.889637 1_455
Ga2 Tm0 3.287942 1_555
Ga2 Tm0 3.287942 1_665
Ga3 Ti0 2.767335 1_555
Ga3 Ti1 2.767335 1_544
Ga3 Ti1 2.767335 1_655
Ga3 Ti0 2.767335 1_554
Ga3 Tm0 2.860202 1_655
Ga3 Tm0 3.287942 1_555
Ga3 Tm0 3.287942 1_665
