# generated using pymatgen
data_Zn(SbO2)2
_symmetry_space_group_name_H-M   'P 1'
_cell_length_a   3.64387400
_cell_length_b   10.04507400
_cell_length_c   11.18447700
_cell_angle_alpha   90.00000000
_cell_angle_beta   90.00000000
_cell_angle_gamma   90.00000000
_symmetry_Int_Tables_number   1
_chemical_formula_structural   Zn(SbO2)2
_chemical_formula_sum   'Zn4 Sb8 O16'
_cell_volume   409.38523242
_cell_formula_units_Z   4
loop_
 _symmetry_equiv_pos_site_id
 _symmetry_equiv_pos_as_xyz
  1  'x, y, z'
loop_
 _atom_site_type_symbol
 _atom_site_label
 _atom_site_symmetry_multiplicity
 _atom_site_fract_x
 _atom_site_fract_y
 _atom_site_fract_z
 _atom_site_occupancy
  Zn  Zn0  1  0.34524000  0.85756200  0.75000000  1
  Zn  Zn1  1  0.34524000  0.64243800  0.25000000  1
  Zn  Zn2  1  0.65476000  0.35756200  0.75000000  1
  Zn  Zn3  1  0.65476000  0.14243800  0.25000000  1
  Sb  Sb0  1  0.08541900  0.62574600  0.90497500  1
  Sb  Sb1  1  0.08541900  0.87425400  0.40497500  1
  Sb  Sb2  1  0.91458100  0.37425400  0.40497500  1
  Sb  Sb3  1  0.08541900  0.87425400  0.09502500  1
  Sb  Sb4  1  0.91458100  0.37425400  0.09502500  1
  Sb  Sb5  1  0.08541900  0.62574600  0.59502500  1
  Sb  Sb6  1  0.91458100  0.12574600  0.59502500  1
  Sb  Sb7  1  0.91458100  0.12574600  0.90497500  1
  O  O0  1  0.76595400  0.46333300  0.59988600  1
  O  O1  1  0.23404600  0.53666700  0.40011400  1
  O  O2  1  0.76406400  0.75000000  0.50000000  1
  O  O3  1  0.23404600  0.96333300  0.59988600  1
  O  O4  1  0.23404600  0.96333300  0.90011400  1
  O  O5  1  0.83247400  0.75927200  0.25000000  1
  O  O6  1  0.76595400  0.03666700  0.40011400  1
  O  O7  1  0.16752600  0.25927200  0.25000000  1
  O  O8  1  0.76406400  0.75000000  0.00000000  1
  O  O9  1  0.23593600  0.25000000  0.50000000  1
  O  O10  1  0.76595400  0.46333300  0.90011400  1
  O  O11  1  0.16752600  0.24072800  0.75000000  1
  O  O12  1  0.83247400  0.74072800  0.75000000  1
  O  O13  1  0.23593600  0.25000000  0.00000000  1
  O  O14  1  0.76595400  0.03666700  0.09988600  1
  O  O15  1  0.23404600  0.53666700  0.09988600  1
loop_
_geom_bond_atom_site_label_1
_geom_bond_atom_site_label_2
_geom_bond_distance
_geom_bond_site_symmetry_2
O0 Sb5 2.004917 1_655
O0 Zn2 2.027779 1_555
O0 Sb2 2.417909 1_555
O1 Sb2 2.004917 1_455
O1 Zn1 2.027779 1_555
O1 Sb5 2.417909 1_555
O2 Sb5 2.014596 1_655
O2 Sb1 2.014596 1_655
O3 Sb6 2.004917 1_465
O3 Zn0 2.027779 1_555
O3 Sb1 2.417909 1_555
O4 Sb7 2.004917 1_465
O4 Zn0 2.027779 1_555
O4 Sb3 2.417909 1_556
O5 Zn1 2.128254 1_555
O5 Zn1 2.206462 1_655
O5 Sb3 2.277705 1_655
O5 Sb1 2.277705 1_655
O6 Sb1 2.004917 1_645
O6 Zn3 2.027779 1_555
O6 Sb6 2.417909 1_555
O7 Zn3 2.128254 1_555
O7 Zn3 2.206462 1_455
O7 Sb2 2.277705 1_455
O7 Sb4 2.277705 1_455
O8 Sb3 2.014596 1_655
O8 Sb0 2.014596 1_654
O9 Sb2 2.014596 1_455
O9 Sb6 2.014596 1_455
O10 Sb0 2.004917 1_655
O10 Zn2 2.027779 1_555
O10 Sb4 2.417909 1_556
O11 Zn2 2.128254 1_555
O11 Zn2 2.206462 1_455
O11 Sb7 2.277705 1_455
O11 Sb6 2.277705 1_455
O12 Zn0 2.128254 1_555
O12 Zn0 2.206462 1_655
O12 Sb0 2.277705 1_655
O12 Sb5 2.277705 1_655
O13 Sb4 2.014596 1_455
O13 Sb7 2.014596 1_454
O14 Sb3 2.004917 1_645
O14 Zn3 2.027779 1_555
O14 Sb7 2.417909 1_554
O15 Sb4 2.004917 1_455
O15 Zn1 2.027779 1_555
O15 Sb0 2.417909 1_554
