# generated using pymatgen
data_Ga2Ni7Ge2
_symmetry_space_group_name_H-M   'P 1'
_cell_length_a   3.98750917
_cell_length_b   3.98750917
_cell_length_c   9.98411400
_cell_angle_alpha   90.00000000
_cell_angle_beta   90.00000000
_cell_angle_gamma   119.99998624
_symmetry_Int_Tables_number   1
_chemical_formula_structural   Ga2Ni7Ge2
_chemical_formula_sum   'Ga2 Ni7 Ge2'
_cell_volume   137.48129454
_cell_formula_units_Z   1
loop_
 _symmetry_equiv_pos_site_id
 _symmetry_equiv_pos_as_xyz
  1  'x, y, z'
loop_
 _atom_site_type_symbol
 _atom_site_label
 _atom_site_symmetry_multiplicity
 _atom_site_fract_x
 _atom_site_fract_y
 _atom_site_fract_z
 _atom_site_occupancy
  Ga  Ga0  1  0.66666700  0.33333300  0.00000000  1
  Ga  Ga1  1  0.66666700  0.33333300  0.50000000  1
  Ni  Ni0  1  0.00000000  0.00000000  0.12547900  1
  Ni  Ni1  1  0.00000000  0.00000000  0.62407700  1
  Ni  Ni2  1  0.00000000  0.00000000  0.37592300  1
  Ni  Ni3  1  0.00000000  0.00000000  0.87452100  1
  Ni  Ni4  1  0.66666700  0.33333300  0.25493400  1
  Ni  Ni5  1  0.66666700  0.33333300  0.74506600  1
  Ni  Ni6  1  0.33333300  0.66666700  0.00000000  1
  Ge  Ge0  1  0.33333300  0.66666700  0.25906100  1
  Ge  Ge1  1  0.33333300  0.66666700  0.74093900  1
loop_
_geom_bond_atom_site_label_1
_geom_bond_atom_site_label_2
_geom_bond_distance
_geom_bond_site_symmetry_2
Ga0 Ni6 2.302188 1_545
Ga0 Ni6 2.302188 1_655
Ga0 Ni6 2.302194 1_555
Ga0 Ni5 2.545290 1_554
Ga0 Ni4 2.545290 1_555
Ga0 Ni0 2.620985 1_655
Ga0 Ni3 2.620985 1_654
Ga0 Ni0 2.620989 1_555
Ga0 Ni3 2.620989 1_554
Ga0 Ni3 2.620989 1_664
Ga0 Ni0 2.620989 1_665
Ga1 Ni4 2.446767 1_555
Ga1 Ni5 2.446767 1_555
Ga1 Ni1 2.614324 1_655
Ga1 Ni2 2.614324 1_655
Ga1 Ni2 2.614327 1_555
Ga1 Ni2 2.614327 1_665
Ga1 Ni1 2.614327 1_665
Ga1 Ni1 2.614327 1_555
Ni0 Ni2 2.500461 1_555
Ni0 Ni3 2.505593 1_554
Ni0 Ni6 2.620985 1_545
Ni0 Ni6 2.620989 1_445
Ni0 Ni6 2.620989 1_555
Ni0 Ni4 2.640190 1_455
Ni0 Ni4 2.640194 1_555
Ni0 Ni4 2.640194 1_445
Ni1 Ni2 2.477598 1_555
Ni1 Ni3 2.500461 1_555
Ni1 Ni5 2.599856 1_455
Ni1 Ni5 2.599860 1_555
Ni1 Ni5 2.599860 1_445
Ni2 Ni4 2.599856 1_455
Ni2 Ni4 2.599860 1_555
Ni2 Ni4 2.599860 1_445
Ni3 Ni6 2.620985 1_546
Ni3 Ni6 2.620989 1_556
Ni3 Ni6 2.620989 1_446
Ni3 Ni5 2.640190 1_455
Ni3 Ni5 2.640194 1_555
Ni3 Ni5 2.640194 1_445
Ge0 Ni4 2.302556 1_455
Ge0 Ni4 2.302556 1_565
Ge0 Ni4 2.302563 1_555
Ge0 Ni2 2.580969 1_565
Ge0 Ni2 2.580973 1_665
Ge0 Ni2 2.580973 1_555
Ge0 Ni6 2.586495 1_555
Ge0 Ni0 2.660604 1_565
Ge0 Ni0 2.660608 1_665
Ge0 Ni0 2.660608 1_555
Ge1 Ni5 2.302556 1_455
Ge1 Ni5 2.302556 1_565
Ge1 Ni5 2.302563 1_555
Ge1 Ni1 2.580969 1_565
Ge1 Ni1 2.580973 1_665
Ge1 Ni1 2.580973 1_555
Ge1 Ni6 2.586495 1_556
Ge1 Ni3 2.660604 1_565
Ge1 Ni3 2.660608 1_555
Ge1 Ni3 2.660608 1_665
