# generated using pymatgen
data_VB4Os
_symmetry_space_group_name_H-M   'P 1'
_cell_length_a   2.87748739
_cell_length_b   2.87748739
_cell_length_c   7.45370500
_cell_angle_alpha   90.00000000
_cell_angle_beta   90.00000000
_cell_angle_gamma   119.99998592
_symmetry_Int_Tables_number   1
_chemical_formula_structural   VB4Os
_chemical_formula_sum   'V1 B4 Os1'
_cell_volume   53.44778986
_cell_formula_units_Z   1
loop_
 _symmetry_equiv_pos_site_id
 _symmetry_equiv_pos_as_xyz
  1  'x, y, z'
loop_
 _atom_site_type_symbol
 _atom_site_label
 _atom_site_symmetry_multiplicity
 _atom_site_fract_x
 _atom_site_fract_y
 _atom_site_fract_z
 _atom_site_occupancy
  V  V0  1  0.33333300  0.66666700  0.00000000  1
  B  B0  1  0.33333300  0.66666700  0.70948400  1
  B  B1  1  0.66666700  0.33333300  0.79692300  1
  B  B2  1  0.66666700  0.33333300  0.20307700  1
  B  B3  1  0.33333300  0.66666700  0.29051600  1
  Os  Os0  1  0.66666700  0.33333300  0.50000000  1
loop_
_geom_bond_atom_site_label_1
_geom_bond_atom_site_label_2
_geom_bond_distance
_geom_bond_site_symmetry_2
B0 B1 1.784585 1_455
B0 B1 1.784585 1_565
B0 B1 1.784589 1_555
B0 V0 2.165421 1_556
B0 Os0 2.279922 1_565
B0 Os0 2.279922 1_455
B0 Os0 2.279925 1_555
B1 Os0 2.213176 1_555
B1 V0 2.247485 1_546
B1 V0 2.247485 1_656
B1 V0 2.247488 1_556
B2 B3 1.784585 1_545
B2 B3 1.784585 1_655
B2 B3 1.784589 1_555
B2 Os0 2.213176 1_555
B2 V0 2.247485 1_545
B2 V0 2.247485 1_655
B2 V0 2.247488 1_555
B3 V0 2.165421 1_555
B3 Os0 2.279922 1_565
B3 Os0 2.279922 1_455
B3 Os0 2.279925 1_555
