# generated using pymatgen
data_LiCeTi4O12
_symmetry_space_group_name_H-M   'P 1'
_cell_length_a   5.32598826
_cell_length_b   5.32598826
_cell_length_c   7.74527237
_cell_angle_alpha   90.00000000
_cell_angle_beta   90.00000000
_cell_angle_gamma   90.38441927
_symmetry_Int_Tables_number   1
_chemical_formula_structural   LiCeTi4O12
_chemical_formula_sum   'Li1 Ce1 Ti4 O12'
_cell_volume   219.69862026
_cell_formula_units_Z   1
loop_
 _symmetry_equiv_pos_site_id
 _symmetry_equiv_pos_as_xyz
  1  'x, y, z'
loop_
 _atom_site_type_symbol
 _atom_site_label
 _atom_site_symmetry_multiplicity
 _atom_site_fract_x
 _atom_site_fract_y
 _atom_site_fract_z
 _atom_site_occupancy
  Li  Li0  1  0.98115108  0.01884892  0.00000000  1
  Ce  Ce0  1  0.52456163  0.47543837  0.50000000  1
  Ti  Ti0  1  0.48900671  0.98668288  0.22932774  1
  Ti  Ti1  1  0.48900671  0.98668288  0.77067226  1
  Ti  Ti2  1  0.01331712  0.51099329  0.77067226  1
  Ti  Ti3  1  0.01331712  0.51099329  0.22932774  1
  O  O0  1  0.30228491  0.30061411  0.27037250  1
  O  O1  1  0.69938589  0.69771509  0.27037250  1
  O  O2  1  0.69938589  0.69771509  0.72962750  1
  O  O3  1  0.30228491  0.30061411  0.72962750  1
  O  O4  1  0.18657637  0.81342363  0.18653470  1
  O  O5  1  0.77126490  0.22873510  0.30969874  1
  O  O6  1  0.77126490  0.22873510  0.69030126  1
  O  O7  1  0.18657637  0.81342363  0.81346530  1
  O  O8  1  0.59186265  0.02408099  0.00000000  1
  O  O9  1  0.44761239  0.93287856  0.50000000  1
  O  O10  1  0.97591901  0.40813735  0.00000000  1
  O  O11  1  0.06712144  0.55238761  0.50000000  1
loop_
_geom_bond_atom_site_label_1
_geom_bond_atom_site_label_2
_geom_bond_distance
_geom_bond_site_symmetry_2
Li0 O8 2.073720 1_555
Li0 O10 2.073720 1_555
Li0 O4 2.120726 1_645
Li0 O7 2.120726 1_644
Ce0 O3 2.327407 1_555
Ce0 O1 2.327407 1_555
Ce0 O0 2.327407 1_555
Ce0 O2 2.327407 1_555
Ce0 O6 2.376662 1_555
Ce0 O5 2.376662 1_555
Ce0 O11 2.473261 1_555
Ce0 O9 2.473261 1_555
O0 Ti3 1.936056 1_555
O0 Ti0 1.976847 1_545
O1 Ti0 1.936056 1_555
O1 Ti3 1.976847 1_655
O2 Ti1 1.936056 1_555
O2 Ti2 1.976847 1_655
O3 Ti2 1.936056 1_555
O3 Ti1 1.976847 1_545
O4 Ti3 1.880402 1_555
O4 Ti0 1.880402 1_555
O5 Ti0 2.069630 1_545
O5 Ti3 2.069630 1_655
O6 Ti2 2.069630 1_655
O6 Ti1 2.069630 1_545
O7 Ti2 1.880402 1_555
O7 Ti1 1.880402 1_555
O8 Ti0 1.869014 1_545
O8 Ti1 1.869014 1_544
O9 Ti0 2.127180 1_555
O9 Ti1 2.127180 1_555
O10 Ti3 1.869014 1_655
O10 Ti2 1.869014 1_654
O11 Ti2 2.127180 1_555
O11 Ti3 2.127180 1_555
