# generated using pymatgen
data_Rb5Bi4
_symmetry_space_group_name_H-M   'P 1'
_cell_length_a   7.21003362
_cell_length_b   7.21003362
_cell_length_c   12.05405561
_cell_angle_alpha   70.03503771
_cell_angle_beta   70.03503771
_cell_angle_gamma   47.65548513
_symmetry_Int_Tables_number   1
_chemical_formula_structural   Rb5Bi4
_chemical_formula_sum   'Rb5 Bi4'
_cell_volume   429.67060318
_cell_formula_units_Z   1
loop_
 _symmetry_equiv_pos_site_id
 _symmetry_equiv_pos_as_xyz
  1  'x, y, z'
loop_
 _atom_site_type_symbol
 _atom_site_label
 _atom_site_symmetry_multiplicity
 _atom_site_fract_x
 _atom_site_fract_y
 _atom_site_fract_z
 _atom_site_occupancy
  Rb  Rb0  1  0.40367656  0.40367656  0.88922020  1
  Rb  Rb1  1  0.60204745  0.60204745  0.10559364  1
  Rb  Rb2  1  0.75109206  0.75109206  0.66508661  1
  Rb  Rb3  1  0.25867572  0.25867572  0.33142254  1
  Rb  Rb4  1  0.50932282  0.50932282  0.49443684  1
  Bi  Bi0  1  0.04927132  0.04927132  0.67480393  1
  Bi  Bi1  1  0.95820201  0.95820201  0.32063411  1
  Bi  Bi2  1  0.10832445  0.10832445  0.89066106  1
  Bi  Bi3  1  0.89678863  0.89678863  0.10604107  1
loop_
_geom_bond_atom_site_label_1
_geom_bond_atom_site_label_2
_geom_bond_distance
_geom_bond_site_symmetry_2
Bi0 Bi2 2.981616 1_555
Bi0 Rb4 3.787366 1_455
Bi0 Rb4 3.787366 1_545
Bi0 Rb0 3.891939 1_455
Bi0 Rb0 3.891939 1_545
Bi0 Rb2 3.918228 1_455
Bi0 Rb2 3.918228 1_545
Bi0 Rb2 3.978476 1_445
Bi0 Rb3 4.028306 1_555
Bi1 Bi3 2.985248 1_555
Bi1 Rb4 3.792457 1_565
Bi1 Rb4 3.792457 1_655
Bi1 Rb1 3.889975 1_655
Bi1 Rb1 3.889975 1_565
Bi1 Rb3 3.895221 1_655
Bi1 Rb3 3.895221 1_565
Bi1 Rb3 4.013891 1_665
Bi1 Rb2 4.029293 1_555
Bi2 Bi3 3.019657 1_446
Bi2 Rb1 3.878560 1_456
Bi2 Rb1 3.878560 1_546
Bi2 Rb0 3.889529 1_555
Bi2 Rb2 3.949879 1_455
Bi2 Rb2 3.949879 1_545
Bi2 Rb0 3.975782 1_455
Bi2 Rb0 3.975782 1_545
Bi3 Rb1 3.889936 1_555
Bi3 Rb0 3.891781 1_654
Bi3 Rb0 3.891781 1_564
Bi3 Rb3 3.935633 1_655
Bi3 Rb3 3.935633 1_565
Bi3 Rb1 3.975454 1_655
Bi3 Rb1 3.975454 1_565
