# generated using pymatgen
data_YErAl4
_symmetry_space_group_name_H-M   'P 1'
_cell_length_a   5.52441099
_cell_length_b   5.52441099
_cell_length_c   5.52441099
_cell_angle_alpha   60.00000000
_cell_angle_beta   60.00000000
_cell_angle_gamma   60.00000000
_symmetry_Int_Tables_number   1
_chemical_formula_structural   YErAl4
_chemical_formula_sum   'Y1 Er1 Al4'
_cell_volume   119.21830498
_cell_formula_units_Z   1
loop_
 _symmetry_equiv_pos_site_id
 _symmetry_equiv_pos_as_xyz
  1  'x, y, z'
loop_
 _atom_site_type_symbol
 _atom_site_label
 _atom_site_symmetry_multiplicity
 _atom_site_fract_x
 _atom_site_fract_y
 _atom_site_fract_z
 _atom_site_occupancy
  Y  Y0  1  -0.00000000  0.00000000  -0.00000000  1
  Er  Er0  1  0.25000000  0.25000000  0.25000000  1
  Al  Al0  1  0.62489793  0.62489793  0.12530420  1
  Al  Al1  1  0.62489793  0.12530420  0.62489793  1
  Al  Al2  1  0.12530420  0.62489793  0.62489793  1
  Al  Al3  1  0.62489793  0.62489793  0.62489793  1
loop_
_geom_bond_atom_site_label_1
_geom_bond_atom_site_label_2
_geom_bond_distance
_geom_bond_site_symmetry_2
Er0 Y0 3.382997 1_655
Er0 Y0 3.382997 1_556
Er0 Y0 3.382997 1_555
Er0 Y0 3.382997 1_565
Al0 Al2 2.759961 1_555
Al0 Al3 2.759961 1_555
Al0 Al1 2.759961 1_555
Al0 Al3 2.764450 1_554
Al0 Al1 2.764450 1_564
Al0 Al2 2.764450 1_654
Al0 Er0 3.238728 1_555
Al0 Er0 3.238738 1_565
Al0 Er0 3.238738 1_655
Al0 Y0 3.239209 1_565
Al0 Y0 3.239209 1_655
Al0 Y0 3.239218 1_665
Al1 Al2 2.759961 1_555
Al1 Al3 2.759961 1_555
Al1 Al2 2.764450 1_645
Al1 Al3 2.764450 1_545
Al1 Er0 3.238728 1_555
Al1 Er0 3.238738 1_655
Al1 Er0 3.238738 1_556
Al1 Y0 3.239209 1_655
Al1 Y0 3.239209 1_556
Al1 Y0 3.239218 1_656
Al2 Al3 2.759961 1_555
Al2 Al3 2.764450 1_455
Al2 Er0 3.238728 1_555
Al2 Er0 3.238738 1_565
Al2 Er0 3.238738 1_556
Al2 Y0 3.239209 1_565
Al2 Y0 3.239209 1_556
Al2 Y0 3.239218 1_566
Al3 Er0 3.238733 1_565
Al3 Er0 3.238733 1_556
Al3 Er0 3.238733 1_655
Al3 Y0 3.239214 1_665
Al3 Y0 3.239214 1_656
Al3 Y0 3.239214 1_566
