# generated using pymatgen
data_MgTi2O5
_symmetry_space_group_name_H-M   'P 1'
_cell_length_a   11.32629381
_cell_length_b   5.26591249
_cell_length_c   10.07558400
_cell_angle_alpha   90.00000000
_cell_angle_beta   90.00000000
_cell_angle_gamma   110.98308071
_symmetry_Int_Tables_number   1
_chemical_formula_structural   MgTi2O5
_chemical_formula_sum   'Mg6 Ti12 O30'
_cell_volume   561.09013547
_cell_formula_units_Z   6
loop_
 _symmetry_equiv_pos_site_id
 _symmetry_equiv_pos_as_xyz
  1  'x, y, z'
loop_
 _atom_site_type_symbol
 _atom_site_label
 _atom_site_symmetry_multiplicity
 _atom_site_fract_x
 _atom_site_fract_y
 _atom_site_fract_z
 _atom_site_occupancy
  Mg  Mg0  1  0.06691100  0.39309900  0.25172600  1
  Mg  Mg1  1  0.28575100  0.71977100  0.43295200  1
  Mg  Mg2  1  0.38091500  0.28022900  0.93295200  1
  Mg  Mg3  1  0.59975600  0.60690100  0.75172600  1
  Mg  Mg4  1  0.73121400  0.38627600  0.25101900  1
  Mg  Mg5  1  0.93545200  0.61372400  0.75101900  1
  Ti  Ti0  1  0.04254100  0.26357500  0.55990400  1
  Ti  Ti1  1  0.04465700  0.26731200  0.93882200  1
  Ti  Ti2  1  0.26953800  0.61777600  0.75110400  1
  Ti  Ti3  1  0.29045300  0.73359900  0.06151800  1
  Ti  Ti4  1  0.37621300  0.26640100  0.56151800  1
  Ti  Ti5  1  0.39712900  0.38222400  0.25110400  1
  Ti  Ti6  1  0.62412600  0.73642500  0.05990400  1
  Ti  Ti7  1  0.62201000  0.73268800  0.43882200  1
  Ti  Ti8  1  0.71007500  0.26674300  0.56887700  1
  Ti  Ti9  1  0.70944300  0.27391000  0.93454300  1
  Ti  Ti10  1  0.95659200  0.73325700  0.06887700  1
  Ti  Ti11  1  0.95722400  0.72609000  0.43454300  1
  O  O0  1  0.01663300  0.09468400  0.11374900  1
  O  O1  1  0.01924700  0.08633300  0.38592500  1
  O  O2  1  0.08391800  0.46519500  0.74707600  1
  O  O3  1  0.10750000  0.63588100  0.07033500  1
  O  O4  1  0.09622600  0.61428600  0.43421000  1
  O  O5  1  0.22688500  0.36975800  0.56934000  1
  O  O6  1  0.22468000  0.38348600  0.93011700  1
  O  O7  1  0.26345000  0.52362100  0.24284500  1
  O  O8  1  0.31739300  0.91149300  0.62315600  1
  O  O9  1  0.31662200  0.88672900  0.88319400  1
  O  O10  1  0.35004400  0.11327100  0.38319400  1
  O  O11  1  0.34927400  0.08850700  0.12315600  1
  O  O12  1  0.40321700  0.47637900  0.74284500  1
  O  O13  1  0.43978100  0.63024200  0.06934000  1
  O  O14  1  0.44198600  0.61651400  0.43011700  1
  O  O15  1  0.55916700  0.36411900  0.57033500  1
  O  O16  1  0.57044100  0.38571400  0.93421000  1
  O  O17  1  0.58274900  0.53480500  0.24707600  1
  O  O18  1  0.65003400  0.90531600  0.61374900  1
  O  O19  1  0.64742000  0.91366700  0.88592500  1
  O  O20  1  0.68244200  0.08251600  0.38618500  1
  O  O21  1  0.68805400  0.09045700  0.11273500  1
  O  O22  1  0.74158800  0.43780900  0.74807900  1
  O  O23  1  0.77179100  0.63116000  0.06634300  1
  O  O24  1  0.76620400  0.61114300  0.43624300  1
  O  O25  1  0.89487600  0.36884000  0.56634300  1
  O  O26  1  0.90046300  0.38885700  0.93624300  1
  O  O27  1  0.92507800  0.56219100  0.24807900  1
  O  O28  1  0.97861300  0.90954300  0.61273500  1
  O  O29  1  0.98422500  0.91748400  0.88618500  1
loop_
_geom_bond_atom_site_label_1
_geom_bond_atom_site_label_2
_geom_bond_distance
_geom_bond_site_symmetry_2
Mg0 O0 2.021245 1_555
Mg0 O1 2.025996 1_555
Mg0 O7 2.083262 1_555
Mg0 O27 2.097451 1_455
Mg0 O4 2.137870 1_555
Mg0 O3 2.182909 1_555
Mg1 O10 1.998673 1_565
Mg1 O4 2.015614 1_555
Mg1 O14 2.029022 1_555
Mg1 O8 2.135705 1_555
Mg1 O7 2.147733 1_555
Mg1 O5 2.202267 1_555
Mg2 O9 1.998673 1_545
Mg2 O16 2.015625 1_555
Mg2 O6 2.029022 1_555
Mg2 O11 2.135705 1_556
Mg2 O12 2.147732 1_555
Mg2 O13 2.202267 1_556
Mg3 O18 2.021245 1_555
Mg3 O19 2.025996 1_555
Mg3 O12 2.083262 1_555
Mg3 O22 2.097441 1_555
Mg3 O16 2.137870 1_555
Mg3 O15 2.182909 1_555
Mg4 O21 2.015307 1_555
Mg4 O20 2.021303 1_555
Mg4 O27 2.055144 1_555
Mg4 O17 2.093537 1_555
Mg4 O24 2.169328 1_555
Mg4 O23 2.216292 1_555
Mg5 O28 2.015307 1_555
Mg5 O29 2.021303 1_555
Mg5 O22 2.055144 1_555
Mg5 O2 2.093548 1_655
Mg5 O26 2.169328 1_555
Mg5 O25 2.216292 1_555
O0 Ti10 1.833644 1_445
O0 Ti1 1.956231 1_554
O1 Ti11 1.837847 1_445
O1 Ti0 1.958871 1_555
O2 Ti2 1.964042 1_555
O2 Ti0 2.132372 1_555
O2 Ti1 2.164292 1_555
O3 Ti3 1.950114 1_555
O3 Ti10 1.952514 1_455
O3 Ti1 2.244987 1_554
O4 Ti11 1.867925 1_455
O4 Ti0 2.140111 1_555
O5 Ti4 1.955076 1_555
O5 Ti0 1.960876 1_555
O5 Ti2 2.200273 1_555
O6 Ti1 1.909473 1_555
O6 Ti2 2.141154 1_555
O6 Ti3 2.173301 1_556
O7 Ti5 1.913425 1_555
O7 Ti3 2.100431 1_555
O8 Ti4 1.852202 1_565
O8 Ti2 1.935855 1_555
O9 Ti2 1.876321 1_555
O9 Ti3 1.948104 1_556
O10 Ti5 1.876321 1_555
O10 Ti4 1.948104 1_555
O11 Ti3 1.852202 1_545
O11 Ti5 1.935855 1_555
O12 Ti2 1.913425 1_555
O12 Ti4 2.100430 1_555
O13 Ti3 1.955076 1_555
O13 Ti6 1.960887 1_555
O13 Ti5 2.200273 1_555
O14 Ti7 1.909484 1_555
O14 Ti5 2.141154 1_555
O14 Ti4 2.173301 1_555
O15 Ti4 1.950125 1_555
O15 Ti8 1.952514 1_555
O15 Ti7 2.244987 1_555
O16 Ti9 1.867925 1_555
O16 Ti6 2.140111 1_556
O17 Ti5 1.964042 1_555
O17 Ti6 2.132372 1_555
O17 Ti7 2.164292 1_555
O18 Ti8 1.833644 1_565
O18 Ti7 1.956231 1_555
O19 Ti9 1.837847 1_565
O19 Ti6 1.958871 1_556
O20 Ti7 1.800082 1_545
O20 Ti8 2.051810 1_555
O21 Ti6 1.821120 1_545
O21 Ti9 2.011901 1_554
O22 Ti8 1.992150 1_555
O22 Ti9 2.045007 1_555
O23 Ti6 1.942342 1_555
O23 Ti10 1.965928 1_555
O23 Ti9 2.202229 1_554
O24 Ti7 1.956082 1_555
O24 Ti11 2.027242 1_555
O24 Ti8 2.157168 1_555
O25 Ti0 1.942342 1_655
O25 Ti8 1.965928 1_555
O25 Ti11 2.202229 1_555
O26 Ti1 1.956082 1_655
O26 Ti9 2.027242 1_555
O26 Ti10 2.157168 1_556
O27 Ti10 1.992151 1_555
O27 Ti11 2.045007 1_555
O28 Ti0 1.821120 1_665
O28 Ti11 2.011901 1_555
O29 Ti1 1.800082 1_665
O29 Ti10 2.051810 1_556
