# generated using pymatgen
data_K2Sn2Hg3S8
_symmetry_space_group_name_H-M   'P 1'
_cell_length_a   6.71082042
_cell_length_b   6.71082042
_cell_length_c   20.04598300
_cell_angle_alpha   90.00000000
_cell_angle_beta   90.00000000
_cell_angle_gamma   96.70864281
_symmetry_Int_Tables_number   1
_chemical_formula_structural   K2Sn2Hg3S8
_chemical_formula_sum   'K4 Sn4 Hg6 S16'
_cell_volume   896.59181227
_cell_formula_units_Z   2
loop_
 _symmetry_equiv_pos_site_id
 _symmetry_equiv_pos_as_xyz
  1  'x, y, z'
loop_
 _atom_site_type_symbol
 _atom_site_label
 _atom_site_symmetry_multiplicity
 _atom_site_fract_x
 _atom_site_fract_y
 _atom_site_fract_z
 _atom_site_occupancy
  K  K0  1  0.85958900  0.44710300  0.88228200  1
  K  K1  1  0.44710300  0.85958900  0.11771800  1
  K  K2  1  0.35958900  0.94710300  0.61771800  1
  K  K3  1  0.94710300  0.35958900  0.38228200  1
  Sn  Sn0  1  0.37538400  0.94871000  0.86396500  1
  Sn  Sn1  1  0.94871000  0.37538400  0.13603500  1
  Sn  Sn2  1  0.87538400  0.44871000  0.63603500  1
  Sn  Sn3  1  0.44871000  0.87538400  0.36396500  1
  Hg  Hg0  1  0.31272500  0.39187700  0.75298200  1
  Hg  Hg1  1  0.39187700  0.31272500  0.24701800  1
  Hg  Hg2  1  0.81272500  0.89187700  0.74701800  1
  Hg  Hg3  1  0.89187700  0.81272500  0.25298200  1
  Hg  Hg4  1  0.01556900  0.01556900  0.00000000  1
  Hg  Hg5  1  0.51556900  0.51556900  0.50000000  1
  S  S0  1  0.23055800  0.40162100  0.63297600  1
  S  S1  1  0.40162100  0.23055800  0.36702400  1
  S  S2  1  0.73055800  0.90162100  0.86702400  1
  S  S3  1  0.90162100  0.73055800  0.13297600  1
  S  S4  1  0.32667900  0.30227500  0.87186100  1
  S  S5  1  0.30227500  0.32667900  0.12813900  1
  S  S6  1  0.82667900  0.80227500  0.62813900  1
  S  S7  1  0.80227500  0.82667900  0.37186100  1
  S  S8  1  0.23975800  0.78463700  0.96705600  1
  S  S9  1  0.78463700  0.23975800  0.03294400  1
  S  S10  1  0.73975800  0.28463700  0.53294400  1
  S  S11  1  0.28463700  0.73975800  0.46705600  1
  S  S12  1  0.22098500  0.79586000  0.76712300  1
  S  S13  1  0.79586000  0.22098500  0.23287700  1
  S  S14  1  0.29586000  0.72098500  0.26712300  1
  S  S15  1  0.72098500  0.29586000  0.73287700  1
loop_
_geom_bond_atom_site_label_1
_geom_bond_atom_site_label_2
_geom_bond_distance
_geom_bond_site_symmetry_2
K0 S15 3.262606 1_555
K0 S2 3.280865 1_555
K0 S9 3.338718 1_556
K0 S4 3.394922 1_655
K0 S4 3.600808 1_555
K0 S8 3.630064 1_655
K0 S2 3.674640 1_545
K1 S14 3.262606 1_555
K1 S3 3.280865 1_555
K1 S8 3.338718 1_554
K1 S5 3.394922 1_565
K1 S5 3.600808 1_555
K1 S9 3.630064 1_565
K1 S3 3.674640 1_455
K2 S12 3.262606 1_555
K2 S0 3.280865 1_565
K2 S11 3.338718 1_555
K2 S6 3.394922 1_555
K2 S6 3.600808 1_455
K2 S10 3.630064 1_565
K2 S0 3.674640 1_555
K3 S13 3.262606 1_555
K3 S1 3.280865 1_655
K3 S10 3.338718 1_555
K3 S7 3.394922 1_555
K3 S7 3.600808 1_545
K3 S11 3.630064 1_655
K3 S1 3.674640 1_555
Hg0 S4 2.462194 1_555
Hg0 S0 2.470596 1_555
Hg0 S12 2.863420 1_555
Hg0 S15 2.914853 1_555
Hg1 S5 2.462194 1_555
Hg1 S1 2.470596 1_555
Hg1 S13 2.863420 1_555
Hg1 S14 2.914853 1_555
Hg2 S6 2.462194 1_555
Hg2 S2 2.470596 1_555
Hg2 S15 2.863420 1_565
Hg2 S12 2.914853 1_655
Hg3 S7 2.462194 1_555
Hg3 S3 2.470596 1_555
Hg3 S14 2.863420 1_655
Hg3 S13 2.914853 1_565
Hg4 S8 2.376147 1_544
Hg4 S9 2.376147 1_455
Hg5 S11 2.376147 1_555
Hg5 S10 2.376147 1_555
S0 Sn2 2.441457 1_455
S1 Sn3 2.441457 1_545
S2 Sn0 2.441457 1_555
S3 Sn1 2.441457 1_555
S4 Sn0 2.437793 1_545
S5 Sn1 2.437793 1_455
S6 Sn2 2.437793 1_555
S7 Sn3 2.437793 1_555
S8 Sn0 2.465211 1_555
S9 Sn1 2.465211 1_555
S10 Sn2 2.465211 1_555
S11 Sn3 2.465211 1_555
S12 Sn0 2.376143 1_555
S13 Sn1 2.376143 1_555
S14 Sn3 2.376143 1_555
S15 Sn2 2.376143 1_555
