# generated using pymatgen
data_Zn10Ni(B4Rh9)2
_symmetry_space_group_name_H-M   'P 1'
_cell_length_a   17.91138400
_cell_length_b   17.91138400
_cell_length_c   2.87947000
_cell_angle_alpha   90.00000000
_cell_angle_beta   90.00000000
_cell_angle_gamma   90.00000000
_symmetry_Int_Tables_number   1
_chemical_formula_structural   Zn10Ni(B4Rh9)2
_chemical_formula_sum   'Zn20 Ni2 B16 Rh36'
_cell_volume   923.78487580
_cell_formula_units_Z   2
loop_
 _symmetry_equiv_pos_site_id
 _symmetry_equiv_pos_as_xyz
  1  'x, y, z'
loop_
 _atom_site_type_symbol
 _atom_site_label
 _atom_site_symmetry_multiplicity
 _atom_site_fract_x
 _atom_site_fract_y
 _atom_site_fract_z
 _atom_site_occupancy
  Zn  Zn0  1  0.55025500  0.05025500  0.50000000  1
  Zn  Zn1  1  0.44974500  0.94974500  0.50000000  1
  Zn  Zn2  1  0.05025500  0.44974500  0.50000000  1
  Zn  Zn3  1  0.94974500  0.55025500  0.50000000  1
  Zn  Zn4  1  0.20907500  0.70907500  0.50000000  1
  Zn  Zn5  1  0.79092500  0.29092500  0.50000000  1
  Zn  Zn6  1  0.70907500  0.79092500  0.50000000  1
  Zn  Zn7  1  0.29092500  0.20907500  0.50000000  1
  Zn  Zn8  1  0.81239800  0.03208800  0.50000000  1
  Zn  Zn9  1  0.18760200  0.96791200  0.50000000  1
  Zn  Zn10  1  0.31239800  0.46791200  0.50000000  1
  Zn  Zn11  1  0.68760200  0.53208800  0.50000000  1
  Zn  Zn12  1  0.96791200  0.81239800  0.50000000  1
  Zn  Zn13  1  0.03208800  0.18760200  0.50000000  1
  Zn  Zn14  1  0.53208800  0.31239800  0.50000000  1
  Zn  Zn15  1  0.46791200  0.68760200  0.50000000  1
  Zn  Zn16  1  0.66898600  0.16898600  0.50000000  1
  Zn  Zn17  1  0.33101400  0.83101400  0.50000000  1
  Zn  Zn18  1  0.16898600  0.33101400  0.50000000  1
  Zn  Zn19  1  0.83101400  0.66898600  0.50000000  1
  Ni  Ni0  1  0.50000000  0.50000000  0.50000000  1
  Ni  Ni1  1  0.00000000  0.00000000  0.50000000  1
  B  B0  1  0.16551000  0.53840100  0.50000000  1
  B  B1  1  0.83449000  0.46159900  0.50000000  1
  B  B2  1  0.66551000  0.96159900  0.50000000  1
  B  B3  1  0.33449000  0.03840100  0.50000000  1
  B  B4  1  0.46159900  0.16551000  0.50000000  1
  B  B5  1  0.53840100  0.83449000  0.50000000  1
  B  B6  1  0.03840100  0.66551000  0.50000000  1
  B  B7  1  0.96159900  0.33449000  0.50000000  1
  B  B8  1  0.33355100  0.62376900  0.50000000  1
  B  B9  1  0.66644900  0.37623100  0.50000000  1
  B  B10  1  0.83355100  0.87623100  0.50000000  1
  B  B11  1  0.16644900  0.12376900  0.50000000  1
  B  B12  1  0.37623100  0.33355100  0.50000000  1
  B  B13  1  0.62376900  0.66644900  0.50000000  1
  B  B14  1  0.12376900  0.83355100  0.50000000  1
  B  B15  1  0.87623100  0.16644900  0.50000000  1
  Rh  Rh0  1  0.24388500  0.58763700  0.00000000  1
  Rh  Rh1  1  0.75611500  0.41236300  0.00000000  1
  Rh  Rh2  1  0.74388500  0.91236300  0.00000000  1
  Rh  Rh3  1  0.25611500  0.08763700  0.00000000  1
  Rh  Rh4  1  0.41236300  0.24388500  0.00000000  1
  Rh  Rh5  1  0.58763700  0.75611500  0.00000000  1
  Rh  Rh6  1  0.08763700  0.74388500  0.00000000  1
  Rh  Rh7  1  0.91236300  0.25611500  0.00000000  1
  Rh  Rh8  1  0.08180700  0.58180700  0.00000000  1
  Rh  Rh9  1  0.91819300  0.41819300  0.00000000  1
  Rh  Rh10  1  0.58180700  0.91819300  0.00000000  1
  Rh  Rh11  1  0.41819300  0.08180700  0.00000000  1
  Rh  Rh12  1  0.67396900  0.04817800  0.00000000  1
  Rh  Rh13  1  0.32603100  0.95182200  0.00000000  1
  Rh  Rh14  1  0.17396900  0.45182200  0.00000000  1
  Rh  Rh15  1  0.82603100  0.54817800  0.00000000  1
  Rh  Rh16  1  0.95182200  0.67396900  0.00000000  1
  Rh  Rh17  1  0.04817800  0.32603100  0.00000000  1
  Rh  Rh18  1  0.54817800  0.17396900  0.00000000  1
  Rh  Rh19  1  0.45182200  0.82603100  0.00000000  1
  Rh  Rh20  1  0.40086600  0.56668500  0.00000000  1
  Rh  Rh21  1  0.59913400  0.43331500  0.00000000  1
  Rh  Rh22  1  0.90086600  0.93331500  0.00000000  1
  Rh  Rh23  1  0.09913400  0.06668500  0.00000000  1
  Rh  Rh24  1  0.43331500  0.40086600  0.00000000  1
  Rh  Rh25  1  0.56668500  0.59913400  0.00000000  1
  Rh  Rh26  1  0.06668500  0.90086600  0.00000000  1
  Rh  Rh27  1  0.93331500  0.09913400  0.00000000  1
  Rh  Rh28  1  0.33919800  0.71106200  0.00000000  1
  Rh  Rh29  1  0.66080200  0.28893800  0.00000000  1
  Rh  Rh30  1  0.83919800  0.78893800  0.00000000  1
  Rh  Rh31  1  0.16080200  0.21106200  0.00000000  1
  Rh  Rh32  1  0.28893800  0.33919800  0.00000000  1
  Rh  Rh33  1  0.71106200  0.66080200  0.00000000  1
  Rh  Rh34  1  0.21106200  0.83919800  0.00000000  1
  Rh  Rh35  1  0.78893800  0.16080200  0.00000000  1
loop_
_geom_bond_atom_site_label_1
_geom_bond_atom_site_label_2
_geom_bond_distance
_geom_bond_site_symmetry_2
Zn0 Zn1 2.545971 1_545
Zn2 Zn3 2.545971 1_455
Ni0 Rh24 2.579211 1_555
Ni0 Rh24 2.579211 1_556
Ni0 Rh20 2.579211 1_555
Ni0 Rh20 2.579211 1_556
Ni0 Rh21 2.579211 1_556
Ni0 Rh21 2.579211 1_555
Ni0 Rh25 2.579211 1_556
Ni0 Rh25 2.579211 1_555
Ni1 Rh27 2.579211 1_455
Ni1 Rh27 2.579211 1_456
Ni1 Rh23 2.579211 1_555
Ni1 Rh23 2.579211 1_556
Ni1 Rh26 2.579211 1_545
Ni1 Rh26 2.579211 1_546
Ni1 Rh22 2.579211 1_446
Ni1 Rh22 2.579211 1_445
B0 Rh14 2.121466 1_555
B0 Rh14 2.121466 1_556
B0 Rh0 2.195729 1_555
B0 Rh0 2.195729 1_556
B0 Rh8 2.219233 1_556
B0 Rh8 2.219233 1_555
B0 Zn2 2.604466 1_555
B1 Rh15 2.121466 1_555
B1 Rh15 2.121466 1_556
B1 Rh1 2.195729 1_556
B1 Rh1 2.195729 1_555
B1 Rh9 2.219233 1_556
B1 Rh9 2.219233 1_555
B1 Zn3 2.604466 1_555
B2 Rh12 2.121466 1_566
B2 Rh12 2.121466 1_565
B2 Rh2 2.195729 1_556
B2 Rh2 2.195729 1_555
B2 Rh10 2.219233 1_556
B2 Rh10 2.219233 1_555
B2 Zn0 2.604466 1_565
B3 Rh13 2.121466 1_546
B3 Rh13 2.121466 1_545
B3 Rh3 2.195729 1_555
B3 Rh3 2.195729 1_556
B3 Rh11 2.219233 1_556
B3 Rh11 2.219233 1_555
B3 Zn1 2.604466 1_545
B4 Rh18 2.121466 1_556
B4 Rh18 2.121466 1_555
B4 Rh4 2.195729 1_555
B4 Rh4 2.195729 1_556
B4 Rh11 2.219233 1_556
B4 Rh11 2.219233 1_555
B4 Zn0 2.604466 1_555
B5 Rh19 2.121466 1_555
B5 Rh19 2.121466 1_556
B5 Rh5 2.195729 1_556
B5 Rh5 2.195729 1_555
B5 Rh10 2.219233 1_556
B5 Rh10 2.219233 1_555
B5 Zn1 2.604466 1_555
B6 Rh16 2.121466 1_456
B6 Rh16 2.121466 1_455
B6 Rh6 2.195729 1_555
B6 Rh6 2.195729 1_556
B6 Rh8 2.219233 1_555
B6 Rh8 2.219233 1_556
B6 Zn3 2.604466 1_455
B7 Rh17 2.121466 1_655
B7 Rh17 2.121466 1_656
B7 Rh7 2.195729 1_555
B7 Rh7 2.195729 1_556
B7 Rh9 2.219233 1_555
B7 Rh9 2.219233 1_556
B7 Zn2 2.604466 1_655
B8 Rh28 2.127844 1_555
B8 Rh28 2.127844 1_556
B8 Rh20 2.138217 1_555
B8 Rh20 2.138217 1_556
B8 Rh0 2.251898 1_556
B8 Rh0 2.251898 1_555
B8 Zn15 2.664377 1_555
B9 Rh29 2.127844 1_556
B9 Rh29 2.127844 1_555
B9 Rh21 2.138217 1_556
B9 Rh21 2.138217 1_555
B9 Rh1 2.251898 1_556
B9 Rh1 2.251898 1_555
B9 Zn14 2.664377 1_555
B10 Rh30 2.127844 1_556
B10 Rh30 2.127844 1_555
B10 Rh22 2.138217 1_556
B10 Rh22 2.138217 1_555
B10 Rh2 2.251898 1_555
B10 Rh2 2.251898 1_556
B10 Zn12 2.664377 1_555
B11 Rh31 2.127844 1_555
B11 Rh31 2.127844 1_556
B11 Rh23 2.138217 1_555
B11 Rh23 2.138217 1_556
B11 Rh3 2.251898 1_556
B11 Rh3 2.251898 1_555
B11 Zn13 2.664377 1_555
B12 Rh32 2.127844 1_555
B12 Rh32 2.127844 1_556
B12 Rh24 2.138217 1_556
B12 Rh24 2.138217 1_555
B12 Rh4 2.251898 1_555
B12 Rh4 2.251898 1_556
B12 Zn10 2.664377 1_555
B13 Rh33 2.127844 1_556
B13 Rh33 2.127844 1_555
B13 Rh25 2.138217 1_556
B13 Rh25 2.138217 1_555
B13 Rh5 2.251898 1_555
B13 Rh5 2.251898 1_556
B13 Zn11 2.664377 1_555
B14 Rh34 2.127844 1_556
B14 Rh34 2.127844 1_555
B14 Rh26 2.138217 1_556
B14 Rh26 2.138217 1_555
B14 Rh6 2.251898 1_556
B14 Rh6 2.251898 1_555
B14 Zn9 2.664377 1_555
B15 Rh35 2.127844 1_555
B15 Rh35 2.127844 1_556
B15 Rh27 2.138217 1_556
B15 Rh27 2.138217 1_555
B15 Rh7 2.251898 1_556
B15 Rh7 2.251898 1_555
B15 Zn8 2.664377 1_555
Rh0 Zn4 2.681929 1_554
Rh0 Zn4 2.681929 1_555
Rh0 Zn10 2.859614 1_554
Rh0 Zn10 2.859614 1_555
Rh1 Zn5 2.681929 1_554
Rh1 Zn5 2.681929 1_555
Rh1 Zn11 2.859614 1_555
Rh1 Zn11 2.859614 1_554
Rh2 Zn6 2.681929 1_555
Rh2 Zn6 2.681929 1_554
Rh2 Zn8 2.859614 1_564
Rh2 Zn8 2.859614 1_565
Rh3 Zn7 2.681929 1_555
Rh3 Zn7 2.681929 1_554
Rh3 Zn9 2.859614 1_544
Rh3 Zn9 2.859614 1_545
Rh4 Zn7 2.681929 1_555
Rh4 Zn7 2.681929 1_554
Rh4 Zn14 2.859614 1_554
Rh4 Zn14 2.859614 1_555
Rh5 Zn6 2.681929 1_555
Rh5 Zn6 2.681929 1_554
Rh5 Zn15 2.859614 1_554
Rh5 Zn15 2.859614 1_555
Rh6 Zn4 2.681929 1_555
Rh6 Zn4 2.681929 1_554
Rh6 Zn12 2.859614 1_455
Rh6 Zn12 2.859614 1_454
Rh7 Zn5 2.681929 1_555
Rh7 Zn5 2.681929 1_554
Rh7 Zn13 2.859614 1_655
Rh7 Zn13 2.859614 1_654
Rh8 Zn2 2.826199 1_555
Rh8 Zn2 2.826199 1_554
Rh8 Zn3 2.826199 1_455
Rh8 Zn3 2.826199 1_454
Rh9 Zn2 2.826199 1_654
Rh9 Zn2 2.826199 1_655
Rh9 Zn3 2.826199 1_555
Rh9 Zn3 2.826199 1_554
Rh10 Zn0 2.826199 1_565
Rh10 Zn0 2.826199 1_564
Rh10 Zn1 2.826199 1_554
Rh10 Zn1 2.826199 1_555
Rh11 Zn0 2.826199 1_555
Rh11 Zn0 2.826199 1_554
Rh11 Zn1 2.826199 1_544
Rh11 Zn1 2.826199 1_545
Rh12 Zn16 2.600577 1_555
Rh12 Zn16 2.600577 1_554
Rh12 Zn0 2.642799 1_554
Rh12 Zn0 2.642799 1_555
Rh12 Zn8 2.881595 1_555
Rh12 Zn8 2.881595 1_554
Rh13 Zn17 2.600577 1_554
Rh13 Zn17 2.600577 1_555
Rh13 Zn1 2.642799 1_554
Rh13 Zn1 2.642799 1_555
Rh13 Zn9 2.881595 1_554
Rh13 Zn9 2.881595 1_555
Rh14 Zn18 2.600577 1_555
Rh14 Zn18 2.600577 1_554
Rh14 Zn2 2.642799 1_555
Rh14 Zn2 2.642799 1_554
Rh14 Zn10 2.881595 1_554
Rh14 Zn10 2.881595 1_555
Rh15 Zn19 2.600577 1_555
Rh15 Zn19 2.600577 1_554
Rh15 Zn3 2.642799 1_554
Rh15 Zn3 2.642799 1_555
Rh15 Zn11 2.881595 1_555
Rh15 Zn11 2.881595 1_554
Rh16 Zn19 2.600577 1_555
Rh16 Zn19 2.600577 1_554
Rh16 Zn3 2.642799 1_554
Rh16 Zn3 2.642799 1_555
Rh16 Zn12 2.881595 1_555
Rh16 Zn12 2.881595 1_554
Rh17 Zn18 2.600577 1_554
Rh17 Zn18 2.600577 1_555
Rh17 Zn2 2.642799 1_555
Rh17 Zn2 2.642799 1_554
Rh17 Zn13 2.881595 1_554
Rh17 Zn13 2.881595 1_555
Rh18 Zn16 2.600577 1_555
Rh18 Zn16 2.600577 1_554
Rh18 Zn0 2.642799 1_554
Rh18 Zn0 2.642799 1_555
Rh18 Zn14 2.881595 1_554
Rh18 Zn14 2.881595 1_555
Rh19 Zn17 2.600577 1_555
Rh19 Zn17 2.600577 1_554
Rh19 Zn1 2.642799 1_554
Rh19 Zn1 2.642799 1_555
Rh19 Zn15 2.881595 1_555
Rh19 Zn15 2.881595 1_554
Rh20 Zn10 2.777350 1_555
Rh20 Zn10 2.777350 1_554
Rh20 Zn15 2.864545 1_555
Rh20 Zn15 2.864545 1_554
Rh21 Zn11 2.777350 1_554
Rh21 Zn11 2.777350 1_555
Rh21 Zn14 2.864545 1_554
Rh21 Zn14 2.864545 1_555
Rh22 Zn8 2.777350 1_565
Rh22 Zn8 2.777350 1_564
Rh22 Zn12 2.864545 1_554
Rh22 Zn12 2.864545 1_555
Rh23 Zn9 2.777350 1_544
Rh23 Zn9 2.777350 1_545
Rh23 Zn13 2.864545 1_554
Rh23 Zn13 2.864545 1_555
Rh24 Zn14 2.777350 1_554
Rh24 Zn14 2.777350 1_555
Rh24 Zn10 2.864545 1_555
Rh24 Zn10 2.864545 1_554
Rh25 Zn15 2.777350 1_555
Rh25 Zn15 2.777350 1_554
Rh25 Zn11 2.864545 1_555
Rh25 Zn11 2.864545 1_554
Rh26 Zn12 2.777350 1_455
Rh26 Zn12 2.777350 1_454
Rh26 Zn9 2.864545 1_554
Rh26 Zn9 2.864545 1_555
Rh27 Zn13 2.777350 1_654
Rh27 Zn13 2.777350 1_655
Rh27 Zn8 2.864545 1_555
Rh27 Zn8 2.864545 1_554
Rh28 Zn17 2.590445 1_554
Rh28 Zn17 2.590445 1_555
Rh28 Zn4 2.739742 1_554
Rh28 Zn4 2.739742 1_555
Rh28 Zn15 2.750361 1_554
Rh28 Zn15 2.750361 1_555
Rh29 Zn16 2.590445 1_554
Rh29 Zn16 2.590445 1_555
Rh29 Zn5 2.739742 1_555
Rh29 Zn5 2.739742 1_554
Rh29 Zn14 2.750361 1_554
Rh29 Zn14 2.750361 1_555
Rh30 Zn19 2.590445 1_555
Rh30 Zn19 2.590445 1_554
Rh30 Zn6 2.739742 1_554
Rh30 Zn6 2.739742 1_555
Rh30 Zn12 2.750361 1_554
Rh30 Zn12 2.750361 1_555
Rh31 Zn18 2.590445 1_554
Rh31 Zn18 2.590445 1_555
Rh31 Zn7 2.739742 1_554
Rh31 Zn7 2.739742 1_555
Rh31 Zn13 2.750361 1_555
Rh31 Zn13 2.750361 1_554
Rh32 Zn18 2.590445 1_554
Rh32 Zn18 2.590445 1_555
Rh32 Zn7 2.739742 1_554
Rh32 Zn7 2.739742 1_555
Rh32 Zn10 2.750361 1_555
Rh32 Zn10 2.750361 1_554
Rh33 Zn19 2.590445 1_555
Rh33 Zn19 2.590445 1_554
Rh33 Zn6 2.739742 1_554
Rh33 Zn6 2.739742 1_555
Rh33 Zn11 2.750361 1_555
Rh33 Zn11 2.750361 1_554
Rh34 Zn17 2.590445 1_555
Rh34 Zn17 2.590445 1_554
Rh34 Zn4 2.739742 1_554
Rh34 Zn4 2.739742 1_555
Rh34 Zn9 2.750361 1_554
Rh34 Zn9 2.750361 1_555
Rh35 Zn16 2.590445 1_555
Rh35 Zn16 2.590445 1_554
Rh35 Zn5 2.739742 1_555
Rh35 Zn5 2.739742 1_554
Rh35 Zn8 2.750361 1_555
Rh35 Zn8 2.750361 1_554
