# generated using pymatgen
data_Sn13Pd20
_symmetry_space_group_name_H-M   'P 1'
_cell_length_a   8.92114533
_cell_length_b   8.92114533
_cell_length_c   17.21659588
_cell_angle_alpha   89.93940781
_cell_angle_beta   89.93940781
_cell_angle_gamma   60.33119982
_symmetry_Int_Tables_number   1
_chemical_formula_structural   Sn13Pd20
_chemical_formula_sum   'Sn26 Pd40'
_cell_volume   1190.57998436
_cell_formula_units_Z   2
loop_
 _symmetry_equiv_pos_site_id
 _symmetry_equiv_pos_as_xyz
  1  'x, y, z'
loop_
 _atom_site_type_symbol
 _atom_site_label
 _atom_site_symmetry_multiplicity
 _atom_site_fract_x
 _atom_site_fract_y
 _atom_site_fract_z
 _atom_site_occupancy
  Sn  Sn0  1  0.38789400  0.30726200  0.25514200  1
  Sn  Sn1  1  0.30304300  0.38853600  0.92205900  1
  Sn  Sn2  1  0.31749900  0.31314100  0.58645800  1
  Sn  Sn3  1  0.68685900  0.68250100  0.41354200  1
  Sn  Sn4  1  0.61146400  0.69695700  0.07794100  1
  Sn  Sn5  1  0.69273800  0.61210600  0.74485800  1
  Sn  Sn6  1  0.69195100  0.19454000  0.74517600  1
  Sn  Sn7  1  0.13102100  0.68180500  0.41257000  1
  Sn  Sn8  1  0.19547400  0.11435000  0.07728600  1
  Sn  Sn9  1  0.88565000  0.80452600  0.92271400  1
  Sn  Sn10  1  0.31819500  0.86897900  0.58743000  1
  Sn  Sn11  1  0.80546000  0.30804900  0.25482400  1
  Sn  Sn12  1  0.66480700  0.16755900  0.08119200  1
  Sn  Sn13  1  0.16713300  0.66502000  0.74818000  1
  Sn  Sn14  1  0.16878100  0.16704800  0.41606400  1
  Sn  Sn15  1  0.83295200  0.83121900  0.58393600  1
  Sn  Sn16  1  0.33498000  0.83286700  0.25182000  1
  Sn  Sn17  1  0.83244100  0.33519300  0.91880800  1
  Sn  Sn18  1  0.68571200  0.12709100  0.41889900  1
  Sn  Sn19  1  0.19553600  0.69468700  0.08222600  1
  Sn  Sn20  1  0.10866800  0.19607700  0.74666500  1
  Sn  Sn21  1  0.80392300  0.89133200  0.25333500  1
  Sn  Sn22  1  0.30531300  0.80446400  0.91777400  1
  Sn  Sn23  1  0.87290900  0.31428800  0.58110100  1
  Sn  Sn24  1  0.99912700  0.50283400  0.16743300  1
  Sn  Sn25  1  0.49716600  0.00087300  0.83256700  1
  Pd  Pd0  1  0.49954400  0.50181700  0.16777300  1
  Pd  Pd1  1  0.99953900  0.49994100  0.83297600  1
  Pd  Pd2  1  0.50031700  0.99958600  0.49995600  1
  Pd  Pd3  1  0.00041400  0.49968300  0.50004400  1
  Pd  Pd4  1  0.50005900  0.00046100  0.16702400  1
  Pd  Pd5  1  0.49818300  0.50045600  0.83222700  1
  Pd  Pd6  1  0.65936500  0.15955700  0.90964000  1
  Pd  Pd7  1  0.17885600  0.66202900  0.57580800  1
  Pd  Pd8  1  0.15885200  0.18200000  0.24320900  1
  Pd  Pd9  1  0.81800000  0.84114800  0.75679100  1
  Pd  Pd10  1  0.33797100  0.82114400  0.42419200  1
  Pd  Pd11  1  0.84044300  0.34063500  0.09036000  1
  Pd  Pd12  1  0.31817700  0.34295100  0.08665700  1
  Pd  Pd13  1  0.33979000  0.31621200  0.75198600  1
  Pd  Pd14  1  0.34202500  0.33935700  0.41963900  1
  Pd  Pd15  1  0.66064300  0.65797500  0.58036100  1
  Pd  Pd16  1  0.68378800  0.66021000  0.24801400  1
  Pd  Pd17  1  0.65704900  0.68182300  0.91334300  1
  Pd  Pd18  1  0.49710100  0.50770800  0.33455900  1
  Pd  Pd19  1  0.99498500  0.49673400  0.00271500  1
  Pd  Pd20  1  0.50759700  0.99730200  0.66666500  1
  Pd  Pd21  1  0.00269800  0.49240300  0.33333500  1
  Pd  Pd22  1  0.50326600  0.00501500  0.99728500  1
  Pd  Pd23  1  0.49229200  0.50289900  0.66544100  1
  Pd  Pd24  1  0.99508200  0.00491800  0.00000000  1
  Pd  Pd25  1  0.00034900  0.99810600  0.66452900  1
  Pd  Pd26  1  0.00189400  0.99965100  0.33547100  1
  Pd  Pd27  1  0.66345500  0.17730800  0.58263200  1
  Pd  Pd28  1  0.15460100  0.66136800  0.24928600  1
  Pd  Pd29  1  0.17969100  0.15861300  0.91459600  1
  Pd  Pd30  1  0.84138700  0.82030900  0.08540400  1
  Pd  Pd31  1  0.33863200  0.84539900  0.75071400  1
  Pd  Pd32  1  0.82269200  0.33654500  0.41736800  1
  Pd  Pd33  1  0.50818000  0.49182000  0.00000000  1
  Pd  Pd34  1  0.00231600  0.50094900  0.66493100  1
  Pd  Pd35  1  0.49905100  0.99768400  0.33506900  1
  Pd  Pd36  1  0.00144400  0.99855600  0.50000000  1
  Pd  Pd37  1  0.00001400  0.99980300  0.16751900  1
  Pd  Pd38  1  0.00019700  0.99998600  0.83248100  1
  Pd  Pd39  1  0.50253500  0.49746500  0.50000000  1
loop_
_geom_bond_atom_site_label_1
_geom_bond_atom_site_label_2
_geom_bond_distance
_geom_bond_site_symmetry_2
Pd0 Sn19 2.805109 1_555
Pd0 Sn0 2.823114 1_555
Pd0 Sn11 2.831126 1_555
Pd0 Sn4 2.851546 1_555
Pd0 Pd18 2.871886 1_555
Pd0 Pd33 2.889719 1_555
Pd0 Sn16 2.946796 1_555
Pd0 Pd11 2.959597 1_555
Pd0 Pd12 2.975905 1_555
Pd0 Pd16 2.985807 1_555
Pd0 Sn12 2.990014 1_555
Pd0 Pd28 3.020603 1_555
Pd1 Sn20 2.810208 1_655
Pd1 Sn1 2.830670 1_655
Pd1 Sn9 2.841684 1_555
Pd1 Sn5 2.844007 1_555
Pd1 Pd34 2.893285 1_655
Pd1 Pd19 2.922874 1_556
Pd1 Sn13 2.950622 1_655
Pd1 Pd9 2.953757 1_555
Pd1 Sn17 2.953941 1_555
Pd1 Pd13 2.985825 1_655
Pd1 Pd17 2.995100 1_555
Pd1 Pd29 2.996798 1_655
Pd2 Sn18 2.798412 1_565
Pd2 Pd35 2.838929 1_555
Pd2 Sn10 2.851428 1_555
Pd2 Sn2 2.861793 1_565
Pd2 Pd20 2.870787 1_555
Pd2 Sn3 2.885845 1_555
Pd2 Sn14 2.948902 1_565
Pd2 Sn15 2.957106 1_555
Pd2 Pd27 2.991896 1_565
Pd3 Sn23 2.798412 1_455
Pd3 Pd34 2.838929 1_555
Pd3 Sn7 2.851428 1_555
Pd3 Sn3 2.861793 1_455
Pd3 Sn2 2.885845 1_555
Pd3 Pd7 2.936678 1_555
Pd3 Sn15 2.948902 1_455
Pd3 Sn14 2.957106 1_555
Pd3 Pd32 2.991896 1_455
Pd4 Sn21 2.810208 1_545
Pd4 Sn4 2.830670 1_545
Pd4 Sn8 2.841684 1_555
Pd4 Sn0 2.844007 1_555
Pd4 Sn16 2.950622 1_545
Pd4 Pd8 2.953757 1_555
Pd4 Sn12 2.953941 1_555
Pd5 Sn22 2.805109 1_555
Pd5 Sn5 2.823114 1_555
Pd5 Sn6 2.831126 1_555
Pd5 Sn1 2.851546 1_555
Pd5 Sn13 2.946796 1_555
Pd5 Pd6 2.959597 1_555
Pd5 Sn17 2.990014 1_555
Pd6 Sn17 2.694465 1_555
Pd6 Sn9 2.797731 1_545
Pd6 Sn1 2.809703 1_555
Pd6 Sn25 2.809722 1_555
Pd6 Sn6 2.878466 1_555
Pd6 Sn12 2.955510 1_556
Pd7 Sn15 2.684930 1_455
Pd7 Sn10 2.695753 1_555
Pd7 Sn2 2.727482 1_555
Pd7 Sn7 2.835234 1_555
Pd7 Sn13 2.969074 1_555
Pd8 Sn16 2.710467 1_545
Pd8 Sn0 2.779920 1_555
Pd8 Sn11 2.780879 1_455
Pd8 Sn24 2.807693 1_455
Pd8 Sn8 2.904785 1_555
Pd8 Sn14 2.978269 1_555
Pd9 Sn13 2.710467 1_655
Pd9 Sn5 2.779920 1_555
Pd9 Sn6 2.780879 1_565
Pd9 Sn25 2.807693 1_565
Pd9 Sn9 2.904785 1_555
Pd9 Sn15 2.978269 1_555
Pd10 Sn14 2.684930 1_565
Pd10 Sn7 2.695753 1_555
Pd10 Sn3 2.727482 1_555
Pd10 Pd39 2.827762 1_555
Pd10 Sn10 2.835234 1_555
Pd10 Pd18 2.879278 1_555
Pd10 Pd36 2.917835 1_555
Pd10 Pd2 2.936678 1_555
Pd10 Sn16 2.969074 1_555
Pd10 Pd35 3.021682 1_555
Pd10 Pd26 3.022613 1_555
Pd11 Sn12 2.694465 1_555
Pd11 Sn8 2.797731 1_655
Pd11 Sn4 2.809703 1_555
Pd11 Sn24 2.809722 1_555
Pd11 Pd19 2.829990 1_555
Pd11 Sn11 2.878466 1_555
Pd11 Sn17 2.955510 1_554
Pd11 Pd37 2.957517 1_645
Pd11 Pd33 3.012155 1_555
Pd11 Pd24 3.034512 1_555
Pd12 Sn12 2.688741 1_555
Pd12 Sn8 2.755806 1_555
Pd12 Sn19 2.765891 1_555
Pd12 Sn24 2.836652 1_455
Pd12 Sn1 2.856247 1_554
Pd12 Pd19 2.893537 1_455
Pd12 Sn0 2.950984 1_555
Pd12 Pd4 2.995100 1_555
Pd12 Pd33 3.013619 1_555
Pd12 Pd22 3.042900 1_554
Pd13 Sn13 2.704572 1_555
Pd13 Sn20 2.756190 1_555
Pd13 Sn6 2.772300 1_555
Pd13 Sn25 2.809924 1_555
Pd13 Sn2 2.858072 1_555
Pd13 Pd20 2.877661 1_545
Pd13 Sn1 2.981607 1_555
Pd13 Pd5 2.985807 1_555
Pd13 Pd23 3.013042 1_555
Pd13 Pd34 3.019745 1_555
Pd14 Sn14 2.666044 1_555
Pd14 Sn7 2.682913 1_555
Pd14 Sn18 2.690547 1_555
Pd14 Pd39 2.821694 1_555
Pd14 Sn0 2.855411 1_555
Pd14 Pd18 2.891923 1_555
Pd14 Sn2 2.898134 1_555
Pd14 Pd2 2.975210 1_545
Pd14 Pd3 2.988265 1_555
Pd14 Pd21 3.024785 1_555
Pd14 Pd35 3.025109 1_545
Pd15 Sn15 2.666044 1_555
Pd15 Sn10 2.682913 1_555
Pd15 Sn23 2.690547 1_555
Pd15 Pd39 2.821694 1_555
Pd15 Sn5 2.855411 1_555
Pd15 Pd23 2.891923 1_555
Pd15 Sn3 2.898134 1_555
Pd15 Pd3 2.975210 1_655
Pd15 Pd2 2.988265 1_555
Pd15 Pd20 3.024785 1_555
Pd15 Pd34 3.025109 1_655
Pd16 Sn16 2.704572 1_555
Pd16 Sn21 2.756190 1_555
Pd16 Sn11 2.772300 1_555
Pd16 Sn24 2.809924 1_555
Pd16 Sn3 2.858072 1_555
Pd16 Pd21 2.877661 1_655
Pd16 Sn4 2.981607 1_555
Pd16 Pd4 2.985825 1_565
Pd16 Pd18 3.013042 1_555
Pd16 Pd35 3.019745 1_555
Pd17 Sn17 2.688741 1_555
Pd17 Sn9 2.755806 1_555
Pd17 Sn22 2.765891 1_555
Pd17 Sn25 2.836652 1_565
Pd17 Sn4 2.856247 1_556
Pd17 Pd22 2.893537 1_565
Pd17 Sn5 2.950984 1_555
Pd17 Pd5 2.975905 1_555
Pd17 Pd33 3.013619 1_556
Pd17 Pd19 3.042900 1_556
Pd18 Sn0 2.783706 1_555
Pd18 Sn11 2.787665 1_555
Pd18 Pd39 2.849394 1_555
Pd18 Sn16 2.894444 1_555
Pd18 Pd32 2.900779 1_555
Pd18 Pd28 3.037966 1_555
Pd18 Sn3 3.125557 1_555
Pd18 Sn7 3.139361 1_555
Pd18 Sn18 3.287549 1_555
Pd19 Sn9 2.780578 1_554
Pd19 Sn1 2.789513 1_654
Pd19 Sn24 2.837093 1_555
Pd19 Pd30 2.885460 1_555
Pd19 Sn17 2.888609 1_554
Pd19 Pd29 3.033062 1_654
Pd19 Sn8 3.231052 1_655
Pd19 Sn4 3.243395 1_555
Pd19 Sn19 3.366269 1_655
Pd20 Sn10 2.819503 1_555
Pd20 Sn2 2.826351 1_565
Pd20 Sn25 2.857383 1_565
Pd20 Pd9 2.863927 1_555
Pd20 Pd31 2.866345 1_555
Pd20 Sn15 2.896029 1_555
Pd20 Pd27 2.967572 1_565
Pd20 Sn6 3.240789 1_565
Pd20 Sn5 3.274927 1_555
Pd20 Sn20 3.384451 1_565
Pd21 Sn7 2.819503 1_555
Pd21 Sn3 2.826351 1_455
Pd21 Sn24 2.857383 1_455
Pd21 Pd8 2.863927 1_555
Pd21 Pd28 2.866345 1_555
Pd21 Pd3 2.870787 1_555
Pd21 Sn14 2.896029 1_555
Pd21 Pd32 2.967572 1_455
Pd21 Sn11 3.240789 1_455
Pd21 Sn0 3.274927 1_555
Pd21 Sn21 3.384451 1_455
Pd22 Sn8 2.780578 1_556
Pd22 Sn4 2.789513 1_546
Pd22 Pd6 2.829990 1_555
Pd22 Sn25 2.837093 1_555
Pd22 Pd29 2.885460 1_555
Pd22 Sn12 2.888609 1_556
Pd22 Pd4 2.922874 1_556
Pd22 Pd30 3.033062 1_546
Pd22 Sn9 3.231052 1_545
Pd22 Sn1 3.243395 1_555
Pd22 Sn22 3.366269 1_545
Pd23 Sn5 2.783706 1_555
Pd23 Sn6 2.787665 1_555
Pd23 Pd39 2.849394 1_555
Pd23 Pd5 2.871886 1_555
Pd23 Pd7 2.879278 1_555
Pd23 Sn13 2.894444 1_555
Pd23 Pd27 2.900779 1_555
Pd23 Pd31 3.037966 1_555
Pd23 Sn2 3.125557 1_555
Pd23 Sn10 3.139361 1_555
Pd23 Sn23 3.287549 1_555
Pd24 Sn8 2.766786 1_655
Pd24 Sn9 2.766786 1_544
Pd24 Sn22 2.821195 1_644
Pd24 Sn19 2.821195 1_645
Pd24 Pd37 2.884457 1_645
Pd24 Pd38 2.884457 1_644
Pd24 Sn17 2.916166 1_554
Pd24 Sn12 2.916166 1_555
Pd24 Pd30 2.996743 1_545
Pd24 Pd29 2.996743 1_654
Pd24 Pd6 3.034512 1_554
Pd25 Sn20 2.783955 1_565
Pd25 Sn6 2.791472 1_465
Pd25 Sn10 2.809073 1_555
Pd25 Pd36 2.832641 1_555
Pd25 Sn23 2.851700 1_465
Pd25 Pd38 2.891623 1_555
Pd25 Sn15 2.929478 1_455
Pd25 Sn13 2.955733 1_555
Pd25 Pd27 2.970579 1_465
Pd25 Pd31 3.016668 1_555
Pd25 Pd7 3.022613 1_555
Pd25 Pd9 3.061866 1_455
Pd26 Sn21 2.783955 1_455
Pd26 Sn11 2.791472 1_465
Pd26 Sn7 2.809073 1_555
Pd26 Pd36 2.832641 1_555
Pd26 Sn18 2.851700 1_465
Pd26 Pd37 2.891623 1_555
Pd26 Sn14 2.929478 1_565
Pd26 Sn16 2.955733 1_555
Pd26 Pd32 2.970579 1_465
Pd26 Pd28 3.016668 1_555
Pd26 Pd8 3.061866 1_565
Pd27 Sn15 2.682870 1_545
Pd27 Sn23 2.691827 1_555
Pd27 Sn2 2.701007 1_555
Pd27 Sn6 2.821473 1_555
Pd27 Sn18 2.846030 1_555
Pd27 Pd39 2.859909 1_555
Pd27 Pd36 2.982319 1_645
Pd28 Sn16 2.714736 1_555
Pd28 Sn21 2.765311 1_455
Pd28 Sn0 2.795033 1_555
Pd28 Sn24 2.803623 1_455
Pd28 Sn7 2.818186 1_555
Pd28 Sn19 2.932183 1_555
Pd28 Pd37 2.978669 1_555
Pd29 Sn17 2.693000 1_455
Pd29 Sn1 2.769517 1_555
Pd29 Sn22 2.781257 1_545
Pd29 Sn8 2.822167 1_556
Pd29 Sn25 2.836629 1_555
Pd29 Sn20 2.943533 1_555
Pd29 Pd38 2.969468 1_545
Pd30 Sn12 2.693000 1_565
Pd30 Sn4 2.769517 1_555
Pd30 Sn19 2.781257 1_655
Pd30 Sn9 2.822167 1_554
Pd30 Sn24 2.836629 1_555
Pd30 Sn21 2.943533 1_555
Pd30 Pd37 2.969468 1_655
Pd30 Pd4 2.996798 1_565
Pd31 Sn13 2.714736 1_555
Pd31 Sn20 2.765311 1_565
Pd31 Sn5 2.795033 1_555
Pd31 Sn25 2.803623 1_565
Pd31 Sn10 2.818186 1_555
Pd31 Sn22 2.932183 1_555
Pd31 Pd38 2.978669 1_555
Pd31 Pd5 3.020603 1_555
Pd32 Sn14 2.682870 1_655
Pd32 Sn18 2.691827 1_555
Pd32 Sn3 2.701007 1_555
Pd32 Sn11 2.821473 1_555
Pd32 Sn23 2.846030 1_555
Pd32 Pd39 2.859909 1_555
Pd32 Pd36 2.982319 1_645
Pd33 Sn4 2.770538 1_555
Pd33 Sn1 2.770538 1_554
Pd33 Sn19 2.838779 1_555
Pd33 Sn22 2.838779 1_554
Pd33 Sn17 2.875524 1_554
Pd33 Sn12 2.875524 1_555
Pd33 Pd5 2.889719 1_554
Pd33 Pd6 3.012155 1_554
Pd34 Sn20 2.778093 1_555
Pd34 Sn5 2.790701 1_455
Pd34 Sn2 2.805638 1_555
Pd34 Sn23 2.846147 1_455
Pd34 Sn15 2.915003 1_455
Pd34 Sn13 2.915148 1_555
Pd34 Pd7 3.021682 1_555
Pd34 Pd9 3.078999 1_455
Pd35 Sn21 2.778093 1_555
Pd35 Sn0 2.790701 1_565
Pd35 Sn3 2.805638 1_555
Pd35 Sn18 2.846147 1_565
Pd35 Pd4 2.893285 1_565
Pd35 Sn14 2.915003 1_565
Pd35 Sn16 2.915148 1_555
Pd35 Pd8 3.078999 1_565
Pd36 Sn23 2.829436 1_465
Pd36 Sn18 2.829436 1_465
Pd36 Sn7 2.891130 1_555
Pd36 Sn10 2.891130 1_555
Pd36 Pd7 2.917835 1_555
Pd36 Sn14 2.964553 1_565
Pd36 Sn15 2.964553 1_455
Pd37 Sn21 2.801233 1_455
Pd37 Sn19 2.812618 1_555
Pd37 Sn11 2.848153 1_465
Pd37 Sn8 2.872832 1_565
Pd37 Pd8 2.938797 1_565
Pd37 Sn16 2.975418 1_555
Pd37 Sn12 2.994252 1_465
Pd38 Sn20 2.801233 1_565
Pd38 Sn22 2.812618 1_555
Pd38 Sn6 2.848153 1_465
Pd38 Sn9 2.872832 1_455
Pd38 Pd9 2.938797 1_455
Pd38 Pd6 2.957517 1_465
Pd38 Sn13 2.975418 1_555
Pd38 Sn17 2.994252 1_465
Pd39 Pd7 2.827762 1_555
Pd39 Sn23 3.193292 1_555
Pd39 Sn18 3.193292 1_555
Pd39 Sn2 3.212696 1_555
Pd39 Sn3 3.212696 1_555
Pd39 Sn7 3.250307 1_555
Pd39 Sn10 3.250307 1_555
