# generated using pymatgen
data_MgSi2
_symmetry_space_group_name_H-M   'P 1'
_cell_length_a   5.36737300
_cell_length_b   5.56371228
_cell_length_c   8.50224555
_cell_angle_alpha   74.11404012
_cell_angle_beta   78.60931650
_cell_angle_gamma   65.84199096
_symmetry_Int_Tables_number   1
_chemical_formula_structural   MgSi2
_chemical_formula_sum   'Mg4 Si8'
_cell_volume   221.75516760
_cell_formula_units_Z   4
loop_
 _symmetry_equiv_pos_site_id
 _symmetry_equiv_pos_as_xyz
  1  'x, y, z'
loop_
 _atom_site_type_symbol
 _atom_site_label
 _atom_site_symmetry_multiplicity
 _atom_site_fract_x
 _atom_site_fract_y
 _atom_site_fract_z
 _atom_site_occupancy
  Mg  Mg0  1  0.88252400  0.70273700  0.77604000  1
  Mg  Mg1  1  0.09753200  0.67070900  0.11542400  1
  Mg  Mg2  1  0.59312800  0.69272600  0.46603000  1
  Mg  Mg3  1  0.48320200  0.30490100  0.81773000  1
  Si  Si0  1  0.30133500  0.05031700  0.18032000  1
  Si  Si1  1  0.32623900  0.85867000  0.79083600  1
  Si  Si2  1  0.97037000  0.96823200  0.40292500  1
  Si  Si3  1  0.20066600  0.47888400  0.48971300  1
  Si  Si4  1  0.63091200  0.63682700  0.11280600  1
  Si  Si5  1  0.01848900  0.19050100  0.94898000  1
  Si  Si6  1  0.53087800  0.26349300  0.28532200  1
  Si  Si7  1  0.96449500  0.18216300  0.61409200  1
loop_
_geom_bond_atom_site_label_1
_geom_bond_atom_site_label_2
_geom_bond_distance
_geom_bond_site_symmetry_2
Mg0 Si5 2.691495 1_655
Mg0 Si1 2.733967 1_555
Mg0 Si7 2.813375 1_565
Mg0 Si1 2.882658 1_655
Mg0 Si4 2.908569 1_556
Mg0 Si3 2.944576 1_655
Mg0 Si2 3.143530 1_555
Mg1 Si4 2.592186 1_455
Mg1 Si5 2.745646 1_564
Mg1 Si4 2.786994 1_555
Mg1 Si6 2.802113 1_555
Mg1 Si1 2.889510 1_554
Mg1 Si0 2.954502 1_565
Mg1 Si0 3.085522 1_555
Mg1 Si2 3.132484 1_455
Mg1 Si3 3.150464 1_555
Mg2 Si3 2.765145 1_555
Mg2 Si7 2.833018 1_555
Mg2 Si2 2.897984 1_555
Mg2 Si0 2.935740 1_565
Mg2 Si3 3.007008 1_655
Mg2 Si6 3.036422 1_565
Mg2 Si1 3.046551 1_555
Mg2 Si4 3.062053 1_555
Mg2 Si2 3.142402 1_455
Mg3 Si7 2.752093 1_555
Mg3 Si5 2.771830 1_555
Mg3 Si1 2.796517 1_555
Mg3 Si1 3.004122 1_545
Mg3 Si5 3.047259 1_655
Mg3 Si3 3.163178 1_555
Mg3 Si0 3.164733 1_556
Si0 Si4 2.396264 1_545
Si0 Si2 2.410215 1_445
Si0 Si6 2.435536 1_555
Si0 Si5 2.480378 1_554
Si1 Si5 2.435249 1_565
Si1 Si7 2.465544 1_465
Si2 Si7 2.399567 1_565
Si2 Si3 2.447609 1_655
Si2 Si6 2.474575 1_565
Si3 Si7 2.382893 1_455
Si3 Si6 2.404638 1_555
Si4 Si6 2.384958 1_555
