# generated using pymatgen
data_Co3Ru
_symmetry_space_group_name_H-M   'P 1'
_cell_length_a   5.11061216
_cell_length_b   5.11061216
_cell_length_c   4.07789600
_cell_angle_alpha   90.00000000
_cell_angle_beta   90.00000000
_cell_angle_gamma   120.00000201
_symmetry_Int_Tables_number   1
_chemical_formula_structural   Co3Ru
_chemical_formula_sum   'Co6 Ru2'
_cell_volume   92.23858153
_cell_formula_units_Z   2
loop_
 _symmetry_equiv_pos_site_id
 _symmetry_equiv_pos_as_xyz
  1  'x, y, z'
loop_
 _atom_site_type_symbol
 _atom_site_label
 _atom_site_symmetry_multiplicity
 _atom_site_fract_x
 _atom_site_fract_y
 _atom_site_fract_z
 _atom_site_occupancy
  Co  Co0  1  0.16351400  0.32702800  0.25000000  1
  Co  Co1  1  0.67297200  0.83648600  0.25000000  1
  Co  Co2  1  0.16351400  0.83648600  0.25000000  1
  Co  Co3  1  0.83648600  0.67297200  0.75000000  1
  Co  Co4  1  0.32702800  0.16351400  0.75000000  1
  Co  Co5  1  0.83648600  0.16351400  0.75000000  1
  Ru  Ru0  1  0.33333300  0.66666700  0.75000000  1
  Ru  Ru1  1  0.66666700  0.33333300  0.25000000  1
loop_
_geom_bond_atom_site_label_1
_geom_bond_atom_site_label_2
_geom_bond_distance
_geom_bond_site_symmetry_2
Co0 Co5 2.500455 1_454
Co0 Co5 2.500455 1_455
Co0 Co4 2.500455 1_555
Co0 Co4 2.500455 1_554
Co0 Co1 2.506970 1_445
Co0 Co2 2.506970 1_545
Co0 Ru0 2.533173 1_555
Co0 Ru0 2.533173 1_554
Co0 Ru1 2.555456 1_455
Co0 Ru1 2.555461 1_555
Co0 Co1 2.603642 1_555
Co0 Co2 2.603642 1_555
Co1 Co5 2.500455 1_564
Co1 Co5 2.500455 1_565
Co1 Co3 2.500455 1_554
Co1 Co3 2.500455 1_555
Co1 Co2 2.506970 1_655
Co1 Ru0 2.533173 1_555
Co1 Ru0 2.533173 1_554
Co1 Ru1 2.555456 1_565
Co1 Ru1 2.555461 1_555
Co1 Co2 2.603642 1_555
Co2 Co3 2.500455 1_455
Co2 Co4 2.500455 1_565
Co2 Co4 2.500455 1_564
Co2 Co3 2.500455 1_454
Co2 Ru0 2.533170 1_555
Co2 Ru0 2.533170 1_554
Co2 Ru1 2.555458 1_455
Co2 Ru1 2.555458 1_565
Co3 Co4 2.506970 1_665
Co3 Co5 2.506970 1_565
Co3 Ru1 2.533173 1_555
Co3 Ru1 2.533173 1_556
Co3 Ru0 2.555456 1_655
Co3 Ru0 2.555461 1_555
Co3 Co4 2.603642 1_555
Co3 Co5 2.603642 1_555
Co4 Co5 2.506970 1_455
Co4 Ru1 2.533173 1_555
Co4 Ru1 2.533173 1_556
Co4 Ru0 2.555456 1_545
Co4 Ru0 2.555461 1_555
Co4 Co5 2.603642 1_555
Co5 Ru1 2.533170 1_556
Co5 Ru1 2.533170 1_555
Co5 Ru0 2.555458 1_545
Co5 Ru0 2.555458 1_655
