# generated using pymatgen
data_Rb2LiFe(CN)6
_symmetry_space_group_name_H-M   'P 1'
_cell_length_a   7.47994800
_cell_length_b   7.27682600
_cell_length_c   12.64407843
_cell_angle_alpha   55.08476750
_cell_angle_beta   90.00000000
_cell_angle_gamma   90.00000000
_symmetry_Int_Tables_number   1
_chemical_formula_structural   Rb2LiFe(CN)6
_chemical_formula_sum   'Rb4 Li2 Fe2 C12 N12'
_cell_volume   564.34081859
_cell_formula_units_Z   2
loop_
 _symmetry_equiv_pos_site_id
 _symmetry_equiv_pos_as_xyz
  1  'x, y, z'
loop_
 _atom_site_type_symbol
 _atom_site_label
 _atom_site_symmetry_multiplicity
 _atom_site_fract_x
 _atom_site_fract_y
 _atom_site_fract_z
 _atom_site_occupancy
  Rb  Rb0  1  0.55535700  0.73572600  0.25126900  1
  Rb  Rb1  1  0.05535700  0.26427400  0.24873100  1
  Rb  Rb2  1  0.44464300  0.26427400  0.74873100  1
  Rb  Rb3  1  0.94464300  0.73572600  0.75126900  1
  Li  Li0  1  0.00000000  0.50000000  0.50000000  1
  Li  Li1  1  0.50000000  0.50000000  0.00000000  1
  Fe  Fe0  1  0.50000000  0.00000000  0.50000000  1
  Fe  Fe1  1  0.00000000  0.00000000  0.00000000  1
  C  C0  1  0.85556000  0.76367100  0.02226800  1
  C  C1  1  0.64444000  0.76367100  0.52226800  1
  C  C2  1  0.14444000  0.23632900  0.97773200  1
  C  C3  1  0.35556000  0.23632900  0.47773200  1
  C  C4  1  0.29201300  0.82363300  0.53014300  1
  C  C5  1  0.79201300  0.17636700  0.96985700  1
  C  C6  1  0.00714000  0.12873000  0.81952800  1
  C  C7  1  0.50714000  0.87127000  0.68047200  1
  C  C8  1  0.99286000  0.87127000  0.18047200  1
  C  C9  1  0.49286000  0.12873000  0.31952800  1
  C  C10  1  0.20798700  0.82363300  0.03014300  1
  C  C11  1  0.70798700  0.17636700  0.46985700  1
  N  N0  1  0.98572900  0.78865200  0.29212700  1
  N  N1  1  0.48572900  0.21134800  0.20787300  1
  N  N2  1  0.16384900  0.71519600  0.54830700  1
  N  N3  1  0.33615100  0.71519600  0.04830700  1
  N  N4  1  0.83615100  0.28480400  0.45169300  1
  N  N5  1  0.66384900  0.28480400  0.95169300  1
  N  N6  1  0.23559100  0.38110000  0.96321900  1
  N  N7  1  0.73559100  0.61890000  0.53678100  1
  N  N8  1  0.76440900  0.61890000  0.03678100  1
  N  N9  1  0.26440900  0.38110000  0.46321900  1
  N  N10  1  0.01427100  0.21134800  0.70787300  1
  N  N11  1  0.51427100  0.78865200  0.79212700  1
loop_
_geom_bond_atom_site_label_1
_geom_bond_atom_site_label_2
_geom_bond_distance
_geom_bond_site_symmetry_2
Li0 N10 2.238716 1_555
Li0 N0 2.238716 1_455
Li0 N7 2.310205 1_455
Li0 N9 2.310205 1_555
Li0 N4 2.328564 1_455
Li0 N2 2.328564 1_555
Li1 N11 2.238716 1_554
Li1 N1 2.238716 1_555
Li1 N6 2.310205 1_554
Li1 N8 2.310205 1_555
Li1 N5 2.328564 1_554
Li1 N3 2.328564 1_555
C0 N8 1.177728 1_555
C0 Fe1 1.910424 1_665
C1 N7 1.177728 1_555
C1 Fe0 1.910424 1_565
C2 N6 1.177728 1_555
C2 Fe1 1.910424 1_556
C3 N9 1.177728 1_555
C3 Fe0 1.910424 1_555
C4 N2 1.177695 1_555
C4 Fe0 1.911210 1_565
C5 N5 1.177695 1_555
C5 Fe1 1.911210 1_656
C6 N10 1.177199 1_555
C6 Fe1 1.908008 1_556
C7 N11 1.177199 1_555
C7 Fe0 1.908008 1_565
C8 N0 1.177199 1_555
C8 Fe1 1.908008 1_665
C9 N1 1.177199 1_555
C9 Fe0 1.908008 1_555
C10 N3 1.177695 1_555
C10 Fe1 1.911210 1_565
C11 N4 1.177695 1_555
C11 Fe0 1.911210 1_555
N0 Rb1 3.221343 1_665
N1 Rb0 3.221343 1_545
N2 Rb3 3.120155 1_455
N3 Rb0 3.120155 1_555
N4 Rb1 3.120155 1_655
N5 Rb2 3.120155 1_555
N6 Rb3 3.265090 1_455
N7 Rb2 3.265090 1_555
N8 Rb1 3.265090 1_655
N9 Rb0 3.265090 1_555
N10 Rb3 3.221343 1_445
N11 Rb2 3.221343 1_565
