# generated using pymatgen
data_MgSi2
_symmetry_space_group_name_H-M   'P 1'
_cell_length_a   5.24910200
_cell_length_b   5.68166862
_cell_length_c   8.87108715
_cell_angle_alpha   92.87450435
_cell_angle_beta   103.11095179
_cell_angle_gamma   116.66218429
_symmetry_Int_Tables_number   1
_chemical_formula_structural   MgSi2
_chemical_formula_sum   'Mg4 Si8'
_cell_volume   226.73714294
_cell_formula_units_Z   4
loop_
 _symmetry_equiv_pos_site_id
 _symmetry_equiv_pos_as_xyz
  1  'x, y, z'
loop_
 _atom_site_type_symbol
 _atom_site_label
 _atom_site_symmetry_multiplicity
 _atom_site_fract_x
 _atom_site_fract_y
 _atom_site_fract_z
 _atom_site_occupancy
  Mg  Mg0  1  0.56470800  0.15396100  0.77381600  1
  Mg  Mg1  1  0.26488900  0.91530200  0.27066100  1
  Mg  Mg2  1  0.56845900  0.50465500  0.22766000  1
  Mg  Mg3  1  0.03355900  0.58354000  0.56094000  1
  Si  Si0  1  0.69278100  0.04833100  0.11473300  1
  Si  Si1  1  0.73022000  0.70957200  0.95176800  1
  Si  Si2  1  0.59732900  0.82295200  0.53697800  1
  Si  Si3  1  0.91508000  0.06695800  0.38416200  1
  Si  Si4  1  0.20367400  0.43072100  0.83861600  1
  Si  Si5  1  0.01295600  0.46929700  0.05866100  1
  Si  Si6  1  0.43086900  0.34426700  0.50762500  1
  Si  Si7  1  0.98547600  0.94967400  0.77461200  1
loop_
_geom_bond_atom_site_label_1
_geom_bond_atom_site_label_2
_geom_bond_distance
_geom_bond_site_symmetry_2
Mg0 Si6 2.724716 1_555
Mg0 Si7 2.726718 1_445
Mg0 Si2 2.834864 1_545
Mg0 Si5 2.862965 1_656
Mg0 Si4 2.890294 1_655
Mg0 Si7 2.918878 1_545
Mg0 Si4 3.077737 1_555
Mg0 Si0 3.095206 1_556
Mg0 Si1 3.103036 1_555
Mg1 Si5 2.663341 1_555
Mg1 Si3 2.701758 1_465
Mg1 Si0 2.742299 1_565
Mg1 Si6 2.804941 1_565
Mg1 Si2 2.824465 1_555
Mg1 Si3 3.019773 1_565
Mg1 Si1 3.219942 1_454
Mg2 Si6 2.823183 1_555
Mg2 Si5 2.872495 1_555
Mg2 Si1 2.899647 1_554
Mg2 Si3 2.938902 1_565
Mg2 Si0 3.115438 1_555
Mg2 Si5 3.115964 1_655
Mg2 Si0 3.125560 1_565
Mg2 Si2 3.144938 1_555
Mg3 Si2 2.711941 1_555
Mg3 Si6 2.734413 1_455
Mg3 Si4 2.744352 1_555
Mg3 Si7 2.876950 1_455
Mg3 Si3 2.986352 1_455
Mg3 Si6 3.057569 1_555
Mg3 Si2 3.121262 1_455
Si0 Si5 2.384044 1_655
Si0 Si3 2.384117 1_555
Si0 Si1 2.454060 1_544
Si1 Si7 2.378230 1_555
Si1 Si4 2.410132 1_555
Si1 Si5 2.505018 1_656
Si2 Si3 2.383436 1_565
Si2 Si7 2.386663 1_555
Si2 Si6 2.433356 1_555
Si3 Si6 2.380227 1_655
Si4 Si7 2.417483 1_445
Si4 Si5 2.429251 1_556
