# generated using pymatgen
data_Te2W2SeS
_symmetry_space_group_name_H-M   'P 1'
_cell_length_a   3.39626632
_cell_length_b   3.39626632
_cell_length_c   38.82675200
_cell_angle_alpha   90.00000000
_cell_angle_beta   90.00000000
_cell_angle_gamma   120.00000617
_symmetry_Int_Tables_number   1
_chemical_formula_structural   Te2W2SeS
_chemical_formula_sum   'Te4 W4 Se2 S2'
_cell_volume   387.85120253
_cell_formula_units_Z   2
loop_
 _symmetry_equiv_pos_site_id
 _symmetry_equiv_pos_as_xyz
  1  'x, y, z'
loop_
 _atom_site_type_symbol
 _atom_site_label
 _atom_site_symmetry_multiplicity
 _atom_site_fract_x
 _atom_site_fract_y
 _atom_site_fract_z
 _atom_site_occupancy
  Te  Te0  1  0.00000000  0.00000000  0.33029700  1
  Te  Te1  1  0.00000000  0.00000000  0.70600700  1
  Te  Te2  1  0.00000000  0.00000000  0.23334100  1
  Te  Te3  1  0.00000000  0.00000000  0.60904500  1
  W  W0  1  0.00000000  0.00000000  0.09389500  1
  W  W1  1  0.00000000  0.00000000  0.46966400  1
  W  W2  1  0.33333300  0.66666700  0.28179700  1
  W  W3  1  0.33333300  0.66666700  0.65755200  1
  Se  Se0  1  0.33333300  0.66666700  0.05132100  1
  Se  Se1  1  0.33333300  0.66666700  0.13650000  1
  S  S0  1  0.33333300  0.66666700  0.43084600  1
  S  S1  1  0.33333300  0.66666700  0.50848400  1
loop_
_geom_bond_atom_site_label_1
_geom_bond_atom_site_label_2
_geom_bond_distance
_geom_bond_site_symmetry_2
Te0 W2 2.718625 1_545
Te0 W2 2.718627 1_555
Te0 W2 2.718627 1_445
Te1 W3 2.717415 1_545
Te1 W3 2.717417 1_445
Te1 W3 2.717417 1_555
Te2 W2 2.717442 1_545
Te2 W2 2.717444 1_555
Te2 W2 2.717444 1_445
Te3 W3 2.718814 1_545
Te3 W3 2.718816 1_555
Te3 W3 2.718816 1_445
Se0 W0 2.564627 1_565
Se0 W0 2.564629 1_665
Se0 W0 2.564629 1_555
Se1 W0 2.565403 1_565
Se1 W0 2.565405 1_555
Se1 W0 2.565405 1_665
S0 W1 2.473146 1_565
S0 W1 2.473148 1_555
S0 W1 2.473148 1_665
S1 W1 2.473193 1_565
S1 W1 2.473195 1_665
S1 W1 2.473195 1_555
