# generated using pymatgen
data_SmIn2Pd
_symmetry_space_group_name_H-M   'P 1'
_cell_length_a   10.88954939
_cell_length_b   10.88952726
_cell_length_c   10.89218568
_cell_angle_alpha   100.31330036
_cell_angle_beta   100.31356326
_cell_angle_gamma   129.93286322
_symmetry_Int_Tables_number   1
_chemical_formula_structural   SmIn2Pd
_chemical_formula_sum   'Sm10 In20 Pd10'
_cell_volume   897.39416077
_cell_formula_units_Z   10
loop_
 _symmetry_equiv_pos_site_id
 _symmetry_equiv_pos_as_xyz
  1  'x, y, z'
loop_
 _atom_site_type_symbol
 _atom_site_label
 _atom_site_symmetry_multiplicity
 _atom_site_fract_x
 _atom_site_fract_y
 _atom_site_fract_z
 _atom_site_occupancy
  Sm  Sm0  1  0.89049620  0.61093400  0.27948163  1
  Sm  Sm1  1  0.33177070  0.61104951  0.72074636  1
  Sm  Sm2  1  0.61104808  0.33176920  0.72074387  1
  Sm  Sm3  1  0.61093246  0.89049742  0.27948035  1
  Sm  Sm4  1  0.92266309  0.32719272  0.00005796  1
  Sm  Sm5  1  0.32719311  0.92266125  0.00005867  1
  Sm  Sm6  1  0.32716450  0.32716447  0.40453244  1
  Sm  Sm7  1  0.92276598  0.92276646  0.59536975  1
  Sm  Sm8  1  0.53731586  0.53731633  0.99987751  1
  Sm  Sm9  1  0.00605507  0.00605262  0.99994224  1
  In  In0  1  0.01586976  0.52297493  0.78961086  1
  In  In1  1  0.73310386  0.22592845  0.21027679  1
  In  In2  1  0.52315423  0.73327767  0.50734406  1
  In  In3  1  0.01571143  0.22616509  0.49266500  1
  In  In4  1  0.22616430  0.01571104  0.49266554  1
  In  In5  1  0.73327670  0.52315527  0.50734290  1
  In  In6  1  0.52297443  0.01586883  0.78961109  1
  In  In7  1  0.22592960  0.73310464  0.21027728  1
  In  In8  1  0.51765898  0.13479941  0.38289657  1
  In  In9  1  0.75169316  0.13463120  0.61699161  1
  In  In10  1  0.13463110  0.75169311  0.61699190  1
  In  In11  1  0.13480021  0.51766036  0.38289763  1
  In  In12  1  0.91115696  0.64547518  0.00005172  1
  In  In13  1  0.64547379  0.91115331  0.00005145  1
  In  In14  1  0.64558398  0.64558376  0.73453925  1
  In  In15  1  0.91062432  0.91062463  0.26533541  1
  In  In16  1  0.44341420  0.28058573  0.16295296  1
  In  In17  1  0.11758209  0.28042721  0.83707858  1
  In  In18  1  0.28042935  0.11758299  0.83707996  1
  In  In19  1  0.28058230  0.44341099  0.16295276  1
  Pd  Pd0  1  0.88243341  0.38254601  0.49994490  1
  Pd  Pd1  1  0.38254656  0.88243513  0.49994588  1
  Pd  Pd2  1  0.30380820  0.62467721  0.00002699  1
  Pd  Pd3  1  0.62468731  0.30381490  0.00002598  1
  Pd  Pd4  1  0.62492182  0.62493163  0.32109443  1
  Pd  Pd5  1  0.30353895  0.30353937  0.67875399  1
  Pd  Pd6  1  0.18858403  0.97192996  0.21678804  1
  Pd  Pd7  1  0.75522691  0.97200066  0.78336300  1
  Pd  Pd8  1  0.97200480  0.75522898  0.78336872  1
  Pd  Pd9  1  0.97193022  0.18858035  0.21678495  1
loop_
_geom_bond_atom_site_label_1
_geom_bond_atom_site_label_2
_geom_bond_distance
_geom_bond_site_symmetry_2
In0 Pd0 2.860547 1_455
In0 Pd8 2.868831 1_455
In0 Pd2 2.893225 1_556
In0 In9 3.048408 1_455
In0 In10 3.134207 1_555
In0 In12 3.182374 1_456
In0 Sm1 3.203463 1_555
In0 Sm5 3.223889 1_556
In0 Sm4 3.261095 1_456
In0 Sm2 3.287026 1_455
In0 In17 3.536907 1_555
In1 Pd0 2.860689 1_555
In1 Pd9 2.869899 1_555
In1 Pd3 2.893190 1_555
In1 In8 3.046778 1_555
In1 In11 3.136602 1_655
In1 In13 3.179838 1_545
In1 Sm0 3.203750 1_555
In1 Sm4 3.224004 1_555
In1 Sm5 3.258158 1_545
In1 Sm3 3.284302 1_545
In1 In16 3.536863 1_555
In2 Pd1 2.860865 1_555
In2 Pd7 2.868845 1_555
In2 Pd4 2.891737 1_555
In2 In9 3.134452 1_565
In2 Sm3 3.205441 1_555
In2 Sm7 3.222372 1_555
In2 Sm6 3.258924 1_555
In2 Sm1 3.286205 1_555
In3 Pd0 2.859774 1_455
In3 Pd9 2.867160 1_455
In3 Pd5 2.892335 1_555
In3 In9 3.048222 1_455
In3 Sm1 3.205489 1_555
In3 Sm6 3.223212 1_555
In3 Sm7 3.259955 1_445
In3 Sm3 3.285410 1_445
In4 Pd1 2.859767 1_545
In4 Pd6 2.867140 1_545
In4 Pd5 2.892339 1_555
In4 In8 3.133153 1_555
In4 Sm2 3.205474 1_555
In4 Sm6 3.223206 1_555
In4 Sm7 3.259961 1_445
In4 Sm0 3.285397 1_445
In5 Pd0 2.860874 1_555
In5 Pd8 2.868909 1_555
In5 Pd4 2.891845 1_555
In5 In8 3.048817 1_555
In5 Sm0 3.205420 1_555
In5 Sm7 3.222359 1_555
In5 Sm6 3.258917 1_555
In5 Sm2 3.286203 1_555
In6 Pd1 2.860540 1_545
In6 Pd7 2.868854 1_545
In6 Pd3 2.893225 1_556
In6 In9 3.134222 1_555
In6 Sm2 3.203465 1_555
In6 Sm4 3.223901 1_556
In6 Sm5 3.261101 1_546
In6 Sm1 3.287006 1_545
In7 Pd1 2.860693 1_555
In7 Pd6 2.869860 1_555
In7 Pd2 2.893187 1_555
In7 In8 3.136586 1_565
In7 Sm3 3.203729 1_555
In7 Sm5 3.223981 1_555
In7 Sm4 3.258168 1_455
In7 Sm0 3.284342 1_455
In8 Pd6 2.762375 1_545
In8 Pd0 2.807115 1_555
In8 Pd1 2.842149 1_545
In8 In9 3.267620 1_555
In8 Sm3 3.490484 1_545
In8 Sm2 3.494277 1_555
In9 Pd7 2.762847 1_545
In9 Pd0 2.808662 1_555
In9 Pd1 2.839963 1_545
In9 Sm3 3.490459 1_545
In9 Sm2 3.493315 1_555
In10 Pd8 2.762872 1_455
In10 Pd1 2.808667 1_555
In10 Pd0 2.839964 1_455
In10 In4 3.048210 1_565
In10 In6 3.048408 1_565
In10 In5 3.134466 1_455
In10 In11 3.267617 1_555
In10 In18 3.352428 1_565
In10 Sm0 3.490455 1_455
In10 Sm1 3.493318 1_555
In11 Pd9 2.762428 1_455
In11 Pd1 2.807115 1_555
In11 Pd0 2.842159 1_455
In11 In7 3.046772 1_555
In11 In2 3.048806 1_555
In11 In3 3.133137 1_555
In11 In19 3.351002 1_555
In11 Sm0 3.490502 1_455
In11 Sm1 3.494289 1_555
In12 Pd8 2.826855 1_554
In12 Pd6 2.826906 1_655
In12 Pd3 2.945021 1_555
In12 Sm2 3.161008 1_554
In12 Sm0 3.162607 1_555
In12 In7 3.179820 1_655
In12 Sm9 3.358339 1_664
In12 Sm8 3.435250 1_554
In12 Sm5 3.475657 1_655
In12 Sm4 3.547685 1_555
In13 Pd9 2.826901 1_565
In13 Pd7 2.826910 1_554
In13 Pd2 2.945081 1_555
In13 Sm1 3.160973 1_554
In13 Sm3 3.162588 1_555
In13 In6 3.182379 1_564
In13 Sm9 3.358382 1_664
In13 Sm8 3.435203 1_554
In13 Sm4 3.475680 1_565
In13 Sm5 3.547687 1_555
In14 Pd7 2.826746 1_555
In14 Pd8 2.826775 1_555
In14 Pd5 2.947016 1_555
In14 Sm2 3.160368 1_555
In14 Sm1 3.160375 1_555
In14 In2 3.180014 1_555
In14 In5 3.180016 1_555
In14 Sm9 3.356539 1_665
In14 Sm8 3.433432 1_555
In14 Sm7 3.478463 1_555
In14 Sm6 3.550490 1_555
In15 Pd9 2.827070 1_565
In15 Pd6 2.827108 1_655
In15 Pd4 2.941823 1_555
In15 Sm0 3.161643 1_555
In15 Sm3 3.161667 1_555
In15 In3 3.184085 1_665
In15 In4 3.184086 1_665
In15 Sm9 3.358705 1_664
In15 Sm8 3.432017 1_554
In15 Sm6 3.479908 1_665
In15 Sm7 3.548901 1_555
In16 Pd3 2.807840 1_555
In16 Pd4 2.808535 1_555
In16 Pd6 2.942103 1_545
In16 Sm6 3.212917 1_555
In16 In19 3.213121 1_555
In16 Sm5 3.213787 1_545
In16 In18 3.216120 1_554
In16 Sm8 3.282519 1_554
In16 In8 3.350996 1_555
In16 Sm9 3.400814 1_554
In16 Sm0 3.452979 1_555
In16 In5 3.538431 1_555
In17 Pd2 2.808013 1_556
In17 Pd5 2.808800 1_555
In17 Pd7 2.940885 1_445
In17 Sm7 3.212832 1_445
In17 In18 3.213460 1_555
In17 Sm4 3.213910 1_456
In17 In19 3.216131 1_556
In17 Sm8 3.281523 1_555
In17 In9 3.352425 1_455
In17 Sm9 3.399956 1_555
In17 Sm1 3.452436 1_555
In17 In3 3.539428 1_555
In18 Pd3 2.808058 1_556
In18 Pd5 2.808807 1_555
In18 Pd8 2.940881 1_445
In18 Sm7 3.212856 1_445
In18 Sm5 3.213912 1_546
In18 Sm8 3.281518 1_555
In18 Sm9 3.399947 1_555
In18 Sm2 3.452443 1_555
In18 In6 3.536903 1_555
In18 In4 3.539432 1_555
In19 Pd2 2.807774 1_555
In19 Pd4 2.808447 1_555
In19 Pd9 2.942067 1_455
In19 Sm6 3.212899 1_555
In19 Sm4 3.213755 1_455
In19 Sm8 3.282545 1_554
In19 Sm9 3.400811 1_554
In19 Sm3 3.453010 1_555
In19 In7 3.536865 1_555
In19 In2 3.538453 1_555
Pd2 Sm5 3.087558 1_555
Pd2 Sm1 3.097807 1_554
Pd2 Sm3 3.098567 1_555
Pd2 Sm4 3.234308 1_455
Pd2 Sm8 3.236851 1_554
Pd3 Sm4 3.087520 1_555
Pd3 Sm2 3.097785 1_554
Pd3 Sm0 3.098558 1_555
Pd3 Sm5 3.234390 1_545
Pd3 Sm8 3.236872 1_554
Pd4 Sm7 3.085475 1_555
Pd4 Sm3 3.098685 1_555
Pd4 Sm0 3.098837 1_555
Pd4 Sm6 3.235192 1_555
Pd4 Sm8 3.240798 1_554
Pd5 Sm6 3.085305 1_555
Pd5 Sm1 3.097858 1_555
Pd5 Sm2 3.097866 1_555
Pd5 Sm7 3.231400 1_445
Pd5 Sm8 3.240240 1_555
Pd6 Sm9 3.041205 1_564
Pd6 Sm6 3.160929 1_565
Pd6 Sm5 3.162402 1_555
Pd6 Sm0 3.439443 1_455
Pd7 Sm9 3.040129 1_665
Pd7 Sm4 3.161077 1_566
Pd7 Sm7 3.163728 1_555
Pd7 Sm1 3.438587 1_555
Pd8 Sm9 3.040074 1_665
Pd8 Sm5 3.161039 1_656
Pd8 Sm7 3.163771 1_555
Pd8 Sm2 3.438600 1_555
Pd9 Sm9 3.041197 1_654
Pd9 Sm6 3.160922 1_655
Pd9 Sm4 3.162392 1_555
Pd9 Sm3 3.439456 1_545
