# generated using pymatgen
data_Ca2GePd2
_symmetry_space_group_name_H-M   'P 1'
_cell_length_a   9.21190934
_cell_length_b   8.22891636
_cell_length_c   5.71296801
_cell_angle_alpha   80.51513002
_cell_angle_beta   61.77280061
_cell_angle_gamma   37.71206936
_symmetry_Int_Tables_number   1
_chemical_formula_structural   Ca2GePd2
_chemical_formula_sum   'Ca4 Ge2 Pd4'
_cell_volume   215.06828879
_cell_formula_units_Z   2
loop_
 _symmetry_equiv_pos_site_id
 _symmetry_equiv_pos_as_xyz
  1  'x, y, z'
loop_
 _atom_site_type_symbol
 _atom_site_label
 _atom_site_symmetry_multiplicity
 _atom_site_fract_x
 _atom_site_fract_y
 _atom_site_fract_z
 _atom_site_occupancy
  Ca  Ca0  1  0.03270542  0.06024965  0.63568713  1
  Ca  Ca1  1  0.27135680  0.63568713  0.06024965  1
  Ca  Ca2  1  0.61431287  0.97864320  0.21729458  1
  Ca  Ca3  1  0.18975035  0.21729458  0.97864320  1
  Ge  Ge0  1  0.89198646  0.60801354  0.60801354  1
  Ge  Ge1  1  0.64198646  0.35801354  0.35801354  1
  Pd  Pd0  1  0.61537805  0.63254180  0.06264588  1
  Pd  Pd1  1  0.68943327  0.06264588  0.63254180  1
  Pd  Pd2  1  0.18735412  0.56056673  0.63462195  1
  Pd  Pd3  1  0.61745820  0.63462195  0.56056673  1
loop_
_geom_bond_atom_site_label_1
_geom_bond_atom_site_label_2
_geom_bond_distance
_geom_bond_site_symmetry_2
Ca0 Pd0 3.029469 1_456
Ca0 Pd0 3.033298 1_545
Ca0 Pd3 3.071596 1_455
Ca0 Pd2 3.109466 1_545
Ca0 Pd3 3.150526 1_545
Ca0 Pd1 3.155178 1_455
Ca0 Ge1 3.270172 1_545
Ca0 Ge1 3.364012 1_456
Ca0 Ge1 3.411943 1_455
Ca0 Ge0 3.568916 1_455
Ca1 Pd1 3.029469 1_465
Ca1 Pd1 3.033298 1_554
Ca1 Pd2 3.071597 1_555
Ca1 Pd3 3.109477 1_554
Ca1 Pd2 3.150512 1_554
Ca1 Pd0 3.155178 1_555
Ca1 Ge1 3.270171 1_554
Ca1 Ge1 3.364011 1_465
Ca1 Ge1 3.411950 1_555
Ca1 Ge0 3.568910 1_455
Ca2 Pd2 3.029469 1_565
Ca2 Pd2 3.033298 1_654
Ca2 Pd1 3.071587 1_565
Ca2 Pd0 3.109482 1_555
Ca2 Pd1 3.150522 1_564
Ca2 Pd3 3.155178 1_555
Ca2 Ge0 3.270176 1_554
Ca2 Ge0 3.364011 1_465
Ca2 Ge0 3.411945 1_555
Ca2 Ge1 3.568908 1_565
Ca3 Pd3 3.029469 1_456
Ca3 Pd3 3.033298 1_545
Ca3 Pd0 3.071601 1_456
Ca3 Pd1 3.109466 1_555
Ca3 Pd0 3.150520 1_546
Ca3 Pd2 3.155178 1_555
Ca3 Ge0 3.270172 1_545
Ca3 Ge0 3.364007 1_456
Ca3 Ge0 3.411948 1_455
Ca3 Ge1 3.568916 1_456
Ge0 Pd3 2.503931 1_555
Ge0 Pd2 2.503941 1_655
Ge0 Pd1 2.525496 1_565
Ge0 Pd0 2.525500 1_556
Ge1 Pd0 2.503935 1_555
Ge1 Pd1 2.503937 1_555
Ge1 Pd2 2.525496 1_555
Ge1 Pd3 2.525503 1_555
