# generated using pymatgen
data_GaPNO5
_symmetry_space_group_name_H-M   'P 1'
_cell_length_a   6.40499000
_cell_length_b   4.73248400
_cell_length_c   6.43415476
_cell_angle_alpha   79.57427849
_cell_angle_beta   90.00000000
_cell_angle_gamma   90.00000000
_symmetry_Int_Tables_number   1
_chemical_formula_structural   GaPNO5
_chemical_formula_sum   'Ga2 P2 N2 O10'
_cell_volume   191.80910022
_cell_formula_units_Z   2
loop_
 _symmetry_equiv_pos_site_id
 _symmetry_equiv_pos_as_xyz
  1  'x, y, z'
loop_
 _atom_site_type_symbol
 _atom_site_label
 _atom_site_symmetry_multiplicity
 _atom_site_fract_x
 _atom_site_fract_y
 _atom_site_fract_z
 _atom_site_occupancy
  Ga  Ga0  1  0.50000000  0.00000000  0.00000000  1
  Ga  Ga1  1  0.00000000  0.00000000  0.00000000  1
  P  P0  1  0.75000000  0.58543000  0.76520200  1
  P  P1  1  0.25000000  0.41457000  0.23479800  1
  N  N0  1  0.25000000  0.12339300  0.60817000  1
  N  N1  1  0.75000000  0.87660700  0.39183000  1
  O  O0  1  0.75000000  0.25654800  0.85833000  1
  O  O1  1  0.25000000  0.74345200  0.14167000  1
  O  O2  1  0.55073100  0.73023800  0.82192600  1
  O  O3  1  0.05073100  0.26976200  0.17807400  1
  O  O4  1  0.44926900  0.26976200  0.17807400  1
  O  O5  1  0.94926900  0.73023800  0.82192600  1
  O  O6  1  0.75000000  0.58319800  0.51393200  1
  O  O7  1  0.25000000  0.41680200  0.48606800  1
  O  O8  1  0.25000000  0.16324600  0.81001400  1
  O  O9  1  0.75000000  0.83675400  0.18998600  1
loop_
_geom_bond_atom_site_label_1
_geom_bond_atom_site_label_2
_geom_bond_distance
_geom_bond_site_symmetry_2
Ga0 O2 1.891441 1_544
Ga0 O4 1.891441 1_555
Ga0 O8 2.076851 1_554
Ga0 O9 2.076851 1_545
Ga0 O1 2.113859 1_545
Ga0 O0 2.113859 1_554
Ga1 O5 1.891441 1_444
Ga1 O3 1.891441 1_555
Ga1 O8 2.076851 1_554
Ga1 O9 2.076851 1_445
Ga1 O1 2.113859 1_545
Ga1 O0 2.113859 1_454
N0 O8 1.345671 1_555
N0 O7 1.466449 1_555
N1 O9 1.345671 1_555
N1 O6 1.466449 1_555
O0 P0 1.563323 1_555
O1 P1 1.563323 1_555
O2 P0 1.523925 1_555
O3 P1 1.523925 1_555
O4 P1 1.523925 1_555
O5 P0 1.523925 1_555
O6 P0 1.618655 1_555
O7 P1 1.618655 1_555
