# generated using pymatgen
data_ZrMnNi
_symmetry_space_group_name_H-M   'P 1'
_cell_length_a   5.00600782
_cell_length_b   5.00600782
_cell_length_c   5.00600782
_cell_angle_alpha   89.85160099
_cell_angle_beta   60.15969645
_cell_angle_gamma   119.98846918
_symmetry_Int_Tables_number   1
_chemical_formula_structural   ZrMnNi
_chemical_formula_sum   'Zr2 Mn2 Ni2'
_cell_volume   88.82162732
_cell_formula_units_Z   2
loop_
 _symmetry_equiv_pos_site_id
 _symmetry_equiv_pos_as_xyz
  1  'x, y, z'
loop_
 _atom_site_type_symbol
 _atom_site_label
 _atom_site_symmetry_multiplicity
 _atom_site_fract_x
 _atom_site_fract_y
 _atom_site_fract_z
 _atom_site_occupancy
  Zr  Zr0  1  0.50000000  0.74871700  0.75128300  1
  Zr  Zr1  1  0.00000000  0.00128300  0.99871700  1
  Mn  Mn0  1  0.75000000  0.37500000  0.87500000  1
  Mn  Mn1  1  0.25000000  0.37500000  0.37500000  1
  Ni  Ni0  1  0.25000000  0.87500000  0.37500000  1
  Ni  Ni1  1  0.75000000  0.37500000  0.37500000  1
loop_
_geom_bond_atom_site_label_1
_geom_bond_atom_site_label_2
_geom_bond_distance
_geom_bond_site_symmetry_2
Zr0 Zr1 3.054146 1_665
Zr0 Zr1 3.054146 1_555
Zr0 Zr1 3.079637 1_565
Zr0 Zr1 3.079637 1_664
Mn0 Ni0 2.503004 1_546
Mn0 Ni0 2.503004 1_655
Mn0 Ni1 2.503004 1_556
Mn0 Ni1 2.503004 1_555
Mn0 Mn1 2.509043 1_655
Mn0 Mn1 2.509043 1_556
Mn0 Zr0 2.925014 1_555
Mn0 Zr1 2.925014 1_655
Mn0 Zr1 2.939091 1_665
Mn0 Zr0 2.939091 1_655
Mn0 Zr1 2.939091 1_555
Mn0 Zr0 2.939091 1_545
Mn1 Ni1 2.503004 1_455
Mn1 Ni0 2.503004 1_555
Mn1 Ni0 2.503004 1_545
Mn1 Ni1 2.503004 1_555
Mn1 Zr1 2.925014 1_555
Mn1 Zr0 2.925014 1_554
Mn1 Zr0 2.939091 1_555
Mn1 Zr1 2.939091 1_664
Mn1 Zr0 2.939091 1_445
Mn1 Zr1 2.939091 1_554
Ni0 Ni1 2.503440 1_455
Ni0 Ni1 2.503440 1_565
Ni0 Zr1 2.937218 1_565
Ni0 Zr0 2.937218 1_455
Ni0 Zr1 2.937218 1_664
Ni0 Zr0 2.937218 1_554
Ni0 Zr0 2.940220 1_555
Ni0 Zr1 2.940220 1_564
Ni1 Zr0 2.937218 1_555
Ni1 Zr1 2.937218 1_555
Ni1 Zr0 2.937218 1_654
Ni1 Zr1 2.937218 1_654
Ni1 Zr1 2.940220 1_664
Ni1 Zr0 2.940220 1_545
