# generated using pymatgen
data_NaMg14Cu
_symmetry_space_group_name_H-M   'P 1'
_cell_length_a   6.38728456
_cell_length_b   6.38728404
_cell_length_c   10.07190571
_cell_angle_alpha   90.00000000
_cell_angle_beta   90.00000000
_cell_angle_gamma   120.00000269
_symmetry_Int_Tables_number   1
_chemical_formula_structural   NaMg14Cu
_chemical_formula_sum   'Na1 Mg14 Cu1'
_cell_volume   355.85638749
_cell_formula_units_Z   1
loop_
 _symmetry_equiv_pos_site_id
 _symmetry_equiv_pos_as_xyz
  1  'x, y, z'
loop_
 _atom_site_type_symbol
 _atom_site_label
 _atom_site_symmetry_multiplicity
 _atom_site_fract_x
 _atom_site_fract_y
 _atom_site_fract_z
 _atom_site_occupancy
  Na  Na0  1  0.16666700  0.33333300  0.62500000  1
  Mg  Mg0  1  0.16205969  0.83102934  0.12500000  1
  Mg  Mg1  1  0.17041181  0.83520540  0.62500000  1
  Mg  Mg2  1  0.66897066  0.33794031  0.12500000  1
  Mg  Mg3  1  0.66479460  0.32958819  0.62500000  1
  Mg  Mg4  1  0.66897066  0.83102934  0.12500000  1
  Mg  Mg5  1  0.66479460  0.83520540  0.62500000  1
  Mg  Mg6  1  0.33026586  0.16973414  0.36158698  1
  Mg  Mg7  1  0.33026586  0.16973414  0.88841302  1
  Mg  Mg8  1  0.33026586  0.66053271  0.36158698  1
  Mg  Mg9  1  0.33026586  0.66053271  0.88841302  1
  Mg  Mg10  1  0.83946729  0.16973414  0.36158698  1
  Mg  Mg11  1  0.83946729  0.16973414  0.88841302  1
  Mg  Mg12  1  0.83333300  0.66666700  0.37850654  1
  Mg  Mg13  1  0.83333300  0.66666700  0.87149346  1
  Cu  Cu0  1  0.16666700  0.33333300  0.12500000  1
loop_
_geom_bond_atom_site_label_1
_geom_bond_atom_site_label_2
_geom_bond_distance
_geom_bond_site_symmetry_2
Mg0 Mg8 3.031233 1_555
Mg0 Mg9 3.031233 1_554
Mg0 Mg7 3.031240 1_564
Mg0 Mg6 3.031240 1_565
Mg0 Mg13 3.134609 1_454
Mg0 Mg12 3.134609 1_455
Mg0 Mg2 3.149500 1_455
Mg0 Mg4 3.149500 1_455
Mg0 Mg2 3.237784 1_565
Mg0 Mg4 3.237785 1_555
Mg1 Mg12 3.104869 1_455
Mg1 Mg13 3.104869 1_455
Mg1 Mg3 3.157763 1_565
Mg1 Mg5 3.157764 1_555
Mg1 Na0 3.193709 1_555
Mg1 Na0 3.193709 1_565
Mg1 Mg3 3.229521 1_455
Mg1 Mg5 3.229521 1_455
Mg1 Mg9 3.234996 1_555
Mg1 Mg8 3.234996 1_555
Mg1 Mg7 3.235002 1_565
Mg1 Mg6 3.235002 1_565
Mg2 Mg6 3.031240 1_555
Mg2 Mg7 3.031240 1_554
Mg2 Mg4 3.149500 1_555
Mg2 Mg4 3.237784 1_545
Mg3 Mg5 3.157763 1_545
Mg3 Na0 3.193709 1_655
Mg3 Na0 3.193709 1_555
Mg3 Mg5 3.229521 1_555
Mg3 Mg6 3.235002 1_555
Mg3 Mg7 3.235002 1_555
Mg4 Mg8 3.031240 1_555
Mg4 Mg9 3.031240 1_554
Mg5 Na0 3.193709 1_555
Mg5 Na0 3.193709 1_665
Mg5 Mg8 3.235002 1_555
Mg5 Mg9 3.235002 1_555
Mg6 Mg8 3.134870 1_555
Mg6 Na0 3.211629 1_555
Mg6 Mg8 3.252414 1_545
Mg7 Mg9 3.134870 1_555
Mg7 Na0 3.211629 1_555
Mg7 Mg9 3.252414 1_545
Mg8 Na0 3.211635 1_555
Mg9 Na0 3.211635 1_555
Mg10 Mg2 3.031233 1_555
Mg10 Mg4 3.031240 1_545
Mg10 Mg8 3.134870 1_655
Mg10 Mg6 3.134870 1_655
Mg10 Mg12 3.198365 1_545
Mg10 Mg12 3.198365 1_555
Mg10 Na0 3.211636 1_655
Mg10 Mg3 3.234996 1_555
Mg10 Mg5 3.235002 1_545
Mg10 Mg8 3.252414 1_545
Mg10 Mg6 3.252414 1_555
Mg11 Mg2 3.031233 1_556
Mg11 Mg4 3.031240 1_546
Mg11 Mg9 3.134870 1_655
Mg11 Mg7 3.134870 1_655
Mg11 Mg13 3.198365 1_545
Mg11 Mg13 3.198365 1_555
Mg11 Na0 3.211636 1_655
Mg11 Mg3 3.234996 1_555
Mg11 Mg5 3.235002 1_545
Mg11 Mg9 3.252414 1_545
Mg11 Mg7 3.252414 1_555
Mg12 Mg5 3.104862 1_555
Mg12 Mg3 3.104869 1_555
Mg12 Mg4 3.134603 1_555
Mg12 Mg2 3.134609 1_555
Mg12 Mg6 3.198365 1_665
Mg12 Mg6 3.198365 1_555
Mg12 Mg8 3.198366 1_555
Mg12 Mg8 3.198366 1_655
Mg13 Mg5 3.104862 1_555
Mg13 Mg3 3.104869 1_555
Mg13 Mg4 3.134603 1_556
Mg13 Mg2 3.134609 1_556
Mg13 Mg7 3.198365 1_665
Mg13 Mg7 3.198365 1_555
Mg13 Mg9 3.198366 1_555
Mg13 Mg9 3.198366 1_655
Cu0 Mg7 2.992307 1_554
Cu0 Mg6 2.992307 1_555
Cu0 Mg8 2.992314 1_555
Cu0 Mg9 2.992314 1_554
Cu0 Mg10 2.992314 1_455
Cu0 Mg11 2.992314 1_454
Cu0 Mg0 3.193744 1_555
Cu0 Mg4 3.193744 1_445
Cu0 Mg4 3.193744 1_555
Cu0 Mg0 3.193744 1_545
Cu0 Mg2 3.193744 1_455
Cu0 Mg2 3.193744 1_555
