# generated using pymatgen
data_NaHF2
_symmetry_space_group_name_H-M   'P 1'
_cell_length_a   3.82240634
_cell_length_b   3.82240634
_cell_length_c   3.24421977
_cell_angle_alpha   83.94140906
_cell_angle_beta   83.94140906
_cell_angle_gamma   96.94847709
_symmetry_Int_Tables_number   1
_chemical_formula_structural   NaHF2
_chemical_formula_sum   'Na1 H1 F2'
_cell_volume   46.45235147
_cell_formula_units_Z   1
loop_
 _symmetry_equiv_pos_site_id
 _symmetry_equiv_pos_as_xyz
  1  'x, y, z'
loop_
 _atom_site_type_symbol
 _atom_site_label
 _atom_site_symmetry_multiplicity
 _atom_site_fract_x
 _atom_site_fract_y
 _atom_site_fract_z
 _atom_site_occupancy
  Na  Na0  1  0.73724800  0.26275200  0.50000000  1
  H  H0  1  0.09831700  0.90168300  0.00000000  1
  F  F0  1  0.28347400  0.12314100  0.10938000  1
  F  F1  1  0.87685900  0.71652600  0.89062000  1
loop_
_geom_bond_atom_site_label_1
_geom_bond_atom_site_label_2
_geom_bond_distance
_geom_bond_site_symmetry_2
F0 H0 1.146672 1_545
F0 Na0 2.298267 1_555
F0 Na0 2.455846 1_554
F0 Na0 2.470598 1_455
F1 H0 1.146672 1_656
F1 Na0 2.298267 1_555
F1 Na0 2.455846 1_556
F1 Na0 2.470598 1_565
