# generated using pymatgen
data_Ho3Ni13B2
_symmetry_space_group_name_H-M   'P 1'
_cell_length_a   4.90637900
_cell_length_b   4.90637938
_cell_length_c   10.86537300
_cell_angle_alpha   90.00000000
_cell_angle_beta   90.00000000
_cell_angle_gamma   120.00000421
_symmetry_Int_Tables_number   1
_chemical_formula_structural   Ho3Ni13B2
_chemical_formula_sum   'Ho3 Ni13 B2'
_cell_volume   226.51526367
_cell_formula_units_Z   1
loop_
 _symmetry_equiv_pos_site_id
 _symmetry_equiv_pos_as_xyz
  1  'x, y, z'
loop_
 _atom_site_type_symbol
 _atom_site_label
 _atom_site_symmetry_multiplicity
 _atom_site_fract_x
 _atom_site_fract_y
 _atom_site_fract_z
 _atom_site_occupancy
  Ho  Ho0  1  0.00000000  0.00000000  0.00000000  1
  Ho  Ho1  1  0.00000000  0.00000000  0.67054200  1
  Ho  Ho2  1  0.00000000  0.00000000  0.32945800  1
  Ni  Ni0  1  0.50000000  0.50000000  0.50000000  1
  Ni  Ni1  1  0.50000000  0.00000000  0.50000000  1
  Ni  Ni2  1  0.00000000  0.50000000  0.50000000  1
  Ni  Ni3  1  0.66666700  0.33333300  0.68085400  1
  Ni  Ni4  1  0.33333300  0.66666700  0.68085400  1
  Ni  Ni5  1  0.33333300  0.66666700  0.31914600  1
  Ni  Ni6  1  0.66666700  0.33333300  0.31914600  1
  Ni  Ni7  1  0.50000000  0.50000000  0.86583900  1
  Ni  Ni8  1  0.50000000  0.00000000  0.86583900  1
  Ni  Ni9  1  0.00000000  0.50000000  0.86583900  1
  Ni  Ni10  1  0.50000000  0.50000000  0.13416100  1
  Ni  Ni11  1  0.50000000  0.00000000  0.13416100  1
  Ni  Ni12  1  0.00000000  0.50000000  0.13416100  1
  B  B0  1  0.66666700  0.33333300  0.00000000  1
  B  B1  1  0.33333300  0.66666700  0.00000000  1
loop_
_geom_bond_atom_site_label_1
_geom_bond_atom_site_label_2
_geom_bond_distance
_geom_bond_site_symmetry_2
Ho0 Ni7 2.853604 1_444
Ho0 Ni7 2.853604 1_554
Ho0 Ni10 2.853604 1_445
Ho0 Ni10 2.853604 1_555
Ho0 Ni8 2.853604 1_554
Ho0 Ni8 2.853604 1_454
Ho0 Ni11 2.853604 1_455
Ho0 Ni11 2.853604 1_555
Ho0 Ni9 2.853604 1_544
Ho0 Ni12 2.853604 1_555
Ho0 Ni12 2.853604 1_545
Ho0 Ni9 2.853604 1_554
Ho1 Ni4 2.834912 1_545
Ho1 Ni3 2.834912 1_455
Ho1 Ni3 2.834916 1_555
Ho1 Ni4 2.834916 1_445
Ho1 Ni4 2.834916 1_555
Ho1 Ni3 2.834916 1_445
Ho1 Ni0 3.074371 1_555
Ho1 Ni0 3.074371 1_445
Ho1 Ni1 3.074371 1_455
Ho1 Ni1 3.074371 1_555
Ho1 Ni2 3.074371 1_545
Ho1 Ni2 3.074371 1_555
Ho1 Ni7 3.243596 1_555
Ho1 Ni7 3.243596 1_445
Ho1 Ni8 3.243596 1_455
Ho1 Ni8 3.243596 1_555
Ho1 Ni9 3.243596 1_555
Ho1 Ni9 3.243596 1_545
Ho2 Ni5 2.834912 1_545
Ho2 Ni6 2.834912 1_455
Ho2 Ni5 2.834916 1_445
Ho2 Ni6 2.834916 1_555
Ho2 Ni6 2.834916 1_445
Ho2 Ni5 2.834916 1_555
Ho2 Ni0 3.074371 1_555
Ho2 Ni0 3.074371 1_445
Ho2 Ni1 3.074371 1_455
Ho2 Ni1 3.074371 1_555
Ho2 Ni2 3.074371 1_555
Ho2 Ni2 3.074371 1_545
Ho2 Ni10 3.243596 1_445
Ho2 Ni10 3.243596 1_555
Ho2 Ni11 3.243596 1_455
Ho2 Ni11 3.243596 1_555
Ho2 Ni12 3.243596 1_545
Ho2 Ni12 3.243596 1_555
Ni0 Ni4 2.422284 1_555
Ni0 Ni3 2.422284 1_555
Ni0 Ni5 2.422284 1_555
Ni0 Ni6 2.422284 1_555
Ni0 Ni2 2.453190 1_555
Ni0 Ni2 2.453190 1_655
Ni0 Ni1 2.453190 1_555
Ni0 Ni1 2.453190 1_565
Ni1 Ni4 2.422282 1_545
Ni1 Ni3 2.422282 1_555
Ni1 Ni6 2.422282 1_555
Ni1 Ni5 2.422282 1_545
Ni1 Ni2 2.453189 1_655
Ni1 Ni2 2.453189 1_545
Ni2 Ni3 2.422282 1_455
Ni2 Ni4 2.422282 1_555
Ni2 Ni6 2.422282 1_455
Ni2 Ni5 2.422282 1_555
Ni3 Ni9 2.458834 1_655
Ni3 Ni8 2.458834 1_555
Ni3 Ni7 2.458837 1_555
Ni4 Ni9 2.458834 1_555
Ni4 Ni8 2.458834 1_565
Ni4 Ni7 2.458837 1_555
Ni10 Ni5 2.458837 1_555
Ni10 Ni6 2.458837 1_555
Ni11 Ni5 2.458834 1_545
Ni11 Ni6 2.458834 1_555
Ni12 Ni5 2.458834 1_555
Ni12 Ni6 2.458834 1_455
B0 Ni9 2.032476 1_654
B0 Ni12 2.032476 1_655
B0 Ni8 2.032476 1_554
B0 Ni11 2.032476 1_555
B0 Ni7 2.032479 1_554
B0 Ni10 2.032479 1_555
B0 Ho0 2.832697 1_655
B0 Ho0 2.832701 1_555
B0 Ho0 2.832701 1_665
B1 Ni9 2.032476 1_554
B1 Ni12 2.032476 1_555
B1 Ni8 2.032476 1_564
B1 Ni11 2.032476 1_565
B1 Ni7 2.032479 1_554
B1 Ni10 2.032479 1_555
B1 Ho0 2.832697 1_565
B1 Ho0 2.832701 1_665
B1 Ho0 2.832701 1_555
