# generated using pymatgen
data_Mn3InN3
_symmetry_space_group_name_H-M   'P 1'
_cell_length_a   17.46589200
_cell_length_b   17.47898994
_cell_length_c   5.94946800
_cell_angle_alpha   90.00000000
_cell_angle_beta   90.00000000
_cell_angle_gamma   119.96770476
_symmetry_Int_Tables_number   1
_chemical_formula_structural   Mn3InN3
_chemical_formula_sum   'Mn48 In16 N48'
_cell_volume   1573.46507340
_cell_formula_units_Z   16
loop_
 _symmetry_equiv_pos_site_id
 _symmetry_equiv_pos_as_xyz
  1  'x, y, z'
loop_
 _atom_site_type_symbol
 _atom_site_label
 _atom_site_symmetry_multiplicity
 _atom_site_fract_x
 _atom_site_fract_y
 _atom_site_fract_z
 _atom_site_occupancy
  Mn  Mn0_0  1  0.42473600  0.32815500  0.12500000  1
  Mn  Mn0_1  1  0.42473600  0.32815500  0.62500000  1
  Mn  Mn0_2  1  0.42473600  0.82815500  0.12500000  1
  Mn  Mn0_3  1  0.42473600  0.82815500  0.62500000  1
  Mn  Mn0_4  1  0.92473600  0.32815500  0.12500000  1
  Mn  Mn0_5  1  0.92473600  0.32815500  0.62500000  1
  Mn  Mn0_6  1  0.92473600  0.82815500  0.12500000  1
  Mn  Mn0_7  1  0.92473600  0.82815500  0.62500000  1
  Mn  Mn1_0  1  0.40383000  0.07550600  0.12500000  1
  Mn  Mn1_1  1  0.40383000  0.07550600  0.62500000  1
  Mn  Mn1_2  1  0.40383000  0.57550600  0.12500000  1
  Mn  Mn1_3  1  0.40383000  0.57550600  0.62500000  1
  Mn  Mn1_4  1  0.90383000  0.07550600  0.12500000  1
  Mn  Mn1_5  1  0.90383000  0.07550600  0.62500000  1
  Mn  Mn1_6  1  0.90383000  0.57550600  0.12500000  1
  Mn  Mn1_7  1  0.90383000  0.57550600  0.62500000  1
  Mn  Mn2_0  1  0.17146800  0.09609550  0.12500000  1
  Mn  Mn2_1  1  0.17146800  0.09609550  0.62500000  1
  Mn  Mn2_2  1  0.17146800  0.59609550  0.12500000  1
  Mn  Mn2_3  1  0.17146800  0.59609550  0.62500000  1
  Mn  Mn2_4  1  0.67146800  0.09609550  0.12500000  1
  Mn  Mn2_5  1  0.67146800  0.09609550  0.62500000  1
  Mn  Mn2_6  1  0.67146800  0.59609550  0.12500000  1
  Mn  Mn2_7  1  0.67146800  0.59609550  0.62500000  1
  Mn  Mn3_0  1  0.07526400  0.17184500  0.37500000  1
  Mn  Mn3_1  1  0.07526400  0.17184500  0.87500000  1
  Mn  Mn3_2  1  0.07526400  0.67184500  0.37500000  1
  Mn  Mn3_3  1  0.07526400  0.67184500  0.87500000  1
  Mn  Mn3_4  1  0.57526400  0.17184500  0.37500000  1
  Mn  Mn3_5  1  0.57526400  0.17184500  0.87500000  1
  Mn  Mn3_6  1  0.57526400  0.67184500  0.37500000  1
  Mn  Mn3_7  1  0.57526400  0.67184500  0.87500000  1
  Mn  Mn4_0  1  0.09617000  0.42449400  0.37500000  1
  Mn  Mn4_1  1  0.09617000  0.42449400  0.87500000  1
  Mn  Mn4_2  1  0.09617000  0.92449400  0.37500000  1
  Mn  Mn4_3  1  0.09617000  0.92449400  0.87500000  1
  Mn  Mn4_4  1  0.59617000  0.42449400  0.37500000  1
  Mn  Mn4_5  1  0.59617000  0.42449400  0.87500000  1
  Mn  Mn4_6  1  0.59617000  0.92449400  0.37500000  1
  Mn  Mn4_7  1  0.59617000  0.92449400  0.87500000  1
  Mn  Mn5_0  1  0.32853200  0.40390450  0.37500000  1
  Mn  Mn5_1  1  0.32853200  0.40390450  0.87500000  1
  Mn  Mn5_2  1  0.32853200  0.90390450  0.37500000  1
  Mn  Mn5_3  1  0.32853200  0.90390450  0.87500000  1
  Mn  Mn5_4  1  0.82853200  0.40390450  0.37500000  1
  Mn  Mn5_5  1  0.82853200  0.40390450  0.87500000  1
  Mn  Mn5_6  1  0.82853200  0.90390450  0.37500000  1
  Mn  Mn5_7  1  0.82853200  0.90390450  0.87500000  1
  In  In0_0  1  0.33316550  0.16665650  0.37500000  1
  In  In0_1  1  0.33316550  0.16665650  0.87500000  1
  In  In0_2  1  0.33316550  0.66665650  0.37500000  1
  In  In0_3  1  0.33316550  0.66665650  0.87500000  1
  In  In0_4  1  0.83316550  0.16665650  0.37500000  1
  In  In0_5  1  0.83316550  0.16665650  0.87500000  1
  In  In0_6  1  0.83316550  0.66665650  0.37500000  1
  In  In0_7  1  0.83316550  0.66665650  0.87500000  1
  In  In1_0  1  0.16683450  0.33334350  0.12500000  1
  In  In1_1  1  0.16683450  0.33334350  0.62500000  1
  In  In1_2  1  0.16683450  0.83334350  0.12500000  1
  In  In1_3  1  0.16683450  0.83334350  0.62500000  1
  In  In1_4  1  0.66683450  0.33334350  0.12500000  1
  In  In1_5  1  0.66683450  0.33334350  0.62500000  1
  In  In1_6  1  0.66683450  0.83334350  0.12500000  1
  In  In1_7  1  0.66683450  0.83334350  0.62500000  1
  N  N0_0  1  0.48509100  0.33794950  0.37500000  1
  N  N0_1  1  0.48509100  0.33794950  0.87500000  1
  N  N0_2  1  0.48509100  0.83794950  0.37500000  1
  N  N0_3  1  0.48509100  0.83794950  0.87500000  1
  N  N0_4  1  0.98509100  0.33794950  0.37500000  1
  N  N0_5  1  0.98509100  0.33794950  0.87500000  1
  N  N0_6  1  0.98509100  0.83794950  0.37500000  1
  N  N0_7  1  0.98509100  0.83794950  0.87500000  1
  N  N1_0  1  0.35319100  0.01498700  0.37500000  1
  N  N1_1  1  0.35319100  0.01498700  0.87500000  1
  N  N1_2  1  0.35319100  0.51498700  0.37500000  1
  N  N1_3  1  0.35319100  0.51498700  0.87500000  1
  N  N1_4  1  0.85319100  0.01498700  0.37500000  1
  N  N1_5  1  0.85319100  0.01498700  0.87500000  1
  N  N1_6  1  0.85319100  0.51498700  0.37500000  1
  N  N1_7  1  0.85319100  0.51498700  0.87500000  1
  N  N2_0  1  0.16163150  0.14703950  0.37500000  1
  N  N2_1  1  0.16163150  0.14703950  0.87500000  1
  N  N2_2  1  0.16163150  0.64703950  0.37500000  1
  N  N2_3  1  0.16163150  0.64703950  0.87500000  1
  N  N2_4  1  0.66163150  0.14703950  0.37500000  1
  N  N2_5  1  0.66163150  0.14703950  0.87500000  1
  N  N2_6  1  0.66163150  0.64703950  0.37500000  1
  N  N2_7  1  0.66163150  0.64703950  0.87500000  1
  N  N3_0  1  0.01490900  0.16205050  0.12500000  1
  N  N3_1  1  0.01490900  0.16205050  0.62500000  1
  N  N3_2  1  0.01490900  0.66205050  0.12500000  1
  N  N3_3  1  0.01490900  0.66205050  0.62500000  1
  N  N3_4  1  0.51490900  0.16205050  0.12500000  1
  N  N3_5  1  0.51490900  0.16205050  0.62500000  1
  N  N3_6  1  0.51490900  0.66205050  0.12500000  1
  N  N3_7  1  0.51490900  0.66205050  0.62500000  1
  N  N4_0  1  0.14680900  0.48501300  0.12500000  1
  N  N4_1  1  0.14680900  0.48501300  0.62500000  1
  N  N4_2  1  0.14680900  0.98501300  0.12500000  1
  N  N4_3  1  0.14680900  0.98501300  0.62500000  1
  N  N4_4  1  0.64680900  0.48501300  0.12500000  1
  N  N4_5  1  0.64680900  0.48501300  0.62500000  1
  N  N4_6  1  0.64680900  0.98501300  0.12500000  1
  N  N4_7  1  0.64680900  0.98501300  0.62500000  1
  N  N5_0  1  0.33836850  0.35296050  0.12500000  1
  N  N5_1  1  0.33836850  0.35296050  0.62500000  1
  N  N5_2  1  0.33836850  0.85296050  0.12500000  1
  N  N5_3  1  0.33836850  0.85296050  0.62500000  1
  N  N5_4  1  0.83836850  0.35296050  0.12500000  1
  N  N5_5  1  0.83836850  0.35296050  0.62500000  1
  N  N5_6  1  0.83836850  0.85296050  0.12500000  1
  N  N5_7  1  0.83836850  0.85296050  0.62500000  1
loop_
_geom_bond_atom_site_label_1
_geom_bond_atom_site_label_2
_geom_bond_distance
_geom_bond_site_symmetry_2
Mn0_0 N5_0 1.765480 1_555
Mn0_0 N0_1 1.781156 1_554
Mn0_0 N0_0 1.781156 1_555
Mn0_1 N5_1 1.765480 1_555
Mn0_1 N0_0 1.781156 1_555
Mn0_1 N0_1 1.781156 1_555
Mn0_2 N5_2 1.765480 1_555
Mn0_2 N0_2 1.781156 1_555
Mn0_2 N0_3 1.781156 1_554
Mn0_3 N5_3 1.765480 1_555
Mn0_3 N0_2 1.781156 1_555
Mn0_3 N0_3 1.781156 1_555
Mn0_4 N5_4 1.765480 1_555
Mn0_4 N0_4 1.781156 1_555
Mn0_4 N0_5 1.781156 1_554
Mn0_5 N5_5 1.765480 1_555
Mn0_5 N0_4 1.781156 1_555
Mn0_5 N0_5 1.781156 1_555
Mn0_6 N5_6 1.765480 1_555
Mn0_6 N0_7 1.781156 1_554
Mn0_6 N0_6 1.781156 1_555
Mn0_7 N5_7 1.765480 1_555
Mn0_7 N0_6 1.781156 1_555
Mn0_7 N0_7 1.781156 1_555
Mn1_0 N3_4 1.766443 1_555
Mn1_0 N1_0 1.782923 1_555
Mn1_0 N1_1 1.782923 1_554
Mn1_1 N3_5 1.766443 1_555
Mn1_1 N1_0 1.782923 1_555
Mn1_1 N1_1 1.782923 1_555
Mn1_2 N3_6 1.766443 1_555
Mn1_2 N1_3 1.782923 1_554
Mn1_2 N1_2 1.782923 1_555
Mn1_3 N3_7 1.766443 1_555
Mn1_3 N1_2 1.782923 1_555
Mn1_3 N1_3 1.782923 1_555
Mn1_4 N3_0 1.766443 1_655
Mn1_4 N1_5 1.782923 1_554
Mn1_4 N1_4 1.782923 1_555
Mn1_5 N3_1 1.766443 1_655
Mn1_5 N1_4 1.782923 1_555
Mn1_5 N1_5 1.782923 1_555
Mn1_6 N3_2 1.766443 1_655
Mn1_6 N1_7 1.782923 1_554
Mn1_6 N1_6 1.782923 1_555
Mn1_7 N3_3 1.766443 1_655
Mn1_7 N1_6 1.782923 1_555
Mn1_7 N1_7 1.782923 1_555
Mn2_0 N4_2 1.766331 1_545
Mn2_0 N2_1 1.785360 1_554
Mn2_0 N2_0 1.785360 1_555
Mn2_1 N4_3 1.766331 1_545
Mn2_1 N2_0 1.785360 1_555
Mn2_1 N2_1 1.785360 1_555
Mn2_2 N4_0 1.766331 1_555
Mn2_2 N2_3 1.785360 1_554
Mn2_2 N2_2 1.785360 1_555
Mn2_3 N4_1 1.766331 1_555
Mn2_3 N2_2 1.785360 1_555
Mn2_3 N2_3 1.785360 1_555
Mn2_4 N4_6 1.766331 1_545
Mn2_4 N2_5 1.785360 1_554
Mn2_4 N2_4 1.785360 1_555
Mn2_5 N4_7 1.766331 1_545
Mn2_5 N2_4 1.785360 1_555
Mn2_5 N2_5 1.785360 1_555
Mn2_6 N4_4 1.766331 1_555
Mn2_6 N2_6 1.785360 1_555
Mn2_6 N2_7 1.785360 1_554
Mn2_7 N4_5 1.766331 1_555
Mn2_7 N2_6 1.785360 1_555
Mn2_7 N2_7 1.785360 1_555
Mn3_0 N2_0 1.765480 1_555
Mn3_0 N3_1 1.781156 1_555
Mn3_0 N3_0 1.781156 1_555
Mn3_1 N2_1 1.765480 1_555
Mn3_1 N3_0 1.781156 1_556
Mn3_1 N3_1 1.781156 1_555
Mn3_2 N2_2 1.765480 1_555
Mn3_2 N3_3 1.781156 1_555
Mn3_2 N3_2 1.781156 1_555
Mn3_3 N2_3 1.765480 1_555
Mn3_3 N3_2 1.781156 1_556
Mn3_3 N3_3 1.781156 1_555
Mn3_4 N2_4 1.765480 1_555
Mn3_4 N3_5 1.781156 1_555
Mn3_4 N3_4 1.781156 1_555
Mn3_5 N2_5 1.765480 1_555
Mn3_5 N3_4 1.781156 1_556
Mn3_5 N3_5 1.781156 1_555
Mn3_6 N2_6 1.765480 1_555
Mn3_6 N3_7 1.781156 1_555
Mn3_6 N3_6 1.781156 1_555
Mn3_7 N2_7 1.765480 1_555
Mn3_7 N3_6 1.781156 1_556
Mn3_7 N3_7 1.781156 1_555
Mn4_0 N0_4 1.766443 1_455
Mn4_0 N4_1 1.782923 1_555
Mn4_0 N4_0 1.782923 1_555
Mn4_1 N0_5 1.766443 1_455
Mn4_1 N4_0 1.782923 1_556
Mn4_1 N4_1 1.782923 1_555
Mn4_2 N0_6 1.766443 1_455
Mn4_2 N4_3 1.782923 1_555
Mn4_2 N4_2 1.782923 1_555
Mn4_3 N0_7 1.766443 1_455
Mn4_3 N4_2 1.782923 1_556
Mn4_3 N4_3 1.782923 1_555
Mn4_4 N0_0 1.766443 1_555
Mn4_4 N4_5 1.782923 1_555
Mn4_4 N4_4 1.782923 1_555
Mn4_5 N0_1 1.766443 1_555
Mn4_5 N4_4 1.782923 1_556
Mn4_5 N4_5 1.782923 1_555
Mn4_6 N0_2 1.766443 1_555
Mn4_6 N4_7 1.782923 1_555
Mn4_6 N4_6 1.782923 1_555
Mn4_7 N0_3 1.766443 1_555
Mn4_7 N4_6 1.782923 1_556
Mn4_7 N4_7 1.782923 1_555
Mn5_0 N1_2 1.766331 1_555
Mn5_0 N5_1 1.785360 1_555
Mn5_0 N5_0 1.785360 1_555
Mn5_1 N1_3 1.766331 1_555
Mn5_1 N5_0 1.785360 1_556
Mn5_1 N5_1 1.785360 1_555
Mn5_2 N1_0 1.766331 1_565
Mn5_2 N5_3 1.785360 1_555
Mn5_2 N5_2 1.785360 1_555
Mn5_3 N1_1 1.766331 1_565
Mn5_3 N5_2 1.785360 1_556
Mn5_3 N5_3 1.785360 1_555
Mn5_4 N1_6 1.766331 1_555
Mn5_4 N5_5 1.785360 1_555
Mn5_4 N5_4 1.785360 1_555
Mn5_5 N1_7 1.766331 1_555
Mn5_5 N5_4 1.785360 1_556
Mn5_5 N5_5 1.785360 1_555
Mn5_6 N1_4 1.766331 1_565
Mn5_6 N5_7 1.785360 1_555
Mn5_6 N5_6 1.785360 1_555
Mn5_7 N1_5 1.766331 1_565
Mn5_7 N5_6 1.785360 1_556
Mn5_7 N5_7 1.785360 1_555
In0_0 N2_0 2.840295 1_555
In0_0 N0_0 2.840494 1_555
In0_0 N1_0 2.841939 1_555
In0_0 Mn0_1 2.868496 1_555
In0_0 Mn0_0 2.868496 1_555
In0_0 Mn2_1 2.868738 1_555
In0_0 Mn2_0 2.868738 1_555
In0_0 Mn1_1 2.870255 1_555
In0_0 Mn1_0 2.870255 1_555
In0_0 In0_1 2.974734 1_555
In0_0 In0_1 2.974734 1_554
In0_1 N2_1 2.840295 1_555
In0_1 N0_1 2.840494 1_555
In0_1 N1_1 2.841939 1_555
In0_1 Mn0_0 2.868496 1_556
In0_1 Mn0_1 2.868496 1_555
In0_1 Mn2_0 2.868738 1_556
In0_1 Mn2_1 2.868738 1_555
In0_1 Mn1_0 2.870255 1_556
In0_1 Mn1_1 2.870255 1_555
In0_2 N2_2 2.840295 1_555
In0_2 N0_2 2.840494 1_555
In0_2 N1_2 2.841939 1_555
In0_2 Mn0_3 2.868496 1_555
In0_2 Mn0_2 2.868496 1_555
In0_2 Mn2_3 2.868738 1_555
In0_2 Mn2_2 2.868738 1_555
In0_2 Mn1_3 2.870255 1_555
In0_2 Mn1_2 2.870255 1_555
In0_2 In0_3 2.974734 1_554
In0_2 In0_3 2.974734 1_555
In0_3 N2_3 2.840295 1_555
In0_3 N0_3 2.840494 1_555
In0_3 N1_3 2.841939 1_555
In0_3 Mn0_2 2.868496 1_556
In0_3 Mn0_3 2.868496 1_555
In0_3 Mn2_2 2.868738 1_556
In0_3 Mn2_3 2.868738 1_555
In0_3 Mn1_3 2.870255 1_555
In0_3 Mn1_2 2.870255 1_556
In0_4 N2_4 2.840295 1_555
In0_4 N0_4 2.840494 1_555
In0_4 N1_4 2.841939 1_555
In0_4 Mn0_5 2.868496 1_555
In0_4 Mn0_4 2.868496 1_555
In0_4 Mn2_5 2.868738 1_555
In0_4 Mn2_4 2.868738 1_555
In0_4 Mn1_5 2.870255 1_555
In0_4 Mn1_4 2.870255 1_555
In0_4 In0_5 2.974734 1_555
In0_4 In0_5 2.974734 1_554
In0_5 N2_5 2.840295 1_555
In0_5 N0_5 2.840494 1_555
In0_5 N1_5 2.841939 1_555
In0_5 Mn0_4 2.868496 1_556
In0_5 Mn0_5 2.868496 1_555
In0_5 Mn2_4 2.868738 1_556
In0_5 Mn2_5 2.868738 1_555
In0_5 Mn1_4 2.870255 1_556
In0_5 Mn1_5 2.870255 1_555
In0_6 N2_6 2.840295 1_555
In0_6 N0_6 2.840494 1_555
In0_6 N1_6 2.841939 1_555
In0_6 Mn0_7 2.868496 1_555
In0_6 Mn0_6 2.868496 1_555
In0_6 Mn2_6 2.868738 1_555
In0_6 Mn2_7 2.868738 1_555
In0_6 Mn1_7 2.870255 1_555
In0_6 Mn1_6 2.870255 1_555
In0_6 In0_7 2.974734 1_555
In0_6 In0_7 2.974734 1_554
In0_7 N2_7 2.840295 1_555
In0_7 N0_7 2.840494 1_555
In0_7 N1_7 2.841939 1_555
In0_7 Mn0_6 2.868496 1_556
In0_7 Mn0_7 2.868496 1_555
In0_7 Mn2_6 2.868738 1_556
In0_7 Mn2_7 2.868738 1_555
In0_7 Mn1_6 2.870255 1_556
In0_7 Mn1_7 2.870255 1_555
In1_0 N5_0 2.840295 1_555
In1_0 N3_0 2.840494 1_555
In1_0 N4_0 2.841939 1_555
In1_0 Mn3_0 2.868496 1_555
In1_0 Mn3_1 2.868496 1_554
In1_0 Mn5_1 2.868738 1_554
In1_0 Mn5_0 2.868738 1_555
In1_0 Mn4_1 2.870255 1_554
In1_0 Mn4_0 2.870255 1_555
In1_0 In1_1 2.974734 1_555
In1_0 In1_1 2.974734 1_554
In1_1 N5_1 2.840295 1_555
In1_1 N3_1 2.840494 1_555
In1_1 N4_1 2.841939 1_555
In1_1 Mn3_0 2.868496 1_555
In1_1 Mn3_1 2.868496 1_555
In1_1 Mn5_0 2.868738 1_555
In1_1 Mn5_1 2.868738 1_555
In1_1 Mn4_0 2.870255 1_555
In1_1 Mn4_1 2.870255 1_555
In1_2 N5_2 2.840295 1_555
In1_2 N3_2 2.840494 1_555
In1_2 N4_2 2.841939 1_555
In1_2 Mn3_3 2.868496 1_554
In1_2 Mn3_2 2.868496 1_555
In1_2 Mn5_3 2.868738 1_554
In1_2 Mn5_2 2.868738 1_555
In1_2 Mn4_3 2.870255 1_554
In1_2 Mn4_2 2.870255 1_555
In1_2 In1_3 2.974734 1_555
In1_2 In1_3 2.974734 1_554
In1_3 N5_3 2.840295 1_555
In1_3 N3_3 2.840494 1_555
In1_3 N4_3 2.841939 1_555
In1_3 Mn3_2 2.868496 1_555
In1_3 Mn3_3 2.868496 1_555
In1_3 Mn5_2 2.868738 1_555
In1_3 Mn5_3 2.868738 1_555
In1_3 Mn4_2 2.870255 1_555
In1_3 Mn4_3 2.870255 1_555
In1_4 N5_4 2.840295 1_555
In1_4 N3_4 2.840494 1_555
In1_4 N4_4 2.841939 1_555
In1_4 Mn3_5 2.868496 1_554
In1_4 Mn3_4 2.868496 1_555
In1_4 Mn5_5 2.868738 1_554
In1_4 Mn5_4 2.868738 1_555
In1_4 Mn4_4 2.870255 1_555
In1_4 Mn4_5 2.870255 1_554
In1_4 In1_5 2.974734 1_555
In1_4 In1_5 2.974734 1_554
In1_5 N5_5 2.840295 1_555
In1_5 N3_5 2.840494 1_555
In1_5 N4_5 2.841939 1_555
In1_5 Mn3_4 2.868496 1_555
In1_5 Mn3_5 2.868496 1_555
In1_5 Mn5_4 2.868738 1_555
In1_5 Mn5_5 2.868738 1_555
In1_5 Mn4_4 2.870255 1_555
In1_5 Mn4_5 2.870255 1_555
In1_6 N5_6 2.840295 1_555
In1_6 N3_6 2.840494 1_555
In1_6 N4_6 2.841939 1_555
In1_6 Mn3_7 2.868496 1_554
In1_6 Mn3_6 2.868496 1_555
In1_6 Mn5_6 2.868738 1_555
In1_6 Mn5_7 2.868738 1_554
In1_6 Mn4_7 2.870255 1_554
In1_6 Mn4_6 2.870255 1_555
In1_6 In1_7 2.974734 1_555
In1_6 In1_7 2.974734 1_554
In1_7 N5_7 2.840295 1_555
In1_7 N3_7 2.840494 1_555
In1_7 N4_7 2.841939 1_555
In1_7 Mn3_6 2.868496 1_555
In1_7 Mn3_7 2.868496 1_555
In1_7 Mn5_6 2.868738 1_555
In1_7 Mn5_7 2.868738 1_555
In1_7 Mn4_6 2.870255 1_555
In1_7 Mn4_7 2.870255 1_555
