# generated using pymatgen
data_CsAg3Te2
_symmetry_space_group_name_H-M   'P 1'
_cell_length_a   9.14647570
_cell_length_b   9.14647570
_cell_length_c   9.57357951
_cell_angle_alpha   69.29019843
_cell_angle_beta   69.29019843
_cell_angle_gamma   29.39499386
_symmetry_Int_Tables_number   1
_chemical_formula_structural   CsAg3Te2
_chemical_formula_sum   'Cs2 Ag6 Te4'
_cell_volume   365.89349979
_cell_formula_units_Z   2
loop_
 _symmetry_equiv_pos_site_id
 _symmetry_equiv_pos_as_xyz
  1  'x, y, z'
loop_
 _atom_site_type_symbol
 _atom_site_label
 _atom_site_symmetry_multiplicity
 _atom_site_fract_x
 _atom_site_fract_y
 _atom_site_fract_z
 _atom_site_occupancy
  Cs  Cs0  1  0.86318704  0.86318704  0.04845084  1
  Cs  Cs1  1  0.13681296  0.13681296  0.95154916  1
  Ag  Ag0  1  0.58514023  0.58514023  0.38249223  1
  Ag  Ag1  1  0.41485977  0.41485977  0.61750777  1
  Ag  Ag2  1  0.93935356  0.93935356  0.41168565  1
  Ag  Ag3  1  0.06064644  0.06064644  0.58831435  1
  Ag  Ag4  1  0.69097423  0.69097423  0.54557655  1
  Ag  Ag5  1  0.30902577  0.30902577  0.45442345  1
  Te  Te0  1  0.80338567  0.80338567  0.68612113  1
  Te  Te1  1  0.19661433  0.19661433  0.31387887  1
  Te  Te2  1  0.47717942  0.47717942  0.23435002  1
  Te  Te3  1  0.52282058  0.52282058  0.76564998  1
loop_
_geom_bond_atom_site_label_1
_geom_bond_atom_site_label_2
_geom_bond_distance
_geom_bond_site_symmetry_2
Cs0 Te1 3.879841 1_565
Cs0 Te1 3.879841 1_655
Cs0 Te3 3.886131 1_564
Cs0 Te3 3.886131 1_654
Cs0 Te2 3.904587 1_655
Cs0 Te2 3.904587 1_565
Cs0 Te0 3.979453 1_554
Cs1 Te0 3.879841 1_455
Cs1 Te0 3.879841 1_545
Cs1 Te2 3.886131 1_546
Cs1 Te2 3.886131 1_456
Cs1 Te3 3.904587 1_545
Cs1 Te3 3.904587 1_455
Cs1 Te1 3.979453 1_556
Ag0 Te2 2.764362 1_555
Ag0 Te1 2.959717 1_565
Ag0 Te1 2.959717 1_655
Ag1 Te3 2.764362 1_555
Ag1 Te0 2.959717 1_545
Ag1 Te0 2.959717 1_455
Ag2 Te2 2.807957 1_655
Ag2 Te2 2.807957 1_565
Ag2 Te0 2.840629 1_555
Ag3 Te3 2.807957 1_545
Ag3 Te3 2.807957 1_455
Ag3 Te1 2.840629 1_555
Ag4 Te0 2.779142 1_555
Ag4 Te3 2.950955 1_555
Ag4 Te1 3.186472 1_565
Ag4 Te1 3.186472 1_655
Ag5 Te1 2.779142 1_555
Ag5 Te2 2.950955 1_555
Ag5 Te0 3.186472 1_455
Ag5 Te0 3.186472 1_545
