# generated using pymatgen
data_Sr2La2MnZnO8
_symmetry_space_group_name_H-M   'P 1'
_cell_length_a   5.50077000
_cell_length_b   5.50082161
_cell_length_c   25.57989709
_cell_angle_alpha   83.87452378
_cell_angle_beta   83.87467175
_cell_angle_gamma   90.44069536
_symmetry_Int_Tables_number   1
_chemical_formula_structural   Sr2La2MnZnO8
_chemical_formula_sum   'Sr8 La8 Mn4 Zn4 O32'
_cell_volume   765.06044386
_cell_formula_units_Z   4
loop_
 _symmetry_equiv_pos_site_id
 _symmetry_equiv_pos_as_xyz
  1  'x, y, z'
loop_
 _atom_site_type_symbol
 _atom_site_label
 _atom_site_symmetry_multiplicity
 _atom_site_fract_x
 _atom_site_fract_y
 _atom_site_fract_z
 _atom_site_occupancy
  Sr  Sr0  1  0.59081000  0.59075300  0.81829000  1
  Sr  Sr1  1  0.34068400  0.34080200  0.31855900  1
  Sr  Sr2  1  0.09082600  0.09082500  0.81829000  1
  Sr  Sr3  1  0.84084700  0.84077900  0.31855900  1
  Sr  Sr4  1  0.65904400  0.65898800  0.68180000  1
  Sr  Sr5  1  0.40930000  0.40937400  0.18133400  1
  Sr  Sr6  1  0.15906900  0.15906800  0.68180000  1
  Sr  Sr7  1  0.90941300  0.90938500  0.18133400  1
  La  La0  1  0.71378200  0.21376800  0.57259100  1
  La  La1  1  0.46366300  0.96366600  0.07240700  1
  La  La2  1  0.21362300  0.71362300  0.57283700  1
  La  La3  1  0.96358300  0.46357200  0.07257000  1
  La  La4  1  0.53642700  0.03641700  0.92735800  1
  La  La5  1  0.28606400  0.78604800  0.42766000  1
  La  La6  1  0.03654800  0.53656100  0.92714800  1
  La  La7  1  0.78620900  0.28622400  0.42738000  1
  Mn  Mn0  1  0.37518500  0.87514800  0.24997200  1
  Mn  Mn1  1  0.12487700  0.62510200  0.75013100  1
  Mn  Mn2  1  0.62503300  0.12500200  0.75011800  1
  Mn  Mn3  1  0.87508500  0.37493900  0.24985600  1
  Zn  Zn0  1  0.74993700  0.74994700  0.50009800  1
  Zn  Zn1  1  0.50004300  0.50004800  0.99990400  1
  Zn  Zn2  1  0.24993900  0.24994000  0.50009800  1
  Zn  Zn3  1  0.00004400  0.00005000  0.99990400  1
  O  O0  1  0.66556800  0.16551800  0.66875700  1
  O  O1  1  0.41586800  0.91594000  0.16839900  1
  O  O2  1  0.16574700  0.66580000  0.66827600  1
  O  O3  1  0.91652800  0.41647500  0.16715500  1
  O  O4  1  0.58430800  0.08425800  0.83124100  1
  O  O5  1  0.33428000  0.83435500  0.33151800  1
  O  O6  1  0.08394700  0.58400400  0.83186700  1
  O  O7  1  0.83374000  0.33368400  0.33273900  1
  O  O8  1  0.54337100  0.54340900  0.91269100  1
  O  O9  1  0.29386700  0.29393100  0.41290300  1
  O  O10  1  0.04339700  0.04337600  0.91269000  1
  O  O11  1  0.79391600  0.79388400  0.41290300  1
  O  O12  1  0.70601100  0.70599200  0.58734600  1
  O  O13  1  0.45674800  0.45678000  0.08706000  1
  O  O14  1  0.20598600  0.20604200  0.58734600  1
  O  O15  1  0.95679200  0.95680200  0.08706000  1
  O  O16  1  0.36773600  0.38213000  0.75009100  1
  O  O17  1  0.13468600  0.11542200  0.24992500  1
  O  O18  1  0.88217300  0.86769400  0.75009100  1
  O  O19  1  0.61550400  0.63460500  0.24992500  1
  O  O20  1  0.87963900  0.37964600  0.75009600  1
  O  O21  1  0.62432200  0.12434100  0.24990800  1
  O  O22  1  0.37005600  0.87006300  0.75009500  1
  O  O23  1  0.12589900  0.62591400  0.24990600  1
  O  O24  1  0.00015400  0.50016000  0.50016200  1
  O  O25  1  0.74959100  0.24959600  0.99984000  1
  O  O26  1  0.49963300  0.99963900  0.50016300  1
  O  O27  1  0.25053900  0.75054600  0.99984400  1
  O  O28  1  0.49974900  0.50007100  0.50016100  1
  O  O29  1  0.25055400  0.24959300  0.99983900  1
  O  O30  1  0.00006900  0.99974800  0.50016400  1
  O  O31  1  0.74959100  0.75055700  0.99984000  1
loop_
_geom_bond_atom_site_label_1
_geom_bond_atom_site_label_2
_geom_bond_distance
_geom_bond_site_symmetry_2
La0 O0 2.431527 1_555
La0 O24 2.666834 1_655
La0 O26 2.667900 1_545
La0 O30 2.677641 1_645
La0 O28 2.677773 1_555
La0 O14 2.773310 1_655
La0 O12 2.773447 1_555
La0 O12 2.777751 1_545
La0 O14 2.777836 1_555
La1 O1 2.427128 1_555
La1 O27 2.664903 1_554
La1 O25 2.666295 1_564
La1 O31 2.676451 1_554
La1 O29 2.676463 1_564
La1 O15 2.772761 1_455
La1 O13 2.772865 1_555
La1 O13 2.777642 1_565
La1 O15 2.777695 1_555
La2 O2 2.413145 1_555
La2 O26 2.668329 1_555
La2 O24 2.669101 1_555
La2 O30 2.680111 1_555
La2 O28 2.680163 1_555
La2 O12 2.772814 1_555
La2 O14 2.773009 1_565
La2 O14 2.776530 1_555
La2 O12 2.776674 1_455
La3 O3 2.391553 1_555
La3 O25 2.673125 1_554
La3 O27 2.674440 1_654
La3 O29 2.684733 1_654
La3 O31 2.684790 1_554
La3 O15 2.772132 1_545
La3 O13 2.772461 1_555
La3 O13 2.776901 1_655
La3 O15 2.777282 1_555
La4 O4 2.430289 1_555
La4 O25 2.663544 1_555
La4 O27 2.664835 1_545
La4 O31 2.674939 1_545
La4 O29 2.674995 1_555
La4 O10 2.773306 1_655
La4 O8 2.773451 1_555
La4 O8 2.777150 1_545
La4 O10 2.777251 1_555
La5 O5 2.430921 1_555
La5 O24 2.665178 1_555
La5 O26 2.666266 1_555
La5 O28 2.677083 1_555
La5 O30 2.677231 1_555
La5 O9 2.772878 1_555
La5 O11 2.773022 1_455
La5 O11 2.778139 1_555
La5 O9 2.778334 1_565
La6 O6 2.409151 1_555
La6 O27 2.672461 1_555
La6 O25 2.673922 1_455
La6 O31 2.684066 1_455
La6 O29 2.684106 1_555
La6 O10 2.772354 1_565
La6 O8 2.772372 1_555
La6 O8 2.776769 1_455
La6 O10 2.776845 1_555
La7 O7 2.392968 1_555
La7 O26 2.673109 1_545
La7 O24 2.673931 1_655
La7 O28 2.683771 1_555
La7 O30 2.683902 1_645
La7 O9 2.772373 1_555
La7 O11 2.772389 1_545
La7 O9 2.776902 1_655
La7 O11 2.776938 1_555
Mn0 O17 1.877217 1_565
Mn0 O19 1.877565 1_555
Mn0 O21 1.930613 1_565
Mn0 O23 1.931853 1_555
Mn0 O5 2.061865 1_555
Mn0 O1 2.062548 1_555
Mn1 O18 1.894877 1_455
Mn1 O16 1.896966 1_555
Mn1 O22 1.898988 1_555
Mn1 O20 1.901410 1_455
Mn1 O6 2.066669 1_555
Mn1 O2 2.069678 1_555
Mn2 O20 1.973087 1_555
Mn2 O22 1.975842 1_545
Mn2 O16 2.008614 1_555
Mn2 O18 2.008704 1_545
Mn2 O4 2.051170 1_555
Mn2 O0 2.057188 1_555
Mn3 O21 1.942404 1_555
Mn3 O23 1.944457 1_655
Mn3 O17 2.026939 1_655
Mn3 O19 2.027442 1_555
Mn3 O3 2.091069 1_555
Mn3 O7 2.095671 1_555
O0 Sr6 2.769963 1_555
O0 Sr4 2.770069 1_555
O0 Sr4 2.770155 1_545
O0 Sr6 2.770209 1_655
O1 Sr5 2.769258 1_565
O1 Sr7 2.769688 1_455
O1 Sr7 2.769838 1_555
O1 Sr5 2.770318 1_555
O2 Sr4 2.771233 1_455
O2 Sr6 2.771422 1_555
O2 Sr6 2.771750 1_565
O2 Sr4 2.771888 1_555
O3 Sr5 2.772901 1_655
O3 Sr7 2.773676 1_545
O3 Sr7 2.773680 1_555
O3 Sr5 2.774404 1_555
O4 Sr2 2.769585 1_555
O4 Sr0 2.769734 1_545
O4 Sr0 2.769938 1_555
O4 Sr2 2.770036 1_655
O5 Sr3 2.769357 1_455
O5 Sr1 2.769682 1_565
O5 Sr1 2.770038 1_555
O5 Sr3 2.770311 1_555
O6 Sr0 2.771321 1_455
O6 Sr2 2.771582 1_555
O6 Sr2 2.771922 1_565
O6 Sr0 2.772131 1_555
O7 Sr1 2.772855 1_655
O7 Sr3 2.773659 1_545
O7 Sr3 2.773704 1_555
O7 Sr1 2.774457 1_555
O8 Zn1 2.205154 1_555
O8 Sr0 2.386900 1_555
O9 Zn2 2.204700 1_555
O9 Sr1 2.385460 1_555
O10 Zn3 2.205180 1_555
O10 Sr2 2.386875 1_555
O11 Zn0 2.204700 1_555
O11 Sr3 2.385459 1_555
O12 Zn0 2.206040 1_555
O12 Sr4 2.388240 1_555
O13 Zn1 2.203713 1_554
O13 Sr5 2.383689 1_555
O14 Zn2 2.206039 1_555
O14 Sr6 2.388241 1_555
O15 Zn3 2.203714 1_664
O15 Sr7 2.383689 1_555
O16 Sr0 2.593933 1_555
O16 Sr2 2.594240 1_555
O16 Sr4 2.595383 1_555
O16 Sr6 2.595835 1_555
O17 Sr7 2.601020 1_445
O17 Sr5 2.601209 1_555
O17 Sr3 2.601550 1_445
O17 Sr1 2.602083 1_555
O18 Sr2 2.594188 1_665
O18 Sr0 2.594499 1_555
O18 Sr6 2.595686 1_665
O18 Sr4 2.596143 1_555
O19 Sr5 2.601358 1_555
O19 Sr7 2.601539 1_555
O19 Sr1 2.601934 1_555
O19 Sr3 2.602459 1_555
O20 Sr0 2.604787 1_555
O20 Sr2 2.604990 1_655
O20 Sr4 2.606497 1_555
O20 Sr6 2.606702 1_655
O21 Sr7 2.611227 1_545
O21 Sr5 2.611247 1_555
O21 Sr3 2.612635 1_545
O21 Sr1 2.612672 1_555
O22 Sr2 2.604980 1_565
O22 Sr0 2.605182 1_555
O22 Sr6 2.606650 1_565
O22 Sr4 2.606854 1_555
O23 Sr5 2.610886 1_555
O23 Sr7 2.610929 1_455
O23 Sr1 2.612115 1_555
O23 Sr3 2.612175 1_455
O24 Zn0 1.952307 1_455
O24 Zn2 1.952311 1_555
O25 Zn3 1.952290 1_655
O25 Zn1 1.952294 1_555
O26 Zn2 1.952272 1_565
O26 Zn0 1.952276 1_555
O27 Zn3 1.952290 1_565
O27 Zn1 1.952302 1_555
O28 Zn0 1.937336 1_555
O28 Zn2 1.937348 1_555
O29 Zn3 1.937289 1_555
O29 Zn1 1.937371 1_555
O30 Zn2 1.937317 1_565
O30 Zn0 1.937329 1_455
O31 Zn1 1.937308 1_555
O31 Zn3 1.937374 1_665
