# generated using pymatgen
data_BaLa3Mn4O12
_symmetry_space_group_name_H-M   'P 1'
_cell_length_a   6.75321476
_cell_length_b   6.75318709
_cell_length_c   6.75321742
_cell_angle_alpha   70.52755342
_cell_angle_beta   109.47245714
_cell_angle_gamma   70.53140992
_symmetry_Int_Tables_number   1
_chemical_formula_structural   BaLa3Mn4O12
_chemical_formula_sum   'Ba1 La3 Mn4 O12'
_cell_volume   237.08773342
_cell_formula_units_Z   1
loop_
 _symmetry_equiv_pos_site_id
 _symmetry_equiv_pos_as_xyz
  1  'x, y, z'
loop_
 _atom_site_type_symbol
 _atom_site_label
 _atom_site_symmetry_multiplicity
 _atom_site_fract_x
 _atom_site_fract_y
 _atom_site_fract_z
 _atom_site_occupancy
  Ba  Ba0  1  0.99999944  0.99999973  -0.00000010  1
  La  La0  1  0.50000033  0.00000144  0.50000037  1
  La  La1  1  0.00000202  0.50000222  0.50000218  1
  La  La2  1  0.50000207  0.49999949  0.99999867  1
  Mn  Mn0  1  0.49999970  0.50000003  0.49999986  1
  Mn  Mn1  1  0.49999944  0.00000085  -0.00000035  1
  Mn  Mn2  1  -0.00000028  0.00000049  0.49999972  1
  Mn  Mn3  1  0.00000016  0.49999952  0.00000048  1
  O  O0  1  0.25656539  0.74343473  0.51313824  1
  O  O1  1  0.25656634  0.25657509  0.99999853  1
  O  O2  1  0.74343320  0.25656375  0.48686104  1
  O  O3  1  0.74343221  0.74342410  0.00000019  1
  O  O4  1  0.25656837  0.48686600  0.25655492  1
  O  O5  1  0.25657039  0.99998856  0.74343783  1
  O  O6  1  0.74343003  0.00001080  0.25656179  1
  O  O7  1  0.74343097  0.51313411  0.74344576  1
  O  O8  1  0.48686529  0.25657284  0.74344039  1
  O  O9  1  0.51313380  0.74342802  0.25655986  1
  O  O10  1  0.00001030  0.74342671  0.74344137  1
  O  O11  1  0.99998981  0.25657251  0.25655926  1
loop_
_geom_bond_atom_site_label_1
_geom_bond_atom_site_label_2
_geom_bond_distance
_geom_bond_site_symmetry_2
Ba0 O0 2.829394 1_655
Ba0 O2 2.829397 1_564
Ba0 O1 2.829403 1_664
Ba0 O3 2.829406 1_555
Ba0 O10 2.829412 1_654
Ba0 O11 2.829415 1_565
Ba0 O6 2.829416 1_565
Ba0 O4 2.829423 1_655
Ba0 O5 2.829426 1_654
Ba0 O7 2.829427 1_564
Ba0 O8 2.829437 1_564
Ba0 O9 2.829438 1_655
La0 O4 2.684575 1_555
La0 O7 2.684590 1_545
La0 O5 2.684597 1_545
La0 O6 2.684601 1_555
La0 O2 2.757863 1_555
La0 O0 2.757898 1_545
La0 O3 2.757902 1_546
La0 O1 2.757912 1_554
La0 O8 2.758022 1_555
La0 O10 2.758024 1_645
La0 O11 2.758027 1_455
La0 O9 2.758035 1_545
La1 O10 2.684570 1_555
La1 O8 2.684579 1_555
La1 O9 2.684606 1_455
La1 O11 2.684620 1_455
La1 O0 2.757867 1_555
La1 O1 2.757882 1_555
La1 O3 2.757915 1_455
La1 O2 2.757930 1_455
La1 O6 2.758005 1_465
La1 O5 2.758033 1_545
La1 O4 2.758040 1_555
La1 O7 2.758045 1_455
La2 O3 2.684457 1_556
La2 O1 2.684486 1_555
La2 O0 2.684500 1_555
La2 O2 2.684511 1_556
La2 O7 2.757857 1_555
La2 O8 2.757869 1_555
La2 O6 2.757889 1_556
La2 O5 2.757890 1_555
La2 O9 2.757895 1_556
La2 O11 2.757895 1_556
La2 O4 2.757902 1_556
La2 O10 2.757917 1_555
Mn0 O9 1.950805 1_555
Mn0 O8 1.950805 1_555
Mn0 O4 1.950840 1_555
Mn0 O7 1.950844 1_555
Mn0 O0 1.950919 1_555
Mn0 O2 1.950924 1_555
Mn1 O8 1.950786 1_554
Mn1 O9 1.950792 1_545
Mn1 O6 1.950811 1_555
Mn1 O5 1.950813 1_544
Mn1 O1 1.950914 1_554
Mn1 O3 1.950926 1_545
Mn2 O5 1.950788 1_545
Mn2 O6 1.950790 1_455
Mn2 O11 1.950806 1_455
Mn2 O10 1.950815 1_545
Mn2 O2 1.950855 1_455
Mn2 O0 1.950862 1_545
Mn3 O4 1.950759 1_555
Mn3 O7 1.950759 1_454
Mn3 O11 1.950782 1_455
Mn3 O10 1.950783 1_554
Mn3 O3 1.950861 1_455
Mn3 O1 1.950862 1_554
