# generated using pymatgen
data_BaDy2Si3O10
_symmetry_space_group_name_H-M   'P 1'
_cell_length_a   12.30267900
_cell_length_b   5.45656000
_cell_length_c   6.93313918
_cell_angle_alpha   73.66765214
_cell_angle_beta   90.00000000
_cell_angle_gamma   90.00000000
_symmetry_Int_Tables_number   1
_chemical_formula_structural   BaDy2Si3O10
_chemical_formula_sum   'Ba2 Dy4 Si6 O20'
_cell_volume   446.64236208
_cell_formula_units_Z   2
loop_
 _symmetry_equiv_pos_site_id
 _symmetry_equiv_pos_as_xyz
  1  'x, y, z'
loop_
 _atom_site_type_symbol
 _atom_site_label
 _atom_site_symmetry_multiplicity
 _atom_site_fract_x
 _atom_site_fract_y
 _atom_site_fract_z
 _atom_site_occupancy
  Ba  Ba0  1  0.25000000  0.23758100  0.01788100  1
  Ba  Ba1  1  0.75000000  0.76241900  0.98211900  1
  Dy  Dy0  1  0.09844800  0.83970300  0.68536900  1
  Dy  Dy1  1  0.59844800  0.16029700  0.31463100  1
  Dy  Dy2  1  0.90155200  0.16029700  0.31463100  1
  Dy  Dy3  1  0.40155200  0.83970300  0.68536900  1
  Si  Si0  1  0.25000000  0.41624800  0.48934700  1
  Si  Si1  1  0.75000000  0.58375200  0.51065300  1
  Si  Si2  1  0.06228100  0.69608300  0.21367500  1
  Si  Si3  1  0.56228100  0.30391700  0.78632500  1
  Si  Si4  1  0.93771900  0.30391700  0.78632500  1
  Si  Si5  1  0.43771900  0.69608300  0.21367500  1
  O  O0  1  0.25000000  0.62649800  0.61601000  1
  O  O1  1  0.75000000  0.37350200  0.38399000  1
  O  O2  1  0.25000000  0.12221700  0.63344600  1
  O  O3  1  0.75000000  0.87778300  0.36655400  1
  O  O4  1  0.14285600  0.45105000  0.33928400  1
  O  O5  1  0.64285600  0.54895000  0.66071600  1
  O  O6  1  0.85714400  0.54895000  0.66071600  1
  O  O7  1  0.35714400  0.45105000  0.33928400  1
  O  O8  1  0.94587200  0.56796100  0.19089100  1
  O  O9  1  0.44587200  0.43203900  0.80910900  1
  O  O10  1  0.05412800  0.43203900  0.80910900  1
  O  O11  1  0.55412800  0.56796100  0.19089100  1
  O  O12  1  0.12390400  0.83294400  0.00323800  1
  O  O13  1  0.62390400  0.16705600  0.99676200  1
  O  O14  1  0.87609600  0.16705600  0.99676200  1
  O  O15  1  0.37609600  0.83294400  0.00323800  1
  O  O16  1  0.05197400  0.89934400  0.35088500  1
  O  O17  1  0.55197400  0.10065600  0.64911500  1
  O  O18  1  0.94802600  0.10065600  0.64911500  1
  O  O19  1  0.44802600  0.89934400  0.35088500  1
loop_
_geom_bond_atom_site_label_1
_geom_bond_atom_site_label_2
_geom_bond_distance
_geom_bond_site_symmetry_2
Ba0 O15 2.723582 1_545
Ba0 O12 2.723582 1_545
Ba0 O9 2.857286 1_554
Ba0 O10 2.857286 1_554
Ba0 O2 2.905844 1_554
Ba0 O0 2.990172 1_554
Ba0 O7 3.085381 1_555
Ba0 O4 3.085381 1_555
Ba1 O13 2.723582 1_565
Ba1 O14 2.723582 1_565
Ba1 O8 2.857286 1_556
Ba1 O11 2.857286 1_556
Ba1 O3 2.905844 1_556
Ba1 O1 2.990172 1_556
Ba1 O6 3.085381 1_555
Ba1 O5 3.085381 1_555
Dy0 O10 2.215436 1_555
Dy0 O12 2.215986 1_556
Dy0 O18 2.305231 1_465
Dy0 O0 2.318543 1_555
Dy0 O16 2.320826 1_555
Dy0 O2 2.381222 1_565
Dy1 O11 2.215436 1_555
Dy1 O13 2.215986 1_554
Dy1 O19 2.305231 1_545
Dy1 O1 2.318543 1_555
Dy1 O17 2.320826 1_555
Dy1 O3 2.381222 1_545
Dy2 O8 2.215436 1_555
Dy2 O14 2.215986 1_554
Dy2 O16 2.305231 1_645
Dy2 O1 2.318543 1_555
Dy2 O18 2.320826 1_555
Dy2 O3 2.381222 1_545
Dy3 O9 2.215436 1_555
Dy3 O15 2.215986 1_556
Dy3 O17 2.305231 1_565
Dy3 O0 2.318543 1_555
Dy3 O19 2.320826 1_555
Dy3 O2 2.381222 1_565
O0 Si0 1.629101 1_555
O1 Si1 1.629101 1_555
O2 Si0 1.634233 1_555
O3 Si1 1.634233 1_555
O4 Si0 1.656784 1_555
O4 Si2 1.695246 1_555
O5 Si1 1.656784 1_555
O5 Si3 1.695246 1_555
O6 Si1 1.656784 1_555
O6 Si4 1.695246 1_555
O7 Si0 1.656784 1_555
O7 Si5 1.695246 1_555
O8 Si2 1.620754 1_655
O9 Si3 1.620754 1_555
O10 Si4 1.620754 1_455
O11 Si5 1.620754 1_555
O12 Si2 1.627365 1_555
O13 Si3 1.627365 1_555
O14 Si4 1.627365 1_555
O15 Si5 1.627365 1_555
O16 Si2 1.656671 1_555
O17 Si3 1.656671 1_555
O18 Si4 1.656671 1_555
O19 Si5 1.656671 1_555
