# generated using pymatgen
data_Li2CrCo3O8
_symmetry_space_group_name_H-M   'P 1'
_cell_length_a   5.85114382
_cell_length_b   10.23010126
_cell_length_c   5.86139671
_cell_angle_alpha   72.63680212
_cell_angle_beta   59.79924493
_cell_angle_gamma   72.66999048
_symmetry_Int_Tables_number   1
_chemical_formula_structural   Li2CrCo3O8
_chemical_formula_sum   'Li4 Cr2 Co6 O16'
_cell_volume   284.73049863
_cell_formula_units_Z   2
loop_
 _symmetry_equiv_pos_site_id
 _symmetry_equiv_pos_as_xyz
  1  'x, y, z'
loop_
 _atom_site_type_symbol
 _atom_site_label
 _atom_site_symmetry_multiplicity
 _atom_site_fract_x
 _atom_site_fract_y
 _atom_site_fract_z
 _atom_site_occupancy
  Li  Li0  1  0.56607100  0.31697700  0.55197700  1
  Li  Li1  1  0.05840100  0.81680300  0.05136500  1
  Li  Li2  1  0.94159400  0.18319500  0.94864400  1
  Li  Li3  1  0.43394000  0.68302400  0.44801200  1
  Cr  Cr0  1  0.25425900  0.25125400  0.25264200  1
  Cr  Cr1  1  0.74570000  0.74876600  0.74739200  1
  Co  Co0  1  0.50001600  0.50000100  0.99999000  1
  Co  Co1  1  0.99997800  0.50000900  0.99998400  1
  Co  Co2  1  0.00001800  0.49999600  0.49999600  1
  Co  Co3  1  0.00001400  0.00000100  0.49999100  1
  Co  Co4  1  0.49995600  0.00001500  0.49998100  1
  Co  Co5  1  0.50001400  0.99999400  0.00001300  1
  O  O0  1  0.88328700  0.39116900  0.88229400  1
  O  O1  1  0.36427400  0.89543700  0.38436000  1
  O  O2  1  0.63573000  0.10455900  0.61566000  1
  O  O3  1  0.11674400  0.60882700  0.11769800  1
  O  O4  1  0.36845000  0.38773500  0.34082300  1
  O  O5  1  0.85493200  0.88241300  0.84941200  1
  O  O6  1  0.90649800  0.38527700  0.34376000  1
  O  O7  1  0.40135000  0.88741500  0.84351800  1
  O  O8  1  0.35551900  0.38792500  0.90488800  1
  O  O9  1  0.84146900  0.88404400  0.40078800  1
  O  O10  1  0.15853700  0.11594800  0.59921800  1
  O  O11  1  0.64450900  0.61206400  0.09510700  1
  O  O12  1  0.59862200  0.11257900  0.15651900  1
  O  O13  1  0.09349300  0.61473100  0.65623000  1
  O  O14  1  0.14506900  0.11757800  0.15058600  1
  O  O15  1  0.63155600  0.61226400  0.65915500  1
loop_
_geom_bond_atom_site_label_1
_geom_bond_atom_site_label_2
_geom_bond_distance
_geom_bond_site_symmetry_2
Li0 O4 1.949166 1_555
Li0 O6 1.954419 1_555
Li0 O8 2.030518 1_555
Li0 O2 2.041790 1_555
Li1 O5 1.933031 1_454
Li1 O7 1.977743 1_554
Li1 O9 1.996081 1_455
Li1 O3 2.000388 1_555
Li2 O14 1.933006 1_656
Li2 O12 1.977871 1_556
Li2 O10 1.996125 1_655
Li2 O0 2.000374 1_555
Li3 O15 1.949089 1_555
Li3 O13 1.954480 1_555
Li3 O11 2.030546 1_555
Li3 O1 2.041747 1_555
Cr0 O6 1.996784 1_455
Cr0 O10 1.998816 1_555
Cr0 O4 1.999226 1_555
Cr0 O12 2.005475 1_555
Cr0 O14 2.007326 1_555
Cr0 O8 2.009524 1_554
Cr1 O13 1.996958 1_655
Cr1 O9 1.998784 1_555
Cr1 O15 1.999437 1_555
Cr1 O7 2.005294 1_555
Cr1 O5 2.007095 1_555
Cr1 O11 2.009529 1_556
Co0 O15 1.874218 1_555
Co0 O4 1.874232 1_556
Co0 O11 1.942419 1_556
Co0 O8 1.942484 1_555
Co0 O3 2.039377 1_556
Co0 O0 2.039396 1_555
Co1 O0 1.888650 1_555
Co1 O3 1.888887 1_656
Co1 O13 1.896980 1_655
Co1 O6 1.897127 1_556
Co1 O11 1.935278 1_556
Co1 O8 1.935713 1_655
Co2 O4 1.994428 1_555
Co2 O15 1.994566 1_455
Co2 O13 2.010798 1_555
Co2 O6 2.010853 1_455
Co2 O0 2.037501 1_455
Co2 O3 2.037516 1_555
Co3 O14 1.936647 1_555
Co3 O5 1.936772 1_445
Co3 O1 1.940979 1_545
Co3 O2 1.941057 1_455
Co3 O10 2.053166 1_555
Co3 O9 2.053250 1_445
Co4 O12 1.885551 1_555
Co4 O7 1.886031 1_545
Co4 O10 1.888633 1_555
Co4 O9 1.889194 1_545
Co4 O1 1.927209 1_545
Co4 O2 1.927589 1_555
Co5 O5 1.959594 1_554
Co5 O14 1.959694 1_565
Co5 O12 2.014931 1_565
Co5 O7 2.015058 1_554
Co5 O1 2.029248 1_555
Co5 O2 2.029301 1_564
