# generated using pymatgen
data_Cs3As(PSe3)3
_symmetry_space_group_name_H-M   'P 1'
_cell_length_a   8.15201066
_cell_length_b   13.36012350
_cell_length_c   19.96321716
_cell_angle_alpha   78.01480602
_cell_angle_beta   90.00000000
_cell_angle_gamma   90.00000000
_symmetry_Int_Tables_number   1
_chemical_formula_structural   Cs3As(PSe3)3
_chemical_formula_sum   'Cs12 As4 P12 Se36'
_cell_volume   2126.83587067
_cell_formula_units_Z   4
loop_
 _symmetry_equiv_pos_site_id
 _symmetry_equiv_pos_as_xyz
  1  'x, y, z'
loop_
 _atom_site_type_symbol
 _atom_site_label
 _atom_site_symmetry_multiplicity
 _atom_site_fract_x
 _atom_site_fract_y
 _atom_site_fract_z
 _atom_site_occupancy
  Cs  Cs0  1  0.03179749  0.30292249  0.07912264  1
  Cs  Cs1  1  0.53179749  0.19707751  0.92087736  1
  Cs  Cs2  1  0.96820251  0.69707751  0.92087736  1
  Cs  Cs3  1  0.46820251  0.80292249  0.07912264  1
  Cs  Cs4  1  0.52752751  0.08304641  0.26040161  1
  Cs  Cs5  1  0.02752751  0.41695359  0.73959839  1
  Cs  Cs6  1  0.47247249  0.91695359  0.73959839  1
  Cs  Cs7  1  0.97247249  0.58304641  0.26040161  1
  Cs  Cs8  1  0.52120544  0.31194330  0.56763764  1
  Cs  Cs9  1  0.02120544  0.18805670  0.43236236  1
  Cs  Cs10  1  0.47879456  0.68805670  0.43236236  1
  Cs  Cs11  1  0.97879456  0.81194330  0.56763764  1
  As  As0  1  0.50200019  0.43971299  0.17702904  1
  As  As1  1  0.00200019  0.06028701  0.82297096  1
  As  As2  1  0.49799981  0.56028701  0.82297096  1
  As  As3  1  -0.00200019  0.93971299  0.17702904  1
  P  P0  1  0.61066364  0.34594289  0.35856150  1
  P  P1  1  0.11066364  0.15405711  0.64143850  1
  P  P2  1  0.38933636  0.65405711  0.64143850  1
  P  P3  1  0.88933636  0.84594289  0.35856150  1
  P  P4  1  0.87648186  0.06759289  0.67528878  1
  P  P5  1  0.37648186  0.43240711  0.32471122  1
  P  P6  1  0.12351814  0.93240711  0.32471122  1
  P  P7  1  0.62351814  0.56759289  0.67528878  1
  P  P8  1  0.61441227  0.45564348  0.01970040  1
  P  P9  1  0.11441227  0.04435652  0.98029960  1
  P  P10  1  0.38558773  0.54435652  0.98029960  1
  P  P11  1  0.88558773  0.95564348  0.01970040  1
  Se  Se0  1  0.75640097  0.43821712  0.41060474  1
  Se  Se1  1  0.25640097  0.06178288  0.58939526  1
  Se  Se2  1  0.24359903  0.56178288  0.58939526  1
  Se  Se3  1  0.74359903  0.93821712  0.41060474  1
  Se  Se4  1  0.54198476  0.19669839  0.41184775  1
  Se  Se5  1  0.04198476  0.30330161  0.58815225  1
  Se  Se6  1  0.45801524  0.80330161  0.58815225  1
  Se  Se7  1  0.95801524  0.69669839  0.41184775  1
  Se  Se8  1  0.71966875  0.34377791  0.25205692  1
  Se  Se9  1  0.21966875  0.15622209  0.74794308  1
  Se  Se10  1  0.28033125  0.65622209  0.74794308  1
  Se  Se11  1  0.78033125  0.84377791  0.25205692  1
  Se  Se12  1  0.73826145  0.04686061  0.59003119  1
  Se  Se13  1  0.23826145  0.45313939  0.40996881  1
  Se  Se14  1  0.26173855  0.95313939  0.40996881  1
  Se  Se15  1  0.76173855  0.54686061  0.59003119  1
  Se  Se16  1  0.03435680  0.07449109  0.25357561  1
  Se  Se17  1  0.53435680  0.42550891  0.74642439  1
  Se  Se18  1  0.96564320  0.92550891  0.74642439  1
  Se  Se19  1  0.46564320  0.57449109  0.25357561  1
  Se  Se20  1  0.26005663  0.34221887  0.25576360  1
  Se  Se21  1  0.76005663  0.15778113  0.74423640  1
  Se  Se22  1  0.73994337  0.65778113  0.74423640  1
  Se  Se23  1  0.23994337  0.84221887  0.25576360  1
  Se  Se24  1  0.77258952  0.04788629  0.08718005  1
  Se  Se25  1  0.27258952  0.45211371  0.91281995  1
  Se  Se26  1  0.22741048  0.95211371  0.91281995  1
  Se  Se27  1  0.72741048  0.54788629  0.08718005  1
  Se  Se28  1  0.52669578  0.30995406  0.08124814  1
  Se  Se29  1  0.02669578  0.19004594  0.91875186  1
  Se  Se30  1  0.47330422  0.69004594  0.91875186  1
  Se  Se31  1  0.97330422  0.80995406  0.08124814  1
  Se  Se32  1  0.26211974  0.05867514  0.06687225  1
  Se  Se33  1  0.76211974  0.44132486  0.93312775  1
  Se  Se34  1  0.73788026  0.94132486  0.93312775  1
  Se  Se35  1  0.23788026  0.55867514  0.06687225  1
loop_
_geom_bond_atom_site_label_1
_geom_bond_atom_site_label_2
_geom_bond_distance
_geom_bond_site_symmetry_2
Cs0 Se35 3.769647 1_555
Cs0 Se33 3.808983 1_454
Cs0 Se29 3.811929 1_554
Cs0 Se32 3.816398 1_555
Cs0 Se24 3.984105 1_455
Cs0 Se25 4.012444 1_554
Cs0 P8 4.017747 1_455
Cs0 Se28 4.035938 1_555
Cs0 Se20 4.116058 1_555
Cs0 Se28 4.119086 1_455
Cs0 Se16 4.126611 1_555
Cs0 Se27 4.136733 1_455
Cs0 Se8 4.412875 1_455
Cs1 Se34 3.769647 1_545
Cs1 Se32 3.808983 1_556
Cs1 Se28 3.811929 1_556
Cs1 Se33 3.816398 1_555
Cs1 Se25 3.984105 1_555
Cs1 Se24 4.012444 1_556
Cs1 P9 4.017747 1_555
Cs1 Se29 4.035938 1_655
Cs1 Se21 4.116058 1_555
Cs1 Se29 4.119086 1_555
Cs1 Se17 4.126611 1_555
Cs1 Se26 4.136733 1_545
Cs1 Se9 4.412875 1_555
Cs2 Se33 3.769647 1_555
Cs2 Se35 3.808983 1_656
Cs2 Se31 3.811929 1_556
Cs2 Se34 3.816398 1_555
Cs2 Se26 3.984105 1_655
Cs2 Se27 4.012444 1_556
Cs2 P10 4.017747 1_655
Cs2 Se30 4.035938 1_555
Cs2 Se22 4.116058 1_555
Cs2 Se30 4.119086 1_655
Cs2 Se18 4.126611 1_555
Cs2 Se25 4.136733 1_655
Cs2 Se10 4.412875 1_655
Cs3 Se32 3.769647 1_565
Cs3 Se34 3.808983 1_554
Cs3 Se30 3.811929 1_554
Cs3 Se35 3.816398 1_555
Cs3 Se27 3.984105 1_555
Cs3 Se26 4.012444 1_554
Cs3 P11 4.017747 1_555
Cs3 Se31 4.035938 1_455
Cs3 Se23 4.116058 1_555
Cs3 Se31 4.119086 1_555
Cs3 Se19 4.126611 1_555
Cs3 Se24 4.136733 1_565
Cs3 Se11 4.412875 1_555
Cs4 Se4 3.656048 1_555
Cs4 Se3 3.664442 1_545
Cs4 Se8 3.791341 1_555
Cs4 Se14 3.803930 1_545
Cs4 Se11 3.835971 1_545
Cs4 Se23 3.997583 1_545
Cs4 Se16 4.025069 1_555
Cs4 Se20 4.076654 1_555
Cs4 Se24 4.104202 1_555
Cs4 Se16 4.136286 1_655
Cs4 Se28 4.180717 1_555
Cs5 Se5 3.656048 1_555
Cs5 Se2 3.664442 1_555
Cs5 Se9 3.791341 1_555
Cs5 Se15 3.803930 1_455
Cs5 Se10 3.835971 1_555
Cs5 Se22 3.997583 1_455
Cs5 Se17 4.025069 1_455
Cs5 Se21 4.076654 1_455
Cs5 Se25 4.104202 1_555
Cs5 Se17 4.136286 1_555
Cs5 Se29 4.180717 1_555
Cs6 Se6 3.656048 1_555
Cs6 Se1 3.664442 1_565
Cs6 Se10 3.791341 1_555
Cs6 Se12 3.803930 1_565
Cs6 Se9 3.835971 1_565
Cs6 Se21 3.997583 1_565
Cs6 Se18 4.025069 1_555
Cs6 Se22 4.076654 1_555
Cs6 Se26 4.104202 1_555
Cs6 Se18 4.136286 1_455
Cs6 Se30 4.180717 1_555
Cs7 Se7 3.656048 1_555
Cs7 Se0 3.664442 1_555
Cs7 Se11 3.791341 1_555
Cs7 Se13 3.803930 1_655
Cs7 Se8 3.835971 1_555
Cs7 Se20 3.997583 1_655
Cs7 Se19 4.025069 1_655
Cs7 Se23 4.076654 1_655
Cs7 Se27 4.104202 1_555
Cs7 Se19 4.136286 1_555
Cs7 Se31 4.180717 1_555
Cs8 Se4 3.749748 1_555
Cs8 Se0 3.762074 1_555
Cs8 Se15 3.804964 1_555
Cs8 Se12 3.900733 1_555
Cs8 Se1 3.926298 1_555
Cs8 Se5 3.927217 1_555
Cs8 Se13 4.039800 1_555
Cs8 P1 4.065719 1_555
Cs8 Se2 4.129611 1_555
Cs8 Se17 4.159509 1_555
Cs8 Se21 4.176917 1_555
Cs8 Se5 4.264367 1_655
Cs9 Se5 3.749748 1_555
Cs9 Se1 3.762074 1_555
Cs9 Se14 3.804964 1_545
Cs9 Se13 3.900733 1_555
Cs9 Se0 3.926298 1_455
Cs9 Se4 3.927217 1_455
Cs9 Se12 4.039800 1_455
Cs9 P0 4.065719 1_455
Cs9 Se3 4.129611 1_445
Cs9 Se16 4.159509 1_555
Cs9 Se20 4.176917 1_555
Cs9 Se4 4.264367 1_555
Cs10 Se6 3.749748 1_555
Cs10 Se2 3.762074 1_555
Cs10 Se13 3.804964 1_555
Cs10 Se14 3.900733 1_555
Cs10 Se3 3.926298 1_555
Cs10 Se7 3.927217 1_555
Cs10 Se15 4.039800 1_555
Cs10 P3 4.065719 1_555
Cs10 Se0 4.129611 1_555
Cs10 Se19 4.159509 1_555
Cs10 Se23 4.176917 1_555
Cs10 Se7 4.264367 1_455
Cs11 Se7 3.749748 1_555
Cs11 Se3 3.762074 1_555
Cs11 Se12 3.804964 1_565
Cs11 Se15 3.900733 1_555
Cs11 Se2 3.926298 1_655
Cs11 Se6 3.927217 1_655
Cs11 Se14 4.039800 1_655
Cs11 P2 4.065719 1_655
Cs11 Se1 4.129611 1_665
Cs11 Se18 4.159509 1_555
Cs11 Se22 4.176917 1_555
Cs11 Se6 4.264367 1_555
As0 Se8 2.497497 1_555
As0 Se19 2.609237 1_555
As0 Se20 2.684570 1_555
As0 Se27 2.757875 1_555
As0 Se28 2.842303 1_555
As1 Se9 2.497497 1_555
As1 Se18 2.609237 1_445
As1 Se21 2.684570 1_455
As1 Se26 2.757875 1_545
As1 Se29 2.842303 1_555
As2 Se10 2.497497 1_555
As2 Se17 2.609237 1_555
As2 Se22 2.684570 1_555
As2 Se25 2.757875 1_555
As2 Se30 2.842303 1_555
As3 Se11 2.497497 1_455
As3 Se16 2.609237 1_565
As3 Se23 2.684570 1_555
As3 Se24 2.757875 1_465
As3 Se31 2.842303 1_455
P0 Se4 2.130697 1_555
P0 Se0 2.131341 1_555
P0 P5 2.260830 1_555
P0 Se8 2.310113 1_555
P1 Se5 2.130697 1_555
P1 Se1 2.131341 1_555
P1 P4 2.260830 1_455
P1 Se9 2.310113 1_555
P2 Se6 2.130697 1_555
P2 Se2 2.131341 1_555
P2 P7 2.260830 1_555
P2 Se10 2.310113 1_555
P3 Se7 2.130697 1_555
P3 Se3 2.131341 1_555
P3 P6 2.260830 1_655
P3 Se11 2.310113 1_555
P4 Se12 2.106892 1_555
P4 Se21 2.221701 1_555
P4 Se18 2.242496 1_545
P5 Se13 2.106892 1_555
P5 Se20 2.221701 1_555
P5 Se19 2.242496 1_555
P6 Se14 2.106892 1_555
P6 Se23 2.221701 1_555
P6 Se16 2.242496 1_565
P7 Se15 2.106892 1_555
P7 Se22 2.221701 1_555
P7 Se17 2.242496 1_555
P8 Se33 2.147255 1_554
P8 Se28 2.194613 1_555
P8 Se27 2.207144 1_555
P9 Se32 2.147255 1_556
P9 Se29 2.194613 1_555
P9 Se26 2.207144 1_545
P10 Se35 2.147255 1_556
P10 Se30 2.194613 1_555
P10 Se25 2.207144 1_555
P10 P8 2.261833 1_556
P11 Se34 2.147255 1_554
P11 Se31 2.194613 1_555
P11 Se24 2.207144 1_565
P11 P9 2.261833 1_664
