# generated using pymatgen
data_Ba6Y3Cu9O20
_symmetry_space_group_name_H-M   'P 1'
_cell_length_a   5.50840800
_cell_length_b   8.66022924
_cell_length_c   12.46549683
_cell_angle_alpha   74.01333750
_cell_angle_beta   77.51606924
_cell_angle_gamma   72.68004612
_symmetry_Int_Tables_number   1
_chemical_formula_structural   Ba6Y3Cu9O20
_chemical_formula_sum   'Ba6 Y3 Cu9 O20'
_cell_volume   539.87275398
_cell_formula_units_Z   1
loop_
 _symmetry_equiv_pos_site_id
 _symmetry_equiv_pos_as_xyz
  1  'x, y, z'
loop_
 _atom_site_type_symbol
 _atom_site_label
 _atom_site_symmetry_multiplicity
 _atom_site_fract_x
 _atom_site_fract_y
 _atom_site_fract_z
 _atom_site_occupancy
  Ba  Ba0  1  0.76498200  0.26434600  0.18844100  1
  Ba  Ba1  1  0.43957100  0.93941700  0.18148500  1
  Ba  Ba2  1  0.10934400  0.61011800  0.18849600  1
  Ba  Ba3  1  0.56042900  0.06058300  0.81851500  1
  Ba  Ba4  1  0.23501800  0.73565400  0.81155900  1
  Ba  Ba5  1  0.89065600  0.38988200  0.81150400  1
  Y  Y0  1  0.00000000  0.50000000  0.50000000  1
  Y  Y1  1  0.33327500  0.83324100  0.49936100  1
  Y  Y2  1  0.66672500  0.16675900  0.50063900  1
  Cu  Cu0  1  0.21270800  0.21434100  0.35791700  1
  Cu  Cu1  1  0.54884200  0.54701900  0.35762600  1
  Cu  Cu2  1  0.88107100  0.88125600  0.35658200  1
  Cu  Cu3  1  0.11892900  0.11874400  0.64341800  1
  Cu  Cu4  1  0.45115800  0.45298100  0.64237400  1
  Cu  Cu5  1  0.78729200  0.78565900  0.64208300  1
  Cu  Cu6  1  0.35673100  0.32262300  0.00000800  1
  Cu  Cu7  1  0.64326900  0.67737700  0.99999200  1
  Cu  Cu8  1  0.00000000  0.00000000  0.00000000  1
  O  O0  1  0.37352300  0.37344600  0.37874900  1
  O  O1  1  0.70728300  0.70691700  0.37926200  1
  O  O2  1  0.04023200  0.04050400  0.37927000  1
  O  O3  1  0.29271700  0.29308300  0.62073800  1
  O  O4  1  0.62647700  0.62655400  0.62125100  1
  O  O5  1  0.95976800  0.95949600  0.62073000  1
  O  O6  1  0.87401400  0.37328400  0.37922200  1
  O  O7  1  0.20735900  0.70646600  0.37825100  1
  O  O8  1  0.54010200  0.04157700  0.37845400  1
  O  O9  1  0.79264100  0.29353400  0.62174900  1
  O  O10  1  0.12598600  0.62671600  0.62077800  1
  O  O11  1  0.45989800  0.95842300  0.62154600  1
  O  O12  1  0.26002300  0.29379600  0.15249300  1
  O  O13  1  0.63841200  0.60451200  0.15254100  1
  O  O14  1  0.94670800  0.94672700  0.15988000  1
  O  O15  1  0.05329200  0.05327300  0.84012000  1
  O  O16  1  0.36158800  0.39548800  0.84745900  1
  O  O17  1  0.73997700  0.70620400  0.84750700  1
  O  O18  1  0.68056300  0.16299100  0.00000100  1
  O  O19  1  0.31943700  0.83700900  0.99999900  1
loop_
_geom_bond_atom_site_label_1
_geom_bond_atom_site_label_2
_geom_bond_distance
_geom_bond_site_symmetry_2
Ba0 O14 2.727781 1_545
Ba0 O12 2.743105 1_655
Ba0 O13 2.747830 1_555
Ba0 O12 2.838350 1_555
Ba0 O18 2.890586 1_555
Ba0 O8 2.916172 1_555
Ba0 O0 2.996689 1_555
Ba0 O2 2.997417 1_655
Ba0 O6 3.016164 1_555
Ba1 O14 2.766030 1_555
Ba1 O14 2.766144 1_455
Ba1 O13 2.873323 1_555
Ba1 O12 2.874695 1_565
Ba1 O19 2.905920 1_554
Ba1 O18 2.906596 1_565
Ba1 O7 3.029302 1_555
Ba1 O8 3.032174 1_565
Ba1 O1 3.062107 1_555
Ba1 O2 3.062905 1_565
Ba2 O14 2.727291 1_455
Ba2 O13 2.742653 1_455
Ba2 O12 2.749019 1_555
Ba2 O13 2.838934 1_555
Ba2 O19 2.890765 1_554
Ba2 O7 2.913811 1_555
Ba2 O1 2.996376 1_455
Ba2 O0 2.996952 1_555
Ba2 O6 3.017322 1_455
Ba3 O15 2.766030 1_555
Ba3 O15 2.766144 1_655
Ba3 O16 2.873323 1_555
Ba3 O17 2.874695 1_545
Ba3 O18 2.905920 1_556
Ba3 O19 2.906596 1_545
Ba3 O9 3.029302 1_555
Ba3 O11 3.032174 1_545
Ba3 O3 3.062107 1_555
Ba3 O5 3.062905 1_545
Ba4 O15 2.727781 1_565
Ba4 O17 2.743105 1_455
Ba4 O16 2.747830 1_555
Ba4 O17 2.838350 1_555
Ba4 O19 2.890586 1_555
Ba4 O11 2.916172 1_555
Ba4 O4 2.996689 1_555
Ba4 O5 2.997417 1_455
Ba4 O10 3.016164 1_555
Ba5 O15 2.727291 1_655
Ba5 O16 2.742653 1_655
Ba5 O17 2.749019 1_555
Ba5 O16 2.838934 1_555
Ba5 O18 2.890765 1_556
Ba5 O9 2.913811 1_555
Ba5 O3 2.996376 1_655
Ba5 O4 2.996952 1_555
Ba5 O10 3.017322 1_655
Cu0 O2 1.939453 1_555
Cu0 O0 1.942679 1_555
Cu0 O6 1.975863 1_455
Cu0 O8 1.984554 1_555
Cu0 O12 2.438510 1_555
Cu1 O1 1.943981 1_555
Cu1 O0 1.948823 1_555
Cu1 O6 1.981237 1_555
Cu1 O7 1.987722 1_555
Cu1 O13 2.434497 1_555
Cu2 O1 1.945336 1_555
Cu2 O2 1.947454 1_665
Cu2 O7 1.989837 1_655
Cu2 O8 1.991007 1_565
Cu2 O14 2.331832 1_555
Cu3 O3 1.945336 1_555
Cu3 O5 1.947454 1_445
Cu3 O9 1.989837 1_455
Cu3 O11 1.991007 1_545
Cu3 O15 2.331832 1_555
Cu4 O3 1.943981 1_555
Cu4 O4 1.948823 1_555
Cu4 O10 1.981237 1_555
Cu4 O9 1.987722 1_555
Cu4 O16 2.434497 1_555
Cu5 O5 1.939453 1_555
Cu5 O4 1.942679 1_555
Cu5 O10 1.975863 1_655
Cu5 O11 1.984554 1_555
Cu5 O17 2.438510 1_555
Cu6 O12 1.827342 1_555
Cu6 O16 1.828135 1_554
Cu6 O18 1.903892 1_555
Cu7 O17 1.827342 1_555
Cu7 O13 1.828135 1_556
Cu7 O19 1.903892 1_555
Cu8 O14 1.895320 1_445
Cu8 O15 1.895320 1_554
Cu8 O18 1.899934 1_455
Cu8 O19 1.899934 1_544
O0 Y0 2.438108 1_555
O0 Y2 2.441845 1_555
O1 Y1 2.430892 1_555
O1 Y0 2.432974 1_655
O2 Y1 2.430623 1_545
O2 Y2 2.437929 1_455
O3 Y2 2.430892 1_555
O3 Y0 2.432974 1_555
O4 Y0 2.438108 1_655
O4 Y1 2.441845 1_555
O5 Y2 2.430623 1_565
O5 Y1 2.437929 1_655
O6 Y0 2.401626 1_655
O6 Y2 2.402328 1_555
O7 Y0 2.403518 1_555
O7 Y1 2.405151 1_555
O8 Y2 2.408451 1_555
O8 Y1 2.410081 1_545
O9 Y0 2.403518 1_655
O9 Y2 2.405151 1_555
O10 Y0 2.401626 1_555
O10 Y1 2.402328 1_555
O11 Y1 2.408451 1_555
O11 Y2 2.410081 1_565
