# generated using pymatgen
data_Li3Cr5O8
_symmetry_space_group_name_H-M   'P 1'
_cell_length_a   6.00644980
_cell_length_b   6.00644980
_cell_length_c   6.00644977
_cell_angle_alpha   60.26997884
_cell_angle_beta   60.26997884
_cell_angle_gamma   60.26998103
_symmetry_Int_Tables_number   1
_chemical_formula_structural   Li3Cr5O8
_chemical_formula_sum   'Li3 Cr5 O8'
_cell_volume   154.16446597
_cell_formula_units_Z   1
loop_
 _symmetry_equiv_pos_site_id
 _symmetry_equiv_pos_as_xyz
  1  'x, y, z'
loop_
 _atom_site_type_symbol
 _atom_site_label
 _atom_site_symmetry_multiplicity
 _atom_site_fract_x
 _atom_site_fract_y
 _atom_site_fract_z
 _atom_site_occupancy
  Li  Li0  1  0.00000000  0.50000000  0.00000000  1
  Li  Li1  1  0.50000000  0.00000000  0.00000000  1
  Li  Li2  1  0.00000000  0.00000000  0.50000000  1
  Cr  Cr0  1  0.50000000  0.50000000  0.50000000  1
  Cr  Cr1  1  0.00000000  0.00000000  0.00000000  1
  Cr  Cr2  1  0.50000000  0.50000000  0.00000000  1
  Cr  Cr3  1  0.50000000  0.00000000  0.50000000  1
  Cr  Cr4  1  0.00000000  0.50000000  0.50000000  1
  O  O0  1  0.74052500  0.74052500  0.74052500  1
  O  O1  1  0.25191000  0.25191000  0.73469300  1
  O  O2  1  0.25191000  0.73469300  0.25191000  1
  O  O3  1  0.73469300  0.25191000  0.25191000  1
  O  O4  1  0.26530700  0.74809000  0.74809000  1
  O  O5  1  0.74809000  0.26530700  0.74809000  1
  O  O6  1  0.74809000  0.74809000  0.26530700  1
  O  O7  1  0.25947500  0.25947500  0.25947500  1
loop_
_geom_bond_atom_site_label_1
_geom_bond_atom_site_label_2
_geom_bond_distance
_geom_bond_site_symmetry_2
Li0 O4 2.185591 1_554
Li0 O3 2.185591 1_455
Li0 O6 2.185591 1_455
Li0 O1 2.185591 1_554
Li0 O7 2.210859 1_555
Li0 O0 2.210859 1_454
Li1 O5 2.185591 1_554
Li1 O2 2.185591 1_545
Li1 O6 2.185591 1_545
Li1 O1 2.185591 1_554
Li1 O7 2.210859 1_555
Li1 O0 2.210859 1_544
Li2 O5 2.185591 1_455
Li2 O4 2.185591 1_545
Li2 O3 2.185591 1_455
Li2 O2 2.185591 1_545
Li2 O7 2.210859 1_555
Li2 O0 2.210859 1_445
Cr0 O1 2.112746 1_555
Cr0 O6 2.112746 1_555
Cr0 O2 2.112747 1_555
Cr0 O5 2.112747 1_555
Cr0 O3 2.112747 1_555
Cr0 O4 2.112747 1_555
Cr1 O6 2.146166 1_445
Cr1 O1 2.146166 1_554
Cr1 O5 2.146166 1_454
Cr1 O4 2.146166 1_544
Cr1 O3 2.146166 1_455
Cr1 O2 2.146166 1_545
Cr2 O7 2.051103 1_555
Cr2 O0 2.051103 1_554
Cr2 O2 2.071935 1_555
Cr2 O3 2.071935 1_555
Cr2 O4 2.071935 1_554
Cr2 O5 2.071935 1_554
Cr3 O7 2.051103 1_555
Cr3 O0 2.051103 1_545
Cr3 O3 2.071935 1_555
Cr3 O4 2.071935 1_545
Cr3 O1 2.071935 1_555
Cr3 O6 2.071935 1_545
Cr4 O0 2.051103 1_455
Cr4 O7 2.051103 1_555
Cr4 O2 2.071935 1_555
Cr4 O5 2.071935 1_455
Cr4 O1 2.071935 1_555
Cr4 O6 2.071935 1_455
