# generated using pymatgen
data_Y2TlPb
_symmetry_space_group_name_H-M   'P 1'
_cell_length_a   13.05891098
_cell_length_b   13.05891098
_cell_length_c   13.05891098
_cell_angle_alpha   126.35151513
_cell_angle_beta   118.72542738
_cell_angle_gamma   85.79356100
_symmetry_Int_Tables_number   1
_chemical_formula_structural   Y2TlPb
_chemical_formula_sum   'Y2 Tl1 Pb1'
_cell_volume   1500.68469982
_cell_formula_units_Z   1
loop_
 _symmetry_equiv_pos_site_id
 _symmetry_equiv_pos_as_xyz
  1  'x, y, z'
loop_
 _atom_site_type_symbol
 _atom_site_label
 _atom_site_symmetry_multiplicity
 _atom_site_fract_x
 _atom_site_fract_y
 _atom_site_fract_z
 _atom_site_occupancy
  Y  Y0  1  0.00000000  0.25712200  0.25712200  1
  Y  Y1  1  0.00000000  0.74287800  0.74287800  1
  Tl  Tl0  1  0.00000000  0.00000000  0.00000000  1
  Pb  Pb0  1  0.00000000  0.50000000  0.50000000  1
loop_
_geom_bond_atom_site_label_1
_geom_bond_atom_site_label_2
_geom_bond_distance
_geom_bond_site_symmetry_2
Tl0 Y0 3.030389 1_555
Tl0 Y1 3.030389 1_544
Pb0 Y1 2.862512 1_555
Pb0 Y0 2.862512 1_555
