# generated using pymatgen
data_Mg6MnNb
_symmetry_space_group_name_H-M   'P 1'
_cell_length_a   4.93518000
_cell_length_b   5.98599200
_cell_length_c   10.98235900
_cell_angle_alpha   90.00000000
_cell_angle_beta   90.00000000
_cell_angle_gamma   90.00000000
_symmetry_Int_Tables_number   1
_chemical_formula_structural   Mg6MnNb
_chemical_formula_sum   'Mg12 Mn2 Nb2'
_cell_volume   324.44027848
_cell_formula_units_Z   2
loop_
 _symmetry_equiv_pos_site_id
 _symmetry_equiv_pos_as_xyz
  1  'x, y, z'
loop_
 _atom_site_type_symbol
 _atom_site_label
 _atom_site_symmetry_multiplicity
 _atom_site_fract_x
 _atom_site_fract_y
 _atom_site_fract_z
 _atom_site_occupancy
  Mg  Mg0  1  0.50000000  0.25122500  0.42128300  1
  Mg  Mg1  1  0.50000000  0.74877500  0.42128300  1
  Mg  Mg2  1  0.00000000  0.74707000  0.08672800  1
  Mg  Mg3  1  0.00000000  0.25293000  0.08672800  1
  Mg  Mg4  1  0.00000000  0.00000000  0.32092900  1
  Mg  Mg5  1  0.00000000  0.50000000  0.32528900  1
  Mg  Mg6  1  0.50000000  0.75122500  0.92128300  1
  Mg  Mg7  1  0.50000000  0.24877500  0.92128300  1
  Mg  Mg8  1  0.00000000  0.24707000  0.58672800  1
  Mg  Mg9  1  0.00000000  0.75293000  0.58672800  1
  Mg  Mg10  1  0.00000000  0.50000000  0.82092900  1
  Mg  Mg11  1  0.00000000  0.00000000  0.82528900  1
  Mn  Mn0  1  0.50000000  0.00000000  0.16446800  1
  Mn  Mn1  1  0.50000000  0.50000000  0.66446800  1
  Nb  Nb0  1  0.50000000  0.50000000  0.17328700  1
  Nb  Nb1  1  0.50000000  0.00000000  0.67328700  1
loop_
_geom_bond_atom_site_label_1
_geom_bond_atom_site_label_2
_geom_bond_distance
_geom_bond_site_symmetry_2
Mg0 Mg1 2.978330 1_555
Mg0 Mg1 3.007662 1_545
Mg0 Mn1 3.057857 1_555
Mg0 Mg8 3.064477 1_655
Mg0 Mg8 3.064477 1_555
Mg0 Mg5 3.068882 1_655
Mg0 Mg5 3.068882 1_555
Mg0 Mg4 3.092763 1_655
Mg0 Mg4 3.092763 1_555
Mg0 Nb0 3.104111 1_555
Mg0 Nb1 3.149779 1_555
Mg0 Mn0 3.196304 1_555
Mg1 Mn1 3.057857 1_555
Mg1 Mg9 3.064477 1_555
Mg1 Mg9 3.064477 1_655
Mg1 Mg5 3.068882 1_655
Mg1 Mg5 3.068882 1_555
Mg1 Mg4 3.092763 1_565
Mg1 Mg4 3.092763 1_665
Mg1 Nb0 3.104111 1_555
Mg1 Nb1 3.149779 1_565
Mg1 Mn0 3.196304 1_565
Mg2 Mg3 2.957918 1_555
Mg2 Mg4 2.984611 1_565
Mg2 Mg5 3.008575 1_555
Mg2 Mn0 3.018316 1_465
Mg2 Mn0 3.018316 1_565
Mg2 Mg3 3.028074 1_565
Mg2 Nb0 3.029852 1_455
Mg2 Nb0 3.029852 1_555
Mg2 Mg6 3.064477 1_554
Mg2 Mg6 3.064477 1_454
Mg3 Mg4 2.984611 1_555
Mg3 Mg5 3.008575 1_555
Mg3 Mn0 3.018316 1_555
Mg3 Mn0 3.018316 1_455
Mg3 Nb0 3.029852 1_455
Mg3 Nb0 3.029852 1_555
Mg3 Mg7 3.064477 1_454
Mg3 Mg7 3.064477 1_554
Mg4 Mg5 2.993379 1_545
Mg4 Mg5 2.993379 1_555
Mg4 Mn0 3.006924 1_455
Mg4 Mn0 3.006924 1_555
Mg4 Mg8 3.272379 1_555
Mg4 Mg9 3.272379 1_545
Mg5 Nb0 2.979211 1_455
Mg5 Nb0 2.979211 1_555
Mg5 Mg8 3.245951 1_555
Mg5 Mg9 3.245951 1_555
Mg6 Mg7 2.978330 1_565
Mg6 Mg7 3.007662 1_555
Mg6 Mn0 3.057857 1_566
Mg6 Nb1 3.104111 1_565
Mg6 Nb0 3.149779 1_556
Mg6 Mn1 3.196304 1_555
Mg7 Mn0 3.057857 1_556
Mg7 Nb1 3.104111 1_555
Mg7 Nb0 3.149779 1_556
Mg7 Mn1 3.196304 1_555
Mg8 Mg9 2.957918 1_545
Mg8 Mn1 3.018316 1_455
Mg8 Mn1 3.018316 1_555
Mg8 Mg9 3.028074 1_555
Mg8 Nb1 3.029852 1_555
Mg8 Nb1 3.029852 1_455
Mg9 Mn1 3.018316 1_455
Mg9 Mn1 3.018316 1_555
Mg9 Nb1 3.029852 1_465
Mg9 Nb1 3.029852 1_565
Mg10 Mg8 2.984611 1_555
Mg10 Mg9 2.984611 1_555
Mg10 Mg11 2.993379 1_565
Mg10 Mg11 2.993379 1_555
Mg10 Mn1 3.006924 1_455
Mg10 Mn1 3.006924 1_555
Mg10 Mg6 3.092763 1_555
Mg10 Mg6 3.092763 1_455
Mg10 Mg7 3.092763 1_455
Mg10 Mg7 3.092763 1_555
Mg10 Mg3 3.272379 1_556
Mg10 Mg2 3.272379 1_556
Mg11 Nb1 2.979211 1_455
Mg11 Nb1 2.979211 1_555
Mg11 Mg9 3.008575 1_545
Mg11 Mg8 3.008575 1_555
Mg11 Mg7 3.068882 1_455
Mg11 Mg7 3.068882 1_555
Mg11 Mg6 3.068882 1_545
Mg11 Mg6 3.068882 1_445
Mg11 Mg3 3.245951 1_556
Mg11 Mg2 3.245951 1_546
Mn0 Nb0 2.994563 1_555
Mn0 Nb0 2.994563 1_545
Mn1 Nb1 2.994563 1_555
Mn1 Nb1 2.994563 1_565
