# generated using pymatgen
data_Sr6As19Rh30
_symmetry_space_group_name_H-M   'P 1'
_cell_length_a   16.20500974
_cell_length_b   16.20500973
_cell_length_c   3.93783880
_cell_angle_alpha   90.00000000
_cell_angle_beta   90.00000000
_cell_angle_gamma   119.99999785
_symmetry_Int_Tables_number   1
_chemical_formula_structural   Sr6As19Rh30
_chemical_formula_sum   'Sr6 As19 Rh30'
_cell_volume   895.54449246
_cell_formula_units_Z   1
loop_
 _symmetry_equiv_pos_site_id
 _symmetry_equiv_pos_as_xyz
  1  'x, y, z'
loop_
 _atom_site_type_symbol
 _atom_site_label
 _atom_site_symmetry_multiplicity
 _atom_site_fract_x
 _atom_site_fract_y
 _atom_site_fract_z
 _atom_site_occupancy
  Sr  Sr0  1  0.09643236  0.70325877  0.24865399  1
  Sr  Sr1  1  0.60682641  0.90356764  0.24865399  1
  Sr  Sr2  1  0.29674123  0.39317359  0.24865399  1
  Sr  Sr3  1  0.90349916  0.29669093  0.74795641  1
  Sr  Sr4  1  0.39319178  0.09650084  0.74795641  1
  Sr  Sr5  1  0.70330907  0.60680822  0.74795641  1
  As  As0  1  0.76751985  0.31739694  0.24875719  1
  As  As1  1  0.54987709  0.23248015  0.24875719  1
  As  As2  1  0.68260306  0.45012291  0.24875719  1
  As  As3  1  0.23249976  0.68271788  0.74761771  1
  As  As4  1  0.45021712  0.76750024  0.74761771  1
  As  As5  1  0.31728212  0.54978288  0.74761771  1
  As  As6  1  0.25504048  0.11692919  0.24697900  1
  As  As7  1  0.86188871  0.74495952  0.24697900  1
  As  As8  1  0.88307081  0.13811129  0.24697900  1
  As  As9  1  0.74503382  0.88294377  0.74974754  1
  As  As10  1  0.13790995  0.25496618  0.74974754  1
  As  As11  1  0.11705623  0.86209005  0.74974754  1
  As  As12  1  0.37054436  0.93675597  0.24751832  1
  As  As13  1  0.56621161  0.62945564  0.24751832  1
  As  As14  1  0.06324403  0.43378839  0.24751832  1
  As  As15  1  0.62950951  0.06343871  0.74904985  1
  As  As16  1  0.43392921  0.37049049  0.74904985  1
  As  As17  1  0.93656129  0.56607079  0.74904985  1
  As  As18  1  0.00000000  0.00000000  0.48392968  1
  Rh  Rh0  1  0.92644859  0.46368711  0.24867375  1
  Rh  Rh1  1  0.53723852  0.07355141  0.24867375  1
  Rh  Rh2  1  0.53631289  0.46276148  0.24867375  1
  Rh  Rh3  1  0.07354540  0.53639217  0.74789460  1
  Rh  Rh4  1  0.46284578  0.92645460  0.74789460  1
  Rh  Rh5  1  0.46360783  0.53715422  0.74789460  1
  Rh  Rh6  1  0.02450828  0.87466544  0.24760561  1
  Rh  Rh7  1  0.85015715  0.97549172  0.24760561  1
  Rh  Rh8  1  0.12533456  0.14984285  0.24760561  1
  Rh  Rh9  1  0.97544868  0.12423799  0.74824850  1
  Rh  Rh10  1  0.14878932  0.02455132  0.74824850  1
  Rh  Rh11  1  0.87576201  0.85121068  0.74824850  1
  Rh  Rh12  1  0.41594672  0.26357441  0.24975603  1
  Rh  Rh13  1  0.84762769  0.58405328  0.24975603  1
  Rh  Rh14  1  0.73642559  0.15237231  0.24975603  1
  Rh  Rh15  1  0.58420045  0.73636421  0.74675012  1
  Rh  Rh16  1  0.15216276  0.41579955  0.74675012  1
  Rh  Rh17  1  0.26363579  0.84783724  0.74675012  1
  Rh  Rh18  1  0.22525160  0.57326477  0.24662310  1
  Rh  Rh19  1  0.34801418  0.77474840  0.24662310  1
  Rh  Rh20  1  0.42673523  0.65198582  0.24662310  1
  Rh  Rh21  1  0.77469950  0.42671119  0.74974693  1
  Rh  Rh22  1  0.65201169  0.22530050  0.74974693  1
  Rh  Rh23  1  0.57328881  0.34798831  0.74974693  1
  Rh  Rh24  1  0.22571865  0.95019487  0.24635625  1
  Rh  Rh25  1  0.72447522  0.77428135  0.24635625  1
  Rh  Rh26  1  0.04980513  0.27552478  0.24635625  1
  Rh  Rh27  1  0.77444519  0.05006799  0.75011922  1
  Rh  Rh28  1  0.27562280  0.22555481  0.75011922  1
  Rh  Rh29  1  0.94993201  0.72437720  0.75011922  1
loop_
_geom_bond_atom_site_label_1
_geom_bond_atom_site_label_2
_geom_bond_distance
_geom_bond_site_symmetry_2
As0 Rh14 2.461280 1_555
As0 Rh0 2.479390 1_555
As0 Rh22 2.607447 1_554
As0 Rh21 2.608973 1_554
As0 Rh22 2.613327 1_555
As0 Rh21 2.614849 1_555
As0 Sr3 3.093836 1_555
As0 Sr3 3.097847 1_554
As1 Rh12 2.461280 1_555
As1 Rh1 2.479390 1_555
As1 Rh23 2.607447 1_554
As1 Rh22 2.608973 1_554
As1 Rh23 2.613327 1_555
As1 Rh22 2.614849 1_555
As1 Sr4 3.093836 1_555
As1 Sr4 3.097847 1_554
As2 Rh13 2.461280 1_555
As2 Rh2 2.479390 1_555
As2 Rh21 2.607447 1_554
As2 Rh23 2.608973 1_554
As2 Rh21 2.613327 1_555
As2 Rh23 2.614849 1_555
As2 Sr5 3.093836 1_555
As2 Sr5 3.097847 1_554
As3 Rh17 2.462561 1_555
As3 Rh3 2.479875 1_555
As3 Rh19 2.607249 1_556
As3 Rh18 2.610110 1_556
As3 Rh19 2.613158 1_555
As3 Rh18 2.616012 1_555
As3 Sr0 3.093098 1_555
As3 Sr0 3.098289 1_556
As4 Rh15 2.462561 1_555
As4 Rh4 2.479875 1_555
As4 Rh20 2.607256 1_556
As4 Rh19 2.610088 1_556
As4 Rh20 2.613164 1_555
As4 Rh19 2.615991 1_555
As4 Sr1 3.093106 1_555
As4 Sr1 3.098297 1_556
As5 Rh16 2.462561 1_555
As5 Rh5 2.479875 1_555
As5 Rh18 2.607235 1_556
As5 Rh20 2.610100 1_556
As5 Rh18 2.613143 1_555
As5 Rh20 2.616002 1_555
As5 Sr2 3.093111 1_555
As5 Sr2 3.098302 1_556
As6 Rh8 2.413190 1_555
As6 Rh24 2.498473 1_545
As6 Rh12 2.499985 1_555
As6 Rh28 2.539845 1_554
As6 Rh10 2.546573 1_554
As6 Rh10 2.554292 1_555
As6 Rh28 2.558946 1_555
As6 Sr4 3.118362 1_554
As6 Sr4 3.123218 1_555
As7 Rh6 2.413190 1_655
As7 Rh25 2.498489 1_555
As7 Rh13 2.499985 1_555
As7 Rh29 2.539845 1_554
As7 Rh11 2.546573 1_554
As7 Rh11 2.554292 1_555
As7 Rh29 2.558946 1_555
As7 Sr5 3.118362 1_554
As7 Sr5 3.123218 1_555
As8 Rh7 2.413189 1_545
As8 Rh26 2.498478 1_655
As8 Rh14 2.499985 1_555
As8 Rh27 2.539845 1_554
As8 Rh9 2.546573 1_554
As8 Rh9 2.554292 1_555
As8 Rh27 2.558946 1_555
As8 Sr3 3.118361 1_554
As8 Sr3 3.123218 1_555
As9 Rh11 2.416959 1_555
As9 Rh15 2.498862 1_555
As9 Rh27 2.504195 1_565
As9 Rh7 2.537691 1_556
As9 Rh25 2.539541 1_556
As9 Rh7 2.550745 1_555
As9 Rh25 2.560165 1_555
As9 Sr1 3.120250 1_556
As9 Sr1 3.125680 1_555
As10 Rh9 2.416959 1_455
As10 Rh16 2.498869 1_555
As10 Rh28 2.504195 1_555
As10 Rh8 2.537691 1_556
As10 Rh26 2.539551 1_556
As10 Rh8 2.550745 1_555
As10 Rh26 2.560175 1_555
As10 Sr2 3.120250 1_556
As10 Sr2 3.125680 1_555
As11 Rh10 2.416959 1_565
As11 Rh17 2.498853 1_555
As11 Rh29 2.504195 1_455
As11 Rh6 2.537691 1_556
As11 Rh24 2.539544 1_556
As11 Rh6 2.550745 1_555
As11 Rh24 2.560168 1_555
As11 Sr0 3.120250 1_556
As11 Sr0 3.125680 1_555
As12 Rh24 2.463027 1_555
As12 Rh19 2.463164 1_555
As12 Rh1 2.494572 1_565
As12 Rh4 2.526979 1_554
As12 Rh4 2.529287 1_555
As12 Rh17 2.538911 1_555
As12 Rh17 2.543599 1_554
As12 Sr4 3.123411 1_564
As12 Sr4 3.125585 1_565
As13 Rh25 2.463017 1_555
As13 Rh20 2.463148 1_555
As13 Rh2 2.494572 1_555
As13 Rh5 2.526985 1_554
As13 Rh5 2.529293 1_555
As13 Rh15 2.538915 1_555
As13 Rh15 2.543603 1_554
As13 Sr5 3.123411 1_554
As13 Sr5 3.125585 1_555
As14 Rh26 2.463010 1_555
As14 Rh18 2.463158 1_555
As14 Rh0 2.494572 1_455
As14 Rh3 2.526989 1_554
As14 Rh3 2.529297 1_555
As14 Rh16 2.538905 1_555
As14 Rh16 2.543593 1_554
As14 Sr3 3.123411 1_454
As14 Sr3 3.125585 1_455
As15 Rh22 2.460995 1_555
As15 Rh27 2.464179 1_555
As15 Rh4 2.495321 1_545
As15 Rh1 2.525566 1_556
As15 Rh1 2.527874 1_555
As15 Rh14 2.539204 1_555
As15 Rh14 2.543513 1_556
As15 Sr1 3.124919 1_546
As15 Sr1 3.126883 1_545
As16 Rh23 2.460995 1_555
As16 Rh28 2.464179 1_555
As16 Rh5 2.495327 1_555
As16 Rh2 2.525566 1_556
As16 Rh2 2.527874 1_555
As16 Rh12 2.539204 1_555
As16 Rh12 2.543512 1_556
As16 Sr2 3.124919 1_556
As16 Sr2 3.126883 1_555
As17 Rh21 2.460995 1_555
As17 Rh29 2.464179 1_555
As17 Rh3 2.495311 1_655
As17 Rh0 2.525566 1_556
As17 Rh0 2.527874 1_555
As17 Rh13 2.539204 1_555
As17 Rh13 2.543513 1_556
As17 Sr0 3.124919 1_656
As17 Sr0 3.126883 1_655
As18 Rh6 2.440402 1_545
As18 Rh8 2.440402 1_555
As18 Rh7 2.440402 1_445
As18 Rh9 2.468993 1_455
As18 Rh11 2.468993 1_445
As18 Rh10 2.468993 1_555
Rh0 Sr3 3.212600 1_555
Rh0 Sr3 3.216061 1_554
Rh1 Sr4 3.212600 1_555
Rh1 Sr4 3.216061 1_554
Rh2 Sr5 3.212600 1_555
Rh2 Sr5 3.216061 1_554
Rh3 Sr0 3.211161 1_555
Rh3 Sr0 3.214826 1_556
Rh4 Sr1 3.211174 1_555
Rh4 Sr1 3.214839 1_556
Rh5 Sr2 3.211166 1_555
Rh5 Sr2 3.214831 1_556
Rh10 Rh28 2.852973 1_555
Rh10 Rh24 2.890589 1_546
Rh10 Rh24 2.900722 1_545
Rh11 Rh29 2.852973 1_555
Rh11 Rh25 2.890599 1_556
Rh11 Rh25 2.900732 1_555
Rh12 Rh28 2.832041 1_554
Rh12 Rh28 2.834029 1_555
Rh12 Sr4 3.211944 1_555
Rh12 Sr4 3.220620 1_554
Rh13 Rh29 2.832041 1_554
Rh13 Rh29 2.834029 1_555
Rh13 Sr5 3.211944 1_555
Rh13 Sr5 3.220620 1_554
Rh14 Rh27 2.832041 1_554
Rh14 Rh27 2.834029 1_555
Rh14 Sr3 3.211944 1_555
Rh14 Sr3 3.220620 1_554
Rh15 Rh25 2.831710 1_556
Rh15 Rh25 2.833866 1_555
Rh15 Sr1 3.213988 1_555
Rh15 Sr1 3.223161 1_556
Rh16 Rh26 2.831710 1_556
Rh16 Rh26 2.833866 1_555
Rh16 Sr2 3.214001 1_555
Rh16 Sr2 3.223174 1_556
Rh17 Rh24 2.831710 1_556
Rh17 Rh24 2.833866 1_555
Rh17 Sr0 3.213993 1_555
Rh17 Sr0 3.223166 1_556
Rh24 Rh6 2.852869 1_555
Rh24 Sr4 3.225507 1_564
Rh24 Sr4 3.233191 1_565
Rh24 Sr0 3.466783 1_555
Rh25 Rh7 2.852871 1_555
Rh25 Sr5 3.225512 1_554
Rh25 Sr5 3.233196 1_555
Rh25 Sr1 3.466769 1_555
Rh26 Rh8 2.852883 1_555
Rh26 Rh9 2.890599 1_454
Rh26 Rh9 2.900732 1_455
Rh26 Sr3 3.225499 1_454
Rh26 Sr3 3.233183 1_455
Rh26 Sr2 3.466784 1_555
Rh27 Rh9 2.852973 1_555
Rh27 Rh7 2.878595 1_546
Rh27 Rh7 2.892104 1_545
Rh27 Sr1 3.227939 1_546
Rh27 Sr1 3.234970 1_545
Rh27 Sr3 3.462355 1_555
Rh28 Rh8 2.878595 1_556
Rh28 Rh8 2.892104 1_555
Rh28 Sr2 3.227939 1_556
Rh28 Sr2 3.234970 1_555
Rh28 Sr4 3.462355 1_555
Rh29 Rh6 2.878595 1_656
Rh29 Rh6 2.892104 1_655
Rh29 Sr0 3.227939 1_656
Rh29 Sr0 3.234970 1_655
Rh29 Sr5 3.462355 1_555
