# generated using pymatgen
data_NaNbO3
_symmetry_space_group_name_H-M   'P 1'
_cell_length_a   5.46380577
_cell_length_b   5.55560515
_cell_length_c   7.91780312
_cell_angle_alpha   90.00000000
_cell_angle_beta   90.00000000
_cell_angle_gamma   90.00000000
_symmetry_Int_Tables_number   1
_chemical_formula_structural   NaNbO3
_chemical_formula_sum   'Na4 Nb4 O12'
_cell_volume   240.34291426
_cell_formula_units_Z   4
loop_
 _symmetry_equiv_pos_site_id
 _symmetry_equiv_pos_as_xyz
  1  'x, y, z'
loop_
 _atom_site_type_symbol
 _atom_site_label
 _atom_site_symmetry_multiplicity
 _atom_site_fract_x
 _atom_site_fract_y
 _atom_site_fract_z
 _atom_site_occupancy
  Na  Na0  1  0.49255674  0.97046334  0.26466861  1
  Na  Na1  1  0.50744326  0.02953666  0.76466861  1
  Na  Na2  1  0.99255674  0.52953666  0.76466861  1
  Na  Na3  1  0.00744326  0.47046334  0.26466861  1
  Nb  Nb0  1  0.50270753  0.50731525  0.01333668  1
  Nb  Nb1  1  0.49729247  0.49268475  0.51333668  1
  Nb  Nb2  1  0.00270753  0.99268475  0.51333668  1
  Nb  Nb3  1  0.99729247  0.00731525  0.01333668  1
  O  O0  1  0.92073762  0.01850118  0.24598454  1
  O  O1  1  0.07926238  0.98149882  0.74598454  1
  O  O2  1  0.42073762  0.48149882  0.74598454  1
  O  O3  1  0.57926238  0.51850118  0.24598454  1
  O  O4  1  0.20413544  0.69852023  0.03436033  1
  O  O5  1  0.79586456  0.30147977  0.53436033  1
  O  O6  1  0.70413544  0.80147977  0.53436033  1
  O  O7  1  0.29586456  0.19852023  0.03436033  1
  O  O8  1  0.78615244  0.27768107  0.95355085  1
  O  O9  1  0.21384756  0.72231893  0.45355085  1
  O  O10  1  0.28615244  0.22231893  0.45355085  1
  O  O11  1  0.71384756  0.77768107  0.95355085  1
loop_
_geom_bond_atom_site_label_1
_geom_bond_atom_site_label_2
_geom_bond_distance
_geom_bond_site_symmetry_2
Na0 O10 2.337998 1_565
Na0 O0 2.359313 1_565
Na0 O7 2.466883 1_565
Na0 O9 2.540884 1_555
Na0 O3 2.559503 1_555
Na0 O6 2.603371 1_555
Na0 O4 2.844506 1_555
Na0 O11 2.945704 1_554
Na1 O11 2.337998 1_545
Na1 O1 2.359313 1_545
Na1 O6 2.466883 1_545
Na1 O8 2.540884 1_555
Na1 O2 2.559503 1_555
Na1 O7 2.603371 1_556
Na1 O5 2.844506 1_555
Na1 O10 2.945704 1_555
Na2 O8 2.337998 1_555
Na2 O2 2.359313 1_655
Na2 O5 2.466883 1_555
Na2 O11 2.540884 1_555
Na2 O1 2.559503 1_655
Na2 O4 2.603371 1_656
Na2 O6 2.844506 1_555
Na2 O9 2.945704 1_655
Na3 O9 2.337998 1_555
Na3 O3 2.359313 1_455
Na3 O4 2.466883 1_555
Na3 O10 2.540884 1_555
Na3 O0 2.559503 1_455
Na3 O5 2.603371 1_455
Na3 O7 2.844506 1_555
Na3 O8 2.945704 1_454
Nb0 O3 1.889975 1_555
Nb0 O11 1.952199 1_554
Nb0 O4 1.953810 1_555
Nb0 O7 2.061077 1_555
Nb0 O8 2.061570 1_554
Nb0 O2 2.168450 1_554
Nb1 O2 1.889975 1_555
Nb1 O10 1.952199 1_555
Nb1 O5 1.953810 1_555
Nb1 O6 2.061077 1_555
Nb1 O9 2.061570 1_555
Nb1 O3 2.168450 1_555
Nb2 O1 1.889975 1_555
Nb2 O9 1.952199 1_555
Nb2 O6 1.953810 1_455
Nb2 O5 2.061077 1_465
Nb2 O10 2.061570 1_565
Nb2 O0 2.168450 1_465
Nb3 O0 1.889975 1_555
Nb3 O8 1.952199 1_554
Nb3 O7 1.953810 1_655
Nb3 O4 2.061077 1_645
Nb3 O11 2.061570 1_544
Nb3 O1 2.168450 1_644
