# generated using pymatgen
data_GaHgO2
_symmetry_space_group_name_H-M   'P 1'
_cell_length_a   7.04752919
_cell_length_b   7.04752919
_cell_length_c   7.04752913
_cell_angle_alpha   24.95779282
_cell_angle_beta   24.95779282
_cell_angle_gamma   24.95779070
_symmetry_Int_Tables_number   1
_chemical_formula_structural   GaHgO2
_chemical_formula_sum   'Ga1 Hg1 O2'
_cell_volume   54.82428661
_cell_formula_units_Z   1
loop_
 _symmetry_equiv_pos_site_id
 _symmetry_equiv_pos_as_xyz
  1  'x, y, z'
loop_
 _atom_site_type_symbol
 _atom_site_label
 _atom_site_symmetry_multiplicity
 _atom_site_fract_x
 _atom_site_fract_y
 _atom_site_fract_z
 _atom_site_occupancy
  Ga  Ga0  1  0.50000000  0.50000000  0.50000000  1
  Hg  Hg0  1  0.00000000  0.00000000  0.00000000  1
  O  O0  1  0.11719100  0.11719100  0.11719100  1
  O  O1  1  0.88280900  0.88280900  0.88280900  1
loop_
_geom_bond_atom_site_label_1
_geom_bond_atom_site_label_2
_geom_bond_distance
_geom_bond_site_symmetry_2
Ga0 O1 2.029311 1_545
Ga0 O1 2.029311 1_455
Ga0 O0 2.029311 1_655
Ga0 O0 2.029311 1_565
Ga0 O1 2.029311 1_554
Ga0 O0 2.029311 1_556
Hg0 O0 2.399358 1_555
Hg0 O1 2.399358 1_444
