# generated using pymatgen
data_ThCu2
_symmetry_space_group_name_H-M   'P 1'
_cell_length_a   4.35172469
_cell_length_b   4.35172493
_cell_length_c   3.50786044
_cell_angle_alpha   90.00000000
_cell_angle_beta   90.00000000
_cell_angle_gamma   119.99999811
_symmetry_Int_Tables_number   1
_chemical_formula_structural   ThCu2
_chemical_formula_sum   'Th1 Cu2'
_cell_volume   57.53018818
_cell_formula_units_Z   1
loop_
 _symmetry_equiv_pos_site_id
 _symmetry_equiv_pos_as_xyz
  1  'x, y, z'
loop_
 _atom_site_type_symbol
 _atom_site_label
 _atom_site_symmetry_multiplicity
 _atom_site_fract_x
 _atom_site_fract_y
 _atom_site_fract_z
 _atom_site_occupancy
  Th  Th0  1  -0.00000000  -0.00000000  0.00000000  1
  Cu  Cu0  1  0.33333300  0.66666700  0.50000000  1
  Cu  Cu1  1  0.66666700  0.33333300  0.50000000  1
loop_
_geom_bond_atom_site_label_1
_geom_bond_atom_site_label_2
_geom_bond_distance
_geom_bond_site_symmetry_2
Cu0 Cu1 2.512467 1_455
Cu0 Cu1 2.512467 1_565
Cu0 Cu1 2.512474 1_555
Cu0 Th0 3.064109 1_565
Cu0 Th0 3.064109 1_566
Cu0 Th0 3.064112 1_665
Cu0 Th0 3.064112 1_666
Cu0 Th0 3.064112 1_556
Cu0 Th0 3.064112 1_555
Cu1 Th0 3.064109 1_656
Cu1 Th0 3.064109 1_655
Cu1 Th0 3.064112 1_555
Cu1 Th0 3.064112 1_556
Cu1 Th0 3.064112 1_666
Cu1 Th0 3.064112 1_665
