# generated using pymatgen
data_K4Sn21Hg2
_symmetry_space_group_name_H-M   'P 1'
_cell_length_a   12.29800110
_cell_length_b   12.29800110
_cell_length_c   12.29182982
_cell_angle_alpha   90.00000000
_cell_angle_beta   90.00000000
_cell_angle_gamma   90.05164619
_symmetry_Int_Tables_number   1
_chemical_formula_structural   K4Sn21Hg2
_chemical_formula_sum   'K8 Sn42 Hg4'
_cell_volume   1859.02580208
_cell_formula_units_Z   2
loop_
 _symmetry_equiv_pos_site_id
 _symmetry_equiv_pos_as_xyz
  1  'x, y, z'
loop_
 _atom_site_type_symbol
 _atom_site_label
 _atom_site_symmetry_multiplicity
 _atom_site_fract_x
 _atom_site_fract_y
 _atom_site_fract_z
 _atom_site_occupancy
  K  K0  1  0.49887695  0.99886688  0.25000000  1
  K  K1  1  0.00113312  0.50112305  0.75000000  1
  K  K2  1  0.47638121  0.52361879  -0.00000000  1
  K  K3  1  0.01820676  0.23311860  0.25000000  1
  K  K4  1  0.76688140  0.98179324  0.75000000  1
  K  K5  1  0.47638121  0.52361879  0.50000000  1
  K  K6  1  0.01992337  0.76495355  0.25000000  1
  K  K7  1  0.23504645  0.98007663  0.75000000  1
  Sn  Sn0  1  0.50028456  0.11592884  0.94291290  1
  Sn  Sn1  1  0.61579660  0.30769914  0.25000000  1
  Sn  Sn2  1  0.81434561  -0.00024652  0.13255118  1
  Sn  Sn3  1  0.50057721  0.88042850  0.56476365  1
  Sn  Sn4  1  0.38004525  0.68781406  0.25000000  1
  Sn  Sn5  1  0.18868975  0.00037724  0.36833914  1
  Sn  Sn6  1  0.61638334  0.69325727  0.25000000  1
  Sn  Sn7  1  0.81434561  -0.00024652  0.36744882  1
  Sn  Sn8  1  0.38134204  0.31582964  0.25000000  1
  Sn  Sn9  1  0.18868975  0.00037724  0.13166086  1
  Sn  Sn10  1  0.50057721  0.88042850  0.93523635  1
  Sn  Sn11  1  0.50028456  0.11592884  0.55708710  1
  Sn  Sn12  1  0.00024652  0.18565439  0.86744882  1
  Sn  Sn13  1  0.11957150  0.49942279  0.06476365  1
  Sn  Sn14  1  0.30674273  0.38361666  0.75000000  1
  Sn  Sn15  1  -0.00037724  0.81131025  0.63166086  1
  Sn  Sn16  1  0.88407116  0.49971544  0.44291290  1
  Sn  Sn17  1  0.68417036  0.61865796  0.75000000  1
  Sn  Sn18  1  0.11957150  0.49942279  0.43523635  1
  Sn  Sn19  1  0.31218594  0.61995475  0.75000000  1
  Sn  Sn20  1  0.88407116  0.49971544  0.05708710  1
  Sn  Sn21  1  0.69230086  0.38420340  0.75000000  1
  Sn  Sn22  1  0.00024652  0.18565439  0.63255118  1
  Sn  Sn23  1  -0.00037724  0.81131025  0.86833914  1
  Sn  Sn24  1  0.68549547  0.18220016  0.06725404  1
  Sn  Sn25  1  0.31823131  0.81833173  0.43321741  1
  Sn  Sn26  1  0.68387584  0.81896044  0.43402219  1
  Sn  Sn27  1  0.31712469  0.18433197  0.06849560  1
  Sn  Sn28  1  0.31823131  0.81833173  0.06678259  1
  Sn  Sn29  1  0.68549547  0.18220016  0.43274596  1
  Sn  Sn30  1  0.31712469  0.18433197  0.43150440  1
  Sn  Sn31  1  0.68387584  0.81896044  0.06597781  1
  Sn  Sn32  1  0.18103956  0.31612416  0.93402219  1
  Sn  Sn33  1  0.81566803  0.68287531  0.56849560  1
  Sn  Sn34  1  0.18166827  0.68176869  0.56678259  1
  Sn  Sn35  1  0.81779984  0.31450453  0.93274596  1
  Sn  Sn36  1  0.81779984  0.31450453  0.56725404  1
  Sn  Sn37  1  0.18166827  0.68176869  0.93321741  1
  Sn  Sn38  1  0.81566803  0.68287531  0.93150440  1
  Sn  Sn39  1  0.18103956  0.31612416  0.56597781  1
  Sn  Sn40  1  0.50009095  0.24982923  0.75000000  1
  Sn  Sn41  1  0.75017077  0.49990905  0.25000000  1
  Hg  Hg0  1  0.00096235  0.99903765  -0.00000000  1
  Hg  Hg1  1  0.49881544  0.74942663  0.75000000  1
  Hg  Hg2  1  0.25057337  0.50118456  0.25000000  1
  Hg  Hg3  1  0.00096235  0.99903765  0.50000000  1
loop_
_geom_bond_atom_site_label_1
_geom_bond_atom_site_label_2
_geom_bond_distance
_geom_bond_site_symmetry_2
K0 Sn28 3.863646 1_555
K0 Sn25 3.863646 1_555
K0 Sn30 3.896793 1_565
K0 Sn27 3.896793 1_565
K0 Sn26 3.898313 1_555
K0 Sn31 3.898313 1_555
K0 Sn29 3.922628 1_565
K0 Sn24 3.922628 1_565
K0 Sn6 4.027848 1_555
K0 Sn11 4.039908 1_565
K0 Sn0 4.039908 1_564
K0 Sn1 4.059877 1_565
K0 Sn9 4.082665 1_565
K0 Sn5 4.082665 1_565
K0 Sn4 4.093742 1_555
K0 Sn10 4.134171 1_554
K0 Sn3 4.134171 1_555
K0 Sn2 4.139536 1_565
K0 Sn7 4.139536 1_565
K0 Sn8 4.158598 1_565
K1 Sn37 3.863646 1_555
K1 Sn34 3.863646 1_555
K1 Sn38 3.896793 1_455
K1 Sn33 3.896793 1_455
K1 Sn32 3.898313 1_555
K1 Sn39 3.898313 1_555
K1 Sn35 3.922628 1_455
K1 Sn36 3.922628 1_455
K1 Sn14 4.027848 1_555
K1 Sn20 4.039908 1_456
K1 Sn16 4.039908 1_455
K1 Sn21 4.059877 1_455
K1 Sn15 4.082665 1_555
K1 Sn23 4.082665 1_555
K1 Sn19 4.093742 1_555
K1 Sn13 4.134171 1_556
K1 Sn18 4.134171 1_555
K1 Sn22 4.139536 1_555
K1 Sn12 4.139536 1_555
K1 Sn17 4.158598 1_455
K2 Sn4 3.863736 1_555
K2 Sn19 3.863736 1_554
K3 Sn5 3.836003 1_555
K3 Sn9 3.836003 1_555
K3 Sn7 4.073466 1_455
K3 Sn2 4.073466 1_455
K3 Sn18 4.178103 1_555
K3 Sn13 4.178103 1_555
K4 Sn23 3.836003 1_655
K4 Sn15 3.836003 1_655
K4 Sn12 4.073466 1_665
K4 Sn22 4.073466 1_665
K4 Sn3 4.178103 1_555
K4 Sn10 4.178103 1_555
K5 Sn19 3.863736 1_555
K5 Sn4 3.863736 1_555
K6 Sn5 3.846442 1_565
K6 Sn9 3.846442 1_565
K6 Sn2 4.102091 1_465
K6 Sn7 4.102091 1_465
K6 Sn18 4.166139 1_555
K6 Sn13 4.166139 1_555
K7 Sn23 3.846442 1_555
K7 Sn15 3.846442 1_555
K7 Sn12 4.102091 1_565
K7 Sn22 4.102091 1_565
K7 Sn3 4.166139 1_555
K7 Sn10 4.166139 1_555
Sn0 Sn27 2.857911 1_556
Sn0 Sn24 2.860919 1_556
Sn0 Sn40 2.886953 1_555
Sn0 Sn10 2.897726 1_545
Sn1 Sn29 2.857434 1_555
Sn1 Sn24 2.857434 1_555
Sn1 Sn41 2.882944 1_555
Sn1 Sn8 2.885146 1_555
Sn2 Sn31 2.860271 1_545
Sn2 Sn24 2.862846 1_555
Sn2 Sn7 2.887322 1_555
Sn4 Sn6 2.907197 1_555
Sn5 Sn9 2.909209 1_555
Sn10 Sn28 2.867642 1_556
Sn10 Sn31 2.870291 1_556
Sn11 Sn30 2.857911 1_555
Sn11 Sn29 2.860919 1_555
Sn11 Sn40 2.886953 1_555
Sn11 Sn3 2.897726 1_545
Sn12 Sn32 2.860271 1_555
Sn12 Sn35 2.862846 1_455
Sn12 Sn22 2.887322 1_555
Sn13 Sn37 2.867642 1_554
Sn13 Sn32 2.870291 1_554
Sn13 Sn20 2.897726 1_455
Sn14 Sn32 2.862330 1_555
Sn14 Sn39 2.862330 1_555
Sn14 Sn40 2.892757 1_555
Sn14 Sn19 2.907197 1_555
Sn15 Sn34 2.862267 1_555
Sn15 Sn33 2.865147 1_455
Sn15 Sn23 2.909209 1_555
Sn16 Sn33 2.857911 1_555
Sn16 Sn36 2.860919 1_555
Sn16 Sn41 2.886953 1_555
Sn16 Sn18 2.897726 1_655
Sn17 Sn33 2.866017 1_555
Sn17 Sn38 2.866017 1_555
Sn17 Sn21 2.885146 1_555
Sn18 Sn34 2.867642 1_555
Sn18 Sn39 2.870291 1_555
Sn19 Sn37 2.868502 1_555
Sn19 Sn34 2.868502 1_555
Sn20 Sn38 2.857911 1_554
Sn20 Sn35 2.860919 1_554
Sn20 Sn41 2.886953 1_555
Sn21 Sn36 2.857434 1_555
Sn21 Sn35 2.857434 1_555
Sn21 Sn40 2.882944 1_555
Sn22 Sn39 2.860271 1_555
Sn22 Sn36 2.862846 1_455
Sn23 Sn37 2.862267 1_555
Sn23 Sn38 2.865147 1_455
Sn24 Sn35 2.832591 1_554
Sn25 Sn5 2.862267 1_565
Sn25 Sn3 2.867642 1_555
Sn25 Sn4 2.868502 1_555
Sn25 Sn34 2.886419 1_555
Sn26 Sn33 2.857417 1_555
Sn26 Sn7 2.860271 1_565
Sn26 Sn6 2.862330 1_555
Sn26 Sn3 2.870291 1_555
Sn27 Sn32 2.857417 1_554
Sn27 Sn9 2.865147 1_555
Sn27 Sn8 2.866017 1_555
Sn28 Sn9 2.862267 1_565
Sn28 Sn4 2.868502 1_555
Sn28 Sn37 2.886419 1_554
Sn29 Sn36 2.832591 1_555
Sn29 Sn7 2.862846 1_555
Sn30 Sn39 2.857417 1_555
Sn30 Sn5 2.865147 1_555
Sn30 Sn8 2.866017 1_555
Sn31 Sn38 2.857417 1_554
Sn31 Sn6 2.862330 1_555
Sn41 Sn6 2.892757 1_555
Hg0 Sn2 2.814570 1_465
Hg0 Sn12 2.814570 1_564
Hg0 Sn23 2.819439 1_554
Hg0 Sn9 2.819439 1_565
Hg1 Sn3 2.789295 1_555
Hg1 Sn10 2.789295 1_555
Hg1 Sn17 2.790877 1_555
Hg1 Sn19 2.792214 1_555
Hg2 Sn13 2.789295 1_555
Hg2 Sn18 2.789295 1_555
Hg2 Sn8 2.790877 1_555
Hg2 Sn4 2.792214 1_555
Hg3 Sn7 2.814570 1_465
Hg3 Sn22 2.814570 1_565
Hg3 Sn15 2.819439 1_555
Hg3 Sn5 2.819439 1_565
