# generated using pymatgen
data_Sn2Ge5(SbTe5)2
_symmetry_space_group_name_H-M   'P 1'
_cell_length_a   4.29519852
_cell_length_b   4.29519852
_cell_length_c   37.92945247
_cell_angle_alpha   90.00000000
_cell_angle_beta   86.75412620
_cell_angle_gamma   120.00000000
_symmetry_Int_Tables_number   1
_chemical_formula_structural   Sn2Ge5(SbTe5)2
_chemical_formula_sum   'Sn2 Ge5 Sb2 Te10'
_cell_volume   604.70490019
_cell_formula_units_Z   1
loop_
 _symmetry_equiv_pos_site_id
 _symmetry_equiv_pos_as_xyz
  1  'x, y, z'
loop_
 _atom_site_type_symbol
 _atom_site_label
 _atom_site_symmetry_multiplicity
 _atom_site_fract_x
 _atom_site_fract_y
 _atom_site_fract_z
 _atom_site_occupancy
  Sn  Sn0  1  0.90702300  0.95351200  0.13946500  1
  Sn  Sn1  1  0.50292700  0.25146300  0.24561000  1
  Ge  Ge0  1  0.29495500  0.14747700  0.55756800  1
  Ge  Ge1  1  0.89598000  0.44799000  0.65603000  1
  Ge  Ge2  1  0.49602300  0.74801200  0.75596500  1
  Ge  Ge3  1  0.09579500  0.04789700  0.85630800  1
  Ge  Ge4  1  0.69482000  0.34741000  0.95777000  1
  Sb  Sb0  1  0.10024100  0.55012100  0.34963800  1
  Sb  Sb1  1  0.69660300  0.84830100  0.45509600  1
  Te  Te0  1  0.40416500  0.70208300  0.89375200  1
  Te  Te1  1  0.20425500  0.10212800  0.69361700  1
  Te  Te2  1  0.80431700  0.40215800  0.79352500  1
  Te  Te3  1  0.99940400  0.49970200  0.50089400  1
  Te  Te4  1  0.60320400  0.80160200  0.59519500  1
  Te  Te5  1  0.39881600  0.19940800  0.40177500  1
  Te  Te6  1  0.19836600  0.59918300  0.20245100  1
  Te  Te7  1  0.79747400  0.89873700  0.30378900  1
  Te  Te8  1  0.00358700  0.00179400  0.99461900  1
  Te  Te9  1  0.60204500  0.30102300  0.09693200  1
loop_
_geom_bond_atom_site_label_1
_geom_bond_atom_site_label_2
_geom_bond_distance
_geom_bond_site_symmetry_2
Sn0 Te9 2.956525 1_555
Sn0 Te9 2.956525 1_665
Sn0 Te9 2.956525 1_565
Sn0 Te6 3.439856 1_555
Sn0 Te6 3.439856 1_665
Sn0 Te6 3.439859 1_655
Sn1 Te6 2.969491 1_655
Sn1 Te6 2.969491 1_545
Sn1 Te6 2.969494 1_555
Sn1 Te7 3.316363 1_545
Sn1 Te7 3.316366 1_555
Sn1 Te7 3.316366 1_445
Ge0 Te4 2.859665 1_445
Ge0 Te4 2.859665 1_545
Ge0 Te4 2.859668 1_555
Ge0 Te3 3.278820 1_445
Ge0 Te3 3.278820 1_555
Ge0 Te3 3.278822 1_455
Ge1 Te1 2.858910 1_655
Ge1 Te1 2.858913 1_665
Ge1 Te1 2.858913 1_555
Ge2 Te2 2.858402 1_565
Ge2 Te2 2.858402 1_455
Ge2 Te2 2.858408 1_555
Ge3 Te0 2.856219 1_545
Ge3 Te0 2.856225 1_445
Ge3 Te0 2.856225 1_555
Ge4 Te8 2.845114 1_655
Ge4 Te8 2.845117 1_665
Ge4 Te8 2.845117 1_555
Sb0 Te7 3.026690 1_455
Sb0 Te7 3.026693 1_445
Sb0 Te7 3.026693 1_555
Sb0 Te5 3.169143 1_565
Sb0 Te5 3.169145 1_455
Sb0 Te5 3.169145 1_555
Sb1 Te3 3.025584 1_555
Sb1 Te3 3.025587 1_565
Sb1 Te3 3.025587 1_455
Sb1 Te5 3.197237 1_665
Sb1 Te5 3.197240 1_555
Sb1 Te5 3.197243 1_565
