# generated using pymatgen
data_Ba2YAg5S6
_symmetry_space_group_name_H-M   'P 1'
_cell_length_a   4.23072100
_cell_length_b   7.34936399
_cell_length_c   11.26924557
_cell_angle_alpha   94.81523053
_cell_angle_beta   90.00000000
_cell_angle_gamma   106.72803340
_symmetry_Int_Tables_number   1
_chemical_formula_structural   Ba2YAg5S6
_chemical_formula_sum   'Ba2 Y1 Ag5 S6'
_cell_volume   334.27619885
_cell_formula_units_Z   1
loop_
 _symmetry_equiv_pos_site_id
 _symmetry_equiv_pos_as_xyz
  1  'x, y, z'
loop_
 _atom_site_type_symbol
 _atom_site_label
 _atom_site_symmetry_multiplicity
 _atom_site_fract_x
 _atom_site_fract_y
 _atom_site_fract_z
 _atom_site_occupancy
  Ba  Ba0  1  0.25140200  0.50280400  0.70360100  1
  Ba  Ba1  1  0.74859800  0.49719600  0.29639900  1
  Y  Y0  1  0.50000000  0.00000000  0.50000000  1
  Ag  Ag0  1  0.01872200  0.03744400  0.25635300  1
  Ag  Ag1  1  0.98127800  0.96255600  0.74364700  1
  Ag  Ag2  1  0.35155300  0.70310700  0.03762600  1
  Ag  Ag3  1  0.64844700  0.29689300  0.96237400  1
  Ag  Ag4  1  0.00000000  0.00000000  0.00000000  1
  S  S0  1  0.12529300  0.25058500  0.45441200  1
  S  S1  1  0.87470700  0.74941500  0.54558800  1
  S  S2  1  0.15810300  0.31620600  0.10217400  1
  S  S3  1  0.84189700  0.68379400  0.89782600  1
  S  S4  1  0.41342200  0.82684400  0.26524500  1
  S  S5  1  0.58657800  0.17315600  0.73475500  1
loop_
_geom_bond_atom_site_label_1
_geom_bond_atom_site_label_2
_geom_bond_distance
_geom_bond_site_symmetry_2
Ba0 S5 3.181829 1_455
Ba0 S5 3.181829 1_555
Ba0 S0 3.187990 1_555
Ba0 S3 3.224814 1_555
Ba0 S3 3.224814 1_455
Ba0 S1 3.346669 1_555
Ba0 S1 3.346672 1_455
Ba1 S4 3.181829 1_655
Ba1 S4 3.181829 1_555
Ba1 S1 3.187990 1_555
Ba1 S2 3.224814 1_555
Ba1 S2 3.224814 1_655
Ba1 S0 3.346669 1_555
Ba1 S0 3.346672 1_655
Ag0 S0 2.577833 1_555
Ag0 S4 2.589976 1_445
Ag0 S4 2.589976 1_545
Ag0 S2 2.732397 1_555
Ag1 S1 2.577833 1_555
Ag1 S5 2.589976 1_665
Ag1 S5 2.589976 1_565
Ag1 S3 2.732397 1_555
Ag2 S3 2.633949 1_454
Ag2 S3 2.633953 1_554
Ag2 S4 2.635633 1_555
Ag2 S2 2.879564 1_555
Ag3 S2 2.633949 1_656
Ag3 S2 2.633953 1_556
Ag3 S5 2.635633 1_555
Ag3 S3 2.879564 1_555
Ag4 S2 2.414478 1_555
Ag4 S3 2.414478 1_444
S0 Y0 2.829871 1_555
S0 Y0 2.829874 1_455
S1 Y0 2.829871 1_565
S1 Y0 2.829874 1_665
S4 Y0 2.814042 1_565
S5 Y0 2.814042 1_555
