# generated using pymatgen
data_La2H28PtN4(Cl3O13)2
_symmetry_space_group_name_H-M   'P 1'
_cell_length_a   7.02434500
_cell_length_b   16.68563500
_cell_length_c   13.55024014
_cell_angle_alpha   90.00000000
_cell_angle_beta   93.50582759
_cell_angle_gamma   90.00000000
_symmetry_Int_Tables_number   1
_chemical_formula_structural   La2H28PtN4(Cl3O13)2
_chemical_formula_sum   'La4 H56 Pt2 N8 Cl12 O52'
_cell_volume   1585.19267774
_cell_formula_units_Z   2
loop_
 _symmetry_equiv_pos_site_id
 _symmetry_equiv_pos_as_xyz
  1  'x, y, z'
loop_
 _atom_site_type_symbol
 _atom_site_label
 _atom_site_symmetry_multiplicity
 _atom_site_fract_x
 _atom_site_fract_y
 _atom_site_fract_z
 _atom_site_occupancy
  La  La0  1  0.50244200  0.19065000  0.64918500  1
  La  La1  1  0.49755800  0.69065000  0.85081500  1
  La  La2  1  0.49755800  0.80935000  0.35081500  1
  La  La3  1  0.50244200  0.30935000  0.14918500  1
  H  H0  1  0.28906100  0.33894300  0.93511300  1
  H  H1  1  0.71093900  0.83894300  0.56488700  1
  H  H2  1  0.71093900  0.66105700  0.06488700  1
  H  H3  1  0.28906100  0.16105700  0.43511300  1
  H  H4  1  0.19392900  0.25940400  0.97581400  1
  H  H5  1  0.80607100  0.75940400  0.52418600  1
  H  H6  1  0.80607100  0.74059600  0.02418600  1
  H  H7  1  0.19392900  0.24059600  0.47581400  1
  H  H8  1  0.90111100  0.09912300  0.70108200  1
  H  H9  1  0.09888900  0.59912300  0.79891800  1
  H  H10  1  0.09888900  0.90087700  0.29891800  1
  H  H11  1  0.90111100  0.40087700  0.20108200  1
  H  H12  1  0.75979500  0.06663900  0.77907900  1
  H  H13  1  0.24020500  0.56663900  0.72092100  1
  H  H14  1  0.24020500  0.93336100  0.22092100  1
  H  H15  1  0.75979500  0.43336100  0.27907900  1
  H  H16  1  0.11515000  0.28101900  0.68192800  1
  H  H17  1  0.88485000  0.78101900  0.81807200  1
  H  H18  1  0.88485000  0.71898100  0.31807200  1
  H  H19  1  0.11515000  0.21898100  0.18192800  1
  H  H20  1  0.27456400  0.33494500  0.73575500  1
  H  H21  1  0.72543600  0.83494500  0.76424500  1
  H  H22  1  0.72543600  0.66505500  0.26424500  1
  H  H23  1  0.27456400  0.16505500  0.23575500  1
  H  H24  1  0.48427400  0.15575700  0.88525600  1
  H  H25  1  0.51572600  0.65575700  0.61474400  1
  H  H26  1  0.51572600  0.84424300  0.11474400  1
  H  H27  1  0.48427400  0.34424300  0.38525600  1
  H  H28  1  0.32059200  0.10197200  0.83612800  1
  H  H29  1  0.67940800  0.60197200  0.66387200  1
  H  H30  1  0.67940800  0.89802800  0.16387200  1
  H  H31  1  0.32059200  0.39802800  0.33612800  1
  H  H32  1  0.76035800  0.09853500  0.48826600  1
  H  H33  1  0.23964200  0.59853500  0.01173400  1
  H  H34  1  0.23964200  0.90146500  0.51173400  1
  H  H35  1  0.76035800  0.40146500  0.98826600  1
  H  H36  1  0.69112400  0.17937400  0.44184400  1
  H  H37  1  0.30887600  0.67937400  0.05815600  1
  H  H38  1  0.30887600  0.82062600  0.55815600  1
  H  H39  1  0.69112400  0.32062600  0.94184400  1
  H  H40  1  0.68771800  0.34980900  0.55518200  1
  H  H41  1  0.31228200  0.84980900  0.94481800  1
  H  H42  1  0.31228200  0.65019100  0.44481800  1
  H  H43  1  0.68771800  0.15019100  0.05518200  1
  H  H44  1  0.47111700  0.36946300  0.56270300  1
  H  H45  1  0.52888300  0.86946300  0.93729700  1
  H  H46  1  0.52888300  0.63053700  0.43729700  1
  H  H47  1  0.47111700  0.13053700  0.06270300  1
  H  H48  1  0.40806900  0.44633700  0.85436800  1
  H  H49  1  0.59193100  0.94633700  0.64563200  1
  H  H50  1  0.59193100  0.55366300  0.14563200  1
  H  H51  1  0.40806900  0.05366300  0.35436800  1
  H  H52  1  0.18751400  0.44007000  0.83746700  1
  H  H53  1  0.81248600  0.94007000  0.66253300  1
  H  H54  1  0.81248600  0.55993000  0.16253300  1
  H  H55  1  0.18751400  0.05993000  0.33746700  1
  Pt  Pt0  1  0.00000000  0.50000000  0.50000000  1
  Pt  Pt1  1  0.00000000  0.00000000  0.00000000  1
  N  N0  1  0.21930600  0.45567000  0.12165700  1
  N  N1  1  0.78069400  0.95567000  0.37834300  1
  N  N2  1  0.78069400  0.54433000  0.87834300  1
  N  N3  1  0.21930600  0.04433000  0.62165700  1
  N  N4  1  0.82107100  0.28385400  0.77478700  1
  N  N5  1  0.17892900  0.78385400  0.72521300  1
  N  N6  1  0.17892900  0.71614600  0.22521300  1
  N  N7  1  0.82107100  0.21614600  0.27478700  1
  Cl  Cl0  1  0.98841200  0.36283200  0.45973500  1
  Cl  Cl1  1  0.01158800  0.86283200  0.04026500  1
  Cl  Cl2  1  0.01158800  0.63716800  0.54026500  1
  Cl  Cl3  1  0.98841200  0.13716800  0.95973500  1
  Cl  Cl4  1  0.29864500  0.48575400  0.58590300  1
  Cl  Cl5  1  0.70135500  0.98575400  0.91409700  1
  Cl  Cl6  1  0.70135500  0.51424600  0.41409700  1
  Cl  Cl7  1  0.29864500  0.01424600  0.08590300  1
  Cl  Cl8  1  0.15280500  0.52524400  0.35392500  1
  Cl  Cl9  1  0.84719500  0.02524400  0.14607500  1
  Cl  Cl10  1  0.84719500  0.47475600  0.64607500  1
  Cl  Cl11  1  0.15280500  0.97475600  0.85392500  1
  O  O0  1  0.28716400  0.30144900  0.99250900  1
  O  O1  1  0.71283600  0.80144900  0.50749100  1
  O  O2  1  0.71283600  0.69855100  0.00749100  1
  O  O3  1  0.28716400  0.19855100  0.49250900  1
  O  O4  1  0.76513100  0.09136900  0.71335600  1
  O  O5  1  0.23486900  0.59136900  0.78664400  1
  O  O6  1  0.23486900  0.90863100  0.28664400  1
  O  O7  1  0.76513100  0.40863100  0.21335600  1
  O  O8  1  0.25398600  0.29180000  0.68624600  1
  O  O9  1  0.74601400  0.79180000  0.81375400  1
  O  O10  1  0.74601400  0.70820000  0.31375400  1
  O  O11  1  0.25398600  0.20820000  0.18624600  1
  O  O12  1  0.41887600  0.14141600  0.82182100  1
  O  O13  1  0.58112400  0.64141600  0.67817900  1
  O  O14  1  0.58112400  0.85858400  0.17817900  1
  O  O15  1  0.41887600  0.35858400  0.32182100  1
  O  O16  1  0.69441900  0.14848700  0.50373900  1
  O  O17  1  0.30558100  0.64848700  0.99626100  1
  O  O18  1  0.30558100  0.85151300  0.49626100  1
  O  O19  1  0.69441900  0.35151300  0.00373900  1
  O  O20  1  0.55990100  0.32566300  0.54890900  1
  O  O21  1  0.44009900  0.82566300  0.95109100  1
  O  O22  1  0.44009900  0.67433700  0.45109100  1
  O  O23  1  0.55990100  0.17433700  0.04890900  1
  O  O24  1  0.15442100  0.39242000  0.16042100  1
  O  O25  1  0.84557900  0.89242000  0.33957900  1
  O  O26  1  0.84557900  0.60758000  0.83957900  1
  O  O27  1  0.15442100  0.10758000  0.66042100  1
  O  O28  1  0.39985200  0.45763000  0.10977200  1
  O  O29  1  0.60014800  0.95763000  0.39022800  1
  O  O30  1  0.60014800  0.54237000  0.89022800  1
  O  O31  1  0.39985200  0.04237000  0.60977200  1
  O  O32  1  0.11489700  0.51309600  0.09579800  1
  O  O33  1  0.88510300  0.01309600  0.40420200  1
  O  O34  1  0.88510300  0.48690400  0.90420200  1
  O  O35  1  0.11489700  0.98690400  0.59579800  1
  O  O36  1  0.85679100  0.25870000  0.68845600  1
  O  O37  1  0.14320900  0.75870000  0.81154400  1
  O  O38  1  0.14320900  0.74130000  0.31154400  1
  O  O39  1  0.85679100  0.24130000  0.18845600  1
  O  O40  1  0.64856500  0.27622700  0.80081400  1
  O  O41  1  0.35143500  0.77622700  0.69918600  1
  O  O42  1  0.35143500  0.72377300  0.19918600  1
  O  O43  1  0.64856500  0.22377300  0.30081400  1
  O  O44  1  0.94537800  0.31395100  0.83166600  1
  O  O45  1  0.05462200  0.81395100  0.66833400  1
  O  O46  1  0.05462200  0.68604900  0.16833400  1
  O  O47  1  0.94537800  0.18604900  0.33166600  1
  O  O48  1  0.30376900  0.40763700  0.84245300  1
  O  O49  1  0.69623100  0.90763700  0.65754700  1
  O  O50  1  0.69623100  0.59236300  0.15754700  1
  O  O51  1  0.30376900  0.09236300  0.34245300  1
loop_
_geom_bond_atom_site_label_1
_geom_bond_atom_site_label_2
_geom_bond_distance
_geom_bond_site_symmetry_2
La0 O8 2.500750 1_555
La0 O3 2.533491 1_555
La0 O16 2.553942 1_555
La0 O12 2.580600 1_555
La0 O4 2.590155 1_555
La0 O31 2.622756 1_555
La0 O40 2.656305 1_555
La0 O20 2.674176 1_555
La0 O36 2.757881 1_555
La0 O27 2.822423 1_555
La1 O9 2.500750 1_555
La1 O2 2.533491 1_556
La1 O17 2.553942 1_555
La1 O13 2.580600 1_555
La1 O5 2.590155 1_555
La1 O30 2.622756 1_555
La1 O41 2.656305 1_555
La1 O21 2.674176 1_555
La1 O37 2.757881 1_555
La1 O26 2.822423 1_555
La2 O10 2.500750 1_555
La2 O1 2.533491 1_555
La2 O18 2.553942 1_555
La2 O14 2.580600 1_555
La2 O6 2.590155 1_555
La2 O29 2.622756 1_555
La2 O42 2.656305 1_555
La2 O22 2.674176 1_555
La2 O38 2.757881 1_555
La2 O25 2.822423 1_555
La3 O11 2.500750 1_555
La3 O0 2.533491 1_554
La3 O19 2.553942 1_555
La3 O15 2.580600 1_555
La3 O7 2.590155 1_555
La3 O28 2.622756 1_555
La3 O43 2.656305 1_555
La3 O23 2.674176 1_555
La3 O39 2.757881 1_555
La3 O24 2.822423 1_555
H0 O0 0.998848 1_555
H1 O1 0.998848 1_555
H2 O2 0.998848 1_555
H3 O3 0.998848 1_555
H4 O0 0.976800 1_555
H5 O1 0.976800 1_555
H6 O2 0.976800 1_555
H7 O3 0.976800 1_555
H8 O4 0.988018 1_555
H9 O5 0.988018 1_555
H10 O6 0.988018 1_555
H11 O7 0.988018 1_555
H12 O4 0.984305 1_555
H13 O5 0.984305 1_555
H14 O6 0.984305 1_555
H15 O7 0.984305 1_555
H16 O8 0.989890 1_555
H17 O9 0.989890 1_555
H18 O10 0.989890 1_555
H19 O11 0.989890 1_555
H20 O8 0.988607 1_555
H21 O9 0.988607 1_555
H22 O10 0.988607 1_555
H23 O11 0.988607 1_555
H24 O12 0.979203 1_555
H25 O13 0.979203 1_555
H26 O14 0.979203 1_555
H27 O15 0.979203 1_555
H28 O12 0.981701 1_555
H29 O13 0.981701 1_555
H30 O14 0.981701 1_555
H31 O15 0.981701 1_555
H32 O16 0.982375 1_555
H33 O17 0.982375 1_554
H34 O18 0.982375 1_555
H35 O19 0.982375 1_556
H36 O16 0.983449 1_555
H37 O17 0.983449 1_554
H38 O18 0.983449 1_555
H39 O19 0.983449 1_556
H40 O20 0.983012 1_555
H41 O21 0.983012 1_555
H42 O22 0.983012 1_555
H43 O23 0.983012 1_555
H44 O20 0.986025 1_555
H45 O21 0.986025 1_555
H46 O22 0.986025 1_555
H47 O23 0.986025 1_555
H48 O48 0.982514 1_555
H49 O49 0.982514 1_555
H50 O50 0.982514 1_555
H51 O51 0.982514 1_555
H52 O48 0.978538 1_555
H53 O49 0.978538 1_555
H54 O50 0.978538 1_555
H55 O51 0.978538 1_555
N0 O32 1.243928 1_555
N0 O24 1.275424 1_555
N0 O28 1.288549 1_555
N1 O33 1.243928 1_565
N1 O25 1.275424 1_555
N1 O29 1.288549 1_555
N2 O34 1.243928 1_555
N2 O26 1.275424 1_555
N2 O30 1.288549 1_555
N3 O35 1.243928 1_545
N3 O27 1.275424 1_555
N3 O31 1.288549 1_555
N4 O44 1.235450 1_555
N4 O36 1.281973 1_555
N4 O40 1.288858 1_555
N5 O45 1.235450 1_555
N5 O37 1.281973 1_555
N5 O41 1.288858 1_555
N6 O46 1.235450 1_555
N6 O38 1.281973 1_555
N6 O42 1.288858 1_555
N7 O47 1.235450 1_555
N7 O39 1.281973 1_555
N7 O43 1.288858 1_555
Cl0 Pt0 2.353122 1_655
Cl1 Pt1 2.353122 1_565
Cl2 Pt0 2.353122 1_555
Cl3 Pt1 2.353122 1_656
Cl4 Pt0 2.348080 1_555
Cl5 Pt1 2.348080 1_666
Cl6 Pt0 2.348080 1_655
Cl7 Pt1 2.348080 1_555
Cl8 Pt0 2.346737 1_555
Cl9 Pt1 2.346737 1_655
Cl10 Pt0 2.346737 1_655
Cl11 Pt1 2.346737 1_566
