# generated using pymatgen
data_Tb2Si4CN6
_symmetry_space_group_name_H-M   'P 1'
_cell_length_a   9.97760000
_cell_length_b   5.97331700
_cell_length_c   11.96299140
_cell_angle_alpha   60.41211914
_cell_angle_beta   90.00000000
_cell_angle_gamma   90.00000000
_symmetry_Int_Tables_number   1
_chemical_formula_structural   Tb2Si4CN6
_chemical_formula_sum   'Tb8 Si16 C4 N24'
_cell_volume   620.01281817
_cell_formula_units_Z   4
loop_
 _symmetry_equiv_pos_site_id
 _symmetry_equiv_pos_as_xyz
  1  'x, y, z'
loop_
 _atom_site_type_symbol
 _atom_site_label
 _atom_site_symmetry_multiplicity
 _atom_site_fract_x
 _atom_site_fract_y
 _atom_site_fract_z
 _atom_site_occupancy
  Tb  Tb0  1  0.08549900  0.33980100  0.91929200  1
  Tb  Tb1  1  0.91450100  0.66019900  0.08070800  1
  Tb  Tb2  1  0.58549900  0.66019900  0.58070800  1
  Tb  Tb3  1  0.41450100  0.33980100  0.41929200  1
  Tb  Tb4  1  0.93558600  0.66820900  0.59541700  1
  Tb  Tb5  1  0.06441400  0.33179100  0.40458300  1
  Tb  Tb6  1  0.43558600  0.33179100  0.90458300  1
  Tb  Tb7  1  0.56441400  0.66820900  0.09541700  1
  Si  Si0  1  0.28675000  0.83450600  0.92044100  1
  Si  Si1  1  0.71325000  0.16549400  0.07955900  1
  Si  Si2  1  0.78675000  0.16549400  0.57955900  1
  Si  Si3  1  0.21325000  0.83450600  0.42044100  1
  Si  Si4  1  0.27207300  0.32323500  0.65906200  1
  Si  Si5  1  0.72792700  0.67676500  0.34093800  1
  Si  Si6  1  0.77207300  0.67676500  0.84093800  1
  Si  Si7  1  0.22792700  0.32323500  0.15906200  1
  Si  Si8  1  0.01963900  0.99461600  0.74929700  1
  Si  Si9  1  0.98036100  0.00538400  0.25070300  1
  Si  Si10  1  0.51963900  0.00538400  0.75070300  1
  Si  Si11  1  0.48036100  0.99461600  0.24929700  1
  Si  Si12  1  0.29416500  0.79848300  0.67632400  1
  Si  Si13  1  0.70583500  0.20151700  0.32367600  1
  Si  Si14  1  0.79416500  0.20151700  0.82367600  1
  Si  Si15  1  0.20583500  0.79848300  0.17632400  1
  C  C0  1  0.20803000  0.97687400  0.75219400  1
  C  C1  1  0.79197000  0.02312600  0.24780600  1
  C  C2  1  0.70803000  0.02312600  0.74780600  1
  C  C3  1  0.29197000  0.97687400  0.25219400  1
  N  N0  1  0.45418300  0.94089900  0.89913000  1
  N  N1  1  0.54581700  0.05910100  0.10087000  1
  N  N2  1  0.95418300  0.05910100  0.60087000  1
  N  N3  1  0.04581700  0.94089900  0.39913000  1
  N  N4  1  0.44608300  0.29898300  0.63802200  1
  N  N5  1  0.55391700  0.70101700  0.36197800  1
  N  N6  1  0.94608300  0.70101700  0.86197800  1
  N  N7  1  0.05391700  0.29898300  0.13802200  1
  N  N8  1  0.46374800  0.76024800  0.72288800  1
  N  N9  1  0.53625200  0.23975200  0.27711200  1
  N  N10  1  0.96374800  0.23975200  0.77711200  1
  N  N11  1  0.03625200  0.76024800  0.22288800  1
  N  N12  1  0.20941200  0.49435600  0.50147300  1
  N  N13  1  0.79058800  0.50564400  0.49852700  1
  N  N14  1  0.70941200  0.50564400  0.99852700  1
  N  N15  1  0.29058800  0.49435600  0.00147300  1
  N  N16  1  0.23578700  0.48269600  0.74509400  1
  N  N17  1  0.76421300  0.51730400  0.25490600  1
  N  N18  1  0.73578700  0.51730400  0.75490600  1
  N  N19  1  0.26421300  0.48269600  0.24509400  1
  N  N20  1  0.28902200  0.95583700  0.50969800  1
  N  N21  1  0.71097800  0.04416300  0.49030200  1
  N  N22  1  0.78902200  0.04416300  0.99030200  1
  N  N23  1  0.21097800  0.95583700  0.00969800  1
loop_
_geom_bond_atom_site_label_1
_geom_bond_atom_site_label_2
_geom_bond_distance
_geom_bond_site_symmetry_2
C0 Si8 1.882031 1_555
C0 Si12 1.911272 1_555
C0 Si4 1.911485 1_565
C0 Si0 1.923782 1_555
C1 Si9 1.882031 1_555
C1 Si13 1.911272 1_555
C1 Si5 1.911485 1_545
C1 Si1 1.923782 1_555
C2 Si10 1.882031 1_555
C2 Si14 1.911272 1_555
C2 Si6 1.911485 1_545
C2 Si2 1.923782 1_555
C3 Si11 1.882031 1_555
C3 Si15 1.911272 1_555
C3 Si7 1.911485 1_565
C3 Si3 1.923782 1_555
N0 Si10 1.747098 1_565
N0 Si0 1.760602 1_555
N0 Tb7 2.366364 1_556
N0 Tb6 2.375071 1_565
N1 Si11 1.747098 1_545
N1 Si1 1.760602 1_555
N1 Tb6 2.366364 1_554
N1 Tb7 2.375071 1_545
N2 Si8 1.747098 1_645
N2 Si2 1.760602 1_555
N2 Tb5 2.366364 1_655
N2 Tb4 2.375071 1_545
N3 Si9 1.747098 1_465
N3 Si3 1.760602 1_555
N3 Tb4 2.366364 1_455
N3 Tb5 2.375071 1_565
N4 Si10 1.759787 1_555
N4 Si4 1.770521 1_555
N4 Tb2 2.366360 1_555
N4 Tb3 2.525005 1_555
N5 Si11 1.759787 1_555
N5 Si5 1.770521 1_555
N5 Tb3 2.366360 1_555
N5 Tb2 2.525005 1_555
N6 Si8 1.759787 1_655
N6 Si6 1.770521 1_555
N6 Tb0 2.366360 1_655
N6 Tb1 2.525005 1_556
N7 Si9 1.759787 1_455
N7 Si7 1.770521 1_555
N7 Tb1 2.366360 1_455
N7 Tb0 2.525005 1_554
N8 Si10 1.745555 1_565
N8 Si12 1.760624 1_555
N8 Tb2 2.393682 1_555
N8 Tb6 2.420768 1_555
N9 Si11 1.745555 1_545
N9 Si13 1.760624 1_555
N9 Tb3 2.393682 1_555
N9 Tb7 2.420768 1_555
N10 Si8 1.745555 1_645
N10 Si14 1.760624 1_555
N10 Tb0 2.393682 1_655
N10 Tb4 2.420768 1_555
N11 Si9 1.745555 1_465
N11 Si15 1.760624 1_555
N11 Tb1 2.393682 1_455
N11 Tb5 2.420768 1_555
N12 Si4 1.756944 1_555
N12 Si3 1.767612 1_555
N12 Tb5 2.343281 1_555
N12 Tb3 2.627258 1_555
N13 Si5 1.756944 1_555
N13 Si2 1.767612 1_555
N13 Tb4 2.343281 1_555
N13 Tb2 2.627258 1_555
N14 Si6 1.756944 1_555
N14 Si1 1.767612 1_556
N14 Tb7 2.343281 1_556
N14 Tb1 2.627258 1_556
N15 Si7 1.756944 1_555
N15 Si0 1.767612 1_554
N15 Tb6 2.343281 1_554
N15 Tb0 2.627258 1_554
N16 Si12 1.744059 1_555
N16 Si4 1.750912 1_555
N16 Tb0 2.358668 1_555
N16 Tb6 2.593952 1_555
N17 Si13 1.744059 1_555
N17 Si5 1.750912 1_555
N17 Tb1 2.358668 1_555
N17 Tb7 2.593952 1_555
N18 Si14 1.744059 1_555
N18 Si6 1.750912 1_555
N18 Tb2 2.358668 1_555
N18 Tb4 2.593952 1_555
N19 Si15 1.744059 1_555
N19 Si7 1.750912 1_555
N19 Tb3 2.358668 1_555
N19 Tb5 2.593952 1_555
N20 Si3 1.732397 1_555
N20 Si12 1.734737 1_555
N20 Tb3 2.355401 1_565
N21 Si2 1.732397 1_555
N21 Si13 1.734737 1_555
N21 Tb2 2.355401 1_545
N22 Si1 1.732397 1_556
N22 Si14 1.734737 1_555
N22 Tb1 2.355401 1_546
N23 Si0 1.732397 1_554
N23 Si15 1.734737 1_555
N23 Tb0 2.355401 1_564
