# generated using pymatgen
data_RbSm2Ag3Se5
_symmetry_space_group_name_H-M   'P 1'
_cell_length_a   7.95946184
_cell_length_b   7.95946184
_cell_length_c   17.61860900
_cell_angle_alpha   90.00000000
_cell_angle_beta   90.00000000
_cell_angle_gamma   148.31630185
_symmetry_Int_Tables_number   1
_chemical_formula_structural   RbSm2Ag3Se5
_chemical_formula_sum   'Rb2 Sm4 Ag6 Se10'
_cell_volume   586.25719294
_cell_formula_units_Z   2
loop_
 _symmetry_equiv_pos_site_id
 _symmetry_equiv_pos_as_xyz
  1  'x, y, z'
loop_
 _atom_site_type_symbol
 _atom_site_label
 _atom_site_symmetry_multiplicity
 _atom_site_fract_x
 _atom_site_fract_y
 _atom_site_fract_z
 _atom_site_occupancy
  Rb  Rb0  1  0.43621562  0.56378438  0.25000000  1
  Rb  Rb1  1  0.56378438  0.43621562  0.75000000  1
  Sm  Sm0  1  0.30891834  0.69108166  0.90436577  1
  Sm  Sm1  1  0.30891834  0.69108166  0.59563423  1
  Sm  Sm2  1  0.69108166  0.30891834  0.40436577  1
  Sm  Sm3  1  0.69108166  0.30891834  0.09563423  1
  Ag  Ag0  1  0.08436553  0.91563447  0.96408869  1
  Ag  Ag1  1  0.08436553  0.91563447  0.53591131  1
  Ag  Ag2  1  0.91563447  0.08436553  0.46408869  1
  Ag  Ag3  1  0.16023842  0.83976158  0.25000000  1
  Ag  Ag4  1  0.83976158  0.16023842  0.75000000  1
  Ag  Ag5  1  0.91563447  0.08436553  0.03591131  1
  Se  Se0  1  0.67773374  0.32226626  0.57051179  1
  Se  Se1  1  0.93610530  0.06389470  0.87983506  1
  Se  Se2  1  0.32226626  0.67773374  0.42948821  1
  Se  Se3  1  0.32226626  0.67773374  0.07051179  1
  Se  Se4  1  0.67773374  0.32226626  0.92948821  1
  Se  Se5  1  0.75728522  0.24271478  0.25000000  1
  Se  Se6  1  0.24271478  0.75728522  0.75000000  1
  Se  Se7  1  0.93610530  0.06389470  0.62016494  1
  Se  Se8  1  0.06389470  0.93610530  0.37983506  1
  Se  Se9  1  0.06389470  0.93610530  0.12016494  1
loop_
_geom_bond_atom_site_label_1
_geom_bond_atom_site_label_2
_geom_bond_distance
_geom_bond_site_symmetry_2
Rb0 Se5 3.497101 1_455
Rb0 Se5 3.497101 1_565
Rb0 Se2 3.611865 1_555
Rb0 Se3 3.611865 1_555
Rb0 Se8 3.711742 1_655
Rb0 Se9 3.711742 1_655
Rb0 Se8 3.711742 1_545
Rb0 Se9 3.711742 1_545
Rb1 Se6 3.497101 1_655
Rb1 Se6 3.497101 1_545
Rb1 Se0 3.611865 1_555
Rb1 Se4 3.611865 1_555
Rb1 Se7 3.711742 1_565
Rb1 Se1 3.711742 1_565
Rb1 Se1 3.711742 1_455
Rb1 Se7 3.711742 1_455
Ag0 Se4 2.671554 1_565
Ag0 Se4 2.671554 1_455
Ag0 Se1 2.712696 1_465
Ag0 Se9 2.767659 1_556
Ag1 Se0 2.671554 1_565
Ag1 Se0 2.671554 1_455
Ag1 Se7 2.712696 1_465
Ag1 Se8 2.767659 1_555
Ag2 Se2 2.671554 1_545
Ag2 Se2 2.671554 1_655
Ag2 Se8 2.712696 1_645
Ag2 Se7 2.767659 1_555
Ag3 Se5 2.632461 1_455
Ag3 Se5 2.632461 1_565
Ag3 Se8 2.722064 1_555
Ag3 Se9 2.722064 1_555
Ag4 Se6 2.632461 1_655
Ag4 Se6 2.632461 1_545
Ag4 Se7 2.722064 1_555
Ag4 Se1 2.722064 1_555
Ag5 Se3 2.671554 1_655
Ag5 Se3 2.671554 1_545
Ag5 Se9 2.712696 1_645
Ag5 Se1 2.767659 1_554
Se0 Sm2 2.934390 1_555
Se0 Sm1 2.992165 1_655
Se0 Sm1 2.992165 1_545
Se1 Sm0 2.949863 1_545
Se1 Sm0 2.949863 1_655
Se2 Sm1 2.934390 1_555
Se2 Sm2 2.992165 1_565
Se2 Sm2 2.992165 1_455
Se3 Sm0 2.934390 1_554
Se3 Sm3 2.992165 1_455
Se3 Sm3 2.992165 1_565
Se4 Sm3 2.934390 1_556
Se4 Sm0 2.992165 1_655
Se4 Sm0 2.992165 1_545
Se5 Sm2 2.902540 1_555
Se5 Sm3 2.902540 1_555
Se6 Sm1 2.902540 1_555
Se6 Sm0 2.902540 1_555
Se7 Sm1 2.949863 1_545
Se7 Sm1 2.949863 1_655
Se8 Sm2 2.949863 1_455
Se8 Sm2 2.949863 1_565
Se9 Sm3 2.949863 1_455
Se9 Sm3 2.949863 1_565
