# generated using pymatgen
data_Pa3Cd
_symmetry_space_group_name_H-M   'P 1'
_cell_length_a   4.62533700
_cell_length_b   4.62533700
_cell_length_c   4.62533700
_cell_angle_alpha   90.00000000
_cell_angle_beta   90.00000000
_cell_angle_gamma   90.00000000
_symmetry_Int_Tables_number   1
_chemical_formula_structural   Pa3Cd
_chemical_formula_sum   'Pa3 Cd1'
_cell_volume   98.95326812
_cell_formula_units_Z   1
loop_
 _symmetry_equiv_pos_site_id
 _symmetry_equiv_pos_as_xyz
  1  'x, y, z'
loop_
 _atom_site_type_symbol
 _atom_site_label
 _atom_site_symmetry_multiplicity
 _atom_site_fract_x
 _atom_site_fract_y
 _atom_site_fract_z
 _atom_site_occupancy
  Pa  Pa0  1  0.50000000  0.50000000  0.00000000  1
  Pa  Pa1  1  0.50000000  0.00000000  0.50000000  1
  Pa  Pa2  1  0.00000000  0.50000000  0.50000000  1
  Cd  Cd0  1  0.00000000  0.00000000  0.00000000  1
loop_
_geom_bond_atom_site_label_1
_geom_bond_atom_site_label_2
_geom_bond_distance
_geom_bond_site_symmetry_2
Pa0 Pa2 3.270607 1_654
Pa0 Pa2 3.270607 1_554
Pa0 Pa1 3.270607 1_565
Pa0 Pa2 3.270607 1_555
Pa0 Pa2 3.270607 1_655
Pa0 Pa1 3.270607 1_555
Pa0 Pa1 3.270607 1_564
Pa0 Pa1 3.270607 1_554
Pa1 Pa2 3.270607 1_645
Pa1 Pa2 3.270607 1_555
Pa1 Pa2 3.270607 1_655
Pa1 Pa2 3.270607 1_545
Cd0 Pa1 3.270607 1_454
Cd0 Pa2 3.270607 1_554
Cd0 Pa0 3.270607 1_445
Cd0 Pa0 3.270607 1_545
Cd0 Pa2 3.270607 1_544
Cd0 Pa0 3.270607 1_555
Cd0 Pa2 3.270607 1_555
Cd0 Pa1 3.270607 1_455
Cd0 Pa1 3.270607 1_555
Cd0 Pa0 3.270607 1_455
Cd0 Pa1 3.270607 1_554
Cd0 Pa2 3.270607 1_545
