# generated using pymatgen
data_TeMo2SeS2
_symmetry_space_group_name_H-M   'P 1'
_cell_length_a   3.30794713
_cell_length_b   3.30794713
_cell_length_c   37.55735000
_cell_angle_alpha   90.00000000
_cell_angle_beta   90.00000000
_cell_angle_gamma   119.99998264
_symmetry_Int_Tables_number   1
_chemical_formula_structural   TeMo2SeS2
_chemical_formula_sum   'Te2 Mo4 Se2 S4'
_cell_volume   355.91211311
_cell_formula_units_Z   2
loop_
 _symmetry_equiv_pos_site_id
 _symmetry_equiv_pos_as_xyz
  1  'x, y, z'
loop_
 _atom_site_type_symbol
 _atom_site_label
 _atom_site_symmetry_multiplicity
 _atom_site_fract_x
 _atom_site_fract_y
 _atom_site_fract_z
 _atom_site_occupancy
  Te  Te0  1  0.33333300  0.66666700  0.70849700  1
  Te  Te1  1  0.33333300  0.66666700  0.60659000  1
  Mo  Mo0  1  0.33333300  0.66666700  0.09390700  1
  Mo  Mo1  1  0.33333300  0.66666700  0.46964100  1
  Mo  Mo2  1  0.66666700  0.33333300  0.28180100  1
  Mo  Mo3  1  0.66666700  0.33333300  0.65757300  1
  Se  Se0  1  0.66666700  0.33333300  0.04916800  1
  Se  Se1  1  0.66666700  0.33333300  0.13867800  1
  S  S0  1  0.33333300  0.66666700  0.32248500  1
  S  S1  1  0.66666700  0.33333300  0.42903300  1
  S  S2  1  0.66666700  0.33333300  0.51024800  1
  S  S3  1  0.33333300  0.66666700  0.24112700  1
loop_
_geom_bond_atom_site_label_1
_geom_bond_atom_site_label_2
_geom_bond_distance
_geom_bond_site_symmetry_2
Mo0 Se0 2.543783 1_455
Mo0 Se0 2.543783 1_565
Mo0 Se0 2.543787 1_555
Mo0 Se1 2.544577 1_455
Mo0 Se1 2.544577 1_565
Mo0 Se1 2.544581 1_555
Mo1 S2 2.444054 1_455
Mo1 S2 2.444054 1_565
Mo1 S2 2.444059 1_555
Mo1 S1 2.444078 1_455
Mo1 S1 2.444078 1_565
Mo1 S1 2.444082 1_555
Mo2 S3 2.445625 1_655
Mo2 S3 2.445625 1_545
Mo2 S3 2.445630 1_555
Mo2 S0 2.445860 1_545
Mo2 S0 2.445860 1_655
Mo2 S0 2.445864 1_555
Mo3 Te0 2.702855 1_545
Mo3 Te0 2.702855 1_655
Mo3 Te0 2.702859 1_555
Mo3 Te1 2.704423 1_545
Mo3 Te1 2.704423 1_655
Mo3 Te1 2.704427 1_555
