# generated using pymatgen
data_Li7Mn2(CoO4)3
_symmetry_space_group_name_H-M   'P 1'
_cell_length_a   6.50791123
_cell_length_b   6.50791123
_cell_length_c   12.04165056
_cell_angle_alpha   75.88217915
_cell_angle_beta   75.88217915
_cell_angle_gamma   26.14027962
_symmetry_Int_Tables_number   1
_chemical_formula_structural   Li7Mn2(CoO4)3
_chemical_formula_sum   'Li7 Mn2 Co3 O12'
_cell_volume   217.53213016
_cell_formula_units_Z   1
loop_
 _symmetry_equiv_pos_site_id
 _symmetry_equiv_pos_as_xyz
  1  'x, y, z'
loop_
 _atom_site_type_symbol
 _atom_site_label
 _atom_site_symmetry_multiplicity
 _atom_site_fract_x
 _atom_site_fract_y
 _atom_site_fract_z
 _atom_site_occupancy
  Li  Li0  1  0.67238400  0.67238400  0.57284900  1
  Li  Li1  1  0.33350000  0.33350000  0.42593900  1
  Li  Li2  1  0.00008800  0.00008800  0.26202500  1
  Li  Li3  1  0.66776200  0.66776200  0.09307200  1
  Li  Li4  1  0.33371300  0.33371300  0.90856400  1
  Li  Li5  1  0.99446100  0.99446100  0.73260400  1
  Li  Li6  1  0.33676800  0.33676800  0.66303300  1
  Mn  Mn0  1  0.00045300  0.00045300  0.99937400  1
  Mn  Mn1  1  0.67319400  0.67319400  0.82817800  1
  Co  Co0  1  0.98940800  0.98940800  0.51371100  1
  Co  Co1  1  0.65788900  0.65788900  0.34102500  1
  Co  Co2  1  0.32745100  0.32745100  0.17247900  1
  O  O0  1  0.50727300  0.50727300  0.37261900  1
  O  O1  1  0.17004600  0.17004600  0.20836900  1
  O  O2  1  0.84548300  0.84548300  0.04641300  1
  O  O3  1  0.50430300  0.50430300  0.89059700  1
  O  O4  1  0.16390500  0.16390500  0.72915900  1
  O  O5  1  0.84248700  0.84248700  0.53831000  1
  O  O6  1  0.81918600  0.81918600  0.79985600  1
  O  O7  1  0.50433500  0.50433500  0.62113000  1
  O  O8  1  0.16501200  0.16501200  0.45023500  1
  O  O9  1  0.83062100  0.83062100  0.27773000  1
  O  O10  1  0.50241900  0.50241900  0.10516000  1
  O  O11  1  0.15785800  0.15785800  0.94756900  1
loop_
_geom_bond_atom_site_label_1
_geom_bond_atom_site_label_2
_geom_bond_distance
_geom_bond_site_symmetry_2
Li0 O7 2.063308 1_555
Li0 O5 2.091652 1_555
Li0 O8 2.103282 1_655
Li0 O8 2.103282 1_565
Li0 O4 2.370439 1_655
Li0 O4 2.370439 1_565
Li1 O5 2.021666 1_455
Li1 O5 2.021666 1_545
Li1 O8 2.082293 1_555
Li1 O0 2.134927 1_555
Li1 O9 2.320563 1_455
Li1 O9 2.320563 1_545
Li2 O0 2.002134 1_545
Li2 O0 2.002134 1_455
Li2 O1 2.088904 1_555
Li2 O9 2.109217 1_445
Li2 O10 2.388907 1_455
Li2 O10 2.388907 1_545
Li3 O1 2.028424 1_565
Li3 O1 2.028424 1_655
Li3 O10 2.064690 1_555
Li3 O2 2.181475 1_555
Li3 O11 2.315547 1_564
Li3 O11 2.315547 1_654
Li4 O6 2.008527 1_545
Li4 O6 2.008527 1_455
Li4 O3 2.119050 1_555
Li4 O11 2.160388 1_555
Li4 O2 2.251146 1_546
Li4 O2 2.251146 1_456
Li5 O7 1.974673 1_565
Li5 O7 1.974673 1_655
Li5 O4 2.138308 1_665
Li5 O6 2.166318 1_555
Li5 O3 2.433089 1_655
Li5 O3 2.433089 1_565
Li6 O7 2.057019 1_555
Li6 O5 2.091006 1_545
Li6 O5 2.091006 1_455
Li6 O4 2.136225 1_555
Li6 O6 2.178585 1_455
Li6 O6 2.178585 1_545
Mn0 O2 1.903668 1_446
Mn0 O11 1.936082 1_555
Mn0 O10 1.950681 1_546
Mn0 O10 1.950681 1_456
Mn0 O3 1.962664 1_455
Mn0 O3 1.962664 1_545
Mn1 O6 1.796188 1_555
Mn1 O4 1.916212 1_655
Mn1 O4 1.916212 1_565
Mn1 O11 2.032403 1_565
Mn1 O11 2.032403 1_655
Mn1 O3 2.084253 1_555
Co0 O5 1.811429 1_555
Co0 O7 1.999383 1_565
Co0 O7 1.999383 1_655
Co0 O8 2.165391 1_665
Co0 O0 2.216097 1_655
Co0 O0 2.216097 1_565
Co1 O0 1.851349 1_555
Co1 O8 1.990730 1_565
Co1 O8 1.990730 1_655
Co1 O9 2.130987 1_555
Co1 O1 2.148976 1_655
Co1 O1 2.148976 1_565
Co2 O1 1.933282 1_555
Co2 O9 1.949201 1_455
Co2 O9 1.949201 1_545
Co2 O2 2.085397 1_455
Co2 O2 2.085397 1_545
Co2 O10 2.162785 1_555
