# generated using pymatgen
data_BaSrPrVO6
_symmetry_space_group_name_H-M   'P 1'
_cell_length_a   5.96617014
_cell_length_b   5.96189771
_cell_length_c   8.42580147
_cell_angle_alpha   90.70330203
_cell_angle_beta   90.54216820
_cell_angle_gamma   90.28137617
_symmetry_Int_Tables_number   1
_chemical_formula_structural   BaSrPrVO6
_chemical_formula_sum   'Ba2 Sr2 Pr2 V2 O12'
_cell_volume   299.66341517
_cell_formula_units_Z   2
loop_
 _symmetry_equiv_pos_site_id
 _symmetry_equiv_pos_as_xyz
  1  'x, y, z'
loop_
 _atom_site_type_symbol
 _atom_site_label
 _atom_site_symmetry_multiplicity
 _atom_site_fract_x
 _atom_site_fract_y
 _atom_site_fract_z
 _atom_site_occupancy
  Ba  Ba0  1  0.50385623  0.51857121  0.24962043  1
  Ba  Ba1  1  0.49614377  0.48142879  0.75037957  1
  Sr  Sr0  1  0.99424832  0.03257852  0.25452918  1
  Sr  Sr1  1  0.00575168  0.96742148  0.74547082  1
  Pr  Pr0  1  0.00000000  0.50000000  0.00000000  1
  Pr  Pr1  1  0.50000000  -0.00000000  0.50000000  1
  V  V0  1  0.50000000  -0.00000000  0.00000000  1
  V  V1  1  0.00000000  0.50000000  0.50000000  1
  O  O0  1  0.24860990  0.19666224  0.95965734  1
  O  O1  1  0.25020623  0.69788868  0.52522146  1
  O  O2  1  0.75139010  0.80333776  0.04034266  1
  O  O3  1  0.74979377  0.30211132  0.47477854  1
  O  O4  1  0.30196141  0.74961383  0.96689896  1
  O  O5  1  0.18975268  0.24028995  0.53646295  1
  O  O6  1  0.69803859  0.25038617  0.03310104  1
  O  O7  1  0.81024732  0.75971005  0.46353705  1
  O  O8  1  0.42614113  0.00043023  0.22370947  1
  O  O9  1  0.05275460  0.47091750  0.27615847  1
  O  O10  1  0.57385887  -0.00043023  0.77629053  1
  O  O11  1  0.94724540  0.52908250  0.72384153  1
loop_
_geom_bond_atom_site_label_1
_geom_bond_atom_site_label_2
_geom_bond_distance
_geom_bond_site_symmetry_2
Ba0 O6 2.685790 1_555
Ba0 O9 2.716526 1_555
Ba0 O3 2.728288 1_555
Ba0 O2 2.875912 1_555
Ba0 O7 2.916380 1_555
Ba0 O8 2.922697 1_565
Ba0 O1 2.974378 1_555
Ba0 O4 3.010897 1_554
Ba0 O8 3.126126 1_555
Ba1 O4 2.685790 1_555
Ba1 O11 2.716526 1_555
Ba1 O1 2.728288 1_555
Ba1 O0 2.875912 1_555
Ba1 O5 2.916380 1_555
Ba1 O10 2.922697 1_555
Ba1 O3 2.974378 1_555
Ba1 O6 3.010897 1_556
Ba1 O10 3.126126 1_565
O0 V0 1.938342 1_556
O0 Pr0 2.367895 1_556
O0 Sr1 2.663594 1_545
O0 Sr0 3.090196 1_456
O1 V1 1.906826 1_555
O1 Pr1 2.345076 1_565
O1 Sr1 2.855566 1_555
O2 V0 1.938342 1_565
O2 Pr0 2.367895 1_655
O2 Sr0 2.663594 1_565
O2 Sr1 3.090196 1_654
O3 V1 1.906826 1_655
O3 Pr1 2.345076 1_555
O3 Sr0 2.855566 1_555
O4 V0 1.915308 1_566
O4 Pr0 2.351893 1_556
O4 Sr1 2.882680 1_555
O5 V1 1.948276 1_555
O5 Pr1 2.366188 1_555
O5 Sr1 2.653743 1_545
O5 Sr0 2.897979 1_455
O6 V0 1.915308 1_555
O6 Pr0 2.351893 1_655
O6 Sr0 2.882680 1_555
O7 V1 1.948276 1_655
O7 Pr1 2.366188 1_565
O7 Sr0 2.653743 1_565
O7 Sr1 2.897979 1_655
O8 V0 1.939784 1_555
O8 Pr1 2.365241 1_555
O8 Sr0 2.600016 1_455
O9 V1 1.920945 1_555
O9 Pr0 2.353714 1_555
O9 Sr0 2.638694 1_455
O10 V0 1.939784 1_556
O10 Pr1 2.365241 1_555
O10 Sr1 2.600016 1_645
O11 V1 1.920945 1_655
O11 Pr0 2.353714 1_656
O11 Sr1 2.638694 1_655
