# generated using pymatgen
data_MnH10C2N4O7
_symmetry_space_group_name_H-M   'P 1'
_cell_length_a   7.37326737
_cell_length_b   7.64596677
_cell_length_c   19.84552483
_cell_angle_alpha   85.11530963
_cell_angle_beta   79.82821261
_cell_angle_gamma   61.17296560
_symmetry_Int_Tables_number   1
_chemical_formula_structural   MnH10C2N4O7
_chemical_formula_sum   'Mn4 H40 C8 N16 O28'
_cell_volume   964.75764281
_cell_formula_units_Z   4
loop_
 _symmetry_equiv_pos_site_id
 _symmetry_equiv_pos_as_xyz
  1  'x, y, z'
loop_
 _atom_site_type_symbol
 _atom_site_label
 _atom_site_symmetry_multiplicity
 _atom_site_fract_x
 _atom_site_fract_y
 _atom_site_fract_z
 _atom_site_occupancy
  Mn  Mn0  1  0.46702200  0.63653500  0.89660300  1
  Mn  Mn1  1  0.53297800  0.36346500  0.10339700  1
  Mn  Mn2  1  0.89644300  0.63653500  0.60339700  1
  Mn  Mn3  1  0.10355700  0.36346500  0.39660300  1
  H  H0  1  0.49306900  0.97568400  0.71172100  1
  H  H1  1  0.50693100  0.02431600  0.28827900  1
  H  H2  1  0.53124700  0.97568400  0.78827900  1
  H  H3  1  0.46875300  0.02431600  0.21172100  1
  H  H4  1  0.75785200  0.22703900  0.87541900  1
  H  H5  1  0.24214800  0.77296100  0.12458100  1
  H  H6  1  0.01510900  0.22703900  0.62458100  1
  H  H7  1  0.98489100  0.77296100  0.37541900  1
  H  H8  1  0.43501300  0.55526400  0.76437400  1
  H  H9  1  0.56498700  0.44473600  0.23562600  1
  H  H10  1  0.00972300  0.55526400  0.73562600  1
  H  H11  1  0.99027700  0.44473600  0.26437400  1
  H  H12  1  0.46917100  0.39554800  0.65848500  1
  H  H13  1  0.53082900  0.60445200  0.34151500  1
  H  H14  1  0.13528100  0.39554800  0.84151500  1
  H  H15  1  0.86471900  0.60445200  0.15848500  1
  H  H16  1  0.24310700  0.77102800  0.78471600  1
  H  H17  1  0.75689300  0.22897200  0.21528400  1
  H  H18  1  0.98586400  0.77102800  0.71528400  1
  H  H19  1  0.01413600  0.22897200  0.28471600  1
  H  H20  1  0.19506200  0.96934900  0.44511200  1
  H  H21  1  0.80493800  0.03065100  0.55488800  1
  H  H22  1  0.83558900  0.96934900  0.05488800  1
  H  H23  1  0.16441100  0.03065100  0.94511200  1
  H  H24  1  0.87338100  0.34776600  0.83468000  1
  H  H25  1  0.12661900  0.65223400  0.16532000  1
  H  H26  1  0.77885400  0.34776600  0.66532000  1
  H  H27  1  0.22114600  0.65223400  0.33468000  1
  H  H28  1  0.91373500  0.02651700  0.78498100  1
  H  H29  1  0.08626500  0.97348300  0.21501900  1
  H  H30  1  0.05974800  0.02651700  0.71501900  1
  H  H31  1  0.94025200  0.97348300  0.28498100  1
  H  H32  1  0.03349700  0.92736900  0.92547600  1
  H  H33  1  0.96650300  0.07263100  0.07452400  1
  H  H34  1  0.03913300  0.92736900  0.57452400  1
  H  H35  1  0.96086700  0.07263100  0.42547600  1
  H  H36  1  0.53851700  0.25122000  0.72000200  1
  H  H37  1  0.46148300  0.74878000  0.27999800  1
  H  H38  1  0.21026300  0.25122000  0.77999800  1
  H  H39  1  0.78973700  0.74878000  0.22000200  1
  C  C0  1  0.71869700  0.75590400  0.97331800  1
  C  C1  1  0.28130300  0.24409500  0.02668200  1
  C  C2  1  0.52539800  0.75590400  0.52668200  1
  C  C3  1  0.47460200  0.24409500  0.47331800  1
  C  C4  1  0.42140900  0.86135400  0.59376600  1
  C  C5  1  0.57859100  0.13864600  0.40623400  1
  C  C6  1  0.71723800  0.86135400  0.90623400  1
  C  C7  1  0.28276200  0.13864600  0.09376600  1
  N  N0  1  0.63291100  0.63358700  0.98508800  1
  N  N1  1  0.36708900  0.36641300  0.01491200  1
  N  N2  1  0.73350200  0.63358700  0.51491200  1
  N  N3  1  0.26649800  0.36641300  0.48508800  1
  N  N4  1  0.43786200  0.76425200  0.47165200  1
  N  N5  1  0.56213800  0.23574800  0.52834800  1
  N  N6  1  0.79788600  0.76425200  0.02834800  1
  N  N7  1  0.20211400  0.23574800  0.97165200  1
  N  N8  1  0.40364400  0.35714700  0.57455100  1
  N  N9  1  0.59635600  0.64285300  0.42544900  1
  N  N10  1  0.23920900  0.35714700  0.92544900  1
  N  N11  1  0.76079100  0.64285300  0.07455100  1
  N  N12  1  0.33813400  0.43552900  0.95155500  1
  N  N13  1  0.66186600  0.56447100  0.04844500  1
  N  N14  1  0.22633800  0.43552900  0.54844500  1
  N  N15  1  0.77366200  0.56447100  0.45155500  1
  O  O0  1  0.22385600  0.96606500  0.60509100  1
  O  O1  1  0.77614400  0.03393500  0.39490900  1
  O  O2  1  0.81007900  0.96606500  0.89490900  1
  O  O3  1  0.18992100  0.03393500  0.10509100  1
  O  O4  1  0.17535300  0.90481800  0.93004900  1
  O  O5  1  0.82464700  0.09518200  0.06995100  1
  O  O6  1  0.91982800  0.90481800  0.56995100  1
  O  O7  1  0.08017200  0.09518200  0.43004900  1
  O  O8  1  0.02891700  0.94216500  0.75000000  1
  O  O9  1  0.97108300  0.05783500  0.25000000  1
  O  O10  1  0.54348900  0.37205700  0.69823600  1
  O  O11  1  0.45651100  0.62794300  0.30176400  1
  O  O12  1  0.08445400  0.37205700  0.80176400  1
  O  O13  1  0.91554600  0.62794300  0.19823600  1
  O  O14  1  0.61900400  0.83351100  0.86486700  1
  O  O15  1  0.38099600  0.16648900  0.13513300  1
  O  O16  1  0.54748400  0.83351100  0.63513300  1
  O  O17  1  0.45251600  0.16648900  0.36486700  1
  O  O18  1  0.73416300  0.35337000  0.85209900  1
  O  O19  1  0.26583700  0.64663000  0.14790100  1
  O  O20  1  0.91246700  0.35337000  0.64790100  1
  O  O21  1  0.08753300  0.64663000  0.35209900  1
  O  O22  1  0.36493900  0.65672200  0.80141200  1
  O  O23  1  0.63506100  0.34327800  0.19858800  1
  O  O24  1  0.97833900  0.65672200  0.69858800  1
  O  O25  1  0.02166100  0.34327800  0.30141200  1
  O  O26  1  0.46784900  0.06430200  0.75000000  1
  O  O27  1  0.53215100  0.93569800  0.25000000  1
loop_
_geom_bond_atom_site_label_1
_geom_bond_atom_site_label_2
_geom_bond_distance
_geom_bond_site_symmetry_2
Mn0 O22 2.121237 1_555
Mn0 O4 2.178728 1_555
Mn0 O18 2.223976 1_555
Mn0 O14 2.266577 1_555
Mn0 N12 2.282850 1_555
Mn0 N0 2.303376 1_555
Mn1 O23 2.121237 1_555
Mn1 O5 2.178728 1_555
Mn1 O19 2.223976 1_555
Mn1 O15 2.266577 1_555
Mn1 N13 2.282850 1_555
Mn1 N1 2.303376 1_555
Mn2 O24 2.121236 1_555
Mn2 O6 2.178724 1_555
Mn2 O20 2.223976 1_555
Mn2 O16 2.266583 1_555
Mn2 N14 2.282855 1_655
Mn2 N2 2.303376 1_555
Mn3 O25 2.121236 1_555
Mn3 O7 2.178724 1_555
Mn3 O21 2.223976 1_555
Mn3 O17 2.266583 1_555
Mn3 N15 2.282855 1_455
Mn3 N3 2.303376 1_555
H0 O26 0.993497 1_565
H1 O27 0.993497 1_545
H2 O26 0.993497 1_565
H3 O27 0.993497 1_545
H4 O18 0.983576 1_555
H5 O19 0.983576 1_555
H6 O20 0.983576 1_455
H7 O21 0.983576 1_655
H8 O22 0.992709 1_555
H9 O23 0.992709 1_555
H10 O24 0.992709 1_455
H11 O25 0.992709 1_655
H12 O10 0.994233 1_555
H13 O11 0.994233 1_555
H14 O12 0.994233 1_555
H15 O13 0.994233 1_555
H16 O22 0.989589 1_555
H17 O23 0.989589 1_555
H18 O24 0.989585 1_555
H19 O25 0.989585 1_555
H20 O7 0.993548 1_565
H21 O6 0.993548 1_545
H22 O5 0.993551 1_565
H23 O4 0.993551 1_545
H24 O18 1.004887 1_555
H24 O12 1.668016 1_655
H25 O19 1.004887 1_555
H25 O13 1.668016 1_455
H26 O20 1.004880 1_555
H26 O10 1.668023 1_555
H27 O21 1.004880 1_555
H27 O11 1.668023 1_555
H28 O8 0.979268 1_645
H29 O9 0.979268 1_465
H30 O8 0.979271 1_545
H31 O9 0.979271 1_565
H32 O4 0.994439 1_555
H33 O5 0.994439 1_555
H34 O6 0.994439 1_455
H35 O7 0.994439 1_655
H36 O10 1.000327 1_555
H37 O11 1.000327 1_555
H38 O12 1.000327 1_555
H39 O13 1.000327 1_555
C0 N0 1.345502 1_555
C0 N6 1.345624 1_556
C0 C6 1.495487 1_555
C1 N1 1.345509 1_555
C1 N7 1.345621 1_554
C1 C7 1.495483 1_555
C2 N2 1.345507 1_555
C2 N4 1.345619 1_555
C2 C4 1.495485 1_555
C3 N3 1.345509 1_555
C3 N5 1.345621 1_555
C3 C5 1.495483 1_555
C4 O0 1.266348 1_555
C4 O16 1.277634 1_555
C5 O1 1.266348 1_555
C5 O17 1.277634 1_555
C6 O2 1.266342 1_555
C6 O14 1.277645 1_555
C7 O3 1.266342 1_555
C7 O15 1.277645 1_555
N0 N13 1.333656 1_556
N1 N12 1.333656 1_554
N4 N9 1.337324 1_555
N5 N8 1.337324 1_555
N10 N12 1.329474 1_555
N10 N7 1.337324 1_555
N11 N13 1.329474 1_555
N11 N6 1.337324 1_555
N14 N8 1.329468 1_555
N14 N3 1.333657 1_555
N15 N9 1.329468 1_555
N15 N2 1.333657 1_555
