# generated using pymatgen
data_Li5Mn2CoO8
_symmetry_space_group_name_H-M   'P 1'
_cell_length_a   5.10873010
_cell_length_b   5.10873010
_cell_length_c   10.28817439
_cell_angle_alpha   81.13264714
_cell_angle_beta   81.13264714
_cell_angle_gamma   32.89830274
_symmetry_Int_Tables_number   1
_chemical_formula_structural   Li5Mn2CoO8
_chemical_formula_sum   'Li5 Mn2 Co1 O8'
_cell_volume   143.94627932
_cell_formula_units_Z   1
loop_
 _symmetry_equiv_pos_site_id
 _symmetry_equiv_pos_as_xyz
  1  'x, y, z'
loop_
 _atom_site_type_symbol
 _atom_site_label
 _atom_site_symmetry_multiplicity
 _atom_site_fract_x
 _atom_site_fract_y
 _atom_site_fract_z
 _atom_site_occupancy
  Li  Li0  1  0.24705300  0.24705300  0.12951300  1
  Li  Li1  1  0.74730400  0.74730400  0.39316100  1
  Li  Li2  1  0.26169700  0.26169700  0.61827600  1
  Li  Li3  1  0.75258400  0.75258400  0.86115000  1
  Li  Li4  1  0.99687000  0.99687000  0.50068700  1
  Mn  Mn0  1  0.99798000  0.99798000  0.99910300  1
  Mn  Mn1  1  0.49507800  0.49507800  0.25898600  1
  Co  Co0  1  0.51160300  0.51160300  0.72253100  1
  O  O0  1  0.38381800  0.38381800  0.95440700  1
  O  O1  1  0.89042700  0.89042700  0.18460000  1
  O  O2  1  0.38327500  0.38327500  0.41635400  1
  O  O3  1  0.88274700  0.88274700  0.69396000  1
  O  O4  1  0.10998100  0.10998100  0.30037900  1
  O  O5  1  0.62724400  0.62724400  0.57034000  1
  O  O6  1  0.10649800  0.10649800  0.83156100  1
  O  O7  1  0.60584200  0.60584200  0.06499200  1
loop_
_geom_bond_atom_site_label_1
_geom_bond_atom_site_label_2
_geom_bond_distance
_geom_bond_site_symmetry_2
Li0 O4 2.033567 1_555
Li0 O0 2.065308 1_554
Li0 O1 2.154937 1_545
Li0 O1 2.154937 1_455
Li0 O7 2.177933 1_455
Li0 O7 2.177933 1_545
Li1 O5 2.004383 1_555
Li1 O2 2.006777 1_565
Li1 O2 2.006777 1_655
Li1 O4 2.286391 1_565
Li1 O4 2.286391 1_655
Li1 O1 2.367219 1_555
Li2 O5 2.068983 1_545
Li2 O5 2.068983 1_455
Li2 O3 2.098322 1_545
Li2 O3 2.098322 1_455
Li2 O2 2.222481 1_555
Li2 O6 2.460734 1_555
Li3 O3 1.969855 1_555
Li3 O6 2.091586 1_565
Li3 O6 2.091586 1_655
Li3 O0 2.250250 1_655
Li3 O0 2.250250 1_565
Li3 O7 2.344451 1_556
Li4 O2 2.096432 1_565
Li4 O2 2.096432 1_655
Li4 O3 2.118885 1_555
Li4 O5 2.129009 1_565
Li4 O5 2.129009 1_655
Li4 O4 2.177433 1_665
Mn0 O6 1.874232 1_665
Mn0 O0 1.928988 1_565
Mn0 O0 1.928988 1_655
Mn0 O7 1.974766 1_656
Mn0 O7 1.974766 1_566
Mn0 O1 2.026406 1_556
Mn1 O2 1.803159 1_555
Mn1 O4 1.922491 1_655
Mn1 O4 1.922491 1_565
Mn1 O1 1.995569 1_545
Mn1 O1 1.995569 1_455
Mn1 O7 2.113088 1_555
Co0 O5 1.779159 1_555
Co0 O3 1.973016 1_455
Co0 O3 1.973016 1_545
Co0 O6 2.133297 1_655
Co0 O6 2.133297 1_565
Co0 O0 2.509732 1_555
