# generated using pymatgen
data_Li9Mn2Co5O16
_symmetry_space_group_name_H-M   'P 1'
_cell_length_a   5.80395800
_cell_length_b   5.10288900
_cell_length_c   9.77168330
_cell_angle_alpha   81.45814055
_cell_angle_beta   90.00000000
_cell_angle_gamma   90.00000000
_symmetry_Int_Tables_number   1
_chemical_formula_structural   Li9Mn2Co5O16
_chemical_formula_sum   'Li9 Mn2 Co5 O16'
_cell_volume   286.19726919
_cell_formula_units_Z   1
loop_
 _symmetry_equiv_pos_site_id
 _symmetry_equiv_pos_as_xyz
  1  'x, y, z'
loop_
 _atom_site_type_symbol
 _atom_site_label
 _atom_site_symmetry_multiplicity
 _atom_site_fract_x
 _atom_site_fract_y
 _atom_site_fract_z
 _atom_site_occupancy
  Li  Li0  1  0.25568100  0.24964000  0.75009800  1
  Li  Li1  1  0.25568100  0.75036000  0.24990200  1
  Li  Li2  1  0.50219900  0.75320900  0.76037200  1
  Li  Li3  1  0.50219900  0.24679100  0.23962800  1
  Li  Li4  1  0.74446000  0.24016900  0.75373500  1
  Li  Li5  1  0.74446000  0.75983100  0.24626500  1
  Li  Li6  1  0.99853900  0.75210800  0.75186400  1
  Li  Li7  1  0.99853900  0.24789200  0.24813600  1
  Li  Li8  1  0.50427200  0.00000000  0.00000000  1
  Mn  Mn0  1  0.99661100  0.00000000  0.00000000  1
  Mn  Mn1  1  0.75021100  0.00000000  0.50000000  1
  Co  Co0  1  0.99873900  0.50000000  0.50000000  1
  Co  Co1  1  0.25319400  0.50000000  0.00000000  1
  Co  Co2  1  0.25044000  0.00000000  0.50000000  1
  Co  Co3  1  0.50156000  0.50000000  0.50000000  1
  Co  Co4  1  0.74379800  0.50000000  0.00000000  1
  O  O0  1  0.23501500  0.84448600  0.89238600  1
  O  O1  1  0.25029700  0.37842100  0.38379500  1
  O  O2  1  0.49492800  0.39678500  0.89074300  1
  O  O3  1  0.50327800  0.88144500  0.38378100  1
  O  O4  1  0.76726100  0.88188200  0.88347600  1
  O  O5  1  0.74998100  0.39564700  0.37850000  1
  O  O6  1  0.00104600  0.35926500  0.89432700  1
  O  O7  1  0.99790200  0.87985500  0.38574200  1
  O  O8  1  0.25029700  0.62157900  0.61620500  1
  O  O9  1  0.23501500  0.15551400  0.10761400  1
  O  O10  1  0.50327800  0.11855500  0.61621900  1
  O  O11  1  0.49492800  0.60321500  0.10925700  1
  O  O12  1  0.74998100  0.60435300  0.62150000  1
  O  O13  1  0.76726100  0.11811800  0.11652400  1
  O  O14  1  0.99790200  0.12014500  0.61425800  1
  O  O15  1  0.00104600  0.64073500  0.10567300  1
loop_
_geom_bond_atom_site_label_1
_geom_bond_atom_site_label_2
_geom_bond_distance
_geom_bond_site_symmetry_2
Li0 O10 2.117531 1_555
Li0 O8 2.139480 1_555
Li0 O2 2.165020 1_555
Li0 O14 2.167395 1_455
Li0 O6 2.172003 1_555
Li0 O0 2.316899 1_545
Li1 O3 2.117531 1_555
Li1 O1 2.139480 1_555
Li1 O11 2.165020 1_555
Li1 O7 2.167395 1_455
Li1 O15 2.172003 1_555
Li1 O9 2.316899 1_565
Li2 O2 2.060197 1_555
Li2 O0 2.112885 1_555
Li2 O4 2.116486 1_555
Li2 O10 2.163286 1_565
Li2 O12 2.189259 1_555
Li2 O8 2.203267 1_555
Li3 O11 2.060197 1_555
Li3 O9 2.112885 1_555
Li3 O13 2.116486 1_555
Li3 O3 2.163286 1_545
Li3 O5 2.189259 1_555
Li3 O1 2.203267 1_555
Li4 O4 2.068553 1_545
Li4 O10 2.097145 1_555
Li4 O12 2.100230 1_555
Li4 O14 2.155087 1_555
Li4 O6 2.173133 1_655
Li4 O2 2.201462 1_555
Li5 O13 2.068553 1_565
Li5 O3 2.097145 1_555
Li5 O5 2.100230 1_555
Li5 O7 2.155087 1_555
Li5 O15 2.173133 1_655
Li5 O11 2.201462 1_555
Li6 O4 2.036507 1_555
Li6 O0 2.045422 1_655
Li6 O12 2.134881 1_555
Li6 O14 2.141256 1_565
Li6 O8 2.144364 1_655
Li6 O6 2.264447 1_655
Li7 O13 2.036507 1_555
Li7 O9 2.045422 1_655
Li7 O5 2.134881 1_555
Li7 O7 2.141256 1_545
Li7 O1 2.144364 1_655
Li7 O15 2.264447 1_655
Li8 O4 2.047802 1_544
Li8 O13 2.047802 1_555
Li8 O9 2.103725 1_555
Li8 O0 2.103725 1_544
Li8 O11 2.144813 1_545
Li8 O2 2.144813 1_554
Mn0 O4 1.906723 1_544
Mn0 O13 1.906723 1_555
Mn0 O15 1.966093 1_645
Mn0 O6 1.966093 1_654
Mn0 O9 1.974346 1_655
Mn0 O0 1.974346 1_644
Mn1 O14 1.972925 1_555
Mn1 O7 1.972925 1_545
Mn1 O10 1.978340 1_555
Mn1 O3 1.978340 1_545
Mn1 O12 2.184869 1_545
Mn1 O5 2.184869 1_555
Co0 O5 1.991345 1_555
Co0 O12 1.991345 1_555
Co0 O1 2.003815 1_655
Co0 O8 2.003815 1_655
Co0 O14 2.088281 1_555
Co0 O7 2.088281 1_555
Co1 O11 1.884866 1_555
Co1 O2 1.884866 1_554
Co1 O0 1.912569 1_554
Co1 O9 1.912569 1_555
Co1 O6 1.985954 1_554
Co1 O15 1.985954 1_555
Co2 O14 1.993517 1_455
Co2 O7 1.993517 1_445
Co2 O10 2.003308 1_555
Co2 O3 2.003308 1_545
Co2 O8 2.089722 1_545
Co2 O1 2.089722 1_555
Co3 O5 1.989928 1_555
Co3 O12 1.989928 1_555
Co3 O1 2.002567 1_555
Co3 O8 2.002567 1_555
Co3 O10 2.102831 1_555
Co3 O3 2.102831 1_555
Co4 O11 1.915895 1_555
Co4 O2 1.915895 1_554
Co4 O15 2.007866 1_655
Co4 O6 2.007866 1_654
Co4 O4 2.110291 1_554
Co4 O13 2.110291 1_555
