# generated using pymatgen
data_NdSiBO5
_symmetry_space_group_name_H-M   'P 1'
_cell_length_a   6.87303396
_cell_length_b   6.87303396
_cell_length_c   6.70111900
_cell_angle_alpha   90.00000000
_cell_angle_beta   90.00000000
_cell_angle_gamma   119.99999962
_symmetry_Int_Tables_number   1
_chemical_formula_structural   NdSiBO5
_chemical_formula_sum   'Nd3 Si3 B3 O15'
_cell_volume   274.14160011
_cell_formula_units_Z   3
loop_
 _symmetry_equiv_pos_site_id
 _symmetry_equiv_pos_as_xyz
  1  'x, y, z'
loop_
 _atom_site_type_symbol
 _atom_site_label
 _atom_site_symmetry_multiplicity
 _atom_site_fract_x
 _atom_site_fract_y
 _atom_site_fract_z
 _atom_site_occupancy
  Nd  Nd0  1  0.74771000  0.66549100  0.66404500  1
  Nd  Nd1  1  0.33450900  0.08221800  0.99737800  1
  Nd  Nd2  1  0.91778200  0.25229000  0.33071100  1
  Si  Si0  1  0.75222800  0.66727200  0.16211500  1
  Si  Si1  1  0.33272800  0.08495600  0.49544800  1
  Si  Si2  1  0.91504400  0.24777200  0.82878100  1
  B  B0  1  0.23261700  0.68081200  0.69085100  1
  B  B1  1  0.31918800  0.55180500  0.02418400  1
  B  B2  1  0.44819500  0.76738300  0.35751700  1
  O  O0  1  0.68467700  0.82406400  0.30589800  1
  O  O1  1  0.17593600  0.86061300  0.63923100  1
  O  O2  1  0.13938700  0.31532300  0.97256500  1
  O  O3  1  0.47441100  0.00050800  0.34861500  1
  O  O4  1  0.99949200  0.47390300  0.68194800  1
  O  O5  1  0.52609700  0.52558900  0.01528100  1
  O  O6  1  0.79467600  0.52268300  0.32989400  1
  O  O7  1  0.47731700  0.27199300  0.66322700  1
  O  O8  1  0.72800700  0.20532400  0.99656000  1
  O  O9  1  0.19664900  0.14048400  0.33027800  1
  O  O10  1  0.85951600  0.05616400  0.66361100  1
  O  O11  1  0.94383600  0.80335100  0.99694500  1
  O  O12  1  0.32714000  0.72199400  0.89037000  1
  O  O13  1  0.27800600  0.60514600  0.22370300  1
  O  O14  1  0.39485400  0.67286000  0.55703600  1
loop_
_geom_bond_atom_site_label_1
_geom_bond_atom_site_label_2
_geom_bond_distance
_geom_bond_site_symmetry_2
Nd0 O10 2.395196 1_565
Nd0 O7 2.396261 1_555
Nd0 O6 2.529501 1_555
Nd0 O11 2.532604 1_555
Nd0 O14 2.553654 1_555
Nd0 O1 2.557647 1_655
Nd0 O4 2.649849 1_555
Nd0 O5 2.705507 1_556
Nd0 O0 2.758191 1_555
Nd1 O11 2.395196 1_445
Nd1 O8 2.396260 1_555
Nd1 O7 2.529503 1_555
Nd1 O9 2.532604 1_556
Nd1 O12 2.553646 1_545
Nd1 O2 2.557653 1_555
Nd1 O5 2.649855 1_556
Nd1 O3 2.705511 1_556
Nd1 O1 2.758188 1_545
Nd2 O9 2.395196 1_655
Nd2 O6 2.396266 1_555
Nd2 O8 2.529504 1_554
Nd2 O10 2.532604 1_555
Nd2 O13 2.553649 1_655
Nd2 O0 2.557647 1_545
Nd2 O3 2.649855 1_555
Nd2 O4 2.705514 1_555
Nd2 O2 2.758182 1_654
B0 O12 1.451158 1_555
B0 O14 1.453058 1_555
B0 O1 1.509964 1_555
B0 O4 1.521384 1_455
B1 O13 1.451158 1_555
B1 O12 1.453054 1_554
B1 O2 1.509962 1_554
B1 O5 1.521384 1_555
B2 O14 1.451158 1_555
B2 O13 1.453054 1_555
B2 O0 1.509962 1_555
B2 O3 1.521384 1_565
O0 Si0 1.674971 1_555
O1 Si1 1.674971 1_565
O2 Si2 1.674975 1_455
O3 Si1 1.678840 1_555
O4 Si2 1.678840 1_555
O5 Si0 1.678844 1_555
O6 Si0 1.620703 1_555
O7 Si1 1.620703 1_555
O8 Si2 1.620703 1_555
O9 Si1 1.613195 1_555
O10 Si2 1.613199 1_555
O11 Si0 1.613198 1_556
