# generated using pymatgen
data_Mg5(SiO3)6
_symmetry_space_group_name_H-M   'P 1'
_cell_length_a   5.37259367
_cell_length_b   9.46325547
_cell_length_c   27.62127229
_cell_angle_alpha   90.00000000
_cell_angle_beta   89.99995945
_cell_angle_gamma   90.00000000
_symmetry_Int_Tables_number   1
_chemical_formula_structural   Mg5(SiO3)6
_chemical_formula_sum   'Mg20 Si24 O72'
_cell_volume   1404.32698021
_cell_formula_units_Z   4
loop_
 _symmetry_equiv_pos_site_id
 _symmetry_equiv_pos_as_xyz
  1  'x, y, z'
loop_
 _atom_site_type_symbol
 _atom_site_label
 _atom_site_symmetry_multiplicity
 _atom_site_fract_x
 _atom_site_fract_y
 _atom_site_fract_z
 _atom_site_occupancy
  Mg  Mg0  1  0.74998958  0.50000591  0.52552155  1
  Mg  Mg1  1  0.25001042  0.00000591  0.97447845  1
  Mg  Mg2  1  0.25001042  0.49999409  0.47447845  1
  Mg  Mg3  1  0.74998958  -0.00000591  0.02552155  1
  Mg  Mg4  1  0.74997151  0.00000443  0.91436488  1
  Mg  Mg5  1  0.25002849  0.50000443  0.58563512  1
  Mg  Mg6  1  0.25002849  -0.00000443  0.08563512  1
  Mg  Mg7  1  0.74997151  0.49999557  0.41436488  1
  Mg  Mg8  1  0.74998977  0.50000438  0.64660054  1
  Mg  Mg9  1  0.25001023  0.00000438  0.85339946  1
  Mg  Mg10  1  0.25001023  0.49999562  0.35339946  1
  Mg  Mg11  1  0.74998977  -0.00000438  0.14660054  1
  Mg  Mg12  1  0.74999899  -0.00000069  0.79717191  1
  Mg  Mg13  1  0.25000101  0.49999931  0.70282809  1
  Mg  Mg14  1  0.25000101  0.00000069  0.20282809  1
  Mg  Mg15  1  0.74999899  0.50000069  0.29717191  1
  Mg  Mg16  1  0.74999992  0.50000004  0.75557523  1
  Mg  Mg17  1  0.25000008  0.00000004  0.74442477  1
  Mg  Mg18  1  0.25000008  0.49999996  0.24442477  1
  Mg  Mg19  1  0.74999992  -0.00000004  0.25557523  1
  Si  Si0  1  0.91257063  0.29024045  0.97211825  1
  Si  Si1  1  0.41256833  0.20976189  0.52788146  1
  Si  Si2  1  0.08742937  0.79024045  0.52788175  1
  Si  Si3  1  0.58743167  0.70976189  0.97211854  1
  Si  Si4  1  0.08742937  0.70975955  0.02788175  1
  Si  Si5  1  0.58743167  0.79023811  0.47211854  1
  Si  Si6  1  0.91257063  0.20975955  0.47211825  1
  Si  Si7  1  0.41256833  0.29023811  0.02788146  1
  Si  Si8  1  0.92348126  0.28721398  0.86034365  1
  Si  Si9  1  0.42347842  0.21279048  0.63965681  1
  Si  Si10  1  0.07651874  0.78721398  0.63965635  1
  Si  Si11  1  0.57652158  0.71279048  0.86034319  1
  Si  Si12  1  0.07651874  0.71278602  0.13965635  1
  Si  Si13  1  0.57652158  0.78720952  0.36034319  1
  Si  Si14  1  0.92348126  0.21278602  0.36034365  1
  Si  Si15  1  0.42347842  0.28720952  0.13965681  1
  Si  Si16  1  0.92070389  0.20439667  0.69718477  1
  Si  Si17  1  0.42070256  0.29560314  0.80281523  1
  Si  Si18  1  0.07929611  0.70439667  0.80281523  1
  Si  Si19  1  0.57929744  0.79560314  0.69718477  1
  Si  Si20  1  0.07929611  0.79560333  0.30281523  1
  Si  Si21  1  0.57929744  0.70439686  0.19718477  1
  Si  Si22  1  0.92070389  0.29560333  0.19718477  1
  Si  Si23  1  0.42070256  0.20439686  0.30281523  1
  O  O0  1  0.89824732  0.41061057  0.58582942  1
  O  O1  1  0.39825390  0.08938781  0.91417134  1
  O  O2  1  0.10175268  0.91061057  0.91417058  1
  O  O3  1  0.60174610  0.58938781  0.58582866  1
  O  O4  1  0.10175268  0.58938943  0.41417058  1
  O  O5  1  0.60174610  0.91061219  0.08582866  1
  O  O6  1  0.89824732  0.08938943  0.08582942  1
  O  O7  1  0.39825390  0.41061219  0.41417134  1
  O  O8  1  0.66302625  0.34702666  0.00018712  1
  O  O9  1  0.16302524  0.15297326  0.49981282  1
  O  O10  1  0.33697375  0.84702666  0.49981288  1
  O  O11  1  0.83697476  0.65297326  0.00018718  1
  O  O12  1  0.33697375  0.65297334  0.99981288  1
  O  O13  1  0.83697476  0.84702674  0.50018718  1
  O  O14  1  0.66302625  0.15297334  0.50018712  1
  O  O15  1  0.16302524  0.34702674  0.99981282  1
  O  O16  1  0.91207282  0.11699254  0.97189104  1
  O  O17  1  0.41207291  0.38300390  0.52810867  1
  O  O18  1  0.08792718  0.61699254  0.52810896  1
  O  O19  1  0.58792709  0.88300390  0.97189133  1
  O  O20  1  0.08792718  0.88300746  0.02810896  1
  O  O21  1  0.58792709  0.61699610  0.47189133  1
  O  O22  1  0.91207282  0.38300746  0.47189104  1
  O  O23  1  0.41207291  0.11699610  0.02810867  1
  O  O24  1  0.90882863  0.34644397  0.91592322  1
  O  O25  1  0.40882833  0.15355572  0.58407682  1
  O  O26  1  0.09117137  0.84644397  0.58407678  1
  O  O27  1  0.59117167  0.65355572  0.91592318  1
  O  O28  1  0.09117137  0.65355603  0.08407678  1
  O  O29  1  0.59117167  0.84644428  0.41592318  1
  O  O30  1  0.90882863  0.15355603  0.41592322  1
  O  O31  1  0.40882833  0.34644428  0.08407682  1
  O  O32  1  0.91247137  0.11471836  0.85780193  1
  O  O33  1  0.41247163  0.38527513  0.64219838  1
  O  O34  1  0.08752863  0.61471836  0.64219807  1
  O  O35  1  0.58752837  0.88527513  0.85780162  1
  O  O36  1  0.08752863  0.88528164  0.14219807  1
  O  O37  1  0.58752837  0.61472487  0.35780162  1
  O  O38  1  0.91247137  0.38528164  0.35780193  1
  O  O39  1  0.41247163  0.11472487  0.14219838  1
  O  O40  1  0.67953019  0.15479465  0.66457977  1
  O  O41  1  0.17953023  0.34520527  0.83542016  1
  O  O42  1  0.32046981  0.65479465  0.83542023  1
  O  O43  1  0.82046977  0.84520527  0.66457984  1
  O  O44  1  0.32046981  0.84520535  0.33542023  1
  O  O45  1  0.82046977  0.65479473  0.16457984  1
  O  O46  1  0.67953019  0.34520535  0.16457977  1
  O  O47  1  0.17953023  0.15479473  0.33542016  1
  O  O48  1  0.68670644  0.35033529  0.82884873  1
  O  O49  1  0.18670557  0.14966417  0.67115133  1
  O  O50  1  0.31329356  0.85033529  0.67115127  1
  O  O51  1  0.81329443  0.64966417  0.82884867  1
  O  O52  1  0.31329356  0.64966471  0.17115127  1
  O  O53  1  0.81329443  0.85033583  0.32884867  1
  O  O54  1  0.68670644  0.14966471  0.32884873  1
  O  O55  1  0.18670557  0.35033583  0.17115133  1
  O  O56  1  0.92000158  0.37817067  0.70093837  1
  O  O57  1  0.42000139  0.12182909  0.79906165  1
  O  O58  1  0.07999842  0.87817067  0.79906163  1
  O  O59  1  0.57999861  0.62182909  0.70093835  1
  O  O60  1  0.07999842  0.62182933  0.29906163  1
  O  O61  1  0.57999861  0.87817091  0.20093835  1
  O  O62  1  0.92000158  0.12182933  0.20093837  1
  O  O63  1  0.42000139  0.37817091  0.29906165  1
  O  O64  1  0.93589650  0.11876038  0.74749985  1
  O  O65  1  0.43589673  0.38123956  0.75250017  1
  O  O66  1  0.06410350  0.61876038  0.75250015  1
  O  O67  1  0.56410327  0.88123956  0.74749983  1
  O  O68  1  0.06410350  0.88123962  0.25250015  1
  O  O69  1  0.56410327  0.61876044  0.24749983  1
  O  O70  1  0.93589650  0.38123962  0.24749985  1
  O  O71  1  0.43589673  0.11876044  0.25250017  1
loop_
_geom_bond_atom_site_label_1
_geom_bond_atom_site_label_2
_geom_bond_distance
_geom_bond_site_symmetry_2
Mg0 O3 2.030896 1_555
Mg0 O0 2.030997 1_555
Mg0 O21 2.044053 1_555
Mg0 O22 2.044148 1_555
Mg0 O17 2.127685 1_555
Mg0 O18 2.127705 1_655
Mg1 O1 2.030896 1_555
Mg1 O2 2.030997 1_545
Mg1 O23 2.044053 1_556
Mg1 O20 2.044148 1_546
Mg1 O19 2.127685 1_545
Mg1 O16 2.127705 1_455
Mg2 O7 2.030896 1_555
Mg2 O4 2.030997 1_555
Mg2 O17 2.044053 1_555
Mg2 O18 2.044148 1_555
Mg2 O21 2.127685 1_555
Mg2 O22 2.127705 1_455
Mg3 O5 2.030896 1_545
Mg3 O6 2.030997 1_555
Mg3 O19 2.044053 1_544
Mg3 O16 2.044148 1_554
Mg3 O23 2.127685 1_555
Mg3 O20 2.127705 1_645
Mg4 O1 2.070321 1_555
Mg4 O2 2.070673 1_645
Mg4 O35 2.093176 1_545
Mg4 O32 2.093220 1_555
Mg4 O19 2.123351 1_545
Mg4 O16 2.123410 1_555
Mg5 O3 2.070321 1_555
Mg5 O0 2.070673 1_455
Mg5 O33 2.093176 1_555
Mg5 O34 2.093220 1_555
Mg5 O17 2.123351 1_555
Mg5 O18 2.123410 1_555
Mg6 O5 2.070321 1_545
Mg6 O6 2.070673 1_455
Mg6 O39 2.093176 1_555
Mg6 O36 2.093220 1_545
Mg6 O23 2.123351 1_555
Mg6 O20 2.123410 1_545
Mg7 O7 2.070321 1_555
Mg7 O4 2.070673 1_655
Mg7 O37 2.093176 1_555
Mg7 O38 2.093220 1_555
Mg7 O21 2.123351 1_555
Mg7 O22 2.123410 1_555
Mg8 O3 2.041446 1_555
Mg8 O0 2.041498 1_555
Mg8 O59 2.101386 1_555
Mg8 O56 2.101483 1_555
Mg8 O33 2.117023 1_555
Mg8 O34 2.117045 1_655
Mg9 O1 2.041446 1_555
Mg9 O2 2.041498 1_545
Mg9 O57 2.101386 1_555
Mg9 O58 2.101483 1_545
Mg9 O35 2.117023 1_545
Mg9 O32 2.117045 1_455
Mg10 O7 2.041446 1_555
Mg10 O4 2.041498 1_555
Mg10 O63 2.101386 1_555
Mg10 O60 2.101483 1_555
Mg10 O37 2.117023 1_555
Mg10 O38 2.117045 1_455
Mg11 O5 2.041446 1_545
Mg11 O6 2.041498 1_555
Mg11 O61 2.101386 1_545
Mg11 O62 2.101483 1_555
Mg11 O39 2.117023 1_555
Mg11 O36 2.117045 1_645
Mg12 O67 2.035420 1_545
Mg12 O64 2.035431 1_555
Mg12 O57 2.115477 1_555
Mg12 O58 2.115480 1_645
Mg12 O32 2.178316 1_555
Mg12 O35 2.178329 1_545
Mg13 O65 2.035420 1_555
Mg13 O66 2.035431 1_555
Mg13 O59 2.115477 1_555
Mg13 O56 2.115480 1_455
Mg13 O34 2.178316 1_555
Mg13 O33 2.178329 1_555
Mg14 O71 2.035420 1_555
Mg14 O68 2.035431 1_545
Mg14 O61 2.115477 1_545
Mg14 O62 2.115480 1_455
Mg14 O36 2.178316 1_545
Mg14 O39 2.178329 1_555
Mg15 O69 2.035420 1_555
Mg15 O70 2.035431 1_555
Mg15 O63 2.115477 1_555
Mg15 O60 2.115480 1_655
Mg15 O38 2.178316 1_555
Mg15 O37 2.178329 1_555
Mg16 O65 2.029310 1_555
Mg16 O66 2.029311 1_655
Mg16 O59 2.107341 1_555
Mg16 O56 2.107342 1_555
Mg16 O51 2.493545 1_555
Mg16 O48 2.493549 1_555
Mg17 O67 2.029310 1_545
Mg17 O64 2.029311 1_455
Mg17 O57 2.107341 1_555
Mg17 O58 2.107342 1_545
Mg17 O49 2.493545 1_555
Mg17 O50 2.493549 1_545
Mg18 O69 2.029310 1_555
Mg18 O70 2.029311 1_455
Mg18 O63 2.107341 1_555
Mg18 O60 2.107342 1_555
Mg18 O55 2.493545 1_555
Mg18 O52 2.493549 1_555
Mg19 O71 2.029310 1_555
Mg19 O68 2.029311 1_645
Mg19 O61 2.107341 1_545
Mg19 O62 2.107342 1_555
Mg19 O53 2.493545 1_545
Mg19 O54 2.493549 1_555
O8 Si7 1.638480 1_555
O8 Si0 1.639312 1_554
O9 Si6 1.638463 1_455
O9 Si1 1.639312 1_555
O10 Si5 1.638480 1_555
O10 Si2 1.639312 1_555
O11 Si4 1.638463 1_655
O11 Si3 1.639312 1_554
O12 Si3 1.638480 1_555
O12 Si4 1.639312 1_556
O13 Si2 1.638463 1_655
O13 Si5 1.639312 1_555
O14 Si1 1.638480 1_555
O14 Si6 1.639312 1_555
O15 Si0 1.638463 1_455
O15 Si7 1.639312 1_556
O16 Si0 1.639503 1_555
O17 Si1 1.639448 1_555
O18 Si2 1.639503 1_555
O19 Si3 1.639448 1_555
O20 Si4 1.639503 1_555
O21 Si5 1.639448 1_555
O22 Si6 1.639503 1_555
O23 Si7 1.639448 1_555
O24 Si8 1.636197 1_555
O24 Si0 1.640898 1_555
O25 Si9 1.636223 1_555
O25 Si1 1.640914 1_555
O26 Si10 1.636197 1_555
O26 Si2 1.640898 1_555
O27 Si11 1.636223 1_555
O27 Si3 1.640914 1_555
O28 Si12 1.636197 1_555
O28 Si4 1.640898 1_555
O29 Si13 1.636223 1_555
O29 Si5 1.640914 1_555
O30 Si14 1.636197 1_555
O30 Si6 1.640898 1_555
O31 Si15 1.636223 1_555
O31 Si7 1.640914 1_555
O32 Si8 1.634950 1_555
O33 Si9 1.634845 1_555
O34 Si10 1.634950 1_555
O35 Si11 1.634845 1_555
O36 Si12 1.634950 1_555
O37 Si13 1.634845 1_555
O38 Si14 1.634950 1_555
O39 Si15 1.634845 1_555
O40 Si9 1.633267 1_555
O40 Si16 1.646302 1_555
O41 Si8 1.633245 1_455
O41 Si17 1.646295 1_555
O42 Si11 1.633267 1_555
O42 Si18 1.646302 1_555
O43 Si10 1.633245 1_655
O43 Si19 1.646295 1_555
O44 Si13 1.633267 1_555
O44 Si20 1.646302 1_555
O45 Si12 1.633245 1_655
O45 Si21 1.646295 1_555
O46 Si15 1.633267 1_555
O46 Si22 1.646302 1_555
O47 Si14 1.633245 1_455
O47 Si23 1.646295 1_555
O48 Si8 1.652819 1_555
O48 Si17 1.681593 1_555
O49 Si9 1.652821 1_555
O49 Si16 1.681583 1_455
O50 Si10 1.652819 1_555
O50 Si19 1.681593 1_555
O51 Si11 1.652821 1_555
O51 Si18 1.681583 1_655
O52 Si12 1.652819 1_555
O52 Si21 1.681593 1_555
O53 Si13 1.652821 1_555
O53 Si20 1.681583 1_655
O54 Si14 1.652819 1_555
O54 Si23 1.681593 1_555
O55 Si15 1.652821 1_555
O55 Si22 1.681583 1_455
O56 Si16 1.647737 1_555
O57 Si17 1.647738 1_555
O58 Si18 1.647737 1_555
O59 Si19 1.647738 1_555
O60 Si20 1.647737 1_555
O61 Si21 1.647738 1_555
O62 Si22 1.647737 1_555
O63 Si23 1.647738 1_555
O64 Si16 1.610856 1_555
O65 Si17 1.610857 1_555
O66 Si18 1.610856 1_555
O67 Si19 1.610857 1_555
O68 Si20 1.610856 1_555
O69 Si21 1.610857 1_555
O70 Si22 1.610856 1_555
O71 Si23 1.610857 1_555
