# generated using pymatgen
data_Sm(CoB)4
_symmetry_space_group_name_H-M   'P 1'
_cell_length_a   3.77222694
_cell_length_b   6.97477367
_cell_length_c   6.97478715
_cell_angle_alpha   89.99959452
_cell_angle_beta   90.00005746
_cell_angle_gamma   90.00103254
_symmetry_Int_Tables_number   1
_chemical_formula_structural   Sm(CoB)4
_chemical_formula_sum   'Sm2 Co8 B8'
_cell_volume   183.50964315
_cell_formula_units_Z   2
loop_
 _symmetry_equiv_pos_site_id
 _symmetry_equiv_pos_as_xyz
  1  'x, y, z'
loop_
 _atom_site_type_symbol
 _atom_site_label
 _atom_site_symmetry_multiplicity
 _atom_site_fract_x
 _atom_site_fract_y
 _atom_site_fract_z
 _atom_site_occupancy
  Sm  Sm0  1  0.24999012  0.25002808  0.24999443  1
  Sm  Sm1  1  0.74998537  0.74997666  0.75000258  1
  Co  Co0  1  0.14279068  0.39209740  0.63375724  1
  Co  Co1  1  0.14279251  0.10790487  0.86625194  1
  Co  Co2  1  0.64278923  0.13375549  0.60790435  1
  Co  Co3  1  0.64279386  0.36625150  0.89209977  1
  Co  Co4  1  0.85722120  0.60787800  0.36628698  1
  Co  Co5  1  0.85721223  0.89210633  0.13371815  1
  Co  Co6  1  0.35720507  0.86627983  0.39211534  1
  Co  Co7  1  0.35721473  0.63371342  0.10788641  1
  B  B0  1  0.35389798  0.91139529  0.04717865  1
  B  B1  1  0.35390374  0.58859196  0.45280928  1
  B  B2  1  0.85389817  0.54718744  0.08860171  1
  B  B3  1  0.85390335  0.95281622  0.41139999  1
  B  B4  1  0.64609735  0.08862731  0.95279655  1
  B  B5  1  0.64610259  0.41137413  0.54719964  1
  B  B6  1  0.14610159  0.45280597  0.91137100  1
  B  B7  1  0.14609823  0.04720911  0.58862602  1
loop_
_geom_bond_atom_site_label_1
_geom_bond_atom_site_label_2
_geom_bond_distance
_geom_bond_site_symmetry_2
Co0 Sm0 2.882706 1_555
Co0 Sm1 3.013930 1_455
Co1 Sm0 2.882697 1_556
Co1 Sm1 3.014179 1_445
Co2 Sm1 2.882864 1_545
Co2 Sm0 3.014124 1_555
Co3 Sm1 2.882498 1_555
Co3 Sm0 3.013940 1_556
Co4 Sm1 2.882490 1_555
Co4 Sm0 3.013782 1_655
Co5 Sm1 2.882553 1_554
Co5 Sm0 3.014138 1_665
Co6 Sm0 2.882730 1_565
Co6 Sm1 3.014016 1_555
Co7 Sm0 2.882284 1_555
Co7 Sm1 3.013891 1_554
B0 B4 1.782219 1_564
B0 Co5 1.973028 1_455
B0 Co7 1.982550 1_555
B0 Co5 1.996791 1_555
B0 Co1 2.026128 1_564
B0 Co6 2.426381 1_555
B0 Sm0 2.780883 1_565
B0 Sm1 2.792192 1_554
B0 Sm1 3.279246 1_454
B1 B5 1.782198 1_555
B1 Co4 1.972981 1_455
B1 Co6 1.982569 1_555
B1 Co4 1.996761 1_555
B1 Co0 2.026142 1_555
B1 Co7 2.426291 1_555
B1 Sm0 2.780463 1_555
B1 Sm1 2.792150 1_555
B1 Sm1 3.279287 1_455
B2 B6 1.782250 1_654
B2 Co7 1.973001 1_555
B2 Co4 1.982557 1_555
B2 Co7 1.996757 1_655
B2 Co3 2.026124 1_554
B2 Co5 2.426259 1_555
B2 Sm1 2.780575 1_554
B2 Sm0 2.792035 1_655
B2 Sm0 3.279077 1_555
B3 B7 1.782221 1_665
B3 Co6 1.973055 1_555
B3 Co5 1.982562 1_555
B3 Co6 1.996746 1_655
B3 Co2 2.026183 1_565
B3 Co4 2.426390 1_555
B3 Sm1 2.780770 1_555
B3 Sm0 2.792294 1_665
B3 Sm0 3.279403 1_565
B4 Co1 1.973067 1_655
B4 Co3 1.982140 1_555
B4 Co1 1.996762 1_555
B4 Co5 2.026173 1_546
B4 Co2 2.426085 1_555
B4 Sm1 2.780901 1_545
B4 Sm0 2.792295 1_556
B4 Sm0 3.279248 1_656
B5 Co0 1.973072 1_655
B5 Co2 1.982114 1_555
B5 Co0 1.996811 1_555
B5 Co4 2.026041 1_555
B5 Co3 2.426135 1_555
B5 Sm1 2.780633 1_555
B5 Sm0 2.792166 1_555
B5 Sm0 3.279167 1_655
B6 Co3 1.973087 1_555
B6 Co0 1.982096 1_555
B6 Co3 1.996779 1_455
B6 Co7 2.026077 1_556
B6 Co1 2.426138 1_555
B6 Sm0 2.780666 1_556
B6 Sm1 2.792075 1_455
B6 Sm1 3.279006 1_555
B7 Co2 1.973048 1_555
B7 Co1 1.982160 1_555
B7 Co2 1.996790 1_455
B7 Co6 2.026159 1_545
B7 Co0 2.426061 1_555
B7 Sm0 2.780855 1_555
B7 Sm1 2.792372 1_445
B7 Sm1 3.279356 1_545
