# generated using pymatgen
data_Sc3RuC4
_symmetry_space_group_name_H-M   'P 1'
_cell_length_a   6.79428310
_cell_length_b   6.79428310
_cell_length_c   6.68199198
_cell_angle_alpha   75.76143523
_cell_angle_beta   75.76143523
_cell_angle_gamma   38.49340620
_symmetry_Int_Tables_number   1
_chemical_formula_structural   Sc3RuC4
_chemical_formula_sum   'Sc6 Ru2 C8'
_cell_volume   185.36081625
_cell_formula_units_Z   2
loop_
 _symmetry_equiv_pos_site_id
 _symmetry_equiv_pos_as_xyz
  1  'x, y, z'
loop_
 _atom_site_type_symbol
 _atom_site_label
 _atom_site_symmetry_multiplicity
 _atom_site_fract_x
 _atom_site_fract_y
 _atom_site_fract_z
 _atom_site_occupancy
  Sc  Sc0  1  0.50000000  0.50000000  0.00000000  1
  Sc  Sc1  1  0.50000000  0.50000000  0.50000000  1
  Sc  Sc2  1  0.18891771  0.18891771  0.90595928  1
  Sc  Sc3  1  0.81108229  0.81108229  0.09404072  1
  Sc  Sc4  1  0.19053289  0.19053289  0.40454475  1
  Sc  Sc5  1  0.80946711  0.80946711  0.59545525  1
  Ru  Ru0  1  0.99976717  0.99976717  0.73746212  1
  Ru  Ru1  1  0.00023283  0.00023283  0.26253788  1
  C  C0  1  0.46884046  0.78804159  0.68522921  1
  C  C1  1  0.78804159  0.46884046  0.68522921  1
  C  C2  1  0.53115954  0.21195841  0.31477079  1
  C  C3  1  0.21195841  0.53115954  0.31477079  1
  C  C4  1  0.21144025  0.53001888  0.81380086  1
  C  C5  1  0.53001888  0.21144025  0.81380086  1
  C  C6  1  0.78855975  0.46998112  0.18619914  1
  C  C7  1  0.46998112  0.78855975  0.18619914  1
loop_
_geom_bond_atom_site_label_1
_geom_bond_atom_site_label_2
_geom_bond_distance
_geom_bond_site_symmetry_2
Ru0 Sc1 2.744307 1_565
Ru0 Sc1 2.744307 1_655
Ru1 Sc1 2.744307 1_455
Ru1 Sc1 2.744307 1_545
C0 C1 1.429793 1_555
C0 Ru0 2.207147 1_455
C0 Sc5 2.353416 1_555
C0 Sc2 2.387139 1_565
C0 Sc4 2.387167 1_565
C0 Sc1 2.412633 1_555
C0 Sc0 2.417498 1_556
C1 Ru0 2.207147 1_545
C1 Sc5 2.353416 1_555
C1 Sc2 2.387139 1_655
C1 Sc4 2.387167 1_655
C1 Sc1 2.412633 1_555
C1 Sc0 2.417498 1_556
C2 C3 1.429793 1_555
C2 Ru1 2.207147 1_655
C2 Sc4 2.353416 1_555
C2 Sc3 2.387139 1_545
C2 Sc5 2.387167 1_545
C2 Sc1 2.412633 1_555
C2 Sc0 2.417498 1_555
C3 Ru1 2.207147 1_565
C3 Sc4 2.353416 1_555
C3 Sc3 2.387139 1_455
C3 Sc5 2.387167 1_455
C3 Sc1 2.412633 1_555
C3 Sc0 2.417498 1_555
C4 C5 1.427004 1_555
C4 Ru0 2.211284 1_455
C4 Sc2 2.362277 1_555
C4 Sc5 2.381786 1_455
C4 Sc3 2.382129 1_456
C4 Sc1 2.417479 1_555
C4 Sc0 2.425393 1_556
C5 Ru0 2.211284 1_545
C5 Sc2 2.362277 1_555
C5 Sc5 2.381786 1_545
C5 Sc3 2.382129 1_546
C5 Sc1 2.417479 1_555
C5 Sc0 2.425393 1_556
C6 C7 1.427004 1_555
C6 Ru1 2.211284 1_655
C6 Sc3 2.362277 1_555
C6 Sc4 2.381786 1_655
C6 Sc2 2.382129 1_654
C6 Sc1 2.417479 1_555
C6 Sc0 2.425393 1_555
C7 Ru1 2.211284 1_565
C7 Sc3 2.362277 1_555
C7 Sc4 2.381786 1_565
C7 Sc2 2.382129 1_564
C7 Sc1 2.417479 1_555
C7 Sc0 2.425393 1_555
