# generated using pymatgen
data_Tb3(Al3Ru)4
_symmetry_space_group_name_H-M   'P 1'
_cell_length_a   8.77144638
_cell_length_b   8.77141365
_cell_length_c   9.52237869
_cell_angle_alpha   89.99999714
_cell_angle_beta   89.99996647
_cell_angle_gamma   120.00004448
_symmetry_Int_Tables_number   1
_chemical_formula_structural   Tb3(Al3Ru)4
_chemical_formula_sum   'Tb6 Al24 Ru8'
_cell_volume   634.47818009
_cell_formula_units_Z   2
loop_
 _symmetry_equiv_pos_site_id
 _symmetry_equiv_pos_as_xyz
  1  'x, y, z'
loop_
 _atom_site_type_symbol
 _atom_site_label
 _atom_site_symmetry_multiplicity
 _atom_site_fract_x
 _atom_site_fract_y
 _atom_site_fract_z
 _atom_site_occupancy
  Tb  Tb0  1  0.38488863  0.19244471  0.25001967  1
  Tb  Tb1  1  0.80755627  0.19244485  0.25002056  1
  Tb  Tb2  1  0.80755633  0.61511225  0.25001842  1
  Tb  Tb3  1  0.61511235  0.80755652  0.74998204  1
  Tb  Tb4  1  0.19244445  0.80755626  0.74998110  1
  Tb  Tb5  1  0.19244534  0.38489028  0.74998258  1
  Al  Al0  1  0.43853577  0.87707163  0.25001214  1
  Al  Al1  1  0.12292955  0.56146515  0.25001170  1
  Al  Al2  1  0.43853573  0.56146546  0.25001184  1
  Al  Al3  1  0.56146538  0.12292961  0.74999014  1
  Al  Al4  1  0.87707313  0.43853700  0.74999080  1
  Al  Al5  1  0.56146468  0.43853634  0.74999088  1
  Al  Al6  1  0.16253470  0.83745000  0.42328766  1
  Al  Al7  1  0.16254396  0.32508757  0.42328565  1
  Al  Al8  1  0.67491535  0.83745009  0.42328783  1
  Al  Al9  1  0.83746702  0.16255171  0.57671651  1
  Al  Al10  1  0.83744498  0.67489642  0.57670926  1
  Al  Al11  1  0.32508563  0.16255175  0.57671638  1
  Al  Al12  1  0.83744266  0.16254584  0.92328949  1
  Al  Al13  1  0.83744169  0.67489760  0.92328860  1
  Al  Al14  1  0.32511134  0.16255634  0.92329213  1
  Al  Al15  1  0.16255930  0.83745589  0.07671098  1
  Al  Al16  1  0.16255628  0.32511211  0.07670839  1
  Al  Al17  1  0.67488961  0.83744538  0.07670823  1
  Al  Al18  1  0.33333406  0.66666675  0.50982446  1
  Al  Al19  1  0.66666633  0.33333276  0.49017821  1
  Al  Al20  1  0.66666689  0.33333459  0.00977130  1
  Al  Al21  1  0.33333463  0.66666717  0.99022994  1
  Al  Al22  1  -0.00000565  -0.00001128  0.24998226  1
  Al  Al23  1  0.00000100  0.00000083  0.74999293  1
  Ru  Ru0  1  -0.00000057  -0.00000199  0.49999946  1
  Ru  Ru1  1  0.00000059  0.00000049  0.00000305  1
  Ru  Ru2  1  0.49999973  -0.00000098  0.50000045  1
  Ru  Ru3  1  0.00000312  0.50000082  0.50000012  1
  Ru  Ru4  1  0.49999765  0.50000057  0.49999985  1
  Ru  Ru5  1  0.49999950  -0.00000140  0.00000171  1
  Ru  Ru6  1  0.00000259  0.50000165  0.00000156  1
  Ru  Ru7  1  0.49999899  0.50000126  0.00000172  1
loop_
_geom_bond_atom_site_label_1
_geom_bond_atom_site_label_2
_geom_bond_distance
_geom_bond_site_symmetry_2
Al0 Ru2 2.557081 1_565
Al0 Ru5 2.557275 1_565
Al0 Tb0 3.029088 1_565
Al0 Tb1 3.029094 1_565
Al1 Ru3 2.557080 1_555
Al1 Ru6 2.557275 1_555
Al1 Tb1 3.029089 1_455
Al1 Tb2 3.029098 1_455
Al2 Ru4 2.557078 1_555
Al2 Ru7 2.557275 1_555
Al2 Tb0 3.029090 1_555
Al2 Tb2 3.029102 1_555
Al3 Ru2 2.557102 1_555
Al3 Ru5 2.557297 1_556
Al3 Tb3 3.029087 1_545
Al3 Tb4 3.029096 1_545
Al4 Ru3 2.557110 1_655
Al4 Ru6 2.557288 1_656
Al4 Tb4 3.029077 1_655
Al4 Tb5 3.029087 1_655
Al5 Ru4 2.557117 1_555
Al5 Ru7 2.557290 1_556
Al5 Tb3 3.029083 1_555
Al5 Tb5 3.029094 1_555
Al6 Ru0 2.575200 1_565
Al6 Ru3 2.665959 1_555
Al6 Ru2 2.666084 1_565
Al6 Tb4 3.143893 1_555
Al6 Tb2 3.185633 1_455
Al6 Tb0 3.185732 1_565
Al7 Ru0 2.575245 1_555
Al7 Ru3 2.666005 1_555
Al7 Ru4 2.666005 1_555
Al7 Tb5 3.143925 1_555
Al7 Tb0 3.185676 1_555
Al7 Tb1 3.185677 1_455
Al8 Ru0 2.575209 1_665
Al8 Ru4 2.665960 1_555
Al8 Ru2 2.666076 1_565
Al8 Tb3 3.143900 1_555
Al8 Tb2 3.185632 1_555
Al8 Tb1 3.185728 1_565
Al9 Ru0 2.575235 1_655
Al9 Ru3 2.665968 1_655
Al9 Ru2 2.666108 1_555
Al9 Tb1 3.143917 1_555
Al9 Tb5 3.185618 1_655
Al9 Tb3 3.185723 1_545
Al10 Ru0 2.575322 1_665
Al10 Ru4 2.665943 1_555
Al10 Ru3 2.665985 1_655
Al10 Tb2 3.143848 1_555
Al10 Tb3 3.185727 1_555
Al10 Tb4 3.185774 1_655
Al11 Ru0 2.575239 1_555
Al11 Ru4 2.665966 1_555
Al11 Ru2 2.666101 1_555
Al11 Tb0 3.143923 1_555
Al11 Tb5 3.185617 1_555
Al11 Tb4 3.185720 1_545
Al12 Ru1 2.575351 1_656
Al12 Ru5 2.665920 1_556
Al12 Ru6 2.666002 1_656
Al12 Tb1 3.144228 1_556
Al12 Tb3 3.185870 1_545
Al12 Tb5 3.185967 1_655
Al13 Ru1 2.575345 1_666
Al13 Ru7 2.665919 1_556
Al13 Ru6 2.666018 1_656
Al13 Tb2 3.144216 1_556
Al13 Tb3 3.185865 1_555
Al13 Tb4 3.185972 1_655
Al14 Ru1 2.575400 1_556
Al14 Ru7 2.665916 1_556
Al14 Ru5 2.665929 1_556
Al14 Tb0 3.144186 1_556
Al14 Tb5 3.185951 1_555
Al14 Tb4 3.185953 1_545
Al15 Ru1 2.575336 1_565
Al15 Ru5 2.665891 1_565
Al15 Ru6 2.665984 1_555
Al15 Tb4 3.144216 1_554
Al15 Tb0 3.185872 1_565
Al15 Tb2 3.185970 1_455
Al16 Ru1 2.575384 1_555
Al16 Ru7 2.665901 1_555
Al16 Ru6 2.665903 1_555
Al16 Tb5 3.144170 1_554
Al16 Tb0 3.185959 1_555
Al16 Tb1 3.185966 1_455
Al17 Ru1 2.575387 1_665
Al17 Ru7 2.665903 1_555
Al17 Ru5 2.665903 1_565
Al17 Tb3 3.144173 1_554
Al17 Tb2 3.185952 1_555
Al17 Tb1 3.185956 1_565
Al18 Ru4 2.533795 1_555
Al18 Ru3 2.533807 1_555
Al18 Ru2 2.533807 1_565
Al18 Tb5 3.132303 1_555
Al18 Tb4 3.132310 1_555
Al18 Tb3 3.132315 1_555
Al19 Ru2 2.533818 1_555
Al19 Ru4 2.533845 1_555
Al19 Ru3 2.533850 1_655
Al19 Tb1 3.132310 1_555
Al19 Tb0 3.132319 1_555
Al19 Tb2 3.132330 1_555
Al20 Ru7 2.533812 1_555
Al20 Ru5 2.533816 1_555
Al20 Ru6 2.533824 1_655
Al20 Tb2 3.132929 1_555
Al20 Tb0 3.132944 1_555
Al20 Tb1 3.132955 1_555
Al21 Ru7 2.533780 1_556
Al21 Ru5 2.533783 1_566
Al21 Ru6 2.533797 1_556
Al21 Tb5 3.132927 1_555
Al21 Tb3 3.132938 1_555
Al21 Tb4 3.132953 1_555
Al22 Ru1 2.380397 1_555
Al22 Ru0 2.380758 1_555
Al22 Tb2 2.923623 1_445
Al22 Tb1 2.923765 1_455
Al22 Tb0 2.923769 1_555
Al23 Ru0 2.380532 1_555
Al23 Ru1 2.380691 1_556
Al23 Tb4 2.923718 1_545
Al23 Tb5 2.923722 1_555
Al23 Tb3 2.923727 1_445
Ru2 Tb4 3.352546 1_545
Ru2 Tb1 3.352550 1_555
Ru2 Tb3 3.352551 1_545
Ru2 Tb0 3.352556 1_555
Ru3 Tb1 3.352543 1_455
Ru3 Tb4 3.352545 1_555
Ru3 Tb5 3.352547 1_555
Ru3 Tb2 3.352573 1_455
Ru4 Tb0 3.352545 1_555
Ru4 Tb5 3.352546 1_555
Ru4 Tb3 3.352555 1_555
Ru4 Tb2 3.352573 1_555
Ru5 Tb3 3.352806 1_544
Ru5 Tb0 3.352808 1_555
Ru5 Tb1 3.352817 1_555
Ru5 Tb4 3.352817 1_544
Ru6 Tb5 3.352800 1_554
Ru6 Tb2 3.352802 1_455
Ru6 Tb4 3.352807 1_554
Ru6 Tb1 3.352811 1_455
Ru7 Tb5 3.352802 1_554
Ru7 Tb0 3.352803 1_555
Ru7 Tb3 3.352804 1_554
Ru7 Tb2 3.352807 1_555
