# generated using pymatgen
data_NaBH4
_symmetry_space_group_name_H-M   'P 1'
_cell_length_a   4.40111500
_cell_length_b   6.03645900
_cell_length_c   8.15021800
_cell_angle_alpha   90.00000000
_cell_angle_beta   90.00000000
_cell_angle_gamma   90.00000000
_symmetry_Int_Tables_number   1
_chemical_formula_structural   NaBH4
_chemical_formula_sum   'Na4 B4 H16'
_cell_volume   216.52806619
_cell_formula_units_Z   4
loop_
 _symmetry_equiv_pos_site_id
 _symmetry_equiv_pos_as_xyz
  1  'x, y, z'
loop_
 _atom_site_type_symbol
 _atom_site_label
 _atom_site_symmetry_multiplicity
 _atom_site_fract_x
 _atom_site_fract_y
 _atom_site_fract_z
 _atom_site_occupancy
  Na  Na0  1  0.25000000  0.26819600  0.64024200  1
  Na  Na1  1  0.25000000  0.23180400  0.14024200  1
  Na  Na2  1  0.75000000  0.73180400  0.35975800  1
  Na  Na3  1  0.75000000  0.76819600  0.85975800  1
  B  B0  1  0.25000000  0.73009900  0.10580500  1
  B  B1  1  0.25000000  0.76990100  0.60580500  1
  B  B2  1  0.75000000  0.26990100  0.89419500  1
  B  B3  1  0.75000000  0.23009900  0.39419500  1
  H  H0  1  0.25000000  0.61874700  0.98037700  1
  H  H1  1  0.25000000  0.88125300  0.48037700  1
  H  H2  1  0.75000000  0.38125300  0.01962300  1
  H  H3  1  0.75000000  0.11874700  0.51962300  1
  H  H4  1  0.25000000  0.60980000  0.22683200  1
  H  H5  1  0.25000000  0.89020000  0.72683200  1
  H  H6  1  0.75000000  0.39020000  0.77316800  1
  H  H7  1  0.75000000  0.10980000  0.27316800  1
  H  H8  1  0.97629300  0.15097100  0.89005800  1
  H  H9  1  0.52370700  0.34902900  0.39005800  1
  H  H10  1  0.47629300  0.84902900  0.10994200  1
  H  H11  1  0.02370700  0.65097100  0.60994200  1
  H  H12  1  0.02370700  0.84902900  0.10994200  1
  H  H13  1  0.47629300  0.65097100  0.60994200  1
  H  H14  1  0.52370700  0.15097100  0.89005800  1
  H  H15  1  0.97629300  0.34902900  0.39005800  1
loop_
_geom_bond_atom_site_label_1
_geom_bond_atom_site_label_2
_geom_bond_distance
_geom_bond_site_symmetry_2
B0 H0 1.223455 1_554
B0 H4 1.224874 1_555
B0 H10 1.228186 1_555
B0 H12 1.228186 1_555
B1 H1 1.223455 1_555
B1 H5 1.224874 1_555
B1 H13 1.228186 1_555
B1 H11 1.228186 1_555
B2 H2 1.223455 1_556
B2 H6 1.224874 1_555
B2 H8 1.228186 1_555
B2 H14 1.228186 1_555
B3 H3 1.223455 1_555
B3 H7 1.224874 1_555
B3 H15 1.228186 1_555
B3 H9 1.228186 1_555
H0 Na3 2.573469 1_455
H0 Na3 2.573469 1_555
H0 Na1 2.674591 1_556
H1 Na2 2.573469 1_455
H1 Na2 2.573469 1_555
H1 Na0 2.674591 1_565
H2 Na1 2.573469 1_555
H2 Na1 2.573469 1_655
H2 Na3 2.674591 1_554
H3 Na0 2.573469 1_555
H3 Na0 2.573469 1_655
H3 Na2 2.674591 1_545
H4 Na1 2.388403 1_555
H4 Na2 2.560966 1_455
H4 Na2 2.560966 1_555
H5 Na0 2.388403 1_565
H5 Na3 2.560966 1_555
H5 Na3 2.560966 1_455
H6 Na3 2.388403 1_555
H6 Na0 2.560966 1_655
H6 Na0 2.560966 1_555
H7 Na2 2.388403 1_545
H7 Na1 2.560966 1_555
H7 Na1 2.560966 1_655
H8 Na1 2.418043 1_656
H8 Na0 2.469281 1_655
H8 Na3 2.528198 1_545
H9 Na0 2.418043 1_555
H9 Na1 2.469281 1_555
H9 Na2 2.528198 1_555
H10 Na3 2.418043 1_554
H10 Na2 2.469281 1_555
H10 Na1 2.528198 1_565
H11 Na2 2.418043 1_455
H11 Na3 2.469281 1_455
H11 Na0 2.528198 1_555
H12 Na3 2.418043 1_454
H12 Na2 2.469281 1_455
H12 Na1 2.528198 1_565
H13 Na2 2.418043 1_555
H13 Na3 2.469281 1_555
H13 Na0 2.528198 1_555
H14 Na1 2.418043 1_556
H14 Na0 2.469281 1_555
H14 Na3 2.528198 1_545
H15 Na0 2.418043 1_655
H15 Na1 2.469281 1_655
H15 Na2 2.528198 1_555
