# generated using pymatgen
data_Yb2Mn3Sb3O14
_symmetry_space_group_name_H-M   'P 1'
_cell_length_a   7.19161486
_cell_length_b   7.19161486
_cell_length_c   7.10341229
_cell_angle_alpha   60.81001876
_cell_angle_beta   60.81001876
_cell_angle_gamma   61.13207643
_symmetry_Int_Tables_number   1
_chemical_formula_structural   Yb2Mn3Sb3O14
_chemical_formula_sum   'Yb2 Mn3 Sb3 O14'
_cell_volume   265.14504156
_cell_formula_units_Z   1
loop_
 _symmetry_equiv_pos_site_id
 _symmetry_equiv_pos_as_xyz
  1  'x, y, z'
loop_
 _atom_site_type_symbol
 _atom_site_label
 _atom_site_symmetry_multiplicity
 _atom_site_fract_x
 _atom_site_fract_y
 _atom_site_fract_z
 _atom_site_occupancy
  Yb  Yb0  1  0.50000000  0.00000000  0.00000000  1
  Yb  Yb1  1  0.00000000  0.50000000  0.00000000  1
  Mn  Mn0  1  0.50000000  0.50000000  0.50000000  1
  Mn  Mn1  1  0.00000000  0.00000000  0.00000000  1
  Mn  Mn2  1  0.00000000  0.00000000  0.50000000  1
  Sb  Sb0  1  0.50000000  0.50000000  0.00000000  1
  Sb  Sb1  1  0.00000000  0.50000000  0.50000000  1
  Sb  Sb2  1  0.50000000  0.00000000  0.50000000  1
  O  O0  1  0.89832900  0.89832900  0.83405100  1
  O  O1  1  0.10167100  0.10167100  0.16594900  1
  O  O2  1  0.57791400  0.57791400  0.17699900  1
  O  O3  1  0.16994400  0.16994400  0.57196300  1
  O  O4  1  0.18047100  0.57522400  0.57581800  1
  O  O5  1  0.57851800  0.16774700  0.16637000  1
  O  O6  1  0.16774700  0.57851800  0.16637000  1
  O  O7  1  0.57522400  0.18047100  0.57581800  1
  O  O8  1  0.42208600  0.42208600  0.82300100  1
  O  O9  1  0.83005600  0.83005600  0.42803700  1
  O  O10  1  0.81952900  0.42477600  0.42418200  1
  O  O11  1  0.42148200  0.83225300  0.83363000  1
  O  O12  1  0.83225300  0.42148200  0.83363000  1
  O  O13  1  0.42477600  0.81952900  0.42418200  1
loop_
_geom_bond_atom_site_label_1
_geom_bond_atom_site_label_2
_geom_bond_distance
_geom_bond_site_symmetry_2
Mn0 O2 1.920256 1_555
Mn0 O8 1.920256 1_555
Mn0 O10 1.933875 1_555
Mn0 O13 1.933875 1_555
Mn0 O4 1.933875 1_555
Mn0 O7 1.933875 1_555
Mn1 O0 2.157892 1_444
Mn1 O1 2.157892 1_555
Mn1 O6 2.530899 1_545
Mn1 O12 2.530899 1_454
Mn1 O11 2.530899 1_544
Mn1 O5 2.530899 1_455
Mn1 O3 2.534784 1_554
Mn1 O9 2.534784 1_445
Mn2 O0 1.957400 1_445
Mn2 O1 1.957400 1_555
Mn2 O3 2.431008 1_555
Mn2 O9 2.431008 1_445
Mn2 O13 2.560311 1_545
Mn2 O10 2.560311 1_455
Mn2 O7 2.560311 1_455
Mn2 O4 2.560311 1_545
O0 Yb0 2.377970 1_566
O0 Yb1 2.377970 1_656
O1 Yb0 2.377970 1_555
O1 Yb1 2.377970 1_555
O2 Sb0 1.971356 1_555
O2 Yb1 2.535958 1_655
O2 Yb0 2.535958 1_565
O3 Sb2 2.003464 1_555
O3 Sb1 2.003464 1_555
O4 Sb1 1.977667 1_555
O4 Yb1 2.515871 1_556
O5 Sb2 1.988568 1_555
O5 Sb0 2.004646 1_555
O5 Yb0 2.422836 1_555
O6 Sb1 1.988568 1_555
O6 Sb0 2.004646 1_555
O6 Yb1 2.422836 1_555
O7 Sb2 1.977667 1_555
O7 Yb0 2.515871 1_556
O8 Sb0 1.971356 1_556
O8 Yb1 2.535958 1_556
O8 Yb0 2.535958 1_556
O9 Sb1 2.003464 1_655
O9 Sb2 2.003464 1_565
O10 Sb1 1.977667 1_655
O10 Yb1 2.515871 1_655
O11 Sb2 1.988568 1_565
O11 Sb0 2.004646 1_556
O11 Yb0 2.422836 1_566
O12 Sb1 1.988568 1_655
O12 Sb0 2.004646 1_556
O12 Yb1 2.422836 1_656
O13 Sb2 1.977667 1_565
O13 Yb0 2.515871 1_565
