# generated using pymatgen
data_Nb2V3(Cu3S4)5
_symmetry_space_group_name_H-M   'P 1'
_cell_length_a   5.45429400
_cell_length_b   5.45429400
_cell_length_c   27.26188800
_cell_angle_alpha   90.00000000
_cell_angle_beta   90.00000000
_cell_angle_gamma   90.00000000
_symmetry_Int_Tables_number   1
_chemical_formula_structural   Nb2V3(Cu3S4)5
_chemical_formula_sum   'Nb2 V3 Cu15 S20'
_cell_volume   811.02271275
_cell_formula_units_Z   1
loop_
 _symmetry_equiv_pos_site_id
 _symmetry_equiv_pos_as_xyz
  1  'x, y, z'
loop_
 _atom_site_type_symbol
 _atom_site_label
 _atom_site_symmetry_multiplicity
 _atom_site_fract_x
 _atom_site_fract_y
 _atom_site_fract_z
 _atom_site_occupancy
  Nb  Nb0  1  0.00000000  0.00000000  0.89978700  1
  Nb  Nb1  1  0.00000000  0.00000000  0.10021300  1
  V  V0  1  0.00000000  0.00000000  0.30016900  1
  V  V1  1  0.00000000  0.00000000  0.50000000  1
  V  V2  1  0.00000000  0.00000000  0.69983100  1
  Cu  Cu0  1  0.00000000  0.00000000  0.00000000  1
  Cu  Cu1  1  0.00000000  0.00000000  0.20117900  1
  Cu  Cu2  1  0.00000000  0.00000000  0.40002100  1
  Cu  Cu3  1  0.00000000  0.00000000  0.59997900  1
  Cu  Cu4  1  0.00000000  0.00000000  0.79882100  1
  Cu  Cu5  1  0.00000000  0.50000000  0.90000400  1
  Cu  Cu6  1  0.00000000  0.50000000  0.09999600  1
  Cu  Cu7  1  0.00000000  0.50000000  0.30001000  1
  Cu  Cu8  1  0.00000000  0.50000000  0.50000000  1
  Cu  Cu9  1  0.00000000  0.50000000  0.69999000  1
  Cu  Cu10  1  0.50000000  0.00000000  0.90000400  1
  Cu  Cu11  1  0.50000000  0.00000000  0.09999600  1
  Cu  Cu12  1  0.50000000  0.00000000  0.30001000  1
  Cu  Cu13  1  0.50000000  0.00000000  0.50000000  1
  Cu  Cu14  1  0.50000000  0.00000000  0.69999000  1
  S  S0  1  0.75332300  0.75332300  0.94932700  1
  S  S1  1  0.75325500  0.75325500  0.14945600  1
  S  S2  1  0.76521000  0.76521000  0.34698000  1
  S  S3  1  0.76530400  0.76530400  0.54693100  1
  S  S4  1  0.76509100  0.76509100  0.74683900  1
  S  S5  1  0.75332300  0.24667700  0.05067300  1
  S  S6  1  0.76509100  0.23490900  0.25316100  1
  S  S7  1  0.76530400  0.23469600  0.45306900  1
  S  S8  1  0.76521000  0.23479000  0.65302000  1
  S  S9  1  0.75325500  0.24674500  0.85054400  1
  S  S10  1  0.24667700  0.75332300  0.05067300  1
  S  S11  1  0.23490900  0.76509100  0.25316100  1
  S  S12  1  0.23469600  0.76530400  0.45306900  1
  S  S13  1  0.23479000  0.76521000  0.65302000  1
  S  S14  1  0.24674500  0.75325500  0.85054400  1
  S  S15  1  0.24667700  0.24667700  0.94932700  1
  S  S16  1  0.24674500  0.24674500  0.14945600  1
  S  S17  1  0.23479000  0.23479000  0.34698000  1
  S  S18  1  0.23469600  0.23469600  0.54693100  1
  S  S19  1  0.23490900  0.23490900  0.74683900  1
loop_
_geom_bond_atom_site_label_1
_geom_bond_atom_site_label_2
_geom_bond_distance
_geom_bond_site_symmetry_2
Nb0 S9 2.329088 1_455
Nb0 S14 2.329088 1_545
Nb0 S15 2.333337 1_555
Nb0 S0 2.333337 1_445
Nb1 S1 2.329088 1_445
Nb1 S16 2.329088 1_555
Nb1 S10 2.333337 1_545
Nb1 S5 2.333337 1_455
Cu0 S15 2.351350 1_554
Cu0 S0 2.351350 1_444
Cu0 S10 2.351350 1_545
Cu0 S5 2.351350 1_455
Cu1 S6 2.300330 1_455
Cu1 S11 2.300330 1_545
Cu1 S1 2.368702 1_445
Cu1 S16 2.368702 1_555
Cu2 S12 2.317062 1_545
Cu2 S7 2.317062 1_455
Cu2 S17 2.317510 1_555
Cu2 S2 2.317510 1_445
Cu3 S3 2.317062 1_445
Cu3 S18 2.317062 1_555
Cu3 S13 2.317510 1_545
Cu3 S8 2.317510 1_455
Cu4 S19 2.300330 1_555
Cu4 S4 2.300330 1_445
Cu4 S14 2.368702 1_545
Cu4 S9 2.368702 1_455
Cu5 S15 2.351037 1_555
Cu5 S0 2.351037 1_455
Cu5 S14 2.353169 1_555
Cu5 S9 2.353169 1_455
Cu6 S5 2.351037 1_455
Cu6 S10 2.351037 1_555
Cu6 S16 2.353169 1_555
Cu6 S1 2.353169 1_455
Cu7 S11 2.315909 1_555
Cu7 S6 2.315909 1_455
Cu7 S2 2.317776 1_455
Cu7 S17 2.317776 1_555
Cu8 S18 2.317226 1_555
Cu8 S3 2.317226 1_455
Cu8 S12 2.317226 1_555
Cu8 S7 2.317226 1_455
Cu9 S19 2.315909 1_555
Cu9 S4 2.315909 1_455
Cu9 S13 2.317776 1_555
Cu9 S8 2.317776 1_455
Cu10 S15 2.351037 1_555
Cu10 S0 2.351037 1_545
Cu10 S9 2.353169 1_555
Cu10 S14 2.353169 1_545
Cu11 S5 2.351037 1_555
Cu11 S10 2.351037 1_545
Cu11 S16 2.353169 1_555
Cu11 S1 2.353169 1_545
Cu12 S6 2.315909 1_555
Cu12 S11 2.315909 1_545
Cu12 S2 2.317776 1_545
Cu12 S17 2.317776 1_555
Cu13 S18 2.317226 1_555
Cu13 S3 2.317226 1_545
Cu13 S12 2.317226 1_545
Cu13 S7 2.317226 1_555
Cu14 S19 2.315909 1_555
Cu14 S4 2.315909 1_545
Cu14 S8 2.317776 1_555
Cu14 S13 2.317776 1_545
S2 V0 2.215517 1_665
S3 V1 2.216811 1_665
S4 V2 2.219365 1_665
S6 V0 2.219365 1_655
S7 V1 2.216811 1_655
S8 V2 2.215517 1_655
S11 V0 2.219365 1_565
S12 V1 2.216811 1_565
S13 V2 2.215517 1_565
S17 V0 2.215517 1_555
S18 V1 2.216811 1_555
S19 V2 2.219365 1_555
