# generated using pymatgen
data_Sr4Zn51
_symmetry_space_group_name_H-M   'P 1'
_cell_length_a   14.96096755
_cell_length_b   14.96096755
_cell_length_c   14.96096756
_cell_angle_alpha   33.90467868
_cell_angle_beta   33.90467868
_cell_angle_gamma   33.90468026
_symmetry_Int_Tables_number   1
_chemical_formula_structural   Sr4Zn51
_chemical_formula_sum   'Sr4 Zn51'
_cell_volume   928.64201829
_cell_formula_units_Z   1
loop_
 _symmetry_equiv_pos_site_id
 _symmetry_equiv_pos_as_xyz
  1  'x, y, z'
loop_
 _atom_site_type_symbol
 _atom_site_label
 _atom_site_symmetry_multiplicity
 _atom_site_fract_x
 _atom_site_fract_y
 _atom_site_fract_z
 _atom_site_occupancy
  Sr  Sr0  1  0.87500200  0.87500200  0.87500200  1
  Sr  Sr1  1  0.37559600  0.37559600  0.37559600  1
  Sr  Sr2  1  0.12499800  0.12499800  0.12499800  1
  Sr  Sr3  1  0.62440400  0.62440400  0.62440400  1
  Zn  Zn0  1  0.71813900  0.47976600  0.08193400  1
  Zn  Zn1  1  0.21901800  0.97904100  0.58071700  1
  Zn  Zn2  1  0.40089100  0.15882600  0.03919800  1
  Zn  Zn3  1  0.90059900  0.65975000  0.53975800  1
  Zn  Zn4  1  0.28186100  0.52023400  0.91806600  1
  Zn  Zn5  1  0.78098200  0.02095900  0.41928300  1
  Zn  Zn6  1  0.59910900  0.84117400  0.96080200  1
  Zn  Zn7  1  0.09940100  0.34025000  0.46024200  1
  Zn  Zn8  1  0.82218900  0.23742700  0.46902200  1
  Zn  Zn9  1  0.33186900  0.72977500  0.96762300  1
  Zn  Zn10  1  0.29519500  0.41379700  0.64503200  1
  Zn  Zn11  1  0.78962800  0.90760800  0.15134700  1
  Zn  Zn12  1  0.70480500  0.58620300  0.35496800  1
  Zn  Zn13  1  0.21037200  0.09239200  0.84865300  1
  Zn  Zn14  1  0.17781100  0.76257300  0.53097800  1
  Zn  Zn15  1  0.66813100  0.27022500  0.03237700  1
  Zn  Zn16  1  0.15882600  0.03919800  0.40089100  1
  Zn  Zn17  1  0.65975000  0.53975800  0.90059900  1
  Zn  Zn18  1  0.47976600  0.08193400  0.71813900  1
  Zn  Zn19  1  0.97904100  0.58071700  0.21901800  1
  Zn  Zn20  1  0.84117400  0.96080200  0.59910900  1
  Zn  Zn21  1  0.34025000  0.46024200  0.09940100  1
  Zn  Zn22  1  0.52023400  0.91806600  0.28186100  1
  Zn  Zn23  1  0.02095900  0.41928300  0.78098200  1
  Zn  Zn24  1  0.41379700  0.64503200  0.29519500  1
  Zn  Zn25  1  0.90760800  0.15134700  0.78962800  1
  Zn  Zn26  1  0.23742700  0.46902200  0.82218900  1
  Zn  Zn27  1  0.72977500  0.96762300  0.33186900  1
  Zn  Zn28  1  0.76257300  0.53097800  0.17781100  1
  Zn  Zn29  1  0.27022500  0.03237700  0.66813100  1
  Zn  Zn30  1  0.58620300  0.35496800  0.70480500  1
  Zn  Zn31  1  0.09239200  0.84865300  0.21037200  1
  Zn  Zn32  1  0.91806600  0.28186100  0.52023400  1
  Zn  Zn33  1  0.41928300  0.78098200  0.02095900  1
  Zn  Zn34  1  0.96080200  0.59910900  0.84117400  1
  Zn  Zn35  1  0.46024200  0.09940100  0.34025000  1
  Zn  Zn36  1  0.08193400  0.71813900  0.47976600  1
  Zn  Zn37  1  0.58071700  0.21901800  0.97904100  1
  Zn  Zn38  1  0.03919800  0.40089100  0.15882600  1
  Zn  Zn39  1  0.53975800  0.90059900  0.65975000  1
  Zn  Zn40  1  0.35496800  0.70480500  0.58620300  1
  Zn  Zn41  1  0.84865300  0.21037200  0.09239200  1
  Zn  Zn42  1  0.53097800  0.17781100  0.76257300  1
  Zn  Zn43  1  0.03237700  0.66813100  0.27022500  1
  Zn  Zn44  1  0.46902200  0.82218900  0.23742700  1
  Zn  Zn45  1  0.96762300  0.33186900  0.72977500  1
  Zn  Zn46  1  0.64503200  0.29519500  0.41379700  1
  Zn  Zn47  1  0.15134700  0.78962800  0.90760800  1
  Zn  Zn48  1  0.00000000  0.00000000  0.00000000  1
  Zn  Zn49  1  0.75007100  0.75007100  0.75007100  1
  Zn  Zn50  1  0.24992900  0.24992900  0.24992900  1
loop_
_geom_bond_atom_site_label_1
_geom_bond_atom_site_label_2
_geom_bond_distance
_geom_bond_site_symmetry_2
Sr0 Zn25 3.537003 1_565
Sr0 Zn11 3.537003 1_556
Sr0 Zn47 3.537003 1_655
Sr0 Zn6 3.540530 1_555
Sr0 Zn20 3.540530 1_555
Sr0 Zn34 3.540530 1_555
Sr0 Zn1 3.550311 1_655
Sr0 Zn19 3.550311 1_556
Sr0 Zn37 3.550311 1_565
Sr0 Zn16 3.573969 1_665
Sr0 Zn38 3.573970 1_656
Sr0 Zn2 3.573970 1_566
Sr0 Zn32 3.583675 1_565
Sr0 Zn22 3.583675 1_556
Sr0 Zn4 3.583675 1_655
Sr0 Zn28 3.586161 1_556
Sr0 Zn14 3.586161 1_655
Sr0 Zn42 3.586161 1_565
Sr0 Zn44 3.619844 1_556
Sr0 Zn8 3.619844 1_565
Sr0 Zn26 3.619844 1_655
Sr0 Zn12 3.622966 1_556
Sr0 Zn40 3.622966 1_655
Sr0 Zn30 3.622966 1_565
Sr1 Zn0 3.537278 1_555
Sr1 Zn18 3.537278 1_555
Sr1 Zn36 3.537278 1_555
Sr1 Zn24 3.557670 1_555
Sr1 Zn10 3.557670 1_555
Sr1 Zn46 3.557670 1_555
Sr1 Zn29 3.561869 1_555
Sr1 Zn15 3.561870 1_555
Sr1 Zn43 3.561870 1_555
Sr1 Zn13 3.566651 1_555
Sr1 Zn41 3.566651 1_555
Sr1 Zn31 3.566651 1_555
Sr1 Zn33 3.573568 1_555
Sr1 Zn23 3.573568 1_555
Sr1 Zn5 3.573568 1_555
Sr1 Zn7 3.575930 1_555
Sr1 Zn21 3.575930 1_555
Sr1 Zn35 3.575930 1_555
Sr1 Zn17 3.580189 1_554
Sr1 Zn39 3.580189 1_545
Sr1 Zn3 3.580189 1_455
Sr1 Zn45 3.598369 1_455
Sr1 Zn9 3.598369 1_554
Sr1 Zn27 3.598369 1_545
Sr2 Zn31 3.537003 1_545
Sr2 Zn13 3.537003 1_554
Sr2 Zn41 3.537003 1_455
Sr2 Zn2 3.540530 1_555
Sr2 Zn16 3.540530 1_555
Sr2 Zn38 3.540530 1_555
Sr2 Zn5 3.550311 1_455
Sr2 Zn23 3.550311 1_554
Sr2 Zn33 3.550311 1_545
Sr2 Zn20 3.573969 1_445
Sr2 Zn34 3.573970 1_454
Sr2 Zn6 3.573970 1_544
Sr2 Zn36 3.583675 1_545
Sr2 Zn18 3.583675 1_554
Sr2 Zn0 3.583675 1_455
Sr2 Zn26 3.586161 1_554
Sr2 Zn8 3.586161 1_455
Sr2 Zn44 3.586161 1_545
Sr2 Zn42 3.619844 1_554
Sr2 Zn14 3.619844 1_545
Sr2 Zn28 3.619844 1_455
Sr2 Zn10 3.622966 1_554
Sr2 Zn46 3.622966 1_455
Sr2 Zn24 3.622966 1_545
Sr3 Zn4 3.537278 1_555
Sr3 Zn22 3.537278 1_555
Sr3 Zn32 3.537278 1_555
Sr3 Zn30 3.557670 1_555
Sr3 Zn12 3.557670 1_555
Sr3 Zn40 3.557670 1_555
Sr3 Zn27 3.561869 1_555
Sr3 Zn9 3.561870 1_555
Sr3 Zn45 3.561870 1_555
Sr3 Zn11 3.566651 1_555
Sr3 Zn47 3.566651 1_555
Sr3 Zn25 3.566651 1_555
Sr3 Zn37 3.573568 1_555
Sr3 Zn19 3.573568 1_555
Sr3 Zn1 3.573568 1_555
Sr3 Zn3 3.575930 1_555
Sr3 Zn17 3.575930 1_555
Sr3 Zn39 3.575930 1_555
Sr3 Zn21 3.580189 1_556
Sr3 Zn35 3.580189 1_565
Sr3 Zn7 3.580189 1_655
Sr3 Zn43 3.598369 1_655
Sr3 Zn15 3.598369 1_556
Sr3 Zn29 3.598369 1_565
Zn0 Zn41 2.545245 1_555
Zn0 Zn46 2.591105 1_555
Zn0 Zn49 2.678455 1_554
Zn0 Zn24 2.705168 1_555
Zn0 Zn28 2.709081 1_555
Zn0 Zn17 2.742132 1_554
Zn0 Zn33 2.762619 1_555
Zn0 Zn23 2.777501 1_654
Zn0 Zn34 2.778524 1_554
Zn0 Zn6 2.966423 1_554
Zn1 Zn47 2.551833 1_555
Zn1 Zn40 2.615916 1_555
Zn1 Zn50 2.673881 1_565
Zn1 Zn29 2.710001 1_565
Zn1 Zn25 2.717906 1_465
Zn1 Zn16 2.741542 1_565
Zn1 Zn22 2.762619 1_555
Zn1 Zn35 2.773409 1_565
Zn1 Zn32 2.777501 1_465
Zn1 Zn7 2.964402 1_565
Zn2 Zn42 2.567593 1_554
Zn2 Zn44 2.627288 1_545
Zn2 Zn50 2.664942 1_555
Zn2 Zn26 2.718235 1_554
Zn2 Zn30 2.727313 1_554
Zn2 Zn37 2.741542 1_554
Zn2 Zn22 2.778524 1_545
Zn2 Zn38 2.784532 1_555
Zn2 Zn4 2.966423 1_554
Zn3 Zn43 2.556921 1_655
Zn3 Zn45 2.562991 1_555
Zn3 Zn49 2.653678 1_555
Zn3 Zn31 2.715940 1_655
Zn3 Zn36 2.742132 1_655
Zn3 Zn39 2.776897 1_555
Zn3 Zn5 2.964402 1_565
Zn4 Zn47 2.545245 1_555
Zn4 Zn40 2.591105 1_555
Zn4 Zn50 2.678455 1_556
Zn10 Zn18 2.591105 1_555
Zn10 Zn23 2.615916 1_555
Zn10 Zn26 2.664907 1_555
Zn10 Zn24 2.688526 1_555
Zn10 Zn46 2.688526 1_555
Zn10 Zn36 2.705168 1_555
Zn10 Zn42 2.705336 1_555
Zn10 Zn34 2.727313 1_455
Zn10 Zn14 2.864763 1_555
Zn11 Zn22 2.545245 1_555
Zn11 Zn19 2.551834 1_555
Zn11 Zn48 2.672115 1_665
Zn11 Zn35 2.715940 1_565
Zn11 Zn37 2.717906 1_564
Zn11 Zn27 2.752912 1_555
Zn11 Zn43 2.781186 1_655
Zn11 Zn25 2.787540 1_564
Zn11 Zn47 2.787540 1_654
Zn11 Zn15 2.979377 1_565
Zn12 Zn22 2.591105 1_555
Zn12 Zn19 2.615916 1_555
Zn12 Zn28 2.664907 1_555
Zn12 Zn30 2.688526 1_555
Zn12 Zn40 2.688526 1_555
Zn12 Zn32 2.705168 1_555
Zn12 Zn44 2.705336 1_555
Zn12 Zn38 2.727313 1_655
Zn12 Zn8 2.864763 1_555
Zn13 Zn18 2.545245 1_555
Zn13 Zn23 2.551834 1_555
Zn13 Zn48 2.672115 1_556
Zn13 Zn39 2.715940 1_545
Zn13 Zn33 2.717906 1_546
Zn13 Zn29 2.752912 1_555
Zn13 Zn45 2.781186 1_455
Zn13 Zn31 2.787540 1_546
Zn13 Zn41 2.787540 1_456
Zn13 Zn9 2.979377 1_545
Zn14 Zn16 2.567593 1_565
Zn14 Zn20 2.627288 1_455
Zn14 Zn40 2.664907 1_555
Zn14 Zn44 2.692919 1_555
Zn14 Zn26 2.692919 1_555
Zn14 Zn24 2.705335 1_555
Zn14 Zn36 2.709081 1_555
Zn14 Zn34 2.718235 1_455
Zn15 Zn17 2.556921 1_554
Zn15 Zn21 2.562991 1_555
Zn15 Zn48 2.677646 1_655
Zn15 Zn35 2.700939 1_555
Zn15 Zn37 2.710001 1_554
Zn15 Zn41 2.752912 1_555
Zn15 Zn45 2.771238 1_554
Zn15 Zn27 2.771238 1_545
Zn15 Zn25 2.781186 1_554
Zn16 Zn8 2.627288 1_455
Zn16 Zn50 2.664942 1_555
Zn16 Zn44 2.718235 1_545
Zn16 Zn40 2.727313 1_545
Zn16 Zn32 2.778524 1_455
Zn16 Zn2 2.784532 1_555
Zn16 Zn38 2.784532 1_555
Zn16 Zn22 2.966423 1_545
Zn17 Zn9 2.562991 1_555
Zn17 Zn49 2.653678 1_555
Zn17 Zn45 2.700939 1_555
Zn17 Zn41 2.715940 1_556
Zn17 Zn33 2.773409 1_556
Zn17 Zn3 2.776897 1_555
Zn17 Zn39 2.776897 1_555
Zn17 Zn23 2.964402 1_655
Zn18 Zn49 2.678455 1_545
Zn18 Zn46 2.705168 1_555
Zn18 Zn42 2.709081 1_555
Zn18 Zn39 2.742132 1_545
Zn18 Zn5 2.762619 1_555
Zn18 Zn33 2.777501 1_546
Zn18 Zn6 2.778524 1_545
Zn18 Zn20 2.966423 1_545
Zn19 Zn50 2.673881 1_655
Zn19 Zn43 2.710001 1_655
Zn19 Zn47 2.717906 1_654
Zn19 Zn38 2.741542 1_655
Zn19 Zn32 2.762619 1_555
Zn19 Zn7 2.773409 1_655
Zn19 Zn4 2.777501 1_654
Zn19 Zn21 2.964402 1_655
Zn20 Zn8 2.567593 1_565
Zn20 Zn49 2.664942 1_555
Zn20 Zn42 2.718235 1_565
Zn20 Zn46 2.727313 1_565
Zn20 Zn5 2.741542 1_565
Zn20 Zn36 2.778524 1_655
Zn20 Zn6 2.784532 1_555
Zn20 Zn34 2.784532 1_555
Zn21 Zn9 2.556921 1_554
Zn21 Zn50 2.653678 1_555
Zn21 Zn43 2.700939 1_555
Zn21 Zn47 2.715940 1_554
Zn21 Zn4 2.742132 1_554
Zn21 Zn37 2.773409 1_554
Zn21 Zn7 2.776897 1_555
Zn21 Zn35 2.776897 1_555
Zn22 Zn50 2.678455 1_565
Zn22 Zn40 2.705168 1_555
Zn22 Zn44 2.709081 1_555
Zn22 Zn35 2.742132 1_565
Zn22 Zn37 2.777501 1_564
Zn23 Zn49 2.673881 1_455
Zn23 Zn45 2.710001 1_455
Zn23 Zn41 2.717906 1_456
Zn23 Zn34 2.741542 1_455
Zn23 Zn36 2.762619 1_555
Zn23 Zn3 2.773409 1_455
Zn24 Zn36 2.591105 1_555
Zn24 Zn33 2.615916 1_555
Zn24 Zn44 2.664907 1_555
Zn24 Zn46 2.688526 1_555
Zn24 Zn6 2.727313 1_554
Zn24 Zn28 2.864763 1_555
Zn25 Zn32 2.545245 1_555
Zn25 Zn37 2.551834 1_555
Zn25 Zn48 2.672115 1_656
Zn25 Zn7 2.715940 1_655
Zn25 Zn45 2.752912 1_555
Zn25 Zn47 2.787540 1_645
Zn25 Zn29 2.979377 1_655
Zn26 Zn34 2.567593 1_455
Zn26 Zn38 2.627288 1_556
Zn26 Zn42 2.692919 1_555
Zn26 Zn40 2.705335 1_555
Zn26 Zn4 2.709081 1_555
Zn26 Zn30 2.864763 1_555
Zn27 Zn35 2.556921 1_565
Zn27 Zn39 2.562991 1_555
Zn27 Zn48 2.677646 1_665
Zn27 Zn3 2.700939 1_555
Zn27 Zn5 2.710001 1_565
Zn27 Zn43 2.771238 1_655
Zn27 Zn41 2.781186 1_565
Zn27 Zn31 2.979377 1_655
Zn28 Zn38 2.567593 1_655
Zn28 Zn34 2.627288 1_554
Zn28 Zn8 2.692919 1_555
Zn28 Zn44 2.692919 1_555
Zn28 Zn46 2.705335 1_555
Zn28 Zn6 2.718235 1_554
Zn29 Zn39 2.556921 1_545
Zn29 Zn35 2.562991 1_555
Zn29 Zn48 2.677646 1_556
Zn29 Zn7 2.700939 1_555
Zn29 Zn9 2.771238 1_545
Zn29 Zn45 2.771238 1_455
Zn29 Zn47 2.781186 1_545
Zn30 Zn32 2.591105 1_555
Zn30 Zn37 2.615916 1_555
Zn30 Zn42 2.664907 1_555
Zn30 Zn40 2.688526 1_555
Zn30 Zn4 2.705168 1_555
Zn30 Zn8 2.705335 1_555
Zn31 Zn36 2.545245 1_555
Zn31 Zn33 2.551834 1_555
Zn31 Zn48 2.672115 1_565
Zn31 Zn5 2.717906 1_465
Zn31 Zn43 2.752912 1_555
Zn31 Zn9 2.781186 1_554
Zn31 Zn41 2.787540 1_465
Zn32 Zn50 2.678455 1_655
Zn32 Zn8 2.709081 1_555
Zn32 Zn7 2.742132 1_655
Zn32 Zn38 2.966423 1_655
Zn33 Zn49 2.673881 1_554
Zn33 Zn9 2.710001 1_554
Zn33 Zn6 2.741542 1_554
Zn33 Zn39 2.964402 1_554
Zn34 Zn49 2.664942 1_555
Zn34 Zn6 2.784532 1_555
Zn34 Zn36 2.966423 1_655
Zn35 Zn50 2.653678 1_555
Zn35 Zn7 2.776897 1_555
Zn35 Zn37 2.964402 1_554
Zn36 Zn49 2.678455 1_455
Zn36 Zn5 2.777501 1_465
Zn37 Zn50 2.673881 1_556
Zn37 Zn4 2.762619 1_555
Zn38 Zn50 2.664942 1_555
Zn38 Zn8 2.718235 1_455
Zn38 Zn4 2.778524 1_554
Zn39 Zn49 2.653678 1_555
Zn39 Zn9 2.700939 1_555
Zn39 Zn5 2.773409 1_565
Zn40 Zn44 2.864763 1_555
Zn41 Zn5 2.551833 1_555
Zn41 Zn48 2.672115 1_655
Zn41 Zn45 2.979377 1_554
Zn42 Zn6 2.627288 1_545
Zn42 Zn8 2.692919 1_555
Zn42 Zn46 2.864763 1_555
Zn43 Zn7 2.562991 1_555
Zn43 Zn48 2.677646 1_565
Zn43 Zn9 2.771238 1_554
Zn43 Zn47 2.979377 1_554
Zn44 Zn6 2.567593 1_554
Zn45 Zn7 2.556921 1_655
Zn45 Zn48 2.677646 1_656
Zn46 Zn5 2.615916 1_555
Zn46 Zn8 2.664907 1_555
Zn47 Zn48 2.672115 1_566
Zn47 Zn9 2.752912 1_555
Zn48 Zn9 2.677646 1_544
Zn49 Zn6 2.664942 1_555
Zn49 Zn5 2.673881 1_565
Zn50 Zn7 2.653678 1_555
