# generated using pymatgen
data_Gd2Si3Ni
_symmetry_space_group_name_H-M   'P 1'
_cell_length_a   4.05457976
_cell_length_b   4.05457976
_cell_length_c   8.06443600
_cell_angle_alpha   90.00000000
_cell_angle_beta   90.00000000
_cell_angle_gamma   119.99999602
_symmetry_Int_Tables_number   1
_chemical_formula_structural   Gd2Si3Ni
_chemical_formula_sum   'Gd2 Si3 Ni1'
_cell_volume   114.81439564
_cell_formula_units_Z   1
loop_
 _symmetry_equiv_pos_site_id
 _symmetry_equiv_pos_as_xyz
  1  'x, y, z'
loop_
 _atom_site_type_symbol
 _atom_site_label
 _atom_site_symmetry_multiplicity
 _atom_site_fract_x
 _atom_site_fract_y
 _atom_site_fract_z
 _atom_site_occupancy
  Gd  Gd0  1  0.00000000  0.00000000  0.74145400  1
  Gd  Gd1  1  0.00000000  0.00000000  0.25854600  1
  Si  Si0  1  0.66666700  0.33333300  0.00000000  1
  Si  Si1  1  0.33333300  0.66666700  0.50000000  1
  Si  Si2  1  0.33333300  0.66666700  0.00000000  1
  Ni  Ni0  1  0.66666700  0.33333300  0.50000000  1
loop_
_geom_bond_atom_site_label_1
_geom_bond_atom_site_label_2
_geom_bond_distance
_geom_bond_site_symmetry_2
Gd0 Ni0 3.044899 1_455
Gd0 Si1 3.044899 1_545
Gd0 Ni0 3.044902 1_445
Gd0 Ni0 3.044902 1_555
Gd0 Si1 3.044902 1_445
Gd0 Si1 3.044902 1_555
Gd0 Si0 3.134837 1_456
Gd0 Si2 3.134837 1_546
Gd0 Si0 3.134839 1_446
Gd0 Si2 3.134839 1_556
Gd0 Si0 3.134839 1_556
Gd0 Si2 3.134839 1_446
Gd1 Ni0 3.044899 1_455
Gd1 Si1 3.044899 1_545
Gd1 Ni0 3.044902 1_445
Gd1 Ni0 3.044902 1_555
Gd1 Si1 3.044902 1_445
Gd1 Si1 3.044902 1_555
Gd1 Si0 3.134837 1_455
Gd1 Si2 3.134837 1_545
Gd1 Si2 3.134839 1_555
Gd1 Si0 3.134839 1_445
Gd1 Si0 3.134839 1_555
Gd1 Si2 3.134839 1_445
Si0 Si2 2.340910 1_545
Si0 Si2 2.340910 1_655
Si0 Si2 2.340917 1_555
Ni0 Si1 2.340910 1_655
Ni0 Si1 2.340910 1_545
Ni0 Si1 2.340917 1_555
