# generated using pymatgen
data_Ba3ZrN3
_symmetry_space_group_name_H-M   'P 1'
_cell_length_a   8.50203200
_cell_length_b   8.50200511
_cell_length_c   5.86371500
_cell_angle_alpha   90.00000000
_cell_angle_beta   90.00000000
_cell_angle_gamma   120.00104327
_symmetry_Int_Tables_number   1
_chemical_formula_structural   Ba3ZrN3
_chemical_formula_sum   'Ba6 Zr2 N6'
_cell_volume   367.06503407
_cell_formula_units_Z   2
loop_
 _symmetry_equiv_pos_site_id
 _symmetry_equiv_pos_as_xyz
  1  'x, y, z'
loop_
 _atom_site_type_symbol
 _atom_site_label
 _atom_site_symmetry_multiplicity
 _atom_site_fract_x
 _atom_site_fract_y
 _atom_site_fract_z
 _atom_site_occupancy
  Ba  Ba0  1  0.89836400  0.64742200  0.25000000  1
  Ba  Ba1  1  0.74904200  0.10163200  0.25000000  1
  Ba  Ba2  1  0.35259100  0.25095000  0.25000000  1
  Ba  Ba3  1  0.10163600  0.35257800  0.75000000  1
  Ba  Ba4  1  0.25095800  0.89836800  0.75000000  1
  Ba  Ba5  1  0.64740900  0.74905000  0.75000000  1
  Zr  Zr0  1  0.66667000  0.33333700  0.75000000  1
  Zr  Zr1  1  0.33333000  0.66666300  0.25000000  1
  N  N0  1  0.86600000  0.60504400  0.75000000  1
  N  N1  1  0.73903300  0.13400500  0.75000000  1
  N  N2  1  0.39496500  0.26096300  0.75000000  1
  N  N3  1  0.13400000  0.39495600  0.25000000  1
  N  N4  1  0.26096700  0.86599500  0.25000000  1
  N  N5  1  0.60503500  0.73903700  0.25000000  1
loop_
_geom_bond_atom_site_label_1
_geom_bond_atom_site_label_2
_geom_bond_distance
_geom_bond_site_symmetry_2
Ba0 N4 2.688542 1_655
Ba0 N0 2.949945 1_554
Ba0 N0 2.949945 1_555
Ba0 N5 2.961213 1_555
Ba1 N5 2.688506 1_545
Ba1 N1 2.949950 1_555
Ba1 N1 2.949950 1_554
Ba1 N3 2.961228 1_655
Ba2 N3 2.688564 1_555
Ba2 N2 2.949942 1_554
Ba2 N2 2.949942 1_555
Ba2 N4 2.961250 1_545
Ba3 N1 2.688542 1_455
Ba3 N3 2.949945 1_556
Ba3 N3 2.949945 1_555
Ba3 N2 2.961213 1_555
Ba4 N2 2.688506 1_565
Ba4 N4 2.949950 1_555
Ba4 N4 2.949950 1_556
Ba4 N0 2.961228 1_455
Ba5 N0 2.688564 1_555
Ba5 N5 2.949942 1_555
Ba5 N5 2.949942 1_556
Ba5 N1 2.961250 1_565
N0 Zr0 2.072051 1_555
N1 Zr0 2.072022 1_555
N2 Zr0 2.072066 1_555
N3 Zr1 2.072051 1_555
N4 Zr1 2.072022 1_555
N5 Zr1 2.072066 1_555
