# generated using pymatgen
data_Cs3SbH2S4O
_symmetry_space_group_name_H-M   'P 1'
_cell_length_a   10.20640700
_cell_length_b   10.02653500
_cell_length_c   16.32698253
_cell_angle_alpha   53.76555212
_cell_angle_beta   90.00000000
_cell_angle_gamma   90.00000000
_symmetry_Int_Tables_number   1
_chemical_formula_structural   Cs3SbH2S4O
_chemical_formula_sum   'Cs12 Sb4 H8 S16 O4'
_cell_volume   1347.69195572
_cell_formula_units_Z   4
loop_
 _symmetry_equiv_pos_site_id
 _symmetry_equiv_pos_as_xyz
  1  'x, y, z'
loop_
 _atom_site_type_symbol
 _atom_site_label
 _atom_site_symmetry_multiplicity
 _atom_site_fract_x
 _atom_site_fract_y
 _atom_site_fract_z
 _atom_site_occupancy
  Cs  Cs0  1  0.36891300  0.89865500  0.20348700  1
  Cs  Cs1  1  0.86891300  0.10134500  0.29651300  1
  Cs  Cs2  1  0.63108700  0.10134500  0.79651300  1
  Cs  Cs3  1  0.13108700  0.89865500  0.70348700  1
  Cs  Cs4  1  0.07835400  0.71601900  0.04680400  1
  Cs  Cs5  1  0.57835400  0.28398100  0.45319600  1
  Cs  Cs6  1  0.92164600  0.28398100  0.95319600  1
  Cs  Cs7  1  0.42164600  0.71601900  0.54680400  1
  Cs  Cs8  1  0.08355700  0.42349500  0.42054600  1
  Cs  Cs9  1  0.58355700  0.57650500  0.07945400  1
  Cs  Cs10  1  0.91644300  0.57650500  0.57945400  1
  Cs  Cs11  1  0.41644300  0.42349500  0.92054600  1
  Sb  Sb0  1  0.29194800  0.24778600  0.27450500  1
  Sb  Sb1  1  0.79194800  0.75221400  0.22549500  1
  Sb  Sb2  1  0.70805200  0.75221400  0.72549500  1
  Sb  Sb3  1  0.20805200  0.24778600  0.77450500  1
  H  H0  1  0.15570800  0.87073900  0.40662700  1
  H  H1  1  0.65570800  0.12926100  0.09337300  1
  H  H2  1  0.84429200  0.12926100  0.59337300  1
  H  H3  1  0.34429200  0.87073900  0.90662700  1
  H  H4  1  0.09755400  0.81445100  0.34182500  1
  H  H5  1  0.59755400  0.18554900  0.15817500  1
  H  H6  1  0.90244600  0.18554900  0.65817500  1
  H  H7  1  0.40244600  0.81445100  0.84182500  1
  S  S0  1  0.66946300  0.92849100  0.07418900  1
  S  S1  1  0.16946300  0.07150900  0.42581100  1
  S  S2  1  0.33053700  0.07150900  0.92581100  1
  S  S3  1  0.83053700  0.92849100  0.57418900  1
  S  S4  1  0.99836500  0.88004700  0.19975800  1
  S  S5  1  0.49836500  0.11995300  0.30024200  1
  S  S6  1  0.00163500  0.11995300  0.80024200  1
  S  S7  1  0.50163500  0.88004700  0.69975800  1
  S  S8  1  0.32685600  0.50370500  0.24841000  1
  S  S9  1  0.82685600  0.49629500  0.25159000  1
  S  S10  1  0.67314400  0.49629500  0.75159000  1
  S  S11  1  0.17314400  0.50370500  0.74841000  1
  S  S12  1  0.18312300  0.28387400  0.13586300  1
  S  S13  1  0.68312300  0.71612600  0.36413700  1
  S  S14  1  0.81687700  0.71612600  0.86413700  1
  S  S15  1  0.31687700  0.28387400  0.63586300  1
  O  O0  1  0.14904500  0.77384900  0.40409000  1
  O  O1  1  0.64904500  0.22615100  0.09591000  1
  O  O2  1  0.85095500  0.22615100  0.59591000  1
  O  O3  1  0.35095500  0.77384900  0.90409000  1
loop_
_geom_bond_atom_site_label_1
_geom_bond_atom_site_label_2
_geom_bond_distance
_geom_bond_site_symmetry_2
Cs0 H4 3.351213 1_555
Cs0 H5 3.428087 1_565
Cs0 H1 3.497476 1_565
Cs0 O0 3.533232 1_555
Cs0 S8 3.601394 1_555
Cs0 S0 3.634447 1_555
Cs0 S5 3.648043 1_565
Cs0 S4 3.788825 1_455
Cs0 S2 3.797630 1_564
Cs0 S12 3.832966 1_565
Cs0 S13 3.852126 1_555
Cs1 H5 3.351213 1_555
Cs1 H4 3.428087 1_645
Cs1 H0 3.497476 1_645
Cs1 O1 3.533232 1_555
Cs1 S9 3.601394 1_555
Cs1 S1 3.634447 1_655
Cs1 S4 3.648043 1_545
Cs1 S5 3.788825 1_555
Cs1 S3 3.797630 1_545
Cs1 S13 3.832966 1_545
Cs1 S12 3.852126 1_655
Cs2 H6 3.351213 1_555
Cs2 H7 3.428087 1_545
Cs2 H3 3.497476 1_545
Cs2 O2 3.533232 1_555
Cs2 S10 3.601394 1_555
Cs2 S2 3.634447 1_555
Cs2 S7 3.648043 1_545
Cs2 S6 3.788825 1_655
Cs2 S0 3.797630 1_546
Cs2 S14 3.832966 1_545
Cs2 S15 3.852126 1_555
Cs3 H7 3.351213 1_555
Cs3 H6 3.428087 1_465
Cs3 H2 3.497476 1_465
Cs3 O3 3.533232 1_555
Cs3 S11 3.601394 1_555
Cs3 S3 3.634447 1_455
Cs3 S6 3.648043 1_565
Cs3 S7 3.788825 1_555
Cs3 S1 3.797630 1_565
Cs3 S15 3.832966 1_565
Cs3 S14 3.852126 1_455
Cs4 H3 3.288552 1_554
Cs4 O3 3.450997 1_554
Cs4 S8 3.676361 1_555
Cs4 S9 3.730105 1_455
Cs4 S6 3.734624 1_564
Cs4 S4 3.803033 1_455
Cs4 S12 3.818869 1_555
Cs4 S2 3.861064 1_564
Cs4 S14 4.001638 1_454
Cs5 H2 3.288552 1_555
Cs5 O2 3.450997 1_555
Cs5 S9 3.676361 1_555
Cs5 S8 3.730105 1_555
Cs5 S7 3.734624 1_545
Cs5 S5 3.803033 1_555
Cs5 S13 3.818869 1_555
Cs5 S3 3.861064 1_545
Cs5 S15 4.001638 1_555
Cs6 H1 3.288552 1_556
Cs6 O1 3.450997 1_556
Cs6 S10 3.676361 1_555
Cs6 S11 3.730105 1_655
Cs6 S4 3.734624 1_546
Cs6 S6 3.803033 1_655
Cs6 S14 3.818869 1_555
Cs6 S0 3.861064 1_546
Cs6 S12 4.001638 1_656
Cs7 H0 3.288552 1_555
Cs7 O0 3.450997 1_555
Cs7 S11 3.676361 1_555
Cs7 S10 3.730105 1_555
Cs7 S5 3.734624 1_565
Cs7 S7 3.803033 1_555
Cs7 S15 3.818869 1_555
Cs7 S1 3.861064 1_565
Cs7 S13 4.001638 1_555
Cs8 O2 3.324381 1_455
Cs8 H4 3.328988 1_555
Cs8 O0 3.426835 1_555
Cs8 S8 3.469838 1_555
Cs8 S9 3.553357 1_455
Cs8 S1 3.587863 1_555
Cs8 S15 3.764473 1_555
Cs9 O3 3.324381 1_554
Cs9 H5 3.328988 1_555
Cs9 O1 3.426835 1_555
Cs9 S9 3.469838 1_555
Cs9 S8 3.553357 1_555
Cs9 S0 3.587863 1_555
Cs9 S14 3.764473 1_554
Cs10 O0 3.324381 1_655
Cs10 H6 3.328988 1_555
Cs10 O2 3.426835 1_555
Cs10 S10 3.469838 1_555
Cs10 S11 3.553357 1_655
Cs10 S3 3.587863 1_555
Cs10 S13 3.764473 1_555
Cs11 O1 3.324381 1_556
Cs11 H7 3.328988 1_555
Cs11 O3 3.426835 1_555
Cs11 S11 3.469838 1_555
Cs11 S10 3.553357 1_555
Cs11 S2 3.587863 1_555
Cs11 S12 3.764473 1_556
H0 O0 0.998833 1_555
H1 O1 0.998833 1_555
H2 O2 0.998833 1_555
H3 O3 0.998833 1_555
H4 O0 0.993047 1_555
H5 O1 0.993047 1_555
H6 O2 0.993047 1_555
H7 O3 0.993047 1_555
S0 Sb1 2.372284 1_555
S1 Sb0 2.372284 1_555
S2 Sb3 2.372284 1_555
S3 Sb2 2.372284 1_555
S4 Sb1 2.370903 1_555
S5 Sb0 2.370903 1_555
S6 Sb3 2.370903 1_555
S7 Sb2 2.370903 1_555
S8 Sb0 2.366497 1_555
S9 Sb1 2.366497 1_555
S10 Sb2 2.366497 1_555
S11 Sb3 2.366497 1_555
S12 Sb0 2.349520 1_555
S13 Sb1 2.349520 1_555
S14 Sb2 2.349520 1_555
S15 Sb3 2.349520 1_555
