# generated using pymatgen
data_CsB3PbF12
_symmetry_space_group_name_H-M   'P 1'
_cell_length_a   6.89184753
_cell_length_b   6.89184753
_cell_length_c   6.86533596
_cell_angle_alpha   89.17141181
_cell_angle_beta   89.17141181
_cell_angle_gamma   94.56275544
_symmetry_Int_Tables_number   1
_chemical_formula_structural   CsB3PbF12
_chemical_formula_sum   'Cs1 B3 Pb1 F12'
_cell_volume   324.97942966
_cell_formula_units_Z   1
loop_
 _symmetry_equiv_pos_site_id
 _symmetry_equiv_pos_as_xyz
  1  'x, y, z'
loop_
 _atom_site_type_symbol
 _atom_site_label
 _atom_site_symmetry_multiplicity
 _atom_site_fract_x
 _atom_site_fract_y
 _atom_site_fract_z
 _atom_site_occupancy
  Cs  Cs0  1  0.52150200  0.52150200  0.40927400  1
  B  B0  1  0.99178200  0.99178200  0.48783500  1
  B  B1  1  0.49354500  0.02275800  0.02031800  1
  B  B2  1  0.02275800  0.49354500  0.02031800  1
  Pb  Pb0  1  0.95152500  0.95152500  0.93489000  1
  F  F0  1  0.16278300  0.93643600  0.57880000  1
  F  F1  1  0.93643600  0.16278300  0.57880000  1
  F  F2  1  0.84123400  0.84123400  0.51900600  1
  F  F3  1  0.02761700  0.02761700  0.28591600  1
  F  F4  1  0.61761700  0.89830200  0.12415600  1
  F  F5  1  0.47682200  0.19315200  0.12225400  1
  F  F6  1  0.30763100  0.91803500  0.00181400  1
  F  F7  1  0.58052800  0.05873100  0.83418100  1
  F  F8  1  0.19315200  0.47682200  0.12225400  1
  F  F9  1  0.89830200  0.61761700  0.12415600  1
  F  F10  1  0.91803500  0.30763100  0.00181400  1
  F  F11  1  0.05873100  0.58052800  0.83418100  1
loop_
_geom_bond_atom_site_label_1
_geom_bond_atom_site_label_2
_geom_bond_distance
_geom_bond_site_symmetry_2
Cs0 F5 3.022281 1_555
Cs0 F8 3.022281 1_555
Cs0 F2 3.098747 1_555
Cs0 F9 3.248960 1_555
Cs0 F4 3.248960 1_555
B0 F1 1.417854 1_565
B0 F0 1.417854 1_655
B0 F3 1.419206 1_665
B0 F2 1.419406 1_555
B1 F5 1.387464 1_555
B1 F7 1.413817 1_554
B1 F6 1.427927 1_545
B1 F4 1.446275 1_545
B2 F8 1.387464 1_555
B2 F11 1.413817 1_554
B2 F10 1.427927 1_455
B2 F9 1.446275 1_455
F3 Pb0 2.527260 1_444
F4 Pb0 2.623752 1_554
F6 Pb0 2.531260 1_454
F9 Pb0 2.623752 1_554
F10 Pb0 2.531260 1_544
