# generated using pymatgen
data_NiPRh
_symmetry_space_group_name_H-M   'P 1'
_cell_length_a   5.96639643
_cell_length_b   5.96639643
_cell_length_c   3.54476000
_cell_angle_alpha   90.00000000
_cell_angle_beta   90.00000000
_cell_angle_gamma   120.00000475
_symmetry_Int_Tables_number   1
_chemical_formula_structural   NiPRh
_chemical_formula_sum   'Ni3 P3 Rh3'
_cell_volume   109.28024484
_cell_formula_units_Z   3
loop_
 _symmetry_equiv_pos_site_id
 _symmetry_equiv_pos_as_xyz
  1  'x, y, z'
loop_
 _atom_site_type_symbol
 _atom_site_label
 _atom_site_symmetry_multiplicity
 _atom_site_fract_x
 _atom_site_fract_y
 _atom_site_fract_z
 _atom_site_occupancy
  Ni  Ni0  1  0.74179000  0.74179000  0.00000000  1
  Ni  Ni1  1  0.25821000  0.00000000  0.00000000  1
  Ni  Ni2  1  0.00000000  0.25821000  0.00000000  1
  P  P0  1  0.66666700  0.33333300  0.00000000  1
  P  P1  1  0.33333300  0.66666700  0.00000000  1
  P  P2  1  0.00000000  0.00000000  0.50000000  1
  Rh  Rh0  1  0.39305300  0.39305300  0.50000000  1
  Rh  Rh1  1  0.60694700  0.00000000  0.50000000  1
  Rh  Rh2  1  0.00000000  0.60694700  0.50000000  1
loop_
_geom_bond_atom_site_label_1
_geom_bond_atom_site_label_2
_geom_bond_distance
_geom_bond_site_symmetry_2
Ni0 P0 2.246695 1_555
Ni0 P1 2.246695 1_555
Ni0 P2 2.348346 1_664
Ni0 P2 2.348346 1_665
Ni0 Rh2 2.720557 1_655
Ni0 Rh2 2.720557 1_654
Ni0 Rh1 2.720557 1_564
Ni0 Rh1 2.720557 1_565
Ni0 Rh0 2.733250 1_554
Ni0 Rh0 2.733250 1_555
Ni1 P1 2.246690 1_545
Ni1 P0 2.246693 1_555
Ni1 P2 2.348346 1_554
Ni1 P2 2.348346 1_555
Ni1 Rh2 2.720557 1_544
Ni1 Rh2 2.720557 1_545
Ni1 Rh0 2.720557 1_554
Ni1 Rh0 2.720557 1_555
Ni1 Rh1 2.733250 1_555
Ni1 Rh1 2.733250 1_554
Ni2 P0 2.246690 1_455
Ni2 P1 2.246693 1_555
Ni2 P2 2.348346 1_554
Ni2 P2 2.348346 1_555
Ni2 Rh1 2.720557 1_455
Ni2 Rh1 2.720557 1_454
Ni2 Rh0 2.720557 1_554
Ni2 Rh0 2.720557 1_555
Ni2 Rh2 2.733250 1_555
Ni2 Rh2 2.733250 1_554
P0 Rh1 2.552444 1_555
P0 Rh1 2.552444 1_554
P0 Rh2 2.552445 1_655
P0 Rh2 2.552445 1_654
P0 Rh0 2.552448 1_554
P0 Rh0 2.552448 1_555
P1 Rh2 2.552444 1_554
P1 Rh2 2.552444 1_555
P1 Rh1 2.552445 1_565
P1 Rh1 2.552445 1_564
P1 Rh0 2.552448 1_554
P1 Rh0 2.552448 1_555
P2 Rh0 2.345110 1_555
P2 Rh2 2.345110 1_545
P2 Rh1 2.345110 1_455
