# generated using pymatgen
data_MgFe6Sb10(IO3)6
_symmetry_space_group_name_H-M   'P 1'
_cell_length_a   7.91934717
_cell_length_b   9.35748480
_cell_length_c   12.44304970
_cell_angle_alpha   81.11731899
_cell_angle_beta   85.01631435
_cell_angle_gamma   73.98591903
_symmetry_Int_Tables_number   1
_chemical_formula_structural   MgFe6Sb10(IO3)6
_chemical_formula_sum   'Mg1 Fe6 Sb10 I6 O18'
_cell_volume   874.72940715
_cell_formula_units_Z   1
loop_
 _symmetry_equiv_pos_site_id
 _symmetry_equiv_pos_as_xyz
  1  'x, y, z'
loop_
 _atom_site_type_symbol
 _atom_site_label
 _atom_site_symmetry_multiplicity
 _atom_site_fract_x
 _atom_site_fract_y
 _atom_site_fract_z
 _atom_site_occupancy
  Mg  Mg0  1  0.50000000  -0.00000000  0.50000000  1
  Fe  Fe0  1  0.77152068  0.97519970  0.32783212  1
  Fe  Fe1  1  0.22847932  0.02480030  0.67216788  1
  Fe  Fe2  1  0.03500064  0.95051070  0.12394748  1
  Fe  Fe3  1  0.96499936  0.04948930  0.87605252  1
  Fe  Fe4  1  0.62248810  0.08687361  0.05718120  1
  Fe  Fe5  1  0.37751190  0.91312639  0.94281880  1
  Sb  Sb0  1  0.89899743  0.18841263  0.50281737  1
  Sb  Sb1  1  0.10100257  0.81158737  0.49718263  1
  Sb  Sb2  1  0.22505700  0.18418647  0.25115256  1
  Sb  Sb3  1  0.77494300  0.81581353  0.74884744  1
  Sb  Sb4  1  0.54717846  0.18877995  0.73689528  1
  Sb  Sb5  1  0.45282154  0.81122005  0.26310472  1
  Sb  Sb6  1  0.21459160  0.26244794  0.97433163  1
  Sb  Sb7  1  0.78540840  0.73755206  0.02566837  1
  Sb  Sb8  1  0.79015297  0.31442430  0.20243217  1
  Sb  Sb9  1  0.20984703  0.68557570  0.79756783  1
  I  I0  1  0.72301278  0.34360029  0.93320368  1
  I  I1  1  0.27698722  0.65639971  0.06679632  1
  I  I2  1  0.90110537  0.67583505  0.29648251  1
  I  I3  1  0.09889463  0.32416495  0.70351749  1
  I  I4  1  0.47546129  0.31941092  0.41474009  1
  I  I5  1  0.52453871  0.68058908  0.58525991  1
  O  O0  1  0.14292305  0.06833757  0.98387932  1
  O  O1  1  0.85707695  0.93166243  0.01612068  1
  O  O2  1  0.84935830  0.97452805  0.47846081  1
  O  O3  1  0.15064170  0.02547195  0.52153919  1
  O  O4  1  0.78930406  0.10323297  0.18452775  1
  O  O5  1  0.21069594  0.89676603  0.81547225  1
  O  O6  1  0.44449565  0.12720747  0.89124413  1
  O  O7  1  0.55550435  0.87279253  0.10875587  1
  O  O8  1  0.78693162  0.03006425  0.77145786  1
  O  O9  1  0.21306838  0.96993575  0.22854214  1
  O  O10  1  0.48610737  0.03503651  0.65986624  1
  O  O11  1  0.51389263  0.96496349  0.34013376  1
  O  O12  1  0.03993450  0.28505751  0.13599464  1
  O  O13  1  0.96006550  0.71494249  0.86400536  1
  O  O14  1  0.06188515  0.77729536  0.66324781  1
  O  O15  1  0.93811485  0.22270464  0.33675219  1
  O  O16  1  0.62414731  0.80439647  0.89775775  1
  O  O17  1  0.37585269  0.19560353  0.10224225  1
loop_
_geom_bond_atom_site_label_1
_geom_bond_atom_site_label_2
_geom_bond_distance
_geom_bond_site_symmetry_2
Mg0 O11 2.054284 1_545
Mg0 O10 2.054284 1_555
Mg0 O3 2.703749 1_555
Mg0 O2 2.703749 1_545
Fe0 O4 2.006120 1_565
Fe0 O2 2.021856 1_555
Fe0 O11 2.060157 1_555
Fe0 I2 2.781071 1_555
Fe1 O5 2.006125 1_545
Fe1 O3 2.021856 1_555
Fe1 O10 2.060157 1_555
Fe1 I3 2.781071 1_555
Fe2 O9 2.061274 1_555
Fe2 O1 2.086936 1_455
Fe2 O0 2.156712 1_564
Fe2 O4 2.222639 1_465
Fe2 I1 3.034818 1_555
Fe3 O8 2.061274 1_555
Fe3 O0 2.086936 1_655
Fe3 O1 2.156712 1_546
Fe3 O5 2.222643 1_645
Fe3 I0 3.034818 1_555
Fe4 O17 2.013444 1_555
Fe4 O1 2.096988 1_545
Fe4 O4 2.197672 1_555
Fe4 O7 2.199191 1_545
Fe4 O6 2.522717 1_554
Fe4 I0 2.912389 1_554
Fe5 O16 2.013444 1_555
Fe5 O0 2.096988 1_565
Fe5 O5 2.197675 1_555
Fe5 O6 2.199191 1_565
Fe5 O7 2.522717 1_556
Fe5 I1 2.912389 1_556
I4 Mg0 2.972000 1_555
I5 Mg0 2.972000 1_565
O0 Sb6 2.031244 1_555
O1 Sb7 2.031244 1_555
O2 Sb1 2.155220 1_655
O2 Sb0 2.212284 1_565
O3 Sb0 2.155220 1_455
O3 Sb1 2.212284 1_545
O4 Sb8 2.024520 1_555
O5 Sb9 2.024510 1_555
O6 Sb4 2.080203 1_555
O6 Sb6 2.188841 1_555
O7 Sb5 2.080203 1_555
O7 Sb7 2.188841 1_555
O8 Sb4 2.093916 1_555
O8 Sb3 2.095576 1_545
O9 Sb5 2.093916 1_555
O9 Sb2 2.095576 1_565
O10 Sb4 2.027952 1_555
O11 Sb5 2.027952 1_555
O12 Sb8 2.039104 1_455
O12 Sb2 2.068159 1_555
O12 Sb6 2.343274 1_554
O13 Sb9 2.039104 1_655
O13 Sb3 2.068159 1_555
O13 Sb7 2.343274 1_556
O14 Sb1 2.051250 1_555
O14 Sb9 2.060448 1_555
O14 Sb3 2.382078 1_455
O15 Sb0 2.051250 1_555
O15 Sb8 2.060448 1_555
O15 Sb2 2.382078 1_655
O16 Sb7 2.039690 1_556
O16 Sb3 2.120278 1_555
O17 Sb6 2.039690 1_554
O17 Sb2 2.120278 1_555
