# generated using pymatgen
data_Mg2Si
_symmetry_space_group_name_H-M   'P 1'
_cell_length_a   5.96411000
_cell_length_b   6.03104300
_cell_length_c   7.63054751
_cell_angle_alpha   66.95852602
_cell_angle_beta   90.00000000
_cell_angle_gamma   90.00000000
_symmetry_Int_Tables_number   1
_chemical_formula_structural   Mg2Si
_chemical_formula_sum   'Mg8 Si4'
_cell_volume   252.57262491
_cell_formula_units_Z   4
loop_
 _symmetry_equiv_pos_site_id
 _symmetry_equiv_pos_as_xyz
  1  'x, y, z'
loop_
 _atom_site_type_symbol
 _atom_site_label
 _atom_site_symmetry_multiplicity
 _atom_site_fract_x
 _atom_site_fract_y
 _atom_site_fract_z
 _atom_site_occupancy
  Mg  Mg0  1  0.17184800  0.81673100  0.85528700  1
  Mg  Mg1  1  0.70833300  0.58155600  0.43364600  1
  Mg  Mg2  1  0.20833300  0.41844400  0.56635400  1
  Mg  Mg3  1  0.67579000  0.75321300  0.00285200  1
  Mg  Mg4  1  0.67184800  0.18326900  0.14471300  1
  Mg  Mg5  1  0.59060900  0.98542500  0.58079300  1
  Mg  Mg6  1  0.09060900  0.01457500  0.41920700  1
  Mg  Mg7  1  0.17579000  0.24678700  0.99714800  1
  Si  Si0  1  0.82414200  0.20956500  0.77789800  1
  Si  Si1  1  0.02872300  0.49911300  0.20489900  1
  Si  Si2  1  0.52872300  0.50088700  0.79510100  1
  Si  Si3  1  0.32414200  0.79043500  0.22210200  1
loop_
_geom_bond_atom_site_label_1
_geom_bond_atom_site_label_2
_geom_bond_distance
_geom_bond_site_symmetry_2
Mg0 Si1 2.741276 1_556
Mg0 Si3 2.887399 1_556
Mg0 Si2 3.009070 1_555
Mg0 Si0 3.027723 1_465
Mg1 Si1 2.761260 1_655
Mg1 Si0 2.792372 1_555
Mg1 Si3 2.801987 1_555
Mg1 Si2 2.817961 1_555
Mg2 Si2 2.761260 1_555
Mg2 Si3 2.792372 1_555
Mg2 Si0 2.801987 1_455
Mg2 Si1 2.817961 1_555
Mg3 Si1 2.703089 1_655
Mg3 Si2 2.736174 1_554
Mg3 Si3 2.746241 1_555
Mg3 Si0 2.757923 1_564
Mg4 Si2 2.741276 1_554
Mg4 Si0 2.887399 1_554
Mg4 Si1 3.009070 1_655
Mg4 Si3 3.027723 1_545
Mg5 Si2 2.758491 1_555
Mg5 Si0 2.760596 1_565
Mg6 Si1 2.758491 1_555
Mg6 Si3 2.760596 1_545
Mg7 Si2 2.703089 1_555
Mg7 Si1 2.736174 1_556
Mg7 Si0 2.746241 1_455
Mg7 Si3 2.757923 1_546
Si0 Si2 2.527660 1_555
Si1 Si3 2.527660 1_555
