# generated using pymatgen
data_Si
_symmetry_space_group_name_H-M   'P 1'
_cell_length_a   3.97462300
_cell_length_b   5.45513699
_cell_length_c   9.01450197
_cell_angle_alpha   106.17302309
_cell_angle_beta   89.29697547
_cell_angle_gamma   111.23949568
_symmetry_Int_Tables_number   1
_chemical_formula_structural   Si
_chemical_formula_sum   Si8
_cell_volume   174.10769029
_cell_formula_units_Z   8
loop_
 _symmetry_equiv_pos_site_id
 _symmetry_equiv_pos_as_xyz
  1  'x, y, z'
loop_
 _atom_site_type_symbol
 _atom_site_label
 _atom_site_symmetry_multiplicity
 _atom_site_fract_x
 _atom_site_fract_y
 _atom_site_fract_z
 _atom_site_occupancy
  Si  Si0  1  0.09474000  0.82765500  0.91766700  1
  Si  Si1  1  0.00072400  0.21100200  0.94028900  1
  Si  Si2  1  0.56659500  0.00363400  0.75928200  1
  Si  Si3  1  0.12570700  0.36170500  0.37154100  1
  Si  Si4  1  0.84100800  0.06950100  0.19835500  1
  Si  Si5  1  0.28671500  0.84225300  0.31767000  1
  Si  Si6  1  0.56787400  0.13266900  0.48867800  1
  Si  Si7  1  0.50925300  0.56641800  0.99990800  1
loop_
_geom_bond_atom_site_label_1
_geom_bond_atom_site_label_2
_geom_bond_distance
_geom_bond_site_symmetry_2
Si0 Si1 2.209327 1_565
Si0 Si2 2.422966 1_565
Si0 Si7 2.477756 1_455
Si0 Si7 2.759436 1_555
Si0 Si4 2.863841 1_466
Si1 Si2 2.132139 1_455
Si1 Si7 2.177179 1_555
Si1 Si4 2.649481 1_456
Si2 Si6 2.720226 1_555
Si3 Si4 1.899683 1_455
Si3 Si6 2.502464 1_455
Si3 Si5 2.646406 1_555
Si3 Si6 2.852384 1_555
Si4 Si5 2.500626 1_545
Si4 Si7 2.677979 1_544
Si4 Si5 2.865759 1_645
Si5 Si6 1.879924 1_565
