# generated using pymatgen
data_Li7Mn2(CoO4)3
_symmetry_space_group_name_H-M   'P 1'
_cell_length_a   2.98373100
_cell_length_b   5.07055333
_cell_length_c   14.37984423
_cell_angle_alpha   87.66981421
_cell_angle_beta   88.34285111
_cell_angle_gamma   89.22627408
_symmetry_Int_Tables_number   1
_chemical_formula_structural   Li7Mn2(CoO4)3
_chemical_formula_sum   'Li7 Mn2 Co3 O12'
_cell_volume   217.26770724
_cell_formula_units_Z   1
loop_
 _symmetry_equiv_pos_site_id
 _symmetry_equiv_pos_as_xyz
  1  'x, y, z'
loop_
 _atom_site_type_symbol
 _atom_site_label
 _atom_site_symmetry_multiplicity
 _atom_site_fract_x
 _atom_site_fract_y
 _atom_site_fract_z
 _atom_site_occupancy
  Li  Li0  1  0.00389700  0.33918200  0.17214700  1
  Li  Li1  1  0.50922300  0.18543200  0.33462600  1
  Li  Li2  1  0.99191300  0.99609600  0.50058400  1
  Li  Li3  1  0.49710900  0.83307300  0.66551400  1
  Li  Li4  1  0.99906800  0.66772500  0.83220400  1
  Li  Li5  1  0.49589300  0.49361900  0.99698800  1
  Li  Li6  1  0.98830000  0.65067900  0.33170900  1
  Mn  Mn0  1  0.00471800  0.00490100  0.00012400  1
  Mn  Mn1  1  0.50705700  0.82570100  0.17345800  1
  Co  Co0  1  0.49638100  0.50318100  0.49313400  1
  Co  Co1  1  0.99584300  0.33767700  0.66405900  1
  Co  Co2  1  0.49606700  0.17030200  0.83050100  1
  O  O0  1  0.54465300  0.14558400  0.08330400  1
  O  O1  1  0.99255000  0.97660500  0.24150000  1
  O  O2  1  0.49905700  0.79718800  0.42820400  1
  O  O3  1  0.03426200  0.64574900  0.58324400  1
  O  O4  1  0.49378800  0.48290600  0.75033700  1
  O  O5  1  0.98758300  0.31902700  0.91530200  1
  O  O6  1  0.49436600  0.51738300  0.24422900  1
  O  O7  1  0.96868500  0.33845700  0.42423900  1
  O  O8  1  0.50673200  0.19973100  0.58126400  1
  O  O9  1  0.00516900  0.02092400  0.74748200  1
  O  O10  1  0.46527700  0.85271500  0.91495200  1
  O  O11  1  0.02240900  0.69616200  0.09089400  1
loop_
_geom_bond_atom_site_label_1
_geom_bond_atom_site_label_2
_geom_bond_distance
_geom_bond_site_symmetry_2
Li0 O6 2.037175 1_455
Li0 O1 2.055801 1_445
Li0 O6 2.057199 1_555
Li0 O11 2.114622 1_555
Li0 O0 2.170929 1_455
Li0 O0 2.266944 1_555
Li1 O6 2.085227 1_555
Li1 O7 2.086673 1_555
Li1 O7 2.188856 1_455
Li1 O1 2.226334 1_545
Li1 O2 2.339003 1_545
Li1 O1 2.360054 1_445
Li2 O7 2.017367 1_565
Li2 O2 2.084055 1_655
Li2 O3 2.101317 1_655
Li2 O8 2.113698 1_565
Li2 O2 2.115885 1_555
Li2 O8 2.239418 1_665
Li3 O9 2.098698 1_565
Li3 O3 2.104812 1_555
Li3 O4 2.112837 1_555
Li3 O8 2.177454 1_565
Li3 O3 2.193412 1_655
Li3 O9 2.197318 1_665
Li4 O5 2.093481 1_555
Li4 O4 2.096390 1_655
Li4 O10 2.110082 1_655
Li4 O9 2.124644 1_665
Li4 O4 2.183469 1_555
Li4 O10 2.184760 1_555
Li5 O5 2.065330 1_555
Li5 O0 2.121659 1_556
Li5 O10 2.131291 1_555
Li5 O5 2.165085 1_455
Li5 O11 2.199387 1_556
Li5 O11 2.371754 1_656
Li6 O7 2.026541 1_555
Li6 O1 2.058963 1_555
Li6 O6 2.061787 1_655
Li6 O6 2.101073 1_555
Li6 O2 2.132034 1_555
Li6 O2 2.244197 1_655
Mn0 O0 1.942126 1_455
Mn0 O5 1.967426 1_454
Mn0 O10 1.983623 1_544
Mn0 O11 1.998199 1_545
Mn0 O0 2.178716 1_555
Mn0 O10 2.215978 1_444
Mn1 O6 1.830611 1_555
Mn1 O1 1.952943 1_555
Mn1 O1 1.960046 1_455
Mn1 O11 2.029892 1_555
Mn1 O11 2.033714 1_655
Mn1 O0 2.037053 1_565
Co0 O2 1.726544 1_555
Co0 O7 1.902574 1_555
Co0 O8 1.953685 1_555
Co0 O3 2.012140 1_555
Co0 O7 2.085952 1_455
Co0 O3 2.237198 1_655
Co1 O3 1.911359 1_655
Co1 O9 1.965576 1_655
Co1 O8 2.040672 1_655
Co1 O8 2.057251 1_555
Co1 O4 2.064588 1_555
Co1 O4 2.121173 1_655
Co2 O4 1.921696 1_555
Co2 O10 1.978613 1_545
Co2 O9 2.060064 1_655
Co2 O5 2.072293 1_455
Co2 O9 2.085389 1_555
Co2 O5 2.101082 1_555
