# generated using pymatgen
data_Ba3P14
_symmetry_space_group_name_H-M   'P 1'
_cell_length_a   6.56781358
_cell_length_b   10.28456188
_cell_length_c   13.14794491
_cell_angle_alpha   90.00000000
_cell_angle_beta   90.00000000
_cell_angle_gamma   90.75410398
_symmetry_Int_Tables_number   1
_chemical_formula_structural   Ba3P14
_chemical_formula_sum   'Ba6 P28'
_cell_volume   888.02843436
_cell_formula_units_Z   2
loop_
 _symmetry_equiv_pos_site_id
 _symmetry_equiv_pos_as_xyz
  1  'x, y, z'
loop_
 _atom_site_type_symbol
 _atom_site_label
 _atom_site_symmetry_multiplicity
 _atom_site_fract_x
 _atom_site_fract_y
 _atom_site_fract_z
 _atom_site_occupancy
  Ba  Ba0  1  0.20647558  0.38480606  0.34986179  1
  Ba  Ba1  1  0.29352442  0.11519394  0.84986179  1
  Ba  Ba2  1  0.79352442  0.61519394  0.65013821  1
  Ba  Ba3  1  0.70647558  0.88480606  0.15013821  1
  Ba  Ba4  1  0.00000000  -0.00000000  0.50000000  1
  Ba  Ba5  1  0.50000000  0.50000000  0.00000000  1
  P  P0  1  0.09292656  0.15138074  0.15146152  1
  P  P1  1  0.40707344  0.34861826  0.65146252  1
  P  P2  1  0.90707344  0.84861826  0.84853748  1
  P  P3  1  0.59292656  0.65138174  0.34853848  1
  P  P4  1  0.59705402  0.31206247  0.51176045  1
  P  P5  1  0.90294598  0.18793753  0.01176045  1
  P  P6  1  0.33339792  0.94605498  0.31716250  1
  P  P7  1  0.16660208  0.55394502  0.81716250  1
  P  P8  1  0.66660208  0.05394502  0.68283750  1
  P  P9  1  0.83339792  0.44605498  0.18283750  1
  P  P10  1  0.55654315  0.85641709  0.41243988  1
  P  P11  1  0.94345685  0.64358291  0.91243988  1
  P  P12  1  0.44345685  0.14358291  0.58756012  1
  P  P13  1  0.05654315  0.35641709  0.08756012  1
  P  P14  1  0.14538783  0.77349119  0.28549098  1
  P  P15  1  0.35461217  0.72650881  0.78549098  1
  P  P16  1  0.85461217  0.22650881  0.71450902  1
  P  P17  1  0.64538783  0.27349119  0.21450902  1
  P  P18  1  0.09296611  0.68650249  0.43617704  1
  P  P19  1  0.40703389  0.81349751  0.93617704  1
  P  P20  1  0.90703389  0.31349751  0.56382296  1
  P  P21  1  0.59296611  0.18650249  0.06382296  1
  P  P22  1  0.37790746  0.64410494  0.22494426  1
  P  P23  1  0.12209254  0.85589506  0.72494426  1
  P  P24  1  0.62209254  0.35589506  0.77505574  1
  P  P25  1  0.87790746  0.14410494  0.27505574  1
  P  P26  1  0.09705402  0.81206247  0.98823955  1
  P  P27  1  0.40294598  0.68793753  0.48823955  1
loop_
_geom_bond_atom_site_label_1
_geom_bond_atom_site_label_2
_geom_bond_distance
_geom_bond_site_symmetry_2
Ba0 P22 3.316306 1_555
Ba0 P9 3.356181 1_455
Ba0 P18 3.395889 1_555
Ba0 P25 3.407598 1_455
Ba0 P4 3.423711 1_555
Ba0 P20 3.504498 1_455
Ba0 P17 3.588096 1_555
Ba0 P13 3.597373 1_555
Ba0 P0 3.616194 1_555
Ba0 P3 3.711567 1_555
Ba1 P23 3.316306 1_545
Ba1 P8 3.356181 1_555
Ba1 P19 3.395889 1_545
Ba1 P24 3.407598 1_555
Ba1 P5 3.423711 1_456
Ba1 P21 3.504498 1_556
Ba1 P16 3.588096 1_455
Ba1 P12 3.597373 1_555
Ba1 P1 3.616178 1_555
Ba1 P2 3.711567 1_445
Ba2 P24 3.316306 1_555
Ba2 P7 3.356181 1_655
Ba2 P20 3.395889 1_555
Ba2 P23 3.407598 1_655
Ba2 P27 3.423711 1_555
Ba2 P18 3.504498 1_655
Ba2 P15 3.588096 1_555
Ba2 P11 3.597373 1_555
Ba2 P2 3.616178 1_555
Ba2 P1 3.711567 1_555
Ba3 P25 3.316306 1_565
Ba3 P6 3.356181 1_555
Ba3 P21 3.395889 1_565
Ba3 P22 3.407598 1_555
Ba3 P26 3.423711 1_654
Ba3 P19 3.504498 1_554
Ba3 P14 3.588096 1_655
Ba3 P10 3.597373 1_555
Ba3 P3 3.616187 1_555
Ba3 P0 3.711559 1_665
Ba4 P8 3.303553 1_455
Ba4 P6 3.303553 1_545
Ba4 P20 3.394725 1_455
Ba4 P18 3.394725 1_545
Ba4 P25 3.408506 1_455
Ba4 P23 3.408506 1_545
Ba4 P12 3.446105 1_555
Ba4 P10 3.446105 1_445
Ba5 P9 3.303553 1_555
Ba5 P7 3.303553 1_554
Ba5 P21 3.394725 1_555
Ba5 P19 3.394725 1_554
Ba5 P22 3.408506 1_555
Ba5 P24 3.408506 1_554
Ba5 P11 3.446105 1_554
Ba5 P13 3.446105 1_555
P0 P25 2.153555 1_455
P0 P5 2.254854 1_455
P0 P13 2.285368 1_555
P1 P24 2.153545 1_555
P1 P4 2.254863 1_555
P1 P12 2.285364 1_555
P2 P23 2.153545 1_655
P2 P26 2.254863 1_655
P10 P6 2.145370 1_555
P10 P27 2.228738 1_555
P10 P3 2.285359 1_555
P11 P7 2.145370 1_655
P11 P26 2.228738 1_655
P11 P2 2.285364 1_555
P12 P8 2.145370 1_555
P12 P4 2.228738 1_555
P13 P9 2.145370 1_455
P13 P5 2.228738 1_455
P14 P22 2.188629 1_555
P14 P6 2.188652 1_555
P14 P18 2.199094 1_555
P15 P23 2.188629 1_555
P15 P7 2.188652 1_555
P15 P19 2.199094 1_555
P16 P24 2.188629 1_555
P16 P8 2.188652 1_555
P16 P20 2.199094 1_555
P17 P25 2.188629 1_555
P17 P9 2.188652 1_555
P17 P21 2.199094 1_555
P18 P27 2.147751 1_555
P19 P26 2.147751 1_555
P20 P4 2.147751 1_555
P21 P5 2.147751 1_555
P22 P3 2.153555 1_555
P27 P3 2.254853 1_555
