# generated using pymatgen
data_Eu3Pd
_symmetry_space_group_name_H-M   'P 1'
_cell_length_a   20.74506333
_cell_length_b   20.74506333
_cell_length_c   20.74506351
_cell_angle_alpha   23.13013287
_cell_angle_beta   23.13013287
_cell_angle_gamma   23.13013631
_symmetry_Int_Tables_number   1
_chemical_formula_structural   Eu3Pd
_chemical_formula_sum   'Eu24 Pd8'
_cell_volume   1209.25939530
_cell_formula_units_Z   8
loop_
 _symmetry_equiv_pos_site_id
 _symmetry_equiv_pos_as_xyz
  1  'x, y, z'
loop_
 _atom_site_type_symbol
 _atom_site_label
 _atom_site_symmetry_multiplicity
 _atom_site_fract_x
 _atom_site_fract_y
 _atom_site_fract_z
 _atom_site_occupancy
  Eu  Eu0_0  1  0.13847050  0.13847050  0.13847050  1
  Eu  Eu0_1  1  0.13847050  0.13847050  0.63847050  1
  Eu  Eu0_2  1  0.13847050  0.63847050  0.13847050  1
  Eu  Eu0_3  1  0.13847050  0.63847050  0.63847050  1
  Eu  Eu0_4  1  0.63847050  0.13847050  0.13847050  1
  Eu  Eu0_5  1  0.63847050  0.13847050  0.63847050  1
  Eu  Eu0_6  1  0.63847050  0.63847050  0.13847050  1
  Eu  Eu0_7  1  0.63847050  0.63847050  0.63847050  1
  Eu  Eu1_0  1  0.25000000  0.25000000  0.25000000  1
  Eu  Eu1_1  1  0.25000000  0.25000000  0.75000000  1
  Eu  Eu1_2  1  0.25000000  0.75000000  0.25000000  1
  Eu  Eu1_3  1  0.25000000  0.75000000  0.75000000  1
  Eu  Eu1_4  1  0.75000000  0.25000000  0.25000000  1
  Eu  Eu1_5  1  0.75000000  0.25000000  0.75000000  1
  Eu  Eu1_6  1  0.75000000  0.75000000  0.25000000  1
  Eu  Eu1_7  1  0.75000000  0.75000000  0.75000000  1
  Eu  Eu2_0  1  0.36152950  0.36152950  0.36152950  1
  Eu  Eu2_1  1  0.36152950  0.36152950  0.86152950  1
  Eu  Eu2_2  1  0.36152950  0.86152950  0.36152950  1
  Eu  Eu2_3  1  0.36152950  0.86152950  0.86152950  1
  Eu  Eu2_4  1  0.86152950  0.36152950  0.36152950  1
  Eu  Eu2_5  1  0.86152950  0.36152950  0.86152950  1
  Eu  Eu2_6  1  0.86152950  0.86152950  0.36152950  1
  Eu  Eu2_7  1  0.86152950  0.86152950  0.86152950  1
  Pd  Pd0_0  1  0.00000000  0.00000000  0.00000000  1
  Pd  Pd0_1  1  0.00000000  0.00000000  0.50000000  1
  Pd  Pd0_2  1  0.00000000  0.50000000  0.00000000  1
  Pd  Pd0_3  1  0.00000000  0.50000000  0.50000000  1
  Pd  Pd0_4  1  0.50000000  0.00000000  0.00000000  1
  Pd  Pd0_5  1  0.50000000  0.00000000  0.50000000  1
  Pd  Pd0_6  1  0.50000000  0.50000000  0.00000000  1
  Pd  Pd0_7  1  0.50000000  0.50000000  0.50000000  1
loop_
_geom_bond_atom_site_label_1
_geom_bond_atom_site_label_2
_geom_bond_distance
_geom_bond_site_symmetry_2
Eu0_0 Pd0_1 2.946183 1_555
Eu0_0 Pd0_2 2.946183 1_555
Eu0_0 Pd0_4 2.946183 1_555
Eu0_0 Eu1_1 4.112140 1_554
Eu0_0 Eu1_2 4.112140 1_545
Eu0_0 Eu1_4 4.112140 1_455
Eu0_1 Pd0_0 2.946183 1_556
Eu0_1 Pd0_5 2.946183 1_555
Eu0_1 Pd0_3 2.946183 1_555
Eu0_1 Eu1_0 4.112140 1_555
Eu0_1 Eu1_5 4.112140 1_455
Eu0_1 Eu1_3 4.112140 1_545
Eu0_2 Pd0_3 2.946183 1_555
Eu0_2 Pd0_6 2.946183 1_555
Eu0_2 Pd0_0 2.946183 1_565
Eu0_2 Eu1_3 4.112140 1_554
Eu0_2 Eu1_6 4.112140 1_455
Eu0_2 Eu1_0 4.112140 1_555
Eu0_3 Pd0_2 2.946183 1_556
Eu0_3 Pd0_7 2.946183 1_555
Eu0_3 Pd0_1 2.946183 1_565
Eu0_3 Eu1_2 4.112140 1_555
Eu0_3 Eu1_1 4.112140 1_555
Eu0_3 Eu1_7 4.112140 1_455
Eu0_4 Pd0_5 2.946183 1_555
Eu0_4 Pd0_0 2.946183 1_655
Eu0_4 Pd0_6 2.946183 1_555
Eu0_4 Eu1_5 4.112140 1_554
Eu0_4 Eu1_6 4.112140 1_545
Eu0_4 Eu1_0 4.112140 1_555
Eu0_5 Pd0_4 2.946183 1_556
Eu0_5 Pd0_7 2.946183 1_555
Eu0_5 Pd0_1 2.946183 1_655
Eu0_5 Eu1_4 4.112140 1_555
Eu0_5 Eu1_1 4.112140 1_555
Eu0_5 Eu1_7 4.112140 1_545
Eu0_6 Pd0_7 2.946183 1_555
Eu0_6 Pd0_2 2.946183 1_655
Eu0_6 Pd0_4 2.946183 1_565
Eu0_6 Eu1_7 4.112140 1_554
Eu0_6 Eu1_2 4.112140 1_555
Eu0_6 Eu1_4 4.112140 1_555
Eu0_7 Pd0_6 2.946183 1_556
Eu0_7 Pd0_5 2.946183 1_565
Eu0_7 Pd0_3 2.946183 1_655
Eu0_7 Eu1_6 4.112140 1_555
Eu0_7 Eu1_5 4.112140 1_555
Eu0_7 Eu1_3 4.112140 1_555
Eu1_0 Eu2_1 4.112140 1_554
Eu1_0 Eu2_2 4.112140 1_545
Eu1_0 Eu2_4 4.112140 1_455
Eu1_0 Eu1_5 4.158983 1_554
Eu1_0 Eu1_3 4.158983 1_554
Eu1_0 Eu1_3 4.158983 1_545
Eu1_0 Eu1_5 4.158983 1_455
Eu1_0 Eu1_6 4.158984 1_545
Eu1_0 Eu1_6 4.158984 1_455
Eu1_1 Eu2_0 4.112140 1_555
Eu1_1 Eu2_5 4.112140 1_455
Eu1_1 Eu2_3 4.112140 1_545
Eu1_1 Eu1_2 4.158983 1_555
Eu1_1 Eu1_2 4.158983 1_546
Eu1_1 Eu1_4 4.158983 1_555
Eu1_1 Eu1_4 4.158983 1_456
Eu1_1 Eu1_7 4.158984 1_545
Eu1_1 Eu1_7 4.158984 1_455
Eu1_2 Eu2_3 4.112140 1_554
Eu1_2 Eu2_6 4.112140 1_455
Eu1_2 Eu2_0 4.112140 1_555
Eu1_2 Eu1_7 4.158983 1_455
Eu1_2 Eu1_7 4.158983 1_554
Eu1_2 Eu1_4 4.158984 1_555
Eu1_2 Eu1_4 4.158984 1_465
Eu1_3 Eu2_2 4.112140 1_555
Eu1_3 Eu2_1 4.112140 1_555
Eu1_3 Eu2_7 4.112140 1_455
Eu1_3 Eu1_6 4.158983 1_555
Eu1_3 Eu1_6 4.158983 1_456
Eu1_3 Eu1_5 4.158984 1_465
Eu1_3 Eu1_5 4.158984 1_555
Eu1_4 Eu2_5 4.112140 1_554
Eu1_4 Eu2_6 4.112140 1_545
Eu1_4 Eu2_0 4.112140 1_555
Eu1_4 Eu1_7 4.158983 1_545
Eu1_4 Eu1_7 4.158983 1_554
Eu1_5 Eu2_4 4.112140 1_555
Eu1_5 Eu2_7 4.112140 1_545
Eu1_5 Eu2_1 4.112140 1_555
Eu1_5 Eu1_6 4.158983 1_546
Eu1_5 Eu1_6 4.158983 1_555
Eu1_6 Eu2_7 4.112140 1_554
Eu1_6 Eu2_4 4.112140 1_555
Eu1_6 Eu2_2 4.112140 1_555
Eu1_7 Eu2_6 4.112140 1_555
Eu1_7 Eu2_5 4.112140 1_555
Eu1_7 Eu2_3 4.112140 1_555
Eu2_0 Pd0_6 2.946183 1_555
Eu2_0 Pd0_5 2.946183 1_555
Eu2_0 Pd0_3 2.946183 1_555
Eu2_1 Pd0_7 2.946183 1_555
Eu2_1 Pd0_2 2.946183 1_556
Eu2_1 Pd0_4 2.946183 1_556
Eu2_2 Pd0_4 2.946183 1_565
Eu2_2 Pd0_7 2.946183 1_555
Eu2_2 Pd0_1 2.946183 1_565
Eu2_3 Pd0_5 2.946183 1_565
Eu2_3 Pd0_6 2.946183 1_556
Eu2_3 Pd0_0 2.946183 1_566
Eu2_4 Pd0_2 2.946183 1_655
Eu2_4 Pd0_1 2.946183 1_655
Eu2_4 Pd0_7 2.946183 1_555
Eu2_5 Pd0_3 2.946183 1_655
Eu2_5 Pd0_0 2.946183 1_656
Eu2_5 Pd0_6 2.946183 1_556
Eu2_6 Pd0_0 2.946183 1_665
Eu2_6 Pd0_3 2.946183 1_655
Eu2_6 Pd0_5 2.946183 1_565
Eu2_7 Pd0_1 2.946183 1_665
Eu2_7 Pd0_4 2.946183 1_566
Eu2_7 Pd0_2 2.946183 1_656
