# generated using pymatgen
data_Mg2Ni
_symmetry_space_group_name_H-M   'P 1'
_cell_length_a   6.05650300
_cell_length_b   6.07511187
_cell_length_c   7.45659414
_cell_angle_alpha   113.27825025
_cell_angle_beta   113.85454450
_cell_angle_gamma   90.10330032
_symmetry_Int_Tables_number   1
_chemical_formula_structural   Mg2Ni
_chemical_formula_sum   'Mg8 Ni4'
_cell_volume   226.18893910
_cell_formula_units_Z   4
loop_
 _symmetry_equiv_pos_site_id
 _symmetry_equiv_pos_as_xyz
  1  'x, y, z'
loop_
 _atom_site_type_symbol
 _atom_site_label
 _atom_site_symmetry_multiplicity
 _atom_site_fract_x
 _atom_site_fract_y
 _atom_site_fract_z
 _atom_site_occupancy
  Mg  Mg0  1  0.38073000  0.67163300  0.76185500  1
  Mg  Mg1  1  0.38109200  0.17127200  0.76192300  1
  Mg  Mg2  1  0.87280000  0.66454600  0.75060100  1
  Mg  Mg3  1  0.87781000  0.16453600  0.75033400  1
  Mg  Mg4  1  0.11777900  0.42011500  0.25586400  1
  Mg  Mg5  1  0.13772100  0.91997700  0.25545600  1
  Mg  Mg6  1  0.61903600  0.39355800  0.25476100  1
  Mg  Mg7  1  0.63610100  0.89363800  0.25521700  1
  Ni  Ni0  1  0.49904400  0.29083600  0.50908600  1
  Ni  Ni1  1  0.00993200  0.79083800  0.50908600  1
  Ni  Ni2  1  0.24963200  0.53891400  0.00672300  1
  Ni  Ni3  1  0.75712400  0.03873700  0.00669500  1
loop_
_geom_bond_atom_site_label_1
_geom_bond_atom_site_label_2
_geom_bond_distance
_geom_bond_site_symmetry_2
Mg0 Ni1 2.604103 1_555
Mg0 Ni3 2.626943 1_566
Mg0 Ni2 2.635954 1_556
Mg0 Ni0 2.658896 1_555
Mg0 Mg2 3.015048 1_555
Mg0 Mg1 3.035159 1_565
Mg0 Mg7 3.035366 1_556
Mg0 Mg1 3.039954 1_555
Mg0 Mg2 3.043067 1_455
Mg0 Mg4 3.111406 1_555
Mg1 Ni0 2.600416 1_555
Mg1 Ni2 2.629417 1_556
Mg1 Ni3 2.640514 1_556
Mg1 Ni1 2.656795 1_545
Mg1 Mg3 3.013957 1_455
Mg1 Mg6 3.031880 1_556
Mg1 Mg3 3.044236 1_555
Mg1 Mg5 3.114150 1_545
Mg2 Ni1 2.611739 1_655
Mg2 Ni3 2.638520 1_566
Mg2 Ni0 2.640892 1_555
Mg2 Ni2 2.659244 1_656
Mg2 Mg3 3.037045 1_555
Mg2 Mg3 3.038387 1_565
Mg2 Mg6 3.053857 1_555
Mg2 Mg5 3.105194 1_656
Mg3 Ni0 2.616617 1_555
Mg3 Ni2 2.638481 1_656
Mg3 Ni1 2.640701 1_645
Mg3 Ni3 2.656179 1_556
Mg3 Mg7 3.049440 1_545
Mg3 Mg4 3.109188 1_656
Mg4 Ni1 2.589566 1_555
Mg4 Ni2 2.620569 1_555
Mg4 Ni3 2.624518 1_455
Mg4 Ni0 2.676981 1_555
Mg4 Mg6 3.021168 1_455
Mg4 Mg5 3.039860 1_545
Mg4 Mg5 3.040152 1_555
Mg4 Mg6 3.043597 1_555
Mg5 Ni0 2.590093 1_565
Mg5 Ni3 2.622988 1_465
Mg5 Ni2 2.624370 1_555
Mg5 Ni1 2.673132 1_555
Mg5 Mg7 3.023649 1_555
Mg5 Mg7 3.041229 1_455
Mg6 Ni0 2.561711 1_555
Mg6 Ni3 2.621779 1_555
Mg6 Ni2 2.675281 1_555
Mg6 Ni1 2.785082 1_655
Mg6 Mg7 3.038225 1_555
Mg6 Mg7 3.040312 1_545
Mg7 Ni1 2.563700 1_655
Mg7 Ni2 2.621783 1_555
Mg7 Ni3 2.671291 1_565
Mg7 Ni0 2.786207 1_565
