# generated using pymatgen
data_Te2MoWS2
_symmetry_space_group_name_H-M   'P 1'
_cell_length_a   3.36460663
_cell_length_b   3.36460663
_cell_length_c   38.31476300
_cell_angle_alpha   90.00000000
_cell_angle_beta   90.00000000
_cell_angle_gamma   120.00001244
_symmetry_Int_Tables_number   1
_chemical_formula_structural   Te2MoWS2
_chemical_formula_sum   'Te4 Mo2 W2 S4'
_cell_volume   375.63436260
_cell_formula_units_Z   2
loop_
 _symmetry_equiv_pos_site_id
 _symmetry_equiv_pos_as_xyz
  1  'x, y, z'
loop_
 _atom_site_type_symbol
 _atom_site_label
 _atom_site_symmetry_multiplicity
 _atom_site_fract_x
 _atom_site_fract_y
 _atom_site_fract_z
 _atom_site_occupancy
  Te  Te0  1  0.33333300  0.66666700  0.33139000  1
  Te  Te1  1  0.66666700  0.33333300  0.66861000  1
  Te  Te2  1  0.66666700  0.33333300  0.76777900  1
  Te  Te3  1  0.33333300  0.66666700  0.23222100  1
  Mo  Mo0  1  0.33333300  0.66666700  0.09392000  1
  Mo  Mo1  1  0.66666700  0.33333300  0.90608000  1
  W  W0  1  0.33333300  0.66666700  0.71817200  1
  W  W1  1  0.66666700  0.33333300  0.28182800  1
  S  S0  1  0.33333300  0.66666700  0.94557700  1
  S  S1  1  0.66666700  0.33333300  0.05442300  1
  S  S2  1  0.66666700  0.33333300  0.13345000  1
  S  S3  1  0.33333300  0.66666700  0.86655000  1
loop_
_geom_bond_atom_site_label_1
_geom_bond_atom_site_label_2
_geom_bond_distance
_geom_bond_site_symmetry_2
Te0 W1 2.716533 1_455
Te0 W1 2.716533 1_565
Te0 W1 2.716538 1_555
Te1 W0 2.716533 1_545
Te1 W0 2.716533 1_655
Te1 W0 2.716538 1_555
Te2 W0 2.717739 1_545
Te2 W0 2.717739 1_655
Te2 W0 2.717743 1_555
Te3 W1 2.717739 1_455
Te3 W1 2.717739 1_565
Te3 W1 2.717743 1_555
Mo0 S1 2.462448 1_455
Mo0 S1 2.462448 1_565
Mo0 S1 2.462453 1_555
Mo0 S2 2.463225 1_455
Mo0 S2 2.463225 1_565
Mo0 S2 2.463230 1_555
Mo1 S0 2.462448 1_545
Mo1 S0 2.462448 1_655
Mo1 S0 2.462453 1_555
Mo1 S3 2.463225 1_545
Mo1 S3 2.463225 1_655
Mo1 S3 2.463230 1_555
