# generated using pymatgen
data_NbRu3
_symmetry_space_group_name_H-M   'P 1'
_cell_length_a   5.55012094
_cell_length_b   5.55012094
_cell_length_c   18.02653400
_cell_angle_alpha   90.00000000
_cell_angle_beta   90.00000000
_cell_angle_gamma   120.00001121
_symmetry_Int_Tables_number   1
_chemical_formula_structural   NbRu3
_chemical_formula_sum   'Nb8 Ru24'
_cell_volume   480.89217259
_cell_formula_units_Z   8
loop_
 _symmetry_equiv_pos_site_id
 _symmetry_equiv_pos_as_xyz
  1  'x, y, z'
loop_
 _atom_site_type_symbol
 _atom_site_label
 _atom_site_symmetry_multiplicity
 _atom_site_fract_x
 _atom_site_fract_y
 _atom_site_fract_z
 _atom_site_occupancy
  Nb  Nb0_0  1  0.00000000  0.00000000  0.25000000  1
  Nb  Nb0_1  1  0.00000000  0.00000000  0.75000000  1
  Nb  Nb0_2  1  0.00000000  0.50000000  0.25000000  1
  Nb  Nb0_3  1  0.00000000  0.50000000  0.75000000  1
  Nb  Nb0_4  1  0.50000000  0.00000000  0.25000000  1
  Nb  Nb0_5  1  0.50000000  0.00000000  0.75000000  1
  Nb  Nb0_6  1  0.50000000  0.50000000  0.25000000  1
  Nb  Nb0_7  1  0.50000000  0.50000000  0.75000000  1
  Ru  Ru0_0  1  0.00000000  0.00000000  0.00000000  1
  Ru  Ru0_1  1  0.00000000  0.00000000  0.50000000  1
  Ru  Ru0_2  1  0.00000000  0.50000000  0.00000000  1
  Ru  Ru0_3  1  0.00000000  0.50000000  0.50000000  1
  Ru  Ru0_4  1  0.50000000  0.00000000  0.00000000  1
  Ru  Ru0_5  1  0.50000000  0.00000000  0.50000000  1
  Ru  Ru0_6  1  0.50000000  0.50000000  0.00000000  1
  Ru  Ru0_7  1  0.50000000  0.50000000  0.50000000  1
  Ru  Ru1_0  1  0.16666650  0.33333350  0.38245300  1
  Ru  Ru1_1  1  0.16666650  0.33333350  0.88245300  1
  Ru  Ru1_2  1  0.16666650  0.83333350  0.38245300  1
  Ru  Ru1_3  1  0.16666650  0.83333350  0.88245300  1
  Ru  Ru1_4  1  0.66666650  0.33333350  0.38245300  1
  Ru  Ru1_5  1  0.66666650  0.33333350  0.88245300  1
  Ru  Ru1_6  1  0.66666650  0.83333350  0.38245300  1
  Ru  Ru1_7  1  0.66666650  0.83333350  0.88245300  1
  Ru  Ru2_0  1  0.16666650  0.33333350  0.11754700  1
  Ru  Ru2_1  1  0.16666650  0.33333350  0.61754700  1
  Ru  Ru2_2  1  0.16666650  0.83333350  0.11754700  1
  Ru  Ru2_3  1  0.16666650  0.83333350  0.61754700  1
  Ru  Ru2_4  1  0.66666650  0.33333350  0.11754700  1
  Ru  Ru2_5  1  0.66666650  0.33333350  0.61754700  1
  Ru  Ru2_6  1  0.66666650  0.83333350  0.11754700  1
  Ru  Ru2_7  1  0.66666650  0.83333350  0.61754700  1
loop_
_geom_bond_atom_site_label_1
_geom_bond_atom_site_label_2
_geom_bond_distance
_geom_bond_site_symmetry_2
Nb0_0 Nb0_6 2.775060 1_555
Nb0_0 Nb0_6 2.775060 1_445
Nb0_0 Nb0_2 2.775060 1_545
Nb0_0 Nb0_4 2.775060 1_455
Nb0_0 Nb0_4 2.775060 1_555
Nb0_0 Nb0_2 2.775060 1_555
Nb0_0 Ru1_2 2.875403 1_545
Nb0_0 Ru2_2 2.875403 1_545
Nb0_0 Ru2_6 2.875404 1_445
Nb0_0 Ru2_0 2.875404 1_555
Nb0_0 Ru1_6 2.875404 1_445
Nb0_0 Ru1_0 2.875404 1_555
Nb0_1 Nb0_7 2.775060 1_445
Nb0_1 Nb0_7 2.775060 1_555
Nb0_1 Nb0_5 2.775060 1_555
Nb0_1 Nb0_3 2.775060 1_555
Nb0_1 Nb0_3 2.775060 1_545
Nb0_1 Nb0_5 2.775060 1_455
Nb0_1 Ru1_3 2.875403 1_545
Nb0_1 Ru2_3 2.875403 1_545
Nb0_1 Ru1_7 2.875404 1_445
Nb0_1 Ru1_1 2.875404 1_555
Nb0_1 Ru2_7 2.875404 1_445
Nb0_1 Ru2_1 2.875404 1_555
Nb0_2 Nb0_4 2.775060 1_565
Nb0_2 Nb0_4 2.775060 1_455
Nb0_2 Nb0_6 2.775060 1_455
Nb0_2 Nb0_6 2.775060 1_555
Nb0_2 Ru2_0 2.875403 1_555
Nb0_2 Ru1_0 2.875403 1_555
Nb0_2 Ru2_4 2.875404 1_455
Nb0_2 Ru1_4 2.875404 1_455
Nb0_2 Ru2_2 2.875404 1_555
Nb0_2 Ru1_2 2.875404 1_555
Nb0_3 Nb0_5 2.775060 1_565
Nb0_3 Nb0_5 2.775060 1_455
Nb0_3 Nb0_7 2.775060 1_455
Nb0_3 Nb0_7 2.775060 1_555
Nb0_3 Ru1_1 2.875403 1_555
Nb0_3 Ru2_1 2.875403 1_555
Nb0_3 Ru1_5 2.875404 1_455
Nb0_3 Ru1_3 2.875404 1_555
Nb0_3 Ru2_5 2.875404 1_455
Nb0_3 Ru2_3 2.875404 1_555
Nb0_4 Nb0_6 2.775060 1_545
Nb0_4 Nb0_6 2.775060 1_555
Nb0_4 Ru1_6 2.875403 1_545
Nb0_4 Ru2_6 2.875403 1_545
Nb0_4 Ru1_4 2.875404 1_555
Nb0_4 Ru2_4 2.875404 1_555
Nb0_4 Ru1_2 2.875404 1_545
Nb0_4 Ru2_2 2.875404 1_545
Nb0_5 Nb0_7 2.775060 1_555
Nb0_5 Nb0_7 2.775060 1_545
Nb0_5 Ru1_7 2.875403 1_545
Nb0_5 Ru2_7 2.875403 1_545
Nb0_5 Ru1_3 2.875404 1_545
Nb0_5 Ru1_5 2.875404 1_555
Nb0_5 Ru2_3 2.875404 1_545
Nb0_5 Ru2_5 2.875404 1_555
Nb0_6 Ru1_4 2.875403 1_555
Nb0_6 Ru2_4 2.875403 1_555
Nb0_6 Ru2_6 2.875404 1_555
Nb0_6 Ru2_0 2.875404 1_555
Nb0_6 Ru1_0 2.875404 1_555
Nb0_6 Ru1_6 2.875404 1_555
Nb0_7 Ru1_5 2.875403 1_555
Nb0_7 Ru2_5 2.875403 1_555
Nb0_7 Ru1_7 2.875404 1_555
Nb0_7 Ru1_1 2.875404 1_555
Nb0_7 Ru2_7 2.875404 1_555
Nb0_7 Ru2_1 2.875404 1_555
Ru0_0 Ru1_3 2.656500 1_544
Ru0_0 Ru2_2 2.656500 1_545
Ru0_0 Ru1_1 2.656502 1_554
Ru0_0 Ru1_7 2.656502 1_444
Ru0_0 Ru2_6 2.656502 1_445
Ru0_0 Ru2_0 2.656502 1_555
Ru0_0 Ru0_6 2.775060 1_555
Ru0_0 Ru0_6 2.775060 1_445
Ru0_0 Ru0_2 2.775060 1_545
Ru0_0 Ru0_4 2.775060 1_555
Ru0_0 Ru0_2 2.775060 1_555
Ru0_0 Ru0_4 2.775060 1_455
Ru0_1 Ru1_2 2.656500 1_545
Ru0_1 Ru2_3 2.656500 1_545
Ru0_1 Ru1_6 2.656502 1_445
Ru0_1 Ru1_0 2.656502 1_555
Ru0_1 Ru2_1 2.656502 1_555
Ru0_1 Ru2_7 2.656502 1_445
Ru0_1 Ru0_7 2.775060 1_445
Ru0_1 Ru0_7 2.775060 1_555
Ru0_1 Ru0_5 2.775060 1_455
Ru0_1 Ru0_5 2.775060 1_555
Ru0_1 Ru0_3 2.775060 1_555
Ru0_1 Ru0_3 2.775060 1_545
Ru0_2 Ru1_1 2.656500 1_554
Ru0_2 Ru2_0 2.656500 1_555
Ru0_2 Ru1_5 2.656502 1_454
Ru0_2 Ru1_3 2.656502 1_554
Ru0_2 Ru2_4 2.656502 1_455
Ru0_2 Ru2_2 2.656502 1_555
Ru0_2 Ru0_4 2.775060 1_565
Ru0_2 Ru0_4 2.775060 1_455
Ru0_2 Ru0_6 2.775060 1_455
Ru0_2 Ru0_6 2.775060 1_555
Ru0_3 Ru1_0 2.656500 1_555
Ru0_3 Ru2_1 2.656500 1_555
Ru0_3 Ru1_4 2.656502 1_455
Ru0_3 Ru1_2 2.656502 1_555
Ru0_3 Ru2_5 2.656502 1_455
Ru0_3 Ru2_3 2.656502 1_555
Ru0_3 Ru0_5 2.775060 1_455
Ru0_3 Ru0_5 2.775060 1_565
Ru0_3 Ru0_7 2.775060 1_555
Ru0_3 Ru0_7 2.775060 1_455
Ru0_4 Ru1_7 2.656500 1_544
Ru0_4 Ru2_6 2.656500 1_545
Ru0_4 Ru1_5 2.656502 1_554
Ru0_4 Ru1_3 2.656502 1_544
Ru0_4 Ru2_4 2.656502 1_555
Ru0_4 Ru2_2 2.656502 1_545
Ru0_4 Ru0_6 2.775060 1_545
Ru0_4 Ru0_6 2.775060 1_555
Ru0_5 Ru1_6 2.656500 1_545
Ru0_5 Ru2_7 2.656500 1_545
Ru0_5 Ru1_4 2.656502 1_555
Ru0_5 Ru1_2 2.656502 1_545
Ru0_5 Ru2_5 2.656502 1_555
Ru0_5 Ru2_3 2.656502 1_545
Ru0_5 Ru0_7 2.775060 1_555
Ru0_5 Ru0_7 2.775060 1_545
Ru0_6 Ru1_5 2.656500 1_554
Ru0_6 Ru2_4 2.656500 1_555
Ru0_6 Ru1_1 2.656502 1_554
Ru0_6 Ru1_7 2.656502 1_554
Ru0_6 Ru2_6 2.656502 1_555
Ru0_6 Ru2_0 2.656502 1_555
Ru0_7 Ru1_4 2.656500 1_555
Ru0_7 Ru2_5 2.656500 1_555
Ru0_7 Ru1_6 2.656502 1_555
Ru0_7 Ru1_0 2.656502 1_555
Ru0_7 Ru2_7 2.656502 1_555
Ru0_7 Ru2_1 2.656502 1_555
Ru1_0 Ru1_6 2.775060 1_445
Ru1_0 Ru1_6 2.775060 1_555
Ru1_0 Ru1_2 2.775060 1_545
Ru1_0 Ru1_4 2.775060 1_455
Ru1_0 Ru1_4 2.775060 1_555
Ru1_0 Ru1_2 2.775060 1_555
Ru1_1 Ru1_7 2.775060 1_445
Ru1_1 Ru1_7 2.775060 1_555
Ru1_1 Ru1_3 2.775060 1_545
Ru1_1 Ru1_5 2.775060 1_455
Ru1_1 Ru1_3 2.775060 1_555
Ru1_1 Ru1_5 2.775060 1_555
Ru1_2 Ru1_4 2.775060 1_565
Ru1_2 Ru1_4 2.775060 1_455
Ru1_2 Ru1_6 2.775060 1_455
Ru1_2 Ru1_6 2.775060 1_555
Ru1_3 Ru1_5 2.775060 1_565
Ru1_3 Ru1_5 2.775060 1_455
Ru1_3 Ru1_7 2.775060 1_455
Ru1_3 Ru1_7 2.775060 1_555
Ru1_4 Ru1_6 2.775060 1_555
Ru1_4 Ru1_6 2.775060 1_545
Ru1_5 Ru1_7 2.775060 1_555
Ru1_5 Ru1_7 2.775060 1_545
Ru2_0 Ru2_6 2.775060 1_555
Ru2_0 Ru2_6 2.775060 1_445
Ru2_0 Ru2_2 2.775060 1_545
Ru2_0 Ru2_4 2.775060 1_455
Ru2_0 Ru2_2 2.775060 1_555
Ru2_0 Ru2_4 2.775060 1_555
Ru2_1 Ru2_7 2.775060 1_445
Ru2_1 Ru2_7 2.775060 1_555
Ru2_1 Ru2_3 2.775060 1_545
Ru2_1 Ru2_5 2.775060 1_455
Ru2_1 Ru2_5 2.775060 1_555
Ru2_1 Ru2_3 2.775060 1_555
Ru2_2 Ru2_4 2.775060 1_565
Ru2_2 Ru2_4 2.775060 1_455
Ru2_2 Ru2_6 2.775060 1_455
Ru2_2 Ru2_6 2.775060 1_555
Ru2_3 Ru2_5 2.775060 1_565
Ru2_3 Ru2_5 2.775060 1_455
Ru2_3 Ru2_7 2.775060 1_455
Ru2_3 Ru2_7 2.775060 1_555
Ru2_4 Ru2_6 2.775060 1_555
Ru2_4 Ru2_6 2.775060 1_545
Ru2_5 Ru2_7 2.775060 1_555
Ru2_5 Ru2_7 2.775060 1_545
