# generated using pymatgen
data_Mn2Al3Fe(PO7)3
_symmetry_space_group_name_H-M   'P 1'
_cell_length_a   6.97712310
_cell_length_b   15.92604168
_cell_length_c   13.03615975
_cell_angle_alpha   89.96102448
_cell_angle_beta   90.17793197
_cell_angle_gamma   102.65310139
_symmetry_Int_Tables_number   1
_chemical_formula_structural   Mn2Al3Fe(PO7)3
_chemical_formula_sum   'Mn8 Al12 Fe4 P12 O84'
_cell_volume   1413.36530042
_cell_formula_units_Z   4
loop_
 _symmetry_equiv_pos_site_id
 _symmetry_equiv_pos_as_xyz
  1  'x, y, z'
loop_
 _atom_site_type_symbol
 _atom_site_label
 _atom_site_symmetry_multiplicity
 _atom_site_fract_x
 _atom_site_fract_y
 _atom_site_fract_z
 _atom_site_occupancy
  Mn  Mn0  1  0.45986858  0.41973615  0.75000000  1
  Mn  Mn1  1  0.12660641  0.75321381  0.75000000  1
  Mn  Mn2  1  0.29124489  0.08248978  0.75000000  1
  Mn  Mn3  1  0.96011465  0.42022829  0.75000000  1
  Mn  Mn4  1  0.62483951  0.74968001  0.75000000  1
  Mn  Mn5  1  0.20632712  0.91265423  0.25000000  1
  Mn  Mn6  1  0.87570624  0.25141147  0.25000000  1
  Mn  Mn7  1  0.54003149  0.58006397  0.25000000  1
  Al  Al0  1  0.00202760  0.49848793  0.50200559  1
  Al  Al1  1  0.66953253  0.83331986  0.50647403  1
  Al  Al2  1  0.33884512  0.16658151  0.50741069  1
  Al  Al3  1  0.17311178  0.83576952  0.49979819  1
  Al  Al4  1  0.83998776  0.16695821  0.49215186  1
  Al  Al5  1  0.50282748  0.49954195  0.49907811  1
  Al  Al6  1  0.99646034  0.49848793  0.99799441  1
  Al  Al7  1  0.66378833  0.83331986  0.99352597  1
  Al  Al8  1  0.32773539  0.16658151  0.99258931  1
  Al  Al9  1  0.16265874  0.83576952  0.00020181  1
  Al  Al10  1  0.82696945  0.16695821  0.00784814  1
  Al  Al11  1  0.49671448  0.49954195  0.00092189  1
  Fe  Fe0  1  0.70905365  0.91810729  0.25000000  1
  Fe  Fe1  1  0.37511086  0.25022071  0.25000000  1
  Fe  Fe2  1  0.04238264  0.58476627  0.25000000  1
  Fe  Fe3  1  0.79185981  0.08371963  0.75000000  1
  P  P0  1  0.71284251  0.41497442  0.16987320  1
  P  P1  1  0.37418234  0.74922009  0.16800627  1
  P  P2  1  0.03532909  0.08171630  0.16956303  1
  P  P3  1  0.96377622  0.91906275  0.82813806  1
  P  P4  1  0.62113927  0.25087007  0.82925291  1
  P  P5  1  0.29022348  0.58553828  0.83076813  1
  P  P6  1  0.79531579  0.58553828  0.66923187  1
  P  P7  1  0.45528553  0.91906275  0.67186194  1
  P  P8  1  0.12973080  0.25087007  0.67074709  1
  P  P9  1  0.87503774  0.74922009  0.33199373  1
  P  P10  1  0.54638821  0.08171630  0.33043697  1
  P  P11  1  0.20213091  0.41497442  0.33012680  1
  O  O0  1  0.10000054  0.58264517  0.89213173  1
  O  O1  1  0.77490070  0.91824837  0.88952298  1
  O  O2  1  0.43897609  0.25103033  0.89431431  1
  O  O3  1  0.18644305  0.75348414  0.10654486  1
  O  O4  1  0.85058605  0.08143460  0.10501511  1
  O  O5  1  0.52633395  0.41558705  0.10609826  1
  O  O6  1  0.69802911  0.74860915  0.40259746  1
  O  O7  1  0.36421500  0.08224914  0.39897458  1
  O  O8  1  0.02238575  0.41560941  0.39687605  1
  O  O9  1  0.61673067  0.58439816  0.59967437  1
  O  O10  1  0.27661863  0.91847210  0.60321629  1
  O  O11  1  0.94407834  0.24817265  0.60234012  1
  O  O12  1  0.55058004  0.74860915  0.09740254  1
  O  O13  1  0.21803514  0.08224914  0.10102542  1
  O  O14  1  0.89322266  0.41560941  0.10312395  1
  O  O15  1  0.46766849  0.58439816  0.90032563  1
  O  O16  1  0.14185247  0.91847210  0.89678371  1
  O  O17  1  0.80409431  0.24817265  0.89765988  1
  O  O18  1  0.98264563  0.58264517  0.60786827  1
  O  O19  1  0.64334666  0.91824837  0.61047702  1
  O  O20  1  0.31205424  0.25103033  0.60568569  1
  O  O21  1  0.06704109  0.75348414  0.39345514  1
  O  O22  1  0.73084955  0.08143460  0.39498489  1
  O  O23  1  0.38925210  0.41558705  0.39390174  1
  O  O24  1  0.83632526  0.66509839  0.26582972  1
  O  O25  1  0.50267974  0.99779266  0.26441124  1
  O  O26  1  0.15830938  0.33047761  0.26196487  1
  O  O27  1  0.83586553  0.66932353  0.73585149  1
  O  O28  1  0.49469862  0.00355288  0.73956727  1
  O  O29  1  0.16471092  0.33439089  0.73707022  1
  O  O30  1  0.66967897  0.33439089  0.76292978  1
  O  O31  1  0.33345799  0.66932353  0.76414851  1
  O  O32  1  0.00885526  0.00355288  0.76043273  1
  O  O33  1  0.99511192  0.99779266  0.23558876  1
  O  O34  1  0.67216823  0.33047761  0.23803513  1
  O  O35  1  0.32877413  0.66509839  0.23417028  1
  O  O36  1  0.73969098  0.47355073  0.47620568  1
  O  O37  1  0.41072695  0.81156372  0.47547707  1
  O  O38  1  0.07998916  0.14347478  0.47611267  1
  O  O39  1  0.93226840  0.85509063  0.53023482  1
  O  O40  1  0.60265336  0.18997385  0.52129293  1
  O  O41  1  0.26476964  0.52290474  0.52686639  1
  O  O42  1  0.75813411  0.52290474  0.97313361  1
  O  O43  1  0.42282223  0.85509063  0.96976518  1
  O  O44  1  0.08732149  0.18997385  0.97870707  1
  O  O45  1  0.90083577  0.81156372  0.02452293  1
  O  O46  1  0.56348563  0.14347478  0.02388733  1
  O  O47  1  0.23386076  0.47355073  0.02379432  1
  O  O48  1  0.75504578  0.49631047  0.24234073  1
  O  O49  1  0.42289795  0.83023293  0.24056279  1
  O  O50  1  0.07847620  0.16408290  0.24106697  1
  O  O51  1  0.92486987  0.83747034  0.75619662  1
  O  O52  1  0.58049729  0.16851406  0.75756990  1
  O  O53  1  0.25279671  0.50418329  0.75813168  1
  O  O54  1  0.75138658  0.50418329  0.74186832  1
  O  O55  1  0.41260147  0.83747034  0.74380338  1
  O  O56  1  0.08801577  0.16851406  0.74243010  1
  O  O57  1  0.90733598  0.83023293  0.25943721  1
  O  O58  1  0.58560570  0.16408290  0.25893303  1
  O  O59  1  0.24126470  0.49631047  0.25765927  1
  O  O60  1  0.02687700  0.57995962  0.10165235  1
  O  O61  1  0.69581682  0.91055720  0.10134108  1
  O  O62  1  0.36583058  0.24180906  0.10259722  1
  O  O63  1  0.11279185  0.75148372  0.89670131  1
  O  O64  1  0.78957235  0.09200244  0.89774888  1
  O  O65  1  0.46267816  0.42304603  0.88552861  1
  O  O66  1  0.61930231  0.75371003  0.61603487  1
  O  O67  1  0.29660436  0.08978633  0.62266918  1
  O  O68  1  0.94698112  0.41619566  0.60455829  1
  O  O69  1  0.53494275  0.57711941  0.38554539  1
  O  O70  1  0.19546235  0.91734103  0.39529894  1
  O  O71  1  0.87414067  0.24387409  0.37745581  1
  O  O72  1  0.63440772  0.75371003  0.88396513  1
  O  O73  1  0.29318297  0.08978633  0.87733082  1
  O  O74  1  0.96921354  0.41619566  0.89544171  1
  O  O75  1  0.54217766  0.57711941  0.11445461  1
  O  O76  1  0.22187768  0.91734103  0.10470106  1
  O  O77  1  0.86973342  0.24387409  0.12254419  1
  O  O78  1  0.05308363  0.57995962  0.39834765  1
  O  O79  1  0.71473937  0.91055720  0.39865892  1
  O  O80  1  0.37597849  0.24180906  0.39740278  1
  O  O81  1  0.13869186  0.75148372  0.60329869  1
  O  O82  1  0.80243108  0.09200244  0.60225112  1
  O  O83  1  0.46036687  0.42304603  0.61447139  1
loop_
_geom_bond_atom_site_label_1
_geom_bond_atom_site_label_2
_geom_bond_distance
_geom_bond_site_symmetry_2
Mn0 O65 1.767514 1_555
Mn0 O83 1.767514 1_555
Mn0 O54 2.181683 1_555
Mn0 O53 2.181688 1_555
Mn0 O30 2.211025 1_555
Mn0 O29 2.211036 1_555
Mn1 O63 1.915024 1_555
Mn1 O81 1.915024 1_555
Mn1 O51 2.148632 1_455
Mn1 O55 2.148643 1_555
Mn1 O27 2.178224 1_455
Mn1 O31 2.178229 1_555
Mn2 O73 1.663853 1_555
Mn2 O67 1.663853 1_555
Mn2 O32 2.096946 1_555
Mn2 O28 2.096952 1_555
Mn2 O52 2.178827 1_555
Mn2 O56 2.178833 1_555
Mn3 O74 1.898381 1_555
Mn3 O68 1.898381 1_555
Mn3 O53 2.184434 1_655
Mn3 O54 2.184440 1_555
Mn3 O29 2.188996 1_655
Mn3 O30 2.189007 1_555
Mn4 O66 1.748144 1_555
Mn4 O72 1.748144 1_555
Mn4 O31 2.160348 1_555
Mn4 O27 2.160354 1_555
Mn4 O55 2.249509 1_555
Mn4 O51 2.249520 1_555
Mn5 O76 1.898064 1_555
Mn5 O70 1.898064 1_555
Mn5 O57 2.211722 1_455
Mn5 O49 2.211727 1_555
Mn5 O25 2.217843 1_555
Mn5 O33 2.217849 1_455
Mn6 O71 1.665681 1_555
Mn6 O77 1.665681 1_555
Mn6 O26 2.099618 1_655
Mn6 O34 2.099623 1_555
Mn6 O50 2.193777 1_655
Mn6 O58 2.193788 1_555
Mn7 O69 1.767842 1_555
Mn7 O75 1.767842 1_555
Mn7 O59 2.217528 1_555
Mn7 O48 2.217534 1_555
Mn7 O35 2.218428 1_555
Mn7 O24 2.218439 1_555
Al0 O36 1.816299 1_455
Al0 O41 1.816863 1_555
Al0 O68 1.852762 1_455
Al0 O78 1.853264 1_555
Al0 O8 1.930393 1_555
Al0 O18 1.949940 1_455
Al1 O37 1.807073 1_555
Al1 O39 1.815141 1_555
Al1 O79 1.848902 1_555
Al1 O66 1.891085 1_555
Al1 O19 1.952774 1_555
Al1 O6 1.953206 1_555
Al2 O40 1.804729 1_555
Al2 O38 1.807826 1_555
Al2 O80 1.850158 1_555
Al2 O20 1.897116 1_555
Al2 O67 1.919016 1_555
Al2 O7 1.985378 1_555
Al3 O37 1.811379 1_555
Al3 O39 1.818426 1_455
Al3 O70 1.864925 1_555
Al3 O81 1.881048 1_555
Al3 O10 1.911436 1_555
Al3 O21 1.938586 1_555
Al4 O38 1.806725 1_655
Al4 O40 1.814035 1_555
Al4 O82 1.848424 1_555
Al4 O22 1.892484 1_555
Al4 O71 1.914361 1_555
Al4 O11 1.961695 1_555
Al5 O36 1.815032 1_555
Al5 O41 1.817448 1_555
Al5 O69 1.909307 1_555
Al5 O83 1.917550 1_555
Al5 O9 1.924340 1_555
Al5 O23 1.956316 1_555
Al6 O47 1.816306 1_656
Al6 O42 1.816870 1_555
Al6 O74 1.852761 1_555
Al6 O60 1.853263 1_656
Al6 O14 1.930395 1_556
Al6 O0 1.949942 1_655
Al7 O45 1.807060 1_556
Al7 O43 1.815147 1_555
Al7 O61 1.848902 1_556
Al7 O72 1.891085 1_555
Al7 O1 1.952771 1_555
Al7 O12 1.953208 1_556
Al8 O44 1.804715 1_555
Al8 O46 1.807833 1_556
Al8 O62 1.850158 1_556
Al8 O2 1.897118 1_555
Al8 O73 1.919016 1_555
Al8 O13 1.985374 1_556
Al9 O45 1.811392 1_455
Al9 O43 1.818420 1_554
Al9 O76 1.864924 1_555
Al9 O63 1.881048 1_554
Al9 O16 1.911440 1_554
Al9 O3 1.938585 1_555
Al10 O46 1.806718 1_555
Al10 O44 1.814048 1_654
Al10 O64 1.848424 1_554
Al10 O4 1.892487 1_555
Al10 O77 1.914361 1_555
Al10 O17 1.961694 1_554
Al11 O47 1.815026 1_555
Al11 O42 1.817441 1_554
Al11 O75 1.909307 1_555
Al11 O65 1.917550 1_554
Al11 O15 1.924338 1_554
Al11 O5 1.956314 1_555
Fe0 O79 1.942407 1_555
Fe0 O61 1.942407 1_555
Fe0 O33 2.126421 1_555
Fe0 O25 2.126427 1_555
Fe0 O49 2.175891 1_555
Fe0 O57 2.175897 1_555
Fe1 O80 1.926222 1_555
Fe1 O62 1.926222 1_555
Fe1 O34 2.189728 1_555
Fe1 O26 2.189734 1_555
Fe1 O58 2.221213 1_555
Fe1 O50 2.221224 1_555
Fe2 O60 1.937200 1_555
Fe2 O78 1.937201 1_555
Fe2 O24 2.134088 1_455
Fe2 O35 2.134099 1_555
Fe2 O48 2.185262 1_455
Fe2 O59 2.185268 1_555
Fe3 O64 1.931034 1_555
Fe3 O82 1.931034 1_555
Fe3 O28 2.187706 1_555
Fe3 O32 2.187712 1_655
Fe3 O56 2.209457 1_655
Fe3 O52 2.209462 1_555
O0 P5 1.543785 1_555
O1 P3 1.541490 1_555
O2 P4 1.530641 1_555
O3 P1 1.547491 1_555
O4 P2 1.536314 1_655
O5 P0 1.543854 1_555
O6 P9 1.540866 1_555
O7 P10 1.557466 1_555
O8 P11 1.530488 1_555
O9 P6 1.535638 1_555
O10 P7 1.530621 1_555
O11 P8 1.563151 1_655
O12 P1 1.540866 1_555
O13 P2 1.557466 1_555
O14 P0 1.530488 1_555
O15 P5 1.535638 1_555
O16 P3 1.530621 1_455
O17 P4 1.563151 1_555
O18 P6 1.543785 1_555
O19 P7 1.541490 1_555
O20 P8 1.530641 1_555
O21 P9 1.547492 1_455
O22 P10 1.536314 1_555
O23 P11 1.543854 1_555
O24 P9 1.566322 1_555
O25 P10 1.562573 1_565
O26 P11 1.585444 1_555
O27 P6 1.565079 1_555
O28 P7 1.582168 1_545
O29 P8 1.560270 1_555
O30 P4 1.560270 1_555
O31 P5 1.565079 1_555
O32 P3 1.582169 1_445
O33 P2 1.562572 1_665
O34 P0 1.585444 1_555
O35 P1 1.566322 1_555
O48 P0 1.577959 1_555
O49 P1 1.575554 1_555
O50 P2 1.583406 1_555
O51 P3 1.577127 1_555
O52 P4 1.584625 1_555
O53 P5 1.579703 1_555
O54 P6 1.579703 1_555
O55 P7 1.577127 1_555
O56 P8 1.584625 1_555
O57 P9 1.575554 1_555
O58 P10 1.583406 1_555
O59 P11 1.577959 1_555
