# generated using pymatgen
data_Si2H2O3
_symmetry_space_group_name_H-M   'P 1'
_cell_length_a   14.97687711
_cell_length_b   15.80542392
_cell_length_c   21.23583753
_cell_angle_alpha   90.00000000
_cell_angle_beta   90.00000000
_cell_angle_gamma   90.00000000
_symmetry_Int_Tables_number   1
_chemical_formula_structural   Si2H2O3
_chemical_formula_sum   'Si96 H96 O144'
_cell_volume   5026.86021736
_cell_formula_units_Z   48
loop_
 _symmetry_equiv_pos_site_id
 _symmetry_equiv_pos_as_xyz
  1  'x, y, z'
loop_
 _atom_site_type_symbol
 _atom_site_label
 _atom_site_symmetry_multiplicity
 _atom_site_fract_x
 _atom_site_fract_y
 _atom_site_fract_z
 _atom_site_occupancy
  Si  Si0  1  0.39897719  0.66398957  0.51976720  1
  Si  Si1  1  0.89897719  0.33601043  0.98023280  1
  Si  Si2  1  0.60102281  0.83601043  0.01976720  1
  Si  Si3  1  0.10102281  0.16398957  0.48023280  1
  Si  Si4  1  0.60102281  0.33601043  0.48023280  1
  Si  Si5  1  0.10102281  0.66398957  0.01976720  1
  Si  Si6  1  0.39897719  0.16398957  0.98023280  1
  Si  Si7  1  0.89897719  0.83601043  0.51976720  1
  Si  Si8  1  0.35691135  0.71574241  0.76856029  1
  Si  Si9  1  0.85691135  0.28425759  0.73143971  1
  Si  Si10  1  0.64308865  0.78425759  0.26856029  1
  Si  Si11  1  0.14308865  0.21574241  0.23143971  1
  Si  Si12  1  0.64308865  0.28425759  0.23143971  1
  Si  Si13  1  0.14308865  0.71574241  0.26856029  1
  Si  Si14  1  0.35691135  0.21574241  0.73143971  1
  Si  Si15  1  0.85691135  0.78425759  0.76856029  1
  Si  Si16  1  0.40042689  0.52308387  0.74300491  1
  Si  Si17  1  0.90042689  0.47691613  0.75699509  1
  Si  Si18  1  0.59957311  0.97691613  0.24300491  1
  Si  Si19  1  0.09957311  0.02308387  0.25699509  1
  Si  Si20  1  0.59957311  0.47691613  0.25699509  1
  Si  Si21  1  0.09957311  0.52308387  0.24300491  1
  Si  Si22  1  0.40042689  0.02308387  0.75699509  1
  Si  Si23  1  0.90042689  0.97691613  0.74300491  1
  Si  Si24  1  0.45216633  0.49817209  0.59799971  1
  Si  Si25  1  0.95216633  0.50182791  0.90200029  1
  Si  Si26  1  0.54783367  0.00182791  0.09799971  1
  Si  Si27  1  0.04783367  0.99817209  0.40200029  1
  Si  Si28  1  0.54783367  0.50182791  0.40200029  1
  Si  Si29  1  0.04783367  0.49817209  0.09799971  1
  Si  Si30  1  0.45216633  0.99817209  0.90200029  1
  Si  Si31  1  0.95216633  0.00182791  0.59799971  1
  Si  Si32  1  0.19389849  0.47864807  0.75755875  1
  Si  Si33  1  0.69389849  0.52135193  0.74244125  1
  Si  Si34  1  0.80610151  0.02135193  0.25755875  1
  Si  Si35  1  0.30610151  0.97864807  0.24244125  1
  Si  Si36  1  0.80610151  0.52135193  0.24244125  1
  Si  Si37  1  0.30610151  0.47864807  0.25755875  1
  Si  Si38  1  0.19389849  0.97864807  0.74244125  1
  Si  Si39  1  0.69389849  0.02135193  0.75755875  1
  Si  Si40  1  0.28727365  0.40013986  0.53911783  1
  Si  Si41  1  0.78727365  0.59986014  0.96088217  1
  Si  Si42  1  0.71272635  0.09986014  0.03911783  1
  Si  Si43  1  0.21272635  0.90013986  0.46088217  1
  Si  Si44  1  0.71272635  0.59986014  0.46088217  1
  Si  Si45  1  0.21272635  0.40013986  0.03911783  1
  Si  Si46  1  0.28727365  0.90013986  0.96088217  1
  Si  Si47  1  0.78727365  0.09986014  0.53911783  1
  Si  Si48  1  0.11067271  0.74619029  0.64712868  1
  Si  Si49  1  0.61067271  0.25380971  0.85287132  1
  Si  Si50  1  0.88932729  0.75380971  0.14712868  1
  Si  Si51  1  0.38932729  0.24619029  0.35287132  1
  Si  Si52  1  0.88932729  0.25380971  0.35287132  1
  Si  Si53  1  0.38932729  0.74619029  0.14712868  1
  Si  Si54  1  0.11067271  0.24619029  0.85287132  1
  Si  Si55  1  0.61067271  0.75380971  0.64712868  1
  Si  Si56  1  0.32147448  0.78199435  0.63057743  1
  Si  Si57  1  0.82147448  0.21800565  0.86942257  1
  Si  Si58  1  0.67852552  0.71800565  0.13057743  1
  Si  Si59  1  0.17852552  0.28199435  0.36942257  1
  Si  Si60  1  0.67852552  0.21800565  0.36942257  1
  Si  Si61  1  0.17852552  0.78199435  0.13057743  1
  Si  Si62  1  0.32147448  0.28199435  0.86942257  1
  Si  Si63  1  0.82147448  0.71800565  0.63057743  1
  Si  Si64  1  0.15080584  0.67561428  0.78065617  1
  Si  Si65  1  0.65080584  0.32438572  0.71934383  1
  Si  Si66  1  0.84919416  0.82438572  0.28065617  1
  Si  Si67  1  0.34919416  0.17561428  0.21934383  1
  Si  Si68  1  0.84919416  0.32438572  0.21934383  1
  Si  Si69  1  0.34919416  0.67561428  0.28065617  1
  Si  Si70  1  0.15080584  0.17561428  0.71934383  1
  Si  Si71  1  0.65080584  0.82438572  0.78065617  1
  Si  Si72  1  0.23090757  0.56730395  0.46526478  1
  Si  Si73  1  0.73090757  0.43269605  0.03473522  1
  Si  Si74  1  0.76909243  0.93269605  0.96526478  1
  Si  Si75  1  0.26909243  0.06730395  0.53473522  1
  Si  Si76  1  0.76909243  0.43269605  0.53473522  1
  Si  Si77  1  0.26909243  0.56730395  0.96526478  1
  Si  Si78  1  0.23090757  0.06730395  0.03473522  1
  Si  Si79  1  0.73090757  0.93269605  0.46526478  1
  Si  Si80  1  0.11552379  0.41634052  0.62656027  1
  Si  Si81  1  0.61552379  0.58365948  0.87343973  1
  Si  Si82  1  0.88447621  0.08365948  0.12656027  1
  Si  Si83  1  0.38447621  0.91634052  0.37343973  1
  Si  Si84  1  0.88447621  0.58365948  0.37343973  1
  Si  Si85  1  0.38447621  0.41634052  0.12656027  1
  Si  Si86  1  0.11552379  0.91634052  0.87343973  1
  Si  Si87  1  0.61552379  0.08365948  0.62656027  1
  Si  Si88  1  0.06344714  0.59030380  0.55659554  1
  Si  Si89  1  0.56344714  0.40969620  0.94340446  1
  Si  Si90  1  0.93655286  0.90969620  0.05659554  1
  Si  Si91  1  0.43655286  0.09030380  0.44340446  1
  Si  Si92  1  0.93655286  0.40969620  0.44340446  1
  Si  Si93  1  0.43655286  0.59030380  0.05659554  1
  Si  Si94  1  0.06344714  0.09030380  0.94340446  1
  Si  Si95  1  0.56344714  0.90969620  0.55659554  1
  H  H0  1  0.46381104  0.70320799  0.47656667  1
  H  H1  1  0.96381104  0.29679201  0.02343333  1
  H  H2  1  0.53618896  0.79679201  0.97656667  1
  H  H3  1  0.03618896  0.20320799  0.52343333  1
  H  H4  1  0.53618896  0.29679201  0.52343333  1
  H  H5  1  0.03618896  0.70320799  0.97656667  1
  H  H6  1  0.46381104  0.20320799  0.02343333  1
  H  H7  1  0.96381104  0.79679201  0.47656667  1
  H  H8  1  0.40746725  0.76943671  0.81287830  1
  H  H9  1  0.90746725  0.23056329  0.68712170  1
  H  H10  1  0.59253275  0.73056329  0.31287830  1
  H  H11  1  0.09253275  0.26943671  0.18712170  1
  H  H12  1  0.59253275  0.23056329  0.18712170  1
  H  H13  1  0.09253275  0.76943671  0.31287830  1
  H  H14  1  0.40746725  0.26943671  0.68712170  1
  H  H15  1  0.90746725  0.73056329  0.81287830  1
  H  H16  1  0.45861509  0.47093478  0.78311378  1
  H  H17  1  0.95861509  0.52906522  0.71688622  1
  H  H18  1  0.54138491  0.02906522  0.28311378  1
  H  H19  1  0.04138491  0.97093478  0.21688622  1
  H  H20  1  0.54138491  0.52906522  0.21688622  1
  H  H21  1  0.04138491  0.47093478  0.28311378  1
  H  H22  1  0.45861509  0.97093478  0.71688622  1
  H  H23  1  0.95861509  0.02906522  0.78311378  1
  H  H24  1  0.54085021  0.45968683  0.58999040  1
  H  H25  1  0.04085021  0.54031317  0.91000960  1
  H  H26  1  0.45914979  0.04031317  0.08999040  1
  H  H27  1  0.95914979  0.95968683  0.41000960  1
  H  H28  1  0.45914979  0.54031317  0.41000960  1
  H  H29  1  0.95914979  0.45968683  0.08999040  1
  H  H30  1  0.54085021  0.95968683  0.91000960  1
  H  H31  1  0.04085021  0.04031317  0.58999040  1
  H  H32  1  0.18024943  0.43079040  0.81608051  1
  H  H33  1  0.68024943  0.56920960  0.68391949  1
  H  H34  1  0.81975057  0.06920960  0.31608051  1
  H  H35  1  0.31975057  0.93079040  0.18391949  1
  H  H36  1  0.81975057  0.56920960  0.18391949  1
  H  H37  1  0.31975057  0.43079040  0.31608051  1
  H  H38  1  0.18024943  0.93079040  0.68391949  1
  H  H39  1  0.68024943  0.06920960  0.81608051  1
  H  H40  1  0.30624486  0.31956840  0.50672662  1
  H  H41  1  0.80624486  0.68043160  0.99327338  1
  H  H42  1  0.69375514  0.18043160  0.00672662  1
  H  H43  1  0.19375514  0.81956840  0.49327338  1
  H  H44  1  0.69375514  0.68043160  0.49327338  1
  H  H45  1  0.19375514  0.31956840  0.00672662  1
  H  H46  1  0.30624486  0.81956840  0.99327338  1
  H  H47  1  0.80624486  0.18043160  0.50672662  1
  H  H48  1  0.06421356  0.82635049  0.63458730  1
  H  H49  1  0.56421356  0.17364951  0.86541270  1
  H  H50  1  0.93578644  0.67364951  0.13458730  1
  H  H51  1  0.43578644  0.32635049  0.36541270  1
  H  H52  1  0.93578644  0.17364951  0.36541270  1
  H  H53  1  0.43578644  0.82635049  0.13458730  1
  H  H54  1  0.06421356  0.32635049  0.86541270  1
  H  H55  1  0.56421356  0.67364951  0.63458730  1
  H  H56  1  0.33088197  0.87401283  0.62229869  1
  H  H57  1  0.83088197  0.12598717  0.87770131  1
  H  H58  1  0.66911803  0.62598717  0.12229869  1
  H  H59  1  0.16911803  0.37401283  0.37770131  1
  H  H60  1  0.66911803  0.12598717  0.37770131  1
  H  H61  1  0.16911803  0.87401283  0.12229869  1
  H  H62  1  0.33088197  0.37401283  0.87770131  1
  H  H63  1  0.83088197  0.62598717  0.62229869  1
  H  H64  1  0.09879033  0.69014728  0.83856497  1
  H  H65  1  0.59879033  0.30985272  0.66143503  1
  H  H66  1  0.90120967  0.80985272  0.33856497  1
  H  H67  1  0.40120967  0.19014728  0.16143503  1
  H  H68  1  0.90120967  0.30985272  0.16143503  1
  H  H69  1  0.40120967  0.69014728  0.33856497  1
  H  H70  1  0.09879033  0.19014728  0.66143503  1
  H  H71  1  0.59879033  0.80985272  0.83856497  1
  H  H72  1  0.21259564  0.56701846  0.39699269  1
  H  H73  1  0.71259564  0.43298154  0.10300731  1
  H  H74  1  0.78740436  0.93298154  0.89699269  1
  H  H75  1  0.28740436  0.06701846  0.60300731  1
  H  H76  1  0.78740436  0.43298154  0.60300731  1
  H  H77  1  0.28740436  0.56701846  0.89699269  1
  H  H78  1  0.21259564  0.06701846  0.10300731  1
  H  H79  1  0.71259564  0.93298154  0.39699269  1
  H  H80  1  0.04629708  0.35056724  0.62179039  1
  H  H81  1  0.54629708  0.64943276  0.87820961  1
  H  H82  1  0.95370292  0.14943276  0.12179039  1
  H  H83  1  0.45370292  0.85056724  0.37820961  1
  H  H84  1  0.95370292  0.64943276  0.37820961  1
  H  H85  1  0.45370292  0.35056724  0.12179039  1
  H  H86  1  0.04629708  0.85056724  0.87820961  1
  H  H87  1  0.54629708  0.14943276  0.62179039  1
  H  H88  1  0.97529919  0.58815696  0.52598401  1
  H  H89  1  0.47529919  0.41184304  0.97401599  1
  H  H90  1  0.02470081  0.91184304  0.02598401  1
  H  H91  1  0.52470081  0.08815696  0.47401599  1
  H  H92  1  0.02470081  0.41184304  0.47401599  1
  H  H93  1  0.52470081  0.58815696  0.02598401  1
  H  H94  1  0.97529919  0.08815696  0.97401599  1
  H  H95  1  0.47529919  0.91184304  0.52598401  1
  O  O0  1  0.10023905  0.72184253  0.72170946  1
  O  O1  1  0.60023905  0.27815747  0.77829054  1
  O  O2  1  0.89976095  0.77815747  0.22170946  1
  O  O3  1  0.39976095  0.22184253  0.27829054  1
  O  O4  1  0.89976095  0.27815747  0.27829054  1
  O  O5  1  0.39976095  0.72184253  0.22170946  1
  O  O6  1  0.10023905  0.22184253  0.77829054  1
  O  O7  1  0.60023905  0.77815747  0.72170946  1
  O  O8  1  0.31099824  0.63478951  0.47955177  1
  O  O9  1  0.81099824  0.36521049  0.02044823  1
  O  O10  1  0.68900176  0.86521049  0.97955177  1
  O  O11  1  0.18900176  0.13478951  0.52044823  1
  O  O12  1  0.68900176  0.36521049  0.52044823  1
  O  O13  1  0.18900176  0.63478951  0.97955177  1
  O  O14  1  0.31099824  0.13478951  0.02044823  1
  O  O15  1  0.81099824  0.86521049  0.47955177  1
  O  O16  1  0.39721755  0.61957835  0.77062231  1
  O  O17  1  0.89721755  0.38042165  0.72937769  1
  O  O18  1  0.60278245  0.88042165  0.27062231  1
  O  O19  1  0.10278245  0.11957835  0.22937769  1
  O  O20  1  0.60278245  0.38042165  0.22937769  1
  O  O21  1  0.10278245  0.61957835  0.27062231  1
  O  O22  1  0.39721755  0.11957835  0.72937769  1
  O  O23  1  0.89721755  0.88042165  0.77062231  1
  O  O24  1  0.14075004  0.43105696  0.70062489  1
  O  O25  1  0.64075004  0.56894304  0.79937511  1
  O  O26  1  0.85924996  0.06894304  0.20062489  1
  O  O27  1  0.35924996  0.93105696  0.29937511  1
  O  O28  1  0.85924996  0.56894304  0.29937511  1
  O  O29  1  0.35924996  0.43105696  0.20062489  1
  O  O30  1  0.14075004  0.93105696  0.79937511  1
  O  O31  1  0.64075004  0.06894304  0.70062489  1
  O  O32  1  0.21625102  0.75616759  0.63010039  1
  O  O33  1  0.71625102  0.24383241  0.86989961  1
  O  O34  1  0.78374898  0.74383241  0.13010039  1
  O  O35  1  0.28374898  0.25616759  0.36989961  1
  O  O36  1  0.78374898  0.24383241  0.36989961  1
  O  O37  1  0.28374898  0.75616759  0.13010039  1
  O  O38  1  0.21625102  0.25616759  0.86989961  1
  O  O39  1  0.71625102  0.74383241  0.63010039  1
  O  O40  1  0.37576265  0.42926403  0.57844033  1
  O  O41  1  0.87576265  0.57073597  0.92155967  1
  O  O42  1  0.62423735  0.07073597  0.07844033  1
  O  O43  1  0.12423735  0.92926403  0.42155967  1
  O  O44  1  0.62423735  0.57073597  0.42155967  1
  O  O45  1  0.12423735  0.42926403  0.07844033  1
  O  O46  1  0.37576265  0.92926403  0.92155967  1
  O  O47  1  0.87576265  0.07073597  0.57844033  1
  O  O48  1  0.30047253  0.48183754  0.74185831  1
  O  O49  1  0.80047253  0.51816246  0.75814169  1
  O  O50  1  0.69952747  0.01816246  0.24185831  1
  O  O51  1  0.19952747  0.98183754  0.25814169  1
  O  O52  1  0.69952747  0.51816246  0.25814169  1
  O  O53  1  0.19952747  0.48183754  0.24185831  1
  O  O54  1  0.30047253  0.98183754  0.75814169  1
  O  O55  1  0.80047253  0.01816246  0.74185831  1
  O  O56  1  0.44537208  0.58139721  0.55264185  1
  O  O57  1  0.94537208  0.41860279  0.94735815  1
  O  O58  1  0.55462792  0.91860279  0.05264185  1
  O  O59  1  0.05462792  0.08139721  0.44735815  1
  O  O60  1  0.55462792  0.41860279  0.44735815  1
  O  O61  1  0.05462792  0.58139721  0.05264185  1
  O  O62  1  0.44537208  0.08139721  0.94735815  1
  O  O63  1  0.94537208  0.91860279  0.55264185  1
  O  O64  1  0.20368474  0.38616092  0.58724253  1
  O  O65  1  0.70368474  0.61383908  0.91275747  1
  O  O66  1  0.79631526  0.11383908  0.08724253  1
  O  O67  1  0.29631526  0.88616092  0.41275747  1
  O  O68  1  0.79631526  0.61383908  0.41275747  1
  O  O69  1  0.29631526  0.38616092  0.08724253  1
  O  O70  1  0.20368474  0.88616092  0.91275747  1
  O  O71  1  0.70368474  0.11383908  0.58724253  1
  O  O72  1  0.25150510  0.71430257  0.78936108  1
  O  O73  1  0.75150510  0.28569743  0.71063892  1
  O  O74  1  0.74849490  0.78569743  0.28936108  1
  O  O75  1  0.24849490  0.21430257  0.21063892  1
  O  O76  1  0.74849490  0.28569743  0.21063892  1
  O  O77  1  0.24849490  0.71430257  0.28936108  1
  O  O78  1  0.25150510  0.21430257  0.71063892  1
  O  O79  1  0.75150510  0.78569743  0.78936108  1
  O  O80  1  0.14041682  0.59635773  0.50223641  1
  O  O81  1  0.64041682  0.40364227  0.99776359  1
  O  O82  1  0.85958318  0.90364227  0.00223641  1
  O  O83  1  0.35958318  0.09635773  0.49776359  1
  O  O84  1  0.85958318  0.40364227  0.49776359  1
  O  O85  1  0.35958318  0.59635773  0.00223641  1
  O  O86  1  0.14041682  0.09635773  0.99776359  1
  O  O87  1  0.64041682  0.90364227  0.50223641  1
  O  O88  1  0.26143395  0.47240918  0.48697460  1
  O  O89  1  0.76143395  0.52759082  0.01302540  1
  O  O90  1  0.73856605  0.02759082  0.98697460  1
  O  O91  1  0.23856605  0.97240918  0.51302540  1
  O  O92  1  0.73856605  0.52759082  0.51302540  1
  O  O93  1  0.23856605  0.47240918  0.98697460  1
  O  O94  1  0.26143395  0.97240918  0.01302540  1
  O  O95  1  0.76143395  0.02759082  0.48697460  1
  O  O96  1  0.15588584  0.57422845  0.76718394  1
  O  O97  1  0.65588584  0.42577155  0.73281606  1
  O  O98  1  0.84411416  0.92577155  0.26718394  1
  O  O99  1  0.34411416  0.07422845  0.23281606  1
  O  O100  1  0.84411416  0.42577155  0.23281606  1
  O  O101  1  0.34411416  0.57422845  0.26718394  1
  O  O102  1  0.15588584  0.07422845  0.73281606  1
  O  O103  1  0.65588584  0.92577155  0.76718394  1
  O  O104  1  0.07658106  0.50389306  0.59699762  1
  O  O105  1  0.57658106  0.49610694  0.90300238  1
  O  O106  1  0.92341894  0.99610694  0.09699762  1
  O  O107  1  0.42341894  0.00389306  0.40300238  1
  O  O108  1  0.92341894  0.49610694  0.40300238  1
  O  O109  1  0.42341894  0.50389306  0.09699762  1
  O  O110  1  0.07658106  0.00389306  0.90300238  1
  O  O111  1  0.57658106  0.99610694  0.59699762  1
  O  O112  1  0.36678074  0.75415395  0.69741698  1
  O  O113  1  0.86678074  0.24584605  0.80258302  1
  O  O114  1  0.63321926  0.74584605  0.19741698  1
  O  O115  1  0.13321926  0.25415395  0.30258302  1
  O  O116  1  0.63321926  0.24584605  0.30258302  1
  O  O117  1  0.13321926  0.75415395  0.19741698  1
  O  O118  1  0.36678074  0.25415395  0.80258302  1
  O  O119  1  0.86678074  0.74584605  0.69741698  1
  O  O120  1  0.06722109  0.67180635  0.60340277  1
  O  O121  1  0.56722109  0.32819365  0.89659723  1
  O  O122  1  0.93277891  0.82819365  0.10340277  1
  O  O123  1  0.43277891  0.17180635  0.39659723  1
  O  O124  1  0.93277891  0.32819365  0.39659723  1
  O  O125  1  0.43277891  0.67180635  0.10340277  1
  O  O126  1  0.06722109  0.17180635  0.89659723  1
  O  O127  1  0.56722109  0.82819365  0.60340277  1
  O  O128  1  0.37125990  0.73365721  0.57268202  1
  O  O129  1  0.87125990  0.26634279  0.92731798  1
  O  O130  1  0.62874010  0.76634279  0.07268202  1
  O  O131  1  0.12874010  0.23365721  0.42731798  1
  O  O132  1  0.62874010  0.26634279  0.42731798  1
  O  O133  1  0.12874010  0.73365721  0.07268202  1
  O  O134  1  0.37125990  0.23365721  0.92731798  1
  O  O135  1  0.87125990  0.76634279  0.57268202  1
  O  O136  1  0.44058171  0.52463201  0.67162995  1
  O  O137  1  0.94058171  0.47536799  0.82837005  1
  O  O138  1  0.55941829  0.97536799  0.17162995  1
  O  O139  1  0.05941829  0.02463201  0.32837005  1
  O  O140  1  0.55941829  0.47536799  0.32837005  1
  O  O141  1  0.05941829  0.52463201  0.17162995  1
  O  O142  1  0.44058171  0.02463201  0.82837005  1
  O  O143  1  0.94058171  0.97536799  0.67162995  1
loop_
_geom_bond_atom_site_label_1
_geom_bond_atom_site_label_2
_geom_bond_distance
_geom_bond_site_symmetry_2
H0 Si0 1.472654 1_555
H1 Si1 1.472654 1_554
H2 Si2 1.472654 1_556
H3 Si3 1.472654 1_555
H4 Si4 1.472654 1_555
H5 Si5 1.472654 1_556
H6 Si6 1.472654 1_554
H7 Si7 1.472654 1_555
H8 Si8 1.476231 1_555
H9 Si9 1.476231 1_555
H10 Si10 1.476231 1_555
H11 Si11 1.476231 1_555
H12 Si12 1.476231 1_555
H13 Si13 1.476231 1_555
H14 Si14 1.476231 1_555
H15 Si15 1.476231 1_555
H16 Si16 1.471160 1_555
H17 Si17 1.471160 1_555
H18 Si18 1.471160 1_545
H19 Si19 1.471160 1_565
H20 Si20 1.471160 1_555
H21 Si21 1.471160 1_555
H22 Si22 1.471160 1_565
H23 Si23 1.471160 1_545
H24 Si24 1.470736 1_555
H25 Si25 1.470736 1_455
H26 Si26 1.470736 1_555
H27 Si27 1.470736 1_655
H28 Si28 1.470736 1_555
H29 Si29 1.470736 1_655
H30 Si30 1.470736 1_555
H31 Si31 1.470736 1_455
H32 Si32 1.469147 1_555
H33 Si33 1.469147 1_555
H34 Si34 1.469147 1_555
H35 Si35 1.469147 1_555
H36 Si36 1.469147 1_555
H37 Si37 1.469147 1_555
H38 Si38 1.469147 1_555
H39 Si39 1.469147 1_555
H40 Si40 1.474988 1_555
H41 Si41 1.474988 1_555
H42 Si42 1.474988 1_555
H43 Si43 1.474988 1_555
H44 Si44 1.474988 1_555
H45 Si45 1.474988 1_555
H46 Si46 1.474988 1_555
H47 Si47 1.474988 1_555
H48 Si48 1.469792 1_555
H49 Si49 1.469792 1_555
H50 Si50 1.469792 1_555
H51 Si51 1.469792 1_555
H52 Si52 1.469792 1_555
H53 Si53 1.469792 1_555
H54 Si54 1.469792 1_555
H55 Si55 1.469792 1_555
H56 Si56 1.471738 1_555
H57 Si57 1.471738 1_555
H58 Si58 1.471738 1_555
H59 Si59 1.471738 1_555
H60 Si60 1.471738 1_555
H61 Si61 1.471738 1_555
H62 Si62 1.471738 1_555
H63 Si63 1.471738 1_555
H64 Si64 1.473742 1_555
H65 Si65 1.473742 1_555
H66 Si66 1.473742 1_555
H67 Si67 1.473742 1_555
H68 Si68 1.473742 1_555
H69 Si69 1.473742 1_555
H70 Si70 1.473742 1_555
H71 Si71 1.473742 1_555
H72 Si72 1.475534 1_555
H73 Si73 1.475534 1_555
H74 Si74 1.475534 1_555
H75 Si75 1.475534 1_555
H76 Si76 1.475534 1_555
H77 Si77 1.475534 1_555
H78 Si78 1.475534 1_555
H79 Si79 1.475534 1_555
H80 Si80 1.471710 1_555
H81 Si81 1.471710 1_555
H82 Si82 1.471710 1_555
H83 Si83 1.471710 1_555
H84 Si84 1.471710 1_555
H85 Si85 1.471710 1_555
H86 Si86 1.471710 1_555
H87 Si87 1.471710 1_555
H88 Si88 1.471941 1_655
H89 Si89 1.471941 1_555
H90 Si90 1.471941 1_455
H91 Si91 1.471941 1_555
H92 Si92 1.471941 1_455
H93 Si93 1.471941 1_555
H94 Si94 1.471941 1_655
H95 Si95 1.471941 1_555
O0 Si64 1.635351 1_555
O0 Si48 1.637341 1_555
O1 Si65 1.635351 1_555
O1 Si49 1.637341 1_555
O2 Si66 1.635351 1_555
O2 Si50 1.637341 1_555
O3 Si67 1.635351 1_555
O3 Si51 1.637341 1_555
O4 Si68 1.635351 1_555
O4 Si52 1.637341 1_555
O5 Si69 1.635351 1_555
O5 Si53 1.637341 1_555
O6 Si70 1.635351 1_555
O6 Si54 1.637341 1_555
O7 Si71 1.635351 1_555
O7 Si55 1.637341 1_555
O8 Si72 1.633581 1_555
O8 Si0 1.636622 1_555
O9 Si73 1.633581 1_555
O9 Si1 1.636622 1_554
O10 Si74 1.633581 1_555
O10 Si2 1.636622 1_556
O11 Si75 1.633581 1_555
O11 Si3 1.636622 1_555
O12 Si76 1.633581 1_555
O12 Si4 1.636622 1_555
O13 Si77 1.633581 1_555
O13 Si5 1.636622 1_556
O14 Si78 1.633581 1_555
O14 Si6 1.636622 1_554
O15 Si79 1.633581 1_555
O15 Si7 1.636622 1_555
O16 Si16 1.634719 1_555
O16 Si8 1.635990 1_555
O17 Si17 1.634719 1_555
O17 Si9 1.635990 1_555
O18 Si18 1.634719 1_555
O18 Si10 1.635990 1_555
O19 Si19 1.634719 1_555
O19 Si11 1.635990 1_555
O20 Si20 1.634719 1_555
O20 Si12 1.635990 1_555
O21 Si21 1.634719 1_555
O21 Si13 1.635990 1_555
O22 Si22 1.634719 1_555
O22 Si14 1.635990 1_555
O23 Si23 1.634719 1_555
O23 Si15 1.635990 1_555
O24 Si32 1.631315 1_555
O24 Si80 1.634203 1_555
O25 Si33 1.631315 1_555
O25 Si81 1.634203 1_555
O26 Si34 1.631315 1_555
O26 Si82 1.634203 1_555
O27 Si35 1.631315 1_555
O27 Si83 1.634203 1_555
O28 Si36 1.631315 1_555
O28 Si84 1.634203 1_555
O29 Si37 1.631315 1_555
O29 Si85 1.634203 1_555
O30 Si38 1.631315 1_555
O30 Si86 1.634203 1_555
O31 Si39 1.631315 1_555
O31 Si87 1.634203 1_555
O32 Si56 1.627960 1_555
O32 Si48 1.629702 1_555
O33 Si57 1.627960 1_555
O33 Si49 1.629702 1_555
O34 Si58 1.627960 1_555
O34 Si50 1.629702 1_555
O35 Si59 1.627960 1_555
O35 Si51 1.629702 1_555
O36 Si60 1.627960 1_555
O36 Si52 1.629702 1_555
O37 Si61 1.627960 1_555
O37 Si53 1.629702 1_555
O38 Si62 1.627960 1_555
O38 Si54 1.629702 1_555
O39 Si63 1.627960 1_555
O39 Si55 1.629702 1_555
O40 Si40 1.632663 1_555
O40 Si24 1.633433 1_555
O41 Si41 1.632663 1_555
O41 Si25 1.633433 1_555
O42 Si42 1.632663 1_555
O42 Si26 1.633433 1_555
O43 Si43 1.632663 1_555
O43 Si27 1.633433 1_555
O44 Si44 1.632663 1_555
O44 Si28 1.633433 1_555
O45 Si45 1.632663 1_555
O45 Si29 1.633433 1_555
O46 Si46 1.632663 1_555
O46 Si30 1.633433 1_555
O47 Si47 1.632663 1_555
O47 Si31 1.633433 1_555
O48 Si32 1.631376 1_555
O48 Si16 1.632975 1_555
O49 Si33 1.631376 1_555
O49 Si17 1.632975 1_555
O50 Si34 1.631376 1_555
O50 Si18 1.632975 1_545
O51 Si35 1.631376 1_555
O51 Si19 1.632975 1_565
O52 Si36 1.631376 1_555
O52 Si20 1.632975 1_555
O53 Si37 1.631376 1_555
O53 Si21 1.632975 1_555
O54 Si38 1.631376 1_555
O54 Si22 1.632975 1_565
O55 Si39 1.631376 1_555
O55 Si23 1.632975 1_545
O56 Si24 1.633533 1_555
O56 Si0 1.635322 1_555
O57 Si25 1.633533 1_555
O57 Si1 1.635322 1_555
O58 Si26 1.633533 1_565
O58 Si2 1.635322 1_555
O59 Si27 1.633533 1_545
O59 Si3 1.635322 1_555
O60 Si28 1.633533 1_555
O60 Si4 1.635322 1_555
O61 Si29 1.633533 1_555
O61 Si5 1.635322 1_555
O62 Si30 1.633533 1_545
O62 Si6 1.635322 1_555
O63 Si31 1.633533 1_565
O63 Si7 1.635322 1_555
O64 Si40 1.631101 1_555
O64 Si80 1.633418 1_555
O65 Si41 1.631101 1_555
O65 Si81 1.633418 1_555
O66 Si42 1.631101 1_555
O66 Si82 1.633418 1_555
O67 Si43 1.631101 1_555
O67 Si83 1.633418 1_555
O68 Si44 1.631101 1_555
O68 Si84 1.633418 1_555
O69 Si45 1.631101 1_555
O69 Si85 1.633418 1_555
O70 Si46 1.631101 1_555
O70 Si86 1.633418 1_555
O71 Si47 1.631101 1_555
O71 Si87 1.633418 1_555
O72 Si64 1.637875 1_555
O72 Si8 1.639449 1_555
O73 Si65 1.637875 1_555
O73 Si9 1.639449 1_555
O74 Si66 1.637875 1_555
O74 Si10 1.639449 1_555
O75 Si67 1.637875 1_555
O75 Si11 1.639449 1_555
O76 Si68 1.637875 1_555
O76 Si12 1.639449 1_555
O77 Si69 1.637875 1_555
O77 Si13 1.639449 1_555
O78 Si70 1.637875 1_555
O78 Si14 1.639449 1_555
O79 Si71 1.637875 1_555
O79 Si15 1.639449 1_555
O80 Si72 1.632190 1_555
O80 Si88 1.634189 1_555
O81 Si73 1.632190 1_556
O81 Si89 1.634189 1_555
O82 Si74 1.632190 1_554
O82 Si90 1.634189 1_555
O83 Si75 1.632190 1_555
O83 Si91 1.634189 1_555
O84 Si76 1.632190 1_555
O84 Si92 1.634189 1_555
O85 Si77 1.632190 1_554
O85 Si93 1.634189 1_555
O86 Si78 1.632190 1_556
O86 Si94 1.634189 1_555
O87 Si79 1.632190 1_555
O87 Si95 1.634189 1_555
O88 Si72 1.634357 1_555
O88 Si40 1.637260 1_555
O89 Si73 1.634357 1_555
O89 Si41 1.637260 1_554
O90 Si74 1.634357 1_545
O90 Si42 1.637260 1_556
O91 Si75 1.634357 1_565
O91 Si43 1.637260 1_555
O92 Si76 1.634357 1_555
O92 Si44 1.637260 1_555
O93 Si77 1.634357 1_555
O93 Si45 1.637260 1_556
O94 Si78 1.634357 1_565
O94 Si46 1.637260 1_554
O95 Si79 1.634357 1_545
O95 Si47 1.637260 1_555
O96 Si32 1.627290 1_555
O96 Si64 1.629562 1_555
O97 Si33 1.627290 1_555
O97 Si65 1.629562 1_555
O98 Si34 1.627290 1_565
O98 Si66 1.629562 1_555
O99 Si35 1.627290 1_545
O99 Si67 1.629562 1_555
O100 Si36 1.627290 1_555
O100 Si68 1.629562 1_555
O101 Si37 1.627290 1_555
O101 Si69 1.629562 1_555
O102 Si38 1.627290 1_545
O102 Si70 1.629562 1_555
O103 Si39 1.627290 1_565
O103 Si71 1.629562 1_555
O104 Si88 1.624840 1_555
O104 Si80 1.627637 1_555
O105 Si89 1.624840 1_555
O105 Si81 1.627637 1_555
O106 Si90 1.624840 1_555
O106 Si82 1.627637 1_565
O107 Si91 1.624840 1_555
O107 Si83 1.627637 1_545
O108 Si92 1.624840 1_555
O108 Si84 1.627637 1_555
O109 Si93 1.624840 1_555
O109 Si85 1.627637 1_555
O110 Si94 1.624840 1_555
O110 Si86 1.627637 1_545
O111 Si95 1.624840 1_555
O111 Si87 1.627637 1_565
O112 Si56 1.633625 1_555
O112 Si8 1.634904 1_555
O113 Si57 1.633625 1_555
O113 Si9 1.634904 1_555
O114 Si58 1.633625 1_555
O114 Si10 1.634904 1_555
O115 Si59 1.633625 1_555
O115 Si11 1.634904 1_555
O116 Si60 1.633625 1_555
O116 Si12 1.634904 1_555
O117 Si61 1.633625 1_555
O117 Si13 1.634904 1_555
O118 Si62 1.633625 1_555
O118 Si14 1.634904 1_555
O119 Si63 1.633625 1_555
O119 Si15 1.634904 1_555
O120 Si88 1.628074 1_555
O120 Si48 1.633376 1_555
O121 Si89 1.628074 1_555
O121 Si49 1.633376 1_555
O122 Si90 1.628074 1_555
O122 Si50 1.633376 1_555
O123 Si91 1.628074 1_555
O123 Si51 1.633376 1_555
O124 Si92 1.628074 1_555
O124 Si52 1.633376 1_555
O125 Si93 1.628074 1_555
O125 Si53 1.633376 1_555
O126 Si94 1.628074 1_555
O126 Si54 1.633376 1_555
O127 Si95 1.628074 1_555
O127 Si55 1.633376 1_555
O128 Si0 1.627109 1_555
O128 Si56 1.628253 1_555
O129 Si1 1.627109 1_555
O129 Si57 1.628253 1_555
O130 Si2 1.627109 1_555
O130 Si58 1.628253 1_555
O131 Si3 1.627109 1_555
O131 Si59 1.628253 1_555
O132 Si4 1.627109 1_555
O132 Si60 1.628253 1_555
O133 Si5 1.627109 1_555
O133 Si61 1.628253 1_555
O134 Si6 1.627109 1_555
O134 Si62 1.628253 1_555
O135 Si7 1.627109 1_555
O135 Si63 1.628253 1_555
O136 Si24 1.627835 1_555
O136 Si16 1.630841 1_555
O137 Si25 1.627835 1_555
O137 Si17 1.630841 1_555
O138 Si26 1.627835 1_565
O138 Si18 1.630841 1_555
O139 Si27 1.627835 1_545
O139 Si19 1.630841 1_555
O140 Si28 1.627835 1_555
O140 Si20 1.630841 1_555
O141 Si29 1.627835 1_555
O141 Si21 1.630841 1_555
O142 Si30 1.627835 1_545
O142 Si22 1.630841 1_555
O143 Si31 1.627835 1_565
O143 Si23 1.630841 1_555
