# generated using pymatgen
data_TeMoWSeS2
_symmetry_space_group_name_H-M   'P 1'
_cell_length_a   3.30566313
_cell_length_b   3.30566313
_cell_length_c   39.29545500
_cell_angle_alpha   90.00000000
_cell_angle_beta   90.00000000
_cell_angle_gamma   119.99998266
_symmetry_Int_Tables_number   1
_chemical_formula_structural   TeMoWSeS2
_chemical_formula_sum   'Te2 Mo2 W2 Se2 S4'
_cell_volume   371.86920737
_cell_formula_units_Z   2
loop_
 _symmetry_equiv_pos_site_id
 _symmetry_equiv_pos_as_xyz
  1  'x, y, z'
loop_
 _atom_site_type_symbol
 _atom_site_label
 _atom_site_symmetry_multiplicity
 _atom_site_fract_x
 _atom_site_fract_y
 _atom_site_fract_z
 _atom_site_occupancy
  Te  Te0  1  0.00000000  0.00000000  0.32954500  1
  Te  Te1  1  0.00000000  0.00000000  0.23217200  1
  Mo  Mo0  1  0.00000000  0.00000000  0.09339700  1
  Mo  Mo1  1  0.33333300  0.66666700  0.28086900  1
  W  W0  1  0.00000000  0.00000000  0.47094000  1
  W  W1  1  0.33333300  0.66666700  0.65775900  1
  Se  Se0  1  0.33333300  0.66666700  0.42789500  1
  Se  Se1  1  0.33333300  0.66666700  0.51392400  1
  S  S0  1  0.00000000  0.00000000  0.69683100  1
  S  S1  1  0.33333300  0.66666700  0.05451400  1
  S  S2  1  0.33333300  0.66666700  0.13221900  1
  S  S3  1  0.00000000  0.00000000  0.61868000  1
loop_
_geom_bond_atom_site_label_1
_geom_bond_atom_site_label_2
_geom_bond_distance
_geom_bond_site_symmetry_2
Mo0 S2 2.443297 1_545
Mo0 S2 2.443299 1_555
Mo0 S2 2.443299 1_445
Mo0 S1 2.444794 1_545
Mo0 S1 2.444796 1_445
Mo0 S1 2.444796 1_555
Mo1 Te0 2.702047 1_565
Mo1 Te0 2.702049 1_665
Mo1 Te0 2.702049 1_555
Mo1 Te1 2.702631 1_565
Mo1 Te1 2.702633 1_555
Mo1 Te1 2.702633 1_665
Se0 W0 2.550204 1_565
Se0 W0 2.550207 1_665
Se0 W0 2.550207 1_555
Se1 W0 2.548615 1_565
Se1 W0 2.548618 1_555
Se1 W0 2.548618 1_665
S0 W1 2.449442 1_545
S0 W1 2.449445 1_445
S0 W1 2.449445 1_555
S3 W1 2.449615 1_545
S3 W1 2.449617 1_555
S3 W1 2.449617 1_445
