# generated using pymatgen
data_NdTa3O9
_symmetry_space_group_name_H-M   'P 1'
_cell_length_a   5.57373370
_cell_length_b   16.72600247
_cell_length_c   9.69083348
_cell_angle_alpha   54.89576693
_cell_angle_beta   90.19845060
_cell_angle_gamma   90.34516665
_symmetry_Int_Tables_number   1
_chemical_formula_structural   NdTa3O9
_chemical_formula_sum   'Nd4 Ta12 O36'
_cell_volume   739.09770701
_cell_formula_units_Z   4
loop_
 _symmetry_equiv_pos_site_id
 _symmetry_equiv_pos_as_xyz
  1  'x, y, z'
loop_
 _atom_site_type_symbol
 _atom_site_label
 _atom_site_symmetry_multiplicity
 _atom_site_fract_x
 _atom_site_fract_y
 _atom_site_fract_z
 _atom_site_occupancy
  Nd  Nd0  1  0.26268600  0.91200900  0.00016600  1
  Nd  Nd1  1  0.25925100  0.24975300  0.99878500  1
  Nd  Nd2  1  0.73731400  0.75465800  0.99983400  1
  Nd  Nd3  1  0.74074900  0.41691400  0.00121500  1
  Ta  Ta0  1  0.24809200  0.99912600  0.24995900  1
  Ta  Ta1  1  0.25022100  0.83527500  0.73508900  1
  Ta  Ta2  1  0.25089800  0.50607800  0.74393400  1
  Ta  Ta3  1  0.25060700  0.65917100  0.26151300  1
  Ta  Ta4  1  0.25018800  0.33237400  0.26289400  1
  Ta  Ta5  1  0.24753600  0.16730700  0.74613400  1
  Ta  Ta6  1  0.74977900  0.83139100  0.26491100  1
  Ta  Ta7  1  0.75190800  0.66754100  0.75004100  1
  Ta  Ta8  1  0.75246400  0.49936000  0.25386600  1
  Ta  Ta9  1  0.74981200  0.33429200  0.73710600  1
  Ta  Ta10  1  0.74910200  0.16058900  0.25606600  1
  Ta  Ta11  1  0.74939300  0.00749600  0.73848700  1
  O  O0  1  0.01077600  0.92596100  0.20748900  1
  O  O1  1  0.99983600  0.76106600  0.21687500  1
  O  O2  1  0.98731700  0.41716900  0.23344400  1
  O  O3  1  0.01284500  0.09359300  0.23408000  1
  O  O4  1  0.22113000  0.90935700  0.49685600  1
  O  O5  1  0.22313700  0.57304500  0.50089000  1
  O  O6  1  0.22186100  0.23977700  0.50241300  1
  O  O7  1  0.29635800  0.76648100  0.99980300  1
  O  O8  1  0.29018600  0.42066400  0.99977300  1
  O  O9  1  0.27366800  0.09637100  0.00020700  1
  O  O10  1  0.50011900  0.91947800  0.74135500  1
  O  O11  1  0.49011900  0.91876800  0.23247200  1
  O  O12  1  0.50988100  0.74789900  0.76752800  1
  O  O13  1  0.49988100  0.74718900  0.25864500  1
  O  O14  1  0.50823800  0.58587800  0.73479300  1
  O  O15  1  0.51058000  0.59306500  0.23128300  1
  O  O16  1  0.50066800  0.40821300  0.77436600  1
  O  O17  1  0.50795900  0.40916200  0.26459700  1
  O  O18  1  0.49204100  0.25750500  0.73540300  1
  O  O19  1  0.49933200  0.25845300  0.22563400  1
  O  O20  1  0.48942000  0.07360200  0.76871700  1
  O  O21  1  0.49176200  0.08078800  0.26520700  1
  O  O22  1  0.70364200  0.90018500  0.00019700  1
  O  O23  1  0.72633200  0.57029600  0.99979300  1
  O  O24  1  0.70981400  0.24600300  0.00022700  1
  O  O25  1  0.77887000  0.75730900  0.50314400  1
  O  O26  1  0.77813900  0.42689000  0.49758700  1
  O  O27  1  0.77686300  0.09362200  0.49911000  1
  O  O28  1  0.00016400  0.90560000  0.78312500  1
  O  O29  1  0.98922400  0.74070600  0.79251100  1
  O  O30  1  0.98715500  0.57307400  0.76592000  1
  O  O31  1  0.98877900  0.60236500  0.20674800  1
  O  O32  1  0.99932000  0.39819300  0.80454900  1
  O  O33  1  0.01268300  0.24949800  0.76655600  1
  O  O34  1  0.00068000  0.26847300  0.19545100  1
  O  O35  1  0.01122100  0.06430200  0.79325200  1
loop_
_geom_bond_atom_site_label_1
_geom_bond_atom_site_label_2
_geom_bond_distance
_geom_bond_site_symmetry_2
Nd0 O7 2.444472 1_554
Nd0 O22 2.466888 1_555
Nd0 O35 2.573467 1_564
Nd0 O0 2.573955 1_555
Nd0 O1 2.609492 1_455
Nd0 O28 2.610084 1_554
Nd0 O20 2.634222 1_564
Nd0 O11 2.637994 1_555
Nd0 O13 2.775059 1_555
Nd0 O10 2.778153 1_554
Nd0 O9 3.084106 1_565
Nd0 O22 3.121033 1_455
Nd1 O24 2.512269 1_556
Nd1 O32 2.540829 1_455
Nd1 O34 2.553077 1_556
Nd1 O9 2.559314 1_556
Nd1 O16 2.629231 1_555
Nd1 O33 2.634956 1_555
Nd1 O19 2.643819 1_556
Nd1 O3 2.652611 1_556
Nd1 O18 2.802736 1_555
Nd1 O21 2.821570 1_556
Nd1 O8 2.868323 1_555
Nd1 O24 3.062596 1_456
Nd2 O22 2.444455 1_556
Nd2 O7 2.466886 1_555
Nd2 O31 2.573467 1_556
Nd2 O29 2.573955 1_555
Nd2 O28 2.609483 1_655
Nd2 O1 2.610076 1_556
Nd2 O15 2.634222 1_556
Nd2 O12 2.637994 1_555
Nd2 O10 2.775059 1_555
Nd2 O13 2.778153 1_556
Nd2 O23 3.084106 1_555
Nd2 O7 3.121032 1_655
Nd3 O8 2.512269 1_554
Nd3 O34 2.540839 1_655
Nd3 O32 2.553087 1_554
Nd3 O23 2.559314 1_554
Nd3 O19 2.629240 1_555
Nd3 O2 2.634956 1_555
Nd3 O16 2.643828 1_554
Nd3 O30 2.652611 1_554
Nd3 O17 2.802736 1_555
Nd3 O14 2.821562 1_554
Nd3 O24 2.868323 1_555
Nd3 O8 3.062596 1_654
O0 Ta6 1.973180 1_455
O0 Ta0 1.993140 1_555
O1 Ta6 2.048616 1_555
O1 Ta3 2.054748 1_655
O2 Ta4 1.948411 1_655
O2 Ta8 1.994726 1_555
O3 Ta10 1.938736 1_455
O3 Ta0 1.995854 1_545
O4 Ta1 1.897713 1_555
O4 Ta0 1.967147 1_555
O5 Ta3 1.906907 1_555
O5 Ta2 1.947132 1_555
O6 Ta4 1.917362 1_555
O6 Ta5 1.942982 1_555
O7 Ta3 2.117133 1_556
O7 Ta1 2.138917 1_555
O8 Ta2 2.040118 1_555
O8 Ta4 2.097958 1_556
O9 Ta0 1.998917 1_545
O9 Ta5 2.032478 1_554
O10 Ta1 2.000358 1_555
O10 Ta11 2.006757 1_565
O11 Ta6 1.955313 1_555
O11 Ta0 1.985048 1_555
O12 Ta1 1.955302 1_555
O12 Ta7 1.985048 1_555
O13 Ta6 2.000346 1_555
O13 Ta3 2.006757 1_555
O14 Ta2 1.920556 1_555
O14 Ta7 1.985063 1_555
O15 Ta3 1.950082 1_555
O15 Ta8 1.987689 1_555
O16 Ta9 2.031029 1_555
O16 Ta2 2.043005 1_555
O17 Ta4 1.927710 1_555
O17 Ta8 1.984906 1_555
O18 Ta9 1.927699 1_555
O18 Ta5 1.984906 1_555
O19 Ta4 2.031029 1_555
O19 Ta10 2.042993 1_555
O20 Ta11 1.950082 1_555
O20 Ta5 1.987689 1_555
O21 Ta10 1.920567 1_555
O21 Ta0 1.985051 1_545
O22 Ta11 2.117136 1_564
O22 Ta6 2.138917 1_555
O23 Ta7 1.998917 1_555
O23 Ta8 2.032478 1_556
O24 Ta10 2.040118 1_555
O24 Ta9 2.097958 1_554
O25 Ta6 1.897713 1_555
O25 Ta7 1.967146 1_555
O26 Ta9 1.917364 1_555
O26 Ta8 1.942982 1_555
O27 Ta11 1.906907 1_555
O27 Ta10 1.947132 1_555
O28 Ta1 2.048616 1_555
O28 Ta11 2.054759 1_465
O29 Ta1 1.973169 1_655
O29 Ta7 1.993140 1_555
O30 Ta2 1.938736 1_655
O30 Ta7 1.995854 1_555
O31 Ta3 1.967750 1_655
O31 Ta8 1.995918 1_555
O32 Ta9 2.069483 1_555
O32 Ta2 2.079320 1_655
O33 Ta9 1.948400 1_455
O33 Ta5 1.994726 1_555
O34 Ta4 2.069483 1_555
O34 Ta10 2.079309 1_455
O35 Ta11 1.967750 1_455
O35 Ta5 1.995918 1_555
