# generated using pymatgen
data_SrNdMn4O12
_symmetry_space_group_name_H-M   'P 1'
_cell_length_a   5.37705732
_cell_length_b   5.37705732
_cell_length_c   7.60033954
_cell_angle_alpha   90.00000000
_cell_angle_beta   90.00000000
_cell_angle_gamma   90.00000000
_symmetry_Int_Tables_number   1
_chemical_formula_structural   SrNdMn4O12
_chemical_formula_sum   'Sr1 Nd1 Mn4 O12'
_cell_volume   219.74668225
_cell_formula_units_Z   1
loop_
 _symmetry_equiv_pos_site_id
 _symmetry_equiv_pos_as_xyz
  1  'x, y, z'
loop_
 _atom_site_type_symbol
 _atom_site_label
 _atom_site_symmetry_multiplicity
 _atom_site_fract_x
 _atom_site_fract_y
 _atom_site_fract_z
 _atom_site_occupancy
  Sr  Sr0  1  -0.00000000  0.00000000  0.50000000  1
  Nd  Nd0  1  0.50000000  0.50000000  -0.00000000  1
  Mn  Mn0  1  -0.00000000  0.50000000  0.74841115  1
  Mn  Mn1  1  -0.00000000  0.50000000  0.25158885  1
  Mn  Mn2  1  0.50000000  0.00000000  0.74841115  1
  Mn  Mn3  1  0.50000000  -0.00000000  0.25158885  1
  O  O0  1  0.25699051  0.25699051  0.75998832  1
  O  O1  1  0.25699051  0.25699051  0.24001168  1
  O  O2  1  0.74300949  0.74300949  0.75998832  1
  O  O3  1  0.74300949  0.74300949  0.24001168  1
  O  O4  1  0.74300949  0.25699051  0.75998832  1
  O  O5  1  0.74300949  0.25699051  0.24001168  1
  O  O6  1  0.25699051  0.74300949  0.75998832  1
  O  O7  1  0.25699051  0.74300949  0.24001168  1
  O  O8  1  -0.00000000  0.50000000  0.50000000  1
  O  O9  1  -0.00000000  0.50000000  -0.00000000  1
  O  O10  1  0.50000000  0.00000000  0.50000000  1
  O  O11  1  0.50000000  0.00000000  -0.00000000  1
loop_
_geom_bond_atom_site_label_1
_geom_bond_atom_site_label_2
_geom_bond_distance
_geom_bond_site_symmetry_2
Nd0 O6 2.596613 1_554
Nd0 O0 2.596613 1_554
Nd0 O4 2.596613 1_554
Nd0 O3 2.596613 1_555
Nd0 O1 2.596613 1_555
Nd0 O7 2.596613 1_555
Nd0 O5 2.596613 1_555
Nd0 O2 2.596613 1_554
Nd0 O11 2.688529 1_555
Nd0 O11 2.688529 1_565
Nd0 O9 2.688529 1_555
Nd0 O9 2.688529 1_655
Mn0 O8 1.888009 1_555
Mn0 O0 1.903854 1_555
Mn0 O2 1.903854 1_455
Mn0 O4 1.903854 1_455
Mn0 O6 1.903854 1_555
Mn0 O9 1.912161 1_556
Mn1 O8 1.888009 1_555
Mn1 O5 1.903854 1_455
Mn1 O3 1.903854 1_455
Mn1 O1 1.903854 1_555
Mn1 O7 1.903854 1_555
Mn1 O9 1.912161 1_555
Mn2 O10 1.888009 1_555
Mn2 O0 1.903854 1_555
Mn2 O6 1.903854 1_545
Mn2 O2 1.903854 1_545
Mn2 O4 1.903854 1_555
Mn2 O11 1.912161 1_556
Mn3 O10 1.888009 1_555
Mn3 O3 1.903854 1_545
Mn3 O7 1.903854 1_545
Mn3 O1 1.903854 1_555
Mn3 O5 1.903854 1_555
Mn3 O11 1.912161 1_555
O0 Sr0 2.779138 1_555
O1 Sr0 2.779138 1_555
O2 Sr0 2.779138 1_665
O3 Sr0 2.779138 1_665
O4 Sr0 2.779138 1_655
O5 Sr0 2.779138 1_655
O6 Sr0 2.779138 1_565
O7 Sr0 2.779138 1_565
O8 Sr0 2.688529 1_555
O8 Sr0 2.688529 1_565
O10 Sr0 2.688529 1_655
O10 Sr0 2.688529 1_555
