# generated using pymatgen
data_Zn2PdAu
_symmetry_space_group_name_H-M   'P 1'
_cell_length_a   3.09544395
_cell_length_b   3.09544395
_cell_length_c   6.19671587
_cell_angle_alpha   90.00000000
_cell_angle_beta   90.00000000
_cell_angle_gamma   90.00000000
_symmetry_Int_Tables_number   1
_chemical_formula_structural   Zn2PdAu
_chemical_formula_sum   'Zn2 Pd1 Au1'
_cell_volume   59.37552635
_cell_formula_units_Z   1
loop_
 _symmetry_equiv_pos_site_id
 _symmetry_equiv_pos_as_xyz
  1  'x, y, z'
loop_
 _atom_site_type_symbol
 _atom_site_label
 _atom_site_symmetry_multiplicity
 _atom_site_fract_x
 _atom_site_fract_y
 _atom_site_fract_z
 _atom_site_occupancy
  Zn  Zn0  1  0.50000000  0.50000000  0.26257317  1
  Zn  Zn1  1  0.50000000  0.50000000  0.73742683  1
  Pd  Pd0  1  -0.00000000  0.00000000  0.50000000  1
  Au  Au0  1  -0.00000000  0.00000000  0.00000000  1
loop_
_geom_bond_atom_site_label_1
_geom_bond_atom_site_label_2
_geom_bond_distance
_geom_bond_site_symmetry_2
Pd0 Zn1 2.637330 1_555
Pd0 Zn1 2.637330 1_545
Pd0 Zn0 2.637330 1_455
Pd0 Zn1 2.637330 1_445
Pd0 Zn0 2.637330 1_445
Pd0 Zn0 2.637330 1_555
Pd0 Zn0 2.637330 1_545
Pd0 Zn1 2.637330 1_455
Au0 Zn1 2.727327 1_454
Au0 Zn1 2.727327 1_444
Au0 Zn1 2.727327 1_544
Au0 Zn0 2.727327 1_455
Au0 Zn1 2.727327 1_554
Au0 Zn0 2.727327 1_445
Au0 Zn0 2.727327 1_555
Au0 Zn0 2.727327 1_545
