# generated using pymatgen
data_CeNb3O9
_symmetry_space_group_name_H-M   'P 1'
_cell_length_a   7.90176600
_cell_length_b   11.33322612
_cell_length_c   9.81725177
_cell_angle_alpha   72.95180232
_cell_angle_beta   66.26901670
_cell_angle_gamma   90.00000000
_symmetry_Int_Tables_number   1
_chemical_formula_structural   CeNb3O9
_chemical_formula_sum   'Ce4 Nb12 O36'
_cell_volume   762.43327720
_cell_formula_units_Z   4
loop_
 _symmetry_equiv_pos_site_id
 _symmetry_equiv_pos_as_xyz
  1  'x, y, z'
loop_
 _atom_site_type_symbol
 _atom_site_label
 _atom_site_symmetry_multiplicity
 _atom_site_fract_x
 _atom_site_fract_y
 _atom_site_fract_z
 _atom_site_occupancy
  Ce  Ce0  1  0.50000000  0.00000000  0.00000000  1
  Ce  Ce1  1  0.00000000  0.00000000  0.00000000  1
  Ce  Ce2  1  0.66870300  0.33814300  0.66259600  1
  Ce  Ce3  1  0.33129700  0.66185700  0.33740400  1
  Nb  Nb0  1  0.58442100  0.41601000  0.33130100  1
  Nb  Nb1  1  0.92467400  0.08401100  0.65728300  1
  Nb  Nb2  1  0.24957300  0.74204900  0.99406800  1
  Nb  Nb3  1  0.91572200  0.58399000  0.66869900  1
  Nb  Nb4  1  0.24363900  0.25795100  0.00593200  1
  Nb  Nb5  1  0.58195800  0.91598900  0.34271700  1
  Nb  Nb6  1  0.75042700  0.25795100  0.00593200  1
  Nb  Nb7  1  0.07532600  0.91598900  0.34271700  1
  Nb  Nb8  1  0.41557900  0.58399000  0.66869900  1
  Nb  Nb9  1  0.75636100  0.74204900  0.99406800  1
  Nb  Nb10  1  0.08427800  0.41601000  0.33130100  1
  Nb  Nb11  1  0.41804200  0.08401100  0.65728300  1
  O  O0  1  0.66574200  0.33401200  0.16801000  1
  O  O1  1  0.00000000  0.00000000  0.50000000  1
  O  O2  1  0.33425800  0.66598800  0.83199000  1
  O  O3  1  0.83375200  0.66598800  0.83199000  1
  O  O4  1  0.16624800  0.33401200  0.16801000  1
  O  O5  1  0.50000000  0.00000000  0.50000000  1
  O  O6  1  0.82084900  0.15674000  0.84302800  1
  O  O7  1  0.17915100  0.84326000  0.15697200  1
  O  O8  1  0.50000000  0.50000000  0.50000000  1
  O  O9  1  0.66387900  0.84326000  0.15697200  1
  O  O10  1  0.00000000  0.50000000  0.50000000  1
  O  O11  1  0.33612100  0.15674000  0.84302800  1
  O  O12  1  0.82353200  0.42128400  0.35293500  1
  O  O13  1  0.15694800  0.08678200  0.68610500  1
  O  O14  1  0.49133800  0.76631200  0.01732400  1
  O  O15  1  0.99431500  0.76219400  0.01137000  1
  O  O16  1  0.32690900  0.42814300  0.34618100  1
  O  O17  1  0.65318600  0.08941400  0.69362800  1
  O  O18  1  0.00568500  0.23780600  0.98863000  1
  O  O19  1  0.34681400  0.91058600  0.30637200  1
  O  O20  1  0.67309100  0.57185700  0.65381900  1
  O  O21  1  0.17646800  0.57871600  0.64706500  1
  O  O22  1  0.50866200  0.23368800  0.98267600  1
  O  O23  1  0.84305200  0.91321800  0.31389500  1
  O  O24  1  0.82931300  0.92335200  0.84848000  1
  O  O25  1  0.51228300  0.25343600  0.51100400  1
  O  O26  1  0.18041300  0.58989400  0.17505400  1
  O  O27  1  0.32220800  0.92335200  0.84848000  1
  O  O28  1  0.97671200  0.25343600  0.51100400  1
  O  O29  1  0.64453300  0.58989400  0.17505400  1
  O  O30  1  0.48771700  0.74656400  0.48899600  1
  O  O31  1  0.17068700  0.07664800  0.15152100  1
  O  O32  1  0.81958700  0.41010600  0.82494600  1
  O  O33  1  0.02328800  0.74656400  0.48899600  1
  O  O34  1  0.67779200  0.07664800  0.15152100  1
  O  O35  1  0.35546700  0.41010600  0.82494600  1
loop_
_geom_bond_atom_site_label_1
_geom_bond_atom_site_label_2
_geom_bond_distance
_geom_bond_site_symmetry_2
Ce0 O22 2.602760 1_554
Ce0 O14 2.602760 1_545
Ce0 O19 2.611709 1_545
Ce0 O17 2.611709 1_554
Ce0 O7 2.684798 1_545
Ce0 O6 2.684798 1_554
Ce0 O9 2.684809 1_545
Ce0 O11 2.684809 1_554
Ce0 O27 2.716728 1_544
Ce0 O24 2.716733 1_544
Ce0 O34 2.716736 1_555
Ce0 O31 2.716736 1_555
Ce1 O15 2.664143 1_445
Ce1 O18 2.664143 1_554
Ce1 O23 2.673643 1_445
Ce1 O13 2.673643 1_554
Ce1 O24 2.675593 1_444
Ce1 O27 2.675599 1_544
Ce1 O31 2.675601 1_555
Ce1 O34 2.675601 1_455
Ce1 O9 2.772167 1_445
Ce1 O11 2.772167 1_554
Ce1 O6 2.772179 1_454
Ce1 O7 2.772179 1_545
Ce2 O20 2.624536 1_555
Ce2 O32 2.630321 1_555
Ce2 O35 2.630332 1_555
Ce2 O12 2.636889 1_555
Ce2 O28 2.642392 1_555
Ce2 O25 2.642409 1_555
Ce2 O22 2.737721 1_555
Ce2 O17 2.742343 1_555
Ce2 O10 2.772301 1_655
Ce2 O8 2.772313 1_555
Ce2 O6 2.896272 1_555
Ce2 O11 2.896293 1_555
Ce3 O16 2.624536 1_555
Ce3 O26 2.630321 1_555
Ce3 O29 2.630332 1_555
Ce3 O21 2.636889 1_555
Ce3 O33 2.642392 1_555
Ce3 O30 2.642409 1_555
Ce3 O14 2.737721 1_555
Ce3 O19 2.742343 1_555
Ce3 O10 2.772301 1_555
Ce3 O8 2.772313 1_555
Ce3 O7 2.896272 1_555
Ce3 O9 2.896293 1_555
Nb0 O0 1.972495 1_555
Nb0 O12 1.987194 1_555
Nb0 O16 1.988262 1_555
Nb0 O29 2.025625 1_555
Nb0 O25 2.028966 1_555
Nb0 O8 2.032010 1_555
Nb1 O1 1.940952 1_655
Nb1 O28 1.956054 1_555
Nb1 O13 1.967957 1_655
Nb1 O17 2.032195 1_555
Nb1 O24 2.064926 1_545
Nb1 O6 2.086820 1_555
Nb2 O2 1.915695 1_555
Nb2 O26 1.962430 1_556
Nb2 O15 1.973880 1_456
Nb2 O14 2.040863 1_556
Nb2 O27 2.052306 1_555
Nb2 O7 2.131282 1_556
Nb3 O3 1.972495 1_555
Nb3 O21 1.987202 1_655
Nb3 O20 1.988254 1_555
Nb3 O32 2.025625 1_555
Nb3 O33 2.028966 1_655
Nb3 O10 2.032010 1_655
Nb4 O4 1.915696 1_555
Nb4 O35 1.962432 1_554
Nb4 O18 1.973865 1_554
Nb4 O22 2.040878 1_554
Nb4 O31 2.052309 1_555
Nb4 O11 2.131282 1_554
Nb5 O5 1.940952 1_565
Nb5 O30 1.956054 1_555
Nb5 O23 1.967942 1_555
Nb5 O19 2.032202 1_555
Nb5 O34 2.064921 1_565
Nb5 O9 2.086820 1_555
Nb6 O0 1.915695 1_555
Nb6 O32 1.962430 1_554
Nb6 O18 1.973880 1_654
Nb6 O22 2.040863 1_554
Nb6 O34 2.052309 1_555
Nb6 O6 2.131282 1_554
Nb7 O1 1.940952 1_565
Nb7 O33 1.956054 1_555
Nb7 O23 1.967957 1_455
Nb7 O19 2.032195 1_555
Nb7 O31 2.064921 1_565
Nb7 O7 2.086820 1_555
Nb8 O2 1.972495 1_555
Nb8 O21 1.987194 1_555
Nb8 O20 1.988262 1_555
Nb8 O35 2.025625 1_555
Nb8 O30 2.028966 1_555
Nb8 O8 2.032010 1_555
Nb9 O3 1.915696 1_555
Nb9 O29 1.962432 1_556
Nb9 O15 1.973865 1_556
Nb9 O14 2.040878 1_556
Nb9 O24 2.052306 1_555
Nb9 O9 2.131282 1_556
Nb10 O4 1.972495 1_555
Nb10 O12 1.987202 1_455
Nb10 O16 1.988254 1_555
Nb10 O26 2.025625 1_555
Nb10 O28 2.028966 1_455
Nb10 O10 2.032010 1_555
Nb11 O5 1.940952 1_555
Nb11 O25 1.956054 1_555
Nb11 O13 1.967942 1_555
Nb11 O17 2.032202 1_555
Nb11 O27 2.064926 1_545
Nb11 O11 2.086820 1_555
