# generated using pymatgen
data_Yb29Se32
_symmetry_space_group_name_H-M   'P 1'
_cell_length_a   14.46323795
_cell_length_b   14.46323795
_cell_length_c   14.46323795
_cell_angle_alpha   131.84886629
_cell_angle_beta   131.84886629
_cell_angle_gamma   70.46783113
_symmetry_Int_Tables_number   1
_chemical_formula_structural   Yb29Se32
_chemical_formula_sum   'Yb29 Se32'
_cell_volume   1645.01264728
_cell_formula_units_Z   1
loop_
 _symmetry_equiv_pos_site_id
 _symmetry_equiv_pos_as_xyz
  1  'x, y, z'
loop_
 _atom_site_type_symbol
 _atom_site_label
 _atom_site_symmetry_multiplicity
 _atom_site_fract_x
 _atom_site_fract_y
 _atom_site_fract_z
 _atom_site_occupancy
  Yb  Yb0  1  0.12617100  0.87365800  0.74748600  1
  Yb  Yb1  1  0.37491400  0.62449600  0.24958100  1
  Yb  Yb2  1  0.62508600  0.37550400  0.75041900  1
  Yb  Yb3  1  0.87382900  0.12634200  0.25251400  1
  Yb  Yb4  1  0.74752300  0.74752300  0.49504500  1
  Yb  Yb5  1  0.00000000  0.50000000  0.00000000  1
  Yb  Yb6  1  0.25247700  0.25247700  0.50495500  1
  Yb  Yb7  1  0.50000000  0.00000000  0.00000000  1
  Yb  Yb8  1  0.87365800  0.12617100  0.74748600  1
  Yb  Yb9  1  0.12634200  0.87382900  0.25251400  1
  Yb  Yb10  1  0.37550400  0.62508600  0.75041900  1
  Yb  Yb11  1  0.62449600  0.37491400  0.24958100  1
  Yb  Yb12  1  0.62508600  0.87466700  0.24958100  1
  Yb  Yb13  1  0.87382900  0.62131500  0.74748600  1
  Yb  Yb14  1  0.12617100  0.37868500  0.25251400  1
  Yb  Yb15  1  0.37491400  0.12533300  0.75041900  1
  Yb  Yb16  1  0.00000000  0.00000000  0.50000000  1
  Yb  Yb17  1  0.25247700  0.74752300  0.00000000  1
  Yb  Yb18  1  0.50000000  0.50000000  0.50000000  1
  Yb  Yb19  1  0.74752300  0.25247700  0.00000000  1
  Yb  Yb20  1  0.12533300  0.37491400  0.75041900  1
  Yb  Yb21  1  0.37868500  0.12617100  0.25251400  1
  Yb  Yb22  1  0.62131500  0.87382900  0.74748600  1
  Yb  Yb23  1  0.87466700  0.62508600  0.24958100  1
  Yb  Yb24  1  0.50000000  0.00000000  0.50000000  1
  Yb  Yb25  1  0.75069800  0.75069800  0.00000000  1
  Yb  Yb26  1  0.00000000  0.50000000  0.50000000  1
  Yb  Yb27  1  0.24930200  0.24930200  0.00000000  1
  Yb  Yb28  1  0.00000000  0.00000000  0.00000000  1
  Se  Se0  1  0.87519200  0.87519200  0.50049600  1
  Se  Se1  1  0.12480800  0.62530400  0.00000000  1
  Se  Se2  1  0.37469600  0.37469600  0.49950400  1
  Se  Se3  1  0.62530400  0.12480800  0.00000000  1
  Se  Se4  1  0.12480800  0.12480800  0.49950400  1
  Se  Se5  1  0.37469600  0.87519200  0.00000000  1
  Se  Se6  1  0.62530400  0.62530400  0.50049600  1
  Se  Se7  1  0.87519200  0.37469600  0.00000000  1
  Se  Se8  1  0.75132700  0.00000000  0.75132700  1
  Se  Se9  1  0.99552000  0.74984100  0.24567900  1
  Se  Se10  1  0.24505600  0.50000000  0.74505600  1
  Se  Se11  1  0.49583800  0.25015900  0.24567900  1
  Se  Se12  1  0.37731600  0.87731600  0.50000000  1
  Se  Se13  1  0.62693800  0.62693800  0.00000000  1
  Se  Se14  1  0.87731600  0.37731600  0.50000000  1
  Se  Se15  1  0.12424900  0.12424900  0.00000000  1
  Se  Se16  1  0.50000000  0.24505600  0.74505600  1
  Se  Se17  1  0.74984100  0.99552000  0.24567900  1
  Se  Se18  1  0.00000000  0.75132700  0.75132700  1
  Se  Se19  1  0.25015900  0.49583800  0.24567900  1
  Se  Se20  1  0.24867300  0.00000000  0.24867300  1
  Se  Se21  1  0.50416200  0.74984100  0.75432100  1
  Se  Se22  1  0.75494400  0.50000000  0.25494400  1
  Se  Se23  1  0.00448000  0.25015900  0.75432100  1
  Se  Se24  1  0.62268400  0.12268400  0.50000000  1
  Se  Se25  1  0.87575100  0.87575100  0.00000000  1
  Se  Se26  1  0.12268400  0.62268400  0.50000000  1
  Se  Se27  1  0.37306200  0.37306200  0.00000000  1
  Se  Se28  1  0.50000000  0.75494400  0.25494400  1
  Se  Se29  1  0.74984100  0.50416200  0.75432100  1
  Se  Se30  1  0.00000000  0.24867300  0.24867300  1
  Se  Se31  1  0.25015900  0.00448000  0.75432100  1
loop_
_geom_bond_atom_site_label_1
_geom_bond_atom_site_label_2
_geom_bond_distance
_geom_bond_site_symmetry_2
Se0 Yb8 2.947465 1_565
Se0 Yb0 2.947465 1_655
Se0 Yb4 2.952421 1_555
Se0 Yb12 2.953014 1_555
Se0 Yb23 2.953014 1_555
Se0 Yb16 2.954732 1_665
Se1 Yb13 2.947471 1_454
Se1 Yb9 2.947477 1_555
Se1 Yb17 2.952433 1_555
Se1 Yb1 2.953008 1_555
Se1 Yb20 2.953014 1_554
Se1 Yb5 2.954732 1_555
Se2 Yb14 2.947471 1_555
Se2 Yb21 2.947471 1_555
Se2 Yb6 2.952445 1_555
Se2 Yb2 2.953020 1_555
Se2 Yb10 2.953020 1_555
Se2 Yb18 2.954732 1_555
Se3 Yb22 2.947471 1_544
Se3 Yb3 2.947477 1_555
Se3 Yb19 2.952433 1_555
Se3 Yb11 2.953008 1_555
Se3 Yb15 2.953014 1_554
Se3 Yb7 2.954732 1_555
Se4 Yb3 2.947465 1_455
Se4 Yb9 2.947465 1_545
Se4 Yb6 2.952421 1_555
Se4 Yb15 2.953014 1_555
Se4 Yb20 2.953014 1_555
Se4 Yb16 2.954732 1_555
Se5 Yb21 2.947471 1_565
Se5 Yb0 2.947477 1_554
Se5 Yb17 2.952433 1_555
Se5 Yb10 2.953008 1_554
Se5 Yb12 2.953014 1_555
Se5 Yb7 2.954732 1_565
Se6 Yb22 2.947471 1_555
Se6 Yb13 2.947471 1_555
Se6 Yb4 2.952445 1_555
Se6 Yb1 2.953020 1_555
Se6 Yb11 2.953020 1_555
Se6 Yb18 2.954732 1_555
Se7 Yb14 2.947471 1_655
Se7 Yb8 2.947477 1_554
Se7 Yb19 2.952433 1_555
Se7 Yb2 2.953008 1_554
Se7 Yb23 2.953014 1_555
Se7 Yb5 2.954732 1_655
Se8 Yb28 2.934416 1_656
Se8 Yb24 2.965734 1_555
Se8 Yb19 2.979642 1_556
Se8 Yb4 2.979648 1_545
Se8 Yb22 2.981418 1_545
Se8 Yb8 2.981430 1_555
Se9 Yb25 2.899157 1_555
Se9 Yb9 2.930593 1_655
Se9 Yb23 2.947977 1_555
Se9 Yb16 2.950518 1_665
Se9 Yb5 2.950518 1_655
Se10 Yb26 2.891734 1_555
Se10 Yb6 2.922152 1_555
Se10 Yb17 2.922158 1_556
Se10 Yb10 2.956103 1_555
Se10 Yb20 2.956115 1_555
Se11 Yb27 2.899157 1_555
Se11 Yb21 2.930605 1_555
Se11 Yb11 2.947989 1_555
Se11 Yb18 2.950518 1_555
Se11 Yb7 2.950518 1_555
Se12 Yb24 2.898685 1_565
Se12 Yb22 2.921571 1_555
Se12 Yb9 2.921577 1_555
Se12 Yb1 2.955558 1_555
Se12 Yb15 2.955564 1_565
Se13 Yb25 2.924108 1_555
Se13 Yb23 2.945456 1_555
Se13 Yb12 2.945456 1_555
Se13 Yb2 2.945462 1_554
Se13 Yb10 2.945462 1_554
Se14 Yb26 2.898685 1_655
Se14 Yb13 2.921571 1_555
Se14 Yb3 2.921577 1_555
Se14 Yb11 2.955558 1_555
Se14 Yb20 2.955564 1_655
Se15 Yb28 2.935662 1_555
Se15 Yb27 2.954658 1_555
Se15 Yb0 2.980081 1_544
Se15 Yb8 2.980081 1_454
Se15 Yb14 2.980087 1_555
Se15 Yb21 2.980087 1_555
Se16 Yb24 2.891734 1_555
Se16 Yb6 2.922152 1_555
Se16 Yb19 2.922158 1_556
Se16 Yb2 2.956103 1_555
Se16 Yb15 2.956115 1_555
Se17 Yb25 2.899157 1_555
Se17 Yb3 2.930593 1_565
Se17 Yb12 2.947977 1_555
Se17 Yb16 2.950518 1_665
Se17 Yb7 2.950518 1_565
Se18 Yb28 2.934416 1_566
Se18 Yb26 2.965734 1_555
Se18 Yb17 2.979642 1_556
Se18 Yb4 2.979648 1_455
Se18 Yb13 2.981418 1_455
Se18 Yb0 2.981430 1_555
Se19 Yb27 2.899157 1_555
Se19 Yb14 2.930605 1_555
Se19 Yb1 2.947989 1_555
Se19 Yb18 2.950518 1_555
Se19 Yb5 2.950518 1_555
Se20 Yb28 2.934416 1_555
Se20 Yb24 2.965734 1_555
Se20 Yb17 2.979642 1_545
Se20 Yb6 2.979648 1_555
Se20 Yb21 2.981418 1_555
Se20 Yb9 2.981430 1_545
Se21 Yb25 2.899157 1_556
Se21 Yb22 2.930605 1_555
Se21 Yb10 2.947989 1_555
Se21 Yb7 2.950518 1_566
Se21 Yb18 2.950518 1_555
Se22 Yb26 2.891734 1_655
Se22 Yb4 2.922152 1_555
Se22 Yb19 2.922158 1_555
Se22 Yb11 2.956103 1_555
Se22 Yb23 2.956115 1_555
Se23 Yb27 2.899157 1_556
Se23 Yb8 2.930593 1_455
Se23 Yb20 2.947977 1_555
Se23 Yb16 2.950518 1_555
Se23 Yb5 2.950518 1_556
Se24 Yb24 2.898685 1_555
Se24 Yb21 2.921571 1_555
Se24 Yb8 2.921577 1_555
Se24 Yb2 2.955558 1_555
Se24 Yb12 2.955564 1_545
Se25 Yb28 2.935662 1_665
Se25 Yb25 2.954658 1_555
Se25 Yb3 2.980081 1_565
Se25 Yb9 2.980081 1_655
Se25 Yb22 2.980087 1_554
Se25 Yb13 2.980087 1_554
Se26 Yb26 2.898685 1_555
Se26 Yb14 2.921571 1_555
Se26 Yb0 2.921577 1_555
Se26 Yb10 2.955558 1_555
Se26 Yb23 2.955564 1_455
Se27 Yb27 2.924108 1_555
Se27 Yb20 2.945456 1_554
Se27 Yb15 2.945456 1_554
Se27 Yb1 2.945462 1_555
Se27 Yb11 2.945462 1_555
Se28 Yb24 2.891734 1_565
Se28 Yb4 2.922152 1_555
Se28 Yb17 2.922158 1_555
Se28 Yb1 2.956103 1_555
Se28 Yb12 2.956115 1_555
Se29 Yb25 2.899157 1_556
Se29 Yb13 2.930605 1_555
Se29 Yb2 2.947989 1_555
Se29 Yb18 2.950518 1_555
Se29 Yb5 2.950518 1_656
Se30 Yb28 2.934416 1_555
Se30 Yb26 2.965734 1_555
Se30 Yb19 2.979642 1_455
Se30 Yb6 2.979648 1_555
Se30 Yb14 2.981418 1_555
Se30 Yb3 2.981430 1_455
Se31 Yb27 2.899157 1_556
Se31 Yb0 2.930593 1_545
Se31 Yb15 2.947977 1_555
Se31 Yb16 2.950518 1_555
Se31 Yb7 2.950518 1_556
