# generated using pymatgen
data_MgZn2
_symmetry_space_group_name_H-M   'P 1'
_cell_length_a   5.02146630
_cell_length_b   5.02146630
_cell_length_c   5.80543110
_cell_angle_alpha   60.67113187
_cell_angle_beta   60.67113187
_cell_angle_gamma   57.23402513
_symmetry_Int_Tables_number   1
_chemical_formula_structural   MgZn2
_chemical_formula_sum   'Mg2 Zn4'
_cell_volume   102.14898166
_cell_formula_units_Z   2
loop_
 _symmetry_equiv_pos_site_id
 _symmetry_equiv_pos_as_xyz
  1  'x, y, z'
loop_
 _atom_site_type_symbol
 _atom_site_label
 _atom_site_symmetry_multiplicity
 _atom_site_fract_x
 _atom_site_fract_y
 _atom_site_fract_z
 _atom_site_occupancy
  Mg  Mg0  1  0.08531500  0.91468500  0.75000000  1
  Mg  Mg1  1  0.91468500  0.08531500  0.25000000  1
  Zn  Zn0  1  0.25181600  0.41782300  0.23818900  1
  Zn  Zn1  1  0.58217700  0.74818400  0.26181100  1
  Zn  Zn2  1  0.41782300  0.25181600  0.73818900  1
  Zn  Zn3  1  0.74818400  0.58217700  0.76181100  1
loop_
_geom_bond_atom_site_label_1
_geom_bond_atom_site_label_2
_geom_bond_distance
_geom_bond_site_symmetry_2
Mg0 Zn3 2.822706 1_555
Mg0 Zn2 2.822706 1_555
Mg0 Zn3 2.841589 1_465
Mg0 Zn2 2.841589 1_465
Mg0 Zn0 2.844741 1_556
Mg0 Zn1 2.844741 1_555
Mg0 Zn0 2.899894 1_565
Mg0 Zn1 2.899894 1_456
Mg0 Zn3 2.914118 1_455
Mg0 Zn2 2.914118 1_565
Mg1 Zn0 2.822706 1_555
Mg1 Zn1 2.822706 1_555
Mg1 Zn1 2.841589 1_645
Mg1 Zn0 2.841589 1_645
Mg1 Zn3 2.844741 1_554
Mg1 Zn2 2.844741 1_555
Mg1 Zn2 2.899894 1_654
Mg1 Zn3 2.899894 1_545
Mg1 Zn1 2.914118 1_545
Mg1 Zn0 2.914118 1_655
Zn0 Zn3 2.789235 1_554
Zn0 Zn1 2.794789 1_545
Zn0 Zn1 2.794789 1_455
Zn0 Zn1 2.991180 1_555
Zn0 Zn3 2.997473 1_455
Zn0 Zn2 3.010544 1_554
Zn0 Zn2 3.010544 1_555
Zn1 Zn2 2.789235 1_555
Zn1 Zn2 2.997473 1_564
Zn1 Zn3 3.010544 1_555
Zn1 Zn3 3.010544 1_554
Zn2 Zn3 2.794789 1_455
Zn2 Zn3 2.794789 1_545
Zn2 Zn3 2.991180 1_555
