# generated using pymatgen
data_CaCuO2
_symmetry_space_group_name_H-M   'P 1'
_cell_length_a   3.60067700
_cell_length_b   7.78358570
_cell_length_c   8.21691900
_cell_angle_alpha   105.44726433
_cell_angle_beta   98.23096089
_cell_angle_gamma   94.78304211
_symmetry_Int_Tables_number   1
_chemical_formula_structural   CaCuO2
_chemical_formula_sum   'Ca4 Cu4 O8'
_cell_volume   217.89380314
_cell_formula_units_Z   4
loop_
 _symmetry_equiv_pos_site_id
 _symmetry_equiv_pos_as_xyz
  1  'x, y, z'
loop_
 _atom_site_type_symbol
 _atom_site_label
 _atom_site_symmetry_multiplicity
 _atom_site_fract_x
 _atom_site_fract_y
 _atom_site_fract_z
 _atom_site_occupancy
  Ca  Ca0  1  0.40630300  0.65713100  0.34306000  1
  Ca  Ca1  1  0.59369700  0.34286900  0.65694000  1
  Ca  Ca2  1  0.25745500  0.28878400  0.98893100  1
  Ca  Ca3  1  0.74254500  0.71121600  0.01106900  1
  Cu  Cu0  1  0.14318400  0.69145200  0.70436000  1
  Cu  Cu1  1  0.82524000  0.98336300  0.64946900  1
  Cu  Cu2  1  0.17476000  0.01663700  0.35053100  1
  Cu  Cu3  1  0.85681600  0.30854800  0.29564000  1
  O  O0  1  0.34388700  0.23682400  0.30716300  1
  O  O1  1  0.31275200  0.84717900  0.17180700  1
  O  O2  1  0.68724800  0.15282100  0.82819300  1
  O  O3  1  0.65611300  0.76317600  0.69283700  1
  O  O4  1  0.19938600  0.51137500  0.83175000  1
  O  O5  1  0.99111700  0.83495000  0.45936100  1
  O  O6  1  0.80061400  0.48862500  0.16825000  1
  O  O7  1  0.00888300  0.16505000  0.54063900  1
loop_
_geom_bond_atom_site_label_1
_geom_bond_atom_site_label_2
_geom_bond_distance
_geom_bond_site_symmetry_2
Ca0 O5 2.261259 1_455
Ca0 O1 2.310417 1_555
Ca0 O5 2.344391 1_555
Ca0 O6 2.385408 1_555
Ca0 O6 2.482379 1_455
Ca0 O3 2.760979 1_555
Ca1 O7 2.261259 1_655
Ca1 O2 2.310417 1_555
Ca1 O7 2.344391 1_555
Ca1 O4 2.385408 1_555
Ca1 O4 2.482379 1_655
Ca1 O0 2.760979 1_555
Ca2 O2 2.279555 1_455
Ca2 O2 2.317988 1_555
Ca2 O6 2.421188 1_556
Ca2 O4 2.426656 1_555
Ca2 O6 2.682565 1_456
Ca2 O0 2.729358 1_556
Ca3 O1 2.279555 1_655
Ca3 O1 2.317988 1_555
Ca3 O4 2.421188 1_554
Ca3 O6 2.426656 1_555
Ca3 O4 2.682565 1_654
Ca3 O3 2.729358 1_554
Cu0 O3 1.881564 1_455
Cu0 O3 1.907334 1_555
Cu0 O4 1.967097 1_555
Cu0 O5 2.565975 1_455
Cu1 O2 1.851930 1_565
Cu1 O5 1.884749 1_555
Cu1 O3 1.910109 1_555
Cu1 O7 1.980869 1_665
Cu2 O1 1.851930 1_545
Cu2 O7 1.884749 1_555
Cu2 O0 1.910109 1_555
Cu2 O5 1.980869 1_445
Cu3 O0 1.881564 1_655
Cu3 O0 1.907334 1_555
Cu3 O6 1.967097 1_555
Cu3 O7 2.565975 1_655
