# generated using pymatgen
data_Gd4Co3
_symmetry_space_group_name_H-M   'P 1'
_cell_length_a   11.32779008
_cell_length_b   11.32779008
_cell_length_c   4.07859100
_cell_angle_alpha   90.00000000
_cell_angle_beta   90.00000000
_cell_angle_gamma   120.00000046
_symmetry_Int_Tables_number   1
_chemical_formula_structural   Gd4Co3
_chemical_formula_sum   'Gd12 Co9'
_cell_volume   453.24306821
_cell_formula_units_Z   3
loop_
 _symmetry_equiv_pos_site_id
 _symmetry_equiv_pos_as_xyz
  1  'x, y, z'
loop_
 _atom_site_type_symbol
 _atom_site_label
 _atom_site_symmetry_multiplicity
 _atom_site_fract_x
 _atom_site_fract_y
 _atom_site_fract_z
 _atom_site_occupancy
  Gd  Gd0  1  0.51432400  0.37944000  0.25082800  1
  Gd  Gd1  1  0.86511600  0.48567600  0.25082800  1
  Gd  Gd2  1  0.62056000  0.13488400  0.25082800  1
  Gd  Gd3  1  0.48567600  0.62056000  0.74917200  1
  Gd  Gd4  1  0.13488400  0.51432400  0.74917200  1
  Gd  Gd5  1  0.37944000  0.86511600  0.74917200  1
  Gd  Gd6  1  0.98127300  0.22341000  0.24984900  1
  Gd  Gd7  1  0.24213700  0.01872700  0.24984900  1
  Gd  Gd8  1  0.77659000  0.75786300  0.24984900  1
  Gd  Gd9  1  0.01872700  0.77659000  0.75015100  1
  Gd  Gd10  1  0.75786300  0.98127300  0.75015100  1
  Gd  Gd11  1  0.22341000  0.24213700  0.75015100  1
  Co  Co0  1  0.15289700  0.71758000  0.25373000  1
  Co  Co1  1  0.56468300  0.84710300  0.25373000  1
  Co  Co2  1  0.28242000  0.43531700  0.25373000  1
  Co  Co3  1  0.84710300  0.28242000  0.74627000  1
  Co  Co4  1  0.43531700  0.15289700  0.74627000  1
  Co  Co5  1  0.71758000  0.56468300  0.74627000  1
  Co  Co6  1  0.33333300  0.66666700  0.24670700  1
  Co  Co7  1  0.66666700  0.33333300  0.75329300  1
  Co  Co8  1  0.00000000  0.00000000  0.50000000  1
loop_
_geom_bond_atom_site_label_1
_geom_bond_atom_site_label_2
_geom_bond_distance
_geom_bond_site_symmetry_2
Co0 Co6 2.385360 1_555
Co0 Gd9 2.805730 1_555
Co0 Gd9 2.826870 1_554
Co0 Gd4 2.992710 1_555
Co0 Gd1 2.994072 1_455
Co0 Gd4 3.017939 1_554
Co0 Gd5 3.028706 1_555
Co0 Gd7 3.034936 1_565
Co0 Gd5 3.053638 1_554
Co1 Co6 2.385367 1_555
Co1 Gd10 2.805730 1_555
Co1 Gd10 2.826870 1_554
Co1 Gd5 2.992710 1_555
Co1 Gd2 2.994072 1_565
Co1 Gd5 3.017939 1_554
Co1 Gd3 3.028706 1_555
Co1 Gd8 3.034936 1_555
Co1 Gd3 3.053638 1_554
Co2 Co6 2.385371 1_555
Co2 Gd11 2.805730 1_555
Co2 Gd11 2.826870 1_554
Co2 Gd3 2.992710 1_555
Co2 Gd0 2.994072 1_555
Co2 Gd3 3.017939 1_554
Co2 Gd4 3.028706 1_555
Co2 Gd6 3.034936 1_455
Co2 Gd4 3.053638 1_554
Co3 Co7 2.385360 1_555
Co3 Gd6 2.805730 1_555
Co3 Gd6 2.826870 1_556
Co3 Gd1 2.992710 1_555
Co3 Gd4 2.994072 1_655
Co3 Gd1 3.017939 1_556
Co3 Gd2 3.028706 1_555
Co3 Gd10 3.034936 1_545
Co3 Gd2 3.053638 1_556
Co4 Co7 2.385367 1_555
Co4 Gd7 2.805730 1_555
Co4 Gd7 2.826870 1_556
Co4 Gd2 2.992710 1_555
Co4 Gd5 2.994072 1_545
Co4 Gd2 3.017939 1_556
Co4 Gd0 3.028706 1_555
Co4 Gd11 3.034936 1_555
Co4 Gd0 3.053638 1_556
Co5 Co7 2.385371 1_555
Co5 Gd8 2.805730 1_555
Co5 Gd8 2.826870 1_556
Co5 Gd0 2.992710 1_555
Co5 Gd3 2.994072 1_555
Co5 Gd0 3.017939 1_556
Co5 Gd1 3.028706 1_555
Co5 Gd9 3.034936 1_655
Co5 Gd1 3.053638 1_556
Co6 Gd5 2.875754 1_554
Co6 Gd4 2.875756 1_554
Co6 Gd3 2.875762 1_554
Co6 Gd5 2.889977 1_555
Co6 Gd4 2.889980 1_555
Co6 Gd3 2.889985 1_555
Co7 Gd2 2.875754 1_556
Co7 Gd1 2.875756 1_556
Co7 Gd0 2.875762 1_556
Co7 Gd2 2.889977 1_555
Co7 Gd1 2.889980 1_555
Co7 Gd0 2.889985 1_555
Co8 Gd8 2.833276 1_445
Co8 Gd11 2.833276 1_555
Co8 Gd7 2.833276 1_555
Co8 Gd10 2.833276 1_445
Co8 Gd9 2.833276 1_545
Co8 Gd6 2.833276 1_455
