# generated using pymatgen
data_HfO2
_symmetry_space_group_name_H-M   'P 1'
_cell_length_a   3.55801933
_cell_length_b   3.55801933
_cell_length_c   5.17186121
_cell_angle_alpha   90.00000000
_cell_angle_beta   90.00000000
_cell_angle_gamma   90.00000000
_symmetry_Int_Tables_number   1
_chemical_formula_structural   HfO2
_chemical_formula_sum   'Hf2 O4'
_cell_volume   65.47318502
_cell_formula_units_Z   2
loop_
 _symmetry_equiv_pos_site_id
 _symmetry_equiv_pos_as_xyz
  1  'x, y, z'
loop_
 _atom_site_type_symbol
 _atom_site_label
 _atom_site_symmetry_multiplicity
 _atom_site_fract_x
 _atom_site_fract_y
 _atom_site_fract_z
 _atom_site_occupancy
  Hf  Hf0  1  0.50000000  0.50000000  0.50000000  1
  Hf  Hf1  1  0.00000000  -0.00000000  0.00000000  1
  O  O0  1  0.00000000  0.50000000  0.69720788  1
  O  O1  1  0.50000000  -0.00000000  0.80279212  1
  O  O2  1  0.50000000  0.00000000  0.30279212  1
  O  O3  1  0.00000000  0.50000000  0.19720788  1
loop_
_geom_bond_atom_site_label_1
_geom_bond_atom_site_label_2
_geom_bond_distance
_geom_bond_site_symmetry_2
Hf0 O2 2.050643 1_555
Hf0 O2 2.050643 1_565
Hf0 O0 2.050643 1_655
Hf0 O0 2.050643 1_555
Hf0 O1 2.370069 1_555
Hf0 O3 2.370069 1_655
Hf0 O1 2.370069 1_565
Hf0 O3 2.370069 1_555
Hf1 O3 2.050643 1_555
Hf1 O1 2.050643 1_454
Hf1 O1 2.050643 1_554
Hf1 O3 2.050643 1_545
Hf1 O0 2.370069 1_544
Hf1 O2 2.370069 1_555
Hf1 O2 2.370069 1_455
Hf1 O0 2.370069 1_554
