# generated using pymatgen
data_LaMgCrSnO6
_symmetry_space_group_name_H-M   'P 1'
_cell_length_a   5.61920500
_cell_length_b   5.44576100
_cell_length_c   9.55491377
_cell_angle_alpha   55.61850087
_cell_angle_beta   90.00000000
_cell_angle_gamma   90.00000000
_symmetry_Int_Tables_number   1
_chemical_formula_structural   LaMgCrSnO6
_chemical_formula_sum   'La2 Mg2 Cr2 Sn2 O12'
_cell_volume   241.30699120
_cell_formula_units_Z   2
loop_
 _symmetry_equiv_pos_site_id
 _symmetry_equiv_pos_as_xyz
  1  'x, y, z'
loop_
 _atom_site_type_symbol
 _atom_site_label
 _atom_site_symmetry_multiplicity
 _atom_site_fract_x
 _atom_site_fract_y
 _atom_site_fract_z
 _atom_site_occupancy
  La  La0  1  0.29131300  0.76030000  0.24973400  1
  La  La1  1  0.70868700  0.76030000  0.74973400  1
  Mg  Mg0  1  0.80630900  0.22933400  0.24862000  1
  Mg  Mg1  1  0.19369100  0.22933400  0.74862000  1
  Cr  Cr0  1  0.24828500  0.99970300  0.50052800  1
  Cr  Cr1  1  0.75171500  0.99970300  0.00052800  1
  Sn  Sn0  1  0.24915600  0.50116700  0.99764900  1
  Sn  Sn1  1  0.75084400  0.50116700  0.49764900  1
  O  O0  1  0.81163700  0.33748200  0.75411500  1
  O  O1  1  0.02804200  0.14848700  0.06233700  1
  O  O2  1  0.03791900  0.77602500  0.44098700  1
  O  O3  1  0.56280300  0.24974100  0.06261000  1
  O  O4  1  0.55844200  0.88174900  0.43663100  1
  O  O5  1  0.28260700  0.61601000  0.74678700  1
  O  O6  1  0.18836300  0.33748200  0.25411500  1
  O  O7  1  0.97195800  0.14848700  0.56233700  1
  O  O8  1  0.96208100  0.77602500  0.94098700  1
  O  O9  1  0.43719700  0.24974100  0.56261000  1
  O  O10  1  0.44155800  0.88174900  0.93663100  1
  O  O11  1  0.71739300  0.61601000  0.24678700  1
loop_
_geom_bond_atom_site_label_1
_geom_bond_atom_site_label_2
_geom_bond_distance
_geom_bond_site_symmetry_2
La0 O6 2.351460 1_555
La0 O2 2.356034 1_555
La0 O1 2.364008 1_565
La0 O11 2.524986 1_555
La0 O4 2.685802 1_555
La0 O3 2.691859 1_565
La0 O10 2.804572 1_554
La0 O9 2.819949 1_555
La1 O0 2.351460 1_555
La1 O8 2.356034 1_555
La1 O7 2.364008 1_565
La1 O5 2.524986 1_555
La1 O10 2.685802 1_555
La1 O9 2.691859 1_565
La1 O4 2.804572 1_555
La1 O3 2.819949 1_556
Mg0 O11 2.154635 1_555
Mg0 O3 2.195536 1_555
Mg0 O4 2.215766 1_545
Mg0 O6 2.234605 1_655
Mg0 O1 2.408200 1_655
Mg0 O2 2.457987 1_645
Mg1 O5 2.154635 1_555
Mg1 O9 2.195536 1_555
Mg1 O10 2.215766 1_545
Mg1 O0 2.234605 1_455
Mg1 O7 2.408200 1_455
Mg1 O8 2.457987 1_445
Cr0 O7 1.989147 1_465
Cr0 O2 1.996851 1_555
Cr0 O6 2.036934 1_565
Cr0 O9 2.060351 1_565
Cr0 O4 2.065371 1_555
Cr0 O5 2.094510 1_555
Cr1 O1 1.989147 1_665
Cr1 O8 1.996851 1_554
Cr1 O0 2.036934 1_564
Cr1 O3 2.060351 1_565
Cr1 O10 2.065371 1_554
Cr1 O11 2.094510 1_555
O0 Sn1 2.109326 1_555
O1 Sn0 2.067324 1_554
O2 Sn1 2.054390 1_455
O3 Sn0 2.099136 1_554
O4 Sn1 2.107032 1_555
O5 Sn0 2.116328 1_555
O6 Sn0 2.109326 1_554
O7 Sn1 2.067324 1_555
O8 Sn0 2.054390 1_655
O9 Sn1 2.099136 1_555
O10 Sn0 2.107032 1_555
O11 Sn1 2.116328 1_555
