# generated using pymatgen
data_AgC2N3
_symmetry_space_group_name_H-M   'P 1'
_cell_length_a   2.74691800
_cell_length_b   8.16202100
_cell_length_c   21.36780400
_cell_angle_alpha   90.00000000
_cell_angle_beta   90.00000000
_cell_angle_gamma   90.00000000
_symmetry_Int_Tables_number   1
_chemical_formula_structural   AgC2N3
_chemical_formula_sum   'Ag4 C8 N12'
_cell_volume   479.07476411
_cell_formula_units_Z   4
loop_
 _symmetry_equiv_pos_site_id
 _symmetry_equiv_pos_as_xyz
  1  'x, y, z'
loop_
 _atom_site_type_symbol
 _atom_site_label
 _atom_site_symmetry_multiplicity
 _atom_site_fract_x
 _atom_site_fract_y
 _atom_site_fract_z
 _atom_site_occupancy
  Ag  Ag0  1  0.25000000  0.50180100  0.15319100  1
  Ag  Ag1  1  0.75000000  0.49819900  0.84680900  1
  Ag  Ag2  1  0.75000000  0.00180100  0.34680900  1
  Ag  Ag3  1  0.25000000  0.99819900  0.65319100  1
  C  C0  1  0.25000000  0.00536300  0.48237500  1
  C  C1  1  0.75000000  0.99463700  0.51762500  1
  C  C2  1  0.75000000  0.50536300  0.01762500  1
  C  C3  1  0.25000000  0.49463700  0.98237500  1
  C  C4  1  0.25000000  0.02357300  0.42036900  1
  C  C5  1  0.75000000  0.97642700  0.57963100  1
  C  C6  1  0.75000000  0.52357300  0.07963100  1
  C  C7  1  0.25000000  0.47642700  0.92036900  1
  N  N0  1  0.25000000  0.86999100  0.90958700  1
  N  N1  1  0.75000000  0.13000900  0.09041300  1
  N  N2  1  0.75000000  0.36999100  0.59041300  1
  N  N3  1  0.25000000  0.63000900  0.40958700  1
  N  N4  1  0.25000000  0.93782200  0.27714100  1
  N  N5  1  0.75000000  0.06217800  0.72285900  1
  N  N6  1  0.75000000  0.43782200  0.22285900  1
  N  N7  1  0.25000000  0.56217800  0.77714100  1
  N  N8  1  0.25000000  0.50874900  0.43339800  1
  N  N9  1  0.75000000  0.49125100  0.56660200  1
  N  N10  1  0.75000000  0.00874900  0.06660200  1
  N  N11  1  0.25000000  0.99125100  0.93339800  1
loop_
_geom_bond_atom_site_label_1
_geom_bond_atom_site_label_2
_geom_bond_distance
_geom_bond_site_symmetry_2
Ag0 N6 2.091690 1_555
Ag0 N6 2.091690 1_455
Ag0 C6 2.094892 1_555
Ag0 C6 2.094892 1_455
Ag1 N7 2.091690 1_655
Ag1 N7 2.091690 1_555
Ag1 C7 2.094892 1_655
Ag1 C7 2.094892 1_555
Ag2 N4 2.091690 1_645
Ag2 N4 2.091690 1_545
Ag2 C4 2.094892 1_655
Ag2 C4 2.094892 1_555
Ag3 N5 2.091690 1_465
Ag3 N5 2.091690 1_565
Ag3 C5 2.094892 1_555
Ag3 C5 2.094892 1_455
C0 C4 1.333243 1_555
C0 C1 1.568881 1_545
C0 C1 1.568881 1_445
C1 C5 1.333243 1_555
C2 C6 1.333243 1_555
C2 C3 1.568881 1_654
C2 C3 1.568881 1_554
C3 C7 1.333243 1_555
N0 N11 1.112845 1_555
N1 N10 1.112845 1_555
N2 N9 1.112845 1_555
N3 N8 1.112845 1_555
