# generated using pymatgen
data_CeMg14Zr
_symmetry_space_group_name_H-M   'P 1'
_cell_length_a   6.50266897
_cell_length_b   6.50266927
_cell_length_c   10.08902160
_cell_angle_alpha   90.00000000
_cell_angle_beta   90.00000000
_cell_angle_gamma   119.99999842
_symmetry_Int_Tables_number   1
_chemical_formula_structural   CeMg14Zr
_chemical_formula_sum   'Ce1 Mg14 Zr1'
_cell_volume   369.45623702
_cell_formula_units_Z   1
loop_
 _symmetry_equiv_pos_site_id
 _symmetry_equiv_pos_as_xyz
  1  'x, y, z'
loop_
 _atom_site_type_symbol
 _atom_site_label
 _atom_site_symmetry_multiplicity
 _atom_site_fract_x
 _atom_site_fract_y
 _atom_site_fract_z
 _atom_site_occupancy
  Ce  Ce0  1  0.16666700  0.33333300  0.62500000  1
  Mg  Mg0  1  0.16626693  0.83313296  0.12500000  1
  Mg  Mg1  1  0.17707096  0.83853498  0.62500000  1
  Mg  Mg2  1  0.66686704  0.33373307  0.12500000  1
  Mg  Mg3  1  0.66146502  0.32292904  0.62500000  1
  Mg  Mg4  1  0.66686704  0.83313296  0.12500000  1
  Mg  Mg5  1  0.66146502  0.83853498  0.62500000  1
  Mg  Mg6  1  0.33486703  0.16513297  0.36786383  1
  Mg  Mg7  1  0.33486703  0.16513297  0.88213617  1
  Mg  Mg8  1  0.33486703  0.66973505  0.36786383  1
  Mg  Mg9  1  0.33486703  0.66973505  0.88213617  1
  Mg  Mg10  1  0.83026495  0.16513297  0.36786383  1
  Mg  Mg11  1  0.83026495  0.16513297  0.88213617  1
  Mg  Mg12  1  0.83333300  0.66666700  0.38164310  1
  Mg  Mg13  1  0.83333300  0.66666700  0.86835690  1
  Zr  Zr0  1  0.16666700  0.33333300  0.12500000  1
loop_
_geom_bond_atom_site_label_1
_geom_bond_atom_site_label_2
_geom_bond_distance
_geom_bond_site_symmetry_2
Ce0 Mg6 3.212321 1_555
Ce0 Mg7 3.212321 1_555
Ce0 Mg10 3.212328 1_455
Ce0 Mg11 3.212328 1_455
Ce0 Mg9 3.212328 1_555
Ce0 Mg8 3.212328 1_555
Ce0 Mg3 3.251862 1_555
Ce0 Mg3 3.251862 1_455
Ce0 Mg1 3.251862 1_545
Ce0 Mg5 3.251862 1_445
Ce0 Mg1 3.251862 1_555
Ce0 Mg5 3.251862 1_555
Mg0 Mg8 3.082143 1_555
Mg0 Mg9 3.082143 1_554
Mg0 Mg6 3.082149 1_565
Mg0 Mg7 3.082149 1_564
Mg0 Mg12 3.196818 1_455
Mg0 Mg13 3.196818 1_454
Mg0 Mg4 3.247432 1_455
Mg0 Mg2 3.247432 1_455
Mg0 Zr0 3.251335 1_555
Mg0 Zr0 3.251335 1_565
Mg0 Mg4 3.255237 1_555
Mg0 Mg2 3.255237 1_565
Mg1 Mg12 3.126549 1_455
Mg1 Mg13 3.126549 1_455
Mg1 Mg5 3.149854 1_555
Mg1 Mg3 3.149854 1_565
Mg1 Mg9 3.180275 1_555
Mg1 Mg8 3.180275 1_555
Mg1 Mg7 3.180281 1_565
Mg1 Mg6 3.180281 1_565
Mg1 Mg5 3.352815 1_455
Mg1 Mg3 3.352815 1_455
Mg2 Mg7 3.082149 1_554
Mg2 Mg6 3.082149 1_555
Mg2 Mg4 3.247432 1_555
Mg2 Zr0 3.251335 1_655
Mg2 Zr0 3.251335 1_555
Mg2 Mg4 3.255237 1_545
Mg3 Mg5 3.149854 1_545
Mg3 Mg6 3.180281 1_555
Mg3 Mg7 3.180281 1_555
Mg3 Mg5 3.352815 1_555
Mg4 Mg9 3.082149 1_554
Mg4 Mg8 3.082149 1_555
Mg4 Zr0 3.251335 1_555
Mg4 Zr0 3.251335 1_665
Mg5 Mg8 3.180281 1_555
Mg5 Mg9 3.180281 1_555
Mg6 Zr0 3.097197 1_555
Mg6 Mg8 3.221409 1_545
Mg6 Mg8 3.281260 1_555
Mg7 Zr0 3.097197 1_556
Mg7 Mg9 3.221409 1_545
Mg7 Mg9 3.281260 1_555
Mg8 Zr0 3.097204 1_555
Mg9 Zr0 3.097204 1_556
Mg10 Mg2 3.082143 1_555
Mg10 Mg4 3.082149 1_545
Mg10 Zr0 3.097204 1_655
Mg10 Mg3 3.180275 1_555
Mg10 Mg5 3.180281 1_545
Mg10 Mg6 3.221409 1_555
Mg10 Mg8 3.221409 1_545
Mg10 Mg12 3.254351 1_545
Mg10 Mg12 3.254351 1_555
Mg10 Mg6 3.281260 1_655
Mg10 Mg8 3.281260 1_655
Mg11 Mg2 3.082143 1_556
Mg11 Mg4 3.082149 1_546
Mg11 Zr0 3.097204 1_656
Mg11 Mg3 3.180275 1_555
Mg11 Mg5 3.180281 1_545
Mg11 Mg7 3.221409 1_555
Mg11 Mg9 3.221409 1_545
Mg11 Mg13 3.254351 1_545
Mg11 Mg13 3.254351 1_555
Mg11 Mg7 3.281260 1_655
Mg11 Mg9 3.281260 1_655
Mg12 Mg5 3.126542 1_555
Mg12 Mg3 3.126549 1_555
Mg12 Mg4 3.196811 1_555
Mg12 Mg2 3.196818 1_555
Mg12 Mg8 3.254351 1_555
Mg12 Mg8 3.254351 1_655
Mg12 Mg6 3.254351 1_665
Mg12 Mg6 3.254351 1_555
Mg13 Mg5 3.126542 1_555
Mg13 Mg3 3.126549 1_555
Mg13 Mg4 3.196811 1_556
Mg13 Mg2 3.196818 1_556
Mg13 Mg9 3.254351 1_555
Mg13 Mg9 3.254351 1_655
Mg13 Mg7 3.254351 1_665
Mg13 Mg7 3.254351 1_555
