# generated using pymatgen
data_Li7Mn5O12
_symmetry_space_group_name_H-M   'P 1'
_cell_length_a   5.85278633
_cell_length_b   6.01190830
_cell_length_c   7.78552984
_cell_angle_alpha   102.49221280
_cell_angle_beta   111.26842639
_cell_angle_gamma   59.97865418
_symmetry_Int_Tables_number   1
_chemical_formula_structural   Li7Mn5O12
_chemical_formula_sum   'Li7 Mn5 O12'
_cell_volume   220.83139198
_cell_formula_units_Z   1
loop_
 _symmetry_equiv_pos_site_id
 _symmetry_equiv_pos_as_xyz
  1  'x, y, z'
loop_
 _atom_site_type_symbol
 _atom_site_label
 _atom_site_symmetry_multiplicity
 _atom_site_fract_x
 _atom_site_fract_y
 _atom_site_fract_z
 _atom_site_occupancy
  Li  Li0  1  0.50684300  0.31926700  0.34200300  1
  Li  Li1  1  0.49333900  0.17088400  0.66291900  1
  Li  Li2  1  0.50085800  0.82644800  0.33318900  1
  Li  Li3  1  0.47345400  0.68549700  0.64492500  1
  Li  Li4  1  0.50488600  0.50314800  0.00226600  1
  Li  Li5  1  0.51815600  0.98563800  0.01052400  1
  Li  Li6  1  0.99937100  0.83129200  0.33323600  1
  Mn  Mn0  1  0.01148600  0.99217700  0.00535900  1
  Mn  Mn1  1  0.99469600  0.33141000  0.33335000  1
  Mn  Mn2  1  0.99339600  0.67728100  0.66114500  1
  Mn  Mn3  1  0.00163900  0.50302600  0.00384100  1
  Mn  Mn4  1  0.99869800  0.16599500  0.66390600  1
  O  O0  1  0.21620400  0.03540000  0.49422200  1
  O  O1  1  0.25570600  0.84294900  0.85180100  1
  O  O2  1  0.22236000  0.49228000  0.49477300  1
  O  O3  1  0.20215900  0.36449700  0.81652100  1
  O  O4  1  0.23939200  0.15122000  0.17538000  1
  O  O5  1  0.21455400  0.68572100  0.14088100  1
  O  O6  1  0.78843500  0.62455700  0.17436300  1
  O  O7  1  0.74099400  0.49618600  0.47811100  1
  O  O8  1  0.77512800  0.16550300  0.16375300  1
  O  O9  1  0.78230400  0.98919500  0.52302600  1
  O  O10  1  0.76937400  0.85298000  0.83807900  1
  O  O11  1  0.79657000  0.30744900  0.85242600  1
loop_
_geom_bond_atom_site_label_1
_geom_bond_atom_site_label_2
_geom_bond_distance
_geom_bond_site_symmetry_2
Li0 O7 2.012390 1_555
Li0 O2 2.106507 1_555
Li0 O4 2.167048 1_555
Li0 O8 2.195325 1_555
Li0 O9 2.209843 1_545
Li0 O5 2.451481 1_555
Li1 O9 2.052510 1_545
Li1 O0 2.081601 1_555
Li1 O2 2.117575 1_555
Li1 O10 2.135886 1_545
Li1 O3 2.140259 1_555
Li1 O11 2.243877 1_555
Li2 O7 2.053525 1_555
Li2 O4 2.085075 1_565
Li2 O6 2.156745 1_555
Li2 O0 2.159925 1_565
Li2 O5 2.194500 1_555
Li2 O9 2.253008 1_555
Li3 O7 2.118147 1_555
Li3 O0 2.164607 1_565
Li3 O1 2.176420 1_555
Li3 O2 2.179453 1_555
Li3 O10 2.339954 1_555
Li3 O11 2.534343 1_555
Li4 O5 2.051459 1_555
Li4 O6 2.063483 1_555
Li4 O1 2.118279 1_554
Li4 O11 2.121502 1_554
Li4 O8 2.156750 1_555
Li4 O3 2.241177 1_554
Li5 O1 2.026151 1_554
Li5 O10 2.096646 1_554
Li5 O8 2.149910 1_565
Li5 O4 2.154417 1_565
Li5 O6 2.267078 1_555
Li5 O3 2.477127 1_564
Li6 O9 2.060776 1_555
Li6 O5 2.072008 1_655
Li6 O6 2.088377 1_555
Li6 O0 2.103843 1_665
Li6 O2 2.166871 1_655
Li6 O8 2.180037 1_565
Mn0 O5 1.913192 1_555
Mn0 O8 1.938941 1_465
Mn0 O1 1.941597 1_554
Mn0 O10 1.944394 1_454
Mn0 O4 1.973169 1_565
Mn0 O11 2.023978 1_464
Mn1 O7 1.927581 1_555
Mn1 O6 1.956067 1_555
Mn1 O2 1.959358 1_655
Mn1 O8 1.967634 1_555
Mn1 O4 1.971346 1_655
Mn1 O0 1.973324 1_655
Mn2 O9 1.946630 1_555
Mn2 O2 1.963474 1_655
Mn2 O10 2.006845 1_555
Mn2 O3 2.026073 1_655
Mn2 O1 2.188494 1_655
Mn2 O7 2.193002 1_555
Mn3 O6 1.929604 1_455
Mn3 O5 1.948242 1_555
Mn3 O3 1.983946 1_554
Mn3 O11 1.999682 1_454
Mn3 O10 2.231553 1_454
Mn3 O4 2.263193 1_555
Mn4 O0 1.937390 1_655
Mn4 O9 1.942098 1_545
Mn4 O11 1.997484 1_555
Mn4 O3 2.008997 1_655
Mn4 O1 2.209958 1_645
Mn4 O7 2.229636 1_555
