# generated using pymatgen
data_Nb12TlTe16
_symmetry_space_group_name_H-M   'P 1'
_cell_length_a   11.44717930
_cell_length_b   11.44717930
_cell_length_c   10.84605930
_cell_angle_alpha   61.74726946
_cell_angle_beta   61.74726946
_cell_angle_gamma   37.51990328
_symmetry_Int_Tables_number   1
_chemical_formula_structural   Nb12TlTe16
_chemical_formula_sum   'Nb12 Tl1 Te16'
_cell_volume   749.66342999
_cell_formula_units_Z   1
loop_
 _symmetry_equiv_pos_site_id
 _symmetry_equiv_pos_as_xyz
  1  'x, y, z'
loop_
 _atom_site_type_symbol
 _atom_site_label
 _atom_site_symmetry_multiplicity
 _atom_site_fract_x
 _atom_site_fract_y
 _atom_site_fract_z
 _atom_site_occupancy
  Nb  Nb0  1  0.11766291  0.11766291  0.89925475  1
  Nb  Nb1  1  0.61921881  0.61921881  0.90003663  1
  Nb  Nb2  1  0.32505055  0.32505055  0.61390594  1
  Nb  Nb3  1  0.82440922  0.82440922  0.61325617  1
  Nb  Nb4  1  0.18074893  0.18074893  0.48847568  1
  Nb  Nb5  1  0.68281153  0.68281153  0.48560341  1
  Nb  Nb6  1  0.87353812  0.38579497  0.10017849  1
  Nb  Nb7  1  0.38579497  0.87353812  0.10017849  1
  Nb  Nb8  1  0.67455793  0.17560862  0.39038598  1
  Nb  Nb9  1  0.17560862  0.67455793  0.39038598  1
  Nb  Nb10  1  0.82605884  0.31427336  0.50958775  1
  Nb  Nb11  1  0.31427336  0.82605884  0.50958775  1
  Tl  Tl0  1  0.37555451  0.37555451  0.99861889  1
  Te  Te0  1  0.54136343  0.54136343  0.33528540  1
  Te  Te1  1  0.04198013  0.04198013  0.33142892  1
  Te  Te2  1  0.45793485  0.95874004  0.66671686  1
  Te  Te3  1  0.95874004  0.45793485  0.66671686  1
  Te  Te4  1  0.73833177  0.73833177  0.93546870  1
  Te  Te5  1  0.23525600  0.23525600  0.93747388  1
  Te  Te6  1  0.84336421  0.84336421  0.33919545  1
  Te  Te7  1  0.34289897  0.34289897  0.34092474  1
  Te  Te8  1  0.54604693  0.54604693  0.72048914  1
  Te  Te9  1  0.04382759  0.04382759  0.72667789  1
  Te  Te10  1  0.26128627  0.76027225  0.06345819  1
  Te  Te11  1  0.76027225  0.26128627  0.06345819  1
  Te  Te12  1  0.15544500  0.65816304  0.66470115  1
  Te  Te13  1  0.65816304  0.15544500  0.66470115  1
  Te  Te14  1  0.45768797  0.95711528  0.27192278  1
  Te  Te15  1  0.95711528  0.45768797  0.27192278  1
loop_
_geom_bond_atom_site_label_1
_geom_bond_atom_site_label_2
_geom_bond_distance
_geom_bond_site_symmetry_2
Nb0 Te5 2.779704 1_555
Nb0 Te11 2.795821 1_456
Nb0 Te10 2.795821 1_546
Nb0 Te2 2.940312 1_545
Nb0 Te3 2.940312 1_455
Nb0 Te9 3.010151 1_555
Nb1 Te4 2.794152 1_555
Nb1 Te11 2.806475 1_556
Nb1 Te10 2.806475 1_556
Nb1 Te2 2.940633 1_555
Nb1 Te3 2.940633 1_555
Nb1 Te8 3.065438 1_555
Nb2 Te7 2.787556 1_555
Nb2 Te12 2.801048 1_555
Nb2 Te13 2.801048 1_555
Nb2 Te2 2.942441 1_545
Nb2 Te3 2.942441 1_455
Nb2 Te5 3.045490 1_555
Nb3 Te6 2.789849 1_555
Nb3 Te12 2.801737 1_655
Nb3 Te13 2.801737 1_565
Nb3 Te3 2.933936 1_555
Nb3 Te2 2.933936 1_555
Nb3 Te4 3.029026 1_555
Nb4 Te9 2.796007 1_555
Nb4 Te14 2.808851 1_545
Nb4 Te15 2.808851 1_455
Nb4 Te2 2.937411 1_545
Nb4 Te3 2.937411 1_455
Nb4 Te7 3.048371 1_555
Nb5 Te8 2.779988 1_555
Nb5 Te15 2.792971 1_555
Nb5 Te14 2.792971 1_555
Nb5 Te3 2.941251 1_555
Nb5 Te2 2.941251 1_555
Nb5 Te6 3.018169 1_555
Nb6 Te4 2.785161 1_554
Nb6 Te11 2.798003 1_555
Nb6 Te5 2.805585 1_654
Nb6 Te0 2.917264 1_555
Nb6 Te1 2.948504 1_655
Nb6 Te15 3.074071 1_555
Nb7 Te4 2.785161 1_554
Nb7 Te10 2.798003 1_555
Nb7 Te5 2.805585 1_564
Nb7 Te0 2.917264 1_555
Nb7 Te1 2.948504 1_565
Nb7 Te14 3.074071 1_555
Nb8 Te7 2.791333 1_555
Nb8 Te13 2.798300 1_555
Nb8 Te6 2.798656 1_545
Nb8 Te0 2.929008 1_555
Nb8 Te1 2.934778 1_655
Nb8 Te11 3.072162 1_555
Nb9 Te7 2.791333 1_555
Nb9 Te12 2.798300 1_555
Nb9 Te6 2.798656 1_455
Nb9 Te0 2.929008 1_555
Nb9 Te1 2.934778 1_565
Nb9 Te10 3.072162 1_555
Nb10 Te9 2.785010 1_655
Nb10 Te15 2.798190 1_555
Nb10 Te8 2.803548 1_555
Nb10 Te1 2.918585 1_655
Nb10 Te0 2.948547 1_555
Nb10 Te13 3.068530 1_555
Nb11 Te9 2.785010 1_565
Nb11 Te14 2.798190 1_555
Nb11 Te8 2.803548 1_555
Nb11 Te1 2.918585 1_565
Nb11 Te0 2.948547 1_555
Nb11 Te12 3.068530 1_555
Te5 Tl0 3.421494 1_555
Te7 Tl0 3.414270 1_554
Te8 Tl0 3.407714 1_555
