# generated using pymatgen
data_FeCo3O8
_symmetry_space_group_name_H-M   'P 1'
_cell_length_a   8.03867700
_cell_length_b   8.11151586
_cell_length_c   8.15851278
_cell_angle_alpha   89.71692671
_cell_angle_beta   89.98536444
_cell_angle_gamma   89.66595056
_symmetry_Int_Tables_number   1
_chemical_formula_structural   FeCo3O8
_chemical_formula_sum   'Fe4 Co12 O32'
_cell_volume   531.96726184
_cell_formula_units_Z   4
loop_
 _symmetry_equiv_pos_site_id
 _symmetry_equiv_pos_as_xyz
  1  'x, y, z'
loop_
 _atom_site_type_symbol
 _atom_site_label
 _atom_site_symmetry_multiplicity
 _atom_site_fract_x
 _atom_site_fract_y
 _atom_site_fract_z
 _atom_site_occupancy
  Fe  Fe0  1  0.12644200  0.87649500  0.37628600  1
  Fe  Fe1  1  0.37621200  0.12644400  0.87505500  1
  Fe  Fe2  1  0.62657800  0.62610300  0.62230500  1
  Fe  Fe3  1  0.87649200  0.37536900  0.12663300  1
  Co  Co0  1  0.12026200  0.12750400  0.62645500  1
  Co  Co1  1  0.12444900  0.37962900  0.87154400  1
  Co  Co2  1  0.12821400  0.62687200  0.11886900  1
  Co  Co3  1  0.36987300  0.37393400  0.61738400  1
  Co  Co4  1  0.37493800  0.61736800  0.36777300  1
  Co  Co5  1  0.37599400  0.87050000  0.12315400  1
  Co  Co6  1  0.61752800  0.36803400  0.37610700  1
  Co  Co7  1  0.62653500  0.12007800  0.12967700  1
  Co  Co8  1  0.63147600  0.87534400  0.87981500  1
  Co  Co9  1  0.86891300  0.12293900  0.37927800  1
  Co  Co10  1  0.87514400  0.88210400  0.63441000  1
  Co  Co11  1  0.87980700  0.63288900  0.87622800  1
  O  O0  1  0.10813000  0.11410300  0.39495300  1
  O  O1  1  0.10724300  0.90011700  0.62616300  1
  O  O2  1  0.11583200  0.60958500  0.88527800  1
  O  O3  1  0.13604700  0.14461400  0.85896200  1
  O  O4  1  0.11437500  0.39245700  0.10776000  1
  O  O5  1  0.13699200  0.35993800  0.63709600  1
  O  O6  1  0.13899600  0.64010000  0.35434500  1
  O  O7  1  0.14888400  0.85626500  0.12057300  1
  O  O8  1  0.35937900  0.13883300  0.64034300  1
  O  O9  1  0.35791500  0.36287300  0.85643100  1
  O  O10  1  0.36262000  0.63504500  0.13684700  1
  O  O11  1  0.37397700  0.60195800  0.59634500  1
  O  O12  1  0.36688900  0.85655200  0.35216600  1
  O  O13  1  0.38335800  0.38275700  0.38447900  1
  O  O14  1  0.39003700  0.11009800  0.10876000  1
  O  O15  1  0.39113700  0.89041600  0.89055100  1
  O  O16  1  0.60060100  0.37640300  0.60232000  1
  O  O17  1  0.60463600  0.59767400  0.37515900  1
  O  O18  1  0.61040600  0.88944300  0.11241100  1
  O  O19  1  0.63693200  0.35166100  0.14208800  1
  O  O20  1  0.61263500  0.11047400  0.89209300  1
  O  O21  1  0.63524300  0.13561600  0.36358900  1
  O  O22  1  0.64401200  0.87359600  0.65231200  1
  O  O23  1  0.64999200  0.64730900  0.87315500  1
  O  O24  1  0.85790000  0.35286200  0.36336500  1
  O  O25  1  0.85450700  0.12044700  0.14934000  1
  O  O26  1  0.86419800  0.86611800  0.86730300  1
  O  O27  1  0.88529700  0.89319800  0.39851200  1
  O  O28  1  0.87649600  0.65232100  0.64740600  1
  O  O29  1  0.88486700  0.11487300  0.61409500  1
  O  O30  1  0.89299100  0.39402000  0.88916700  1
  O  O31  1  0.89862100  0.62680800  0.10580000  1
loop_
_geom_bond_atom_site_label_1
_geom_bond_atom_site_label_2
_geom_bond_distance
_geom_bond_site_symmetry_2
Fe0 O6 1.928793 1_555
Fe0 O0 1.938856 1_565
Fe0 O12 1.948686 1_555
Fe0 O27 1.950889 1_455
Fe0 O1 2.054234 1_555
Fe0 O7 2.101120 1_555
Fe1 O20 1.909240 1_555
Fe1 O14 1.913849 1_556
Fe1 O15 1.921145 1_545
Fe1 O8 1.921803 1_555
Fe1 O9 1.927825 1_555
Fe1 O3 1.939802 1_555
Fe2 O22 2.029276 1_555
Fe2 O28 2.031972 1_555
Fe2 O17 2.038426 1_555
Fe2 O16 2.044708 1_555
Fe2 O11 2.052250 1_555
Fe2 O23 2.063368 1_555
Fe3 O4 1.924164 1_655
Fe3 O19 1.940446 1_555
Fe3 O24 1.944887 1_555
Fe3 O30 1.947071 1_554
Fe3 O31 2.054530 1_555
Fe3 O25 2.083705 1_555
Co0 O1 1.848042 1_545
Co0 O5 1.893385 1_555
Co0 O0 1.894942 1_555
Co0 O29 1.898365 1_455
Co0 O3 1.906978 1_555
Co0 O8 1.928302 1_555
Co1 O30 1.869141 1_455
Co1 O2 1.870086 1_555
Co1 O9 1.884932 1_555
Co1 O3 1.911327 1_555
Co1 O5 1.922762 1_555
Co1 O4 1.932143 1_556
Co2 O31 1.848732 1_455
Co2 O7 1.869214 1_555
Co2 O10 1.891624 1_555
Co2 O4 1.907962 1_555
Co2 O2 1.914255 1_554
Co2 O6 1.926658 1_555
Co3 O11 1.857207 1_555
Co3 O16 1.859002 1_555
Co3 O5 1.882946 1_555
Co3 O13 1.904236 1_555
Co3 O8 1.917625 1_555
Co3 O9 1.954255 1_555
Co4 O17 1.853407 1_555
Co4 O11 1.868393 1_555
Co4 O10 1.891330 1_555
Co4 O6 1.907657 1_555
Co4 O13 1.908062 1_555
Co4 O12 1.944392 1_555
Co5 O7 1.830117 1_555
Co5 O12 1.872700 1_555
Co5 O18 1.893482 1_555
Co5 O15 1.907680 1_554
Co5 O10 1.916253 1_555
Co5 O14 1.950393 1_565
Co6 O16 1.852086 1_555
Co6 O17 1.864984 1_555
Co6 O13 1.886747 1_555
Co6 O21 1.893063 1_555
Co6 O19 1.920756 1_555
Co6 O24 1.938268 1_555
Co7 O25 1.839663 1_555
Co7 O18 1.882016 1_545
Co7 O19 1.884058 1_555
Co7 O14 1.911039 1_555
Co7 O21 1.914478 1_555
Co7 O20 1.943551 1_554
Co8 O23 1.855885 1_555
Co8 O22 1.858914 1_555
Co8 O26 1.874613 1_555
Co8 O18 1.909070 1_556
Co8 O20 1.915497 1_565
Co8 O15 1.937147 1_555
Co9 O24 1.870480 1_555
Co9 O27 1.873243 1_545
Co9 O25 1.879768 1_555
Co9 O21 1.884960 1_555
Co9 O29 1.920845 1_555
Co9 O0 1.928161 1_655
Co10 O22 1.865341 1_555
Co10 O28 1.866347 1_555
Co10 O1 1.873496 1_655
Co10 O29 1.896618 1_565
Co10 O26 1.905886 1_555
Co10 O27 1.927965 1_555
Co11 O23 1.850595 1_555
Co11 O28 1.872896 1_555
Co11 O31 1.879482 1_556
Co11 O26 1.896308 1_555
Co11 O2 1.907038 1_655
Co11 O30 1.942220 1_555
