# generated using pymatgen
data_Er4Ge6Rh7
_symmetry_space_group_name_H-M   'P 1'
_cell_length_a   7.18913483
_cell_length_b   7.18913483
_cell_length_c   7.18913483
_cell_angle_alpha   109.47122063
_cell_angle_beta   109.47122063
_cell_angle_gamma   109.47122063
_symmetry_Int_Tables_number   1
_chemical_formula_structural   Er4Ge6Rh7
_chemical_formula_sum   'Er4 Ge6 Rh7'
_cell_volume   286.02763534
_cell_formula_units_Z   1
loop_
 _symmetry_equiv_pos_site_id
 _symmetry_equiv_pos_as_xyz
  1  'x, y, z'
loop_
 _atom_site_type_symbol
 _atom_site_label
 _atom_site_symmetry_multiplicity
 _atom_site_fract_x
 _atom_site_fract_y
 _atom_site_fract_z
 _atom_site_occupancy
  Er  Er0  1  0.00000000  0.00000000  0.50000000  1
  Er  Er1  1  0.00000000  0.50000000  0.00000000  1
  Er  Er2  1  0.50000000  0.00000000  0.00000000  1
  Er  Er3  1  0.50000000  0.50000000  0.50000000  1
  Ge  Ge0  1  0.67914693  0.67914693  0.00000000  1
  Ge  Ge1  1  0.32085307  0.00000000  0.32085307  1
  Ge  Ge2  1  -0.00000000  0.32085307  0.32085307  1
  Ge  Ge3  1  0.32085307  0.32085307  0.00000000  1
  Ge  Ge4  1  0.67914693  0.00000000  0.67914693  1
  Ge  Ge5  1  0.00000000  0.67914693  0.67914693  1
  Rh  Rh0  1  0.75000000  0.25000000  0.50000000  1
  Rh  Rh1  1  0.75000000  0.50000000  0.25000000  1
  Rh  Rh2  1  0.50000000  0.25000000  0.75000000  1
  Rh  Rh3  1  0.25000000  0.50000000  0.75000000  1
  Rh  Rh4  1  0.25000000  0.75000000  0.50000000  1
  Rh  Rh5  1  0.50000000  0.75000000  0.25000000  1
  Rh  Rh6  1  0.00000000  0.00000000  0.00000000  1
loop_
_geom_bond_atom_site_label_1
_geom_bond_atom_site_label_2
_geom_bond_distance
_geom_bond_site_symmetry_2
Er0 Rh4 2.934952 1_545
Er0 Rh0 2.934952 1_455
Er0 Rh5 2.934952 1_445
Er0 Rh3 2.934952 1_555
Er0 Rh1 2.934952 1_445
Er0 Rh2 2.934952 1_555
Er0 Ge5 2.993308 1_545
Er0 Ge3 2.993308 1_556
Er0 Ge0 2.993308 1_445
Er0 Ge4 2.993308 1_455
Er0 Ge1 2.993308 1_555
Er0 Ge2 2.993308 1_555
Er1 Rh4 2.934952 1_555
Er1 Rh0 2.934952 1_454
Er1 Rh3 2.934952 1_554
Er1 Rh1 2.934952 1_455
Er1 Rh2 2.934952 1_454
Er1 Rh5 2.934952 1_555
Er1 Ge1 2.993308 1_565
Er1 Ge3 2.993308 1_555
Er1 Ge4 2.993308 1_454
Er1 Ge5 2.993308 1_554
Er1 Ge2 2.993308 1_555
Er1 Ge0 2.993308 1_455
Er2 Rh5 2.934952 1_545
Er2 Rh2 2.934952 1_554
Er2 Rh4 2.934952 1_544
Er2 Rh0 2.934952 1_555
Er2 Rh3 2.934952 1_544
Er2 Rh1 2.934952 1_555
Er2 Ge2 2.993308 1_655
Er2 Ge3 2.993308 1_555
Er2 Ge5 2.993308 1_544
Er2 Ge4 2.993308 1_554
Er2 Ge1 2.993308 1_555
Er2 Ge0 2.993308 1_545
Er3 Rh3 2.934952 1_555
Er3 Rh2 2.934952 1_555
Er3 Rh5 2.934952 1_555
Er3 Rh1 2.934952 1_555
Er3 Rh4 2.934952 1_555
Er3 Rh0 2.934952 1_555
Er3 Ge3 2.993308 1_555
Er3 Ge0 2.993308 1_556
Er3 Ge5 2.993308 1_655
Er3 Ge1 2.993308 1_555
Er3 Ge4 2.993308 1_565
Er3 Ge2 2.993308 1_555
Ge0 Rh3 2.553153 1_554
Ge0 Rh2 2.553153 1_554
Ge0 Rh5 2.553153 1_555
Ge0 Rh1 2.553153 1_555
Ge0 Rh6 2.663497 1_665
Ge1 Rh2 2.553153 1_555
Ge1 Rh4 2.553153 1_545
Ge1 Rh0 2.553153 1_555
Ge1 Rh5 2.553153 1_545
Ge1 Rh6 2.663497 1_555
Ge2 Rh4 2.553153 1_555
Ge2 Rh0 2.553153 1_455
Ge2 Rh1 2.553153 1_455
Ge2 Rh3 2.553153 1_555
Ge2 Rh6 2.663497 1_555
Ge3 Rh5 2.553153 1_555
Ge3 Rh1 2.553153 1_555
Ge3 Rh3 2.553153 1_554
Ge3 Rh2 2.553153 1_554
Ge3 Rh6 2.663497 1_555
Ge4 Rh2 2.553153 1_555
Ge4 Rh4 2.553153 1_545
Ge4 Rh0 2.553153 1_555
Ge4 Rh5 2.553153 1_545
Ge4 Rh6 2.663497 1_656
Ge5 Rh3 2.553153 1_555
Ge5 Rh4 2.553153 1_555
Ge5 Rh0 2.553153 1_455
Ge5 Rh1 2.553153 1_455
Ge5 Rh6 2.663497 1_566
