# generated using pymatgen
data_Ca(PO4)2
_symmetry_space_group_name_H-M   'P 1'
_cell_length_a   7.51944806
_cell_length_b   7.62716160
_cell_length_c   12.55008400
_cell_angle_alpha   90.00000000
_cell_angle_beta   90.00000000
_cell_angle_gamma   107.63512351
_symmetry_Int_Tables_number   1
_chemical_formula_structural   Ca(PO4)2
_chemical_formula_sum   'Ca4 P8 O32'
_cell_volume   685.94735000
_cell_formula_units_Z   4
loop_
 _symmetry_equiv_pos_site_id
 _symmetry_equiv_pos_as_xyz
  1  'x, y, z'
loop_
 _atom_site_type_symbol
 _atom_site_label
 _atom_site_symmetry_multiplicity
 _atom_site_fract_x
 _atom_site_fract_y
 _atom_site_fract_z
 _atom_site_occupancy
  Ca  Ca0  1  0.98392600  0.83589000  0.88481500  1
  Ca  Ca1  1  0.48392600  0.33589000  0.61518500  1
  Ca  Ca2  1  0.01607400  0.16411000  0.11518500  1
  Ca  Ca3  1  0.51607400  0.66411000  0.38481500  1
  P  P0  1  0.28713900  0.59787600  0.01594900  1
  P  P1  1  0.78713900  0.09787600  0.48405100  1
  P  P2  1  0.71286100  0.40212400  0.98405100  1
  P  P3  1  0.21286100  0.90212400  0.51594900  1
  P  P4  1  0.32484800  0.28117100  0.89690000  1
  P  P5  1  0.82484800  0.78117100  0.60310000  1
  P  P6  1  0.67515200  0.71882900  0.10310000  1
  P  P7  1  0.17515200  0.21882900  0.39690000  1
  O  O0  1  0.50624100  0.71186000  0.02273400  1
  O  O1  1  0.00624100  0.21186000  0.47726600  1
  O  O2  1  0.49375900  0.28814000  0.97726600  1
  O  O3  1  0.99375900  0.78814000  0.52273400  1
  O  O4  1  0.22674900  0.47105700  0.10944900  1
  O  O5  1  0.72674900  0.97105700  0.39055100  1
  O  O6  1  0.77325100  0.52894300  0.89055100  1
  O  O7  1  0.27325100  0.02894300  0.60944900  1
  O  O8  1  0.18525800  0.73313700  0.98831200  1
  O  O9  1  0.68525800  0.23313700  0.51168800  1
  O  O10  1  0.81474200  0.26686300  0.01168800  1
  O  O11  1  0.31474200  0.76686300  0.48831200  1
  O  O12  1  0.28743200  0.47794500  0.90919800  1
  O  O13  1  0.78743200  0.97794500  0.59080200  1
  O  O14  1  0.71256800  0.52205500  0.09080200  1
  O  O15  1  0.21256800  0.02205500  0.40919800  1
  O  O16  1  0.16055800  0.13358300  0.94262600  1
  O  O17  1  0.66055800  0.63358300  0.55737400  1
  O  O18  1  0.83944200  0.86641700  0.05737400  1
  O  O19  1  0.33944200  0.36641700  0.44262600  1
  O  O20  1  0.87862400  0.76764400  0.71621500  1
  O  O21  1  0.37862400  0.26764400  0.78378500  1
  O  O22  1  0.12137600  0.23235600  0.28378500  1
  O  O23  1  0.62137600  0.73235600  0.21621500  1
  O  O24  1  0.74746500  0.02858100  0.84507000  1
  O  O25  1  0.24746500  0.52858100  0.65493000  1
  O  O26  1  0.25253500  0.97141900  0.15493000  1
  O  O27  1  0.75253500  0.47141900  0.34507000  1
  O  O28  1  0.78676500  0.34596100  0.71981700  1
  O  O29  1  0.28676500  0.84596100  0.78018300  1
  O  O30  1  0.21323500  0.65403900  0.28018300  1
  O  O31  1  0.71323500  0.15403900  0.21981700  1
loop_
_geom_bond_atom_site_label_1
_geom_bond_atom_site_label_2
_geom_bond_distance
_geom_bond_site_symmetry_2
Ca0 O20 2.263935 1_555
Ca0 O8 2.304808 1_655
Ca0 O16 2.370364 1_665
Ca0 O6 2.397604 1_555
Ca0 O18 2.465317 1_556
Ca0 O29 2.609562 1_655
Ca0 O24 2.674624 1_565
Ca1 O21 2.263935 1_555
Ca1 O9 2.304808 1_555
Ca1 O17 2.370364 1_555
Ca1 O7 2.397604 1_555
Ca1 O19 2.465317 1_555
Ca1 O28 2.609562 1_555
Ca1 O25 2.674624 1_555
Ca2 O22 2.263935 1_555
Ca2 O10 2.304808 1_455
Ca2 O18 2.370364 1_445
Ca2 O4 2.397604 1_555
Ca2 O16 2.465317 1_554
Ca2 O31 2.609562 1_455
Ca2 O26 2.674624 1_545
Ca3 O23 2.263935 1_555
Ca3 O11 2.304808 1_555
Ca3 O19 2.370364 1_555
Ca3 O5 2.397604 1_555
Ca3 O17 2.465317 1_555
Ca3 O30 2.609562 1_555
Ca3 O27 2.674624 1_555
O0 P6 1.610091 1_555
O0 P0 1.615411 1_555
O1 P7 1.610091 1_555
O1 P1 1.615411 1_455
O2 P4 1.610091 1_555
O2 P2 1.615411 1_555
O3 P5 1.610091 1_555
O3 P3 1.615411 1_655
O4 P0 1.500874 1_555
O5 P1 1.500874 1_565
O6 P2 1.500874 1_555
O7 P3 1.500874 1_545
O8 P0 1.500129 1_556
O9 P1 1.500129 1_555
O10 P2 1.500129 1_554
O11 P3 1.500129 1_555
O12 P4 1.615954 1_555
O12 P0 1.622606 1_556
O13 P5 1.615954 1_555
O13 P1 1.622606 1_565
O14 P6 1.615954 1_555
O14 P2 1.622606 1_554
O15 P7 1.615954 1_555
O15 P3 1.622606 1_545
O16 P4 1.509973 1_555
O17 P5 1.509973 1_555
O18 P6 1.509973 1_555
O19 P7 1.509973 1_555
O20 P5 1.488189 1_555
O21 P4 1.488189 1_555
O22 P7 1.488189 1_555
O23 P6 1.488189 1_555
