# generated using pymatgen
data_CCl3
_symmetry_space_group_name_H-M   'P 1'
_cell_length_a   6.48888777
_cell_length_b   10.16076865
_cell_length_c   11.48156191
_cell_angle_alpha   90.00000000
_cell_angle_beta   90.00000000
_cell_angle_gamma   90.00000000
_symmetry_Int_Tables_number   1
_chemical_formula_structural   CCl3
_chemical_formula_sum   'C8 Cl24'
_cell_volume   757.00334365
_cell_formula_units_Z   8
loop_
 _symmetry_equiv_pos_site_id
 _symmetry_equiv_pos_as_xyz
  1  'x, y, z'
loop_
 _atom_site_type_symbol
 _atom_site_label
 _atom_site_symmetry_multiplicity
 _atom_site_fract_x
 _atom_site_fract_y
 _atom_site_fract_z
 _atom_site_occupancy
  C  C0  1  0.78495226  0.75000000  0.61075473  1
  C  C1  1  0.21504774  0.25000000  0.38924527  1
  C  C2  1  0.28495226  0.25000000  0.88924527  1
  C  C3  1  0.71504774  0.75000000  0.11075473  1
  C  C4  1  0.02386482  0.75000000  0.64094116  1
  C  C5  1  0.97613518  0.25000000  0.35905884  1
  C  C6  1  0.52386482  0.25000000  0.85905884  1
  C  C7  1  0.47613518  0.75000000  0.14094116  1
  Cl  Cl0  1  0.08500201  0.60794112  0.72283954  1
  Cl  Cl1  1  0.91499799  0.39205888  0.27716046  1
  Cl  Cl2  1  0.58500201  0.39205888  0.77716046  1
  Cl  Cl3  1  0.91499799  0.10794112  0.27716046  1
  Cl  Cl4  1  0.41499799  0.60794112  0.22283954  1
  Cl  Cl5  1  0.08500201  0.89205888  0.72283954  1
  Cl  Cl6  1  0.41499799  0.89205888  0.22283954  1
  Cl  Cl7  1  0.58500201  0.10794112  0.77716046  1
  Cl  Cl8  1  0.72499174  0.60762938  0.52894537  1
  Cl  Cl9  1  0.27500826  0.39237062  0.47105463  1
  Cl  Cl10  1  0.22499174  0.39237062  0.97105463  1
  Cl  Cl11  1  0.27500826  0.10762938  0.47105463  1
  Cl  Cl12  1  0.77500826  0.60762938  0.02894537  1
  Cl  Cl13  1  0.72499174  0.89237062  0.52894537  1
  Cl  Cl14  1  0.77500826  0.89237062  0.02894537  1
  Cl  Cl15  1  0.22499174  0.10762938  0.97105463  1
  Cl  Cl16  1  0.16853297  0.75000000  0.51006085  1
  Cl  Cl17  1  0.83146703  0.25000000  0.48993915  1
  Cl  Cl18  1  0.66853297  0.25000000  0.98993915  1
  Cl  Cl19  1  0.33146703  0.75000000  0.01006085  1
  Cl  Cl20  1  0.64038172  0.75000000  0.74101887  1
  Cl  Cl21  1  0.35961828  0.25000000  0.25898113  1
  Cl  Cl22  1  0.14038172  0.25000000  0.75898113  1
  Cl  Cl23  1  0.85961828  0.75000000  0.24101887  1
loop_
_geom_bond_atom_site_label_1
_geom_bond_atom_site_label_2
_geom_bond_distance
_geom_bond_site_symmetry_2
C0 C4 1.588547 1_655
C0 Cl20 1.765492 1_555
C0 Cl13 1.768135 1_555
C0 Cl8 1.768135 1_555
C1 C5 1.588547 1_455
C1 Cl21 1.765492 1_555
C1 Cl9 1.768135 1_555
C1 Cl11 1.768135 1_555
C2 C6 1.588547 1_555
C2 Cl22 1.765492 1_555
C2 Cl10 1.768135 1_555
C2 Cl15 1.768135 1_555
C3 C7 1.588547 1_555
C3 Cl23 1.765492 1_555
C3 Cl12 1.768135 1_555
C3 Cl14 1.768135 1_555
C4 Cl5 1.767786 1_555
C4 Cl0 1.767786 1_555
C4 Cl16 1.771825 1_555
C5 Cl3 1.767786 1_555
C5 Cl1 1.767786 1_555
C5 Cl17 1.771825 1_555
C6 Cl7 1.767786 1_555
C6 Cl2 1.767786 1_555
C6 Cl18 1.771825 1_555
C7 Cl6 1.767786 1_555
C7 Cl4 1.767786 1_555
C7 Cl19 1.771825 1_555
