# generated using pymatgen
data_BaYSnSbO6
_symmetry_space_group_name_H-M   'P 1'
_cell_length_a   8.46815333
_cell_length_b   8.40755874
_cell_length_c   8.46146380
_cell_angle_alpha   90.00000000
_cell_angle_beta   90.00000000
_cell_angle_gamma   90.00000000
_symmetry_Int_Tables_number   1
_chemical_formula_structural   BaYSnSbO6
_chemical_formula_sum   'Ba4 Y4 Sn4 Sb4 O24'
_cell_volume   602.42657817
_cell_formula_units_Z   4
loop_
 _symmetry_equiv_pos_site_id
 _symmetry_equiv_pos_as_xyz
  1  'x, y, z'
loop_
 _atom_site_type_symbol
 _atom_site_label
 _atom_site_symmetry_multiplicity
 _atom_site_fract_x
 _atom_site_fract_y
 _atom_site_fract_z
 _atom_site_occupancy
  Ba  Ba0  1  0.00000000  -0.00000000  -0.00000000  1
  Ba  Ba1  1  0.50000000  0.50000000  0.50000000  1
  Ba  Ba2  1  0.00000000  0.50000000  0.50000000  1
  Ba  Ba3  1  0.50000000  -0.00000000  -0.00000000  1
  Y  Y0  1  0.25000000  0.25000000  0.25000000  1
  Y  Y1  1  0.75000000  0.75000000  0.25000000  1
  Y  Y2  1  0.75000000  0.25000000  0.75000000  1
  Y  Y3  1  0.25000000  0.75000000  0.75000000  1
  Sn  Sn0  1  0.50000000  -0.00000000  0.50000000  1
  Sn  Sn1  1  0.50000000  0.50000000  -0.00000000  1
  Sn  Sn2  1  -0.00000000  0.50000000  -0.00000000  1
  Sn  Sn3  1  -0.00000000  -0.00000000  0.50000000  1
  Sb  Sb0  1  0.75000000  0.75000000  0.75000000  1
  Sb  Sb1  1  0.25000000  0.25000000  0.75000000  1
  Sb  Sb2  1  0.25000000  0.75000000  0.25000000  1
  Sb  Sb3  1  0.75000000  0.25000000  0.25000000  1
  O  O0  1  0.98517116  0.22263372  0.28957603  1
  O  O1  1  0.01482884  0.77736628  0.28957603  1
  O  O2  1  0.01482884  0.22263372  0.71042397  1
  O  O3  1  0.98517116  0.77736628  0.71042397  1
  O  O4  1  0.26843717  0.98611294  0.22118139  1
  O  O5  1  0.26843717  0.01388706  0.77881861  1
  O  O6  1  0.73156283  0.01388706  0.22118139  1
  O  O7  1  0.73156283  0.98611294  0.77881861  1
  O  O8  1  0.20835445  0.27636396  0.98506437  1
  O  O9  1  0.79164555  0.27636396  0.01493563  1
  O  O10  1  0.20835445  0.72363604  0.01493563  1
  O  O11  1  0.79164555  0.72363604  0.98506437  1
  O  O12  1  0.51482884  0.27736628  0.21042397  1
  O  O13  1  0.48517116  0.72263372  0.21042397  1
  O  O14  1  0.48517116  0.27736628  0.78957603  1
  O  O15  1  0.51482884  0.72263372  0.78957603  1
  O  O16  1  0.23156283  0.51388706  0.27881861  1
  O  O17  1  0.23156283  0.48611294  0.72118139  1
  O  O18  1  0.76843717  0.48611294  0.27881861  1
  O  O19  1  0.76843717  0.51388706  0.72118139  1
  O  O20  1  0.29164555  0.22363604  0.51493563  1
  O  O21  1  0.70835445  0.22363604  0.48506437  1
  O  O22  1  0.29164555  0.77636396  0.48506437  1
  O  O23  1  0.70835445  0.77636396  0.51493563  1
loop_
_geom_bond_atom_site_label_1
_geom_bond_atom_site_label_2
_geom_bond_distance
_geom_bond_site_symmetry_2
Ba0 O11 2.920251 1_444
Ba0 O10 2.920251 1_545
Ba0 O8 2.920251 1_554
Ba0 O9 2.920251 1_455
Ba0 O6 2.946778 1_455
Ba0 O4 2.946778 1_545
Ba0 O5 2.946778 1_554
Ba0 O7 2.946778 1_444
Ba0 O0 3.085950 1_455
Ba0 O2 3.085950 1_554
Ba0 O1 3.085950 1_545
Ba0 O3 3.085950 1_444
Ba1 O23 2.920251 1_555
Ba1 O21 2.920251 1_555
Ba1 O22 2.920251 1_555
Ba1 O20 2.920251 1_555
Ba1 O16 2.946778 1_555
Ba1 O18 2.946778 1_555
Ba1 O19 2.946778 1_555
Ba1 O17 2.946778 1_555
Ba1 O12 3.085950 1_555
Ba1 O14 3.085950 1_555
Ba1 O15 3.085950 1_555
Ba1 O13 3.085950 1_555
Ba2 O18 2.713186 1_455
Ba2 O16 2.713186 1_555
Ba2 O17 2.713186 1_555
Ba2 O19 2.713186 1_455
Ba2 O1 2.936670 1_555
Ba2 O3 2.936670 1_455
Ba2 O0 2.936670 1_455
Ba2 O2 2.936670 1_555
Ba3 O7 2.713186 1_544
Ba3 O6 2.713186 1_555
Ba3 O4 2.713186 1_545
Ba3 O5 2.713186 1_554
Ba3 O13 2.936670 1_545
Ba3 O15 2.936670 1_544
Ba3 O12 2.936670 1_555
Ba3 O14 2.936670 1_554
O0 Sb3 2.032489 1_555
O0 Y0 2.279119 1_655
O0 Sn3 2.586424 1_655
O1 Sb2 2.032489 1_555
O1 Y1 2.279119 1_455
O1 Sn3 2.586424 1_565
O2 Sb1 2.032489 1_555
O2 Y2 2.279119 1_455
O2 Sn3 2.586424 1_555
O3 Sb0 2.032489 1_555
O3 Y3 2.279119 1_655
O3 Sn3 2.586424 1_665
O4 Sb2 2.006139 1_555
O4 Y0 2.237460 1_565
O5 Sb1 2.006139 1_555
O5 Y3 2.237460 1_545
O6 Sb3 2.006139 1_555
O6 Y1 2.237460 1_545
O7 Sb0 2.006139 1_555
O7 Y2 2.237460 1_565
O8 Sb1 2.032136 1_555
O8 Y0 2.280113 1_556
O8 Sn2 2.581526 1_556
O9 Sb3 2.032136 1_555
O9 Y2 2.280113 1_554
O9 Sn2 2.581526 1_655
O10 Sb2 2.032136 1_555
O10 Y3 2.280113 1_554
O10 Sn2 2.581526 1_555
O11 Sb0 2.032136 1_555
O11 Y1 2.280113 1_556
O11 Sn2 2.581526 1_656
O12 Sb3 2.032489 1_555
O12 Y0 2.279119 1_555
O12 Sn1 2.586424 1_555
O13 Sb2 2.032489 1_555
O13 Y1 2.279119 1_555
O13 Sn1 2.586424 1_555
O14 Sb1 2.032489 1_555
O14 Y2 2.279119 1_555
O14 Sn1 2.586424 1_556
O15 Sb0 2.032489 1_555
O15 Y3 2.279119 1_555
O15 Sn1 2.586424 1_556
O16 Sb2 2.006139 1_555
O16 Y0 2.237460 1_555
O17 Sb1 2.006139 1_555
O17 Y3 2.237460 1_555
O18 Sb3 2.006139 1_555
O18 Y1 2.237460 1_555
O19 Sb0 2.006139 1_555
O19 Y2 2.237460 1_555
O20 Sb1 2.032136 1_555
O20 Y0 2.280113 1_555
O20 Sn0 2.581526 1_555
O21 Sb3 2.032136 1_555
O21 Y2 2.280113 1_555
O21 Sn0 2.581526 1_555
O22 Sb2 2.032136 1_555
O22 Y3 2.280113 1_555
O22 Sn0 2.581526 1_565
O23 Sb0 2.032136 1_555
O23 Y1 2.280113 1_555
O23 Sn0 2.581526 1_565
