# generated using pymatgen
data_LaCeOs4
_symmetry_space_group_name_H-M   'P 1'
_cell_length_a   5.42034696
_cell_length_b   5.42034986
_cell_length_c   5.42034986
_cell_angle_alpha   60.00000000
_cell_angle_beta   59.99998231
_cell_angle_gamma   59.99998231
_symmetry_Int_Tables_number   1
_chemical_formula_structural   LaCeOs4
_chemical_formula_sum   'La1 Ce1 Os4'
_cell_volume   112.60731692
_cell_formula_units_Z   1
loop_
 _symmetry_equiv_pos_site_id
 _symmetry_equiv_pos_as_xyz
  1  'x, y, z'
loop_
 _atom_site_type_symbol
 _atom_site_label
 _atom_site_symmetry_multiplicity
 _atom_site_fract_x
 _atom_site_fract_y
 _atom_site_fract_z
 _atom_site_occupancy
  La  La0  1  0.00000000  0.00000000  0.00000000  1
  Ce  Ce0  1  0.25000000  0.25000000  0.25000000  1
  Os  Os0  1  0.62483003  0.62483003  0.12551091  1
  Os  Os1  1  0.62483003  0.12551091  0.62483003  1
  Os  Os2  1  0.12551091  0.62483003  0.62483003  1
  Os  Os3  1  0.62483003  0.62483003  0.62483003  1
loop_
_geom_bond_atom_site_label_1
_geom_bond_atom_site_label_2
_geom_bond_distance
_geom_bond_site_symmetry_2
La0 Os0 3.178352 1_445
La0 Os1 3.178352 1_454
La0 Os2 3.178353 1_544
La0 Os3 3.178353 1_544
La0 Os3 3.178355 1_445
La0 Os3 3.178355 1_454
La0 Os1 3.178356 1_554
La0 Os0 3.178356 1_545
La0 Os1 3.178357 1_455
La0 Os0 3.178357 1_455
La0 Os2 3.178358 1_545
La0 Os2 3.178358 1_554
Ce0 Os1 3.177565 1_455
Ce0 Os0 3.177565 1_455
Ce0 Os1 3.177567 1_554
Ce0 Os0 3.177567 1_545
Ce0 Os2 3.177567 1_554
Ce0 Os2 3.177567 1_545
Ce0 Os3 3.177568 1_455
Ce0 Os3 3.177569 1_554
Ce0 Os3 3.177569 1_545
Ce0 Os0 3.177571 1_555
Ce0 Os1 3.177571 1_555
Ce0 Os2 3.177572 1_555
Os0 Os2 2.706483 1_555
Os0 Os1 2.706484 1_555
Os0 Os3 2.706484 1_555
Os0 Os2 2.713864 1_654
Os0 Os1 2.713866 1_564
Os0 Os3 2.713866 1_554
Os1 Os2 2.706483 1_555
Os1 Os3 2.706484 1_555
Os1 Os2 2.713864 1_645
Os1 Os3 2.713866 1_545
Os2 Os3 2.706483 1_555
Os2 Os3 2.713864 1_455
