# generated using pymatgen
data_Y3BBr3
_symmetry_space_group_name_H-M   'P 1'
_cell_length_a   9.72274937
_cell_length_b   9.72281144
_cell_length_c   9.72274217
_cell_angle_alpha   109.47076373
_cell_angle_beta   109.47064575
_cell_angle_gamma   109.47141976
_symmetry_Int_Tables_number   1
_chemical_formula_structural   Y3BBr3
_chemical_formula_sum   'Y12 B4 Br12'
_cell_volume   707.54211523
_cell_formula_units_Z   4
loop_
 _symmetry_equiv_pos_site_id
 _symmetry_equiv_pos_as_xyz
  1  'x, y, z'
loop_
 _atom_site_type_symbol
 _atom_site_label
 _atom_site_symmetry_multiplicity
 _atom_site_fract_x
 _atom_site_fract_y
 _atom_site_fract_z
 _atom_site_occupancy
  Y  Y0  1  0.46085725  0.48042683  0.23043147  1
  Y  Y1  1  0.75001302  0.23043907  0.26957833  1
  Y  Y2  1  0.75000876  0.01956950  0.48043965  1
  Y  Y3  1  0.23042755  0.46086023  0.48042847  1
  Y  Y4  1  0.26956515  0.74999127  0.23043141  1
  Y  Y5  1  0.03913785  0.26956616  0.01956761  1
  Y  Y6  1  0.01956890  0.03913597  0.26956732  1
  Y  Y7  1  0.48043042  0.74999292  0.01956327  1
  Y  Y8  1  0.48042782  0.23044205  0.46086325  1
  Y  Y9  1  0.01956727  0.48042644  0.74999606  1
  Y  Y10  1  0.26956511  0.01957325  0.03913668  1
  Y  Y11  1  0.23043026  0.26956495  0.74999817  1
  B  B0  1  0.24999572  0.25000000  0.24999883  1
  B  B1  1  0.50000224  0.00000030  0.25000209  1
  B  B2  1  0.00000350  0.24999860  0.50000246  1
  B  B3  1  0.24999704  0.49999398  -0.00000467  1
  Br  Br0  1  0.25000465  0.75871144  0.74128589  1
  Br  Br1  1  0.51741762  0.50871235  0.75869237  1
  Br  Br2  1  0.98258530  0.74130623  0.99130722  1
  Br  Br3  1  0.74127736  0.25000316  0.75871547  1
  Br  Br4  1  0.99127859  0.98256406  0.74127561  1
  Br  Br5  1  0.24999397  0.99129908  0.50871161  1
  Br  Br6  1  0.75872732  0.51743223  0.50871489  1
  Br  Br7  1  0.50872112  0.25000270  0.99129113  1
  Br  Br8  1  0.75871584  0.74129184  0.24998990  1
  Br  Br9  1  0.74130151  0.99130658  0.98258693  1
  Br  Br10  1  0.99127547  0.50869271  0.24999223  1
  Br  Br11  1  0.50870141  0.75869710  0.51743535  1
loop_
_geom_bond_atom_site_label_1
_geom_bond_atom_site_label_2
_geom_bond_distance
_geom_bond_site_symmetry_2
B0 Y0 2.596292 1_555
B0 Y8 2.596298 1_555
B0 Y5 2.596308 1_555
B0 Y6 2.596310 1_555
B0 Y3 2.596325 1_555
B0 Y10 2.596327 1_555
B1 Y1 2.596401 1_555
B1 Y4 2.596413 1_545
B1 Y2 2.596421 1_555
B1 Y10 2.596424 1_555
B1 Y7 2.596425 1_545
B1 Y8 2.596444 1_555
B2 Y1 2.596304 1_455
B2 Y3 2.596314 1_555
B2 Y11 2.596314 1_555
B2 Y2 2.596323 1_455
B2 Y9 2.596325 1_555
B2 Y6 2.596354 1_555
B3 Y5 2.596316 1_555
B3 Y11 2.596337 1_554
B3 Y9 2.596345 1_554
B3 Y7 2.596346 1_555
B3 Y0 2.596356 1_555
B3 Y4 2.596369 1_555
Br0 Y7 2.930083 1_556
Br0 Y9 2.930124 1_555
Br0 Y3 3.044593 1_555
Br0 Y10 3.044694 1_566
Br1 Y3 2.929980 1_555
Br1 Y11 2.930155 1_555
Br1 Y8 3.044460 1_555
Br1 Y7 3.044623 1_556
Br2 Y10 2.930026 1_666
Br2 Y4 2.930068 1_656
Br2 Y6 3.044443 1_666
Br2 Y9 3.044804 1_655
Br3 Y9 2.930140 1_655
Br3 Y2 2.930185 1_555
Br3 Y8 3.044636 1_555
Br3 Y5 3.044692 1_656
Br4 Y11 2.930116 1_665
Br4 Y5 2.930176 1_666
Br4 Y2 3.044472 1_565
Br4 Y10 3.044636 1_666
Br5 Y6 2.929980 1_565
Br5 Y8 2.930076 1_565
Br5 Y11 3.044486 1_565
Br5 Y4 3.044720 1_555
Br6 Y1 2.930063 1_555
Br6 Y8 2.930161 1_555
Br6 Y9 3.044557 1_655
Br6 Y0 3.044692 1_555
Br7 Y10 2.930108 1_556
Br7 Y0 2.930132 1_556
Br7 Y1 3.044640 1_556
Br7 Y11 3.044661 1_555
Br8 Y7 2.930041 1_555
Br8 Y2 2.930136 1_565
Br8 Y6 3.044503 1_665
Br8 Y0 3.044746 1_555
Br9 Y1 2.930042 1_566
Br9 Y6 2.930047 1_666
Br9 Y5 3.044469 1_666
Br9 Y7 3.044703 1_556
Br10 Y5 2.930047 1_655
Br10 Y3 2.930056 1_655
Br10 Y1 3.044403 1_555
Br10 Y4 3.044650 1_655
Br11 Y0 2.930137 1_555
Br11 Y4 2.930169 1_555
Br11 Y3 3.044422 1_555
Br11 Y2 3.044803 1_565
