# generated using pymatgen
data_Mg3(Al9W)2
_symmetry_space_group_name_H-M   'P 1'
_cell_length_a   10.29782432
_cell_length_b   10.29780778
_cell_length_c   10.29782498
_cell_angle_alpha   59.99934714
_cell_angle_beta   59.99939078
_cell_angle_gamma   59.99934589
_symmetry_Int_Tables_number   1
_chemical_formula_structural   Mg3(Al9W)2
_chemical_formula_sum   'Mg6 Al36 W4'
_cell_volume   772.17276367
_cell_formula_units_Z   2
loop_
 _symmetry_equiv_pos_site_id
 _symmetry_equiv_pos_as_xyz
  1  'x, y, z'
loop_
 _atom_site_type_symbol
 _atom_site_label
 _atom_site_symmetry_multiplicity
 _atom_site_fract_x
 _atom_site_fract_y
 _atom_site_fract_z
 _atom_site_occupancy
  Mg  Mg0  1  0.12500123  0.62500047  0.62499993  1
  Mg  Mg1  1  0.62499997  0.12500176  0.62499994  1
  Mg  Mg2  1  0.62500002  0.62500048  0.12500133  1
  Mg  Mg3  1  0.62499971  0.62500012  0.62499965  1
  Mg  Mg4  1  0.49999971  0.50000028  0.49999982  1
  Mg  Mg5  1  0.75000048  0.75000107  0.75000040  1
  Al  Al0  1  0.85719542  0.85719599  0.14281661  1
  Al  Al1  1  0.14280300  0.14280305  0.85718113  1
  Al  Al2  1  0.85719604  0.14279460  0.85719576  1
  Al  Al3  1  0.14280289  0.85718140  0.14280267  1
  Al  Al4  1  0.14281669  0.85719605  0.85719536  1
  Al  Al5  1  0.85718108  0.14280303  0.14280278  1
  Al  Al6  1  0.39277537  0.39277585  0.10722442  1
  Al  Al7  1  0.10722487  0.10722577  0.39277488  1
  Al  Al8  1  0.39277505  0.10722441  0.39277487  1
  Al  Al9  1  0.10722490  0.39277561  0.10722516  1
  Al  Al10  1  0.10722448  0.39277583  0.39277531  1
  Al  Al11  1  0.39277481  0.10722592  0.10722516  1
  Al  Al12  1  0.56620498  0.30161030  0.30161084  1
  Al  Al13  1  0.30161261  0.56620551  0.83057274  1
  Al  Al14  1  0.30161120  0.83057391  0.56620477  1
  Al  Al15  1  0.83057064  0.30161181  0.30161203  1
  Al  Al16  1  0.30161082  0.30161032  0.56620530  1
  Al  Al17  1  0.56620486  0.83057391  0.30161123  1
  Al  Al18  1  0.83057267  0.56620539  0.30161260  1
  Al  Al19  1  0.30161190  0.30161180  0.83057112  1
  Al  Al20  1  0.30161075  0.56620555  0.30161081  1
  Al  Al21  1  0.83057301  0.30161185  0.56620524  1
  Al  Al22  1  0.56620526  0.30161200  0.83057300  1
  Al  Al23  1  0.30161180  0.83057194  0.30161098  1
  Al  Al24  1  0.68381237  0.94833986  0.94833827  1
  Al  Al25  1  0.94833741  0.68381274  0.41951280  1
  Al  Al26  1  0.94833752  0.41951339  0.68381212  1
  Al  Al27  1  0.41951513  0.94833811  0.94833726  1
  Al  Al28  1  0.94833843  0.94833914  0.68381213  1
  Al  Al29  1  0.68381225  0.41951324  0.94833748  1
  Al  Al30  1  0.41951342  0.68381281  0.94833751  1
  Al  Al31  1  0.94833750  0.94833806  0.41951440  1
  Al  Al32  1  0.94833844  0.68381242  0.94833857  1
  Al  Al33  1  0.41951259  0.94833758  0.68381213  1
  Al  Al34  1  0.68381198  0.94833763  0.41951251  1
  Al  Al35  1  0.94833768  0.41951482  0.94833767  1
  W  W0  1  0.62500886  0.12499781  0.12499735  1
  W  W1  1  0.12499725  0.62500957  0.12499733  1
  W  W2  1  0.12499697  0.12499751  0.62500948  1
  W  W3  1  0.12499695  0.12499735  0.12499712  1
loop_
_geom_bond_atom_site_label_1
_geom_bond_atom_site_label_2
_geom_bond_distance
_geom_bond_site_symmetry_2
Mg0 Mg4 3.153014 1_555
Mg0 Mg5 3.153033 1_455
Mg1 Mg4 3.153008 1_555
Mg1 Mg5 3.153026 1_545
Mg2 Mg4 3.153015 1_555
Mg2 Mg5 3.153035 1_554
Mg3 Mg4 3.153063 1_555
Mg3 Mg5 3.153086 1_555
Al0 W0 2.587398 1_565
Al0 W1 2.587398 1_655
Al0 Al18 2.683579 1_555
Al0 Al17 2.683582 1_555
Al0 Al34 2.845818 1_555
Al0 Al25 2.845822 1_555
Al0 Al24 2.846033 1_554
Al0 Al32 2.846036 1_554
Al1 W2 2.587255 1_555
Al1 W3 2.587583 1_556
Al1 Al16 2.683504 1_555
Al1 Al19 2.683709 1_555
Al1 Al33 2.845843 1_545
Al1 Al26 2.845844 1_455
Al1 Al35 2.846022 1_455
Al1 Al27 2.846026 1_545
Al2 W2 2.587396 1_655
Al2 W0 2.587404 1_556
Al2 Al21 2.683584 1_555
Al2 Al22 2.683585 1_555
Al2 Al24 2.845834 1_545
Al2 Al28 2.845840 1_545
Al2 Al29 2.846014 1_555
Al2 Al26 2.846014 1_555
Al3 W1 2.587250 1_555
Al3 W3 2.587579 1_565
Al3 Al30 2.845843 1_554
Al3 Al31 2.846027 1_455
Al4 W2 2.587393 1_565
Al4 W1 2.587400 1_556
Al5 W0 2.587255 1_555
Al5 W3 2.587584 1_655
Al6 W0 2.587465 1_555
Al6 W1 2.587467 1_555
Al7 W3 2.587491 1_555
Al7 W2 2.587503 1_555
Al8 W0 2.587468 1_555
Al8 W2 2.587474 1_555
Al9 W3 2.587489 1_555
Al9 W1 2.587497 1_555
Al10 W1 2.587467 1_555
Al10 W2 2.587470 1_555
Al10 Al25 2.684412 1_455
Al10 Al26 2.684416 1_455
Al10 Al18 2.845524 1_455
Al10 Al21 2.845529 1_455
Al10 Al20 2.845543 1_555
Al10 Al16 2.845545 1_555
Al11 W3 2.587493 1_555
Al11 W0 2.587499 1_555
Al11 Al24 2.684404 1_544
Al11 Al27 2.684434 1_544
Al11 Al17 2.845520 1_545
Al11 Al22 2.845525 1_554
Al11 Al23 2.845538 1_545
Al11 Al19 2.845541 1_554
Al12 Al5 2.683506 1_555
Al12 Al15 2.722405 1_555
Al12 Al16 2.724721 1_555
Al12 Al20 2.724721 1_555
Al12 W0 2.843829 1_555
Al12 Al6 2.845542 1_555
Al12 Al8 2.845543 1_555
Al12 Al34 2.970336 1_545
Al12 Al29 2.970348 1_554
Al12 Mg1 3.102084 1_555
Al12 Mg2 3.102090 1_555
Al12 Mg4 3.193813 1_555
Al13 Al4 2.683578 1_555
Al13 Al14 2.722388 1_555
Al13 Al22 2.724704 1_555
Al13 Al19 2.724747 1_555
Al13 W1 2.843834 1_556
Al13 Al6 2.845523 1_556
Al13 Al9 2.845532 1_556
Al13 Al32 2.970355 1_455
Al13 Al30 2.970380 1_555
Al13 Mg3 3.102062 1_555
Al13 Mg0 3.102105 1_555
Al13 Mg4 3.193786 1_555
Al14 Al4 2.683582 1_555
Al14 Al17 2.724713 1_555
Al14 Al23 2.724748 1_555
Al14 W2 2.843824 1_565
Al14 Al8 2.845515 1_565
Al14 Al7 2.845520 1_565
Al14 Al28 2.970343 1_455
Al14 Al33 2.970377 1_555
Al14 Mg3 3.102074 1_555
Al14 Mg0 3.102095 1_555
Al14 Mg4 3.193786 1_555
Al15 Al5 2.683711 1_555
Al15 Al21 2.724747 1_555
Al15 Al18 2.724747 1_555
Al15 W3 2.843834 1_655
Al15 Al7 2.845542 1_655
Al15 Al9 2.845549 1_655
Al15 Al31 2.970345 1_545
Al15 Al35 2.970357 1_554
Al15 Mg1 3.102051 1_555
Al15 Mg2 3.102053 1_555
Al15 Mg4 3.193757 1_555
Al16 Al19 2.722406 1_555
Al16 Al20 2.724722 1_555
Al16 W2 2.843834 1_555
Al16 Al8 2.845547 1_555
Al16 Al33 2.970337 1_545
Al16 Al26 2.970348 1_455
Al16 Mg1 3.102083 1_555
Al16 Mg0 3.102087 1_555
Al16 Mg4 3.193811 1_555
Al17 Al18 2.722388 1_555
Al17 Al23 2.724744 1_555
Al17 W0 2.843823 1_565
Al17 Al8 2.845514 1_565
Al17 Al24 2.970345 1_554
Al17 Al34 2.970374 1_555
Al17 Mg3 3.102073 1_555
Al17 Mg2 3.102095 1_555
Al17 Mg4 3.193787 1_555
Al18 Al21 2.724704 1_555
Al18 W1 2.843835 1_655
Al18 Al9 2.845529 1_655
Al18 Al32 2.970354 1_554
Al18 Al25 2.970375 1_555
Al18 Mg3 3.102062 1_555
Al18 Mg2 3.102102 1_555
Al18 Mg4 3.193786 1_555
Al19 Al22 2.724747 1_555
Al19 W3 2.843833 1_556
Al19 Al9 2.845547 1_556
Al19 Al27 2.970345 1_545
Al19 Al35 2.970355 1_455
Al19 Mg1 3.102054 1_555
Al19 Mg0 3.102055 1_555
Al19 Mg4 3.193759 1_555
Al20 Al3 2.683504 1_555
Al20 Al23 2.722401 1_555
Al20 W1 2.843839 1_555
Al20 Al6 2.845544 1_555
Al20 Al30 2.970348 1_554
Al20 Al25 2.970348 1_455
Al20 Mg0 3.102085 1_555
Al20 Mg2 3.102086 1_555
Al20 Mg4 3.193806 1_555
Al21 Al22 2.722388 1_555
Al21 W2 2.843828 1_655
Al21 Al7 2.845523 1_655
Al21 Al28 2.970337 1_545
Al21 Al26 2.970381 1_555
Al21 Mg3 3.102066 1_555
Al21 Mg1 3.102095 1_555
Al21 Mg4 3.193789 1_555
Al22 W0 2.843829 1_556
Al22 Al6 2.845528 1_556
Al22 Al24 2.970332 1_545
Al22 Al29 2.970379 1_555
Al22 Mg3 3.102065 1_555
Al22 Mg1 3.102097 1_555
Al22 Mg4 3.193789 1_555
Al23 Al3 2.683710 1_555
Al23 W3 2.843824 1_565
Al23 Al7 2.845542 1_565
Al23 Al27 2.970351 1_554
Al23 Al31 2.970356 1_455
Al23 Mg2 3.102053 1_555
Al23 Mg0 3.102060 1_555
Al23 Mg4 3.193759 1_555
Al24 Al27 2.721701 1_555
Al24 Al28 2.724018 1_555
Al24 Al32 2.724021 1_555
Al24 W0 2.844630 1_566
Al24 Mg1 3.101678 1_565
Al24 Mg2 3.101682 1_556
Al24 Mg5 3.192990 1_555
Al25 Al26 2.721679 1_555
Al25 Al34 2.724005 1_555
Al25 Al31 2.724040 1_555
Al25 W1 2.844629 1_655
Al25 Al3 2.845844 1_655
Al25 Mg3 3.101670 1_555
Al25 Mg0 3.101700 1_655
Al25 Mg5 3.192963 1_555
Al26 Al29 2.724010 1_555
Al26 Al35 2.724046 1_555
Al26 W2 2.844625 1_655
Al26 Mg3 3.101668 1_555
Al26 Mg0 3.101697 1_655
Al26 Mg5 3.192958 1_555
Al27 Al30 2.724038 1_555
Al27 Al33 2.724049 1_555
Al27 W3 2.844631 1_566
Al27 Al3 2.846031 1_556
Al27 Mg2 3.101649 1_556
Al27 Mg1 3.101650 1_565
Al27 Mg5 3.192931 1_555
Al28 Al7 2.684403 1_665
Al28 Al31 2.721702 1_555
Al28 Al32 2.724019 1_555
Al28 W2 2.844633 1_665
Al28 Al4 2.846037 1_655
Al28 Mg0 3.101675 1_655
Al28 Mg1 3.101677 1_565
Al28 Mg5 3.192983 1_555
Al29 Al6 2.684416 1_556
Al29 Al30 2.721678 1_555
Al29 Al35 2.724046 1_555
Al29 W0 2.844624 1_556
Al29 Al5 2.845841 1_556
Al29 Mg3 3.101669 1_555
Al29 Mg2 3.101699 1_556
Al29 Mg5 3.192959 1_555
Al30 Al6 2.684414 1_556
Al30 Al33 2.724004 1_555
Al30 W1 2.844635 1_556
Al30 Al4 2.845827 1_555
Al30 Mg3 3.101671 1_555
Al30 Mg2 3.101695 1_556
Al30 Mg5 3.192958 1_555
Al31 Al7 2.684432 1_665
Al31 Al34 2.724049 1_555
Al31 W3 2.844626 1_665
Al31 Al5 2.846023 1_565
Al31 Mg0 3.101651 1_655
Al31 Mg1 3.101654 1_565
Al31 Mg5 3.192935 1_555
Al32 Al9 2.684397 1_656
Al32 Al35 2.721694 1_555
Al32 W1 2.844640 1_656
Al32 Al4 2.846038 1_655
Al32 Mg2 3.101677 1_556
Al32 Mg0 3.101679 1_655
Al32 Mg5 3.192985 1_555
Al33 Al8 2.684419 1_565
Al33 Al34 2.721685 1_555
Al33 W2 2.844626 1_565
Al33 Al4 2.845817 1_555
Al33 Mg3 3.101662 1_555
Al33 Mg1 3.101704 1_565
Al33 Mg5 3.192963 1_555
Al34 Al8 2.684416 1_565
Al34 W0 2.844624 1_565
Al34 Al5 2.845843 1_565
Al34 Mg3 3.101662 1_555
Al34 Mg1 3.101705 1_565
Al34 Mg5 3.192965 1_555
Al35 Al9 2.684432 1_656
Al35 W3 2.844624 1_656
Al35 Al5 2.846023 1_556
Al35 Mg0 3.101654 1_655
Al35 Mg2 3.101654 1_556
Al35 Mg5 3.192935 1_555
