# generated using pymatgen
data_Sc57Ir13
_symmetry_space_group_name_H-M   'P 1'
_cell_length_a   14.40781705
_cell_length_b   14.40781705
_cell_length_c   14.40781705
_cell_angle_alpha   90.00000000
_cell_angle_beta   90.00000000
_cell_angle_gamma   90.00000000
_symmetry_Int_Tables_number   1
_chemical_formula_structural   Sc57Ir13
_chemical_formula_sum   'Sc114 Ir26'
_cell_volume   2990.84947073
_cell_formula_units_Z   2
loop_
 _symmetry_equiv_pos_site_id
 _symmetry_equiv_pos_as_xyz
  1  'x, y, z'
loop_
 _atom_site_type_symbol
 _atom_site_label
 _atom_site_symmetry_multiplicity
 _atom_site_fract_x
 _atom_site_fract_y
 _atom_site_fract_z
 _atom_site_occupancy
  Sc  Sc0  1  -0.00000000  0.37357991  -0.00000000  1
  Sc  Sc1  1  -0.00000000  0.62642009  -0.00000000  1
  Sc  Sc2  1  -0.00000000  -0.00000000  0.37357991  1
  Sc  Sc3  1  -0.00000000  -0.00000000  0.62642009  1
  Sc  Sc4  1  0.37357991  -0.00000000  -0.00000000  1
  Sc  Sc5  1  0.62642009  -0.00000000  -0.00000000  1
  Sc  Sc6  1  -0.00000000  0.22737371  0.50000000  1
  Sc  Sc7  1  -0.00000000  0.77262629  0.50000000  1
  Sc  Sc8  1  0.50000000  -0.00000000  0.22737371  1
  Sc  Sc9  1  0.50000000  -0.00000000  0.77262629  1
  Sc  Sc10  1  0.22737371  0.50000000  -0.00000000  1
  Sc  Sc11  1  0.77262629  0.50000000  -0.00000000  1
  Sc  Sc12  1  0.50000000  0.86122488  0.50000000  1
  Sc  Sc13  1  0.50000000  0.13877512  0.50000000  1
  Sc  Sc14  1  0.50000000  0.50000000  0.86122488  1
  Sc  Sc15  1  0.50000000  0.50000000  0.13877512  1
  Sc  Sc16  1  0.86122488  0.50000000  0.50000000  1
  Sc  Sc17  1  0.13877512  0.50000000  0.50000000  1
  Sc  Sc18  1  0.62970036  -0.00000000  0.39269939  1
  Sc  Sc19  1  0.37029964  -0.00000000  0.60730061  1
  Sc  Sc20  1  0.37029964  -0.00000000  0.39269939  1
  Sc  Sc21  1  0.62970036  -0.00000000  0.60730061  1
  Sc  Sc22  1  0.39269939  0.62970036  -0.00000000  1
  Sc  Sc23  1  0.60730061  0.37029964  -0.00000000  1
  Sc  Sc24  1  0.39269939  0.37029964  -0.00000000  1
  Sc  Sc25  1  0.60730061  0.62970036  -0.00000000  1
  Sc  Sc26  1  -0.00000000  0.39269939  0.62970036  1
  Sc  Sc27  1  -0.00000000  0.60730061  0.37029964  1
  Sc  Sc28  1  -0.00000000  0.39269939  0.37029964  1
  Sc  Sc29  1  -0.00000000  0.60730061  0.62970036  1
  Sc  Sc30  1  0.89259580  -0.00000000  0.17733257  1
  Sc  Sc31  1  0.10740420  -0.00000000  0.82266743  1
  Sc  Sc32  1  0.10740420  -0.00000000  0.17733257  1
  Sc  Sc33  1  0.89259580  -0.00000000  0.82266743  1
  Sc  Sc34  1  0.17733257  0.89259580  -0.00000000  1
  Sc  Sc35  1  0.82266743  0.10740420  -0.00000000  1
  Sc  Sc36  1  0.17733257  0.10740420  -0.00000000  1
  Sc  Sc37  1  0.82266743  0.89259580  -0.00000000  1
  Sc  Sc38  1  -0.00000000  0.17733257  0.89259580  1
  Sc  Sc39  1  -0.00000000  0.82266743  0.10740420  1
  Sc  Sc40  1  -0.00000000  0.17733257  0.10740420  1
  Sc  Sc41  1  -0.00000000  0.82266743  0.89259580  1
  Sc  Sc42  1  0.10290682  0.50000000  0.82670374  1
  Sc  Sc43  1  0.89709318  0.50000000  0.17329626  1
  Sc  Sc44  1  0.89709318  0.50000000  0.82670374  1
  Sc  Sc45  1  0.10290682  0.50000000  0.17329626  1
  Sc  Sc46  1  0.82670374  0.10290682  0.50000000  1
  Sc  Sc47  1  0.17329626  0.89709318  0.50000000  1
  Sc  Sc48  1  0.82670374  0.89709318  0.50000000  1
  Sc  Sc49  1  0.17329626  0.10290682  0.50000000  1
  Sc  Sc50  1  0.50000000  0.82670374  0.10290682  1
  Sc  Sc51  1  0.50000000  0.17329626  0.89709318  1
  Sc  Sc52  1  0.50000000  0.82670374  0.89709318  1
  Sc  Sc53  1  0.50000000  0.17329626  0.10290682  1
  Sc  Sc54  1  0.39094419  0.50000000  0.67435842  1
  Sc  Sc55  1  0.60905581  0.50000000  0.32564158  1
  Sc  Sc56  1  0.60905581  0.50000000  0.67435842  1
  Sc  Sc57  1  0.39094419  0.50000000  0.32564158  1
  Sc  Sc58  1  0.67435842  0.39094419  0.50000000  1
  Sc  Sc59  1  0.32564158  0.60905581  0.50000000  1
  Sc  Sc60  1  0.67435842  0.60905581  0.50000000  1
  Sc  Sc61  1  0.32564158  0.39094419  0.50000000  1
  Sc  Sc62  1  0.50000000  0.67435842  0.39094419  1
  Sc  Sc63  1  0.50000000  0.32564158  0.60905581  1
  Sc  Sc64  1  0.50000000  0.67435842  0.60905581  1
  Sc  Sc65  1  0.50000000  0.32564158  0.39094419  1
  Sc  Sc66  1  0.70248059  0.11155451  0.18782697  1
  Sc  Sc67  1  0.29751941  0.11155451  0.81217303  1
  Sc  Sc68  1  0.29751941  0.88844549  0.18782697  1
  Sc  Sc69  1  0.70248059  0.88844549  0.81217303  1
  Sc  Sc70  1  0.18782697  0.70248059  0.11155451  1
  Sc  Sc71  1  0.81217303  0.29751941  0.11155451  1
  Sc  Sc72  1  0.18782697  0.29751941  0.88844549  1
  Sc  Sc73  1  0.81217303  0.70248059  0.88844549  1
  Sc  Sc74  1  0.11155451  0.18782697  0.70248059  1
  Sc  Sc75  1  0.11155451  0.81217303  0.29751941  1
  Sc  Sc76  1  0.88844549  0.18782697  0.29751941  1
  Sc  Sc77  1  0.88844549  0.81217303  0.70248059  1
  Sc  Sc78  1  0.29751941  0.88844549  0.81217303  1
  Sc  Sc79  1  0.70248059  0.88844549  0.18782697  1
  Sc  Sc80  1  0.70248059  0.11155451  0.81217303  1
  Sc  Sc81  1  0.29751941  0.11155451  0.18782697  1
  Sc  Sc82  1  0.81217303  0.29751941  0.88844549  1
  Sc  Sc83  1  0.18782697  0.70248059  0.88844549  1
  Sc  Sc84  1  0.81217303  0.70248059  0.11155451  1
  Sc  Sc85  1  0.18782697  0.29751941  0.11155451  1
  Sc  Sc86  1  0.88844549  0.81217303  0.29751941  1
  Sc  Sc87  1  0.88844549  0.18782697  0.70248059  1
  Sc  Sc88  1  0.11155451  0.81217303  0.70248059  1
  Sc  Sc89  1  0.11155451  0.18782697  0.29751941  1
  Sc  Sc90  1  0.20802169  0.61455017  0.67894176  1
  Sc  Sc91  1  0.79197831  0.61455017  0.32105824  1
  Sc  Sc92  1  0.79197831  0.38544983  0.67894176  1
  Sc  Sc93  1  0.20802169  0.38544983  0.32105824  1
  Sc  Sc94  1  0.67894176  0.20802169  0.61455017  1
  Sc  Sc95  1  0.32105824  0.79197831  0.61455017  1
  Sc  Sc96  1  0.67894176  0.79197831  0.38544983  1
  Sc  Sc97  1  0.32105824  0.20802169  0.38544983  1
  Sc  Sc98  1  0.61455017  0.67894176  0.20802169  1
  Sc  Sc99  1  0.61455017  0.32105824  0.79197831  1
  Sc  Sc100  1  0.38544983  0.67894176  0.79197831  1
  Sc  Sc101  1  0.38544983  0.32105824  0.20802169  1
  Sc  Sc102  1  0.79197831  0.38544983  0.32105824  1
  Sc  Sc103  1  0.20802169  0.38544983  0.67894176  1
  Sc  Sc104  1  0.20802169  0.61455017  0.32105824  1
  Sc  Sc105  1  0.79197831  0.61455017  0.67894176  1
  Sc  Sc106  1  0.32105824  0.79197831  0.38544983  1
  Sc  Sc107  1  0.67894176  0.20802169  0.38544983  1
  Sc  Sc108  1  0.32105824  0.20802169  0.61455017  1
  Sc  Sc109  1  0.67894176  0.79197831  0.61455017  1
  Sc  Sc110  1  0.38544983  0.32105824  0.79197831  1
  Sc  Sc111  1  0.38544983  0.67894176  0.20802169  1
  Sc  Sc112  1  0.61455017  0.32105824  0.20802169  1
  Sc  Sc113  1  0.61455017  0.67894176  0.79197831  1
  Ir  Ir0  1  -0.00000000  -0.00000000  -0.00000000  1
  Ir  Ir1  1  0.50000000  0.50000000  0.50000000  1
  Ir  Ir2  1  0.79886006  -0.00000000  0.33302026  1
  Ir  Ir3  1  0.20113994  -0.00000000  0.66697974  1
  Ir  Ir4  1  0.20113994  -0.00000000  0.33302026  1
  Ir  Ir5  1  0.79886006  -0.00000000  0.66697974  1
  Ir  Ir6  1  0.33302026  0.79886006  -0.00000000  1
  Ir  Ir7  1  0.66697974  0.20113994  -0.00000000  1
  Ir  Ir8  1  0.33302026  0.20113994  -0.00000000  1
  Ir  Ir9  1  0.66697974  0.79886006  -0.00000000  1
  Ir  Ir10  1  -0.00000000  0.33302026  0.79886006  1
  Ir  Ir11  1  -0.00000000  0.66697974  0.20113994  1
  Ir  Ir12  1  -0.00000000  0.33302026  0.20113994  1
  Ir  Ir13  1  -0.00000000  0.66697974  0.79886006  1
  Ir  Ir14  1  0.29909505  0.50000000  0.83163880  1
  Ir  Ir15  1  0.70090495  0.50000000  0.16836120  1
  Ir  Ir16  1  0.70090495  0.50000000  0.83163880  1
  Ir  Ir17  1  0.29909505  0.50000000  0.16836120  1
  Ir  Ir18  1  0.83163880  0.29909505  0.50000000  1
  Ir  Ir19  1  0.16836120  0.70090495  0.50000000  1
  Ir  Ir20  1  0.83163880  0.70090495  0.50000000  1
  Ir  Ir21  1  0.16836120  0.29909505  0.50000000  1
  Ir  Ir22  1  0.50000000  0.83163880  0.29909505  1
  Ir  Ir23  1  0.50000000  0.16836120  0.70090495  1
  Ir  Ir24  1  0.50000000  0.83163880  0.70090495  1
  Ir  Ir25  1  0.50000000  0.16836120  0.29909505  1
loop_
_geom_bond_atom_site_label_1
_geom_bond_atom_site_label_2
_geom_bond_distance
_geom_bond_site_symmetry_2
Sc0 Sc40 3.223254 1_555
Sc0 Sc38 3.223254 1_554
Sc0 Sc71 3.332805 1_455
Sc0 Sc72 3.332805 1_554
Sc0 Sc82 3.332805 1_454
Sc0 Sc85 3.332805 1_555
Sc0 Sc44 3.427833 1_454
Sc0 Sc43 3.427833 1_455
Sc0 Sc45 3.427833 1_555
Sc0 Sc42 3.427833 1_554
Sc0 Sc1 3.642875 1_555
Sc0 Sc11 3.748272 1_455
Sc0 Sc10 3.748272 1_555
Sc1 Sc39 3.223254 1_555
Sc1 Sc41 3.223254 1_554
Sc1 Sc83 3.332805 1_554
Sc1 Sc84 3.332805 1_455
Sc1 Sc70 3.332805 1_555
Sc1 Sc73 3.332805 1_454
Sc1 Sc44 3.427833 1_454
Sc1 Sc43 3.427833 1_455
Sc1 Sc45 3.427833 1_555
Sc1 Sc42 3.427833 1_554
Sc1 Sc11 3.748272 1_455
Sc1 Sc10 3.748272 1_555
Sc2 Sc32 3.223254 1_555
Sc2 Sc30 3.223254 1_455
Sc2 Sc76 3.332805 1_455
Sc2 Sc86 3.332805 1_445
Sc2 Sc89 3.332805 1_555
Sc2 Sc75 3.332805 1_545
Sc2 Sc48 3.427833 1_445
Sc2 Sc47 3.427833 1_545
Sc2 Sc49 3.427833 1_555
Sc2 Sc46 3.427833 1_455
Sc2 Sc3 3.642875 1_555
Sc2 Sc7 3.748272 1_545
Sc2 Sc6 3.748272 1_555
Sc3 Sc31 3.223254 1_555
Sc3 Sc33 3.223254 1_455
Sc3 Sc77 3.332805 1_445
Sc3 Sc87 3.332805 1_455
Sc3 Sc74 3.332805 1_555
Sc3 Sc88 3.332805 1_545
Sc3 Sc48 3.427833 1_445
Sc3 Sc47 3.427833 1_545
Sc3 Sc49 3.427833 1_555
Sc3 Sc46 3.427833 1_455
Sc3 Sc7 3.748272 1_545
Sc3 Sc6 3.748272 1_555
Sc4 Sc78 3.332805 1_544
Sc4 Sc81 3.332805 1_555
Sc4 Sc67 3.332805 1_554
Sc4 Sc68 3.332805 1_545
Sc4 Sc52 3.427833 1_544
Sc4 Sc50 3.427833 1_545
Sc4 Sc53 3.427833 1_555
Sc4 Sc51 3.427833 1_554
Sc4 Sc5 3.642875 1_555
Sc4 Sc9 3.748272 1_554
Sc4 Sc8 3.748272 1_555
Sc5 Sc79 3.332805 1_545
Sc5 Sc69 3.332805 1_544
Sc5 Sc80 3.332805 1_554
Sc5 Sc66 3.332805 1_555
Sc5 Sc52 3.427833 1_544
Sc5 Sc50 3.427833 1_545
Sc5 Sc53 3.427833 1_555
Sc5 Sc51 3.427833 1_554
Sc5 Sc9 3.748272 1_554
Sc5 Sc8 3.748272 1_555
Sc6 Sc87 3.379140 1_455
Sc6 Sc74 3.379140 1_555
Sc6 Sc89 3.379140 1_555
Sc6 Sc76 3.379140 1_455
Sc7 Sc77 3.379140 1_455
Sc7 Sc88 3.379140 1_555
Sc7 Sc86 3.379140 1_455
Sc7 Sc75 3.379140 1_555
Sc8 Sc81 3.379140 1_555
Sc10 Sc22 3.027520 1_555
Sc10 Sc24 3.027520 1_555
Sc10 Sc42 3.074089 1_554
Sc10 Sc45 3.074089 1_555
Sc10 Sc83 3.379140 1_554
Sc10 Sc70 3.379140 1_555
Sc10 Sc72 3.379140 1_554
Sc10 Sc85 3.379140 1_555
Sc11 Sc25 3.027520 1_555
Sc11 Sc23 3.027520 1_555
Sc11 Sc44 3.074089 1_554
Sc11 Sc43 3.074089 1_555
Sc11 Sc73 3.379140 1_554
Sc11 Sc82 3.379140 1_554
Sc11 Sc84 3.379140 1_555
Sc11 Sc71 3.379140 1_555
Sc12 Sc64 3.117295 1_555
Sc12 Sc62 3.117295 1_555
Sc12 Sc18 3.143221 1_565
Sc12 Sc21 3.143221 1_565
Sc12 Sc19 3.143221 1_565
Sc12 Sc20 3.143221 1_565
Sc12 Sc95 3.219655 1_555
Sc12 Sc96 3.219655 1_555
Sc13 Sc65 3.117295 1_555
Sc13 Sc63 3.117295 1_555
Sc13 Sc18 3.143221 1_555
Sc13 Sc21 3.143221 1_555
Sc13 Sc20 3.143221 1_555
Sc13 Sc19 3.143221 1_555
Sc13 Sc97 3.219655 1_555
Sc13 Sc94 3.219655 1_555
Sc14 Sc56 3.117295 1_555
Sc14 Sc54 3.117295 1_555
Sc14 Sc25 3.143221 1_556
Sc14 Sc22 3.143221 1_556
Sc14 Sc23 3.143221 1_556
Sc14 Sc24 3.143221 1_556
Sc14 Sc99 3.219655 1_555
Sc15 Sc57 3.117295 1_555
Sc15 Sc55 3.117295 1_555
Sc15 Sc25 3.143221 1_555
Sc15 Sc22 3.143221 1_555
Sc15 Sc23 3.143221 1_555
Sc15 Sc24 3.143221 1_555
Sc15 Sc98 3.219655 1_555
Sc16 Sc60 3.117295 1_555
Sc16 Sc58 3.117295 1_555
Sc16 Sc26 3.143221 1_655
Sc16 Sc29 3.143221 1_655
Sc16 Sc28 3.143221 1_655
Sc16 Sc27 3.143221 1_655
Sc16 Sc91 3.219655 1_555
Sc16 Sc92 3.219655 1_555
Sc17 Sc59 3.117295 1_555
Sc17 Sc61 3.117295 1_555
Sc17 Sc26 3.143221 1_555
Sc17 Sc29 3.143221 1_555
Sc17 Sc28 3.143221 1_555
Sc17 Sc27 3.143221 1_555
Sc17 Sc93 3.219655 1_555
Sc17 Sc90 3.219655 1_555
Sc18 Sc8 3.027520 1_555
Sc18 Sc96 3.081734 1_545
Sc18 Sc79 3.520761 1_545
Sc18 Sc66 3.520761 1_555
Sc18 Sc48 3.555946 1_545
Sc18 Sc46 3.555946 1_555
Sc19 Sc9 3.027520 1_555
Sc19 Sc95 3.081734 1_545
Sc19 Sc78 3.520761 1_545
Sc19 Sc67 3.520761 1_555
Sc19 Sc47 3.555946 1_545
Sc19 Sc49 3.555946 1_555
Sc20 Sc8 3.027520 1_555
Sc20 Sc97 3.081734 1_555
Sc20 Sc68 3.520761 1_545
Sc20 Sc81 3.520761 1_555
Sc20 Sc47 3.555946 1_545
Sc20 Sc49 3.555946 1_555
Sc21 Sc9 3.027520 1_555
Sc21 Sc94 3.081734 1_555
Sc21 Sc69 3.520761 1_545
Sc21 Sc80 3.520761 1_555
Sc21 Sc48 3.555946 1_545
Sc21 Sc46 3.555946 1_555
Sc22 Sc83 3.520761 1_554
Sc22 Sc70 3.520761 1_555
Sc22 Sc52 3.555946 1_554
Sc22 Sc50 3.555946 1_555
Sc23 Sc99 3.081734 1_554
Sc23 Sc82 3.520761 1_554
Sc23 Sc71 3.520761 1_555
Sc23 Sc53 3.555946 1_555
Sc23 Sc51 3.555946 1_554
Sc24 Sc72 3.520761 1_554
Sc24 Sc85 3.520761 1_555
Sc24 Sc53 3.555946 1_555
Sc24 Sc51 3.555946 1_554
Sc25 Sc98 3.081734 1_555
Sc25 Sc73 3.520761 1_554
Sc25 Sc84 3.520761 1_555
Sc25 Sc52 3.555946 1_554
Sc25 Sc50 3.555946 1_555
Sc26 Sc6 3.027520 1_555
Sc26 Sc92 3.081734 1_455
Sc26 Sc87 3.520761 1_455
Sc26 Sc74 3.520761 1_555
Sc26 Sc44 3.555946 1_455
Sc26 Sc42 3.555946 1_555
Sc27 Sc7 3.027520 1_555
Sc27 Sc91 3.081734 1_455
Sc27 Sc86 3.520761 1_455
Sc27 Sc75 3.520761 1_555
Sc27 Sc45 3.555946 1_555
Sc27 Sc43 3.555946 1_455
Sc28 Sc6 3.027520 1_555
Sc28 Sc93 3.081734 1_555
Sc28 Sc76 3.520761 1_455
Sc28 Sc89 3.520761 1_555
Sc28 Sc45 3.555946 1_555
Sc28 Sc43 3.555946 1_455
Sc29 Sc7 3.027520 1_555
Sc29 Sc90 3.081734 1_555
Sc29 Sc77 3.520761 1_455
Sc29 Sc88 3.520761 1_555
Sc29 Sc44 3.555946 1_455
Sc29 Sc42 3.555946 1_555
Sc30 Sc32 3.094920 1_655
Sc30 Sc35 3.152399 1_555
Sc30 Sc37 3.152399 1_545
Sc30 Sc40 3.152399 1_655
Sc30 Sc39 3.152399 1_645
Sc30 Sc79 3.179474 1_545
Sc30 Sc66 3.179474 1_555
Sc30 Sc76 3.213333 1_555
Sc30 Sc86 3.213333 1_545
Sc31 Sc33 3.094920 1_455
Sc31 Sc38 3.152399 1_555
Sc31 Sc41 3.152399 1_545
Sc31 Sc36 3.152399 1_556
Sc31 Sc34 3.152399 1_546
Sc31 Sc78 3.179474 1_545
Sc31 Sc67 3.179474 1_555
Sc31 Sc88 3.213333 1_545
Sc31 Sc74 3.213333 1_555
Sc32 Sc36 3.152399 1_555
Sc32 Sc40 3.152399 1_555
Sc32 Sc39 3.152399 1_545
Sc32 Sc34 3.152399 1_545
Sc32 Sc68 3.179474 1_545
Sc32 Sc81 3.179474 1_555
Sc32 Sc75 3.213333 1_545
Sc32 Sc89 3.213333 1_555
Sc33 Sc35 3.152399 1_556
Sc33 Sc41 3.152399 1_645
Sc33 Sc37 3.152399 1_546
Sc33 Sc38 3.152399 1_655
Sc33 Sc69 3.179474 1_545
Sc33 Sc80 3.179474 1_555
Sc33 Sc77 3.213333 1_545
Sc33 Sc87 3.213333 1_555
Sc34 Sc36 3.094920 1_565
Sc34 Sc39 3.152399 1_555
Sc34 Sc41 3.152399 1_554
Sc34 Sc83 3.179474 1_554
Sc34 Sc70 3.179474 1_555
Sc34 Sc78 3.213333 1_554
Sc34 Sc68 3.213333 1_555
Sc34 Sc4 3.223254 1_565
Sc35 Sc37 3.094920 1_545
Sc35 Sc40 3.152399 1_655
Sc35 Sc38 3.152399 1_654
Sc35 Sc82 3.179474 1_554
Sc35 Sc71 3.179474 1_555
Sc35 Sc80 3.213333 1_554
Sc35 Sc66 3.213333 1_555
Sc35 Sc5 3.223254 1_555
Sc36 Sc40 3.152399 1_555
Sc36 Sc38 3.152399 1_554
Sc36 Sc72 3.179474 1_554
Sc36 Sc85 3.179474 1_555
Sc36 Sc67 3.213333 1_554
Sc36 Sc81 3.213333 1_555
Sc36 Sc4 3.223254 1_555
Sc37 Sc39 3.152399 1_655
Sc37 Sc41 3.152399 1_654
Sc37 Sc73 3.179474 1_554
Sc37 Sc84 3.179474 1_555
Sc37 Sc79 3.213333 1_555
Sc37 Sc69 3.213333 1_554
Sc37 Sc5 3.223254 1_565
Sc38 Sc40 3.094920 1_556
Sc38 Sc87 3.179474 1_455
Sc38 Sc74 3.179474 1_555
Sc38 Sc82 3.213333 1_455
Sc38 Sc72 3.213333 1_555
Sc39 Sc41 3.094920 1_554
Sc39 Sc86 3.179474 1_455
Sc39 Sc75 3.179474 1_555
Sc39 Sc84 3.213333 1_455
Sc39 Sc70 3.213333 1_555
Sc40 Sc76 3.179474 1_455
Sc40 Sc89 3.179474 1_555
Sc40 Sc71 3.213333 1_455
Sc40 Sc85 3.213333 1_555
Sc41 Sc77 3.179474 1_455
Sc41 Sc88 3.179474 1_555
Sc41 Sc73 3.213333 1_455
Sc41 Sc83 3.213333 1_555
Sc42 Sc44 2.965325 1_455
Sc42 Sc90 3.090283 1_555
Sc42 Sc83 3.286178 1_555
Sc42 Sc72 3.286178 1_555
Sc43 Sc45 2.965325 1_655
Sc43 Sc91 3.090283 1_555
Sc43 Sc84 3.286178 1_555
Sc43 Sc71 3.286178 1_555
Sc44 Sc92 3.090283 1_555
Sc44 Sc73 3.286178 1_555
Sc44 Sc82 3.286178 1_555
Sc45 Sc93 3.090283 1_555
Sc45 Sc70 3.286178 1_555
Sc45 Sc85 3.286178 1_555
Sc46 Sc48 2.965325 1_545
Sc46 Sc6 3.074089 1_655
Sc46 Sc94 3.090283 1_555
Sc46 Sc87 3.286178 1_555
Sc46 Sc76 3.286178 1_555
Sc47 Sc49 2.965325 1_565
Sc47 Sc7 3.074089 1_555
Sc47 Sc95 3.090283 1_555
Sc47 Sc88 3.286178 1_555
Sc47 Sc75 3.286178 1_555
Sc48 Sc7 3.074089 1_655
Sc48 Sc96 3.090283 1_555
Sc48 Sc77 3.286178 1_555
Sc48 Sc86 3.286178 1_555
Sc49 Sc6 3.074089 1_555
Sc49 Sc97 3.090283 1_555
Sc49 Sc74 3.286178 1_555
Sc49 Sc89 3.286178 1_555
Sc50 Sc52 2.965325 1_554
Sc50 Sc8 3.074089 1_565
Sc50 Sc98 3.090283 1_555
Sc50 Sc79 3.286178 1_555
Sc50 Sc68 3.286178 1_555
Sc51 Sc53 2.965325 1_556
Sc51 Sc9 3.074089 1_555
Sc51 Sc99 3.090283 1_555
Sc51 Sc80 3.286178 1_555
Sc51 Sc67 3.286178 1_555
Sc52 Sc9 3.074089 1_565
Sc52 Sc69 3.286178 1_555
Sc52 Sc78 3.286178 1_555
Sc53 Sc8 3.074089 1_555
Sc53 Sc66 3.286178 1_555
Sc53 Sc81 3.286178 1_555
Sc54 Sc59 3.108834 1_555
Sc54 Sc63 3.108834 1_555
Sc54 Sc64 3.108834 1_555
Sc54 Sc61 3.108834 1_555
Sc54 Sc90 3.110333 1_555
Sc54 Sc56 3.142512 1_555
Sc55 Sc98 3.086260 1_555
Sc55 Sc58 3.108834 1_555
Sc55 Sc62 3.108834 1_555
Sc55 Sc65 3.108834 1_555
Sc55 Sc60 3.108834 1_555
Sc55 Sc91 3.110333 1_555
Sc55 Sc57 3.142512 1_555
Sc56 Sc99 3.086260 1_555
Sc56 Sc58 3.108834 1_555
Sc56 Sc63 3.108834 1_555
Sc56 Sc60 3.108834 1_555
Sc56 Sc64 3.108834 1_555
Sc56 Sc92 3.110333 1_555
Sc57 Sc62 3.108834 1_555
Sc57 Sc59 3.108834 1_555
Sc57 Sc65 3.108834 1_555
Sc57 Sc61 3.108834 1_555
Sc57 Sc93 3.110333 1_555
Sc58 Sc92 3.086260 1_555
Sc58 Sc65 3.108834 1_555
Sc58 Sc63 3.108834 1_555
Sc58 Sc94 3.110333 1_555
Sc58 Sc60 3.142512 1_555
Sc59 Sc90 3.086260 1_555
Sc59 Sc62 3.108834 1_555
Sc59 Sc64 3.108834 1_555
Sc59 Sc95 3.110333 1_555
Sc59 Sc61 3.142512 1_555
Sc60 Sc91 3.086260 1_555
Sc60 Sc62 3.108834 1_555
Sc60 Sc64 3.108834 1_555
Sc60 Sc96 3.110333 1_555
Sc61 Sc93 3.086260 1_555
Sc61 Sc65 3.108834 1_555
Sc61 Sc63 3.108834 1_555
Sc61 Sc97 3.110333 1_555
Sc62 Sc96 3.086260 1_555
Sc62 Sc98 3.110333 1_555
Sc62 Sc64 3.142512 1_555
Sc63 Sc94 3.086260 1_555
Sc63 Sc99 3.110333 1_555
Sc63 Sc65 3.142512 1_555
Sc64 Sc95 3.086260 1_555
Sc65 Sc97 3.086260 1_555
Sc66 Sc79 3.214514 1_545
Sc66 Sc71 3.299134 1_555
Sc66 Sc76 3.299134 1_555
Sc66 Sc8 3.379140 1_555
Sc67 Sc78 3.214514 1_545
Sc67 Sc74 3.299134 1_555
Sc67 Sc72 3.299134 1_555
Sc67 Sc9 3.379140 1_555
Sc68 Sc81 3.214514 1_565
Sc68 Sc75 3.299134 1_555
Sc68 Sc70 3.299134 1_555
Sc68 Sc8 3.379140 1_565
Sc69 Sc80 3.214514 1_565
Sc69 Sc73 3.299134 1_555
Sc69 Sc77 3.299134 1_555
Sc69 Sc9 3.379140 1_565
Sc70 Sc83 3.214514 1_554
Sc70 Sc75 3.299134 1_555
Sc71 Sc82 3.214514 1_554
Sc71 Sc76 3.299134 1_555
Sc72 Sc85 3.214514 1_556
Sc72 Sc74 3.299134 1_555
Sc73 Sc84 3.214514 1_556
Sc73 Sc77 3.299134 1_555
Sc74 Sc87 3.214514 1_455
Sc75 Sc86 3.214514 1_455
Sc76 Sc89 3.214514 1_655
Sc77 Sc88 3.214514 1_655
Sc78 Sc95 3.186532 1_555
Sc78 Sc88 3.299134 1_555
Sc78 Sc83 3.299134 1_555
Sc78 Sc9 3.379140 1_565
Sc79 Sc96 3.186532 1_555
Sc79 Sc98 3.286480 1_555
Sc79 Sc84 3.299134 1_555
Sc79 Sc86 3.299134 1_555
Sc79 Sc8 3.379140 1_565
Sc80 Sc94 3.186532 1_555
Sc80 Sc99 3.286480 1_555
Sc80 Sc82 3.299134 1_555
Sc80 Sc87 3.299134 1_555
Sc80 Sc9 3.379140 1_555
Sc81 Sc97 3.186532 1_555
Sc81 Sc89 3.299134 1_555
Sc81 Sc85 3.299134 1_555
Sc82 Sc99 3.186532 1_555
Sc82 Sc92 3.286480 1_555
Sc82 Sc87 3.299134 1_555
Sc83 Sc90 3.286480 1_555
Sc83 Sc88 3.299134 1_555
Sc84 Sc98 3.186532 1_555
Sc84 Sc91 3.286480 1_555
Sc84 Sc86 3.299134 1_555
Sc85 Sc93 3.286480 1_555
Sc85 Sc89 3.299134 1_555
Sc86 Sc91 3.186532 1_555
Sc86 Sc96 3.286480 1_555
Sc87 Sc92 3.186532 1_555
Sc87 Sc94 3.286480 1_555
Sc88 Sc90 3.186532 1_555
Sc88 Sc95 3.286480 1_555
Sc89 Sc93 3.186532 1_555
Sc89 Sc97 3.286480 1_555
Sc90 Sc95 3.169860 1_555
Sc91 Sc96 3.169860 1_555
Sc91 Sc98 3.169860 1_555
Sc92 Sc99 3.169860 1_555
Sc92 Sc94 3.169860 1_555
Sc93 Sc97 3.169860 1_555
Sc94 Sc99 3.169860 1_555
Sc96 Sc98 3.169860 1_555
Sc100 Sc22 3.081734 1_556
Sc100 Sc54 3.086260 1_555
Sc100 Sc52 3.090283 1_555
Sc100 Sc64 3.110333 1_555
Sc100 Sc95 3.169860 1_555
Sc100 Sc90 3.169860 1_555
Sc100 Sc83 3.186532 1_555
Sc100 Sc14 3.219655 1_555
Sc100 Sc78 3.286480 1_555
Sc100 Sc113 3.300836 1_555
Sc101 Sc24 3.081734 1_555
Sc101 Sc57 3.086260 1_555
Sc101 Sc53 3.090283 1_555
Sc101 Sc65 3.110333 1_555
Sc101 Sc97 3.169860 1_555
Sc101 Sc93 3.169860 1_555
Sc101 Sc85 3.186532 1_555
Sc101 Sc15 3.219655 1_555
Sc101 Sc81 3.286480 1_555
Sc101 Sc112 3.300836 1_555
Sc102 Sc28 3.081734 1_655
Sc102 Sc58 3.086260 1_555
Sc102 Sc43 3.090283 1_555
Sc102 Sc55 3.110333 1_555
Sc102 Sc107 3.169860 1_555
Sc102 Sc112 3.169860 1_555
Sc102 Sc76 3.186532 1_555
Sc102 Sc16 3.219655 1_555
Sc102 Sc71 3.286480 1_555
Sc102 Sc91 3.300836 1_555
Sc103 Sc26 3.081734 1_555
Sc103 Sc61 3.086260 1_555
Sc103 Sc42 3.090283 1_555
Sc103 Sc54 3.110333 1_555
Sc103 Sc110 3.169860 1_555
Sc103 Sc108 3.169860 1_555
Sc103 Sc74 3.186532 1_555
Sc103 Sc17 3.219655 1_555
Sc103 Sc72 3.286480 1_555
Sc103 Sc90 3.300836 1_555
Sc104 Sc27 3.081734 1_555
Sc104 Sc59 3.086260 1_555
Sc104 Sc45 3.090283 1_555
Sc104 Sc57 3.110333 1_555
Sc104 Sc106 3.169860 1_555
Sc104 Sc111 3.169860 1_555
Sc104 Sc75 3.186532 1_555
Sc104 Sc17 3.219655 1_555
Sc104 Sc70 3.286480 1_555
Sc104 Sc93 3.300836 1_555
Sc105 Sc29 3.081734 1_655
Sc105 Sc60 3.086260 1_555
Sc105 Sc44 3.090283 1_555
Sc105 Sc56 3.110333 1_555
Sc105 Sc109 3.169860 1_555
Sc105 Sc113 3.169860 1_555
Sc105 Sc77 3.186532 1_555
Sc105 Sc16 3.219655 1_555
Sc105 Sc73 3.286480 1_555
Sc105 Sc92 3.300836 1_555
Sc106 Sc20 3.081734 1_565
Sc106 Sc62 3.086260 1_555
Sc106 Sc47 3.090283 1_555
Sc106 Sc59 3.110333 1_555
Sc106 Sc111 3.169860 1_555
Sc106 Sc68 3.186532 1_555
Sc106 Sc12 3.219655 1_555
Sc106 Sc75 3.286480 1_555
Sc106 Sc95 3.300836 1_555
Sc107 Sc18 3.081734 1_555
Sc107 Sc65 3.086260 1_555
Sc107 Sc46 3.090283 1_555
Sc107 Sc58 3.110333 1_555
Sc107 Sc112 3.169860 1_555
Sc107 Sc66 3.186532 1_555
Sc107 Sc13 3.219655 1_555
Sc107 Sc76 3.286480 1_555
Sc107 Sc94 3.300836 1_555
Sc108 Sc19 3.081734 1_555
Sc108 Sc63 3.086260 1_555
Sc108 Sc49 3.090283 1_555
Sc108 Sc61 3.110333 1_555
Sc108 Sc110 3.169860 1_555
Sc108 Sc67 3.186532 1_555
Sc108 Sc13 3.219655 1_555
Sc108 Sc74 3.286480 1_555
Sc108 Sc97 3.300836 1_555
Sc109 Sc21 3.081734 1_565
Sc109 Sc64 3.086260 1_555
Sc109 Sc48 3.090283 1_555
Sc109 Sc60 3.110333 1_555
Sc109 Sc113 3.169860 1_555
Sc109 Sc69 3.186532 1_555
Sc109 Sc12 3.219655 1_555
Sc109 Sc77 3.286480 1_555
Sc109 Sc96 3.300836 1_555
Sc110 Sc24 3.081734 1_556
Sc110 Sc54 3.086260 1_555
Sc110 Sc51 3.090283 1_555
Sc110 Sc63 3.110333 1_555
Sc110 Sc72 3.186532 1_555
Sc110 Sc14 3.219655 1_555
Sc110 Sc67 3.286480 1_555
Sc110 Sc99 3.300836 1_555
Sc111 Sc22 3.081734 1_555
Sc111 Sc57 3.086260 1_555
Sc111 Sc50 3.090283 1_555
Sc111 Sc62 3.110333 1_555
Sc111 Sc70 3.186532 1_555
Sc111 Sc15 3.219655 1_555
Sc111 Sc68 3.286480 1_555
Sc111 Sc98 3.300836 1_555
Sc112 Sc23 3.081734 1_555
Sc112 Sc55 3.086260 1_555
Sc112 Sc53 3.090283 1_555
Sc112 Sc65 3.110333 1_555
Sc112 Sc71 3.186532 1_555
Sc112 Sc15 3.219655 1_555
Sc112 Sc66 3.286480 1_555
Sc113 Sc25 3.081734 1_556
Sc113 Sc56 3.086260 1_555
Sc113 Sc52 3.090283 1_555
Sc113 Sc64 3.110333 1_555
Sc113 Sc73 3.186532 1_555
Sc113 Sc14 3.219655 1_555
Sc113 Sc69 3.286480 1_555
Ir0 Sc40 2.987061 1_555
Ir0 Sc32 2.987061 1_555
Ir0 Sc36 2.987061 1_555
Ir0 Sc39 2.987061 1_545
Ir0 Sc31 2.987061 1_554
Ir0 Sc35 2.987061 1_455
Ir0 Sc34 2.987061 1_545
Ir0 Sc38 2.987061 1_554
Ir0 Sc30 2.987061 1_455
Ir0 Sc41 2.987061 1_544
Ir0 Sc33 2.987061 1_454
Ir0 Sc37 2.987061 1_445
Ir1 Sc54 2.963041 1_555
Ir1 Sc58 2.963041 1_555
Ir1 Sc61 2.963041 1_555
Ir1 Sc55 2.963041 1_555
Ir1 Sc62 2.963041 1_555
Ir1 Sc59 2.963041 1_555
Ir1 Sc65 2.963041 1_555
Ir1 Sc57 2.963041 1_555
Ir1 Sc63 2.963041 1_555
Ir1 Sc56 2.963041 1_555
Ir1 Sc60 2.963041 1_555
Ir1 Sc64 2.963041 1_555
Ir2 Sc18 2.584451 1_555
Ir2 Sc30 2.618303 1_555
Ir2 Sc48 2.854323 1_545
Ir2 Sc46 2.854323 1_555
Ir2 Sc2 2.956320 1_655
Ir2 Sc66 2.981217 1_555
Ir2 Sc79 2.981217 1_545
Ir2 Sc76 3.041545 1_555
Ir2 Sc86 3.041545 1_545
Ir3 Sc19 2.584451 1_555
Ir3 Sc31 2.618303 1_555
Ir3 Sc47 2.854323 1_545
Ir3 Sc49 2.854323 1_555
Ir3 Sc3 2.956320 1_555
Ir3 Sc78 2.981217 1_545
Ir3 Sc67 2.981217 1_555
Ir3 Sc88 3.041545 1_545
Ir3 Sc74 3.041545 1_555
Ir4 Sc20 2.584451 1_555
Ir4 Sc32 2.618303 1_555
Ir4 Sc47 2.854323 1_545
Ir4 Sc49 2.854323 1_555
Ir4 Sc2 2.956320 1_555
Ir4 Sc68 2.981217 1_545
Ir4 Sc81 2.981217 1_555
Ir4 Sc75 3.041545 1_545
Ir4 Sc89 3.041545 1_555
Ir5 Sc21 2.584451 1_555
Ir5 Sc33 2.618303 1_555
Ir5 Sc48 2.854323 1_545
Ir5 Sc46 2.854323 1_555
Ir5 Sc3 2.956320 1_655
Ir5 Sc69 2.981217 1_545
Ir5 Sc80 2.981217 1_555
Ir5 Sc77 3.041545 1_545
Ir5 Sc87 3.041545 1_555
Ir6 Sc22 2.584451 1_555
Ir6 Sc34 2.618303 1_555
Ir6 Sc52 2.854323 1_554
Ir6 Sc50 2.854323 1_555
Ir6 Sc4 2.956320 1_565
Ir6 Sc83 2.981217 1_554
Ir6 Sc70 2.981217 1_555
Ir6 Sc78 3.041545 1_554
Ir6 Sc68 3.041545 1_555
Ir7 Sc23 2.584451 1_555
Ir7 Sc35 2.618303 1_555
Ir7 Sc51 2.854323 1_554
Ir7 Sc53 2.854323 1_555
Ir7 Sc5 2.956320 1_555
Ir7 Sc82 2.981217 1_554
Ir7 Sc71 2.981217 1_555
Ir7 Sc66 3.041545 1_555
Ir7 Sc80 3.041545 1_554
Ir8 Sc24 2.584451 1_555
Ir8 Sc36 2.618303 1_555
Ir8 Sc51 2.854323 1_554
Ir8 Sc53 2.854323 1_555
Ir8 Sc4 2.956320 1_555
Ir8 Sc72 2.981217 1_554
Ir8 Sc85 2.981217 1_555
Ir8 Sc67 3.041545 1_554
Ir8 Sc81 3.041545 1_555
Ir9 Sc25 2.584451 1_555
Ir9 Sc37 2.618303 1_555
Ir9 Sc52 2.854323 1_554
Ir9 Sc50 2.854323 1_555
Ir9 Sc5 2.956320 1_565
Ir9 Sc84 2.981217 1_555
Ir9 Sc73 2.981217 1_554
Ir9 Sc79 3.041545 1_555
Ir9 Sc69 3.041545 1_554
Ir10 Sc26 2.584451 1_555
Ir10 Sc38 2.618303 1_555
Ir10 Sc44 2.854323 1_455
Ir10 Sc42 2.854323 1_555
Ir10 Sc0 2.956320 1_556
Ir10 Sc87 2.981217 1_455
Ir10 Sc74 2.981217 1_555
Ir10 Sc82 3.041545 1_455
Ir10 Sc72 3.041545 1_555
Ir11 Sc27 2.584451 1_555
Ir11 Sc39 2.618303 1_555
Ir11 Sc43 2.854323 1_455
Ir11 Sc45 2.854323 1_555
Ir11 Sc1 2.956320 1_555
Ir11 Sc86 2.981217 1_455
Ir11 Sc75 2.981217 1_555
Ir11 Sc70 3.041545 1_555
Ir11 Sc84 3.041545 1_455
Ir12 Sc28 2.584451 1_555
Ir12 Sc40 2.618303 1_555
Ir12 Sc43 2.854323 1_455
Ir12 Sc45 2.854323 1_555
Ir12 Sc0 2.956320 1_555
Ir12 Sc76 2.981217 1_455
Ir12 Sc89 2.981217 1_555
Ir12 Sc85 3.041545 1_555
Ir12 Sc71 3.041545 1_455
Ir13 Sc29 2.584451 1_555
Ir13 Sc41 2.618303 1_555
Ir13 Sc44 2.854323 1_455
Ir13 Sc42 2.854323 1_555
Ir13 Sc1 2.956320 1_556
Ir13 Sc88 2.981217 1_555
Ir13 Sc77 2.981217 1_455
Ir13 Sc73 3.041545 1_455
Ir13 Sc83 3.041545 1_555
Ir14 Sc54 2.624177 1_555
Ir14 Sc10 2.636648 1_556
Ir14 Sc42 2.827538 1_555
Ir14 Sc110 2.919148 1_555
Ir14 Sc100 2.919148 1_555
Ir14 Sc14 2.925821 1_555
Ir14 Sc103 3.047261 1_555
Ir14 Sc90 3.047261 1_555
Ir14 Sc22 3.345886 1_556
Ir14 Sc24 3.345886 1_556
Ir14 Sc83 3.427909 1_555
Ir14 Sc72 3.427909 1_555
Ir15 Sc55 2.624177 1_555
Ir15 Sc11 2.636648 1_555
Ir15 Sc43 2.827538 1_555
Ir15 Sc112 2.919148 1_555
Ir15 Sc98 2.919148 1_555
Ir15 Sc15 2.925821 1_555
Ir15 Sc91 3.047261 1_555
Ir15 Sc102 3.047261 1_555
Ir15 Sc25 3.345886 1_555
Ir15 Sc23 3.345886 1_555
Ir15 Sc84 3.427909 1_555
Ir15 Sc71 3.427909 1_555
Ir16 Sc56 2.624177 1_555
Ir16 Sc11 2.636648 1_556
Ir16 Sc44 2.827538 1_555
Ir16 Sc99 2.919148 1_555
Ir16 Sc113 2.919148 1_555
Ir16 Sc14 2.925821 1_555
Ir16 Sc92 3.047261 1_555
Ir16 Sc105 3.047261 1_555
Ir16 Sc25 3.345886 1_556
Ir16 Sc23 3.345886 1_556
Ir16 Sc73 3.427909 1_555
Ir16 Sc82 3.427909 1_555
Ir17 Sc57 2.624177 1_555
Ir17 Sc10 2.636648 1_555
Ir17 Sc45 2.827538 1_555
Ir17 Sc101 2.919148 1_555
Ir17 Sc111 2.919148 1_555
Ir17 Sc15 2.925821 1_555
Ir17 Sc93 3.047261 1_555
Ir17 Sc104 3.047261 1_555
Ir17 Sc22 3.345886 1_555
Ir17 Sc24 3.345886 1_555
Ir17 Sc70 3.427909 1_555
Ir17 Sc85 3.427909 1_555
Ir18 Sc58 2.624177 1_555
Ir18 Sc6 2.636648 1_655
Ir18 Sc46 2.827538 1_555
Ir18 Sc102 2.919148 1_555
Ir18 Sc92 2.919148 1_555
Ir18 Sc16 2.925821 1_555
Ir18 Sc94 3.047261 1_555
Ir18 Sc107 3.047261 1_555
Ir18 Sc26 3.345886 1_655
Ir18 Sc28 3.345886 1_655
Ir18 Sc87 3.427909 1_555
Ir18 Sc76 3.427909 1_555
Ir19 Sc59 2.624177 1_555
Ir19 Sc7 2.636648 1_555
Ir19 Sc47 2.827538 1_555
Ir19 Sc104 2.919148 1_555
Ir19 Sc90 2.919148 1_555
Ir19 Sc17 2.925821 1_555
Ir19 Sc106 3.047261 1_555
Ir19 Sc95 3.047261 1_555
Ir19 Sc29 3.345886 1_555
Ir19 Sc27 3.345886 1_555
Ir19 Sc88 3.427909 1_555
Ir19 Sc75 3.427909 1_555
Ir20 Sc60 2.624177 1_555
Ir20 Sc7 2.636648 1_655
Ir20 Sc48 2.827538 1_555
Ir20 Sc91 2.919148 1_555
Ir20 Sc105 2.919148 1_555
Ir20 Sc16 2.925821 1_555
Ir20 Sc96 3.047261 1_555
Ir20 Sc109 3.047261 1_555
Ir20 Sc29 3.345886 1_655
Ir20 Sc27 3.345886 1_655
Ir20 Sc77 3.427909 1_555
Ir20 Sc86 3.427909 1_555
Ir21 Sc61 2.624177 1_555
Ir21 Sc6 2.636648 1_555
Ir21 Sc49 2.827538 1_555
Ir21 Sc93 2.919148 1_555
Ir21 Sc103 2.919148 1_555
Ir21 Sc17 2.925821 1_555
Ir21 Sc97 3.047261 1_555
Ir21 Sc108 3.047261 1_555
Ir21 Sc26 3.345886 1_555
Ir21 Sc28 3.345886 1_555
Ir21 Sc74 3.427909 1_555
Ir21 Sc89 3.427909 1_555
Ir22 Sc62 2.624177 1_555
Ir22 Sc8 2.636648 1_565
Ir22 Sc50 2.827538 1_555
Ir22 Sc106 2.919148 1_555
Ir22 Sc96 2.919148 1_555
Ir22 Sc12 2.925821 1_555
Ir22 Sc98 3.047261 1_555
Ir22 Sc111 3.047261 1_555
Ir22 Sc18 3.345886 1_565
Ir22 Sc20 3.345886 1_565
Ir22 Sc79 3.427909 1_555
Ir22 Sc68 3.427909 1_555
Ir23 Sc63 2.624177 1_555
Ir23 Sc9 2.636648 1_555
Ir23 Sc51 2.827538 1_555
Ir23 Sc108 2.919148 1_555
Ir23 Sc94 2.919148 1_555
Ir23 Sc13 2.925821 1_555
Ir23 Sc99 3.047261 1_555
Ir23 Sc110 3.047261 1_555
Ir23 Sc21 3.345886 1_555
Ir23 Sc19 3.345886 1_555
Ir23 Sc80 3.427909 1_555
Ir23 Sc67 3.427909 1_555
Ir24 Sc64 2.624177 1_555
Ir24 Sc9 2.636648 1_565
Ir24 Sc52 2.827538 1_555
Ir24 Sc95 2.919148 1_555
Ir24 Sc109 2.919148 1_555
Ir24 Sc12 2.925821 1_555
Ir24 Sc100 3.047261 1_555
Ir24 Sc113 3.047261 1_555
Ir24 Sc21 3.345886 1_565
Ir24 Sc19 3.345886 1_565
Ir24 Sc69 3.427909 1_555
Ir24 Sc78 3.427909 1_555
Ir25 Sc65 2.624177 1_555
Ir25 Sc8 2.636648 1_555
Ir25 Sc53 2.827538 1_555
Ir25 Sc97 2.919148 1_555
Ir25 Sc107 2.919148 1_555
Ir25 Sc13 2.925821 1_555
Ir25 Sc112 3.047261 1_555
Ir25 Sc101 3.047261 1_555
Ir25 Sc18 3.345886 1_555
Ir25 Sc20 3.345886 1_555
Ir25 Sc66 3.427909 1_555
Ir25 Sc81 3.427909 1_555
