# generated using pymatgen
data_Sr2AlIn3
_symmetry_space_group_name_H-M   'P 1'
_cell_length_a   4.96612391
_cell_length_b   4.96612391
_cell_length_c   8.05739851
_cell_angle_alpha   90.00000000
_cell_angle_beta   90.00000000
_cell_angle_gamma   120.00000222
_symmetry_Int_Tables_number   1
_chemical_formula_structural   Sr2AlIn3
_chemical_formula_sum   'Sr2 Al1 In3'
_cell_volume   172.09195498
_cell_formula_units_Z   1
loop_
 _symmetry_equiv_pos_site_id
 _symmetry_equiv_pos_as_xyz
  1  'x, y, z'
loop_
 _atom_site_type_symbol
 _atom_site_label
 _atom_site_symmetry_multiplicity
 _atom_site_fract_x
 _atom_site_fract_y
 _atom_site_fract_z
 _atom_site_occupancy
  Sr  Sr0  1  0.00000000  -0.00000000  0.74628643  1
  Sr  Sr1  1  0.00000000  -0.00000000  0.25135563  1
  Al  Al0  1  0.33333300  0.66666700  0.54787666  1
  In  In0  1  0.66666700  0.33333300  0.46269497  1
  In  In1  1  0.66666700  0.33333300  0.04508717  1
  In  In2  1  0.33333300  0.66666700  0.94669914  1
loop_
_geom_bond_atom_site_label_1
_geom_bond_atom_site_label_2
_geom_bond_distance
_geom_bond_site_symmetry_2
Al0 In0 2.948194 1_455
Al0 In0 2.948194 1_565
Al0 In0 2.948202 1_555
Al0 In2 3.213472 1_555
Al0 Sr0 3.282760 1_565
Al0 Sr0 3.282764 1_665
Al0 Sr0 3.282764 1_555
Al0 Sr1 3.732157 1_565
Al0 Sr1 3.732161 1_555
Al0 Sr1 3.732161 1_665
In0 Sr1 3.334736 1_655
In0 Sr1 3.334739 1_555
In0 Sr1 3.334739 1_665
In0 In1 3.364832 1_555
In0 Sr0 3.666340 1_655
In0 Sr0 3.666343 1_665
In0 Sr0 3.666343 1_555
In1 In2 2.974766 1_544
In1 In2 2.974766 1_654
In1 In2 2.974775 1_554
In1 Sr1 3.314058 1_655
In1 Sr1 3.314062 1_555
In1 Sr1 3.314062 1_665
In1 Sr0 3.743943 1_654
In1 Sr0 3.743946 1_554
In1 Sr0 3.743946 1_664
In2 Sr0 3.290650 1_565
In2 Sr0 3.290653 1_555
In2 Sr0 3.290653 1_665
In2 Sr1 3.774456 1_566
In2 Sr1 3.774460 1_666
In2 Sr1 3.774460 1_556
