# generated using pymatgen
data_Li3Yb
_symmetry_space_group_name_H-M   'P 1'
_cell_length_a   6.82893818
_cell_length_b   6.82893818
_cell_length_c   5.25038300
_cell_angle_alpha   90.00000000
_cell_angle_beta   90.00000000
_cell_angle_gamma   120.00000177
_symmetry_Int_Tables_number   1
_chemical_formula_structural   Li3Yb
_chemical_formula_sum   'Li6 Yb2'
_cell_volume   212.04496852
_cell_formula_units_Z   2
loop_
 _symmetry_equiv_pos_site_id
 _symmetry_equiv_pos_as_xyz
  1  'x, y, z'
loop_
 _atom_site_type_symbol
 _atom_site_label
 _atom_site_symmetry_multiplicity
 _atom_site_fract_x
 _atom_site_fract_y
 _atom_site_fract_z
 _atom_site_occupancy
  Li  Li0  1  0.14748600  0.29497200  0.25000000  1
  Li  Li1  1  0.70502800  0.85251400  0.25000000  1
  Li  Li2  1  0.14748600  0.85251400  0.25000000  1
  Li  Li3  1  0.85251400  0.70502800  0.75000000  1
  Li  Li4  1  0.29497200  0.14748600  0.75000000  1
  Li  Li5  1  0.85251400  0.14748600  0.75000000  1
  Yb  Yb0  1  0.33333300  0.66666700  0.75000000  1
  Yb  Yb1  1  0.66666700  0.33333300  0.25000000  1
loop_
_geom_bond_atom_site_label_1
_geom_bond_atom_site_label_2
_geom_bond_distance
_geom_bond_site_symmetry_2
Li0 Li1 3.021518 1_445
Li0 Li2 3.021518 1_545
Li0 Li5 3.151955 1_455
Li0 Li5 3.151955 1_454
Li0 Li4 3.151955 1_555
Li0 Li4 3.151955 1_554
Li0 Yb1 3.421994 1_455
Li0 Yb1 3.422001 1_555
Li0 Yb0 3.424002 1_555
Li0 Yb0 3.424002 1_554
Li1 Li2 3.021518 1_655
Li1 Li5 3.151955 1_564
Li1 Li5 3.151955 1_565
Li1 Li3 3.151955 1_554
Li1 Li3 3.151955 1_555
Li1 Yb1 3.421994 1_565
Li1 Yb1 3.422001 1_555
Li1 Yb0 3.424002 1_555
Li1 Yb0 3.424002 1_554
Li2 Li4 3.151955 1_564
Li2 Li4 3.151955 1_565
Li2 Li3 3.151955 1_454
Li2 Li3 3.151955 1_455
Li2 Yb1 3.421998 1_455
Li2 Yb1 3.421998 1_565
Li2 Yb0 3.423998 1_555
Li2 Yb0 3.423998 1_554
Li3 Li4 3.021518 1_665
Li3 Li5 3.021518 1_565
Li3 Yb0 3.421994 1_655
Li3 Yb0 3.422001 1_555
Li3 Yb1 3.424002 1_555
Li3 Yb1 3.424002 1_556
Li4 Li5 3.021518 1_455
Li4 Yb0 3.421994 1_545
Li4 Yb0 3.422001 1_555
Li4 Yb1 3.424002 1_555
Li4 Yb1 3.424002 1_556
Li5 Yb0 3.421998 1_545
Li5 Yb0 3.421998 1_655
Li5 Yb1 3.423998 1_555
Li5 Yb1 3.423998 1_556
