# generated using pymatgen
data_Ba4In2Te2Se5
_symmetry_space_group_name_H-M   'P 1'
_cell_length_a   8.76223100
_cell_length_b   8.76223100
_cell_length_c   11.49247100
_cell_angle_alpha   90.00000000
_cell_angle_beta   90.00000000
_cell_angle_gamma   90.00000000
_symmetry_Int_Tables_number   1
_chemical_formula_structural   Ba4In2Te2Se5
_chemical_formula_sum   'Ba8 In4 Te4 Se10'
_cell_volume   882.35390740
_cell_formula_units_Z   2
loop_
 _symmetry_equiv_pos_site_id
 _symmetry_equiv_pos_as_xyz
  1  'x, y, z'
loop_
 _atom_site_type_symbol
 _atom_site_label
 _atom_site_symmetry_multiplicity
 _atom_site_fract_x
 _atom_site_fract_y
 _atom_site_fract_z
 _atom_site_occupancy
  Ba  Ba0  1  0.65744200  0.15744200  0.00000000  1
  Ba  Ba1  1  0.34255800  0.84255800  0.00000000  1
  Ba  Ba2  1  0.84255800  0.65744200  0.00000000  1
  Ba  Ba3  1  0.15744200  0.34255800  0.00000000  1
  Ba  Ba4  1  0.50000000  0.50000000  0.71520900  1
  Ba  Ba5  1  0.00000000  0.00000000  0.71520900  1
  Ba  Ba6  1  0.50000000  0.50000000  0.28479100  1
  Ba  Ba7  1  0.00000000  0.00000000  0.28479100  1
  In  In0  1  0.50000000  0.00000000  0.65472700  1
  In  In1  1  0.00000000  0.50000000  0.65472700  1
  In  In2  1  0.50000000  0.00000000  0.34527300  1
  In  In3  1  0.00000000  0.50000000  0.34527300  1
  Te  Te0  1  0.68003400  0.18003400  0.50000000  1
  Te  Te1  1  0.31996600  0.81996600  0.50000000  1
  Te  Te2  1  0.81996600  0.68003400  0.50000000  1
  Te  Te3  1  0.18003400  0.31996600  0.50000000  1
  Se  Se0  1  0.65852500  0.84147500  0.80179900  1
  Se  Se1  1  0.34147500  0.15852500  0.80179900  1
  Se  Se2  1  0.84147500  0.34147500  0.80179900  1
  Se  Se3  1  0.15852500  0.65852500  0.80179900  1
  Se  Se4  1  0.34147500  0.15852500  0.19820100  1
  Se  Se5  1  0.65852500  0.84147500  0.19820100  1
  Se  Se6  1  0.15852500  0.65852500  0.19820100  1
  Se  Se7  1  0.84147500  0.34147500  0.19820100  1
  Se  Se8  1  0.50000000  0.50000000  0.00000000  1
  Se  Se9  1  0.00000000  0.00000000  0.00000000  1
loop_
_geom_bond_atom_site_label_1
_geom_bond_atom_site_label_2
_geom_bond_distance
_geom_bond_site_symmetry_2
Ba0 Se2 3.223202 1_554
Ba0 Se7 3.223202 1_555
Ba0 Se8 3.303419 1_555
Ba0 Se9 3.303419 1_655
Ba0 Se0 3.585187 1_544
Ba0 Se1 3.585187 1_554
Ba0 Se5 3.585187 1_545
Ba0 Se4 3.585187 1_555
Ba1 Se3 3.223202 1_554
Ba1 Se6 3.223202 1_555
Ba1 Se9 3.303419 1_565
Ba1 Se8 3.303419 1_555
Ba1 Se1 3.585187 1_564
Ba1 Se0 3.585187 1_554
Ba1 Se4 3.585187 1_565
Ba1 Se5 3.585187 1_555
Ba2 Se5 3.223202 1_555
Ba2 Se0 3.223202 1_554
Ba2 Se8 3.303419 1_555
Ba2 Se9 3.303419 1_665
Ba2 Se3 3.585187 1_654
Ba2 Se2 3.585187 1_554
Ba2 Se6 3.585187 1_655
Ba2 Se7 3.585187 1_555
Ba3 Se1 3.223202 1_554
Ba3 Se4 3.223202 1_555
Ba3 Se8 3.303419 1_555
Ba3 Se9 3.303419 1_555
Ba3 Se2 3.585187 1_454
Ba3 Se3 3.585187 1_554
Ba3 Se7 3.585187 1_455
Ba3 Se6 3.585187 1_555
Ba4 Se8 3.272952 1_556
Ba4 Se2 3.445615 1_555
Ba4 Se1 3.445615 1_555
Ba4 Se0 3.445615 1_555
Ba4 Se3 3.445615 1_555
Ba4 Te3 4.057819 1_555
Ba4 Te0 4.057819 1_555
Ba4 Te1 4.057819 1_555
Ba4 Te2 4.057819 1_555
Ba5 Se9 3.272952 1_556
Ba5 Se1 3.445615 1_555
Ba5 Se3 3.445615 1_545
Ba5 Se2 3.445615 1_455
Ba5 Se0 3.445615 1_445
Ba5 Te3 4.057819 1_555
Ba5 Te2 4.057819 1_445
Ba5 Te0 4.057819 1_455
Ba5 Te1 4.057819 1_545
Ba6 Se8 3.272952 1_555
Ba6 Se5 3.445615 1_555
Ba6 Se6 3.445615 1_555
Ba6 Se4 3.445615 1_555
Ba6 Se7 3.445615 1_555
Ba6 Te3 4.057819 1_555
Ba6 Te0 4.057819 1_555
Ba6 Te1 4.057819 1_555
Ba6 Te2 4.057819 1_555
Ba7 Se9 3.272952 1_555
Ba7 Se4 3.445615 1_555
Ba7 Se7 3.445615 1_455
Ba7 Se5 3.445615 1_445
Ba7 Se6 3.445615 1_545
Ba7 Te3 4.057819 1_555
Ba7 Te2 4.057819 1_445
Ba7 Te1 4.057819 1_545
Ba7 Te0 4.057819 1_455
In0 Se1 2.591461 1_555
In0 Se0 2.591461 1_545
In0 Te1 2.852891 1_545
In0 Te0 2.852891 1_555
In1 Se3 2.591461 1_555
In1 Se2 2.591461 1_455
In1 Te2 2.852891 1_455
In1 Te3 2.852891 1_555
In2 Se4 2.591461 1_555
In2 Se5 2.591461 1_545
In2 Te0 2.852891 1_555
In2 Te1 2.852891 1_545
In3 Se7 2.591461 1_455
In3 Se6 2.591461 1_555
In3 Te3 2.852891 1_555
In3 Te2 2.852891 1_455
