# generated using pymatgen
data_H7C2SN5
_symmetry_space_group_name_H-M   'P 1'
_cell_length_a   7.72548700
_cell_length_b   8.65312300
_cell_length_c   19.52858500
_cell_angle_alpha   90.00000000
_cell_angle_beta   90.00000000
_cell_angle_gamma   90.00000000
_symmetry_Int_Tables_number   1
_chemical_formula_structural   H7C2SN5
_chemical_formula_sum   'H56 C16 S8 N40'
_cell_volume   1305.47788580
_cell_formula_units_Z   8
loop_
 _symmetry_equiv_pos_site_id
 _symmetry_equiv_pos_as_xyz
  1  'x, y, z'
loop_
 _atom_site_type_symbol
 _atom_site_label
 _atom_site_symmetry_multiplicity
 _atom_site_fract_x
 _atom_site_fract_y
 _atom_site_fract_z
 _atom_site_occupancy
  H  H0  1  0.01734300  0.41805100  0.21478100  1
  H  H1  1  0.48265700  0.91805100  0.78521900  1
  H  H2  1  0.51734300  0.58194900  0.28521900  1
  H  H3  1  0.98265700  0.08194900  0.71478100  1
  H  H4  1  0.98265700  0.58194900  0.78521900  1
  H  H5  1  0.51734300  0.08194900  0.21478100  1
  H  H6  1  0.48265700  0.41805100  0.71478100  1
  H  H7  1  0.01734300  0.91805100  0.28521900  1
  H  H8  1  0.12867000  0.54640800  0.26835000  1
  H  H9  1  0.37133000  0.04640800  0.73165000  1
  H  H10  1  0.62867000  0.45359200  0.23165000  1
  H  H11  1  0.87133000  0.95359200  0.76835000  1
  H  H12  1  0.87133000  0.45359200  0.73165000  1
  H  H13  1  0.62867000  0.95359200  0.26835000  1
  H  H14  1  0.37133000  0.54640800  0.76835000  1
  H  H15  1  0.12867000  0.04640800  0.23165000  1
  H  H16  1  0.91862800  0.89460300  0.17454000  1
  H  H17  1  0.58137200  0.39460300  0.82546000  1
  H  H18  1  0.41862800  0.10539700  0.32546000  1
  H  H19  1  0.08137200  0.60539700  0.67454000  1
  H  H20  1  0.08137200  0.10539700  0.82546000  1
  H  H21  1  0.41862800  0.60539700  0.17454000  1
  H  H22  1  0.58137200  0.89460300  0.67454000  1
  H  H23  1  0.91862800  0.39460300  0.32546000  1
  H  H24  1  0.73283800  0.07208500  0.11023500  1
  H  H25  1  0.76716200  0.57208500  0.88976500  1
  H  H26  1  0.23283800  0.92791500  0.38976500  1
  H  H27  1  0.26716200  0.42791500  0.61023500  1
  H  H28  1  0.26716200  0.92791500  0.88976500  1
  H  H29  1  0.23283800  0.42791500  0.11023500  1
  H  H30  1  0.76716200  0.07208500  0.61023500  1
  H  H31  1  0.73283800  0.57208500  0.38976500  1
  H  H32  1  0.93993600  0.08940300  0.09008300  1
  H  H33  1  0.56006400  0.58940300  0.90991700  1
  H  H34  1  0.43993600  0.91059700  0.40991700  1
  H  H35  1  0.06006400  0.41059700  0.59008300  1
  H  H36  1  0.06006400  0.91059700  0.90991700  1
  H  H37  1  0.43993600  0.41059700  0.09008300  1
  H  H38  1  0.56006400  0.08940300  0.59008300  1
  H  H39  1  0.93993600  0.58940300  0.40991700  1
  H  H40  1  0.75275300  0.81283400  0.00654000  1
  H  H41  1  0.74724700  0.31283400  0.99346000  1
  H  H42  1  0.25275300  0.18716600  0.49346000  1
  H  H43  1  0.24724700  0.68716600  0.50654000  1
  H  H44  1  0.24724700  0.18716600  0.99346000  1
  H  H45  1  0.25275300  0.68716600  0.00654000  1
  H  H46  1  0.74724700  0.81283400  0.50654000  1
  H  H47  1  0.75275300  0.31283400  0.49346000  1
  H  H48  1  0.76772000  0.61156800  0.02089100  1
  H  H49  1  0.73228000  0.11156800  0.97910900  1
  H  H50  1  0.26772000  0.38843200  0.47910900  1
  H  H51  1  0.23228000  0.88843200  0.52089100  1
  H  H52  1  0.23228000  0.38843200  0.97910900  1
  H  H53  1  0.26772000  0.88843200  0.02089100  1
  H  H54  1  0.73228000  0.61156800  0.52089100  1
  H  H55  1  0.76772000  0.11156800  0.47910900  1
  C  C0  1  0.89008300  0.60791500  0.14304400  1
  C  C1  1  0.60991700  0.10791500  0.85695600  1
  C  C2  1  0.39008300  0.39208500  0.35695600  1
  C  C3  1  0.10991700  0.89208500  0.64304400  1
  C  C4  1  0.10991700  0.39208500  0.85695600  1
  C  C5  1  0.39008300  0.89208500  0.14304400  1
  C  C6  1  0.60991700  0.60791500  0.64304400  1
  C  C7  1  0.89008300  0.10791500  0.35695600  1
  C  C8  1  0.84604900  0.74359200  0.10017400  1
  C  C9  1  0.65395100  0.24359200  0.89982600  1
  C  C10  1  0.34604900  0.25640800  0.39982600  1
  C  C11  1  0.15395100  0.75640800  0.60017400  1
  C  C12  1  0.15395100  0.25640800  0.89982600  1
  C  C13  1  0.34604900  0.75640800  0.10017400  1
  C  C14  1  0.65395100  0.74359200  0.60017400  1
  C  C15  1  0.84604900  0.24359200  0.39982600  1
  S  S0  1  0.83654400  0.42277400  0.11638500  1
  S  S1  1  0.66345600  0.92277400  0.88361500  1
  S  S2  1  0.33654400  0.57722600  0.38361500  1
  S  S3  1  0.16345600  0.07722600  0.61638500  1
  S  S4  1  0.16345600  0.57722600  0.88361500  1
  S  S5  1  0.33654400  0.07722600  0.11638500  1
  S  S6  1  0.66345600  0.42277400  0.61638500  1
  S  S7  1  0.83654400  0.92277400  0.38361500  1
  N  N0  1  0.97568300  0.64342800  0.19908200  1
  N  N1  1  0.52431700  0.14342800  0.80091800  1
  N  N2  1  0.47568300  0.35657200  0.30091800  1
  N  N3  1  0.02431700  0.85657200  0.69908200  1
  N  N4  1  0.02431700  0.35657200  0.80091800  1
  N  N5  1  0.47568300  0.85657200  0.19908200  1
  N  N6  1  0.52431700  0.64342800  0.69908200  1
  N  N7  1  0.97568300  0.14342800  0.30091800  1
  N  N8  1  0.87425000  0.88420800  0.12521100  1
  N  N9  1  0.62575000  0.38420800  0.87478900  1
  N  N10  1  0.37425000  0.11579200  0.37478900  1
  N  N11  1  0.12575000  0.61579200  0.62521100  1
  N  N12  1  0.12575000  0.11579200  0.87478900  1
  N  N13  1  0.37425000  0.61579200  0.12521100  1
  N  N14  1  0.62575000  0.88420800  0.62521100  1
  N  N15  1  0.87425000  0.38420800  0.37478900  1
  N  N16  1  0.02027500  0.52328900  0.23982900  1
  N  N17  1  0.47972500  0.02328900  0.76017100  1
  N  N18  1  0.52027500  0.47671100  0.26017100  1
  N  N19  1  0.97972500  0.97671100  0.73982900  1
  N  N20  1  0.97972500  0.47671100  0.76017100  1
  N  N21  1  0.52027500  0.97671100  0.23982900  1
  N  N22  1  0.47972500  0.52328900  0.73982900  1
  N  N23  1  0.02027500  0.02328900  0.26017100  1
  N  N24  1  0.83490300  0.01714700  0.08698000  1
  N  N25  1  0.66509700  0.51714700  0.91302000  1
  N  N26  1  0.33490300  0.98285300  0.41302000  1
  N  N27  1  0.16509700  0.48285300  0.58698000  1
  N  N28  1  0.16509700  0.98285300  0.91302000  1
  N  N29  1  0.33490300  0.48285300  0.08698000  1
  N  N30  1  0.66509700  0.01714700  0.58698000  1
  N  N31  1  0.83490300  0.51714700  0.41302000  1
  N  N32  1  0.78206200  0.72225400  0.03815700  1
  N  N33  1  0.71793800  0.22225400  0.96184300  1
  N  N34  1  0.28206200  0.27774600  0.46184300  1
  N  N35  1  0.21793800  0.77774600  0.53815700  1
  N  N36  1  0.21793800  0.27774600  0.96184300  1
  N  N37  1  0.28206200  0.77774600  0.03815700  1
  N  N38  1  0.71793800  0.72225400  0.53815700  1
  N  N39  1  0.78206200  0.22225400  0.46184300  1
loop_
_geom_bond_atom_site_label_1
_geom_bond_atom_site_label_2
_geom_bond_distance
_geom_bond_site_symmetry_2
H0 N16 1.033945 1_555
H1 N17 1.033945 1_565
H2 N18 1.033945 1_555
H3 N19 1.033945 1_545
H4 N20 1.033945 1_555
H5 N21 1.033945 1_545
H6 N22 1.033945 1_555
H7 N23 1.033945 1_565
H8 N16 1.025421 1_555
H9 N17 1.025421 1_555
H10 N18 1.025421 1_555
H11 N19 1.025421 1_555
H12 N20 1.025421 1_555
H13 N21 1.025421 1_555
H14 N22 1.025421 1_555
H15 N23 1.025421 1_555
H16 N8 1.026464 1_555
H17 N9 1.026464 1_555
H18 N10 1.026464 1_555
H19 N11 1.026464 1_555
H20 N12 1.026464 1_555
H21 N13 1.026464 1_555
H22 N14 1.026464 1_555
H23 N15 1.026464 1_555
H24 N24 1.026629 1_555
H25 N25 1.026629 1_555
H26 N26 1.026629 1_555
H27 N27 1.026629 1_555
H28 N28 1.026629 1_555
H29 N29 1.026629 1_555
H30 N30 1.026629 1_555
H31 N31 1.026629 1_555
H32 N24 1.026166 1_555
H33 N25 1.026166 1_555
H34 N26 1.026166 1_555
H35 N27 1.026166 1_555
H36 N28 1.026166 1_555
H37 N29 1.026166 1_555
H38 N30 1.026166 1_555
H39 N31 1.026166 1_555
H40 N32 1.023151 1_555
H41 N33 1.023151 1_555
H42 N34 1.023151 1_555
H43 N35 1.023151 1_555
H44 N36 1.023151 1_555
H45 N37 1.023151 1_555
H46 N38 1.023151 1_555
H47 N39 1.023151 1_555
H48 N32 1.021425 1_555
H49 N33 1.021425 1_555
H50 N34 1.021425 1_555
H51 N35 1.021425 1_555
H52 N36 1.021425 1_555
H53 N37 1.021425 1_555
H54 N38 1.021425 1_555
H55 N39 1.021425 1_555
C0 N0 1.315043 1_555
C0 S0 1.734552 1_555
C1 N1 1.315043 1_555
C1 S1 1.734552 1_545
C2 N2 1.315043 1_555
C2 S2 1.734552 1_555
C3 N3 1.315043 1_555
C3 S3 1.734552 1_565
C4 N4 1.315043 1_555
C4 S4 1.734552 1_555
C5 N5 1.315043 1_555
C5 S5 1.734552 1_565
C6 N6 1.315043 1_555
C6 S6 1.734552 1_555
C7 N7 1.315043 1_555
C7 S7 1.734552 1_545
C8 N32 1.321071 1_555
C8 N8 1.329304 1_555
C9 N33 1.321071 1_555
C9 N9 1.329304 1_555
C10 N34 1.321071 1_555
C10 N10 1.329304 1_555
C11 N35 1.321071 1_555
C11 N11 1.329304 1_555
C12 N36 1.321071 1_555
C12 N12 1.329304 1_555
C13 N37 1.321071 1_555
C13 N13 1.329304 1_555
C14 N38 1.321071 1_555
C14 N14 1.329304 1_555
C15 N39 1.321071 1_555
C15 N15 1.329304 1_555
N0 N16 1.353731 1_655
N1 N17 1.353731 1_555
N10 N26 1.404665 1_545
N11 N27 1.404665 1_555
N12 N28 1.404665 1_545
N13 N29 1.404665 1_555
N14 N30 1.404665 1_565
N15 N31 1.404665 1_555
N18 N2 1.353731 1_555
N19 N3 1.353731 1_655
N20 N4 1.353731 1_655
N21 N5 1.353731 1_555
N22 N6 1.353731 1_555
N23 N7 1.353731 1_455
N24 N8 1.404665 1_545
N25 N9 1.404665 1_555
