# generated using pymatgen
data_HfZn2Ga
_symmetry_space_group_name_H-M   'P 1'
_cell_length_a   18.71726822
_cell_length_b   18.71726822
_cell_length_c   18.71726949
_cell_angle_alpha   18.38215052
_cell_angle_beta   18.38215052
_cell_angle_gamma   18.38215656
_symmetry_Int_Tables_number   1
_chemical_formula_structural   HfZn2Ga
_chemical_formula_sum   'Hf8 Zn16 Ga8'
_cell_volume   569.58929792
_cell_formula_units_Z   8
loop_
 _symmetry_equiv_pos_site_id
 _symmetry_equiv_pos_as_xyz
  1  'x, y, z'
loop_
 _atom_site_type_symbol
 _atom_site_label
 _atom_site_symmetry_multiplicity
 _atom_site_fract_x
 _atom_site_fract_y
 _atom_site_fract_z
 _atom_site_occupancy
  Hf  Hf0_0  1  0.37525500  0.37525500  0.37525500  1
  Hf  Hf0_1  1  0.37525500  0.37525500  0.87525500  1
  Hf  Hf0_2  1  0.37525500  0.87525500  0.37525500  1
  Hf  Hf0_3  1  0.37525500  0.87525500  0.87525500  1
  Hf  Hf0_4  1  0.87525500  0.37525500  0.37525500  1
  Hf  Hf0_5  1  0.87525500  0.37525500  0.87525500  1
  Hf  Hf0_6  1  0.87525500  0.87525500  0.37525500  1
  Hf  Hf0_7  1  0.87525500  0.87525500  0.87525500  1
  Zn  Zn0_0  1  0.25226450  0.25226450  0.25226450  1
  Zn  Zn0_1  1  0.25226450  0.25226450  0.75226450  1
  Zn  Zn0_2  1  0.25226450  0.75226450  0.25226450  1
  Zn  Zn0_3  1  0.25226450  0.75226450  0.75226450  1
  Zn  Zn0_4  1  0.75226450  0.25226450  0.25226450  1
  Zn  Zn0_5  1  0.75226450  0.25226450  0.75226450  1
  Zn  Zn0_6  1  0.75226450  0.75226450  0.25226450  1
  Zn  Zn0_7  1  0.75226450  0.75226450  0.75226450  1
  Zn  Zn1_0  1  0.12418950  0.12418950  0.12418950  1
  Zn  Zn1_1  1  0.12418950  0.12418950  0.62418950  1
  Zn  Zn1_2  1  0.12418950  0.62418950  0.12418950  1
  Zn  Zn1_3  1  0.12418950  0.62418950  0.62418950  1
  Zn  Zn1_4  1  0.62418950  0.12418950  0.12418950  1
  Zn  Zn1_5  1  0.62418950  0.12418950  0.62418950  1
  Zn  Zn1_6  1  0.62418950  0.62418950  0.12418950  1
  Zn  Zn1_7  1  0.62418950  0.62418950  0.62418950  1
  Ga  Ga0_0  1  0.49829100  0.49829100  0.49829100  1
  Ga  Ga0_1  1  0.49829100  0.49829100  0.99829100  1
  Ga  Ga0_2  1  0.49829100  0.99829100  0.49829100  1
  Ga  Ga0_3  1  0.49829100  0.99829100  0.99829100  1
  Ga  Ga0_4  1  0.99829100  0.49829100  0.49829100  1
  Ga  Ga0_5  1  0.99829100  0.49829100  0.99829100  1
  Ga  Ga0_6  1  0.99829100  0.99829100  0.49829100  1
  Ga  Ga0_7  1  0.99829100  0.99829100  0.99829100  1
loop_
_geom_bond_atom_site_label_1
_geom_bond_atom_site_label_2
_geom_bond_distance
_geom_bond_site_symmetry_2
Hf0_0 Zn0_4 2.964707 1_555
Hf0_0 Zn0_2 2.964707 1_555
Hf0_0 Zn0_1 2.964707 1_555
Hf0_0 Hf0_3 2.989661 1_545
Hf0_0 Hf0_5 2.989661 1_455
Hf0_0 Hf0_5 2.989661 1_554
Hf0_0 Hf0_3 2.989661 1_554
Hf0_0 Hf0_6 2.989662 1_545
Hf0_0 Hf0_6 2.989662 1_455
Hf0_1 Zn0_5 2.964707 1_555
Hf0_1 Zn0_3 2.964707 1_555
Hf0_1 Zn0_0 2.964707 1_556
Hf0_1 Hf0_4 2.989661 1_456
Hf0_1 Hf0_2 2.989661 1_555
Hf0_1 Hf0_4 2.989661 1_555
Hf0_1 Hf0_2 2.989661 1_546
Hf0_1 Hf0_7 2.989662 1_455
Hf0_1 Hf0_7 2.989662 1_545
Hf0_2 Zn0_0 2.964707 1_565
Hf0_2 Zn0_6 2.964707 1_555
Hf0_2 Zn0_3 2.964707 1_555
Hf0_2 Hf0_7 2.989661 1_455
Hf0_2 Hf0_7 2.989661 1_554
Hf0_2 Hf0_4 2.989662 1_465
Hf0_2 Hf0_4 2.989662 1_555
Hf0_3 Zn0_1 2.964707 1_565
Hf0_3 Zn0_7 2.964707 1_555
Hf0_3 Zn0_2 2.964707 1_556
Hf0_3 Hf0_6 2.989661 1_456
Hf0_3 Hf0_6 2.989661 1_555
Hf0_3 Hf0_5 2.989662 1_465
Hf0_3 Hf0_5 2.989662 1_555
Hf0_4 Zn0_0 2.964707 1_655
Hf0_4 Zn0_6 2.964707 1_555
Hf0_4 Zn0_5 2.964707 1_555
Hf0_4 Hf0_7 2.989661 1_545
Hf0_4 Hf0_7 2.989661 1_554
Hf0_5 Zn0_1 2.964707 1_655
Hf0_5 Zn0_7 2.964707 1_555
Hf0_5 Zn0_4 2.964707 1_556
Hf0_5 Hf0_6 2.989661 1_546
Hf0_5 Hf0_6 2.989661 1_555
Hf0_6 Zn0_4 2.964707 1_565
Hf0_6 Zn0_2 2.964707 1_655
Hf0_6 Zn0_7 2.964707 1_555
Hf0_7 Zn0_3 2.964707 1_655
Hf0_7 Zn0_5 2.964707 1_565
Hf0_7 Zn0_6 2.964707 1_556
Zn0_0 Zn1_4 2.741436 1_555
Zn0_0 Zn1_2 2.741436 1_555
Zn0_0 Zn1_1 2.741436 1_555
Zn0_0 Zn0_5 2.989661 1_554
Zn0_0 Zn0_3 2.989661 1_554
Zn0_0 Zn0_5 2.989661 1_455
Zn0_0 Zn0_3 2.989661 1_545
Zn0_0 Zn0_6 2.989662 1_545
Zn0_0 Zn0_6 2.989662 1_455
Zn0_1 Zn1_3 2.741436 1_555
Zn0_1 Zn1_5 2.741436 1_555
Zn0_1 Zn1_0 2.741436 1_556
Zn0_1 Zn0_4 2.989661 1_456
Zn0_1 Zn0_2 2.989661 1_546
Zn0_1 Zn0_4 2.989661 1_555
Zn0_1 Zn0_2 2.989661 1_555
Zn0_1 Zn0_7 2.989662 1_455
Zn0_1 Zn0_7 2.989662 1_545
Zn0_2 Zn1_0 2.741436 1_565
Zn0_2 Zn1_6 2.741436 1_555
Zn0_2 Zn1_3 2.741436 1_555
Zn0_2 Zn0_7 2.989661 1_455
Zn0_2 Zn0_7 2.989661 1_554
Zn0_2 Zn0_4 2.989662 1_555
Zn0_2 Zn0_4 2.989662 1_465
Zn0_3 Zn1_1 2.741436 1_565
Zn0_3 Zn1_7 2.741436 1_555
Zn0_3 Zn1_2 2.741436 1_556
Zn0_3 Zn0_6 2.989661 1_456
Zn0_3 Zn0_6 2.989661 1_555
Zn0_3 Zn0_5 2.989662 1_555
Zn0_3 Zn0_5 2.989662 1_465
Zn0_4 Zn1_0 2.741436 1_655
Zn0_4 Zn1_6 2.741436 1_555
Zn0_4 Zn1_5 2.741436 1_555
Zn0_4 Zn0_7 2.989661 1_545
Zn0_4 Zn0_7 2.989661 1_554
Zn0_5 Zn1_1 2.741436 1_655
Zn0_5 Zn1_7 2.741436 1_555
Zn0_5 Zn1_4 2.741436 1_556
Zn0_5 Zn0_6 2.989661 1_546
Zn0_5 Zn0_6 2.989661 1_555
Zn0_6 Zn1_4 2.741436 1_565
Zn0_6 Zn1_2 2.741436 1_655
Zn0_6 Zn1_7 2.741436 1_555
Zn0_7 Zn1_5 2.741436 1_565
Zn0_7 Zn1_3 2.741436 1_655
Zn0_7 Zn1_6 2.741436 1_556
Zn1_0 Zn1_5 2.989661 1_554
Zn1_0 Zn1_3 2.989661 1_554
Zn1_0 Zn1_5 2.989661 1_455
Zn1_0 Zn1_3 2.989661 1_545
Zn1_0 Zn1_6 2.989662 1_455
Zn1_0 Zn1_6 2.989662 1_545
Zn1_1 Zn1_2 2.989661 1_546
Zn1_1 Zn1_4 2.989661 1_456
Zn1_1 Zn1_4 2.989661 1_555
Zn1_1 Zn1_2 2.989661 1_555
Zn1_1 Zn1_7 2.989662 1_455
Zn1_1 Zn1_7 2.989662 1_545
Zn1_2 Zn1_7 2.989661 1_554
Zn1_2 Zn1_7 2.989661 1_455
Zn1_2 Zn1_4 2.989662 1_465
Zn1_2 Zn1_4 2.989662 1_555
Zn1_3 Zn1_6 2.989661 1_456
Zn1_3 Zn1_6 2.989661 1_555
Zn1_3 Zn1_5 2.989662 1_555
Zn1_3 Zn1_5 2.989662 1_465
Zn1_4 Zn1_7 2.989661 1_554
Zn1_4 Zn1_7 2.989661 1_545
Zn1_5 Zn1_6 2.989661 1_546
Zn1_5 Zn1_6 2.989661 1_555
Ga0_0 Zn1_3 2.835764 1_555
Ga0_0 Zn1_5 2.835764 1_555
Ga0_0 Zn1_6 2.835764 1_555
Ga0_0 Hf0_4 2.962666 1_555
Ga0_0 Hf0_2 2.962666 1_555
Ga0_0 Hf0_1 2.962666 1_555
Ga0_0 Ga0_3 2.989661 1_545
Ga0_0 Ga0_3 2.989661 1_554
Ga0_0 Ga0_5 2.989661 1_455
Ga0_0 Ga0_5 2.989661 1_554
Ga0_0 Ga0_6 2.989662 1_455
Ga0_0 Ga0_6 2.989662 1_545
Ga0_1 Zn1_4 2.835764 1_556
Ga0_1 Zn1_2 2.835764 1_556
Ga0_1 Zn1_7 2.835764 1_555
Ga0_1 Hf0_5 2.962666 1_555
Ga0_1 Hf0_3 2.962666 1_555
Ga0_1 Hf0_0 2.962666 1_556
Ga0_1 Ga0_4 2.989661 1_555
Ga0_1 Ga0_2 2.989661 1_555
Ga0_1 Ga0_4 2.989661 1_456
Ga0_1 Ga0_2 2.989661 1_546
Ga0_1 Ga0_7 2.989662 1_545
Ga0_1 Ga0_7 2.989662 1_455
Ga0_2 Zn1_7 2.835764 1_555
Ga0_2 Zn1_1 2.835764 1_565
Ga0_2 Zn1_4 2.835764 1_565
Ga0_2 Hf0_0 2.962666 1_565
Ga0_2 Hf0_6 2.962666 1_555
Ga0_2 Hf0_3 2.962666 1_555
Ga0_2 Ga0_7 2.989661 1_455
Ga0_2 Ga0_7 2.989661 1_554
Ga0_2 Ga0_4 2.989662 1_465
Ga0_2 Ga0_4 2.989662 1_555
Ga0_3 Zn1_6 2.835764 1_556
Ga0_3 Zn1_0 2.835764 1_566
Ga0_3 Zn1_5 2.835764 1_565
Ga0_3 Hf0_1 2.962666 1_565
Ga0_3 Hf0_7 2.962666 1_555
Ga0_3 Hf0_2 2.962666 1_556
Ga0_3 Ga0_6 2.989661 1_456
Ga0_3 Ga0_6 2.989661 1_555
Ga0_3 Ga0_5 2.989662 1_555
Ga0_3 Ga0_5 2.989662 1_465
Ga0_4 Zn1_7 2.835764 1_555
Ga0_4 Zn1_1 2.835764 1_655
Ga0_4 Zn1_2 2.835764 1_655
Ga0_4 Hf0_0 2.962666 1_655
Ga0_4 Hf0_6 2.962666 1_555
Ga0_4 Hf0_5 2.962666 1_555
Ga0_4 Ga0_7 2.989661 1_545
Ga0_4 Ga0_7 2.989661 1_554
Ga0_5 Zn1_6 2.835764 1_556
Ga0_5 Zn1_0 2.835764 1_656
Ga0_5 Zn1_3 2.835764 1_655
Ga0_5 Hf0_1 2.962666 1_655
Ga0_5 Hf0_7 2.962666 1_555
Ga0_5 Hf0_4 2.962666 1_556
Ga0_5 Ga0_6 2.989661 1_546
Ga0_5 Ga0_6 2.989661 1_555
Ga0_6 Zn1_3 2.835764 1_655
Ga0_6 Zn1_5 2.835764 1_565
Ga0_6 Zn1_0 2.835764 1_665
Ga0_6 Hf0_2 2.962666 1_655
Ga0_6 Hf0_4 2.962666 1_565
Ga0_6 Hf0_7 2.962666 1_555
Ga0_7 Zn1_2 2.835764 1_656
Ga0_7 Zn1_4 2.835764 1_566
Ga0_7 Zn1_1 2.835764 1_665
Ga0_7 Hf0_3 2.962666 1_655
Ga0_7 Hf0_5 2.962666 1_565
Ga0_7 Hf0_6 2.962666 1_556
