# generated using pymatgen
data_Th(BRu)4
_symmetry_space_group_name_H-M   'P 1'
_cell_length_a   9.31525730
_cell_length_b   9.31525730
_cell_length_c   9.31525730
_cell_angle_alpha   132.01079225
_cell_angle_beta   132.01079225
_cell_angle_gamma   70.21198223
_symmetry_Int_Tables_number   1
_chemical_formula_structural   Th(BRu)4
_chemical_formula_sum   'Th4 B16 Ru16'
_cell_volume   437.40955279
_cell_formula_units_Z   4
loop_
 _symmetry_equiv_pos_site_id
 _symmetry_equiv_pos_as_xyz
  1  'x, y, z'
loop_
 _atom_site_type_symbol
 _atom_site_label
 _atom_site_symmetry_multiplicity
 _atom_site_fract_x
 _atom_site_fract_y
 _atom_site_fract_z
 _atom_site_occupancy
  Th  Th0  1  0.25000000  0.25000000  0.00000000  1
  Th  Th1  1  0.75000000  0.75000000  0.00000000  1
  Th  Th2  1  0.50000000  0.00000000  0.50000000  1
  Th  Th3  1  0.00000000  0.50000000  0.50000000  1
  B  B0  1  0.22830700  0.91497500  0.97865200  1
  B  B1  1  0.72830700  0.74965500  0.31333200  1
  B  B2  1  0.16497500  0.97830700  0.47865200  1
  B  B3  1  0.66497500  0.18632300  0.18666800  1
  B  B4  1  0.52169300  0.33502500  0.52134800  1
  B  B5  1  0.02169300  0.50034500  0.18666800  1
  B  B6  1  0.58502500  0.27169300  0.02134800  1
  B  B7  1  0.08502500  0.06367700  0.31333200  1
  B  B8  1  0.43632300  0.41497500  0.68666800  1
  B  B9  1  0.93632300  0.24965500  0.02134800  1
  B  B10  1  0.99965500  0.47830700  0.81333200  1
  B  B11  1  0.49965500  0.68632300  0.52134800  1
  B  B12  1  0.31367700  0.83502500  0.81333200  1
  B  B13  1  0.81367700  0.00034500  0.47865200  1
  B  B14  1  0.75034500  0.77169300  0.68666800  1
  B  B15  1  0.25034500  0.56367700  0.97865200  1
  Ru  Ru0  1  0.54338800  0.07426100  0.24040300  1
  Ru  Ru1  1  0.04338800  0.80298400  0.46912700  1
  Ru  Ru2  1  0.32426100  0.29338800  0.74040300  1
  Ru  Ru3  1  0.82426100  0.08385700  0.03087300  1
  Ru  Ru4  1  0.20661200  0.17573900  0.25959700  1
  Ru  Ru5  1  0.70661200  0.44701600  0.03087300  1
  Ru  Ru6  1  0.42573900  0.95661200  0.75959700  1
  Ru  Ru7  1  0.92573900  0.16614300  0.46912700  1
  Ru  Ru8  1  0.33385700  0.57426100  0.53087300  1
  Ru  Ru9  1  0.83385700  0.30298400  0.75959700  1
  Ru  Ru10  1  0.05298400  0.79338800  0.96912700  1
  Ru  Ru11  1  0.55298400  0.58385700  0.25959700  1
  Ru  Ru12  1  0.41614300  0.67573900  0.96912700  1
  Ru  Ru13  1  0.91614300  0.94701600  0.74040300  1
  Ru  Ru14  1  0.69701600  0.45661200  0.53087300  1
  Ru  Ru15  1  0.19701600  0.66614300  0.24040300  1
loop_
_geom_bond_atom_site_label_1
_geom_bond_atom_site_label_2
_geom_bond_distance
_geom_bond_site_symmetry_2
B0 B12 1.806027 1_555
B0 Ru4 2.157940 1_566
B0 Ru10 2.209507 1_555
B0 Ru13 2.265168 1_455
B0 Ru0 2.299599 1_566
B0 Ru12 2.310587 1_555
B0 Th3 3.024751 1_555
B0 Th0 3.059826 1_566
B0 Th2 3.220938 1_566
B1 B13 1.806027 1_565
B1 Ru5 2.157935 1_555
B1 Ru11 2.209514 1_555
B1 Ru12 2.265166 1_554
B1 Ru1 2.299597 1_655
B1 Ru13 2.310581 1_555
B1 Th2 3.024751 1_565
B1 Th1 3.059826 1_555
B1 Th3 3.220938 1_655
B2 B7 1.806027 1_565
B2 Ru6 2.157940 1_555
B2 Ru1 2.209507 1_555
B2 Ru15 2.265168 1_555
B2 Ru2 2.299599 1_565
B2 Ru7 2.310587 1_465
B2 Th1 3.024751 1_455
B2 Th2 3.059826 1_565
B2 Th0 3.220938 1_566
B3 B6 1.806027 1_555
B3 Ru7 2.157935 1_555
B3 Ru0 2.209498 1_555
B3 Ru14 2.265166 1_555
B3 Ru3 2.299597 1_555
B3 Ru6 2.310583 1_544
B3 Th0 3.024751 1_555
B3 Th3 3.059826 1_655
B3 Th1 3.220938 1_545
B4 B8 1.806027 1_555
B4 Ru0 2.157940 1_555
B4 Ru14 2.209507 1_555
B4 Ru9 2.265168 1_555
B4 Ru4 2.299599 1_555
B4 Ru8 2.310587 1_555
B4 Th1 3.024751 1_556
B4 Th2 3.059826 1_555
B4 Th0 3.220938 1_555
B5 B9 1.806027 1_455
B5 Ru1 2.157935 1_555
B5 Ru15 2.209514 1_555
B5 Ru8 2.265166 1_555
B5 Ru5 2.299597 1_455
B5 Ru9 2.310581 1_454
B5 Th0 3.024751 1_555
B5 Th3 3.059826 1_555
B5 Th1 3.220938 1_455
B6 Ru2 2.157940 1_554
B6 Ru5 2.209507 1_555
B6 Ru11 2.265168 1_555
B6 Ru6 2.299599 1_544
B6 Ru3 2.310587 1_555
B6 Th3 3.024751 1_655
B6 Th0 3.059826 1_555
B6 Th2 3.220938 1_554
B7 Ru3 2.157935 1_455
B7 Ru4 2.209498 1_555
B7 Ru10 2.265166 1_544
B7 Ru7 2.299597 1_455
B7 Ru2 2.310583 1_555
B7 Th2 3.024751 1_555
B7 Th1 3.059826 1_445
B7 Th3 3.220938 1_555
B8 Ru12 2.157935 1_555
B8 Ru2 2.209498 1_555
B8 Ru5 2.265166 1_556
B8 Ru8 2.299597 1_555
B8 Ru4 2.310583 1_555
B8 Th2 3.024751 1_555
B8 Th1 3.059826 1_556
B8 Th3 3.220938 1_555
B9 Ru13 2.157938 1_544
B9 Ru3 2.209507 1_555
B9 Ru4 2.265170 1_655
B9 Ru9 2.299588 1_554
B9 Ru5 2.310587 1_555
B9 Th3 3.024751 1_655
B9 Th0 3.059826 1_655
B9 Th2 3.220938 1_554
B10 B15 1.806027 1_655
B10 Ru14 2.157935 1_555
B10 Ru9 2.209514 1_555
B10 Ru7 2.265166 1_555
B10 Ru10 2.299597 1_655
B10 Ru15 2.310581 1_656
B10 Th0 3.024751 1_656
B10 Th3 3.059826 1_655
B10 Th1 3.220938 1_556
B11 B14 1.806027 1_555
B11 Ru15 2.157938 1_555
B11 Ru8 2.209507 1_555
B11 Ru6 2.265170 1_555
B11 Ru11 2.299588 1_555
B11 Ru14 2.310587 1_555
B11 Th1 3.024751 1_556
B11 Th2 3.059826 1_565
B11 Th0 3.220938 1_555
B12 Ru8 2.157935 1_555
B12 Ru6 2.209498 1_555
B12 Ru1 2.265166 1_555
B12 Ru12 2.299597 1_555
B12 Ru0 2.310583 1_566
B12 Th0 3.024751 1_566
B12 Th3 3.059826 1_555
B12 Th1 3.220938 1_556
B13 Ru9 2.157938 1_555
B13 Ru7 2.209507 1_555
B13 Ru0 2.265170 1_555
B13 Ru13 2.299588 1_545
B13 Ru1 2.310587 1_645
B13 Th1 3.024751 1_545
B13 Th2 3.059826 1_555
B13 Th0 3.220938 1_656
B14 Ru10 2.157935 1_655
B14 Ru13 2.209514 1_555
B14 Ru3 2.265166 1_566
B14 Ru14 2.299597 1_555
B14 Ru11 2.310581 1_555
B14 Th2 3.024751 1_565
B14 Th1 3.059826 1_556
B14 Th3 3.220938 1_655
B15 Ru11 2.157938 1_556
B15 Ru12 2.209507 1_555
B15 Ru2 2.265170 1_555
B15 Ru15 2.299588 1_556
B15 Ru10 2.310587 1_555
B15 Th3 3.024751 1_555
B15 Th0 3.059826 1_556
B15 Th2 3.220938 1_566
Ru0 Th0 2.974850 1_555
Ru0 Th2 3.197865 1_555
Ru0 Th1 3.259105 1_545
Ru1 Th1 2.974855 1_455
Ru1 Th3 3.197855 1_555
Ru1 Th0 3.259109 1_566
Ru2 Th2 2.974850 1_555
Ru2 Th0 3.197865 1_556
Ru2 Th3 3.259105 1_555
Ru3 Th3 2.974855 1_655
Ru3 Th1 3.197855 1_545
Ru3 Th2 3.259109 1_554
Ru4 Th2 2.974850 1_555
Ru4 Th0 3.197865 1_555
Ru4 Th3 3.259105 1_555
Ru5 Th3 2.974855 1_655
Ru5 Th1 3.197855 1_555
Ru5 Th2 3.259109 1_554
Ru6 Th0 2.974850 1_566
Ru6 Th2 3.197865 1_565
Ru6 Th1 3.259105 1_556
Ru7 Th1 2.974855 1_545
Ru7 Th3 3.197855 1_655
Ru7 Th0 3.259109 1_656
Ru8 Th1 2.974855 1_556
Ru8 Th3 3.197855 1_555
Ru8 Th0 3.259109 1_555
Ru9 Th0 2.974855 1_656
Ru9 Th2 3.197851 1_555
Ru9 Th1 3.259109 1_556
Ru10 Th3 2.974855 1_555
Ru10 Th1 3.197855 1_456
Ru10 Th2 3.259109 1_566
Ru11 Th2 2.974855 1_565
Ru11 Th0 3.197851 1_555
Ru11 Th3 3.259109 1_655
Ru12 Th3 2.974855 1_555
Ru12 Th1 3.197855 1_556
Ru12 Th2 3.259109 1_566
Ru13 Th2 2.974855 1_565
Ru13 Th0 3.197851 1_666
Ru13 Th3 3.259109 1_655
Ru14 Th1 2.974855 1_556
Ru14 Th3 3.197855 1_655
Ru14 Th0 3.259109 1_555
Ru15 Th0 2.974855 1_555
Ru15 Th2 3.197851 1_565
Ru15 Th1 3.259109 1_455
