# generated using pymatgen
data_B5Mo2
_symmetry_space_group_name_H-M   'P 1'
_cell_length_a   3.90505690
_cell_length_b   3.90505690
_cell_length_c   10.29686000
_cell_angle_alpha   90.00000000
_cell_angle_beta   90.00000000
_cell_angle_gamma   119.97280455
_symmetry_Int_Tables_number   1
_chemical_formula_structural   B5Mo2
_chemical_formula_sum   'B10 Mo4'
_cell_volume   136.02198897
_cell_formula_units_Z   2
loop_
 _symmetry_equiv_pos_site_id
 _symmetry_equiv_pos_as_xyz
  1  'x, y, z'
loop_
 _atom_site_type_symbol
 _atom_site_label
 _atom_site_symmetry_multiplicity
 _atom_site_fract_x
 _atom_site_fract_y
 _atom_site_fract_z
 _atom_site_occupancy
  B  B0  1  0.66665500  0.33334500  0.83823400  1
  B  B1  1  0.33334500  0.66665500  0.16176600  1
  B  B2  1  0.33334500  0.66665500  0.33823400  1
  B  B3  1  0.66665500  0.33334500  0.66176600  1
  B  B4  1  0.50000000  0.00000000  0.50000000  1
  B  B5  1  0.50000000  0.50000000  0.50000000  1
  B  B6  1  0.00000000  0.50000000  0.50000000  1
  B  B7  1  0.50000000  0.00000000  0.00000000  1
  B  B8  1  0.50000000  0.50000000  0.00000000  1
  B  B9  1  0.00000000  0.50000000  0.00000000  1
  Mo  Mo0  1  0.00009200  0.99990800  0.86689600  1
  Mo  Mo1  1  0.99990800  0.00009200  0.13310400  1
  Mo  Mo2  1  0.99990800  0.00009200  0.36689600  1
  Mo  Mo3  1  0.00009200  0.99990800  0.63310400  1
loop_
_geom_bond_atom_site_label_1
_geom_bond_atom_site_label_2
_geom_bond_distance
_geom_bond_site_symmetry_2
B0 B3 1.817066 1_555
B0 B8 2.011159 1_556
B0 B7 2.011485 1_556
B0 B9 2.011485 1_656
B0 Mo0 2.274085 1_655
B0 Mo0 2.274085 1_545
B0 Mo0 2.274209 1_645
B1 B2 1.817066 1_555
B1 B8 2.011159 1_555
B1 B9 2.011485 1_555
B1 B7 2.011485 1_565
B1 Mo1 2.274085 1_565
B1 Mo1 2.274085 1_455
B1 Mo1 2.274209 1_465
B2 B5 2.011159 1_555
B2 B4 2.011485 1_565
B2 B6 2.011485 1_555
B2 Mo2 2.274085 1_565
B2 Mo2 2.274085 1_455
B2 Mo2 2.274209 1_465
B3 B5 2.011159 1_555
B3 B6 2.011485 1_655
B3 B4 2.011485 1_555
B3 Mo3 2.274085 1_655
B3 Mo3 2.274085 1_545
B3 Mo3 2.274209 1_645
B4 B5 1.952528 1_545
B4 B5 1.952528 1_555
B4 B6 1.953331 1_545
B4 B6 1.953331 1_655
B4 Mo2 2.385095 1_555
B4 Mo3 2.385095 1_545
B4 Mo3 2.385977 1_645
B4 Mo2 2.385977 1_455
B5 B6 1.952528 1_555
B5 B6 1.952528 1_655
B5 Mo3 2.386193 1_655
B5 Mo2 2.386193 1_565
B5 Mo3 2.386193 1_545
B5 Mo2 2.386193 1_455
B6 Mo3 2.385095 1_555
B6 Mo2 2.385095 1_455
B6 Mo2 2.385977 1_465
B6 Mo3 2.385977 1_545
B7 B8 1.952528 1_555
B7 B8 1.952528 1_545
B7 B9 1.953331 1_655
B7 B9 1.953331 1_545
B7 Mo1 2.385095 1_555
B7 Mo0 2.385095 1_544
B7 Mo0 2.385977 1_644
B7 Mo1 2.385977 1_455
B8 B9 1.952528 1_655
B8 B9 1.952528 1_555
B8 Mo1 2.386193 1_565
B8 Mo0 2.386193 1_654
B8 Mo1 2.386193 1_455
B8 Mo0 2.386193 1_544
B9 Mo0 2.385095 1_554
B9 Mo1 2.385095 1_455
B9 Mo1 2.385977 1_465
B9 Mo0 2.385977 1_544
Mo0 Mo3 2.407323 1_555
Mo1 Mo2 2.407323 1_555
