# generated using pymatgen
data_MnZn10(B4Rh9)2
_symmetry_space_group_name_H-M   'P 1'
_cell_length_a   17.92267100
_cell_length_b   17.92267100
_cell_length_c   2.88834000
_cell_angle_alpha   90.00000000
_cell_angle_beta   90.00000000
_cell_angle_gamma   90.00000000
_symmetry_Int_Tables_number   1
_chemical_formula_structural   MnZn10(B4Rh9)2
_chemical_formula_sum   'Mn2 Zn20 B16 Rh36'
_cell_volume   927.79874364
_cell_formula_units_Z   2
loop_
 _symmetry_equiv_pos_site_id
 _symmetry_equiv_pos_as_xyz
  1  'x, y, z'
loop_
 _atom_site_type_symbol
 _atom_site_label
 _atom_site_symmetry_multiplicity
 _atom_site_fract_x
 _atom_site_fract_y
 _atom_site_fract_z
 _atom_site_occupancy
  Mn  Mn0  1  0.00000000  0.00000000  0.00000000  1
  Mn  Mn1  1  0.50000000  0.50000000  0.00000000  1
  Zn  Zn0  1  0.55027000  0.05027000  0.00000000  1
  Zn  Zn1  1  0.44973000  0.94973000  0.00000000  1
  Zn  Zn2  1  0.05027000  0.44973000  0.00000000  1
  Zn  Zn3  1  0.94973000  0.55027000  0.00000000  1
  Zn  Zn4  1  0.03188000  0.18743000  0.00000000  1
  Zn  Zn5  1  0.96812000  0.81257000  0.00000000  1
  Zn  Zn6  1  0.18743000  0.96812000  0.00000000  1
  Zn  Zn7  1  0.53188000  0.31257000  0.00000000  1
  Zn  Zn8  1  0.81257000  0.03188000  0.00000000  1
  Zn  Zn9  1  0.46812000  0.68743000  0.00000000  1
  Zn  Zn10  1  0.68743000  0.53188000  0.00000000  1
  Zn  Zn11  1  0.31257000  0.46812000  0.00000000  1
  Zn  Zn12  1  0.20957300  0.70957300  0.00000000  1
  Zn  Zn13  1  0.79042700  0.29042700  0.00000000  1
  Zn  Zn14  1  0.70957300  0.79042700  0.00000000  1
  Zn  Zn15  1  0.29042700  0.20957300  0.00000000  1
  Zn  Zn16  1  0.66871200  0.16871200  0.00000000  1
  Zn  Zn17  1  0.33128800  0.83128800  0.00000000  1
  Zn  Zn18  1  0.16871200  0.33128800  0.00000000  1
  Zn  Zn19  1  0.83128800  0.66871200  0.00000000  1
  B  B0  1  0.33429800  0.03891200  0.00000000  1
  B  B1  1  0.66570200  0.96108800  0.00000000  1
  B  B2  1  0.03891200  0.66570200  0.00000000  1
  B  B3  1  0.83429800  0.46108800  0.00000000  1
  B  B4  1  0.96108800  0.33429800  0.00000000  1
  B  B5  1  0.16570200  0.53891200  0.00000000  1
  B  B6  1  0.53891200  0.83429800  0.00000000  1
  B  B7  1  0.46108800  0.16570200  0.00000000  1
  B  B8  1  0.16743000  0.12482200  0.00000000  1
  B  B9  1  0.83257000  0.87517800  0.00000000  1
  B  B10  1  0.12482200  0.83257000  0.00000000  1
  B  B11  1  0.66743000  0.37517800  0.00000000  1
  B  B12  1  0.87517800  0.16743000  0.00000000  1
  B  B13  1  0.33257000  0.62482200  0.00000000  1
  B  B14  1  0.62482200  0.66743000  0.00000000  1
  B  B15  1  0.37517800  0.33257000  0.00000000  1
  Rh  Rh0  1  0.25591400  0.08796800  0.50000000  1
  Rh  Rh1  1  0.74408600  0.91203200  0.50000000  1
  Rh  Rh2  1  0.08796800  0.74408600  0.50000000  1
  Rh  Rh3  1  0.75591400  0.41203200  0.50000000  1
  Rh  Rh4  1  0.91203200  0.25591400  0.50000000  1
  Rh  Rh5  1  0.24408600  0.58796800  0.50000000  1
  Rh  Rh6  1  0.58796800  0.75591400  0.50000000  1
  Rh  Rh7  1  0.41203200  0.24408600  0.50000000  1
  Rh  Rh8  1  0.04761900  0.32596000  0.50000000  1
  Rh  Rh9  1  0.95238100  0.67404000  0.50000000  1
  Rh  Rh10  1  0.32596000  0.95238100  0.50000000  1
  Rh  Rh11  1  0.54761900  0.17404000  0.50000000  1
  Rh  Rh12  1  0.67404000  0.04761900  0.50000000  1
  Rh  Rh13  1  0.45238100  0.82596000  0.50000000  1
  Rh  Rh14  1  0.82596000  0.54761900  0.50000000  1
  Rh  Rh15  1  0.17404000  0.45238100  0.50000000  1
  Rh  Rh16  1  0.16009500  0.21140400  0.50000000  1
  Rh  Rh17  1  0.83990500  0.78859600  0.50000000  1
  Rh  Rh18  1  0.21140400  0.83990500  0.50000000  1
  Rh  Rh19  1  0.66009500  0.28859600  0.50000000  1
  Rh  Rh20  1  0.78859600  0.16009500  0.50000000  1
  Rh  Rh21  1  0.33990500  0.71140400  0.50000000  1
  Rh  Rh22  1  0.71140400  0.66009500  0.50000000  1
  Rh  Rh23  1  0.28859600  0.33990500  0.50000000  1
  Rh  Rh24  1  0.09993300  0.06754900  0.50000000  1
  Rh  Rh25  1  0.90006700  0.93245100  0.50000000  1
  Rh  Rh26  1  0.06754900  0.90006700  0.50000000  1
  Rh  Rh27  1  0.59993300  0.43245100  0.50000000  1
  Rh  Rh28  1  0.93245100  0.09993300  0.50000000  1
  Rh  Rh29  1  0.40006700  0.56754900  0.50000000  1
  Rh  Rh30  1  0.56754900  0.59993300  0.50000000  1
  Rh  Rh31  1  0.43245100  0.40006700  0.50000000  1
  Rh  Rh32  1  0.08217600  0.58217600  0.50000000  1
  Rh  Rh33  1  0.91782400  0.41782400  0.50000000  1
  Rh  Rh34  1  0.58217600  0.91782400  0.50000000  1
  Rh  Rh35  1  0.41782400  0.08217600  0.50000000  1
loop_
_geom_bond_atom_site_label_1
_geom_bond_atom_site_label_2
_geom_bond_distance
_geom_bond_site_symmetry_2
Mn0 Rh24 2.599854 1_554
Mn0 Rh24 2.599854 1_555
Mn0 Rh28 2.599854 1_455
Mn0 Rh28 2.599854 1_454
Mn0 Rh25 2.599854 1_444
Mn0 Rh25 2.599854 1_445
Mn0 Rh26 2.599854 1_545
Mn0 Rh26 2.599854 1_544
Mn1 Rh29 2.599854 1_554
Mn1 Rh29 2.599854 1_555
Mn1 Rh30 2.599854 1_555
Mn1 Rh30 2.599854 1_554
Mn1 Rh31 2.599854 1_554
Mn1 Rh31 2.599854 1_555
Mn1 Rh27 2.599854 1_555
Mn1 Rh27 2.599854 1_554
Zn0 Zn1 2.548336 1_545
Zn2 Zn3 2.548336 1_455
B0 Rh10 2.124417 1_544
B0 Rh10 2.124417 1_545
B0 Rh0 2.198238 1_555
B0 Rh0 2.198238 1_554
B0 Rh35 2.219891 1_554
B0 Rh35 2.219891 1_555
B0 Zn1 2.614375 1_545
B1 Rh12 2.124417 1_564
B1 Rh12 2.124417 1_565
B1 Rh1 2.198238 1_555
B1 Rh1 2.198238 1_554
B1 Rh34 2.219891 1_555
B1 Rh34 2.219891 1_554
B1 Zn0 2.614375 1_565
B2 Rh9 2.124417 1_454
B2 Rh9 2.124417 1_455
B2 Rh2 2.198238 1_555
B2 Rh2 2.198238 1_554
B2 Rh32 2.219891 1_554
B2 Rh32 2.219891 1_555
B2 Zn3 2.614375 1_455
B3 Rh14 2.124417 1_554
B3 Rh14 2.124417 1_555
B3 Rh3 2.198238 1_554
B3 Rh3 2.198238 1_555
B3 Rh33 2.219891 1_554
B3 Rh33 2.219891 1_555
B3 Zn3 2.614375 1_555
B4 Rh8 2.124417 1_655
B4 Rh8 2.124417 1_654
B4 Rh4 2.198238 1_555
B4 Rh4 2.198238 1_554
B4 Rh33 2.219891 1_554
B4 Rh33 2.219891 1_555
B4 Zn2 2.614375 1_655
B5 Rh15 2.124417 1_554
B5 Rh15 2.124417 1_555
B5 Rh5 2.198238 1_555
B5 Rh5 2.198238 1_554
B5 Rh32 2.219891 1_555
B5 Rh32 2.219891 1_554
B5 Zn2 2.614375 1_555
B6 Rh13 2.124417 1_555
B6 Rh13 2.124417 1_554
B6 Rh6 2.198238 1_555
B6 Rh6 2.198238 1_554
B6 Rh34 2.219891 1_555
B6 Rh34 2.219891 1_554
B6 Zn1 2.614375 1_555
B7 Rh11 2.124417 1_554
B7 Rh11 2.124417 1_555
B7 Rh7 2.198238 1_554
B7 Rh7 2.198238 1_555
B7 Rh35 2.219891 1_554
B7 Rh35 2.219891 1_555
B7 Zn0 2.614375 1_555
B8 Rh16 2.123896 1_555
B8 Rh16 2.123896 1_554
B8 Rh24 2.145399 1_554
B8 Rh24 2.145399 1_555
B8 Rh0 2.244304 1_554
B8 Rh0 2.244304 1_555
B8 Zn4 2.676039 1_555
B8 Zn15 2.677085 1_555
B9 Rh17 2.123896 1_554
B9 Rh17 2.123896 1_555
B9 Rh25 2.145399 1_555
B9 Rh25 2.145399 1_554
B9 Rh1 2.244304 1_555
B9 Rh1 2.244304 1_554
B9 Zn5 2.676039 1_555
B9 Zn14 2.677085 1_555
B10 Rh18 2.123896 1_555
B10 Rh18 2.123896 1_554
B10 Rh26 2.145399 1_554
B10 Rh26 2.145399 1_555
B10 Rh2 2.244304 1_555
B10 Rh2 2.244304 1_554
B10 Zn6 2.676039 1_555
B10 Zn12 2.677085 1_555
B11 Rh19 2.123896 1_555
B11 Rh19 2.123896 1_554
B11 Rh27 2.145399 1_555
B11 Rh27 2.145399 1_554
B11 Rh3 2.244304 1_554
B11 Rh3 2.244304 1_555
B11 Zn7 2.676039 1_555
B11 Zn13 2.677085 1_555
B12 Rh20 2.123896 1_555
B12 Rh20 2.123896 1_554
B12 Rh28 2.145399 1_555
B12 Rh28 2.145399 1_554
B12 Rh4 2.244304 1_555
B12 Rh4 2.244304 1_554
B12 Zn8 2.676039 1_555
B12 Zn13 2.677085 1_555
B13 Rh21 2.123896 1_555
B13 Rh21 2.123896 1_554
B13 Rh29 2.145399 1_554
B13 Rh29 2.145399 1_555
B13 Rh5 2.244304 1_555
B13 Rh5 2.244304 1_554
B13 Zn9 2.676039 1_555
B13 Zn12 2.677085 1_555
B14 Rh22 2.123896 1_554
B14 Rh22 2.123896 1_555
B14 Rh30 2.145399 1_555
B14 Rh30 2.145399 1_554
B14 Rh6 2.244304 1_555
B14 Rh6 2.244304 1_554
B14 Zn10 2.676039 1_555
B14 Zn14 2.677085 1_555
B15 Rh23 2.123896 1_555
B15 Rh23 2.123896 1_554
B15 Rh31 2.145399 1_555
B15 Rh31 2.145399 1_554
B15 Rh7 2.244304 1_555
B15 Rh7 2.244304 1_554
B15 Zn11 2.676039 1_555
B15 Zn15 2.677085 1_555
Rh0 Zn15 2.686710 1_556
Rh0 Zn15 2.686710 1_555
Rh0 Zn6 2.864623 1_546
Rh0 Zn6 2.864623 1_545
Rh1 Zn14 2.686710 1_555
Rh1 Zn14 2.686710 1_556
Rh1 Zn8 2.864623 1_566
Rh1 Zn8 2.864623 1_565
Rh2 Zn12 2.686710 1_556
Rh2 Zn12 2.686710 1_555
Rh2 Zn5 2.864623 1_455
Rh2 Zn5 2.864623 1_456
Rh3 Zn13 2.686710 1_555
Rh3 Zn13 2.686710 1_556
Rh3 Zn10 2.864623 1_556
Rh3 Zn10 2.864623 1_555
Rh4 Zn13 2.686710 1_556
Rh4 Zn13 2.686710 1_555
Rh4 Zn4 2.864623 1_656
Rh4 Zn4 2.864623 1_655
Rh5 Zn12 2.686710 1_555
Rh5 Zn12 2.686710 1_556
Rh5 Zn11 2.864623 1_555
Rh5 Zn11 2.864623 1_556
Rh6 Zn14 2.686710 1_555
Rh6 Zn14 2.686710 1_556
Rh6 Zn9 2.864623 1_556
Rh6 Zn9 2.864623 1_555
Rh7 Zn15 2.686710 1_556
Rh7 Zn15 2.686710 1_555
Rh7 Zn7 2.864623 1_556
Rh7 Zn7 2.864623 1_555
Rh8 Zn18 2.608638 1_555
Rh8 Zn18 2.608638 1_556
Rh8 Zn2 2.647393 1_556
Rh8 Zn2 2.647393 1_555
Rh8 Zn4 2.886110 1_555
Rh8 Zn4 2.886110 1_556
Rh9 Zn19 2.608638 1_555
Rh9 Zn19 2.608638 1_556
Rh9 Zn3 2.647393 1_555
Rh9 Zn3 2.647393 1_556
Rh9 Zn5 2.886110 1_556
Rh9 Zn5 2.886110 1_555
Rh10 Zn17 2.608638 1_556
Rh10 Zn17 2.608638 1_555
Rh10 Zn1 2.647393 1_556
Rh10 Zn1 2.647393 1_555
Rh10 Zn6 2.886110 1_556
Rh10 Zn6 2.886110 1_555
Rh11 Zn16 2.608638 1_555
Rh11 Zn16 2.608638 1_556
Rh11 Zn0 2.647393 1_555
Rh11 Zn0 2.647393 1_556
Rh11 Zn7 2.886110 1_555
Rh11 Zn7 2.886110 1_556
Rh12 Zn16 2.608638 1_555
Rh12 Zn16 2.608638 1_556
Rh12 Zn0 2.647393 1_555
Rh12 Zn0 2.647393 1_556
Rh12 Zn8 2.886110 1_555
Rh12 Zn8 2.886110 1_556
Rh13 Zn17 2.608638 1_556
Rh13 Zn17 2.608638 1_555
Rh13 Zn1 2.647393 1_555
Rh13 Zn1 2.647393 1_556
Rh13 Zn9 2.886110 1_556
Rh13 Zn9 2.886110 1_555
Rh14 Zn19 2.608638 1_555
Rh14 Zn19 2.608638 1_556
Rh14 Zn3 2.647393 1_555
Rh14 Zn3 2.647393 1_556
Rh14 Zn10 2.886110 1_556
Rh14 Zn10 2.886110 1_555
Rh15 Zn18 2.608638 1_555
Rh15 Zn18 2.608638 1_556
Rh15 Zn2 2.647393 1_556
Rh15 Zn2 2.647393 1_555
Rh15 Zn11 2.886110 1_556
Rh15 Zn11 2.886110 1_555
Rh16 Zn18 2.593480 1_555
Rh16 Zn18 2.593480 1_556
Rh16 Zn15 2.746474 1_556
Rh16 Zn15 2.746474 1_555
Rh16 Zn4 2.747881 1_555
Rh16 Zn4 2.747881 1_556
Rh17 Zn19 2.593480 1_556
Rh17 Zn19 2.593480 1_555
Rh17 Zn14 2.746474 1_556
Rh17 Zn14 2.746474 1_555
Rh17 Zn5 2.747881 1_556
Rh17 Zn5 2.747881 1_555
Rh18 Zn17 2.593480 1_555
Rh18 Zn17 2.593480 1_556
Rh18 Zn12 2.746474 1_555
Rh18 Zn12 2.746474 1_556
Rh18 Zn6 2.747881 1_555
Rh18 Zn6 2.747881 1_556
Rh19 Zn16 2.593480 1_556
Rh19 Zn16 2.593480 1_555
Rh19 Zn13 2.746474 1_556
Rh19 Zn13 2.746474 1_555
Rh19 Zn7 2.747881 1_556
Rh19 Zn7 2.747881 1_555
Rh20 Zn16 2.593480 1_556
Rh20 Zn16 2.593480 1_555
Rh20 Zn13 2.746474 1_556
Rh20 Zn13 2.746474 1_555
Rh20 Zn8 2.747881 1_555
Rh20 Zn8 2.747881 1_556
Rh21 Zn17 2.593480 1_556
Rh21 Zn17 2.593480 1_555
Rh21 Zn12 2.746474 1_556
Rh21 Zn12 2.746474 1_555
Rh21 Zn9 2.747881 1_556
Rh21 Zn9 2.747881 1_555
Rh22 Zn19 2.593480 1_556
Rh22 Zn19 2.593480 1_555
Rh22 Zn14 2.746474 1_556
Rh22 Zn14 2.746474 1_555
Rh22 Zn10 2.747881 1_556
Rh22 Zn10 2.747881 1_555
Rh23 Zn18 2.593480 1_555
Rh23 Zn18 2.593480 1_556
Rh23 Zn15 2.746474 1_556
Rh23 Zn15 2.746474 1_555
Rh23 Zn11 2.747881 1_556
Rh23 Zn11 2.747881 1_555
Rh24 Zn6 2.778571 1_545
Rh24 Zn6 2.778571 1_546
Rh24 Zn4 2.861766 1_555
Rh24 Zn4 2.861766 1_556
Rh25 Zn8 2.778571 1_565
Rh25 Zn8 2.778571 1_566
Rh25 Zn5 2.861766 1_556
Rh25 Zn5 2.861766 1_555
Rh26 Zn5 2.778571 1_456
Rh26 Zn5 2.778571 1_455
Rh26 Zn6 2.861766 1_556
Rh26 Zn6 2.861766 1_555
Rh27 Zn10 2.778571 1_556
Rh27 Zn10 2.778571 1_555
Rh27 Zn7 2.861766 1_556
Rh27 Zn7 2.861766 1_555
Rh28 Zn4 2.778571 1_655
Rh28 Zn4 2.778571 1_656
Rh28 Zn8 2.861766 1_555
Rh28 Zn8 2.861766 1_556
Rh29 Zn11 2.778571 1_555
Rh29 Zn11 2.778571 1_556
Rh29 Zn9 2.861766 1_555
Rh29 Zn9 2.861766 1_556
Rh30 Zn9 2.778571 1_556
Rh30 Zn9 2.778571 1_555
Rh30 Zn10 2.861766 1_556
Rh30 Zn10 2.861766 1_555
Rh31 Zn7 2.778571 1_555
Rh31 Zn7 2.778571 1_556
Rh31 Zn11 2.861766 1_555
Rh31 Zn11 2.861766 1_556
Rh32 Zn2 2.836810 1_555
Rh32 Zn2 2.836810 1_556
Rh32 Zn3 2.836810 1_455
Rh32 Zn3 2.836810 1_456
Rh33 Zn3 2.836810 1_555
Rh33 Zn2 2.836810 1_655
Rh33 Zn2 2.836810 1_656
Rh33 Zn3 2.836810 1_556
Rh34 Zn1 2.836810 1_555
Rh34 Zn1 2.836810 1_556
Rh34 Zn0 2.836810 1_565
Rh34 Zn0 2.836810 1_566
Rh35 Zn1 2.836810 1_546
Rh35 Zn0 2.836810 1_555
Rh35 Zn0 2.836810 1_556
Rh35 Zn1 2.836810 1_545
