# generated using pymatgen
data_Gd5Si2BO13
_symmetry_space_group_name_H-M   'P 1'
_cell_length_a   6.92214100
_cell_length_b   9.34855300
_cell_length_c   9.37893451
_cell_angle_alpha   60.22649634
_cell_angle_beta   90.00000000
_cell_angle_gamma   90.00000000
_symmetry_Int_Tables_number   1
_chemical_formula_structural   Gd5Si2BO13
_chemical_formula_sum   'Gd10 Si4 B2 O26'
_cell_volume   526.81199582
_cell_formula_units_Z   2
loop_
 _symmetry_equiv_pos_site_id
 _symmetry_equiv_pos_as_xyz
  1  'x, y, z'
loop_
 _atom_site_type_symbol
 _atom_site_label
 _atom_site_symmetry_multiplicity
 _atom_site_fract_x
 _atom_site_fract_y
 _atom_site_fract_z
 _atom_site_occupancy
  Gd  Gd0  1  0.50000000  0.98538300  0.77462700  1
  Gd  Gd1  1  0.50000000  0.24139900  0.00739300  1
  Gd  Gd2  1  0.50000000  0.75196900  0.22620800  1
  Gd  Gd3  1  0.00000000  0.97735700  0.24438500  1
  Gd  Gd4  1  0.00000000  0.75909800  0.00773300  1
  Gd  Gd5  1  0.00000000  0.24562600  0.75706200  1
  Gd  Gd6  1  0.75059600  0.35309300  0.32548600  1
  Gd  Gd7  1  0.25088400  0.66420400  0.67016000  1
  Gd  Gd8  1  0.74911600  0.66420400  0.67016000  1
  Gd  Gd9  1  0.24940400  0.35309300  0.32548600  1
  Si  Si0  1  0.50000000  0.40200700  0.62903000  1
  Si  Si1  1  0.50000000  0.97261500  0.39770600  1
  Si  Si2  1  0.00000000  0.36553500  0.03124000  1
  Si  Si3  1  0.00000000  0.03256400  0.59593000  1
  B  B0  1  0.50000000  0.62986600  0.96737600  1
  B  B1  1  0.00000000  0.59742900  0.37391400  1
  O  O0  1  0.67770700  0.73908200  0.91428300  1
  O  O1  1  0.68834900  0.34535600  0.75101100  1
  O  O2  1  0.68920300  0.90660800  0.34257500  1
  O  O3  1  0.19016700  0.24758700  0.09311300  1
  O  O4  1  0.17682600  0.65071500  0.26082200  1
  O  O5  1  0.19002000  0.09310700  0.65748100  1
  O  O6  1  0.80983300  0.24758700  0.09311300  1
  O  O7  1  0.82317400  0.65071500  0.26082200  1
  O  O8  1  0.80998000  0.09310700  0.65748100  1
  O  O9  1  0.32229300  0.73908200  0.91428300  1
  O  O10  1  0.31165100  0.34535600  0.75101100  1
  O  O11  1  0.31079700  0.90660800  0.34257500  1
  O  O12  1  0.50000000  0.52081100  0.15028100  1
  O  O13  1  0.50000000  0.32748000  0.50546300  1
  O  O14  1  0.50000000  0.17221400  0.32041400  1
  O  O15  1  0.00000000  0.48800100  0.83242600  1
  O  O16  1  0.00000000  0.66789700  0.48396000  1
  O  O17  1  0.00000000  0.83236100  0.67474600  1
  O  O18  1  0.50000000  0.53559400  0.87541000  1
  O  O19  1  0.50000000  0.60402200  0.52695300  1
  O  O20  1  0.50000000  0.87024200  0.60000800  1
  O  O21  1  0.00000000  0.47172200  0.12746000  1
  O  O22  1  0.00000000  0.41172100  0.46423800  1
  O  O23  1  0.00000000  0.13297700  0.39444700  1
  O  O24  1  0.50000000  0.00120900  0.00510400  1
  O  O25  1  0.00000000  0.00339600  0.99662500  1
loop_
_geom_bond_atom_site_label_1
_geom_bond_atom_site_label_2
_geom_bond_distance
_geom_bond_site_symmetry_2
Gd0 O24 2.238783 1_566
Gd0 O0 2.352726 1_555
Gd0 O9 2.352726 1_555
Gd0 O20 2.364660 1_555
Gd0 O8 2.393028 1_565
Gd0 O5 2.393028 1_565
Gd1 O24 2.256167 1_555
Gd1 O6 2.301231 1_555
Gd1 O3 2.301231 1_555
Gd1 O18 2.390667 1_554
Gd1 O1 2.470932 1_554
Gd1 O10 2.470932 1_554
Gd1 O14 2.674222 1_555
Gd2 O24 2.220508 1_565
Gd2 O7 2.387599 1_555
Gd2 O4 2.387599 1_555
Gd2 O19 2.448389 1_555
Gd2 O2 2.561896 1_555
Gd2 O11 2.561896 1_555
Gd2 O12 2.589464 1_555
Gd3 O25 2.212956 1_564
Gd3 O2 2.304139 1_455
Gd3 O11 2.304139 1_555
Gd3 O23 2.476056 1_565
Gd3 O3 2.562829 1_565
Gd3 O6 2.562829 1_465
Gd3 O16 2.638634 1_555
Gd4 O25 2.233930 1_564
Gd4 O21 2.341453 1_555
Gd4 O4 2.402229 1_555
Gd4 O7 2.402229 1_455
Gd4 O9 2.437878 1_554
Gd4 O0 2.437878 1_454
Gd4 O17 2.845748 1_554
Gd5 O25 2.263442 1_555
Gd5 O10 2.339620 1_555
Gd5 O1 2.339620 1_455
Gd5 O22 2.391321 1_555
Gd5 O5 2.440894 1_555
Gd5 O8 2.440894 1_455
Gd5 O15 2.687810 1_555
Gd6 O13 2.348253 1_555
Gd6 O12 2.368300 1_555
Gd6 O21 2.369439 1_655
Gd6 O22 2.383852 1_655
Gd6 O14 2.439372 1_555
Gd6 O23 2.512253 1_655
Gd6 O7 2.585681 1_555
Gd6 O6 2.832966 1_555
Gd6 O8 2.873269 1_555
Gd7 O15 2.357070 1_555
Gd7 O17 2.357166 1_555
Gd7 O18 2.413768 1_555
Gd7 O19 2.417566 1_555
Gd7 O20 2.420323 1_555
Gd7 O16 2.450928 1_555
Gd7 O10 2.718844 1_555
Gd7 O9 2.751075 1_555
Gd7 O11 2.798614 1_555
Gd8 O15 2.357070 1_655
Gd8 O17 2.357166 1_655
Gd8 O18 2.413768 1_555
Gd8 O19 2.417566 1_555
Gd8 O20 2.420323 1_555
Gd8 O16 2.450928 1_655
Gd8 O1 2.718844 1_555
Gd8 O0 2.751075 1_555
Gd8 O2 2.798614 1_555
Gd9 O13 2.348253 1_555
Gd9 O12 2.368300 1_555
Gd9 O21 2.369439 1_555
Gd9 O22 2.383852 1_555
Gd9 O14 2.439372 1_555
Gd9 O23 2.512253 1_555
Gd9 O4 2.585681 1_555
Gd9 O3 2.832966 1_555
Gd9 O5 2.873269 1_555
B0 O12 1.498415 1_556
B0 O18 1.508521 1_555
B0 O0 1.516136 1_555
B0 O9 1.516136 1_555
B1 O16 1.474623 1_555
B1 O22 1.507002 1_555
B1 O4 1.531880 1_555
B1 O7 1.531880 1_455
O1 Si0 1.639339 1_555
O2 Si1 1.637164 1_555
O3 Si2 1.627852 1_555
O5 Si3 1.645670 1_555
O6 Si2 1.627852 1_655
O8 Si3 1.645670 1_655
O10 Si0 1.639339 1_555
O11 Si1 1.637164 1_555
O13 Si0 1.621864 1_555
O14 Si1 1.632153 1_545
O15 Si2 1.633260 1_556
O17 Si3 1.635641 1_565
O19 Si0 1.639367 1_555
O20 Si1 1.646981 1_555
O21 Si2 1.639985 1_555
O23 Si3 1.640247 1_555
