# generated using pymatgen
data_Si2Bi13(SbO14)2
_symmetry_space_group_name_H-M   'P 1'
_cell_length_a   6.12640065
_cell_length_b   10.21247430
_cell_length_c   12.69413919
_cell_angle_alpha   86.87340512
_cell_angle_beta   77.30360781
_cell_angle_gamma   80.31023871
_symmetry_Int_Tables_number   1
_chemical_formula_structural   Si2Bi13(SbO14)2
_chemical_formula_sum   'Si2 Bi13 Sb2 O28'
_cell_volume   763.61711119
_cell_formula_units_Z   1
loop_
 _symmetry_equiv_pos_site_id
 _symmetry_equiv_pos_as_xyz
  1  'x, y, z'
loop_
 _atom_site_type_symbol
 _atom_site_label
 _atom_site_symmetry_multiplicity
 _atom_site_fract_x
 _atom_site_fract_y
 _atom_site_fract_z
 _atom_site_occupancy
  Si  Si0  1  0.28473900  0.32881700  0.99179200  1
  Si  Si1  1  0.71973900  0.67156500  0.00809900  1
  Bi  Bi0  1  0.03754700  0.64156100  0.56909700  1
  Bi  Bi1  1  0.68578800  0.35280200  0.15688700  1
  Bi  Bi2  1  0.34050800  0.37129100  0.65963300  1
  Bi  Bi3  1  0.96058200  0.35447100  0.43244700  1
  Bi  Bi4  1  0.31726200  0.64733900  0.84281200  1
  Bi  Bi5  1  0.29114900  0.93432600  0.44514400  1
  Bi  Bi6  1  0.21103500  0.64155200  0.13129400  1
  Bi  Bi7  1  0.00072000  0.99996200  0.99990700  1
  Bi  Bi8  1  0.41009200  0.00441900  0.15332500  1
  Bi  Bi9  1  0.79033900  0.35834500  0.86998500  1
  Bi  Bi10  1  0.65967300  0.62604400  0.34167500  1
  Bi  Bi11  1  0.59099800  0.99574800  0.84727400  1
  Bi  Bi12  1  0.70719700  0.06131600  0.55509000  1
  Sb  Sb0  1  0.84968800  0.99844400  0.28747700  1
  Sb  Sb1  1  0.15033600  0.99975400  0.71259200  1
  O  O0  1  0.69582600  0.40895700  0.31568000  1
  O  O1  1  0.20975900  0.44440100  0.51732900  1
  O  O2  1  0.00914200  0.32631600  0.01025800  1
  O  O3  1  0.43500100  0.17815800  0.98785700  1
  O  O4  1  0.78855100  0.55160300  0.48399500  1
  O  O5  1  0.30006900  0.58929500  0.68571300  1
  O  O6  1  0.06797000  0.09220100  0.57826100  1
  O  O7  1  0.93165500  0.90347300  0.42082500  1
  O  O8  1  0.57129400  0.82274900  0.01129600  1
  O  O9  1  0.08792200  0.88491000  0.16686100  1
  O  O10  1  0.33355500  0.41069700  0.09155800  1
  O  O11  1  0.03964500  0.58018700  0.27639800  1
  O  O12  1  0.39271200  0.89250300  0.60789600  1
  O  O13  1  0.74504400  0.11035400  0.15938600  1
  O  O14  1  0.63718000  0.59133700  0.12479200  1
  O  O15  1  0.99606000  0.67366500  0.99005200  1
  O  O16  1  0.25544800  0.88975000  0.84159600  1
  O  O17  1  0.91324000  0.11461300  0.83259400  1
  O  O18  1  0.60630700  0.10409600  0.39282500  1
  O  O19  1  0.10974800  0.10015100  0.27931000  1
  O  O20  1  0.89084000  0.89734600  0.72276600  1
  O  O21  1  0.36676600  0.40935200  0.87512400  1
  O  O22  1  0.38763800  0.11262500  0.73002200  1
  O  O23  1  0.69405800  0.28102600  0.54842300  1
  O  O24  1  0.67213800  0.58973900  0.90801600  1
  O  O25  1  0.61294200  0.88596700  0.26838300  1
  O  O26  1  0.95937500  0.41604800  0.72320300  1
  O  O27  1  0.30375300  0.71465500  0.45256200  1
loop_
_geom_bond_atom_site_label_1
_geom_bond_atom_site_label_2
_geom_bond_distance
_geom_bond_site_symmetry_2
Bi0 O27 2.152724 1_555
Bi0 O1 2.173379 1_555
Bi0 O4 2.375381 1_455
Bi0 O5 2.394653 1_555
Bi1 O0 2.142040 1_555
Bi1 O2 2.390770 1_655
Bi1 O14 2.426889 1_555
Bi1 O13 2.440749 1_555
Bi1 O10 2.448996 1_555
Bi2 O1 2.179420 1_555
Bi2 O5 2.233011 1_555
Bi2 O26 2.272647 1_455
Bi2 O23 2.379064 1_555
Bi2 O22 2.731133 1_555
Bi2 O21 2.826701 1_555
Bi3 O23 2.152042 1_555
Bi3 O4 2.172155 1_555
Bi3 O1 2.374406 1_655
Bi3 O0 2.408449 1_555
Bi4 O5 2.140504 1_555
Bi4 O15 2.387054 1_455
Bi4 O21 2.421786 1_555
Bi4 O16 2.440315 1_555
Bi4 O24 2.462781 1_555
Bi5 O27 2.229225 1_555
Bi5 O12 2.284134 1_555
Bi5 O7 2.363946 1_455
Bi5 O6 2.421553 1_565
Bi5 O25 2.648375 1_555
Bi5 O18 2.759089 1_565
Bi6 O11 2.033108 1_555
Bi6 O10 2.396605 1_555
Bi6 O15 2.425942 1_454
Bi6 O9 2.508203 1_555
Bi6 O14 2.558309 1_555
Bi7 O16 2.453098 1_555
Bi7 O13 2.466479 1_466
Bi7 O9 2.484410 1_556
Bi7 O17 2.487355 1_465
Bi8 O19 2.273909 1_555
Bi8 O25 2.289118 1_545
Bi8 O9 2.460430 1_545
Bi8 O13 2.492599 1_555
Bi8 O8 2.575551 1_545
Bi8 O3 2.669670 1_554
Bi9 O26 2.031981 1_555
Bi9 O24 2.395089 1_555
Bi9 O2 2.431592 1_656
Bi9 O17 2.515702 1_555
Bi9 O21 2.546325 1_555
Bi10 O4 2.177246 1_555
Bi10 O0 2.226072 1_555
Bi10 O11 2.269875 1_655
Bi10 O27 2.383368 1_555
Bi10 O25 2.754192 1_555
Bi10 O14 2.830914 1_555
Bi11 O20 2.271112 1_555
Bi11 O22 2.304990 1_565
Bi11 O17 2.454796 1_565
Bi11 O16 2.495137 1_555
Bi11 O3 2.565534 1_565
Bi11 O8 2.651645 1_556
Bi12 O23 2.229279 1_555
Bi12 O18 2.277349 1_555
Bi12 O6 2.366796 1_655
Bi12 O7 2.432609 1_545
Bi12 O22 2.628512 1_555
Bi12 O12 2.749162 1_545
O2 Si0 1.657180 1_554
O3 Si0 1.651850 1_555
O6 Sb1 2.023854 1_545
O7 Sb0 2.022083 1_555
O8 Si1 1.652417 1_555
O9 Sb0 2.112003 1_455
O10 Si0 1.660944 1_554
O12 Sb1 1.978566 1_555
O13 Sb0 2.090435 1_545
O14 Si1 1.673076 1_555
O15 Si1 1.661297 1_556
O16 Sb1 2.092317 1_555
O17 Sb1 2.110698 1_645
O18 Sb0 1.978666 1_545
O19 Sb0 2.025021 1_445
O20 Sb1 2.023006 1_655
O21 Si0 1.673754 1_555
O22 Sb1 2.055369 1_545
O24 Si1 1.660765 1_556
O25 Sb0 2.056109 1_555
