# generated using pymatgen
data_Ce2C(NO)2
_symmetry_space_group_name_H-M   'P 1'
_cell_length_a   3.91735170
_cell_length_b   3.91735170
_cell_length_c   8.36116600
_cell_angle_alpha   90.00000000
_cell_angle_beta   90.00000000
_cell_angle_gamma   119.99999492
_symmetry_Int_Tables_number   1
_chemical_formula_structural   Ce2C(NO)2
_chemical_formula_sum   'Ce2 C1 N2 O2'
_cell_volume   111.11754257
_cell_formula_units_Z   1
loop_
 _symmetry_equiv_pos_site_id
 _symmetry_equiv_pos_as_xyz
  1  'x, y, z'
loop_
 _atom_site_type_symbol
 _atom_site_label
 _atom_site_symmetry_multiplicity
 _atom_site_fract_x
 _atom_site_fract_y
 _atom_site_fract_z
 _atom_site_occupancy
  Ce  Ce0  1  0.33333300  0.66666700  0.32199100  1
  Ce  Ce1  1  0.66666700  0.33333300  0.67800900  1
  C  C0  1  0.00000000  0.00000000  0.00000000  1
  N  N0  1  0.00000000  0.00000000  0.14796600  1
  N  N1  1  0.00000000  0.00000000  0.85203400  1
  O  O0  1  0.33333300  0.66666700  0.60484400  1
  O  O1  1  0.66666700  0.33333300  0.39515600  1
loop_
_geom_bond_atom_site_label_1
_geom_bond_atom_site_label_2
_geom_bond_distance
_geom_bond_site_symmetry_2
Ce0 O1 2.342955 1_455
Ce0 O1 2.342955 1_565
Ce0 O1 2.342961 1_555
Ce0 O0 2.364981 1_555
Ce0 N0 2.689309 1_565
Ce0 N0 2.689312 1_665
Ce0 N0 2.689312 1_555
Ce1 O0 2.342955 1_545
Ce1 O0 2.342955 1_655
Ce1 O0 2.342961 1_555
Ce1 O1 2.364981 1_555
Ce1 N1 2.689309 1_655
Ce1 N1 2.689312 1_665
Ce1 N1 2.689312 1_555
C0 N0 1.237168 1_555
C0 N1 1.237168 1_554
