# generated using pymatgen
data_Pr4Mg
_symmetry_space_group_name_H-M   'P 1'
_cell_length_a   8.18560528
_cell_length_b   8.18560528
_cell_length_c   8.18560528
_cell_angle_alpha   60.00000000
_cell_angle_beta   60.00000000
_cell_angle_gamma   60.00000000
_symmetry_Int_Tables_number   1
_chemical_formula_structural   Pr4Mg
_chemical_formula_sum   'Pr8 Mg2'
_cell_volume   387.82642562
_cell_formula_units_Z   2
loop_
 _symmetry_equiv_pos_site_id
 _symmetry_equiv_pos_as_xyz
  1  'x, y, z'
loop_
 _atom_site_type_symbol
 _atom_site_label
 _atom_site_symmetry_multiplicity
 _atom_site_fract_x
 _atom_site_fract_y
 _atom_site_fract_z
 _atom_site_occupancy
  Pr  Pr0  1  0.39573200  0.39573200  0.39573200  1
  Pr  Pr1  1  0.39573200  0.39573200  0.81280500  1
  Pr  Pr2  1  0.39573200  0.81280500  0.39573200  1
  Pr  Pr3  1  0.85426800  0.85426800  0.43719500  1
  Pr  Pr4  1  0.85426800  0.85426800  0.85426800  1
  Pr  Pr5  1  0.81280500  0.39573200  0.39573200  1
  Pr  Pr6  1  0.85426800  0.43719500  0.85426800  1
  Pr  Pr7  1  0.43719500  0.85426800  0.85426800  1
  Mg  Mg0  1  0.00000000  0.00000000  0.00000000  1
  Mg  Mg1  1  0.25000000  0.25000000  0.25000000  1
loop_
_geom_bond_atom_site_label_1
_geom_bond_atom_site_label_2
_geom_bond_distance
_geom_bond_site_symmetry_2
Pr0 Pr1 3.413995 1_555
Pr0 Pr2 3.413995 1_555
Pr0 Pr5 3.413995 1_555
Pr0 Pr3 4.120853 1_545
Pr0 Pr7 4.120853 1_554
Pr0 Pr6 4.120853 1_455
Pr0 Pr6 4.120853 1_554
Pr0 Pr7 4.120853 1_545
Pr0 Pr3 4.120853 1_455
Pr1 Pr2 3.413995 1_555
Pr1 Pr5 3.413995 1_555
Pr1 Pr7 4.120843 1_555
Pr1 Pr6 4.120843 1_555
Pr1 Pr4 4.120853 1_455
Pr1 Pr4 4.120853 1_545
Pr1 Pr6 4.120860 1_455
Pr1 Pr7 4.120860 1_545
Pr2 Pr5 3.413995 1_555
Pr2 Pr7 4.120843 1_555
Pr2 Pr3 4.120843 1_555
Pr2 Pr4 4.120853 1_455
Pr2 Pr4 4.120853 1_554
Pr2 Pr3 4.120860 1_455
Pr2 Pr7 4.120860 1_554
Pr3 Pr4 3.413995 1_555
Pr3 Pr7 3.413995 1_555
Pr3 Pr6 3.413995 1_555
Pr3 Pr5 4.120843 1_555
Pr3 Pr5 4.120860 1_565
Pr4 Pr7 3.413995 1_555
Pr4 Pr6 3.413995 1_555
Pr4 Pr5 4.120853 1_565
Pr4 Pr5 4.120853 1_556
Pr5 Pr6 4.120843 1_555
Pr5 Pr6 4.120860 1_554
Pr6 Pr7 3.413995 1_555
Mg0 Pr6 2.922001 1_454
Mg0 Pr7 2.922001 1_544
Mg0 Pr3 2.922001 1_445
Mg0 Pr4 2.922008 1_444
Mg1 Pr5 2.922001 1_455
Mg1 Pr1 2.922001 1_554
Mg1 Pr2 2.922001 1_545
Mg1 Pr0 2.922008 1_555
