# generated using pymatgen
data_TmN7O15
_symmetry_space_group_name_H-M   'P 1'
_cell_length_a   11.30169031
_cell_length_b   11.30169031
_cell_length_c   9.41646800
_cell_angle_alpha   90.00000000
_cell_angle_beta   90.00000000
_cell_angle_gamma   120.00000180
_symmetry_Int_Tables_number   1
_chemical_formula_structural   TmN7O15
_chemical_formula_sum   'Tm3 N21 O45'
_cell_volume   1041.61077436
_cell_formula_units_Z   3
loop_
 _symmetry_equiv_pos_site_id
 _symmetry_equiv_pos_as_xyz
  1  'x, y, z'
loop_
 _atom_site_type_symbol
 _atom_site_label
 _atom_site_symmetry_multiplicity
 _atom_site_fract_x
 _atom_site_fract_y
 _atom_site_fract_z
 _atom_site_occupancy
  Tm  Tm0  1  0.66599400  0.00173200  0.19383600  1
  Tm  Tm1  1  0.99826800  0.66426200  0.52717000  1
  Tm  Tm2  1  0.33573800  0.33400600  0.86050300  1
  N  N0  1  0.93927100  0.33251700  0.85575100  1
  N  N1  1  0.66748300  0.60675400  0.18908400  1
  N  N2  1  0.39324600  0.06072900  0.52241800  1
  N  N3  1  0.11964400  0.33138400  0.35466800  1
  N  N4  1  0.66861600  0.78825900  0.68800100  1
  N  N5  1  0.21174100  0.88035600  0.02133500  1
  N  N6  1  0.56532500  0.97156600  0.90029700  1
  N  N7  1  0.02843400  0.59375900  0.23363000  1
  N  N8  1  0.40624100  0.43467500  0.56696400  1
  N  N9  1  0.91708000  0.00099100  0.12883300  1
  N  N10  1  0.99900900  0.91608900  0.46216700  1
  N  N11  1  0.08391100  0.08292000  0.79550000  1
  N  N12  1  0.30515200  0.23380100  0.14965700  1
  N  N13  1  0.76619900  0.07135000  0.48299100  1
  N  N14  1  0.92865000  0.69484800  0.81632400  1
  N  N15  1  0.33301800  0.58265900  0.91890200  1
  N  N16  1  0.41734100  0.75035900  0.25223600  1
  N  N17  1  0.24964100  0.66698200  0.58556900  1
  N  N18  1  0.74767300  0.41564900  0.52345500  1
  N  N19  1  0.58435100  0.33202400  0.85678800  1
  N  N20  1  0.66797600  0.25232700  0.19012200  1
  O  O0  1  0.49078500  0.49318100  0.66891100  1
  O  O1  1  0.50681900  0.99760400  0.00224400  1
  O  O2  1  0.00239600  0.50921500  0.33557800  1
  O  O3  1  0.29132200  0.33228000  0.60334600  1
  O  O4  1  0.66772000  0.95904200  0.93668000  1
  O  O5  1  0.04095800  0.70867800  0.27001300  1
  O  O6  1  0.43339900  0.47461500  0.44343600  1
  O  O7  1  0.52538500  0.95878400  0.77677000  1
  O  O8  1  0.04121600  0.56660100  0.11010300  1
  O  O9  1  0.19761900  0.08656000  0.77944700  1
  O  O10  1  0.91344000  0.11105900  0.11278000  1
  O  O11  1  0.88894100  0.80238100  0.44611300  1
  O  O12  1  0.09169500  0.19488700  0.83673200  1
  O  O13  1  0.80511300  0.89680800  0.17006500  1
  O  O14  1  0.10319200  0.90830500  0.50339800  1
  O  O15  1  0.97305500  0.97881700  0.77413000  1
  O  O16  1  0.02118300  0.99423800  0.10746300  1
  O  O17  1  0.00576200  0.02694500  0.44079700  1
  O  O18  1  0.29248900  0.33680200  0.11443900  1
  O  O19  1  0.66319800  0.95568800  0.44777200  1
  O  O20  1  0.04431200  0.70751100  0.78110600  1
  O  O21  1  0.33126900  0.17685900  0.04562200  1
  O  O22  1  0.82314100  0.15441000  0.37895500  1
  O  O23  1  0.84559000  0.66873100  0.71228900  1
  O  O24  1  0.89999600  0.70734200  0.93873900  1
  O  O25  1  0.29265800  0.19265400  0.27207200  1
  O  O26  1  0.80734600  0.10000400  0.60540500  1
  O  O27  1  0.22937700  0.47158500  0.87428200  1
  O  O28  1  0.52841500  0.75779300  0.20761500  1
  O  O29  1  0.24220700  0.77062300  0.54094800  1
  O  O30  1  0.44267900  0.57777200  0.93543800  1
  O  O31  1  0.42222800  0.86490700  0.26877100  1
  O  O32  1  0.13509300  0.55732100  0.60210400  1
  O  O33  1  0.35986900  0.67359500  0.60958000  1
  O  O34  1  0.32640500  0.68627400  0.94291300  1
  O  O35  1  0.31372600  0.64013100  0.27624700  1
  O  O36  1  0.56805200  0.41867500  0.93000800  1
  O  O37  1  0.58132500  0.14937800  0.26334200  1
  O  O38  1  0.85062200  0.43194800  0.59667500  1
  O  O39  1  0.76656800  0.51933400  0.44998200  1
  O  O40  1  0.48066600  0.24723300  0.78331600  1
  O  O41  1  0.75276700  0.23343200  0.11664900  1
  O  O42  1  0.63815000  0.30780200  0.52386700  1
  O  O43  1  0.69219800  0.33034800  0.85720100  1
  O  O44  1  0.66965200  0.36185000  0.19053400  1
loop_
_geom_bond_atom_site_label_1
_geom_bond_atom_site_label_2
_geom_bond_distance
_geom_bond_site_symmetry_2
N6 O7 1.229805 1_555
N6 O1 1.280604 1_556
N6 O4 1.280782 1_555
N7 O8 1.229805 1_555
N7 O2 1.280611 1_555
N7 O5 1.280782 1_555
N8 O6 1.229814 1_555
N8 O0 1.280604 1_555
N8 O3 1.280780 1_555
N9 O16 1.233028 1_645
N9 O10 1.274025 1_555
N9 O13 1.283917 1_545
N10 O17 1.233028 1_665
N10 O11 1.274026 1_555
N10 O14 1.283914 1_655
N11 O15 1.233028 1_445
N11 O9 1.274025 1_555
N11 O12 1.283917 1_555
N12 O25 1.224453 1_555
N12 O21 1.284881 1_555
N12 O18 1.285360 1_555
N13 O26 1.224445 1_555
N13 O22 1.284893 1_555
N13 O19 1.285350 1_545
N14 O24 1.224456 1_555
N14 O23 1.284888 1_555
N14 O20 1.285338 1_655
N15 O34 1.231067 1_555
N15 O30 1.277399 1_555
N15 O27 1.286071 1_555
N16 O35 1.231067 1_555
N16 O31 1.277398 1_555
N16 O28 1.286069 1_555
N17 O33 1.231067 1_555
N17 O32 1.277398 1_555
N17 O29 1.286080 1_555
N18 O42 1.228440 1_555
N18 O39 1.283426 1_555
N18 O38 1.284021 1_555
N19 O43 1.228440 1_555
N19 O40 1.283424 1_555
N19 O36 1.284030 1_555
N20 O44 1.228440 1_555
N20 O41 1.283436 1_555
N20 O37 1.284024 1_555
O0 Tm2 2.531661 1_555
O1 Tm0 2.531661 1_565
O2 Tm1 2.531661 1_455
O3 Tm2 2.471089 1_555
O4 Tm0 2.471080 1_566
O5 Tm1 2.471089 1_455
O9 Tm2 2.544522 1_555
O10 Tm0 2.544522 1_555
O11 Tm1 2.544525 1_555
O12 Tm2 2.406818 1_555
O13 Tm0 2.406818 1_565
O14 Tm1 2.406819 1_455
O18 Tm2 2.443992 1_554
O19 Tm0 2.443990 1_565
O20 Tm1 2.443991 1_455
O21 Tm2 2.470982 1_554
O22 Tm0 2.470982 1_555
O23 Tm1 2.470982 1_555
O27 Tm2 2.397597 1_555
O28 Tm0 2.397587 1_565
O29 Tm1 2.397586 1_455
O30 Tm2 2.493754 1_555
O31 Tm0 2.493753 1_565
O32 Tm1 2.493751 1_455
O36 Tm2 2.392718 1_555
O37 Tm0 2.392731 1_555
O38 Tm1 2.392720 1_555
O39 Tm1 2.403975 1_555
O40 Tm2 2.403981 1_555
O41 Tm0 2.403971 1_555
