# generated using pymatgen
data_CoSiN5ClF6
_symmetry_space_group_name_H-M   'P 1'
_cell_length_a   6.77236500
_cell_length_b   7.38128300
_cell_length_c   10.69337060
_cell_angle_alpha   80.16593971
_cell_angle_beta   90.00000000
_cell_angle_gamma   90.00000000
_symmetry_Int_Tables_number   1
_chemical_formula_structural   CoSiN5ClF6
_chemical_formula_sum   'Co2 Si2 N10 Cl2 F12'
_cell_volume   526.69378971
_cell_formula_units_Z   2
loop_
 _symmetry_equiv_pos_site_id
 _symmetry_equiv_pos_as_xyz
  1  'x, y, z'
loop_
 _atom_site_type_symbol
 _atom_site_label
 _atom_site_symmetry_multiplicity
 _atom_site_fract_x
 _atom_site_fract_y
 _atom_site_fract_z
 _atom_site_occupancy
  Co  Co0  1  0.75000000  0.85190600  0.92632200  1
  Co  Co1  1  0.25000000  0.14809400  0.07367800  1
  Si  Si0  1  0.75000000  0.66410500  0.70455900  1
  Si  Si1  1  0.25000000  0.33589500  0.29544100  1
  N  N0  1  0.75000000  0.73982900  0.37975900  1
  N  N1  1  0.25000000  0.26017100  0.62024100  1
  N  N2  1  0.92569700  0.74217300  0.37941300  1
  N  N3  1  0.42569700  0.25782700  0.62058700  1
  N  N4  1  0.07430300  0.25782700  0.62058700  1
  N  N5  1  0.57430300  0.74217300  0.37941300  1
  N  N6  1  0.83252000  0.57280000  0.10656800  1
  N  N7  1  0.33252000  0.42720000  0.89343200  1
  N  N8  1  0.16748000  0.42720000  0.89343200  1
  N  N9  1  0.66748000  0.57280000  0.10656800  1
  Cl  Cl0  1  0.75000000  0.08383500  0.02168700  1
  Cl  Cl1  1  0.25000000  0.91616500  0.97831300  1
  F  F0  1  0.75000000  0.47271900  0.81045300  1
  F  F1  1  0.25000000  0.52728100  0.18954700  1
  F  F2  1  0.75000000  0.87684400  0.62350200  1
  F  F3  1  0.25000000  0.12315600  0.37649800  1
  F  F4  1  0.92938800  0.75578100  0.81638100  1
  F  F5  1  0.42938800  0.24421900  0.18361900  1
  F  F6  1  0.07061200  0.24421900  0.18361900  1
  F  F7  1  0.57061200  0.75578100  0.81638100  1
  F  F8  1  0.93757600  0.59800000  0.62163700  1
  F  F9  1  0.43757600  0.40200000  0.37836300  1
  F  F10  1  0.06242400  0.40200000  0.37836300  1
  F  F11  1  0.56242400  0.59800000  0.62163700  1
loop_
_geom_bond_atom_site_label_1
_geom_bond_atom_site_label_2
_geom_bond_distance
_geom_bond_site_symmetry_2
Co0 F7 1.909562 1_555
Co0 F4 1.909562 1_555
Co0 N9 2.629676 1_556
Co0 N6 2.629676 1_556
Co1 F5 1.909562 1_555
Co1 F6 1.909562 1_555
Co1 N7 2.629676 1_554
Co1 N8 2.629676 1_554
N0 N2 1.190007 1_555
N0 N5 1.190007 1_555
N1 N3 1.190007 1_555
N1 N4 1.190007 1_555
N6 N9 1.117711 1_555
N7 N8 1.117711 1_555
Cl0 Co0 2.137053 1_544
Cl1 Co1 2.137053 1_566
F0 Si0 1.652715 1_555
F1 Si1 1.652715 1_555
F2 Si0 1.658964 1_555
F3 Si1 1.658964 1_555
F4 Si0 1.907896 1_555
F5 Si1 1.907896 1_555
F6 Si1 1.907896 1_555
F7 Si0 1.907896 1_555
F8 Si0 1.669099 1_555
F9 Si1 1.669099 1_555
F10 Si1 1.669099 1_555
F11 Si0 1.669099 1_555
