# generated using pymatgen
data_Zn2Sn3O8
_symmetry_space_group_name_H-M   'P 1'
_cell_length_a   6.33491001
_cell_length_b   6.33491001
_cell_length_c   9.50612100
_cell_angle_alpha   90.00000000
_cell_angle_beta   90.00000000
_cell_angle_gamma   120.00000008
_symmetry_Int_Tables_number   1
_chemical_formula_structural   Zn2Sn3O8
_chemical_formula_sum   'Zn4 Sn6 O16'
_cell_volume   330.38085206
_cell_formula_units_Z   2
loop_
 _symmetry_equiv_pos_site_id
 _symmetry_equiv_pos_as_xyz
  1  'x, y, z'
loop_
 _atom_site_type_symbol
 _atom_site_label
 _atom_site_symmetry_multiplicity
 _atom_site_fract_x
 _atom_site_fract_y
 _atom_site_fract_z
 _atom_site_occupancy
  Zn  Zn0  1  0.66666700  0.33333300  0.04011700  1
  Zn  Zn1  1  0.33333300  0.66666700  0.54011700  1
  Zn  Zn2  1  0.66666700  0.33333300  0.40455400  1
  Zn  Zn3  1  0.33333300  0.66666700  0.90455400  1
  Sn  Sn0  1  0.67184700  0.83592300  0.24467200  1
  Sn  Sn1  1  0.83592300  0.16407700  0.74467200  1
  Sn  Sn2  1  0.16407700  0.32815300  0.24467200  1
  Sn  Sn3  1  0.83592300  0.67184700  0.74467200  1
  Sn  Sn4  1  0.32815300  0.16407700  0.74467200  1
  Sn  Sn5  1  0.16407700  0.83592300  0.24467200  1
  O  O0  1  0.83352100  0.16647900  0.13956300  1
  O  O1  1  0.66704300  0.83352100  0.63956300  1
  O  O2  1  0.16647900  0.33295700  0.63956300  1
  O  O3  1  0.83352100  0.66704300  0.13956300  1
  O  O4  1  0.33295700  0.16647900  0.13956300  1
  O  O5  1  0.16647900  0.83352100  0.63956300  1
  O  O6  1  0.51638400  0.48361600  0.87045500  1
  O  O7  1  0.03276700  0.51638400  0.37045500  1
  O  O8  1  0.48361600  0.96723300  0.37045500  1
  O  O9  1  0.51638400  0.03276700  0.87045500  1
  O  O10  1  0.00000000  0.00000000  0.35801800  1
  O  O11  1  0.00000000  0.00000000  0.85801800  1
  O  O12  1  0.33333300  0.66666700  0.12674500  1
  O  O13  1  0.96723300  0.48361600  0.87045500  1
  O  O14  1  0.48361600  0.51638400  0.37045500  1
  O  O15  1  0.66666700  0.33333300  0.62674500  1
loop_
_geom_bond_atom_site_label_1
_geom_bond_atom_site_label_2
_geom_bond_distance
_geom_bond_site_symmetry_2
O0 Zn0 2.060451 1_555
O0 Sn0 2.070662 1_545
O0 Sn2 2.070662 1_655
O1 Zn1 2.060461 1_555
O1 Sn3 2.070652 1_555
O1 Sn1 2.070662 1_565
O2 Zn1 2.060461 1_555
O2 Sn4 2.070652 1_555
O2 Sn1 2.070662 1_455
O3 Zn0 2.060461 1_555
O3 Sn0 2.070652 1_555
O3 Sn5 2.070662 1_655
O4 Zn0 2.060461 1_555
O4 Sn2 2.070652 1_555
O4 Sn5 2.070662 1_545
O5 Zn1 2.060451 1_555
O5 Sn3 2.070662 1_455
O5 Sn4 2.070662 1_565
O6 Zn3 2.034495 1_555
O6 Sn3 2.129653 1_555
O6 Sn4 2.129653 1_555
O6 Zn0 2.306576 1_556
O7 Zn2 2.034484 1_455
O7 Sn5 2.129652 1_555
O7 Sn2 2.129661 1_555
O7 Zn1 2.306576 1_555
O8 Zn2 2.034484 1_565
O8 Sn5 2.129652 1_555
O8 Sn0 2.129661 1_555
O8 Zn1 2.306576 1_555
O9 Zn3 2.034484 1_545
O9 Sn1 2.129652 1_555
O9 Sn4 2.129661 1_555
O9 Zn0 2.306576 1_556
O10 Sn2 2.098114 1_555
O10 Sn0 2.098114 1_445
O10 Sn5 2.098119 1_545
O11 Sn4 2.098114 1_555
O11 Sn3 2.098114 1_445
O11 Sn1 2.098119 1_455
O12 Zn3 2.112175 1_554
O12 Sn5 2.169258 1_555
O12 Sn2 2.169268 1_555
O12 Sn0 2.169268 1_555
O13 Zn3 2.034484 1_655
O13 Sn1 2.129652 1_555
O13 Sn3 2.129661 1_555
O13 Zn0 2.306576 1_556
O14 Zn2 2.034495 1_555
O14 Sn2 2.129653 1_555
O14 Sn0 2.129653 1_555
O14 Zn1 2.306576 1_555
O15 Zn2 2.112175 1_555
O15 Sn1 2.169258 1_555
O15 Sn3 2.169268 1_555
O15 Sn4 2.169268 1_555
