# generated using pymatgen
data_IrOs
_symmetry_space_group_name_H-M   'P 1'
_cell_length_a   5.48724296
_cell_length_b   5.48724296
_cell_length_c   8.72176602
_cell_angle_alpha   90.00000000
_cell_angle_beta   90.00000000
_cell_angle_gamma   120.00002077
_symmetry_Int_Tables_number   1
_chemical_formula_structural   IrOs
_chemical_formula_sum   'Ir8 Os8'
_cell_volume   227.42769661
_cell_formula_units_Z   8
loop_
 _symmetry_equiv_pos_site_id
 _symmetry_equiv_pos_as_xyz
  1  'x, y, z'
loop_
 _atom_site_type_symbol
 _atom_site_label
 _atom_site_symmetry_multiplicity
 _atom_site_fract_x
 _atom_site_fract_y
 _atom_site_fract_z
 _atom_site_occupancy
  Ir  Ir0_0  1  0.33333350  0.16666650  0.25000000  1
  Ir  Ir0_1  1  0.33333350  0.16666650  0.75000000  1
  Ir  Ir0_2  1  0.33333350  0.66666650  0.25000000  1
  Ir  Ir0_3  1  0.33333350  0.66666650  0.75000000  1
  Ir  Ir0_4  1  0.83333350  0.16666650  0.25000000  1
  Ir  Ir0_5  1  0.83333350  0.16666650  0.75000000  1
  Ir  Ir0_6  1  0.83333350  0.66666650  0.25000000  1
  Ir  Ir0_7  1  0.83333350  0.66666650  0.75000000  1
  Os  Os0_0  1  0.16666650  0.33333350  0.00000000  1
  Os  Os0_1  1  0.16666650  0.33333350  0.50000000  1
  Os  Os0_2  1  0.16666650  0.83333350  0.00000000  1
  Os  Os0_3  1  0.16666650  0.83333350  0.50000000  1
  Os  Os0_4  1  0.66666650  0.33333350  0.00000000  1
  Os  Os0_5  1  0.66666650  0.33333350  0.50000000  1
  Os  Os0_6  1  0.66666650  0.83333350  0.00000000  1
  Os  Os0_7  1  0.66666650  0.83333350  0.50000000  1
loop_
_geom_bond_atom_site_label_1
_geom_bond_atom_site_label_2
_geom_bond_distance
_geom_bond_site_symmetry_2
Ir0_0 Os0_5 2.695083 1_555
Ir0_0 Os0_2 2.695083 1_545
Ir0_0 Os0_3 2.695083 1_545
Ir0_0 Os0_4 2.695083 1_555
Ir0_0 Os0_0 2.695086 1_555
Ir0_0 Os0_1 2.695086 1_555
Ir0_0 Ir0_6 2.743621 1_445
Ir0_0 Ir0_6 2.743621 1_555
Ir0_0 Ir0_2 2.743621 1_555
Ir0_0 Ir0_4 2.743621 1_455
Ir0_0 Ir0_2 2.743621 1_545
Ir0_0 Ir0_4 2.743621 1_555
Ir0_1 Os0_4 2.695083 1_556
Ir0_1 Os0_5 2.695083 1_555
Ir0_1 Os0_2 2.695083 1_546
Ir0_1 Os0_3 2.695083 1_545
Ir0_1 Os0_0 2.695086 1_556
Ir0_1 Os0_1 2.695086 1_555
Ir0_1 Ir0_7 2.743621 1_445
Ir0_1 Ir0_7 2.743621 1_555
Ir0_1 Ir0_5 2.743621 1_455
Ir0_1 Ir0_3 2.743621 1_555
Ir0_1 Ir0_3 2.743621 1_545
Ir0_1 Ir0_5 2.743621 1_555
Ir0_2 Os0_0 2.695083 1_555
Ir0_2 Os0_1 2.695083 1_555
Ir0_2 Os0_7 2.695083 1_555
Ir0_2 Os0_6 2.695083 1_555
Ir0_2 Os0_2 2.695086 1_555
Ir0_2 Os0_3 2.695086 1_555
Ir0_2 Ir0_4 2.743621 1_455
Ir0_2 Ir0_4 2.743621 1_565
Ir0_2 Ir0_6 2.743621 1_455
Ir0_2 Ir0_6 2.743621 1_555
Ir0_3 Os0_0 2.695083 1_556
Ir0_3 Os0_1 2.695083 1_555
Ir0_3 Os0_7 2.695083 1_555
Ir0_3 Os0_6 2.695083 1_556
Ir0_3 Os0_3 2.695086 1_555
Ir0_3 Os0_2 2.695086 1_556
Ir0_3 Ir0_5 2.743621 1_455
Ir0_3 Ir0_5 2.743621 1_565
Ir0_3 Ir0_7 2.743621 1_455
Ir0_3 Ir0_7 2.743621 1_555
Ir0_4 Os0_0 2.695083 1_655
Ir0_4 Os0_1 2.695083 1_655
Ir0_4 Os0_6 2.695083 1_545
Ir0_4 Os0_7 2.695083 1_545
Ir0_4 Os0_5 2.695086 1_555
Ir0_4 Os0_4 2.695086 1_555
Ir0_4 Ir0_6 2.743621 1_545
Ir0_4 Ir0_6 2.743621 1_555
Ir0_5 Os0_0 2.695083 1_656
Ir0_5 Os0_1 2.695083 1_655
Ir0_5 Os0_6 2.695083 1_546
Ir0_5 Os0_7 2.695083 1_545
Ir0_5 Os0_5 2.695086 1_555
Ir0_5 Os0_4 2.695086 1_556
Ir0_5 Ir0_7 2.743621 1_545
Ir0_5 Ir0_7 2.743621 1_555
Ir0_6 Os0_4 2.695083 1_555
Ir0_6 Os0_5 2.695083 1_555
Ir0_6 Os0_2 2.695083 1_655
Ir0_6 Os0_3 2.695083 1_655
Ir0_6 Os0_6 2.695086 1_555
Ir0_6 Os0_7 2.695086 1_555
Ir0_7 Os0_4 2.695083 1_556
Ir0_7 Os0_5 2.695083 1_555
Ir0_7 Os0_2 2.695083 1_656
Ir0_7 Os0_3 2.695083 1_655
Ir0_7 Os0_6 2.695086 1_556
Ir0_7 Os0_7 2.695086 1_555
Os0_0 Os0_6 2.743621 1_445
Os0_0 Os0_6 2.743621 1_555
Os0_0 Os0_2 2.743621 1_555
Os0_0 Os0_4 2.743621 1_455
Os0_0 Os0_4 2.743621 1_555
Os0_0 Os0_2 2.743621 1_545
Os0_1 Os0_7 2.743621 1_445
Os0_1 Os0_7 2.743621 1_555
Os0_1 Os0_5 2.743621 1_455
Os0_1 Os0_3 2.743621 1_555
Os0_1 Os0_5 2.743621 1_555
Os0_1 Os0_3 2.743621 1_545
Os0_2 Os0_4 2.743621 1_565
Os0_2 Os0_4 2.743621 1_455
Os0_2 Os0_6 2.743621 1_455
Os0_2 Os0_6 2.743621 1_555
Os0_3 Os0_5 2.743621 1_565
Os0_3 Os0_5 2.743621 1_455
Os0_3 Os0_7 2.743621 1_555
Os0_3 Os0_7 2.743621 1_455
Os0_4 Os0_6 2.743621 1_555
Os0_4 Os0_6 2.743621 1_545
Os0_5 Os0_7 2.743621 1_555
Os0_5 Os0_7 2.743621 1_545
