# generated using pymatgen
data_Na3InH3(SO4)3
_symmetry_space_group_name_H-M   'P 1'
_cell_length_a   9.00518804
_cell_length_b   15.57071945
_cell_length_c   15.57071945
_cell_angle_alpha   119.99999829
_cell_angle_beta   90.00000000
_cell_angle_gamma   90.00000000
_symmetry_Int_Tables_number   1
_chemical_formula_structural   Na3InH3(SO4)3
_chemical_formula_sum   'Na18 In6 H18 S18 O72'
_cell_volume   1890.77906201
_cell_formula_units_Z   6
loop_
 _symmetry_equiv_pos_site_id
 _symmetry_equiv_pos_as_xyz
  1  'x, y, z'
loop_
 _atom_site_type_symbol
 _atom_site_label
 _atom_site_symmetry_multiplicity
 _atom_site_fract_x
 _atom_site_fract_y
 _atom_site_fract_z
 _atom_site_occupancy
  Na  Na0  1  0.91851037  0.75906158  0.79810539  1
  Na  Na1  1  0.08148963  0.24093842  0.20189461  1
  Na  Na2  1  0.91851037  0.03904380  0.24093842  1
  Na  Na3  1  0.08148963  0.96095620  0.75906158  1
  Na  Na4  1  0.91851037  0.20189461  0.96095620  1
  Na  Na5  1  0.08148963  0.79810539  0.03904380  1
  Na  Na6  1  0.59234495  0.55323446  0.64631217  1
  Na  Na7  1  0.40765505  0.44676554  0.35368783  1
  Na  Na8  1  0.59234495  0.09307771  0.44676554  1
  Na  Na9  1  0.40765505  0.90692229  0.55323446  1
  Na  Na10  1  0.59234495  0.35368783  0.90692229  1
  Na  Na11  1  0.40765505  0.64631217  0.09307771  1
  Na  Na12  1  0.79069345  0.57960552  0.88915682  1
  Na  Na13  1  0.20930655  0.42039448  0.11084318  1
  Na  Na14  1  0.79069345  0.30955129  0.42039448  1
  Na  Na15  1  0.20930655  0.69044871  0.57960552  1
  Na  Na16  1  0.79069345  0.11084318  0.69044871  1
  Na  Na17  1  0.20930655  0.88915682  0.30955129  1
  In  In0  1  0.30590153  0.66666700  0.33333300  1
  In  In1  1  0.69409847  0.33333300  0.66666700  1
  In  In2  1  0.50000000  -0.00000000  -0.00000000  1
  In  In3  1  0.80352819  0.66666700  0.33333300  1
  In  In4  1  0.19647181  0.33333300  0.66666700  1
  In  In5  1  0.00000000  -0.00000000  -0.00000000  1
  H  H0  1  0.61697484  0.74342890  0.76770257  1
  H  H1  1  0.38302516  0.25657110  0.23229743  1
  H  H2  1  0.61697484  0.02427367  0.25657110  1
  H  H3  1  0.38302516  0.97572633  0.74342890  1
  H  H4  1  0.61697484  0.23229743  0.97572633  1
  H  H5  1  0.38302516  0.76770257  0.02427367  1
  H  H6  1  0.71545079  0.64625680  0.07350254  1
  H  H7  1  0.28454921  0.35374320  0.92649746  1
  H  H8  1  0.71545079  0.42724574  0.35374320  1
  H  H9  1  0.28454921  0.57275426  0.64625680  1
  H  H10  1  0.71545079  0.92649746  0.57275426  1
  H  H11  1  0.28454921  0.07350254  0.42724574  1
  H  H12  1  0.90098494  0.91001816  0.31670503  1
  H  H13  1  0.09901506  0.08998184  0.68329497  1
  H  H14  1  0.90098494  0.40668687  0.08998184  1
  H  H15  1  0.09901506  0.59331313  0.91001816  1
  H  H16  1  0.90098494  0.68329497  0.59331313  1
  H  H17  1  0.09901506  0.31670503  0.40668687  1
  S  S0  1  0.93238903  0.49010181  0.65530074  1
  S  S1  1  0.06761097  0.50989819  0.34469926  1
  S  S2  1  0.93238903  0.16519893  0.50989819  1
  S  S3  1  0.06761097  0.83480107  0.49010181  1
  S  S4  1  0.93238903  0.34469926  0.83480107  1
  S  S5  1  0.06761097  0.65530074  0.16519893  1
  S  S6  1  0.75231236  0.84519874  0.01961280  1
  S  S7  1  0.24768764  0.15480126  0.98038720  1
  S  S8  1  0.75231236  0.17441406  0.15480126  1
  S  S9  1  0.24768764  0.82558594  0.84519874  1
  S  S10  1  0.75231236  0.98038720  0.82558594  1
  S  S11  1  0.24768764  0.01961280  0.17441406  1
  S  S12  1  0.54325268  0.82339105  0.32064609  1
  S  S13  1  0.45674732  0.17660895  0.67935391  1
  S  S14  1  0.54325268  0.49725504  0.17660895  1
  S  S15  1  0.45674732  0.50274496  0.82339105  1
  S  S16  1  0.54325268  0.67935391  0.50274496  1
  S  S17  1  0.45674732  0.32064609  0.49725504  1
  O  O0  1  0.82916708  0.75357565  0.94320902  1
  O  O1  1  0.17083292  0.24642435  0.05679098  1
  O  O2  1  0.82916708  0.18963337  0.24642435  1
  O  O3  1  0.17083292  0.81036663  0.75357565  1
  O  O4  1  0.82916708  0.05679098  0.81036663  1
  O  O5  1  0.17083292  0.94320902  0.18963337  1
  O  O6  1  0.87564251  0.92603701  0.06521032  1
  O  O7  1  0.12435749  0.07396299  0.93478968  1
  O  O8  1  0.87564251  0.13917332  0.07396299  1
  O  O9  1  0.12435749  0.86082668  0.92603701  1
  O  O10  1  0.87564251  0.93478968  0.86082668  1
  O  O11  1  0.12435749  0.06521032  0.13917332  1
  O  O12  1  0.93205811  0.79951299  0.42614259  1
  O  O13  1  0.06794189  0.20048701  0.57385741  1
  O  O14  1  0.93205811  0.62662960  0.20048701  1
  O  O15  1  0.06794189  0.37337040  0.79951299  1
  O  O16  1  0.93205811  0.57385741  0.37337040  1
  O  O17  1  0.06794189  0.42614259  0.62662960  1
  O  O18  1  0.84835673  0.46956983  0.56618755  1
  O  O19  1  0.15164327  0.53043017  0.43381245  1
  O  O20  1  0.84835673  0.09661772  0.53043017  1
  O  O21  1  0.15164327  0.90338228  0.46956983  1
  O  O22  1  0.84835673  0.43381245  0.90338228  1
  O  O23  1  0.15164327  0.56618755  0.09661772  1
  O  O24  1  0.83311071  0.46508540  0.72034497  1
  O  O25  1  0.16688929  0.53491460  0.27965503  1
  O  O26  1  0.83311071  0.25525956  0.53491460  1
  O  O27  1  0.16688929  0.74474044  0.46508540  1
  O  O28  1  0.83311071  0.27965503  0.74474044  1
  O  O29  1  0.16688929  0.72034497  0.25525956  1
  O  O30  1  0.58811262  0.92690671  0.38272989  1
  O  O31  1  0.41188738  0.07309329  0.61727011  1
  O  O32  1  0.58811262  0.45582318  0.07309329  1
  O  O33  1  0.41188738  0.54417682  0.92690671  1
  O  O34  1  0.58811262  0.61727011  0.54417682  1
  O  O35  1  0.41188738  0.38272989  0.45582318  1
  O  O36  1  0.54526871  0.57208509  0.80593040  1
  O  O37  1  0.45473129  0.42791491  0.19406960  1
  O  O38  1  0.54526871  0.23384532  0.42791491  1
  O  O39  1  0.45473129  0.76615468  0.57208509  1
  O  O40  1  0.54526871  0.19406960  0.76615468  1
  O  O41  1  0.45473129  0.80593040  0.23384532  1
  O  O42  1  0.64420909  0.87478155  0.96542307  1
  O  O43  1  0.35579091  0.12521845  0.03457693  1
  O  O44  1  0.64420909  0.09064152  0.12521845  1
  O  O45  1  0.35579091  0.90935848  0.87478155  1
  O  O46  1  0.64420909  0.03457693  0.90935848  1
  O  O47  1  0.35579091  0.96542307  0.09064152  1
  O  O48  1  0.55548217  0.38599042  0.58762695  1
  O  O49  1  0.44451783  0.61400958  0.41237305  1
  O  O50  1  0.55548217  0.20163653  0.61400958  1
  O  O51  1  0.44451783  0.79836347  0.38599042  1
  O  O52  1  0.55548217  0.41237305  0.79836347  1
  O  O53  1  0.44451783  0.58762695  0.20163653  1
  O  O54  1  0.67488254  0.75540202  0.28773691  1
  O  O55  1  0.32511746  0.24459798  0.71226309  1
  O  O56  1  0.67488254  0.53233489  0.24459798  1
  O  O57  1  0.32511746  0.46766511  0.75540202  1
  O  O58  1  0.67488254  0.71226309  0.46766511  1
  O  O59  1  0.32511746  0.28773691  0.53233489  1
  O  O60  1  0.68648349  0.83666743  0.09945105  1
  O  O61  1  0.31351651  0.16333257  0.90054895  1
  O  O62  1  0.68648349  0.26278362  0.16333257  1
  O  O63  1  0.31351651  0.73721638  0.83666743  1
  O  O64  1  0.68648349  0.90054895  0.73721638  1
  O  O65  1  0.31351651  0.09945105  0.26278362  1
  O  O66  1  0.97145745  0.59538569  0.71747072  1
  O  O67  1  0.02854255  0.40461431  0.28252928  1
  O  O68  1  0.97145745  0.12208503  0.40461431  1
  O  O69  1  0.02854255  0.87791497  0.59538569  1
  O  O70  1  0.97145745  0.28252928  0.87791497  1
  O  O71  1  0.02854255  0.71747072  0.12208503  1
loop_
_geom_bond_atom_site_label_1
_geom_bond_atom_site_label_2
_geom_bond_distance
_geom_bond_site_symmetry_2
Na0 O66 2.258102 1_555
Na0 O10 2.432577 1_555
Na0 O0 2.439742 1_555
Na0 O9 2.599729 1_655
Na0 O3 2.614529 1_655
Na1 O67 2.258102 1_555
Na1 O11 2.432577 1_555
Na1 O1 2.439742 1_555
Na1 O8 2.599729 1_455
Na1 O2 2.614529 1_455
Na2 O68 2.258102 1_555
Na2 O6 2.432577 1_545
Na2 O2 2.439742 1_555
Na2 O11 2.599729 1_655
Na2 O5 2.614529 1_645
Na3 O69 2.258102 1_555
Na3 O7 2.432577 1_565
Na3 O3 2.439742 1_555
Na3 O10 2.599729 1_455
Na3 O4 2.614529 1_465
Na4 O70 2.258102 1_555
Na4 O8 2.432577 1_556
Na4 O4 2.439742 1_555
Na4 O7 2.599729 1_655
Na4 O1 2.614529 1_656
Na5 O71 2.258102 1_555
Na5 O9 2.432577 1_554
Na5 O5 2.439742 1_555
Na5 O6 2.599729 1_455
Na5 O0 2.614529 1_454
Na6 O34 2.260624 1_555
Na6 O48 2.312358 1_555
Na6 O36 2.390280 1_555
Na6 O18 2.635021 1_555
Na7 O35 2.260624 1_555
Na7 O49 2.312358 1_555
Na7 O37 2.390280 1_555
Na7 O19 2.635021 1_555
Na8 O30 2.260624 1_545
Na8 O50 2.312358 1_555
Na8 O38 2.390280 1_555
Na8 O20 2.635021 1_555
Na9 O31 2.260624 1_565
Na9 O51 2.312358 1_555
Na9 O39 2.390280 1_555
Na9 O21 2.635021 1_555
Na10 O32 2.260624 1_556
Na10 O52 2.312358 1_555
Na10 O40 2.390280 1_555
Na10 O22 2.635021 1_555
Na11 O33 2.260624 1_554
Na11 O53 2.312358 1_555
Na11 O41 2.390280 1_555
Na11 O23 2.635021 1_555
Na12 O24 2.355338 1_555
Na12 O0 2.426180 1_555
Na12 O22 2.444361 1_555
Na12 O36 2.534923 1_555
Na13 O25 2.355338 1_555
Na13 O1 2.426180 1_555
Na13 O23 2.444361 1_555
Na13 O37 2.534923 1_555
Na14 O26 2.355338 1_555
Na14 O2 2.426180 1_555
Na14 O18 2.444361 1_555
Na14 O38 2.534923 1_555
Na15 O27 2.355338 1_555
Na15 O3 2.426180 1_555
Na15 O19 2.444361 1_555
Na15 O39 2.534923 1_555
Na16 O28 2.355338 1_555
Na16 O4 2.426180 1_555
Na16 O20 2.444361 1_555
Na16 O40 2.534923 1_555
Na17 O29 2.355338 1_555
Na17 O5 2.426180 1_555
Na17 O21 2.444361 1_555
Na17 O41 2.534923 1_555
In0 O51 2.180390 1_555
In0 O53 2.180391 1_555
In0 O49 2.180402 1_555
In0 O29 2.181635 1_555
In0 O27 2.181646 1_555
In0 O25 2.181647 1_555
In1 O50 2.180390 1_555
In1 O52 2.180391 1_555
In1 O48 2.180402 1_555
In1 O28 2.181635 1_555
In1 O26 2.181646 1_555
In1 O24 2.181647 1_555
In2 O47 2.174414 1_545
In2 O46 2.174414 1_554
In2 O43 2.174414 1_555
In2 O42 2.174414 1_544
In2 O45 2.174414 1_544
In2 O44 2.174414 1_555
In3 O14 2.171979 1_555
In3 O12 2.171982 1_555
In3 O16 2.171992 1_555
In3 O54 2.176249 1_555
In3 O56 2.176260 1_555
In3 O58 2.176262 1_555
In4 O15 2.171979 1_555
In4 O13 2.171982 1_555
In4 O17 2.171992 1_555
In4 O55 2.176249 1_555
In4 O57 2.176260 1_555
In4 O59 2.176262 1_555
In5 O6 2.186492 1_445
In5 O7 2.186492 1_554
In5 O9 2.186492 1_544
In5 O8 2.186492 1_455
In5 O10 2.186492 1_444
In5 O11 2.186492 1_555
H0 Na6 2.606628 1_555
H0 Na0 2.746167 1_555
H1 Na7 2.606628 1_555
H1 Na1 2.746167 1_555
H2 Na8 2.606628 1_555
H2 Na2 2.746167 1_555
H3 Na9 2.606628 1_555
H3 Na3 2.746167 1_555
H4 Na10 2.606628 1_555
H4 Na4 2.746167 1_555
H5 Na11 2.606628 1_555
H5 Na5 2.746167 1_555
H6 Na12 2.606991 1_554
H7 Na13 2.606991 1_556
H8 Na14 2.606991 1_555
H9 Na15 2.606991 1_555
H10 Na16 2.606991 1_565
H11 Na17 2.606991 1_545
O0 S6 1.494110 1_556
O1 S7 1.494110 1_554
O2 S8 1.494110 1_555
O3 S9 1.494110 1_555
O4 S10 1.494110 1_545
O5 S11 1.494110 1_565
O6 S6 1.558275 1_555
O7 S7 1.558275 1_555
O8 S8 1.558275 1_555
O9 S9 1.558275 1_555
O10 S10 1.558275 1_555
O11 S11 1.558275 1_555
O12 S3 1.495513 1_655
O13 S2 1.495513 1_455
O14 S5 1.495513 1_655
O15 S4 1.495513 1_455
O16 S1 1.495513 1_655
O17 S0 1.495513 1_455
O18 S0 1.468522 1_555
O19 S1 1.468522 1_555
O20 S2 1.468522 1_555
O21 S3 1.468522 1_555
O22 S4 1.468522 1_555
O23 S5 1.468522 1_555
O24 S0 1.539883 1_555
O25 S1 1.539883 1_555
O26 S2 1.539882 1_555
O27 S3 1.539882 1_555
O28 S4 1.539883 1_555
O29 S5 1.539883 1_555
O30 S12 1.462020 1_555
O31 S13 1.462020 1_555
O32 S14 1.462020 1_555
O33 S15 1.462020 1_555
O34 S16 1.462020 1_555
O35 S17 1.462020 1_555
O36 S15 1.472618 1_555
O37 S14 1.472618 1_555
O38 S17 1.472618 1_555
O39 S16 1.472618 1_555
O40 S13 1.472618 1_555
O41 S12 1.472618 1_555
O42 S6 1.503488 1_556
O43 S7 1.503488 1_554
O44 S8 1.503488 1_555
O45 S9 1.503488 1_555
O46 S10 1.503488 1_545
O47 S11 1.503488 1_565
O48 S17 1.540822 1_555
O49 S16 1.540822 1_555
O50 S13 1.540822 1_555
O51 S12 1.540822 1_555
O52 S15 1.540822 1_555
O53 S14 1.540822 1_555
O54 S12 1.498626 1_555
O55 S13 1.498626 1_555
O56 S14 1.498626 1_555
O57 S15 1.498626 1_555
O58 S16 1.498626 1_555
O59 S17 1.498626 1_555
O60 S6 1.442079 1_555
O61 S7 1.442079 1_555
O62 S8 1.442079 1_555
O63 S9 1.442079 1_555
O64 S10 1.442079 1_555
O65 S11 1.442079 1_555
O66 S0 1.470162 1_555
O67 S1 1.470162 1_555
O68 S2 1.470162 1_555
O69 S3 1.470162 1_555
O70 S4 1.470162 1_555
O71 S5 1.470162 1_555
