# generated using pymatgen
data_Ti4Si7Ni4
_symmetry_space_group_name_H-M   'P 1'
_cell_length_a   9.17462209
_cell_length_b   9.17462310
_cell_length_c   9.17419049
_cell_angle_alpha   94.11396725
_cell_angle_beta   94.11396949
_cell_angle_gamma   148.92734332
_symmetry_Int_Tables_number   1
_chemical_formula_structural   Ti4Si7Ni4
_chemical_formula_sum   'Ti8 Si14 Ni8'
_cell_volume   384.00249844
_cell_formula_units_Z   2
loop_
 _symmetry_equiv_pos_site_id
 _symmetry_equiv_pos_as_xyz
  1  'x, y, z'
loop_
 _atom_site_type_symbol
 _atom_site_label
 _atom_site_symmetry_multiplicity
 _atom_site_fract_x
 _atom_site_fract_y
 _atom_site_fract_z
 _atom_site_occupancy
  Ti  Ti0  1  0.30981737  0.50004388  0.80976511  1
  Ti  Ti1  1  0.13470670  0.86529330  -0.00000038  1
  Ti  Ti2  1  0.50004333  0.30981803  0.80976494  1
  Ti  Ti3  1  0.69018222  0.49995703  0.19023491  1
  Ti  Ti4  1  0.86529279  0.13470685  -0.00000054  1
  Ti  Ti5  1  0.13468504  0.13468528  0.26941590  1
  Ti  Ti6  1  0.86531485  0.86531526  0.73058406  1
  Ti  Ti7  1  0.49995627  0.69018285  0.19023488  1
  Si  Si0  1  0.24889700  0.24889814  0.99997661  1
  Si  Si1  1  0.28988252  0.00001060  0.28988963  1
  Si  Si2  1  0.70527111  0.29472825  -0.00000102  1
  Si  Si3  1  0.29479940  0.29479860  0.58949350  1
  Si  Si4  1  0.70520113  0.70520066  0.41050564  1
  Si  Si5  1  0.29473085  0.70526848  -0.00000070  1
  Si  Si6  1  0.99999085  0.71011829  0.71011170  1
  Si  Si7  1  0.00000979  0.28988282  0.28988918  1
  Si  Si8  1  0.75110001  0.75110058  0.00002647  1
  Si  Si9  1  0.09343556  0.49999173  0.59341833  1
  Si  Si10  1  0.50000790  0.90656216  0.40657748  1
  Si  Si11  1  0.49999225  0.09343597  0.59341829  1
  Si  Si12  1  0.90656219  0.50000710  0.40657814  1
  Si  Si13  1  0.71011773  0.99999157  0.71011211  1
  Ni  Ni0  1  0.60142058  0.10140495  0.20284211  1
  Ni  Ni1  1  0.89859279  0.39857791  0.79715638  1
  Ni  Ni2  1  0.10141012  0.89859210  0.50000176  1
  Ni  Ni3  1  0.60141870  0.39858337  0.50000172  1
  Ni  Ni4  1  0.39858076  0.89859383  0.79715633  1
  Ni  Ni5  1  0.10140637  0.60141954  0.20284172  1
  Ni  Ni6  1  0.89859019  0.10140936  0.50000140  1
  Ni  Ni7  1  0.39858363  0.60142050  0.50000135  1
loop_
_geom_bond_atom_site_label_1
_geom_bond_atom_site_label_2
_geom_bond_distance
_geom_bond_site_symmetry_2
Si0 Si8 2.446713 1_446
Si0 Si8 2.468120 1_556
Si0 Ti6 2.677006 1_445
Si0 Ti4 2.677286 1_456
Si0 Ti1 2.677299 1_546
Si0 Ti5 2.677426 1_556
Si0 Ti0 2.679081 1_555
Si0 Ti2 2.679088 1_555
Si0 Ti7 2.679160 1_556
Si0 Ti3 2.679165 1_556
Si1 Ti5 2.568676 1_555
Si1 Ti1 2.568711 1_545
Si1 Ti3 2.754873 1_555
Si1 Ti3 2.755344 1_445
Si2 Ti2 2.572940 1_554
Si2 Ti3 2.572952 1_555
Si2 Ti1 2.755929 1_545
Si2 Ti1 2.755930 1_655
Si2 Ti4 2.828985 1_555
Si3 Ti2 2.572559 1_555
Si3 Ti0 2.572577 1_555
Si3 Ti6 2.755647 1_555
Si3 Ti6 2.755851 1_445
Si3 Ti5 2.829165 1_555
Si4 Ti3 2.572556 1_555
Si4 Ti7 2.572570 1_555
Si4 Ti5 2.755644 1_555
Si4 Ti5 2.755847 1_665
Si4 Ti6 2.829173 1_555
Si5 Ti0 2.572898 1_554
Si5 Ti7 2.572905 1_555
Si5 Ti4 2.755906 1_455
Si5 Ti4 2.755906 1_565
Si5 Ti1 2.829037 1_555
Si6 Ti6 2.568682 1_555
Si6 Ti1 2.568693 1_656
Si6 Ti2 2.754871 1_555
Si6 Ti2 2.755342 1_665
Si7 Ti5 2.568681 1_555
Si7 Ti4 2.568709 1_455
Si7 Ti7 2.754871 1_555
Si7 Ti7 2.755343 1_445
Si8 Ti5 2.676990 1_665
Si8 Ti4 2.677300 1_565
Si8 Ti1 2.677303 1_655
Si8 Ti6 2.677459 1_554
Si8 Ti3 2.679057 1_555
Si8 Ti7 2.679058 1_555
Si8 Ti0 2.679170 1_554
Si8 Ti2 2.679171 1_554
Si9 Ti0 2.704338 1_555
Si10 Si11 2.335909 1_565
Si10 Ti7 2.704299 1_555
Si11 Ti2 2.704345 1_555
Si12 Si9 2.335901 1_655
Si12 Ti3 2.704317 1_555
Si13 Ti6 2.568686 1_555
Si13 Ti4 2.568688 1_566
Si13 Ti0 2.754871 1_555
Si13 Ti0 2.755341 1_665
Ni0 Si5 2.312888 1_545
Ni0 Si2 2.312968 1_555
Ni0 Si10 2.331214 1_545
Ni0 Si12 2.331380 1_555
Ni0 Si7 2.356115 1_655
Ni0 Si1 2.356272 1_555
Ni0 Ni5 2.457414 1_545
Ni0 Ni5 2.457418 1_655
Ni0 Ti4 2.979624 1_555
Ni0 Ti1 2.979816 1_545
Ni0 Ti7 3.003274 1_545
Ni0 Ti3 3.003376 1_555
Ni1 Si5 2.312893 1_656
Ni1 Si2 2.312958 1_556
Ni1 Si9 2.331234 1_655
Ni1 Si11 2.331383 1_555
Ni1 Si13 2.356103 1_545
Ni1 Si6 2.356258 1_555
Ni1 Ni4 2.457407 1_545
Ni1 Ni4 2.457426 1_655
Ni1 Ti4 2.979628 1_556
Ni1 Ti1 2.979819 1_656
Ni1 Ti0 3.003283 1_655
Ni1 Ti2 3.003366 1_555
Ni2 Si3 2.313043 1_565
Ni2 Si4 2.313058 1_455
Ni2 Si11 2.331296 1_565
Ni2 Si12 2.331310 1_455
Ni2 Si6 2.356020 1_455
Ni2 Si1 2.356033 1_565
Ni2 Ni3 2.457416 1_565
Ni2 Ni3 2.457417 1_455
Ni2 Ti6 2.979488 1_455
Ni2 Ti5 2.979509 1_565
Ni2 Ti2 3.003244 1_565
Ni2 Ti3 3.003274 1_455
Ni3 Si3 2.312870 1_555
Ni3 Si4 2.312886 1_555
Ni3 Si11 2.331133 1_555
Ni3 Si12 2.331147 1_555
Ni3 Si6 2.356007 1_555
Ni3 Si1 2.356020 1_555
Ni3 Ti6 2.979713 1_555
Ni3 Ti5 2.979732 1_555
Ni3 Ti2 3.003005 1_555
Ni3 Ti3 3.003034 1_555
Ni4 Si2 2.312877 1_566
Ni4 Si5 2.312976 1_556
Ni4 Si11 2.331235 1_565
Ni4 Si9 2.331384 1_555
Ni4 Si6 2.356130 1_455
Ni4 Si13 2.356230 1_555
Ni4 Ti1 2.979648 1_556
Ni4 Ti4 2.979799 1_566
Ni4 Ti2 3.003304 1_565
Ni4 Ti0 3.003346 1_555
Ni5 Si2 2.312879 1_455
Ni5 Si5 2.312970 1_555
Ni5 Si12 2.331229 1_455
Ni5 Si10 2.331374 1_555
Ni5 Si1 2.356142 1_565
Ni5 Si7 2.356248 1_555
Ni5 Ti1 2.979640 1_555
Ni5 Ti4 2.979798 1_455
Ni5 Ti3 3.003305 1_455
Ni5 Ti7 3.003343 1_555
Ni6 Si3 2.313066 1_655
Ni6 Si4 2.313069 1_545
Ni6 Si9 2.331291 1_655
Ni6 Si10 2.331292 1_545
Ni6 Si13 2.356023 1_545
Ni6 Si7 2.356036 1_655
Ni6 Ni7 2.457405 1_545
Ni6 Ni7 2.457428 1_655
Ni6 Ti6 2.979490 1_545
Ni6 Ti5 2.979512 1_655
Ni6 Ti0 3.003250 1_655
Ni6 Ti7 3.003269 1_545
Ni7 Si3 2.312896 1_555
Ni7 Si4 2.312898 1_555
Ni7 Si9 2.331127 1_555
Ni7 Si10 2.331131 1_555
Ni7 Si13 2.356009 1_555
Ni7 Si7 2.356022 1_555
Ni7 Ti6 2.979716 1_555
Ni7 Ti5 2.979739 1_555
Ni7 Ti0 3.003012 1_555
Ni7 Ti7 3.003028 1_555
