# generated using pymatgen
data_Ba(LuSe2)2
_symmetry_space_group_name_H-M   'P 1'
_cell_length_a   4.11625146
_cell_length_b   12.69641603
_cell_length_c   14.91618115
_cell_angle_alpha   90.00000000
_cell_angle_beta   90.00000000
_cell_angle_gamma   90.00000000
_symmetry_Int_Tables_number   1
_chemical_formula_structural   Ba(LuSe2)2
_chemical_formula_sum   'Ba4 Lu8 Se16'
_cell_volume   779.54410465
_cell_formula_units_Z   4
loop_
 _symmetry_equiv_pos_site_id
 _symmetry_equiv_pos_as_xyz
  1  'x, y, z'
loop_
 _atom_site_type_symbol
 _atom_site_label
 _atom_site_symmetry_multiplicity
 _atom_site_fract_x
 _atom_site_fract_y
 _atom_site_fract_z
 _atom_site_occupancy
  Ba  Ba0  1  0.25000000  0.76034937  0.33423051  1
  Ba  Ba1  1  0.25000000  0.26034937  0.16576949  1
  Ba  Ba2  1  0.75000000  0.23965063  0.66576949  1
  Ba  Ba3  1  0.75000000  0.73965063  0.83423051  1
  Lu  Lu0  1  0.25000000  0.43882794  0.39092258  1
  Lu  Lu1  1  0.25000000  0.93882794  0.10907742  1
  Lu  Lu2  1  0.75000000  0.56117206  0.60907742  1
  Lu  Lu3  1  0.75000000  0.06117206  0.89092258  1
  Lu  Lu4  1  0.25000000  0.42013434  0.90084116  1
  Lu  Lu5  1  0.25000000  0.92013434  0.59915884  1
  Lu  Lu6  1  0.75000000  0.57986566  0.09915884  1
  Lu  Lu7  1  0.75000000  0.07986566  0.40084116  1
  Se  Se0  1  0.25000000  0.20504084  0.84380022  1
  Se  Se1  1  0.25000000  0.70504084  0.65619978  1
  Se  Se2  1  0.75000000  0.79495916  0.15619978  1
  Se  Se3  1  0.75000000  0.29495916  0.34380022  1
  Se  Se4  1  0.25000000  0.12230835  0.52475615  1
  Se  Se5  1  0.25000000  0.62230835  0.97524385  1
  Se  Se6  1  0.75000000  0.87769165  0.47524385  1
  Se  Se7  1  0.75000000  0.37769165  0.02475615  1
  Se  Se8  1  0.25000000  0.52607317  0.21640082  1
  Se  Se9  1  0.25000000  0.02607317  0.28359918  1
  Se  Se10  1  0.75000000  0.47392683  0.78359918  1
  Se  Se11  1  0.75000000  0.97392683  0.71640082  1
  Se  Se12  1  0.25000000  0.41547523  0.57502047  1
  Se  Se13  1  0.25000000  0.91547523  0.92497953  1
  Se  Se14  1  0.75000000  0.58452477  0.42497953  1
  Se  Se15  1  0.75000000  0.08452477  0.07502047  1
loop_
_geom_bond_atom_site_label_1
_geom_bond_atom_site_label_2
_geom_bond_distance
_geom_bond_site_symmetry_2
Ba0 Se6 3.298435 1_455
Ba0 Se6 3.298435 1_555
Ba0 Se14 3.324386 1_455
Ba0 Se14 3.324386 1_555
Ba0 Se2 3.388341 1_555
Ba0 Se2 3.388341 1_455
Ba0 Se8 3.454925 1_555
Ba0 Se9 3.457237 1_565
Ba1 Se7 3.298435 1_555
Ba1 Se7 3.298435 1_455
Ba1 Se15 3.324386 1_455
Ba1 Se15 3.324386 1_555
Ba1 Se3 3.388341 1_555
Ba1 Se3 3.388341 1_455
Ba1 Se9 3.454925 1_555
Ba1 Se8 3.457237 1_555
Ba2 Se4 3.298435 1_555
Ba2 Se4 3.298435 1_655
Ba2 Se12 3.324386 1_555
Ba2 Se12 3.324386 1_655
Ba2 Se0 3.388341 1_655
Ba2 Se0 3.388341 1_555
Ba2 Se10 3.454925 1_555
Ba2 Se11 3.457237 1_545
Ba3 Se5 3.298435 1_655
Ba3 Se5 3.298435 1_555
Ba3 Se13 3.324386 1_655
Ba3 Se13 3.324386 1_555
Ba3 Se1 3.388341 1_555
Ba3 Se1 3.388341 1_655
Ba3 Se11 3.454925 1_555
Ba3 Se10 3.457237 1_555
Lu0 Se12 2.761998 1_555
Lu0 Se14 2.813504 1_555
Lu0 Se14 2.813504 1_455
Lu0 Se8 2.829071 1_555
Lu0 Se3 2.840152 1_555
Lu0 Se3 2.840152 1_455
Lu1 Se13 2.761998 1_554
Lu1 Se15 2.813504 1_565
Lu1 Se15 2.813504 1_465
Lu1 Se9 2.829071 1_565
Lu1 Se2 2.840152 1_555
Lu1 Se2 2.840152 1_455
Lu2 Se14 2.761998 1_555
Lu2 Se12 2.813504 1_655
Lu2 Se12 2.813504 1_555
Lu2 Se10 2.829071 1_555
Lu2 Se1 2.840152 1_655
Lu2 Se1 2.840152 1_555
Lu3 Se15 2.761998 1_556
Lu3 Se13 2.813504 1_545
Lu3 Se13 2.813504 1_645
Lu3 Se11 2.829071 1_545
Lu3 Se0 2.840152 1_655
Lu3 Se0 2.840152 1_555
Lu4 Se10 2.785793 1_455
Lu4 Se10 2.785793 1_555
Lu4 Se5 2.796527 1_555
Lu4 Se7 2.818265 1_556
Lu4 Se7 2.818265 1_456
Lu4 Se0 2.860388 1_555
Lu5 Se11 2.785793 1_555
Lu5 Se11 2.785793 1_455
Lu5 Se4 2.796527 1_565
Lu5 Se6 2.818265 1_455
Lu5 Se6 2.818265 1_555
Lu5 Se1 2.860388 1_555
Lu6 Se8 2.785793 1_655
Lu6 Se8 2.785793 1_555
Lu6 Se7 2.796527 1_555
Lu6 Se5 2.818265 1_554
Lu6 Se5 2.818265 1_654
Lu6 Se2 2.860388 1_555
Lu7 Se9 2.785793 1_655
Lu7 Se9 2.785793 1_555
Lu7 Se6 2.796527 1_545
Lu7 Se4 2.818265 1_555
Lu7 Se4 2.818265 1_655
Lu7 Se3 2.860388 1_555
