# generated using pymatgen
data_TiCoP
_symmetry_space_group_name_H-M   'P 1'
_cell_length_a   3.53326731
_cell_length_b   6.00600492
_cell_length_c   6.79058023
_cell_angle_alpha   90.00000000
_cell_angle_beta   90.00000000
_cell_angle_gamma   90.00000000
_symmetry_Int_Tables_number   1
_chemical_formula_structural   TiCoP
_chemical_formula_sum   'Ti4 Co4 P4'
_cell_volume   144.10168651
_cell_formula_units_Z   4
loop_
 _symmetry_equiv_pos_site_id
 _symmetry_equiv_pos_as_xyz
  1  'x, y, z'
loop_
 _atom_site_type_symbol
 _atom_site_label
 _atom_site_symmetry_multiplicity
 _atom_site_fract_x
 _atom_site_fract_y
 _atom_site_fract_z
 _atom_site_occupancy
  Ti  Ti0  1  0.25000000  0.97667266  0.32119626  1
  Ti  Ti1  1  0.25000000  0.47667266  0.17880374  1
  Ti  Ti2  1  0.75000000  0.02332734  0.67880374  1
  Ti  Ti3  1  0.75000000  0.52332734  0.82119626  1
  Co  Co0  1  0.25000000  0.86118561  0.93725929  1
  Co  Co1  1  0.25000000  0.36118561  0.56274071  1
  Co  Co2  1  0.75000000  0.13881439  0.06274071  1
  Co  Co3  1  0.75000000  0.63881439  0.43725929  1
  P  P0  1  0.25000000  0.23197284  0.87936860  1
  P  P1  1  0.25000000  0.73197284  0.62063140  1
  P  P2  1  0.75000000  0.76802716  0.12063140  1
  P  P3  1  0.75000000  0.26802716  0.37936860  1
loop_
_geom_bond_atom_site_label_1
_geom_bond_atom_site_label_2
_geom_bond_distance
_geom_bond_site_symmetry_2
Co0 P2 2.232617 1_556
Co0 P2 2.232617 1_456
Co0 P0 2.261381 1_565
Co0 P1 2.285855 1_555
Co0 Ti2 2.673869 1_465
Co0 Ti2 2.673869 1_565
Co0 Ti0 2.697843 1_556
Co0 Ti3 2.803519 1_455
Co0 Ti3 2.803519 1_555
Co0 Ti1 2.832598 1_556
Co1 P3 2.232617 1_455
Co1 P3 2.232617 1_555
Co1 P1 2.261381 1_555
Co1 P0 2.285855 1_555
Co1 Ti3 2.673869 1_455
Co1 Ti3 2.673869 1_555
Co1 Ti1 2.697843 1_555
Co1 Ti2 2.803519 1_455
Co1 Ti2 2.803519 1_555
Co1 Ti0 2.832598 1_545
Co2 P0 2.232617 1_554
Co2 P0 2.232617 1_654
Co2 P2 2.261381 1_545
Co2 P3 2.285855 1_555
Co2 Ti0 2.673869 1_645
Co2 Ti0 2.673869 1_545
Co2 Ti2 2.697843 1_554
Co2 Ti1 2.803519 1_555
Co2 Ti1 2.803519 1_655
Co2 Ti3 2.832598 1_554
Co3 P1 2.232617 1_555
Co3 P1 2.232617 1_655
Co3 P3 2.261381 1_555
Co3 P2 2.285855 1_555
Co3 Ti1 2.673869 1_555
Co3 Ti1 2.673869 1_655
Co3 Ti3 2.697843 1_555
Co3 Ti0 2.803519 1_555
Co3 Ti0 2.803519 1_655
Co3 Ti2 2.832598 1_565
P0 Ti1 2.508862 1_556
P0 Ti3 2.517758 1_455
P0 Ti3 2.517758 1_555
P0 Ti2 2.558560 1_455
P0 Ti2 2.558560 1_555
P1 Ti0 2.508862 1_555
P1 Ti2 2.517758 1_565
P1 Ti2 2.517758 1_465
P1 Ti3 2.558560 1_455
P1 Ti3 2.558560 1_555
P2 Ti3 2.508862 1_554
P2 Ti1 2.517758 1_555
P2 Ti1 2.517758 1_655
P2 Ti0 2.558560 1_555
P2 Ti0 2.558560 1_655
P3 Ti2 2.508862 1_555
P3 Ti0 2.517758 1_645
P3 Ti0 2.517758 1_545
P3 Ti1 2.558560 1_655
P3 Ti1 2.558560 1_555
