# generated using pymatgen
data_Na4Mn2C4SO16
_symmetry_space_group_name_H-M   'P 1'
_cell_length_a   10.04964083
_cell_length_b   10.01691892
_cell_length_c   9.80488183
_cell_angle_alpha   60.91718434
_cell_angle_beta   60.58351647
_cell_angle_gamma   58.49929919
_symmetry_Int_Tables_number   1
_chemical_formula_structural   Na4Mn2C4SO16
_chemical_formula_sum   'Na8 Mn4 C8 S2 O32'
_cell_volume   697.21036015
_cell_formula_units_Z   2
loop_
 _symmetry_equiv_pos_site_id
 _symmetry_equiv_pos_as_xyz
  1  'x, y, z'
loop_
 _atom_site_type_symbol
 _atom_site_label
 _atom_site_symmetry_multiplicity
 _atom_site_fract_x
 _atom_site_fract_y
 _atom_site_fract_z
 _atom_site_occupancy
  Na  Na0  1  0.78701900  0.21298100  0.21298100  1
  Na  Na1  1  0.54084000  0.95916000  0.95916000  1
  Na  Na2  1  0.21442700  0.78557300  0.21442700  1
  Na  Na3  1  0.78557300  0.21442700  0.78557300  1
  Na  Na4  1  0.78900700  0.78900700  0.21099300  1
  Na  Na5  1  0.21298100  0.78701900  0.78701900  1
  Na  Na6  1  0.21099300  0.21099300  0.78900700  1
  Na  Na7  1  0.95916000  0.54084000  0.54084000  1
  Mn  Mn0  1  0.37208200  0.37856700  0.87579600  1
  Mn  Mn1  1  0.37856700  0.37208200  0.37355500  1
  Mn  Mn2  1  0.37355500  0.87579600  0.37856700  1
  Mn  Mn3  1  0.87579600  0.37355500  0.37208200  1
  C  C0  1  0.58871800  0.23014300  0.58848300  1
  C  C1  1  0.59265600  0.58848300  0.23014300  1
  C  C2  1  0.23014300  0.58871800  0.59265600  1
  C  C3  1  0.58848300  0.59265600  0.58871800  1
  C  C4  1  0.52424300  0.15810000  0.15400200  1
  C  C5  1  0.16365400  0.15400200  0.15810000  1
  C  C6  1  0.15810000  0.52424300  0.16365400  1
  C  C7  1  0.15400200  0.16365400  0.52424300  1
  S  S0  1  0.00000000  0.00000000  0.00000000  1
  S  S1  1  0.75000000  0.75000000  0.75000000  1
  O  O0  1  0.51877900  0.27496100  0.01379400  1
  O  O1  1  0.72293600  0.23301100  0.47322700  1
  O  O2  1  0.57082500  0.47322700  0.23301100  1
  O  O3  1  0.27496100  0.51877900  0.19246600  1
  O  O4  1  0.72937300  0.56670300  0.23737700  1
  O  O5  1  0.18424500  0.93559400  0.94037700  1
  O  O6  1  0.93978500  0.94037700  0.93559400  1
  O  O7  1  0.47725400  0.73691600  0.21771000  1
  O  O8  1  0.56812000  0.21771000  0.73691600  1
  O  O9  1  0.21771000  0.56812000  0.47725400  1
  O  O10  1  0.73691600  0.47725400  0.56812000  1
  O  O11  1  0.93559400  0.18424500  0.93978500  1
  O  O12  1  0.94037700  0.93978500  0.18424500  1
  O  O13  1  0.53229600  0.01625700  0.17582500  1
  O  O14  1  0.27562200  0.17582500  0.01625700  1
  O  O15  1  0.56670300  0.72937300  0.46654700  1
  O  O16  1  0.19246600  0.01379400  0.27496100  1
  O  O17  1  0.23301100  0.72293600  0.57082500  1
  O  O18  1  0.47322700  0.57082500  0.72293600  1
  O  O19  1  0.81003900  0.80828200  0.56612200  1
  O  O20  1  0.81555700  0.56612200  0.80828200  1
  O  O21  1  0.01873100  0.26853800  0.18337000  1
  O  O22  1  0.52936100  0.18337000  0.26853800  1
  O  O23  1  0.18337000  0.52936100  0.01873100  1
  O  O24  1  0.26853800  0.01873100  0.52936100  1
  O  O25  1  0.80828200  0.81003900  0.81555700  1
  O  O26  1  0.56612200  0.81555700  0.81003900  1
  O  O27  1  0.01379400  0.19246600  0.51877900  1
  O  O28  1  0.46654700  0.23737700  0.56670300  1
  O  O29  1  0.17582500  0.27562200  0.53229600  1
  O  O30  1  0.01625700  0.53229600  0.27562200  1
  O  O31  1  0.23737700  0.46654700  0.72937300  1
loop_
_geom_bond_atom_site_label_1
_geom_bond_atom_site_label_2
_geom_bond_distance
_geom_bond_site_symmetry_2
Na0 O1 2.390506 1_555
Na0 O2 2.390509 1_555
Na0 O12 2.420555 1_545
Na0 O11 2.420555 1_554
Na0 O22 2.519828 1_555
Na0 O21 2.519828 1_655
Na1 O25 2.359929 1_555
Na1 O26 2.359929 1_555
Na1 O13 2.407928 1_566
Na1 O14 2.407928 1_566
Na1 O8 2.489939 1_565
Na1 O7 2.489939 1_556
Na2 O9 2.436821 1_555
Na2 O7 2.436821 1_555
Na2 O12 2.443193 1_455
Na2 O5 2.443193 1_554
Na2 O3 2.508035 1_555
Na2 O16 2.508035 1_565
Na3 O8 2.436821 1_555
Na3 O10 2.436821 1_555
Na3 O6 2.443196 1_545
Na3 O11 2.443201 1_555
Na3 O27 2.508035 1_655
Na3 O0 2.508035 1_556
Na4 O13 2.435171 1_565
Na4 O30 2.435171 1_655
Na4 O15 2.463133 1_555
Na4 O4 2.463133 1_555
Na4 O6 2.507579 1_554
Na4 O12 2.507584 1_555
Na5 O18 2.390511 1_555
Na5 O17 2.390516 1_555
Na5 O6 2.420558 1_455
Na5 O5 2.420563 1_555
Na5 O23 2.519828 1_556
Na5 O24 2.519828 1_565
Na6 O29 2.435171 1_555
Na6 O14 2.435171 1_556
Na6 O28 2.463133 1_555
Na6 O31 2.463133 1_555
Na6 O11 2.507575 1_455
Na6 O5 2.507575 1_545
Na7 O19 2.359929 1_555
Na7 O20 2.359929 1_555
Na7 O29 2.407928 1_655
Na7 O30 2.407928 1_655
Na7 O9 2.489939 1_655
Na7 O10 2.489939 1_555
Mn0 O0 2.019085 1_556
Mn0 O31 2.025533 1_555
Mn0 O23 2.072644 1_556
Mn0 O8 2.124204 1_555
Mn0 O18 2.175212 1_555
Mn0 O14 2.233304 1_556
Mn1 O3 2.019085 1_555
Mn1 O28 2.025533 1_555
Mn1 O22 2.072644 1_555
Mn1 O9 2.124204 1_555
Mn1 O2 2.175211 1_555
Mn1 O29 2.233304 1_555
Mn2 O16 2.019085 1_565
Mn2 O15 2.025533 1_555
Mn2 O24 2.072644 1_565
Mn2 O7 2.124204 1_555
Mn2 O17 2.175218 1_555
Mn2 O13 2.233304 1_565
Mn3 O27 2.019085 1_655
Mn3 O4 2.025533 1_555
Mn3 O21 2.072644 1_655
Mn3 O10 2.124204 1_555
Mn3 O1 2.175220 1_555
Mn3 O30 2.233304 1_655
C0 O1 1.268414 1_555
C0 O28 1.306837 1_555
C0 O8 1.315773 1_555
C1 O2 1.268421 1_555
C1 O4 1.306837 1_555
C1 O7 1.315773 1_555
C2 O17 1.268411 1_555
C2 O31 1.306837 1_555
C2 O9 1.315773 1_555
C3 O18 1.268416 1_555
C3 O15 1.306837 1_555
C3 O10 1.315773 1_555
C4 O13 1.293208 1_555
C4 O22 1.294051 1_555
C4 O0 1.306033 1_555
C5 O14 1.293213 1_555
C5 O21 1.294045 1_555
C5 O16 1.306034 1_555
C6 O30 1.293212 1_555
C6 O23 1.294041 1_555
C6 O3 1.306039 1_555
C7 O29 1.293218 1_555
C7 O24 1.294044 1_555
C7 O27 1.306029 1_555
O5 S0 1.497133 1_566
O6 S0 1.497124 1_666
O11 S0 1.497133 1_656
O12 S0 1.497132 1_665
O19 S1 1.493871 1_555
O20 S1 1.493871 1_555
O25 S1 1.493871 1_555
O26 S1 1.493871 1_555
