# generated using pymatgen
data_Th2(SiIr)3
_symmetry_space_group_name_H-M   'P 1'
_cell_length_a   5.80979400
_cell_length_b   5.80979400
_cell_length_c   40.79278400
_cell_angle_alpha   90.00000000
_cell_angle_beta   90.00000000
_cell_angle_gamma   90.00000000
_symmetry_Int_Tables_number   1
_chemical_formula_structural   Th2(SiIr)3
_chemical_formula_sum   'Th16 Si24 Ir24'
_cell_volume   1376.90765121
_cell_formula_units_Z   8
loop_
 _symmetry_equiv_pos_site_id
 _symmetry_equiv_pos_as_xyz
  1  'x, y, z'
loop_
 _atom_site_type_symbol
 _atom_site_label
 _atom_site_symmetry_multiplicity
 _atom_site_fract_x
 _atom_site_fract_y
 _atom_site_fract_z
 _atom_site_occupancy
  Th  Th0_0  1  0.25000000  0.25000000  0.37960950  1
  Th  Th0_1  1  0.25000000  0.25000000  0.87960950  1
  Th  Th0_2  1  0.25000000  0.75000000  0.37960950  1
  Th  Th0_3  1  0.25000000  0.75000000  0.87960950  1
  Th  Th0_4  1  0.75000000  0.25000000  0.37960950  1
  Th  Th0_5  1  0.75000000  0.25000000  0.87960950  1
  Th  Th0_6  1  0.75000000  0.75000000  0.37960950  1
  Th  Th0_7  1  0.75000000  0.75000000  0.87960950  1
  Th  Th1_0  1  0.25000000  0.25000000  0.12039050  1
  Th  Th1_1  1  0.25000000  0.25000000  0.62039050  1
  Th  Th1_2  1  0.25000000  0.75000000  0.12039050  1
  Th  Th1_3  1  0.25000000  0.75000000  0.62039050  1
  Th  Th1_4  1  0.75000000  0.25000000  0.12039050  1
  Th  Th1_5  1  0.75000000  0.25000000  0.62039050  1
  Th  Th1_6  1  0.75000000  0.75000000  0.12039050  1
  Th  Th1_7  1  0.75000000  0.75000000  0.62039050  1
  Si  Si0_0  1  0.25000000  0.25000000  0.19421150  1
  Si  Si0_1  1  0.25000000  0.25000000  0.69421150  1
  Si  Si0_2  1  0.25000000  0.75000000  0.19421150  1
  Si  Si0_3  1  0.25000000  0.75000000  0.69421150  1
  Si  Si0_4  1  0.75000000  0.25000000  0.19421150  1
  Si  Si0_5  1  0.75000000  0.25000000  0.69421150  1
  Si  Si0_6  1  0.75000000  0.75000000  0.19421150  1
  Si  Si0_7  1  0.75000000  0.75000000  0.69421150  1
  Si  Si1_0  1  0.25000000  0.25000000  0.30578850  1
  Si  Si1_1  1  0.25000000  0.25000000  0.80578850  1
  Si  Si1_2  1  0.25000000  0.75000000  0.30578850  1
  Si  Si1_3  1  0.25000000  0.75000000  0.80578850  1
  Si  Si1_4  1  0.75000000  0.25000000  0.30578850  1
  Si  Si1_5  1  0.75000000  0.25000000  0.80578850  1
  Si  Si1_6  1  0.75000000  0.75000000  0.30578850  1
  Si  Si1_7  1  0.75000000  0.75000000  0.80578850  1
  Si  Si2_0  1  0.25000000  0.25000000  0.00000000  1
  Si  Si2_1  1  0.25000000  0.25000000  0.50000000  1
  Si  Si2_2  1  0.25000000  0.75000000  0.00000000  1
  Si  Si2_3  1  0.25000000  0.75000000  0.50000000  1
  Si  Si2_4  1  0.75000000  0.25000000  0.00000000  1
  Si  Si2_5  1  0.75000000  0.25000000  0.50000000  1
  Si  Si2_6  1  0.75000000  0.75000000  0.00000000  1
  Si  Si2_7  1  0.75000000  0.75000000  0.50000000  1
  Ir  Ir0_0  1  0.25000000  0.25000000  0.05681700  1
  Ir  Ir0_1  1  0.25000000  0.25000000  0.55681700  1
  Ir  Ir0_2  1  0.25000000  0.75000000  0.05681700  1
  Ir  Ir0_3  1  0.25000000  0.75000000  0.55681700  1
  Ir  Ir0_4  1  0.75000000  0.25000000  0.05681700  1
  Ir  Ir0_5  1  0.75000000  0.25000000  0.55681700  1
  Ir  Ir0_6  1  0.75000000  0.75000000  0.05681700  1
  Ir  Ir0_7  1  0.75000000  0.75000000  0.55681700  1
  Ir  Ir1_0  1  0.25000000  0.25000000  0.44318300  1
  Ir  Ir1_1  1  0.25000000  0.25000000  0.94318300  1
  Ir  Ir1_2  1  0.25000000  0.75000000  0.44318300  1
  Ir  Ir1_3  1  0.25000000  0.75000000  0.94318300  1
  Ir  Ir1_4  1  0.75000000  0.25000000  0.44318300  1
  Ir  Ir1_5  1  0.75000000  0.25000000  0.94318300  1
  Ir  Ir1_6  1  0.75000000  0.75000000  0.44318300  1
  Ir  Ir1_7  1  0.75000000  0.75000000  0.94318300  1
  Ir  Ir2_0  1  0.25000000  0.25000000  0.25000000  1
  Ir  Ir2_1  1  0.25000000  0.25000000  0.75000000  1
  Ir  Ir2_2  1  0.25000000  0.75000000  0.25000000  1
  Ir  Ir2_3  1  0.25000000  0.75000000  0.75000000  1
  Ir  Ir2_4  1  0.75000000  0.25000000  0.25000000  1
  Ir  Ir2_5  1  0.75000000  0.25000000  0.75000000  1
  Ir  Ir2_6  1  0.75000000  0.75000000  0.25000000  1
  Ir  Ir2_7  1  0.75000000  0.75000000  0.75000000  1
loop_
_geom_bond_atom_site_label_1
_geom_bond_atom_site_label_2
_geom_bond_distance
_geom_bond_site_symmetry_2
Th0_0 Th0_2 2.904897 1_555
Th0_0 Th0_2 2.904897 1_545
Th0_0 Th0_4 2.904897 1_455
Th0_0 Th0_4 2.904897 1_555
Th0_1 Th0_3 2.904897 1_545
Th0_1 Th0_5 2.904897 1_455
Th0_1 Th0_3 2.904897 1_555
Th0_1 Th0_5 2.904897 1_555
Th0_2 Th0_6 2.904897 1_555
Th0_2 Th0_6 2.904897 1_455
Th0_3 Th0_7 2.904897 1_455
Th0_3 Th0_7 2.904897 1_555
Th0_4 Th0_6 2.904897 1_545
Th0_4 Th0_6 2.904897 1_555
Th0_5 Th0_7 2.904897 1_545
Th0_5 Th0_7 2.904897 1_555
Th1_0 Th1_4 2.904897 1_555
Th1_0 Th1_2 2.904897 1_555
Th1_0 Th1_4 2.904897 1_455
Th1_0 Th1_2 2.904897 1_545
Th1_1 Th1_5 2.904897 1_455
Th1_1 Th1_5 2.904897 1_555
Th1_1 Th1_3 2.904897 1_545
Th1_1 Th1_3 2.904897 1_555
Th1_2 Th1_6 2.904897 1_555
Th1_2 Th1_6 2.904897 1_455
Th1_3 Th1_7 2.904897 1_455
Th1_3 Th1_7 2.904897 1_555
Th1_4 Th1_6 2.904897 1_555
Th1_4 Th1_6 2.904897 1_545
Th1_5 Th1_7 2.904897 1_545
Th1_5 Th1_7 2.904897 1_555
Si0_0 Th1_0 3.011364 1_555
Si0_1 Th1_1 3.011364 1_555
Si0_2 Th1_2 3.011364 1_555
Si0_3 Th1_3 3.011364 1_555
Si0_4 Th1_4 3.011364 1_555
Si0_5 Th1_5 3.011364 1_555
Si0_6 Th1_6 3.011364 1_555
Si0_7 Th1_7 3.011364 1_555
Si1_0 Th0_0 3.011364 1_555
Si1_1 Th0_1 3.011364 1_555
Si1_2 Th0_2 3.011364 1_555
Si1_3 Th0_3 3.011364 1_555
Si1_4 Th0_4 3.011364 1_555
Si1_5 Th0_5 3.011364 1_555
Si1_6 Th0_6 3.011364 1_555
Si1_7 Th0_7 3.011364 1_555
Ir0_0 Si2_0 2.317724 1_555
Ir0_0 Th1_0 2.593340 1_555
Ir0_1 Si2_1 2.317724 1_555
Ir0_1 Th1_1 2.593340 1_555
Ir0_2 Si2_2 2.317724 1_555
Ir0_2 Th1_2 2.593340 1_555
Ir0_3 Si2_3 2.317724 1_555
Ir0_3 Th1_3 2.593340 1_555
Ir0_4 Si2_4 2.317724 1_555
Ir0_4 Th1_4 2.593340 1_555
Ir0_5 Si2_5 2.317724 1_555
Ir0_5 Th1_5 2.593340 1_555
Ir0_6 Si2_6 2.317724 1_555
Ir0_6 Th1_6 2.593340 1_555
Ir0_7 Si2_7 2.317724 1_555
Ir0_7 Th1_7 2.593340 1_555
Ir1_0 Si2_1 2.317724 1_555
Ir1_0 Th0_0 2.593340 1_555
Ir1_1 Si2_0 2.317724 1_556
Ir1_1 Th0_1 2.593340 1_555
Ir1_2 Si2_3 2.317724 1_555
Ir1_2 Th0_2 2.593340 1_555
Ir1_3 Si2_2 2.317724 1_556
Ir1_3 Th0_3 2.593340 1_555
Ir1_4 Si2_5 2.317724 1_555
Ir1_4 Th0_4 2.593340 1_555
Ir1_5 Si2_4 2.317724 1_556
Ir1_5 Th0_5 2.593340 1_555
Ir1_6 Si2_7 2.317724 1_555
Ir1_6 Th0_6 2.593340 1_555
Ir1_7 Si2_6 2.317724 1_556
Ir1_7 Th0_7 2.593340 1_555
Ir2_0 Si0_0 2.275768 1_555
Ir2_0 Si1_0 2.275768 1_555
Ir2_1 Si0_1 2.275768 1_555
Ir2_1 Si1_1 2.275768 1_555
Ir2_2 Si0_2 2.275768 1_555
Ir2_2 Si1_2 2.275768 1_555
Ir2_3 Si0_3 2.275768 1_555
Ir2_3 Si1_3 2.275768 1_555
Ir2_4 Si0_4 2.275768 1_555
Ir2_4 Si1_4 2.275768 1_555
Ir2_5 Si0_5 2.275768 1_555
Ir2_5 Si1_5 2.275768 1_555
Ir2_6 Si0_6 2.275768 1_555
Ir2_6 Si1_6 2.275768 1_555
Ir2_7 Si0_7 2.275768 1_555
Ir2_7 Si1_7 2.275768 1_555
