# generated using pymatgen
data_Mo15Pb2Se19
_symmetry_space_group_name_H-M   'P 1'
_cell_length_a   20.03204285
_cell_length_b   20.03204285
_cell_length_c   20.03204233
_cell_angle_alpha   28.44463998
_cell_angle_beta   28.44463998
_cell_angle_gamma   28.44464066
_symmetry_Int_Tables_number   1
_chemical_formula_structural   Mo15Pb2Se19
_chemical_formula_sum   'Mo30 Pb4 Se38'
_cell_volume   1611.77321751
_cell_formula_units_Z   2
loop_
 _symmetry_equiv_pos_site_id
 _symmetry_equiv_pos_as_xyz
  1  'x, y, z'
loop_
 _atom_site_type_symbol
 _atom_site_label
 _atom_site_symmetry_multiplicity
 _atom_site_fract_x
 _atom_site_fract_y
 _atom_site_fract_z
 _atom_site_occupancy
  Mo  Mo0  1  0.81385000  0.00015900  0.12665700  1
  Mo  Mo1  1  0.12665700  0.81385000  0.00015900  1
  Mo  Mo2  1  0.00015900  0.12665700  0.81385000  1
  Mo  Mo3  1  0.62665700  0.50015900  0.31385000  1
  Mo  Mo4  1  0.31385000  0.62665700  0.50015900  1
  Mo  Mo5  1  0.50015900  0.31385000  0.62665700  1
  Mo  Mo6  1  0.18615000  0.99984100  0.87334300  1
  Mo  Mo7  1  0.87334300  0.18615000  0.99984100  1
  Mo  Mo8  1  0.99984100  0.87334300  0.18615000  1
  Mo  Mo9  1  0.37334300  0.49984100  0.68615000  1
  Mo  Mo10  1  0.68615000  0.37334300  0.49984100  1
  Mo  Mo11  1  0.49984100  0.68615000  0.37334300  1
  Mo  Mo12  1  0.64044800  0.77726300  0.95035700  1
  Mo  Mo13  1  0.95035700  0.64044800  0.77726300  1
  Mo  Mo14  1  0.77726300  0.95035700  0.64044800  1
  Mo  Mo15  1  0.45035700  0.27726300  0.14044800  1
  Mo  Mo16  1  0.14044800  0.45035700  0.27726300  1
  Mo  Mo17  1  0.27726300  0.14044800  0.45035700  1
  Mo  Mo18  1  0.35955200  0.22273700  0.04964300  1
  Mo  Mo19  1  0.04964300  0.35955200  0.22273700  1
  Mo  Mo20  1  0.22273700  0.04964300  0.35955200  1
  Mo  Mo21  1  0.54964300  0.72273700  0.85955200  1
  Mo  Mo22  1  0.85955200  0.54964300  0.72273700  1
  Mo  Mo23  1  0.72273700  0.85955200  0.54964300  1
  Mo  Mo24  1  0.59116900  0.90883100  0.75000000  1
  Mo  Mo25  1  0.75000000  0.59116900  0.90883100  1
  Mo  Mo26  1  0.90883100  0.75000000  0.59116900  1
  Mo  Mo27  1  0.25000000  0.40883100  0.09116900  1
  Mo  Mo28  1  0.09116900  0.25000000  0.40883100  1
  Mo  Mo29  1  0.40883100  0.09116900  0.25000000  1
  Pb  Pb0  1  0.88370500  0.88370500  0.88370500  1
  Pb  Pb1  1  0.38370500  0.38370500  0.38370500  1
  Pb  Pb2  1  0.11629500  0.11629500  0.11629500  1
  Pb  Pb3  1  0.61629500  0.61629500  0.61629500  1
  Se  Se0  1  0.94247100  0.69915900  0.30768500  1
  Se  Se1  1  0.30768500  0.94247100  0.69915900  1
  Se  Se2  1  0.69915900  0.30768500  0.94247100  1
  Se  Se3  1  0.80768500  0.19915900  0.44247100  1
  Se  Se4  1  0.44247100  0.80768500  0.19915900  1
  Se  Se5  1  0.19915900  0.44247100  0.80768500  1
  Se  Se6  1  0.05752900  0.30084100  0.69231500  1
  Se  Se7  1  0.69231500  0.05752900  0.30084100  1
  Se  Se8  1  0.30084100  0.69231500  0.05752900  1
  Se  Se9  1  0.19231500  0.80084100  0.55752900  1
  Se  Se10  1  0.55752900  0.19231500  0.80084100  1
  Se  Se11  1  0.80084100  0.55752900  0.19231500  1
  Se  Se12  1  0.45640000  0.07834700  0.82294700  1
  Se  Se13  1  0.82294700  0.45640000  0.07834700  1
  Se  Se14  1  0.07834700  0.82294700  0.45640000  1
  Se  Se15  1  0.32294700  0.57834700  0.95640000  1
  Se  Se16  1  0.95640000  0.32294700  0.57834700  1
  Se  Se17  1  0.57834700  0.95640000  0.32294700  1
  Se  Se18  1  0.54360000  0.92165300  0.17705300  1
  Se  Se19  1  0.17705300  0.54360000  0.92165300  1
  Se  Se20  1  0.92165300  0.17705300  0.54360000  1
  Se  Se21  1  0.67705300  0.42165300  0.04360000  1
  Se  Se22  1  0.04360000  0.67705300  0.42165300  1
  Se  Se23  1  0.42165300  0.04360000  0.67705300  1
  Se  Se24  1  0.05688500  0.44311500  0.75000000  1
  Se  Se25  1  0.75000000  0.05688500  0.44311500  1
  Se  Se26  1  0.44311500  0.75000000  0.05688500  1
  Se  Se27  1  0.25000000  0.94311500  0.55688500  1
  Se  Se28  1  0.55688500  0.25000000  0.94311500  1
  Se  Se29  1  0.94311500  0.55688500  0.25000000  1
  Se  Se30  1  0.94458000  0.94458000  0.94458000  1
  Se  Se31  1  0.44458000  0.44458000  0.44458000  1
  Se  Se32  1  0.05542000  0.05542000  0.05542000  1
  Se  Se33  1  0.55542000  0.55542000  0.55542000  1
  Se  Se34  1  0.82496200  0.82496200  0.82496200  1
  Se  Se35  1  0.32496200  0.32496200  0.32496200  1
  Se  Se36  1  0.17503800  0.17503800  0.17503800  1
  Se  Se37  1  0.67503800  0.67503800  0.67503800  1
loop_
_geom_bond_atom_site_label_1
_geom_bond_atom_site_label_2
_geom_bond_distance
_geom_bond_site_symmetry_2
Mo0 Se7 2.572082 1_555
Mo0 Se30 2.572478 1_544
Mo0 Se0 2.608530 1_545
Mo0 Se2 2.624593 1_554
Mo0 Se17 2.659911 1_545
Mo1 Se8 2.572082 1_555
Mo1 Se30 2.572478 1_454
Mo1 Se1 2.608530 1_554
Mo1 Se0 2.624593 1_455
Mo1 Se15 2.659911 1_554
Mo2 Se6 2.572083 1_555
Mo2 Se30 2.572478 1_445
Mo2 Se2 2.608530 1_455
Mo2 Se1 2.624593 1_545
Mo2 Se16 2.659911 1_455
Mo3 Se11 2.572083 1_555
Mo3 Se31 2.572478 1_555
Mo3 Se3 2.608530 1_555
Mo3 Se4 2.624593 1_555
Mo3 Se13 2.659911 1_555
Mo4 Se9 2.572082 1_555
Mo4 Se31 2.572478 1_555
Mo4 Se4 2.608530 1_555
Mo4 Se5 2.624593 1_555
Mo4 Se14 2.659911 1_555
Mo5 Se10 2.572082 1_555
Mo5 Se31 2.572478 1_555
Mo5 Se5 2.608530 1_555
Mo5 Se3 2.624593 1_555
Mo5 Se12 2.659911 1_555
Mo6 Se1 2.572082 1_555
Mo6 Se32 2.572478 1_566
Mo6 Se6 2.608530 1_565
Mo6 Se8 2.624593 1_556
Mo6 Se23 2.659911 1_565
Mo7 Se2 2.572082 1_555
Mo7 Se32 2.572478 1_656
Mo7 Se7 2.608530 1_556
Mo7 Se6 2.624593 1_655
Mo7 Se21 2.659911 1_556
Mo8 Se0 2.572083 1_555
Mo8 Se32 2.572478 1_665
Mo8 Se8 2.608530 1_655
Mo8 Se7 2.624593 1_565
Mo8 Se22 2.659911 1_655
Mo9 Se5 2.572083 1_555
Mo9 Se33 2.572478 1_555
Mo9 Se9 2.608530 1_555
Mo9 Se10 2.624593 1_555
Mo9 Se19 2.659911 1_555
Mo10 Se3 2.572082 1_555
Mo10 Se33 2.572478 1_555
Mo10 Se10 2.608530 1_555
Mo10 Se11 2.624593 1_555
Mo10 Se20 2.659911 1_555
Mo11 Se4 2.572082 1_555
Mo11 Se33 2.572478 1_555
Mo11 Se11 2.608530 1_555
Mo11 Se9 2.624593 1_555
Mo11 Se18 2.659911 1_555
Mo12 Se34 2.558741 1_555
Mo12 Se12 2.618558 1_565
Mo12 Se4 2.696569 1_556
Mo12 Se26 2.718596 1_556
Mo12 Se13 2.726251 1_556
Mo13 Se34 2.558741 1_555
Mo13 Se13 2.618558 1_556
Mo13 Se5 2.696569 1_655
Mo13 Se24 2.718596 1_655
Mo13 Se14 2.726251 1_655
Mo14 Se34 2.558741 1_555
Mo14 Se14 2.618558 1_655
Mo14 Se3 2.696569 1_565
Mo14 Se25 2.718596 1_565
Mo14 Se12 2.726251 1_565
Mo15 Se35 2.558741 1_555
Mo15 Se15 2.618558 1_554
Mo15 Se2 2.696569 1_554
Mo15 Se28 2.718596 1_554
Mo15 Se17 2.726251 1_545
Mo16 Se35 2.558741 1_555
Mo16 Se16 2.618558 1_455
Mo16 Se0 2.696569 1_455
Mo16 Se29 2.718596 1_455
Mo16 Se15 2.726251 1_554
Mo17 Se35 2.558741 1_555
Mo17 Se17 2.618558 1_545
Mo17 Se1 2.696569 1_545
Mo17 Se27 2.718596 1_545
Mo17 Se16 2.726251 1_455
Mo18 Se36 2.558741 1_555
Mo18 Se18 2.618558 1_545
Mo18 Se10 2.696569 1_554
Mo18 Se28 2.718596 1_554
Mo18 Se19 2.726251 1_554
Mo19 Se36 2.558741 1_555
Mo19 Se19 2.618558 1_554
Mo19 Se11 2.696569 1_455
Mo19 Se29 2.718596 1_455
Mo19 Se20 2.726251 1_455
Mo20 Se36 2.558741 1_555
Mo20 Se20 2.618558 1_455
Mo20 Se9 2.696569 1_545
Mo20 Se27 2.718596 1_545
Mo20 Se18 2.726251 1_545
Mo21 Se37 2.558741 1_555
Mo21 Se21 2.618558 1_556
Mo21 Se8 2.696569 1_556
Mo21 Se26 2.718596 1_556
Mo21 Se23 2.726251 1_565
Mo22 Se37 2.558741 1_555
Mo22 Se22 2.618558 1_655
Mo22 Se6 2.696569 1_655
Mo22 Se24 2.718596 1_655
Mo22 Se21 2.726251 1_556
Mo23 Se37 2.558741 1_555
Mo23 Se23 2.618558 1_565
Mo23 Se7 2.696569 1_565
Mo23 Se25 2.718596 1_565
Mo23 Se22 2.726251 1_655
Mo24 Se12 2.573313 1_565
Mo24 Se23 2.573313 1_565
Mo24 Se25 2.616552 1_565
Mo24 Se26 2.616552 1_556
Mo25 Se13 2.573313 1_556
Mo25 Se21 2.573313 1_556
Mo25 Se24 2.616553 1_655
Mo25 Se26 2.616553 1_556
Mo26 Se22 2.573313 1_655
Mo26 Se14 2.573313 1_655
Mo26 Se24 2.616553 1_655
Mo26 Se25 2.616553 1_565
Mo27 Se19 2.573313 1_554
Mo27 Se15 2.573313 1_554
Mo27 Se29 2.616553 1_455
Mo27 Se28 2.616553 1_554
Mo28 Se16 2.573313 1_455
Mo28 Se20 2.573313 1_455
Mo28 Se29 2.616553 1_455
Mo28 Se27 2.616553 1_545
Mo29 Se17 2.573313 1_545
Mo29 Se18 2.573313 1_545
Mo29 Se27 2.616552 1_545
Mo29 Se28 2.616552 1_554
Pb0 Se20 3.141565 1_565
Pb0 Se18 3.141565 1_556
Pb0 Se19 3.141565 1_655
Pb1 Se21 3.141565 1_555
Pb1 Se23 3.141565 1_555
Pb1 Se22 3.141565 1_555
Pb2 Se14 3.141565 1_545
Pb2 Se12 3.141565 1_554
Pb2 Se13 3.141565 1_455
Pb3 Se15 3.141565 1_555
Pb3 Se17 3.141565 1_555
Pb3 Se16 3.141565 1_555
