# generated using pymatgen
data_Zr2Sb2Pb4O13
_symmetry_space_group_name_H-M   'P 1'
_cell_length_a   7.66199056
_cell_length_b   7.66199056
_cell_length_c   7.66199056
_cell_angle_alpha   120.35743905
_cell_angle_beta   119.86142031
_cell_angle_gamma   89.81110505
_symmetry_Int_Tables_number   1
_chemical_formula_structural   Zr2Sb2Pb4O13
_chemical_formula_sum   'Zr2 Sb2 Pb4 O13'
_cell_volume   317.52515686
_cell_formula_units_Z   1
loop_
 _symmetry_equiv_pos_site_id
 _symmetry_equiv_pos_as_xyz
  1  'x, y, z'
loop_
 _atom_site_type_symbol
 _atom_site_label
 _atom_site_symmetry_multiplicity
 _atom_site_fract_x
 _atom_site_fract_y
 _atom_site_fract_z
 _atom_site_occupancy
  Zr  Zr0  1  0.25127600  0.50035700  0.75091900  1
  Zr  Zr1  1  0.74943800  0.50035700  0.24908100  1
  Sb  Sb0  1  0.74980800  0.99929800  0.24948900  1
  Sb  Sb1  1  0.74980800  0.50031900  0.75051100  1
  Pb  Pb0  1  0.74990800  0.99965800  0.75025000  1
  Pb  Pb1  1  0.24940800  0.99965800  0.24975000  1
  Pb  Pb2  1  0.24966800  0.50156400  0.25189500  1
  Pb  Pb3  1  0.24966800  0.99777300  0.74810500  1
  O  O0  1  0.08138100  0.58138100  0.50000000  1
  O  O1  1  0.68113500  0.18113500  0.50000000  1
  O  O2  1  0.06279100  0.16727200  0.48500200  1
  O  O3  1  0.68227000  0.57778900  0.51499800  1
  O  O4  1  0.68227000  0.16727200  0.10448100  1
  O  O5  1  0.06279100  0.57778900  0.89551900  1
  O  O6  1  0.42194300  0.42194300  0.00000000  1
  O  O7  1  0.81692900  0.81692900  0.00000000  1
  O  O8  1  0.43890800  0.82945100  0.01482700  1
  O  O9  1  0.81462400  0.42408100  0.98517300  1
  O  O10  1  0.81462400  0.82945100  0.39054300  1
  O  O11  1  0.43890800  0.42408100  0.60945700  1
  O  O12  1  0.37744100  0.87744100  0.50000000  1
loop_
_geom_bond_atom_site_label_1
_geom_bond_atom_site_label_2
_geom_bond_distance
_geom_bond_site_symmetry_2
O0 Zr0 2.117780 1_555
O0 Zr1 2.117780 1_455
O0 Pb3 2.628855 1_555
O0 Pb2 2.628856 1_555
O1 Sb0 2.049376 1_545
O1 Sb1 2.049378 1_555
O1 Pb1 2.751631 1_545
O1 Pb0 2.751631 1_545
O2 Sb0 2.006759 1_445
O2 Zr0 2.142050 1_555
O2 Pb1 2.675327 1_545
O2 Pb3 2.749600 1_545
O3 Sb1 2.006761 1_555
O3 Zr1 2.142050 1_555
O3 Pb0 2.675327 1_555
O3 Pb2 2.749601 1_555
O4 Sb0 2.006754 1_545
O4 Zr1 2.142050 1_555
O4 Pb0 2.675327 1_544
O4 Pb3 2.749600 1_544
O5 Sb1 2.006761 1_455
O5 Zr0 2.142050 1_555
O5 Pb1 2.675327 1_556
O5 Pb2 2.749594 1_556
O6 Zr0 2.093273 1_554
O6 Zr1 2.093273 1_555
O6 Pb2 2.679722 1_555
O6 Pb3 2.679723 1_544
O7 Sb1 2.036037 1_554
O7 Sb0 2.036039 1_555
O7 Pb0 2.758705 1_554
O7 Pb1 2.758705 1_655
O8 Sb0 1.997770 1_555
O8 Zr0 2.118730 1_554
O8 Pb1 2.695576 1_555
O8 Pb3 2.764601 1_554
O9 Sb1 1.997768 1_555
O9 Zr1 2.118730 1_556
O9 Pb0 2.695576 1_545
O9 Pb2 2.764600 1_656
O10 Sb0 1.997775 1_555
O10 Zr1 2.118730 1_555
O10 Pb0 2.695576 1_555
O10 Pb3 2.764601 1_655
O11 Sb1 1.997768 1_555
O11 Zr0 2.118730 1_555
O11 Pb1 2.695576 1_545
O11 Pb2 2.764606 1_555
O12 Pb1 2.334835 1_555
O12 Pb0 2.334835 1_555
O12 Pb2 2.344759 1_555
O12 Pb3 2.344765 1_555
