# generated using pymatgen
data_RbSO4
_symmetry_space_group_name_H-M   'P 1'
_cell_length_a   7.93662900
_cell_length_b   7.61036500
_cell_length_c   7.67173619
_cell_angle_alpha   67.86393440
_cell_angle_beta   90.00000000
_cell_angle_gamma   90.00000000
_symmetry_Int_Tables_number   1
_chemical_formula_structural   RbSO4
_chemical_formula_sum   'Rb4 S4 O16'
_cell_volume   429.22297930
_cell_formula_units_Z   4
loop_
 _symmetry_equiv_pos_site_id
 _symmetry_equiv_pos_as_xyz
  1  'x, y, z'
loop_
 _atom_site_type_symbol
 _atom_site_label
 _atom_site_symmetry_multiplicity
 _atom_site_fract_x
 _atom_site_fract_y
 _atom_site_fract_z
 _atom_site_occupancy
  Rb  Rb0  1  0.49035900  0.21554800  0.04134100  1
  Rb  Rb1  1  0.99035900  0.78445200  0.95865900  1
  Rb  Rb2  1  0.74734800  0.21837700  0.53628100  1
  Rb  Rb3  1  0.24734800  0.78162300  0.46371900  1
  S  S0  1  0.99385100  0.26116200  0.02381300  1
  S  S1  1  0.49385100  0.73883800  0.97618700  1
  S  S2  1  0.24314600  0.25975600  0.52667600  1
  S  S3  1  0.74314600  0.74024400  0.47332400  1
  O  O0  1  0.91771800  0.31962400  0.17306400  1
  O  O1  1  0.41771800  0.68037600  0.82693600  1
  O  O2  1  0.08452800  0.42993200  0.89121400  1
  O  O3  1  0.58452800  0.57006800  0.10878600  1
  O  O4  1  0.85237600  0.20438300  0.92951500  1
  O  O5  1  0.35237600  0.79561700  0.07048500  1
  O  O6  1  0.11232500  0.10186800  0.10775700  1
  O  O7  1  0.61232500  0.89813200  0.89224300  1
  O  O8  1  0.37691700  0.18518200  0.43757200  1
  O  O9  1  0.87691700  0.81481800  0.56242800  1
  O  O10  1  0.32632700  0.33163200  0.66233600  1
  O  O11  1  0.82632700  0.66836800  0.33766400  1
  O  O12  1  0.11935900  0.11031500  0.62407100  1
  O  O13  1  0.61935900  0.88968500  0.37592900  1
  O  O14  1  0.15484500  0.42509000  0.38458700  1
  O  O15  1  0.65484500  0.57491000  0.61541300  1
loop_
_geom_bond_atom_site_label_1
_geom_bond_atom_site_label_2
_geom_bond_distance
_geom_bond_site_symmetry_2
O0 S0 1.502675 1_555
O0 Rb2 2.927217 1_555
O0 Rb1 3.341685 1_554
O1 S1 1.502675 1_555
O1 Rb3 2.927217 1_555
O1 Rb0 3.341685 1_556
O2 S0 1.489222 1_456
O2 Rb1 3.026171 1_455
O3 S1 1.489222 1_554
O3 Rb0 3.026171 1_555
O4 S0 1.485398 1_556
O4 Rb0 3.008886 1_556
O4 Rb2 3.092743 1_555
O4 Rb1 3.305164 1_545
O5 S1 1.485398 1_554
O5 Rb1 3.008886 1_454
O5 Rb3 3.092743 1_555
O5 Rb0 3.305164 1_565
O6 S0 1.476533 1_455
O6 Rb3 3.087074 1_545
O6 Rb0 3.110914 1_555
O6 Rb1 3.187961 1_444
O7 S1 1.476533 1_555
O7 Rb2 3.087074 1_565
O7 Rb1 3.110914 1_555
O7 Rb0 3.187961 1_566
O8 S2 1.486250 1_555
O8 Rb2 3.069999 1_555
O8 Rb0 3.094332 1_555
O8 Rb3 3.172681 1_545
O9 S3 1.486250 1_555
O9 Rb3 3.069999 1_655
O9 Rb1 3.094332 1_555
O9 Rb2 3.172681 1_565
O10 S2 1.499076 1_555
O10 Rb0 2.998963 1_556
O10 Rb3 3.241920 1_555
O11 S3 1.499076 1_555
O11 Rb1 2.998963 1_554
O11 Rb2 3.241920 1_555
O12 S2 1.475313 1_555
O12 Rb1 2.998310 1_445
O12 Rb2 3.070807 1_455
O12 Rb3 3.334904 1_545
O13 S3 1.475313 1_555
O13 Rb0 2.998310 1_565
O13 Rb3 3.070807 1_555
O13 Rb2 3.334904 1_565
O14 S2 1.492964 1_555
O14 Rb3 3.084016 1_555
O15 S3 1.492964 1_555
O15 Rb2 3.084016 1_555
