# generated using pymatgen
data_Ho4Mo4O11
_symmetry_space_group_name_H-M   'P 1'
_cell_length_a   5.71657300
_cell_length_b   10.77527900
_cell_length_c   15.98776000
_cell_angle_alpha   90.00000000
_cell_angle_beta   90.00000000
_cell_angle_gamma   90.00000000
_symmetry_Int_Tables_number   1
_chemical_formula_structural   Ho4Mo4O11
_chemical_formula_sum   'Ho16 Mo16 O44'
_cell_volume   984.80874851
_cell_formula_units_Z   4
loop_
 _symmetry_equiv_pos_site_id
 _symmetry_equiv_pos_as_xyz
  1  'x, y, z'
loop_
 _atom_site_type_symbol
 _atom_site_label
 _atom_site_symmetry_multiplicity
 _atom_site_fract_x
 _atom_site_fract_y
 _atom_site_fract_z
 _atom_site_occupancy
  Ho  Ho0  1  0.00000000  0.61551300  0.57708500  1
  Ho  Ho1  1  0.00000000  0.38448700  0.42291500  1
  Ho  Ho2  1  0.00000000  0.11551300  0.92291500  1
  Ho  Ho3  1  0.00000000  0.88448700  0.07708500  1
  Ho  Ho4  1  0.00000000  0.40325100  0.73651900  1
  Ho  Ho5  1  0.00000000  0.59674900  0.26348100  1
  Ho  Ho6  1  0.00000000  0.90325100  0.76348100  1
  Ho  Ho7  1  0.00000000  0.09674900  0.23651900  1
  Ho  Ho8  1  0.50000000  0.42344200  0.59881200  1
  Ho  Ho9  1  0.50000000  0.57655800  0.40118800  1
  Ho  Ho10  1  0.50000000  0.92344200  0.90118800  1
  Ho  Ho11  1  0.50000000  0.07655800  0.09881200  1
  Ho  Ho12  1  0.50000000  0.18448600  0.77707400  1
  Ho  Ho13  1  0.50000000  0.81551400  0.22292600  1
  Ho  Ho14  1  0.50000000  0.68448600  0.72292600  1
  Ho  Ho15  1  0.50000000  0.31551400  0.27707400  1
  Mo  Mo0  1  0.00000000  0.91656900  0.56042900  1
  Mo  Mo1  1  0.00000000  0.08343100  0.43957100  1
  Mo  Mo2  1  0.00000000  0.41656900  0.93957100  1
  Mo  Mo3  1  0.00000000  0.58343100  0.06042900  1
  Mo  Mo4  1  0.50000000  0.90393200  0.57110300  1
  Mo  Mo5  1  0.50000000  0.09606800  0.42889700  1
  Mo  Mo6  1  0.50000000  0.40393200  0.92889700  1
  Mo  Mo7  1  0.50000000  0.59606800  0.07110300  1
  Mo  Mo8  1  0.27523300  0.86417000  0.41404100  1
  Mo  Mo9  1  0.27523300  0.13583000  0.58595900  1
  Mo  Mo10  1  0.72476700  0.36417000  0.08595900  1
  Mo  Mo11  1  0.72476700  0.63583000  0.91404100  1
  Mo  Mo12  1  0.72476700  0.13583000  0.58595900  1
  Mo  Mo13  1  0.72476700  0.86417000  0.41404100  1
  Mo  Mo14  1  0.27523300  0.63583000  0.91404100  1
  Mo  Mo15  1  0.27523300  0.36417000  0.08595900  1
  O  O0  1  0.24559800  0.00000000  0.00000000  1
  O  O1  1  0.75440200  0.50000000  0.50000000  1
  O  O2  1  0.75440200  0.00000000  0.00000000  1
  O  O3  1  0.24559800  0.50000000  0.50000000  1
  O  O4  1  0.00000000  0.23179000  0.52302400  1
  O  O5  1  0.00000000  0.76821000  0.47697600  1
  O  O6  1  0.00000000  0.73179000  0.97697600  1
  O  O7  1  0.00000000  0.26821000  0.02302400  1
  O  O8  1  0.00000000  0.04777300  0.65441200  1
  O  O9  1  0.00000000  0.95222700  0.34558800  1
  O  O10  1  0.00000000  0.54777300  0.84558800  1
  O  O11  1  0.00000000  0.45222700  0.15441200  1
  O  O12  1  0.50000000  0.24770500  0.51363200  1
  O  O13  1  0.50000000  0.75229500  0.48636800  1
  O  O14  1  0.50000000  0.74770500  0.98636800  1
  O  O15  1  0.50000000  0.25229500  0.01363200  1
  O  O16  1  0.50000000  0.04084100  0.66706400  1
  O  O17  1  0.50000000  0.95915900  0.33293600  1
  O  O18  1  0.76264400  0.31030500  0.86043600  1
  O  O19  1  0.50000000  0.54084100  0.83293600  1
  O  O20  1  0.24731800  0.96007900  0.17233100  1
  O  O21  1  0.24731800  0.03992100  0.82766900  1
  O  O22  1  0.75268200  0.46007900  0.32766900  1
  O  O23  1  0.75268200  0.53992100  0.67233100  1
  O  O24  1  0.75268200  0.03992100  0.82766900  1
  O  O25  1  0.75268200  0.96007900  0.17233100  1
  O  O26  1  0.24731800  0.53992100  0.67233100  1
  O  O27  1  0.24731800  0.46007900  0.32766900  1
  O  O28  1  0.23735600  0.68969500  0.13956400  1
  O  O29  1  0.23735600  0.31030500  0.86043600  1
  O  O30  1  0.76264400  0.18969500  0.36043600  1
  O  O31  1  0.76264400  0.81030500  0.63956400  1
  O  O32  1  0.26394600  0.22385800  0.17490700  1
  O  O33  1  0.26394600  0.77614200  0.82509300  1
  O  O34  1  0.73605400  0.72385800  0.32509300  1
  O  O35  1  0.73605400  0.27614200  0.67490700  1
  O  O36  1  0.73605400  0.77614200  0.82509300  1
  O  O37  1  0.73605400  0.22385800  0.17490700  1
  O  O38  1  0.26394600  0.27614200  0.67490700  1
  O  O39  1  0.26394600  0.72385800  0.32509300  1
  O  O40  1  0.23735600  0.18969500  0.36043600  1
  O  O41  1  0.23735600  0.81030500  0.63956400  1
  O  O42  1  0.76264400  0.68969500  0.13956400  1
  O  O43  1  0.50000000  0.45915900  0.16706400  1
loop_
_geom_bond_atom_site_label_1
_geom_bond_atom_site_label_2
_geom_bond_distance
_geom_bond_site_symmetry_2
Ho0 O26 2.231847 1_555
Ho0 O23 2.231847 1_455
Ho0 O3 2.244827 1_555
Ho0 O1 2.244827 1_455
Ho0 O5 2.295397 1_555
Ho0 O41 2.691546 1_555
Ho0 O31 2.691546 1_455
Ho1 O27 2.231847 1_555
Ho1 O22 2.231847 1_455
Ho1 O3 2.244827 1_555
Ho1 O1 2.244827 1_455
Ho1 O4 2.295397 1_555
Ho1 O40 2.691546 1_555
Ho1 O30 2.691546 1_455
Ho2 O21 2.231847 1_555
Ho2 O24 2.231847 1_455
Ho2 O0 2.244827 1_556
Ho2 O2 2.244827 1_456
Ho2 O7 2.295397 1_556
Ho2 O29 2.691546 1_555
Ho2 O18 2.691546 1_455
Ho3 O20 2.231847 1_555
Ho3 O25 2.231847 1_455
Ho3 O0 2.244827 1_565
Ho3 O2 2.244827 1_465
Ho3 O6 2.295397 1_554
Ho3 O28 2.691546 1_555
Ho3 O42 2.691546 1_455
Ho4 O38 2.263378 1_555
Ho4 O35 2.263378 1_455
Ho4 O26 2.284888 1_555
Ho4 O23 2.284888 1_455
Ho4 O10 2.337906 1_555
Ho4 O29 2.601748 1_555
Ho4 O18 2.601748 1_455
Ho5 O34 2.263378 1_455
Ho5 O39 2.263378 1_555
Ho5 O27 2.284888 1_555
Ho5 O22 2.284888 1_455
Ho5 O11 2.337906 1_555
Ho5 O28 2.601748 1_555
Ho5 O42 2.601748 1_455
Ho6 O36 2.263378 1_455
Ho6 O33 2.263378 1_555
Ho6 O21 2.284888 1_565
Ho6 O24 2.284888 1_465
Ho6 O8 2.337906 1_565
Ho6 O41 2.601748 1_555
Ho6 O31 2.601748 1_455
Ho7 O32 2.263378 1_555
Ho7 O37 2.263378 1_455
Ho7 O20 2.284888 1_545
Ho7 O25 2.284888 1_445
Ho7 O9 2.337906 1_545
Ho7 O40 2.601748 1_555
Ho7 O30 2.601748 1_455
Ho8 O23 2.245739 1_555
Ho8 O26 2.245739 1_555
Ho8 O1 2.300269 1_555
Ho8 O3 2.300269 1_555
Ho8 O12 2.332462 1_555
Ho8 O38 2.412513 1_555
Ho8 O35 2.412513 1_555
Ho9 O22 2.245739 1_555
Ho9 O27 2.245739 1_555
Ho9 O1 2.300269 1_555
Ho9 O3 2.300269 1_555
Ho9 O13 2.332462 1_555
Ho9 O34 2.412513 1_555
Ho9 O39 2.412513 1_555
Ho10 O24 2.245739 1_565
Ho10 O21 2.245739 1_565
Ho10 O2 2.300269 1_566
Ho10 O0 2.300269 1_566
Ho10 O14 2.332462 1_555
Ho10 O33 2.412513 1_555
Ho10 O36 2.412513 1_555
Ho11 O25 2.245739 1_545
Ho11 O20 2.245739 1_545
Ho11 O2 2.300269 1_555
Ho11 O0 2.300269 1_555
Ho11 O15 2.332462 1_555
Ho11 O32 2.412513 1_555
Ho11 O37 2.412513 1_555
Ho12 O24 2.273180 1_555
Ho12 O21 2.273180 1_555
Ho12 O35 2.337604 1_555
Ho12 O38 2.337604 1_555
Ho12 O16 2.342895 1_555
Ho12 O18 2.422513 1_555
Ho12 O29 2.422513 1_555
Ho13 O25 2.273180 1_555
Ho13 O20 2.273180 1_555
Ho13 O34 2.337604 1_555
Ho13 O39 2.337604 1_555
Ho13 O17 2.342895 1_555
Ho13 O42 2.422513 1_555
Ho13 O28 2.422513 1_555
Ho14 O23 2.273180 1_555
Ho14 O26 2.273180 1_555
Ho14 O36 2.337604 1_555
Ho14 O33 2.337604 1_555
Ho14 O19 2.342895 1_555
Ho14 O31 2.422513 1_555
Ho14 O41 2.422513 1_555
Ho15 O22 2.273180 1_555
Ho15 O27 2.273180 1_555
Ho15 O37 2.337604 1_555
Ho15 O32 2.337604 1_555
Ho15 O43 2.342895 1_555
Ho15 O30 2.422513 1_555
Ho15 O40 2.422513 1_555
Mo0 O8 2.063118 1_565
Mo0 O5 2.082238 1_555
Mo0 O41 2.180107 1_555
Mo0 O31 2.180107 1_455
Mo1 O9 2.063118 1_545
Mo1 O4 2.082238 1_555
Mo1 O40 2.180107 1_555
Mo1 O30 2.180107 1_455
Mo2 O10 2.063118 1_555
Mo2 O7 2.082238 1_556
Mo2 O29 2.180107 1_555
Mo2 O18 2.180107 1_455
Mo3 O11 2.063118 1_555
Mo3 O6 2.082238 1_554
Mo3 O28 2.180107 1_555
Mo3 O42 2.180107 1_455
Mo4 O31 2.114256 1_555
Mo4 O41 2.114256 1_555
Mo4 O13 2.122500 1_555
Mo4 O16 2.128400 1_565
Mo5 O30 2.114256 1_555
Mo5 O40 2.114256 1_555
Mo5 O12 2.122500 1_555
Mo5 O17 2.128400 1_545
Mo6 O18 2.114256 1_555
Mo6 O29 2.114256 1_555
Mo6 O15 2.122500 1_556
Mo6 O19 2.128400 1_555
Mo7 O42 2.114256 1_555
Mo7 O28 2.114256 1_555
Mo7 O14 2.122500 1_554
Mo7 O43 2.128400 1_555
Mo8 O39 2.076612 1_555
Mo8 O17 2.092840 1_555
Mo8 O13 2.107437 1_555
Mo8 O5 2.134741 1_555
Mo8 O9 2.138594 1_555
Mo9 O38 2.076612 1_555
Mo9 O16 2.092840 1_555
Mo9 O12 2.107437 1_555
Mo9 O4 2.134741 1_555
Mo9 O8 2.138594 1_555
Mo10 O37 2.076612 1_555
Mo10 O43 2.092840 1_555
Mo10 O15 2.107437 1_555
Mo10 O7 2.134741 1_655
Mo10 O11 2.138594 1_655
Mo11 O36 2.076612 1_555
Mo11 O19 2.092840 1_555
Mo11 O14 2.107437 1_555
Mo11 O6 2.134741 1_655
Mo11 O10 2.138594 1_655
Mo12 O35 2.076612 1_555
Mo12 O16 2.092840 1_555
Mo12 O12 2.107437 1_555
Mo12 O4 2.134741 1_655
Mo12 O8 2.138594 1_655
Mo13 O34 2.076612 1_555
Mo13 O17 2.092840 1_555
Mo13 O13 2.107437 1_555
Mo13 O5 2.134741 1_655
Mo13 O9 2.138594 1_655
Mo14 O33 2.076612 1_555
Mo14 O19 2.092840 1_555
Mo14 O14 2.107437 1_555
Mo14 O6 2.134741 1_555
Mo14 O10 2.138594 1_555
Mo15 O32 2.076612 1_555
Mo15 O43 2.092840 1_555
Mo15 O15 2.107437 1_555
Mo15 O7 2.134741 1_555
Mo15 O11 2.138594 1_555
