# generated using pymatgen
data_UTaN2
_symmetry_space_group_name_H-M   'P 1'
_cell_length_a   3.24929872
_cell_length_b   5.71926305
_cell_length_c   10.90680398
_cell_angle_alpha   89.99915378
_cell_angle_beta   89.99999958
_cell_angle_gamma   89.99999970
_symmetry_Int_Tables_number   1
_chemical_formula_structural   UTaN2
_chemical_formula_sum   'U4 Ta4 N8'
_cell_volume   202.68761817
_cell_formula_units_Z   4
loop_
 _symmetry_equiv_pos_site_id
 _symmetry_equiv_pos_as_xyz
  1  'x, y, z'
loop_
 _atom_site_type_symbol
 _atom_site_label
 _atom_site_symmetry_multiplicity
 _atom_site_fract_x
 _atom_site_fract_y
 _atom_site_fract_z
 _atom_site_occupancy
  U  U0  1  0.24999998  0.57672858  0.85695085  1
  U  U1  1  0.75000004  0.42327605  0.14310944  1
  U  U2  1  0.75000003  0.92325317  0.35690363  1
  U  U3  1  0.24999995  0.07672417  0.64303088  1
  Ta  Ta0  1  0.25000007  0.92937272  0.10173819  1
  Ta  Ta1  1  0.74999996  0.07063385  0.89833499  1
  Ta  Ta2  1  0.74999998  0.57063739  0.60165437  1
  Ta  Ta3  1  0.25000000  0.42938351  0.39827621  1
  N  N0  1  0.25000005  0.66569277  0.24463039  1
  N  N1  1  0.75000000  0.33431845  0.75538293  1
  N  N2  1  0.75000000  0.83434424  0.74461626  1
  N  N3  1  0.25000005  0.16563182  0.25538754  1
  N  N4  1  0.24999996  0.76024857  0.50631195  1
  N  N5  1  0.74999997  0.23975196  0.49364922  1
  N  N6  1  0.75000000  0.73980444  0.00634854  1
  N  N7  1  0.24999997  0.26019731  0.99367460  1
loop_
_geom_bond_atom_site_label_1
_geom_bond_atom_site_label_2
_geom_bond_distance
_geom_bond_site_symmetry_2
N0 Ta3 2.152854 1_555
N0 Ta0 2.168657 1_555
N0 U1 2.405786 1_555
N0 U1 2.405786 1_455
N0 U2 2.511759 1_555
N0 U2 2.511759 1_455
N1 Ta2 2.153591 1_555
N1 Ta1 2.169145 1_555
N1 U0 2.406000 1_655
N1 U0 2.406000 1_555
N1 U3 2.512292 1_655
N1 U3 2.512292 1_555
N2 Ta1 2.153434 1_565
N2 Ta2 2.169342 1_555
N2 U3 2.405969 1_665
N2 U3 2.405969 1_565
N2 U0 2.512250 1_655
N2 U0 2.512250 1_555
N3 Ta0 2.152735 1_545
N3 Ta3 2.168947 1_555
N3 U2 2.405617 1_545
N3 U2 2.405617 1_445
N3 U1 2.512045 1_555
N3 U1 2.512045 1_455
N4 Ta2 2.212873 1_455
N4 Ta2 2.212873 1_555
N4 Ta3 2.229200 1_555
N4 U3 2.345162 1_565
N4 U2 2.482750 1_455
N4 U2 2.482751 1_555
N5 Ta3 2.213087 1_555
N5 Ta3 2.213087 1_655
N5 Ta2 2.229122 1_555
N5 U2 2.345449 1_545
N5 U3 2.482609 1_655
N5 U3 2.482610 1_555
N6 Ta0 2.213010 1_555
N6 Ta0 2.213010 1_655
N6 Ta1 2.228869 1_564
N6 U1 2.345652 1_555
N6 U0 2.482846 1_654
N6 U0 2.482846 1_554
N7 Ta1 2.212740 1_555
N7 Ta1 2.212740 1_455
N7 Ta0 2.229134 1_546
N7 U0 2.345407 1_555
N7 U1 2.483118 1_456
N7 U1 2.483118 1_556
