# generated using pymatgen
data_TaGaN2
_symmetry_space_group_name_H-M   'P 1'
_cell_length_a   5.69883500
_cell_length_b   11.84814300
_cell_length_c   16.19664200
_cell_angle_alpha   90.00000000
_cell_angle_beta   90.00000000
_cell_angle_gamma   90.00000000
_symmetry_Int_Tables_number   1
_chemical_formula_structural   TaGaN2
_chemical_formula_sum   'Ta16 Ga16 N32'
_cell_volume   1093.60718040
_cell_formula_units_Z   16
loop_
 _symmetry_equiv_pos_site_id
 _symmetry_equiv_pos_as_xyz
  1  'x, y, z'
loop_
 _atom_site_type_symbol
 _atom_site_label
 _atom_site_symmetry_multiplicity
 _atom_site_fract_x
 _atom_site_fract_y
 _atom_site_fract_z
 _atom_site_occupancy
  Ta  Ta0  1  0.78265000  0.99521600  0.30912200  1
  Ta  Ta1  1  0.28265000  0.50478400  0.69087800  1
  Ta  Ta2  1  0.21735000  0.49521600  0.19087800  1
  Ta  Ta3  1  0.71735000  0.00478400  0.80912200  1
  Ta  Ta4  1  0.21735000  0.00478400  0.69087800  1
  Ta  Ta5  1  0.71735000  0.49521600  0.30912200  1
  Ta  Ta6  1  0.78265000  0.50478400  0.80912200  1
  Ta  Ta7  1  0.28265000  0.99521600  0.19087800  1
  Ta  Ta8  1  0.74801300  0.26164300  0.43670700  1
  Ta  Ta9  1  0.24801300  0.23835700  0.56329300  1
  Ta  Ta10  1  0.25198700  0.76164300  0.06329300  1
  Ta  Ta11  1  0.75198700  0.73835700  0.93670700  1
  Ta  Ta12  1  0.25198700  0.73835700  0.56329300  1
  Ta  Ta13  1  0.75198700  0.76164300  0.43670700  1
  Ta  Ta14  1  0.74801300  0.23835700  0.93670700  1
  Ta  Ta15  1  0.24801300  0.26164300  0.06329300  1
  Ga  Ga0  1  0.26860200  0.96524700  0.42780800  1
  Ga  Ga1  1  0.76860200  0.53475300  0.57219200  1
  Ga  Ga2  1  0.73139800  0.46524700  0.07219200  1
  Ga  Ga3  1  0.23139800  0.03475300  0.92780800  1
  Ga  Ga4  1  0.73139800  0.03475300  0.57219200  1
  Ga  Ga5  1  0.23139800  0.46524700  0.42780800  1
  Ga  Ga6  1  0.26860200  0.53475300  0.92780800  1
  Ga  Ga7  1  0.76860200  0.96524700  0.07219200  1
  Ga  Ga8  1  0.20763900  0.18624100  0.35483900  1
  Ga  Ga9  1  0.70763900  0.31375900  0.64516100  1
  Ga  Ga10  1  0.79236100  0.68624100  0.14516100  1
  Ga  Ga11  1  0.29236100  0.81375900  0.85483900  1
  Ga  Ga12  1  0.79236100  0.81375900  0.64516100  1
  Ga  Ga13  1  0.29236100  0.68624100  0.35483900  1
  Ga  Ga14  1  0.20763900  0.31375900  0.85483900  1
  Ga  Ga15  1  0.70763900  0.18624100  0.14516100  1
  N  N0  1  0.07556800  0.30034800  0.46606600  1
  N  N1  1  0.57556800  0.19965200  0.53393400  1
  N  N2  1  0.92443200  0.80034800  0.03393400  1
  N  N3  1  0.42443200  0.69965200  0.96606600  1
  N  N4  1  0.92443200  0.69965200  0.53393400  1
  N  N5  1  0.42443200  0.80034800  0.46606600  1
  N  N6  1  0.07556800  0.19965200  0.96606600  1
  N  N7  1  0.57556800  0.30034800  0.03393400  1
  N  N8  1  0.58871000  0.39148900  0.39105900  1
  N  N9  1  0.08871000  0.10851100  0.60894100  1
  N  N10  1  0.41129000  0.89148900  0.10894100  1
  N  N11  1  0.91129000  0.60851100  0.89105900  1
  N  N12  1  0.41129000  0.60851100  0.60894100  1
  N  N13  1  0.91129000  0.89148900  0.39105900  1
  N  N14  1  0.58871000  0.10851100  0.89105900  1
  N  N15  1  0.08871000  0.39148900  0.10894100  1
  N  N16  1  0.82612800  0.14779500  0.35490500  1
  N  N17  1  0.32612800  0.35220500  0.64509500  1
  N  N18  1  0.17387200  0.64779500  0.14509500  1
  N  N19  1  0.67387200  0.85220500  0.85490500  1
  N  N20  1  0.17387200  0.85220500  0.64509500  1
  N  N21  1  0.67387200  0.64779500  0.35490500  1
  N  N22  1  0.82612800  0.35220500  0.85490500  1
  N  N23  1  0.32612800  0.14779500  0.14509500  1
  N  N24  1  0.54864400  0.46918200  0.20544100  1
  N  N25  1  0.04864400  0.03081800  0.79455900  1
  N  N26  1  0.45135600  0.96918200  0.29455900  1
  N  N27  1  0.95135600  0.53081800  0.70544100  1
  N  N28  1  0.45135600  0.53081800  0.79455900  1
  N  N29  1  0.95135600  0.96918200  0.20544100  1
  N  N30  1  0.54864400  0.03081800  0.70544100  1
  N  N31  1  0.04864400  0.46918200  0.29455900  1
loop_
_geom_bond_atom_site_label_1
_geom_bond_atom_site_label_2
_geom_bond_distance
_geom_bond_site_symmetry_2
Ga0 N5 2.233770 1_555
Ga0 N13 2.294413 1_455
Ga0 N26 2.396796 1_555
Ga1 N4 2.233770 1_555
Ga1 N12 2.294413 1_555
Ga1 N27 2.396796 1_555
Ga2 N7 2.233770 1_555
Ga2 N15 2.294413 1_655
Ga2 N24 2.396796 1_555
Ga3 N6 2.233770 1_555
Ga3 N14 2.294413 1_555
Ga3 N25 2.396796 1_555
Ga4 N1 2.233770 1_555
Ga4 N9 2.294413 1_655
Ga4 N30 2.396796 1_555
Ga5 N0 2.233770 1_555
Ga5 N8 2.294413 1_555
Ga5 N31 2.396796 1_555
Ga6 N3 2.233770 1_555
Ga6 N11 2.294413 1_455
Ga6 N28 2.396796 1_555
Ga7 N2 2.233770 1_555
Ga7 N10 2.294413 1_555
Ga7 N29 2.396796 1_555
Ga8 N16 2.221374 1_455
Ga8 N0 2.374802 1_555
Ga9 N17 2.221374 1_555
Ga9 N1 2.374802 1_555
Ga10 N18 2.221374 1_655
Ga10 N2 2.374802 1_555
Ga11 N19 2.221374 1_555
Ga11 N3 2.374802 1_555
Ga12 N20 2.221374 1_655
Ga12 N4 2.374802 1_555
Ga13 N21 2.221374 1_555
Ga13 N5 2.374802 1_555
Ga14 N22 2.221374 1_455
Ga14 N6 2.374802 1_555
Ga15 N23 2.221374 1_555
Ga15 N7 2.374802 1_555
N0 Ta8 1.980130 1_455
N0 Ta9 1.996264 1_555
N1 Ta9 1.980130 1_555
N1 Ta8 1.996264 1_555
N2 Ta10 1.980130 1_655
N2 Ta11 1.996264 1_554
N3 Ta11 1.980130 1_555
N3 Ta10 1.996264 1_556
N4 Ta12 1.980130 1_655
N4 Ta13 1.996264 1_555
N5 Ta13 1.980130 1_555
N5 Ta12 1.996264 1_555
N6 Ta14 1.980130 1_455
N6 Ta15 1.996264 1_556
N7 Ta15 1.980130 1_555
N7 Ta14 1.996264 1_554
N8 Ta8 1.933284 1_555
N8 Ta5 1.951669 1_555
N9 Ta9 1.933284 1_555
N9 Ta4 1.951669 1_555
N10 Ta10 1.933284 1_555
N10 Ta7 1.951669 1_555
N11 Ta11 1.933284 1_555
N11 Ta6 1.951669 1_555
N12 Ta12 1.933284 1_555
N12 Ta1 1.951669 1_555
N13 Ta13 1.933284 1_555
N13 Ta0 1.951669 1_555
N14 Ta14 1.933284 1_555
N14 Ta3 1.951669 1_555
N15 Ta15 1.933284 1_555
N15 Ta2 1.951669 1_555
N16 Ta8 1.942441 1_555
N16 Ta0 1.969599 1_545
N17 Ta9 1.942441 1_555
N17 Ta1 1.969599 1_555
N18 Ta10 1.942441 1_555
N18 Ta2 1.969599 1_555
N19 Ta11 1.942441 1_555
N19 Ta3 1.969599 1_565
N20 Ta12 1.942441 1_555
N20 Ta4 1.969599 1_565
N21 Ta13 1.942441 1_555
N21 Ta5 1.969599 1_555
N22 Ta14 1.942441 1_555
N22 Ta6 1.969599 1_555
N23 Ta15 1.942441 1_555
N23 Ta7 1.969599 1_545
N24 Ta2 1.927508 1_555
N24 Ta5 1.959460 1_555
N25 Ta3 1.927508 1_455
N25 Ta4 1.959460 1_555
N26 Ta0 1.927508 1_555
N26 Ta7 1.959460 1_555
N27 Ta1 1.927508 1_655
N27 Ta6 1.959460 1_555
N28 Ta6 1.927508 1_555
N28 Ta1 1.959460 1_555
N29 Ta7 1.927508 1_655
N29 Ta0 1.959460 1_555
N30 Ta4 1.927508 1_555
N30 Ta3 1.959460 1_555
N31 Ta5 1.927508 1_455
N31 Ta2 1.959460 1_555
