# generated using pymatgen
data_Ba(MnAs)2
_symmetry_space_group_name_H-M   'P 1'
_cell_length_a   4.11993712
_cell_length_b   7.30779645
_cell_length_c   8.24129065
_cell_angle_alpha   106.87097111
_cell_angle_beta   89.99666309
_cell_angle_gamma   73.60181893
_symmetry_Int_Tables_number   1
_chemical_formula_structural   Ba(MnAs)2
_chemical_formula_sum   'Ba2 Mn4 As4'
_cell_volume   226.87792201
_cell_formula_units_Z   2
loop_
 _symmetry_equiv_pos_site_id
 _symmetry_equiv_pos_as_xyz
  1  'x, y, z'
loop_
 _atom_site_type_symbol
 _atom_site_label
 _atom_site_symmetry_multiplicity
 _atom_site_fract_x
 _atom_site_fract_y
 _atom_site_fract_z
 _atom_site_occupancy
  Ba  Ba0  1  0.99998400  0.00002100  0.49998200  1
  Ba  Ba1  1  0.99998800  0.00002100  0.99997400  1
  Mn  Mn0  1  0.74878100  0.50273700  0.36703800  1
  Mn  Mn1  1  0.25118100  0.49731000  0.63296100  1
  Mn  Mn2  1  0.74874200  0.50280100  0.86720600  1
  Mn  Mn3  1  0.25125900  0.49720700  0.13285200  1
  As  As0  1  0.64134400  0.71610100  0.67661800  1
  As  As1  1  0.64136300  0.71615100  0.17671500  1
  As  As2  1  0.35866200  0.28388000  0.32336400  1
  As  As3  1  0.35869600  0.28377200  0.82329100  1
loop_
_geom_bond_atom_site_label_1
_geom_bond_atom_site_label_2
_geom_bond_distance
_geom_bond_site_symmetry_2
As0 Mn2 2.474735 1_555
As0 Mn1 2.527264 1_555
As0 Mn1 2.529087 1_655
As0 Mn0 2.537239 1_555
As0 Ba0 3.473347 1_465
As0 Ba1 3.476035 1_465
As0 Ba0 3.477221 1_565
As0 Ba1 3.480210 1_565
As1 Mn0 2.473586 1_555
As1 Mn3 2.527858 1_555
As1 Mn3 2.529563 1_655
As1 Mn2 2.536727 1_554
As1 Ba1 3.473712 1_464
As1 Ba0 3.475598 1_465
As1 Ba1 3.477390 1_564
As1 Ba0 3.479539 1_565
As2 Mn3 2.474373 1_555
As2 Mn0 2.527482 1_555
As2 Mn0 2.529379 1_455
As2 Mn1 2.537487 1_555
As2 Ba0 3.472941 1_555
As2 Ba1 3.476057 1_554
As2 Ba0 3.476852 1_455
As2 Ba1 3.480230 1_454
As3 Mn1 2.474326 1_555
As3 Mn2 2.528125 1_555
As3 Mn2 2.529933 1_455
As3 Mn3 2.537252 1_556
As3 Ba1 3.472788 1_555
As3 Ba0 3.475443 1_555
As3 Ba1 3.476581 1_455
As3 Ba0 3.479537 1_455
