# generated using pymatgen
data_Mg14ZrTi
_symmetry_space_group_name_H-M   'P 1'
_cell_length_a   6.41456895
_cell_length_b   6.29872490
_cell_length_c   10.18917436
_cell_angle_alpha   90.00000000
_cell_angle_beta   90.00000000
_cell_angle_gamma   119.40437783
_symmetry_Int_Tables_number   1
_chemical_formula_structural   Mg14ZrTi
_chemical_formula_sum   'Mg14 Zr1 Ti1'
_cell_volume   358.64531761
_cell_formula_units_Z   1
loop_
 _symmetry_equiv_pos_site_id
 _symmetry_equiv_pos_as_xyz
  1  'x, y, z'
loop_
 _atom_site_type_symbol
 _atom_site_label
 _atom_site_symmetry_multiplicity
 _atom_site_fract_x
 _atom_site_fract_y
 _atom_site_fract_z
 _atom_site_occupancy
  Mg  Mg0  1  0.16617835  0.33308867  0.62500000  1
  Mg  Mg1  1  0.16581574  0.83290737  0.62500000  1
  Mg  Mg2  1  0.66331597  0.32956092  0.12500000  1
  Mg  Mg3  1  0.66604954  0.33328618  0.62500000  1
  Mg  Mg4  1  0.66331597  0.83375406  0.12500000  1
  Mg  Mg5  1  0.66604954  0.83276236  0.62500000  1
  Mg  Mg6  1  0.33114930  0.16395028  0.37219243  1
  Mg  Mg7  1  0.33114930  0.16395028  0.87780757  1
  Mg  Mg8  1  0.33114930  0.66720002  0.37219243  1
  Mg  Mg9  1  0.33114930  0.66720002  0.87780757  1
  Mg  Mg10  1  0.83705197  0.16852648  0.37388082  1
  Mg  Mg11  1  0.83705197  0.16852648  0.87611918  1
  Mg  Mg12  1  0.83885941  0.66943020  0.37027301  1
  Mg  Mg13  1  0.83885941  0.66943020  0.87972699  1
  Zr  Zr0  1  0.16591655  0.33295777  0.12500000  1
  Ti  Ti0  1  0.16693838  0.83346869  0.12500000  1
loop_
_geom_bond_atom_site_label_1
_geom_bond_atom_site_label_2
_geom_bond_distance
_geom_bond_site_symmetry_2
Mg0 Mg1 3.149363 1_545
Mg0 Mg1 3.149363 1_555
Mg0 Mg10 3.151143 1_455
Mg0 Mg11 3.151143 1_455
Mg0 Mg6 3.161818 1_555
Mg0 Mg7 3.161818 1_555
Mg0 Mg9 3.161824 1_555
Mg0 Mg8 3.161824 1_555
Mg0 Mg5 3.205847 1_555
Mg0 Mg3 3.205848 1_555
Mg0 Mg5 3.208721 1_445
Mg0 Mg3 3.208722 1_455
Mg1 Mg9 3.152200 1_555
Mg1 Mg8 3.152200 1_555
Mg1 Mg7 3.152206 1_565
Mg1 Mg6 3.152206 1_565
Mg1 Mg13 3.174068 1_455
Mg1 Mg12 3.174068 1_455
Mg1 Mg3 3.205336 1_455
Mg1 Mg5 3.205336 1_455
Mg1 Mg3 3.209232 1_565
Mg1 Mg5 3.209233 1_555
Mg2 Mg4 3.122951 1_545
Mg2 Mg7 3.128793 1_554
Mg2 Mg6 3.128793 1_555
Mg2 Mg4 3.175774 1_555
Mg2 Ti0 3.183166 1_545
Mg2 Zr0 3.201162 1_555
Mg2 Zr0 3.213515 1_655
Mg2 Ti0 3.231403 1_655
Mg3 Mg5 3.146063 1_555
Mg3 Mg5 3.152662 1_545
Mg3 Mg6 3.184007 1_555
Mg3 Mg7 3.184007 1_555
Mg4 Mg9 3.128793 1_554
Mg4 Mg8 3.128793 1_555
Mg4 Ti0 3.183166 1_555
Mg4 Zr0 3.201162 1_555
Mg4 Zr0 3.213515 1_665
Mg4 Ti0 3.231404 1_655
Mg5 Mg9 3.184007 1_555
Mg5 Mg8 3.184007 1_555
Mg6 Ti0 3.103767 1_545
Mg6 Zr0 3.115816 1_555
Mg6 Mg8 3.128893 1_545
Mg6 Mg8 3.169832 1_555
Mg7 Ti0 3.103767 1_546
Mg7 Zr0 3.115816 1_556
Mg7 Mg9 3.128893 1_545
Mg7 Mg9 3.169832 1_555
Mg8 Ti0 3.103761 1_555
Mg8 Zr0 3.115822 1_555
Mg9 Ti0 3.103761 1_556
Mg9 Zr0 3.115822 1_556
Mg10 Zr0 3.131793 1_655
Mg10 Mg2 3.132335 1_555
Mg10 Mg4 3.132341 1_545
Mg10 Mg12 3.149593 1_555
Mg10 Mg12 3.149593 1_545
Mg10 Mg3 3.153554 1_555
Mg10 Mg5 3.153560 1_545
Mg10 Mg8 3.183719 1_655
Mg10 Mg6 3.183719 1_655
Mg10 Mg8 3.231139 1_545
Mg10 Mg6 3.231139 1_555
Mg11 Zr0 3.131793 1_656
Mg11 Mg2 3.132335 1_556
Mg11 Mg4 3.132341 1_546
Mg11 Mg13 3.149593 1_555
Mg11 Mg13 3.149593 1_545
Mg11 Mg3 3.153554 1_555
Mg11 Mg5 3.153560 1_545
Mg11 Mg9 3.183719 1_655
Mg11 Mg7 3.183719 1_655
Mg11 Mg9 3.231139 1_545
Mg11 Mg7 3.231139 1_555
Mg12 Ti0 3.099503 1_655
Mg12 Mg4 3.119187 1_555
Mg12 Mg2 3.119193 1_555
Mg12 Mg6 3.164808 1_665
Mg12 Mg8 3.164808 1_655
Mg12 Mg5 3.184868 1_555
Mg12 Mg3 3.184874 1_555
Mg12 Mg6 3.249926 1_555
Mg12 Mg8 3.249927 1_555
Mg13 Ti0 3.099503 1_656
Mg13 Mg4 3.119187 1_556
Mg13 Mg2 3.119193 1_556
Mg13 Mg7 3.164808 1_665
Mg13 Mg9 3.164808 1_655
Mg13 Mg5 3.184868 1_555
Mg13 Mg3 3.184874 1_555
Mg13 Mg7 3.249926 1_555
Mg13 Mg9 3.249927 1_555
Ti0 Zr0 3.149368 1_565
Ti0 Zr0 3.149368 1_555
