# generated using pymatgen
data_BaCa3Si10(N2O)6
_symmetry_space_group_name_H-M   'P 1'
_cell_length_a   4.87389951
_cell_length_b   7.14218282
_cell_length_c   12.56659904
_cell_angle_alpha   73.47906755
_cell_angle_beta   84.40265223
_cell_angle_gamma   70.58405015
_symmetry_Int_Tables_number   1
_chemical_formula_structural   BaCa3Si10(N2O)6
_chemical_formula_sum   'Ba1 Ca3 Si10 N12 O6'
_cell_volume   395.53457757
_cell_formula_units_Z   1
loop_
 _symmetry_equiv_pos_site_id
 _symmetry_equiv_pos_as_xyz
  1  'x, y, z'
loop_
 _atom_site_type_symbol
 _atom_site_label
 _atom_site_symmetry_multiplicity
 _atom_site_fract_x
 _atom_site_fract_y
 _atom_site_fract_z
 _atom_site_occupancy
  Ba  Ba0  1  0.12498300  0.05686800  0.01142500  1
  Ca  Ca0  1  0.51469200  0.62914500  0.53716100  1
  Ca  Ca1  1  0.87049300  0.95205500  0.53824100  1
  Ca  Ca2  1  0.19349200  0.31078300  0.49614300  1
  Si  Si0  1  0.02875100  0.16532700  0.26267800  1
  Si  Si1  1  0.02812600  0.42995600  0.74074200  1
  Si  Si2  1  0.26756100  0.69177100  0.26214700  1
  Si  Si3  1  0.26812900  0.94736700  0.74143600  1
  Si  Si4  1  0.64871700  0.91868400  0.28157200  1
  Si  Si5  1  0.64810100  0.19832800  0.72179600  1
  Si  Si6  1  0.46158000  0.49669200  0.87414600  1
  Si  Si7  1  0.46401900  0.36813300  0.13058900  1
  Si  Si8  1  0.83905000  0.62001000  0.13078800  1
  Si  Si9  1  0.83693900  0.74774800  0.87424900  1
  N  N0  1  0.10254900  0.36999700  0.16257000  1
  N  N1  1  0.10186800  0.53292500  0.83902800  1
  N  N2  1  0.90981600  0.73659300  0.22615800  1
  N  N3  1  0.90476900  0.95849200  0.77059200  1
  N  N4  1  0.49378900  0.58782800  0.16149800  1
  N  N5  1  0.49470000  0.74733800  0.83936600  1
  N  N6  1  0.69975700  0.15634900  0.22480600  1
  N  N7  1  0.68977000  0.39021900  0.77066100  1
  N  N8  1  0.86221600  0.76956900  0.00076000  1
  N  N9  1  0.30301400  0.93864200  0.24337400  1
  N  N10  1  0.29720600  0.18316200  0.75274700  1
  N  N11  1  0.56769100  0.34610800  0.00059400  1
  O  O0  1  0.69509700  0.85201600  0.41530300  1
  O  O1  1  0.69389900  0.26681700  0.58566900  1
  O  O2  1  0.03353300  0.16750600  0.39129600  1
  O  O3  1  0.03539100  0.56993800  0.61141000  1
  O  O4  1  0.35115200  0.56000000  0.39006200  1
  O  O5  1  0.34728900  0.93668300  0.61189200  1
loop_
_geom_bond_atom_site_label_1
_geom_bond_atom_site_label_2
_geom_bond_distance
_geom_bond_site_symmetry_2
Ba0 N8 2.793864 1_445
Ba0 N11 2.800966 1_455
Ba0 N9 2.927200 1_545
Ba0 N10 3.223161 1_554
Ba0 N0 3.291499 1_555
Ba0 N6 3.318262 1_455
Ba0 N4 3.327876 1_545
Ba0 N2 3.338599 1_445
Ba0 N11 3.418787 1_555
Ba0 N1 3.445340 1_554
Ba0 N5 3.481298 1_544
Ba0 N8 3.507140 1_545
Ca0 O0 2.221140 1_555
Ca0 O4 2.316164 1_555
Ca0 O1 2.352702 1_555
Ca0 O5 2.490865 1_555
Ca0 O3 2.552211 1_555
Ca0 O3 2.648405 1_655
Ca0 N7 2.987106 1_555
Ca1 O0 2.218007 1_555
Ca1 O2 2.306493 1_665
Ca1 O1 2.350629 1_565
Ca1 O3 2.489645 1_655
Ca1 O5 2.541877 1_655
Ca1 O5 2.653176 1_555
Ca1 N3 2.955033 1_555
Ca2 O2 2.211012 1_555
Ca2 O4 2.212650 1_555
Ca2 O3 2.544947 1_555
Ca2 O5 2.547045 1_545
Ca2 O1 2.658273 1_455
Ca2 O1 2.671680 1_555
N0 Si0 1.750496 1_555
N0 Si7 1.764894 1_555
N0 Si8 1.779653 1_455
N1 Si1 1.724667 1_555
N1 Si6 1.766289 1_555
N1 Si9 1.781814 1_455
N2 Si4 1.742871 1_555
N2 Si2 1.745735 1_655
N2 Si8 1.757198 1_555
N3 Si5 1.732841 1_565
N3 Si3 1.753098 1_655
N3 Si9 1.789799 1_555
N4 Si2 1.756246 1_555
N4 Si8 1.764509 1_555
N4 Si7 1.772848 1_555
N5 Si3 1.729526 1_555
N5 Si9 1.766674 1_555
N5 Si6 1.776269 1_555
N6 Si4 1.734803 1_545
N6 Si0 1.742514 1_655
N6 Si7 1.761045 1_555
N7 Si5 1.727620 1_555
N7 Si1 1.752431 1_655
N7 Si6 1.795660 1_555
N8 Si9 1.660982 1_554
N8 Si8 1.695660 1_555
N9 Si4 1.746104 1_555
N9 Si2 1.775505 1_555
N9 Si0 1.785550 1_565
N10 Si5 1.748522 1_555
N10 Si3 1.781909 1_545
N10 Si1 1.788882 1_555
N11 Si6 1.663643 1_554
N11 Si7 1.697344 1_555
O0 Si4 1.627728 1_555
O1 Si5 1.654581 1_555
O2 Si0 1.623292 1_555
O3 Si1 1.652412 1_555
O4 Si2 1.627289 1_555
O5 Si3 1.653293 1_555
