# generated using pymatgen
data_CaSi(HO2)2
_symmetry_space_group_name_H-M   'P 1'
_cell_length_a   12.51153855
_cell_length_b   9.56645711
_cell_length_c   15.54226741
_cell_angle_alpha   53.58173849
_cell_angle_beta   37.97269125
_cell_angle_gamma   88.44557027
_symmetry_Int_Tables_number   1
_chemical_formula_structural   CaSi(HO2)2
_chemical_formula_sum   'Ca4 Si4 H8 O16'
_cell_volume   419.20381970
_cell_formula_units_Z   4
loop_
 _symmetry_equiv_pos_site_id
 _symmetry_equiv_pos_as_xyz
  1  'x, y, z'
loop_
 _atom_site_type_symbol
 _atom_site_label
 _atom_site_symmetry_multiplicity
 _atom_site_fract_x
 _atom_site_fract_y
 _atom_site_fract_z
 _atom_site_occupancy
  Ca  Ca0  1  0.43516300  0.10955200  0.15045800  1
  Ca  Ca1  1  0.10955200  0.43516300  0.30482700  1
  Ca  Ca2  1  0.09954200  0.94517300  0.81483700  1
  Ca  Ca3  1  0.94517300  0.09954200  0.14044800  1
  Si  Si0  1  0.36765700  0.60384000  0.39535600  1
  Si  Si1  1  0.60384000  0.36765700  0.63314600  1
  Si  Si2  1  0.85464400  0.61685400  0.88234300  1
  Si  Si3  1  0.61685400  0.85464400  0.64616000  1
  H  H0  1  0.67330100  0.34336500  0.43012600  1
  H  H1  1  0.34336500  0.67330100  0.55320600  1
  H  H2  1  0.81987400  0.69679400  0.57669900  1
  H  H3  1  0.69679400  0.81987400  0.90663500  1
  H  H4  1  0.24663100  0.72302200  0.67171300  1
  H  H5  1  0.72302200  0.24663100  0.35863400  1
  H  H6  1  0.57828700  0.89136600  0.00336900  1
  H  H7  1  0.89136600  0.57828700  0.52697800  1
  O  O0  1  0.95382000  0.95382000  0.04618000  1
  O  O1  1  0.20381900  0.20381900  0.29618100  1
  O  O2  1  0.94709400  0.58622100  0.74944000  1
  O  O3  1  0.58622100  0.94709400  0.71724400  1
  O  O4  1  0.50056000  0.53275600  0.30290600  1
  O  O5  1  0.53275600  0.50056000  0.66377900  1
  O  O6  1  0.44810800  0.83667500  0.19516400  1
  O  O7  1  0.83667500  0.44810800  0.52005200  1
  O  O8  1  0.05483600  0.72994800  0.80189200  1
  O  O9  1  0.72994800  0.05483600  0.41332500  1
  O  O10  1  0.35580500  0.69716500  0.59966700  1
  O  O11  1  0.69716500  0.35580500  0.34736200  1
  O  O12  1  0.65033300  0.90263800  0.89419500  1
  O  O13  1  0.90263800  0.65033300  0.55283500  1
  O  O14  1  0.58597900  0.58597900  0.41402100  1
  O  O15  1  0.83597900  0.83597900  0.66402100  1
loop_
_geom_bond_atom_site_label_1
_geom_bond_atom_site_label_2
_geom_bond_distance
_geom_bond_site_symmetry_2
Ca0 O6 2.307463 1_545
Ca0 O2 2.358841 1_554
Ca0 O2 2.390018 1_445
Ca0 O13 2.464783 1_445
Ca0 O13 2.486439 1_554
Ca0 O1 2.503743 1_555
Ca1 O7 2.307458 1_455
Ca1 O3 2.358851 1_554
Ca1 O3 2.390028 1_445
Ca1 O12 2.464793 1_445
Ca1 O12 2.486449 1_554
Ca1 O1 2.503743 1_555
Ca2 O8 2.307454 1_555
Ca2 O4 2.358845 1_565
Ca2 O4 2.390019 1_456
Ca2 O11 2.464787 1_456
Ca2 O11 2.486440 1_565
Ca2 O0 2.503742 1_456
Ca3 O9 2.307466 1_555
Ca3 O5 2.358850 1_654
Ca3 O5 2.390024 1_545
Ca3 O10 2.464793 1_545
Ca3 O10 2.486446 1_654
Ca3 O0 2.503742 1_545
H0 O11 0.986214 1_555
H1 O10 0.986230 1_555
H2 O13 0.986220 1_555
H3 O12 0.986223 1_555
H4 O10 1.039192 1_555
H4 O8 1.533697 1_555
H5 O11 1.039189 1_555
H5 O9 1.533696 1_555
H6 O12 1.039184 1_554
H6 O6 1.533690 1_555
H7 O13 1.039198 1_555
H7 O7 1.533704 1_555
O0 O14 1.325619 1_555
O1 O15 1.325615 1_445
O2 Si2 1.619865 1_555
O3 Si3 1.619840 1_555
O4 Si0 1.619848 1_555
O5 Si1 1.619858 1_555
O6 Si0 1.615738 1_555
O7 Si1 1.615738 1_555
O8 Si2 1.615738 1_455
O9 Si3 1.615738 1_545
