# generated using pymatgen
data_V(CoN)4
_symmetry_space_group_name_H-M   'P 1'
_cell_length_a   4.86519221
_cell_length_b   4.93241102
_cell_length_c   7.52686764
_cell_angle_alpha   73.39081476
_cell_angle_beta   82.09176491
_cell_angle_gamma   70.00591396
_symmetry_Int_Tables_number   1
_chemical_formula_structural   V(CoN)4
_chemical_formula_sum   'V2 Co8 N8'
_cell_volume   162.49535880
_cell_formula_units_Z   2
loop_
 _symmetry_equiv_pos_site_id
 _symmetry_equiv_pos_as_xyz
  1  'x, y, z'
loop_
 _atom_site_type_symbol
 _atom_site_label
 _atom_site_symmetry_multiplicity
 _atom_site_fract_x
 _atom_site_fract_y
 _atom_site_fract_z
 _atom_site_occupancy
  V  V0  1  0.71817400  0.85799500  0.77333000  1
  V  V1  1  0.28182600  0.14200500  0.22667000  1
  Co  Co0  1  0.75462600  0.60977700  0.21341300  1
  Co  Co1  1  0.24537400  0.39022300  0.78658700  1
  Co  Co2  1  0.74535000  0.26299400  0.95336700  1
  Co  Co3  1  0.25465000  0.73700600  0.04663300  1
  Co  Co4  1  0.74312700  0.45685200  0.59824600  1
  Co  Co5  1  0.25687300  0.54314800  0.40175400  1
  Co  Co6  1  0.25285700  0.95786300  0.60338500  1
  Co  Co7  1  0.74714300  0.04213700  0.39661500  1
  N  N0  1  0.99097300  0.71637600  0.58906000  1
  N  N1  1  0.00902700  0.28362400  0.41094000  1
  N  N2  1  0.85650800  0.84739600  0.99794100  1
  N  N3  1  0.14349200  0.15260400  0.00205900  1
  N  N4  1  0.46272500  0.62959000  0.81254600  1
  N  N5  1  0.53727500  0.37041000  0.18745400  1
  N  N6  1  0.50732300  0.79468200  0.40104500  1
  N  N7  1  0.49267700  0.20531800  0.59895500  1
loop_
_geom_bond_atom_site_label_1
_geom_bond_atom_site_label_2
_geom_bond_distance
_geom_bond_site_symmetry_2
Co0 N2 1.827314 1_554
Co0 N5 1.895481 1_555
Co0 N6 1.947391 1_555
Co0 N1 2.026761 1_655
Co1 N3 1.827314 1_556
Co1 N4 1.895481 1_555
Co1 N7 1.947391 1_555
Co1 N0 2.026761 1_455
Co2 N2 1.872369 1_545
Co2 N3 1.882265 1_656
Co2 N4 1.972022 1_555
Co2 N5 2.021392 1_556
Co3 N3 1.872369 1_565
Co3 N2 1.882265 1_454
Co3 N5 1.972022 1_555
Co3 N4 2.021392 1_554
Co4 N1 1.955021 1_655
Co4 N6 2.010785 1_555
Co4 N7 2.013013 1_555
Co4 N0 2.019749 1_555
Co4 N4 2.138713 1_555
Co5 N0 1.955021 1_455
Co5 N7 2.010785 1_555
Co5 N6 2.013013 1_555
Co5 N1 2.019749 1_555
Co5 N5 2.138713 1_555
Co6 N7 1.947332 1_565
Co6 N1 1.981414 1_565
Co6 N4 1.999312 1_555
Co6 N6 2.000134 1_555
Co6 N0 2.050070 1_455
Co7 N6 1.947332 1_545
Co7 N0 1.981414 1_545
Co7 N5 1.999312 1_555
Co7 N7 2.000134 1_555
Co7 N1 2.050070 1_655
N0 V0 1.893801 1_555
N1 V1 1.893801 1_555
N2 V0 1.884778 1_555
N3 V1 1.884778 1_555
N4 V0 1.888735 1_555
N5 V1 1.888735 1_555
N6 V1 1.920061 1_565
N7 V0 1.920061 1_545
