# generated using pymatgen
data_Rb2Pd3Se4
_symmetry_space_group_name_H-M   'P 1'
_cell_length_a   6.40758796
_cell_length_b   6.43393227
_cell_length_c   14.16117033
_cell_angle_alpha   83.53157774
_cell_angle_beta   76.92431929
_cell_angle_gamma   60.13536340
_symmetry_Int_Tables_number   1
_chemical_formula_structural   Rb2Pd3Se4
_chemical_formula_sum   'Rb4 Pd6 Se8'
_cell_volume   493.15416285
_cell_formula_units_Z   2
loop_
 _symmetry_equiv_pos_site_id
 _symmetry_equiv_pos_as_xyz
  1  'x, y, z'
loop_
 _atom_site_type_symbol
 _atom_site_label
 _atom_site_symmetry_multiplicity
 _atom_site_fract_x
 _atom_site_fract_y
 _atom_site_fract_z
 _atom_site_occupancy
  Rb  Rb0  1  0.54994579  0.75000000  0.90010942  1
  Rb  Rb1  1  0.29994579  0.25000000  0.40010942  1
  Rb  Rb2  1  0.45005421  0.25000000  0.09989058  1
  Rb  Rb3  1  0.70005421  0.75000000  0.59989058  1
  Pd  Pd0  1  0.37449532  0.75000000  0.25100737  1
  Pd  Pd1  1  0.12449532  0.25000000  0.75100737  1
  Pd  Pd2  1  0.62550468  0.25000000  0.74899263  1
  Pd  Pd3  1  0.12500000  0.75000000  0.75000000  1
  Pd  Pd4  1  0.87500000  0.25000000  0.25000000  1
  Pd  Pd5  1  0.87550468  0.75000000  0.24899263  1
  Se  Se0  1  0.89552060  0.08277503  0.86860912  1
  Se  Se1  1  0.76412872  0.58277503  0.13139088  1
  Se  Se2  1  0.97829663  0.91722497  0.36860912  1
  Se  Se3  1  0.65309425  0.58277503  0.36860912  1
  Se  Se4  1  0.34690575  0.41722497  0.63139088  1
  Se  Se5  1  0.02170337  0.08277503  0.63139088  1
  Se  Se6  1  0.23587128  0.41722497  0.86860912  1
  Se  Se7  1  0.10447940  0.91722497  0.13139088  1
loop_
_geom_bond_atom_site_label_1
_geom_bond_atom_site_label_2
_geom_bond_distance
_geom_bond_site_symmetry_2
Rb0 Se1 3.679325 1_556
Rb0 Se7 3.679331 1_556
Rb0 Se6 3.707508 1_555
Rb0 Se0 3.707508 1_565
Rb0 Se0 3.748154 1_555
Rb0 Se6 3.748155 1_565
Rb0 Se6 3.749220 1_655
Rb0 Se0 3.749220 1_465
Rb1 Se4 3.679331 1_555
Rb1 Se5 3.679334 1_555
Rb1 Se2 3.707514 1_545
Rb1 Se3 3.707519 1_455
Rb1 Se3 3.748154 1_545
Rb1 Se2 3.748155 1_455
Rb1 Se3 3.749209 1_555
Rb1 Se2 3.749214 1_445
Rb2 Se6 3.679325 1_554
Rb2 Se0 3.679331 1_554
Rb2 Se1 3.707508 1_555
Rb2 Se7 3.707508 1_545
Rb2 Se7 3.748154 1_555
Rb2 Se1 3.748155 1_545
Rb2 Se1 3.749220 1_455
Rb2 Se7 3.749220 1_645
Rb3 Se3 3.679331 1_555
Rb3 Se2 3.679334 1_555
Rb3 Se5 3.707514 1_565
Rb3 Se4 3.707519 1_655
Rb3 Se4 3.748154 1_565
Rb3 Se5 3.748155 1_655
Rb3 Se4 3.749209 1_555
Rb3 Se5 3.749214 1_665
Pd0 Se7 2.466155 1_555
Pd0 Se1 2.466159 1_555
Pd0 Se2 2.479205 1_455
Pd0 Se3 2.479213 1_555
Pd0 Rb1 3.818234 1_555
Pd0 Rb1 3.818242 1_565
Pd0 Rb2 3.833278 1_555
Pd0 Rb2 3.833281 1_565
Pd1 Se5 2.466159 1_555
Pd1 Se4 2.466167 1_555
Pd1 Se0 2.479209 1_455
Pd1 Se6 2.479221 1_555
Pd1 Rb0 3.818234 1_455
Pd1 Rb0 3.818243 1_545
Pd1 Rb3 3.833279 1_455
Pd1 Rb3 3.833281 1_545
Pd2 Se0 2.466155 1_555
Pd2 Se6 2.466159 1_555
Pd2 Se5 2.479205 1_655
Pd2 Se4 2.479213 1_555
Pd2 Rb3 3.818234 1_555
Pd2 Rb3 3.818242 1_545
Pd2 Rb0 3.833278 1_555
Pd2 Rb0 3.833281 1_545
Pd3 Se4 2.474841 1_555
Pd3 Se0 2.474841 1_465
Pd3 Se5 2.474841 1_565
Pd3 Se6 2.474841 1_555
Pd3 Rb3 3.814669 1_555
Pd3 Rb0 3.814669 1_455
Pd3 Rb3 3.814674 1_455
Pd3 Rb0 3.814674 1_555
Pd4 Se3 2.474841 1_555
Pd4 Se7 2.474841 1_645
Pd4 Se2 2.474841 1_545
Pd4 Se1 2.474841 1_555
Pd4 Rb2 3.814669 1_655
Pd4 Rb1 3.814669 1_555
Pd4 Rb2 3.814674 1_555
Pd4 Rb1 3.814674 1_655
Pd5 Se2 2.466159 1_555
Pd5 Se3 2.466167 1_555
Pd5 Se7 2.479209 1_655
Pd5 Se1 2.479221 1_555
Pd5 Rb2 3.818234 1_655
Pd5 Rb2 3.818243 1_565
Pd5 Rb1 3.833279 1_655
Pd5 Rb1 3.833281 1_565
