# generated using pymatgen
data_Hf2Ag
_symmetry_space_group_name_H-M   'P 1'
_cell_length_a   6.40788843
_cell_length_b   6.40788831
_cell_length_c   12.71708058
_cell_angle_alpha   104.59235936
_cell_angle_beta   104.59236041
_cell_angle_gamma   89.99998347
_symmetry_Int_Tables_number   1
_chemical_formula_structural   Hf2Ag
_chemical_formula_sum   'Hf16 Ag8'
_cell_volume   487.90739533
_cell_formula_units_Z   8
loop_
 _symmetry_equiv_pos_site_id
 _symmetry_equiv_pos_as_xyz
  1  'x, y, z'
loop_
 _atom_site_type_symbol
 _atom_site_label
 _atom_site_symmetry_multiplicity
 _atom_site_fract_x
 _atom_site_fract_y
 _atom_site_fract_z
 _atom_site_occupancy
  Hf  Hf0_0  1  0.16774996  0.16774997  0.33550093  1
  Hf  Hf0_1  1  0.16774996  0.16774997  0.83550093  1
  Hf  Hf0_2  1  0.16774996  0.66774996  0.33550093  1
  Hf  Hf0_3  1  0.16774996  0.66774996  0.83550093  1
  Hf  Hf0_4  1  0.66774997  0.16774997  0.33550093  1
  Hf  Hf0_5  1  0.66774996  0.16774996  0.83550093  1
  Hf  Hf0_6  1  0.66774996  0.66774996  0.33550093  1
  Hf  Hf0_7  1  0.66774997  0.66774997  0.83550093  1
  Hf  Hf1_0  1  0.33225003  0.33225003  0.16449907  1
  Hf  Hf1_1  1  0.33225003  0.33225003  0.66449907  1
  Hf  Hf1_2  1  0.33225003  0.83225003  0.16449907  1
  Hf  Hf1_3  1  0.33225003  0.83225004  0.66449907  1
  Hf  Hf1_4  1  0.83225003  0.33225003  0.16449907  1
  Hf  Hf1_5  1  0.83225003  0.33225003  0.66449907  1
  Hf  Hf1_6  1  0.83225003  0.83225003  0.16449907  1
  Hf  Hf1_7  1  0.83225004  0.83225003  0.66449907  1
  Ag  Ag0_0  1  0.00000000  0.00000000  0.00000000  1
  Ag  Ag0_1  1  0.00000000  0.00000000  0.50000000  1
  Ag  Ag0_2  1  0.00000000  0.50000000  0.00000000  1
  Ag  Ag0_3  1  0.00000000  0.50000000  0.50000000  1
  Ag  Ag0_4  1  0.50000000  0.00000000  0.00000000  1
  Ag  Ag0_5  1  0.50000000  0.00000000  0.50000000  1
  Ag  Ag0_6  1  0.50000000  0.50000000  0.00000000  1
  Ag  Ag0_7  1  0.50000000  0.50000000  0.50000000  1
loop_
_geom_bond_atom_site_label_1
_geom_bond_atom_site_label_2
_geom_bond_distance
_geom_bond_site_symmetry_2
Hf0_0 Hf1_6 3.043242 1_445
Hf0_0 Hf1_4 3.043248 1_455
Hf0_0 Hf1_2 3.043248 1_545
Hf0_0 Hf1_0 3.043256 1_555
Hf0_0 Hf0_2 3.203944 1_555
Hf0_0 Hf0_2 3.203944 1_545
Hf0_0 Hf0_4 3.203944 1_455
Hf0_0 Hf0_4 3.203944 1_555
Hf0_1 Hf1_7 3.043242 1_445
Hf0_1 Hf1_5 3.043248 1_455
Hf0_1 Hf1_3 3.043248 1_545
Hf0_1 Hf1_1 3.043256 1_555
Hf0_1 Hf0_3 3.203944 1_555
Hf0_1 Hf0_3 3.203944 1_545
Hf0_1 Hf0_5 3.203944 1_555
Hf0_1 Hf0_5 3.203944 1_455
Hf0_2 Hf1_4 3.043242 1_455
Hf0_2 Hf1_6 3.043248 1_455
Hf0_2 Hf1_0 3.043248 1_555
Hf0_2 Hf1_2 3.043256 1_555
Hf0_2 Hf0_6 3.203944 1_555
Hf0_2 Hf0_6 3.203944 1_455
Hf0_3 Hf1_5 3.043242 1_455
Hf0_3 Hf1_7 3.043248 1_455
Hf0_3 Hf1_1 3.043248 1_555
Hf0_3 Hf1_3 3.043256 1_555
Hf0_3 Hf0_7 3.203944 1_455
Hf0_3 Hf0_7 3.203944 1_555
Hf0_4 Hf1_2 3.043242 1_545
Hf0_4 Hf1_0 3.043248 1_555
Hf0_4 Hf1_6 3.043248 1_545
Hf0_4 Hf1_4 3.043256 1_555
Hf0_4 Hf0_6 3.203944 1_555
Hf0_4 Hf0_6 3.203944 1_545
Hf0_5 Hf1_3 3.043242 1_545
Hf0_5 Hf1_1 3.043248 1_555
Hf0_5 Hf1_7 3.043248 1_545
Hf0_5 Hf1_5 3.043256 1_555
Hf0_5 Hf0_7 3.203944 1_545
Hf0_5 Hf0_7 3.203944 1_555
Hf0_6 Hf1_0 3.043242 1_555
Hf0_6 Hf1_2 3.043248 1_555
Hf0_6 Hf1_4 3.043248 1_555
Hf0_6 Hf1_6 3.043256 1_555
Hf0_7 Hf1_1 3.043242 1_555
Hf0_7 Hf1_3 3.043248 1_555
Hf0_7 Hf1_5 3.043248 1_555
Hf0_7 Hf1_7 3.043256 1_555
Hf1_0 Hf1_2 3.203944 1_555
Hf1_0 Hf1_2 3.203944 1_545
Hf1_0 Hf1_4 3.203944 1_555
Hf1_0 Hf1_4 3.203944 1_455
Hf1_1 Hf1_3 3.203944 1_545
Hf1_1 Hf1_3 3.203944 1_555
Hf1_1 Hf1_5 3.203944 1_555
Hf1_1 Hf1_5 3.203944 1_455
Hf1_2 Hf1_6 3.203944 1_555
Hf1_2 Hf1_6 3.203944 1_455
Hf1_3 Hf1_7 3.203944 1_455
Hf1_3 Hf1_7 3.203944 1_555
Hf1_4 Hf1_6 3.203944 1_545
Hf1_4 Hf1_6 3.203944 1_555
Hf1_5 Hf1_7 3.203944 1_555
Hf1_5 Hf1_7 3.203944 1_545
Ag0_0 Hf1_6 2.992207 1_445
Ag0_0 Hf0_1 2.992207 1_554
Ag0_0 Hf1_2 2.992210 1_545
Ag0_0 Hf0_5 2.992210 1_454
Ag0_0 Hf1_4 2.992210 1_455
Ag0_0 Hf0_3 2.992210 1_544
Ag0_0 Hf1_0 2.992214 1_555
Ag0_0 Hf0_7 2.992214 1_444
Ag0_0 Ag0_2 3.203944 1_555
Ag0_0 Ag0_2 3.203944 1_545
Ag0_0 Ag0_4 3.203944 1_455
Ag0_0 Ag0_4 3.203944 1_555
Ag0_1 Hf0_0 2.992207 1_555
Ag0_1 Hf1_7 2.992207 1_445
Ag0_1 Hf1_3 2.992210 1_545
Ag0_1 Hf0_4 2.992210 1_455
Ag0_1 Hf1_5 2.992210 1_455
Ag0_1 Hf0_2 2.992210 1_545
Ag0_1 Hf0_6 2.992214 1_445
Ag0_1 Hf1_1 2.992214 1_555
Ag0_1 Ag0_3 3.203944 1_555
Ag0_1 Ag0_3 3.203944 1_545
Ag0_1 Ag0_5 3.203944 1_455
Ag0_1 Ag0_5 3.203944 1_555
Ag0_2 Hf1_4 2.992207 1_455
Ag0_2 Hf0_3 2.992207 1_554
Ag0_2 Hf1_0 2.992210 1_555
Ag0_2 Hf0_7 2.992210 1_454
Ag0_2 Hf1_6 2.992210 1_455
Ag0_2 Hf0_1 2.992210 1_554
Ag0_2 Hf1_2 2.992214 1_555
Ag0_2 Hf0_5 2.992214 1_454
Ag0_2 Ag0_6 3.203944 1_555
Ag0_2 Ag0_6 3.203944 1_455
Ag0_3 Hf0_2 2.992207 1_555
Ag0_3 Hf1_5 2.992207 1_455
Ag0_3 Hf1_1 2.992210 1_555
Ag0_3 Hf0_6 2.992210 1_455
Ag0_3 Hf0_0 2.992210 1_555
Ag0_3 Hf1_7 2.992210 1_455
Ag0_3 Hf0_4 2.992214 1_455
Ag0_3 Hf1_3 2.992214 1_555
Ag0_3 Ag0_7 3.203944 1_555
Ag0_3 Ag0_7 3.203944 1_455
Ag0_4 Hf0_5 2.992207 1_554
Ag0_4 Hf1_2 2.992207 1_545
Ag0_4 Hf1_6 2.992210 1_545
Ag0_4 Hf0_1 2.992210 1_554
Ag0_4 Hf1_0 2.992210 1_555
Ag0_4 Hf0_7 2.992210 1_544
Ag0_4 Hf1_4 2.992214 1_555
Ag0_4 Hf0_3 2.992214 1_544
Ag0_4 Ag0_6 3.203944 1_555
Ag0_4 Ag0_6 3.203944 1_545
Ag0_5 Hf0_4 2.992207 1_555
Ag0_5 Hf1_3 2.992207 1_545
Ag0_5 Hf0_0 2.992210 1_555
Ag0_5 Hf1_7 2.992210 1_545
Ag0_5 Hf0_6 2.992210 1_545
Ag0_5 Hf1_1 2.992210 1_555
Ag0_5 Hf0_2 2.992214 1_545
Ag0_5 Hf1_5 2.992214 1_555
Ag0_5 Ag0_7 3.203944 1_555
Ag0_5 Ag0_7 3.203944 1_545
Ag0_6 Hf1_0 2.992207 1_555
Ag0_6 Hf0_7 2.992207 1_554
Ag0_6 Hf1_4 2.992210 1_555
Ag0_6 Hf0_3 2.992210 1_554
Ag0_6 Hf0_5 2.992210 1_554
Ag0_6 Hf1_2 2.992210 1_555
Ag0_6 Hf1_6 2.992214 1_555
Ag0_6 Hf0_1 2.992214 1_554
Ag0_7 Hf1_1 2.992207 1_555
Ag0_7 Hf0_6 2.992207 1_555
Ag0_7 Hf0_2 2.992210 1_555
Ag0_7 Hf1_5 2.992210 1_555
Ag0_7 Hf1_3 2.992210 1_555
Ag0_7 Hf0_4 2.992210 1_555
Ag0_7 Hf0_0 2.992214 1_555
Ag0_7 Hf1_7 2.992214 1_555
