# generated using pymatgen
data_LaCeBe26
_symmetry_space_group_name_H-M   'P 1'
_cell_length_a   7.30200040
_cell_length_b   7.30200040
_cell_length_c   7.30200040
_cell_angle_alpha   60.00000000
_cell_angle_beta   60.00000000
_cell_angle_gamma   60.00000000
_symmetry_Int_Tables_number   1
_chemical_formula_structural   LaCeBe26
_chemical_formula_sum   'La1 Ce1 Be26'
_cell_volume   275.30275636
_cell_formula_units_Z   1
loop_
 _symmetry_equiv_pos_site_id
 _symmetry_equiv_pos_as_xyz
  1  'x, y, z'
loop_
 _atom_site_type_symbol
 _atom_site_label
 _atom_site_symmetry_multiplicity
 _atom_site_fract_x
 _atom_site_fract_y
 _atom_site_fract_z
 _atom_site_occupancy
  La  La0  1  0.50000000  0.50000000  0.50000000  1
  Ce  Ce0  1  0.00000000  0.00000000  0.00000000  1
  Be  Be0  1  0.53994800  0.31051100  0.96383600  1
  Be  Be1  1  0.96383600  0.18570500  0.53994800  1
  Be  Be2  1  0.31051100  0.53994800  0.18570500  1
  Be  Be3  1  0.18570500  0.96383600  0.31051100  1
  Be  Be4  1  0.03616400  0.68948900  0.46005200  1
  Be  Be5  1  0.46005200  0.81429500  0.03616400  1
  Be  Be6  1  0.68948900  0.03616400  0.81429500  1
  Be  Be7  1  0.81429500  0.46005200  0.68948900  1
  Be  Be8  1  0.96383600  0.53994800  0.31051100  1
  Be  Be9  1  0.53994800  0.96383600  0.18570500  1
  Be  Be10  1  0.18570500  0.31051100  0.53994800  1
  Be  Be11  1  0.31051100  0.18570500  0.96383600  1
  Be  Be12  1  0.46005200  0.03616400  0.68948900  1
  Be  Be13  1  0.03616400  0.46005200  0.81429500  1
  Be  Be14  1  0.81429500  0.68948900  0.03616400  1
  Be  Be15  1  0.68948900  0.81429500  0.46005200  1
  Be  Be16  1  0.31051100  0.96383600  0.53994800  1
  Be  Be17  1  0.18570500  0.53994800  0.96383600  1
  Be  Be18  1  0.53994800  0.18570500  0.31051100  1
  Be  Be19  1  0.96383600  0.31051100  0.18570500  1
  Be  Be20  1  0.68948900  0.46005200  0.03616400  1
  Be  Be21  1  0.81429500  0.03616400  0.46005200  1
  Be  Be22  1  0.03616400  0.81429500  0.68948900  1
  Be  Be23  1  0.46005200  0.68948900  0.81429500  1
  Be  Be24  1  0.25000000  0.25000000  0.25000000  1
  Be  Be25  1  0.75000000  0.75000000  0.75000000  1
loop_
_geom_bond_atom_site_label_1
_geom_bond_atom_site_label_2
_geom_bond_distance
_geom_bond_site_symmetry_2
Be0 Be24 2.152264 1_556
Be0 Be18 2.220732 1_556
Be0 Be9 2.220732 1_546
Be0 Be20 2.238166 1_556
Be0 Be11 2.272471 1_555
Be0 Be17 2.272471 1_555
Be0 Be23 2.278486 1_555
Be0 Be6 2.281554 1_555
Be0 Be7 2.281554 1_555
Be0 Be2 2.330553 1_556
Be0 Ce0 3.027730 1_656
Be0 La0 3.060867 1_555
Be1 Be24 2.152264 1_655
Be1 Be16 2.220732 1_645
Be1 Be10 2.220732 1_655
Be1 Be22 2.238166 1_645
Be1 Be19 2.272471 1_555
Be1 Be8 2.272471 1_555
Be1 Be21 2.278486 1_555
Be1 Be6 2.281554 1_555
Be1 Be7 2.281554 1_555
Be1 Be3 2.330553 1_645
Be1 Ce0 3.027730 1_656
Be1 La0 3.060867 1_555
Be2 Be24 2.152264 1_555
Be2 Be8 2.220732 1_455
Be2 Be23 2.238166 1_554
Be2 Be20 2.278486 1_555
Be2 Be4 2.281554 1_555
Be2 Be5 2.281554 1_555
Be2 Ce0 3.027730 1_565
Be2 La0 3.060867 1_555
Be3 Be9 2.272471 1_555
Be3 Be4 2.281554 1_555
Be3 Be5 2.281554 1_555
Be3 Ce0 3.027730 1_565
Be3 La0 3.060867 1_555
Be4 Be8 2.238166 1_455
Be4 Be7 2.330553 1_455
Be4 Ce0 3.027730 1_565
Be4 La0 3.060867 1_555
Be5 Be9 2.278486 1_555
Be5 Be6 2.330553 1_564
Be5 Ce0 3.027730 1_565
Be5 La0 3.060867 1_555
Be6 Be9 2.238166 1_546
Be6 Ce0 3.027730 1_656
Be6 La0 3.060867 1_555
Be7 Be8 2.278486 1_555
Be7 Ce0 3.027730 1_656
Be7 La0 3.060867 1_555
Be8 Ce0 3.027730 1_665
Be8 La0 3.060867 1_555
Be9 Ce0 3.027730 1_665
Be9 La0 3.060867 1_555
Be10 Be24 2.152264 1_555
Be10 Be16 2.220732 1_545
Be10 Be7 2.238166 1_455
Be10 Be2 2.272471 1_555
Be10 Be18 2.272471 1_555
Be10 Be4 2.278486 1_555
Be10 Be12 2.281554 1_555
Be10 Be13 2.281554 1_555
Be10 Be8 2.330553 1_455
Be10 Ce0 3.027730 1_556
Be10 La0 3.060867 1_555
Be11 Be24 2.152264 1_556
Be11 Be3 2.220732 1_546
Be11 Be19 2.220732 1_456
Be11 Be5 2.238166 1_546
Be11 Be17 2.272471 1_555
Be11 Be6 2.278486 1_555
Be11 Be12 2.281554 1_555
Be11 Be13 2.281554 1_555
Be11 Be9 2.330553 1_546
Be11 Ce0 3.027730 1_556
Be11 La0 3.060867 1_555
Be12 Be25 2.152264 1_545
Be12 Be23 2.220732 1_545
Be12 Be5 2.220732 1_546
Be12 Be16 2.238166 1_545
Be12 Be6 2.272471 1_555
Be12 Be21 2.272471 1_555
Be12 Be18 2.278486 1_555
Be12 Be15 2.330553 1_545
Be12 Ce0 3.027730 1_556
Be12 La0 3.060867 1_555
Be13 Be25 2.152264 1_455
Be13 Be7 2.220732 1_455
Be13 Be20 2.220732 1_456
Be13 Be19 2.238166 1_456
Be13 Be22 2.272471 1_555
Be13 Be4 2.272471 1_555
Be13 Be17 2.278486 1_555
Be13 Be14 2.330553 1_456
Be13 Ce0 3.027730 1_556
Be13 La0 3.060867 1_555
Be14 Be25 2.152264 1_554
Be14 Be22 2.220732 1_654
Be14 Be6 2.220732 1_564
Be14 Be17 2.238166 1_654
Be14 Be20 2.272471 1_555
Be14 Be5 2.272471 1_555
Be14 Be19 2.278486 1_555
Be14 Be9 2.281554 1_555
Be14 Be8 2.281554 1_555
Be14 Ce0 3.027730 1_665
Be14 La0 3.060867 1_555
Be15 Be25 2.152264 1_555
Be15 Be4 2.220732 1_655
Be15 Be21 2.220732 1_565
Be15 Be18 2.238166 1_565
Be15 Be23 2.272471 1_555
Be15 Be7 2.272471 1_555
Be15 Be16 2.278486 1_555
Be15 Be9 2.281554 1_555
Be15 Be8 2.281554 1_555
Be15 Ce0 3.027730 1_665
Be15 La0 3.060867 1_555
Be16 Be24 2.152264 1_565
Be16 Be3 2.272471 1_555
Be16 Be9 2.272471 1_555
Be16 Be22 2.281554 1_555
Be16 Be23 2.281554 1_555
Be16 Be18 2.330553 1_565
Be16 Ce0 3.027730 1_566
Be16 La0 3.060867 1_555
Be17 Be24 2.152264 1_556
Be17 Be8 2.220732 1_456
Be17 Be2 2.220732 1_556
Be17 Be22 2.281554 1_555
Be17 Be23 2.281554 1_555
Be17 Be19 2.330553 1_456
Be17 Ce0 3.027730 1_566
Be17 La0 3.060867 1_555
Be18 Be24 2.152264 1_555
Be18 Be9 2.220732 1_545
Be18 Be2 2.272471 1_555
Be18 Be21 2.281554 1_555
Be18 Be20 2.281554 1_555
Be18 Ce0 3.027730 1_655
Be18 La0 3.060867 1_555
Be19 Be24 2.152264 1_655
Be19 Be3 2.220732 1_645
Be19 Be8 2.272471 1_555
Be19 Be20 2.281554 1_555
Be19 Be21 2.281554 1_555
Be19 Ce0 3.027730 1_655
Be19 La0 3.060867 1_555
Be20 Be25 2.152264 1_554
Be20 Be7 2.220732 1_554
Be20 Be5 2.272471 1_555
Be20 Be23 2.330553 1_554
Be20 Ce0 3.027730 1_655
Be20 La0 3.060867 1_555
Be21 Be25 2.152264 1_545
Be21 Be4 2.220732 1_645
Be21 Be3 2.238166 1_645
Be21 Be6 2.272471 1_555
Be21 Be22 2.330553 1_645
Be21 Ce0 3.027730 1_655
Be21 La0 3.060867 1_555
Be22 Be25 2.152264 1_455
Be22 Be6 2.220732 1_465
Be22 Be4 2.272471 1_555
Be22 Be3 2.278486 1_555
Be22 Ce0 3.027730 1_566
Be22 La0 3.060867 1_555
Be23 Be25 2.152264 1_555
Be23 Be5 2.220732 1_556
Be23 Be7 2.272471 1_555
Be23 Ce0 3.027730 1_566
Be23 La0 3.060867 1_555
Be24 Be8 2.152264 1_455
Be24 Be9 2.152264 1_545
Be24 Be3 2.152264 1_545
Be25 Be7 2.152264 1_555
Be25 Be4 2.152264 1_655
Be25 Be5 2.152264 1_556
Be25 Be6 2.152264 1_565
