# generated using pymatgen
data_ErCuGe
_symmetry_space_group_name_H-M   'P 1'
_cell_length_a   4.32824911
_cell_length_b   4.32824911
_cell_length_c   7.19028200
_cell_angle_alpha   90.00000000
_cell_angle_beta   90.00000000
_cell_angle_gamma   120.00001692
_symmetry_Int_Tables_number   1
_chemical_formula_structural   ErCuGe
_chemical_formula_sum   'Er2 Cu2 Ge2'
_cell_volume   116.65436055
_cell_formula_units_Z   2
loop_
 _symmetry_equiv_pos_site_id
 _symmetry_equiv_pos_as_xyz
  1  'x, y, z'
loop_
 _atom_site_type_symbol
 _atom_site_label
 _atom_site_symmetry_multiplicity
 _atom_site_fract_x
 _atom_site_fract_y
 _atom_site_fract_z
 _atom_site_occupancy
  Er  Er0  1  0.00000000  0.00000000  0.23735300  1
  Er  Er1  1  0.00000000  0.00000000  0.76264700  1
  Cu  Cu0  1  0.33333300  0.66666700  0.02263600  1
  Cu  Cu1  1  0.66666700  0.33333300  0.97736400  1
  Ge  Ge0  1  0.66666700  0.33333300  0.53376300  1
  Ge  Ge1  1  0.33333300  0.66666700  0.46623700  1
loop_
_geom_bond_atom_site_label_1
_geom_bond_atom_site_label_2
_geom_bond_distance
_geom_bond_site_symmetry_2
Er0 Ge1 2.992162 1_545
Er0 Ge1 2.992164 1_445
Er0 Ge1 2.992164 1_555
Er0 Ge0 3.284340 1_455
Er0 Ge0 3.284342 1_445
Er0 Ge0 3.284342 1_555
Er1 Ge0 2.992162 1_455
Er1 Ge0 2.992164 1_445
Er1 Ge0 2.992164 1_555
Er1 Ge1 3.284340 1_545
Er1 Ge1 3.284342 1_555
Er1 Ge1 3.284342 1_445
Cu0 Cu1 2.520025 1_454
Cu0 Cu1 2.520025 1_564
Cu0 Cu1 2.520033 1_554
Cu0 Er0 2.937366 1_565
Cu0 Er0 2.937369 1_555
Cu0 Er0 2.937369 1_665
Cu0 Er1 3.120770 1_564
Cu0 Er1 3.120772 1_664
Cu0 Er1 3.120772 1_554
Cu0 Ge1 3.189616 1_555
Cu1 Er1 2.937366 1_655
Cu1 Er1 2.937369 1_665
Cu1 Er1 2.937369 1_555
Cu1 Er0 3.120770 1_656
Cu1 Er0 3.120772 1_666
Cu1 Er0 3.120772 1_556
Cu1 Ge0 3.189616 1_555
Ge0 Ge1 2.545644 1_545
Ge0 Ge1 2.545644 1_655
Ge0 Ge1 2.545652 1_555
