# generated using pymatgen
data_Sr2ZnMoO6
_symmetry_space_group_name_H-M   'P 1'
_cell_length_a   5.68972340
_cell_length_b   5.68972340
_cell_length_c   5.68972340
_cell_angle_alpha   60.00000000
_cell_angle_beta   60.00000000
_cell_angle_gamma   60.00000000
_symmetry_Int_Tables_number   1
_chemical_formula_structural   Sr2ZnMoO6
_chemical_formula_sum   'Sr2 Zn1 Mo1 O6'
_cell_volume   130.24422168
_cell_formula_units_Z   1
loop_
 _symmetry_equiv_pos_site_id
 _symmetry_equiv_pos_as_xyz
  1  'x, y, z'
loop_
 _atom_site_type_symbol
 _atom_site_label
 _atom_site_symmetry_multiplicity
 _atom_site_fract_x
 _atom_site_fract_y
 _atom_site_fract_z
 _atom_site_occupancy
  Sr  Sr0  1  0.25000000  0.25000000  0.25000000  1
  Sr  Sr1  1  0.75000000  0.75000000  0.75000000  1
  Zn  Zn0  1  0.50000000  0.50000000  0.50000000  1
  Mo  Mo0  1  0.00000000  0.00000000  0.00000000  1
  O  O0  1  0.75898200  0.24101800  0.75898200  1
  O  O1  1  0.24101800  0.24101800  0.75898200  1
  O  O2  1  0.75898200  0.75898200  0.24101800  1
  O  O3  1  0.75898200  0.24101800  0.24101800  1
  O  O4  1  0.24101800  0.75898200  0.24101800  1
  O  O5  1  0.24101800  0.75898200  0.75898200  1
loop_
_geom_bond_atom_site_label_1
_geom_bond_atom_site_label_2
_geom_bond_distance
_geom_bond_site_symmetry_2
Mo0 O5 1.939347 1_544
Mo0 O2 1.939347 1_445
Mo0 O0 1.939347 1_454
Mo0 O1 1.939347 1_554
Mo0 O4 1.939347 1_545
Mo0 O3 1.939347 1_455
O0 Zn0 2.083895 1_555
O0 Sr0 2.845780 1_556
O0 Sr1 2.845780 1_555
O0 Sr1 2.845780 1_545
O0 Sr0 2.845780 1_655
O1 Zn0 2.083895 1_555
O1 Sr0 2.845780 1_556
O1 Sr1 2.845780 1_545
O1 Sr0 2.845780 1_555
O1 Sr1 2.845780 1_455
O2 Zn0 2.083895 1_555
O2 Sr1 2.845780 1_555
O2 Sr0 2.845780 1_565
O2 Sr0 2.845780 1_655
O2 Sr1 2.845780 1_554
O3 Zn0 2.083895 1_555
O3 Sr0 2.845780 1_655
O3 Sr0 2.845780 1_555
O3 Sr1 2.845780 1_545
O3 Sr1 2.845780 1_554
O4 Zn0 2.083895 1_555
O4 Sr0 2.845780 1_565
O4 Sr0 2.845780 1_555
O4 Sr1 2.845780 1_554
O4 Sr1 2.845780 1_455
O5 Zn0 2.083895 1_555
O5 Sr0 2.845780 1_556
O5 Sr0 2.845780 1_565
O5 Sr1 2.845780 1_555
O5 Sr1 2.845780 1_455
