# generated using pymatgen
data_Zn2CoS3
_symmetry_space_group_name_H-M   'P 1'
_cell_length_a   3.76556423
_cell_length_b   3.76556423
_cell_length_c   9.31455875
_cell_angle_alpha   90.00000000
_cell_angle_beta   90.00000000
_cell_angle_gamma   120.00000000
_symmetry_Int_Tables_number   1
_chemical_formula_structural   Zn2CoS3
_chemical_formula_sum   'Zn2 Co1 S3'
_cell_volume   114.38077554
_cell_formula_units_Z   1
loop_
 _symmetry_equiv_pos_site_id
 _symmetry_equiv_pos_as_xyz
  1  'x, y, z'
loop_
 _atom_site_type_symbol
 _atom_site_label
 _atom_site_symmetry_multiplicity
 _atom_site_fract_x
 _atom_site_fract_y
 _atom_site_fract_z
 _atom_site_occupancy
  Zn  Zn0  1  0.66666700  0.33333300  0.33017900  1
  Zn  Zn1  1  0.33333300  0.66666700  0.67229200  1
  Co  Co0  1  0.00000000  0.00000000  0.99610100  1
  S  S0  1  0.00000000  0.00000000  0.24119100  1
  S  S1  1  0.66666700  0.33333300  0.58355700  1
  S  S2  1  0.33333300  0.66666700  0.92668000  1
loop_
_geom_bond_atom_site_label_1
_geom_bond_atom_site_label_2
_geom_bond_distance
_geom_bond_site_symmetry_2
Co0 S2 2.268173 1_545
Co0 S2 2.268176 1_445
Co0 S2 2.268176 1_555
Co0 S0 2.282905 1_556
S0 Zn0 2.326699 1_455
S0 Zn0 2.326703 1_445
S0 Zn0 2.326703 1_555
S1 Zn1 2.325861 1_545
S1 Zn1 2.325861 1_655
S1 Zn1 2.325867 1_555
S1 Zn0 2.360104 1_555
S2 Zn1 2.369512 1_555
