# generated using pymatgen
data_Si
_symmetry_space_group_name_H-M   'P 1'
_cell_length_a   12.40890494
_cell_length_b   12.68144231
_cell_length_c   12.61042510
_cell_angle_alpha   100.57689881
_cell_angle_beta   97.77001428
_cell_angle_gamma   81.03513706
_symmetry_Int_Tables_number   1
_chemical_formula_structural   Si
_chemical_formula_sum   Si100
_cell_volume   1915.22057266
_cell_formula_units_Z   100
loop_
 _symmetry_equiv_pos_site_id
 _symmetry_equiv_pos_as_xyz
  1  'x, y, z'
loop_
 _atom_site_type_symbol
 _atom_site_label
 _atom_site_symmetry_multiplicity
 _atom_site_fract_x
 _atom_site_fract_y
 _atom_site_fract_z
 _atom_site_occupancy
  Si  Si0  1  0.10741590  0.92897358  0.48987046  1
  Si  Si1  1  0.07250490  0.43040674  0.54768075  1
  Si  Si2  1  0.34115849  0.40541743  0.69702304  1
  Si  Si3  1  0.66273768  0.34127785  0.73078018  1
  Si  Si4  1  0.22649202  0.00449643  0.39755873  1
  Si  Si5  1  0.42064090  0.06228509  0.20620509  1
  Si  Si6  1  0.89491607  0.63544797  0.78131884  1
  Si  Si7  1  0.66332989  0.02777760  0.62705427  1
  Si  Si8  1  0.21596282  0.69133626  0.71584105  1
  Si  Si9  1  0.61319604  0.37866152  0.55478787  1
  Si  Si10  1  0.78265403  0.32437399  0.47608638  1
  Si  Si11  1  0.93008507  0.02741934  0.46423009  1
  Si  Si12  1  0.69900643  0.96971341  0.93317123  1
  Si  Si13  1  0.47774809  0.82931637  0.77223173  1
  Si  Si14  1  0.32835063  0.71618396  0.03130209  1
  Si  Si15  1  0.69667730  0.10623258  0.39952046  1
  Si  Si16  1  0.34024514  0.40036650  0.49253960  1
  Si  Si17  1  0.37405162  0.27700598  0.82545803  1
  Si  Si18  1  0.51678543  0.16504724  0.12259697  1
  Si  Si19  1  0.07220518  0.51731581  0.01468705  1
  Si  Si20  1  0.41944944  0.09360698  0.76618842  1
  Si  Si21  1  0.85320364  0.99675667  0.06781192  1
  Si  Si22  1  0.88764785  0.46632094  0.47159614  1
  Si  Si23  1  0.88960304  0.77192083  0.56325264  1
  Si  Si24  1  0.26121598  0.13201815  0.56375065  1
  Si  Si25  1  0.50644748  0.75953293  0.01580485  1
  Si  Si26  1  0.84342731  0.18033771  0.90092101  1
  Si  Si27  1  0.11509440  0.00856637  0.06422030  1
  Si  Si28  1  0.96144876  0.95798181  0.24323211  1
  Si  Si29  1  0.38550879  0.52887892  0.99736739  1
  Si  Si30  1  0.05626342  0.81348807  0.66551009  1
  Si  Si31  1  0.34176495  0.74181966  0.46964131  1
  Si  Si32  1  0.57112080  0.26786636  0.85373625  1
  Si  Si33  1  0.98425051  0.68904026  0.09535817  1
  Si  Si34  1  0.96827329  0.37674086  0.02140667  1
  Si  Si35  1  0.80264463  0.19322827  0.09617380  1
  Si  Si36  1  0.14780272  0.73905689  0.43521243  1
  Si  Si37  1  0.19642191  0.78187224  0.89681949  1
  Si  Si38  1  0.66958944  0.81594160  0.80578253  1
  Si  Si39  1  0.71719052  0.58408569  0.14846052  1
  Si  Si40  1  0.55319243  0.51847843  0.30558795  1
  Si  Si41  1  0.68487858  0.17963796  0.23451416  1
  Si  Si42  1  0.41705163  0.91864019  0.94451564  1
  Si  Si43  1  0.35784381  0.84880323  0.34093222  1
  Si  Si44  1  0.50806573  0.71083226  0.20219257  1
  Si  Si45  1  0.40543880  0.88240299  0.60555765  1
  Si  Si46  1  0.95180597  0.20775555  0.45373959  1
  Si  Si47  1  0.83437402  0.76138909  0.37653886  1
  Si  Si48  1  0.88612347  0.99343897  0.79376492  1
  Si  Si49  1  0.92938264  0.31758584  0.17604396  1
  Si  Si50  1  0.65360076  0.50494344  0.85161349  1
  Si  Si51  1  0.16443297  0.38918135  0.39581941  1
  Si  Si52  1  0.50452223  0.08801407  0.39889507  1
  Si  Si53  1  0.74116516  0.66050964  0.87745987  1
  Si  Si54  1  0.46467812  0.04928475  0.57416259  1
  Si  Si55  1  0.78640820  0.71657059  0.06798142  1
  Si  Si56  1  0.94283566  0.62633846  0.25983777  1
  Si  Si57  1  0.09281165  0.25574056  0.59212679  1
  Si  Si58  1  0.25840288  0.44610652  0.06999961  1
  Si  Si59  1  0.54090149  0.90101400  0.16657609  1
  Si  Si60  1  0.71968653  0.84368031  0.63930593  1
  Si  Si61  1  0.51554641  0.06273999  0.94350058  1
  Si  Si62  1  0.01220968  0.31721174  0.75361992  1
  Si  Si63  1  0.65422213  0.32327406  0.03077687  1
  Si  Si64  1  0.83765492  0.47581138  0.27310392  1
  Si  Si65  1  0.77134155  0.44163052  0.00015853  1
  Si  Si66  1  0.04575710  0.06924231  0.89703585  1
  Si  Si67  1  0.65774448  0.69760978  0.36019548  1
  Si  Si68  1  0.28684965  0.07243725  0.04358196  1
  Si  Si69  1  0.08011719  0.79005193  0.25233639  1
  Si  Si70  1  0.41457937  0.66037969  0.72079871  1
  Si  Si71  1  0.04827158  0.25133908  0.31521288  1
  Si  Si72  1  0.03936760  0.83424073  0.00305500  1
  Si  Si73  1  0.68185118  0.09742771  0.81529867  1
  Si  Si74  1  0.55076705  0.49293239  0.11406784  1
  Si  Si75  1  0.10359707  0.06745627  0.25384281  1
  Si  Si76  1  0.54661129  0.87209037  0.35105100  1
  Si  Si77  1  0.70050491  0.37035770  0.30878322  1
  Si  Si78  1  0.39840809  0.55026490  0.41168450  1
  Si  Si79  1  0.83079344  0.61510361  0.59426168  1
  Si  Si80  1  0.26121439  0.00239332  0.68618164  1
  Si  Si81  1  0.06142633  0.00295686  0.67807824  1
  Si  Si82  1  0.04117197  0.50119362  0.82223730  1
  Si  Si83  1  0.26188960  0.73893829  0.20070387  1
  Si  Si84  1  0.48803238  0.28225811  0.42506057  1
  Si  Si85  1  0.16828498  0.51734952  0.70530346  1
  Si  Si86  1  0.64698308  0.68567503  0.54464462  1
  Si  Si87  1  0.52614426  0.56995189  0.57541769  1
  Si  Si88  1  0.80154150  0.93521627  0.32547824  1
  Si  Si89  1  0.27145499  0.25680623  0.97687437  1
  Si  Si90  1  0.45426887  0.52119521  0.82687050  1
  Si  Si91  1  0.84209197  0.24780602  0.73556000  1
  Si  Si92  1  0.11692630  0.56162128  0.34170285  1
  Si  Si93  1  0.50516459  0.32745216  0.25109935  1
  Si  Si94  1  0.26694719  0.56116195  0.24563330  1
  Si  Si95  1  0.08278593  0.24739895  0.91031833  1
  Si  Si96  1  0.84496950  0.07219796  0.62809159  1
  Si  Si97  1  0.95950267  0.81222790  0.81949224  1
  Si  Si98  1  0.72539034  0.90325161  0.13837740  1
  Si  Si99  1  0.22401121  0.95664533  0.85956349  1
loop_
_geom_bond_atom_site_label_1
_geom_bond_atom_site_label_2
_geom_bond_distance
_geom_bond_site_symmetry_2
Si0 Si11 2.367464 1_465
Si0 Si36 2.373717 1_555
Si0 Si4 2.402314 1_565
Si0 Si81 2.494146 1_565
Si1 Si51 2.297655 1_555
Si1 Si57 2.351078 1_555
Si1 Si85 2.354617 1_555
Si1 Si22 2.372670 1_455
Si2 Si85 2.384259 1_555
Si2 Si90 2.438267 1_555
Si3 Si9 2.335518 1_555
Si3 Si50 2.335556 1_555
Si3 Si91 2.351537 1_555
Si3 Si32 2.428930 1_555
Si4 Si75 2.377395 1_555
Si4 Si43 2.420551 1_545
Si5 Si59 2.352577 1_545
Si5 Si68 2.467412 1_555
Si5 Si52 2.495037 1_555
Si6 Si82 2.359019 1_655
Si6 Si79 2.365800 1_555
Si6 Si97 2.441165 1_555
Si7 Si73 2.369413 1_555
Si7 Si96 2.404747 1_555
Si8 Si85 2.348155 1_555
Si10 Si77 2.348437 1_555
Si10 Si46 2.389936 1_555
Si10 Si22 2.393588 1_555
Si10 Si9 2.396444 1_555
Si11 Si46 2.373389 1_555
Si11 Si96 2.383338 1_555
Si11 Si88 2.459379 1_545
Si11 Si28 2.824735 1_545
Si12 Si38 2.330197 1_555
Si12 Si73 2.359799 1_565
Si12 Si21 2.402889 1_556
Si12 Si61 2.403763 1_565
Si12 Si98 2.828344 1_556
Si13 Si45 2.344626 1_555
Si13 Si70 2.345336 1_555
Si13 Si38 2.345830 1_555
Si13 Si42 2.417351 1_555
Si14 Si83 2.345803 1_555
Si14 Si29 2.347784 1_554
Si14 Si37 2.364934 1_554
Si14 Si25 2.399851 1_555
Si15 Si41 2.409138 1_555
Si15 Si52 2.430000 1_555
Si15 Si88 2.444194 1_545
Si16 Si84 2.329932 1_555
Si16 Si51 2.362355 1_555
Si16 Si78 2.551893 1_555
Si16 Si2 2.566168 1_555
Si17 Si20 2.313552 1_555
Si17 Si32 2.410744 1_555
Si17 Si2 2.454369 1_555
Si17 Si89 2.504164 1_555
Si18 Si5 2.358456 1_555
Si18 Si41 2.367546 1_555
Si18 Si93 2.373564 1_555
Si18 Si61 2.388591 1_554
Si19 Si34 2.376971 1_455
Si19 Si82 2.381070 1_554
Si19 Si33 2.390546 1_455
Si19 Si58 2.405339 1_555
Si20 Si80 2.440309 1_555
Si20 Si61 2.455540 1_555
Si20 Si54 2.502840 1_555
Si21 Si35 2.444521 1_565
Si21 Si98 2.463433 1_555
Si21 Si28 2.515854 1_555
Si22 Si79 2.293304 1_555
Si22 Si64 2.516376 1_555
Si23 Si79 2.335638 1_555
Si23 Si47 2.346943 1_555
Si23 Si30 2.363632 1_655
Si23 Si60 2.412882 1_555
Si24 Si4 2.433482 1_555
Si24 Si57 2.435342 1_555
Si24 Si80 2.453067 1_555
Si24 Si54 2.574437 1_555
Si25 Si59 2.404942 1_555
Si25 Si42 2.410097 1_554
Si25 Si44 2.534288 1_555
Si26 Si91 2.392049 1_555
Si26 Si73 2.438470 1_555
Si26 Si48 2.520065 1_545
Si26 Si35 2.551223 1_556
Si26 Si66 2.682603 1_655
Si27 Si66 2.382408 1_554
Si27 Si75 2.387357 1_555
Si27 Si68 2.455931 1_555
Si27 Si72 2.488093 1_545
Si28 Si75 2.384912 1_665
Si28 Si69 2.404880 1_655
Si28 Si88 2.437482 1_555
Si29 Si58 2.384948 1_556
Si29 Si74 2.391176 1_556
Si29 Si90 2.398622 1_555
Si30 Si81 2.389101 1_565
Si30 Si8 2.407004 1_555
Si30 Si97 2.420791 1_455
Si31 Si43 2.344174 1_555
Si31 Si45 2.385667 1_555
Si31 Si36 2.391827 1_555
Si31 Si78 2.425730 1_555
Si32 Si63 2.359835 1_556
Si32 Si73 2.380026 1_555
Si33 Si55 2.411656 1_555
Si33 Si69 2.425278 1_655
Si33 Si56 2.493900 1_555
Si33 Si72 2.570562 1_655
Si34 Si49 2.345769 1_555
Si34 Si95 2.374937 1_654
Si34 Si65 2.449048 1_555
Si35 Si49 2.395068 1_555
Si35 Si63 2.435962 1_555
Si35 Si41 2.467150 1_555
Si36 Si92 2.402681 1_555
Si36 Si69 2.509268 1_555
Si37 Si8 2.384626 1_555
Si37 Si99 2.431560 1_555
Si37 Si72 2.451500 1_556
Si38 Si53 2.320015 1_555
Si38 Si60 2.368450 1_555
Si39 Si55 2.429371 1_555
Si39 Si65 2.435930 1_555
Si39 Si74 2.471208 1_555
Si39 Si64 2.471383 1_555
Si39 Si67 2.921718 1_555
Si40 Si74 2.373807 1_555
Si40 Si77 2.410234 1_555
Si40 Si78 2.428414 1_555
Si40 Si93 2.534546 1_555
Si40 Si67 2.724045 1_555
Si41 Si77 2.455580 1_555
Si41 Si93 2.685147 1_555
Si42 Si61 2.354193 1_565
Si42 Si99 2.500766 1_555
Si42 Si68 2.577633 1_566
Si43 Si83 2.351408 1_555
Si43 Si76 2.389823 1_555
Si44 Si67 2.544167 1_555
Si44 Si76 2.566576 1_555
Si44 Si59 2.633976 1_555
Si44 Si74 2.779756 1_555
Si45 Si80 2.372203 1_565
Si45 Si54 2.459056 1_565
Si46 Si57 2.365085 1_655
Si46 Si71 2.432285 1_655
Si47 Si88 2.368569 1_555
Si47 Si56 2.408780 1_555
Si47 Si67 2.422747 1_555
Si48 Si97 2.399362 1_555
Si48 Si96 2.437567 1_565
Si48 Si66 2.445461 1_665
Si48 Si73 2.692740 1_565
Si48 Si81 2.807027 1_665
Si49 Si71 2.327466 1_655
Si49 Si64 2.362870 1_555
Si50 Si53 2.348424 1_555
Si50 Si65 2.394728 1_556
Si50 Si90 2.431879 1_555
Si51 Si92 2.373305 1_555
Si51 Si71 2.429694 1_555
Si52 Si84 2.404444 1_555
Si52 Si54 2.477966 1_555
Si52 Si76 2.677250 1_545
Si53 Si6 2.346464 1_555
Si53 Si55 2.392808 1_556
Si54 Si7 2.451207 1_555
Si55 Si98 2.411939 1_555
Si56 Si92 2.358296 1_655
Si56 Si64 2.515578 1_555
Si57 Si62 2.341011 1_555
Si58 Si94 2.417417 1_555
Si58 Si89 2.462424 1_554
Si59 Si98 2.369017 1_555
Si59 Si76 2.410776 1_555
Si60 Si7 2.357486 1_565
Si60 Si86 2.376537 1_555
Si62 Si95 2.321239 1_555
Si62 Si91 2.378707 1_455
Si62 Si82 2.399501 1_555
Si63 Si65 2.357612 1_555
Si63 Si74 2.460578 1_555
Si64 Si77 2.454480 1_555
Si66 Si95 2.346773 1_555
Si66 Si99 2.491069 1_545
Si66 Si81 2.758715 1_555
Si67 Si86 2.381271 1_555
Si67 Si76 2.431179 1_555
Si68 Si89 2.598087 1_554
Si68 Si99 2.601124 1_544
Si69 Si83 2.391302 1_555
Si70 Si90 2.358999 1_555
Si70 Si8 2.428611 1_555
Si70 Si87 2.452009 1_555
Si71 Si75 2.343121 1_555
Si72 Si97 2.376363 1_454
Si77 Si93 2.547497 1_555
Si78 Si87 2.426334 1_555
Si78 Si94 2.485411 1_555
Si79 Si86 2.361855 1_555
Si80 Si81 2.466359 1_555
Si80 Si99 2.480359 1_545
Si81 Si96 2.719054 1_455
Si82 Si85 2.354760 1_555
Si83 Si94 2.413038 1_555
Si84 Si9 2.398668 1_555
Si84 Si93 2.410754 1_555
Si86 Si87 2.367469 1_555
Si87 Si9 2.479288 1_555
Si88 Si98 2.406145 1_555
Si89 Si95 2.391389 1_555
Si91 Si96 2.382776 1_555
Si92 Si94 2.353103 1_555
