# generated using pymatgen
data_Ca(MnAl2)4
_symmetry_space_group_name_H-M   'P 1'
_cell_length_a   6.72131587
_cell_length_b   6.72131587
_cell_length_c   6.72131587
_cell_angle_alpha   98.54951266
_cell_angle_beta   98.54951266
_cell_angle_gamma   134.64177032
_symmetry_Int_Tables_number   1
_chemical_formula_structural   Ca(MnAl2)4
_chemical_formula_sum   'Ca1 Mn4 Al8'
_cell_volume   199.34109551
_cell_formula_units_Z   1
loop_
 _symmetry_equiv_pos_site_id
 _symmetry_equiv_pos_as_xyz
  1  'x, y, z'
loop_
 _atom_site_type_symbol
 _atom_site_label
 _atom_site_symmetry_multiplicity
 _atom_site_fract_x
 _atom_site_fract_y
 _atom_site_fract_z
 _atom_site_occupancy
  Ca  Ca0  1  0.00000000  0.00000000  0.00000000  1
  Mn  Mn0  1  0.50000000  0.50000000  0.50000000  1
  Mn  Mn1  1  0.00000000  0.00000000  0.50000000  1
  Mn  Mn2  1  0.00000000  0.50000000  0.00000000  1
  Mn  Mn3  1  0.50000000  0.00000000  0.00000000  1
  Al  Al0  1  0.66663700  0.00000000  0.66663700  1
  Al  Al1  1  0.50000000  0.27158300  0.77158300  1
  Al  Al2  1  0.33336300  0.00000000  0.33336300  1
  Al  Al3  1  0.00000000  0.33336300  0.33336300  1
  Al  Al4  1  0.27158300  0.50000000  0.77158300  1
  Al  Al5  1  0.50000000  0.72841700  0.22841700  1
  Al  Al6  1  0.72841700  0.50000000  0.22841700  1
  Al  Al7  1  0.00000000  0.66663700  0.66663700  1
loop_
_geom_bond_atom_site_label_1
_geom_bond_atom_site_label_2
_geom_bond_distance
_geom_bond_site_symmetry_2
Ca0 Mn1 3.360658 1_554
Ca0 Mn2 3.360658 1_545
Ca0 Mn1 3.360658 1_555
Ca0 Mn2 3.360658 1_555
Ca0 Mn0 3.360658 1_444
Ca0 Mn3 3.360658 1_555
Ca0 Mn0 3.360658 1_555
Ca0 Mn3 3.360658 1_455
Mn0 Mn1 2.591536 1_555
Mn0 Mn1 2.591536 1_665
Mn2 Mn3 2.591536 1_565
Mn2 Mn3 2.591536 1_455
Al0 Mn3 2.649729 1_556
Al0 Mn0 2.649729 1_545
Al0 Mn1 2.649729 1_655
Al0 Mn2 2.649729 1_656
Al0 Al4 2.750133 1_655
Al0 Al4 2.750133 1_545
Al0 Al1 2.794517 1_555
Al0 Al5 2.794517 1_545
Al0 Al2 2.922949 1_555
Al0 Ca0 2.923730 1_656
Al1 Mn3 2.553889 1_556
Al1 Mn0 2.553889 1_555
Al1 Mn1 2.553889 1_555
Al1 Mn2 2.553889 1_656
Al1 Al7 2.750133 1_655
Al1 Al7 2.750133 1_545
Al1 Al2 2.794517 1_555
Al1 Al4 2.833109 1_555
Al1 Al6 2.833109 1_556
Al1 Ca0 3.275563 1_556
Al1 Ca0 3.275563 1_666
Al2 Mn3 2.649729 1_555
Al2 Mn0 2.649729 1_555
Al2 Mn1 2.649729 1_555
Al2 Mn2 2.649729 1_545
Al2 Al6 2.750133 1_445
Al2 Al6 2.750133 1_555
Al2 Al5 2.794517 1_545
Al2 Ca0 2.923730 1_555
Al3 Mn2 2.649729 1_555
Al3 Mn3 2.649729 1_455
Al3 Mn0 2.649729 1_555
Al3 Mn1 2.649729 1_555
Al3 Al5 2.750133 1_445
Al3 Al5 2.750133 1_555
Al3 Al6 2.794517 1_455
Al3 Al4 2.794517 1_555
Al3 Al7 2.922949 1_555
Al3 Ca0 2.923730 1_555
Al4 Mn0 2.553889 1_555
Al4 Mn3 2.553889 1_566
Al4 Mn1 2.553889 1_555
Al4 Mn2 2.553889 1_556
Al4 Al7 2.794517 1_555
Al4 Al5 2.833109 1_556
Al4 Ca0 3.275563 1_556
Al4 Ca0 3.275563 1_666
Al5 Mn1 2.553889 1_665
Al5 Mn0 2.553889 1_555
Al5 Mn2 2.553889 1_555
Al5 Mn3 2.553889 1_565
Al5 Al6 2.833109 1_555
Al5 Ca0 3.275563 1_555
Al5 Ca0 3.275563 1_665
Al6 Mn3 2.553889 1_555
Al6 Mn1 2.553889 1_665
Al6 Mn0 2.553889 1_555
Al6 Mn2 2.553889 1_655
Al6 Al7 2.794517 1_655
Al6 Ca0 3.275563 1_665
Al6 Ca0 3.275563 1_555
Al7 Mn3 2.649729 1_566
Al7 Mn2 2.649729 1_556
Al7 Mn0 2.649729 1_455
Al7 Mn1 2.649729 1_565
Al7 Ca0 2.923730 1_566
