# generated using pymatgen
data_La3BeInS7
_symmetry_space_group_name_H-M   'P 1'
_cell_length_a   10.24528022
_cell_length_b   10.24528022
_cell_length_c   6.15305300
_cell_angle_alpha   90.00000000
_cell_angle_beta   90.00000000
_cell_angle_gamma   120.00000140
_symmetry_Int_Tables_number   1
_chemical_formula_structural   La3BeInS7
_chemical_formula_sum   'La6 Be2 In2 S14'
_cell_volume   559.33109520
_cell_formula_units_Z   2
loop_
 _symmetry_equiv_pos_site_id
 _symmetry_equiv_pos_as_xyz
  1  'x, y, z'
loop_
 _atom_site_type_symbol
 _atom_site_label
 _atom_site_symmetry_multiplicity
 _atom_site_fract_x
 _atom_site_fract_y
 _atom_site_fract_z
 _atom_site_occupancy
  La  La0  1  0.74312900  0.13650400  0.74887400  1
  La  La1  1  0.39337500  0.25687100  0.74887400  1
  La  La2  1  0.86349600  0.60662500  0.74887400  1
  La  La3  1  0.25687100  0.86349600  0.24887400  1
  La  La4  1  0.60662500  0.74312900  0.24887400  1
  La  La5  1  0.13650400  0.39337500  0.24887400  1
  Be  Be0  1  0.66666700  0.33333300  0.16135200  1
  Be  Be1  1  0.33333300  0.66666700  0.66135200  1
  In  In0  1  0.00000000  0.00000000  0.51481000  1
  In  In1  1  0.00000000  0.00000000  0.01481000  1
  S  S0  1  0.84343200  0.08163100  0.27012900  1
  S  S1  1  0.23820000  0.15656800  0.27012900  1
  S  S2  1  0.91836900  0.76180000  0.27012900  1
  S  S3  1  0.15656800  0.91836900  0.77012900  1
  S  S4  1  0.76180000  0.84343200  0.77012900  1
  S  S5  1  0.08163100  0.23820000  0.77012900  1
  S  S6  1  0.88515100  0.40520100  0.02957100  1
  S  S7  1  0.52005000  0.11484900  0.02957100  1
  S  S8  1  0.59479900  0.47995000  0.02957100  1
  S  S9  1  0.11484900  0.59479900  0.52957100  1
  S  S10  1  0.47995000  0.88515100  0.52957100  1
  S  S11  1  0.40520100  0.52005000  0.52957100  1
  S  S12  1  0.66666700  0.33333300  0.51010400  1
  S  S13  1  0.33333300  0.66666700  0.01010400  1
loop_
_geom_bond_atom_site_label_1
_geom_bond_atom_site_label_2
_geom_bond_distance
_geom_bond_site_symmetry_2
La0 S7 2.783653 1_556
La0 S12 2.901447 1_555
La0 S6 2.944987 1_556
La0 S10 2.962952 1_545
La0 S5 3.084907 1_655
La0 S4 3.105430 1_545
La0 S0 3.259941 1_555
La0 S0 3.498091 1_556
La1 S8 2.783653 1_556
La1 S12 2.901456 1_555
La1 S7 2.944987 1_556
La1 S11 2.962952 1_555
La1 S3 3.084909 1_545
La1 S5 3.105441 1_555
La1 S1 3.259937 1_555
La1 S1 3.498088 1_556
La2 S6 2.783653 1_556
La2 S12 2.901454 1_555
La2 S8 2.944987 1_556
La2 S9 2.962952 1_655
La2 S4 3.084917 1_555
La2 S3 3.105436 1_655
La2 S2 3.259936 1_555
La2 S2 3.498088 1_556
La3 S10 2.783653 1_555
La3 S13 2.901447 1_555
La3 S9 2.944987 1_555
La3 S7 2.962952 1_565
La3 S2 3.084907 1_455
La3 S1 3.105430 1_565
La3 S3 3.259941 1_554
La3 S3 3.498091 1_555
La4 S11 2.783653 1_555
La4 S13 2.901456 1_555
La4 S10 2.944987 1_555
La4 S8 2.962952 1_555
La4 S0 3.084909 1_565
La4 S2 3.105441 1_555
La4 S4 3.259937 1_554
La4 S4 3.498088 1_555
La5 S9 2.783653 1_555
La5 S13 2.901454 1_555
La5 S11 2.944987 1_555
La5 S6 2.962952 1_455
La5 S1 3.084917 1_555
La5 S0 3.105436 1_455
La5 S5 3.259936 1_554
La5 S5 3.498088 1_555
Be0 S6 2.135891 1_555
Be0 S7 2.135893 1_555
Be0 S8 2.135900 1_555
Be0 S12 2.145890 1_555
Be1 S9 2.135891 1_555
Be1 S10 2.135893 1_555
Be1 S11 2.135900 1_555
Be1 S13 2.145890 1_556
In0 S0 2.623112 1_455
In0 S1 2.623118 1_555
In0 S2 2.623120 1_445
In0 S3 2.661221 1_545
In0 S4 2.661227 1_445
In0 S5 2.661228 1_555
In1 S3 2.623112 1_544
In1 S4 2.623118 1_444
In1 S5 2.623120 1_554
In1 S0 2.661221 1_455
In1 S1 2.661227 1_555
In1 S2 2.661228 1_445
