# generated using pymatgen
data_VAs2Pb2O9
_symmetry_space_group_name_H-M   'P 1'
_cell_length_a   16.70474400
_cell_length_b   7.09437800
_cell_length_c   7.35247013
_cell_angle_alpha   64.19801490
_cell_angle_beta   90.00000000
_cell_angle_gamma   90.00000000
_symmetry_Int_Tables_number   1
_chemical_formula_structural   VAs2Pb2O9
_chemical_formula_sum   'V4 As8 Pb8 O36'
_cell_volume   784.47019703
_cell_formula_units_Z   4
loop_
 _symmetry_equiv_pos_site_id
 _symmetry_equiv_pos_as_xyz
  1  'x, y, z'
loop_
 _atom_site_type_symbol
 _atom_site_label
 _atom_site_symmetry_multiplicity
 _atom_site_fract_x
 _atom_site_fract_y
 _atom_site_fract_z
 _atom_site_occupancy
  V  V0  1  0.25520700  0.74997400  0.77671500  1
  V  V1  1  0.74479300  0.25002600  0.22328500  1
  V  V2  1  0.75520700  0.25002600  0.72328500  1
  V  V3  1  0.24479300  0.74997400  0.27671500  1
  As  As0  1  0.42012900  0.74675300  0.50244800  1
  As  As1  1  0.57987100  0.25324700  0.49755200  1
  As  As2  1  0.92012900  0.25324700  0.99755200  1
  As  As3  1  0.07987100  0.74675300  0.00244800  1
  As  As4  1  0.16323200  0.24992500  0.50563600  1
  As  As5  1  0.83676800  0.75007500  0.49436400  1
  As  As6  1  0.66323200  0.75007500  0.99436400  1
  As  As7  1  0.33676800  0.24992500  0.00563600  1
  Pb  Pb0  1  0.03630600  0.74446000  0.51417300  1
  Pb  Pb1  1  0.96369400  0.25554000  0.48582700  1
  Pb  Pb2  1  0.53630600  0.25554000  0.98582700  1
  Pb  Pb3  1  0.46369400  0.74446000  0.01417300  1
  Pb  Pb4  1  0.37965600  0.24736600  0.51217300  1
  Pb  Pb5  1  0.62034400  0.75263400  0.48782700  1
  Pb  Pb6  1  0.87965600  0.75263400  0.98782700  1
  Pb  Pb7  1  0.12034400  0.24736600  0.01217300  1
  O  O0  1  0.27688600  0.44667600  0.83412300  1
  O  O1  1  0.72311400  0.55332400  0.16587700  1
  O  O2  1  0.77688600  0.55332400  0.66587700  1
  O  O3  1  0.22311400  0.44667600  0.33412300  1
  O  O4  1  0.89861800  0.86269500  0.60828600  1
  O  O5  1  0.10138200  0.13730500  0.39171400  1
  O  O6  1  0.39861800  0.13730500  0.89171400  1
  O  O7  1  0.60138200  0.86269500  0.10828600  1
  O  O8  1  0.01782700  0.93039400  0.83273800  1
  O  O9  1  0.98217300  0.06960600  0.16726200  1
  O  O10  1  0.51782700  0.06960600  0.66726200  1
  O  O11  1  0.48217300  0.93039400  0.33273800  1
  O  O12  1  0.09924500  0.35103000  0.62507700  1
  O  O13  1  0.90075500  0.64897000  0.37492300  1
  O  O14  1  0.59924500  0.64897000  0.87492300  1
  O  O15  1  0.40075500  0.35103000  0.12507700  1
  O  O16  1  0.47682500  0.54838700  0.67164300  1
  O  O17  1  0.52317500  0.45161300  0.32835700  1
  O  O18  1  0.97682500  0.45161300  0.82835700  1
  O  O19  1  0.02317500  0.54838700  0.17164300  1
  O  O20  1  0.73049300  0.93511900  0.83693900  1
  O  O21  1  0.26950700  0.06488100  0.16306100  1
  O  O22  1  0.23049300  0.06488100  0.66306100  1
  O  O23  1  0.76950700  0.93511900  0.33693900  1
  O  O24  1  0.28428400  0.74468200  0.00131300  1
  O  O25  1  0.71571600  0.25531800  0.99868700  1
  O  O26  1  0.78428400  0.25531800  0.49868700  1
  O  O27  1  0.21571600  0.74468200  0.50131300  1
  O  O28  1  0.36117400  0.85099000  0.63228700  1
  O  O29  1  0.63882600  0.14901000  0.36771300  1
  O  O30  1  0.86117400  0.14901000  0.86771300  1
  O  O31  1  0.13882600  0.85099000  0.13228700  1
  O  O32  1  0.14137600  0.65756600  0.86355800  1
  O  O33  1  0.85862400  0.34243400  0.13644200  1
  O  O34  1  0.64137600  0.34243400  0.63644200  1
  O  O35  1  0.35862400  0.65756600  0.36355800  1
loop_
_geom_bond_atom_site_label_1
_geom_bond_atom_site_label_2
_geom_bond_distance
_geom_bond_site_symmetry_2
As0 O16 1.703225 1_555
As0 O11 1.706850 1_555
As0 O28 1.744311 1_555
As0 O35 1.749639 1_555
As1 O17 1.703225 1_555
As1 O10 1.706850 1_555
As1 O29 1.744311 1_555
As1 O34 1.749639 1_555
As2 O18 1.703225 1_555
As2 O9 1.706850 1_556
As2 O30 1.744311 1_555
As2 O33 1.749639 1_556
As3 O19 1.703225 1_555
As3 O8 1.706850 1_554
As3 O31 1.744311 1_555
As3 O32 1.749639 1_554
As4 O12 1.725272 1_555
As4 O5 1.729159 1_555
As4 O22 1.732850 1_555
As4 O3 1.734040 1_555
As5 O13 1.725272 1_555
As5 O4 1.729159 1_555
As5 O23 1.732850 1_555
As5 O2 1.734040 1_555
As6 O14 1.725272 1_555
As6 O7 1.729159 1_556
As6 O20 1.732850 1_555
As6 O1 1.734040 1_556
As7 O15 1.725272 1_555
As7 O6 1.729159 1_554
As7 O21 1.732850 1_555
As7 O0 1.734040 1_554
O0 V0 2.036797 1_555
O1 V1 2.036797 1_555
O2 V2 2.036797 1_555
O3 V3 2.036797 1_555
O4 Pb6 2.569135 1_555
O4 Pb0 2.641566 1_655
O4 Pb1 2.752325 1_565
O5 Pb7 2.569135 1_555
O5 Pb1 2.641566 1_455
O5 Pb0 2.752325 1_545
O6 Pb4 2.569135 1_555
O6 Pb2 2.641566 1_555
O6 Pb3 2.752325 1_546
O7 Pb5 2.569135 1_555
O7 Pb3 2.641566 1_555
O7 Pb2 2.752325 1_564
O8 Pb6 2.639351 1_455
O8 Pb1 2.742740 1_465
O9 Pb7 2.639351 1_655
O9 Pb0 2.742740 1_645
O10 Pb4 2.639351 1_555
O10 Pb3 2.742740 1_546
O11 Pb5 2.639351 1_555
O11 Pb2 2.742740 1_564
O12 Pb7 2.635018 1_556
O12 Pb1 2.690390 1_455
O12 Pb0 2.753090 1_555
O13 Pb6 2.635018 1_554
O13 Pb0 2.690390 1_655
O13 Pb1 2.753090 1_555
O14 Pb5 2.635018 1_555
O14 Pb3 2.690390 1_556
O14 Pb2 2.753090 1_555
O15 Pb4 2.635018 1_555
O15 Pb2 2.690390 1_554
O15 Pb3 2.753090 1_555
O16 Pb2 2.542033 1_555
O16 Pb5 2.822969 1_555
O17 Pb3 2.542033 1_555
O17 Pb4 2.822969 1_555
O18 Pb0 2.542033 1_655
O18 Pb7 2.822969 1_656
O19 Pb1 2.542033 1_455
O19 Pb6 2.822969 1_454
O20 V2 2.057823 1_565
O20 Pb6 2.804502 1_555
O21 V3 2.057823 1_545
O21 Pb7 2.804502 1_555
O22 V0 2.057823 1_545
O22 Pb4 2.804502 1_555
O23 V1 2.057823 1_565
O23 Pb5 2.804502 1_555
O24 V0 1.705967 1_554
O24 V3 2.145445 1_555
O25 V1 1.705967 1_556
O25 V2 2.145445 1_555
O26 V2 1.705967 1_555
O26 V1 2.145445 1_555
O27 V3 1.705967 1_555
O27 V0 2.145445 1_555
O28 V0 2.027851 1_555
O28 Pb4 2.573121 1_565
O29 V1 2.027851 1_555
O29 Pb5 2.573121 1_545
O30 V2 2.027851 1_555
O30 Pb6 2.573121 1_545
O31 V3 2.027851 1_555
O31 Pb7 2.573121 1_565
O32 V0 2.022091 1_555
O32 Pb7 2.649157 1_556
O33 V1 2.022091 1_555
O33 Pb6 2.649157 1_554
O34 V2 2.022091 1_555
O34 Pb5 2.649157 1_555
O35 V3 2.022091 1_555
O35 Pb4 2.649157 1_555
