# generated using pymatgen
data_Sr3CoRuO6
_symmetry_space_group_name_H-M   'P 1'
_cell_length_a   6.67972483
_cell_length_b   6.87526874
_cell_length_c   6.69891412
_cell_angle_alpha   91.70561782
_cell_angle_beta   93.16814026
_cell_angle_gamma   91.88337960
_symmetry_Int_Tables_number   1
_chemical_formula_structural   Sr3CoRuO6
_chemical_formula_sum   'Sr6 Co2 Ru2 O12'
_cell_volume   306.85708202
_cell_formula_units_Z   2
loop_
 _symmetry_equiv_pos_site_id
 _symmetry_equiv_pos_as_xyz
  1  'x, y, z'
loop_
 _atom_site_type_symbol
 _atom_site_label
 _atom_site_symmetry_multiplicity
 _atom_site_fract_x
 _atom_site_fract_y
 _atom_site_fract_z
 _atom_site_occupancy
  Sr  Sr0  1  0.61443200  0.89146900  0.25062400  1
  Sr  Sr1  1  0.88531000  0.24877600  0.61483300  1
  Sr  Sr2  1  0.24993100  0.60874300  0.88432000  1
  Sr  Sr3  1  0.11466300  0.75131600  0.38515900  1
  Sr  Sr4  1  0.75092300  0.39163900  0.11579800  1
  Sr  Sr5  1  0.38560100  0.10881300  0.75009800  1
  Co  Co0  1  0.23405400  0.25402100  0.26598300  1
  Co  Co1  1  0.76648000  0.74366900  0.73390300  1
  Ru  Ru0  1  0.99950100  0.00009900  0.99987200  1
  Ru  Ru1  1  0.49985200  0.50011200  0.49966000  1
  O  O0  1  0.52692200  0.21378100  0.40068200  1
  O  O1  1  0.20781400  0.40900600  0.53680200  1
  O  O2  1  0.41679900  0.55512800  0.22036500  1
  O  O3  1  0.03211700  0.90762700  0.70823300  1
  O  O4  1  0.89797700  0.71406700  0.02666000  1
  O  O5  1  0.72044800  0.06091700  0.92230600  1
  O  O6  1  0.47285900  0.78611100  0.59950600  1
  O  O7  1  0.79208900  0.59107400  0.46250400  1
  O  O8  1  0.58384200  0.44523700  0.77904500  1
  O  O9  1  0.96723100  0.09236900  0.29190000  1
  O  O10  1  0.10202200  0.28609400  0.97321600  1
  O  O11  1  0.27913100  0.93992900  0.07853100  1
loop_
_geom_bond_atom_site_label_1
_geom_bond_atom_site_label_2
_geom_bond_distance
_geom_bond_site_symmetry_2
Co0 O9 2.087450 1_455
Co0 O1 2.095183 1_555
Co0 O10 2.126069 1_554
Co0 O0 2.138480 1_555
Co0 O2 2.404567 1_555
Co0 O11 2.500783 1_545
Co1 O3 2.088660 1_655
Co1 O7 2.089970 1_555
Co1 O4 2.122304 1_556
Co1 O6 2.144882 1_555
Co1 O8 2.388063 1_555
Co1 O5 2.523493 1_565
O0 Ru1 2.075252 1_555
O0 Sr0 2.506039 1_545
O0 Sr5 2.681578 1_555
O0 Sr1 2.721914 1_555
O0 Sr4 2.776765 1_555
O1 Ru1 2.059667 1_555
O1 Sr1 2.475947 1_455
O1 Sr2 2.663909 1_555
O1 Sr3 2.669577 1_555
O1 Sr5 2.803703 1_555
O2 Ru1 1.972962 1_555
O2 Sr2 2.498991 1_554
O2 Sr0 2.621652 1_555
O2 Sr4 2.650686 1_555
O2 Sr3 2.729047 1_555
O3 Ru0 2.061719 1_465
O3 Sr3 2.485018 1_555
O3 Sr1 2.650502 1_465
O3 Sr5 2.693716 1_565
O3 Sr2 2.807497 1_555
O4 Ru0 2.075138 1_564
O4 Sr4 2.497208 1_555
O4 Sr2 2.697989 1_654
O4 Sr3 2.735477 1_655
O4 Sr0 2.771792 1_555
O5 Ru0 1.968865 1_555
O5 Sr5 2.495563 1_555
O5 Sr4 2.580054 1_556
O5 Sr0 2.639397 1_546
O5 Sr1 2.727452 1_555
O6 Ru1 2.074763 1_555
O6 Sr5 2.509309 1_565
O6 Sr0 2.679780 1_555
O6 Sr3 2.721392 1_555
O6 Sr2 2.770904 1_555
O7 Ru1 2.060665 1_555
O7 Sr3 2.475140 1_655
O7 Sr4 2.658011 1_555
O7 Sr1 2.671429 1_555
O7 Sr0 2.799594 1_555
O8 Ru1 1.974786 1_555
O8 Sr4 2.503716 1_556
O8 Sr5 2.623868 1_555
O8 Sr2 2.650918 1_555
O8 Sr1 2.724850 1_555
O9 Ru0 2.063400 1_554
O9 Sr1 2.483286 1_555
O9 Sr3 2.651292 1_645
O9 Sr0 2.688705 1_545
O9 Sr4 2.804355 1_555
O10 Ru0 2.076793 1_455
O10 Sr2 2.500243 1_555
O10 Sr4 2.693927 1_456
O10 Sr1 2.734926 1_455
O10 Sr5 2.768382 1_555
O11 Ru0 1.972977 1_464
O11 Sr0 2.498578 1_555
O11 Sr2 2.584910 1_554
O11 Sr5 2.639201 1_564
O11 Sr3 2.724353 1_555
