# generated using pymatgen
data_NaY3
_symmetry_space_group_name_H-M   'P 1'
_cell_length_a   5.67258879
_cell_length_b   5.67258879
_cell_length_c   5.67258879
_cell_angle_alpha   60.00000000
_cell_angle_beta   60.00000000
_cell_angle_gamma   60.00000000
_symmetry_Int_Tables_number   1
_chemical_formula_structural   NaY3
_chemical_formula_sum   'Na1 Y3'
_cell_volume   129.07106966
_cell_formula_units_Z   1
loop_
 _symmetry_equiv_pos_site_id
 _symmetry_equiv_pos_as_xyz
  1  'x, y, z'
loop_
 _atom_site_type_symbol
 _atom_site_label
 _atom_site_symmetry_multiplicity
 _atom_site_fract_x
 _atom_site_fract_y
 _atom_site_fract_z
 _atom_site_occupancy
  Na  Na0  1  0.00000000  0.00000000  0.00000000  1
  Y  Y0  1  0.25000000  0.25000000  0.25000000  1
  Y  Y1  1  0.75000000  0.75000000  0.75000000  1
  Y  Y2  1  0.50000000  0.50000000  0.50000000  1
loop_
_geom_bond_atom_site_label_1
_geom_bond_atom_site_label_2
_geom_bond_distance
_geom_bond_site_symmetry_2
Na0 Y0 3.473737 1_455
Na0 Y1 3.473737 1_544
Na0 Y0 3.473737 1_545
Na0 Y1 3.473737 1_454
Na0 Y1 3.473737 1_444
Na0 Y0 3.473737 1_555
Na0 Y0 3.473737 1_554
Na0 Y1 3.473737 1_445
Na0 Y2 4.011126 1_445
Na0 Y2 4.011126 1_455
Na0 Y2 4.011126 1_554
Na0 Y2 4.011126 1_454
Na0 Y2 4.011126 1_545
Na0 Y2 4.011126 1_544
Y0 Y2 3.473737 1_455
Y0 Y2 3.473737 1_545
Y0 Y2 3.473737 1_555
Y0 Y2 3.473737 1_554
Y1 Y2 3.473737 1_655
Y1 Y2 3.473737 1_565
Y1 Y2 3.473737 1_555
Y1 Y2 3.473737 1_556
