# generated using pymatgen
data_NaSmSiO4
_symmetry_space_group_name_H-M   'P 1'
_cell_length_a   8.85114004
_cell_length_b   8.85114004
_cell_length_c   8.85114004
_cell_angle_alpha   95.32607641
_cell_angle_beta   95.32607641
_cell_angle_gamma   144.52338854
_symmetry_Int_Tables_number   1
_chemical_formula_structural   NaSmSiO4
_chemical_formula_sum   'Na4 Sm4 Si4 O16'
_cell_volume   383.30886321
_cell_formula_units_Z   4
loop_
 _symmetry_equiv_pos_site_id
 _symmetry_equiv_pos_as_xyz
  1  'x, y, z'
loop_
 _atom_site_type_symbol
 _atom_site_label
 _atom_site_symmetry_multiplicity
 _atom_site_fract_x
 _atom_site_fract_y
 _atom_site_fract_z
 _atom_site_occupancy
  Na  Na0  1  0.39299500  0.08689600  0.47989100  1
  Na  Na1  1  0.91310400  0.39299500  0.30609900  1
  Na  Na2  1  0.08689600  0.60700500  0.69390100  1
  Na  Na3  1  0.60700500  0.91310400  0.52010900  1
  Sm  Sm0  1  0.87841600  0.80878700  0.68720300  1
  Sm  Sm1  1  0.19121300  0.87841600  0.06963000  1
  Sm  Sm2  1  0.12158400  0.19121300  0.31279700  1
  Sm  Sm3  1  0.80878700  0.12158400  0.93037000  1
  Si  Si0  1  0.40223200  0.73842500  0.14065700  1
  Si  Si1  1  0.59776800  0.26157500  0.85934300  1
  Si  Si2  1  0.73842500  0.59776800  0.33619400  1
  Si  Si3  1  0.26157500  0.40223200  0.66380600  1
  O  O0  1  0.69477600  0.73026500  0.42504200  1
  O  O1  1  0.73026500  0.30522400  0.03548900  1
  O  O2  1  0.26973500  0.69477600  0.96451100  1
  O  O3  1  0.30522400  0.26973500  0.57495800  1
  O  O4  1  0.12178200  0.39671800  0.51850000  1
  O  O5  1  0.39671800  0.87821800  0.27493600  1
  O  O6  1  0.60328200  0.12178200  0.72506400  1
  O  O7  1  0.87821800  0.60328200  0.48150000  1
  O  O8  1  0.04952700  0.20324700  0.76591100  1
  O  O9  1  0.20324700  0.43733700  0.15372100  1
  O  O10  1  0.28361600  0.04952700  0.84627900  1
  O  O11  1  0.43733700  0.28361600  0.23408900  1
  O  O12  1  0.56266300  0.71638400  0.76591100  1
  O  O13  1  0.71638400  0.95047300  0.15372100  1
  O  O14  1  0.79675300  0.56266300  0.84627900  1
  O  O15  1  0.95047300  0.79675300  0.23408900  1
loop_
_geom_bond_atom_site_label_1
_geom_bond_atom_site_label_2
_geom_bond_distance
_geom_bond_site_symmetry_2
Na0 O3 2.418016 1_555
Na0 O5 2.488318 1_545
Na0 O6 2.541371 1_555
Na0 O7 2.709477 1_445
Na0 O7 2.709477 1_555
Na0 O11 2.769102 1_555
Na0 O15 2.769105 1_445
Na1 O1 2.418019 1_555
Na1 O4 2.488318 1_655
Na1 O7 2.541371 1_555
Na1 O5 2.709477 1_655
Na1 O5 2.709477 1_545
Na1 O9 2.769094 1_655
Na1 O13 2.769102 1_545
Na2 O2 2.418019 1_555
Na2 O7 2.488318 1_455
Na2 O4 2.541371 1_555
Na2 O6 2.709477 1_455
Na2 O6 2.709477 1_565
Na2 O14 2.769094 1_455
Na2 O10 2.769102 1_565
Na3 O0 2.418016 1_555
Na3 O6 2.488318 1_565
Na3 O5 2.541371 1_555
Na3 O4 2.709477 1_555
Na3 O4 2.709477 1_665
Na3 O12 2.769102 1_555
Na3 O8 2.769105 1_665
O0 Si2 1.663180 1_555
O0 Sm0 2.381152 1_555
O0 Sm2 2.872333 1_555
O0 Sm2 2.872338 1_665
O1 Si1 1.663180 1_554
O1 Sm3 2.381163 1_554
O1 Sm1 2.872331 1_655
O1 Sm1 2.872336 1_545
O2 Si0 1.663180 1_556
O2 Sm1 2.381163 1_556
O2 Sm3 2.872331 1_455
O2 Sm3 2.872336 1_565
O3 Si3 1.663180 1_555
O3 Sm2 2.381152 1_555
O3 Sm0 2.872333 1_555
O3 Sm0 2.872338 1_445
O4 Si3 1.667944 1_555
O4 Sm2 2.450093 1_555
O5 Si0 1.667950 1_555
O5 Sm1 2.450087 1_555
O6 Si1 1.667950 1_555
O6 Sm3 2.450087 1_555
O7 Si2 1.667944 1_555
O7 Sm0 2.450093 1_555
O8 Si3 1.633365 1_555
O8 Sm3 2.333332 1_455
O8 Sm0 2.389426 1_445
O9 Si0 1.633354 1_555
O9 Sm2 2.333339 1_555
O9 Sm3 2.389436 1_454
O10 Si1 1.633356 1_555
O10 Sm0 2.333335 1_445
O10 Sm1 2.389443 1_546
O11 Si2 1.633358 1_555
O11 Sm1 2.333332 1_545
O11 Sm2 2.389434 1_555
O12 Si3 1.633358 1_555
O12 Sm3 2.333332 1_565
O12 Sm0 2.389434 1_555
O13 Si0 1.633356 1_555
O13 Sm2 2.333335 1_665
O13 Sm3 2.389443 1_564
O14 Si1 1.633354 1_555
O14 Sm0 2.333339 1_555
O14 Sm1 2.389436 1_656
O15 Si2 1.633365 1_555
O15 Sm1 2.333332 1_655
O15 Sm2 2.389426 1_665
