# generated using pymatgen
data_Er2MgNi2
_symmetry_space_group_name_H-M   'P 1'
_cell_length_a   7.25674433
_cell_length_b   7.25674537
_cell_length_c   3.66484681
_cell_angle_alpha   90.00000000
_cell_angle_beta   90.00000000
_cell_angle_gamma   90.00000000
_symmetry_Int_Tables_number   1
_chemical_formula_structural   Er2MgNi2
_chemical_formula_sum   'Er4 Mg2 Ni4'
_cell_volume   192.99210038
_cell_formula_units_Z   2
loop_
 _symmetry_equiv_pos_site_id
 _symmetry_equiv_pos_as_xyz
  1  'x, y, z'
loop_
 _atom_site_type_symbol
 _atom_site_label
 _atom_site_symmetry_multiplicity
 _atom_site_fract_x
 _atom_site_fract_y
 _atom_site_fract_z
 _atom_site_occupancy
  Er  Er0  1  0.67145368  0.17145368  0.50000000  1
  Er  Er1  1  0.32854632  0.82854632  0.50000000  1
  Er  Er2  1  0.17145368  0.32854632  0.50000000  1
  Er  Er3  1  0.82854632  0.67145368  0.50000000  1
  Mg  Mg0  1  -0.00000000  -0.00000000  0.00000000  1
  Mg  Mg1  1  0.50000000  0.50000000  0.00000000  1
  Ni  Ni0  1  0.11977847  0.61977847  -0.00000000  1
  Ni  Ni1  1  0.88022153  0.38022153  0.00000000  1
  Ni  Ni2  1  0.61977847  0.88022153  -0.00000000  1
  Ni  Ni3  1  0.38022153  0.11977847  -0.00000000  1
loop_
_geom_bond_atom_site_label_1
_geom_bond_atom_site_label_2
_geom_bond_distance
_geom_bond_site_symmetry_2
Er0 Ni1 2.819233 1_556
Er0 Ni1 2.819233 1_555
Er0 Ni3 2.822205 1_556
Er0 Ni3 2.822205 1_555
Er0 Ni2 2.822206 1_545
Er0 Ni2 2.822206 1_546
Er1 Ni0 2.819233 1_556
Er1 Ni0 2.819233 1_555
Er1 Ni2 2.822205 1_555
Er1 Ni2 2.822205 1_556
Er1 Ni3 2.822206 1_566
Er1 Ni3 2.822206 1_565
Er2 Ni3 2.819233 1_555
Er2 Ni3 2.819233 1_556
Er2 Ni1 2.822205 1_456
Er2 Ni1 2.822205 1_455
Er2 Ni0 2.822206 1_556
Er2 Ni0 2.822206 1_555
Er3 Ni2 2.819233 1_555
Er3 Ni2 2.819233 1_556
Er3 Ni0 2.822205 1_656
Er3 Ni0 2.822205 1_655
Er3 Ni1 2.822206 1_556
Er3 Ni1 2.822206 1_555
Mg0 Ni2 2.892842 1_445
Mg0 Ni3 2.892842 1_555
Mg0 Ni1 2.892842 1_455
Mg0 Ni0 2.892842 1_545
Mg1 Ni0 2.892842 1_555
Mg1 Ni1 2.892842 1_555
Mg1 Ni2 2.892842 1_555
Mg1 Ni3 2.892842 1_555
Ni0 Ni1 2.458474 1_455
Ni2 Ni3 2.458474 1_565
