# generated using pymatgen
data_Th4P5O23
_symmetry_space_group_name_H-M   'P 1'
_cell_length_a   6.76431253
_cell_length_b   7.10688171
_cell_length_c   11.08138714
_cell_angle_alpha   90.69764922
_cell_angle_beta   105.66099918
_cell_angle_gamma   89.47840632
_symmetry_Int_Tables_number   1
_chemical_formula_structural   Th4P5O23
_chemical_formula_sum   'Th4 P5 O23'
_cell_volume   512.89326307
_cell_formula_units_Z   1
loop_
 _symmetry_equiv_pos_site_id
 _symmetry_equiv_pos_as_xyz
  1  'x, y, z'
loop_
 _atom_site_type_symbol
 _atom_site_label
 _atom_site_symmetry_multiplicity
 _atom_site_fract_x
 _atom_site_fract_y
 _atom_site_fract_z
 _atom_site_occupancy
  Th  Th0  1  0.98878400  0.75080800  0.71113200  1
  Th  Th1  1  0.28238900  0.75099500  0.28715600  1
  Th  Th2  1  0.68797500  0.26199800  0.71771700  1
  Th  Th3  1  0.00137400  0.26253000  0.27376600  1
  P  P0  1  0.11762800  0.24287100  0.63145200  1
  P  P1  1  0.48930400  0.75996400  0.63856000  1
  P  P2  1  0.50542700  0.24985200  0.35806700  1
  P  P3  1  0.85481300  0.75463000  0.36558700  1
  P  P4  1  0.89833400  0.63529400  0.99327200  1
  O  O0  1  0.04820200  0.71328200  0.92110000  1
  O  O1  1  0.01058000  0.08593700  0.69071400  1
  O  O2  1  0.01598400  0.42865800  0.66396900  1
  O  O3  1  0.07735500  0.21887400  0.48986900  1
  O  O4  1  0.32381800  0.75240000  0.70805400  1
  O  O5  1  0.34695000  0.23773700  0.69587900  1
  O  O6  1  0.35139900  0.08153000  0.31825800  1
  O  O7  1  0.36079200  0.42778700  0.32557800  1
  O  O8  1  0.39091800  0.77406100  0.49669900  1
  O  O9  1  0.66401900  0.33095900  0.91494000  1
  O  O10  1  0.60463900  0.24610900  0.49899200  1
  O  O11  1  0.63114100  0.58233700  0.66299100  1
  O  O12  1  0.64097900  0.92507800  0.68773400  1
  O  O13  1  0.62926300  0.74389000  0.28971100  1
  O  O14  1  0.66144800  0.24636000  0.28063700  1
  O  O15  1  0.86087200  0.42297400  0.91774700  1
  O  O16  1  0.70309600  0.73671000  0.98147400  1
  O  O17  1  0.87070400  0.79514800  0.50412700  1
  O  O18  1  0.97839400  0.57001600  0.35952900  1
  O  O19  1  0.97446700  0.90951000  0.31525800  1
  O  O20  1  0.03104500  0.58337600  0.12754500  1
  O  O21  1  0.99512700  0.05285600  0.10222700  1
  O  O22  1  0.10598000  0.20076800  0.08246000  1
loop_
_geom_bond_atom_site_label_1
_geom_bond_atom_site_label_2
_geom_bond_distance
_geom_bond_site_symmetry_2
O0 P4 1.559893 1_455
O0 Th0 2.270384 1_455
O1 P0 1.577587 1_555
O1 Th0 2.404799 1_445
O1 Th2 2.590533 1_455
O2 P0 1.565751 1_555
O2 Th0 2.358777 1_455
O2 Th2 2.731115 1_455
O3 P0 1.525921 1_555
O3 Th3 2.333624 1_555
O4 P1 1.522003 1_555
O4 Th0 2.275852 1_455
O5 P0 1.522818 1_555
O5 Th2 2.261516 1_555
O6 P2 1.572528 1_555
O6 Th1 2.401713 1_545
O6 Th3 2.614082 1_555
O7 P2 1.576170 1_555
O7 Th1 2.370334 1_555
O7 Th3 2.627120 1_555
O8 P1 1.536871 1_555
O8 Th1 2.242814 1_555
O9 Th2 2.281788 1_555
O10 P2 1.524693 1_555
O10 Th2 2.337103 1_555
O11 P1 1.559944 1_555
O11 Th2 2.364390 1_555
O11 Th0 2.628899 1_555
O12 P1 1.559182 1_555
O12 Th2 2.425346 1_565
O12 Th0 2.600308 1_555
O13 P3 1.532481 1_555
O13 Th1 2.338971 1_555
O14 P2 1.529232 1_555
O14 Th3 2.325001 1_655
O15 O9 1.481450 1_555
O15 P4 1.703890 1_555
O15 Th2 2.480520 1_555
O16 P4 1.473920 1_555
O17 P3 1.533644 1_555
O17 Th0 2.241225 1_555
O18 P3 1.559779 1_555
O18 Th3 2.392856 1_655
O19 P3 1.566073 1_555
O19 Th1 2.450184 1_655
O19 Th3 2.573044 1_665
O20 P4 1.562736 1_454
O20 Th1 2.408328 1_555
O20 Th3 2.852896 1_555
O21 O22 1.350515 1_655
O21 Th3 2.392583 1_655
O22 Th3 2.443157 1_555
