# generated using pymatgen
data_Pr(NiO3)2
_symmetry_space_group_name_H-M   'P 1'
_cell_length_a   5.29852300
_cell_length_b   5.47895025
_cell_length_c   7.59937977
_cell_angle_alpha   90.03315097
_cell_angle_beta   90.61408415
_cell_angle_gamma   90.03872389
_symmetry_Int_Tables_number   1
_chemical_formula_structural   Pr(NiO3)2
_chemical_formula_sum   'Pr2 Ni4 O12'
_cell_volume   220.59984932
_cell_formula_units_Z   2
loop_
 _symmetry_equiv_pos_site_id
 _symmetry_equiv_pos_as_xyz
  1  'x, y, z'
loop_
 _atom_site_type_symbol
 _atom_site_label
 _atom_site_symmetry_multiplicity
 _atom_site_fract_x
 _atom_site_fract_y
 _atom_site_fract_z
 _atom_site_occupancy
  Pr  Pr0  1  0.02406200  0.00135300  0.74832500  1
  Pr  Pr1  1  0.47547200  0.50732500  0.25186200  1
  Ni  Ni0  1  0.50570100  0.00120800  0.00357600  1
  Ni  Ni1  1  0.50567900  0.00446700  0.49525500  1
  Ni  Ni2  1  0.99685100  0.50176900  0.50288500  1
  Ni  Ni3  1  0.98822700  0.50072500  0.99337300  1
  O  O0  1  0.49957900  0.06993600  0.24068600  1
  O  O1  1  0.77016300  0.21101500  0.96840500  1
  O  O2  1  0.78118200  0.24137000  0.53216900  1
  O  O3  1  0.25208900  0.27081800  0.53006900  1
  O  O4  1  0.27349500  0.25186000  0.97419300  1
  O  O5  1  0.98965600  0.46182000  0.25895300  1
  O  O6  1  0.00068600  0.56308200  0.74024400  1
  O  O7  1  0.71341200  0.73476800  0.03402600  1
  O  O8  1  0.73765100  0.72308700  0.47117700  1
  O  O9  1  0.24679300  0.77124000  0.02329600  1
  O  O10  1  0.22825300  0.75265100  0.47061500  1
  O  O11  1  0.51104900  0.95237600  0.76089200  1
loop_
_geom_bond_atom_site_label_1
_geom_bond_atom_site_label_2
_geom_bond_distance
_geom_bond_site_symmetry_2
Ni0 O1 1.833731 1_554
Ni0 O0 1.841232 1_555
Ni0 O7 1.841992 1_545
Ni0 O4 1.856434 1_554
Ni0 O11 1.863919 1_544
Ni0 O9 1.869284 1_545
Ni1 O0 1.967673 1_555
Ni1 O2 1.970427 1_555
Ni1 O8 1.981914 1_545
Ni1 O3 2.003708 1_555
Ni1 O10 2.022475 1_545
Ni1 O11 2.038815 1_545
Ni2 O6 1.834501 1_655
Ni2 O2 1.842410 1_555
Ni2 O8 1.846645 1_555
Ni2 O10 1.859417 1_655
Ni2 O3 1.862634 1_655
Ni2 O5 1.866464 1_555
Ni3 O6 1.955725 1_655
Ni3 O7 1.967673 1_556
Ni3 O1 1.970534 1_555
Ni3 O9 2.028689 1_656
Ni3 O5 2.029525 1_556
Ni3 O4 2.042630 1_655
O0 Pr1 2.401422 1_555
O1 Pr0 2.444307 1_655
O2 Pr0 2.458300 1_655
O3 Pr0 2.536502 1_555
O3 Pr1 2.757646 1_555
O4 Pr0 2.554000 1_555
O4 Pr1 2.739181 1_556
O5 Pr1 2.587125 1_655
O5 Pr1 2.735926 1_555
O6 Pr0 2.405088 1_565
O7 Pr1 2.434695 1_555
O8 Pr1 2.459851 1_555
O9 Pr1 2.556592 1_555
O9 Pr0 2.702031 1_564
O10 Pr1 2.516448 1_555
O10 Pr0 2.743862 1_565
O11 Pr0 2.595153 1_565
O11 Pr0 2.733936 1_665
