# generated using pymatgen
data_Mg14BC
_symmetry_space_group_name_H-M   'P 1'
_cell_length_a   6.29894434
_cell_length_b   6.29894434
_cell_length_c   9.47713700
_cell_angle_alpha   90.00000000
_cell_angle_beta   90.00000000
_cell_angle_gamma   116.74636061
_symmetry_Int_Tables_number   1
_chemical_formula_structural   Mg14BC
_chemical_formula_sum   'Mg14 B1 C1'
_cell_volume   335.79004928
_cell_formula_units_Z   1
loop_
 _symmetry_equiv_pos_site_id
 _symmetry_equiv_pos_as_xyz
  1  'x, y, z'
loop_
 _atom_site_type_symbol
 _atom_site_label
 _atom_site_symmetry_multiplicity
 _atom_site_fract_x
 _atom_site_fract_y
 _atom_site_fract_z
 _atom_site_occupancy
  Mg  Mg0  1  0.84172900  0.15827100  0.00000000  1
  Mg  Mg1  1  0.34048000  0.65952000  0.00000000  1
  Mg  Mg2  1  0.39254900  0.08438200  0.50000000  1
  Mg  Mg3  1  0.33309900  0.17366600  0.00000000  1
  Mg  Mg4  1  0.91561800  0.60745100  0.50000000  1
  Mg  Mg5  1  0.82633400  0.66690100  0.00000000  1
  Mg  Mg6  1  0.15888700  0.36069100  0.34503500  1
  Mg  Mg7  1  0.15888700  0.36069100  0.65496500  1
  Mg  Mg8  1  0.63930900  0.84111300  0.34503500  1
  Mg  Mg9  1  0.63930900  0.84111300  0.65496500  1
  Mg  Mg10  1  0.66395600  0.33604400  0.25769600  1
  Mg  Mg11  1  0.66395600  0.33604400  0.74230400  1
  Mg  Mg12  1  0.15900100  0.84099900  0.24712700  1
  Mg  Mg13  1  0.15900100  0.84099900  0.75287300  1
  B  B0  1  0.80424200  0.19575800  0.50000000  1
  C  C0  1  0.30365200  0.69634800  0.50000000  1
loop_
_geom_bond_atom_site_label_1
_geom_bond_atom_site_label_2
_geom_bond_distance
_geom_bond_site_symmetry_2
Mg0 Mg3 3.052699 1_655
Mg0 Mg5 3.052699 1_545
Mg0 Mg10 3.098530 1_555
Mg0 Mg11 3.098530 1_554
Mg0 Mg5 3.248628 1_555
Mg0 Mg3 3.248628 1_555
Mg0 Mg1 3.303096 1_655
Mg0 Mg1 3.303096 1_545
Mg1 Mg5 3.039727 1_555
Mg1 Mg3 3.039727 1_555
Mg1 Mg13 3.045468 1_554
Mg1 Mg12 3.045468 1_555
Mg1 Mg3 3.259765 1_565
Mg1 Mg5 3.259765 1_455
Mg3 Mg5 3.258378 1_555
Mg3 Mg5 3.347760 1_445
Mg10 Mg5 3.071683 1_555
Mg10 Mg3 3.071683 1_555
Mg10 Mg12 3.305015 1_655
Mg10 Mg12 3.305015 1_545
Mg11 Mg5 3.071683 1_556
Mg11 Mg3 3.071683 1_556
Mg11 Mg13 3.305015 1_545
Mg11 Mg13 3.305015 1_655
Mg12 Mg4 2.868403 1_455
Mg12 Mg2 2.868403 1_565
Mg12 Mg3 3.001734 1_565
Mg12 Mg5 3.001734 1_455
Mg12 Mg8 3.164217 1_555
Mg12 Mg6 3.164217 1_555
Mg12 Mg6 3.402788 1_565
Mg12 Mg8 3.402788 1_455
Mg13 Mg4 2.868403 1_455
Mg13 Mg2 2.868403 1_565
Mg13 Mg3 3.001734 1_566
Mg13 Mg5 3.001734 1_456
Mg13 Mg7 3.164217 1_555
Mg13 Mg9 3.164217 1_555
Mg13 Mg9 3.402788 1_455
Mg13 Mg7 3.402788 1_565
B0 Mg4 2.362100 1_555
B0 Mg2 2.362100 1_555
B0 Mg8 2.477404 1_545
B0 Mg6 2.477404 1_655
B0 Mg7 2.477404 1_655
B0 Mg9 2.477404 1_545
B0 Mg11 2.745492 1_555
B0 Mg10 2.745492 1_555
C0 Mg4 2.248508 1_455
C0 Mg2 2.248508 1_565
C0 Mg6 2.392331 1_555
C0 Mg7 2.392331 1_555
C0 Mg8 2.392331 1_555
C0 Mg9 2.392331 1_555
C0 Mg12 2.854977 1_555
C0 Mg13 2.854977 1_555
