# generated using pymatgen
data_CsZnN
_symmetry_space_group_name_H-M   'P 1'
_cell_length_a   12.06643800
_cell_length_b   3.61340200
_cell_length_c   6.76721700
_cell_angle_alpha   90.00000000
_cell_angle_beta   90.00000000
_cell_angle_gamma   90.00000000
_symmetry_Int_Tables_number   1
_chemical_formula_structural   CsZnN
_chemical_formula_sum   'Cs4 Zn4 N4'
_cell_volume   295.05669216
_cell_formula_units_Z   4
loop_
 _symmetry_equiv_pos_site_id
 _symmetry_equiv_pos_as_xyz
  1  'x, y, z'
loop_
 _atom_site_type_symbol
 _atom_site_label
 _atom_site_symmetry_multiplicity
 _atom_site_fract_x
 _atom_site_fract_y
 _atom_site_fract_z
 _atom_site_occupancy
  Cs  Cs0  1  0.65636700  0.25000000  0.05526100  1
  Cs  Cs1  1  0.15636700  0.25000000  0.44473900  1
  Cs  Cs2  1  0.34363300  0.75000000  0.94473900  1
  Cs  Cs3  1  0.84363300  0.75000000  0.55526100  1
  Zn  Zn0  1  0.55645100  0.25000000  0.59570800  1
  Zn  Zn1  1  0.05645100  0.25000000  0.90429200  1
  Zn  Zn2  1  0.44354900  0.75000000  0.40429200  1
  Zn  Zn3  1  0.94354900  0.75000000  0.09570800  1
  N  N0  1  0.91944100  0.25000000  0.17915200  1
  N  N1  1  0.41944100  0.25000000  0.32084800  1
  N  N2  1  0.08055900  0.75000000  0.82084800  1
  N  N3  1  0.58055900  0.75000000  0.67915200  1
loop_
_geom_bond_atom_site_label_1
_geom_bond_atom_site_label_2
_geom_bond_distance
_geom_bond_site_symmetry_2
Cs0 N3 3.252538 1_544
Cs0 N3 3.252538 1_554
Cs0 N0 3.283216 1_555
Cs0 N1 3.376873 1_555
Cs1 N2 3.252538 1_555
Cs1 N2 3.252538 1_545
Cs1 N1 3.283216 1_555
Cs1 N0 3.376873 1_455
Cs2 N1 3.252538 1_566
Cs2 N1 3.252538 1_556
Cs2 N2 3.283216 1_555
Cs2 N3 3.376873 1_555
Cs3 N0 3.252538 1_565
Cs3 N0 3.252538 1_555
Cs3 N3 3.283216 1_555
Cs3 N2 3.376873 1_655
N0 Zn3 1.915113 1_555
N0 Zn3 1.915113 1_545
N1 Zn2 1.915113 1_555
N1 Zn2 1.915113 1_545
N2 Zn1 1.915113 1_555
N2 Zn1 1.915113 1_565
N3 Zn0 1.915113 1_565
N3 Zn0 1.915113 1_555
