# generated using pymatgen
data_K3Hf4Ag2F23
_symmetry_space_group_name_H-M   'P 1'
_cell_length_a   11.42632300
_cell_length_b   7.95628900
_cell_length_c   10.31568485
_cell_angle_alpha   82.65035911
_cell_angle_beta   90.00000000
_cell_angle_gamma   90.00000000
_symmetry_Int_Tables_number   1
_chemical_formula_structural   K3Hf4Ag2F23
_chemical_formula_sum   'K6 Hf8 Ag4 F46'
_cell_volume   930.10547765
_cell_formula_units_Z   2
loop_
 _symmetry_equiv_pos_site_id
 _symmetry_equiv_pos_as_xyz
  1  'x, y, z'
loop_
 _atom_site_type_symbol
 _atom_site_label
 _atom_site_symmetry_multiplicity
 _atom_site_fract_x
 _atom_site_fract_y
 _atom_site_fract_z
 _atom_site_occupancy
  K  K0  1  0.97977600  0.78914700  0.63649700  1
  K  K1  1  0.02022400  0.21085300  0.36350300  1
  K  K2  1  0.47977600  0.21085300  0.86350300  1
  K  K3  1  0.52022400  0.78914700  0.13649700  1
  K  K4  1  0.50000000  0.50000000  0.50000000  1
  K  K5  1  0.00000000  0.50000000  0.00000000  1
  Hf  Hf0  1  0.31861500  0.97330100  0.54205900  1
  Hf  Hf1  1  0.68138500  0.02669900  0.45794100  1
  Hf  Hf2  1  0.81861500  0.02669900  0.95794100  1
  Hf  Hf3  1  0.18138500  0.97330100  0.04205900  1
  Hf  Hf4  1  0.30617000  0.66790800  0.83805300  1
  Hf  Hf5  1  0.69383000  0.33209200  0.16194700  1
  Hf  Hf6  1  0.80617000  0.33209200  0.66194700  1
  Hf  Hf7  1  0.19383000  0.66790800  0.33805300  1
  Ag  Ag0  1  0.16144700  0.31846200  0.68669600  1
  Ag  Ag1  1  0.83855300  0.68153800  0.31330400  1
  Ag  Ag2  1  0.66144700  0.68153800  0.81330400  1
  Ag  Ag3  1  0.33855300  0.31846200  0.18669600  1
  F  F0  1  0.35994400  0.48239500  0.73753700  1
  F  F1  1  0.64005600  0.51760500  0.26246300  1
  F  F2  1  0.85994400  0.51760500  0.76246300  1
  F  F3  1  0.14005600  0.48239500  0.23753700  1
  F  F4  1  0.86537800  0.84952100  0.84845000  1
  F  F5  1  0.13462200  0.15047900  0.15155000  1
  F  F6  1  0.36537800  0.15047900  0.65155000  1
  F  F7  1  0.63462200  0.84952100  0.34845000  1
  F  F8  1  0.68409900  0.85698700  0.62086200  1
  F  F9  1  0.31590100  0.14301300  0.37913800  1
  F  F10  1  0.18409900  0.14301300  0.87913800  1
  F  F11  1  0.81590100  0.85698700  0.12086200  1
  F  F12  1  0.33609700  0.88912400  0.93128900  1
  F  F13  1  0.66390300  0.11087600  0.06871100  1
  F  F14  1  0.83609700  0.11087600  0.56871100  1
  F  F15  1  0.16390300  0.88912400  0.43128900  1
  F  F16  1  0.47298900  0.63940800  0.90727700  1
  F  F17  1  0.52701100  0.36059200  0.09272300  1
  F  F18  1  0.97298900  0.36059200  0.59272300  1
  F  F19  1  0.02701100  0.63940800  0.40727700  1
  F  F20  1  0.41405000  0.81145600  0.69018300  1
  F  F21  1  0.58595000  0.18854400  0.30981700  1
  F  F22  1  0.91405000  0.18854400  0.80981700  1
  F  F23  1  0.08595000  0.81145600  0.19018300  1
  F  F24  1  0.21090100  0.82177400  0.68470100  1
  F  F25  1  0.78909900  0.17822600  0.31529900  1
  F  F26  1  0.71090100  0.17822600  0.81529900  1
  F  F27  1  0.28909900  0.82177400  0.18470100  1
  F  F28  1  0.14794600  0.76435000  0.93882100  1
  F  F29  1  0.85205400  0.23565000  0.06117900  1
  F  F30  1  0.64794600  0.23565000  0.56117900  1
  F  F31  1  0.35205400  0.76435000  0.43882100  1
  F  F32  1  0.15997500  0.11640700  0.57432000  1
  F  F33  1  0.84002500  0.88359300  0.42568000  1
  F  F34  1  0.65997500  0.88359300  0.92568000  1
  F  F35  1  0.34002500  0.11640700  0.07432000  1
  F  F36  1  0.14660700  0.52691300  0.79232900  1
  F  F37  1  0.85339300  0.47308700  0.20767100  1
  F  F38  1  0.64660700  0.47308700  0.70767100  1
  F  F39  1  0.35339300  0.52691300  0.29232900  1
  F  F40  1  0.50000000  0.00000000  0.50000000  1
  F  F41  1  0.00000000  0.00000000  0.00000000  1
  F  F42  1  0.21588600  0.49910700  0.50004200  1
  F  F43  1  0.78411400  0.50089300  0.49995800  1
  F  F44  1  0.71588600  0.50089300  0.99995800  1
  F  F45  1  0.28411400  0.49910700  0.00004200  1
loop_
_geom_bond_atom_site_label_1
_geom_bond_atom_site_label_2
_geom_bond_distance
_geom_bond_site_symmetry_2
Ag0 F32 2.098883 1_555
Ag0 F36 2.104551 1_555
Ag0 F10 2.290743 1_555
Ag0 F42 2.334959 1_555
Ag0 F18 2.367700 1_455
Ag1 F33 2.098883 1_555
Ag1 F37 2.104551 1_555
Ag1 F11 2.290743 1_555
Ag1 F43 2.334959 1_555
Ag1 F19 2.367700 1_655
Ag2 F34 2.098883 1_555
Ag2 F38 2.104551 1_555
Ag2 F8 2.290743 1_555
Ag2 F44 2.334959 1_555
Ag2 F16 2.367700 1_555
Ag3 F35 2.098883 1_555
Ag3 F39 2.104551 1_555
Ag3 F9 2.290743 1_555
Ag3 F45 2.334959 1_555
Ag3 F17 2.367700 1_555
F0 Hf4 2.005692 1_555
F0 K2 2.740927 1_555
F0 K4 2.914978 1_555
F1 Hf5 2.005692 1_555
F1 K3 2.740927 1_555
F1 K4 2.914978 1_555
F2 Hf6 2.005692 1_555
F2 K0 2.740927 1_555
F2 K5 2.914978 1_656
F3 Hf7 2.005692 1_555
F3 K1 2.740927 1_555
F3 K5 2.914978 1_555
F4 Hf2 1.988913 1_565
F4 K0 2.643597 1_555
F5 Hf3 1.988913 1_545
F5 K1 2.643597 1_555
F6 Hf0 1.988913 1_545
F6 K2 2.643597 1_555
F7 Hf1 1.988913 1_565
F7 K3 2.643597 1_555
F8 Hf1 2.016969 1_565
F9 Hf0 2.016969 1_545
F10 Hf3 2.016969 1_546
F11 Hf2 2.016969 1_564
F12 Hf4 2.138431 1_555
F12 Hf3 2.252801 1_556
F12 K3 3.018178 1_556
F12 K2 3.046093 1_565
F13 Hf5 2.138431 1_555
F13 Hf2 2.252801 1_554
F13 K2 3.018178 1_554
F13 K3 3.046093 1_545
F14 Hf6 2.138431 1_555
F14 Hf1 2.252801 1_555
F14 K1 3.018178 1_655
F14 K0 3.046093 1_545
F15 Hf7 2.138431 1_555
F15 Hf0 2.252801 1_555
F15 K0 3.018178 1_455
F15 K1 3.046093 1_565
F16 Hf4 2.037950 1_555
F16 K3 2.832410 1_556
F17 Hf5 2.037950 1_555
F17 K2 2.832410 1_554
F18 Hf6 2.037950 1_555
F18 K1 2.832410 1_655
F19 Hf7 2.037950 1_555
F19 K0 2.832410 1_455
F20 Hf0 2.163018 1_555
F20 Hf4 2.169090 1_555
F21 Hf1 2.163018 1_555
F21 Hf5 2.169090 1_555
F22 Hf2 2.163018 1_555
F22 Hf6 2.169090 1_555
F23 Hf3 2.163018 1_555
F23 Hf7 2.169090 1_555
F24 Hf0 2.163229 1_555
F24 Hf4 2.165801 1_555
F24 K0 2.705934 1_455
F25 Hf1 2.163229 1_555
F25 Hf5 2.165801 1_555
F25 K1 2.705934 1_655
F26 Hf2 2.163229 1_555
F26 Hf6 2.165801 1_555
F26 K2 2.705934 1_555
F27 Hf3 2.163229 1_555
F27 Hf7 2.165801 1_555
F27 K3 2.705934 1_555
F28 Hf3 2.120601 1_556
F28 Hf4 2.267589 1_555
F28 K5 2.709252 1_556
F29 Hf2 2.120601 1_554
F29 Hf5 2.267589 1_555
F29 K5 2.709252 1_655
F30 Hf1 2.120601 1_555
F30 Hf6 2.267589 1_555
F30 K4 2.709252 1_555
F31 Hf0 2.120601 1_555
F31 Hf7 2.267589 1_555
F31 K4 2.709252 1_555
F32 Hf0 2.188577 1_545
F32 K1 2.725046 1_555
F33 Hf1 2.188577 1_565
F33 K0 2.725046 1_555
F34 Hf2 2.188577 1_565
F34 K3 2.725046 1_556
F35 Hf3 2.188577 1_545
F35 K2 2.725046 1_554
F36 Hf4 2.222702 1_555
F36 K5 2.706294 1_556
F36 K0 3.116561 1_455
F37 Hf5 2.222702 1_555
F37 K5 2.706294 1_655
F37 K1 3.116561 1_655
F38 Hf6 2.222702 1_555
F38 K4 2.706294 1_555
F38 K2 3.116561 1_555
F39 Hf7 2.222702 1_555
F39 K4 2.706294 1_555
F39 K3 3.116561 1_555
F40 Hf1 2.122570 1_555
F40 Hf0 2.122570 1_545
F41 Hf3 2.122570 1_545
F41 Hf2 2.122570 1_454
F42 Hf7 2.021235 1_555
F43 Hf6 2.021235 1_555
F44 Hf5 2.021235 1_556
F45 Hf4 2.021235 1_554
