# generated using pymatgen
data_ZnCuAs2O7
_symmetry_space_group_name_H-M   'P 1'
_cell_length_a   8.48367400
_cell_length_b   7.23213900
_cell_length_c   9.77148071
_cell_angle_alpha   68.74204313
_cell_angle_beta   90.00000000
_cell_angle_gamma   90.00000000
_symmetry_Int_Tables_number   1
_chemical_formula_structural   ZnCuAs2O7
_chemical_formula_sum   'Zn4 Cu4 As8 O28'
_cell_volume   558.73674785
_cell_formula_units_Z   4
loop_
 _symmetry_equiv_pos_site_id
 _symmetry_equiv_pos_as_xyz
  1  'x, y, z'
loop_
 _atom_site_type_symbol
 _atom_site_label
 _atom_site_symmetry_multiplicity
 _atom_site_fract_x
 _atom_site_fract_y
 _atom_site_fract_z
 _atom_site_occupancy
  Zn  Zn0  1  0.07004200  0.73229400  0.90048400  1
  Zn  Zn1  1  0.57004200  0.26770600  0.59951600  1
  Zn  Zn2  1  0.92995800  0.26770600  0.09951600  1
  Zn  Zn3  1  0.42995800  0.73229400  0.40048400  1
  Cu  Cu0  1  0.94015200  0.20116200  0.67036100  1
  Cu  Cu1  1  0.44015200  0.79883800  0.82963900  1
  Cu  Cu2  1  0.05984800  0.79883800  0.32963900  1
  Cu  Cu3  1  0.55984800  0.20116200  0.17036100  1
  As  As0  1  0.77132100  0.56232800  0.75244600  1
  As  As1  1  0.27132100  0.43767200  0.74755400  1
  As  As2  1  0.22867900  0.43767200  0.24755400  1
  As  As3  1  0.72867900  0.56232800  0.25244600  1
  As  As4  1  0.72292100  0.96199900  0.96631100  1
  As  As5  1  0.22292100  0.03800100  0.53368900  1
  As  As6  1  0.27707900  0.03800100  0.03368900  1
  As  As7  1  0.77707900  0.96199900  0.46631100  1
  O  O0  1  0.72655100  0.13899200  0.04731100  1
  O  O1  1  0.22655100  0.86100800  0.45268900  1
  O  O2  1  0.27344900  0.86100800  0.95268900  1
  O  O3  1  0.77344900  0.13899200  0.54731100  1
  O  O4  1  0.58574700  0.63847600  0.76648700  1
  O  O5  1  0.08574700  0.36152400  0.73351300  1
  O  O6  1  0.41425300  0.36152400  0.23351300  1
  O  O7  1  0.91425300  0.63847600  0.26648700  1
  O  O8  1  0.89617600  0.53456200  0.89591200  1
  O  O9  1  0.39617600  0.46543800  0.60408800  1
  O  O10  1  0.10382400  0.46543800  0.10408800  1
  O  O11  1  0.60382400  0.53456200  0.39591200  1
  O  O12  1  0.86124000  0.73930300  0.59313700  1
  O  O13  1  0.36124000  0.26069700  0.90686300  1
  O  O14  1  0.13876000  0.26069700  0.40686300  1
  O  O15  1  0.63876000  0.73930300  0.09313700  1
  O  O16  1  0.91870900  0.00758400  0.33278100  1
  O  O17  1  0.41870900  0.99241600  0.16721900  1
  O  O18  1  0.08129100  0.99241600  0.66721900  1
  O  O19  1  0.58129100  0.00758400  0.83278100  1
  O  O20  1  0.73835400  0.35395900  0.20536400  1
  O  O21  1  0.23835400  0.64604100  0.29463600  1
  O  O22  1  0.26164600  0.64604100  0.79463600  1
  O  O23  1  0.76164600  0.35395900  0.70536400  1
  O  O24  1  0.59562300  0.93658000  0.40336500  1
  O  O25  1  0.09562300  0.06342000  0.09663500  1
  O  O26  1  0.40437700  0.06342000  0.59663500  1
  O  O27  1  0.90437700  0.93658000  0.90336500  1
loop_
_geom_bond_atom_site_label_1
_geom_bond_atom_site_label_2
_geom_bond_distance
_geom_bond_site_symmetry_2
Cu0 O18 1.935820 1_645
Cu0 O5 1.941771 1_655
Cu0 O23 1.976249 1_555
Cu0 O3 2.009979 1_555
Cu0 O27 2.403793 1_545
Cu1 O19 1.935820 1_565
Cu1 O4 1.941771 1_555
Cu1 O22 1.976249 1_555
Cu1 O2 2.009979 1_555
Cu1 O26 2.403793 1_565
Cu2 O16 1.935820 1_465
Cu2 O7 1.941771 1_455
Cu2 O21 1.976249 1_555
Cu2 O1 2.009979 1_555
Cu2 O25 2.403793 1_565
Cu3 O17 1.935820 1_545
Cu3 O6 1.941771 1_555
Cu3 O20 1.976249 1_555
Cu3 O0 2.009979 1_555
Cu3 O24 2.403793 1_545
As0 O4 1.689815 1_555
As0 O8 1.709799 1_555
As0 O23 1.729749 1_555
As0 O12 1.788461 1_555
As1 O5 1.689815 1_555
As1 O9 1.709799 1_555
As1 O22 1.729749 1_555
As1 O13 1.788461 1_555
As2 O6 1.689815 1_555
As2 O10 1.709799 1_555
As2 O21 1.729749 1_555
As2 O14 1.788461 1_555
As3 O7 1.689815 1_555
As3 O11 1.709799 1_555
As3 O20 1.729749 1_555
As3 O15 1.788461 1_555
As4 O27 1.692306 1_555
As4 O19 1.715499 1_565
As4 O0 1.732213 1_566
As4 O15 1.786673 1_556
As5 O26 1.692306 1_555
As5 O18 1.715499 1_545
As5 O1 1.732213 1_545
As5 O14 1.786673 1_555
As6 O25 1.692306 1_555
As6 O17 1.715499 1_545
As6 O2 1.732213 1_544
As6 O13 1.786673 1_554
As7 O24 1.692306 1_555
As7 O16 1.715499 1_565
As7 O3 1.732213 1_565
As7 O12 1.786673 1_555
O0 Zn2 2.109247 1_555
O1 Zn3 2.109247 1_555
O2 Zn0 2.109247 1_555
O3 Zn1 2.109247 1_555
O8 Zn0 2.066152 1_655
O8 Zn2 2.231750 1_556
O9 Zn1 2.066152 1_555
O9 Zn3 2.231750 1_555
O10 Zn2 2.066152 1_455
O10 Zn0 2.231750 1_554
O11 Zn3 2.066152 1_555
O11 Zn1 2.231750 1_555
O16 Zn2 2.373648 1_555
O17 Zn3 2.373648 1_555
O18 Zn0 2.373648 1_555
O19 Zn1 2.373648 1_555
O20 Zn2 2.137520 1_555
O21 Zn3 2.137520 1_555
O22 Zn0 2.137520 1_555
O23 Zn1 2.137520 1_555
O24 Zn3 2.046710 1_555
O25 Zn2 2.046710 1_455
O26 Zn1 2.046710 1_555
O27 Zn0 2.046710 1_655
