# generated using pymatgen
data_Yb4Zr3O12
_symmetry_space_group_name_H-M   'P 1'
_cell_length_a   6.40726749
_cell_length_b   6.25910224
_cell_length_c   6.28026195
_cell_angle_alpha   99.46009415
_cell_angle_beta   99.72887591
_cell_angle_gamma   98.95914339
_symmetry_Int_Tables_number   1
_chemical_formula_structural   Yb4Zr3O12
_chemical_formula_sum   'Yb4 Zr3 O12'
_cell_volume   240.46249840
_cell_formula_units_Z   1
loop_
 _symmetry_equiv_pos_site_id
 _symmetry_equiv_pos_as_xyz
  1  'x, y, z'
loop_
 _atom_site_type_symbol
 _atom_site_label
 _atom_site_symmetry_multiplicity
 _atom_site_fract_x
 _atom_site_fract_y
 _atom_site_fract_z
 _atom_site_occupancy
  Yb  Yb0  1  0.86480103  0.39003647  0.69863495  1
  Yb  Yb1  1  0.38990921  0.69246964  0.86401696  1
  Yb  Yb2  1  0.13519897  0.60996353  0.30136505  1
  Yb  Yb3  1  0.61009079  0.30753036  0.13598304  1
  Zr  Zr0  1  0.00000000  0.00000000  0.00000000  1
  Zr  Zr1  1  0.67539664  0.85080506  0.39473338  1
  Zr  Zr2  1  0.32460336  0.14919494  0.60526662  1
  O  O0  1  0.43169245  0.58433925  0.18565556  1
  O  O1  1  0.57414885  0.17428373  0.42824361  1
  O  O2  1  0.17812657  0.41615972  0.58052750  1
  O  O3  1  0.56830755  0.41566075  0.81434444  1
  O  O4  1  0.42585115  0.82571627  0.57175639  1
  O  O5  1  0.82187343  0.58384028  0.41947250  1
  O  O6  1  0.89435175  0.03566545  0.67671559  1
  O  O7  1  0.05998708  0.68343286  0.92893828  1
  O  O8  1  0.68785495  0.91898543  0.07820369  1
  O  O9  1  0.10564825  0.96433455  0.32328441  1
  O  O10  1  0.94001292  0.31656714  0.07106172  1
  O  O11  1  0.31214505  0.08101457  0.92179631  1
loop_
_geom_bond_atom_site_label_1
_geom_bond_atom_site_label_2
_geom_bond_distance
_geom_bond_site_symmetry_2
O0 Yb2 2.164685 1_555
O0 Zr1 2.172568 1_555
O0 Yb1 2.221057 1_554
O0 Yb3 2.228307 1_555
O1 Zr2 2.096928 1_555
O1 Yb3 2.168824 1_555
O1 Zr1 2.208992 1_545
O1 Yb0 2.359974 1_555
O2 Zr2 2.054643 1_555
O2 Yb0 2.246803 1_455
O2 Yb2 2.293667 1_555
O2 Yb1 2.332916 1_555
O3 Yb0 2.164685 1_555
O3 Zr2 2.172568 1_555
O3 Yb3 2.221057 1_556
O3 Yb1 2.228307 1_555
O4 Zr1 2.096928 1_555
O4 Yb1 2.168824 1_555
O4 Zr2 2.208992 1_565
O4 Yb2 2.359974 1_555
O5 Zr1 2.054643 1_555
O5 Yb2 2.246803 1_655
O5 Yb0 2.293667 1_555
O5 Yb3 2.332916 1_555
O6 Zr0 2.088485 1_656
O6 Zr1 2.103396 1_545
O6 Yb0 2.239143 1_555
O7 Zr0 2.068196 1_566
O7 Yb0 2.197406 1_455
O7 Yb1 2.213513 1_555
O7 Yb2 2.440484 1_556
O8 Zr1 2.112362 1_555
O8 Zr0 2.143902 1_665
O8 Yb1 2.264089 1_554
O8 Yb3 2.538247 1_565
O9 Zr0 2.088485 1_565
O9 Zr2 2.103396 1_565
O9 Yb2 2.239143 1_555
O10 Zr0 2.068196 1_655
O10 Yb2 2.197406 1_655
O10 Yb3 2.213513 1_555
O10 Yb0 2.440484 1_554
O11 Zr2 2.112362 1_555
O11 Zr0 2.143902 1_556
O11 Yb3 2.264089 1_556
O11 Yb1 2.538247 1_545
