# generated using pymatgen
data_Ba5Re3IO15
_symmetry_space_group_name_H-M   'P 1'
_cell_length_a   11.22968433
_cell_length_b   11.22968433
_cell_length_c   7.99262900
_cell_angle_alpha   90.00000000
_cell_angle_beta   90.00000000
_cell_angle_gamma   120.00000194
_symmetry_Int_Tables_number   1
_chemical_formula_structural   Ba5Re3IO15
_chemical_formula_sum   'Ba10 Re6 I2 O30'
_cell_volume   872.88167094
_cell_formula_units_Z   2
loop_
 _symmetry_equiv_pos_site_id
 _symmetry_equiv_pos_as_xyz
  1  'x, y, z'
loop_
 _atom_site_type_symbol
 _atom_site_label
 _atom_site_symmetry_multiplicity
 _atom_site_fract_x
 _atom_site_fract_y
 _atom_site_fract_z
 _atom_site_occupancy
  Ba  Ba0  1  0.27278300  0.27278300  0.76917700  1
  Ba  Ba1  1  0.00000000  0.72721700  0.76917700  1
  Ba  Ba2  1  0.72721700  0.72721700  0.26917700  1
  Ba  Ba3  1  0.00000000  0.27278300  0.26917700  1
  Ba  Ba4  1  0.72721700  0.00000000  0.76917700  1
  Ba  Ba5  1  0.27278300  0.00000000  0.26917700  1
  Ba  Ba6  1  0.66666700  0.33333300  0.52948200  1
  Ba  Ba7  1  0.33333300  0.66666700  0.02948200  1
  Ba  Ba8  1  0.66666700  0.33333300  0.02948200  1
  Ba  Ba9  1  0.33333300  0.66666700  0.52948200  1
  Re  Re0  1  0.60883200  0.60883200  0.82521900  1
  Re  Re1  1  0.00000000  0.39116800  0.82521900  1
  Re  Re2  1  0.39116800  0.39116800  0.32521900  1
  Re  Re3  1  0.00000000  0.60883200  0.32521900  1
  Re  Re4  1  0.39116800  0.00000000  0.82521900  1
  Re  Re5  1  0.60883200  0.00000000  0.32521900  1
  I  I0  1  0.00000000  0.00000000  0.00371200  1
  I  I1  1  0.00000000  0.00000000  0.50371200  1
  O  O0  1  0.70090600  0.70090600  0.64728800  1
  O  O1  1  0.00000000  0.29909400  0.64728800  1
  O  O2  1  0.29909400  0.29909400  0.14728800  1
  O  O3  1  0.00000000  0.70090600  0.14728800  1
  O  O4  1  0.29909400  0.00000000  0.64728800  1
  O  O5  1  0.70090600  0.00000000  0.14728800  1
  O  O6  1  0.86988300  0.44598400  0.78599500  1
  O  O7  1  0.57610200  0.13011700  0.78599500  1
  O  O8  1  0.13011700  0.55401600  0.28599500  1
  O  O9  1  0.57610200  0.44598400  0.28599500  1
  O  O10  1  0.55401600  0.42389800  0.78599500  1
  O  O11  1  0.42389800  0.86988300  0.28599500  1
  O  O12  1  0.55401600  0.13011700  0.28599500  1
  O  O13  1  0.42389800  0.55401600  0.78599500  1
  O  O14  1  0.44598400  0.57610200  0.28599500  1
  O  O15  1  0.44598400  0.86988300  0.78599500  1
  O  O16  1  0.86988300  0.42389800  0.28599500  1
  O  O17  1  0.13011700  0.57610200  0.78599500  1
  O  O18  1  0.86914200  0.25895500  0.96451700  1
  O  O19  1  0.38981300  0.13085800  0.96451700  1
  O  O20  1  0.13085800  0.74104500  0.46451700  1
  O  O21  1  0.38981300  0.25895500  0.46451700  1
  O  O22  1  0.74104500  0.61018700  0.96451700  1
  O  O23  1  0.61018700  0.86914200  0.46451700  1
  O  O24  1  0.74104500  0.13085800  0.46451700  1
  O  O25  1  0.61018700  0.74104500  0.96451700  1
  O  O26  1  0.25895500  0.38981300  0.46451700  1
  O  O27  1  0.25895500  0.86914200  0.96451700  1
  O  O28  1  0.86914200  0.61018700  0.46451700  1
  O  O29  1  0.13085800  0.38981300  0.96451700  1
loop_
_geom_bond_atom_site_label_1
_geom_bond_atom_site_label_2
_geom_bond_distance
_geom_bond_site_symmetry_2
Ba0 O13 2.740883 1_555
Ba0 O10 2.740883 1_555
Ba0 O26 2.807976 1_555
Ba0 O21 2.807976 1_555
Ba0 O19 2.966380 1_555
Ba0 O29 2.966380 1_555
Ba0 O2 3.036510 1_556
Ba0 O4 3.365276 1_555
Ba0 O1 3.365276 1_555
Ba0 I0 3.591315 1_556
Ba0 I1 3.726323 1_555
Ba1 O17 2.740873 1_555
Ba1 O6 2.740883 1_455
Ba1 O28 2.807976 1_455
Ba1 O20 2.807976 1_555
Ba1 O27 2.966380 1_555
Ba1 O22 2.966380 1_455
Ba1 O3 3.036510 1_556
Ba1 O4 3.365276 1_565
Ba1 O0 3.365276 1_455
Ba1 I0 3.591315 1_566
Ba1 I1 3.726323 1_565
Ba2 O14 2.740883 1_555
Ba2 O9 2.740883 1_555
Ba2 O25 2.807976 1_554
Ba2 O22 2.807976 1_554
Ba2 O28 2.966380 1_555
Ba2 O23 2.966380 1_555
Ba2 O0 3.036510 1_555
Ba2 O3 3.365276 1_655
Ba2 O5 3.365276 1_565
Ba2 I1 3.591315 1_665
Ba2 I0 3.726323 1_665
Ba3 O16 2.740873 1_455
Ba3 O8 2.740883 1_555
Ba3 O29 2.807976 1_554
Ba3 O18 2.807976 1_454
Ba3 O24 2.966380 1_455
Ba3 O26 2.966380 1_555
Ba3 O1 3.036510 1_555
Ba3 O5 3.365276 1_455
Ba3 O2 3.365276 1_555
Ba3 I1 3.591315 1_555
Ba3 I0 3.726323 1_555
Ba4 O7 2.740873 1_555
Ba4 O15 2.740883 1_545
Ba4 O23 2.807976 1_545
Ba4 O24 2.807976 1_555
Ba4 O18 2.966380 1_555
Ba4 O25 2.966380 1_545
Ba4 O5 3.036510 1_556
Ba4 O1 3.365276 1_655
Ba4 O0 3.365276 1_545
Ba4 I0 3.591315 1_656
Ba4 I1 3.726323 1_655
Ba5 O11 2.740873 1_545
Ba5 O12 2.740883 1_555
Ba5 O19 2.807976 1_554
Ba5 O27 2.807976 1_544
Ba5 O20 2.966380 1_545
Ba5 O21 2.966380 1_555
Ba5 O4 3.036510 1_555
Ba5 O3 3.365276 1_545
Ba5 O2 3.365276 1_555
Ba5 I1 3.591315 1_555
Ba5 I0 3.726323 1_555
Ba6 O12 2.776420 1_555
Ba6 O16 2.776420 1_555
Ba6 O9 2.776420 1_555
Ba6 O24 2.834820 1_555
Ba6 O28 2.834828 1_555
Ba6 O21 2.834830 1_555
Ba6 O6 2.850363 1_555
Ba6 O7 2.850363 1_555
Ba6 O10 2.850364 1_555
Ba7 O15 2.776420 1_554
Ba7 O17 2.776420 1_554
Ba7 O13 2.776420 1_554
Ba7 O27 2.834820 1_554
Ba7 O29 2.834828 1_554
Ba7 O25 2.834830 1_554
Ba7 O8 2.850363 1_555
Ba7 O11 2.850363 1_555
Ba7 O14 2.850364 1_555
Ba8 O6 2.776420 1_554
Ba8 O7 2.776420 1_554
Ba8 O10 2.776420 1_554
Ba8 O18 2.834820 1_554
Ba8 O19 2.834828 1_554
Ba8 O22 2.834830 1_554
Ba8 O12 2.850363 1_555
Ba8 O16 2.850363 1_555
Ba8 O9 2.850364 1_555
Ba9 O8 2.776420 1_555
Ba9 O11 2.776420 1_555
Ba9 O14 2.776420 1_555
Ba9 O20 2.834820 1_555
Ba9 O23 2.834828 1_555
Ba9 O26 2.834830 1_555
Ba9 O15 2.850363 1_555
Ba9 O17 2.850363 1_555
Ba9 O13 2.850364 1_555
O0 Re0 1.758280 1_555
O1 Re1 1.758280 1_555
O2 Re2 1.758280 1_555
O3 Re3 1.758280 1_555
O4 Re4 1.758280 1_555
O5 Re5 1.758280 1_555
O6 Re1 1.873948 1_655
O7 Re4 1.873956 1_555
O8 Re3 1.873948 1_555
O9 Re2 1.873959 1_555
O10 Re0 1.873959 1_555
O11 Re5 1.873956 1_565
O12 Re5 1.873948 1_555
O13 Re0 1.873959 1_555
O14 Re2 1.873959 1_555
O15 Re4 1.873948 1_565
O16 Re3 1.873956 1_655
O17 Re1 1.873956 1_555
O18 Re1 1.849748 1_655
O19 Re4 1.849748 1_555
O20 Re3 1.849748 1_555
O21 Re2 1.849748 1_555
O22 Re0 1.849748 1_555
O23 Re5 1.849748 1_565
O24 Re5 1.849748 1_555
O25 Re0 1.849748 1_555
O26 Re2 1.849748 1_555
O27 Re4 1.849748 1_565
O28 Re3 1.849748 1_655
O29 Re1 1.849748 1_555
