# generated using pymatgen
data_Rb3RuF6
_symmetry_space_group_name_H-M   'P 1'
_cell_length_a   6.49831451
_cell_length_b   6.49832718
_cell_length_c   6.45089368
_cell_angle_alpha   60.24103829
_cell_angle_beta   60.24123368
_cell_angle_gamma   59.51772802
_symmetry_Int_Tables_number   1
_chemical_formula_structural   Rb3RuF6
_chemical_formula_sum   'Rb3 Ru1 F6'
_cell_volume   192.60220411
_cell_formula_units_Z   1
loop_
 _symmetry_equiv_pos_site_id
 _symmetry_equiv_pos_as_xyz
  1  'x, y, z'
loop_
 _atom_site_type_symbol
 _atom_site_label
 _atom_site_symmetry_multiplicity
 _atom_site_fract_x
 _atom_site_fract_y
 _atom_site_fract_z
 _atom_site_occupancy
  Rb  Rb0  1  0.75000000  0.75000000  0.75000000  1
  Rb  Rb1  1  0.25000000  0.25000000  0.25000000  1
  Rb  Rb2  1  0.50000000  0.50000000  0.50000000  1
  Ru  Ru0  1  -0.00000000  0.00000000  0.00000000  1
  F  F0  1  0.78311765  0.21688235  0.21688235  1
  F  F1  1  0.22061558  0.22061558  0.77938442  1
  F  F2  1  0.21688235  0.78311765  0.78311765  1
  F  F3  1  0.21688135  0.78311865  0.21688135  1
  F  F4  1  0.78311865  0.21688135  0.78311865  1
  F  F5  1  0.77938442  0.77938442  0.22061558  1
loop_
_geom_bond_atom_site_label_1
_geom_bond_atom_site_label_2
_geom_bond_distance
_geom_bond_site_symmetry_2
F0 Ru0 1.978609 1_655
F0 Rb2 2.582871 1_555
F0 Rb1 3.263174 1_555
F0 Rb0 3.263174 1_545
F0 Rb1 3.263174 1_655
F0 Rb0 3.263174 1_554
F1 Ru0 2.042150 1_556
F1 Rb2 2.586150 1_555
F1 Rb1 3.236895 1_555
F1 Rb1 3.236895 1_556
F1 Rb0 3.236895 1_545
F1 Rb0 3.236895 1_455
F2 Ru0 1.978609 1_566
F2 Rb2 2.582871 1_555
F2 Rb1 3.263174 1_565
F2 Rb1 3.263174 1_556
F2 Rb0 3.263174 1_455
F2 Rb0 3.263174 1_555
F3 Ru0 1.978592 1_565
F3 Rb2 2.582870 1_555
F3 Rb0 3.263181 1_455
F3 Rb1 3.263181 1_555
F3 Rb1 3.263181 1_565
F3 Rb0 3.263181 1_554
F4 Ru0 1.978592 1_656
F4 Rb2 2.582870 1_555
F4 Rb1 3.263181 1_655
F4 Rb0 3.263181 1_555
F4 Rb0 3.263181 1_545
F4 Rb1 3.263181 1_556
F5 Ru0 2.042150 1_665
F5 Rb2 2.586150 1_555
F5 Rb0 3.236895 1_555
F5 Rb1 3.236895 1_565
F5 Rb1 3.236895 1_655
F5 Rb0 3.236895 1_554
