# generated using pymatgen
data_SiPHO5
_symmetry_space_group_name_H-M   'P 1'
_cell_length_a   7.00109800
_cell_length_b   6.92027300
_cell_length_c   6.95476851
_cell_angle_alpha   60.00475871
_cell_angle_beta   90.00000000
_cell_angle_gamma   90.00000000
_symmetry_Int_Tables_number   1
_chemical_formula_structural   SiPHO5
_chemical_formula_sum   'Si4 P4 H4 O20'
_cell_volume   291.82568808
_cell_formula_units_Z   4
loop_
 _symmetry_equiv_pos_site_id
 _symmetry_equiv_pos_as_xyz
  1  'x, y, z'
loop_
 _atom_site_type_symbol
 _atom_site_label
 _atom_site_symmetry_multiplicity
 _atom_site_fract_x
 _atom_site_fract_y
 _atom_site_fract_z
 _atom_site_occupancy
  Si  Si0  1  0.24994700  0.25064400  0.50006300  1
  Si  Si1  1  0.25005300  0.25064400  0.00006300  1
  Si  Si2  1  0.75005300  0.74935600  0.49993700  1
  Si  Si3  1  0.74994700  0.74935600  0.99993700  1
  P  P0  1  0.88256400  0.25051300  0.25033000  1
  P  P1  1  0.61743600  0.25051300  0.75033000  1
  P  P2  1  0.11743600  0.74948700  0.74967000  1
  P  P3  1  0.38256400  0.74948700  0.24967000  1
  H  H0  1  0.02566700  0.21576200  0.76757500  1
  H  H1  1  0.47433300  0.21576200  0.26757500  1
  H  H2  1  0.97433300  0.78423800  0.23242500  1
  H  H3  1  0.52566700  0.78423800  0.73242500  1
  O  O0  1  0.01085000  0.25053500  0.43049900  1
  O  O1  1  0.48915000  0.25053500  0.93049900  1
  O  O2  1  0.98915000  0.74946500  0.56950100  1
  O  O3  1  0.51085000  0.74946500  0.06950100  1
  O  O4  1  0.16410100  0.24669800  0.75186900  1
  O  O5  1  0.33589900  0.24669800  0.25186900  1
  O  O6  1  0.83589900  0.75330200  0.24813100  1
  O  O7  1  0.66410100  0.75330200  0.74813100  1
  O  O8  1  0.74817500  0.45295200  0.14791700  1
  O  O9  1  0.75182500  0.45295200  0.64791700  1
  O  O10  1  0.25182500  0.54704800  0.85208300  1
  O  O11  1  0.24817500  0.54704800  0.35208300  1
  O  O12  1  0.74504200  0.05041500  0.35067800  1
  O  O13  1  0.75495800  0.05041500  0.85067800  1
  O  O14  1  0.25495800  0.94958500  0.64932200  1
  O  O15  1  0.24504200  0.94958500  0.14932200  1
  O  O16  1  0.01045400  0.24644000  0.07186000  1
  O  O17  1  0.48954600  0.24644000  0.57186000  1
  O  O18  1  0.98954600  0.75356000  0.92814000  1
  O  O19  1  0.51045400  0.75356000  0.42814000  1
loop_
_geom_bond_atom_site_label_1
_geom_bond_atom_site_label_2
_geom_bond_distance
_geom_bond_site_symmetry_2
H0 O4 0.986768 1_555
H1 O5 0.986768 1_555
H2 O6 0.986768 1_555
H3 O7 0.986768 1_555
O0 P0 1.541734 1_455
O0 Si0 1.742558 1_555
O1 P1 1.541734 1_555
O1 Si1 1.742558 1_556
O2 P2 1.541734 1_655
O2 Si2 1.742558 1_555
O3 P3 1.541734 1_555
O3 Si3 1.742558 1_554
O4 Si0 1.838759 1_555
O4 Si1 1.841065 1_556
O5 Si1 1.838759 1_555
O5 Si0 1.841065 1_555
O6 Si2 1.838759 1_555
O6 Si3 1.841065 1_554
O7 Si3 1.838759 1_555
O7 Si2 1.841065 1_555
O8 P0 1.535409 1_555
O8 Si3 1.776521 1_554
O9 P1 1.535409 1_555
O9 Si2 1.776521 1_555
O10 P2 1.535409 1_555
O10 Si1 1.776521 1_556
O11 P3 1.535409 1_555
O11 Si0 1.776521 1_555
O12 P0 1.537946 1_555
O12 Si2 1.804717 1_545
O13 P1 1.537946 1_555
O13 Si3 1.804717 1_545
O14 P2 1.537946 1_555
O14 Si0 1.804717 1_565
O15 P3 1.537946 1_555
O15 Si1 1.804717 1_565
O16 P0 1.542104 1_455
O16 Si1 1.746285 1_555
O17 P1 1.542104 1_555
O17 Si0 1.746285 1_555
O18 P2 1.542104 1_655
O18 Si3 1.746285 1_555
O19 P3 1.542104 1_555
O19 Si2 1.746285 1_555
