# generated using pymatgen
data_Tl
_symmetry_space_group_name_H-M   'P 1'
_cell_length_a   6.97586453
_cell_length_b   6.97586601
_cell_length_c   6.97586666
_cell_angle_alpha   60.00001682
_cell_angle_beta   60.00000987
_cell_angle_gamma   60.00001358
_symmetry_Int_Tables_number   1
_chemical_formula_structural   Tl
_chemical_formula_sum   Tl8
_cell_volume   240.03770928
_cell_formula_units_Z   8
loop_
 _symmetry_equiv_pos_site_id
 _symmetry_equiv_pos_as_xyz
  1  'x, y, z'
loop_
 _atom_site_type_symbol
 _atom_site_label
 _atom_site_symmetry_multiplicity
 _atom_site_fract_x
 _atom_site_fract_y
 _atom_site_fract_z
 _atom_site_occupancy
  Tl  Tl0_0  1  0.00000000  0.00000000  0.00000000  1
  Tl  Tl0_1  1  0.00000000  0.00000000  0.50000000  1
  Tl  Tl0_2  1  0.00000000  0.50000000  0.00000000  1
  Tl  Tl0_3  1  0.00000000  0.50000000  0.50000000  1
  Tl  Tl0_4  1  0.50000000  0.00000000  0.00000000  1
  Tl  Tl0_5  1  0.50000000  0.00000000  0.50000000  1
  Tl  Tl0_6  1  0.50000000  0.50000000  0.00000000  1
  Tl  Tl0_7  1  0.50000000  0.50000000  0.50000000  1
loop_
_geom_bond_atom_site_label_1
_geom_bond_atom_site_label_2
_geom_bond_distance
_geom_bond_site_symmetry_2
Tl0_0 Tl0_4 3.487932 1_555
Tl0_0 Tl0_4 3.487932 1_455
Tl0_0 Tl0_2 3.487933 1_555
Tl0_0 Tl0_2 3.487933 1_545
Tl0_0 Tl0_5 3.487933 1_554
Tl0_0 Tl0_5 3.487933 1_455
Tl0_0 Tl0_1 3.487933 1_555
Tl0_0 Tl0_1 3.487933 1_554
Tl0_0 Tl0_6 3.487933 1_455
Tl0_0 Tl0_6 3.487933 1_545
Tl0_0 Tl0_3 3.487934 1_554
Tl0_0 Tl0_3 3.487934 1_545
Tl0_1 Tl0_5 3.487932 1_455
Tl0_1 Tl0_5 3.487932 1_555
Tl0_1 Tl0_3 3.487933 1_555
Tl0_1 Tl0_3 3.487933 1_545
Tl0_1 Tl0_4 3.487933 1_555
Tl0_1 Tl0_4 3.487933 1_456
Tl0_1 Tl0_7 3.487933 1_455
Tl0_1 Tl0_7 3.487933 1_545
Tl0_1 Tl0_2 3.487934 1_555
Tl0_1 Tl0_2 3.487934 1_546
Tl0_2 Tl0_6 3.487932 1_455
Tl0_2 Tl0_6 3.487932 1_555
Tl0_2 Tl0_7 3.487933 1_455
Tl0_2 Tl0_7 3.487933 1_554
Tl0_2 Tl0_3 3.487933 1_555
Tl0_2 Tl0_3 3.487933 1_554
Tl0_2 Tl0_4 3.487933 1_555
Tl0_2 Tl0_4 3.487933 1_465
Tl0_3 Tl0_7 3.487932 1_555
Tl0_3 Tl0_7 3.487932 1_455
Tl0_3 Tl0_6 3.487933 1_555
Tl0_3 Tl0_6 3.487933 1_456
Tl0_3 Tl0_5 3.487933 1_555
Tl0_3 Tl0_5 3.487933 1_465
Tl0_4 Tl0_6 3.487933 1_545
Tl0_4 Tl0_6 3.487933 1_555
Tl0_4 Tl0_5 3.487933 1_554
Tl0_4 Tl0_5 3.487933 1_555
Tl0_4 Tl0_7 3.487934 1_545
Tl0_4 Tl0_7 3.487934 1_554
Tl0_5 Tl0_7 3.487933 1_555
Tl0_5 Tl0_7 3.487933 1_545
Tl0_5 Tl0_6 3.487934 1_546
Tl0_5 Tl0_6 3.487934 1_555
Tl0_6 Tl0_7 3.487933 1_554
Tl0_6 Tl0_7 3.487933 1_555
