# generated using pymatgen
data_MgSi
_symmetry_space_group_name_H-M   'P 1'
_cell_length_a   5.24745100
_cell_length_b   6.05697958
_cell_length_c   14.34731405
_cell_angle_alpha   91.35392200
_cell_angle_beta   89.81123163
_cell_angle_gamma   101.88416033
_symmetry_Int_Tables_number   1
_chemical_formula_structural   MgSi
_chemical_formula_sum   'Mg12 Si12'
_cell_volume   446.11146271
_cell_formula_units_Z   12
loop_
 _symmetry_equiv_pos_site_id
 _symmetry_equiv_pos_as_xyz
  1  'x, y, z'
loop_
 _atom_site_type_symbol
 _atom_site_label
 _atom_site_symmetry_multiplicity
 _atom_site_fract_x
 _atom_site_fract_y
 _atom_site_fract_z
 _atom_site_occupancy
  Mg  Mg0  1  0.88860800  0.31789200  0.11362500  1
  Mg  Mg1  1  0.26914800  0.70873800  0.41983700  1
  Mg  Mg2  1  0.60033500  0.59064800  0.75510800  1
  Mg  Mg3  1  0.93275900  0.82569500  0.08818800  1
  Mg  Mg4  1  0.21126300  0.20074600  0.44797200  1
  Mg  Mg5  1  0.53515400  0.08072400  0.78101200  1
  Mg  Mg6  1  0.46484600  0.91927600  0.21898800  1
  Mg  Mg7  1  0.78873700  0.79925400  0.55202800  1
  Mg  Mg8  1  0.11139200  0.68210800  0.88637500  1
  Mg  Mg9  1  0.39966500  0.40935200  0.24489200  1
  Mg  Mg10  1  0.73085200  0.29126200  0.58016300  1
  Mg  Mg11  1  0.06724100  0.17430500  0.91181200  1
  Si  Si0  1  0.37285500  0.63303000  0.06319400  1
  Si  Si1  1  0.69433600  0.06978500  0.39803200  1
  Si  Si2  1  0.01763500  0.97192300  0.72950700  1
  Si  Si3  1  0.36722500  0.20725800  0.06815000  1
  Si  Si4  1  0.71285800  0.48406400  0.40195000  1
  Si  Si5  1  0.04118200  0.38295100  0.73524000  1
  Si  Si6  1  0.98236500  0.02807700  0.27049300  1
  Si  Si7  1  0.30566400  0.93021500  0.60196800  1
  Si  Si8  1  0.62714500  0.36697000  0.93680600  1
  Si  Si9  1  0.95881800  0.61704900  0.26476000  1
  Si  Si10  1  0.28714200  0.51593600  0.59805000  1
  Si  Si11  1  0.63277500  0.79274200  0.93185000  1
loop_
_geom_bond_atom_site_label_1
_geom_bond_atom_site_label_2
_geom_bond_distance
_geom_bond_site_symmetry_2
Mg0 Si3 2.756093 1_555
Mg0 Si9 2.768673 1_555
Mg0 Si3 2.800744 1_655
Mg0 Si8 2.938212 1_554
Mg0 Si0 2.946088 1_655
Mg0 Si6 2.989740 1_555
Mg1 Si9 2.739270 1_455
Mg1 Si1 2.806491 1_565
Mg1 Si10 2.845769 1_555
Mg1 Si7 2.897638 1_555
Mg1 Si4 2.936584 1_555
Mg1 Si4 2.965003 1_455
Mg2 Si10 2.766459 1_555
Mg2 Si11 2.779898 1_555
Mg2 Si5 2.862280 1_655
Mg2 Si2 2.866210 1_655
Mg2 Si5 2.956561 1_555
Mg2 Si8 2.983110 1_555
Mg3 Si11 2.724276 1_554
Mg3 Si0 2.812186 1_655
Mg3 Si6 2.851885 1_565
Mg3 Si9 2.873731 1_555
Mg3 Si3 2.911795 1_665
Mg3 Si0 2.949183 1_555
Mg4 Si1 2.756857 1_455
Mg4 Si10 2.817420 1_555
Mg4 Si7 2.885236 1_545
Mg4 Si1 2.890961 1_555
Mg4 Si6 2.897813 1_455
Mg4 Si4 2.913848 1_555
Mg5 Si2 2.758306 1_545
Mg5 Si8 2.777505 1_555
Mg5 Si2 2.835874 1_645
Mg5 Si7 2.887483 1_545
Mg5 Si11 2.922691 1_545
Mg5 Si5 2.979347 1_655
Mg6 Si6 2.758306 1_565
Mg6 Si0 2.777505 1_555
Mg6 Si6 2.835874 1_465
Mg6 Si1 2.887483 1_565
Mg6 Si3 2.922691 1_565
Mg6 Si9 2.979347 1_455
Mg7 Si7 2.756857 1_655
Mg7 Si4 2.817420 1_555
Mg7 Si1 2.885236 1_565
Mg7 Si7 2.890961 1_555
Mg7 Si2 2.897813 1_655
Mg7 Si10 2.913848 1_555
Mg8 Si11 2.756093 1_555
Mg8 Si5 2.768673 1_555
Mg8 Si11 2.800744 1_455
Mg8 Si0 2.938212 1_556
Mg8 Si8 2.946088 1_455
Mg8 Si2 2.989740 1_555
Mg9 Si4 2.766459 1_555
Mg9 Si3 2.779898 1_555
Mg9 Si9 2.862280 1_455
Mg9 Si6 2.866210 1_455
Mg9 Si9 2.956561 1_555
Mg9 Si0 2.983110 1_555
Mg10 Si5 2.739270 1_655
Mg10 Si7 2.806491 1_545
Mg10 Si4 2.845769 1_555
Mg10 Si1 2.897638 1_555
Mg10 Si10 2.936584 1_555
Mg10 Si10 2.965003 1_655
Mg11 Si3 2.724276 1_556
Mg11 Si8 2.812186 1_455
Mg11 Si2 2.851885 1_545
Mg11 Si5 2.873731 1_555
Mg11 Si11 2.911795 1_445
Mg11 Si8 2.949183 1_555
Si0 Si11 2.423418 1_554
Si0 Si3 2.575633 1_555
Si1 Si6 2.411165 1_555
Si1 Si4 2.490384 1_555
Si2 Si7 2.411165 1_555
Si2 Si5 2.466531 1_565
Si3 Si8 2.423418 1_554
Si4 Si9 2.412231 1_555
Si6 Si9 2.466531 1_545
Si10 Si5 2.412231 1_555
Si10 Si7 2.490384 1_555
Si11 Si8 2.575633 1_555
