# generated using pymatgen
data_Er2Zn17
_symmetry_space_group_name_H-M   'P 1'
_cell_length_a   8.71602200
_cell_length_b   8.96762630
_cell_length_c   8.96762630
_cell_angle_alpha   120.01264700
_cell_angle_beta   90.00000000
_cell_angle_gamma   90.00000000
_symmetry_Int_Tables_number   1
_chemical_formula_structural   Er2Zn17
_chemical_formula_sum   'Er4 Zn34'
_cell_volume   606.94395880
_cell_formula_units_Z   2
loop_
 _symmetry_equiv_pos_site_id
 _symmetry_equiv_pos_as_xyz
  1  'x, y, z'
loop_
 _atom_site_type_symbol
 _atom_site_label
 _atom_site_symmetry_multiplicity
 _atom_site_fract_x
 _atom_site_fract_y
 _atom_site_fract_z
 _atom_site_occupancy
  Er  Er0  1  0.75000000  0.99998600  0.00001400  1
  Er  Er1  1  0.25000000  0.00001400  0.99998600  1
  Er  Er2  1  0.25000000  0.66610900  0.33389100  1
  Er  Er3  1  0.75000000  0.33389100  0.66610900  1
  Zn  Zn0  1  0.59672000  0.66665500  0.33334500  1
  Zn  Zn1  1  0.40328000  0.33334500  0.66665500  1
  Zn  Zn2  1  0.09672000  0.33334500  0.66665500  1
  Zn  Zn3  1  0.90328000  0.66665500  0.33334500  1
  Zn  Zn4  1  0.50000000  0.50000000  0.00000000  1
  Zn  Zn5  1  0.50000000  0.50000000  0.50000000  1
  Zn  Zn6  1  0.50000000  0.00000000  0.50000000  1
  Zn  Zn7  1  0.00000000  0.50000000  0.00000000  1
  Zn  Zn8  1  0.00000000  0.50000000  0.50000000  1
  Zn  Zn9  1  0.00000000  0.00000000  0.50000000  1
  Zn  Zn10  1  0.75000000  0.67060700  0.03223100  1
  Zn  Zn11  1  0.75000000  0.36156500  0.32948100  1
  Zn  Zn12  1  0.75000000  0.96777500  0.63833300  1
  Zn  Zn13  1  0.75000000  0.36166700  0.03222500  1
  Zn  Zn14  1  0.75000000  0.96776900  0.32939300  1
  Zn  Zn15  1  0.75000000  0.67051900  0.63843500  1
  Zn  Zn16  1  0.25000000  0.32939300  0.96776900  1
  Zn  Zn17  1  0.25000000  0.63843500  0.67051900  1
  Zn  Zn18  1  0.25000000  0.03222500  0.36166700  1
  Zn  Zn19  1  0.25000000  0.63833300  0.96777500  1
  Zn  Zn20  1  0.25000000  0.03223100  0.67060700  1
  Zn  Zn21  1  0.25000000  0.32948100  0.36156500  1
  Zn  Zn22  1  0.48227600  0.83837900  0.67708700  1
  Zn  Zn23  1  0.48200500  0.83851400  0.16148600  1
  Zn  Zn24  1  0.48227600  0.32291300  0.16162100  1
  Zn  Zn25  1  0.51772400  0.16162100  0.32291300  1
  Zn  Zn26  1  0.51799500  0.16148600  0.83851400  1
  Zn  Zn27  1  0.51772400  0.67708700  0.83837900  1
  Zn  Zn28  1  0.98227600  0.16162100  0.32291300  1
  Zn  Zn29  1  0.98200500  0.16148600  0.83851400  1
  Zn  Zn30  1  0.98227600  0.67708700  0.83837900  1
  Zn  Zn31  1  0.01772400  0.83837900  0.67708700  1
  Zn  Zn32  1  0.01799500  0.83851400  0.16148600  1
  Zn  Zn33  1  0.01772400  0.32291300  0.16162100  1
loop_
_geom_bond_atom_site_label_1
_geom_bond_atom_site_label_2
_geom_bond_distance
_geom_bond_site_symmetry_2
Er0 Zn11 3.107952 1_565
Er0 Zn15 3.107952 1_554
Er0 Zn10 3.108342 1_555
Er0 Zn14 3.108342 1_555
Er0 Zn13 3.109015 1_565
Er0 Zn12 3.109015 1_554
Er0 Zn29 3.222174 1_564
Er0 Zn26 3.222174 1_564
Er0 Zn30 3.222674 1_554
Er0 Zn27 3.222674 1_554
Er0 Zn28 3.222674 1_565
Er0 Zn25 3.222674 1_565
Er0 Zn22 3.425375 1_554
Er0 Zn31 3.425375 1_654
Er0 Zn24 3.425375 1_565
Er0 Zn33 3.425375 1_665
Er0 Zn32 3.427432 1_655
Er0 Zn23 3.427432 1_555
Er1 Zn21 3.107952 1_556
Er1 Zn17 3.107952 1_545
Er1 Zn20 3.108342 1_555
Er1 Zn16 3.108342 1_555
Er1 Zn18 3.109015 1_556
Er1 Zn19 3.109015 1_545
Er1 Zn23 3.222174 1_546
Er1 Zn32 3.222174 1_546
Er1 Zn31 3.222674 1_545
Er1 Zn22 3.222674 1_545
Er1 Zn33 3.222674 1_556
Er1 Zn24 3.222674 1_556
Er1 Zn27 3.425375 1_545
Er1 Zn25 3.425375 1_556
Er1 Zn30 3.425375 1_445
Er1 Zn28 3.425375 1_456
Er1 Zn26 3.427432 1_555
Er1 Zn29 3.427432 1_455
Er2 Zn3 3.022031 1_455
Er2 Zn0 3.022031 1_555
Er2 Zn17 3.150225 1_555
Er2 Zn21 3.150225 1_555
Er2 Zn20 3.159058 1_565
Er2 Zn16 3.159058 1_554
Er2 Zn18 3.165957 1_565
Er2 Zn19 3.165957 1_554
Er2 Zn31 3.346771 1_555
Er2 Zn24 3.346771 1_555
Er2 Zn33 3.346771 1_555
Er2 Zn22 3.346771 1_555
Er2 Zn23 3.355739 1_555
Er2 Zn32 3.355739 1_555
Er2 Zn8 3.377228 1_555
Er2 Zn5 3.377228 1_555
Er2 Zn6 3.386796 1_565
Er2 Zn7 3.386796 1_555
Er2 Zn4 3.386796 1_555
Er2 Zn9 3.386796 1_565
Er3 Zn2 3.022031 1_655
Er3 Zn1 3.022031 1_555
Er3 Zn15 3.150225 1_555
Er3 Zn11 3.150225 1_555
Er3 Zn10 3.159058 1_556
Er3 Zn14 3.159058 1_545
Er3 Zn13 3.165957 1_556
Er3 Zn12 3.165957 1_545
Er3 Zn30 3.346771 1_555
Er3 Zn28 3.346771 1_555
Er3 Zn25 3.346771 1_555
Er3 Zn27 3.346771 1_555
Er3 Zn29 3.355739 1_555
Er3 Zn26 3.355739 1_555
Er3 Zn5 3.377228 1_555
Er3 Zn8 3.377228 1_655
Er3 Zn7 3.386796 1_656
Er3 Zn4 3.386796 1_556
Er3 Zn9 3.386796 1_655
Er3 Zn6 3.386796 1_555
Zn0 Zn3 2.671984 1_555
Zn0 Zn4 2.722308 1_555
Zn0 Zn6 2.722308 1_565
Zn0 Zn5 2.722520 1_555
Zn0 Zn24 2.849521 1_555
Zn0 Zn22 2.849521 1_555
Zn0 Zn23 2.850652 1_555
Zn0 Zn12 3.027988 1_555
Zn0 Zn13 3.027988 1_555
Zn0 Zn14 3.028756 1_555
Zn0 Zn10 3.028756 1_555
Zn0 Zn15 3.029285 1_555
Zn0 Zn11 3.029285 1_555
Zn1 Zn2 2.671984 1_555
Zn1 Zn4 2.722308 1_556
Zn1 Zn6 2.722308 1_555
Zn1 Zn5 2.722520 1_555
Zn1 Zn27 2.849521 1_555
Zn1 Zn25 2.849521 1_555
Zn1 Zn26 2.850652 1_555
Zn1 Zn19 3.027988 1_555
Zn1 Zn18 3.027988 1_555
Zn1 Zn16 3.028756 1_555
Zn1 Zn20 3.028756 1_555
Zn1 Zn17 3.029285 1_555
Zn1 Zn21 3.029285 1_555
Zn2 Zn9 2.722308 1_555
Zn2 Zn7 2.722308 1_556
Zn2 Zn8 2.722520 1_555
Zn2 Zn28 2.849521 1_455
Zn2 Zn30 2.849521 1_455
Zn2 Zn29 2.850652 1_455
Zn2 Zn20 3.028756 1_555
Zn2 Zn21 3.029285 1_555
Zn3 Zn7 2.722308 1_655
Zn3 Zn9 2.722308 1_665
Zn3 Zn8 2.722520 1_655
Zn3 Zn33 2.849521 1_655
Zn3 Zn31 2.849521 1_655
Zn3 Zn32 2.850652 1_655
Zn10 Zn7 2.594214 1_655
Zn10 Zn4 2.594214 1_555
Zn10 Zn14 2.664328 1_555
Zn10 Zn30 2.687961 1_554
Zn10 Zn27 2.687961 1_554
Zn10 Zn32 2.705730 1_655
Zn10 Zn23 2.705730 1_555
Zn10 Zn13 2.770432 1_555
Zn10 Zn3 3.028756 1_555
Zn11 Zn5 2.593927 1_555
Zn11 Zn8 2.593927 1_655
Zn11 Zn13 2.666138 1_555
Zn11 Zn28 2.685413 1_555
Zn11 Zn25 2.685413 1_555
Zn11 Zn24 2.703570 1_555
Zn11 Zn33 2.703570 1_655
Zn11 Zn15 2.770054 1_555
Zn11 Zn3 3.029285 1_555
Zn12 Zn9 2.594048 1_665
Zn12 Zn6 2.594048 1_565
Zn12 Zn15 2.666138 1_555
Zn12 Zn29 2.685090 1_565
Zn12 Zn26 2.685090 1_565
Zn12 Zn22 2.704780 1_555
Zn12 Zn31 2.704780 1_655
Zn12 Zn14 2.770432 1_555
Zn12 Zn3 3.027988 1_555
Zn13 Zn4 2.594048 1_555
Zn13 Zn7 2.594048 1_655
Zn13 Zn29 2.685090 1_554
Zn13 Zn26 2.685090 1_554
Zn13 Zn24 2.704780 1_555
Zn13 Zn33 2.704780 1_655
Zn13 Zn3 3.027988 1_555
Zn14 Zn6 2.594214 1_565
Zn14 Zn9 2.594214 1_665
Zn14 Zn28 2.687961 1_565
Zn14 Zn25 2.687961 1_565
Zn14 Zn32 2.705730 1_655
Zn14 Zn23 2.705730 1_555
Zn14 Zn3 3.028756 1_555
Zn15 Zn8 2.593927 1_655
Zn15 Zn5 2.593927 1_555
Zn15 Zn30 2.685413 1_555
Zn15 Zn27 2.685413 1_555
Zn15 Zn22 2.703570 1_555
Zn15 Zn31 2.703570 1_655
Zn15 Zn3 3.029285 1_555
Zn16 Zn4 2.594214 1_556
Zn16 Zn7 2.594214 1_556
Zn16 Zn20 2.664328 1_555
Zn16 Zn33 2.687961 1_556
Zn16 Zn24 2.687961 1_556
Zn16 Zn26 2.705730 1_555
Zn16 Zn29 2.705730 1_455
Zn16 Zn19 2.770432 1_555
Zn16 Zn2 3.028756 1_555
Zn17 Zn5 2.593927 1_555
Zn17 Zn8 2.593927 1_555
Zn17 Zn19 2.666138 1_555
Zn17 Zn31 2.685413 1_555
Zn17 Zn22 2.685413 1_555
Zn17 Zn27 2.703570 1_555
Zn17 Zn30 2.703570 1_455
Zn17 Zn21 2.770054 1_555
Zn17 Zn2 3.029285 1_555
Zn18 Zn9 2.594048 1_555
Zn18 Zn6 2.594048 1_555
Zn18 Zn21 2.666138 1_555
Zn18 Zn23 2.685090 1_545
Zn18 Zn32 2.685090 1_545
Zn18 Zn25 2.704780 1_555
Zn18 Zn28 2.704780 1_455
Zn18 Zn20 2.770432 1_555
Zn18 Zn2 3.027988 1_555
Zn19 Zn4 2.594048 1_556
Zn19 Zn7 2.594048 1_556
Zn19 Zn23 2.685090 1_556
Zn19 Zn32 2.685090 1_556
Zn19 Zn27 2.704780 1_555
Zn19 Zn30 2.704780 1_455
Zn19 Zn2 3.027988 1_555
Zn20 Zn9 2.594214 1_555
Zn20 Zn6 2.594214 1_555
Zn20 Zn22 2.687961 1_545
Zn20 Zn31 2.687961 1_545
Zn20 Zn26 2.705730 1_555
Zn20 Zn29 2.705730 1_455
Zn21 Zn8 2.593927 1_555
Zn21 Zn5 2.593927 1_555
Zn21 Zn24 2.685413 1_555
Zn21 Zn33 2.685413 1_555
Zn21 Zn25 2.703570 1_555
Zn21 Zn28 2.703570 1_455
Zn22 Zn27 2.524388 1_555
Zn22 Zn26 2.528233 1_565
Zn22 Zn5 2.633056 1_555
Zn22 Zn6 2.636083 1_565
Zn23 Zn25 2.528233 1_565
Zn23 Zn27 2.528233 1_554
Zn23 Zn4 2.634242 1_555
Zn23 Zn6 2.634242 1_565
Zn24 Zn25 2.524388 1_555
Zn24 Zn26 2.528233 1_554
Zn24 Zn5 2.633056 1_555
Zn24 Zn4 2.636083 1_555
Zn25 Zn5 2.633056 1_555
Zn25 Zn6 2.636083 1_555
Zn26 Zn6 2.634242 1_555
Zn26 Zn4 2.634242 1_556
Zn27 Zn5 2.633056 1_555
Zn27 Zn4 2.636083 1_556
Zn28 Zn33 2.524388 1_655
Zn28 Zn32 2.528233 1_645
Zn28 Zn8 2.633056 1_655
Zn28 Zn9 2.636083 1_655
Zn29 Zn33 2.528233 1_656
Zn29 Zn31 2.528233 1_645
Zn29 Zn9 2.634242 1_655
Zn29 Zn7 2.634242 1_656
Zn30 Zn31 2.524388 1_655
Zn30 Zn32 2.528233 1_656
Zn30 Zn8 2.633056 1_655
Zn30 Zn7 2.636083 1_656
Zn31 Zn8 2.633056 1_555
Zn31 Zn9 2.636083 1_565
Zn32 Zn9 2.634242 1_565
Zn32 Zn7 2.634242 1_555
Zn33 Zn8 2.633056 1_555
Zn33 Zn7 2.636083 1_555
