# generated using pymatgen
data_Mg14MnCr
_symmetry_space_group_name_H-M   'P 1'
_cell_length_a   6.31386046
_cell_length_b   6.31385995
_cell_length_c   10.02625703
_cell_angle_alpha   90.00000000
_cell_angle_beta   90.00000000
_cell_angle_gamma   120.00000265
_symmetry_Int_Tables_number   1
_chemical_formula_structural   Mg14MnCr
_chemical_formula_sum   'Mg14 Mn1 Cr1'
_cell_volume   346.14604846
_cell_formula_units_Z   1
loop_
 _symmetry_equiv_pos_site_id
 _symmetry_equiv_pos_as_xyz
  1  'x, y, z'
loop_
 _atom_site_type_symbol
 _atom_site_label
 _atom_site_symmetry_multiplicity
 _atom_site_fract_x
 _atom_site_fract_y
 _atom_site_fract_z
 _atom_site_occupancy
  Mg  Mg0  1  0.16789800  0.83394850  0.12500000  1
  Mg  Mg1  1  0.16843073  0.83421486  0.62500000  1
  Mg  Mg2  1  0.66605150  0.33210200  0.12500000  1
  Mg  Mg3  1  0.66578514  0.33156927  0.62500000  1
  Mg  Mg4  1  0.66605150  0.83394850  0.12500000  1
  Mg  Mg5  1  0.66578514  0.83421486  0.62500000  1
  Mg  Mg6  1  0.32920395  0.17079605  0.37412090  1
  Mg  Mg7  1  0.32920395  0.17079605  0.87587910  1
  Mg  Mg8  1  0.32920395  0.65840890  0.37412090  1
  Mg  Mg9  1  0.32920395  0.65840890  0.87587910  1
  Mg  Mg10  1  0.84159110  0.17079605  0.37412090  1
  Mg  Mg11  1  0.84159110  0.17079605  0.87587910  1
  Mg  Mg12  1  0.83333300  0.66666700  0.37434733  1
  Mg  Mg13  1  0.83333300  0.66666700  0.87565267  1
  Mn  Mn0  1  0.16666700  0.33333300  0.12500000  1
  Cr  Cr0  1  0.16666700  0.33333300  0.62500000  1
loop_
_geom_bond_atom_site_label_1
_geom_bond_atom_site_label_2
_geom_bond_distance
_geom_bond_site_symmetry_2
Mg0 Mg13 3.097865 1_454
Mg0 Mg12 3.097865 1_455
Mg0 Mg8 3.103743 1_555
Mg0 Mg9 3.103743 1_554
Mg0 Mg6 3.103749 1_565
Mg0 Mg7 3.103749 1_564
Mg0 Mg2 3.145271 1_565
Mg0 Mg4 3.145272 1_555
Mg0 Mn0 3.156937 1_555
Mg0 Mn0 3.156937 1_565
Mg0 Mg2 3.168589 1_455
Mg0 Mg4 3.168589 1_455
Mg1 Mg13 3.110152 1_455
Mg1 Mg12 3.110152 1_455
Mg1 Mg9 3.117124 1_555
Mg1 Mg8 3.117124 1_555
Mg1 Mg6 3.117131 1_565
Mg1 Mg7 3.117131 1_565
Mg1 Mg3 3.140226 1_565
Mg1 Mg5 3.140226 1_555
Mg1 Mg3 3.173634 1_455
Mg1 Mg5 3.173634 1_455
Mg2 Mg6 3.103750 1_555
Mg2 Mg7 3.103750 1_554
Mg2 Mg4 3.145271 1_545
Mg2 Mn0 3.156937 1_555
Mg2 Mn0 3.156937 1_655
Mg2 Mg4 3.168589 1_555
Mg3 Mg6 3.117131 1_555
Mg3 Mg7 3.117131 1_555
Mg3 Mg5 3.140226 1_545
Mg3 Mg5 3.173634 1_555
Mg4 Mg8 3.103749 1_555
Mg4 Mg9 3.103749 1_554
Mg4 Mn0 3.156937 1_555
Mg4 Mn0 3.156937 1_665
Mg5 Mg9 3.117130 1_555
Mg5 Mg8 3.117130 1_555
Mg6 Mn0 3.065654 1_555
Mg6 Mg8 3.078719 1_555
Mg6 Mg8 3.235141 1_545
Mg7 Mn0 3.065654 1_556
Mg7 Mg9 3.078719 1_555
Mg7 Mg9 3.235141 1_545
Mg8 Mn0 3.065660 1_555
Mg9 Mn0 3.065660 1_556
Mg10 Mn0 3.065660 1_655
Mg10 Mg8 3.078719 1_655
Mg10 Mg6 3.078719 1_655
Mg10 Mg2 3.103743 1_555
Mg10 Mg4 3.103749 1_545
Mg10 Mg3 3.117124 1_555
Mg10 Mg5 3.117130 1_545
Mg10 Mg12 3.157254 1_545
Mg10 Mg12 3.157254 1_555
Mg10 Mg8 3.235141 1_545
Mg10 Mg6 3.235141 1_555
Mg11 Mn0 3.065660 1_656
Mg11 Mg9 3.078719 1_655
Mg11 Mg7 3.078719 1_655
Mg11 Mg2 3.103743 1_556
Mg11 Mg4 3.103749 1_546
Mg11 Mg3 3.117124 1_555
Mg11 Mg5 3.117130 1_545
Mg11 Mg13 3.157254 1_545
Mg11 Mg13 3.157254 1_555
Mg11 Mg9 3.235141 1_545
Mg11 Mg7 3.235141 1_555
Mg12 Mg4 3.097858 1_555
Mg12 Mg2 3.097865 1_555
Mg12 Mg5 3.110145 1_555
Mg12 Mg3 3.110152 1_555
Mg12 Mg6 3.157254 1_665
Mg12 Mg6 3.157254 1_555
Mg12 Mg8 3.157254 1_555
Mg12 Mg8 3.157254 1_655
Mg13 Mg4 3.097858 1_556
Mg13 Mg2 3.097865 1_556
Mg13 Mg5 3.110145 1_555
Mg13 Mg3 3.110152 1_555
Mg13 Mg7 3.157254 1_665
Mg13 Mg7 3.157254 1_555
Mg13 Mg9 3.157254 1_555
Mg13 Mg9 3.157254 1_655
Cr0 Mg6 3.080034 1_555
Cr0 Mg7 3.080034 1_555
Cr0 Mg8 3.080040 1_555
Cr0 Mg9 3.080040 1_555
Cr0 Mg10 3.080040 1_455
Cr0 Mg11 3.080040 1_455
Cr0 Mg1 3.156945 1_555
Cr0 Mg5 3.156945 1_555
Cr0 Mg5 3.156945 1_445
Cr0 Mg1 3.156945 1_545
Cr0 Mg3 3.156945 1_455
Cr0 Mg3 3.156945 1_555
