# generated using pymatgen
data_KBe3ZnF9
_symmetry_space_group_name_H-M   'P 1'
_cell_length_a   6.68106164
_cell_length_b   6.68106164
_cell_length_c   9.76666600
_cell_angle_alpha   90.00000000
_cell_angle_beta   90.00000000
_cell_angle_gamma   119.99999643
_symmetry_Int_Tables_number   1
_chemical_formula_structural   KBe3ZnF9
_chemical_formula_sum   'K2 Be6 Zn2 F18'
_cell_volume   377.54431964
_cell_formula_units_Z   2
loop_
 _symmetry_equiv_pos_site_id
 _symmetry_equiv_pos_as_xyz
  1  'x, y, z'
loop_
 _atom_site_type_symbol
 _atom_site_label
 _atom_site_symmetry_multiplicity
 _atom_site_fract_x
 _atom_site_fract_y
 _atom_site_fract_z
 _atom_site_occupancy
  K  K0  1  0.66666700  0.33333300  0.00000000  1
  K  K1  1  0.66666700  0.33333300  0.50000000  1
  Be  Be0  1  0.21746900  0.94118500  0.25000000  1
  Be  Be1  1  0.21746900  0.27628400  0.75000000  1
  Be  Be2  1  0.72371600  0.94118500  0.75000000  1
  Be  Be3  1  0.05881500  0.78253100  0.75000000  1
  Be  Be4  1  0.05881500  0.27628400  0.25000000  1
  Be  Be5  1  0.72371600  0.78253100  0.25000000  1
  Zn  Zn0  1  0.33333300  0.66666700  0.00000000  1
  Zn  Zn1  1  0.33333300  0.66666700  0.50000000  1
  F  F0  1  0.07597200  0.66295500  0.61852800  1
  F  F1  1  0.58698300  0.92402800  0.61852800  1
  F  F2  1  0.33704500  0.41301700  0.61852800  1
  F  F3  1  0.33704500  0.92402800  0.38147200  1
  F  F4  1  0.24119600  0.19112500  0.25000000  1
  F  F5  1  0.94992900  0.75880400  0.25000000  1
  F  F6  1  0.80887500  0.05007100  0.25000000  1
  F  F7  1  0.80887500  0.75880400  0.75000000  1
  F  F8  1  0.94992900  0.19112500  0.75000000  1
  F  F9  1  0.24119600  0.05007100  0.75000000  1
  F  F10  1  0.33704500  0.92402800  0.11852700  1
  F  F11  1  0.58698300  0.66295500  0.38147200  1
  F  F12  1  0.07597200  0.41301700  0.38147200  1
  F  F13  1  0.07597200  0.41301700  0.11852700  1
  F  F14  1  0.58698300  0.66295500  0.11852700  1
  F  F15  1  0.07597200  0.66295500  0.88147200  1
  F  F16  1  0.58698300  0.92402800  0.88147200  1
  F  F17  1  0.33704500  0.41301700  0.88147200  1
loop_
_geom_bond_atom_site_label_1
_geom_bond_atom_site_label_2
_geom_bond_distance
_geom_bond_site_symmetry_2
Be0 F3 1.546517 1_555
Be0 F10 1.546525 1_555
Be0 F5 1.581681 1_455
Be0 F4 1.596517 1_565
Be1 F17 1.546517 1_555
Be1 F2 1.546517 1_555
Be1 F8 1.581681 1_455
Be1 F9 1.596517 1_555
Be2 F16 1.546517 1_555
Be2 F1 1.546517 1_555
Be2 F7 1.581681 1_555
Be2 F8 1.596517 1_565
Be3 F15 1.546517 1_555
Be3 F0 1.546517 1_555
Be3 F9 1.581681 1_565
Be3 F7 1.596517 1_455
Be4 F12 1.546517 1_555
Be4 F13 1.546525 1_555
Be4 F4 1.581681 1_555
Be4 F6 1.596517 1_455
Be5 F11 1.546517 1_555
Be5 F14 1.546525 1_555
Be5 F6 1.581681 1_565
Be5 F5 1.596517 1_555
F0 Zn1 2.062657 1_555
F0 K1 2.765085 1_455
F1 Zn1 2.062660 1_555
F1 K1 2.765083 1_565
F2 Zn1 2.062663 1_555
F2 K1 2.765089 1_555
F3 Zn1 2.062657 1_555
F3 K1 2.765085 1_565
F10 Zn0 2.062652 1_555
F10 K0 2.765081 1_565
F11 Zn1 2.062663 1_555
F11 K1 2.765089 1_555
F12 Zn1 2.062660 1_555
F12 K1 2.765083 1_455
F13 Zn0 2.062654 1_555
F13 K0 2.765079 1_455
F14 Zn0 2.062657 1_555
F14 K0 2.765084 1_555
F15 Zn0 2.062657 1_556
F15 K0 2.765085 1_456
F16 Zn0 2.062660 1_556
F16 K0 2.765083 1_566
F17 Zn0 2.062663 1_556
F17 K0 2.765089 1_556
