# generated using pymatgen
data_La3YFe4(AsO)4
_symmetry_space_group_name_H-M   'P 1'
_cell_length_a   4.09112000
_cell_length_b   8.18989000
_cell_length_c   9.27870300
_cell_angle_alpha   90.00000000
_cell_angle_beta   90.00000000
_cell_angle_gamma   90.00000000
_symmetry_Int_Tables_number   1
_chemical_formula_structural   La3YFe4(AsO)4
_chemical_formula_sum   'La3 Y1 Fe4 As4 O4'
_cell_volume   310.89057832
_cell_formula_units_Z   1
loop_
 _symmetry_equiv_pos_site_id
 _symmetry_equiv_pos_as_xyz
  1  'x, y, z'
loop_
 _atom_site_type_symbol
 _atom_site_label
 _atom_site_symmetry_multiplicity
 _atom_site_fract_x
 _atom_site_fract_y
 _atom_site_fract_z
 _atom_site_occupancy
  La  La0  1  0.00000000  0.50000000  0.13220100  1
  La  La1  1  0.50000000  0.75226100  0.87189500  1
  La  La2  1  0.50000000  0.24773900  0.87189500  1
  Y  Y0  1  0.00000000  0.00000000  0.11686600  1
  Fe  Fe0  1  0.00000000  0.75064900  0.49856600  1
  Fe  Fe1  1  0.00000000  0.24935100  0.49856600  1
  Fe  Fe2  1  0.50000000  0.00000000  0.49886700  1
  Fe  Fe3  1  0.50000000  0.50000000  0.49837400  1
  As  As0  1  0.00000000  0.00000000  0.67641200  1
  As  As1  1  0.00000000  0.50000000  0.67534500  1
  As  As2  1  0.50000000  0.75223600  0.32285600  1
  As  As3  1  0.50000000  0.24776400  0.32285600  1
  O  O0  1  0.00000000  0.75641000  0.00375900  1
  O  O1  1  0.00000000  0.24359000  0.00375900  1
  O  O2  1  0.50000000  0.00000000  0.00769600  1
  O  O3  1  0.50000000  0.50000000  0.00008800  1
loop_
_geom_bond_atom_site_label_1
_geom_bond_atom_site_label_2
_geom_bond_distance
_geom_bond_site_symmetry_2
La0 O3 2.384742 1_455
La0 O3 2.384742 1_555
La0 O1 2.414581 1_555
La0 O0 2.414581 1_555
La1 O0 2.383797 1_556
La1 O0 2.383797 1_656
La1 O3 2.383934 1_556
La1 O2 2.388389 1_566
La2 O1 2.383797 1_556
La2 O1 2.383797 1_656
La2 O3 2.383934 1_556
La2 O2 2.388389 1_556
As0 Fe0 2.625548 1_545
As0 Fe1 2.625548 1_555
As0 Fe2 2.626443 1_455
As0 Fe2 2.626443 1_555
As0 La1 3.404548 1_445
As0 La1 3.404548 1_545
As0 La2 3.404548 1_455
As0 La2 3.404548 1_555
As1 Fe3 2.623105 1_455
As1 Fe3 2.623105 1_555
As1 Fe1 2.627633 1_555
As1 Fe0 2.627633 1_555
As1 La1 3.431999 1_455
As1 La1 3.431999 1_555
As1 La2 3.431999 1_455
As1 La2 3.431999 1_555
As2 Fe2 2.604742 1_565
As2 Fe0 2.615829 1_655
As2 Fe0 2.615829 1_555
As2 Fe3 2.630540 1_555
As2 La0 3.403124 1_555
As2 La0 3.403124 1_655
As2 Y0 3.457593 1_565
As2 Y0 3.457593 1_665
As3 Fe2 2.604742 1_555
As3 Fe1 2.615829 1_555
As3 Fe1 2.615829 1_655
As3 Fe3 2.630540 1_555
As3 La0 3.403124 1_655
As3 La0 3.403124 1_555
As3 Y0 3.457593 1_655
As3 Y0 3.457593 1_555
O0 Y0 2.254185 1_565
O1 Y0 2.254185 1_555
O2 Y0 2.282629 1_655
O2 Y0 2.282629 1_555
