# generated using pymatgen
data_CsSnF3
_symmetry_space_group_name_H-M   'P 1'
_cell_length_a   6.66926500
_cell_length_b   4.96134600
_cell_length_c   15.32983109
_cell_angle_alpha   72.22332109
_cell_angle_beta   90.00000000
_cell_angle_gamma   90.00000000
_symmetry_Int_Tables_number   1
_chemical_formula_structural   CsSnF3
_chemical_formula_sum   'Cs4 Sn4 F12'
_cell_volume   483.02270608
_cell_formula_units_Z   4
loop_
 _symmetry_equiv_pos_site_id
 _symmetry_equiv_pos_as_xyz
  1  'x, y, z'
loop_
 _atom_site_type_symbol
 _atom_site_label
 _atom_site_symmetry_multiplicity
 _atom_site_fract_x
 _atom_site_fract_y
 _atom_site_fract_z
 _atom_site_occupancy
  Cs  Cs0  1  0.97740000  0.12048700  0.64164100  1
  Cs  Cs1  1  0.52260000  0.12048700  0.14164100  1
  Cs  Cs2  1  0.02260000  0.87951300  0.35835900  1
  Cs  Cs3  1  0.47740000  0.87951300  0.85835900  1
  Sn  Sn0  1  0.02456500  0.63494100  0.11570000  1
  Sn  Sn1  1  0.47543500  0.63494100  0.61570000  1
  Sn  Sn2  1  0.97543500  0.36505900  0.88430000  1
  Sn  Sn3  1  0.52456500  0.36505900  0.38430000  1
  F  F0  1  0.18400200  0.46995500  0.23674200  1
  F  F1  1  0.31599800  0.46995500  0.73674200  1
  F  F2  1  0.81599800  0.53004500  0.76325800  1
  F  F3  1  0.68400200  0.53004500  0.26325800  1
  F  F4  1  0.04952800  0.03143200  0.13992800  1
  F  F5  1  0.45047200  0.03143200  0.63992800  1
  F  F6  1  0.95047200  0.96856800  0.86007200  1
  F  F7  1  0.54952800  0.96856800  0.36007200  1
  F  F8  1  0.30359300  0.70689300  0.05116600  1
  F  F9  1  0.19640700  0.70689300  0.55116600  1
  F  F10  1  0.69640700  0.29310700  0.94883400  1
  F  F11  1  0.80359300  0.29310700  0.44883400  1
loop_
_geom_bond_atom_site_label_1
_geom_bond_atom_site_label_2
_geom_bond_distance
_geom_bond_site_symmetry_2
Cs0 F11 3.044275 1_555
Cs0 F2 3.143411 1_545
Cs0 F9 3.163153 1_645
Cs0 F9 3.171359 1_655
Cs0 F5 3.187049 1_655
Cs0 F6 3.204960 1_545
Cs0 F2 3.328159 1_555
Cs0 F1 3.431403 1_655
Cs0 F5 3.542986 1_555
Cs1 F10 3.044275 1_554
Cs1 F3 3.143411 1_545
Cs1 F8 3.163153 1_545
Cs1 F8 3.171359 1_555
Cs1 F4 3.187049 1_555
Cs1 F7 3.204960 1_545
Cs1 F3 3.328159 1_555
Cs1 F0 3.431403 1_555
Cs1 F4 3.542986 1_655
Cs2 F9 3.044275 1_555
Cs2 F0 3.143411 1_565
Cs2 F11 3.163153 1_465
Cs2 F11 3.171359 1_455
Cs2 F7 3.187049 1_455
Cs2 F4 3.204960 1_565
Cs2 F0 3.328159 1_555
Cs2 F3 3.431403 1_455
Cs2 F7 3.542986 1_555
Cs3 F8 3.044275 1_556
Cs3 F1 3.143411 1_565
Cs3 F10 3.163153 1_565
Cs3 F10 3.171359 1_555
Cs3 F6 3.187049 1_555
Cs3 F5 3.204960 1_565
Cs3 F1 3.328159 1_555
Cs3 F2 3.431403 1_555
Cs3 F6 3.542986 1_455
F0 Sn0 2.077577 1_555
F1 Sn1 2.077577 1_555
F2 Sn2 2.077577 1_555
F3 Sn3 2.077577 1_555
F4 Sn0 2.116928 1_545
F5 Sn1 2.116928 1_545
F6 Sn2 2.116928 1_565
F7 Sn3 2.116928 1_565
F8 Sn0 2.086501 1_555
F9 Sn1 2.086501 1_555
F10 Sn2 2.086501 1_555
F11 Sn3 2.086501 1_555
