# generated using pymatgen
data_Li7Mn4CoO12
_symmetry_space_group_name_H-M   'P 1'
_cell_length_a   2.97395374
_cell_length_b   12.06734175
_cell_length_c   6.46151884
_cell_angle_alpha   75.41494914
_cell_angle_beta   103.70823788
_cell_angle_gamma   94.28952859
_symmetry_Int_Tables_number   1
_chemical_formula_structural   Li7Mn4CoO12
_chemical_formula_sum   'Li7 Mn4 Co1 O12'
_cell_volume   217.99581343
_cell_formula_units_Z   1
loop_
 _symmetry_equiv_pos_site_id
 _symmetry_equiv_pos_as_xyz
  1  'x, y, z'
loop_
 _atom_site_type_symbol
 _atom_site_label
 _atom_site_symmetry_multiplicity
 _atom_site_fract_x
 _atom_site_fract_y
 _atom_site_fract_z
 _atom_site_occupancy
  Li  Li0  1  0.33333700  0.16665900  0.66670900  1
  Li  Li1  1  0.98818800  0.25226800  0.97927900  1
  Li  Li2  1  0.67852700  0.08107800  0.35412300  1
  Li  Li3  1  0.65004100  0.59059500  0.33894000  1
  Li  Li4  1  0.01646300  0.74271900  0.99438200  1
  Li  Li5  1  0.37768100  0.40312900  0.66382800  1
  Li  Li6  1  0.28899300  0.93019100  0.66949200  1
  Mn  Mn0  1  0.02825400  0.49705200  0.99276600  1
  Mn  Mn1  1  0.63896600  0.83619200  0.34065100  1
  Mn  Mn2  1  0.96591200  0.00669400  0.99385400  1
  Mn  Mn3  1  0.70083700  0.32659800  0.33962000  1
  Co  Co0  1  0.33318100  0.66666700  0.66666200  1
  O  O0  1  0.50143000  0.10926000  0.00571900  1
  O  O1  1  0.16519200  0.22409600  0.32768900  1
  O  O2  1  0.21673600  0.44250700  0.31801000  1
  O  O3  1  0.44982400  0.89085500  0.01522900  1
  O  O4  1  0.83936800  0.29609100  0.63882700  1
  O  O5  1  0.82725400  0.03724000  0.69456700  1
  O  O6  1  0.47782800  0.62347500  0.98641000  1
  O  O7  1  0.18875600  0.70988800  0.34682600  1
  O  O8  1  0.79905600  0.78401000  0.65816100  1
  O  O9  1  0.86751900  0.54939600  0.67495000  1
  O  O10  1  0.10470000  0.95759400  0.32526700  1
  O  O11  1  0.56195900  0.37574400  0.00804000  1
loop_
_geom_bond_atom_site_label_1
_geom_bond_atom_site_label_2
_geom_bond_distance
_geom_bond_site_symmetry_2
Li0 O0 2.072847 1_556
Li0 O1 2.072948 1_555
Li0 O5 2.090902 1_455
Li0 O4 2.090912 1_555
Li0 O5 2.169180 1_555
Li0 O4 2.169367 1_455
Li1 O4 2.074245 1_555
Li1 O11 2.096459 1_556
Li1 O1 2.130841 1_656
Li1 O0 2.167458 1_556
Li1 O11 2.185229 1_656
Li1 O0 2.336461 1_656
Li2 O5 2.074202 1_555
Li2 O10 2.096673 1_645
Li2 O0 2.130796 1_555
Li2 O1 2.167371 1_655
Li2 O10 2.185454 1_545
Li2 O1 2.336755 1_555
Li3 O9 2.053836 1_555
Li3 O7 2.072416 1_655
Li3 O7 2.079024 1_555
Li3 O2 2.137044 1_555
Li3 O6 2.151918 1_554
Li3 O2 2.594678 1_655
Li4 O8 2.055075 1_455
Li4 O6 2.071875 1_455
Li4 O6 2.078950 1_555
Li4 O3 2.137529 1_556
Li4 O7 2.151425 1_556
Li4 O3 2.594791 1_456
Li5 O4 1.982577 1_455
Li5 O4 2.013762 1_555
Li5 O11 2.106070 1_556
Li5 O2 2.107198 1_555
Li5 O9 2.207338 1_555
Li5 O9 2.436931 1_455
Li6 O5 1.982570 1_565
Li6 O5 2.014166 1_465
Li6 O10 2.106132 1_555
Li6 O3 2.106716 1_556
Li6 O8 2.206830 1_455
Li6 O8 2.436407 1_555
Mn0 O11 1.940134 1_456
Mn0 O9 1.941978 1_455
Mn0 O6 1.950911 1_555
Mn0 O2 1.991041 1_556
Mn0 O11 2.207365 1_556
Mn0 O6 2.306263 1_455
Mn1 O10 1.939819 1_655
Mn1 O8 1.939976 1_555
Mn1 O7 1.951081 1_555
Mn1 O3 1.992316 1_555
Mn1 O10 2.209222 1_555
Mn1 O7 2.304186 1_655
Mn2 O5 1.825229 1_555
Mn2 O0 1.941447 1_656
Mn2 O0 1.949266 1_556
Mn2 O3 2.002767 1_546
Mn2 O10 2.021337 1_646
Mn2 O3 2.038066 1_646
Mn3 O4 1.824762 1_555
Mn3 O1 1.941285 1_555
Mn3 O1 1.948595 1_655
Mn3 O2 2.002998 1_655
Mn3 O11 2.022365 1_555
Mn3 O2 2.038679 1_555
Co0 O9 1.904510 1_455
Co0 O8 1.905550 1_555
Co0 O6 1.948146 1_555
Co0 O7 1.948694 1_555
Co0 O8 2.187988 1_455
Co0 O9 2.188298 1_555
