# generated using pymatgen
data_U2V2NiO16
_symmetry_space_group_name_H-M   'P 1'
_cell_length_a   10.61851800
_cell_length_b   15.58722200
_cell_length_c   8.35338100
_cell_angle_alpha   90.00000000
_cell_angle_beta   90.00000000
_cell_angle_gamma   90.00000000
_symmetry_Int_Tables_number   1
_chemical_formula_structural   U2V2NiO16
_chemical_formula_sum   'U8 V8 Ni4 O64'
_cell_volume   1382.59479822
_cell_formula_units_Z   4
loop_
 _symmetry_equiv_pos_site_id
 _symmetry_equiv_pos_as_xyz
  1  'x, y, z'
loop_
 _atom_site_type_symbol
 _atom_site_label
 _atom_site_symmetry_multiplicity
 _atom_site_fract_x
 _atom_site_fract_y
 _atom_site_fract_z
 _atom_site_occupancy
  U  U0  1  0.31985700  0.00146700  0.48594700  1
  U  U1  1  0.81985700  0.49853300  0.01405300  1
  U  U2  1  0.68014300  0.50146700  0.51405300  1
  U  U3  1  0.18014300  0.99853300  0.98594700  1
  U  U4  1  0.68014300  0.99853300  0.51405300  1
  U  U5  1  0.18014300  0.50146700  0.98594700  1
  U  U6  1  0.31985700  0.49853300  0.48594700  1
  U  U7  1  0.81985700  0.00146700  0.01405300  1
  V  V0  1  0.45967100  0.94849600  0.14275000  1
  V  V1  1  0.95967100  0.55150400  0.35725000  1
  V  V2  1  0.54032900  0.44849600  0.85725000  1
  V  V3  1  0.04032900  0.05150400  0.64275000  1
  V  V4  1  0.54032900  0.05150400  0.85725000  1
  V  V5  1  0.04032900  0.44849600  0.64275000  1
  V  V6  1  0.45967100  0.55150400  0.14275000  1
  V  V7  1  0.95967100  0.94849600  0.35725000  1
  Ni  Ni0  1  0.31195000  0.75000000  0.54374000  1
  Ni  Ni1  1  0.81195000  0.75000000  0.95626000  1
  Ni  Ni2  1  0.68805000  0.25000000  0.45626000  1
  Ni  Ni3  1  0.18805000  0.25000000  0.04374000  1
  O  O0  1  0.39415700  0.99597600  0.94515300  1
  O  O1  1  0.89415700  0.50402400  0.55484700  1
  O  O2  1  0.60584300  0.49597600  0.05484700  1
  O  O3  1  0.10584300  0.00402400  0.44515300  1
  O  O4  1  0.60584300  0.00402400  0.05484700  1
  O  O5  1  0.10584300  0.49597600  0.44515300  1
  O  O6  1  0.39415700  0.50402400  0.94515300  1
  O  O7  1  0.89415700  0.99597600  0.55484700  1
  O  O8  1  0.47994600  0.84629400  0.12041900  1
  O  O9  1  0.97994600  0.65370600  0.37958100  1
  O  O10  1  0.52005400  0.34629400  0.87958100  1
  O  O11  1  0.02005400  0.15370600  0.62041900  1
  O  O12  1  0.52005400  0.15370600  0.87958100  1
  O  O13  1  0.02005400  0.34629400  0.62041900  1
  O  O14  1  0.47994600  0.65370600  0.12041900  1
  O  O15  1  0.97994600  0.84629400  0.37958100  1
  O  O16  1  0.50974500  0.97738400  0.34925500  1
  O  O17  1  0.00974500  0.52261600  0.15074500  1
  O  O18  1  0.49025500  0.47738400  0.65074500  1
  O  O19  1  0.99025500  0.02261600  0.84925500  1
  O  O20  1  0.49025500  0.02261600  0.65074500  1
  O  O21  1  0.99025500  0.47738400  0.84925500  1
  O  O22  1  0.50974500  0.52261600  0.34925500  1
  O  O23  1  0.00974500  0.97738400  0.15074500  1
  O  O24  1  0.29404700  0.96408800  0.21448700  1
  O  O25  1  0.79404700  0.53591200  0.28551300  1
  O  O26  1  0.70595300  0.46408800  0.78551300  1
  O  O27  1  0.20595300  0.03591200  0.71448700  1
  O  O28  1  0.70595300  0.03591200  0.78551300  1
  O  O29  1  0.20595300  0.46408800  0.71448700  1
  O  O30  1  0.29404700  0.53591200  0.21448700  1
  O  O31  1  0.79404700  0.96408800  0.28551300  1
  O  O32  1  0.32347600  0.11335400  0.42933800  1
  O  O33  1  0.82347600  0.38664600  0.07066200  1
  O  O34  1  0.67652400  0.61335400  0.57066200  1
  O  O35  1  0.17652400  0.88664600  0.92933800  1
  O  O36  1  0.67652400  0.88664600  0.57066200  1
  O  O37  1  0.17652400  0.61335400  0.92933800  1
  O  O38  1  0.32347600  0.38664600  0.42933800  1
  O  O39  1  0.82347600  0.11335400  0.07066200  1
  O  O40  1  0.31254400  0.88489000  0.54219200  1
  O  O41  1  0.81254400  0.61511000  0.95780800  1
  O  O42  1  0.68745600  0.38489000  0.45780800  1
  O  O43  1  0.18745600  0.11511000  0.04219200  1
  O  O44  1  0.68745600  0.11511000  0.45780800  1
  O  O45  1  0.18745600  0.38489000  0.04219200  1
  O  O46  1  0.31254400  0.61511000  0.54219200  1
  O  O47  1  0.81254400  0.88489000  0.95780800  1
  O  O48  1  0.47094400  0.75000000  0.48319800  1
  O  O49  1  0.97094400  0.75000000  0.01680200  1
  O  O50  1  0.52905600  0.25000000  0.51680200  1
  O  O51  1  0.02905600  0.25000000  0.98319800  1
  O  O52  1  0.28643600  0.75000000  0.33509600  1
  O  O53  1  0.78643600  0.75000000  0.16490400  1
  O  O54  1  0.71356400  0.25000000  0.66490400  1
  O  O55  1  0.21356400  0.25000000  0.83509600  1
  O  O56  1  0.15489200  0.75000000  0.62034100  1
  O  O57  1  0.65489200  0.75000000  0.87965900  1
  O  O58  1  0.84510800  0.25000000  0.37965900  1
  O  O59  1  0.34510800  0.25000000  0.12034100  1
  O  O60  1  0.32738400  0.75000000  0.75626100  1
  O  O61  1  0.82738400  0.75000000  0.74373900  1
  O  O62  1  0.67261600  0.25000000  0.24373900  1
  O  O63  1  0.17261600  0.25000000  0.25626100  1
loop_
_geom_bond_atom_site_label_1
_geom_bond_atom_site_label_2
_geom_bond_distance
_geom_bond_site_symmetry_2
Ni0 O48 1.762400 1_555
Ni0 O52 1.763814 1_555
Ni0 O60 1.782818 1_555
Ni0 O56 1.786265 1_555
Ni0 O46 2.102610 1_555
Ni0 O40 2.102610 1_555
Ni1 O49 1.762400 1_556
Ni1 O53 1.763814 1_556
Ni1 O61 1.782818 1_555
Ni1 O57 1.786265 1_555
Ni1 O41 2.102610 1_555
Ni1 O47 2.102610 1_555
Ni2 O50 1.762400 1_555
Ni2 O54 1.763814 1_555
Ni2 O62 1.782818 1_555
Ni2 O58 1.786265 1_555
Ni2 O44 2.102610 1_555
Ni2 O42 2.102610 1_555
Ni3 O51 1.762400 1_554
Ni3 O55 1.763814 1_554
Ni3 O63 1.782818 1_555
Ni3 O59 1.786265 1_555
Ni3 O45 2.102610 1_555
Ni3 O43 2.102610 1_555
O0 V4 1.922868 1_565
O0 V0 1.938080 1_556
O0 U3 2.298265 1_555
O1 V5 1.922868 1_655
O1 V1 1.938080 1_555
O1 U2 2.298265 1_555
O2 V6 1.922868 1_555
O2 V2 1.938080 1_554
O2 U1 2.298265 1_555
O3 V7 1.922868 1_445
O3 V3 1.938080 1_555
O3 U0 2.298265 1_555
O4 V0 1.922868 1_545
O4 V4 1.938080 1_554
O4 U7 2.298265 1_555
O5 V1 1.922868 1_455
O5 V5 1.938080 1_555
O5 U6 2.298265 1_555
O6 V2 1.922868 1_555
O6 V6 1.938080 1_556
O6 U5 2.298265 1_555
O7 V3 1.922868 1_665
O7 V7 1.938080 1_555
O7 U4 2.298265 1_555
O8 V0 1.618314 1_555
O9 V1 1.618314 1_555
O10 V2 1.618314 1_555
O11 V3 1.618314 1_555
O12 V4 1.618314 1_555
O13 V5 1.618314 1_555
O14 V6 1.618314 1_555
O15 V7 1.618314 1_555
O16 V0 1.860416 1_555
O16 U4 2.297301 1_555
O16 U0 2.347402 1_565
O17 V1 1.860416 1_455
O17 U5 2.297301 1_554
O17 U1 2.347402 1_455
O18 V2 1.860416 1_555
O18 U6 2.297301 1_555
O18 U2 2.347402 1_555
O19 V3 1.860416 1_655
O19 U7 2.297301 1_556
O19 U3 2.347402 1_645
O20 V4 1.860416 1_555
O20 U0 2.297301 1_555
O20 U4 2.347402 1_545
O21 V5 1.860416 1_655
O21 U1 2.297301 1_556
O21 U5 2.347402 1_655
O22 V6 1.860416 1_555
O22 U2 2.297301 1_555
O22 U6 2.347402 1_555
O23 V7 1.860416 1_455
O23 U3 2.297301 1_554
O23 U7 2.347402 1_465
O24 V0 1.873799 1_555
O24 U3 2.322870 1_554
O24 U0 2.357249 1_565
O25 V1 1.873799 1_555
O25 U2 2.322870 1_555
O25 U1 2.357249 1_555
O26 V2 1.873799 1_555
O26 U1 2.322870 1_556
O26 U2 2.357249 1_555
O27 V3 1.873799 1_555
O27 U0 2.322870 1_555
O27 U3 2.357249 1_545
O28 V4 1.873799 1_555
O28 U7 2.322870 1_556
O28 U4 2.357249 1_545
O29 V5 1.873799 1_555
O29 U6 2.322870 1_555
O29 U5 2.357249 1_555
O30 V6 1.873799 1_555
O30 U5 2.322870 1_554
O30 U6 2.357249 1_555
O31 V7 1.873799 1_555
O31 U4 2.322870 1_555
O31 U7 2.357249 1_565
O32 U0 1.807388 1_555
O33 U1 1.807388 1_555
O34 U2 1.807388 1_555
O35 U3 1.807388 1_555
O36 U4 1.807388 1_555
O37 U5 1.807388 1_555
O38 U6 1.807388 1_555
O39 U7 1.807388 1_555
O40 U0 1.878476 1_565
O41 U1 1.878476 1_556
O42 U2 1.878476 1_555
O43 U3 1.878476 1_544
O44 U4 1.878476 1_545
O45 U5 1.878476 1_554
O46 U6 1.878476 1_555
O47 U7 1.878476 1_566
