# generated using pymatgen
data_LaMnZnCrO6
_symmetry_space_group_name_H-M   'P 1'
_cell_length_a   5.45356800
_cell_length_b   5.33465900
_cell_length_c   9.31979443
_cell_angle_alpha   55.31740723
_cell_angle_beta   90.00000000
_cell_angle_gamma   90.00000000
_symmetry_Int_Tables_number   1
_chemical_formula_structural   LaMnZnCrO6
_chemical_formula_sum   'La2 Mn2 Zn2 Cr2 O12'
_cell_volume   222.96309064
_cell_formula_units_Z   2
loop_
 _symmetry_equiv_pos_site_id
 _symmetry_equiv_pos_as_xyz
  1  'x, y, z'
loop_
 _atom_site_type_symbol
 _atom_site_label
 _atom_site_symmetry_multiplicity
 _atom_site_fract_x
 _atom_site_fract_y
 _atom_site_fract_z
 _atom_site_occupancy
  La  La0  1  0.21807200  0.74165800  0.25021400  1
  La  La1  1  0.78192800  0.74165800  0.75021400  1
  Mn  Mn0  1  0.25473400  0.50050600  0.00006700  1
  Mn  Mn1  1  0.74526600  0.50050600  0.50006700  1
  Zn  Zn0  1  0.70938600  0.26455800  0.25256000  1
  Zn  Zn1  1  0.29061400  0.26455800  0.75256000  1
  Cr  Cr0  1  0.25141000  0.00044300  0.50128500  1
  Cr  Cr1  1  0.74859000  0.00044300  0.00128500  1
  O  O0  1  0.70198800  0.17893300  0.74473800  1
  O  O1  1  0.47082400  0.72319400  0.04964100  1
  O  O2  1  0.47971300  0.33554100  0.44522200  1
  O  O3  1  0.95145100  0.62928600  0.05759900  1
  O  O4  1  0.94352000  0.25496500  0.44354300  1
  O  O5  1  0.23034200  0.87091900  0.75513200  1
  O  O6  1  0.29801200  0.17893300  0.24473800  1
  O  O7  1  0.52917600  0.72319400  0.54964100  1
  O  O8  1  0.52028700  0.33554100  0.94522200  1
  O  O9  1  0.04854900  0.62928600  0.55759900  1
  O  O10  1  0.05648000  0.25496500  0.94354300  1
  O  O11  1  0.76965800  0.87091900  0.25513200  1
loop_
_geom_bond_atom_site_label_1
_geom_bond_atom_site_label_2
_geom_bond_distance
_geom_bond_site_symmetry_2
La0 O6 2.344937 1_565
La0 O2 2.356201 1_555
La0 O1 2.369285 1_555
La0 O11 2.548298 1_455
La0 O4 2.627811 1_455
La0 O3 2.630736 1_455
La0 O9 2.732494 1_555
La0 O10 2.745335 1_564
La1 O0 2.344937 1_565
La1 O8 2.356201 1_555
La1 O7 2.369285 1_555
La1 O5 2.548298 1_655
La1 O10 2.627811 1_655
La1 O9 2.630736 1_655
La1 O3 2.732494 1_556
La1 O4 2.745335 1_565
Mn0 O1 1.907389 1_555
Mn0 O8 1.909179 1_554
Mn0 O6 1.935570 1_555
Mn0 O3 1.978461 1_455
Mn0 O10 1.986848 1_554
Mn0 O5 1.999945 1_554
Mn1 O7 1.907389 1_555
Mn1 O2 1.909179 1_555
Mn1 O0 1.935570 1_555
Mn1 O9 1.978461 1_655
Mn1 O4 1.986848 1_555
Mn1 O11 1.999945 1_555
Cr0 O7 1.981595 1_545
Cr0 O2 1.988930 1_555
Cr0 O6 2.024107 1_555
Cr0 O4 2.030024 1_455
Cr0 O5 2.056035 1_545
Cr0 O9 2.058430 1_545
Cr1 O1 1.981595 1_545
Cr1 O8 1.988930 1_554
Cr1 O0 2.024107 1_554
Cr1 O10 2.030024 1_654
Cr1 O11 2.056035 1_545
Cr1 O3 2.058430 1_545
O0 Zn1 2.298903 1_555
O1 Zn0 2.447337 1_555
O2 Zn0 2.389584 1_555
O3 Zn0 2.192378 1_555
O4 Zn0 2.167363 1_555
O5 Zn1 2.112116 1_565
O6 Zn0 2.298903 1_555
O7 Zn1 2.447337 1_555
O8 Zn1 2.389584 1_555
O9 Zn1 2.192378 1_555
O10 Zn1 2.167363 1_555
O11 Zn0 2.112116 1_565
