# generated using pymatgen
data_Nb4Al
_symmetry_space_group_name_H-M   'P 1'
_cell_length_a   23.53987735
_cell_length_b   23.35469558
_cell_length_c   5.66992396
_cell_angle_alpha   84.91707884
_cell_angle_beta   81.20125356
_cell_angle_gamma   13.88166760
_symmetry_Int_Tables_number   1
_chemical_formula_structural   Nb4Al
_chemical_formula_sum   'Nb32 Al8'
_cell_volume   715.07963230
_cell_formula_units_Z   8
loop_
 _symmetry_equiv_pos_site_id
 _symmetry_equiv_pos_as_xyz
  1  'x, y, z'
loop_
 _atom_site_type_symbol
 _atom_site_label
 _atom_site_symmetry_multiplicity
 _atom_site_fract_x
 _atom_site_fract_y
 _atom_site_fract_z
 _atom_site_occupancy
  Nb  Nb0_0  1  0.20207100  0.20207100  0.29792900  1
  Nb  Nb0_1  1  0.20207100  0.20207100  0.79792900  1
  Nb  Nb0_2  1  0.20207100  0.70207100  0.29792900  1
  Nb  Nb0_3  1  0.20207100  0.70207100  0.79792900  1
  Nb  Nb0_4  1  0.70207100  0.20207100  0.29792900  1
  Nb  Nb0_5  1  0.70207100  0.20207100  0.79792900  1
  Nb  Nb0_6  1  0.70207100  0.70207100  0.29792900  1
  Nb  Nb0_7  1  0.70207100  0.70207100  0.79792900  1
  Nb  Nb1_0  1  0.40035250  0.40035250  0.09964750  1
  Nb  Nb1_1  1  0.40035250  0.40035250  0.59964750  1
  Nb  Nb1_2  1  0.40035250  0.90035250  0.09964750  1
  Nb  Nb1_3  1  0.40035250  0.90035250  0.59964750  1
  Nb  Nb1_4  1  0.90035250  0.40035250  0.09964750  1
  Nb  Nb1_5  1  0.90035250  0.40035250  0.59964750  1
  Nb  Nb1_6  1  0.90035250  0.90035250  0.09964750  1
  Nb  Nb1_7  1  0.90035250  0.90035250  0.59964750  1
  Nb  Nb2_0  1  0.09964750  0.09964750  0.40035250  1
  Nb  Nb2_1  1  0.09964750  0.09964750  0.90035250  1
  Nb  Nb2_2  1  0.09964750  0.59964750  0.40035250  1
  Nb  Nb2_3  1  0.09964750  0.59964750  0.90035250  1
  Nb  Nb2_4  1  0.59964750  0.09964750  0.40035250  1
  Nb  Nb2_5  1  0.59964750  0.09964750  0.90035250  1
  Nb  Nb2_6  1  0.59964750  0.59964750  0.40035250  1
  Nb  Nb2_7  1  0.59964750  0.59964750  0.90035250  1
  Nb  Nb3_0  1  0.29792900  0.29792900  0.20207100  1
  Nb  Nb3_1  1  0.29792900  0.29792900  0.70207100  1
  Nb  Nb3_2  1  0.29792900  0.79792900  0.20207100  1
  Nb  Nb3_3  1  0.29792900  0.79792900  0.70207100  1
  Nb  Nb3_4  1  0.79792900  0.29792900  0.20207100  1
  Nb  Nb3_5  1  0.79792900  0.29792900  0.70207100  1
  Nb  Nb3_6  1  0.79792900  0.79792900  0.20207100  1
  Nb  Nb3_7  1  0.79792900  0.79792900  0.70207100  1
  Al  Al0_0  1  0.00000000  0.00000000  0.00000000  1
  Al  Al0_1  1  0.00000000  0.00000000  0.50000000  1
  Al  Al0_2  1  0.00000000  0.50000000  0.00000000  1
  Al  Al0_3  1  0.00000000  0.50000000  0.50000000  1
  Al  Al0_4  1  0.50000000  0.00000000  0.00000000  1
  Al  Al0_5  1  0.50000000  0.00000000  0.50000000  1
  Al  Al0_6  1  0.50000000  0.50000000  0.00000000  1
  Al  Al0_7  1  0.50000000  0.50000000  0.50000000  1
loop_
_geom_bond_atom_site_label_1
_geom_bond_atom_site_label_2
_geom_bond_distance
_geom_bond_site_symmetry_2
Nb0_0 Nb0_6 2.834962 1_545
Nb0_0 Nb0_1 2.834962 1_555
Nb0_0 Nb0_1 2.834962 1_554
Nb0_0 Nb0_6 2.834962 1_455
Nb0_0 Nb1_2 2.939945 1_545
Nb0_0 Nb1_5 2.939945 1_455
Nb0_1 Nb0_7 2.834962 1_455
Nb0_1 Nb0_7 2.834962 1_545
Nb0_1 Nb1_4 2.939945 1_456
Nb0_1 Nb1_3 2.939945 1_545
Nb0_2 Nb0_3 2.834962 1_554
Nb0_2 Nb0_3 2.834962 1_555
Nb0_2 Nb0_4 2.834962 1_555
Nb0_2 Nb0_4 2.834962 1_465
Nb0_2 Nb1_0 2.939945 1_555
Nb0_2 Nb1_7 2.939945 1_455
Nb0_3 Nb0_5 2.834962 1_555
Nb0_3 Nb0_5 2.834962 1_465
Nb0_3 Nb1_1 2.939945 1_555
Nb0_3 Nb1_6 2.939945 1_456
Nb0_4 Nb0_5 2.834962 1_554
Nb0_4 Nb0_5 2.834962 1_555
Nb0_4 Nb1_1 2.939945 1_555
Nb0_4 Nb1_6 2.939945 1_545
Nb0_5 Nb1_0 2.939945 1_556
Nb0_5 Nb1_7 2.939945 1_545
Nb0_6 Nb0_7 2.834962 1_554
Nb0_6 Nb0_7 2.834962 1_555
Nb0_6 Nb1_3 2.939945 1_555
Nb0_6 Nb1_4 2.939945 1_555
Nb0_7 Nb1_2 2.939945 1_556
Nb0_7 Nb1_5 2.939945 1_555
Nb1_0 Nb1_1 2.834962 1_554
Nb1_0 Nb1_6 2.834962 1_455
Nb1_0 Nb1_6 2.834962 1_545
Nb1_0 Nb1_1 2.834962 1_555
Nb1_0 Nb2_2 2.902011 1_555
Nb1_0 Nb2_5 2.902011 1_554
Nb1_1 Nb1_7 2.834962 1_455
Nb1_1 Nb1_7 2.834962 1_545
Nb1_1 Nb2_4 2.902011 1_555
Nb1_1 Nb2_3 2.902011 1_555
Nb1_2 Nb1_4 2.834962 1_465
Nb1_2 Nb1_4 2.834962 1_555
Nb1_2 Nb1_3 2.834962 1_554
Nb1_2 Nb1_3 2.834962 1_555
Nb1_2 Nb2_0 2.902011 1_565
Nb1_2 Nb2_7 2.902011 1_554
Nb1_3 Nb1_5 2.834962 1_555
Nb1_3 Nb1_5 2.834962 1_465
Nb1_3 Nb2_6 2.902011 1_555
Nb1_3 Nb2_1 2.902011 1_565
Nb1_4 Nb1_5 2.834962 1_555
Nb1_4 Nb1_5 2.834962 1_554
Nb1_4 Nb2_1 2.902011 1_654
Nb1_4 Nb2_6 2.902011 1_555
Nb1_5 Nb2_0 2.902011 1_655
Nb1_5 Nb2_7 2.902011 1_555
Nb1_6 Nb1_7 2.834962 1_554
Nb1_6 Nb1_7 2.834962 1_555
Nb1_6 Nb2_4 2.902011 1_565
Nb1_6 Nb2_3 2.902011 1_654
Nb1_7 Nb2_2 2.902011 1_655
Nb1_7 Nb2_5 2.902011 1_565
Nb2_0 Nb2_6 2.834962 1_545
Nb2_0 Nb2_1 2.834962 1_554
Nb2_0 Nb2_1 2.834962 1_555
Nb2_0 Nb2_6 2.834962 1_455
Nb2_0 Nb3_5 2.939945 1_455
Nb2_0 Nb3_2 2.939945 1_545
Nb2_1 Nb2_7 2.834962 1_455
Nb2_1 Nb2_7 2.834962 1_545
Nb2_1 Nb3_3 2.939945 1_545
Nb2_1 Nb3_4 2.939945 1_456
Nb2_2 Nb2_4 2.834962 1_465
Nb2_2 Nb2_3 2.834962 1_555
Nb2_2 Nb2_4 2.834962 1_555
Nb2_2 Nb2_3 2.834962 1_554
Nb2_2 Nb3_0 2.939945 1_555
Nb2_2 Nb3_7 2.939945 1_455
Nb2_3 Nb2_5 2.834962 1_555
Nb2_3 Nb2_5 2.834962 1_465
Nb2_3 Nb3_1 2.939945 1_555
Nb2_3 Nb3_6 2.939945 1_456
Nb2_4 Nb2_5 2.834962 1_555
Nb2_4 Nb2_5 2.834962 1_554
Nb2_4 Nb3_6 2.939945 1_545
Nb2_4 Nb3_1 2.939945 1_555
Nb2_5 Nb3_0 2.939945 1_556
Nb2_5 Nb3_7 2.939945 1_545
Nb2_6 Nb2_7 2.834962 1_555
Nb2_6 Nb2_7 2.834962 1_554
Nb2_6 Nb3_3 2.939945 1_555
Nb2_6 Nb3_4 2.939945 1_555
Nb2_7 Nb3_5 2.939945 1_555
Nb2_7 Nb3_2 2.939945 1_556
Nb3_0 Nb3_1 2.834962 1_555
Nb3_0 Nb3_6 2.834962 1_455
Nb3_0 Nb3_6 2.834962 1_545
Nb3_0 Nb3_1 2.834962 1_554
Nb3_1 Nb3_7 2.834962 1_455
Nb3_1 Nb3_7 2.834962 1_545
Nb3_2 Nb3_4 2.834962 1_465
Nb3_2 Nb3_3 2.834962 1_554
Nb3_2 Nb3_4 2.834962 1_555
Nb3_2 Nb3_3 2.834962 1_555
Nb3_3 Nb3_5 2.834962 1_555
Nb3_3 Nb3_5 2.834962 1_465
Nb3_4 Nb3_5 2.834962 1_554
Nb3_4 Nb3_5 2.834962 1_555
Nb3_6 Nb3_7 2.834962 1_554
Nb3_6 Nb3_7 2.834962 1_555
Al0_0 Nb3_4 2.799488 1_455
Al0_0 Nb3_3 2.799488 1_544
Al0_0 Nb0_3 2.799488 1_544
Al0_0 Nb0_4 2.799488 1_455
Al0_0 Al0_6 2.834962 1_545
Al0_0 Al0_1 2.834962 1_555
Al0_0 Al0_6 2.834962 1_455
Al0_0 Al0_1 2.834962 1_554
Al0_0 Nb3_2 3.163564 1_545
Al0_0 Nb3_5 3.163564 1_454
Al0_0 Nb0_5 3.163564 1_454
Al0_0 Nb0_2 3.163564 1_545
Al0_1 Nb3_2 2.799488 1_545
Al0_1 Nb3_5 2.799488 1_455
Al0_1 Nb0_5 2.799488 1_455
Al0_1 Nb0_2 2.799488 1_545
Al0_1 Al0_7 2.834962 1_455
Al0_1 Al0_7 2.834962 1_545
Al0_1 Nb3_4 3.163564 1_455
Al0_1 Nb3_3 3.163564 1_545
Al0_1 Nb0_4 3.163564 1_455
Al0_1 Nb0_3 3.163564 1_545
Al0_2 Nb0_6 2.799488 1_455
Al0_2 Nb3_6 2.799488 1_455
Al0_2 Nb0_1 2.799488 1_554
Al0_2 Nb3_1 2.799488 1_554
Al0_2 Al0_3 2.834962 1_555
Al0_2 Al0_4 2.834962 1_465
Al0_2 Al0_3 2.834962 1_554
Al0_2 Al0_4 2.834962 1_555
Al0_2 Nb0_7 3.163564 1_454
Al0_2 Nb3_7 3.163564 1_454
Al0_2 Nb3_0 3.163564 1_555
Al0_2 Nb0_0 3.163564 1_555
Al0_3 Nb0_7 2.799488 1_455
Al0_3 Nb3_7 2.799488 1_455
Al0_3 Nb0_0 2.799488 1_555
Al0_3 Nb3_0 2.799488 1_555
Al0_3 Al0_5 2.834962 1_465
Al0_3 Al0_5 2.834962 1_555
Al0_3 Nb3_6 3.163564 1_455
Al0_3 Nb0_1 3.163564 1_555
Al0_3 Nb0_6 3.163564 1_455
Al0_3 Nb3_1 3.163564 1_555
Al0_4 Nb0_7 2.799488 1_544
Al0_4 Nb3_7 2.799488 1_544
Al0_4 Nb3_0 2.799488 1_555
Al0_4 Nb0_0 2.799488 1_555
Al0_4 Al0_5 2.834962 1_554
Al0_4 Al0_5 2.834962 1_555
Al0_4 Nb3_6 3.163564 1_545
Al0_4 Nb3_1 3.163564 1_554
Al0_4 Nb0_6 3.163564 1_545
Al0_4 Nb0_1 3.163564 1_554
Al0_5 Nb3_1 2.799488 1_555
Al0_5 Nb0_6 2.799488 1_545
Al0_5 Nb3_6 2.799488 1_545
Al0_5 Nb0_1 2.799488 1_555
Al0_5 Nb3_7 3.163564 1_545
Al0_5 Nb0_7 3.163564 1_545
Al0_5 Nb3_0 3.163564 1_555
Al0_5 Nb0_0 3.163564 1_555
Al0_6 Nb3_2 2.799488 1_555
Al0_6 Nb0_5 2.799488 1_554
Al0_6 Nb3_5 2.799488 1_554
Al0_6 Nb0_2 2.799488 1_555
Al0_6 Al0_7 2.834962 1_554
Al0_6 Al0_7 2.834962 1_555
Al0_6 Nb3_4 3.163564 1_555
Al0_6 Nb3_3 3.163564 1_554
Al0_6 Nb0_4 3.163564 1_555
Al0_6 Nb0_3 3.163564 1_554
Al0_7 Nb3_4 2.799488 1_555
Al0_7 Nb0_3 2.799488 1_555
Al0_7 Nb0_4 2.799488 1_555
Al0_7 Nb3_3 2.799488 1_555
Al0_7 Nb3_2 3.163564 1_555
Al0_7 Nb0_5 3.163564 1_555
Al0_7 Nb3_5 3.163564 1_555
Al0_7 Nb0_2 3.163564 1_555
