# generated using pymatgen
data_Re(WO4)2
_symmetry_space_group_name_H-M   'P 1'
_cell_length_a   4.96724856
_cell_length_b   6.44511150
_cell_length_c   6.42484164
_cell_angle_alpha   114.52107669
_cell_angle_beta   116.40541908
_cell_angle_gamma   91.68664717
_symmetry_Int_Tables_number   1
_chemical_formula_structural   Re(WO4)2
_chemical_formula_sum   'Re1 W2 O8'
_cell_volume   161.72938227
_cell_formula_units_Z   1
loop_
 _symmetry_equiv_pos_site_id
 _symmetry_equiv_pos_as_xyz
  1  'x, y, z'
loop_
 _atom_site_type_symbol
 _atom_site_label
 _atom_site_symmetry_multiplicity
 _atom_site_fract_x
 _atom_site_fract_y
 _atom_site_fract_z
 _atom_site_occupancy
  Re  Re0  1  0.12453300  0.22324300  0.09958200  1
  W  W0  1  0.88265500  0.40589000  0.62464400  1
  W  W1  1  0.36671000  0.04054100  0.57458100  1
  O  O0  1  0.13410600  0.68790900  0.80762200  1
  O  O1  1  0.54094400  0.42932600  0.34379500  1
  O  O2  1  0.16119300  0.21685900  0.80239200  1
  O  O3  1  0.54818500  0.03291500  0.37891700  1
  O  O4  1  0.70815800  0.01711300  0.85573300  1
  O  O5  1  0.11508600  0.75869300  0.39153100  1
  O  O6  1  0.08836000  0.22968900  0.39708800  1
  O  O7  1  0.70172800  0.41345300  0.82072800  1
loop_
_geom_bond_atom_site_label_1
_geom_bond_atom_site_label_2
_geom_bond_distance
_geom_bond_site_symmetry_2
O0 W0 1.741431 1_455
O1 W0 1.917539 1_555
O1 Re0 1.930340 1_555
O2 Re0 1.981198 1_556
O2 W1 2.119540 1_555
O2 W0 2.133427 1_455
O3 W1 1.831544 1_555
O3 W0 2.305010 1_555
O4 W1 1.918032 1_555
O4 Re0 1.930196 1_656
O5 W1 1.740910 1_565
O6 Re0 1.981810 1_555
O6 W0 2.118975 1_455
O6 W1 2.132848 1_555
O7 W0 1.831885 1_555
O7 W1 2.305577 1_555
