# generated using pymatgen
data_KAsSe2
_symmetry_space_group_name_H-M   'P 1'
_cell_length_a   6.66984203
_cell_length_b   6.66969516
_cell_length_c   12.77246192
_cell_angle_alpha   100.39000859
_cell_angle_beta   100.44891055
_cell_angle_gamma   108.05430521
_symmetry_Int_Tables_number   1
_chemical_formula_structural   KAsSe2
_chemical_formula_sum   'K4 As4 Se8'
_cell_volume   513.97510982
_cell_formula_units_Z   4
loop_
 _symmetry_equiv_pos_site_id
 _symmetry_equiv_pos_as_xyz
  1  'x, y, z'
loop_
 _atom_site_type_symbol
 _atom_site_label
 _atom_site_symmetry_multiplicity
 _atom_site_fract_x
 _atom_site_fract_y
 _atom_site_fract_z
 _atom_site_occupancy
  K  K0  1  0.04063790  0.05288715  0.25923458  1
  K  K1  1  0.07930016  0.61192502  0.49790669  1
  K  K2  1  0.99296249  0.10261457  0.75939266  1
  K  K3  1  0.55068938  0.13936050  0.99762057  1
  As  As0  1  0.31814232  0.58173555  0.17632496  1
  As  As1  1  0.57066297  0.98485372  0.44184513  1
  As  As2  1  0.51851181  0.37779965  0.67587683  1
  As  As3  1  0.92277347  0.63237867  0.94213831  1
  Se  Se0  1  0.97644500  0.52328464  0.20943440  1
  Se  Se1  1  0.28032774  0.59361447  0.98194224  1
  Se  Se2  1  0.94126803  0.06448124  0.49913722  1
  Se  Se3  1  0.50909495  0.97932396  0.24468533  1
  Se  Se4  1  0.46191373  0.03611470  0.70857414  1
  Se  Se5  1  0.53296849  0.34266357  0.48198914  1
  Se  Se6  1  0.00457066  0.00341505  -0.00126753  1
  Se  Se7  1  0.91602890  0.56994755  0.74506533  1
loop_
_geom_bond_atom_site_label_1
_geom_bond_atom_site_label_2
_geom_bond_distance
_geom_bond_site_symmetry_2
K0 Se6 3.240654 1_555
K0 Se2 3.243021 1_455
K0 Se3 3.341546 1_545
K0 Se0 3.349380 1_445
K0 Se3 3.390342 1_445
K0 Se0 3.447446 1_455
K0 Se5 3.647909 1_555
K1 Se2 3.416031 1_465
K1 Se4 3.470636 1_565
K1 Se5 3.476809 1_455
K1 Se2 3.481673 1_455
K1 Se0 3.527291 1_455
K1 Se7 3.550575 1_455
K2 Se2 3.233915 1_555
K2 Se6 3.234839 1_656
K2 Se7 3.342955 1_555
K2 Se4 3.354454 1_555
K2 Se7 3.394131 1_545
K2 Se4 3.448739 1_655
K2 Se1 3.640552 1_655
K3 Se6 3.417225 1_656
K3 Se6 3.473698 1_556
K3 Se1 3.475456 1_545
K3 Se0 3.485339 1_556
K3 Se4 3.534377 1_555
K3 Se3 3.538812 1_546
As0 Se0 2.320193 1_455
As0 Se3 2.466690 1_555
As0 Se1 2.467818 1_554
As1 Se2 2.306019 1_565
As1 Se5 2.449226 1_565
As1 Se3 2.468487 1_555
As1 K1 3.725738 1_555
As2 Se4 2.318984 1_555
As2 Se5 2.467424 1_555
As2 Se7 2.467516 1_555
As3 Se6 2.306332 1_666
As3 Se1 2.450010 1_655
As3 Se7 2.465868 1_555
As3 K3 3.727484 1_555
