# generated using pymatgen
data_Al2Se3
_symmetry_space_group_name_H-M   'P 1'
_cell_length_a   6.77603462
_cell_length_b   6.79651576
_cell_length_c   7.38078142
_cell_angle_alpha   116.52600001
_cell_angle_beta   90.00000000
_cell_angle_gamma   119.90035992
_symmetry_Int_Tables_number   1
_chemical_formula_structural   Al2Se3
_chemical_formula_sum   'Al4 Se6'
_cell_volume   252.55345150
_cell_formula_units_Z   2
loop_
 _symmetry_equiv_pos_site_id
 _symmetry_equiv_pos_as_xyz
  1  'x, y, z'
loop_
 _atom_site_type_symbol
 _atom_site_label
 _atom_site_symmetry_multiplicity
 _atom_site_fract_x
 _atom_site_fract_y
 _atom_site_fract_z
 _atom_site_occupancy
  Al  Al0  1  0.63716051  0.08360766  0.12872702  1
  Al  Al1  1  0.44644715  0.08360766  0.62872702  1
  Al  Al2  1  0.26593505  0.40067517  0.11732339  1
  Al  Al3  1  0.13474112  0.40067517  0.61732339  1
  Se  Se0  1  0.90822530  0.99579156  0.98857913  1
  Se  Se1  1  0.08756626  0.99579156  0.48857913  1
  Se  Se2  1  0.58557247  0.34397636  0.01313823  1
  Se  Se3  1  0.75840389  0.34397636  0.51313823  1
  Se  Se4  1  0.24729820  0.67574724  0.00223122  1
  Se  Se5  1  0.42845004  0.67574724  0.50223222  1
loop_
_geom_bond_atom_site_label_1
_geom_bond_atom_site_label_2
_geom_bond_distance
_geom_bond_site_symmetry_2
Al0 Se0 2.311134 1_544
Al0 Se4 2.433510 1_545
Al0 Se3 2.433596 1_555
Al0 Se2 2.438590 1_555
Al1 Se1 2.311134 1_545
Al1 Se5 2.433514 1_545
Al1 Se2 2.433596 1_556
Al1 Se3 2.438591 1_555
Al2 Se0 2.316235 1_444
Al2 Se4 2.426229 1_555
Al2 Se5 2.445839 1_555
Al2 Se2 2.449133 1_555
Al3 Se1 2.316231 1_545
Al3 Se5 2.426224 1_555
Al3 Se4 2.445833 1_556
Al3 Se3 2.449140 1_455
