# generated using pymatgen
data_Te2MoWS2
_symmetry_space_group_name_H-M   'P 1'
_cell_length_a   3.35703737
_cell_length_b   3.35703737
_cell_length_c   36.72469037
_cell_angle_alpha   90.00000000
_cell_angle_beta   90.00000000
_cell_angle_gamma   120.00000207
_symmetry_Int_Tables_number   1
_chemical_formula_structural   Te2MoWS2
_chemical_formula_sum   'Te4 Mo2 W2 S4'
_cell_volume   358.42732892
_cell_formula_units_Z   2
loop_
 _symmetry_equiv_pos_site_id
 _symmetry_equiv_pos_as_xyz
  1  'x, y, z'
loop_
 _atom_site_type_symbol
 _atom_site_label
 _atom_site_symmetry_multiplicity
 _atom_site_fract_x
 _atom_site_fract_y
 _atom_site_fract_z
 _atom_site_occupancy
  Te  Te0  1  0.33333300  0.66666700  0.04257767  1
  Te  Te1  1  0.33333300  0.66666700  0.41887264  1
  Te  Te2  1  0.33333300  0.66666700  0.14465295  1
  Te  Te3  1  0.33333300  0.66666700  0.52120770  1
  Mo  Mo0  1  -0.00000000  0.00000000  0.09356180  1
  Mo  Mo1  1  0.33333300  0.66666700  0.28202108  1
  W  W0  1  0.00000000  0.00000000  0.47004987  1
  W  W1  1  0.33333300  0.66666700  0.65727237  1
  S  S0  1  0.00000000  0.00000000  0.32283661  1
  S  S1  1  -0.00000000  0.00000000  0.69823930  1
  S  S2  1  -0.00000000  -0.00000000  0.24119012  1
  S  S3  1  -0.00000000  -0.00000000  0.61626688  1
loop_
_geom_bond_atom_site_label_1
_geom_bond_atom_site_label_2
_geom_bond_distance
_geom_bond_site_symmetry_2
Te1 W0 2.699807 1_565
Te1 W0 2.699809 1_665
Te1 W0 2.699809 1_555
Te3 W0 2.699311 1_565
Te3 W0 2.699313 1_665
Te3 W0 2.699313 1_555
Mo0 Te0 2.694875 1_545
Mo0 Te0 2.694877 1_555
Mo0 Te0 2.694877 1_445
Mo0 Te2 2.697607 1_545
Mo0 Te2 2.697609 1_445
Mo0 Te2 2.697609 1_555
Mo1 S0 2.450178 1_565
Mo1 S0 2.450180 1_555
Mo1 S0 2.450180 1_665
Mo1 S2 2.450525 1_565
Mo1 S2 2.450527 1_665
Mo1 S2 2.450527 1_555
S1 W1 2.453584 1_545
S1 W1 2.453586 1_445
S1 W1 2.453586 1_555
S3 W1 2.454452 1_545
S3 W1 2.454455 1_445
S3 W1 2.454455 1_555
