# generated using pymatgen
data_Mg14ZnGa
_symmetry_space_group_name_H-M   'P 1'
_cell_length_a   6.24245063
_cell_length_b   6.24245015
_cell_length_c   10.03264454
_cell_angle_alpha   90.00000000
_cell_angle_beta   90.00000000
_cell_angle_gamma   120.00000260
_symmetry_Int_Tables_number   1
_chemical_formula_structural   Mg14ZnGa
_chemical_formula_sum   'Mg14 Zn1 Ga1'
_cell_volume   338.57605847
_cell_formula_units_Z   1
loop_
 _symmetry_equiv_pos_site_id
 _symmetry_equiv_pos_as_xyz
  1  'x, y, z'
loop_
 _atom_site_type_symbol
 _atom_site_label
 _atom_site_symmetry_multiplicity
 _atom_site_fract_x
 _atom_site_fract_y
 _atom_site_fract_z
 _atom_site_occupancy
  Mg  Mg0  1  0.16565115  0.83282507  0.12500000  1
  Mg  Mg1  1  0.16597314  0.83298607  0.62500000  1
  Mg  Mg2  1  0.66717493  0.33434885  0.12500000  1
  Mg  Mg3  1  0.66701393  0.33402686  0.62500000  1
  Mg  Mg4  1  0.66717493  0.83282507  0.12500000  1
  Mg  Mg5  1  0.66701393  0.83298607  0.62500000  1
  Mg  Mg6  1  0.33042891  0.16957109  0.37367745  1
  Mg  Mg7  1  0.33042891  0.16957109  0.87632255  1
  Mg  Mg8  1  0.33042891  0.66085882  0.37367745  1
  Mg  Mg9  1  0.33042891  0.66085882  0.87632255  1
  Mg  Mg10  1  0.83914118  0.16957109  0.37367745  1
  Mg  Mg11  1  0.83914118  0.16957109  0.87632255  1
  Mg  Mg12  1  0.83333300  0.66666700  0.37465227  1
  Mg  Mg13  1  0.83333300  0.66666700  0.87534773  1
  Zn  Zn0  1  0.16666700  0.33333300  0.12500000  1
  Ga  Ga0  1  0.16666700  0.33333300  0.62500000  1
loop_
_geom_bond_atom_site_label_1
_geom_bond_atom_site_label_2
_geom_bond_distance
_geom_bond_site_symmetry_2
Mg0 Mg12 3.082367 1_455
Mg0 Mg13 3.082367 1_454
Mg0 Mg9 3.088549 1_554
Mg0 Mg8 3.088549 1_555
Mg0 Mg7 3.088555 1_564
Mg0 Mg6 3.088555 1_565
Mg0 Mg2 3.111713 1_455
Mg0 Mg4 3.111713 1_455
Mg0 Zn0 3.121230 1_555
Mg0 Zn0 3.121230 1_565
Mg0 Mg2 3.130737 1_565
Mg0 Mg4 3.130737 1_555
Mg1 Mg12 3.089052 1_455
Mg1 Mg13 3.089052 1_455
Mg1 Mg8 3.109527 1_555
Mg1 Mg9 3.109527 1_555
Mg1 Mg6 3.109533 1_565
Mg1 Mg7 3.109533 1_565
Mg1 Mg3 3.114728 1_455
Mg1 Mg5 3.114728 1_455
Mg1 Mg3 3.127722 1_565
Mg1 Mg5 3.127722 1_555
Mg2 Mg7 3.088555 1_554
Mg2 Mg6 3.088555 1_555
Mg2 Mg4 3.111713 1_555
Mg2 Zn0 3.121230 1_655
Mg2 Zn0 3.121230 1_555
Mg2 Mg4 3.130737 1_545
Mg3 Mg6 3.109533 1_555
Mg3 Mg7 3.109533 1_555
Mg3 Mg5 3.114728 1_555
Mg3 Mg5 3.127722 1_545
Mg4 Mg9 3.088555 1_554
Mg4 Mg8 3.088555 1_555
Mg4 Zn0 3.121230 1_665
Mg4 Zn0 3.121230 1_555
Mg5 Mg8 3.109533 1_555
Mg5 Mg9 3.109533 1_555
Mg6 Zn0 3.059351 1_555
Mg6 Mg8 3.066839 1_555
Mg6 Mg8 3.175611 1_545
Mg7 Zn0 3.059351 1_556
Mg7 Mg9 3.066839 1_555
Mg7 Mg9 3.175611 1_545
Mg8 Zn0 3.059358 1_555
Mg9 Zn0 3.059358 1_556
Mg10 Zn0 3.059358 1_655
Mg10 Mg8 3.066839 1_655
Mg10 Mg6 3.066839 1_655
Mg10 Mg2 3.088549 1_555
Mg10 Mg4 3.088555 1_545
Mg10 Mg3 3.109527 1_555
Mg10 Mg5 3.109533 1_545
Mg10 Mg12 3.121398 1_545
Mg10 Mg12 3.121398 1_555
Mg10 Mg8 3.175611 1_545
Mg10 Mg6 3.175611 1_555
Mg11 Zn0 3.059358 1_656
Mg11 Mg9 3.066839 1_655
Mg11 Mg7 3.066839 1_655
Mg11 Mg2 3.088549 1_556
Mg11 Mg4 3.088555 1_546
Mg11 Mg3 3.109527 1_555
Mg11 Mg5 3.109533 1_545
Mg11 Mg13 3.121398 1_545
Mg11 Mg13 3.121398 1_555
Mg11 Mg9 3.175611 1_545
Mg11 Mg7 3.175611 1_555
Mg12 Mg4 3.082360 1_555
Mg12 Mg2 3.082366 1_555
Mg12 Mg5 3.089046 1_555
Mg12 Mg3 3.089052 1_555
Mg12 Mg6 3.121398 1_665
Mg12 Mg6 3.121398 1_555
Mg12 Mg8 3.121399 1_555
Mg12 Mg8 3.121399 1_655
Mg13 Mg4 3.082360 1_556
Mg13 Mg2 3.082366 1_556
Mg13 Mg5 3.089046 1_555
Mg13 Mg3 3.089052 1_555
Mg13 Mg7 3.121398 1_665
Mg13 Mg7 3.121398 1_555
Mg13 Mg9 3.121399 1_555
Mg13 Mg9 3.121399 1_655
Ga0 Mg6 3.081031 1_555
Ga0 Mg7 3.081031 1_555
Ga0 Mg8 3.081037 1_555
Ga0 Mg9 3.081037 1_555
Ga0 Mg10 3.081037 1_455
Ga0 Mg11 3.081037 1_455
Ga0 Mg5 3.121227 1_445
Ga0 Mg5 3.121227 1_555
Ga0 Mg1 3.121227 1_545
Ga0 Mg1 3.121227 1_555
Ga0 Mg3 3.121228 1_555
Ga0 Mg3 3.121228 1_455
