# generated using pymatgen
data_MgSi2
_symmetry_space_group_name_H-M   'P 1'
_cell_length_a   5.19475497
_cell_length_b   5.19475497
_cell_length_c   12.41895953
_cell_angle_alpha   75.54505107
_cell_angle_beta   75.54505107
_cell_angle_gamma   39.00545627
_symmetry_Int_Tables_number   1
_chemical_formula_structural   MgSi2
_chemical_formula_sum   'Mg4 Si8'
_cell_volume   203.39974151
_cell_formula_units_Z   4
loop_
 _symmetry_equiv_pos_site_id
 _symmetry_equiv_pos_as_xyz
  1  'x, y, z'
loop_
 _atom_site_type_symbol
 _atom_site_label
 _atom_site_symmetry_multiplicity
 _atom_site_fract_x
 _atom_site_fract_y
 _atom_site_fract_z
 _atom_site_occupancy
  Mg  Mg0  1  0.99567500  0.99567500  0.13062000  1
  Mg  Mg1  1  0.99584700  0.99584700  0.88781500  1
  Mg  Mg2  1  0.66731900  0.66731900  0.69836700  1
  Mg  Mg3  1  0.00705500  0.00705500  0.37224800  1
  Si  Si0  1  0.70952200  0.70952200  0.92829900  1
  Si  Si1  1  0.29429200  0.29429200  0.04914700  1
  Si  Si2  1  0.29501600  0.29501600  0.32578000  1
  Si  Si3  1  0.98648500  0.98648500  0.61624500  1
  Si  Si4  1  0.69892400  0.69892400  0.20075200  1
  Si  Si5  1  0.34787700  0.34787700  0.77365700  1
  Si  Si6  1  0.34966400  0.34966400  0.54019700  1
  Si  Si7  1  0.67619700  0.67619700  0.47669200  1
loop_
_geom_bond_atom_site_label_1
_geom_bond_atom_site_label_2
_geom_bond_distance
_geom_bond_site_symmetry_2
Mg0 Si4 2.804288 1_555
Mg0 Si1 2.830050 1_665
Mg0 Si4 2.940509 1_655
Mg0 Si4 2.940509 1_565
Mg0 Si1 2.996337 1_565
Mg0 Si1 2.996337 1_655
Mg0 Si2 3.197061 1_565
Mg0 Si2 3.197061 1_655
Mg1 Si0 2.714606 1_555
Mg1 Si0 2.862992 1_655
Mg1 Si0 2.862992 1_565
Mg1 Si5 2.864566 1_565
Mg1 Si5 2.864566 1_655
Mg1 Si1 2.970482 1_566
Mg1 Si1 2.970482 1_656
Mg1 Mg2 3.044775 1_565
Mg1 Mg2 3.044775 1_655
Mg2 Si7 2.731236 1_555
Mg2 Si5 2.807931 1_565
Mg2 Si5 2.807931 1_655
Mg2 Si3 2.853214 1_545
Mg2 Si3 2.853214 1_455
Mg2 Si6 2.863111 1_655
Mg2 Si6 2.863111 1_565
Mg2 Si0 2.991634 1_555
Mg2 Si5 3.018626 1_555
Mg2 Si3 3.020256 1_555
Mg3 Si2 2.724735 1_555
Mg3 Si6 2.833947 1_455
Mg3 Si6 2.833947 1_545
Mg3 Si2 2.878826 1_545
Mg3 Si2 2.878826 1_455
Mg3 Si7 2.927801 1_455
Mg3 Si7 2.927801 1_545
Mg3 Si3 2.983174 1_445
Mg3 Si4 2.992500 1_545
Mg3 Si4 2.992500 1_455
Mg3 Si7 3.155248 1_445
Si0 Si1 2.570844 1_656
Si0 Si1 2.570844 1_566
Si0 Si5 2.674651 1_565
Si0 Si5 2.674651 1_655
Si1 Si4 2.548245 1_455
Si1 Si4 2.548245 1_545
Si2 Si7 2.592154 1_455
Si2 Si7 2.592154 1_545
Si2 Si4 2.660481 1_545
Si2 Si4 2.660481 1_455
Si2 Si6 2.851650 1_555
Si3 Si6 2.522969 1_655
Si3 Si6 2.522969 1_565
Si3 Si5 2.695653 1_565
Si3 Si5 2.695653 1_655
Si3 Si7 2.785298 1_565
Si3 Si7 2.785298 1_655
Si6 Si7 2.688001 1_455
Si6 Si7 2.688001 1_545
