# generated using pymatgen
data_Mg5Ge
_symmetry_space_group_name_H-M   'P 1'
_cell_length_a   16.20493691
_cell_length_b   16.20493691
_cell_length_c   10.24602800
_cell_angle_alpha   90.00000000
_cell_angle_beta   90.00000000
_cell_angle_gamma   157.42908131
_symmetry_Int_Tables_number   1
_chemical_formula_structural   Mg5Ge
_chemical_formula_sum   'Mg40 Ge8'
_cell_volume   1032.72666831
_cell_formula_units_Z   8
loop_
 _symmetry_equiv_pos_site_id
 _symmetry_equiv_pos_as_xyz
  1  'x, y, z'
loop_
 _atom_site_type_symbol
 _atom_site_label
 _atom_site_symmetry_multiplicity
 _atom_site_fract_x
 _atom_site_fract_y
 _atom_site_fract_z
 _atom_site_occupancy
  Mg  Mg0_0  1  0.33555400  0.16444600  0.00000000  1
  Mg  Mg0_1  1  0.33555400  0.16444600  0.50000000  1
  Mg  Mg0_2  1  0.33555400  0.66444600  0.00000000  1
  Mg  Mg0_3  1  0.33555400  0.66444600  0.50000000  1
  Mg  Mg0_4  1  0.83555400  0.16444600  0.00000000  1
  Mg  Mg0_5  1  0.83555400  0.16444600  0.50000000  1
  Mg  Mg0_6  1  0.83555400  0.66444600  0.00000000  1
  Mg  Mg0_7  1  0.83555400  0.66444600  0.50000000  1
  Mg  Mg1_0  1  0.16597400  0.33402600  0.00000000  1
  Mg  Mg1_1  1  0.16597400  0.33402600  0.50000000  1
  Mg  Mg1_2  1  0.16597400  0.83402600  0.00000000  1
  Mg  Mg1_3  1  0.16597400  0.83402600  0.50000000  1
  Mg  Mg1_4  1  0.66597400  0.33402600  0.00000000  1
  Mg  Mg1_5  1  0.66597400  0.33402600  0.50000000  1
  Mg  Mg1_6  1  0.66597400  0.83402600  0.00000000  1
  Mg  Mg1_7  1  0.66597400  0.83402600  0.50000000  1
  Mg  Mg2_0  1  0.49968350  0.00031650  0.00000000  1
  Mg  Mg2_1  1  0.49968350  0.00031650  0.50000000  1
  Mg  Mg2_2  1  0.49968350  0.50031650  0.00000000  1
  Mg  Mg2_3  1  0.49968350  0.50031650  0.50000000  1
  Mg  Mg2_4  1  0.99968350  0.00031650  0.00000000  1
  Mg  Mg2_5  1  0.99968350  0.00031650  0.50000000  1
  Mg  Mg2_6  1  0.99968350  0.50031650  0.00000000  1
  Mg  Mg2_7  1  0.99968350  0.50031650  0.50000000  1
  Mg  Mg3_0  1  0.28015950  0.21984050  0.25000000  1
  Mg  Mg3_1  1  0.28015950  0.21984050  0.75000000  1
  Mg  Mg3_2  1  0.28015950  0.71984050  0.25000000  1
  Mg  Mg3_3  1  0.28015950  0.71984050  0.75000000  1
  Mg  Mg3_4  1  0.78015950  0.21984050  0.25000000  1
  Mg  Mg3_5  1  0.78015950  0.21984050  0.75000000  1
  Mg  Mg3_6  1  0.78015950  0.71984050  0.25000000  1
  Mg  Mg3_7  1  0.78015950  0.71984050  0.75000000  1
  Mg  Mg4_0  1  0.44051250  0.05948750  0.25000000  1
  Mg  Mg4_1  1  0.44051250  0.05948750  0.75000000  1
  Mg  Mg4_2  1  0.44051250  0.55948750  0.25000000  1
  Mg  Mg4_3  1  0.44051250  0.55948750  0.75000000  1
  Mg  Mg4_4  1  0.94051250  0.05948750  0.25000000  1
  Mg  Mg4_5  1  0.94051250  0.05948750  0.75000000  1
  Mg  Mg4_6  1  0.94051250  0.55948750  0.25000000  1
  Mg  Mg4_7  1  0.94051250  0.55948750  0.75000000  1
  Ge  Ge0_0  1  0.11144850  0.38855150  0.25000000  1
  Ge  Ge0_1  1  0.11144850  0.38855150  0.75000000  1
  Ge  Ge0_2  1  0.11144850  0.88855150  0.25000000  1
  Ge  Ge0_3  1  0.11144850  0.88855150  0.75000000  1
  Ge  Ge0_4  1  0.61144850  0.38855150  0.25000000  1
  Ge  Ge0_5  1  0.61144850  0.38855150  0.75000000  1
  Ge  Ge0_6  1  0.61144850  0.88855150  0.25000000  1
  Ge  Ge0_7  1  0.61144850  0.88855150  0.75000000  1
loop_
_geom_bond_atom_site_label_1
_geom_bond_atom_site_label_2
_geom_bond_distance
_geom_bond_site_symmetry_2
Mg0_0 Mg1_2 3.007888 1_545
Mg0_0 Mg1_4 3.007888 1_555
Mg0_0 Mg3_0 3.108228 1_555
Mg0_0 Mg3_1 3.108228 1_554
Mg0_0 Mg2_4 3.156418 1_455
Mg0_0 Mg2_2 3.156418 1_555
Mg0_0 Mg0_6 3.171262 1_555
Mg0_0 Mg0_6 3.171262 1_445
Mg0_1 Mg1_3 3.007888 1_545
Mg0_1 Mg1_5 3.007888 1_555
Mg0_1 Mg3_1 3.108228 1_555
Mg0_1 Mg3_0 3.108228 1_555
Mg0_1 Mg2_5 3.156418 1_455
Mg0_1 Mg2_3 3.156418 1_555
Mg0_1 Mg0_7 3.171262 1_555
Mg0_1 Mg0_7 3.171262 1_445
Mg0_2 Mg1_0 3.007888 1_555
Mg0_2 Mg1_6 3.007888 1_555
Mg0_2 Mg3_2 3.108228 1_555
Mg0_2 Mg3_3 3.108228 1_554
Mg0_2 Mg2_6 3.156418 1_455
Mg0_2 Mg2_0 3.156418 1_565
Mg0_2 Mg0_4 3.171262 1_565
Mg0_2 Mg0_4 3.171262 1_455
Mg0_3 Mg1_1 3.007888 1_555
Mg0_3 Mg1_7 3.007888 1_555
Mg0_3 Mg3_3 3.108228 1_555
Mg0_3 Mg3_2 3.108228 1_555
Mg0_3 Mg2_7 3.156418 1_455
Mg0_3 Mg2_1 3.156418 1_565
Mg0_3 Mg0_5 3.171262 1_565
Mg0_3 Mg0_5 3.171262 1_455
Mg0_4 Mg1_0 3.007888 1_655
Mg0_4 Mg1_6 3.007888 1_545
Mg0_4 Mg3_4 3.108228 1_555
Mg0_4 Mg3_5 3.108228 1_554
Mg0_4 Mg2_6 3.156418 1_555
Mg0_4 Mg2_0 3.156418 1_555
Mg0_5 Mg1_1 3.007888 1_655
Mg0_5 Mg1_7 3.007888 1_545
Mg0_5 Mg3_5 3.108228 1_555
Mg0_5 Mg3_4 3.108228 1_555
Mg0_5 Mg2_1 3.156418 1_555
Mg0_5 Mg2_7 3.156418 1_555
Mg0_6 Mg1_4 3.007888 1_555
Mg0_6 Mg1_2 3.007888 1_655
Mg0_6 Mg3_6 3.108228 1_555
Mg0_6 Mg3_7 3.108228 1_554
Mg0_6 Mg2_2 3.156418 1_555
Mg0_6 Mg2_4 3.156418 1_565
Mg0_7 Mg1_5 3.007888 1_555
Mg0_7 Mg1_3 3.007888 1_655
Mg0_7 Mg3_7 3.108228 1_555
Mg0_7 Mg3_6 3.108228 1_555
Mg0_7 Mg2_3 3.156418 1_555
Mg0_7 Mg2_5 3.156418 1_565
Mg1_0 Mg2_4 3.097222 1_455
Mg1_0 Mg2_2 3.097222 1_555
Mg1_0 Mg4_4 3.111882 1_455
Mg1_0 Mg4_5 3.111882 1_454
Mg1_0 Mg4_2 3.111882 1_555
Mg1_0 Mg4_3 3.111882 1_554
Mg1_0 Mg1_6 3.171262 1_555
Mg1_0 Mg1_6 3.171262 1_445
Mg1_1 Mg2_5 3.097222 1_455
Mg1_1 Mg2_3 3.097222 1_555
Mg1_1 Mg4_5 3.111882 1_455
Mg1_1 Mg4_4 3.111882 1_455
Mg1_1 Mg4_3 3.111882 1_555
Mg1_1 Mg4_2 3.111882 1_555
Mg1_1 Mg1_7 3.171262 1_555
Mg1_1 Mg1_7 3.171262 1_445
Mg1_2 Mg2_0 3.097222 1_565
Mg1_2 Mg2_6 3.097222 1_455
Mg1_2 Mg4_6 3.111882 1_455
Mg1_2 Mg4_0 3.111882 1_565
Mg1_2 Mg4_7 3.111882 1_454
Mg1_2 Mg4_1 3.111882 1_564
Mg1_2 Mg1_4 3.171262 1_455
Mg1_2 Mg1_4 3.171262 1_565
Mg1_3 Mg2_1 3.097222 1_565
Mg1_3 Mg2_7 3.097222 1_455
Mg1_3 Mg4_7 3.111882 1_455
Mg1_3 Mg4_1 3.111882 1_565
Mg1_3 Mg4_6 3.111882 1_455
Mg1_3 Mg4_0 3.111882 1_565
Mg1_3 Mg1_5 3.171262 1_455
Mg1_3 Mg1_5 3.171262 1_565
Mg1_4 Mg2_0 3.097222 1_555
Mg1_4 Mg2_6 3.097222 1_555
Mg1_4 Mg4_0 3.111882 1_555
Mg1_4 Mg4_1 3.111882 1_554
Mg1_4 Mg4_6 3.111882 1_555
Mg1_4 Mg4_7 3.111882 1_554
Mg1_5 Mg2_1 3.097222 1_555
Mg1_5 Mg2_7 3.097222 1_555
Mg1_5 Mg4_1 3.111882 1_555
Mg1_5 Mg4_7 3.111882 1_555
Mg1_5 Mg4_0 3.111882 1_555
Mg1_5 Mg4_6 3.111882 1_555
Mg1_6 Mg2_2 3.097222 1_555
Mg1_6 Mg2_4 3.097222 1_565
Mg1_6 Mg4_2 3.111882 1_555
Mg1_6 Mg4_3 3.111882 1_554
Mg1_6 Mg4_4 3.111882 1_565
Mg1_6 Mg4_5 3.111882 1_564
Mg1_7 Mg2_3 3.097222 1_555
Mg1_7 Mg2_5 3.097222 1_565
Mg1_7 Mg4_3 3.111882 1_555
Mg1_7 Mg4_2 3.111882 1_555
Mg1_7 Mg4_5 3.111882 1_565
Mg1_7 Mg4_4 3.111882 1_565
Mg2_0 Mg3_4 3.164455 1_555
Mg2_0 Mg3_2 3.164455 1_545
Mg2_0 Mg3_5 3.164455 1_554
Mg2_0 Mg3_3 3.164455 1_544
Mg2_0 Mg2_6 3.171262 1_555
Mg2_0 Mg2_6 3.171262 1_445
Mg2_0 Mg4_0 3.177757 1_555
Mg2_0 Mg4_1 3.177757 1_554
Mg2_1 Mg3_5 3.164455 1_555
Mg2_1 Mg3_3 3.164455 1_545
Mg2_1 Mg3_4 3.164455 1_555
Mg2_1 Mg3_2 3.164455 1_545
Mg2_1 Mg2_7 3.171262 1_555
Mg2_1 Mg2_7 3.171262 1_445
Mg2_1 Mg4_1 3.177757 1_555
Mg2_1 Mg4_0 3.177757 1_555
Mg2_2 Mg3_0 3.164455 1_555
Mg2_2 Mg3_6 3.164455 1_555
Mg2_2 Mg3_1 3.164455 1_554
Mg2_2 Mg3_7 3.164455 1_554
Mg2_2 Mg2_4 3.171262 1_565
Mg2_2 Mg2_4 3.171262 1_455
Mg2_2 Mg4_2 3.177757 1_555
Mg2_2 Mg4_3 3.177757 1_554
Mg2_3 Mg3_1 3.164455 1_555
Mg2_3 Mg3_7 3.164455 1_555
Mg2_3 Mg3_0 3.164455 1_555
Mg2_3 Mg3_6 3.164455 1_555
Mg2_3 Mg2_5 3.171262 1_455
Mg2_3 Mg2_5 3.171262 1_565
Mg2_3 Mg4_3 3.177757 1_555
Mg2_3 Mg4_2 3.177757 1_555
Mg2_4 Mg3_0 3.164455 1_655
Mg2_4 Mg3_1 3.164455 1_654
Mg2_4 Mg3_6 3.164455 1_545
Mg2_4 Mg3_7 3.164455 1_544
Mg2_4 Mg4_4 3.177757 1_555
Mg2_4 Mg4_5 3.177757 1_554
Mg2_5 Mg3_1 3.164455 1_655
Mg2_5 Mg3_0 3.164455 1_655
Mg2_5 Mg3_7 3.164455 1_545
Mg2_5 Mg3_6 3.164455 1_545
Mg2_5 Mg4_5 3.177757 1_555
Mg2_5 Mg4_4 3.177757 1_555
Mg2_6 Mg3_2 3.164455 1_655
Mg2_6 Mg3_4 3.164455 1_555
Mg2_6 Mg3_3 3.164455 1_654
Mg2_6 Mg3_5 3.164455 1_554
Mg2_6 Mg4_6 3.177757 1_555
Mg2_6 Mg4_7 3.177757 1_554
Mg2_7 Mg3_3 3.164455 1_655
Mg2_7 Mg3_5 3.164455 1_555
Mg2_7 Mg3_2 3.164455 1_655
Mg2_7 Mg3_4 3.164455 1_555
Mg2_7 Mg4_7 3.177757 1_555
Mg2_7 Mg4_6 3.177757 1_555
Ge0_0 Mg4_4 2.971352 1_455
Ge0_0 Mg4_2 2.971352 1_555
Ge0_0 Mg3_4 3.031393 1_455
Ge0_0 Mg3_2 3.031393 1_555
Ge0_0 Mg1_0 3.092667 1_555
Ge0_0 Mg1_1 3.092667 1_555
Ge0_0 Mg0_3 3.122962 1_555
Ge0_0 Mg0_2 3.122962 1_555
Ge0_0 Mg0_4 3.122962 1_455
Ge0_0 Mg0_5 3.122962 1_455
Ge0_1 Mg4_5 2.971352 1_455
Ge0_1 Mg4_3 2.971352 1_555
Ge0_1 Mg3_5 3.031393 1_455
Ge0_1 Mg3_3 3.031393 1_555
Ge0_1 Mg1_1 3.092667 1_555
Ge0_1 Mg1_0 3.092667 1_556
Ge0_1 Mg0_3 3.122962 1_555
Ge0_1 Mg0_5 3.122962 1_455
Ge0_1 Mg0_2 3.122962 1_556
Ge0_1 Mg0_4 3.122962 1_456
Ge0_2 Mg4_6 2.971352 1_455
Ge0_2 Mg4_0 2.971352 1_565
Ge0_2 Mg3_6 3.031393 1_455
Ge0_2 Mg3_0 3.031393 1_565
Ge0_2 Mg1_2 3.092667 1_555
Ge0_2 Mg1_3 3.092667 1_555
Ge0_2 Mg0_1 3.122962 1_565
Ge0_2 Mg0_0 3.122962 1_565
Ge0_2 Mg0_7 3.122962 1_455
Ge0_2 Mg0_6 3.122962 1_455
Ge0_3 Mg4_7 2.971352 1_455
Ge0_3 Mg4_1 2.971352 1_565
Ge0_3 Mg3_7 3.031393 1_455
Ge0_3 Mg3_1 3.031393 1_565
Ge0_3 Mg1_3 3.092667 1_555
Ge0_3 Mg1_2 3.092667 1_556
Ge0_3 Mg0_1 3.122962 1_565
Ge0_3 Mg0_7 3.122962 1_455
Ge0_3 Mg0_0 3.122962 1_566
Ge0_3 Mg0_6 3.122962 1_456
Ge0_4 Mg4_0 2.971352 1_555
Ge0_4 Mg4_6 2.971352 1_555
Ge0_4 Mg3_6 3.031393 1_555
Ge0_4 Mg3_0 3.031393 1_555
Ge0_4 Mg1_5 3.092667 1_555
Ge0_4 Mg1_4 3.092667 1_555
Ge0_4 Mg0_7 3.122962 1_555
Ge0_4 Mg0_6 3.122962 1_555
Ge0_4 Mg0_1 3.122962 1_555
Ge0_4 Mg0_0 3.122962 1_555
Ge0_5 Mg4_1 2.971352 1_555
Ge0_5 Mg4_7 2.971352 1_555
Ge0_5 Mg3_1 3.031393 1_555
Ge0_5 Mg3_7 3.031393 1_555
Ge0_5 Mg1_5 3.092667 1_555
Ge0_5 Mg1_4 3.092667 1_556
Ge0_5 Mg0_7 3.122962 1_555
Ge0_5 Mg0_6 3.122962 1_556
Ge0_5 Mg0_1 3.122962 1_555
Ge0_5 Mg0_0 3.122962 1_556
Ge0_6 Mg4_2 2.971352 1_555
Ge0_6 Mg4_4 2.971352 1_565
Ge0_6 Mg3_2 3.031393 1_555
Ge0_6 Mg3_4 3.031393 1_565
Ge0_6 Mg1_6 3.092667 1_555
Ge0_6 Mg1_7 3.092667 1_555
Ge0_6 Mg0_5 3.122962 1_565
Ge0_6 Mg0_4 3.122962 1_565
Ge0_6 Mg0_3 3.122962 1_555
Ge0_6 Mg0_2 3.122962 1_555
Ge0_7 Mg4_3 2.971352 1_555
Ge0_7 Mg4_5 2.971352 1_565
Ge0_7 Mg3_3 3.031393 1_555
Ge0_7 Mg3_5 3.031393 1_565
Ge0_7 Mg1_7 3.092667 1_555
Ge0_7 Mg1_6 3.092667 1_556
Ge0_7 Mg0_5 3.122962 1_565
Ge0_7 Mg0_3 3.122962 1_555
Ge0_7 Mg0_4 3.122962 1_566
Ge0_7 Mg0_2 3.122962 1_556
