# generated using pymatgen
data_Nd2MgSe4
_symmetry_space_group_name_H-M   'P 1'
_cell_length_a   13.60526187
_cell_length_b   8.14705069
_cell_length_c   13.64875653
_cell_angle_alpha   90.00000000
_cell_angle_beta   90.00000000
_cell_angle_gamma   90.00000000
_symmetry_Int_Tables_number   1
_chemical_formula_structural   Nd2MgSe4
_chemical_formula_sum   'Nd16 Mg8 Se32'
_cell_volume   1512.86581850
_cell_formula_units_Z   8
loop_
 _symmetry_equiv_pos_site_id
 _symmetry_equiv_pos_as_xyz
  1  'x, y, z'
loop_
 _atom_site_type_symbol
 _atom_site_label
 _atom_site_symmetry_multiplicity
 _atom_site_fract_x
 _atom_site_fract_y
 _atom_site_fract_z
 _atom_site_occupancy
  Nd  Nd0  1  0.10821314  0.88544422  0.68496611  1
  Nd  Nd1  1  0.89178686  0.11455578  0.18496611  1
  Nd  Nd2  1  0.39178686  0.88544422  0.18496611  1
  Nd  Nd3  1  0.60821314  0.11455578  0.68496611  1
  Nd  Nd4  1  0.12670551  0.38372721  0.32633774  1
  Nd  Nd5  1  0.87329449  0.61627279  0.82633774  1
  Nd  Nd6  1  0.37329449  0.38372721  0.82633774  1
  Nd  Nd7  1  0.62670551  0.61627279  0.32633774  1
  Nd  Nd8  1  0.13436348  0.63090679  0.99279968  1
  Nd  Nd9  1  0.86563652  0.36909321  0.49279968  1
  Nd  Nd10  1  0.36563652  0.63090679  0.49279968  1
  Nd  Nd11  1  0.63436348  0.36909321  0.99279968  1
  Nd  Nd12  1  0.13494106  0.13099050  0.99348248  1
  Nd  Nd13  1  0.86505894  0.86900950  0.49348248  1
  Nd  Nd14  1  0.36505894  0.13099050  0.49348248  1
  Nd  Nd15  1  0.63494106  0.86900950  0.99348248  1
  Mg  Mg0  1  0.11210779  0.38524919  0.69282388  1
  Mg  Mg1  1  0.88789221  0.61475081  0.19282388  1
  Mg  Mg2  1  0.38789221  0.38524919  0.19282388  1
  Mg  Mg3  1  0.61210779  0.61475081  0.69282388  1
  Mg  Mg4  1  0.12608309  0.88039539  0.32003640  1
  Mg  Mg5  1  0.87391691  0.11960461  0.82003640  1
  Mg  Mg6  1  0.37391691  0.88039539  0.82003640  1
  Mg  Mg7  1  0.62608309  0.11960461  0.32003640  1
  Se  Se0  1  0.01052089  0.88169751  0.87991297  1
  Se  Se1  1  0.98947911  0.11830249  0.37991297  1
  Se  Se2  1  0.48947911  0.88169751  0.37991297  1
  Se  Se3  1  0.51052089  0.11830249  0.87991297  1
  Se  Se4  1  0.02852395  0.38293793  0.12862642  1
  Se  Se5  1  0.97147605  0.61706207  0.62862642  1
  Se  Se6  1  0.47147605  0.38293793  0.62862642  1
  Se  Se7  1  0.52852395  0.61706207  0.12862642  1
  Se  Se8  1  0.02582719  0.37364589  0.86765242  1
  Se  Se9  1  0.97417281  0.62635411  0.36765242  1
  Se  Se10  1  0.47417281  0.37364589  0.36765242  1
  Se  Se11  1  0.52582719  0.62635411  0.86765242  1
  Se  Se12  1  0.04713363  0.87454557  0.13923336  1
  Se  Se13  1  0.95286637  0.12545443  0.63923336  1
  Se  Se14  1  0.45286637  0.87454557  0.63923336  1
  Se  Se15  1  0.54713363  0.12545443  0.13923336  1
  Se  Se16  1  0.20927046  0.88180497  0.49696679  1
  Se  Se17  1  0.79072954  0.11819503  0.99696679  1
  Se  Se18  1  0.29072954  0.88180497  0.99696679  1
  Se  Se19  1  0.70927046  0.11819503  0.49696679  1
  Se  Se20  1  0.21033905  0.38175984  0.52313954  1
  Se  Se21  1  0.78966095  0.61824016  0.02313954  1
  Se  Se22  1  0.28966095  0.38175984  0.02313954  1
  Se  Se23  1  0.71033905  0.61824016  0.52313954  1
  Se  Se24  1  0.23180285  0.13406763  0.77370032  1
  Se  Se25  1  0.76819715  0.86593237  0.27370032  1
  Se  Se26  1  0.26819715  0.13406763  0.27370032  1
  Se  Se27  1  0.73180285  0.86593237  0.77370032  1
  Se  Se28  1  0.23293687  0.63744048  0.77732289  1
  Se  Se29  1  0.76706313  0.36255952  0.27732289  1
  Se  Se30  1  0.26706313  0.63744048  0.27732289  1
  Se  Se31  1  0.73293687  0.36255952  0.77732289  1
loop_
_geom_bond_atom_site_label_1
_geom_bond_atom_site_label_2
_geom_bond_distance
_geom_bond_site_symmetry_2
Nd0 Se24 2.897754 1_565
Nd0 Se16 2.911253 1_555
Nd0 Se28 2.924189 1_555
Nd0 Se13 2.946207 1_465
Nd0 Se5 2.972048 1_455
Nd0 Se0 2.974437 1_555
Nd1 Se25 2.897754 1_545
Nd1 Se17 2.911253 1_554
Nd1 Se29 2.924189 1_555
Nd1 Se12 2.946207 1_645
Nd1 Se4 2.972048 1_655
Nd1 Se1 2.974437 1_555
Nd2 Se26 2.897754 1_565
Nd2 Se18 2.911253 1_554
Nd2 Se30 2.924189 1_555
Nd2 Se15 2.946207 1_565
Nd2 Se7 2.972048 1_555
Nd2 Se2 2.974437 1_555
Nd3 Se27 2.897754 1_545
Nd3 Se19 2.911253 1_555
Nd3 Se31 2.924189 1_555
Nd3 Se14 2.946207 1_545
Nd3 Se6 2.972048 1_555
Nd3 Se3 2.974437 1_555
Nd4 Se26 2.891194 1_555
Nd4 Se30 2.892522 1_555
Nd4 Se20 2.917209 1_555
Nd4 Se9 2.920949 1_455
Nd4 Se1 2.948982 1_455
Nd4 Se4 3.011037 1_555
Nd5 Se27 2.891194 1_555
Nd5 Se31 2.892522 1_555
Nd5 Se21 2.917209 1_556
Nd5 Se8 2.920949 1_655
Nd5 Se0 2.948982 1_655
Nd5 Se5 3.011037 1_555
Nd6 Se24 2.891194 1_555
Nd6 Se28 2.892522 1_555
Nd6 Se22 2.917209 1_556
Nd6 Se11 2.920949 1_555
Nd6 Se3 2.948982 1_555
Nd6 Se6 3.011037 1_555
Nd7 Se25 2.891194 1_555
Nd7 Se29 2.892522 1_555
Nd7 Se23 2.917209 1_555
Nd7 Se10 2.920949 1_555
Nd7 Se2 2.948982 1_555
Nd7 Se7 3.011037 1_555
Nd8 Se18 2.950819 1_555
Nd8 Se22 2.959022 1_556
Nd8 Se12 3.056630 1_556
Nd8 Se0 3.063913 1_555
Nd8 Se8 3.080752 1_555
Nd8 Se4 3.097033 1_556
Nd8 Se28 3.232778 1_555
Nd9 Se19 2.950819 1_555
Nd9 Se23 2.959022 1_555
Nd9 Se13 3.056630 1_555
Nd9 Se1 3.063913 1_555
Nd9 Se9 3.080752 1_555
Nd9 Se5 3.097033 1_555
Nd9 Se29 3.232778 1_555
Nd10 Se16 2.950819 1_555
Nd10 Se20 2.959022 1_555
Nd10 Se14 3.056630 1_555
Nd10 Se2 3.063913 1_555
Nd10 Se10 3.080752 1_555
Nd10 Se6 3.097033 1_555
Nd10 Se30 3.232778 1_555
Nd11 Se17 2.950819 1_555
Nd11 Se21 2.959022 1_556
Nd11 Se15 3.056630 1_556
Nd11 Se3 3.063913 1_555
Nd11 Se11 3.080752 1_555
Nd11 Se7 3.097033 1_556
Nd11 Se31 3.232778 1_555
Nd12 Se18 2.935326 1_545
Nd12 Se22 2.961227 1_556
Nd12 Se8 3.010247 1_555
Nd12 Se0 3.064832 1_545
Nd12 Se4 3.116385 1_556
Nd12 Se12 3.122436 1_546
Nd12 Se24 3.276557 1_555
Nd13 Se19 2.935326 1_565
Nd13 Se23 2.961227 1_555
Nd13 Se9 3.010247 1_555
Nd13 Se1 3.064832 1_565
Nd13 Se5 3.116385 1_555
Nd13 Se13 3.122436 1_565
Nd13 Se25 3.276557 1_555
Nd14 Se16 2.935326 1_545
Nd14 Se20 2.961227 1_555
Nd14 Se10 3.010247 1_555
Nd14 Se2 3.064832 1_545
Nd14 Se6 3.116385 1_555
Nd14 Se14 3.122436 1_545
Nd14 Se26 3.276557 1_555
Nd15 Se17 2.935326 1_565
Nd15 Se21 2.961227 1_556
Nd15 Se11 3.010247 1_555
Nd15 Se3 3.064832 1_565
Nd15 Se7 3.116385 1_556
Nd15 Se15 3.122436 1_566
Nd15 Se27 3.276557 1_555
Mg0 Se8 2.660981 1_555
Mg0 Se20 2.674080 1_555
Mg0 Se5 2.827608 1_455
Mg0 Se24 2.838693 1_555
Mg0 Se28 2.872978 1_555
Mg0 Se13 3.115872 1_455
Mg1 Se9 2.660981 1_555
Mg1 Se21 2.674080 1_555
Mg1 Se4 2.827608 1_655
Mg1 Se25 2.838693 1_555
Mg1 Se29 2.872978 1_555
Mg1 Se12 3.115872 1_655
Mg2 Se10 2.660981 1_555
Mg2 Se22 2.674080 1_555
Mg2 Se7 2.827608 1_555
Mg2 Se26 2.838693 1_555
Mg2 Se30 2.872978 1_555
Mg2 Se15 3.115872 1_555
Mg3 Se11 2.660981 1_555
Mg3 Se23 2.674080 1_555
Mg3 Se6 2.827608 1_555
Mg3 Se27 2.838693 1_555
Mg3 Se31 2.872978 1_555
Mg3 Se14 3.115872 1_555
Mg4 Se16 2.666968 1_555
Mg4 Se12 2.691792 1_555
Mg4 Se1 2.806921 1_465
Mg4 Se30 2.817225 1_555
Mg4 Se26 2.899923 1_565
Mg4 Se9 2.996256 1_455
Mg5 Se17 2.666968 1_555
Mg5 Se13 2.691792 1_555
Mg5 Se0 2.806921 1_645
Mg5 Se31 2.817225 1_555
Mg5 Se27 2.899923 1_545
Mg5 Se8 2.996256 1_655
Mg6 Se18 2.666968 1_555
Mg6 Se14 2.691792 1_555
Mg6 Se3 2.806921 1_565
Mg6 Se28 2.817225 1_555
Mg6 Se24 2.899923 1_565
Mg6 Se11 2.996256 1_555
Mg7 Se19 2.666968 1_555
Mg7 Se15 2.691792 1_555
Mg7 Se2 2.806921 1_545
Mg7 Se29 2.817225 1_555
Mg7 Se25 2.899923 1_545
Mg7 Se10 2.996256 1_555
