# generated using pymatgen
data_Mn3Zn2O8
_symmetry_space_group_name_H-M   'P 1'
_cell_length_a   5.62982903
_cell_length_b   5.62982903
_cell_length_c   4.90527648
_cell_angle_alpha   79.76843278
_cell_angle_beta   79.76843278
_cell_angle_gamma   60.53039784
_symmetry_Int_Tables_number   1
_chemical_formula_structural   Mn3Zn2O8
_chemical_formula_sum   'Mn3 Zn2 O8'
_cell_volume   132.46367924
_cell_formula_units_Z   1
loop_
 _symmetry_equiv_pos_site_id
 _symmetry_equiv_pos_as_xyz
  1  'x, y, z'
loop_
 _atom_site_type_symbol
 _atom_site_label
 _atom_site_symmetry_multiplicity
 _atom_site_fract_x
 _atom_site_fract_y
 _atom_site_fract_z
 _atom_site_occupancy
  Mn  Mn0  1  0.00000000  -0.00000000  -0.00000000  1
  Mn  Mn1  1  0.74459255  0.25540745  0.50000000  1
  Mn  Mn2  1  0.25540745  0.74459255  0.50000000  1
  Zn  Zn0  1  0.29160132  0.29160132  0.10064771  1
  Zn  Zn1  1  0.70839868  0.70839868  0.89935229  1
  O  O0  1  0.60616198  0.60616198  0.59788450  1
  O  O1  1  0.39383802  0.39383802  0.40211550  1
  O  O2  1  0.10106399  0.10106399  0.62996812  1
  O  O3  1  0.89893601  0.89893601  0.37003188  1
  O  O4  1  0.11275594  0.65826362  0.86629890  1
  O  O5  1  0.65826362  0.11275594  0.86629890  1
  O  O6  1  0.34173638  0.88724406  0.13370110  1
  O  O7  1  0.88724406  0.34173638  0.13370110  1
loop_
_geom_bond_atom_site_label_1
_geom_bond_atom_site_label_2
_geom_bond_distance
_geom_bond_site_symmetry_2
Mn0 O2 1.877986 1_554
Mn0 O3 1.877986 1_445
Mn0 O5 1.906107 1_454
Mn0 O4 1.906107 1_544
Mn0 O6 1.906107 1_545
Mn0 O7 1.906107 1_455
Mn1 O0 1.851214 1_555
Mn1 O1 1.851214 1_555
Mn1 O5 1.915945 1_555
Mn1 O7 1.915945 1_555
Mn1 O3 1.931568 1_545
Mn1 O2 1.931568 1_655
Mn2 O0 1.851214 1_555
Mn2 O1 1.851214 1_555
Mn2 O4 1.915945 1_555
Mn2 O6 1.915945 1_555
Mn2 O3 1.931568 1_455
Mn2 O2 1.931568 1_565
O0 Zn1 1.944243 1_555
O1 Zn0 1.944243 1_555
O4 Zn0 2.029662 1_556
O4 Zn1 2.131001 1_455
O5 Zn0 2.029662 1_556
O5 Zn1 2.131001 1_545
O6 Zn1 2.029662 1_554
O6 Zn0 2.131001 1_565
O7 Zn1 2.029662 1_554
O7 Zn0 2.131001 1_655
