# generated using pymatgen
data_CaPr3
_symmetry_space_group_name_H-M   'P 1'
_cell_length_a   7.54125800
_cell_length_b   7.54125800
_cell_length_c   6.06892400
_cell_angle_alpha   90.00000000
_cell_angle_beta   90.00000000
_cell_angle_gamma   119.99999997
_symmetry_Int_Tables_number   1
_chemical_formula_structural   CaPr3
_chemical_formula_sum   'Ca2 Pr6'
_cell_volume   298.90276218
_cell_formula_units_Z   2
loop_
 _symmetry_equiv_pos_site_id
 _symmetry_equiv_pos_as_xyz
  1  'x, y, z'
loop_
 _atom_site_type_symbol
 _atom_site_label
 _atom_site_symmetry_multiplicity
 _atom_site_fract_x
 _atom_site_fract_y
 _atom_site_fract_z
 _atom_site_occupancy
  Ca  Ca0  1  0.33333300  0.66666700  0.75000000  1
  Ca  Ca1  1  0.66666700  0.33333300  0.25000000  1
  Pr  Pr0  1  0.16489100  0.32978300  0.25000000  1
  Pr  Pr1  1  0.67021700  0.83510900  0.25000000  1
  Pr  Pr2  1  0.16489100  0.83510900  0.25000000  1
  Pr  Pr3  1  0.83510900  0.67021700  0.75000000  1
  Pr  Pr4  1  0.32978300  0.16489100  0.75000000  1
  Pr  Pr5  1  0.83510900  0.16489100  0.75000000  1
loop_
_geom_bond_atom_site_label_1
_geom_bond_atom_site_label_2
_geom_bond_distance
_geom_bond_site_symmetry_2
Ca0 Pr2 3.748156 1_555
Ca0 Pr2 3.748156 1_556
Ca0 Pr1 3.748156 1_555
Ca0 Pr0 3.748156 1_555
Ca0 Pr0 3.748156 1_556
Ca0 Pr1 3.748156 1_556
Ca0 Pr4 3.770693 1_565
Ca0 Pr3 3.770693 1_455
Ca0 Pr5 3.770700 1_565
Ca0 Pr5 3.770700 1_455
Ca0 Pr3 3.770708 1_555
Ca0 Pr4 3.770708 1_555
Ca1 Pr5 3.748156 1_555
Ca1 Pr5 3.748156 1_554
Ca1 Pr3 3.748156 1_554
Ca1 Pr3 3.748156 1_555
Ca1 Pr4 3.748156 1_555
Ca1 Pr4 3.748156 1_554
Ca1 Pr0 3.770693 1_655
Ca1 Pr1 3.770693 1_545
Ca1 Pr2 3.770700 1_655
Ca1 Pr2 3.770700 1_545
Ca1 Pr1 3.770708 1_555
Ca1 Pr0 3.770708 1_555
Pr0 Pr5 3.721119 1_455
Pr0 Pr5 3.721119 1_454
Pr0 Pr4 3.721127 1_554
Pr0 Pr4 3.721127 1_555
Pr0 Pr2 3.730464 1_545
Pr0 Pr1 3.730464 1_445
Pr0 Pr2 3.810794 1_555
Pr0 Pr1 3.810794 1_555
Pr1 Pr5 3.721119 1_565
Pr1 Pr5 3.721119 1_564
Pr1 Pr3 3.721127 1_554
Pr1 Pr3 3.721127 1_555
Pr1 Pr2 3.730464 1_655
Pr1 Pr2 3.810794 1_555
Pr2 Pr3 3.721119 1_455
Pr2 Pr4 3.721119 1_564
Pr2 Pr3 3.721119 1_454
Pr2 Pr4 3.721119 1_565
Pr3 Pr5 3.730464 1_565
Pr3 Pr4 3.730464 1_665
Pr3 Pr5 3.810794 1_555
Pr3 Pr4 3.810794 1_555
Pr4 Pr5 3.730464 1_455
Pr4 Pr5 3.810794 1_555
