# generated using pymatgen
data_LiMg30BO31
_symmetry_space_group_name_H-M   'P 1'
_cell_length_a   8.40393600
_cell_length_b   8.54771300
_cell_length_c   8.61182600
_cell_angle_alpha   90.00000000
_cell_angle_beta   90.00000000
_cell_angle_gamma   90.00000000
_symmetry_Int_Tables_number   1
_chemical_formula_structural   LiMg30BO31
_chemical_formula_sum   'Li1 Mg30 B1 O31'
_cell_volume   618.62563779
_cell_formula_units_Z   1
loop_
 _symmetry_equiv_pos_site_id
 _symmetry_equiv_pos_as_xyz
  1  'x, y, z'
loop_
 _atom_site_type_symbol
 _atom_site_label
 _atom_site_symmetry_multiplicity
 _atom_site_fract_x
 _atom_site_fract_y
 _atom_site_fract_z
 _atom_site_occupancy
  Li  Li0  1  0.00000000  0.01364300  0.00000000  1
  Mg  Mg0  1  0.00000000  0.00170500  0.50000000  1
  Mg  Mg1  1  0.50000000  0.00243500  0.50000000  1
  Mg  Mg2  1  0.00000000  0.49346000  0.00000000  1
  Mg  Mg3  1  0.50000000  0.50389800  0.00000000  1
  Mg  Mg4  1  0.00000000  0.49845100  0.50000000  1
  Mg  Mg5  1  0.50000000  0.49806000  0.50000000  1
  Mg  Mg6  1  0.25571600  0.99984800  0.25309700  1
  Mg  Mg7  1  0.74428400  0.99984800  0.25309700  1
  Mg  Mg8  1  0.25571600  0.99984800  0.74690300  1
  Mg  Mg9  1  0.74428400  0.99984800  0.74690300  1
  Mg  Mg10  1  0.24973900  0.50032200  0.24964100  1
  Mg  Mg11  1  0.75026100  0.50032200  0.24964100  1
  Mg  Mg12  1  0.24973900  0.50032200  0.75035900  1
  Mg  Mg13  1  0.75026100  0.50032200  0.75035900  1
  Mg  Mg14  1  0.24313500  0.74936500  0.00000000  1
  Mg  Mg15  1  0.75686500  0.74936500  0.00000000  1
  Mg  Mg16  1  0.24829700  0.75018200  0.50000000  1
  Mg  Mg17  1  0.75170300  0.75018200  0.50000000  1
  Mg  Mg18  1  0.26128100  0.25163500  0.00000000  1
  Mg  Mg19  1  0.73871900  0.25163500  0.00000000  1
  Mg  Mg20  1  0.25027700  0.24976100  0.50000000  1
  Mg  Mg21  1  0.74972300  0.24976100  0.50000000  1
  Mg  Mg22  1  0.00000000  0.75525000  0.24994000  1
  Mg  Mg23  1  0.50000000  0.75207600  0.26134400  1
  Mg  Mg24  1  0.00000000  0.75525000  0.75006000  1
  Mg  Mg25  1  0.50000000  0.75207600  0.73865600  1
  Mg  Mg26  1  0.00000000  0.24538800  0.24569200  1
  Mg  Mg27  1  0.50000000  0.24537100  0.24305000  1
  Mg  Mg28  1  0.00000000  0.24538800  0.75430800  1
  Mg  Mg29  1  0.50000000  0.24537100  0.75695000  1
  B  B0  1  0.50000000  0.94093200  0.00000000  1
  O  O0  1  0.50000000  0.76815800  0.00000000  1
  O  O1  1  0.00000000  0.74982900  0.50000000  1
  O  O2  1  0.50000000  0.74597200  0.50000000  1
  O  O3  1  0.00000000  0.24754500  0.00000000  1
  O  O4  1  0.50000000  0.27541600  0.00000000  1
  O  O5  1  0.00000000  0.25028300  0.50000000  1
  O  O6  1  0.50000000  0.25349900  0.50000000  1
  O  O7  1  0.25054500  0.75209600  0.24832000  1
  O  O8  1  0.74945500  0.75209600  0.24832000  1
  O  O9  1  0.25054500  0.75209600  0.75168000  1
  O  O10  1  0.74945500  0.75209600  0.75168000  1
  O  O11  1  0.25093800  0.24772500  0.24635300  1
  O  O12  1  0.74906200  0.24772500  0.24635300  1
  O  O13  1  0.25093800  0.24772500  0.75364700  1
  O  O14  1  0.74906200  0.24772500  0.75364700  1
  O  O15  1  0.33754400  0.99556200  0.00000000  1
  O  O16  1  0.66245600  0.99556200  0.00000000  1
  O  O17  1  0.24661200  0.99997800  0.50000000  1
  O  O18  1  0.75338800  0.99997800  0.50000000  1
  O  O19  1  0.24997500  0.50584100  0.00000000  1
  O  O20  1  0.75002500  0.50584100  0.00000000  1
  O  O21  1  0.24939200  0.49992200  0.50000000  1
  O  O22  1  0.75060800  0.49992200  0.50000000  1
  O  O23  1  0.00000000  0.00067200  0.24657400  1
  O  O24  1  0.50000000  0.99621300  0.26875600  1
  O  O25  1  0.00000000  0.00067200  0.75342600  1
  O  O26  1  0.50000000  0.99621300  0.73124400  1
  O  O27  1  0.00000000  0.49941600  0.24962800  1
  O  O28  1  0.50000000  0.50674300  0.24903000  1
  O  O29  1  0.00000000  0.49941600  0.75037200  1
  O  O30  1  0.50000000  0.50674300  0.75097000  1
loop_
_geom_bond_atom_site_label_1
_geom_bond_atom_site_label_2
_geom_bond_distance
_geom_bond_site_symmetry_2
Li0 O3 1.999327 1_555
Li0 O25 2.126345 1_554
Li0 O23 2.126345 1_555
Mg0 O17 2.072564 1_545
Mg0 O18 2.072564 1_445
Mg0 O5 2.124773 1_555
Mg0 O1 2.152964 1_545
Mg0 O23 2.182478 1_555
Mg0 O25 2.182478 1_555
Mg1 O26 1.992143 1_545
Mg1 O24 1.992143 1_545
Mg1 O18 2.129560 1_545
Mg1 O17 2.129560 1_545
Mg1 O6 2.146023 1_555
Mg1 O2 2.192172 1_545
Mg2 O3 2.102011 1_555
Mg2 O20 2.103438 1_455
Mg2 O19 2.103438 1_555
Mg2 O29 2.150356 1_554
Mg2 O27 2.150356 1_555
Mg3 O4 1.952999 1_555
Mg3 O19 2.101260 1_555
Mg3 O20 2.101260 1_555
Mg3 O30 2.144741 1_554
Mg3 O28 2.144741 1_555
Mg3 O0 2.258819 1_555
Mg4 O22 2.095912 1_455
Mg4 O21 2.095912 1_555
Mg4 O5 2.121269 1_555
Mg4 O1 2.148707 1_555
Mg4 O29 2.156176 1_555
Mg4 O27 2.156176 1_555
Mg5 O6 2.090437 1_555
Mg5 O21 2.106154 1_555
Mg5 O22 2.106154 1_555
Mg5 O2 2.119081 1_555
Mg5 O30 2.162584 1_555
Mg5 O28 2.162584 1_555
Mg6 O24 2.057606 1_555
Mg6 O7 2.118558 1_555
Mg6 O11 2.119958 1_565
Mg6 O17 2.127662 1_555
Mg6 O23 2.149767 1_565
Mg6 O15 2.285830 1_555
Mg7 O24 2.057606 1_555
Mg7 O8 2.118558 1_555
Mg7 O12 2.119958 1_565
Mg7 O18 2.127662 1_555
Mg7 O23 2.149767 1_665
Mg7 O16 2.285830 1_555
Mg8 O26 2.057606 1_555
Mg8 O9 2.118558 1_555
Mg8 O13 2.119958 1_565
Mg8 O17 2.127662 1_555
Mg8 O25 2.149767 1_565
Mg8 O15 2.285830 1_556
Mg9 O26 2.057606 1_555
Mg9 O10 2.118558 1_555
Mg9 O14 2.119958 1_565
Mg9 O18 2.127662 1_555
Mg9 O25 2.149767 1_665
Mg9 O16 2.285830 1_556
Mg10 O27 2.098805 1_555
Mg10 O28 2.103900 1_555
Mg10 O19 2.150383 1_555
Mg10 O7 2.152133 1_555
Mg10 O21 2.156053 1_555
Mg10 O11 2.159336 1_555
Mg11 O27 2.098805 1_655
Mg11 O28 2.103900 1_555
Mg11 O20 2.150383 1_555
Mg11 O8 2.152133 1_555
Mg11 O22 2.156053 1_555
Mg11 O12 2.159336 1_555
Mg12 O29 2.098805 1_555
Mg12 O30 2.103900 1_555
Mg12 O19 2.150383 1_556
Mg12 O9 2.152133 1_555
Mg12 O21 2.156053 1_555
Mg12 O13 2.159336 1_555
Mg13 O29 2.098805 1_655
Mg13 O30 2.103900 1_555
Mg13 O20 2.150383 1_556
Mg13 O10 2.152133 1_555
Mg13 O22 2.156053 1_555
Mg13 O14 2.159336 1_555
Mg14 O19 2.082367 1_555
Mg14 O7 2.139522 1_555
Mg14 O9 2.139522 1_554
Mg14 O0 2.164646 1_555
Mg14 O15 2.249018 1_555
Mg15 O20 2.082367 1_555
Mg15 O10 2.139522 1_554
Mg15 O8 2.139522 1_555
Mg15 O0 2.164646 1_555
Mg15 O16 2.249018 1_555
Mg16 O1 2.086674 1_555
Mg16 O2 2.115602 1_555
Mg16 O17 2.135231 1_555
Mg16 O21 2.139170 1_555
Mg16 O9 2.167568 1_555
Mg16 O7 2.167568 1_555
Mg17 O1 2.086674 1_655
Mg17 O2 2.115602 1_555
Mg17 O18 2.135231 1_555
Mg17 O22 2.139170 1_555
Mg17 O10 2.167568 1_555
Mg17 O8 2.167568 1_555
Mg18 O4 2.016451 1_555
Mg18 O11 2.123592 1_555
Mg18 O13 2.123592 1_554
Mg18 O19 2.174956 1_555
Mg18 O3 2.196067 1_555
Mg18 O15 2.280741 1_545
Mg19 O4 2.016451 1_555
Mg19 O12 2.123592 1_555
Mg19 O14 2.123592 1_554
Mg19 O20 2.174956 1_555
Mg19 O3 2.196067 1_655
Mg19 O16 2.280741 1_545
Mg20 O6 2.098899 1_555
Mg20 O5 2.103317 1_555
Mg20 O17 2.135296 1_545
Mg20 O21 2.138317 1_555
Mg20 O13 2.184440 1_555
Mg20 O11 2.184440 1_555
Mg21 O6 2.098899 1_555
Mg21 O5 2.103317 1_655
Mg21 O18 2.135296 1_545
Mg21 O22 2.138317 1_555
Mg21 O12 2.184440 1_555
Mg21 O14 2.184440 1_555
Mg22 O23 2.097997 1_565
Mg22 O8 2.105783 1_455
Mg22 O7 2.105783 1_555
Mg22 O1 2.153972 1_555
Mg22 O27 2.186797 1_555
Mg23 O2 2.055926 1_555
Mg23 O24 2.087789 1_555
Mg23 O8 2.099402 1_555
Mg23 O7 2.099402 1_555
Mg23 O28 2.099716 1_555
Mg23 O0 2.254843 1_555
Mg24 O25 2.097997 1_565
Mg24 O9 2.105783 1_555
Mg24 O10 2.105783 1_455
Mg24 O1 2.153972 1_555
Mg24 O29 2.186797 1_555
Mg25 O2 2.055926 1_555
Mg25 O26 2.087789 1_555
Mg25 O9 2.099402 1_555
Mg25 O10 2.099402 1_555
Mg25 O30 2.099716 1_555
Mg25 O0 2.254843 1_556
Mg26 O23 2.091776 1_555
Mg26 O11 2.108969 1_555
Mg26 O12 2.108969 1_455
Mg26 O3 2.115937 1_555
Mg26 O27 2.171623 1_555
Mg26 O5 2.190456 1_555
Mg27 O12 2.093391 1_555
Mg27 O11 2.093391 1_555
Mg27 O4 2.108801 1_555
Mg27 O24 2.141206 1_545
Mg27 O6 2.213899 1_555
Mg27 O28 2.234726 1_555
Mg28 O25 2.091776 1_555
Mg28 O14 2.108969 1_455
Mg28 O13 2.108969 1_555
Mg28 O3 2.115937 1_556
Mg28 O29 2.171623 1_555
Mg28 O5 2.190456 1_555
Mg29 O13 2.093391 1_555
Mg29 O14 2.093391 1_555
Mg29 O4 2.108801 1_556
Mg29 O26 2.141206 1_545
Mg29 O6 2.213899 1_555
Mg29 O30 2.234726 1_555
B0 O15 1.442919 1_555
B0 O16 1.442919 1_555
B0 O0 1.476823 1_555
