# generated using pymatgen
data_Sr3MgMn2S2O5
_symmetry_space_group_name_H-M   'P 1'
_cell_length_a   14.13220608
_cell_length_b   14.13220608
_cell_length_c   14.13220608
_cell_angle_alpha   163.99966382
_cell_angle_beta   163.99966382
_cell_angle_gamma   22.70266226
_symmetry_Int_Tables_number   1
_chemical_formula_structural   Sr3MgMn2S2O5
_chemical_formula_sum   'Sr3 Mg1 Mn2 S2 O5'
_cell_volume   214.40705373
_cell_formula_units_Z   1
loop_
 _symmetry_equiv_pos_site_id
 _symmetry_equiv_pos_as_xyz
  1  'x, y, z'
loop_
 _atom_site_type_symbol
 _atom_site_label
 _atom_site_symmetry_multiplicity
 _atom_site_fract_x
 _atom_site_fract_y
 _atom_site_fract_z
 _atom_site_occupancy
  Sr  Sr0  1  0.50000000  0.50000000  0.00000000  1
  Sr  Sr1  1  0.63818500  0.63818500  0.00000000  1
  Sr  Sr2  1  0.36181500  0.36181500  0.00000000  1
  Mg  Mg0  1  0.75000000  0.25000000  0.50000000  1
  Mn  Mn0  1  0.07175700  0.07175700  0.00000000  1
  Mn  Mn1  1  0.92824300  0.92824300  0.00000000  1
  S  S0  1  0.19391900  0.19391900  0.00000000  1
  S  S1  1  0.80608100  0.80608100  0.00000000  1
  O  O0  1  0.07952000  0.57952000  0.50000000  1
  O  O1  1  0.58030000  0.08030000  0.50000000  1
  O  O2  1  0.91970000  0.41970000  0.50000000  1
  O  O3  1  0.42048000  0.92048000  0.50000000  1
  O  O4  1  0.00000000  0.00000000  0.00000000  1
loop_
_geom_bond_atom_site_label_1
_geom_bond_atom_site_label_2
_geom_bond_distance
_geom_bond_site_symmetry_2
Mg0 S0 2.506741 1_656
Mg0 S0 2.506741 1_555
Mg0 S1 2.506741 1_556
Mg0 S1 2.506741 1_545
Mn0 O0 1.978594 1_544
Mn0 O0 1.978594 1_555
Mn0 O1 1.981060 1_454
Mn0 O1 1.981060 1_555
Mn0 O4 1.988496 1_555
Mn1 O3 1.978594 1_554
Mn1 O3 1.978594 1_655
Mn1 O2 1.981060 1_554
Mn1 O2 1.981060 1_565
Mn1 O4 1.988496 1_665
S0 Sr1 3.181589 1_545
S0 Sr1 3.181589 1_444
S0 Sr1 3.181589 1_455
S0 Sr1 3.181589 1_556
S1 Sr2 3.181589 1_565
S1 Sr2 3.181589 1_666
S1 Sr2 3.181589 1_655
S1 Sr2 3.181589 1_554
O0 Sr1 2.551753 1_556
O0 Sr1 2.551753 1_455
O0 Sr0 2.953726 1_556
O0 Sr0 2.953726 1_455
O1 Sr1 2.538037 1_556
O1 Sr1 2.538037 1_545
O1 Sr0 2.969887 1_556
O1 Sr0 2.969887 1_545
O2 Sr2 2.538037 1_555
O2 Sr2 2.538037 1_656
O2 Sr0 2.969887 1_555
O2 Sr0 2.969887 1_656
O3 Sr2 2.551753 1_555
O3 Sr2 2.551753 1_566
O3 Sr0 2.953726 1_555
O3 Sr0 2.953726 1_566
O4 Sr0 2.781566 1_455
O4 Sr0 2.781566 1_556
O4 Sr0 2.781566 1_444
O4 Sr0 2.781566 1_545
