# generated using pymatgen
data_KNa7V7CrO20
_symmetry_space_group_name_H-M   'P 1'
_cell_length_a   10.87618200
_cell_length_b   11.18019255
_cell_length_c   16.53404295
_cell_angle_alpha   109.77621167
_cell_angle_beta   108.77460928
_cell_angle_gamma   90.00617154
_symmetry_Int_Tables_number   1
_chemical_formula_structural   KNa7V7CrO20
_chemical_formula_sum   'K4 Na28 V28 Cr4 O80'
_cell_volume   1777.80429024
_cell_formula_units_Z   4
loop_
 _symmetry_equiv_pos_site_id
 _symmetry_equiv_pos_as_xyz
  1  'x, y, z'
loop_
 _atom_site_type_symbol
 _atom_site_label
 _atom_site_symmetry_multiplicity
 _atom_site_fract_x
 _atom_site_fract_y
 _atom_site_fract_z
 _atom_site_occupancy
  K  K0  1  0.30555444  0.06330391  0.11173153  1
  K  K1  1  0.80450680  0.06382038  0.11213012  1
  K  K2  1  0.05659731  0.79568294  0.11274406  1
  K  K3  1  0.55550975  0.79714536  0.11360481  1
  Na  Na0  1  0.30402859  0.06754054  0.60751058  1
  Na  Na1  1  0.30118271  0.56600092  0.10442072  1
  Na  Na2  1  0.30377823  0.56757320  0.60763566  1
  Na  Na3  1  0.80422984  0.06769899  0.60763714  1
  Na  Na4  1  0.80313030  0.56497601  0.10443686  1
  Na  Na5  1  0.80423742  0.56746012  0.60777413  1
  Na  Na6  1  0.19775370  0.43439487  0.39399929  1
  Na  Na7  1  0.19613430  0.43338216  0.89278355  1
  Na  Na8  1  0.19776478  0.93324349  0.39508706  1
  Na  Na9  1  0.19821753  0.93311001  0.89337428  1
  Na  Na10  1  0.69796384  0.43437177  0.39414346  1
  Na  Na11  1  0.69949153  0.43439257  0.89388622  1
  Na  Na12  1  0.69779367  0.93331083  0.39513857  1
  Na  Na13  1  0.69687858  0.93327270  0.89254738  1
  Na  Na14  1  0.05374624  0.29067287  0.10510208  1
  Na  Na15  1  0.05412769  0.28996531  0.60769938  1
  Na  Na16  1  0.05429061  0.79020272  0.60783145  1
  Na  Na17  1  0.55303612  0.29015169  0.10463820  1
  Na  Na18  1  0.55433273  0.28972350  0.60746217  1
  Na  Na19  1  0.55409790  0.79025721  0.60758969  1
  Na  Na20  1  0.44790883  0.21186450  0.39515963  1
  Na  Na21  1  0.44804507  0.21027666  0.89335307  1
  Na  Na22  1  0.44774636  0.70942126  0.39376615  1
  Na  Na23  1  0.44547058  0.71038063  0.89270789  1
  Na  Na24  1  0.94785139  0.21197072  0.39522966  1
  Na  Na25  1  0.94924410  0.21162540  0.89319732  1
  Na  Na26  1  0.94789597  0.70950614  0.39393890  1
  Na  Na27  1  0.95054976  0.70910334  0.89343277  1
  V  V0  1  0.00594200  0.99889995  0.50032804  1
  V  V1  1  0.00572541  0.49973589  0.50021934  1
  V  V2  1  0.50584884  0.99876536  0.50004669  1
  V  V3  1  0.50196427  0.49716506  0.99662328  1
  V  V4  1  0.50540319  0.49933496  0.49958061  1
  V  V5  1  0.25363120  0.25001295  0.99711527  1
  V  V6  1  0.25596860  0.25141885  0.50041701  1
  V  V7  1  0.25563801  0.75047341  0.49997744  1
  V  V8  1  0.75590275  0.24915112  0.99644465  1
  V  V9  1  0.75613317  0.25146840  0.50061729  1
  V  V10  1  0.75035510  0.74496044  0.99087213  1
  V  V11  1  0.75560725  0.75037389  0.49988521  1
  V  V12  1  0.11053840  0.09592190  0.25416546  1
  V  V13  1  0.10404110  0.08983909  0.74995018  1
  V  V14  1  0.10405105  0.58652066  0.25022643  1
  V  V15  1  0.10332695  0.58757258  0.74912243  1
  V  V16  1  0.61081956  0.09608850  0.25441672  1
  V  V17  1  0.60363051  0.09050524  0.74998464  1
  V  V18  1  0.60415263  0.58652365  0.25044798  1
  V  V19  1  0.60216248  0.58638171  0.74788912  1
  V  V20  1  0.35386583  0.41314378  0.25042360  1
  V  V21  1  0.35432423  0.40918040  0.74999663  1
  V  V22  1  0.36087233  0.90932872  0.25475720  1
  V  V23  1  0.35402884  0.91123438  0.74952487  1
  V  V24  1  0.85365451  0.41335635  0.25034794  1
  V  V25  1  0.85460392  0.40984140  0.75051490  1
  V  V26  1  0.86122482  0.90928393  0.25492189  1
  V  V27  1  0.85341691  0.91132915  0.74938918  1
  Cr  Cr0  1  0.00159533  0.99863213  0.99513586  1
  Cr  Cr1  1  0.00608725  0.49852880  0.99771984  1
  Cr  Cr2  1  0.50092308  0.99763462  0.99523677  1
  Cr  Cr3  1  0.24591700  0.75197317  0.99362401  1
  O  O0  1  0.13407148  0.12904060  0.48989683  1
  O  O1  1  0.12631395  0.12821691  0.98689407  1
  O  O2  1  0.13347597  0.62856639  0.48975963  1
  O  O3  1  0.13075506  0.61658802  0.98316043  1
  O  O4  1  0.63408131  0.12902536  0.48992390  1
  O  O5  1  0.62712885  0.13240254  0.98791472  1
  O  O6  1  0.63339123  0.62849789  0.48962707  1
  O  O7  1  0.62995271  0.62159659  0.98574039  1
  O  O8  1  0.13958195  0.37244327  0.00786291  1
  O  O9  1  0.13009871  0.38797375  0.51106365  1
  O  O10  1  0.13132336  0.87255905  0.00326503  1
  O  O11  1  0.13145994  0.88801616  0.51250497  1
  O  O12  1  0.63374195  0.37992418  0.00690088  1
  O  O13  1  0.63014685  0.38801314  0.51116213  1
  O  O14  1  0.63450497  0.86668836  0.00033068  1
  O  O15  1  0.63140868  0.88807166  0.51248917  1
  O  O16  1  0.38415263  0.11094159  0.48995670  1
  O  O17  1  0.36916258  0.12544406  0.98615455  1
  O  O18  1  0.38338267  0.61118752  0.48959064  1
  O  O19  1  0.38129578  0.60590495  0.98696500  1
  O  O20  1  0.88415819  0.11101437  0.49005308  1
  O  O21  1  0.86836655  0.12702115  0.98626382  1
  O  O22  1  0.88341301  0.61115472  0.48962343  1
  O  O23  1  0.86795943  0.62137507  0.98590440  1
  O  O24  1  0.38102082  0.37288708  0.00773792  1
  O  O25  1  0.38127085  0.37440805  0.51225277  1
  O  O26  1  0.37894822  0.87023132  0.00202090  1
  O  O27  1  0.38017088  0.87316844  0.51114246  1
  O  O28  1  0.87766163  0.37492627  0.00768338  1
  O  O29  1  0.88138706  0.37447914  0.51246952  1
  O  O30  1  0.87465116  0.86998507  0.00100252  1
  O  O31  1  0.88019444  0.87317108  0.51124369  1
  O  O32  1  0.07288685  0.09510553  0.14007927  1
  O  O33  1  0.08359459  0.09991776  0.64197441  1
  O  O34  1  0.08129847  0.58350746  0.13853209  1
  O  O35  1  0.08291422  0.59959638  0.64128757  1
  O  O36  1  0.57475356  0.09439583  0.14029429  1
  O  O37  1  0.58362236  0.10011292  0.64214351  1
  O  O38  1  0.58312531  0.58387659  0.13901632  1
  O  O39  1  0.58279992  0.59943595  0.64096460  1
  O  O40  1  0.44171527  0.40062941  0.35806115  1
  O  O41  1  0.44255650  0.39800077  0.85761406  1
  O  O42  1  0.44575327  0.89515526  0.36176263  1
  O  O43  1  0.44379323  0.90291033  0.85757457  1
  O  O44  1  0.94142656  0.40042590  0.35765605  1
  O  O45  1  0.94088392  0.39946835  0.85859006  1
  O  O46  1  0.94596675  0.89530418  0.36192871  1
  O  O47  1  0.93960392  0.90279939  0.85786472  1
  O  O48  1  0.33108229  0.30225396  0.13908322  1
  O  O49  1  0.33343515  0.29168629  0.64151821  1
  O  O50  1  0.32526905  0.79620023  0.14208003  1
  O  O51  1  0.33327546  0.79176093  0.64163075  1
  O  O52  1  0.82918161  0.30352022  0.13789567  1
  O  O53  1  0.83361372  0.29180173  0.64209349  1
  O  O54  1  0.82539201  0.79709996  0.14187987  1
  O  O55  1  0.83313003  0.79173734  0.64166097  1
  O  O56  1  0.19549989  0.21626974  0.36123687  1
  O  O57  1  0.19115618  0.20913112  0.85818546  1
  O  O58  1  0.19142023  0.70726707  0.35787797  1
  O  O59  1  0.19097217  0.70654050  0.85619529  1
  O  O60  1  0.69559660  0.21653370  0.36149880  1
  O  O61  1  0.69058272  0.20973040  0.85914854  1
  O  O62  1  0.69155535  0.70735665  0.35801988  1
  O  O63  1  0.69059766  0.70516253  0.85611364  1
  O  O64  1  0.44920702  0.05869079  0.26308011  1
  O  O65  1  0.43285896  0.06057017  0.74949744  1
  O  O66  1  0.43268758  0.56292857  0.25140972  1
  O  O67  1  0.43255313  0.55897082  0.74975439  1
  O  O68  1  0.94905970  0.05875576  0.26310820  1
  O  O69  1  0.93289555  0.06042949  0.74970713  1
  O  O70  1  0.93278512  0.56295339  0.25173060  1
  O  O71  1  0.93257865  0.55894545  0.74966591  1
  O  O72  1  0.18294814  0.43786915  0.25201073  1
  O  O73  1  0.18308317  0.43888317  0.74963142  1
  O  O74  1  0.19882973  0.95552665  0.26318956  1
  O  O75  1  0.18324107  0.94092730  0.75024682  1
  O  O76  1  0.68311505  0.43793108  0.25234018  1
  O  O77  1  0.68264193  0.43918145  0.74943310  1
  O  O78  1  0.69943517  0.95587546  0.26357668  1
  O  O79  1  0.68253916  0.94155995  0.74997772  1
loop_
_geom_bond_atom_site_label_1
_geom_bond_atom_site_label_2
_geom_bond_distance
_geom_bond_site_symmetry_2
K0 O64 2.505282 1_555
K0 O48 2.553434 1_555
K0 O10 2.564868 1_545
K0 O26 2.621053 1_545
K0 O1 2.647891 1_554
K0 O17 2.678226 1_554
K0 O32 2.720403 1_555
K0 O36 2.813339 1_555
K1 O68 2.505155 1_555
K1 O52 2.566908 1_555
K1 O14 2.595256 1_545
K1 O30 2.619652 1_545
K1 O5 2.653919 1_554
K1 O36 2.686890 1_555
K1 O21 2.690341 1_554
K1 O32 2.806830 1_655
K2 O74 2.507706 1_555
K2 O34 2.547935 1_555
K2 O10 2.583689 1_555
K2 O30 2.589401 1_455
K2 O23 2.620907 1_454
K2 O54 2.707450 1_455
K2 O3 2.731286 1_554
K2 O50 2.803544 1_555
K3 O78 2.504281 1_555
K3 O26 2.549319 1_555
K3 O38 2.559078 1_555
K3 O14 2.621330 1_555
K3 O19 2.638523 1_554
K3 O50 2.693464 1_555
K3 O7 2.696560 1_554
K3 O54 2.819810 1_555
Na0 O65 2.342462 1_555
Na0 O49 2.372553 1_555
Na0 O11 2.446759 1_545
Na0 O0 2.502499 1_555
Na0 O27 2.540412 1_545
Na0 O16 2.549703 1_555
Na0 O33 2.635077 1_555
Na0 O37 2.906107 1_555
Na1 O66 2.402569 1_555
Na1 O50 2.427048 1_555
Na1 O3 2.480082 1_554
Na1 O8 2.485158 1_555
Na1 O19 2.530828 1_554
Na1 O24 2.555243 1_555
Na1 O34 2.620934 1_555
Na1 O38 2.926390 1_555
Na2 O67 2.350944 1_555
Na2 O51 2.373103 1_555
Na2 O9 2.457182 1_555
Na2 O2 2.504035 1_555
Na2 O25 2.532333 1_555
Na2 O18 2.555071 1_555
Na2 O35 2.633220 1_555
Na2 O39 2.903515 1_555
Na3 O69 2.344346 1_555
Na3 O53 2.370866 1_555
Na3 O15 2.449270 1_545
Na3 O4 2.503513 1_555
Na3 O31 2.540699 1_545
Na3 O20 2.548492 1_555
Na3 O37 2.637277 1_555
Na3 O33 2.904321 1_655
Na4 O70 2.397229 1_555
Na4 O54 2.448076 1_555
Na4 O12 2.470659 1_555
Na4 O7 2.502286 1_554
Na4 O28 2.503180 1_555
Na4 O23 2.541906 1_554
Na4 O38 2.626036 1_555
Na4 O34 2.887354 1_655
Na5 O71 2.346197 1_555
Na5 O55 2.373994 1_555
Na5 O13 2.458752 1_555
Na5 O6 2.510031 1_555
Na5 O29 2.528451 1_555
Na5 O22 2.554390 1_555
Na5 O39 2.635809 1_555
Na5 O35 2.899431 1_655
Na6 O56 2.310565 1_555
Na6 O72 2.314572 1_555
Na6 O2 2.468847 1_555
Na6 O9 2.480644 1_555
Na6 O18 2.512394 1_555
Na6 O25 2.575289 1_555
Na6 O44 2.654147 1_455
Na6 O40 2.898147 1_555
Na7 O73 2.346980 1_555
Na7 O3 2.355224 1_555
Na7 O57 2.371830 1_555
Na7 O8 2.468467 1_556
Na7 O19 2.479704 1_555
Na7 O24 2.554120 1_556
Na7 O45 2.648552 1_455
Na7 O41 2.919842 1_555
Na8 O74 2.280788 1_555
Na8 O58 2.384762 1_555
Na8 O0 2.471112 1_565
Na8 O11 2.471868 1_555
Na8 O16 2.521992 1_565
Na8 O27 2.547735 1_555
Na8 O46 2.618466 1_455
Na8 O42 2.925356 1_555
Na9 O75 2.350791 1_555
Na9 O59 2.390754 1_555
Na9 O10 2.443775 1_556
Na9 O26 2.483325 1_556
Na9 O1 2.501405 1_565
Na9 O17 2.522889 1_565
Na9 O47 2.678274 1_455
Na9 O43 2.912184 1_555
Na10 O60 2.307599 1_555
Na10 O76 2.311738 1_555
Na10 O6 2.468095 1_555
Na10 O13 2.480564 1_555
Na10 O22 2.510965 1_555
Na10 O29 2.574920 1_555
Na10 O40 2.653837 1_555
Na10 O44 2.897095 1_555
Na11 O77 2.354925 1_555
Na11 O61 2.374055 1_555
Na11 O7 2.418226 1_555
Na11 O12 2.450284 1_556
Na11 O23 2.468748 1_555
Na11 O28 2.497421 1_556
Na11 O41 2.662733 1_555
Na11 O45 2.866736 1_555
Na12 O78 2.278600 1_555
Na12 O62 2.384747 1_555
Na12 O4 2.470421 1_565
Na12 O15 2.471349 1_555
Na12 O20 2.521946 1_565
Na12 O31 2.548565 1_555
Na12 O42 2.620612 1_555
Na12 O46 2.926429 1_555
Na13 O79 2.345358 1_555
Na13 O63 2.409466 1_555
Na13 O14 2.421992 1_556
Na13 O30 2.466115 1_556
Na13 O5 2.532409 1_565
Na13 O21 2.537602 1_565
Na13 O43 2.620847 1_555
Na13 O47 2.873423 1_555
Na14 O72 2.383348 1_555
Na14 O32 2.436544 1_555
Na14 O28 2.488159 1_455
Na14 O8 2.500558 1_555
Na14 O21 2.507973 1_454
Na14 O1 2.516509 1_554
Na14 O52 2.660786 1_455
Na14 O48 2.879349 1_555
Na15 O73 2.341607 1_555
Na15 O33 2.374145 1_555
Na15 O29 2.450444 1_455
Na15 O20 2.500993 1_455
Na15 O9 2.543748 1_555
Na15 O0 2.550655 1_555
Na15 O53 2.635512 1_455
Na15 O49 2.905266 1_555
Na16 O75 2.353696 1_555
Na16 O35 2.372998 1_555
Na16 O31 2.460185 1_455
Na16 O22 2.508914 1_455
Na16 O11 2.530259 1_555
Na16 O2 2.552217 1_555
Na16 O55 2.637911 1_455
Na16 O51 2.901969 1_555
Na17 O76 2.395912 1_555
Na17 O36 2.444761 1_555
Na17 O24 2.448771 1_555
Na17 O5 2.486477 1_554
Na17 O17 2.502868 1_554
Na17 O12 2.529762 1_555
Na17 O48 2.646315 1_555
Na17 O52 2.868169 1_555
Na18 O77 2.342294 1_555
Na18 O37 2.372623 1_555
Na18 O25 2.453375 1_555
Na18 O16 2.500474 1_555
Na18 O13 2.540000 1_555
Na18 O4 2.545504 1_555
Na18 O49 2.636685 1_555
Na18 O53 2.902810 1_555
Na19 O79 2.354378 1_555
Na19 O39 2.374730 1_555
Na19 O27 2.457544 1_555
Na19 O18 2.507245 1_555
Na19 O15 2.527814 1_555
Na19 O6 2.552377 1_555
Na19 O51 2.636092 1_555
Na19 O55 2.901874 1_555
Na20 O64 2.278391 1_555
Na20 O40 2.384137 1_555
Na20 O25 2.469540 1_555
Na20 O16 2.471204 1_555
Na20 O4 2.520505 1_555
Na20 O13 2.545928 1_555
Na20 O56 2.623162 1_555
Na20 O60 2.924767 1_555
Na21 O65 2.353543 1_555
Na21 O41 2.360979 1_555
Na21 O17 2.412863 1_555
Na21 O5 2.440805 1_555
Na21 O24 2.444260 1_556
Na21 O12 2.519923 1_556
Na21 O57 2.663410 1_555
Na21 O61 2.869886 1_555
Na22 O42 2.308391 1_555
Na22 O66 2.322167 1_555
Na22 O18 2.469354 1_555
Na22 O27 2.484402 1_555
Na22 O6 2.513618 1_555
Na22 O15 2.579697 1_555
Na22 O58 2.655235 1_555
Na22 O62 2.895000 1_555
Na23 O67 2.355965 1_555
Na23 O26 2.374928 1_556
Na23 O43 2.410483 1_555
Na23 O14 2.446909 1_556
Na23 O19 2.492416 1_555
Na23 O7 2.534609 1_555
Na23 O59 2.633395 1_555
Na23 O63 2.914066 1_555
Na24 O68 2.278771 1_555
Na24 O44 2.384946 1_555
Na24 O29 2.469853 1_555
Na24 O20 2.471506 1_555
Na24 O0 2.520623 1_655
Na24 O9 2.544467 1_655
Na24 O60 2.622055 1_555
Na24 O56 2.926717 1_655
Na25 O45 2.350725 1_555
Na25 O69 2.352075 1_555
Na25 O21 2.427407 1_555
Na25 O1 2.456822 1_655
Na25 O28 2.476463 1_556
Na25 O8 2.505750 1_656
Na25 O61 2.684065 1_555
Na25 O57 2.868444 1_655
Na26 O46 2.309194 1_555
Na26 O70 2.320424 1_555
Na26 O22 2.468818 1_555
Na26 O31 2.483977 1_555
Na26 O2 2.512971 1_655
Na26 O11 2.577672 1_655
Na26 O62 2.655333 1_555
Na26 O58 2.894427 1_655
Na27 O71 2.346779 1_555
Na27 O30 2.420862 1_556
Na27 O47 2.422074 1_555
Na27 O10 2.440965 1_656
Na27 O23 2.450539 1_555
Na27 O3 2.505866 1_655
Na27 O63 2.689768 1_555
Na27 O59 2.870865 1_655
Cr0 O10 2.000535 1_556
Cr0 O47 2.030543 1_455
Cr0 O30 2.040721 1_456
Cr0 O21 2.046388 1_465
Cr0 O1 2.051753 1_565
Cr0 O32 2.135966 1_566
Cr1 O3 2.015781 1_555
Cr1 O8 2.031502 1_556
Cr1 O23 2.043166 1_455
Cr1 O28 2.046834 1_456
Cr1 O45 2.060818 1_455
Cr1 O34 2.066249 1_556
Cr2 O26 2.001224 1_556
Cr2 O17 2.031050 1_565
Cr2 O43 2.036337 1_555
Cr2 O14 2.065512 1_556
Cr2 O5 2.097375 1_565
Cr2 O36 2.138166 1_566
Cr3 O10 1.838252 1_556
Cr3 O3 1.890166 1_555
Cr3 O26 1.899174 1_556
Cr3 O59 2.030543 1_555
Cr3 O50 2.197565 1_556
Cr3 O19 2.197775 1_555
O0 V6 1.830318 1_555
O0 V0 2.100680 1_545
O1 V5 1.869090 1_555
O2 V7 1.830518 1_555
O2 V1 2.087549 1_555
O4 V9 1.830886 1_555
O4 V2 2.099716 1_545
O5 V8 1.852864 1_555
O6 V11 1.830417 1_555
O6 V4 2.087578 1_555
O7 V10 1.863657 1_555
O7 V3 2.058074 1_555
O8 V5 1.849723 1_554
O9 V1 1.849086 1_555
O9 V6 2.051745 1_555
O11 V0 1.852941 1_555
O11 V7 2.048572 1_555
O12 V3 1.948215 1_554
O12 V8 1.977385 1_554
O13 V4 1.849549 1_555
O13 V9 2.052462 1_555
O14 V10 1.856723 1_554
O15 V2 1.852195 1_555
O15 V11 2.050043 1_555
O16 V2 1.830963 1_545
O16 V6 2.100502 1_555
O17 V5 1.878171 1_555
O18 V4 1.830680 1_555
O18 V7 2.087569 1_555
O19 V3 1.795201 1_555
O20 V0 1.831407 1_645
O20 V9 2.099196 1_555
O21 V8 1.834741 1_555
O22 V1 1.830332 1_655
O22 V11 2.087403 1_555
O23 V10 1.882322 1_555
O24 V5 1.875467 1_554
O24 V3 2.005649 1_554
O25 V6 1.852601 1_555
O25 V4 2.048689 1_555
O27 V7 1.848674 1_555
O27 V2 2.051624 1_555
O28 V8 1.852019 1_554
O29 V9 1.852298 1_555
O29 V1 2.049088 1_655
O30 V10 1.872124 1_554
O31 V11 1.848661 1_555
O31 V0 2.051612 1_655
O32 V12 1.793615 1_555
O33 V13 1.769164 1_555
O33 V0 2.100107 1_545
O34 V14 1.771051 1_555
O35 V15 1.775854 1_555
O35 V1 2.090147 1_555
O36 V16 1.792774 1_555
O37 V17 1.765789 1_555
O37 V2 2.106742 1_545
O38 V18 1.771878 1_555
O38 V3 2.092726 1_554
O39 V19 1.768067 1_555
O39 V4 2.094871 1_555
O40 V20 1.781499 1_555
O40 V4 2.093298 1_555
O41 V21 1.775953 1_555
O41 V3 2.061266 1_555
O42 V22 1.773682 1_555
O42 V2 2.059688 1_555
O43 V23 1.772913 1_555
O44 V24 1.778617 1_555
O44 V1 2.108489 1_655
O45 V25 1.774263 1_555
O46 V26 1.772477 1_555
O46 V0 2.061269 1_655
O47 V27 1.771477 1_555
O48 V20 1.774612 1_555
O48 V5 2.088048 1_554
O49 V21 1.771280 1_555
O49 V6 2.092665 1_555
O50 V22 1.778054 1_555
O51 V23 1.773643 1_555
O51 V7 2.099249 1_555
O52 V24 1.781044 1_555
O52 V8 2.076664 1_554
O53 V25 1.772829 1_555
O53 V9 2.098211 1_555
O54 V26 1.778487 1_555
O54 V10 2.223307 1_554
O55 V27 1.773247 1_555
O55 V11 2.100908 1_555
O56 V12 1.770078 1_555
O56 V6 2.072761 1_555
O57 V13 1.781077 1_555
O57 V5 2.057162 1_555
O58 V14 1.782837 1_555
O58 V7 2.101632 1_555
O59 V15 1.769734 1_555
O60 V16 1.770239 1_555
O60 V9 2.072217 1_555
O61 V17 1.789365 1_555
O61 V8 2.033947 1_555
O62 V18 1.782569 1_555
O62 V11 2.098384 1_555
O63 V19 1.781698 1_555
O63 V10 1.995435 1_555
O64 V16 1.867453 1_555
O64 V22 1.868039 1_545
O65 V23 1.876996 1_545
O65 V17 1.884199 1_555
O66 V20 1.873972 1_555
O66 V18 1.889301 1_555
O67 V21 1.880141 1_555
O67 V19 1.881672 1_555
O68 V26 1.867338 1_545
O68 V12 1.867508 1_655
O69 V27 1.875335 1_545
O69 V13 1.888686 1_655
O70 V24 1.870751 1_555
O70 V14 1.890480 1_655
O71 V25 1.876576 1_555
O71 V15 1.887819 1_655
O72 V14 1.875228 1_555
O72 V20 1.886620 1_555
O73 V15 1.876460 1_555
O73 V21 1.890313 1_555
O74 V12 1.864069 1_565
O74 V22 1.871340 1_555
O75 V13 1.875341 1_565
O75 V23 1.890092 1_555
O76 V18 1.875263 1_555
O76 V24 1.884207 1_555
O77 V19 1.868045 1_555
O77 V25 1.894327 1_555
O78 V16 1.864476 1_565
O78 V26 1.870839 1_555
O79 V17 1.873448 1_565
O79 V27 1.891532 1_555
