# generated using pymatgen
data_Mg6TiV
_symmetry_space_group_name_H-M   'P 1'
_cell_length_a   5.01673900
_cell_length_b   6.09040500
_cell_length_c   10.87131900
_cell_angle_alpha   90.00000000
_cell_angle_beta   90.00000000
_cell_angle_gamma   90.00000000
_symmetry_Int_Tables_number   1
_chemical_formula_structural   Mg6TiV
_chemical_formula_sum   'Mg12 Ti2 V2'
_cell_volume   332.16197947
_cell_formula_units_Z   2
loop_
 _symmetry_equiv_pos_site_id
 _symmetry_equiv_pos_as_xyz
  1  'x, y, z'
loop_
 _atom_site_type_symbol
 _atom_site_label
 _atom_site_symmetry_multiplicity
 _atom_site_fract_x
 _atom_site_fract_y
 _atom_site_fract_z
 _atom_site_occupancy
  Mg  Mg0  1  0.00000000  0.25158400  0.41865700  1
  Mg  Mg1  1  0.00000000  0.74841600  0.41865700  1
  Mg  Mg2  1  0.50000000  0.75155600  0.08786600  1
  Mg  Mg3  1  0.50000000  0.24844400  0.08786600  1
  Mg  Mg4  1  0.50000000  0.00000000  0.32501700  1
  Mg  Mg5  1  0.50000000  0.50000000  0.32660000  1
  Mg  Mg6  1  0.00000000  0.75158400  0.91865700  1
  Mg  Mg7  1  0.00000000  0.24841600  0.91865700  1
  Mg  Mg8  1  0.50000000  0.25155600  0.58786600  1
  Mg  Mg9  1  0.50000000  0.74844400  0.58786600  1
  Mg  Mg10  1  0.50000000  0.50000000  0.82501700  1
  Mg  Mg11  1  0.50000000  0.00000000  0.82660000  1
  Ti  Ti0  1  0.00000000  0.50000000  0.16843600  1
  Ti  Ti1  1  0.00000000  0.00000000  0.66843600  1
  V  V0  1  0.00000000  0.00000000  0.16689700  1
  V  V1  1  0.00000000  0.50000000  0.66689700  1
loop_
_geom_bond_atom_site_label_1
_geom_bond_atom_site_label_2
_geom_bond_distance
_geom_bond_site_symmetry_2
Mg0 Mg1 3.025908 1_555
Mg0 Mg1 3.064497 1_545
Mg0 V1 3.093863 1_555
Mg0 Mg5 3.095563 1_555
Mg0 Mg5 3.095563 1_455
Mg0 Mg8 3.110590 1_455
Mg0 Mg8 3.110590 1_555
Mg0 Mg4 3.110628 1_455
Mg0 Mg4 3.110628 1_555
Mg0 Ti0 3.112667 1_555
Mg0 Ti1 3.117905 1_555
Mg0 V0 3.136679 1_555
Mg1 V1 3.093863 1_555
Mg1 Mg5 3.095563 1_455
Mg1 Mg5 3.095563 1_555
Mg1 Mg9 3.110590 1_455
Mg1 Mg9 3.110590 1_555
Mg1 Mg4 3.110628 1_465
Mg1 Mg4 3.110628 1_565
Mg1 Ti0 3.112667 1_555
Mg1 Ti1 3.117905 1_565
Mg1 V0 3.136679 1_565
Mg2 Mg4 2.989377 1_565
Mg2 Mg5 3.013822 1_555
Mg2 Mg3 3.026249 1_565
Mg2 V0 3.052808 1_665
Mg2 V0 3.052808 1_565
Mg2 Mg3 3.064156 1_555
Mg2 Ti0 3.066983 1_555
Mg2 Ti0 3.066983 1_655
Mg2 Mg6 3.110590 1_654
Mg2 Mg6 3.110590 1_554
Mg3 Mg4 2.989377 1_555
Mg3 Mg5 3.013822 1_555
Mg3 V0 3.052808 1_655
Mg3 V0 3.052808 1_555
Mg3 Ti0 3.066983 1_555
Mg3 Ti0 3.066983 1_655
Mg3 Mg7 3.110590 1_654
Mg3 Mg7 3.110590 1_554
Mg4 V0 3.040853 1_655
Mg4 V0 3.040853 1_555
Mg4 Mg5 3.045251 1_545
Mg4 Mg5 3.045251 1_555
Mg4 Mg8 3.242323 1_555
Mg4 Mg9 3.242323 1_545
Mg5 Ti0 3.041123 1_655
Mg5 Ti0 3.041123 1_555
Mg5 Mg8 3.218211 1_555
Mg5 Mg9 3.218211 1_555
Mg6 Mg7 3.025908 1_565
Mg6 Mg7 3.064497 1_555
Mg6 V0 3.093863 1_566
Mg6 Ti1 3.112667 1_565
Mg6 Ti0 3.117905 1_556
Mg6 V1 3.136679 1_555
Mg7 V0 3.093863 1_556
Mg7 Ti1 3.112667 1_555
Mg7 Ti0 3.117905 1_556
Mg7 V1 3.136679 1_555
Mg8 Mg9 3.026249 1_555
Mg8 V1 3.052808 1_555
Mg8 V1 3.052808 1_655
Mg8 Mg9 3.064156 1_545
Mg8 Ti1 3.066983 1_555
Mg8 Ti1 3.066983 1_655
Mg9 V1 3.052808 1_555
Mg9 V1 3.052808 1_655
Mg9 Ti1 3.066983 1_565
Mg9 Ti1 3.066983 1_665
Mg10 Mg9 2.989377 1_555
Mg10 Mg8 2.989377 1_555
Mg10 V1 3.040853 1_555
Mg10 V1 3.040853 1_655
Mg10 Mg11 3.045251 1_565
Mg10 Mg11 3.045251 1_555
Mg10 Mg6 3.110628 1_555
Mg10 Mg6 3.110628 1_655
Mg10 Mg7 3.110628 1_555
Mg10 Mg7 3.110628 1_655
Mg10 Mg3 3.242323 1_556
Mg10 Mg2 3.242323 1_556
Mg11 Mg8 3.013822 1_555
Mg11 Mg9 3.013822 1_545
Mg11 Ti1 3.041123 1_655
Mg11 Ti1 3.041123 1_555
Mg11 Mg7 3.095563 1_555
Mg11 Mg7 3.095563 1_655
Mg11 Mg6 3.095563 1_545
Mg11 Mg6 3.095563 1_645
Mg11 Mg3 3.218211 1_556
Mg11 Mg2 3.218211 1_546
Ti0 V0 3.045248 1_565
Ti0 V0 3.045248 1_555
Ti1 V1 3.045248 1_545
Ti1 V1 3.045248 1_555
