# generated using pymatgen
data_SrCa7Mn6Cr2O20
_symmetry_space_group_name_H-M   'P 1'
_cell_length_a   11.01615569
_cell_length_b   15.47876755
_cell_length_c   11.13752641
_cell_angle_alpha   90.02947662
_cell_angle_beta   91.38116480
_cell_angle_gamma   90.40701097
_symmetry_Int_Tables_number   1
_chemical_formula_structural   SrCa7Mn6Cr2O20
_chemical_formula_sum   'Sr4 Ca28 Mn24 Cr8 O80'
_cell_volume   1898.53205964
_cell_formula_units_Z   4
loop_
 _symmetry_equiv_pos_site_id
 _symmetry_equiv_pos_as_xyz
  1  'x, y, z'
loop_
 _atom_site_type_symbol
 _atom_site_label
 _atom_site_symmetry_multiplicity
 _atom_site_fract_x
 _atom_site_fract_y
 _atom_site_fract_z
 _atom_site_occupancy
  Sr  Sr0  1  0.00266052  0.11461134  0.50416642  1
  Sr  Sr1  1  0.51193266  0.37606811  0.99292326  1
  Sr  Sr2  1  0.23711168  0.38851601  0.26016270  1
  Sr  Sr3  1  0.22946420  0.12113577  0.24576628  1
  Ca  Ca0  1  -0.00002386  0.10931720  0.00630372  1
  Ca  Ca1  1  0.00688518  0.61307855  0.50534014  1
  Ca  Ca2  1  0.00434554  0.61323044  0.00773764  1
  Ca  Ca3  1  0.54487188  0.12814978  0.48660333  1
  Ca  Ca4  1  0.54733752  0.12746524  0.98609547  1
  Ca  Ca5  1  0.54158510  0.63034422  0.48285165  1
  Ca  Ca6  1  0.54248097  0.62940801  0.98374026  1
  Ca  Ca7  1  0.51587373  0.37331597  0.49531476  1
  Ca  Ca8  1  0.51802656  0.87358034  0.99124562  1
  Ca  Ca9  1  0.51904460  0.87332052  0.49108101  1
  Ca  Ca10  1  0.96051703  0.38654126  0.00375495  1
  Ca  Ca11  1  0.95676021  0.38661080  0.50322563  1
  Ca  Ca12  1  0.95870776  0.88062896  0.00184747  1
  Ca  Ca13  1  0.95787720  0.88144726  0.50097126  1
  Ca  Ca14  1  0.22737711  0.39564491  0.75976293  1
  Ca  Ca15  1  0.22780331  0.88988695  0.27263270  1
  Ca  Ca16  1  0.22734056  0.88987572  0.77018795  1
  Ca  Ca17  1  0.75534373  0.37952795  0.25405317  1
  Ca  Ca18  1  0.75058437  0.37550622  0.75171963  1
  Ca  Ca19  1  0.75527192  0.87247232  0.25616117  1
  Ca  Ca20  1  0.75303375  0.87282904  0.75375263  1
  Ca  Ca21  1  0.22629567  0.11711768  0.74741986  1
  Ca  Ca22  1  0.22926587  0.62032974  0.24591387  1
  Ca  Ca23  1  0.22743427  0.62135205  0.74708781  1
  Ca  Ca24  1  0.77650818  0.11800949  0.25216576  1
  Ca  Ca25  1  0.78166070  0.11786780  0.75454891  1
  Ca  Ca26  1  0.78214964  0.62433790  0.25324990  1
  Ca  Ca27  1  0.78171371  0.62378609  0.75375527  1
  Mn  Mn0  1  0.99464161  0.49835414  0.25407666  1
  Mn  Mn1  1  0.99273236  0.49779832  0.75285485  1
  Mn  Mn2  1  0.50606620  0.98778486  0.23697857  1
  Mn  Mn3  1  0.50503651  0.98926887  0.73990971  1
  Mn  Mn4  1  0.50860782  0.49607578  0.23802853  1
  Mn  Mn5  1  0.50279648  0.49335862  0.73472569  1
  Mn  Mn6  1  0.24330627  0.50446128  0.01729579  1
  Mn  Mn7  1  0.24554502  0.50289379  0.52076738  1
  Mn  Mn8  1  0.74703589  0.00049625  0.99896560  1
  Mn  Mn9  1  0.74434790  0.00112830  0.49947268  1
  Mn  Mn10  1  0.74727533  0.50442864  0.99693156  1
  Mn  Mn11  1  0.74269951  0.50409634  0.49747255  1
  Mn  Mn12  1  0.27229512  0.74478228  0.96225438  1
  Mn  Mn13  1  0.27413348  0.74407457  0.46299249  1
  Mn  Mn14  1  0.75849135  0.24831371  0.00260452  1
  Mn  Mn15  1  0.75251651  0.24904306  0.50343866  1
  Mn  Mn16  1  0.75689224  0.74659183  0.00169540  1
  Mn  Mn17  1  0.75627542  0.74618999  0.50256511  1
  Mn  Mn18  1  0.99564366  0.75206734  0.25961166  1
  Mn  Mn19  1  0.99468136  0.75210810  0.75907774  1
  Mn  Mn20  1  0.51315382  0.25279665  0.25685824  1
  Mn  Mn21  1  0.51184662  0.24840869  0.75296844  1
  Mn  Mn22  1  0.51293987  0.74716991  0.25045525  1
  Mn  Mn23  1  0.51267565  0.74720738  0.75148125  1
  Cr  Cr0  1  0.99555280  0.99684156  0.25268349  1
  Cr  Cr1  1  0.99698648  0.99653413  0.75460254  1
  Cr  Cr2  1  0.24032087  0.99633692  0.01774374  1
  Cr  Cr3  1  0.24217360  0.99580418  0.52398826  1
  Cr  Cr4  1  0.26718720  0.24259414  0.94824636  1
  Cr  Cr5  1  0.26981230  0.24389394  0.46783102  1
  Cr  Cr6  1  0.98404845  0.25334475  0.26700612  1
  Cr  Cr7  1  0.99127114  0.25352783  0.76753453  1
  O  O0  1  0.58802350  0.25072155  0.09953232  1
  O  O1  1  0.59135807  0.25517859  0.59644281  1
  O  O2  1  0.58711862  0.75581959  0.09277930  1
  O  O3  1  0.58636834  0.75542966  0.59387805  1
  O  O4  1  0.39619758  0.19769396  0.36947918  1
  O  O5  1  0.39624751  0.18617453  0.86080464  1
  O  O6  1  0.39970829  0.68345100  0.35008592  1
  O  O7  1  0.39967910  0.68452338  0.85220964  1
  O  O8  1  0.90187855  0.23909730  0.41252996  1
  O  O9  1  0.92010023  0.23486152  0.91938585  1
  O  O10  1  0.90483294  0.73294214  0.41661735  1
  O  O11  1  0.90530780  0.73269765  0.91629658  1
  O  O12  1  0.15223659  0.25033824  0.34107436  1
  O  O13  1  0.16943431  0.25460440  0.80577466  1
  O  O14  1  0.16142030  0.75005898  0.31461491  1
  O  O15  1  0.16069595  0.75073160  0.81300948  1
  O  O16  1  0.65783412  0.22512634  0.35796328  1
  O  O17  1  0.66183267  0.22768906  0.85635389  1
  O  O18  1  0.65927729  0.72644106  0.35588047  1
  O  O19  1  0.65934812  0.72564758  0.85571960  1
  O  O20  1  0.85770091  0.27809957  0.14597593  1
  O  O21  1  0.86223199  0.27609516  0.64583826  1
  O  O22  1  0.85636670  0.77214308  0.14869972  1
  O  O23  1  0.85577785  0.77238998  0.64871457  1
  O  O24  1  0.35838635  0.51118303  0.15522094  1
  O  O25  1  0.34695643  0.50903969  0.66753806  1
  O  O26  1  0.35231865  0.00539933  0.16253086  1
  O  O27  1  0.34715512  0.00519292  0.67367198  1
  O  O28  1  0.85103967  0.48420876  0.13867679  1
  O  O29  1  0.84400965  0.48198524  0.63887725  1
  O  O30  1  0.84887736  0.97787192  0.14073225  1
  O  O31  1  0.84877843  0.97982837  0.64176353  1
  O  O32  1  0.14784882  0.00795755  0.36901496  1
  O  O33  1  0.14847552  0.00951761  0.86532338  1
  O  O34  1  0.15948937  0.51206168  0.37149635  1
  O  O35  1  0.15688330  0.51201642  0.86945311  1
  O  O36  1  0.62749315  0.02577864  0.35261255  1
  O  O37  1  0.63231574  0.02535319  0.85224613  1
  O  O38  1  0.63249975  0.53009435  0.34814692  1
  O  O39  1  0.62607074  0.52592565  0.84776802  1
  O  O40  1  0.87942112  0.01174463  0.38931783  1
  O  O41  1  0.88555166  0.01425370  0.89452696  1
  O  O42  1  0.88664427  0.51850862  0.39292000  1
  O  O43  1  0.88696589  0.52039655  0.89095693  1
  O  O44  1  0.09777082  0.47663966  0.11946340  1
  O  O45  1  0.09597093  0.47300051  0.61891260  1
  O  O46  1  0.10124719  0.97293145  0.11188645  1
  O  O47  1  0.10217779  0.96826461  0.61441670  1
  O  O48  1  0.60182186  0.49936306  0.09342131  1
  O  O49  1  0.58930588  0.49669567  0.58480162  1
  O  O50  1  0.59790638  0.99387429  0.08931761  1
  O  O51  1  0.59430064  0.99502928  0.58966426  1
  O  O52  1  0.99509387  0.37864223  0.29669506  1
  O  O53  1  0.99877984  0.37847464  0.79958672  1
  O  O54  1  -0.00060694  0.87343027  0.29355134  1
  O  O55  1  0.99714343  0.87319330  0.79610282  1
  O  O56  1  0.47762338  0.37899740  0.28873728  1
  O  O57  1  0.47238695  0.37416541  0.77565798  1
  O  O58  1  0.47962615  0.87097190  0.28437354  1
  O  O59  1  0.48306352  0.87104360  0.78448207  1
  O  O60  1  0.99560714  0.12823342  0.21896720  1
  O  O61  1  0.00191769  0.12727471  0.72568294  1
  O  O62  1  0.00077017  0.62747445  0.21888757  1
  O  O63  1  0.00002655  0.62738258  0.71563699  1
  O  O64  1  0.22088795  0.13780973  0.02681380  1
  O  O65  1  0.23570905  0.13332404  0.54114712  1
  O  O66  1  0.22108241  0.63357716  0.03942753  1
  O  O67  1  0.22473890  0.63239130  0.54066941  1
  O  O68  1  0.75588141  0.12245260  0.03951280  1
  O  O69  1  0.75319971  0.12430229  0.54114325  1
  O  O70  1  0.75134003  0.62662500  0.04163892  1
  O  O71  1  0.74824371  0.62563453  0.54357199  1
  O  O72  1  0.29423703  0.36654393  0.50508130  1
  O  O73  1  0.27970104  0.36321573  0.99741096  1
  O  O74  1  0.29997698  0.87647751  0.48568752  1
  O  O75  1  0.29742972  0.87715412  0.98236459  1
  O  O76  1  0.73640325  0.37908997  0.46382744  1
  O  O77  1  0.74424065  0.37964894  0.96240491  1
  O  O78  1  0.74010984  0.87305837  0.46610956  1
  O  O79  1  0.74144665  0.87371278  0.96330697  1
loop_
_geom_bond_atom_site_label_1
_geom_bond_atom_site_label_2
_geom_bond_distance
_geom_bond_site_symmetry_2
Ca0 O41 2.280362 1_454
Ca0 O9 2.339414 1_454
Ca0 O60 2.388103 1_455
Ca0 O64 2.475266 1_555
Ca0 O46 2.656475 1_545
Ca0 O68 2.732109 1_455
Ca0 O33 2.772210 1_554
Ca1 O42 2.314229 1_455
Ca1 O63 2.355590 1_555
Ca1 O10 2.379197 1_455
Ca1 O67 2.438837 1_555
Ca1 O45 2.690275 1_555
Ca1 O34 2.765672 1_555
Ca1 O71 2.898878 1_455
Ca2 O43 2.306331 1_454
Ca2 O62 2.363187 1_555
Ca2 O11 2.371520 1_454
Ca2 O66 2.423429 1_555
Ca2 O44 2.655108 1_555
Ca2 O35 2.794613 1_554
Ca2 O70 2.830655 1_455
Ca2 O28 3.006849 1_455
Ca3 O4 2.338026 1_555
Ca3 O69 2.360975 1_555
Ca3 O1 2.361771 1_555
Ca3 O36 2.376945 1_555
Ca3 O51 2.418288 1_545
Ca3 O16 2.432310 1_555
Ca4 O0 2.322728 1_556
Ca4 O5 2.335424 1_555
Ca4 O68 2.361035 1_556
Ca4 O37 2.383852 1_555
Ca4 O50 2.428134 1_546
Ca4 O17 2.479500 1_555
Ca5 O6 2.283220 1_555
Ca5 O3 2.340036 1_555
Ca5 O71 2.360865 1_555
Ca5 O38 2.398734 1_555
Ca5 O49 2.415435 1_555
Ca5 O18 2.440584 1_555
Ca6 O7 2.292991 1_555
Ca6 O2 2.345290 1_556
Ca6 O70 2.375161 1_556
Ca6 O39 2.406806 1_555
Ca6 O48 2.440127 1_556
Ca6 O19 2.443975 1_555
Ca7 O49 2.287390 1_555
Ca7 O1 2.298366 1_555
Ca7 O56 2.330835 1_555
Ca7 O72 2.448128 1_555
Ca7 O76 2.463922 1_555
Ca8 O2 2.271786 1_556
Ca8 O50 2.315764 1_556
Ca8 O59 2.325913 1_555
Ca8 O75 2.430782 1_555
Ca8 O79 2.488239 1_555
Ca9 O3 2.274029 1_555
Ca9 O51 2.318130 1_555
Ca9 O58 2.332714 1_555
Ca9 O74 2.413425 1_555
Ca9 O78 2.457802 1_555
Ca10 O53 2.326086 1_554
Ca10 O44 2.401278 1_655
Ca10 O77 2.417310 1_554
Ca10 O28 2.471632 1_555
Ca10 O43 2.550503 1_554
Ca10 O9 2.560498 1_554
Ca10 O20 2.582947 1_555
Ca11 O52 2.352003 1_555
Ca11 O45 2.382002 1_655
Ca11 O76 2.458327 1_555
Ca11 O29 2.473654 1_555
Ca11 O42 2.500668 1_555
Ca11 O8 2.558912 1_555
Ca11 O21 2.567251 1_555
Ca12 O55 2.343209 1_554
Ca12 O79 2.422969 1_554
Ca12 O46 2.425379 1_655
Ca12 O30 2.497179 1_555
Ca12 O41 2.517146 1_564
Ca12 O11 2.539426 1_554
Ca12 O22 2.613572 1_555
Ca13 O54 2.369130 1_655
Ca13 O47 2.408388 1_655
Ca13 O78 2.423477 1_555
Ca13 O40 2.517255 1_565
Ca13 O31 2.517276 1_555
Ca13 O10 2.541702 1_555
Ca13 O23 2.624384 1_555
Ca14 O35 2.324551 1_555
Ca14 O13 2.330931 1_555
Ca14 O25 2.430091 1_555
Ca14 O45 2.430472 1_555
Ca14 O53 2.579432 1_455
Ca14 O57 2.723347 1_555
Ca14 O73 2.742582 1_555
Ca14 O72 2.982511 1_555
Ca15 O32 2.309679 1_565
Ca15 O14 2.330863 1_555
Ca15 O74 2.493552 1_555
Ca15 O54 2.543553 1_555
Ca15 O26 2.575001 1_565
Ca15 O46 2.590124 1_555
Ca15 O58 2.791532 1_555
Ca16 O33 2.317817 1_565
Ca16 O15 2.323940 1_555
Ca16 O27 2.473995 1_565
Ca16 O75 2.476684 1_555
Ca16 O47 2.508763 1_555
Ca16 O55 2.570363 1_455
Ca16 O59 2.834850 1_555
Ca17 O20 2.296489 1_555
Ca17 O28 2.330500 1_555
Ca17 O76 2.350678 1_555
Ca17 O52 2.672328 1_555
Ca17 O16 2.869034 1_555
Ca18 O21 2.316483 1_555
Ca18 O29 2.322836 1_555
Ca18 O77 2.350092 1_555
Ca18 O17 2.752261 1_555
Ca18 O53 2.773064 1_555
Ca19 O22 2.274066 1_555
Ca19 O30 2.328063 1_555
Ca19 O78 2.348293 1_555
Ca19 O54 2.711325 1_655
Ca19 O18 2.736121 1_555
Ca20 O23 2.270159 1_555
Ca20 O31 2.334945 1_555
Ca20 O79 2.340513 1_555
Ca20 O55 2.718947 1_555
Ca20 O19 2.751501 1_555
Ca21 O33 2.295534 1_555
Ca21 O65 2.315878 1_555
Ca21 O13 2.319662 1_555
Ca21 O27 2.352174 1_555
Ca21 O5 2.469556 1_555
Ca21 O61 2.483898 1_555
Ca22 O14 2.285529 1_555
Ca22 O66 2.308628 1_555
Ca22 O34 2.321979 1_555
Ca22 O6 2.386195 1_555
Ca22 O24 2.449379 1_555
Ca22 O62 2.531070 1_555
Ca23 O15 2.266176 1_555
Ca23 O67 2.304913 1_555
Ca23 O35 2.315230 1_555
Ca23 O25 2.372343 1_555
Ca23 O7 2.406796 1_555
Ca23 O63 2.523546 1_555
Ca24 O68 2.374923 1_555
Ca24 O16 2.439199 1_555
Ca24 O60 2.454591 1_555
Ca24 O36 2.457904 1_555
Ca24 O40 2.503951 1_555
Ca24 O30 2.636404 1_545
Ca24 O20 2.891671 1_555
Ca24 O8 2.907108 1_555
Ca25 O69 2.392115 1_555
Ca25 O37 2.448626 1_555
Ca25 O17 2.453538 1_555
Ca25 O61 2.458565 1_655
Ca25 O41 2.501042 1_555
Ca25 O31 2.598933 1_545
Ca25 O21 2.876829 1_555
Ca25 O9 2.966156 1_555
Ca26 O70 2.373343 1_555
Ca26 O18 2.395752 1_555
Ca26 O62 2.447816 1_655
Ca26 O38 2.452404 1_555
Ca26 O42 2.524165 1_555
Ca26 O28 2.641243 1_555
Ca26 O22 2.698264 1_555
Ca26 O10 2.794486 1_555
Ca27 O71 2.361205 1_555
Ca27 O19 2.386390 1_555
Ca27 O63 2.452458 1_655
Ca27 O43 2.486764 1_555
Ca27 O39 2.526250 1_555
Ca27 O29 2.643180 1_555
Ca27 O23 2.710611 1_555
Ca27 O11 2.796139 1_555
Mn0 O52 1.913069 1_555
Mn0 O44 1.933510 1_655
Mn0 O42 1.999369 1_555
Mn0 O28 2.024641 1_555
Mn0 O62 2.037846 1_655
Mn0 O34 2.220999 1_655
Mn1 O53 1.920351 1_555
Mn1 O45 1.937419 1_655
Mn1 O43 1.984272 1_555
Mn1 O63 2.049806 1_655
Mn1 O29 2.061379 1_555
Mn1 O35 2.210357 1_655
Mn2 O26 1.889335 1_565
Mn2 O58 1.906223 1_555
Mn2 O36 1.923229 1_565
Mn2 O50 1.953490 1_555
Mn3 O27 1.890606 1_565
Mn3 O59 1.911622 1_555
Mn3 O37 1.935689 1_565
Mn3 O51 1.962982 1_555
Mn4 O38 1.884831 1_555
Mn4 O24 1.891027 1_555
Mn4 O56 1.929042 1_555
Mn4 O48 1.931327 1_555
Mn5 O25 1.873582 1_555
Mn5 O39 1.894891 1_555
Mn5 O57 1.929609 1_555
Mn5 O49 1.942976 1_555
Mn6 O35 1.886154 1_554
Mn6 O24 1.970232 1_555
Mn6 O66 2.030830 1_555
Mn6 O44 2.032063 1_555
Mn6 O73 2.237402 1_554
Mn7 O34 1.899727 1_555
Mn7 O25 1.959470 1_555
Mn7 O67 2.031761 1_555
Mn7 O45 2.049510 1_555
Mn7 O72 2.189245 1_555
Mn8 O68 1.941999 1_556
Mn8 O30 1.948096 1_546
Mn8 O50 1.949219 1_546
Mn8 O41 1.951400 1_555
Mn8 O79 2.002258 1_545
Mn8 O37 2.079284 1_555
Mn9 O51 1.956554 1_545
Mn9 O40 1.957298 1_555
Mn9 O69 1.963218 1_555
Mn9 O31 1.965121 1_545
Mn9 O78 2.016709 1_545
Mn9 O36 2.093848 1_555
Mn10 O48 1.951880 1_556
Mn10 O28 1.953320 1_556
Mn10 O70 1.955574 1_556
Mn10 O77 1.969044 1_555
Mn10 O43 1.976034 1_555
Mn10 O39 2.133872 1_555
Mn11 O29 1.940169 1_555
Mn11 O71 1.949962 1_555
Mn11 O76 1.971125 1_555
Mn11 O49 1.972607 1_555
Mn11 O42 2.001121 1_555
Mn11 O38 2.076522 1_555
Mn12 O66 2.007758 1_556
Mn12 O15 2.046000 1_555
Mn12 O75 2.076901 1_555
Mn12 O7 2.107530 1_555
Mn13 O67 2.010938 1_555
Mn13 O14 2.045517 1_555
Mn13 O74 2.081546 1_555
Mn13 O6 2.115800 1_555
Mn14 O17 1.949352 1_554
Mn14 O20 1.965896 1_555
Mn14 O68 1.991428 1_555
Mn14 O9 2.038755 1_554
Mn14 O77 2.088037 1_554
Mn14 O0 2.189059 1_555
Mn15 O16 1.939734 1_555
Mn15 O8 1.959573 1_555
Mn15 O69 1.976211 1_555
Mn15 O21 2.012760 1_555
Mn15 O76 2.068910 1_555
Mn15 O1 2.079610 1_555
Mn16 O70 1.910608 1_555
Mn16 O11 1.924520 1_554
Mn16 O19 1.952774 1_554
Mn16 O22 1.986096 1_555
Mn16 O79 2.021290 1_554
Mn16 O2 2.154637 1_555
Mn17 O71 1.923289 1_555
Mn17 O10 1.927873 1_555
Mn17 O18 1.953181 1_555
Mn17 O23 1.980535 1_555
Mn17 O78 2.013765 1_555
Mn17 O3 2.157199 1_555
Mn18 O14 1.912649 1_655
Mn18 O54 1.915973 1_655
Mn18 O22 1.972907 1_555
Mn18 O62 1.982442 1_655
Mn18 O10 2.055932 1_555
Mn19 O15 1.911421 1_655
Mn19 O55 1.918733 1_555
Mn19 O23 1.966579 1_555
Mn19 O63 1.991679 1_655
Mn19 O11 2.050650 1_555
Mn20 O0 1.954880 1_555
Mn20 O16 1.978735 1_555
Mn20 O4 2.006036 1_555
Mn20 O56 2.027809 1_555
Mn21 O1 1.972262 1_555
Mn21 O5 2.012367 1_555
Mn21 O57 2.014627 1_555
Mn21 O17 2.018639 1_555
Mn22 O6 1.952022 1_555
Mn22 O2 1.958956 1_555
Mn22 O58 1.991364 1_555
Mn22 O18 1.999228 1_555
Mn23 O7 1.949560 1_555
Mn23 O3 1.955454 1_555
Mn23 O59 1.982344 1_555
Mn23 O19 1.996878 1_555
Cr0 O54 1.964473 1_655
Cr0 O46 2.011281 1_655
Cr0 O40 2.025672 1_565
Cr0 O30 2.036528 1_555
Cr0 O60 2.068349 1_565
Cr0 O32 2.100932 1_665
Cr1 O55 1.964552 1_555
Cr1 O47 2.016371 1_655
Cr1 O41 2.026673 1_565
Cr1 O61 2.049883 1_665
Cr1 O31 2.051021 1_555
Cr1 O33 2.059568 1_665
Cr2 O46 1.909917 1_555
Cr2 O33 1.966625 1_564
Cr2 O75 1.995506 1_554
Cr2 O26 2.010891 1_565
Cr2 O64 2.204278 1_565
Cr3 O47 1.908002 1_555
Cr3 O32 2.002724 1_565
Cr3 O74 2.006977 1_555
Cr3 O27 2.010537 1_565
Cr3 O65 2.138945 1_565
Cr4 O13 1.906002 1_555
Cr4 O64 1.915134 1_556
Cr4 O73 1.948449 1_555
Cr4 O5 1.953458 1_555
Cr5 O12 1.895907 1_555
Cr5 O4 1.933026 1_555
Cr5 O65 1.934990 1_555
Cr5 O72 1.958382 1_555
Cr6 O8 1.887640 1_555
Cr6 O20 1.954178 1_555
Cr6 O52 1.969685 1_555
Cr6 O12 2.010743 1_655
Cr6 O60 2.014571 1_555
Cr7 O9 1.902554 1_555
Cr7 O53 1.967312 1_555
Cr7 O21 1.973445 1_555
Cr7 O13 1.998246 1_655
Cr7 O61 2.013714 1_655
O0 Sr1 2.419580 1_554
O4 Sr3 2.553793 1_555
O8 Sr0 2.442322 1_655
O12 Sr3 2.432212 1_555
O12 Sr2 2.505005 1_555
O24 Sr2 2.607226 1_555
O26 Sr3 2.448180 1_555
O32 Sr3 2.408574 1_555
O32 Sr0 2.774943 1_555
O34 Sr2 2.449016 1_555
O40 Sr0 2.428591 1_655
O44 Sr2 2.566799 1_555
O47 Sr0 2.795412 1_565
O48 Sr1 2.406888 1_554
O52 Sr2 2.709908 1_655
O56 Sr2 2.666058 1_555
O57 Sr1 2.448469 1_555
O60 Sr3 2.589398 1_655
O61 Sr0 2.475035 1_555
O64 Sr3 2.451967 1_555
O65 Sr0 2.604400 1_555
O69 Sr0 2.793655 1_655
O72 Sr2 2.806021 1_555
O73 Sr1 2.566304 1_555
O73 Sr2 3.000824 1_556
O77 Sr1 2.589931 1_555
