# generated using pymatgen
data_CoGeN2
_symmetry_space_group_name_H-M   'P 1'
_cell_length_a   5.44536200
_cell_length_b   6.44573400
_cell_length_c   5.20193400
_cell_angle_alpha   90.00000000
_cell_angle_beta   90.00000000
_cell_angle_gamma   90.00000000
_symmetry_Int_Tables_number   1
_chemical_formula_structural   CoGeN2
_chemical_formula_sum   'Co4 Ge4 N8'
_cell_volume   182.58452808
_cell_formula_units_Z   4
loop_
 _symmetry_equiv_pos_site_id
 _symmetry_equiv_pos_as_xyz
  1  'x, y, z'
loop_
 _atom_site_type_symbol
 _atom_site_label
 _atom_site_symmetry_multiplicity
 _atom_site_fract_x
 _atom_site_fract_y
 _atom_site_fract_z
 _atom_site_occupancy
  Co  Co0  1  0.58301900  0.87637100  0.99833300  1
  Co  Co1  1  0.41698100  0.12362900  0.49833300  1
  Co  Co2  1  0.91698100  0.37637100  0.49833300  1
  Co  Co3  1  0.08301900  0.62362900  0.99833300  1
  Ge  Ge0  1  0.58094400  0.37518700  0.00023800  1
  Ge  Ge1  1  0.41905600  0.62481300  0.50023800  1
  Ge  Ge2  1  0.91905600  0.87518700  0.50023800  1
  Ge  Ge3  1  0.08094400  0.12481300  0.00023800  1
  N  N0  1  0.56983100  0.38675600  0.36316500  1
  N  N1  1  0.43016900  0.61324400  0.86316500  1
  N  N2  1  0.93016900  0.88675600  0.86316500  1
  N  N3  1  0.06983100  0.11324400  0.36316500  1
  N  N4  1  0.59084600  0.86291500  0.38826400  1
  N  N5  1  0.40915400  0.13708500  0.88826400  1
  N  N6  1  0.90915400  0.36291500  0.88826400  1
  N  N7  1  0.09084600  0.63708500  0.38826400  1
loop_
_geom_bond_atom_site_label_1
_geom_bond_atom_site_label_2
_geom_bond_distance
_geom_bond_site_symmetry_2
Co0 N5 2.012025 1_565
Co0 N1 2.015871 1_555
Co0 N2 2.018002 1_555
Co0 N4 2.030696 1_556
Co1 N4 2.012025 1_545
Co1 N0 2.015871 1_555
Co1 N3 2.018002 1_555
Co1 N5 2.030696 1_555
Co2 N7 2.012025 1_655
Co2 N3 2.015871 1_655
Co2 N0 2.018002 1_555
Co2 N6 2.030696 1_555
Co3 N6 2.012025 1_455
Co3 N2 2.015871 1_455
Co3 N1 2.018002 1_555
Co3 N7 2.030696 1_556
Ge0 N1 1.880707 1_554
Ge0 N6 1.881410 1_554
Ge0 N5 1.889392 1_554
Ge0 N0 1.890363 1_555
Ge1 N0 1.880707 1_555
Ge1 N7 1.881410 1_555
Ge1 N4 1.889392 1_555
Ge1 N1 1.890363 1_555
Ge2 N3 1.880707 1_665
Ge2 N4 1.881410 1_555
Ge2 N7 1.889392 1_655
Ge2 N2 1.890363 1_555
Ge3 N2 1.880707 1_444
Ge3 N5 1.881410 1_554
Ge3 N6 1.889392 1_454
Ge3 N3 1.890363 1_555
