# generated using pymatgen
data_CaLuMn2O6
_symmetry_space_group_name_H-M   'P 1'
_cell_length_a   5.29373700
_cell_length_b   5.53865900
_cell_length_c   7.56328800
_cell_angle_alpha   90.00000000
_cell_angle_beta   90.00000000
_cell_angle_gamma   90.00000000
_symmetry_Int_Tables_number   1
_chemical_formula_structural   CaLuMn2O6
_chemical_formula_sum   'Ca2 Lu2 Mn4 O12'
_cell_volume   221.75714767
_cell_formula_units_Z   2
loop_
 _symmetry_equiv_pos_site_id
 _symmetry_equiv_pos_as_xyz
  1  'x, y, z'
loop_
 _atom_site_type_symbol
 _atom_site_label
 _atom_site_symmetry_multiplicity
 _atom_site_fract_x
 _atom_site_fract_y
 _atom_site_fract_z
 _atom_site_occupancy
  Ca  Ca0  1  0.23599000  0.44476800  0.50000000  1
  Ca  Ca1  1  0.76401000  0.94476800  0.50000000  1
  Lu  Lu0  1  0.26526100  0.57145200  0.00000000  1
  Lu  Lu1  1  0.73473900  0.07145200  0.00000000  1
  Mn  Mn0  1  0.75389600  0.50250800  0.74959100  1
  Mn  Mn1  1  0.24610400  0.00250800  0.25040900  1
  Mn  Mn2  1  0.75389600  0.50250800  0.25040900  1
  Mn  Mn3  1  0.24610400  0.00250800  0.74959100  1
  O  O0  1  0.54731600  0.79902700  0.81410900  1
  O  O1  1  0.45268400  0.29902700  0.18589100  1
  O  O2  1  0.94049800  0.19450700  0.28550900  1
  O  O3  1  0.05950200  0.69450700  0.71449100  1
  O  O4  1  0.94049800  0.19450700  0.71449100  1
  O  O5  1  0.05950200  0.69450700  0.28550900  1
  O  O6  1  0.54731600  0.79902700  0.18589100  1
  O  O7  1  0.45268400  0.29902700  0.81410900  1
  O  O8  1  0.13995200  0.96272000  0.00000000  1
  O  O9  1  0.86004800  0.46272000  0.00000000  1
  O  O10  1  0.33695100  0.02897500  0.50000000  1
  O  O11  1  0.66304900  0.52897500  0.50000000  1
loop_
_geom_bond_atom_site_label_1
_geom_bond_atom_site_label_2
_geom_bond_distance
_geom_bond_site_symmetry_2
Ca0 O11 2.308346 1_555
Ca0 O5 2.327637 1_555
Ca0 O3 2.327637 1_555
Ca0 O10 2.364141 1_555
Ca0 O4 2.645736 1_455
Ca0 O2 2.645736 1_455
Ca0 O1 2.758878 1_555
Ca0 O7 2.758878 1_555
Ca1 O10 2.308346 1_565
Ca1 O4 2.327637 1_565
Ca1 O2 2.327637 1_565
Ca1 O11 2.364141 1_555
Ca1 O3 2.645736 1_655
Ca1 O5 2.645736 1_655
Ca1 O6 2.758878 1_555
Ca1 O0 2.758878 1_555
Lu0 O9 2.228025 1_455
Lu0 O8 2.266354 1_555
Lu0 O1 2.288618 1_555
Lu0 O7 2.288618 1_554
Lu0 O6 2.407254 1_555
Lu0 O0 2.407254 1_554
Lu0 O5 2.512749 1_555
Lu0 O3 2.512749 1_554
Lu1 O8 2.228025 1_645
Lu1 O9 2.266354 1_555
Lu1 O6 2.288618 1_545
Lu1 O0 2.288618 1_544
Lu1 O7 2.407254 1_554
Lu1 O1 2.407254 1_555
Lu1 O4 2.512749 1_554
Lu1 O2 2.512749 1_555
Mn0 O11 1.953533 1_555
Mn0 O3 1.954124 1_655
Mn0 O9 1.987777 1_556
Mn0 O4 1.989071 1_555
Mn0 O7 2.012664 1_555
Mn0 O0 2.032545 1_555
Mn1 O10 1.953533 1_555
Mn1 O2 1.954124 1_455
Mn1 O8 1.987777 1_545
Mn1 O5 1.989071 1_545
Mn1 O6 2.012664 1_545
Mn1 O1 2.032545 1_555
Mn2 O11 1.953533 1_555
Mn2 O5 1.954124 1_655
Mn2 O9 1.987777 1_555
Mn2 O2 1.989071 1_555
Mn2 O1 2.012664 1_555
Mn2 O6 2.032545 1_555
Mn3 O10 1.953533 1_555
Mn3 O4 1.954124 1_455
Mn3 O8 1.987777 1_546
Mn3 O3 1.989071 1_545
Mn3 O0 2.012664 1_545
Mn3 O7 2.032545 1_555
