# generated using pymatgen
data_Pr10Se19
_symmetry_space_group_name_H-M   'P 1'
_cell_length_a   9.39507009
_cell_length_b   9.39507009
_cell_length_c   17.09952781
_cell_angle_alpha   90.00000000
_cell_angle_beta   90.00000000
_cell_angle_gamma   90.00000000
_symmetry_Int_Tables_number   1
_chemical_formula_structural   Pr10Se19
_chemical_formula_sum   'Pr20 Se38'
_cell_volume   1509.32987038
_cell_formula_units_Z   2
loop_
 _symmetry_equiv_pos_site_id
 _symmetry_equiv_pos_as_xyz
  1  'x, y, z'
loop_
 _atom_site_type_symbol
 _atom_site_label
 _atom_site_symmetry_multiplicity
 _atom_site_fract_x
 _atom_site_fract_y
 _atom_site_fract_z
 _atom_site_occupancy
  Pr  Pr0  1  0.25000000  0.75000000  0.38428868  1
  Pr  Pr1  1  0.25000000  0.75000000  0.88428868  1
  Pr  Pr2  1  0.75000000  0.25000000  0.61571132  1
  Pr  Pr3  1  0.75000000  0.25000000  0.11571132  1
  Pr  Pr4  1  0.64748492  0.55396479  0.89504819  1
  Pr  Pr5  1  0.44603521  0.14748492  0.39504819  1
  Pr  Pr6  1  0.05396479  0.35251508  0.39504819  1
  Pr  Pr7  1  0.85251508  0.94603521  0.89504819  1
  Pr  Pr8  1  0.35251508  0.44603521  0.10495181  1
  Pr  Pr9  1  0.55396479  0.85251508  0.60495181  1
  Pr  Pr10  1  0.94603521  0.64748492  0.60495181  1
  Pr  Pr11  1  0.14748492  0.05396479  0.10495181  1
  Pr  Pr12  1  0.45723004  0.15265343  0.87950928  1
  Pr  Pr13  1  0.84734657  0.95723004  0.37950928  1
  Pr  Pr14  1  0.65265343  0.54276996  0.37950928  1
  Pr  Pr15  1  0.04276996  0.34734657  0.87950928  1
  Pr  Pr16  1  0.54276996  0.84734657  0.12049072  1
  Pr  Pr17  1  0.15265343  0.04276996  0.62049072  1
  Pr  Pr18  1  0.34734657  0.45723004  0.62049072  1
  Pr  Pr19  1  0.95723004  0.65265343  0.12049072  1
  Se  Se0  1  0.25000000  0.75000000  0.06515698  1
  Se  Se1  1  0.25000000  0.75000000  0.56515698  1
  Se  Se2  1  0.75000000  0.25000000  0.93484302  1
  Se  Se3  1  0.75000000  0.25000000  0.43484302  1
  Se  Se4  1  0.64908947  0.55318828  0.56275885  1
  Se  Se5  1  0.44681172  0.14908947  0.06275885  1
  Se  Se6  1  0.05318828  0.35091053  0.06275885  1
  Se  Se7  1  0.85091053  0.94681172  0.56275885  1
  Se  Se8  1  0.35091053  0.44681172  0.43724115  1
  Se  Se9  1  0.55318828  0.85091053  0.93724115  1
  Se  Se10  1  0.94681172  0.64908947  0.93724115  1
  Se  Se11  1  0.14908947  0.05318828  0.43724115  1
  Se  Se12  1  0.04896483  0.34796354  0.57209068  1
  Se  Se13  1  0.65203646  0.54896483  0.07209068  1
  Se  Se14  1  0.84796354  0.95103517  0.07209068  1
  Se  Se15  1  0.45103517  0.15203646  0.57209068  1
  Se  Se16  1  0.95103517  0.65203646  0.42790932  1
  Se  Se17  1  0.34796354  0.45103517  0.92790932  1
  Se  Se18  1  0.15203646  0.04896483  0.92790932  1
  Se  Se19  1  0.54896483  0.84796354  0.42790932  1
  Se  Se20  1  0.06897589  0.88351463  0.24958556  1
  Se  Se21  1  0.11648537  0.56897589  0.74958556  1
  Se  Se22  1  0.38351463  0.93102411  0.74958556  1
  Se  Se23  1  0.43102411  0.61648537  0.24958556  1
  Se  Se24  1  0.93102411  0.11648537  0.75041444  1
  Se  Se25  1  0.88351463  0.43102411  0.25041444  1
  Se  Se26  1  0.61648537  0.06897589  0.25041444  1
  Se  Se27  1  0.56897589  0.38351463  0.75041444  1
  Se  Se28  1  0.32247680  0.97124642  0.25033370  1
  Se  Se29  1  0.02875358  0.82247680  0.75033370  1
  Se  Se30  1  0.47124642  0.67752320  0.75033370  1
  Se  Se31  1  0.17752320  0.52875358  0.25033370  1
  Se  Se32  1  0.67752320  0.02875358  0.74966630  1
  Se  Se33  1  0.97124642  0.17752320  0.24966630  1
  Se  Se34  1  0.52875358  0.32247680  0.24966630  1
  Se  Se35  1  0.82247680  0.47124642  0.74966630  1
  Se  Se36  1  0.25000000  0.25000000  0.75000000  1
  Se  Se37  1  0.75000000  0.75000000  0.25000000  1
loop_
_geom_bond_atom_site_label_1
_geom_bond_atom_site_label_2
_geom_bond_distance
_geom_bond_site_symmetry_2
Pr0 Se16 3.048406 1_455
Pr0 Se19 3.048406 1_555
Pr0 Se1 3.092763 1_555
Pr0 Se20 3.125929 1_555
Pr0 Se23 3.125929 1_555
Pr0 Se8 3.135681 1_555
Pr0 Se11 3.135681 1_565
Pr0 Se31 3.167182 1_555
Pr0 Se28 3.167182 1_555
Pr1 Se17 3.048406 1_555
Pr1 Se18 3.048406 1_565
Pr1 Se0 3.092763 1_556
Pr1 Se22 3.125929 1_555
Pr1 Se21 3.125929 1_555
Pr1 Se9 3.135681 1_555
Pr1 Se10 3.135681 1_455
Pr1 Se30 3.167182 1_555
Pr1 Se29 3.167182 1_555
Pr2 Se15 3.048406 1_555
Pr2 Se12 3.048406 1_655
Pr2 Se3 3.092763 1_555
Pr2 Se27 3.125929 1_555
Pr2 Se24 3.125929 1_555
Pr2 Se4 3.135681 1_555
Pr2 Se7 3.135681 1_545
Pr2 Se35 3.167182 1_555
Pr2 Se32 3.167182 1_555
Pr3 Se14 3.048406 1_545
Pr3 Se13 3.048406 1_555
Pr3 Se2 3.092763 1_554
Pr3 Se25 3.125929 1_555
Pr3 Se26 3.125929 1_555
Pr3 Se5 3.135681 1_555
Pr3 Se6 3.135681 1_655
Pr3 Se33 3.167182 1_555
Pr3 Se34 3.167182 1_555
Pr4 Se9 3.014718 1_555
Pr4 Se13 3.028009 1_556
Pr4 Se17 3.028139 1_555
Pr4 Se27 3.037280 1_555
Pr4 Se10 3.037711 1_555
Pr4 Se35 3.080081 1_555
Pr4 Se2 3.089676 1_555
Pr4 Se30 3.195705 1_555
Pr5 Se11 3.014718 1_555
Pr5 Se15 3.028009 1_555
Pr5 Se19 3.028139 1_545
Pr5 Se26 3.037280 1_555
Pr5 Se8 3.037711 1_555
Pr5 Se34 3.080081 1_555
Pr5 Se3 3.089676 1_555
Pr5 Se28 3.195705 1_545
Pr6 Se8 3.014718 1_555
Pr6 Se12 3.028009 1_555
Pr6 Se16 3.028139 1_455
Pr6 Se25 3.037280 1_455
Pr6 Se11 3.037711 1_555
Pr6 Se33 3.080081 1_455
Pr6 Se3 3.089676 1_455
Pr6 Se31 3.195705 1_555
Pr7 Se10 3.014718 1_555
Pr7 Se14 3.028009 1_556
Pr7 Se18 3.028139 1_665
Pr7 Se24 3.037280 1_565
Pr7 Se9 3.037711 1_555
Pr7 Se32 3.080081 1_565
Pr7 Se2 3.089676 1_565
Pr7 Se29 3.195705 1_655
Pr8 Se5 3.014718 1_555
Pr8 Se17 3.028009 1_554
Pr8 Se13 3.028139 1_555
Pr8 Se23 3.037280 1_555
Pr8 Se6 3.037711 1_555
Pr8 Se31 3.080081 1_555
Pr8 Se0 3.089676 1_555
Pr8 Se34 3.195705 1_555
Pr9 Se7 3.014718 1_555
Pr9 Se19 3.028009 1_555
Pr9 Se15 3.028139 1_565
Pr9 Se22 3.037280 1_555
Pr9 Se4 3.037711 1_555
Pr9 Se30 3.080081 1_555
Pr9 Se1 3.089676 1_555
Pr9 Se32 3.195705 1_565
Pr10 Se4 3.014718 1_555
Pr10 Se16 3.028009 1_555
Pr10 Se12 3.028139 1_655
Pr10 Se21 3.037280 1_655
Pr10 Se7 3.037711 1_555
Pr10 Se29 3.080081 1_655
Pr10 Se1 3.089676 1_655
Pr10 Se35 3.195705 1_555
Pr11 Se6 3.014718 1_555
Pr11 Se18 3.028009 1_554
Pr11 Se14 3.028139 1_445
Pr11 Se20 3.037280 1_545
Pr11 Se5 3.037711 1_555
Pr11 Se28 3.080081 1_545
Pr11 Se0 3.089676 1_545
Pr11 Se33 3.195705 1_455
Pr12 Se2 3.049177 1_555
Pr12 Se36 3.087273 1_555
Pr12 Se17 3.097964 1_555
Pr12 Se22 3.122652 1_545
Pr12 Se9 3.134316 1_545
Pr12 Se5 3.135188 1_556
Pr12 Se18 3.139337 1_555
Pr12 Se32 3.250856 1_555
Pr12 Se27 3.267945 1_555
Pr13 Se3 3.049177 1_565
Pr13 Se37 3.087273 1_555
Pr13 Se19 3.097964 1_555
Pr13 Se20 3.122652 1_655
Pr13 Se11 3.134316 1_665
Pr13 Se7 3.135188 1_555
Pr13 Se16 3.139337 1_555
Pr13 Se33 3.250856 1_565
Pr13 Se26 3.267945 1_565
Pr14 Se3 3.049177 1_555
Pr14 Se37 3.087273 1_555
Pr14 Se16 3.097964 1_555
Pr14 Se23 3.122652 1_555
Pr14 Se8 3.134316 1_555
Pr14 Se4 3.135188 1_555
Pr14 Se19 3.139337 1_555
Pr14 Se34 3.250856 1_555
Pr14 Se25 3.267945 1_555
Pr15 Se2 3.049177 1_455
Pr15 Se36 3.087273 1_555
Pr15 Se18 3.097964 1_555
Pr15 Se21 3.122652 1_555
Pr15 Se10 3.134316 1_455
Pr15 Se6 3.135188 1_556
Pr15 Se17 3.139337 1_555
Pr15 Se35 3.250856 1_455
Pr15 Se24 3.267945 1_455
Pr16 Se0 3.049177 1_555
Pr16 Se37 3.087273 1_555
Pr16 Se13 3.097964 1_555
Pr16 Se26 3.122652 1_565
Pr16 Se5 3.134316 1_565
Pr16 Se9 3.135188 1_554
Pr16 Se14 3.139337 1_555
Pr16 Se28 3.250856 1_555
Pr16 Se23 3.267945 1_555
Pr17 Se1 3.049177 1_545
Pr17 Se36 3.087273 1_555
Pr17 Se15 3.097964 1_555
Pr17 Se24 3.122652 1_455
Pr17 Se7 3.134316 1_445
Pr17 Se11 3.135188 1_555
Pr17 Se12 3.139337 1_555
Pr17 Se29 3.250856 1_545
Pr17 Se22 3.267945 1_545
Pr18 Se1 3.049177 1_555
Pr18 Se36 3.087273 1_555
Pr18 Se12 3.097964 1_555
Pr18 Se27 3.122652 1_555
Pr18 Se4 3.134316 1_555
Pr18 Se8 3.135188 1_555
Pr18 Se15 3.139337 1_555
Pr18 Se30 3.250856 1_555
Pr18 Se21 3.267945 1_555
Pr19 Se0 3.049177 1_655
Pr19 Se37 3.087273 1_555
Pr19 Se14 3.097964 1_555
Pr19 Se25 3.122652 1_555
Pr19 Se6 3.134316 1_655
Pr19 Se10 3.135188 1_554
Pr19 Se13 3.139337 1_555
Pr19 Se31 3.250856 1_655
Pr19 Se20 3.267945 1_655
Se20 Se28 2.520287 1_555
Se20 Se33 2.910836 1_465
Se21 Se29 2.520287 1_555
Se21 Se35 2.910836 1_455
Se22 Se30 2.520287 1_555
Se22 Se32 2.910836 1_565
Se23 Se31 2.520287 1_555
Se23 Se34 2.910836 1_555
Se24 Se32 2.520287 1_555
Se24 Se29 2.910836 1_645
Se25 Se33 2.520287 1_555
Se25 Se31 2.910836 1_655
Se26 Se34 2.520287 1_555
Se26 Se28 2.910836 1_545
Se27 Se35 2.520287 1_555
Se27 Se30 2.910836 1_555
