# generated using pymatgen
data_Er2Si4CN6
_symmetry_space_group_name_H-M   'P 1'
_cell_length_a   9.93883300
_cell_length_b   5.93819300
_cell_length_c   11.89678637
_cell_angle_alpha   60.43639453
_cell_angle_beta   90.00000000
_cell_angle_gamma   90.00000000
_symmetry_Int_Tables_number   1
_chemical_formula_structural   Er2Si4CN6
_chemical_formula_sum   'Er8 Si16 C4 N24'
_cell_volume   610.72122868
_cell_formula_units_Z   4
loop_
 _symmetry_equiv_pos_site_id
 _symmetry_equiv_pos_as_xyz
  1  'x, y, z'
loop_
 _atom_site_type_symbol
 _atom_site_label
 _atom_site_symmetry_multiplicity
 _atom_site_fract_x
 _atom_site_fract_y
 _atom_site_fract_z
 _atom_site_occupancy
  Er  Er0  1  0.08663600  0.34110900  0.91814600  1
  Er  Er1  1  0.91336400  0.65889100  0.08185400  1
  Er  Er2  1  0.58663600  0.65889100  0.58185400  1
  Er  Er3  1  0.41336400  0.34110900  0.41814600  1
  Er  Er4  1  0.93373100  0.66918700  0.59508500  1
  Er  Er5  1  0.06626900  0.33081300  0.40491500  1
  Er  Er6  1  0.43373100  0.33081300  0.90491500  1
  Er  Er7  1  0.56626900  0.66918700  0.09508500  1
  Si  Si0  1  0.28700900  0.83542800  0.92035000  1
  Si  Si1  1  0.71299100  0.16457200  0.07965000  1
  Si  Si2  1  0.78700900  0.16457200  0.57965000  1
  Si  Si3  1  0.21299100  0.83542800  0.42035000  1
  Si  Si4  1  0.27229200  0.32308900  0.65872500  1
  Si  Si5  1  0.72770800  0.67691100  0.34127500  1
  Si  Si6  1  0.77229200  0.67691100  0.84127500  1
  Si  Si7  1  0.22770800  0.32308900  0.15872500  1
  Si  Si8  1  0.02019000  0.99487200  0.74923700  1
  Si  Si9  1  0.97981000  0.00512800  0.25076300  1
  Si  Si10  1  0.52019000  0.00512800  0.75076300  1
  Si  Si11  1  0.47981000  0.99487200  0.24923700  1
  Si  Si12  1  0.29455200  0.79820600  0.67658300  1
  Si  Si13  1  0.70544800  0.20179400  0.32341700  1
  Si  Si14  1  0.79455200  0.20179400  0.82341700  1
  Si  Si15  1  0.20544800  0.79820600  0.17658300  1
  C  C0  1  0.20842900  0.97688900  0.75226100  1
  C  C1  1  0.79157100  0.02311100  0.24773900  1
  C  C2  1  0.70842900  0.02311100  0.74773900  1
  C  C3  1  0.29157100  0.97688900  0.25226100  1
  N  N0  1  0.45528700  0.94187100  0.90040500  1
  N  N1  1  0.54471300  0.05812900  0.09959500  1
  N  N2  1  0.95528700  0.05812900  0.59959500  1
  N  N3  1  0.04471300  0.94187100  0.40040500  1
  N  N4  1  0.44701100  0.30086100  0.63665200  1
  N  N5  1  0.55298900  0.69913900  0.36334800  1
  N  N6  1  0.94701100  0.69913900  0.86334800  1
  N  N7  1  0.05298900  0.30086100  0.13665200  1
  N  N8  1  0.46478100  0.75582700  0.72365900  1
  N  N9  1  0.53521900  0.24417300  0.27634100  1
  N  N10  1  0.96478100  0.24417300  0.77634100  1
  N  N11  1  0.03521900  0.75582700  0.22365900  1
  N  N12  1  0.20909800  0.49352800  0.50049900  1
  N  N13  1  0.79090200  0.50647200  0.49950100  1
  N  N14  1  0.70909800  0.50647200  0.99950100  1
  N  N15  1  0.29090200  0.49352800  0.00049900  1
  N  N16  1  0.23556200  0.48061700  0.74676200  1
  N  N17  1  0.76443800  0.51938300  0.25323800  1
  N  N18  1  0.73556200  0.51938300  0.75323800  1
  N  N19  1  0.26443800  0.48061700  0.24676200  1
  N  N20  1  0.29059500  0.95863800  0.50919400  1
  N  N21  1  0.70940500  0.04136200  0.49080600  1
  N  N22  1  0.79059500  0.04136200  0.99080600  1
  N  N23  1  0.20940500  0.95863800  0.00919400  1
loop_
_geom_bond_atom_site_label_1
_geom_bond_atom_site_label_2
_geom_bond_distance
_geom_bond_site_symmetry_2
Er0 N16 2.316800 1_555
Er0 N23 2.322247 1_546
Er0 N6 2.345877 1_455
Er0 N10 2.366939 1_455
Er0 N7 2.512644 1_556
Er0 N15 2.603013 1_556
Er1 N17 2.316800 1_555
Er1 N22 2.322247 1_564
Er1 N7 2.345877 1_655
Er1 N11 2.366939 1_655
Er1 N6 2.512644 1_554
Er1 N14 2.603013 1_554
Er2 N18 2.316800 1_555
Er2 N21 2.322247 1_565
Er2 N4 2.345877 1_555
Er2 N8 2.366939 1_555
Er2 N5 2.512644 1_555
Er2 N13 2.603013 1_555
Er3 N19 2.316800 1_555
Er3 N20 2.322247 1_545
Er3 N5 2.345877 1_555
Er3 N9 2.366939 1_555
Er3 N4 2.512644 1_555
Er3 N12 2.603013 1_555
Er4 N13 2.307824 1_555
Er4 N3 2.345657 1_655
Er4 N2 2.346353 1_565
Er4 N10 2.396763 1_555
Er4 N18 2.561058 1_555
Er5 N12 2.307824 1_555
Er5 N2 2.345657 1_455
Er5 N3 2.346353 1_545
Er5 N11 2.396763 1_555
Er5 N19 2.561058 1_555
Er6 N15 2.307824 1_556
Er6 N1 2.345657 1_556
Er6 N0 2.346353 1_545
Er6 N8 2.396763 1_555
Er6 N16 2.561058 1_555
Er7 N14 2.307824 1_554
Er7 N0 2.345657 1_554
Er7 N1 2.346353 1_565
Er7 N9 2.396763 1_555
Er7 N17 2.561058 1_555
C0 Si8 1.873255 1_555
C0 Si4 1.900017 1_565
C0 Si12 1.900462 1_555
C0 Si0 1.912293 1_555
C1 Si9 1.873255 1_555
C1 Si5 1.900017 1_545
C1 Si13 1.900462 1_555
C1 Si1 1.912293 1_555
C2 Si10 1.873255 1_555
C2 Si6 1.900017 1_545
C2 Si14 1.900462 1_555
C2 Si2 1.912293 1_555
C3 Si11 1.873255 1_555
C3 Si7 1.900017 1_565
C3 Si15 1.900462 1_555
C3 Si3 1.912293 1_555
N0 Si10 1.751183 1_565
N0 Si0 1.762113 1_555
N1 Si11 1.751183 1_545
N1 Si1 1.762113 1_555
N2 Si8 1.751183 1_645
N2 Si2 1.762113 1_555
N3 Si9 1.751183 1_465
N3 Si3 1.762113 1_555
N4 Si10 1.761643 1_555
N4 Si4 1.770883 1_555
N5 Si11 1.761643 1_555
N5 Si5 1.770883 1_555
N6 Si8 1.761643 1_655
N6 Si6 1.770883 1_555
N7 Si9 1.761643 1_455
N7 Si7 1.770883 1_555
N8 Si10 1.752103 1_565
N8 Si12 1.760785 1_555
N9 Si11 1.752103 1_545
N9 Si13 1.760785 1_555
N10 Si8 1.752103 1_645
N10 Si14 1.760785 1_555
N11 Si9 1.752103 1_465
N11 Si15 1.760785 1_555
N12 Si4 1.755623 1_555
N12 Si3 1.767026 1_555
N13 Si5 1.755623 1_555
N13 Si2 1.767026 1_555
N14 Si6 1.755623 1_555
N14 Si1 1.767026 1_556
N15 Si7 1.755623 1_555
N15 Si0 1.767026 1_554
N16 Si12 1.744622 1_555
N16 Si4 1.752721 1_555
N17 Si13 1.744622 1_555
N17 Si5 1.752721 1_555
N18 Si14 1.744622 1_555
N18 Si6 1.752721 1_555
N19 Si15 1.744622 1_555
N19 Si7 1.752721 1_555
N20 Si12 1.732833 1_555
N20 Si3 1.735065 1_555
N21 Si13 1.732833 1_555
N21 Si2 1.735065 1_555
N22 Si14 1.732833 1_555
N22 Si1 1.735065 1_556
N23 Si15 1.732833 1_555
N23 Si0 1.735065 1_554
