# generated using pymatgen
data_LiPrSn
_symmetry_space_group_name_H-M   'P 1'
_cell_length_a   9.59759604
_cell_length_b   9.59759604
_cell_length_c   7.76434500
_cell_angle_alpha   90.00000000
_cell_angle_beta   90.00000000
_cell_angle_gamma   120.00000029
_symmetry_Int_Tables_number   1
_chemical_formula_structural   LiPrSn
_chemical_formula_sum   'Li8 Pr8 Sn8'
_cell_volume   619.38457910
_cell_formula_units_Z   8
loop_
 _symmetry_equiv_pos_site_id
 _symmetry_equiv_pos_as_xyz
  1  'x, y, z'
loop_
 _atom_site_type_symbol
 _atom_site_label
 _atom_site_symmetry_multiplicity
 _atom_site_fract_x
 _atom_site_fract_y
 _atom_site_fract_z
 _atom_site_occupancy
  Li  Li0  1  0.83367200  0.16632800  0.71188200  1
  Li  Li1  1  0.83367200  0.66734300  0.71188200  1
  Li  Li2  1  0.33265700  0.16632800  0.71188200  1
  Li  Li3  1  0.16632800  0.83367200  0.21188200  1
  Li  Li4  1  0.16632800  0.33265700  0.21188200  1
  Li  Li5  1  0.66734300  0.83367200  0.21188200  1
  Li  Li6  1  0.66666700  0.33333300  0.33965000  1
  Li  Li7  1  0.33333300  0.66666700  0.83965000  1
  Pr  Pr0  1  0.48713300  0.51286700  0.50438800  1
  Pr  Pr1  1  0.48713300  0.97426600  0.50438800  1
  Pr  Pr2  1  0.02573400  0.51286700  0.50438800  1
  Pr  Pr3  1  0.51286700  0.48713300  0.00438800  1
  Pr  Pr4  1  0.51286700  0.02573400  0.00438800  1
  Pr  Pr5  1  0.97426600  0.48713300  0.00438800  1
  Pr  Pr6  1  0.00000000  0.00000000  0.49734300  1
  Pr  Pr7  1  0.00000000  0.00000000  0.99734300  1
  Sn  Sn0  1  0.83296800  0.16703200  0.27117800  1
  Sn  Sn1  1  0.83296800  0.66593600  0.27117800  1
  Sn  Sn2  1  0.33406400  0.16703200  0.27117800  1
  Sn  Sn3  1  0.16703200  0.83296800  0.77117800  1
  Sn  Sn4  1  0.16703200  0.33406400  0.77117800  1
  Sn  Sn5  1  0.66593600  0.83296800  0.77117800  1
  Sn  Sn6  1  0.66666700  0.33333300  0.72966600  1
  Sn  Sn7  1  0.33333300  0.66666700  0.22966600  1
loop_
_geom_bond_atom_site_label_1
_geom_bond_atom_site_label_2
_geom_bond_distance
_geom_bond_site_symmetry_2
Li0 Sn6 2.779643 1_555
Li0 Sn4 2.808816 1_655
Li0 Sn5 2.808816 1_545
Li0 Pr6 3.227961 1_655
Li0 Pr2 3.305215 1_655
Li0 Pr1 3.305215 1_545
Li0 Pr5 3.507720 1_556
Li0 Pr4 3.507720 1_556
Li0 Pr7 3.543656 1_655
Li1 Sn6 2.779643 1_555
Li1 Sn3 2.808816 1_655
Li1 Sn5 2.808824 1_555
Li1 Pr6 3.227968 1_665
Li1 Pr2 3.305208 1_655
Li1 Pr0 3.305215 1_555
Li1 Pr5 3.507713 1_556
Li1 Pr3 3.507719 1_556
Li1 Pr7 3.543662 1_665
Li2 Sn6 2.779643 1_555
Li2 Sn3 2.808816 1_545
Li2 Sn4 2.808824 1_555
Li2 Pr6 3.227968 1_555
Li2 Pr1 3.305208 1_545
Li2 Pr0 3.305215 1_555
Li2 Pr4 3.507713 1_556
Li2 Pr3 3.507719 1_556
Li2 Pr7 3.543662 1_555
Li3 Sn7 2.779643 1_555
Li3 Sn2 2.808816 1_565
Li3 Sn1 2.808816 1_455
Li3 Pr7 3.227961 1_564
Li3 Pr4 3.305215 1_565
Li3 Pr5 3.305215 1_455
Li3 Pr2 3.507720 1_555
Li3 Pr1 3.507720 1_555
Li3 Pr6 3.543656 1_565
Li4 Sn7 2.779643 1_555
Li4 Sn0 2.808816 1_455
Li4 Sn2 2.808824 1_555
Li4 Pr7 3.227968 1_554
Li4 Pr5 3.305208 1_455
Li4 Pr3 3.305215 1_555
Li4 Pr2 3.507713 1_555
Li4 Pr0 3.507719 1_555
Li4 Pr6 3.543662 1_555
Li5 Sn7 2.779643 1_555
Li5 Sn0 2.808816 1_565
Li5 Sn1 2.808824 1_555
Li5 Pr7 3.227968 1_664
Li5 Pr4 3.305208 1_565
Li5 Pr3 3.305215 1_555
Li5 Pr1 3.507713 1_555
Li5 Pr0 3.507719 1_555
Li5 Pr6 3.543662 1_665
Li6 Sn0 2.815164 1_555
Li6 Sn1 2.815172 1_555
Li6 Sn2 2.815172 1_555
Li6 Sn6 3.028219 1_555
Li6 Pr2 3.247025 1_655
Li6 Pr1 3.247025 1_545
Li6 Pr0 3.247032 1_555
Li6 Pr4 3.648663 1_555
Li6 Pr5 3.648663 1_555
Li6 Pr3 3.648668 1_555
Li7 Sn3 2.815164 1_555
Li7 Sn5 2.815172 1_555
Li7 Sn4 2.815172 1_555
Li7 Sn7 3.028219 1_556
Li7 Pr4 3.247025 1_566
Li7 Pr5 3.247025 1_456
Li7 Pr3 3.247032 1_556
Li7 Pr1 3.648663 1_555
Li7 Pr2 3.648663 1_555
Li7 Pr0 3.648668 1_555
Pr0 Sn7 3.329647 1_555
Pr0 Sn5 3.376700 1_555
Pr0 Sn4 3.376700 1_555
Pr0 Sn1 3.402609 1_555
Pr0 Sn2 3.402609 1_555
Pr0 Sn6 3.459284 1_555
Pr0 Pr3 3.905671 1_556
Pr0 Pr3 3.905671 1_555
Pr1 Sn7 3.329641 1_555
Pr1 Sn3 3.376700 1_555
Pr1 Sn5 3.376700 1_555
Pr1 Sn0 3.402609 1_565
Pr1 Sn2 3.402609 1_565
Pr1 Sn6 3.459277 1_565
Pr1 Pr4 3.905671 1_566
Pr1 Pr4 3.905671 1_565
Pr2 Sn7 3.329641 1_555
Pr2 Sn3 3.376700 1_555
Pr2 Sn4 3.376700 1_555
Pr2 Sn0 3.402609 1_455
Pr2 Sn1 3.402609 1_455
Pr2 Sn6 3.459277 1_455
Pr2 Pr5 3.905671 1_456
Pr2 Pr5 3.905671 1_455
Pr3 Sn6 3.329647 1_554
Pr3 Sn1 3.376700 1_555
Pr3 Sn2 3.376700 1_555
Pr3 Sn5 3.402609 1_554
Pr3 Sn4 3.402609 1_554
Pr3 Sn7 3.459284 1_555
Pr4 Sn6 3.329641 1_554
Pr4 Sn0 3.376700 1_555
Pr4 Sn2 3.376700 1_555
Pr4 Sn3 3.402609 1_544
Pr4 Sn5 3.402609 1_544
Pr4 Sn7 3.459277 1_545
Pr5 Sn6 3.329641 1_554
Pr5 Sn0 3.376700 1_555
Pr5 Sn1 3.376700 1_555
Pr5 Sn3 3.402609 1_654
Pr5 Sn4 3.402609 1_654
Pr5 Sn7 3.459277 1_655
Pr6 Sn2 3.285340 1_555
Pr6 Sn1 3.285340 1_445
Pr6 Sn0 3.285340 1_455
Pr6 Sn4 3.497192 1_555
Pr6 Sn5 3.497192 1_445
Pr6 Sn3 3.497192 1_545
Pr6 Pr7 3.882172 1_555
Pr6 Pr7 3.882172 1_554
Pr7 Sn4 3.285340 1_555
Pr7 Sn5 3.285340 1_445
Pr7 Sn3 3.285340 1_545
Pr7 Sn2 3.497192 1_556
Pr7 Sn1 3.497192 1_446
Pr7 Sn0 3.497192 1_456
