# generated using pymatgen
data_FeSnO6
_symmetry_space_group_name_H-M   'P 1'
_cell_length_a   5.44434321
_cell_length_b   5.44434321
_cell_length_c   5.44434321
_cell_angle_alpha   60.00000000
_cell_angle_beta   60.00000000
_cell_angle_gamma   60.00000000
_symmetry_Int_Tables_number   1
_chemical_formula_structural   FeSnO6
_chemical_formula_sum   'Fe1 Sn1 O6'
_cell_volume   114.10941708
_cell_formula_units_Z   1
loop_
 _symmetry_equiv_pos_site_id
 _symmetry_equiv_pos_as_xyz
  1  'x, y, z'
loop_
 _atom_site_type_symbol
 _atom_site_label
 _atom_site_symmetry_multiplicity
 _atom_site_fract_x
 _atom_site_fract_y
 _atom_site_fract_z
 _atom_site_occupancy
  Fe  Fe0  1  0.50000000  0.50000000  0.50000000  1
  Sn  Sn0  1  0.00000000  0.00000000  0.00000000  1
  O  O0  1  0.26348100  0.26348100  0.73651900  1
  O  O1  1  0.73651900  0.73651900  0.26348100  1
  O  O2  1  0.26348100  0.73651900  0.73651900  1
  O  O3  1  0.73651900  0.26348100  0.26348100  1
  O  O4  1  0.73651900  0.26348100  0.73651900  1
  O  O5  1  0.26348100  0.73651900  0.26348100  1
loop_
_geom_bond_atom_site_label_1
_geom_bond_atom_site_label_2
_geom_bond_distance
_geom_bond_site_symmetry_2
Fe0 O2 1.821070 1_555
Fe0 O4 1.821070 1_555
Fe0 O1 1.821070 1_555
Fe0 O3 1.821070 1_555
Fe0 O5 1.821070 1_555
Fe0 O0 1.821070 1_555
O0 Sn0 2.028662 1_556
O1 Sn0 2.028662 1_665
O2 Sn0 2.028662 1_566
O3 Sn0 2.028662 1_655
O4 Sn0 2.028662 1_656
O5 Sn0 2.028662 1_565
