# generated using pymatgen
data_Ba4CeEu3Tl2(Cu2O9)2
_symmetry_space_group_name_H-M   'P 1'
_cell_length_a   3.88246178
_cell_length_b   15.93140506
_cell_length_c   7.74812167
_cell_angle_alpha   96.96408388
_cell_angle_beta   90.01128322
_cell_angle_gamma   82.99950101
_symmetry_Int_Tables_number   1
_chemical_formula_structural   Ba4CeEu3Tl2(Cu2O9)2
_chemical_formula_sum   'Ba4 Ce1 Eu3 Tl2 Cu4 O18'
_cell_volume   472.11134054
_cell_formula_units_Z   1
loop_
 _symmetry_equiv_pos_site_id
 _symmetry_equiv_pos_as_xyz
  1  'x, y, z'
loop_
 _atom_site_type_symbol
 _atom_site_label
 _atom_site_symmetry_multiplicity
 _atom_site_fract_x
 _atom_site_fract_y
 _atom_site_fract_z
 _atom_site_occupancy
  Ba  Ba0  1  0.58493559  0.83023920  0.70736174  1
  Ba  Ba1  1  0.58501450  0.83014359  0.20771752  1
  Ba  Ba2  1  0.41543344  0.16917956  0.29231250  1
  Ba  Ba3  1  0.41519669  0.16977059  0.79237181  1
  Ce  Ce0  1  0.29022541  0.41956200  0.35480856  1
  Eu  Eu0  1  0.70810516  0.58356752  0.14459755  1
  Eu  Eu1  1  0.70818153  0.58354805  0.64727656  1
  Eu  Eu2  1  0.29134854  0.41748898  0.85441747  1
  Tl  Tl0  1  0.94775763  0.00008754  0.99986649  1
  Tl  Tl1  1  0.05298765  0.99991862  0.50001022  1
  Cu  Cu0  1  0.15125762  0.69868438  0.42477344  1
  Cu  Cu1  1  0.14864691  0.70057943  0.92520932  1
  Cu  Cu2  1  0.85061194  0.30099002  0.57573543  1
  Cu  Cu3  1  0.84890324  0.30116396  0.07459214  1
  O  O0  1  0.65781273  0.68587006  0.42154279  1
  O  O1  1  0.65414786  0.68912218  0.92224247  1
  O  O2  1  0.15590463  0.68779460  0.67271648  1
  O  O3  1  0.15583940  0.68787878  0.17140908  1
  O  O4  1  0.34482532  0.31291990  0.57265141  1
  O  O5  1  0.34287360  0.31294593  0.08383384  1
  O  O6  1  0.84271351  0.31508872  0.32864123  1
  O  O7  1  0.84426833  0.31190543  0.82784604  1
  O  O8  1  0.49988904  0.99990496  0.25034154  1
  O  O9  1  0.49947131  0.00021584  0.74975355  1
  O  O10  1  0.07726150  0.86515211  0.46633143  1
  O  O11  1  0.05729472  0.86559932  0.96623002  1
  O  O12  1  0.94242127  0.13478108  0.53352329  1
  O  O13  1  0.92259278  0.13477060  0.03391263  1
  O  O14  1  0.75259992  0.49449535  0.37374056  1
  O  O15  1  0.74960503  0.50095108  0.87529351  1
  O  O16  1  0.25084317  0.49784808  0.61661841  1
  O  O17  1  0.25103001  0.49783258  0.13232093  1
loop_
_geom_bond_atom_site_label_1
_geom_bond_atom_site_label_2
_geom_bond_distance
_geom_bond_site_symmetry_2
Ba0 O9 2.667658 1_565
Ba0 O10 2.768609 1_555
Ba0 O11 2.771278 1_655
Ba0 O10 2.821894 1_655
Ba0 O11 2.825458 1_555
Ba0 O1 2.942580 1_555
Ba0 O2 2.960118 1_655
Ba0 O2 2.961423 1_555
Ba0 O0 2.980071 1_555
Ba1 O8 2.664280 1_555
Ba1 O10 2.770355 1_555
Ba1 O11 2.773485 1_654
Ba1 O10 2.822392 1_655
Ba1 O11 2.826740 1_554
Ba1 O1 2.942828 1_554
Ba1 O3 2.957851 1_655
Ba1 O3 2.959430 1_555
Ba1 O0 2.978687 1_555
Ba2 O8 2.656640 1_545
Ba2 O13 2.767369 1_555
Ba2 O12 2.767817 1_455
Ba2 O12 2.820094 1_555
Ba2 O13 2.821032 1_455
Ba2 O5 2.945208 1_555
Ba2 O4 2.945884 1_555
Ba2 O6 3.001434 1_455
Ba2 O6 3.002627 1_555
Ba3 O9 2.661038 1_555
Ba3 O13 2.770906 1_556
Ba3 O12 2.771129 1_455
Ba3 O12 2.824079 1_555
Ba3 O13 2.825864 1_456
Ba3 O7 2.956732 1_455
Ba3 O7 2.957455 1_555
Ba3 O4 2.993877 1_555
Ba3 O5 2.996096 1_556
Ce0 O17 2.241578 1_555
Ce0 O16 2.243654 1_555
Ce0 O14 2.269150 1_555
Ce0 O14 2.270195 1_455
Ce0 O5 2.526991 1_555
Ce0 O4 2.527403 1_555
Ce0 O6 2.540277 1_455
Ce0 O6 2.541757 1_555
Eu0 O15 2.322648 1_554
Eu0 O17 2.362848 1_555
Eu0 O17 2.363180 1_655
Eu0 O14 2.397237 1_555
Eu0 O0 2.524570 1_555
Eu0 O3 2.539063 1_655
Eu0 O3 2.539706 1_555
Eu0 O1 2.540959 1_554
Eu1 O15 2.321790 1_555
Eu1 O16 2.362155 1_655
Eu1 O16 2.363344 1_555
Eu1 O14 2.397024 1_555
Eu1 O0 2.523522 1_555
Eu1 O2 2.538276 1_655
Eu1 O2 2.539175 1_555
Eu1 O1 2.541078 1_555
Eu2 O15 2.341792 1_555
Eu2 O15 2.341862 1_455
Eu2 O16 2.362484 1_555
Eu2 O17 2.362672 1_556
Eu2 O7 2.551924 1_455
Eu2 O7 2.552668 1_555
Eu2 O5 2.571030 1_556
Eu2 O4 2.572651 1_555
Cu0 O3 1.949621 1_555
Cu0 O2 1.949632 1_555
Cu0 O0 1.951050 1_455
Cu0 O0 1.952191 1_555
Cu0 O10 2.612834 1_555
Cu1 O2 1.942051 1_555
Cu1 O3 1.942371 1_556
Cu1 O1 1.948660 1_555
Cu1 O1 1.950422 1_455
Cu1 O11 2.590092 1_555
Cu2 O7 1.939886 1_555
Cu2 O4 1.950105 1_555
Cu2 O4 1.951503 1_655
Cu2 O6 1.954313 1_555
Cu2 O12 2.608752 1_555
Cu3 O7 1.939905 1_554
Cu3 O5 1.950085 1_655
Cu3 O5 1.951174 1_555
Cu3 O6 1.953773 1_555
Cu3 O13 2.611689 1_555
O8 Tl1 2.598802 1_555
O8 Tl0 2.606499 1_564
O9 Tl1 2.597640 1_545
O9 Tl0 2.604502 1_555
O10 Tl1 2.121673 1_555
O11 Tl0 2.117070 1_465
O12 Tl1 2.123181 1_645
O13 Tl0 2.120088 1_554
