# generated using pymatgen
data_MgSi2O5
_symmetry_space_group_name_H-M   'P 1'
_cell_length_a   5.35664800
_cell_length_b   6.94426500
_cell_length_c   7.73486600
_cell_angle_alpha   90.00000000
_cell_angle_beta   90.00000000
_cell_angle_gamma   90.00000000
_symmetry_Int_Tables_number   1
_chemical_formula_structural   MgSi2O5
_chemical_formula_sum   'Mg4 Si8 O20'
_cell_volume   287.72141571
_cell_formula_units_Z   4
loop_
 _symmetry_equiv_pos_site_id
 _symmetry_equiv_pos_as_xyz
  1  'x, y, z'
loop_
 _atom_site_type_symbol
 _atom_site_label
 _atom_site_symmetry_multiplicity
 _atom_site_fract_x
 _atom_site_fract_y
 _atom_site_fract_z
 _atom_site_occupancy
  Mg  Mg0  1  0.00000000  0.85440200  0.66111100  1
  Mg  Mg1  1  0.00000000  0.35440200  0.83888900  1
  Mg  Mg2  1  0.00000000  0.14559800  0.33888900  1
  Mg  Mg3  1  0.00000000  0.64559800  0.16111100  1
  Si  Si0  1  0.50000000  0.88721400  0.35403900  1
  Si  Si1  1  0.50000000  0.38721400  0.14596100  1
  Si  Si2  1  0.50000000  0.11278600  0.64596100  1
  Si  Si3  1  0.50000000  0.61278600  0.85403900  1
  Si  Si4  1  0.75501000  0.50000000  0.50000000  1
  Si  Si5  1  0.24499000  0.00000000  0.00000000  1
  Si  Si6  1  0.24499000  0.50000000  0.50000000  1
  Si  Si7  1  0.75501000  0.00000000  0.00000000  1
  O  O0  1  0.73941200  0.88658900  0.20507500  1
  O  O1  1  0.26058800  0.38658900  0.29492500  1
  O  O2  1  0.26058800  0.11341100  0.79492500  1
  O  O3  1  0.73941200  0.61341100  0.70507500  1
  O  O4  1  0.26058800  0.61341100  0.70507500  1
  O  O5  1  0.73941200  0.11341100  0.79492500  1
  O  O6  1  0.73941200  0.38658900  0.29492500  1
  O  O7  1  0.26058800  0.88658900  0.20507500  1
  O  O8  1  0.71228200  0.00000000  0.50000000  1
  O  O9  1  0.28771800  0.50000000  0.00000000  1
  O  O10  1  0.28771800  0.00000000  0.50000000  1
  O  O11  1  0.71228200  0.50000000  0.00000000  1
  O  O12  1  0.00000000  0.34475500  0.56336900  1
  O  O13  1  0.00000000  0.84475500  0.93663100  1
  O  O14  1  0.00000000  0.65524500  0.43663100  1
  O  O15  1  0.00000000  0.15524500  0.06336900  1
  O  O16  1  0.50000000  0.65561200  0.42523900  1
  O  O17  1  0.50000000  0.15561200  0.07476100  1
  O  O18  1  0.50000000  0.34438800  0.57476100  1
  O  O19  1  0.50000000  0.84438800  0.92523900  1
loop_
_geom_bond_atom_site_label_1
_geom_bond_atom_site_label_2
_geom_bond_distance
_geom_bond_site_symmetry_2
Mg0 O13 2.132163 1_555
Mg0 O3 2.205614 1_455
Mg0 O4 2.205614 1_555
Mg0 O14 2.219798 1_555
Mg0 O10 2.224976 1_565
Mg0 O8 2.224976 1_465
Mg0 O5 2.500966 1_465
Mg0 O2 2.500966 1_565
Mg1 O12 2.132163 1_555
Mg1 O2 2.205614 1_555
Mg1 O5 2.205614 1_455
Mg1 O15 2.219798 1_556
Mg1 O9 2.224976 1_556
Mg1 O11 2.224976 1_456
Mg1 O4 2.500966 1_555
Mg1 O3 2.500966 1_455
Mg2 O15 2.132163 1_555
Mg2 O1 2.205614 1_555
Mg2 O6 2.205614 1_455
Mg2 O12 2.219798 1_555
Mg2 O10 2.224976 1_555
Mg2 O8 2.224976 1_455
Mg2 O7 2.500966 1_545
Mg2 O0 2.500966 1_445
Mg3 O14 2.132163 1_555
Mg3 O0 2.205614 1_455
Mg3 O7 2.205614 1_555
Mg3 O13 2.219798 1_554
Mg3 O9 2.224976 1_555
Mg3 O11 2.224976 1_455
Mg3 O1 2.500966 1_555
Mg3 O6 2.500966 1_455
O0 Si0 1.724033 1_555
O0 Si7 1.772948 1_565
O1 Si1 1.724033 1_555
O1 Si6 1.772948 1_555
O2 Si2 1.724033 1_555
O2 Si5 1.772948 1_556
O3 Si3 1.724033 1_555
O3 Si4 1.772948 1_555
O4 Si3 1.724033 1_555
O4 Si6 1.772948 1_555
O5 Si2 1.724033 1_555
O5 Si7 1.772948 1_556
O6 Si1 1.724033 1_555
O6 Si4 1.772948 1_555
O7 Si0 1.724033 1_555
O7 Si5 1.772948 1_565
O8 Si2 1.783560 1_555
O8 Si0 1.783560 1_545
O9 Si1 1.783560 1_555
O9 Si3 1.783560 1_554
O10 Si0 1.783560 1_545
O10 Si2 1.783560 1_555
O11 Si1 1.783560 1_555
O11 Si3 1.783560 1_554
O12 Si6 1.767672 1_555
O12 Si4 1.767672 1_455
O13 Si7 1.767672 1_466
O13 Si5 1.767672 1_566
O14 Si6 1.767672 1_555
O14 Si4 1.767672 1_455
O15 Si5 1.767672 1_555
O15 Si7 1.767672 1_455
O16 Si0 1.699983 1_555
O16 Si6 1.835229 1_555
O16 Si4 1.835229 1_555
O17 Si1 1.699983 1_555
O17 Si5 1.835229 1_555
O17 Si7 1.835229 1_555
O18 Si2 1.699983 1_555
O18 Si4 1.835229 1_555
O18 Si6 1.835229 1_555
O19 Si3 1.699983 1_555
O19 Si7 1.835229 1_566
O19 Si5 1.835229 1_566
