# generated using pymatgen
data_VMo
_symmetry_space_group_name_H-M   'P 1'
_cell_length_a   2.70361310
_cell_length_b   2.70361310
_cell_length_c   4.22901263
_cell_angle_alpha   90.00000000
_cell_angle_beta   90.00000000
_cell_angle_gamma   110.69451162
_symmetry_Int_Tables_number   1
_chemical_formula_structural   VMo
_chemical_formula_sum   'V1 Mo1'
_cell_volume   28.91755647
_cell_formula_units_Z   1
loop_
 _symmetry_equiv_pos_site_id
 _symmetry_equiv_pos_as_xyz
  1  'x, y, z'
loop_
 _atom_site_type_symbol
 _atom_site_label
 _atom_site_symmetry_multiplicity
 _atom_site_fract_x
 _atom_site_fract_y
 _atom_site_fract_z
 _atom_site_occupancy
  V  V0  1  0.50000000  0.50000000  0.50000000  1
  Mo  Mo0  1  0.00000000  0.00000000  -0.00000000  1
loop_
_geom_bond_atom_site_label_1
_geom_bond_atom_site_label_2
_geom_bond_distance
_geom_bond_site_symmetry_2
Mo0 V0 2.614261 1_555
Mo0 V0 2.614261 1_554
Mo0 V0 2.614261 1_445
Mo0 V0 2.614261 1_444
