# generated using pymatgen
data_FeNi2
_symmetry_space_group_name_H-M   'P 1'
_cell_length_a   4.63166114
_cell_length_b   4.63166114
_cell_length_c   4.63166114
_cell_angle_alpha   60.00000000
_cell_angle_beta   60.00000000
_cell_angle_gamma   60.00000000
_symmetry_Int_Tables_number   1
_chemical_formula_structural   FeNi2
_chemical_formula_sum   'Fe2 Ni4'
_cell_volume   70.25792782
_cell_formula_units_Z   2
loop_
 _symmetry_equiv_pos_site_id
 _symmetry_equiv_pos_as_xyz
  1  'x, y, z'
loop_
 _atom_site_type_symbol
 _atom_site_label
 _atom_site_symmetry_multiplicity
 _atom_site_fract_x
 _atom_site_fract_y
 _atom_site_fract_z
 _atom_site_occupancy
  Fe  Fe0  1  0.25000000  0.25000000  0.25000000  1
  Fe  Fe1  1  0.00000000  0.00000000  0.00000000  1
  Ni  Ni0  1  0.62500000  0.62500000  0.12500000  1
  Ni  Ni1  1  0.62500000  0.12500000  0.62500000  1
  Ni  Ni2  1  0.12500000  0.62500000  0.62500000  1
  Ni  Ni3  1  0.62500000  0.62500000  0.62500000  1
loop_
_geom_bond_atom_site_label_1
_geom_bond_atom_site_label_2
_geom_bond_distance
_geom_bond_site_symmetry_2
Fe0 Ni1 2.715552 1_455
Fe0 Ni0 2.715552 1_545
Fe0 Ni0 2.715552 1_455
Fe0 Ni3 2.715552 1_554
Fe0 Ni1 2.715552 1_554
Fe0 Ni2 2.715552 1_545
Fe0 Ni0 2.715552 1_555
Fe0 Ni3 2.715552 1_455
Fe0 Ni1 2.715552 1_555
Fe0 Ni3 2.715552 1_545
Fe0 Ni2 2.715552 1_554
Fe0 Ni2 2.715552 1_555
Fe0 Fe1 2.836302 1_555
Fe0 Fe1 2.836302 1_565
Fe0 Fe1 2.836302 1_655
Fe0 Fe1 2.836302 1_556
Fe1 Ni0 2.715552 1_545
Fe1 Ni0 2.715552 1_455
Fe1 Ni1 2.715552 1_554
Fe1 Ni2 2.715552 1_544
Fe1 Ni2 2.715552 1_545
Fe1 Ni3 2.715552 1_445
Fe1 Ni3 2.715552 1_544
Fe1 Ni1 2.715552 1_455
Fe1 Ni0 2.715552 1_445
Fe1 Ni3 2.715552 1_454
Fe1 Ni1 2.715552 1_454
Fe1 Ni2 2.715552 1_554
Ni0 Ni3 2.315831 1_554
Ni0 Ni1 2.315831 1_564
Ni0 Ni2 2.315831 1_654
Ni0 Ni3 2.315831 1_555
Ni0 Ni1 2.315831 1_555
Ni0 Ni2 2.315831 1_555
Ni1 Ni3 2.315831 1_555
Ni1 Ni3 2.315831 1_545
Ni1 Ni2 2.315831 1_645
Ni1 Ni2 2.315831 1_555
Ni2 Ni3 2.315831 1_555
Ni2 Ni3 2.315831 1_455
