# generated using pymatgen
data_TaCr3(CuS4)2
_symmetry_space_group_name_H-M   'P 1'
_cell_length_a   7.12130600
_cell_length_b   6.48873600
_cell_length_c   12.44371856
_cell_angle_alpha   81.24844218
_cell_angle_beta   90.00000000
_cell_angle_gamma   90.00000000
_symmetry_Int_Tables_number   1
_chemical_formula_structural   TaCr3(CuS4)2
_chemical_formula_sum   'Ta2 Cr6 Cu4 S16'
_cell_volume   568.30822230
_cell_formula_units_Z   2
loop_
 _symmetry_equiv_pos_site_id
 _symmetry_equiv_pos_as_xyz
  1  'x, y, z'
loop_
 _atom_site_type_symbol
 _atom_site_label
 _atom_site_symmetry_multiplicity
 _atom_site_fract_x
 _atom_site_fract_y
 _atom_site_fract_z
 _atom_site_occupancy
  Ta  Ta0  1  0.25000000  0.50743500  0.82201600  1
  Ta  Ta1  1  0.75000000  0.49256500  0.17798400  1
  Cr  Cr0  1  0.75000000  0.01219500  0.27311200  1
  Cr  Cr1  1  0.25000000  0.98780500  0.72688800  1
  Cr  Cr2  1  0.25000000  0.12109900  0.92946400  1
  Cr  Cr3  1  0.75000000  0.87890100  0.07053600  1
  Cr  Cr4  1  0.75000000  0.39231300  0.42966900  1
  Cr  Cr5  1  0.25000000  0.60768700  0.57033100  1
  Cu  Cu0  1  0.25000000  0.16536600  0.40363500  1
  Cu  Cu1  1  0.75000000  0.83463400  0.59636500  1
  Cu  Cu2  1  0.75000000  0.25618200  0.89646900  1
  Cu  Cu3  1  0.25000000  0.74381800  0.10353100  1
  S  S0  1  0.47759300  0.22069200  0.80763800  1
  S  S1  1  0.52240700  0.77930800  0.19236200  1
  S  S2  1  0.53597000  0.27330400  0.31663600  1
  S  S3  1  0.46403000  0.72669600  0.68336400  1
  S  S4  1  0.03597000  0.72669600  0.68336400  1
  S  S5  1  0.96403000  0.27330400  0.31663600  1
  S  S6  1  0.97759300  0.77930800  0.19236200  1
  S  S7  1  0.02240700  0.22069200  0.80763800  1
  S  S8  1  0.25000000  0.81589100  0.42331800  1
  S  S9  1  0.75000000  0.18410900  0.57668200  1
  S  S10  1  0.75000000  0.62886300  0.97360400  1
  S  S11  1  0.25000000  0.37113700  0.02639600  1
  S  S12  1  0.75000000  0.21068900  0.08008500  1
  S  S13  1  0.25000000  0.78931100  0.91991500  1
  S  S14  1  0.25000000  0.26591600  0.57139100  1
  S  S15  1  0.75000000  0.73408400  0.42860900  1
loop_
_geom_bond_atom_site_label_1
_geom_bond_atom_site_label_2
_geom_bond_distance
_geom_bond_site_symmetry_2
Cr0 S5 2.401293 1_555
Cr0 S2 2.401293 1_555
Cr0 S15 2.436813 1_545
Cr0 S6 2.526293 1_545
Cr0 S1 2.526293 1_545
Cr0 S12 2.546949 1_555
Cr1 S3 2.401293 1_555
Cr1 S4 2.401293 1_555
Cr1 S14 2.436813 1_565
Cr1 S7 2.526293 1_565
Cr1 S0 2.526293 1_565
Cr1 S13 2.546949 1_555
Cr2 S11 2.163953 1_556
Cr2 S13 2.174138 1_545
Cr2 S7 2.246002 1_555
Cr2 S0 2.246002 1_555
Cr3 S10 2.163953 1_554
Cr3 S12 2.174138 1_565
Cr3 S6 2.246002 1_555
Cr3 S1 2.246002 1_555
Cr4 S9 2.102318 1_555
Cr4 S15 2.215693 1_555
Cr4 S5 2.286554 1_555
Cr4 S2 2.286554 1_555
Cr5 S8 2.102318 1_555
Cr5 S14 2.215693 1_555
Cr5 S4 2.286554 1_555
Cr5 S3 2.286554 1_555
Cu0 S8 2.243484 1_545
Cu0 S14 2.279874 1_555
Cu0 S2 2.362003 1_555
Cu0 S5 2.362003 1_455
Cu1 S9 2.243484 1_565
Cu1 S15 2.279874 1_555
Cu1 S3 2.362003 1_555
Cu1 S4 2.362003 1_655
Cu2 S12 2.258873 1_556
Cu2 S0 2.261761 1_555
Cu2 S7 2.261761 1_655
Cu2 S10 2.734128 1_555
Cu3 S13 2.258873 1_554
Cu3 S1 2.261761 1_555
Cu3 S6 2.261761 1_455
Cu3 S11 2.734128 1_555
S0 Ta0 2.494394 1_555
S1 Ta1 2.494394 1_555
S2 Ta1 2.564588 1_555
S3 Ta0 2.564588 1_555
S4 Ta0 2.564588 1_555
S5 Ta1 2.564588 1_555
S6 Ta1 2.494394 1_555
S7 Ta0 2.494394 1_555
S10 Ta1 2.562386 1_556
S11 Ta0 2.562386 1_554
S12 Ta1 2.346789 1_555
S13 Ta0 2.346789 1_555
