# generated using pymatgen
data_Mg2Be3P3H13O19
_symmetry_space_group_name_H-M   'P 1'
_cell_length_a   10.03532132
_cell_length_b   10.03532132
_cell_length_c   8.21370800
_cell_angle_alpha   90.00000000
_cell_angle_beta   90.00000000
_cell_angle_gamma   119.99999551
_symmetry_Int_Tables_number   1
_chemical_formula_structural   Mg2Be3P3H13O19
_chemical_formula_sum   'Mg4 Be6 P6 H26 O38'
_cell_volume   716.36189406
_cell_formula_units_Z   2
loop_
 _symmetry_equiv_pos_site_id
 _symmetry_equiv_pos_as_xyz
  1  'x, y, z'
loop_
 _atom_site_type_symbol
 _atom_site_label
 _atom_site_symmetry_multiplicity
 _atom_site_fract_x
 _atom_site_fract_y
 _atom_site_fract_z
 _atom_site_occupancy
  Mg  Mg0  1  0.66666700  0.33333300  0.45032500  1
  Mg  Mg1  1  0.33333300  0.66666700  0.95032500  1
  Mg  Mg2  1  0.66666700  0.33333300  0.09910900  1
  Mg  Mg3  1  0.33333300  0.66666700  0.59910900  1
  Be  Be0  1  0.92039200  0.80443200  0.92458800  1
  Be  Be1  1  0.19556800  0.11596000  0.92458800  1
  Be  Be2  1  0.88404000  0.07960800  0.92458800  1
  Be  Be3  1  0.07960800  0.19556800  0.42458800  1
  Be  Be4  1  0.80443200  0.88404000  0.42458800  1
  Be  Be5  1  0.11596000  0.92039200  0.42458800  1
  P  P0  1  0.87291600  0.68496000  0.24920700  1
  P  P1  1  0.31504000  0.18795600  0.24920700  1
  P  P2  1  0.81204400  0.12708400  0.24920700  1
  P  P3  1  0.12708400  0.31504000  0.74920700  1
  P  P4  1  0.68496000  0.81204400  0.74920700  1
  P  P5  1  0.18795600  0.87291600  0.74920700  1
  H  H0  1  0.00000000  0.00000000  0.09517700  1
  H  H1  1  0.00000000  0.00000000  0.59517700  1
  H  H2  1  0.87641700  0.59928000  0.61658900  1
  H  H3  1  0.40072000  0.27713700  0.61658900  1
  H  H4  1  0.72286300  0.12358300  0.61658900  1
  H  H5  1  0.12358300  0.40072000  0.11658900  1
  H  H6  1  0.59928000  0.72286300  0.11658900  1
  H  H7  1  0.27713700  0.87641700  0.11658900  1
  H  H8  1  0.83862200  0.45673700  0.72515400  1
  H  H9  1  0.54326300  0.38188500  0.72515400  1
  H  H10  1  0.61811500  0.16137800  0.72515400  1
  H  H11  1  0.16137800  0.54326300  0.22515400  1
  H  H12  1  0.45673700  0.61811500  0.22515400  1
  H  H13  1  0.38188500  0.83862200  0.22515400  1
  H  H14  1  0.62341600  0.54476300  0.93312500  1
  H  H15  1  0.45523700  0.07865300  0.93312500  1
  H  H16  1  0.92134700  0.37658400  0.93312500  1
  H  H17  1  0.37658400  0.45523700  0.43312500  1
  H  H18  1  0.54476300  0.92134700  0.43312500  1
  H  H19  1  0.07865300  0.62341600  0.43312500  1
  H  H20  1  0.46458500  0.39344000  0.98850000  1
  H  H21  1  0.60656000  0.07114500  0.98850000  1
  H  H22  1  0.92885500  0.53541500  0.98850000  1
  H  H23  1  0.53541500  0.60656000  0.48850000  1
  H  H24  1  0.39344000  0.92885500  0.48850000  1
  H  H25  1  0.07114500  0.46458500  0.48850000  1
  O  O0  1  0.79582400  0.78486700  0.26784600  1
  O  O1  1  0.21513300  0.01095700  0.26784600  1
  O  O2  1  0.98904300  0.20417600  0.26784600  1
  O  O3  1  0.20417600  0.21513300  0.76784600  1
  O  O4  1  0.78486700  0.98904300  0.76784600  1
  O  O5  1  0.01095700  0.79582400  0.76784600  1
  O  O6  1  0.94059900  0.71105100  0.07395200  1
  O  O7  1  0.28894900  0.22954900  0.07395200  1
  O  O8  1  0.77045100  0.05940100  0.07395200  1
  O  O9  1  0.05940100  0.28894900  0.57395200  1
  O  O10  1  0.71105100  0.77045100  0.57395200  1
  O  O11  1  0.22954900  0.94059900  0.57395200  1
  O  O12  1  0.00402600  0.73940400  0.37866300  1
  O  O13  1  0.26059600  0.26462200  0.37866300  1
  O  O14  1  0.73537800  0.99597400  0.37866300  1
  O  O15  1  0.99597400  0.26059600  0.87866300  1
  O  O16  1  0.73940400  0.73537800  0.87866300  1
  O  O17  1  0.26462200  0.00402600  0.87866300  1
  O  O18  1  0.75904800  0.51221000  0.27263800  1
  O  O19  1  0.48779000  0.24683800  0.27263800  1
  O  O20  1  0.75316200  0.24095200  0.27263800  1
  O  O21  1  0.24095200  0.48779000  0.77263800  1
  O  O22  1  0.51221000  0.75316200  0.77263800  1
  O  O23  1  0.24683800  0.75904800  0.77263800  1
  O  O24  1  0.83445200  0.48780700  0.61149300  1
  O  O25  1  0.51219300  0.34664400  0.61149300  1
  O  O26  1  0.65335600  0.16554800  0.61149300  1
  O  O27  1  0.16554800  0.51219300  0.11149300  1
  O  O28  1  0.48780700  0.65335600  0.11149300  1
  O  O29  1  0.34664400  0.83445200  0.11149300  1
  O  O30  1  0.56983600  0.13947200  0.94544400  1
  O  O31  1  0.86052800  0.43036400  0.94544400  1
  O  O32  1  0.56963600  0.43016400  0.94544400  1
  O  O33  1  0.43016400  0.86052800  0.44544400  1
  O  O34  1  0.13947200  0.56963600  0.44544400  1
  O  O35  1  0.43036400  0.56983600  0.44544400  1
  O  O36  1  0.00000000  0.00000000  0.97582300  1
  O  O37  1  0.00000000  0.00000000  0.47582300  1
loop_
_geom_bond_atom_site_label_1
_geom_bond_atom_site_label_2
_geom_bond_distance
_geom_bond_site_symmetry_2
Mg0 O25 2.092950 1_555
Mg0 O26 2.092950 1_555
Mg0 O24 2.092950 1_555
Mg0 O20 2.132522 1_555
Mg0 O18 2.132529 1_555
Mg0 O19 2.132529 1_555
Mg1 O28 2.092950 1_556
Mg1 O29 2.092950 1_556
Mg1 O27 2.092950 1_556
Mg1 O23 2.132522 1_555
Mg1 O21 2.132529 1_555
Mg1 O22 2.132529 1_555
Mg2 O30 2.105149 1_554
Mg2 O31 2.105149 1_554
Mg2 O32 2.105156 1_554
Mg2 O20 2.109296 1_555
Mg2 O18 2.109302 1_555
Mg2 O19 2.109302 1_555
Mg3 O33 2.105149 1_555
Mg3 O34 2.105149 1_555
Mg3 O35 2.105156 1_555
Mg3 O23 2.109296 1_555
Mg3 O21 2.109302 1_555
Mg3 O22 2.109302 1_555
Be0 O5 1.602954 1_655
Be0 O6 1.616923 1_556
Be0 O16 1.631784 1_555
Be0 O36 1.760449 1_665
Be1 O3 1.602954 1_555
Be1 O7 1.616928 1_556
Be1 O17 1.631784 1_555
Be1 O36 1.760449 1_555
Be2 O4 1.602954 1_545
Be2 O8 1.616930 1_556
Be2 O15 1.631784 1_555
Be2 O36 1.760449 1_655
Be3 O2 1.602954 1_455
Be3 O9 1.616923 1_555
Be3 O13 1.631784 1_555
Be3 O37 1.760449 1_555
Be4 O0 1.602954 1_555
Be4 O10 1.616928 1_555
Be4 O14 1.631784 1_555
Be4 O37 1.760449 1_665
Be5 O1 1.602954 1_565
Be5 O11 1.616930 1_555
Be5 O12 1.631784 1_555
Be5 O37 1.760449 1_565
H0 O36 0.980339 1_554
H1 O37 0.980339 1_555
H2 O24 0.979497 1_555
H3 O25 0.979496 1_555
H4 O26 0.979488 1_555
H5 O27 0.979497 1_555
H6 O28 0.979496 1_555
H7 O29 0.979488 1_555
H8 O24 0.991759 1_555
H9 O25 0.991761 1_555
H10 O26 0.991762 1_555
H11 O27 0.991759 1_555
H12 O28 0.991761 1_555
H13 O29 0.991762 1_555
H14 O32 1.001712 1_555
H15 O30 1.001712 1_555
H16 O31 1.001712 1_555
H17 O35 1.001712 1_555
H18 O33 1.001712 1_555
H19 O34 1.001712 1_555
H20 O32 0.991841 1_555
H21 O30 0.991841 1_555
H22 O31 0.991841 1_555
H23 O35 0.991841 1_555
H24 O33 0.991841 1_555
H25 O34 0.991841 1_555
O0 P0 1.550103 1_555
O1 P1 1.550103 1_555
O2 P2 1.550103 1_555
O3 P3 1.550103 1_555
O4 P4 1.550103 1_555
O5 P5 1.550103 1_555
O6 P0 1.556983 1_555
O7 P1 1.556987 1_555
O8 P2 1.556984 1_555
O9 P3 1.556983 1_555
O10 P4 1.556987 1_555
O11 P5 1.556984 1_555
O12 P0 1.562508 1_455
O13 P1 1.562508 1_555
O14 P2 1.562508 1_565
O15 P3 1.562508 1_655
O16 P4 1.562508 1_555
O17 P5 1.562508 1_545
O18 P0 1.538568 1_555
O19 P1 1.538568 1_555
O20 P2 1.538568 1_555
O21 P3 1.538568 1_555
O22 P4 1.538568 1_555
O23 P5 1.538568 1_555
