# generated using pymatgen
data_NaLiTi3O7
_symmetry_space_group_name_H-M   'P 1'
_cell_length_a   5.77037200
_cell_length_b   6.35979267
_cell_length_c   8.80620203
_cell_angle_alpha   81.45226920
_cell_angle_beta   70.87494184
_cell_angle_gamma   63.02122581
_symmetry_Int_Tables_number   1
_chemical_formula_structural   NaLiTi3O7
_chemical_formula_sum   'Na2 Li2 Ti6 O14'
_cell_volume   272.10764860
_cell_formula_units_Z   2
loop_
 _symmetry_equiv_pos_site_id
 _symmetry_equiv_pos_as_xyz
  1  'x, y, z'
loop_
 _atom_site_type_symbol
 _atom_site_label
 _atom_site_symmetry_multiplicity
 _atom_site_fract_x
 _atom_site_fract_y
 _atom_site_fract_z
 _atom_site_occupancy
  Na  Na0  1  0.13067300  0.73865300  0.50000000  1
  Na  Na1  1  0.86932700  0.26134700  0.50000000  1
  Li  Li0  1  0.18347000  0.00000000  0.13306000  1
  Li  Li1  1  0.81653000  0.00000000  0.86694000  1
  Ti  Ti0  1  0.75000000  0.50000000  0.00000000  1
  Ti  Ti1  1  0.25000000  0.50000000  0.00000000  1
  Ti  Ti2  1  0.48181000  0.25409900  0.28228200  1
  Ti  Ti3  1  0.73590900  0.74590100  0.28228200  1
  Ti  Ti4  1  0.51819000  0.74590100  0.71771800  1
  Ti  Ti5  1  0.26409100  0.25409900  0.71771800  1
  O  O0  1  0.39786000  0.73218800  0.97209100  1
  O  O1  1  0.13004800  0.26781200  0.97209100  1
  O  O2  1  0.60214000  0.26781200  0.02790900  1
  O  O3  1  0.86995200  0.73218800  0.02790900  1
  O  O4  1  0.63167000  0.50000000  0.23666100  1
  O  O5  1  0.13167000  0.50000000  0.23666100  1
  O  O6  1  0.36833000  0.50000000  0.76333900  1
  O  O7  1  0.86833000  0.50000000  0.76333900  1
  O  O8  1  0.82971400  0.00000000  0.28818300  1
  O  O9  1  0.38210300  0.00000000  0.28818300  1
  O  O10  1  0.17028600  0.00000000  0.71181700  1
  O  O11  1  0.61789700  0.00000000  0.71181700  1
  O  O12  1  0.33416700  0.33166600  0.50000000  1
  O  O13  1  0.66583300  0.66833400  0.50000000  1
loop_
_geom_bond_atom_site_label_1
_geom_bond_atom_site_label_2
_geom_bond_distance
_geom_bond_site_symmetry_2
Na0 O12 2.306675 1_555
Na0 O8 2.799989 1_465
Na0 O11 2.799989 1_465
Na0 O9 2.799992 1_565
Na0 O10 2.799992 1_565
Na1 O13 2.306675 1_555
Na1 O10 2.799989 1_655
Na1 O9 2.799989 1_655
Na1 O8 2.799992 1_555
Na1 O11 2.799992 1_555
Li0 O1 2.024260 1_554
Li0 O0 2.024260 1_544
Li0 O9 2.050803 1_555
Li0 O8 2.050803 1_455
Li1 O2 2.024260 1_556
Li1 O3 2.024260 1_546
Li1 O10 2.050803 1_655
Li1 O11 2.050803 1_555
O0 Ti1 1.966408 1_556
O0 Ti0 1.966412 1_556
O0 Ti4 2.117848 1_555
O1 Ti0 1.966408 1_456
O1 Ti1 1.966412 1_556
O1 Ti5 2.117848 1_555
O2 Ti0 1.966408 1_555
O2 Ti1 1.966412 1_555
O2 Ti2 2.117848 1_555
O3 Ti1 1.966408 1_655
O3 Ti0 1.966412 1_555
O3 Ti3 2.117848 1_555
O4 Ti0 1.969055 1_555
O4 Ti2 2.041451 1_555
O4 Ti3 2.041451 1_555
O5 Ti1 1.969055 1_555
O5 Ti2 2.041451 1_555
O5 Ti3 2.041451 1_455
O6 Ti1 1.969055 1_556
O6 Ti5 2.041451 1_555
O6 Ti4 2.041451 1_555
O7 Ti0 1.969055 1_556
O7 Ti4 2.041451 1_555
O7 Ti5 2.041451 1_655
O8 Ti3 1.935010 1_545
O8 Ti2 1.935010 1_555
O9 Ti3 1.935014 1_545
O9 Ti2 1.935014 1_555
O10 Ti4 1.935010 1_545
O10 Ti5 1.935010 1_555
O11 Ti4 1.935014 1_545
O11 Ti5 1.935014 1_555
O12 Ti5 1.864030 1_555
O12 Ti2 1.864030 1_555
O13 Ti4 1.864030 1_555
O13 Ti3 1.864030 1_555
