# generated using pymatgen
data_Ag16HgAs4S15
_symmetry_space_group_name_H-M   'P 1'
_cell_length_a   15.27165158
_cell_length_b   15.27165158
_cell_length_c   15.95710254
_cell_angle_alpha   90.66590733
_cell_angle_beta   90.66590733
_cell_angle_gamma   60.16317135
_symmetry_Int_Tables_number   1
_chemical_formula_structural   Ag16HgAs4S15
_chemical_formula_sum   'Ag64 Hg4 As16 S60'
_cell_volume   3227.96812678
_cell_formula_units_Z   4
loop_
 _symmetry_equiv_pos_site_id
 _symmetry_equiv_pos_as_xyz
  1  'x, y, z'
loop_
 _atom_site_type_symbol
 _atom_site_label
 _atom_site_symmetry_multiplicity
 _atom_site_fract_x
 _atom_site_fract_y
 _atom_site_fract_z
 _atom_site_occupancy
  Ag  Ag0  1  0.48656280  0.94906313  0.58601219  1
  Ag  Ag1  1  0.05093687  0.51343720  0.41398781  1
  Ag  Ag2  1  0.68078179  0.98209863  0.58861472  1
  Ag  Ag3  1  0.01790137  0.31921821  0.41138528  1
  Ag  Ag4  1  0.20298692  0.95102525  0.58753567  1
  Ag  Ag5  1  0.04897475  0.79701308  0.41246433  1
  Ag  Ag6  1  0.09272022  0.64529160  0.78549406  1
  Ag  Ag7  1  0.35470840  0.90727978  0.21450594  1
  Ag  Ag8  1  0.58195050  0.64993585  0.80400134  1
  Ag  Ag9  1  0.35006415  0.41804950  0.19599866  1
  Ag  Ag10  1  0.61894298  0.01679078  0.00166088  1
  Ag  Ag11  1  0.98320922  0.38105702  0.99833912  1
  Ag  Ag12  1  0.37874088  0.15005834  0.80166259  1
  Ag  Ag13  1  0.84994166  0.62125912  0.19833741  1
  Ag  Ag14  1  0.80099195  0.79163932  0.40162772  1
  Ag  Ag15  1  0.20836068  0.19900805  0.59837228  1
  Ag  Ag16  1  0.07897239  0.15323400  0.80732768  1
  Ag  Ag17  1  0.84676600  0.92102761  0.19267232  1
  Ag  Ag18  1  0.11439342  0.75475459  0.99894994  1
  Ag  Ag19  1  0.24524541  0.88560658  0.00105006  1
  Ag  Ag20  1  0.00828123  0.99171877  -0.00000000  1
  Ag  Ag21  1  0.64983898  0.11734948  0.20563414  1
  Ag  Ag22  1  0.88265052  0.35016102  0.79436586  1
  Ag  Ag23  1  0.18252552  0.75668468  0.58664033  1
  Ag  Ag24  1  0.24331532  0.81747448  0.41335967  1
  Ag  Ag25  1  0.47708708  0.88470791  0.00011701  1
  Ag  Ag26  1  0.11529209  0.52291292  0.99988299  1
  Ag  Ag27  1  0.33894971  0.66105029  -0.00000000  1
  Ag  Ag28  1  0.60333131  0.24818834  0.99776356  1
  Ag  Ag29  1  0.75181166  0.39666869  0.00223644  1
  Ag  Ag30  1  0.53680307  0.02175007  0.41541984  1
  Ag  Ag31  1  0.97824993  0.46319693  0.58458016  1
  Ag  Ag32  1  0.38497098  0.64851952  0.80731861  1
  Ag  Ag33  1  0.35148048  0.61502902  0.19268139  1
  Ag  Ag34  1  0.70742210  0.79309614  0.99879859  1
  Ag  Ag35  1  0.20690386  0.29257790  0.00120141  1
  Ag  Ag36  1  0.68306823  0.26114799  0.58637332  1
  Ag  Ag37  1  0.73885201  0.31693177  0.41362668  1
  Ag  Ag38  1  0.85372768  0.11563303  0.20118137  1
  Ag  Ag39  1  0.88436697  0.14627232  0.79881863  1
  Ag  Ag40  1  0.55472443  0.29258408  0.41453580  1
  Ag  Ag41  1  0.70741592  0.44527557  0.58546420  1
  Ag  Ag42  1  0.38578330  0.34299631  0.80330612  1
  Ag  Ag43  1  0.65700369  0.61421670  0.19669388  1
  Ag  Ag44  1  0.52682611  0.82864751  0.41474334  1
  Ag  Ag45  1  0.17135249  0.47317389  0.58525666  1
  Ag  Ag46  1  0.37867439  0.85681463  0.78978802  1
  Ag  Ag47  1  0.14318537  0.62132561  0.21021198  1
  Ag  Ag48  1  0.88704601  0.84187668  0.80685265  1
  Ag  Ag49  1  0.15812332  0.11295399  0.19314735  1
  Ag  Ag50  1  0.92985265  0.97541533  0.59483934  1
  Ag  Ag51  1  0.02458467  0.07014735  0.40516066  1
  Ag  Ag52  1  0.42596389  0.47631427  0.59534970  1
  Ag  Ag53  1  0.52368573  0.57403611  0.40465030  1
  Ag  Ag54  1  0.39867633  0.10314757  0.99852477  1
  Ag  Ag55  1  0.89685243  0.60132367  0.00147523  1
  Ag  Ag56  1  0.58893765  0.14685674  0.79171502  1
  Ag  Ag57  1  0.85314326  0.41106235  0.20828498  1
  Ag  Ag58  1  0.68997154  0.71350781  0.59405185  1
  Ag  Ag59  1  0.28649219  0.31002846  0.40594815  1
  Ag  Ag60  1  0.88112094  0.65093217  0.80306062  1
  Ag  Ag61  1  0.34906783  0.11887906  0.19693938  1
  Ag  Ag62  1  0.52900382  0.47099618  -0.00000000  1
  Ag  Ag63  1  0.81523086  0.18476914  -0.00000000  1
  Hg  Hg0  1  0.86764440  0.88395815  0.00063328  1
  Hg  Hg1  1  0.11604185  0.13235560  0.99936672  1
  Hg  Hg2  1  0.35919959  0.38685901  0.00129236  1
  Hg  Hg3  1  0.61314099  0.64080041  0.99870764  1
  As  As0  1  0.44859522  0.71004071  0.57562535  1
  As  As1  1  0.28995929  0.55140478  0.42437465  1
  As  As2  1  0.44041577  0.22497718  0.57410742  1
  As  As3  1  0.77502282  0.55958423  0.42589258  1
  As  As4  1  0.78547628  0.04470753  0.42494458  1
  As  As5  1  0.95529247  0.21452372  0.57505542  1
  As  As6  1  0.60696571  0.89149546  0.78823865  1
  As  As7  1  0.10850454  0.39303429  0.21176135  1
  As  As8  1  0.10940717  0.39203440  0.78830775  1
  As  As9  1  0.60796560  0.89059283  0.21169225  1
  As  As10  1  0.11950812  0.87931995  0.78885589  1
  As  As11  1  0.12068005  0.88049188  0.21114411  1
  As  As12  1  0.62351218  0.37722625  0.21119151  1
  As  As13  1  0.62277375  0.37648782  0.78880849  1
  As  As14  1  0.27260019  0.06562647  0.42509540  1
  As  As15  1  0.93437353  0.72739981  0.57490460  1
  S  S0  1  0.63012728  0.11529148  0.36327877  1
  S  S1  1  0.88470852  0.36987272  0.63672123  1
  S  S2  1  0.08339431  0.91660569  0.50000000  1
  S  S3  1  0.59640824  0.16110456  0.63481507  1
  S  S4  1  0.83889544  0.40359176  0.36518493  1
  S  S5  1  0.54722519  0.29854222  0.14670148  1
  S  S6  1  0.70145778  0.45277481  0.85329852  1
  S  S7  1  0.86021880  0.87282175  0.65244965  1
  S  S8  1  0.12717825  0.13978120  0.34755035  1
  S  S9  1  0.18306302  0.47237455  0.85437310  1
  S  S10  1  0.52762545  0.81693698  0.14562690  1
  S  S11  1  0.69003168  0.73944633  0.85432282  1
  S  S12  1  0.26055367  0.30996832  0.14567718  1
  S  S13  1  0.20078933  0.95173757  0.85546561  1
  S  S14  1  0.04826243  0.79921067  0.14453439  1
  S  S15  1  0.38283346  0.86813785  0.63308596  1
  S  S16  1  0.13186215  0.61716654  0.36691404  1
  S  S17  1  0.95825133  0.46137166  0.85567749  1
  S  S18  1  0.53862834  0.04174867  0.14432251  1
  S  S19  1  0.35804185  0.65475927  0.64942436  1
  S  S20  1  0.34524073  0.64195815  0.35057564  1
  S  S21  1  0.69492701  0.22556694  0.85681442  1
  S  S22  1  0.77443306  0.30507299  0.14318558  1
  S  S23  1  0.94764983  0.22437308  0.93465036  1
  S  S24  1  0.77562692  0.05235017  0.06534964  1
  S  S25  1  0.44482992  0.72723252  0.93354438  1
  S  S26  1  0.27276748  0.55517008  0.06645562  1
  S  S27  1  0.19211846  0.24040357  0.85582643  1
  S  S28  1  0.75959643  0.80788154  0.14417357  1
  S  S29  1  0.45614067  0.96135322  0.85619083  1
  S  S30  1  0.03864678  0.54385933  0.14380917  1
  S  S31  1  0.64893622  0.86251002  0.49937375  1
  S  S32  1  0.13748998  0.35106378  0.50062625  1
  S  S33  1  0.38775070  0.12920267  0.64374100  1
  S  S34  1  0.87079733  0.61224930  0.35625900  1
  S  S35  1  0.35464246  0.37241417  0.64853445  1
  S  S36  1  0.62758583  0.64535754  0.35146555  1
  S  S37  1  0.59828002  0.62972831  0.64706083  1
  S  S38  1  0.37027169  0.40171998  0.35293917  1
  S  S39  1  0.84411597  0.13787092  0.35912127  1
  S  S40  1  0.86212908  0.15588403  0.64087873  1
  S  S41  1  0.57861032  0.42138968  0.50000000  1
  S  S42  1  0.09434476  0.65448547  0.62885284  1
  S  S43  1  0.34551453  0.90565524  0.37114716  1
  S  S44  1  0.36142032  0.12604677  0.35589030  1
  S  S45  1  0.87395323  0.63857968  0.64410970  1
  S  S46  1  0.47135174  0.45740454  0.85585563  1
  S  S47  1  0.54259546  0.52864826  0.14414437  1
  S  S48  1  0.68211972  0.97020072  0.85515767  1
  S  S49  1  0.02979928  0.31788028  0.14484233  1
  S  S50  1  0.95425136  0.71594501  0.93455177  1
  S  S51  1  0.28405499  0.04574864  0.06544823  1
  S  S52  1  0.18959494  0.72812307  0.85589088  1
  S  S53  1  0.27187693  0.81040506  0.14410912  1
  S  S54  1  0.86838972  0.89881595  0.34848355  1
  S  S55  1  0.10118405  0.13161028  0.65151645  1
  S  S56  1  0.45306576  0.22039062  0.93377767  1
  S  S57  1  0.77960938  0.54693424  0.06622233  1
  S  S58  1  0.96700015  0.96196911  0.85464416  1
  S  S59  1  0.03803089  0.03299985  0.14535584  1
loop_
_geom_bond_atom_site_label_1
_geom_bond_atom_site_label_2
_geom_bond_distance
_geom_bond_site_symmetry_2
Ag0 S33 2.556643 1_565
Ag0 S31 2.565761 1_555
Ag0 S15 2.568726 1_555
Ag1 S34 2.556643 1_455
Ag1 S32 2.565761 1_555
Ag1 S16 2.568726 1_555
Ag2 S3 2.479347 1_565
Ag2 S31 2.531219 1_555
Ag2 S7 2.599219 1_555
Ag3 S4 2.479347 1_455
Ag3 S32 2.531219 1_555
Ag3 S8 2.599219 1_555
Ag4 S15 2.487905 1_555
Ag4 S2 2.538103 1_555
Ag4 S55 2.601937 1_565
Ag5 S16 2.487905 1_555
Ag5 S2 2.538103 1_555
Ag5 S54 2.601937 1_455
Ag6 S42 2.506211 1_555
Ag6 S9 2.547911 1_555
Ag6 S52 2.615590 1_555
Ag6 S50 3.013336 1_455
Ag7 S43 2.506211 1_555
Ag7 S10 2.547911 1_555
Ag7 S53 2.615590 1_555
Ag7 S51 3.013336 1_565
Ag8 S37 2.519722 1_555
Ag8 S11 2.725187 1_555
Ag8 S6 2.751223 1_555
Ag8 S25 2.763285 1_555
Ag9 S38 2.519722 1_555
Ag9 S12 2.725187 1_555
Ag9 S5 2.751223 1_555
Ag9 S26 2.763285 1_555
Ag10 S48 2.496586 1_544
Ag10 S18 2.532097 1_555
Ag10 S24 2.876978 1_555
Ag10 S56 3.071674 1_554
Ag11 S49 2.496586 1_656
Ag11 S17 2.532097 1_555
Ag11 S23 2.876978 1_555
Ag11 S57 3.071674 1_556
Ag12 S33 2.533066 1_555
Ag12 S27 2.624886 1_555
Ag12 S29 2.665345 1_545
Ag12 S56 2.826893 1_555
Ag13 S34 2.533066 1_555
Ag13 S28 2.624886 1_555
Ag13 S30 2.665345 1_655
Ag13 S57 2.826893 1_555
Ag14 S54 2.487262 1_555
Ag14 S34 2.496319 1_555
Ag14 S31 2.557463 1_555
Ag15 S55 2.487262 1_555
Ag15 S33 2.496319 1_555
Ag15 S32 2.557463 1_555
Ag16 S55 2.508951 1_555
Ag16 S23 2.684311 1_455
Ag16 S27 2.755119 1_555
Ag16 S13 2.800955 1_545
Ag17 S54 2.508951 1_555
Ag17 S24 2.684311 1_565
Ag17 S28 2.755119 1_555
Ag17 S14 2.800955 1_655
Ag18 S14 2.492651 1_556
Ag18 S52 2.504026 1_555
Ag18 S50 2.959416 1_455
Ag18 S26 2.996755 1_556
Ag19 S13 2.492651 1_554
Ag19 S53 2.504026 1_555
Ag19 S51 2.959416 1_565
Ag19 S25 2.996755 1_554
Ag20 S59 2.492040 1_565
Ag20 S58 2.492040 1_454
Ag21 S0 2.539382 1_555
Ag21 S5 2.590047 1_555
Ag21 S18 2.657239 1_555
Ag21 S24 2.799542 1_555
Ag22 S1 2.539382 1_555
Ag22 S6 2.590047 1_555
Ag22 S17 2.657239 1_555
Ag22 S23 2.799542 1_555
Ag23 S19 2.536424 1_555
Ag23 S2 2.553165 1_555
Ag23 S42 2.615364 1_555
Ag24 S20 2.536424 1_555
Ag24 S2 2.553165 1_555
Ag24 S43 2.615364 1_555
Ag25 S10 2.505493 1_555
Ag25 S29 2.533734 1_554
Ag25 S25 2.874382 1_554
Ag25 S51 2.936513 1_565
Ag26 S9 2.505493 1_555
Ag26 S30 2.533734 1_556
Ag26 S26 2.874382 1_556
Ag26 S50 2.936513 1_455
Ag27 S25 2.540007 1_554
Ag27 S26 2.540007 1_555
Ag27 S53 3.024518 1_555
Ag27 S52 3.024518 1_554
Ag28 S5 2.514563 1_556
Ag28 S21 2.590150 1_555
Ag28 S56 2.719131 1_555
Ag28 S24 3.034745 1_556
Ag29 S6 2.514563 1_554
Ag29 S22 2.590150 1_555
Ag29 S57 2.719131 1_555
Ag29 S23 3.034745 1_554
Ag30 S44 2.518740 1_555
Ag30 S31 2.553360 1_545
Ag30 S0 2.616353 1_555
Ag31 S45 2.518740 1_555
Ag31 S32 2.553360 1_655
Ag31 S1 2.616353 1_555
Ag32 S19 2.543377 1_555
Ag32 S46 2.656343 1_555
Ag32 S25 2.707769 1_555
Ag32 S52 2.720972 1_555
Ag33 S20 2.543377 1_555
Ag33 S47 2.656343 1_555
Ag33 S26 2.707769 1_555
Ag33 S53 2.720972 1_555
Ag34 S28 2.488181 1_556
Ag34 S11 2.493019 1_555
Ag35 S27 2.488181 1_554
Ag35 S12 2.493019 1_555
Ag36 S40 2.534059 1_555
Ag36 S41 2.564322 1_555
Ag36 S3 2.597404 1_555
Ag37 S39 2.534059 1_555
Ag37 S41 2.564322 1_555
Ag37 S4 2.597404 1_555
Ag38 S39 2.535292 1_555
Ag38 S59 2.608813 1_655
Ag38 S22 2.691240 1_555
Ag38 S24 2.844783 1_555
Ag39 S40 2.535292 1_555
Ag39 S58 2.608813 1_545
Ag39 S21 2.691240 1_555
Ag39 S23 2.844783 1_555
Ag40 S0 2.488739 1_555
Ag40 S41 2.549975 1_555
Ag40 S38 2.642134 1_555
Ag41 S1 2.488739 1_555
Ag41 S41 2.549975 1_555
Ag41 S37 2.642134 1_555
Ag42 S35 2.512637 1_555
Ag42 S56 2.650022 1_555
Ag42 S46 2.770544 1_555
Ag42 S9 2.843739 1_555
Ag43 S36 2.512637 1_555
Ag43 S57 2.650022 1_555
Ag43 S47 2.770544 1_555
Ag43 S10 2.843739 1_555
Ag44 S43 2.503584 1_555
Ag44 S31 2.540387 1_555
Ag44 S36 2.628118 1_555
Ag45 S42 2.503584 1_555
Ag45 S32 2.540387 1_555
Ag45 S35 2.628118 1_555
Ag46 S15 2.512203 1_555
Ag46 S13 2.586877 1_555
Ag46 S29 2.623352 1_555
Ag46 S25 2.874234 1_555
Ag47 S16 2.512203 1_555
Ag47 S14 2.586877 1_555
Ag47 S30 2.623352 1_555
Ag47 S26 2.874234 1_555
Ag48 S7 2.504508 1_555
Ag48 S50 2.642470 1_555
Ag48 S58 2.758671 1_555
Ag48 S48 2.854292 1_555
Ag49 S8 2.504508 1_555
Ag49 S51 2.642470 1_555
Ag49 S59 2.758671 1_555
Ag49 S49 2.854292 1_555
Ag50 S7 2.478885 1_555
Ag50 S40 2.517827 1_565
Ag50 S2 2.559390 1_655
Ag51 S8 2.478885 1_555
Ag51 S39 2.517827 1_455
Ag51 S2 2.559390 1_545
Ag52 S35 2.489339 1_555
Ag52 S19 2.529882 1_555
Ag52 S41 2.561239 1_555
Ag53 S36 2.489339 1_555
Ag53 S20 2.529882 1_555
Ag53 S41 2.561239 1_555
Ag54 S56 2.550700 1_555
Ag54 S51 2.562216 1_556
Ag54 S29 2.942588 1_545
Ag54 S18 2.966624 1_556
Ag55 S57 2.550700 1_555
Ag55 S50 2.562216 1_554
Ag55 S30 2.942588 1_655
Ag55 S17 2.966624 1_554
Ag56 S3 2.524425 1_555
Ag56 S48 2.556957 1_545
Ag56 S21 2.647999 1_555
Ag56 S56 2.904657 1_555
Ag57 S4 2.524425 1_555
Ag57 S49 2.556957 1_655
Ag57 S22 2.647999 1_555
Ag57 S57 2.904657 1_555
Ag58 S37 2.479660 1_555
Ag58 S31 2.547956 1_555
Ag58 S45 2.571328 1_555
Ag59 S38 2.479660 1_555
Ag59 S32 2.547956 1_555
Ag59 S44 2.571328 1_555
Ag60 S45 2.546340 1_555
Ag60 S17 2.667075 1_555
Ag60 S11 2.667777 1_555
Ag60 S50 2.763339 1_555
Ag61 S44 2.546340 1_555
Ag61 S18 2.667075 1_555
Ag61 S12 2.667777 1_555
Ag61 S51 2.763339 1_555
Ag62 S46 2.496502 1_554
Ag62 S47 2.496502 1_555
Ag63 S23 2.612178 1_554
Ag63 S24 2.612178 1_555
Ag63 S22 2.789363 1_555
Ag63 S21 2.789363 1_554
Hg0 S24 2.455705 1_565
Hg0 S50 2.457114 1_554
Hg1 S23 2.455705 1_455
Hg1 S51 2.457114 1_556
Hg2 S26 2.454409 1_555
Hg2 S56 2.454488 1_554
Hg3 S25 2.454409 1_555
Hg3 S57 2.454488 1_556
As0 S37 2.282816 1_555
As0 S19 2.287932 1_555
As0 S15 2.288191 1_555
As1 S38 2.282816 1_555
As1 S20 2.287932 1_555
As1 S16 2.288191 1_555
As2 S3 2.284976 1_555
As2 S35 2.288065 1_555
As2 S33 2.291275 1_555
As3 S4 2.284976 1_555
As3 S36 2.288065 1_555
As3 S34 2.291275 1_555
As4 S0 2.276917 1_555
As4 S54 2.285052 1_545
As4 S39 2.292131 1_555
As5 S1 2.276917 1_555
As5 S55 2.285052 1_655
As5 S40 2.292131 1_555
As6 S29 2.281512 1_555
As6 S11 2.282067 1_555
As6 S48 2.283996 1_555
As7 S30 2.281512 1_555
As7 S12 2.282067 1_555
As7 S49 2.283996 1_555
As8 S9 2.279836 1_555
As8 S17 2.281356 1_455
As8 S27 2.287875 1_555
As9 S10 2.279836 1_555
As9 S18 2.281356 1_565
As9 S28 2.287875 1_555
As10 S52 2.278818 1_555
As10 S13 2.280723 1_555
As10 S58 2.284840 1_455
As11 S53 2.278818 1_555
As11 S14 2.280723 1_555
As11 S59 2.284840 1_565
As12 S5 2.279612 1_555
As12 S47 2.280890 1_555
As12 S22 2.281920 1_555
As13 S6 2.279612 1_555
As13 S46 2.280890 1_555
As13 S21 2.281920 1_555
As14 S8 2.282941 1_555
As14 S44 2.283581 1_555
As14 S43 2.283822 1_545
As15 S7 2.282941 1_555
As15 S45 2.283581 1_555
As15 S42 2.283822 1_655
