# generated using pymatgen
data_Na2MgZn5(AsO4)6
_symmetry_space_group_name_H-M   'P 1'
_cell_length_a   8.70132208
_cell_length_b   8.70132208
_cell_length_c   6.90025293
_cell_angle_alpha   74.02197487
_cell_angle_beta   74.02197487
_cell_angle_gamma   90.64954819
_symmetry_Int_Tables_number   1
_chemical_formula_structural   Na2MgZn5(AsO4)6
_chemical_formula_sum   'Na2 Mg1 Zn5 As6 O24'
_cell_volume   480.70278167
_cell_formula_units_Z   1
loop_
 _symmetry_equiv_pos_site_id
 _symmetry_equiv_pos_as_xyz
  1  'x, y, z'
loop_
 _atom_site_type_symbol
 _atom_site_label
 _atom_site_symmetry_multiplicity
 _atom_site_fract_x
 _atom_site_fract_y
 _atom_site_fract_z
 _atom_site_occupancy
  Na  Na0  1  0.00941100  0.99058900  0.50000000  1
  Na  Na1  1  0.99065800  0.00934200  0.00000000  1
  Mg  Mg0  1  0.71722300  0.28277700  0.50000000  1
  Zn  Zn0  1  0.04994100  0.36722500  0.62818400  1
  Zn  Zn1  1  0.63277500  0.95005900  0.37181600  1
  Zn  Zn2  1  0.94917800  0.63243600  0.87219100  1
  Zn  Zn3  1  0.36756400  0.05082200  0.12780900  1
  Zn  Zn4  1  0.28356200  0.71643800  0.00000000  1
  As  As0  1  0.88950700  0.66218300  0.36497000  1
  As  As1  1  0.33781700  0.11049300  0.63503000  1
  As  As2  1  0.11041200  0.33873500  0.13549000  1
  As  As3  1  0.66126500  0.88958800  0.86451000  1
  As  As4  1  0.31135500  0.68864500  0.50000000  1
  As  As5  1  0.68925500  0.31074500  0.00000000  1
  O  O0  1  0.97882600  0.59997400  0.56622900  1
  O  O1  1  0.40002600  0.02117400  0.43377100  1
  O  O2  1  0.02176500  0.40022800  0.93382600  1
  O  O3  1  0.59977200  0.97823500  0.06617400  1
  O  O4  1  0.19781400  0.73221500  0.72539800  1
  O  O5  1  0.26778500  0.80218600  0.27460200  1
  O  O6  1  0.80126400  0.26810100  0.77412700  1
  O  O7  1  0.73189900  0.19873600  0.22587300  1
  O  O8  1  0.27705000  0.48742900  0.51656400  1
  O  O9  1  0.51257100  0.72295000  0.48343600  1
  O  O10  1  0.72317900  0.51226700  0.98358900  1
  O  O11  1  0.48773300  0.27682100  0.01641100  1
  O  O12  1  0.14226500  0.15097900  0.65424800  1
  O  O13  1  0.84902100  0.85773500  0.34575200  1
  O  O14  1  0.85680400  0.84857600  0.84555000  1
  O  O15  1  0.15142400  0.14319600  0.15445000  1
  O  O16  1  0.97345200  0.32815800  0.37641700  1
  O  O17  1  0.67184200  0.02654800  0.62358300  1
  O  O18  1  0.02562700  0.67143300  0.12314100  1
  O  O19  1  0.32856700  0.97437300  0.87685900  1
  O  O20  1  0.72368800  0.53308900  0.41386900  1
  O  O21  1  0.46691100  0.27631200  0.58613100  1
  O  O22  1  0.27832900  0.46753800  0.08427600  1
  O  O23  1  0.53246200  0.72167100  0.91572400  1
loop_
_geom_bond_atom_site_label_1
_geom_bond_atom_site_label_2
_geom_bond_distance
_geom_bond_site_symmetry_2
Na0 O14 2.360744 1_455
Na0 O15 2.360744 1_565
Na0 O12 2.423938 1_565
Na0 O13 2.423938 1_455
Na1 O13 2.358549 1_545
Na1 O12 2.358549 1_654
Na1 O14 2.432366 1_544
Na1 O15 2.432366 1_655
Mg0 O21 2.089601 1_555
Mg0 O20 2.089601 1_555
Mg0 O16 2.145198 1_555
Mg0 O17 2.145198 1_555
Mg0 O6 2.181664 1_555
Mg0 O7 2.181664 1_555
As0 O20 1.715807 1_555
As0 O13 1.718162 1_555
As0 O0 1.736525 1_555
As0 O18 1.740585 1_655
As1 O21 1.715807 1_555
As1 O12 1.718162 1_555
As1 O1 1.736525 1_555
As1 O19 1.740585 1_545
As2 O15 1.719392 1_555
As2 O22 1.725211 1_555
As2 O2 1.734360 1_554
As2 O16 1.736380 1_455
As3 O14 1.719392 1_555
As3 O23 1.725211 1_555
As3 O3 1.734360 1_556
As3 O17 1.736380 1_565
As4 O5 1.739519 1_555
As4 O4 1.739519 1_555
As4 O8 1.739776 1_555
As4 O9 1.739776 1_555
As5 O7 1.734088 1_555
As5 O6 1.734088 1_554
As5 O11 1.742208 1_555
As5 O10 1.742208 1_554
O0 Zn0 2.089162 1_655
O0 Zn2 2.152598 1_555
O1 Zn1 2.089162 1_545
O1 Zn3 2.152598 1_555
O2 Zn2 2.089502 1_455
O2 Zn0 2.154263 1_555
O3 Zn3 2.089502 1_565
O3 Zn1 2.154263 1_555
O4 Zn2 2.174203 1_455
O4 Zn4 2.191653 1_556
O5 Zn3 2.174203 1_565
O5 Zn4 2.191653 1_555
O6 Zn0 2.172559 1_655
O7 Zn1 2.172559 1_545
O8 Zn0 2.064957 1_555
O9 Zn1 2.064957 1_555
O10 Zn2 2.056692 1_555
O11 Zn3 2.056692 1_555
O12 Zn0 2.036106 1_555
O13 Zn1 2.036106 1_555
O14 Zn2 2.035234 1_555
O15 Zn3 2.035234 1_555
O16 Zn0 2.129113 1_655
O17 Zn1 2.129113 1_545
O18 Zn2 2.123363 1_454
O18 Zn4 2.158599 1_555
O19 Zn3 2.123363 1_566
O19 Zn4 2.158599 1_556
O22 Zn4 2.078599 1_555
O23 Zn4 2.078599 1_556
