# generated using pymatgen
data_PuPt5
_symmetry_space_group_name_H-M   'P 1'
_cell_length_a   5.29798944
_cell_length_b   5.29798944
_cell_length_c   5.29799090
_cell_angle_alpha   60.00000910
_cell_angle_beta   60.00000910
_cell_angle_gamma   60.00000000
_symmetry_Int_Tables_number   1
_chemical_formula_structural   PuPt5
_chemical_formula_sum   'Pu1 Pt5'
_cell_volume   105.15222007
_cell_formula_units_Z   1
loop_
 _symmetry_equiv_pos_site_id
 _symmetry_equiv_pos_as_xyz
  1  'x, y, z'
loop_
 _atom_site_type_symbol
 _atom_site_label
 _atom_site_symmetry_multiplicity
 _atom_site_fract_x
 _atom_site_fract_y
 _atom_site_fract_z
 _atom_site_occupancy
  Pu  Pu0  1  0.00000000  -0.00000000  0.00000100  1
  Pt  Pt0  1  0.75000000  0.75000000  0.75000000  1
  Pt  Pt1  1  0.87411718  0.37529394  0.37529394  1
  Pt  Pt2  1  0.37529394  0.87411718  0.37529394  1
  Pt  Pt3  1  0.37529394  0.37529394  0.87411718  1
  Pt  Pt4  1  0.37529394  0.37529394  0.37529394  1
loop_
_geom_bond_atom_site_label_1
_geom_bond_atom_site_label_2
_geom_bond_distance
_geom_bond_site_symmetry_2
Pt0 Pt3 3.105558 1_655
Pt0 Pt3 3.105558 1_565
Pt0 Pt1 3.105558 1_565
Pt0 Pt2 3.105558 1_655
Pt0 Pt1 3.105559 1_556
Pt0 Pt2 3.105559 1_556
Pt0 Pt4 3.105560 1_655
Pt0 Pt4 3.105560 1_565
Pt0 Pt4 3.105561 1_556
Pt0 Pt3 3.105562 1_555
Pt0 Pt1 3.105563 1_555
Pt0 Pt2 3.105563 1_555
Pt0 Pu0 3.244340 1_665
Pt0 Pu0 3.244343 1_566
Pt0 Pu0 3.244343 1_656
Pt0 Pu0 3.244347 1_666
Pt1 Pt4 2.642760 1_555
Pt1 Pt2 2.642760 1_555
Pt1 Pt3 2.642761 1_555
Pt1 Pt2 2.655229 1_645
Pt1 Pt4 2.655229 1_655
Pt1 Pt3 2.655230 1_654
Pt1 Pu0 3.106882 1_655
Pt1 Pu0 3.106891 1_665
Pt1 Pu0 3.106896 1_656
Pt2 Pt4 2.642760 1_555
Pt2 Pt3 2.642761 1_555
Pt2 Pt4 2.655229 1_565
Pt2 Pt3 2.655230 1_564
Pt2 Pu0 3.106882 1_565
Pt2 Pu0 3.106891 1_665
Pt2 Pu0 3.106896 1_566
Pt3 Pt4 2.642761 1_555
Pt3 Pt4 2.655230 1_556
Pt3 Pu0 3.106883 1_556
Pt3 Pu0 3.106893 1_656
Pt3 Pu0 3.106893 1_566
Pt4 Pu0 3.106886 1_565
Pt4 Pu0 3.106886 1_655
Pt4 Pu0 3.106891 1_556
