# generated using pymatgen
data_CsGa5(HgSe3)4
_symmetry_space_group_name_H-M   'P 1'
_cell_length_a   9.14027100
_cell_length_b   9.15512258
_cell_length_c   9.20717103
_cell_angle_alpha   107.14281883
_cell_angle_beta   108.07471746
_cell_angle_gamma   107.41427101
_symmetry_Int_Tables_number   1
_chemical_formula_structural   CsGa5(HgSe3)4
_chemical_formula_sum   'Cs1 Ga5 Hg4 Se12'
_cell_volume   631.84904846
_cell_formula_units_Z   1
loop_
 _symmetry_equiv_pos_site_id
 _symmetry_equiv_pos_as_xyz
  1  'x, y, z'
loop_
 _atom_site_type_symbol
 _atom_site_label
 _atom_site_symmetry_multiplicity
 _atom_site_fract_x
 _atom_site_fract_y
 _atom_site_fract_z
 _atom_site_occupancy
  Cs  Cs0  1  0.99747700  0.99658700  0.99603100  1
  Ga  Ga0  1  0.48363900  0.33417700  0.94151500  1
  Ga  Ga1  1  0.93803000  0.48755700  0.34001100  1
  Ga  Ga2  1  0.32942500  0.93420200  0.48088400  1
  Ga  Ga3  1  0.01733800  0.18645100  0.55586000  1
  Ga  Ga4  1  0.56139600  0.02660500  0.18811500  1
  Hg  Hg0  1  0.63047300  0.70820700  0.39663000  1
  Hg  Hg1  1  0.39997900  0.63538400  0.71395200  1
  Hg  Hg2  1  0.70941300  0.39511400  0.63033800  1
  Hg  Hg3  1  0.19026100  0.56421500  0.02018000  1
  Se  Se0  1  0.78631000  0.93967400  0.29320000  1
  Se  Se1  1  0.30810800  0.81161500  0.93495300  1
  Se  Se2  1  0.92436400  0.27187000  0.76891200  1
  Se  Se3  1  0.06658800  0.69796300  0.24457700  1
  Se  Se4  1  0.23309000  0.08284800  0.68599700  1
  Se  Se5  1  0.69615100  0.23435400  0.08271800  1
  Se  Se6  1  0.37717300  0.41622300  0.14669000  1
  Se  Se7  1  0.13849100  0.36732800  0.43336100  1
  Se  Se8  1  0.42712000  0.13370900  0.36231700  1
  Se  Se9  1  0.88362600  0.63864600  0.56386500  1
  Se  Se10  1  0.55735600  0.87929200  0.63494000  1
  Se  Se11  1  0.63883200  0.55262000  0.87959400  1
loop_
_geom_bond_atom_site_label_1
_geom_bond_atom_site_label_2
_geom_bond_distance
_geom_bond_site_symmetry_2
Cs0 Se2 3.797211 1_565
Cs0 Se1 3.814789 1_655
Cs0 Se6 3.823458 1_666
Cs0 Se8 3.834916 1_666
Cs0 Se0 3.872779 1_556
Cs0 Se9 3.918798 1_555
Cs0 Se10 3.924293 1_555
Cs0 Se7 3.936916 1_666
Cs0 Se11 3.961236 1_555
Cs0 Se5 4.109674 1_566
Cs0 Se3 4.115235 1_656
Cs0 Se4 4.187531 1_665
Ga0 Se11 2.410940 1_555
Ga0 Se6 2.412788 1_556
Ga0 Se4 2.526917 1_555
Ga0 Se5 2.548403 1_556
Ga1 Se9 2.403252 1_555
Ga1 Se7 2.468840 1_655
Ga1 Se3 2.479329 1_655
Ga1 Se5 2.513685 1_555
Ga2 Se10 2.412167 1_555
Ga2 Se3 2.460796 1_555
Ga2 Se8 2.475750 1_565
Ga2 Se4 2.535313 1_565
Ga3 Se2 2.389452 1_455
Ga3 Se7 2.453356 1_555
Ga3 Se0 2.483252 1_445
Ga3 Se4 2.558824 1_555
Ga4 Se1 2.426192 1_544
Ga4 Se0 2.448419 1_545
Ga4 Se8 2.460691 1_555
Ga4 Se5 2.550247 1_555
Hg0 Se6 2.676723 1_555
Hg0 Se10 2.687893 1_555
Hg0 Se9 2.716578 1_555
Hg0 Se0 2.766046 1_555
Hg1 Se10 2.696123 1_555
Hg1 Se11 2.696603 1_555
Hg1 Se7 2.707296 1_555
Hg1 Se1 2.717442 1_555
Hg2 Se9 2.676799 1_555
Hg2 Se11 2.699434 1_555
Hg2 Se8 2.710360 1_555
Hg2 Se2 2.716821 1_555
Hg3 Se1 2.649161 1_554
Hg3 Se6 2.681832 1_555
Hg3 Se2 2.718399 1_454
Hg3 Se3 2.798590 1_555
