# generated using pymatgen
data_C13F7
_symmetry_space_group_name_H-M   'P 1'
_cell_length_a   10.62163763
_cell_length_b   12.84199191
_cell_length_c   21.34154073
_cell_angle_alpha   88.33247977
_cell_angle_beta   82.88787911
_cell_angle_gamma   77.31741003
_symmetry_Int_Tables_number   1
_chemical_formula_structural   C13F7
_chemical_formula_sum   'C156 F84'
_cell_volume   2818.16669439
_cell_formula_units_Z   12
loop_
 _symmetry_equiv_pos_site_id
 _symmetry_equiv_pos_as_xyz
  1  'x, y, z'
loop_
 _atom_site_type_symbol
 _atom_site_label
 _atom_site_symmetry_multiplicity
 _atom_site_fract_x
 _atom_site_fract_y
 _atom_site_fract_z
 _atom_site_occupancy
  C  C0  1  0.42926085  0.71296164  0.65998912  1
  C  C1  1  0.57073915  0.28703836  0.34001088  1
  C  C2  1  0.36573087  0.70367924  0.72886927  1
  C  C3  1  0.63426913  0.29632076  0.27113073  1
  C  C4  1  0.41296765  0.76721206  0.77046519  1
  C  C5  1  0.58703235  0.23278794  0.22953481  1
  C  C6  1  0.52334453  0.80253816  0.73567051  1
  C  C7  1  0.47665547  0.19746184  0.26432949  1
  C  C8  1  0.54390138  0.76396842  0.67178566  1
  C  C9  1  0.45609862  0.23603158  0.32821434  1
  C  C10  1  0.66984026  0.73237091  0.64218002  1
  C  C11  1  0.33015974  0.26762909  0.35781998  1
  C  C12  1  0.71420730  0.64068175  0.59315463  1
  C  C13  1  0.28579270  0.35931825  0.40684537  1
  C  C14  1  0.61582200  0.56955965  0.60510913  1
  C  C15  1  0.38417800  0.43044035  0.39489087  1
  C  C16  1  0.49040273  0.60113353  0.63448932  1
  C  C17  1  0.50959727  0.39886647  0.36551068  1
  C  C18  1  0.44575026  0.50718234  0.66065693  1
  C  C19  1  0.55424974  0.49281766  0.33934307  1
  C  C20  1  0.36324116  0.51171636  0.71684989  1
  C  C21  1  0.63675884  0.48828364  0.28315011  1
  C  C22  1  0.32589707  0.61246232  0.75218943  1
  C  C23  1  0.67410293  0.38753768  0.24781057  1
  C  C24  1  0.32636877  0.58638331  0.81806561  1
  C  C25  1  0.67363123  0.41361669  0.18193439  1
  C  C26  1  0.37010947  0.65228559  0.85836233  1
  C  C27  1  0.62989053  0.34771441  0.14163767  1
  C  C28  1  0.40838418  0.74679784  0.83525960  1
  C  C29  1  0.59161582  0.25320216  0.16474040  1
  C  C30  1  0.50461052  0.77649646  0.87733365  1
  C  C31  1  0.49538948  0.22350354  0.12266635  1
  C  C32  1  0.62692081  0.78857405  0.83524246  1
  C  C33  1  0.37307919  0.21142595  0.16475754  1
  C  C34  1  0.62572857  0.81300897  0.76792647  1
  C  C35  1  0.37427143  0.18699103  0.23207353  1
  C  C36  1  0.75526237  0.78078615  0.73749049  1
  C  C37  1  0.24473763  0.21921385  0.26250951  1
  C  C38  1  0.77613171  0.73800151  0.67646072  1
  C  C39  1  0.22386829  0.26199849  0.32353928  1
  C  C40  1  0.88147987  0.64729207  0.66101625  1
  C  C41  1  0.11852013  0.35270793  0.33898375  1
  C  C42  1  0.84322656  0.58169500  0.61750675  1
  C  C43  1  0.15677344  0.41830500  0.38249325  1
  C  C44  1  0.87474673  0.47192713  0.62628005  1
  C  C45  1  0.12525327  0.52807287  0.37371995  1
  C  C46  1  0.78079295  0.40580635  0.62214313  1
  C  C47  1  0.21920705  0.59419365  0.37785687  1
  C  C48  1  0.65623974  0.45390865  0.61171808  1
  C  C49  1  0.34376026  0.54609135  0.38828192  1
  C  C50  1  0.54783037  0.41487944  0.64576364  1
  C  C51  1  0.45216963  0.58512056  0.35423636  1
  C  C52  1  0.56757161  0.32859709  0.68676612  1
  C  C53  1  0.43242839  0.67140291  0.31323388  1
  C  C54  1  0.48943012  0.33619646  0.74637534  1
  C  C55  1  0.51056988  0.66380354  0.25362466  1
  C  C56  1  0.38657372  0.42566311  0.76116856  1
  C  C57  1  0.61342628  0.57433689  0.23883144  1
  C  C58  1  0.36351104  0.47148847  0.82370599  1
  C  C59  1  0.63648896  0.52851153  0.17629401  1
  C  C60  1  0.44159805  0.42606172  0.86973986  1
  C  C61  1  0.55840195  0.57393828  0.13026014  1
  C  C62  1  0.48492344  0.49381702  0.91187217  1
  C  C63  1  0.51507656  0.50618298  0.08812783  1
  C  C64  1  0.45118774  0.60509945  0.90617456  1
  C  C65  1  0.54881226  0.39490055  0.09382544  1
  C  C66  1  0.54158973  0.67064611  0.91445019  1
  C  C67  1  0.45841027  0.32935389  0.08554981  1
  C  C68  1  0.66725151  0.62282135  0.92473741  1
  C  C69  1  0.33274849  0.37717865  0.07526259  1
  C  C70  1  0.78914002  0.66816906  0.90091080  1
  C  C71  1  0.21085998  0.33183094  0.09908920  1
  C  C72  1  0.75257969  0.74145776  0.84563361  1
  C  C73  1  0.24742031  0.25854224  0.15436639  1
  C  C74  1  0.83515264  0.73422793  0.78535270  1
  C  C75  1  0.16484736  0.26577207  0.21464730  1
  C  C76  1  0.93613290  0.64667337  0.77056327  1
  C  C77  1  0.06386710  0.35332663  0.22943673  1
  C  C78  1  0.96048707  0.60188858  0.70795689  1
  C  C79  1  0.03951293  0.39811142  0.29204311  1
  C  C80  1  -0.00203014  0.48830845  0.71377912  1
  C  C81  1  0.00203014  0.51169155  0.28622088  1
  C  C82  1  0.95288298  0.42442623  0.67435377  1
  C  C83  1  0.04711702  0.57557377  0.32564623  1
  C  C84  1  0.90930679  0.32849719  0.69766119  1
  C  C85  1  0.09069321  0.67150281  0.30233881  1
  C  C86  1  0.80665706  0.31736721  0.66669489  1
  C  C87  1  0.19334294  0.68263279  0.33330511  1
  C  C88  1  0.70369514  0.25576530  0.69174462  1
  C  C89  1  0.29630486  0.74423470  0.30825538  1
  C  C90  1  0.70173850  0.25033798  0.76462063  1
  C  C91  1  0.29826150  0.74966202  0.23537937  1
  C  C92  1  0.57090674  0.28979983  0.79391736  1
  C  C93  1  0.42909326  0.71020017  0.20608264  1
  C  C94  1  0.54579029  0.33356692  0.85486203  1
  C  C95  1  0.45420971  0.66643308  0.14513797  1
  C  C96  1  0.65271727  0.34496639  0.88695154  1
  C  C97  1  0.34728273  0.65503361  0.11304846  1
  C  C98  1  0.61512761  0.44406201  0.92236744  1
  C  C99  1  0.38487239  0.55593799  0.07763256  1
  C  C100  1  0.70470278  0.50807378  0.92669924  1
  C  C101  1  0.29529722  0.49192622  0.07330076  1
  C  C102  1  0.83639243  0.47349513  0.89646533  1
  C  C103  1  0.16360757  0.52650487  0.10353467  1
  C  C104  1  0.88455928  0.56455970  0.87496133  1
  C  C105  1  0.11544072  0.43544030  0.12503867  1
  C  C106  1  0.95898352  0.55910671  0.81628818  1
  C  C107  1  0.04101648  0.44089329  0.18371182  1
  C  C108  1  0.99635391  0.46080614  0.78103191  1
  C  C109  1  0.00364609  0.53919386  0.21896809  1
  C  C110  1  0.95881439  0.36876858  0.80477324  1
  C  C111  1  0.04118561  0.63123142  0.19522676  1
  C  C112  1  0.93634287  0.28006518  0.76204434  1
  C  C113  1  0.06365713  0.71993482  0.23795566  1
  C  C114  1  0.80454409  0.26158594  0.79551096  1
  C  C115  1  0.19545591  0.73841406  0.20448904  1
  C  C116  1  0.77922658  0.31208806  0.85657289  1
  C  C117  1  0.22077342  0.68791194  0.14342711  1
  C  C118  1  0.87285282  0.37693619  0.86166211  1
  C  C119  1  0.12714718  0.62306381  0.13833789  1
  C  C120  1  0.33223479  0.77847085  0.61404737  1
  C  C121  1  0.66776521  0.22152915  0.38595263  1
  C  C122  1  0.19559247  0.74923086  0.62078068  1
  C  C123  1  0.80440753  0.25076914  0.37921932  1
  C  C124  1  0.31489448  0.90198248  0.61912902  1
  C  C125  1  0.68510552  0.09801752  0.38087098  1
  C  C126  1  0.73043825  0.68202577  0.52206796  1
  C  C127  1  0.26956175  0.31797423  0.47793204  1
  C  C128  1  0.84794580  0.73731318  0.50449689  1
  C  C129  1  0.15205420  0.26268682  0.49550311  1
  C  C130  1  0.73387407  0.59290815  0.47303220  1
  C  C131  1  0.26612593  0.40709185  0.52696780  1
  C  C132  1  0.44411367  0.87645537  0.92220899  1
  C  C133  1  0.55588633  0.12354463  0.07779101  1
  C  C134  1  0.44788710  0.98525513  0.88757412  1
  C  C135  1  0.55211290  0.01474487  0.11242588  1
  C  C136  1  0.30390826  0.87821508  0.95578985  1
  C  C137  1  0.69609174  0.12178492  0.04421015  1
  C  C138  1  0.84284951  0.72796715  0.95273966  1
  C  C139  1  0.15715049  0.27203285  0.04726034  1
  C  C140  1  0.81829801  0.68318790  0.02097425  1
  C  C141  1  0.18170199  0.31681210  0.97902575  1
  C  C142  1  0.98877652  0.73490719  0.93748261  1
  C  C143  1  0.01122348  0.26509281  0.06251739  1
  C  C144  1  0.72651368  0.14153532  0.65994506  1
  C  C145  1  0.27348632  0.85846468  0.34005494  1
  C  C146  1  0.60602557  0.08930785  0.67099741  1
  C  C147  1  0.39397443  0.91069215  0.32900259  1
  C  C148  1  0.77605443  0.14262054  0.58783366  1
  C  C149  1  0.22394557  0.85737946  0.41216634  1
  C  C150  1  0.05157174  0.17672153  0.75564645  1
  C  C151  1  0.94842826  0.82327847  0.24435355  1
  C  C152  1  0.18936902  0.20380375  0.75002111  1
  C  C153  1  0.81063098  0.79619625  0.24997889  1
  C  C154  1  0.03812668  0.09113305  0.80851270  1
  C  C155  1  0.96187332  0.90886695  0.19148730  1
  F  F0  1  0.38505935  0.75191993  0.55240690  1
  F  F1  1  0.61494065  0.24808007  0.44759310  1
  F  F2  1  0.13167236  0.78478914  0.57069785  1
  F  F3  1  0.86832764  0.21521086  0.42930215  1
  F  F4  1  0.20846338  0.64154916  0.62288096  1
  F  F5  1  0.79153662  0.35845084  0.37711904  1
  F  F6  1  0.11988959  0.79159552  0.67390500  1
  F  F7  1  0.88011041  0.20840448  0.32609500  1
  F  F8  1  0.28569090  0.93214715  0.68052737  1
  F  F9  1  0.71430910  0.06785285  0.31947263  1
  F  F10  1  0.42543068  0.93213900  0.59501896  1
  F  F11  1  0.57456932  0.06786100  0.40498104  1
  F  F12  1  0.21823019  0.95598748  0.58716250  1
  F  F13  1  0.78176981  0.04401252  0.41283750  1
  F  F14  1  0.62174999  0.76102613  0.51310926  1
  F  F15  1  0.37825001  0.23897387  0.48689074  1
  F  F16  1  0.84998627  0.81035836  0.54870160  1
  F  F17  1  0.15001373  0.18964164  0.45129840  1
  F  F18  1  0.96304880  0.66489541  0.49962771  1
  F  F19  1  0.03695120  0.33510459  0.50037229  1
  F  F20  1  0.83859991  0.78981538  0.44878958  1
  F  F21  1  0.16140009  0.21018462  0.55121042  1
  F  F22  1  0.76028117  0.62537506  0.41284049  1
  F  F23  1  0.23971883  0.37462494  0.58715951  1
  F  F24  1  0.82550874  0.50427343  0.48320610  1
  F  F25  1  0.17449126  0.49572657  0.51679390  1
  F  F26  1  0.61671445  0.56552755  0.47755284  1
  F  F27  1  0.38328555  0.43447245  0.52244716  1
  F  F28  1  0.52003279  0.87167147  0.97112857  1
  F  F29  1  0.47996721  0.12832853  0.02887143  1
  F  F30  1  0.57117161  0.00046540  0.87853424  1
  F  F31  1  0.42882839  0.99953460  0.12146576  1
  F  F32  1  0.37365748  0.06962378  0.92080220  1
  F  F33  1  0.62634252  0.93037622  0.07919780  1
  F  F34  1  0.40379112  0.98659299  0.83043473  1
  F  F35  1  0.59620888  0.01340701  0.16956527  1
  F  F36  1  0.29547986  0.78074719  0.98046166  1
  F  F37  1  0.70452014  0.21925281  0.01953834  1
  F  F38  1  0.27222181  0.94783486  0.00444048  1
  F  F39  1  0.72777819  0.05216514  0.99555952  1
  F  F40  1  0.21432298  0.90616904  0.91481024  1
  F  F41  1  0.78567702  0.09383096  0.08518976  1
  F  F42  1  0.77535478  0.83368012  0.95522461  1
  F  F43  1  0.22464522  0.16631988  0.04477539  1
  F  F44  1  0.86181011  0.57556888  0.02301940  1
  F  F45  1  0.13818989  0.42443112  0.97698060  1
  F  F46  1  0.87819450  0.72663933  0.06266502  1
  F  F47  1  0.12180550  0.27336067  0.93733498  1
  F  F48  1  0.68946394  0.70641473  0.04140217  1
  F  F49  1  0.31053606  0.29358527  0.95859783  1
  F  F50  1  0.07055140  0.64049980  0.94823801  1
  F  F51  1  0.92944860  0.35950020  0.05176199  1
  F  F52  1  0.01623260  0.76286048  0.87626968  1
  F  F53  1  0.98376740  0.23713952  0.12373032  1
  F  F54  1  0.01500694  0.81023020  0.97370062  1
  F  F55  1  0.98499306  0.18976980  0.02629938  1
  F  F56  1  0.82342238  0.07178865  0.68780998  1
  F  F57  1  0.17657762  0.92821135  0.31219002  1
  F  F58  1  0.55900291  0.09189893  0.73316879  1
  F  F59  1  0.44099709  0.90810107  0.26683121  1
  F  F60  1  0.50967895  0.13979303  0.63754066  1
  F  F61  1  0.49032105  0.86020697  0.36245934  1
  F  F62  1  0.63886332  0.98544952  0.65364376  1
  F  F63  1  0.36113668  0.01455048  0.34635624  1
  F  F64  1  0.90005945  0.15596161  0.57882763  1
  F  F65  1  0.09994055  0.84403839  0.42117237  1
  F  F66  1  0.77466718  0.05077903  0.55868794  1
  F  F67  1  0.22533282  0.94922097  0.44131206  1
  F  F68  1  0.69988100  0.22400128  0.55901010  1
  F  F69  1  0.30011900  0.77599872  0.44098990  1
  F  F70  1  0.04956583  0.12578124  0.69930012  1
  F  F71  1  0.95043417  0.87421876  0.30069988  1
  F  F72  1  0.21699383  0.23412349  0.80630348  1
  F  F73  1  0.78300617  0.76587651  0.19369652  1
  F  F74  1  0.28341807  0.11964564  0.72881788  1
  F  F75  1  0.71658193  0.88035436  0.27118212  1
  F  F76  1  0.19613521  0.28436237  0.70779546  1
  F  F77  1  0.80386479  0.71563763  0.29220454  1
  F  F78  1  0.02613081  0.13371224  0.86700812  1
  F  F79  1  0.97386919  0.86628776  0.13299188  1
  F  F80  1  0.14305314  0.00870500  0.80293903  1
  F  F81  1  0.85694686  0.99129500  0.19706097  1
  F  F82  1  0.93265071  0.04982996  0.80409730  1
  F  F83  1  0.06734929  0.95017004  0.19590270  1
loop_
_geom_bond_atom_site_label_1
_geom_bond_atom_site_label_2
_geom_bond_distance
_geom_bond_site_symmetry_2
C0 C16 1.526019 1_555
C0 C2 1.552408 1_555
C0 C8 1.552708 1_555
C0 C120 1.597700 1_555
C1 C17 1.526019 1_555
C1 C3 1.552408 1_555
C1 C9 1.552708 1_555
C1 C121 1.597700 1_555
C2 C22 1.389409 1_555
C2 C4 1.427462 1_555
C3 C5 1.427462 1_555
C4 C6 1.459472 1_555
C5 C7 1.459472 1_555
C6 C8 1.438739 1_555
C7 C9 1.438739 1_555
C10 C8 1.385834 1_555
C10 C38 1.434762 1_555
C10 C12 1.552150 1_555
C11 C9 1.385834 1_555
C11 C39 1.434762 1_555
C11 C13 1.552150 1_555
C12 C14 1.526720 1_555
C12 C42 1.555483 1_555
C12 C126 1.594289 1_555
C13 C15 1.526720 1_555
C13 C43 1.555483 1_555
C14 C16 1.379487 1_555
C14 C48 1.460416 1_555
C15 C17 1.379487 1_555
C15 C49 1.460416 1_555
C16 C18 1.462524 1_555
C17 C19 1.462524 1_555
C18 C20 1.389615 1_555
C18 C50 1.433161 1_555
C19 C21 1.389615 1_555
C19 C51 1.433161 1_555
C20 C56 1.433248 1_555
C20 C22 1.468805 1_555
C21 C57 1.433248 1_555
C21 C23 1.468805 1_555
C22 C24 1.436087 1_555
C23 C3 1.389409 1_555
C23 C25 1.436087 1_555
C24 C26 1.409128 1_555
C24 C58 1.446718 1_555
C25 C27 1.409128 1_555
C25 C59 1.446718 1_555
C26 C28 1.419050 1_555
C26 C64 1.449996 1_555
C27 C29 1.419050 1_555
C27 C65 1.449996 1_555
C28 C4 1.396819 1_555
C28 C30 1.553940 1_555
C29 C5 1.396819 1_555
C29 C31 1.553940 1_555
C30 C32 1.519910 1_555
C30 C66 1.552239 1_555
C31 C33 1.519910 1_555
C31 C67 1.552239 1_555
C32 C72 1.381156 1_555
C32 C34 1.462548 1_555
C33 C73 1.381156 1_555
C33 C35 1.462548 1_555
C34 C6 1.389087 1_555
C34 C36 1.424954 1_555
C35 C7 1.389087 1_555
C35 C37 1.424954 1_555
C36 C38 1.401472 1_555
C36 C74 1.441257 1_555
C37 C39 1.401472 1_555
C37 C75 1.441257 1_555
C38 C40 1.440960 1_555
C39 C41 1.440960 1_555
C40 C78 1.416723 1_555
C40 C42 1.423443 1_555
C41 C79 1.416723 1_555
C41 C43 1.423443 1_555
C42 C44 1.388221 1_555
C43 C45 1.388221 1_555
C44 C82 1.437230 1_555
C44 C46 1.457037 1_555
C45 C83 1.437230 1_555
C45 C47 1.457037 1_555
C46 C48 1.373809 1_555
C46 C86 1.460897 1_555
C47 C49 1.373809 1_555
C47 C87 1.460897 1_555
C48 C50 1.459490 1_555
C49 C51 1.459490 1_555
C50 C52 1.387236 1_555
C51 C53 1.387236 1_555
C52 C54 1.423721 1_555
C52 C88 1.554039 1_555
C53 C55 1.423721 1_555
C53 C89 1.554039 1_555
C54 C56 1.413441 1_555
C54 C92 1.445419 1_555
C55 C57 1.413441 1_555
C55 C93 1.445419 1_555
C56 C58 1.445357 1_555
C57 C59 1.445357 1_555
C58 C60 1.396202 1_555
C59 C61 1.396202 1_555
C60 C94 1.447140 1_555
C60 C62 1.449548 1_555
C61 C95 1.447140 1_555
C61 C63 1.449548 1_555
C62 C64 1.400464 1_555
C62 C98 1.432281 1_555
C63 C65 1.400464 1_555
C63 C99 1.432281 1_555
C64 C66 1.437813 1_555
C65 C67 1.437813 1_555
C66 C68 1.382634 1_555
C67 C69 1.382634 1_555
C68 C70 1.557128 1_555
C69 C71 1.557128 1_555
C70 C72 1.522050 1_555
C71 C73 1.522050 1_555
C72 C74 1.457635 1_555
C73 C75 1.457635 1_555
C74 C76 1.386196 1_555
C75 C77 1.386196 1_555
C76 C78 1.441077 1_555
C77 C79 1.441077 1_555
C78 C80 1.431139 1_655
C79 C81 1.431139 1_555
C80 C82 1.386639 1_455
C81 C83 1.386639 1_555
C82 C84 1.461841 1_555
C83 C85 1.461841 1_555
C84 C86 1.377788 1_555
C85 C87 1.377788 1_555
C86 C88 1.522544 1_555
C87 C89 1.522544 1_555
C88 C90 1.552588 1_555
C89 C91 1.552588 1_555
C90 C92 1.439764 1_555
C91 C93 1.439764 1_555
C92 C94 1.403410 1_555
C93 C95 1.403410 1_555
C94 C96 1.432404 1_555
C95 C97 1.432404 1_555
C96 C98 1.452002 1_555
C97 C99 1.452002 1_555
C100 C98 1.399697 1_555
C100 C68 1.440345 1_555
C100 C102 1.445856 1_555
C101 C99 1.399697 1_555
C101 C69 1.440345 1_555
C101 C103 1.445856 1_555
C102 C118 1.418025 1_555
C102 C104 1.418913 1_555
C103 C119 1.418025 1_555
C103 C105 1.418913 1_555
C104 C106 1.390480 1_555
C104 C70 1.554356 1_555
C105 C107 1.390480 1_555
C105 C71 1.554356 1_555
C106 C108 1.441731 1_555
C106 C76 1.466519 1_555
C107 C109 1.441731 1_555
C107 C77 1.466519 1_555
C108 C110 1.390957 1_555
C108 C80 1.467009 1_655
C109 C111 1.390957 1_555
C109 C81 1.467009 1_555
C110 C118 1.417589 1_555
C110 C112 1.555598 1_555
C111 C119 1.417589 1_555
C111 C113 1.555598 1_555
C112 C84 1.525392 1_555
C112 C114 1.553909 1_555
C112 C150 1.591807 1_655
C113 C85 1.525392 1_555
C113 C115 1.553909 1_555
C113 C151 1.591807 1_455
C114 C90 1.378737 1_555
C114 C116 1.441171 1_555
C115 C91 1.378737 1_555
C115 C117 1.441171 1_555
C116 C96 1.398323 1_555
C116 C118 1.445661 1_555
C117 C97 1.398323 1_555
C117 C119 1.445661 1_555
C120 F0 1.385983 1_555
C121 F1 1.385983 1_555
C122 F2 1.351687 1_555
C122 F6 1.358680 1_555
C122 F4 1.359362 1_555
C123 F3 1.351687 1_555
C123 F7 1.358680 1_555
C123 F5 1.359362 1_555
C124 F10 1.353385 1_555
C124 F12 1.354188 1_555
C124 F8 1.356240 1_555
C125 F11 1.353385 1_555
C125 F13 1.354188 1_555
C125 F9 1.356240 1_555
C126 F14 1.388397 1_555
C127 F15 1.388397 1_555
C127 C13 1.594289 1_555
C128 F20 1.353168 1_555
C128 F16 1.354950 1_555
C128 F18 1.358418 1_555
C129 F21 1.353168 1_555
C129 F17 1.354950 1_555
C129 F19 1.358418 1_555
C130 F22 1.354115 1_555
C130 F24 1.357043 1_555
C130 F26 1.357194 1_555
C131 F23 1.354115 1_555
C131 F25 1.357043 1_555
C131 F27 1.357194 1_555
C132 F28 1.388161 1_555
C132 C30 1.592134 1_555
C133 F29 1.388161 1_555
C133 C31 1.592134 1_555
C134 F32 1.352617 1_565
C134 F30 1.355612 1_565
C134 F34 1.357713 1_555
C135 F33 1.352617 1_545
C135 F31 1.355612 1_545
C135 F35 1.357713 1_555
C136 F38 1.351297 1_556
C136 F40 1.355351 1_555
C136 F36 1.360564 1_555
C137 F39 1.351297 1_554
C137 F41 1.355351 1_555
C137 F37 1.360564 1_555
C138 F42 1.388226 1_555
C138 C70 1.592699 1_555
C139 F43 1.388226 1_555
C139 C71 1.592699 1_555
C140 F48 1.353604 1_555
C140 F46 1.353775 1_555
C140 F44 1.358883 1_555
C141 F49 1.353604 1_555
C141 F47 1.353775 1_555
C141 F45 1.358883 1_555
C142 F54 1.351264 1_655
C142 F52 1.358261 1_655
C142 F50 1.359325 1_655
C143 F55 1.351264 1_455
C143 F53 1.358261 1_455
C143 F51 1.359325 1_455
C144 F56 1.389663 1_555
C144 C88 1.591325 1_555
C145 F57 1.389663 1_555
C145 C89 1.591325 1_555
C146 F62 1.352846 1_545
C146 F60 1.356496 1_555
C146 F58 1.357286 1_555
C147 F63 1.352846 1_565
C147 F61 1.356496 1_555
C147 F59 1.357286 1_555
C148 F66 1.353058 1_555
C148 F64 1.354853 1_555
C148 F68 1.356381 1_555
C149 F67 1.353058 1_555
C149 F65 1.354853 1_555
C149 F69 1.356381 1_555
C150 F70 1.390214 1_555
C151 F71 1.390214 1_555
C152 F74 1.346543 1_555
C152 F72 1.358355 1_555
C152 F76 1.360098 1_555
C153 F75 1.346543 1_555
C153 F73 1.358355 1_555
C153 F77 1.360098 1_555
C154 F80 1.353967 1_555
C154 F82 1.354744 1_455
C154 F78 1.357731 1_555
C155 F81 1.353967 1_555
C155 F83 1.354744 1_655
C155 F79 1.357731 1_555
