# generated using pymatgen
data_ZrCrCo
_symmetry_space_group_name_H-M   'P 1'
_cell_length_a   4.87354340
_cell_length_b   4.87354340
_cell_length_c   8.31224900
_cell_angle_alpha   90.00000000
_cell_angle_beta   90.00000000
_cell_angle_gamma   118.27675452
_symmetry_Int_Tables_number   1
_chemical_formula_structural   ZrCrCo
_chemical_formula_sum   'Zr4 Cr4 Co4'
_cell_volume   173.86863222
_cell_formula_units_Z   4
loop_
 _symmetry_equiv_pos_site_id
 _symmetry_equiv_pos_as_xyz
  1  'x, y, z'
loop_
 _atom_site_type_symbol
 _atom_site_label
 _atom_site_symmetry_multiplicity
 _atom_site_fract_x
 _atom_site_fract_y
 _atom_site_fract_z
 _atom_site_occupancy
  Zr  Zr0  1  0.66987700  0.33012300  0.31642500  1
  Zr  Zr1  1  0.33580000  0.66420000  0.18935600  1
  Zr  Zr2  1  0.33580000  0.66420000  0.81064400  1
  Zr  Zr3  1  0.66987700  0.33012300  0.68357500  1
  Cr  Cr0  1  0.15900200  0.84099800  0.50000000  1
  Cr  Cr1  1  0.33815400  0.16586600  0.00000000  1
  Cr  Cr2  1  0.83413400  0.66184600  0.00000000  1
  Cr  Cr3  1  0.82987100  0.17012900  0.00000000  1
  Co  Co0  1  0.00601300  0.99398700  0.25662000  1
  Co  Co1  1  0.00601300  0.99398700  0.74338000  1
  Co  Co2  1  0.65455000  0.83862100  0.50000000  1
  Co  Co3  1  0.16137900  0.34545000  0.50000000  1
loop_
_geom_bond_atom_site_label_1
_geom_bond_atom_site_label_2
_geom_bond_distance
_geom_bond_site_symmetry_2
Zr0 Zr1 2.988119 1_555
Zr0 Zr1 3.048401 1_545
Zr0 Zr1 3.048401 1_655
Zr0 Zr3 3.051842 1_555
Zr1 Zr2 3.147948 1_554
Zr2 Zr3 2.988119 1_555
Zr2 Zr3 3.048401 1_565
Zr2 Zr3 3.048401 1_455
Cr0 Zr3 2.930279 1_455
Cr0 Zr3 2.930279 1_565
Cr0 Zr0 2.930279 1_455
Cr0 Zr0 2.930279 1_565
Cr0 Zr2 2.975858 1_555
Cr0 Zr1 2.975858 1_555
Cr1 Cr3 2.386632 1_555
Cr1 Cr2 2.479864 1_555
Cr1 Cr3 2.487049 1_455
Cr1 Cr2 2.520064 1_445
Cr1 Zr1 2.898668 1_555
Cr1 Zr2 2.898668 1_554
Cr1 Zr1 2.903178 1_545
Cr1 Zr2 2.903178 1_544
Cr1 Zr0 2.991025 1_555
Cr1 Zr3 2.991025 1_554
Cr2 Cr3 2.386632 1_555
Cr2 Cr3 2.487049 1_565
Cr2 Zr1 2.898668 1_555
Cr2 Zr2 2.898668 1_554
Cr2 Zr1 2.903178 1_655
Cr2 Zr2 2.903178 1_654
Cr2 Zr0 2.991025 1_555
Cr2 Zr3 2.991025 1_554
Cr3 Zr0 2.951271 1_555
Cr3 Zr3 2.951271 1_554
Cr3 Zr1 2.954602 1_545
Cr3 Zr1 2.954602 1_655
Cr3 Zr2 2.954602 1_544
Cr3 Zr2 2.954602 1_654
Co0 Cr0 2.393996 1_555
Co0 Co2 2.524105 1_455
Co0 Co3 2.524105 1_565
Co0 Cr1 2.566566 1_565
Co0 Cr2 2.566566 1_455
Co0 Cr3 2.592699 1_465
Co0 Zr1 2.815399 1_555
Co0 Zr0 2.856040 1_465
Co0 Zr0 2.894255 1_565
Co0 Zr0 2.894255 1_455
Co0 Zr1 2.930988 1_455
Co0 Zr1 2.930988 1_565
Co1 Cr0 2.393996 1_555
Co1 Co2 2.524105 1_455
Co1 Co3 2.524105 1_565
Co1 Cr1 2.566566 1_566
Co1 Cr2 2.566566 1_456
Co1 Cr3 2.592699 1_466
Co1 Zr2 2.815399 1_555
Co1 Zr3 2.856040 1_465
Co1 Zr3 2.894255 1_565
Co1 Zr3 2.894255 1_455
Co1 Zr2 2.930988 1_455
Co1 Zr2 2.930988 1_565
Co2 Cr0 2.420584 1_555
Co2 Cr0 2.453002 1_655
Co2 Co3 2.465819 1_555
Co2 Co3 2.534109 1_665
Co2 Zr3 2.811089 1_565
Co2 Zr0 2.811089 1_565
Co2 Zr2 2.924404 1_555
Co2 Zr1 2.924404 1_555
Co2 Zr3 2.941226 1_555
Co2 Zr0 2.941226 1_555
Co3 Cr0 2.420584 1_555
Co3 Cr0 2.453002 1_545
Co3 Zr3 2.811089 1_455
Co3 Zr0 2.811089 1_455
Co3 Zr2 2.924404 1_555
Co3 Zr1 2.924404 1_555
Co3 Zr3 2.941226 1_555
Co3 Zr0 2.941226 1_555
