# generated using pymatgen
data_Mg14VCO16
_symmetry_space_group_name_H-M   'P 1'
_cell_length_a   8.48475743
_cell_length_b   8.78156990
_cell_length_c   4.20154942
_cell_angle_alpha   90.00000000
_cell_angle_beta   90.00000000
_cell_angle_gamma   90.00000000
_symmetry_Int_Tables_number   1
_chemical_formula_structural   Mg14VCO16
_chemical_formula_sum   'Mg14 V1 C1 O16'
_cell_volume   313.05530641
_cell_formula_units_Z   1
loop_
 _symmetry_equiv_pos_site_id
 _symmetry_equiv_pos_as_xyz
  1  'x, y, z'
loop_
 _atom_site_type_symbol
 _atom_site_label
 _atom_site_symmetry_multiplicity
 _atom_site_fract_x
 _atom_site_fract_y
 _atom_site_fract_z
 _atom_site_occupancy
  Mg  Mg0  1  0.50000000  0.00000000  0.00000000  1
  Mg  Mg1  1  0.50000000  0.50000000  0.00000000  1
  Mg  Mg2  1  0.00000000  0.26013244  0.50000000  1
  Mg  Mg3  1  0.00000000  0.73986756  0.50000000  1
  Mg  Mg4  1  0.50000000  0.25181738  0.50000000  1
  Mg  Mg5  1  0.50000000  0.74818262  0.50000000  1
  Mg  Mg6  1  0.25265111  0.00000000  0.50000000  1
  Mg  Mg7  1  0.24612719  0.50000000  0.50000000  1
  Mg  Mg8  1  0.74734889  0.00000000  0.50000000  1
  Mg  Mg9  1  0.75387281  0.50000000  0.50000000  1
  Mg  Mg10  1  0.24671748  0.25577145  0.00000000  1
  Mg  Mg11  1  0.24671748  0.74422855  0.00000000  1
  Mg  Mg12  1  0.75328252  0.25577145  0.00000000  1
  Mg  Mg13  1  0.75328252  0.74422855  0.00000000  1
  V  V0  1  0.00000000  0.00000000  0.00000000  1
  C  C0  1  0.00000000  0.50000000  0.00000000  1
  O  O0  1  0.25137651  0.00000000  0.00000000  1
  O  O1  1  0.25606605  0.50000000  0.00000000  1
  O  O2  1  0.74862349  0.00000000  0.00000000  1
  O  O3  1  0.74393395  0.50000000  0.00000000  1
  O  O4  1  0.24748689  0.25108953  0.50000000  1
  O  O5  1  0.24748689  0.74891047  0.50000000  1
  O  O6  1  0.75251311  0.25108953  0.50000000  1
  O  O7  1  0.75251311  0.74891047  0.50000000  1
  O  O8  1  0.00000000  0.00000000  0.50000000  1
  O  O9  1  0.00000000  0.50000000  0.50000000  1
  O  O10  1  0.50000000  0.00000000  0.50000000  1
  O  O11  1  0.50000000  0.50000000  0.50000000  1
  O  O12  1  0.00000000  0.22089870  0.00000000  1
  O  O13  1  0.00000000  0.77910130  0.00000000  1
  O  O14  1  0.50000000  0.24889782  0.00000000  1
  O  O15  1  0.50000000  0.75110218  0.00000000  1
loop_
_geom_bond_atom_site_label_1
_geom_bond_atom_site_label_2
_geom_bond_distance
_geom_bond_site_symmetry_2
Mg0 O10 2.100775 1_555
Mg0 O10 2.100775 1_554
Mg0 O0 2.109510 1_555
Mg0 O2 2.109510 1_555
Mg0 O15 2.185714 1_545
Mg0 O14 2.185714 1_555
Mg1 O1 2.069720 1_555
Mg1 O3 2.069720 1_555
Mg1 O11 2.100775 1_555
Mg1 O11 2.100775 1_554
Mg1 O14 2.205071 1_555
Mg1 O15 2.205071 1_555
Mg2 O4 2.101367 1_555
Mg2 O6 2.101367 1_455
Mg2 O9 2.106414 1_555
Mg2 O12 2.128840 1_555
Mg2 O12 2.128840 1_556
Mg2 O8 2.284371 1_555
Mg3 O7 2.101367 1_455
Mg3 O5 2.101367 1_555
Mg3 O9 2.106414 1_555
Mg3 O13 2.128840 1_555
Mg3 O13 2.128840 1_556
Mg3 O8 2.284371 1_565
Mg4 O14 2.100931 1_555
Mg4 O14 2.100931 1_556
Mg4 O6 2.142522 1_555
Mg4 O4 2.142522 1_555
Mg4 O11 2.179433 1_555
Mg4 O10 2.211352 1_555
Mg5 O15 2.100931 1_556
Mg5 O15 2.100931 1_555
Mg5 O7 2.142522 1_555
Mg5 O5 2.142522 1_555
Mg5 O11 2.179433 1_555
Mg5 O10 2.211352 1_565
Mg6 O10 2.098695 1_555
Mg6 O0 2.100803 1_555
Mg6 O0 2.100803 1_556
Mg6 O8 2.143683 1_555
Mg6 O4 2.205396 1_555
Mg6 O5 2.205396 1_545
Mg7 O9 2.088330 1_555
Mg7 O1 2.102467 1_555
Mg7 O1 2.102467 1_556
Mg7 O11 2.154049 1_555
Mg7 O4 2.185855 1_555
Mg7 O5 2.185855 1_555
Mg8 O10 2.098695 1_555
Mg8 O2 2.100803 1_555
Mg8 O2 2.100803 1_556
Mg8 O8 2.143683 1_655
Mg8 O6 2.205396 1_555
Mg8 O7 2.205396 1_545
Mg9 O9 2.088330 1_655
Mg9 O3 2.102467 1_555
Mg9 O3 2.102467 1_556
Mg9 O11 2.154049 1_555
Mg9 O7 2.185855 1_555
Mg9 O6 2.185855 1_555
Mg10 O4 2.101187 1_555
Mg10 O4 2.101187 1_554
Mg10 O12 2.115619 1_555
Mg10 O1 2.146176 1_555
Mg10 O14 2.149888 1_555
Mg10 O0 2.246423 1_555
Mg11 O5 2.101187 1_555
Mg11 O5 2.101187 1_554
Mg11 O13 2.115619 1_555
Mg11 O1 2.146176 1_555
Mg11 O15 2.149888 1_555
Mg11 O0 2.246423 1_565
Mg12 O6 2.101187 1_555
Mg12 O6 2.101187 1_554
Mg12 O12 2.115619 1_655
Mg12 O3 2.146176 1_555
Mg12 O14 2.149888 1_555
Mg12 O2 2.246423 1_555
Mg13 O7 2.101187 1_555
Mg13 O7 2.101187 1_554
Mg13 O13 2.115619 1_655
Mg13 O3 2.146176 1_555
Mg13 O15 2.149888 1_555
Mg13 O2 2.246423 1_565
C0 O9 2.100775 1_555
C0 O9 2.100775 1_554
C0 O3 2.172658 1_455
C0 O1 2.172658 1_555
O0 V0 2.132869 1_555
O2 V0 2.132869 1_655
O8 V0 2.100775 1_556
O8 V0 2.100775 1_555
O12 V0 1.939837 1_555
O13 V0 1.939837 1_565
