# generated using pymatgen
data_Cs2CdSn3Se8
_symmetry_space_group_name_H-M   'P 1'
_cell_length_a   8.24639000
_cell_length_b   13.69757800
_cell_length_c   18.98046400
_cell_angle_alpha   90.00000000
_cell_angle_beta   90.00000000
_cell_angle_gamma   90.00000000
_symmetry_Int_Tables_number   1
_chemical_formula_structural   Cs2CdSn3Se8
_chemical_formula_sum   'Cs8 Cd4 Sn12 Se32'
_cell_volume   2143.94913460
_cell_formula_units_Z   4
loop_
 _symmetry_equiv_pos_site_id
 _symmetry_equiv_pos_as_xyz
  1  'x, y, z'
loop_
 _atom_site_type_symbol
 _atom_site_label
 _atom_site_symmetry_multiplicity
 _atom_site_fract_x
 _atom_site_fract_y
 _atom_site_fract_z
 _atom_site_occupancy
  Cs  Cs0  1  0.74970600  0.36982500  0.55088800  1
  Cs  Cs1  1  0.75029400  0.63017500  0.05088800  1
  Cs  Cs2  1  0.24970600  0.13017500  0.44911200  1
  Cs  Cs3  1  0.25029400  0.86982500  0.94911200  1
  Cs  Cs4  1  0.25685700  0.19259200  0.84057200  1
  Cs  Cs5  1  0.24314300  0.80740800  0.34057200  1
  Cs  Cs6  1  0.75685700  0.30740800  0.15942800  1
  Cs  Cs7  1  0.74314300  0.69259200  0.65942800  1
  Cd  Cd0  1  0.51588000  0.49835300  0.84711700  1
  Cd  Cd1  1  0.98412000  0.50164700  0.34711700  1
  Cd  Cd2  1  0.01588000  0.00164700  0.15288300  1
  Cd  Cd3  1  0.48412000  0.99835300  0.65288300  1
  Sn  Sn0  1  0.48402300  0.48068200  0.34713300  1
  Sn  Sn1  1  0.01597700  0.51931800  0.84713300  1
  Sn  Sn2  1  0.98402300  0.01931800  0.65286700  1
  Sn  Sn3  1  0.51597700  0.98068200  0.15286700  1
  Sn  Sn4  1  0.26738700  0.43428300  0.01518200  1
  Sn  Sn5  1  0.23261300  0.56571700  0.51518200  1
  Sn  Sn6  1  0.76738700  0.06571700  0.98481800  1
  Sn  Sn7  1  0.73261300  0.93428300  0.48481800  1
  Sn  Sn8  1  0.26325000  0.45098500  0.67793400  1
  Sn  Sn9  1  0.23675000  0.54901500  0.17793400  1
  Sn  Sn10  1  0.76325000  0.04901500  0.32206600  1
  Sn  Sn11  1  0.73675000  0.95098500  0.82206600  1
  Se  Se0  1  0.51779000  0.38381600  0.73052600  1
  Se  Se1  1  0.98221000  0.61618400  0.23052600  1
  Se  Se2  1  0.01779000  0.11618400  0.26947400  1
  Se  Se3  1  0.48221000  0.88381600  0.76947400  1
  Se  Se4  1  0.00390100  0.90146900  0.76173900  1
  Se  Se5  1  0.49609900  0.09853100  0.26173900  1
  Se  Se6  1  0.50390100  0.59853100  0.23826100  1
  Se  Se7  1  0.99609900  0.40146900  0.73826100  1
  Se  Se8  1  0.73469300  0.12530200  0.65784200  1
  Se  Se9  1  0.76530700  0.87469800  0.15784200  1
  Se  Se10  1  0.23469300  0.37469800  0.34215800  1
  Se  Se11  1  0.26530700  0.62530200  0.84215800  1
  Se  Se12  1  0.23497500  0.12596600  0.64801700  1
  Se  Se13  1  0.26502500  0.87403400  0.14801700  1
  Se  Se14  1  0.73497500  0.37403400  0.35198300  1
  Se  Se15  1  0.76502500  0.62596600  0.85198300  1
  Se  Se16  1  0.02471300  0.12364400  0.04110000  1
  Se  Se17  1  0.47528700  0.87635600  0.54110000  1
  Se  Se18  1  0.52471300  0.37635600  0.95890000  1
  Se  Se19  1  0.97528700  0.62364400  0.45890000  1
  Se  Se20  1  0.99789500  0.89169300  0.54987700  1
  Se  Se21  1  0.50210500  0.10830700  0.04987700  1
  Se  Se22  1  0.49789500  0.60830700  0.45012300  1
  Se  Se23  1  0.00210500  0.39169300  0.95012300  1
  Se  Se24  1  0.23406600  0.38146100  0.54983400  1
  Se  Se25  1  0.26593400  0.61853900  0.04983400  1
  Se  Se26  1  0.73406600  0.11853900  0.45016600  1
  Se  Se27  1  0.76593400  0.88146100  0.95016600  1
  Se  Se28  1  0.23819900  0.36554700  0.14269200  1
  Se  Se29  1  0.26180100  0.63445300  0.64269200  1
  Se  Se30  1  0.73819900  0.13445300  0.85730800  1
  Se  Se31  1  0.76180100  0.86554700  0.35730800  1
loop_
_geom_bond_atom_site_label_1
_geom_bond_atom_site_label_2
_geom_bond_distance
_geom_bond_site_symmetry_2
Cs0 Se14 3.777703 1_555
Cs0 Se0 3.914042 1_555
Cs0 Se8 3.918504 1_555
Cs0 Se26 3.939398 1_555
Cs0 Se24 3.997450 1_655
Cs0 Se7 4.118795 1_555
Cs0 Se24 4.255202 1_555
Cs0 Se19 4.312350 1_555
Cs0 Se22 4.317492 1_555
Cs1 Se15 3.777703 1_554
Cs1 Se1 3.914042 1_555
Cs1 Se9 3.918504 1_555
Cs1 Se27 3.939398 1_554
Cs1 Se25 3.997450 1_555
Cs1 Se6 4.118795 1_555
Cs1 Se25 4.255202 1_655
Cs1 Se18 4.312350 1_554
Cs1 Se23 4.317492 1_654
Cs2 Se12 3.777703 1_555
Cs2 Se2 3.914042 1_555
Cs2 Se10 3.918504 1_555
Cs2 Se24 3.939398 1_555
Cs2 Se26 3.997450 1_555
Cs2 Se5 4.118795 1_555
Cs2 Se26 4.255202 1_455
Cs2 Se17 4.312350 1_545
Cs2 Se20 4.317492 1_445
Cs3 Se13 3.777703 1_556
Cs3 Se3 3.914042 1_555
Cs3 Se11 3.918504 1_555
Cs3 Se25 3.939398 1_556
Cs3 Se27 3.997450 1_455
Cs3 Se4 4.118795 1_555
Cs3 Se27 4.255202 1_555
Cs3 Se16 4.312350 1_566
Cs3 Se21 4.317492 1_566
Cs4 Se12 3.771322 1_555
Cs4 Se0 3.981656 1_555
Cs4 Se23 4.021757 1_555
Cs4 Se18 4.032252 1_555
Cs4 Se30 4.060876 1_555
Cs4 Se7 4.071953 1_455
Cs5 Se13 3.771322 1_555
Cs5 Se1 3.981656 1_455
Cs5 Se22 4.021757 1_555
Cs5 Se19 4.032252 1_455
Cs5 Se31 4.060876 1_455
Cs5 Se6 4.071953 1_555
Cs6 Se14 3.771322 1_555
Cs6 Se2 3.981656 1_655
Cs6 Se21 4.021757 1_555
Cs6 Se16 4.032252 1_655
Cs6 Se28 4.060876 1_655
Cs6 Se5 4.071953 1_555
Cs7 Se15 3.771322 1_555
Cs7 Se3 3.981656 1_555
Cs7 Se20 4.021757 1_555
Cs7 Se17 4.032252 1_555
Cs7 Se29 4.060876 1_555
Cs7 Se4 4.071953 1_655
Cd0 Se15 2.699103 1_555
Cd0 Se18 2.701729 1_555
Cd0 Se11 2.702277 1_555
Cd0 Se0 2.712708 1_555
Cd1 Se14 2.699103 1_555
Cd1 Se19 2.701729 1_555
Cd1 Se10 2.702277 1_655
Cd1 Se1 2.712708 1_555
Cd2 Se13 2.699103 1_545
Cd2 Se16 2.701729 1_555
Cd2 Se9 2.702277 1_445
Cd2 Se2 2.712708 1_555
Cd3 Se12 2.699103 1_565
Cd3 Se17 2.701729 1_555
Cd3 Se8 2.702277 1_565
Cd3 Se3 2.712708 1_555
Se0 Sn8 2.499779 1_555
Se1 Sn9 2.499779 1_655
Se2 Sn10 2.499779 1_455
Se3 Sn11 2.499779 1_555
Se4 Sn11 2.573805 1_455
Se4 Sn2 2.627325 1_465
Se5 Sn10 2.573805 1_555
Se5 Sn3 2.627325 1_545
Se6 Sn9 2.573805 1_555
Se6 Sn0 2.627325 1_555
Se7 Sn8 2.573805 1_655
Se7 Sn1 2.627325 1_655
Se8 Sn2 2.518701 1_555
Se9 Sn3 2.518701 1_555
Se10 Sn0 2.518701 1_555
Se11 Sn1 2.518701 1_555
Se12 Sn2 2.534775 1_455
Se13 Sn3 2.534775 1_555
Se14 Sn0 2.534775 1_555
Se15 Sn1 2.534775 1_655
Se16 Sn6 2.504732 1_454
Se17 Sn7 2.504732 1_555
Se18 Sn4 2.504732 1_556
Se19 Sn5 2.504732 1_655
Se20 Sn7 2.578927 1_555
Se20 Sn2 2.624950 1_565
Se21 Sn6 2.578927 1_554
Se21 Sn3 2.624950 1_545
Se22 Sn5 2.578927 1_555
Se22 Sn0 2.624950 1_555
Se23 Sn4 2.578927 1_556
Se23 Sn1 2.624950 1_555
Se24 Sn5 2.608180 1_555
Se24 Sn8 2.622310 1_555
Se25 Sn4 2.608180 1_555
Se25 Sn9 2.622310 1_555
Se26 Sn7 2.608180 1_545
Se26 Sn10 2.622310 1_555
Se27 Sn6 2.608180 1_565
Se27 Sn11 2.622310 1_555
Se28 Sn9 2.600594 1_555
Se28 Sn4 2.608017 1_555
Se29 Sn8 2.600594 1_555
Se29 Sn5 2.608017 1_555
Se30 Sn11 2.600594 1_545
Se30 Sn6 2.608017 1_555
Se31 Sn10 2.600594 1_565
Se31 Sn7 2.608017 1_555
