# generated using pymatgen
data_ReMo2C
_symmetry_space_group_name_H-M   'P 1'
_cell_length_a   14.35681146
_cell_length_b   14.35681146
_cell_length_c   14.35681231
_cell_angle_alpha   23.96529416
_cell_angle_beta   23.96529416
_cell_angle_gamma   23.96529708
_symmetry_Int_Tables_number   1
_chemical_formula_structural   ReMo2C
_chemical_formula_sum   'Re8 Mo16 C8'
_cell_volume   428.97405225
_cell_formula_units_Z   8
loop_
 _symmetry_equiv_pos_site_id
 _symmetry_equiv_pos_as_xyz
  1  'x, y, z'
loop_
 _atom_site_type_symbol
 _atom_site_label
 _atom_site_symmetry_multiplicity
 _atom_site_fract_x
 _atom_site_fract_y
 _atom_site_fract_z
 _atom_site_occupancy
  Re  Re0_0  1  0.36260150  0.36260150  0.36260150  1
  Re  Re0_1  1  0.36260150  0.36260150  0.86260150  1
  Re  Re0_2  1  0.36260150  0.86260150  0.36260150  1
  Re  Re0_3  1  0.36260150  0.86260150  0.86260150  1
  Re  Re0_4  1  0.86260150  0.36260150  0.36260150  1
  Re  Re0_5  1  0.86260150  0.36260150  0.86260150  1
  Re  Re0_6  1  0.86260150  0.86260150  0.36260150  1
  Re  Re0_7  1  0.86260150  0.86260150  0.86260150  1
  Mo  Mo0_0  1  0.24924950  0.24924950  0.24924950  1
  Mo  Mo0_1  1  0.24924950  0.24924950  0.74924950  1
  Mo  Mo0_2  1  0.24924950  0.74924950  0.24924950  1
  Mo  Mo0_3  1  0.24924950  0.74924950  0.74924950  1
  Mo  Mo0_4  1  0.74924950  0.24924950  0.24924950  1
  Mo  Mo0_5  1  0.74924950  0.24924950  0.74924950  1
  Mo  Mo0_6  1  0.74924950  0.74924950  0.24924950  1
  Mo  Mo0_7  1  0.74924950  0.74924950  0.74924950  1
  Mo  Mo1_0  1  0.13773500  0.13773500  0.13773500  1
  Mo  Mo1_1  1  0.13773500  0.13773500  0.63773500  1
  Mo  Mo1_2  1  0.13773500  0.63773500  0.13773500  1
  Mo  Mo1_3  1  0.13773500  0.63773500  0.63773500  1
  Mo  Mo1_4  1  0.63773500  0.13773500  0.13773500  1
  Mo  Mo1_5  1  0.63773500  0.13773500  0.63773500  1
  Mo  Mo1_6  1  0.63773500  0.63773500  0.13773500  1
  Mo  Mo1_7  1  0.63773500  0.63773500  0.63773500  1
  C  C0_0  1  0.00041400  0.00041400  0.00041400  1
  C  C0_1  1  0.00041400  0.00041400  0.50041400  1
  C  C0_2  1  0.00041400  0.50041400  0.00041400  1
  C  C0_3  1  0.00041400  0.50041400  0.50041400  1
  C  C0_4  1  0.50041400  0.00041400  0.00041400  1
  C  C0_5  1  0.50041400  0.00041400  0.50041400  1
  C  C0_6  1  0.50041400  0.50041400  0.00041400  1
  C  C0_7  1  0.50041400  0.50041400  0.50041400  1
loop_
_geom_bond_atom_site_label_1
_geom_bond_atom_site_label_2
_geom_bond_distance
_geom_bond_site_symmetry_2
Mo0_0 Re0_2 2.816274 1_545
Mo0_0 Re0_4 2.816274 1_455
Mo0_0 Re0_1 2.816274 1_554
Mo0_0 Mo1_4 2.877477 1_555
Mo0_0 Mo1_2 2.877477 1_555
Mo0_0 Mo1_1 2.877478 1_555
Mo0_0 Mo0_5 2.980696 1_554
Mo0_0 Mo0_3 2.980696 1_554
Mo0_0 Mo0_5 2.980696 1_455
Mo0_0 Mo0_3 2.980696 1_545
Mo0_0 Mo0_6 2.980696 1_455
Mo0_0 Mo0_6 2.980696 1_545
Mo0_1 Re0_5 2.816274 1_455
Mo0_1 Re0_3 2.816274 1_545
Mo0_1 Re0_0 2.816274 1_555
Mo0_1 Mo1_3 2.877477 1_555
Mo0_1 Mo1_5 2.877477 1_555
Mo0_1 Mo1_0 2.877478 1_556
Mo0_1 Mo0_4 2.980696 1_456
Mo0_1 Mo0_2 2.980696 1_546
Mo0_1 Mo0_2 2.980696 1_555
Mo0_1 Mo0_4 2.980696 1_555
Mo0_1 Mo0_7 2.980696 1_455
Mo0_1 Mo0_7 2.980696 1_545
Mo0_2 Re0_0 2.816274 1_555
Mo0_2 Re0_6 2.816274 1_455
Mo0_2 Re0_3 2.816274 1_554
Mo0_2 Mo1_6 2.877477 1_555
Mo0_2 Mo1_0 2.877477 1_565
Mo0_2 Mo1_3 2.877478 1_555
Mo0_2 Mo0_7 2.980696 1_554
Mo0_2 Mo0_7 2.980696 1_455
Mo0_2 Mo0_4 2.980696 1_465
Mo0_2 Mo0_4 2.980696 1_555
Mo0_3 Re0_1 2.816274 1_555
Mo0_3 Re0_7 2.816274 1_455
Mo0_3 Re0_2 2.816274 1_555
Mo0_3 Mo1_7 2.877477 1_555
Mo0_3 Mo1_1 2.877477 1_565
Mo0_3 Mo1_2 2.877478 1_556
Mo0_3 Mo0_6 2.980696 1_555
Mo0_3 Mo0_6 2.980696 1_456
Mo0_3 Mo0_5 2.980696 1_555
Mo0_3 Mo0_5 2.980696 1_465
Mo0_4 Re0_0 2.816274 1_555
Mo0_4 Re0_6 2.816274 1_545
Mo0_4 Re0_5 2.816274 1_554
Mo0_4 Mo1_6 2.877477 1_555
Mo0_4 Mo1_0 2.877477 1_655
Mo0_4 Mo1_5 2.877478 1_555
Mo0_4 Mo0_7 2.980696 1_554
Mo0_4 Mo0_7 2.980696 1_545
Mo0_5 Re0_1 2.816274 1_555
Mo0_5 Re0_7 2.816274 1_545
Mo0_5 Re0_4 2.816274 1_555
Mo0_5 Mo1_7 2.877477 1_555
Mo0_5 Mo1_1 2.877477 1_655
Mo0_5 Mo1_4 2.877478 1_556
Mo0_5 Mo0_6 2.980696 1_555
Mo0_5 Mo0_6 2.980696 1_546
Mo0_6 Re0_2 2.816274 1_555
Mo0_6 Re0_4 2.816274 1_555
Mo0_6 Re0_7 2.816274 1_554
Mo0_6 Mo1_2 2.877477 1_655
Mo0_6 Mo1_4 2.877477 1_565
Mo0_6 Mo1_7 2.877478 1_555
Mo0_7 Re0_5 2.816274 1_555
Mo0_7 Re0_3 2.816274 1_555
Mo0_7 Re0_6 2.816274 1_555
Mo0_7 Mo1_3 2.877477 1_655
Mo0_7 Mo1_5 2.877477 1_565
Mo0_7 Mo1_6 2.877478 1_556
C0_0 Re0_5 2.101716 1_454
C0_0 Re0_3 2.101716 1_544
C0_0 Re0_6 2.101716 1_445
C0_0 Mo1_4 2.113581 1_455
C0_0 Mo1_2 2.113581 1_545
C0_0 Mo1_1 2.113581 1_554
C0_1 Re0_4 2.101716 1_455
C0_1 Re0_2 2.101716 1_545
C0_1 Re0_7 2.101716 1_445
C0_1 Mo1_5 2.113581 1_455
C0_1 Mo1_3 2.113581 1_545
C0_1 Mo1_0 2.113581 1_555
C0_2 Re0_7 2.101716 1_454
C0_2 Re0_1 2.101716 1_554
C0_2 Re0_4 2.101716 1_455
C0_2 Mo1_0 2.113581 1_555
C0_2 Mo1_6 2.113581 1_455
C0_2 Mo1_3 2.113581 1_554
C0_3 Re0_6 2.101716 1_455
C0_3 Re0_0 2.101716 1_555
C0_3 Re0_5 2.101716 1_455
C0_3 Mo1_1 2.113581 1_555
C0_3 Mo1_7 2.113581 1_455
C0_3 Mo1_2 2.113581 1_555
C0_4 Re0_7 2.101716 1_544
C0_4 Re0_1 2.101716 1_554
C0_4 Re0_2 2.101716 1_545
C0_4 Mo1_0 2.113581 1_555
C0_4 Mo1_6 2.113581 1_545
C0_4 Mo1_5 2.113581 1_554
C0_5 Re0_6 2.101716 1_545
C0_5 Re0_0 2.101716 1_555
C0_5 Re0_3 2.101716 1_545
C0_5 Mo1_1 2.113581 1_555
C0_5 Mo1_7 2.113581 1_545
C0_5 Mo1_4 2.113581 1_555
C0_6 Re0_5 2.101716 1_554
C0_6 Re0_3 2.101716 1_554
C0_6 Re0_0 2.101716 1_555
C0_6 Mo1_4 2.113581 1_555
C0_6 Mo1_2 2.113581 1_555
C0_6 Mo1_7 2.113581 1_554
C0_7 Re0_2 2.101716 1_555
C0_7 Re0_4 2.101716 1_555
C0_7 Re0_1 2.101716 1_555
C0_7 Mo1_5 2.113581 1_555
C0_7 Mo1_3 2.113581 1_555
C0_7 Mo1_6 2.113581 1_555
