# generated using pymatgen
data_Er11(AlGe4)2
_symmetry_space_group_name_H-M   'P 1'
_cell_length_a   11.18735372
_cell_length_b   11.18735372
_cell_length_c   11.18735372
_cell_angle_alpha   121.39884412
_cell_angle_beta   121.39884412
_cell_angle_gamma   87.59373946
_symmetry_Int_Tables_number   1
_chemical_formula_structural   Er11(AlGe4)2
_chemical_formula_sum   'Er22 Al4 Ge16'
_cell_volume   968.21141073
_cell_formula_units_Z   2
loop_
 _symmetry_equiv_pos_site_id
 _symmetry_equiv_pos_as_xyz
  1  'x, y, z'
loop_
 _atom_site_type_symbol
 _atom_site_label
 _atom_site_symmetry_multiplicity
 _atom_site_fract_x
 _atom_site_fract_y
 _atom_site_fract_z
 _atom_site_occupancy
  Er  Er0  1  0.66494000  0.66494000  0.00000000  1
  Er  Er1  1  0.33506000  0.33506000  0.00000000  1
  Er  Er2  1  0.17606900  0.17606900  0.35213900  1
  Er  Er3  1  0.82393100  0.82393100  0.64786100  1
  Er  Er4  1  0.17606900  0.82393100  0.00000000  1
  Er  Er5  1  0.82393100  0.17606900  0.00000000  1
  Er  Er6  1  0.80998600  0.06191000  0.25192300  1
  Er  Er7  1  0.80998600  0.55806300  0.74807700  1
  Er  Er8  1  0.06191000  0.80998600  0.25192300  1
  Er  Er9  1  0.55806300  0.80998600  0.74807700  1
  Er  Er10  1  0.19001400  0.93809000  0.74807700  1
  Er  Er11  1  0.19001400  0.44193700  0.25192300  1
  Er  Er12  1  0.93809000  0.19001400  0.74807700  1
  Er  Er13  1  0.44193700  0.19001400  0.25192300  1
  Er  Er14  1  0.60194700  0.93152900  0.32958200  1
  Er  Er15  1  0.60194700  0.27236500  0.67041800  1
  Er  Er16  1  0.93152900  0.60194700  0.32958200  1
  Er  Er17  1  0.27236500  0.60194700  0.67041800  1
  Er  Er18  1  0.39805300  0.06847100  0.67041800  1
  Er  Er19  1  0.39805300  0.72763500  0.32958200  1
  Er  Er20  1  0.06847100  0.39805300  0.67041800  1
  Er  Er21  1  0.72763500  0.39805300  0.32958200  1
  Al  Al0  1  0.37825600  0.37825600  0.75651300  1
  Al  Al1  1  0.62174400  0.62174400  0.24348700  1
  Al  Al2  1  0.37825600  0.62174400  0.00000000  1
  Al  Al3  1  0.62174400  0.37825600  0.00000000  1
  Ge  Ge0  1  0.75000000  0.25000000  0.50000000  1
  Ge  Ge1  1  0.25000000  0.75000000  0.50000000  1
  Ge  Ge2  1  0.88188600  0.88188600  0.00000000  1
  Ge  Ge3  1  0.11811400  0.11811400  0.00000000  1
  Ge  Ge4  1  0.35591500  0.00000000  0.35591500  1
  Ge  Ge5  1  0.64408500  0.00000000  0.64408500  1
  Ge  Ge6  1  0.00000000  0.64408500  0.64408500  1
  Ge  Ge7  1  0.00000000  0.35591500  0.35591500  1
  Ge  Ge8  1  0.88187100  0.88187100  0.41193700  1
  Ge  Ge9  1  0.46993300  0.46993300  0.58806300  1
  Ge  Ge10  1  0.88187100  0.46993300  0.00000000  1
  Ge  Ge11  1  0.46993300  0.88187100  0.00000000  1
  Ge  Ge12  1  0.11812900  0.11812900  0.58806300  1
  Ge  Ge13  1  0.53006700  0.53006700  0.41193700  1
  Ge  Ge14  1  0.11812900  0.53006700  0.00000000  1
  Ge  Ge15  1  0.53006700  0.11812900  0.00000000  1
loop_
_geom_bond_atom_site_label_1
_geom_bond_atom_site_label_2
_geom_bond_distance
_geom_bond_site_symmetry_2
Er0 Ge9 3.194459 1_554
Er0 Ge8 3.194460 1_555
Er0 Ge11 3.194467 1_555
Er0 Ge10 3.194467 1_555
Er0 Ge2 3.503682 1_555
Er1 Ge13 3.194459 1_555
Er1 Ge12 3.194460 1_554
Er1 Ge15 3.194467 1_555
Er1 Ge14 3.194467 1_555
Er1 Ge3 3.503682 1_555
Er2 Ge7 2.755937 1_555
Er2 Ge4 2.755937 1_555
Er2 Ge2 3.327573 1_445
Er2 Ge3 3.327582 1_555
Er2 Ge9 3.377447 1_555
Er2 Ge12 3.377447 1_555
Er3 Ge6 2.755937 1_655
Er3 Ge5 2.755937 1_565
Er3 Ge3 3.327573 1_666
Er3 Ge2 3.327582 1_556
Er3 Ge8 3.377447 1_555
Er3 Ge13 3.377447 1_555
Er4 Ge6 2.755937 1_554
Er4 Ge4 2.755937 1_565
Er4 Ge3 3.327571 1_565
Er4 Ge2 3.327571 1_455
Er4 Ge11 3.377447 1_555
Er4 Ge14 3.377447 1_555
Er5 Ge7 2.755937 1_655
Er5 Ge5 2.755937 1_554
Er5 Ge3 3.327571 1_655
Er5 Ge2 3.327571 1_545
Er5 Ge15 3.377447 1_555
Er5 Ge10 3.377447 1_555
Er6 Ge0 2.884017 1_555
Er6 Ge2 2.992989 1_545
Er6 Ge8 3.166871 1_545
Er6 Ge11 3.166871 1_545
Er6 Ge15 3.260452 1_555
Er6 Ge12 3.260468 1_655
Er6 Ge7 3.273179 1_655
Er7 Ge0 2.884020 1_555
Er7 Ge2 2.992987 1_556
Er7 Ge10 3.166869 1_556
Er7 Ge9 3.166871 1_555
Er7 Ge14 3.260459 1_656
Er7 Ge13 3.260465 1_555
Er7 Ge6 3.273189 1_655
Er8 Ge1 2.884017 1_555
Er8 Ge2 2.992989 1_455
Er8 Ge8 3.166871 1_455
Er8 Ge10 3.166871 1_455
Er8 Ge14 3.260452 1_555
Er8 Ge12 3.260468 1_565
Er8 Ge4 3.273179 1_565
Er9 Ge1 2.884020 1_555
Er9 Ge2 2.992987 1_556
Er9 Ge11 3.166869 1_556
Er9 Ge9 3.166871 1_555
Er9 Ge15 3.260459 1_566
Er9 Ge13 3.260465 1_555
Er9 Ge5 3.273189 1_565
Er10 Ge1 2.884017 1_555
Er10 Ge3 2.992989 1_566
Er10 Ge12 3.166871 1_565
Er10 Ge15 3.166871 1_566
Er10 Ge11 3.260452 1_556
Er10 Ge8 3.260468 1_455
Er10 Ge6 3.273179 1_555
Er11 Ge1 2.884020 1_555
Er11 Ge3 2.992987 1_555
Er11 Ge14 3.166869 1_555
Er11 Ge13 3.166871 1_555
Er11 Ge10 3.260459 1_455
Er11 Ge9 3.260465 1_555
Er11 Ge7 3.273189 1_555
Er12 Ge0 2.884017 1_555
Er12 Ge3 2.992989 1_656
Er12 Ge12 3.166871 1_655
Er12 Ge14 3.166871 1_656
Er12 Ge10 3.260452 1_556
Er12 Ge8 3.260468 1_545
Er12 Ge5 3.273179 1_555
Er13 Ge0 2.884020 1_555
Er13 Ge3 2.992987 1_555
Er13 Ge15 3.166869 1_555
Er13 Ge13 3.166871 1_555
Er13 Ge11 3.260459 1_545
Er13 Ge9 3.260465 1_555
Er13 Ge4 3.273189 1_555
Er14 Ge11 2.888823 1_555
Er14 Ge8 2.888824 1_555
Er14 Ge4 2.946565 1_565
Er14 Ge5 2.946565 1_565
Er14 Ge0 3.033051 1_565
Er15 Ge9 2.888817 1_555
Er15 Ge10 2.888823 1_556
Er15 Ge4 2.946565 1_555
Er15 Ge5 2.946565 1_555
Er15 Ge0 3.033051 1_555
Er16 Ge10 2.888823 1_555
Er16 Ge8 2.888824 1_555
Er16 Ge7 2.946565 1_655
Er16 Ge6 2.946565 1_655
Er16 Ge1 3.033051 1_655
Er17 Ge9 2.888817 1_555
Er17 Ge11 2.888823 1_556
Er17 Ge7 2.946565 1_555
Er17 Ge6 2.946565 1_555
Er17 Ge1 3.033051 1_555
Er18 Ge15 2.888823 1_556
Er18 Ge12 2.888824 1_555
Er18 Ge4 2.946565 1_555
Er18 Ge5 2.946565 1_555
Er18 Ge1 3.033051 1_545
Er19 Ge13 2.888817 1_555
Er19 Ge14 2.888823 1_555
Er19 Ge4 2.946565 1_565
Er19 Ge5 2.946565 1_565
Er19 Ge1 3.033051 1_555
Er20 Ge14 2.888823 1_556
Er20 Ge12 2.888824 1_555
Er20 Ge7 2.946565 1_555
Er20 Ge6 2.946565 1_555
Er20 Ge0 3.033051 1_455
Er21 Ge13 2.888817 1_555
Er21 Ge15 2.888823 1_555
Er21 Ge7 2.946565 1_655
Er21 Ge6 2.946565 1_655
Er21 Ge0 3.033051 1_555
Al0 Al2 2.666185 1_556
Al0 Al3 2.666185 1_556
Al0 Er18 3.109225 1_555
Al0 Er20 3.109225 1_555
Al0 Er17 3.109234 1_555
Al0 Er15 3.109234 1_555
Al0 Ge9 3.125924 1_555
Al0 Ge12 3.125924 1_555
Al0 Er2 3.130991 1_555
Al0 Er1 3.263428 1_556
Al0 Er0 3.263441 1_556
Al1 Al2 2.666185 1_555
Al1 Al3 2.666185 1_555
Al1 Er16 3.109225 1_555
Al1 Er14 3.109225 1_555
Al1 Er19 3.109234 1_555
Al1 Er21 3.109234 1_555
Al1 Ge8 3.125924 1_555
Al1 Ge13 3.125924 1_555
Al1 Er3 3.130991 1_555
Al1 Er0 3.263428 1_555
Al1 Er1 3.263441 1_555
Al2 Er19 3.109228 1_555
Al2 Er20 3.109228 1_554
Al2 Er14 3.109228 1_555
Al2 Er17 3.109228 1_554
Al2 Ge14 3.125924 1_555
Al2 Ge11 3.125924 1_555
Al2 Er4 3.130991 1_555
Al2 Er1 3.263439 1_555
Al2 Er0 3.263439 1_555
Al3 Er21 3.109228 1_555
Al3 Er18 3.109228 1_554
Al3 Er16 3.109228 1_555
Al3 Er15 3.109228 1_554
Al3 Ge10 3.125924 1_555
Al3 Ge15 3.125924 1_555
Al3 Er5 3.130991 1_555
Al3 Er1 3.263439 1_555
Al3 Er0 3.263439 1_555
Ge10 Ge14 2.754610 1_655
Ge11 Ge15 2.754610 1_565
Ge12 Ge8 2.754603 1_445
Ge13 Ge9 2.754631 1_555
