# generated using pymatgen
data_CaZn3O4
_symmetry_space_group_name_H-M   'P 1'
_cell_length_a   3.42175680
_cell_length_b   6.41912682
_cell_length_c   5.89752234
_cell_angle_alpha   62.56131372
_cell_angle_beta   90.00351246
_cell_angle_gamma   74.54050910
_symmetry_Int_Tables_number   1
_chemical_formula_structural   CaZn3O4
_chemical_formula_sum   'Ca1 Zn3 O4'
_cell_volume   109.65590342
_cell_formula_units_Z   1
loop_
 _symmetry_equiv_pos_site_id
 _symmetry_equiv_pos_as_xyz
  1  'x, y, z'
loop_
 _atom_site_type_symbol
 _atom_site_label
 _atom_site_symmetry_multiplicity
 _atom_site_fract_x
 _atom_site_fract_y
 _atom_site_fract_z
 _atom_site_occupancy
  Ca  Ca0  1  0.74870700  0.50258400  0.41803600  1
  Zn  Zn0  1  0.24822600  0.50369200  0.91195500  1
  Zn  Zn1  1  0.99798300  0.00403400  0.33465800  1
  Zn  Zn2  1  0.50546000  0.98889100  0.83450400  1
  O  O0  1  0.95345700  0.09294900  0.62494500  1
  O  O1  1  0.44156800  0.11689000  0.10600000  1
  O  O2  1  0.17993900  0.64019200  0.53531400  1
  O  O3  1  0.69065900  0.61876800  0.00058800  1
loop_
_geom_bond_atom_site_label_1
_geom_bond_atom_site_label_2
_geom_bond_distance
_geom_bond_site_symmetry_2
Ca0 O2 2.166336 1_555
Ca0 O2 2.166504 1_655
Ca0 O3 2.210315 1_555
Ca0 O0 2.225940 1_555
O0 Zn2 2.026701 1_645
O0 Zn2 2.027012 1_545
O0 Zn1 2.033228 1_555
O1 Zn1 2.081408 1_555
O1 Zn1 2.081651 1_455
O1 Zn2 2.098403 1_544
O1 Zn0 2.101851 1_554
O2 Zn0 1.963005 1_555
O2 Zn1 1.979988 1_465
O3 Zn2 2.014524 1_554
O3 Zn0 2.015617 1_554
O3 Zn0 2.015804 1_654
