# generated using pymatgen
data_Rb2Cu3P4(O3F)4
_symmetry_space_group_name_H-M   'P 1'
_cell_length_a   9.61414800
_cell_length_b   7.86967100
_cell_length_c   9.37608890
_cell_angle_alpha   84.60750628
_cell_angle_beta   90.00000000
_cell_angle_gamma   90.00000000
_symmetry_Int_Tables_number   1
_chemical_formula_structural   Rb2Cu3P4(O3F)4
_chemical_formula_sum   'Rb4 Cu6 P8 O24 F8'
_cell_volume   706.25700253
_cell_formula_units_Z   2
loop_
 _symmetry_equiv_pos_site_id
 _symmetry_equiv_pos_as_xyz
  1  'x, y, z'
loop_
 _atom_site_type_symbol
 _atom_site_label
 _atom_site_symmetry_multiplicity
 _atom_site_fract_x
 _atom_site_fract_y
 _atom_site_fract_z
 _atom_site_occupancy
  Rb  Rb0  1  0.53969400  0.38102900  0.18649700  1
  Rb  Rb1  1  0.03969400  0.61897100  0.31350300  1
  Rb  Rb2  1  0.46030600  0.61897100  0.81350300  1
  Rb  Rb3  1  0.96030600  0.38102900  0.68649700  1
  Cu  Cu0  1  0.64561000  0.88835600  0.18411900  1
  Cu  Cu1  1  0.14561000  0.11164400  0.31588100  1
  Cu  Cu2  1  0.35439000  0.11164400  0.81588100  1
  Cu  Cu3  1  0.85439000  0.88835600  0.68411900  1
  Cu  Cu4  1  0.50000000  0.00000000  0.50000000  1
  Cu  Cu5  1  0.00000000  0.00000000  0.00000000  1
  P  P0  1  0.68869500  0.10845100  0.88813300  1
  P  P1  1  0.18869500  0.89154900  0.61186700  1
  P  P2  1  0.31130500  0.89154900  0.11186700  1
  P  P3  1  0.81130500  0.10845100  0.38813300  1
  P  P4  1  0.81452300  0.68771200  0.98196800  1
  P  P5  1  0.31452300  0.31228800  0.51803200  1
  P  P6  1  0.18547700  0.31228800  0.01803200  1
  P  P7  1  0.68547700  0.68771200  0.48196800  1
  O  O0  1  0.65936400  0.09373500  0.04878800  1
  O  O1  1  0.15936400  0.90626500  0.45121200  1
  O  O2  1  0.34063600  0.90626500  0.95121200  1
  O  O3  1  0.84063600  0.09373500  0.54878800  1
  O  O4  1  0.66621700  0.73149600  0.02731800  1
  O  O5  1  0.16621700  0.26850400  0.47268200  1
  O  O6  1  0.33378300  0.26850400  0.97268200  1
  O  O7  1  0.83378300  0.73149600  0.52731800  1
  O  O8  1  0.16857200  0.31786700  0.17946200  1
  O  O9  1  0.66857200  0.68213300  0.32053800  1
  O  O10  1  0.83142800  0.68213300  0.82053800  1
  O  O11  1  0.33142800  0.31786700  0.67946200  1
  O  O12  1  0.66314500  0.04050300  0.35417000  1
  O  O13  1  0.16314500  0.95949700  0.14583000  1
  O  O14  1  0.33685500  0.95949700  0.64583000  1
  O  O15  1  0.83685500  0.04050300  0.85417000  1
  O  O16  1  0.42903800  0.22074800  0.44214600  1
  O  O17  1  0.92903800  0.77925200  0.05785400  1
  O  O18  1  0.57096200  0.77925200  0.55785400  1
  O  O19  1  0.07096200  0.22074800  0.94214600  1
  O  O20  1  0.42003300  0.94393800  0.21376600  1
  O  O21  1  0.92003300  0.05606200  0.28623400  1
  O  O22  1  0.57996700  0.05606200  0.78623400  1
  O  O23  1  0.07996700  0.94393800  0.71376600  1
  F  F0  1  0.70285700  0.31279100  0.85281200  1
  F  F1  1  0.20285700  0.68720900  0.64718800  1
  F  F2  1  0.29714300  0.68720900  0.14718800  1
  F  F3  1  0.79714300  0.31279100  0.35281200  1
  F  F4  1  0.83598300  0.49416200  0.04590700  1
  F  F5  1  0.33598300  0.50583800  0.45409300  1
  F  F6  1  0.16401700  0.50583800  0.95409300  1
  F  F7  1  0.66401700  0.49416200  0.54590700  1
loop_
_geom_bond_atom_site_label_1
_geom_bond_atom_site_label_2
_geom_bond_distance
_geom_bond_site_symmetry_2
Cu0 O0 1.963257 1_565
Cu0 O9 1.982028 1_555
Cu0 O4 2.016339 1_555
Cu0 O12 2.088788 1_565
Cu0 O20 2.234915 1_555
Cu1 O1 1.963257 1_545
Cu1 O8 1.982028 1_555
Cu1 O5 2.016339 1_555
Cu1 O13 2.088788 1_545
Cu1 O21 2.234915 1_455
Cu2 O2 1.963257 1_545
Cu2 O11 1.982028 1_555
Cu2 O6 2.016339 1_555
Cu2 O14 2.088788 1_545
Cu2 O22 2.234915 1_555
Cu3 O3 1.963257 1_565
Cu3 O10 1.982028 1_555
Cu3 O7 2.016339 1_555
Cu3 O15 2.088788 1_565
Cu3 O23 2.234915 1_655
Cu4 O16 1.897496 1_555
Cu4 O18 1.897496 1_545
Cu4 O12 2.085528 1_555
Cu4 O14 2.085528 1_545
Cu5 O19 1.897496 1_554
Cu5 O17 1.897496 1_445
Cu5 O15 2.085528 1_454
Cu5 O13 2.085528 1_545
O0 P0 1.526149 1_554
O0 Rb0 2.941297 1_555
O1 P1 1.526149 1_555
O1 Rb1 2.941297 1_555
O2 P2 1.526149 1_556
O2 Rb2 2.941297 1_555
O3 P3 1.526149 1_555
O3 Rb3 2.941297 1_555
O4 P4 1.536252 1_554
O4 Rb2 3.009304 1_554
O4 Rb0 3.246590 1_555
O5 P5 1.536252 1_555
O5 Rb3 3.009304 1_455
O5 Rb1 3.246590 1_555
O6 P6 1.536252 1_556
O6 Rb0 3.009304 1_556
O6 Rb2 3.246590 1_555
O7 P7 1.536252 1_555
O7 Rb1 3.009304 1_655
O7 Rb3 3.246590 1_555
O8 P6 1.527011 1_555
O8 Rb1 3.047859 1_555
O9 P7 1.527011 1_555
O9 Rb0 3.047859 1_555
O10 P4 1.527011 1_555
O10 Rb3 3.047859 1_555
O11 P5 1.527011 1_555
O11 Rb2 3.047859 1_555
O12 P3 1.564721 1_555
O12 Rb0 3.204660 1_555
O13 P2 1.564721 1_555
O13 Rb1 3.204660 1_555
O14 P1 1.564721 1_555
O14 Rb2 3.204660 1_555
O15 P0 1.564721 1_555
O15 Rb3 3.204660 1_555
O16 P5 1.527637 1_555
O16 Rb0 2.810712 1_555
O17 P4 1.527637 1_554
O17 Rb1 2.810712 1_655
O18 P7 1.527637 1_555
O18 Rb2 2.810712 1_555
O19 P6 1.527637 1_556
O19 Rb3 2.810712 1_455
O20 P2 1.499846 1_555
O21 P3 1.499846 1_555
O22 P0 1.499846 1_555
O23 P1 1.499846 1_555
F0 P0 1.616807 1_555
F0 Rb3 2.947719 1_555
F0 Rb2 3.348528 1_555
F1 P1 1.616807 1_555
F1 Rb2 2.947719 1_555
F1 Rb3 3.348528 1_455
F2 P2 1.616807 1_555
F2 Rb1 2.947719 1_555
F2 Rb0 3.348528 1_555
F3 P3 1.616807 1_555
F3 Rb0 2.947719 1_555
F3 Rb1 3.348528 1_655
F4 P4 1.596996 1_554
F4 Rb0 3.228626 1_555
F4 Rb1 3.399819 1_655
F5 P5 1.596996 1_555
F5 Rb1 3.228626 1_555
F5 Rb0 3.399819 1_555
F6 P6 1.596996 1_556
F6 Rb2 3.228626 1_555
F6 Rb3 3.399819 1_455
F7 P7 1.596996 1_555
F7 Rb3 3.228626 1_555
F7 Rb2 3.399819 1_555
