# generated using pymatgen
data_UCoNiGe2
_symmetry_space_group_name_H-M   'P 1'
_cell_length_a   4.20384900
_cell_length_b   4.20384900
_cell_length_c   10.47823700
_cell_angle_alpha   90.00000000
_cell_angle_beta   90.00000000
_cell_angle_gamma   90.00000000
_symmetry_Int_Tables_number   1
_chemical_formula_structural   UCoNiGe2
_chemical_formula_sum   'U2 Co2 Ni2 Ge4'
_cell_volume   185.17503408
_cell_formula_units_Z   2
loop_
 _symmetry_equiv_pos_site_id
 _symmetry_equiv_pos_as_xyz
  1  'x, y, z'
loop_
 _atom_site_type_symbol
 _atom_site_label
 _atom_site_symmetry_multiplicity
 _atom_site_fract_x
 _atom_site_fract_y
 _atom_site_fract_z
 _atom_site_occupancy
  U  U0  1  0.00000000  0.50000000  0.82146900  1
  U  U1  1  0.50000000  0.00000000  0.17853100  1
  Co  Co0  1  0.50000000  0.50000000  0.00000000  1
  Co  Co1  1  0.00000000  0.00000000  0.00000000  1
  Ni  Ni0  1  0.00000000  0.50000000  0.60205900  1
  Ni  Ni1  1  0.50000000  0.00000000  0.39794100  1
  Ge  Ge0  1  0.50000000  0.50000000  0.50000000  1
  Ge  Ge1  1  0.00000000  0.00000000  0.50000000  1
  Ge  Ge2  1  0.00000000  0.50000000  0.13356300  1
  Ge  Ge3  1  0.50000000  0.00000000  0.86643700  1
loop_
_geom_bond_atom_site_label_1
_geom_bond_atom_site_label_2
_geom_bond_distance
_geom_bond_site_symmetry_2
Co0 Ge2 2.525213 1_655
Co0 Ge2 2.525213 1_555
Co0 Ge3 2.525213 1_554
Co0 Ge3 2.525213 1_564
Co0 U1 2.813817 1_555
Co0 U0 2.813817 1_654
Co0 U0 2.813817 1_554
Co0 U1 2.813817 1_565
Co1 Ge2 2.525213 1_555
Co1 Ge3 2.525213 1_554
Co1 Ge2 2.525213 1_545
Co1 Ge3 2.525213 1_454
Co1 U0 2.813817 1_544
Co1 U1 2.813817 1_455
Co1 U1 2.813817 1_555
Co1 U0 2.813817 1_554
Ni0 U0 2.299030 1_555
Ni1 U1 2.299030 1_555
Ge0 Ni0 2.358326 1_655
Ge0 Ni0 2.358326 1_555
Ge0 Ni1 2.358326 1_555
Ge0 Ni1 2.358326 1_565
Ge1 Ni1 2.358326 1_455
Ge1 Ni0 2.358326 1_555
Ge1 Ni0 2.358326 1_545
Ge1 Ni1 2.358326 1_555
Ge2 U1 3.009683 1_465
Ge2 U1 3.009683 1_555
Ge2 U1 3.009683 1_455
Ge2 U1 3.009683 1_565
Ge3 U0 3.009683 1_655
Ge3 U0 3.009683 1_545
Ge3 U0 3.009683 1_555
Ge3 U0 3.009683 1_645
