# generated using pymatgen
data_K2MoH(OF2)2
_symmetry_space_group_name_H-M   'P 1'
_cell_length_a   6.29649400
_cell_length_b   6.29174800
_cell_length_c   18.30056672
_cell_angle_alpha   84.84597762
_cell_angle_beta   90.00000000
_cell_angle_gamma   90.00000000
_symmetry_Int_Tables_number   1
_chemical_formula_structural   K2MoH(OF2)2
_chemical_formula_sum   'K8 Mo4 H4 O8 F16'
_cell_volume   722.06310862
_cell_formula_units_Z   4
loop_
 _symmetry_equiv_pos_site_id
 _symmetry_equiv_pos_as_xyz
  1  'x, y, z'
loop_
 _atom_site_type_symbol
 _atom_site_label
 _atom_site_symmetry_multiplicity
 _atom_site_fract_x
 _atom_site_fract_y
 _atom_site_fract_z
 _atom_site_occupancy
  K  K0  1  0.64900500  0.24769600  0.25057400  1
  K  K1  1  0.35099500  0.75230400  0.74942600  1
  K  K2  1  0.14900500  0.75230400  0.24942600  1
  K  K3  1  0.85099500  0.24769600  0.75057400  1
  K  K4  1  0.66827000  0.69861600  0.39683600  1
  K  K5  1  0.33173000  0.30138400  0.60316400  1
  K  K6  1  0.16827000  0.30138400  0.10316400  1
  K  K7  1  0.83173000  0.69861600  0.89683600  1
  Mo  Mo0  1  0.65510700  0.79667700  0.13017300  1
  Mo  Mo1  1  0.34489300  0.20332300  0.86982700  1
  Mo  Mo2  1  0.15510700  0.20332300  0.36982700  1
  Mo  Mo3  1  0.84489300  0.79667700  0.63017300  1
  H  H0  1  0.18076500  0.72028400  0.00891100  1
  H  H1  1  0.81923500  0.27971600  0.99108900  1
  H  H2  1  0.68076500  0.27971600  0.49108900  1
  H  H3  1  0.31923500  0.72028400  0.50891100  1
  O  O0  1  0.67673500  0.76916200  0.03666800  1
  O  O1  1  0.32326500  0.23083800  0.96333200  1
  O  O2  1  0.17673500  0.23083800  0.46333200  1
  O  O3  1  0.82326500  0.76916200  0.53666800  1
  O  O4  1  0.46950500  0.00221000  0.13469600  1
  O  O5  1  0.53049500  0.99779000  0.86530400  1
  O  O6  1  0.96950500  0.99779000  0.36530400  1
  O  O7  1  0.03049500  0.00221000  0.63469600  1
  F  F0  1  0.90700000  0.98182000  0.13498600  1
  F  F1  1  0.09300000  0.01818000  0.86501400  1
  F  F2  1  0.40700000  0.01818000  0.36501400  1
  F  F3  1  0.59300000  0.98182000  0.63498600  1
  F  F4  1  0.87059400  0.54977000  0.15514400  1
  F  F5  1  0.12940600  0.45023000  0.84485600  1
  F  F6  1  0.37059400  0.45023000  0.34485600  1
  F  F7  1  0.62940600  0.54977000  0.65514400  1
  F  F8  1  0.68302200  0.78409100  0.24511200  1
  F  F9  1  0.31697800  0.21590900  0.75488800  1
  F  F10  1  0.18302200  0.21590900  0.25488800  1
  F  F11  1  0.81697800  0.78409100  0.74511200  1
  F  F12  1  0.94293700  0.43267100  0.34652800  1
  F  F13  1  0.05706300  0.56732900  0.65347200  1
  F  F14  1  0.44293700  0.56732900  0.15347200  1
  F  F15  1  0.55706300  0.43267100  0.84652800  1
loop_
_geom_bond_atom_site_label_1
_geom_bond_atom_site_label_2
_geom_bond_distance
_geom_bond_site_symmetry_2
K0 O4 2.957796 1_555
K0 O6 3.218693 1_545
K1 O5 2.957796 1_555
K1 O7 3.218693 1_565
K2 O6 2.957796 1_455
K2 O4 3.218693 1_565
K3 O7 2.957796 1_655
K3 O5 3.218693 1_545
K4 O6 2.697880 1_555
K4 O3 2.811053 1_555
K5 O7 2.697880 1_555
K5 O2 2.811053 1_555
K6 O4 2.697880 1_555
K6 O1 2.811053 1_554
K7 O5 2.697880 1_555
K7 O0 2.811053 1_556
Mo0 O0 1.740668 1_555
Mo0 O4 1.750450 1_565
Mo1 O1 1.740668 1_555
Mo1 O5 1.750450 1_545
Mo2 O2 1.740668 1_555
Mo2 O6 1.750450 1_445
Mo3 O3 1.740668 1_555
Mo3 O7 1.750450 1_665
H0 K7 3.017523 1_454
H0 K6 3.018457 1_555
H1 K6 3.017523 1_656
H1 K7 3.018457 1_555
H2 K5 3.017523 1_555
H2 K4 3.018457 1_555
H3 K4 3.017523 1_555
H3 K5 3.018457 1_555
F0 Mo0 1.974501 1_555
F0 K6 2.622528 1_665
F0 K2 2.872283 1_655
F0 K0 3.247706 1_565
F1 Mo1 1.974501 1_555
F1 K7 2.622528 1_445
F1 K3 2.872283 1_455
F1 K1 3.247706 1_545
F2 Mo2 1.974501 1_555
F2 K4 2.622528 1_545
F2 K0 2.872283 1_555
F2 K2 3.247706 1_545
F3 Mo3 1.974501 1_555
F3 K5 2.622528 1_565
F3 K1 2.872283 1_555
F3 K3 3.247706 1_565
F4 Mo0 2.082190 1_555
F4 K6 2.669708 1_655
F4 K0 2.830636 1_555
F4 K2 2.840592 1_655
F5 Mo1 2.082190 1_555
F5 K7 2.669708 1_455
F5 K1 2.830636 1_555
F5 K3 2.840592 1_455
F6 Mo2 2.082190 1_555
F6 K4 2.669708 1_555
F6 K2 2.830636 1_555
F6 K0 2.840592 1_555
F7 Mo3 2.082190 1_555
F7 K5 2.669708 1_555
F7 K3 2.830636 1_555
F7 K1 2.840592 1_555
F8 Mo0 2.105169 1_555
F8 K4 2.781953 1_555
F8 K0 2.935383 1_565
F8 K2 2.941445 1_655
F9 Mo1 2.105169 1_555
F9 K5 2.781953 1_555
F9 K1 2.935383 1_545
F9 K3 2.941445 1_455
F10 Mo2 2.105169 1_555
F10 K6 2.781953 1_555
F10 K2 2.935383 1_545
F10 K0 2.941445 1_555
F11 Mo3 2.105169 1_555
F11 K7 2.781953 1_555
F11 K3 2.935383 1_565
F11 K1 2.941445 1_555
F12 Mo2 1.984492 1_655
F12 K4 2.629669 1_555
F12 K0 2.868880 1_555
F12 K2 2.871163 1_655
F13 Mo3 1.984492 1_455
F13 K5 2.629669 1_555
F13 K1 2.868880 1_555
F13 K3 2.871163 1_455
F14 Mo0 1.984492 1_555
F14 K6 2.629669 1_555
F14 K2 2.868880 1_555
F14 K0 2.871163 1_555
F15 Mo1 1.984492 1_555
F15 K7 2.629669 1_555
F15 K3 2.868880 1_555
F15 K1 2.871163 1_555
