# generated using pymatgen
data_V4Bi23O44
_symmetry_space_group_name_H-M   'P 1'
_cell_length_a   11.76839497
_cell_length_b   11.99111950
_cell_length_c   11.86515838
_cell_angle_alpha   92.30846007
_cell_angle_beta   119.77818014
_cell_angle_gamma   118.57758553
_symmetry_Int_Tables_number   1
_chemical_formula_structural   V4Bi23O44
_chemical_formula_sum   'V4 Bi23 O44'
_cell_volume   1188.40804190
_cell_formula_units_Z   1
loop_
 _symmetry_equiv_pos_site_id
 _symmetry_equiv_pos_as_xyz
  1  'x, y, z'
loop_
 _atom_site_type_symbol
 _atom_site_label
 _atom_site_symmetry_multiplicity
 _atom_site_fract_x
 _atom_site_fract_y
 _atom_site_fract_z
 _atom_site_occupancy
  V  V0  1  0.48964800  0.36266200  0.84888600  1
  V  V1  1  0.49525800  0.66905200  0.17463800  1
  V  V2  1  0.23637500  0.97941800  0.25181700  1
  V  V3  1  0.82009200  0.01636100  0.80823900  1
  Bi  Bi0  1  0.13592300  0.65271500  0.82219300  1
  Bi  Bi1  1  0.17876900  0.35059600  0.82266900  1
  Bi  Bi2  1  0.20219200  0.69399100  0.51548800  1
  Bi  Bi3  1  0.14400300  0.32072700  0.48659600  1
  Bi  Bi4  1  0.16609500  0.66711200  0.17633900  1
  Bi  Bi5  1  0.15621900  0.00247600  0.83106300  1
  Bi  Bi6  1  0.47838100  0.65308700  0.82128900  1
  Bi  Bi7  1  0.16700400  0.33213200  0.14572600  1
  Bi  Bi8  1  0.17460300  0.99656600  0.50429900  1
  Bi  Bi9  1  0.51363500  0.01636900  0.15449500  1
  Bi  Bi10  1  0.51348800  0.66846100  0.52486400  1
  Bi  Bi11  1  0.49662000  0.35278400  0.49973000  1
  Bi  Bi12  1  0.51360700  0.00709400  0.83535400  1
  Bi  Bi13  1  0.85654900  0.02174000  0.50317200  1
  Bi  Bi14  1  0.84268700  0.69593400  0.85103300  1
  Bi  Bi15  1  0.51658400  0.00589900  0.49821900  1
  Bi  Bi16  1  0.51880200  0.33940600  0.14769100  1
  Bi  Bi17  1  0.85220500  0.01539300  0.15127800  1
  Bi  Bi18  1  0.83774000  0.34307300  0.83046000  1
  Bi  Bi19  1  0.84544800  0.66068900  0.49543000  1
  Bi  Bi20  1  0.81282600  0.33707900  0.50372000  1
  Bi  Bi21  1  0.82447600  0.63162000  0.16350700  1
  Bi  Bi22  1  0.85717900  0.33523800  0.17881300  1
  O  O0  1  0.99488300  0.77569200  0.75846700  1
  O  O1  1  0.08743100  0.99640600  0.62533900  1
  O  O2  1  0.01248600  0.77999000  0.42955100  1
  O  O3  1  0.36696700  0.99185200  0.91265300  1
  O  O4  1  0.99031300  0.57112100  0.23407100  1
  O  O5  1  0.35196400  0.94459100  0.59703600  1
  O  O6  1  0.99156200  0.39249500  0.40031800  1
  O  O7  1  0.27663000  0.56732000  0.83409700  1
  O  O8  1  0.37717900  0.79082300  0.75921400  1
  O  O9  1  0.34816900  0.42088700  0.75268200  1
  O  O10  1  0.34348400  0.74775400  0.41638900  1
  O  O11  1  0.08182300  0.45687200  0.12257000  1
  O  O12  1  0.34909400  0.58836800  0.58805800  1
  O  O13  1  0.33750300  0.26362100  0.89622000  1
  O  O14  1  0.36410300  0.43912200  0.37972400  1
  O  O15  1  0.71534000  0.81518700  0.74862900  1
  O  O16  1  0.66795500  0.55567300  0.90454400  1
  O  O17  1  0.36251100  0.71406000  0.14282300  1
  O  O18  1  0.45477900  0.24642300  0.72495600  1
  O  O19  1  0.23193900  0.12196200  0.10747200  1
  O  O20  1  0.37823200  0.48845500  0.11006300  1
  O  O21  1  0.25806300  0.15134300  0.24489900  1
  O  O22  1  0.64261800  0.55998900  0.64029500  1
  O  O23  1  0.60941500  0.81319500  0.11709000  1
  O  O24  1  0.27821000  0.02221000  0.11311400  1
  O  O25  1  0.61044500  0.69069200  0.09452800  1
  O  O26  1  0.63135100  0.72734100  0.35102400  1
  O  O27  1  0.65295400  0.41871300  0.43917100  1
  O  O28  1  0.96824100  0.58220100  0.91100100  1
  O  O29  1  0.65573100  0.24107800  0.59085000  1
  O  O30  1  0.74645600  0.53272200  0.28945100  1
  O  O31  1  0.73976300  0.00141100  0.91626200  1
  O  O32  1  0.64064700  0.23516400  0.22310700  1
  O  O33  1  0.64279700  0.39334900  0.04508800  1
  O  O34  1  0.99828900  0.58577000  0.59092600  1
  O  O35  1  0.65806100  0.06267500  0.39848900  1
  O  O36  1  0.97653900  0.42383400  0.74933100  1
  O  O37  1  0.94438400  0.22768600  0.89074600  1
  O  O38  1  0.05107300  0.83783600  0.19550800  1
  O  O39  1  0.92691400  0.04785400  0.72429100  1
  O  O40  1  0.69154600  0.06896500  0.11677300  1
  O  O41  1  0.01191500  0.24801300  0.58748200  1
  O  O42  1  0.97592600  0.08070300  0.38624800  1
  O  O43  1  0.01110500  0.23940800  0.21894400  1
loop_
_geom_bond_atom_site_label_1
_geom_bond_atom_site_label_2
_geom_bond_distance
_geom_bond_site_symmetry_2
Bi0 O34 2.227433 1_455
Bi0 O36 2.251953 1_455
Bi0 O7 2.282980 1_555
Bi0 O28 2.502049 1_455
Bi0 O0 2.585748 1_455
Bi1 O7 2.247551 1_555
Bi1 O41 2.264038 1_555
Bi1 O9 2.338269 1_555
Bi1 O13 2.378400 1_555
Bi1 O36 2.682640 1_455
Bi1 O20 2.784521 1_556
Bi2 O8 2.340608 1_555
Bi2 O10 2.353838 1_555
Bi2 O12 2.457299 1_555
Bi2 O5 2.465239 1_555
Bi2 O2 2.667106 1_555
Bi2 O4 2.712292 1_455
Bi2 O34 2.737007 1_455
Bi3 O6 2.175029 1_455
Bi3 O41 2.290225 1_555
Bi3 O42 2.356287 1_455
Bi3 O9 2.565554 1_555
Bi3 O43 2.615381 1_555
Bi3 O12 2.639411 1_555
Bi4 O11 2.143855 1_555
Bi4 O4 2.294897 1_455
Bi4 O10 2.312219 1_555
Bi4 O17 2.346115 1_555
Bi4 O28 2.561691 1_454
Bi5 O1 2.141361 1_545
Bi5 O0 2.233648 1_445
Bi5 O3 2.243203 1_545
Bi5 O13 2.594286 1_555
Bi5 O39 2.692170 1_455
Bi6 O7 2.180121 1_555
Bi6 O12 2.256200 1_555
Bi6 O9 2.293436 1_555
Bi6 O8 2.407755 1_555
Bi6 O25 2.708583 1_556
Bi6 O16 2.777524 1_555
Bi7 O11 2.124087 1_555
Bi7 O43 2.250869 1_555
Bi7 O14 2.281231 1_555
Bi7 O37 2.503593 1_454
Bi7 O20 2.553993 1_555
Bi8 O2 2.136461 1_555
Bi8 O1 2.139332 1_555
Bi8 O5 2.230315 1_555
Bi8 O42 2.750306 1_465
Bi9 O32 2.155860 1_555
Bi9 O40 2.161489 1_555
Bi9 O35 2.378745 1_555
Bi9 O3 2.413837 1_544
Bi9 O24 2.599862 1_555
Bi10 O12 2.224583 1_555
Bi10 O15 2.268952 1_555
Bi10 O14 2.367492 1_555
Bi10 O22 2.417471 1_555
Bi10 O10 2.433936 1_555
Bi11 O27 2.119793 1_555
Bi11 O22 2.154705 1_555
Bi11 O14 2.233626 1_555
Bi11 O29 2.640954 1_555
Bi11 O21 2.711251 1_555
Bi12 O8 2.122833 1_545
Bi12 O3 2.266405 1_545
Bi12 O5 2.301853 1_545
Bi12 O31 2.377121 1_555
Bi12 O40 2.730164 1_556
Bi13 O41 2.219017 1_655
Bi13 O39 2.279227 1_555
Bi13 O42 2.337285 1_555
Bi13 O35 2.346110 1_555
Bi13 O1 2.547383 1_645
Bi14 O22 2.145956 1_555
Bi14 O28 2.347578 1_555
Bi14 O16 2.352534 1_555
Bi14 O0 2.393491 1_555
Bi14 O15 2.479653 1_555
Bi15 O29 2.320963 1_555
Bi15 O35 2.360766 1_555
Bi15 O10 2.536707 1_545
Bi15 O5 2.575159 1_545
Bi16 O30 2.156082 1_555
Bi16 O32 2.224781 1_555
Bi16 O33 2.225928 1_555
Bi16 O13 2.425704 1_554
Bi17 O40 2.137593 1_555
Bi17 O43 2.210529 1_655
Bi17 O42 2.281922 1_555
Bi17 O31 2.374829 1_554
Bi17 O23 2.519700 1_545
Bi18 O36 2.157807 1_555
Bi18 O37 2.202379 1_555
Bi18 O29 2.308986 1_555
Bi18 O28 2.366928 1_555
Bi19 O30 2.200997 1_555
Bi19 O34 2.220303 1_555
Bi19 O2 2.334032 1_655
Bi19 O27 2.459672 1_555
Bi19 O0 2.572217 1_555
Bi19 O26 2.769759 1_555
Bi20 O27 2.340012 1_555
Bi20 O36 2.355449 1_555
Bi20 O29 2.402100 1_555
Bi20 O34 2.451239 1_555
Bi20 O32 2.699426 1_555
Bi20 O35 2.716581 1_555
Bi20 O6 2.768222 1_555
Bi20 O41 2.790041 1_655
Bi21 O4 2.194663 1_555
Bi21 O30 2.224043 1_555
Bi21 O33 2.357369 1_555
Bi21 O38 2.445408 1_655
Bi21 O16 2.492257 1_554
Bi21 O2 2.620950 1_655
Bi21 O25 2.687360 1_555
Bi22 O6 2.137096 1_555
Bi22 O4 2.340001 1_555
Bi22 O43 2.450985 1_655
Bi22 O32 2.581723 1_555
Bi22 O40 2.639559 1_555
Bi22 O33 2.676384 1_555
Bi22 O11 2.775543 1_655
O9 V0 1.962431 1_555
O13 V0 1.987455 1_555
O15 V3 1.997655 1_565
O16 V0 2.012475 1_555
O17 V1 1.763962 1_555
O18 V0 1.720968 1_555
O19 O21 1.493195 1_555
O19 O24 1.524836 1_555
O20 V1 1.771535 1_555
O21 V2 1.962909 1_545
O23 O25 1.489362 1_555
O23 V1 2.010798 1_555
O24 V2 1.960936 1_545
O25 V1 1.942052 1_555
O26 V1 1.707471 1_555
O31 V3 1.904860 1_555
O33 V0 1.982958 1_554
O37 V3 2.085894 1_555
O38 V2 1.733105 1_555
O39 V3 1.880154 1_555
