# generated using pymatgen
data_PrHo
_symmetry_space_group_name_H-M   'P 1'
_cell_length_a   7.34732274
_cell_length_b   7.34732274
_cell_length_c   11.68168204
_cell_angle_alpha   90.00000000
_cell_angle_beta   90.00000000
_cell_angle_gamma   119.99999187
_symmetry_Int_Tables_number   1
_chemical_formula_structural   PrHo
_chemical_formula_sum   'Pr8 Ho8'
_cell_volume   546.12779761
_cell_formula_units_Z   8
loop_
 _symmetry_equiv_pos_site_id
 _symmetry_equiv_pos_as_xyz
  1  'x, y, z'
loop_
 _atom_site_type_symbol
 _atom_site_label
 _atom_site_symmetry_multiplicity
 _atom_site_fract_x
 _atom_site_fract_y
 _atom_site_fract_z
 _atom_site_occupancy
  Pr  Pr0_0  1  0.00000000  0.00000000  0.00000000  1
  Pr  Pr0_1  1  0.00000000  0.00000000  0.50000000  1
  Pr  Pr0_2  1  0.00000000  0.50000000  0.00000000  1
  Pr  Pr0_3  1  0.00000000  0.50000000  0.50000000  1
  Pr  Pr0_4  1  0.50000000  0.00000000  0.00000000  1
  Pr  Pr0_5  1  0.50000000  0.00000000  0.50000000  1
  Pr  Pr0_6  1  0.50000000  0.50000000  0.00000000  1
  Pr  Pr0_7  1  0.50000000  0.50000000  0.50000000  1
  Ho  Ho0_0  1  0.16666650  0.33333350  0.25000000  1
  Ho  Ho0_1  1  0.16666650  0.33333350  0.75000000  1
  Ho  Ho0_2  1  0.16666650  0.83333350  0.25000000  1
  Ho  Ho0_3  1  0.16666650  0.83333350  0.75000000  1
  Ho  Ho0_4  1  0.66666650  0.33333350  0.25000000  1
  Ho  Ho0_5  1  0.66666650  0.33333350  0.75000000  1
  Ho  Ho0_6  1  0.66666650  0.83333350  0.25000000  1
  Ho  Ho0_7  1  0.66666650  0.83333350  0.75000000  1
loop_
_geom_bond_atom_site_label_1
_geom_bond_atom_site_label_2
_geom_bond_distance
_geom_bond_site_symmetry_2
Pr0_0 Pr0_4 3.673661 1_455
Pr0_0 Pr0_2 3.673661 1_545
Pr0_0 Pr0_4 3.673661 1_555
Pr0_0 Pr0_2 3.673661 1_555
Pr0_0 Pr0_6 3.673662 1_555
Pr0_0 Pr0_6 3.673662 1_445
Pr0_1 Pr0_3 3.673661 1_555
Pr0_1 Pr0_5 3.673661 1_455
Pr0_1 Pr0_3 3.673661 1_545
Pr0_1 Pr0_5 3.673661 1_555
Pr0_1 Pr0_7 3.673662 1_555
Pr0_1 Pr0_7 3.673662 1_445
Pr0_2 Pr0_6 3.673661 1_455
Pr0_2 Pr0_6 3.673661 1_555
Pr0_2 Pr0_4 3.673662 1_565
Pr0_2 Pr0_4 3.673662 1_455
Pr0_3 Pr0_7 3.673661 1_555
Pr0_3 Pr0_7 3.673661 1_455
Pr0_3 Pr0_5 3.673662 1_565
Pr0_3 Pr0_5 3.673662 1_455
Pr0_4 Pr0_6 3.673661 1_545
Pr0_4 Pr0_6 3.673661 1_555
Pr0_5 Pr0_7 3.673661 1_555
Pr0_5 Pr0_7 3.673661 1_545
Ho0_0 Pr0_3 3.609355 1_555
Ho0_0 Pr0_2 3.609355 1_555
Ho0_0 Pr0_0 3.609357 1_555
Ho0_0 Pr0_6 3.609357 1_555
Ho0_0 Pr0_7 3.609357 1_555
Ho0_0 Pr0_1 3.609357 1_555
Ho0_0 Ho0_4 3.673661 1_555
Ho0_0 Ho0_2 3.673661 1_555
Ho0_0 Ho0_4 3.673661 1_455
Ho0_0 Ho0_2 3.673661 1_545
Ho0_0 Ho0_6 3.673662 1_445
Ho0_0 Ho0_6 3.673662 1_555
Ho0_1 Pr0_2 3.609355 1_556
Ho0_1 Pr0_3 3.609355 1_555
Ho0_1 Pr0_6 3.609357 1_556
Ho0_1 Pr0_0 3.609357 1_556
Ho0_1 Pr0_7 3.609357 1_555
Ho0_1 Pr0_1 3.609357 1_555
Ho0_1 Ho0_5 3.673661 1_555
Ho0_1 Ho0_3 3.673661 1_555
Ho0_1 Ho0_5 3.673661 1_455
Ho0_1 Ho0_3 3.673661 1_545
Ho0_1 Ho0_7 3.673662 1_445
Ho0_1 Ho0_7 3.673662 1_555
Ho0_2 Pr0_1 3.609355 1_565
Ho0_2 Pr0_0 3.609355 1_565
Ho0_2 Pr0_5 3.609357 1_565
Ho0_2 Pr0_2 3.609357 1_555
Ho0_2 Pr0_4 3.609357 1_565
Ho0_2 Pr0_3 3.609357 1_555
Ho0_2 Ho0_6 3.673661 1_555
Ho0_2 Ho0_6 3.673661 1_455
Ho0_2 Ho0_4 3.673662 1_565
Ho0_2 Ho0_4 3.673662 1_455
Ho0_3 Pr0_0 3.609355 1_566
Ho0_3 Pr0_1 3.609355 1_565
Ho0_3 Pr0_2 3.609357 1_556
Ho0_3 Pr0_5 3.609357 1_565
Ho0_3 Pr0_4 3.609357 1_566
Ho0_3 Pr0_3 3.609357 1_555
Ho0_3 Ho0_7 3.673661 1_555
Ho0_3 Ho0_7 3.673661 1_455
Ho0_3 Ho0_5 3.673662 1_565
Ho0_3 Ho0_5 3.673662 1_455
Ho0_4 Pr0_7 3.609355 1_555
Ho0_4 Pr0_6 3.609355 1_555
Ho0_4 Pr0_3 3.609357 1_655
Ho0_4 Pr0_5 3.609357 1_555
Ho0_4 Pr0_4 3.609357 1_555
Ho0_4 Pr0_2 3.609357 1_655
Ho0_4 Ho0_6 3.673661 1_545
Ho0_4 Ho0_6 3.673661 1_555
Ho0_5 Pr0_6 3.609355 1_556
Ho0_5 Pr0_7 3.609355 1_555
Ho0_5 Pr0_5 3.609357 1_555
Ho0_5 Pr0_2 3.609357 1_656
Ho0_5 Pr0_4 3.609357 1_556
Ho0_5 Pr0_3 3.609357 1_655
Ho0_5 Ho0_7 3.673661 1_545
Ho0_5 Ho0_7 3.673661 1_555
Ho0_6 Pr0_4 3.609355 1_565
Ho0_6 Pr0_5 3.609355 1_565
Ho0_6 Pr0_1 3.609357 1_665
Ho0_6 Pr0_0 3.609357 1_665
Ho0_6 Pr0_6 3.609357 1_555
Ho0_6 Pr0_7 3.609357 1_555
Ho0_7 Pr0_4 3.609355 1_566
Ho0_7 Pr0_5 3.609355 1_565
Ho0_7 Pr0_0 3.609357 1_666
Ho0_7 Pr0_1 3.609357 1_665
Ho0_7 Pr0_6 3.609357 1_556
Ho0_7 Pr0_7 3.609357 1_555
