# generated using pymatgen
data_Ca(CoO2)2
_symmetry_space_group_name_H-M   'P 1'
_cell_length_a   5.13315500
_cell_length_b   5.92738700
_cell_length_c   11.04727200
_cell_angle_alpha   90.00000000
_cell_angle_beta   90.00000000
_cell_angle_gamma   90.00000000
_symmetry_Int_Tables_number   1
_chemical_formula_structural   Ca(CoO2)2
_chemical_formula_sum   'Ca4 Co8 O16'
_cell_volume   336.12646552
_cell_formula_units_Z   4
loop_
 _symmetry_equiv_pos_site_id
 _symmetry_equiv_pos_as_xyz
  1  'x, y, z'
loop_
 _atom_site_type_symbol
 _atom_site_label
 _atom_site_symmetry_multiplicity
 _atom_site_fract_x
 _atom_site_fract_y
 _atom_site_fract_z
 _atom_site_occupancy
  Ca  Ca0  1  0.35278100  0.00000000  0.50000000  1
  Ca  Ca1  1  0.64721900  0.50000000  0.00000000  1
  Ca  Ca2  1  0.03024700  0.00000000  0.00000000  1
  Ca  Ca3  1  0.96975300  0.50000000  0.50000000  1
  Co  Co0  1  0.01041300  0.50000000  0.23792900  1
  Co  Co1  1  0.01041300  0.50000000  0.76207100  1
  Co  Co2  1  0.98958700  0.00000000  0.26207100  1
  Co  Co3  1  0.98958700  0.00000000  0.73792900  1
  Co  Co4  1  0.50000000  0.25000000  0.25000000  1
  Co  Co5  1  0.50000000  0.75000000  0.75000000  1
  Co  Co6  1  0.50000000  0.75000000  0.25000000  1
  Co  Co7  1  0.50000000  0.25000000  0.75000000  1
  O  O0  1  0.33362500  0.50000000  0.15233800  1
  O  O1  1  0.33362500  0.50000000  0.84766200  1
  O  O2  1  0.66637500  0.00000000  0.34766200  1
  O  O3  1  0.66637500  0.00000000  0.65233800  1
  O  O4  1  0.66990900  0.50000000  0.33928700  1
  O  O5  1  0.66990900  0.50000000  0.66071300  1
  O  O6  1  0.33009100  0.00000000  0.16071300  1
  O  O7  1  0.33009100  0.00000000  0.83928700  1
  O  O8  1  0.16376400  0.25175900  0.35442900  1
  O  O9  1  0.16376400  0.74824100  0.64557100  1
  O  O10  1  0.83623600  0.75175900  0.14557100  1
  O  O11  1  0.83623600  0.24824100  0.85442900  1
  O  O12  1  0.83623600  0.24824100  0.14557100  1
  O  O13  1  0.83623600  0.75175900  0.85442900  1
  O  O14  1  0.16376400  0.74824100  0.35442900  1
  O  O15  1  0.16376400  0.25175900  0.64557100  1
loop_
_geom_bond_atom_site_label_1
_geom_bond_atom_site_label_2
_geom_bond_distance
_geom_bond_site_symmetry_2
Ca0 O3 2.328827 1_555
Ca0 O2 2.328827 1_555
Ca0 O9 2.398845 1_545
Ca0 O14 2.398845 1_545
Ca0 O8 2.398845 1_555
Ca0 O15 2.398845 1_555
Ca1 O1 2.328827 1_554
Ca1 O0 2.328827 1_555
Ca1 O13 2.398845 1_554
Ca1 O10 2.398845 1_555
Ca1 O11 2.398845 1_554
Ca1 O12 2.398845 1_555
Ca2 O7 2.349714 1_554
Ca2 O6 2.349714 1_555
Ca2 O13 2.396468 1_444
Ca2 O11 2.396468 1_454
Ca2 O12 2.396468 1_455
Ca2 O10 2.396468 1_445
Ca3 O4 2.349714 1_555
Ca3 O5 2.349714 1_555
Ca3 O15 2.396468 1_655
Ca3 O8 2.396468 1_655
Ca3 O14 2.396468 1_655
Ca3 O9 2.396468 1_655
Co0 O0 1.909624 1_555
Co0 O10 2.016748 1_455
Co0 O12 2.016748 1_455
Co0 O4 2.075767 1_455
Co0 O8 2.107394 1_555
Co0 O14 2.107394 1_555
Co1 O1 1.909624 1_555
Co1 O13 2.016748 1_455
Co1 O11 2.016748 1_455
Co1 O5 2.075767 1_455
Co1 O15 2.107394 1_555
Co1 O9 2.107394 1_555
Co2 O2 1.909624 1_555
Co2 O14 2.016748 1_645
Co2 O8 2.016748 1_655
Co2 O6 2.075767 1_655
Co2 O12 2.107394 1_555
Co2 O10 2.107394 1_545
Co3 O3 1.909624 1_555
Co3 O9 2.016748 1_645
Co3 O15 2.016748 1_655
Co3 O7 2.075767 1_655
Co3 O11 2.107394 1_555
Co3 O13 2.107394 1_545
Co4 O6 1.982294 1_555
Co4 O4 1.982294 1_555
Co4 O0 2.022191 1_555
Co4 O2 2.022191 1_555
Co4 O8 2.076039 1_555
Co4 O12 2.076039 1_555
Co5 O7 1.982294 1_565
Co5 O5 1.982294 1_555
Co5 O3 2.022191 1_565
Co5 O1 2.022191 1_555
Co5 O13 2.076039 1_555
Co5 O9 2.076039 1_555
Co6 O6 1.982294 1_565
Co6 O4 1.982294 1_555
Co6 O0 2.022191 1_555
Co6 O2 2.022191 1_565
Co6 O14 2.076039 1_555
Co6 O10 2.076039 1_555
Co7 O7 1.982294 1_555
Co7 O5 1.982294 1_555
Co7 O3 2.022191 1_555
Co7 O1 2.022191 1_555
Co7 O15 2.076039 1_555
Co7 O11 2.076039 1_555
