# generated using pymatgen
data_Li7V3P8O29
_symmetry_space_group_name_H-M   'P 1'
_cell_length_a   9.85345563
_cell_length_b   9.81809049
_cell_length_c   13.87419372
_cell_angle_alpha   90.10194285
_cell_angle_beta   89.90767554
_cell_angle_gamma   60.04580440
_symmetry_Int_Tables_number   1
_chemical_formula_structural   Li7V3P8O29
_chemical_formula_sum   'Li14 V6 P16 O58'
_cell_volume   1162.92512317
_cell_formula_units_Z   2
loop_
 _symmetry_equiv_pos_site_id
 _symmetry_equiv_pos_as_xyz
  1  'x, y, z'
loop_
 _atom_site_type_symbol
 _atom_site_label
 _atom_site_symmetry_multiplicity
 _atom_site_fract_x
 _atom_site_fract_y
 _atom_site_fract_z
 _atom_site_occupancy
  Li  Li0  1  0.91065962  0.77149070  0.06272394  1
  Li  Li1  1  0.76546833  0.89980722  0.55962399  1
  Li  Li2  1  0.90328021  0.33383120  0.56133599  1
  Li  Li3  1  0.67170898  0.66712007  0.88363489  1
  Li  Li4  1  0.77341383  0.31770903  0.06448519  1
  Li  Li5  1  0.31403534  0.90874779  0.06326174  1
  Li  Li6  1  0.66568288  0.23529685  0.43558755  1
  Li  Li7  1  0.33677378  0.76215823  0.55896327  1
  Li  Li8  1  0.67679669  0.09392349  0.94302626  1
  Li  Li9  1  0.22556130  0.67988902  0.94190204  1
  Li  Li10  1  0.10125913  0.66440886  0.43695181  1
  Li  Li11  1  0.23734894  0.10067909  0.43869854  1
  Li  Li12  1  0.09473167  0.22736723  0.93901863  1
  Li  Li13  1  0.00826045  0.99182091  0.49637482  1
  V  V0  1  0.56617871  0.43372393  0.25061733  1
  V  V1  1  0.43420536  0.56322951  0.74929553  1
  V  V2  1  0.56388001  0.00105207  0.74904494  1
  V  V3  1  0.43561998  0.00135220  0.25066188  1
  V  V4  1  0.00178154  0.56505211  0.24969092  1
  V  V5  1  0.99867718  0.43396887  0.74901673  1
  P  P0  1  0.90814082  0.77257457  0.84292170  1
  P  P1  1  0.77300137  0.91155441  0.34149802  1
  P  P2  1  0.91409309  0.31411753  0.34365408  1
  P  P3  1  0.66823771  0.66819973  0.12664605  1
  P  P4  1  0.66347438  0.66832811  0.62613392  1
  P  P5  1  0.76860062  0.31961871  0.84371647  1
  P  P6  1  0.68677830  0.22691226  0.65643988  1
  P  P7  1  0.31986894  0.90888448  0.84249369  1
  P  P8  1  0.68252720  0.08657975  0.15681455  1
  P  P9  1  0.31218748  0.77596311  0.34308251  1
  P  P10  1  0.23121110  0.67916607  0.15876293  1
  P  P11  1  0.33319628  0.33163290  0.37388774  1
  P  P12  1  0.33467860  0.33113240  0.87287834  1
  P  P13  1  0.08748432  0.68520997  0.65679310  1
  P  P14  1  0.22792391  0.08511368  0.65637925  1
  P  P15  1  0.08926275  0.22963755  0.15737395  1
  O  O0  1  0.99973908  0.78036141  0.56812782  1
  O  O1  1  0.91901993  0.74432612  0.34173206  1
  O  O2  1  0.75982186  0.99222798  0.06701144  1
  O  O3  1  0.74682379  0.92492625  0.84308455  1
  O  O4  1  0.88113757  0.63237440  0.82802363  1
  O  O5  1  0.81435860  0.67560019  0.16583020  1
  O  O6  1  0.91024850  0.47182837  0.33031562  1
  O  O7  1  0.99869615  0.24248147  0.06718178  1
  O  O8  1  0.91726006  0.33170589  0.84642703  1
  O  O9  1  0.67133144  0.81487404  0.67084330  1
  O  O10  1  0.62142871  0.90538665  0.33107761  1
  O  O11  1  0.80665650  0.51420108  0.66278706  1
  O  O12  1  0.66300596  0.67912749  0.01800769  1
  O  O13  1  0.65433024  0.68319481  0.51908294  1
  O  O14  1  0.67465709  0.51579101  0.16177690  1
  O  O15  1  0.48615688  0.88699694  0.82660099  1
  O  O16  1  0.51583007  0.81682776  0.16935591  1
  O  O17  1  0.75131018  0.33180222  0.34499911  1
  O  O18  1  0.78872926  0.21039310  0.75132565  1
  O  O19  1  0.77803370  0.22442194  0.56761406  1
  O  O20  1  0.74592092  0.24639510  0.93289044  1
  O  O21  1  0.62568948  0.48706936  0.82506959  1
  O  O22  1  0.50981934  0.67551846  0.66910712  1
  O  O23  1  0.67221264  0.24665844  0.15661392  1
  O  O24  1  0.46835574  0.62629878  0.33433588  1
  O  O25  1  0.32815525  0.92442087  0.34197821  1
  O  O26  1  0.79450887  0.99600718  0.24865096  1
  O  O27  1  0.77713433  0.99859297  0.43144571  1
  O  O28  1  0.22989244  0.99373890  0.56723234  1
  O  O29  1  0.66580206  0.08188200  0.65633245  1
  O  O30  1  0.52957446  0.38140464  0.66682547  1
  O  O31  1  0.33495831  0.74474840  0.84440771  1
  O  O32  1  0.48819410  0.31966460  0.33818551  1
  O  O33  1  0.37440974  0.51971684  0.17322539  1
  O  O34  1  0.23521469  0.76294129  0.06831980  1
  O  O35  1  0.21584866  0.78353065  0.43214154  1
  O  O36  1  0.20599231  0.79345462  0.24956942  1
  O  O37  1  0.25200344  0.66915984  0.65874227  1
  O  O38  1  0.48469506  0.18260521  0.82663343  1
  O  O39  1  0.52215011  0.09986039  0.17441201  1
  O  O40  1  0.33399585  0.48244203  0.82850999  1
  O  O41  1  0.35078353  0.32906522  0.97942901  1
  O  O42  1  0.32283084  0.32673999  0.48125968  1
  O  O43  1  0.18915371  0.48638250  0.33244942  1
  O  O44  1  0.37992923  0.09097780  0.66881582  1
  O  O45  1  0.32577563  0.18422055  0.32952716  1
  O  O46  1  0.07958380  0.66573896  0.16002141  1
  O  O47  1  0.99904735  0.79041337  0.75114739  1
  O  O48  1  0.00223280  0.75708473  0.93207827  1
  O  O49  1  0.09471595  0.52835850  0.66664454  1
  O  O50  1  0.18795286  0.32782240  0.83674100  1
  O  O51  1  0.10114144  0.37846275  0.17572706  1
  O  O52  1  0.25207217  0.08183703  0.15671196  1
  O  O53  1  0.24292424  0.00158698  0.93221335  1
  O  O54  1  0.21260379  0.99580985  0.75063572  1
  O  O55  1  0.08066041  0.24694806  0.65706131  1
  O  O56  1  0.00524610  0.22437994  0.43268134  1
  O  O57  1  0.00064897  0.20865306  0.24946787  1
loop_
_geom_bond_atom_site_label_1
_geom_bond_atom_site_label_2
_geom_bond_distance
_geom_bond_site_symmetry_2
Li0 O2 1.921463 1_555
Li0 O46 1.989285 1_655
Li0 O48 1.996516 1_654
Li0 O5 2.173860 1_555
Li1 O0 2.003955 1_555
Li1 O29 2.048034 1_565
Li1 O27 2.057501 1_555
Li1 O9 2.170075 1_555
Li2 O19 2.002079 1_555
Li2 O55 2.017181 1_655
Li2 O56 2.063879 1_655
Li2 O11 2.080101 1_555
Li3 O12 1.866957 1_556
Li3 O4 2.064230 1_555
Li3 O15 2.167602 1_555
Li3 O21 2.188004 1_555
Li4 O23 1.951546 1_555
Li4 O7 1.958973 1_555
Li4 O20 2.020772 1_554
Li4 O14 2.155869 1_555
Li5 O34 1.941104 1_555
Li5 O52 1.973640 1_565
Li5 O53 1.999957 1_564
Li5 O16 2.270899 1_555
Li6 O17 1.997102 1_555
Li6 O27 2.015166 1_545
Li6 O32 2.033685 1_555
Li6 O19 2.116953 1_555
Li7 O28 1.974685 1_555
Li7 O37 2.051877 1_555
Li7 O35 2.078023 1_555
Li7 O22 2.128571 1_555
Li8 O20 1.934756 1_555
Li8 O2 1.954534 1_546
Li8 O3 1.999319 1_545
Li8 O38 2.306044 1_555
Li9 O48 1.941977 1_555
Li9 O34 1.955293 1_556
Li9 O31 2.020143 1_555
Li9 O40 2.299990 1_555
Li10 O35 1.991461 1_555
Li10 O1 2.046892 1_455
Li10 O43 2.093460 1_555
Li10 O0 2.111509 1_455
Li11 O56 1.984858 1_555
Li11 O25 2.009389 1_545
Li11 O28 2.090750 1_545
Li11 O45 2.107127 1_555
Li12 O53 1.954846 1_555
Li12 O7 1.983112 1_456
Li12 O8 1.995167 1_455
Li12 O50 2.176136 1_555
Li13 O35 2.229493 1_555
Li13 O0 2.342984 1_455
Li13 O28 2.404975 1_555
Li13 O27 2.420342 1_455
Li13 O56 2.436131 1_565
Li13 O19 2.479857 1_465
O0 P13 1.527901 1_655
O1 P1 1.551402 1_555
O1 V4 1.987225 1_655
O2 P8 1.509589 1_565
O3 P0 1.545860 1_555
O3 V2 2.043528 1_565
O4 P0 1.540512 1_555
O4 V5 2.018128 1_555
O5 P3 1.575022 1_555
O5 V4 1.987981 1_655
O6 P2 1.541347 1_555
O6 V4 1.930600 1_655
O7 P15 1.506623 1_655
O8 P5 1.528044 1_555
O8 V5 2.069752 1_555
O9 P4 1.602853 1_555
O9 V2 1.922507 1_565
O10 P1 1.531710 1_555
O10 V3 1.942229 1_565
O11 P4 1.553070 1_555
O11 V5 2.038138 1_555
O12 P3 1.510408 1_555
O13 P4 1.491123 1_555
O14 P3 1.545590 1_555
O14 V0 2.042146 1_555
O15 P7 1.557744 1_555
O15 V2 1.963758 1_565
O16 P3 1.594188 1_555
O16 V3 1.933731 1_565
O17 P2 1.524798 1_555
O17 V0 2.057471 1_555
O18 P6 1.615816 1_555
O18 P5 1.616903 1_555
O19 P6 1.517323 1_555
O20 P5 1.503395 1_555
O21 P5 1.563188 1_555
O21 V1 1.955662 1_555
O22 P4 1.594667 1_555
O22 V1 1.957105 1_555
O23 P8 1.523475 1_555
O23 V0 2.058308 1_555
O24 P9 1.510818 1_555
O24 V0 2.005418 1_555
O25 P9 1.542268 1_555
O25 V3 2.023534 1_565
O26 P1 1.603192 1_555
O26 P8 1.631092 1_565
O27 P1 1.523294 1_555
O28 P14 1.521047 1_565
O29 P6 1.537584 1_555
O29 V2 2.021964 1_555
O30 P6 1.540491 1_555
O30 V1 1.921757 1_555
O31 P7 1.542935 1_555
O31 V1 2.029995 1_555
O32 P11 1.552368 1_555
O32 V0 2.044931 1_555
O33 P10 1.509345 1_555
O33 V0 1.962886 1_555
O34 P10 1.512807 1_555
O35 P9 1.535857 1_555
O36 P10 1.619761 1_555
O36 P9 1.622786 1_555
O37 P13 1.548718 1_555
O37 V1 2.007629 1_555
O38 P12 1.601319 1_555
O38 V2 1.883218 1_555
O39 P8 1.538420 1_555
O39 V3 1.898880 1_555
O40 P12 1.605985 1_555
O40 V1 1.895707 1_555
O41 P12 1.486144 1_555
O42 P11 1.495529 1_555
O43 P11 1.582940 1_555
O43 V4 1.977267 1_555
O44 P14 1.537315 1_555
O44 V2 1.927639 1_555
O45 P11 1.606705 1_555
O45 V3 1.908108 1_555
O46 P10 1.564125 1_555
O46 V4 1.967437 1_555
O47 P0 1.614960 1_555
O47 P13 1.622538 1_655
O48 P0 1.508765 1_455
O49 P13 1.512118 1_555
O49 V5 1.984055 1_455
O50 P12 1.546558 1_555
O50 V5 2.028942 1_455
O51 P15 1.543744 1_555
O51 V4 1.888553 1_555
O52 P15 1.534469 1_555
O52 V3 2.044147 1_555
O53 P7 1.502178 1_545
O54 P7 1.605346 1_555
O54 P14 1.623988 1_565
O55 P14 1.525705 1_555
O55 V5 2.039345 1_455
O56 P2 1.525073 1_455
O57 P15 1.616916 1_555
O57 P2 1.617679 1_455
