# generated using pymatgen
data_BaSr3
_symmetry_space_group_name_H-M   'P 1'
_cell_length_a   7.56186843
_cell_length_b   7.56186843
_cell_length_c   7.56186843
_cell_angle_alpha   131.48684067
_cell_angle_beta   131.48684067
_cell_angle_gamma   71.04072383
_symmetry_Int_Tables_number   1
_chemical_formula_structural   BaSr3
_chemical_formula_sum   'Ba1 Sr3'
_cell_volume   237.59314853
_cell_formula_units_Z   1
loop_
 _symmetry_equiv_pos_site_id
 _symmetry_equiv_pos_as_xyz
  1  'x, y, z'
loop_
 _atom_site_type_symbol
 _atom_site_label
 _atom_site_symmetry_multiplicity
 _atom_site_fract_x
 _atom_site_fract_y
 _atom_site_fract_z
 _atom_site_occupancy
  Ba  Ba0  1  -0.00000000  0.00000000  -0.00000000  1
  Sr  Sr0  1  0.75000000  0.25000000  0.50000000  1
  Sr  Sr1  1  0.25000000  0.75000000  0.50000000  1
  Sr  Sr2  1  0.50000000  0.50000000  -0.00000000  1
loop_
_geom_bond_atom_site_label_1
_geom_bond_atom_site_label_2
_geom_bond_distance
_geom_bond_site_symmetry_2
Ba0 Sr0 4.372748 1_455
Ba0 Sr0 4.372748 1_555
Ba0 Sr1 4.372748 1_545
Ba0 Sr1 4.372748 1_555
Ba0 Sr0 4.372748 1_444
Ba0 Sr1 4.372748 1_444
Ba0 Sr0 4.372748 1_454
Ba0 Sr1 4.372748 1_544
Ba0 Sr2 4.393387 1_455
Ba0 Sr2 4.393387 1_556
Ba0 Sr2 4.393387 1_444
Ba0 Sr2 4.393387 1_545
Sr0 Sr2 4.372748 1_656
Sr0 Sr2 4.372748 1_545
Sr0 Sr2 4.372748 1_555
Sr0 Sr2 4.372748 1_556
Sr0 Sr1 4.393387 1_555
Sr0 Sr1 4.393387 1_656
Sr0 Sr1 4.393387 1_544
Sr0 Sr1 4.393387 1_645
Sr1 Sr2 4.372748 1_555
Sr1 Sr2 4.372748 1_455
Sr1 Sr2 4.372748 1_556
Sr1 Sr2 4.372748 1_566
