# generated using pymatgen
data_ThSe(IO7)2
_symmetry_space_group_name_H-M   'P 1'
_cell_length_a   8.75594200
_cell_length_b   8.36991700
_cell_length_c   19.46505764
_cell_angle_alpha   82.84622994
_cell_angle_beta   90.00000000
_cell_angle_gamma   90.00000000
_symmetry_Int_Tables_number   1
_chemical_formula_structural   ThSe(IO7)2
_chemical_formula_sum   'Th4 Se4 I8 O56'
_cell_volume   1415.42131350
_cell_formula_units_Z   4
loop_
 _symmetry_equiv_pos_site_id
 _symmetry_equiv_pos_as_xyz
  1  'x, y, z'
loop_
 _atom_site_type_symbol
 _atom_site_label
 _atom_site_symmetry_multiplicity
 _atom_site_fract_x
 _atom_site_fract_y
 _atom_site_fract_z
 _atom_site_occupancy
  Th  Th0  1  0.94028600  0.10985300  0.37733400  1
  Th  Th1  1  0.55971400  0.10985300  0.87733400  1
  Th  Th2  1  0.05971400  0.89014700  0.62266600  1
  Th  Th3  1  0.44028600  0.89014700  0.12266600  1
  Se  Se0  1  0.81464300  0.94428000  0.21630900  1
  Se  Se1  1  0.68535700  0.94428000  0.71630900  1
  Se  Se2  1  0.18535700  0.05572000  0.78369100  1
  Se  Se3  1  0.31464300  0.05572000  0.28369100  1
  I  I0  1  0.71725500  0.75801400  0.49637900  1
  I  I1  1  0.78274500  0.75801400  0.99637900  1
  I  I2  1  0.28274500  0.24198600  0.50362100  1
  I  I3  1  0.21725500  0.24198600  0.00362100  1
  I  I4  1  0.24032300  0.77410400  0.45720700  1
  I  I5  1  0.25967700  0.77410400  0.95720700  1
  I  I6  1  0.75967700  0.22589600  0.54279300  1
  I  I7  1  0.74032300  0.22589600  0.04279300  1
  O  O0  1  0.73691800  0.96284300  0.45202500  1
  O  O1  1  0.76308200  0.96284300  0.95202500  1
  O  O2  1  0.26308200  0.03715700  0.54797500  1
  O  O3  1  0.23691800  0.03715700  0.04797500  1
  O  O4  1  0.83870900  0.76724600  0.57120000  1
  O  O5  1  0.66129100  0.76724600  0.07120000  1
  O  O6  1  0.16129100  0.23275400  0.42880000  1
  O  O7  1  0.33870900  0.23275400  0.92880000  1
  O  O8  1  0.52578200  0.73918400  0.52797900  1
  O  O9  1  0.97421800  0.73918400  0.02797900  1
  O  O10  1  0.47421800  0.26081600  0.47202100  1
  O  O11  1  0.02578200  0.26081600  0.97202100  1
  O  O12  1  0.05795100  0.87976200  0.42571900  1
  O  O13  1  0.44204900  0.87976200  0.92571900  1
  O  O14  1  0.94204900  0.12023800  0.57428100  1
  O  O15  1  0.55795100  0.12023800  0.07428100  1
  O  O16  1  0.16190000  0.72628500  0.54729200  1
  O  O17  1  0.33810000  0.72628500  0.04729200  1
  O  O18  1  0.83810000  0.27371500  0.45270800  1
  O  O19  1  0.66190000  0.27371500  0.95270800  1
  O  O20  1  0.22733400  0.58473900  0.42512400  1
  O  O21  1  0.27266600  0.58473900  0.92512400  1
  O  O22  1  0.77266600  0.41526100  0.57487600  1
  O  O23  1  0.72733400  0.41526100  0.07487600  1
  O  O24  1  0.79658200  0.04337500  0.28830800  1
  O  O25  1  0.70341800  0.04337500  0.78830800  1
  O  O26  1  0.20341800  0.95662500  0.71169200  1
  O  O27  1  0.29658200  0.95662500  0.21169200  1
  O  O28  1  0.63072900  0.88657400  0.20260700  1
  O  O29  1  0.86927100  0.88657400  0.70260700  1
  O  O30  1  0.36927100  0.11342600  0.79739300  1
  O  O31  1  0.13072900  0.11342600  0.29739300  1
  O  O32  1  0.92484400  0.78844900  0.23418100  1
  O  O33  1  0.57515600  0.78844900  0.73418100  1
  O  O34  1  0.07515600  0.21155100  0.76581900  1
  O  O35  1  0.42484400  0.21155100  0.26581900  1
  O  O36  1  0.86708800  0.07895100  0.15031600  1
  O  O37  1  0.63291200  0.07895100  0.65031600  1
  O  O38  1  0.13291200  0.92104900  0.84968400  1
  O  O39  1  0.36708800  0.92104900  0.34968400  1
  O  O40  1  0.91481700  0.40906900  0.30672200  1
  O  O41  1  0.58518300  0.40906900  0.80672200  1
  O  O42  1  0.08518300  0.59093100  0.69327800  1
  O  O43  1  0.41481700  0.59093100  0.19327800  1
  O  O44  1  0.77384800  0.46275500  0.30673500  1
  O  O45  1  0.72615200  0.46275500  0.80673500  1
  O  O46  1  0.22615200  0.53724500  0.69326500  1
  O  O47  1  0.27384800  0.53724500  0.19326500  1
  O  O48  1  0.67376600  0.36474200  0.33366300  1
  O  O49  1  0.82623400  0.36474200  0.83366300  1
  O  O50  1  0.32623400  0.63525800  0.66633700  1
  O  O51  1  0.17376600  0.63525800  0.16633700  1
  O  O52  1  0.76631800  0.62232700  0.43691100  1
  O  O53  1  0.73368200  0.62232700  0.93691100  1
  O  O54  1  0.23368200  0.37767300  0.56308900  1
  O  O55  1  0.26631800  0.37767300  0.06308900  1
loop_
_geom_bond_atom_site_label_1
_geom_bond_atom_site_label_2
_geom_bond_distance
_geom_bond_site_symmetry_2
I0 O52 1.772479 1_555
I0 O8 1.785995 1_555
I0 O4 1.812733 1_555
I0 O0 1.829083 1_555
I1 O53 1.772479 1_555
I1 O9 1.785995 1_556
I1 O5 1.812733 1_556
I1 O1 1.829083 1_555
I2 O54 1.772479 1_555
I2 O10 1.785995 1_555
I2 O6 1.812733 1_555
I2 O2 1.829083 1_555
I3 O55 1.772479 1_555
I3 O11 1.785995 1_554
I3 O7 1.812733 1_554
I3 O3 1.829083 1_555
I4 O20 1.778085 1_555
I4 O16 1.879282 1_555
I4 O12 1.890140 1_555
I4 O39 2.546361 1_555
I5 O21 1.778085 1_555
I5 O17 1.879282 1_556
I5 O13 1.890140 1_555
I5 O38 2.546361 1_555
I6 O22 1.778085 1_555
I6 O18 1.879282 1_555
I6 O14 1.890140 1_555
I6 O37 2.546361 1_555
I7 O23 1.778085 1_555
I7 O19 1.879282 1_554
I7 O15 1.890140 1_555
I7 O36 2.546361 1_555
O0 Th0 2.520519 1_565
O1 Th1 2.520519 1_565
O2 Th2 2.520519 1_545
O3 Th3 2.520519 1_545
O4 Th2 2.462326 1_655
O5 Th3 2.462326 1_555
O6 Th0 2.462326 1_455
O7 Th1 2.462326 1_555
O12 Th0 2.281576 1_465
O13 Th1 2.281576 1_565
O14 Th2 2.281576 1_645
O15 Th3 2.281576 1_545
O16 Th2 2.309832 1_555
O17 Th3 2.309832 1_555
O18 Th0 2.309832 1_555
O19 Th1 2.309832 1_555
O24 Se0 1.722370 1_545
O24 Th0 2.266254 1_555
O25 Se1 1.722370 1_545
O25 Th1 2.266254 1_555
O26 Se2 1.722370 1_565
O26 Th2 2.266254 1_555
O27 Se3 1.722370 1_565
O27 Th3 2.266254 1_555
O28 Se0 1.711636 1_555
O28 Th3 2.278420 1_555
O29 Se1 1.711636 1_555
O29 Th2 2.278420 1_655
O30 Se2 1.711636 1_555
O30 Th1 2.278420 1_555
O31 Se3 1.711636 1_555
O31 Th0 2.278420 1_455
O32 Se0 1.624884 1_555
O33 Se1 1.624884 1_555
O34 Se2 1.624884 1_555
O35 Se3 1.624884 1_555
O36 Se0 1.664594 1_545
O37 Se1 1.664594 1_545
O38 Se2 1.664594 1_565
O39 Se3 1.664594 1_565
O40 O44 1.313575 1_555
O40 Th0 2.711758 1_555
O41 O45 1.313575 1_555
O41 Th1 2.711758 1_555
O42 O46 1.313575 1_555
O42 Th2 2.711758 1_555
O43 O47 1.313575 1_555
O43 Th3 2.711758 1_555
O44 O48 1.268289 1_555
O45 O49 1.268289 1_555
O46 O50 1.268289 1_555
O47 O51 1.268289 1_555
