# generated using pymatgen
data_CaMg5
_symmetry_space_group_name_H-M   'P 1'
_cell_length_a   10.51840306
_cell_length_b   6.83725208
_cell_length_c   34.56798022
_cell_angle_alpha   90.00000000
_cell_angle_beta   90.00000000
_cell_angle_gamma   90.00000000
_symmetry_Int_Tables_number   1
_chemical_formula_structural   CaMg5
_chemical_formula_sum   'Ca16 Mg80'
_cell_volume   2486.02450707
_cell_formula_units_Z   16
loop_
 _symmetry_equiv_pos_site_id
 _symmetry_equiv_pos_as_xyz
  1  'x, y, z'
loop_
 _atom_site_type_symbol
 _atom_site_label
 _atom_site_symmetry_multiplicity
 _atom_site_fract_x
 _atom_site_fract_y
 _atom_site_fract_z
 _atom_site_occupancy
  Ca  Ca0_0  1  0.00000000  0.25000000  0.36031205  1
  Ca  Ca0_1  1  0.00000000  0.25000000  0.86031205  1
  Ca  Ca0_2  1  0.00000000  0.75000000  0.36031205  1
  Ca  Ca0_3  1  0.00000000  0.75000000  0.86031205  1
  Ca  Ca0_4  1  0.50000000  0.25000000  0.36031205  1
  Ca  Ca0_5  1  0.50000000  0.25000000  0.86031205  1
  Ca  Ca0_6  1  0.50000000  0.75000000  0.36031205  1
  Ca  Ca0_7  1  0.50000000  0.75000000  0.86031205  1
  Ca  Ca1_0  1  0.00000000  0.00000000  0.11031205  1
  Ca  Ca1_1  1  0.00000000  0.00000000  0.61031205  1
  Ca  Ca1_2  1  0.00000000  0.50000000  0.11031205  1
  Ca  Ca1_3  1  0.00000000  0.50000000  0.61031205  1
  Ca  Ca1_4  1  0.50000000  0.00000000  0.11031205  1
  Ca  Ca1_5  1  0.50000000  0.00000000  0.61031205  1
  Ca  Ca1_6  1  0.50000000  0.50000000  0.11031205  1
  Ca  Ca1_7  1  0.50000000  0.50000000  0.61031205  1
  Mg  Mg0_0  1  0.25000000  0.00000000  0.00092267  1
  Mg  Mg0_1  1  0.25000000  0.00000000  0.50092267  1
  Mg  Mg0_2  1  0.25000000  0.50000000  0.00092267  1
  Mg  Mg0_3  1  0.25000000  0.50000000  0.50092267  1
  Mg  Mg0_4  1  0.75000000  0.00000000  0.00092267  1
  Mg  Mg0_5  1  0.75000000  0.00000000  0.50092267  1
  Mg  Mg0_6  1  0.75000000  0.50000000  0.00092267  1
  Mg  Mg0_7  1  0.75000000  0.50000000  0.50092267  1
  Mg  Mg1_0  1  0.25000000  0.00000000  0.32995558  1
  Mg  Mg1_1  1  0.25000000  0.00000000  0.82995558  1
  Mg  Mg1_2  1  0.25000000  0.50000000  0.32995558  1
  Mg  Mg1_3  1  0.25000000  0.50000000  0.82995558  1
  Mg  Mg1_4  1  0.75000000  0.00000000  0.32995558  1
  Mg  Mg1_5  1  0.75000000  0.00000000  0.82995558  1
  Mg  Mg1_6  1  0.75000000  0.50000000  0.32995558  1
  Mg  Mg1_7  1  0.75000000  0.50000000  0.82995558  1
  Mg  Mg2_0  1  0.25000000  0.25000000  0.41896243  1
  Mg  Mg2_1  1  0.25000000  0.25000000  0.91896243  1
  Mg  Mg2_2  1  0.25000000  0.75000000  0.41896243  1
  Mg  Mg2_3  1  0.25000000  0.75000000  0.91896243  1
  Mg  Mg2_4  1  0.75000000  0.25000000  0.41896243  1
  Mg  Mg2_5  1  0.75000000  0.25000000  0.91896243  1
  Mg  Mg2_6  1  0.75000000  0.75000000  0.41896243  1
  Mg  Mg2_7  1  0.75000000  0.75000000  0.91896243  1
  Mg  Mg3_0  1  0.00000000  0.00000000  0.44762567  1
  Mg  Mg3_1  1  0.00000000  0.00000000  0.94762567  1
  Mg  Mg3_2  1  0.00000000  0.50000000  0.44762567  1
  Mg  Mg3_3  1  0.00000000  0.50000000  0.94762567  1
  Mg  Mg3_4  1  0.50000000  0.00000000  0.44762567  1
  Mg  Mg3_5  1  0.50000000  0.00000000  0.94762567  1
  Mg  Mg3_6  1  0.50000000  0.50000000  0.44762567  1
  Mg  Mg3_7  1  0.50000000  0.50000000  0.94762567  1
  Mg  Mg4_0  1  0.00000000  0.00000000  0.27555510  1
  Mg  Mg4_1  1  0.00000000  0.00000000  0.77555510  1
  Mg  Mg4_2  1  0.00000000  0.50000000  0.27555510  1
  Mg  Mg4_3  1  0.00000000  0.50000000  0.77555510  1
  Mg  Mg4_4  1  0.50000000  0.00000000  0.27555510  1
  Mg  Mg4_5  1  0.50000000  0.00000000  0.77555510  1
  Mg  Mg4_6  1  0.50000000  0.50000000  0.27555510  1
  Mg  Mg4_7  1  0.50000000  0.50000000  0.77555510  1
  Mg  Mg5_0  1  0.25000000  0.25000000  0.25092267  1
  Mg  Mg5_1  1  0.25000000  0.25000000  0.75092267  1
  Mg  Mg5_2  1  0.25000000  0.75000000  0.25092267  1
  Mg  Mg5_3  1  0.25000000  0.75000000  0.75092267  1
  Mg  Mg5_4  1  0.75000000  0.25000000  0.25092267  1
  Mg  Mg5_5  1  0.75000000  0.25000000  0.75092267  1
  Mg  Mg5_6  1  0.75000000  0.75000000  0.25092267  1
  Mg  Mg5_7  1  0.75000000  0.75000000  0.75092267  1
  Mg  Mg6_0  1  0.25000000  0.25000000  0.07995557  1
  Mg  Mg6_1  1  0.25000000  0.25000000  0.57995557  1
  Mg  Mg6_2  1  0.25000000  0.75000000  0.07995557  1
  Mg  Mg6_3  1  0.25000000  0.75000000  0.57995557  1
  Mg  Mg6_4  1  0.75000000  0.25000000  0.07995557  1
  Mg  Mg6_5  1  0.75000000  0.25000000  0.57995557  1
  Mg  Mg6_6  1  0.75000000  0.75000000  0.07995557  1
  Mg  Mg6_7  1  0.75000000  0.75000000  0.57995557  1
  Mg  Mg7_0  1  0.25000000  0.00000000  0.16896243  1
  Mg  Mg7_1  1  0.25000000  0.00000000  0.66896243  1
  Mg  Mg7_2  1  0.25000000  0.50000000  0.16896243  1
  Mg  Mg7_3  1  0.25000000  0.50000000  0.66896243  1
  Mg  Mg7_4  1  0.75000000  0.00000000  0.16896243  1
  Mg  Mg7_5  1  0.75000000  0.00000000  0.66896243  1
  Mg  Mg7_6  1  0.75000000  0.50000000  0.16896243  1
  Mg  Mg7_7  1  0.75000000  0.50000000  0.66896243  1
  Mg  Mg8_0  1  0.00000000  0.25000000  0.19762568  1
  Mg  Mg8_1  1  0.00000000  0.25000000  0.69762567  1
  Mg  Mg8_2  1  0.00000000  0.75000000  0.19762568  1
  Mg  Mg8_3  1  0.00000000  0.75000000  0.69762567  1
  Mg  Mg8_4  1  0.50000000  0.25000000  0.19762568  1
  Mg  Mg8_5  1  0.50000000  0.25000000  0.69762567  1
  Mg  Mg8_6  1  0.50000000  0.75000000  0.19762568  1
  Mg  Mg8_7  1  0.50000000  0.75000000  0.69762567  1
  Mg  Mg9_0  1  0.00000000  0.25000000  0.02555509  1
  Mg  Mg9_1  1  0.00000000  0.25000000  0.52555509  1
  Mg  Mg9_2  1  0.00000000  0.75000000  0.02555509  1
  Mg  Mg9_3  1  0.00000000  0.75000000  0.52555509  1
  Mg  Mg9_4  1  0.50000000  0.25000000  0.02555509  1
  Mg  Mg9_5  1  0.50000000  0.25000000  0.52555509  1
  Mg  Mg9_6  1  0.50000000  0.75000000  0.02555509  1
  Mg  Mg9_7  1  0.50000000  0.75000000  0.52555509  1
loop_
_geom_bond_atom_site_label_1
_geom_bond_atom_site_label_2
_geom_bond_distance
_geom_bond_site_symmetry_2
Ca0_0 Mg1_0 3.307221 1_555
Ca0_0 Mg1_4 3.307221 1_455
Ca0_0 Mg1_2 3.307221 1_555
Ca0_0 Mg1_6 3.307221 1_455
Ca0_0 Mg2_4 3.320430 1_455
Ca0_0 Mg2_0 3.320430 1_555
Ca0_0 Mg4_2 3.392039 1_555
Ca0_0 Mg4_0 3.392039 1_555
Ca0_0 Ca0_2 3.418626 1_545
Ca0_0 Ca0_2 3.418626 1_555
Ca0_0 Mg3_0 3.468662 1_555
Ca0_0 Mg3_2 3.468662 1_555
Ca0_1 Mg1_1 3.307221 1_555
Ca0_1 Mg1_5 3.307221 1_455
Ca0_1 Mg1_7 3.307221 1_455
Ca0_1 Mg1_3 3.307221 1_555
Ca0_1 Mg2_1 3.320430 1_555
Ca0_1 Mg2_5 3.320430 1_455
Ca0_1 Mg4_3 3.392039 1_555
Ca0_1 Mg4_1 3.392039 1_555
Ca0_1 Ca0_3 3.418626 1_545
Ca0_1 Ca0_3 3.418626 1_555
Ca0_1 Mg3_3 3.468662 1_555
Ca0_1 Mg3_1 3.468662 1_555
Ca0_2 Mg1_4 3.307221 1_465
Ca0_2 Mg1_0 3.307221 1_565
Ca0_2 Mg1_2 3.307221 1_555
Ca0_2 Mg1_6 3.307221 1_455
Ca0_2 Mg2_6 3.320430 1_455
Ca0_2 Mg2_2 3.320430 1_555
Ca0_2 Mg4_0 3.392039 1_565
Ca0_2 Mg4_2 3.392039 1_555
Ca0_2 Mg3_0 3.468662 1_565
Ca0_2 Mg3_2 3.468662 1_555
Ca0_3 Mg1_1 3.307221 1_565
Ca0_3 Mg1_5 3.307221 1_465
Ca0_3 Mg1_7 3.307221 1_455
Ca0_3 Mg1_3 3.307221 1_555
Ca0_3 Mg2_3 3.320430 1_555
Ca0_3 Mg2_7 3.320430 1_455
Ca0_3 Mg4_1 3.392039 1_565
Ca0_3 Mg4_3 3.392039 1_555
Ca0_3 Mg3_1 3.468662 1_565
Ca0_3 Mg3_3 3.468662 1_555
Ca0_4 Mg1_4 3.307221 1_555
Ca0_4 Mg1_0 3.307221 1_555
Ca0_4 Mg1_2 3.307221 1_555
Ca0_4 Mg1_6 3.307221 1_555
Ca0_4 Mg2_0 3.320430 1_555
Ca0_4 Mg2_4 3.320430 1_555
Ca0_4 Mg4_4 3.392039 1_555
Ca0_4 Mg4_6 3.392039 1_555
Ca0_4 Ca0_6 3.418626 1_545
Ca0_4 Ca0_6 3.418626 1_555
Ca0_4 Mg3_6 3.468662 1_555
Ca0_4 Mg3_4 3.468662 1_555
Ca0_5 Mg1_1 3.307221 1_555
Ca0_5 Mg1_7 3.307221 1_555
Ca0_5 Mg1_5 3.307221 1_555
Ca0_5 Mg1_3 3.307221 1_555
Ca0_5 Mg2_1 3.320430 1_555
Ca0_5 Mg2_5 3.320430 1_555
Ca0_5 Mg4_7 3.392039 1_555
Ca0_5 Mg4_5 3.392039 1_555
Ca0_5 Ca0_7 3.418626 1_545
Ca0_5 Ca0_7 3.418626 1_555
Ca0_5 Mg3_7 3.468662 1_555
Ca0_5 Mg3_5 3.468662 1_555
Ca0_6 Mg1_0 3.307221 1_565
Ca0_6 Mg1_4 3.307221 1_565
Ca0_6 Mg1_2 3.307221 1_555
Ca0_6 Mg1_6 3.307221 1_555
Ca0_6 Mg2_6 3.320430 1_555
Ca0_6 Mg2_2 3.320430 1_555
Ca0_6 Mg4_4 3.392039 1_565
Ca0_6 Mg4_6 3.392039 1_555
Ca0_6 Mg3_4 3.468662 1_565
Ca0_6 Mg3_6 3.468662 1_555
Ca0_7 Mg1_1 3.307221 1_565
Ca0_7 Mg1_5 3.307221 1_565
Ca0_7 Mg1_7 3.307221 1_555
Ca0_7 Mg1_3 3.307221 1_555
Ca0_7 Mg2_3 3.320430 1_555
Ca0_7 Mg2_7 3.320430 1_555
Ca0_7 Mg4_5 3.392039 1_565
Ca0_7 Mg4_7 3.392039 1_555
Ca0_7 Mg3_5 3.468662 1_565
Ca0_7 Mg3_7 3.468662 1_555
Ca1_0 Mg6_6 3.307221 1_445
Ca1_0 Mg6_2 3.307221 1_545
Ca1_0 Mg6_4 3.307221 1_455
Ca1_0 Mg6_0 3.307221 1_555
Ca1_0 Mg7_0 3.320430 1_555
Ca1_0 Mg7_4 3.320430 1_455
Ca1_0 Mg9_0 3.392039 1_555
Ca1_0 Mg9_2 3.392039 1_545
Ca1_0 Ca1_2 3.418626 1_545
Ca1_0 Ca1_2 3.418626 1_555
Ca1_0 Mg8_2 3.468662 1_545
Ca1_0 Mg8_0 3.468662 1_555
Ca1_1 Mg6_7 3.307221 1_445
Ca1_1 Mg6_3 3.307221 1_545
Ca1_1 Mg6_5 3.307221 1_455
Ca1_1 Mg6_1 3.307221 1_555
Ca1_1 Mg7_5 3.320430 1_455
Ca1_1 Mg7_1 3.320430 1_555
Ca1_1 Mg9_3 3.392039 1_545
Ca1_1 Mg9_1 3.392039 1_555
Ca1_1 Ca1_3 3.418626 1_555
Ca1_1 Ca1_3 3.418626 1_545
Ca1_1 Mg8_3 3.468662 1_545
Ca1_1 Mg8_1 3.468662 1_555
Ca1_2 Mg6_6 3.307221 1_455
Ca1_2 Mg6_0 3.307221 1_555
Ca1_2 Mg6_2 3.307221 1_555
Ca1_2 Mg6_4 3.307221 1_455
Ca1_2 Mg7_2 3.320430 1_555
Ca1_2 Mg7_6 3.320430 1_455
Ca1_2 Mg9_0 3.392039 1_555
Ca1_2 Mg9_2 3.392039 1_555
Ca1_2 Mg8_0 3.468662 1_555
Ca1_2 Mg8_2 3.468662 1_555
Ca1_3 Mg6_3 3.307221 1_555
Ca1_3 Mg6_7 3.307221 1_455
Ca1_3 Mg6_5 3.307221 1_455
Ca1_3 Mg6_1 3.307221 1_555
Ca1_3 Mg7_7 3.320430 1_455
Ca1_3 Mg7_3 3.320430 1_555
Ca1_3 Mg9_1 3.392039 1_555
Ca1_3 Mg9_3 3.392039 1_555
Ca1_3 Mg8_1 3.468662 1_555
Ca1_3 Mg8_3 3.468662 1_555
Ca1_4 Mg6_2 3.307221 1_545
Ca1_4 Mg6_6 3.307221 1_545
Ca1_4 Mg6_4 3.307221 1_555
Ca1_4 Mg6_0 3.307221 1_555
Ca1_4 Mg7_0 3.320430 1_555
Ca1_4 Mg7_4 3.320430 1_555
Ca1_4 Mg9_4 3.392039 1_555
Ca1_4 Mg9_6 3.392039 1_545
Ca1_4 Ca1_6 3.418626 1_555
Ca1_4 Ca1_6 3.418626 1_545
Ca1_4 Mg8_6 3.468662 1_545
Ca1_4 Mg8_4 3.468662 1_555
Ca1_5 Mg6_3 3.307221 1_545
Ca1_5 Mg6_7 3.307221 1_545
Ca1_5 Mg6_1 3.307221 1_555
Ca1_5 Mg6_5 3.307221 1_555
Ca1_5 Mg7_5 3.320430 1_555
Ca1_5 Mg7_1 3.320430 1_555
Ca1_5 Mg9_7 3.392039 1_545
Ca1_5 Mg9_5 3.392039 1_555
Ca1_5 Ca1_7 3.418626 1_555
Ca1_5 Ca1_7 3.418626 1_545
Ca1_5 Mg8_7 3.468662 1_545
Ca1_5 Mg8_5 3.468662 1_555
Ca1_6 Mg6_4 3.307221 1_555
Ca1_6 Mg6_6 3.307221 1_555
Ca1_6 Mg6_0 3.307221 1_555
Ca1_6 Mg6_2 3.307221 1_555
Ca1_6 Mg7_2 3.320430 1_555
Ca1_6 Mg7_6 3.320430 1_555
Ca1_6 Mg9_4 3.392039 1_555
Ca1_6 Mg9_6 3.392039 1_555
Ca1_6 Mg8_4 3.468662 1_555
Ca1_6 Mg8_6 3.468662 1_555
Ca1_7 Mg6_7 3.307221 1_555
Ca1_7 Mg6_3 3.307221 1_555
Ca1_7 Mg6_1 3.307221 1_555
Ca1_7 Mg6_5 3.307221 1_555
Ca1_7 Mg7_3 3.320430 1_555
Ca1_7 Mg7_7 3.320430 1_555
Ca1_7 Mg9_5 3.392039 1_555
Ca1_7 Mg9_7 3.392039 1_555
Ca1_7 Mg8_5 3.468662 1_555
Ca1_7 Mg8_7 3.468662 1_555
Mg0_0 Mg3_1 3.210783 1_554
Mg0_0 Mg3_5 3.210783 1_554
Mg0_0 Mg6_0 3.222673 1_555
Mg0_0 Mg6_2 3.222673 1_545
Mg0_0 Mg9_2 3.249860 1_545
Mg0_0 Mg9_6 3.249860 1_545
Mg0_0 Mg9_0 3.249860 1_555
Mg0_0 Mg9_4 3.249860 1_555
Mg0_0 Mg2_3 3.308893 1_544
Mg0_0 Mg2_1 3.308893 1_554
Mg0_0 Mg0_2 3.418626 1_555
Mg0_0 Mg0_2 3.418626 1_545
Mg0_1 Mg3_4 3.210783 1_555
Mg0_1 Mg3_0 3.210783 1_555
Mg0_1 Mg6_3 3.222673 1_545
Mg0_1 Mg6_1 3.222673 1_555
Mg0_1 Mg9_3 3.249860 1_545
Mg0_1 Mg9_7 3.249860 1_545
Mg0_1 Mg9_5 3.249860 1_555
Mg0_1 Mg9_1 3.249860 1_555
Mg0_1 Mg2_2 3.308893 1_545
Mg0_1 Mg2_0 3.308893 1_555
Mg0_1 Mg0_3 3.418626 1_555
Mg0_1 Mg0_3 3.418626 1_545
Mg0_2 Mg3_3 3.210783 1_554
Mg0_2 Mg3_7 3.210783 1_554
Mg0_2 Mg6_0 3.222673 1_555
Mg0_2 Mg6_2 3.222673 1_555
Mg0_2 Mg9_0 3.249860 1_555
Mg0_2 Mg9_4 3.249860 1_555
Mg0_2 Mg9_2 3.249860 1_555
Mg0_2 Mg9_6 3.249860 1_555
Mg0_2 Mg2_1 3.308893 1_554
Mg0_2 Mg2_3 3.308893 1_554
Mg0_3 Mg3_2 3.210783 1_555
Mg0_3 Mg3_6 3.210783 1_555
Mg0_3 Mg6_1 3.222673 1_555
Mg0_3 Mg6_3 3.222673 1_555
Mg0_3 Mg9_5 3.249860 1_555
Mg0_3 Mg9_7 3.249860 1_555
Mg0_3 Mg9_3 3.249860 1_555
Mg0_3 Mg9_1 3.249860 1_555
Mg0_3 Mg2_0 3.308893 1_555
Mg0_3 Mg2_2 3.308893 1_555
Mg0_4 Mg3_1 3.210783 1_654
Mg0_4 Mg3_5 3.210783 1_554
Mg0_4 Mg6_6 3.222673 1_545
Mg0_4 Mg6_4 3.222673 1_555
Mg0_4 Mg9_6 3.249860 1_545
Mg0_4 Mg9_2 3.249860 1_645
Mg0_4 Mg9_0 3.249860 1_655
Mg0_4 Mg9_4 3.249860 1_555
Mg0_4 Mg2_7 3.308893 1_544
Mg0_4 Mg2_5 3.308893 1_554
Mg0_4 Mg0_6 3.418626 1_555
Mg0_4 Mg0_6 3.418626 1_545
Mg0_5 Mg3_0 3.210783 1_655
Mg0_5 Mg3_4 3.210783 1_555
Mg0_5 Mg6_7 3.222673 1_545
Mg0_5 Mg6_5 3.222673 1_555
Mg0_5 Mg9_3 3.249860 1_645
Mg0_5 Mg9_7 3.249860 1_545
Mg0_5 Mg9_5 3.249860 1_555
Mg0_5 Mg9_1 3.249860 1_655
Mg0_5 Mg2_6 3.308893 1_545
Mg0_5 Mg2_4 3.308893 1_555
Mg0_5 Mg0_7 3.418626 1_555
Mg0_5 Mg0_7 3.418626 1_545
Mg0_6 Mg3_7 3.210783 1_554
Mg0_6 Mg3_3 3.210783 1_654
Mg0_6 Mg6_4 3.222673 1_555
Mg0_6 Mg6_6 3.222673 1_555
Mg0_6 Mg9_0 3.249860 1_655
Mg0_6 Mg9_4 3.249860 1_555
Mg0_6 Mg9_6 3.249860 1_555
Mg0_6 Mg9_2 3.249860 1_655
Mg0_6 Mg2_5 3.308893 1_554
Mg0_6 Mg2_7 3.308893 1_554
Mg0_7 Mg3_2 3.210783 1_655
Mg0_7 Mg3_6 3.210783 1_555
Mg0_7 Mg6_5 3.222673 1_555
Mg0_7 Mg6_7 3.222673 1_555
Mg0_7 Mg9_3 3.249860 1_655
Mg0_7 Mg9_5 3.249860 1_555
Mg0_7 Mg9_7 3.249860 1_555
Mg0_7 Mg9_1 3.249860 1_655
Mg0_7 Mg2_4 3.308893 1_555
Mg0_7 Mg2_6 3.308893 1_555
Mg1_0 Mg5_2 3.222673 1_545
Mg1_0 Mg5_0 3.222673 1_555
Mg1_0 Mg4_0 3.232822 1_555
Mg1_0 Mg4_4 3.232822 1_555
Mg1_1 Mg5_3 3.222673 1_545
Mg1_1 Mg5_1 3.222673 1_555
Mg1_1 Mg4_1 3.232822 1_555
Mg1_1 Mg4_5 3.232822 1_555
Mg1_2 Mg5_0 3.222673 1_555
Mg1_2 Mg5_2 3.222673 1_555
Mg1_2 Mg4_2 3.232822 1_555
Mg1_2 Mg4_6 3.232822 1_555
Mg1_3 Mg5_1 3.222673 1_555
Mg1_3 Mg5_3 3.222673 1_555
Mg1_3 Mg4_3 3.232822 1_555
Mg1_3 Mg4_7 3.232822 1_555
Mg1_4 Mg5_4 3.222673 1_555
Mg1_4 Mg5_6 3.222673 1_545
Mg1_4 Mg4_4 3.232822 1_555
Mg1_4 Mg4_0 3.232822 1_655
Mg1_5 Mg5_7 3.222673 1_545
Mg1_5 Mg5_5 3.222673 1_555
Mg1_5 Mg4_1 3.232822 1_655
Mg1_5 Mg4_5 3.232822 1_555
Mg1_6 Mg5_4 3.222673 1_555
Mg1_6 Mg5_6 3.222673 1_555
Mg1_6 Mg4_2 3.232822 1_655
Mg1_6 Mg4_6 3.232822 1_555
Mg1_7 Mg5_5 3.222673 1_555
Mg1_7 Mg5_7 3.222673 1_555
Mg1_7 Mg4_7 3.232822 1_555
Mg1_7 Mg4_3 3.232822 1_655
Mg2_0 Mg3_0 3.289118 1_555
Mg2_0 Mg3_4 3.289118 1_555
Mg2_0 Mg3_2 3.289118 1_555
Mg2_0 Mg3_6 3.289118 1_555
Mg2_1 Mg3_1 3.289118 1_555
Mg2_1 Mg3_7 3.289118 1_555
Mg2_1 Mg3_5 3.289118 1_555
Mg2_1 Mg3_3 3.289118 1_555
Mg2_2 Mg3_0 3.289118 1_565
Mg2_2 Mg3_4 3.289118 1_565
Mg2_2 Mg3_6 3.289118 1_555
Mg2_2 Mg3_2 3.289118 1_555
Mg2_3 Mg3_1 3.289118 1_565
Mg2_3 Mg3_5 3.289118 1_565
Mg2_3 Mg3_3 3.289118 1_555
Mg2_3 Mg3_7 3.289118 1_555
Mg2_4 Mg3_4 3.289118 1_555
Mg2_4 Mg3_2 3.289118 1_655
Mg2_4 Mg3_6 3.289118 1_555
Mg2_4 Mg3_0 3.289118 1_655
Mg2_5 Mg3_1 3.289118 1_655
Mg2_5 Mg3_7 3.289118 1_555
Mg2_5 Mg3_5 3.289118 1_555
Mg2_5 Mg3_3 3.289118 1_655
Mg2_6 Mg3_4 3.289118 1_565
Mg2_6 Mg3_0 3.289118 1_665
Mg2_6 Mg3_2 3.289118 1_655
Mg2_6 Mg3_6 3.289118 1_555
Mg2_7 Mg3_1 3.289118 1_665
Mg2_7 Mg3_5 3.289118 1_565
Mg2_7 Mg3_7 3.289118 1_555
Mg2_7 Mg3_3 3.289118 1_655
Mg3_0 Mg9_3 3.190399 1_545
Mg3_0 Mg9_1 3.190399 1_555
Mg3_0 Mg3_2 3.418626 1_555
Mg3_0 Mg3_2 3.418626 1_545
Mg3_1 Mg9_0 3.190399 1_556
Mg3_1 Mg9_2 3.190399 1_546
Mg3_1 Mg3_3 3.418626 1_555
Mg3_1 Mg3_3 3.418626 1_545
Mg3_2 Mg9_1 3.190399 1_555
Mg3_2 Mg9_3 3.190399 1_555
Mg3_3 Mg9_0 3.190399 1_556
Mg3_3 Mg9_2 3.190399 1_556
Mg3_4 Mg9_7 3.190399 1_545
Mg3_4 Mg9_5 3.190399 1_555
Mg3_4 Mg3_6 3.418626 1_555
Mg3_4 Mg3_6 3.418626 1_545
Mg3_5 Mg9_6 3.190399 1_546
Mg3_5 Mg9_4 3.190399 1_556
Mg3_5 Mg3_7 3.418626 1_555
Mg3_5 Mg3_7 3.418626 1_545
Mg3_6 Mg9_5 3.190399 1_555
Mg3_6 Mg9_7 3.190399 1_555
Mg3_7 Mg9_4 3.190399 1_556
Mg3_7 Mg9_6 3.190399 1_556
Mg4_0 Mg8_2 3.190399 1_545
Mg4_0 Mg8_0 3.190399 1_555
Mg4_0 Mg5_6 3.249860 1_445
Mg4_0 Mg5_2 3.249860 1_545
Mg4_0 Mg5_0 3.249860 1_555
Mg4_0 Mg5_4 3.249860 1_455
Mg4_0 Mg4_2 3.418626 1_555
Mg4_0 Mg4_2 3.418626 1_545
Mg4_1 Mg8_3 3.190399 1_545
Mg4_1 Mg8_1 3.190399 1_555
Mg4_1 Mg5_7 3.249860 1_445
Mg4_1 Mg5_3 3.249860 1_545
Mg4_1 Mg5_1 3.249860 1_555
Mg4_1 Mg5_5 3.249860 1_455
Mg4_1 Mg4_3 3.418626 1_545
Mg4_1 Mg4_3 3.418626 1_555
Mg4_2 Mg8_2 3.190399 1_555
Mg4_2 Mg8_0 3.190399 1_555
Mg4_2 Mg5_0 3.249860 1_555
Mg4_2 Mg5_4 3.249860 1_455
Mg4_2 Mg5_6 3.249860 1_455
Mg4_2 Mg5_2 3.249860 1_555
Mg4_3 Mg8_1 3.190399 1_555
Mg4_3 Mg8_3 3.190399 1_555
Mg4_3 Mg5_1 3.249860 1_555
Mg4_3 Mg5_5 3.249860 1_455
Mg4_3 Mg5_3 3.249860 1_555
Mg4_3 Mg5_7 3.249860 1_455
Mg4_4 Mg8_6 3.190399 1_545
Mg4_4 Mg8_4 3.190399 1_555
Mg4_4 Mg5_6 3.249860 1_545
Mg4_4 Mg5_2 3.249860 1_545
Mg4_4 Mg5_0 3.249860 1_555
Mg4_4 Mg5_4 3.249860 1_555
Mg4_4 Mg4_6 3.418626 1_545
Mg4_4 Mg4_6 3.418626 1_555
Mg4_5 Mg8_5 3.190399 1_555
Mg4_5 Mg8_7 3.190399 1_545
Mg4_5 Mg5_3 3.249860 1_545
Mg4_5 Mg5_7 3.249860 1_545
Mg4_5 Mg5_1 3.249860 1_555
Mg4_5 Mg5_5 3.249860 1_555
Mg4_5 Mg4_7 3.418626 1_545
Mg4_5 Mg4_7 3.418626 1_555
Mg4_6 Mg8_6 3.190399 1_555
Mg4_6 Mg8_4 3.190399 1_555
Mg4_6 Mg5_0 3.249860 1_555
Mg4_6 Mg5_6 3.249860 1_555
Mg4_6 Mg5_4 3.249860 1_555
Mg4_6 Mg5_2 3.249860 1_555
Mg4_7 Mg8_5 3.190399 1_555
Mg4_7 Mg8_7 3.190399 1_555
Mg4_7 Mg5_1 3.249860 1_555
Mg4_7 Mg5_5 3.249860 1_555
Mg4_7 Mg5_3 3.249860 1_555
Mg4_7 Mg5_7 3.249860 1_555
Mg5_0 Mg8_0 3.210783 1_555
Mg5_0 Mg8_4 3.210783 1_555
Mg5_0 Mg7_0 3.308893 1_555
Mg5_0 Mg7_2 3.308893 1_555
Mg5_0 Mg5_2 3.418626 1_545
Mg5_0 Mg5_2 3.418626 1_555
Mg5_1 Mg8_1 3.210783 1_555
Mg5_1 Mg8_5 3.210783 1_555
Mg5_1 Mg7_3 3.308893 1_555
Mg5_1 Mg7_1 3.308893 1_555
Mg5_1 Mg5_3 3.418626 1_545
Mg5_1 Mg5_3 3.418626 1_555
Mg5_2 Mg8_2 3.210783 1_555
Mg5_2 Mg8_6 3.210783 1_555
Mg5_2 Mg7_0 3.308893 1_565
Mg5_2 Mg7_2 3.308893 1_555
Mg5_3 Mg8_7 3.210783 1_555
Mg5_3 Mg8_3 3.210783 1_555
Mg5_3 Mg7_1 3.308893 1_565
Mg5_3 Mg7_3 3.308893 1_555
Mg5_4 Mg8_0 3.210783 1_655
Mg5_4 Mg8_4 3.210783 1_555
Mg5_4 Mg7_4 3.308893 1_555
Mg5_4 Mg7_6 3.308893 1_555
Mg5_4 Mg5_6 3.418626 1_545
Mg5_4 Mg5_6 3.418626 1_555
Mg5_5 Mg8_5 3.210783 1_555
Mg5_5 Mg8_1 3.210783 1_655
Mg5_5 Mg7_7 3.308893 1_555
Mg5_5 Mg7_5 3.308893 1_555
Mg5_5 Mg5_7 3.418626 1_545
Mg5_5 Mg5_7 3.418626 1_555
Mg5_6 Mg8_6 3.210783 1_555
Mg5_6 Mg8_2 3.210783 1_655
Mg5_6 Mg7_4 3.308893 1_565
Mg5_6 Mg7_6 3.308893 1_555
Mg5_7 Mg8_7 3.210783 1_555
Mg5_7 Mg8_3 3.210783 1_655
Mg5_7 Mg7_5 3.308893 1_565
Mg5_7 Mg7_7 3.308893 1_555
Mg6_0 Mg9_4 3.232822 1_555
Mg6_0 Mg9_0 3.232822 1_555
Mg6_1 Mg9_5 3.232822 1_555
Mg6_1 Mg9_1 3.232822 1_555
Mg6_2 Mg9_2 3.232822 1_555
Mg6_2 Mg9_6 3.232822 1_555
Mg6_3 Mg9_7 3.232822 1_555
Mg6_3 Mg9_3 3.232822 1_555
Mg6_4 Mg9_4 3.232822 1_555
Mg6_4 Mg9_0 3.232822 1_655
Mg6_5 Mg9_5 3.232822 1_555
Mg6_5 Mg9_1 3.232822 1_655
Mg6_6 Mg9_2 3.232822 1_655
Mg6_6 Mg9_6 3.232822 1_555
Mg6_7 Mg9_3 3.232822 1_655
Mg6_7 Mg9_7 3.232822 1_555
Mg7_0 Mg8_2 3.289118 1_545
Mg7_0 Mg8_6 3.289118 1_545
Mg7_0 Mg8_0 3.289118 1_555
Mg7_0 Mg8_4 3.289118 1_555
Mg7_1 Mg8_3 3.289118 1_545
Mg7_1 Mg8_7 3.289118 1_545
Mg7_1 Mg8_1 3.289118 1_555
Mg7_1 Mg8_5 3.289118 1_555
Mg7_2 Mg8_0 3.289118 1_555
Mg7_2 Mg8_4 3.289118 1_555
Mg7_2 Mg8_2 3.289118 1_555
Mg7_2 Mg8_6 3.289118 1_555
Mg7_3 Mg8_1 3.289118 1_555
Mg7_3 Mg8_5 3.289118 1_555
Mg7_3 Mg8_3 3.289118 1_555
Mg7_3 Mg8_7 3.289118 1_555
Mg7_4 Mg8_6 3.289118 1_545
Mg7_4 Mg8_2 3.289118 1_645
Mg7_4 Mg8_4 3.289118 1_555
Mg7_4 Mg8_0 3.289118 1_655
Mg7_5 Mg8_7 3.289118 1_545
Mg7_5 Mg8_3 3.289118 1_645
Mg7_5 Mg8_1 3.289118 1_655
Mg7_5 Mg8_5 3.289118 1_555
Mg7_6 Mg8_4 3.289118 1_555
Mg7_6 Mg8_0 3.289118 1_655
Mg7_6 Mg8_6 3.289118 1_555
Mg7_6 Mg8_2 3.289118 1_655
Mg7_7 Mg8_1 3.289118 1_655
Mg7_7 Mg8_5 3.289118 1_555
Mg7_7 Mg8_7 3.289118 1_555
Mg7_7 Mg8_3 3.289118 1_655
Mg8_0 Mg8_2 3.418626 1_545
Mg8_0 Mg8_2 3.418626 1_555
Mg8_1 Mg8_3 3.418626 1_545
Mg8_1 Mg8_3 3.418626 1_555
Mg8_4 Mg8_6 3.418626 1_545
Mg8_4 Mg8_6 3.418626 1_555
Mg8_5 Mg8_7 3.418626 1_545
Mg8_5 Mg8_7 3.418626 1_555
Mg9_0 Mg9_2 3.418626 1_545
Mg9_0 Mg9_2 3.418626 1_555
Mg9_1 Mg9_3 3.418626 1_545
Mg9_1 Mg9_3 3.418626 1_555
Mg9_4 Mg9_6 3.418626 1_545
Mg9_4 Mg9_6 3.418626 1_555
Mg9_5 Mg9_7 3.418626 1_545
Mg9_5 Mg9_7 3.418626 1_555
