# generated using pymatgen
data_Zn3Ge3(WO6)2
_symmetry_space_group_name_H-M   'P 1'
_cell_length_a   10.76212021
_cell_length_b   10.76212021
_cell_length_c   10.76212021
_cell_angle_alpha   109.47122063
_cell_angle_beta   109.47122063
_cell_angle_gamma   109.47122063
_symmetry_Int_Tables_number   1
_chemical_formula_structural   Zn3Ge3(WO6)2
_chemical_formula_sum   'Zn12 Ge12 W8 O48'
_cell_volume   959.55887204
_cell_formula_units_Z   4
loop_
 _symmetry_equiv_pos_site_id
 _symmetry_equiv_pos_as_xyz
  1  'x, y, z'
loop_
 _atom_site_type_symbol
 _atom_site_label
 _atom_site_symmetry_multiplicity
 _atom_site_fract_x
 _atom_site_fract_y
 _atom_site_fract_z
 _atom_site_occupancy
  Zn  Zn0  1  0.25000000  0.87500000  0.62500000  1
  Zn  Zn1  1  0.75000000  0.62500000  0.87500000  1
  Zn  Zn2  1  0.62500000  0.87500000  0.75000000  1
  Zn  Zn3  1  0.87500000  0.62500000  0.25000000  1
  Zn  Zn4  1  0.62500000  0.25000000  0.87500000  1
  Zn  Zn5  1  0.87500000  0.75000000  0.62500000  1
  Zn  Zn6  1  0.75000000  0.12500000  0.37500000  1
  Zn  Zn7  1  0.25000000  0.37500000  0.12500000  1
  Zn  Zn8  1  0.37500000  0.12500000  0.25000000  1
  Zn  Zn9  1  0.12500000  0.37500000  0.75000000  1
  Zn  Zn10  1  0.37500000  0.75000000  0.12500000  1
  Zn  Zn11  1  0.12500000  0.25000000  0.37500000  1
  Ge  Ge0  1  0.12500000  0.75000000  0.87500000  1
  Ge  Ge1  1  0.87500000  0.25000000  0.12500000  1
  Ge  Ge2  1  0.62500000  0.37500000  0.25000000  1
  Ge  Ge3  1  0.75000000  0.87500000  0.12500000  1
  Ge  Ge4  1  0.87500000  0.12500000  0.75000000  1
  Ge  Ge5  1  0.25000000  0.62500000  0.37500000  1
  Ge  Ge6  1  0.75000000  0.37500000  0.62500000  1
  Ge  Ge7  1  0.25000000  0.12500000  0.87500000  1
  Ge  Ge8  1  0.12500000  0.87500000  0.25000000  1
  Ge  Ge9  1  0.37500000  0.62500000  0.75000000  1
  Ge  Ge10  1  0.62500000  0.75000000  0.37500000  1
  Ge  Ge11  1  0.37500000  0.25000000  0.62500000  1
  W  W0  1  0.50000000  0.50000000  0.50000000  1
  W  W1  1  0.50000000  0.00000000  0.50000000  1
  W  W2  1  0.00000000  0.50000000  0.50000000  1
  W  W3  1  0.50000000  0.50000000  0.00000000  1
  W  W4  1  0.00000000  0.00000000  0.50000000  1
  W  W5  1  0.00000000  0.50000000  0.00000000  1
  W  W6  1  0.50000000  0.00000000  0.00000000  1
  W  W7  1  0.00000000  0.00000000  0.00000000  1
  O  O0  1  0.41460600  0.81149500  0.78306100  1
  O  O1  1  0.86845400  0.39688800  0.08539400  1
  O  O2  1  0.10311200  0.97156600  0.68850500  1
  O  O3  1  0.52843400  0.63154600  0.71693900  1
  O  O4  1  0.68850500  0.08539400  0.71693900  1
  O  O5  1  0.63154600  0.71693900  0.52843400  1
  O  O6  1  0.63154600  0.41460600  0.10311200  1
  O  O7  1  0.71693900  0.52843400  0.63154600  1
  O  O8  1  0.81149500  0.52843400  0.39688800  1
  O  O9  1  0.97156600  0.78306100  0.86845400  1
  O  O10  1  0.78306100  0.86845400  0.97156600  1
  O  O11  1  0.71693900  0.68850500  0.08539400  1
  O  O12  1  0.41460600  0.10311200  0.63154600  1
  O  O13  1  0.39688800  0.81149500  0.52843400  1
  O  O14  1  0.08539400  0.71693900  0.68850500  1
  O  O15  1  0.10311200  0.63154600  0.41460600  1
  O  O16  1  0.52843400  0.39688800  0.81149500  1
  O  O17  1  0.08539400  0.86845400  0.39688800  1
  O  O18  1  0.97156600  0.68850500  0.10311200  1
  O  O19  1  0.18850500  0.47156600  0.60311200  1
  O  O20  1  0.68850500  0.10311200  0.97156600  1
  O  O21  1  0.78306100  0.41460600  0.81149500  1
  O  O22  1  0.39688800  0.08539400  0.86845400  1
  O  O23  1  0.86845400  0.97156600  0.78306100  1
  O  O24  1  0.58539400  0.18850500  0.21693900  1
  O  O25  1  0.13154600  0.60311200  0.91460600  1
  O  O26  1  0.89688800  0.02843400  0.31149500  1
  O  O27  1  0.47156600  0.36845400  0.28306100  1
  O  O28  1  0.31149500  0.91460600  0.28306100  1
  O  O29  1  0.36845400  0.28306100  0.47156600  1
  O  O30  1  0.36845400  0.58539400  0.89688800  1
  O  O31  1  0.28306100  0.47156600  0.36845400  1
  O  O32  1  0.13154600  0.02843400  0.21693900  1
  O  O33  1  0.60311200  0.91460600  0.13154600  1
  O  O34  1  0.21693900  0.58539400  0.18850500  1
  O  O35  1  0.18850500  0.21693900  0.58539400  1
  O  O36  1  0.31149500  0.89688800  0.02843400  1
  O  O37  1  0.02843400  0.31149500  0.89688800  1
  O  O38  1  0.91460600  0.13154600  0.60311200  1
  O  O39  1  0.47156600  0.60311200  0.18850500  1
  O  O40  1  0.89688800  0.36845400  0.58539400  1
  O  O41  1  0.91460600  0.28306100  0.31149500  1
  O  O42  1  0.60311200  0.18850500  0.47156600  1
  O  O43  1  0.58539400  0.89688800  0.36845400  1
  O  O44  1  0.28306100  0.31149500  0.91460600  1
  O  O45  1  0.21693900  0.13154600  0.02843400  1
  O  O46  1  0.02843400  0.21693900  0.13154600  1
  O  O47  1  0.81149500  0.78306100  0.41460600  1
loop_
_geom_bond_atom_site_label_1
_geom_bond_atom_site_label_2
_geom_bond_distance
_geom_bond_site_symmetry_2
Ge0 O25 1.785804 1_555
Ge0 O36 1.785810 1_556
Ge0 O9 1.785810 1_455
Ge0 O14 1.785812 1_555
Ge1 O1 1.785804 1_555
Ge1 O46 1.785810 1_655
Ge1 O20 1.785810 1_554
Ge1 O41 1.785812 1_555
Ge2 O6 1.785804 1_555
Ge2 O8 1.785810 1_555
Ge2 O27 1.785810 1_555
Ge2 O24 1.785812 1_555
Ge3 O33 1.785804 1_555
Ge3 O26 1.785810 1_565
Ge3 O10 1.785810 1_554
Ge3 O11 1.785812 1_555
Ge4 O38 1.785804 1_555
Ge4 O37 1.785810 1_655
Ge4 O23 1.785810 1_545
Ge4 O4 1.785812 1_555
Ge5 O15 1.785804 1_555
Ge5 O13 1.785810 1_555
Ge5 O31 1.785810 1_555
Ge5 O34 1.785812 1_555
Ge6 O40 1.785804 1_555
Ge6 O7 1.785810 1_555
Ge6 O42 1.785810 1_555
Ge6 O21 1.785812 1_555
Ge7 O22 1.785804 1_555
Ge7 O45 1.785810 1_556
Ge7 O2 1.785810 1_545
Ge7 O44 1.785812 1_555
Ge8 O17 1.785804 1_555
Ge8 O32 1.785810 1_565
Ge8 O18 1.785810 1_455
Ge8 O28 1.785812 1_555
Ge9 O30 1.785804 1_555
Ge9 O3 1.785810 1_555
Ge9 O19 1.785810 1_555
Ge9 O0 1.785812 1_555
Ge10 O43 1.785804 1_555
Ge10 O5 1.785810 1_555
Ge10 O39 1.785810 1_555
Ge10 O47 1.785812 1_555
Ge11 O12 1.785804 1_555
Ge11 O16 1.785810 1_555
Ge11 O29 1.785810 1_555
Ge11 O35 1.785812 1_555
O0 W6 2.140131 1_566
O0 Zn2 2.321255 1_555
O0 Zn0 2.464191 1_555
O1 W5 2.140143 1_655
O1 Zn4 2.321249 1_554
O1 Zn3 2.464193 1_555
O2 W4 2.140134 1_565
O2 Zn0 2.321245 1_555
O2 Zn5 2.464197 1_455
O3 W0 2.140134 1_555
O3 Zn2 2.321245 1_555
O3 Zn1 2.464197 1_555
O4 W1 2.140131 1_555
O4 Zn2 2.321255 1_545
O4 Zn4 2.464191 1_555
O5 W0 2.140134 1_555
O5 Zn5 2.321245 1_555
O5 Zn2 2.464197 1_555
O6 W3 2.140143 1_555
O6 Zn3 2.321249 1_555
O6 Zn4 2.464193 1_554
O7 W0 2.140134 1_555
O7 Zn1 2.321245 1_555
O7 Zn5 2.464197 1_555
O8 W2 2.140134 1_655
O8 Zn3 2.321245 1_555
O8 Zn5 2.464197 1_555
O9 W7 2.140134 1_666
O9 Zn5 2.321245 1_555
O9 Zn1 2.464197 1_555
O10 W7 2.140134 1_666
O10 Zn1 2.321245 1_555
O10 Zn2 2.464197 1_555
O11 W3 2.140131 1_555
O11 Zn1 2.321255 1_554
O11 Zn3 2.464191 1_555
O12 W1 2.140143 1_555
O12 Zn4 2.321249 1_555
O12 Zn0 2.464193 1_545
O13 W1 2.140134 1_565
O13 Zn0 2.321245 1_555
O13 Zn2 2.464197 1_555
O14 W2 2.140131 1_555
O14 Zn5 2.321255 1_455
O14 Zn0 2.464191 1_555
O15 W2 2.140143 1_555
O15 Zn0 2.321249 1_555
O15 Zn3 2.464193 1_455
O16 W3 2.140134 1_556
O16 Zn4 2.321245 1_555
O16 Zn1 2.464197 1_555
O17 W4 2.140143 1_565
O17 Zn3 2.321249 1_455
O17 Zn0 2.464193 1_555
O18 W5 2.140134 1_655
O18 Zn3 2.321245 1_555
O18 Zn1 2.464197 1_554
O19 W2 2.140134 1_555
O19 Zn9 2.321245 1_555
O19 Zn11 2.464197 1_555
O20 W6 2.140134 1_556
O20 Zn4 2.321245 1_555
O20 Zn2 2.464197 1_545
O21 W5 2.140131 1_656
O21 Zn1 2.321255 1_555
O21 Zn4 2.464191 1_555
O22 W6 2.140143 1_556
O22 Zn0 2.321249 1_545
O22 Zn4 2.464193 1_555
O23 W7 2.140134 1_666
O23 Zn2 2.321245 1_555
O23 Zn5 2.464197 1_555
O24 W6 2.140131 1_555
O24 Zn8 2.321255 1_555
O24 Zn6 2.464191 1_555
O25 W5 2.140143 1_556
O25 Zn10 2.321249 1_556
O25 Zn9 2.464193 1_555
O26 W4 2.140134 1_655
O26 Zn6 2.321245 1_555
O26 Zn11 2.464197 1_655
O27 W0 2.140134 1_555
O27 Zn8 2.321245 1_555
O27 Zn7 2.464197 1_555
O28 W1 2.140131 1_565
O28 Zn8 2.321255 1_565
O28 Zn10 2.464191 1_555
O29 W0 2.140134 1_555
O29 Zn11 2.321245 1_555
O29 Zn8 2.464197 1_555
O30 W3 2.140143 1_556
O30 Zn9 2.321249 1_555
O30 Zn10 2.464193 1_556
O31 W0 2.140134 1_555
O31 Zn7 2.321245 1_555
O31 Zn11 2.464197 1_555
O32 W7 2.140134 1_555
O32 Zn8 2.321245 1_555
O32 Zn11 2.464197 1_555
O33 W6 2.140143 1_565
O33 Zn6 2.321249 1_565
O33 Zn10 2.464193 1_555
O34 W5 2.140131 1_555
O34 Zn7 2.321255 1_555
O34 Zn10 2.464191 1_555
O35 W4 2.140131 1_555
O35 Zn11 2.321255 1_555
O35 Zn9 2.464191 1_555
O36 W6 2.140134 1_565
O36 Zn10 2.321245 1_555
O36 Zn8 2.464197 1_565
O37 W5 2.140134 1_556
O37 Zn9 2.321245 1_555
O37 Zn7 2.464197 1_556
O38 W4 2.140143 1_655
O38 Zn9 2.321249 1_655
O38 Zn6 2.464193 1_555
O39 W3 2.140134 1_555
O39 Zn10 2.321245 1_555
O39 Zn7 2.464197 1_555
O40 W2 2.140143 1_655
O40 Zn6 2.321249 1_555
O40 Zn9 2.464193 1_655
O41 W2 2.140131 1_655
O41 Zn11 2.321255 1_655
O41 Zn6 2.464191 1_555
O42 W1 2.140134 1_555
O42 Zn6 2.321245 1_555
O42 Zn8 2.464197 1_555
O43 W1 2.140143 1_565
O43 Zn10 2.321249 1_555
O43 Zn6 2.464193 1_565
O44 W3 2.140131 1_556
O44 Zn7 2.321255 1_556
O44 Zn9 2.464191 1_555
O45 W7 2.140134 1_555
O45 Zn7 2.321245 1_555
O45 Zn8 2.464197 1_555
O46 W7 2.140134 1_555
O46 Zn11 2.321245 1_555
O46 Zn7 2.464197 1_555
O47 W4 2.140131 1_665
O47 Zn5 2.321255 1_555
O47 Zn3 2.464191 1_555
