# generated using pymatgen
data_VFeSbO6
_symmetry_space_group_name_H-M   'P 1'
_cell_length_a   4.63762107
_cell_length_b   4.63751107
_cell_length_c   9.26441700
_cell_angle_alpha   90.00004327
_cell_angle_beta   89.99988256
_cell_angle_gamma   90.01985402
_symmetry_Int_Tables_number   1
_chemical_formula_structural   VFeSbO6
_chemical_formula_sum   'V2 Fe2 Sb2 O12'
_cell_volume   199.24998092
_cell_formula_units_Z   2
loop_
 _symmetry_equiv_pos_site_id
 _symmetry_equiv_pos_as_xyz
  1  'x, y, z'
loop_
 _atom_site_type_symbol
 _atom_site_label
 _atom_site_symmetry_multiplicity
 _atom_site_fract_x
 _atom_site_fract_y
 _atom_site_fract_z
 _atom_site_occupancy
  V  V0  1  0.00000000  0.00000000  0.00084900  1
  V  V1  1  0.50000000  0.49999900  0.50103500  1
  Fe  Fe0  1  0.50000500  0.50000100  0.16878600  1
  Fe  Fe1  1  0.00000100  0.00000100  0.66880200  1
  Sb  Sb0  1  0.50000000  0.50000000  0.83376700  1
  Sb  Sb1  1  0.00000000  0.00000000  0.33357000  1
  O  O0  1  0.19152600  0.80847100  0.16346600  1
  O  O1  1  0.80847200  0.19152800  0.16346700  1
  O  O2  1  0.30775500  0.30775400  0.66384600  1
  O  O3  1  0.69224300  0.69224700  0.66384600  1
  O  O4  1  0.20216400  0.79785100  0.49805900  1
  O  O5  1  0.79783500  0.20215000  0.49805800  1
  O  O6  1  0.29773000  0.29773000  0.99790700  1
  O  O7  1  0.70226900  0.70226900  0.99790700  1
  O  O8  1  0.19406800  0.80593000  0.83687400  1
  O  O9  1  0.80593200  0.19406900  0.83687400  1
  O  O10  1  0.30610400  0.30609700  0.33644300  1
  O  O11  1  0.69389600  0.69390300  0.33644300  1
loop_
_geom_bond_atom_site_label_1
_geom_bond_atom_site_label_2
_geom_bond_distance
_geom_bond_site_symmetry_2
Fe0 O11 2.007277 1_555
Fe0 O10 2.007300 1_555
Fe0 O1 2.024054 1_555
Fe0 O0 2.024083 1_555
Fe0 O7 2.065271 1_554
Fe0 O6 2.065302 1_554
Fe1 O9 2.011243 1_455
Fe1 O8 2.011249 1_545
Fe1 O2 2.018577 1_555
Fe1 O3 2.018593 1_445
Fe1 O4 2.064138 1_545
Fe1 O5 2.064153 1_455
O0 V0 1.961664 1_565
O0 Sb1 2.015420 1_565
O1 V0 1.961670 1_655
O1 Sb1 2.015419 1_655
O2 V1 1.965778 1_555
O2 Sb0 2.016766 1_555
O3 V1 1.965781 1_555
O3 Sb0 2.016762 1_555
O4 V1 1.953946 1_555
O4 Sb1 2.020084 1_565
O5 V1 1.953932 1_555
O5 Sb1 2.020077 1_655
O6 V0 1.952517 1_556
O6 Sb0 2.017830 1_555
O7 V0 1.952523 1_666
O7 Sb0 2.017827 1_555
O8 V0 1.982006 1_566
O8 Sb0 2.007005 1_555
O9 V0 1.982007 1_656
O9 Sb0 2.007009 1_555
O10 V1 1.985396 1_555
O10 Sb1 2.007391 1_555
O11 V1 1.985399 1_555
O11 Sb1 2.007391 1_665
