# generated using pymatgen
data_Na3LaMn3(AsO5)3
_symmetry_space_group_name_H-M   'P 1'
_cell_length_a   11.37084197
_cell_length_b   11.37084197
_cell_length_c   6.17815500
_cell_angle_alpha   90.00000000
_cell_angle_beta   90.00000000
_cell_angle_gamma   119.99999983
_symmetry_Int_Tables_number   1
_chemical_formula_structural   Na3LaMn3(AsO5)3
_chemical_formula_sum   'Na6 La2 Mn6 As6 O30'
_cell_volume   691.79063730
_cell_formula_units_Z   2
loop_
 _symmetry_equiv_pos_site_id
 _symmetry_equiv_pos_as_xyz
  1  'x, y, z'
loop_
 _atom_site_type_symbol
 _atom_site_label
 _atom_site_symmetry_multiplicity
 _atom_site_fract_x
 _atom_site_fract_y
 _atom_site_fract_z
 _atom_site_occupancy
  Na  Na0  1  0.84254500  0.73940200  0.75000000  1
  Na  Na1  1  0.89685700  0.15745500  0.75000000  1
  Na  Na2  1  0.26059800  0.10314300  0.75000000  1
  Na  Na3  1  0.15745500  0.26059800  0.25000000  1
  Na  Na4  1  0.10314300  0.84254500  0.25000000  1
  Na  Na5  1  0.73940200  0.89685700  0.25000000  1
  La  La0  1  0.33333300  0.66666700  0.25000000  1
  La  La1  1  0.66666700  0.33333300  0.75000000  1
  Mn  Mn0  1  0.50000000  0.50000000  0.50000000  1
  Mn  Mn1  1  0.00000000  0.50000000  0.50000000  1
  Mn  Mn2  1  0.50000000  0.00000000  0.50000000  1
  Mn  Mn3  1  0.50000000  0.50000000  0.00000000  1
  Mn  Mn4  1  0.00000000  0.50000000  0.00000000  1
  Mn  Mn5  1  0.50000000  0.00000000  0.00000000  1
  As  As0  1  0.21451100  0.39839500  0.75000000  1
  As  As1  1  0.18388400  0.78548900  0.75000000  1
  As  As2  1  0.60160500  0.81611600  0.75000000  1
  As  As3  1  0.78548900  0.60160500  0.25000000  1
  As  As4  1  0.81611600  0.21451100  0.25000000  1
  As  As5  1  0.39839500  0.18388400  0.25000000  1
  O  O0  1  0.52352800  0.61069700  0.25000000  1
  O  O1  1  0.08716900  0.47647200  0.25000000  1
  O  O2  1  0.38930300  0.91283100  0.25000000  1
  O  O3  1  0.47647200  0.38930300  0.75000000  1
  O  O4  1  0.91283100  0.52352800  0.75000000  1
  O  O5  1  0.61069700  0.08716900  0.75000000  1
  O  O6  1  0.30934300  0.47810600  0.51951900  1
  O  O7  1  0.16876300  0.69065700  0.51951900  1
  O  O8  1  0.52189400  0.83123700  0.51951900  1
  O  O9  1  0.69065700  0.52189400  0.01951900  1
  O  O10  1  0.83123700  0.30934300  0.01951900  1
  O  O11  1  0.47810600  0.16876300  0.01951900  1
  O  O12  1  0.69065700  0.52189400  0.48048100  1
  O  O13  1  0.83123700  0.30934300  0.48048100  1
  O  O14  1  0.47810600  0.16876300  0.48048100  1
  O  O15  1  0.30934300  0.47810600  0.98048100  1
  O  O16  1  0.16876300  0.69065700  0.98048100  1
  O  O17  1  0.52189400  0.83123700  0.98048100  1
  O  O18  1  0.07795100  0.42424600  0.75000000  1
  O  O19  1  0.34629500  0.92204900  0.75000000  1
  O  O20  1  0.57575400  0.65370500  0.75000000  1
  O  O21  1  0.92204900  0.57575400  0.25000000  1
  O  O22  1  0.65370500  0.07795100  0.25000000  1
  O  O23  1  0.42424600  0.34629500  0.25000000  1
  O  O24  1  0.14857600  0.22774600  0.75000000  1
  O  O25  1  0.07917000  0.85142400  0.75000000  1
  O  O26  1  0.77225400  0.92083000  0.75000000  1
  O  O27  1  0.85142400  0.77225400  0.25000000  1
  O  O28  1  0.92083000  0.14857600  0.25000000  1
  O  O29  1  0.22774600  0.07917000  0.25000000  1
loop_
_geom_bond_atom_site_label_1
_geom_bond_atom_site_label_2
_geom_bond_distance
_geom_bond_site_symmetry_2
Na0 O25 2.331248 1_655
Na0 O26 2.558053 1_555
Na0 O20 2.682609 1_555
Na0 O9 2.756980 1_556
Na0 O12 2.756980 1_555
Na0 O4 2.936995 1_555
Na1 O26 2.331248 1_545
Na1 O24 2.558053 1_655
Na1 O18 2.682609 1_655
Na1 O10 2.756980 1_556
Na1 O13 2.756980 1_555
Na1 O5 2.936995 1_555
Na2 O24 2.331248 1_555
Na2 O25 2.558053 1_545
Na2 O19 2.682609 1_545
Na2 O11 2.756980 1_556
Na2 O14 2.756980 1_555
Na2 O3 2.936995 1_555
Na3 O28 2.331248 1_455
Na3 O29 2.558053 1_555
Na3 O23 2.682609 1_555
Na3 O6 2.756980 1_555
Na3 O15 2.756980 1_554
Na3 O1 2.936995 1_555
Na4 O29 2.331248 1_565
Na4 O27 2.558053 1_455
Na4 O21 2.682609 1_455
Na4 O7 2.756980 1_555
Na4 O16 2.756980 1_554
Na4 O2 2.936995 1_555
Na5 O27 2.331248 1_555
Na5 O28 2.558053 1_565
Na5 O22 2.682609 1_565
Na5 O8 2.756980 1_555
Na5 O17 2.756980 1_554
Na5 O0 2.936995 1_555
La0 O2 2.541366 1_555
La0 O1 2.541369 1_555
La0 O0 2.541377 1_555
La0 O7 2.619026 1_555
La0 O16 2.619026 1_554
La0 O8 2.619031 1_555
La0 O17 2.619031 1_554
La0 O6 2.619035 1_555
La0 O15 2.619035 1_554
La1 O5 2.541366 1_555
La1 O4 2.541369 1_555
La1 O3 2.541377 1_555
La1 O10 2.619026 1_556
La1 O13 2.619026 1_555
La1 O11 2.619031 1_556
La1 O14 2.619031 1_555
La1 O9 2.619035 1_556
La1 O12 2.619035 1_555
Mn0 O0 1.924785 1_555
Mn0 O3 1.924785 1_555
Mn0 O12 2.058332 1_555
Mn0 O6 2.058332 1_555
Mn0 O20 2.162578 1_555
Mn0 O23 2.162578 1_555
Mn1 O4 1.924785 1_455
Mn1 O1 1.924785 1_555
Mn1 O13 2.058332 1_455
Mn1 O7 2.058332 1_555
Mn1 O18 2.162578 1_555
Mn1 O21 2.162578 1_455
Mn2 O5 1.924785 1_555
Mn2 O2 1.924785 1_545
Mn2 O8 2.058332 1_545
Mn2 O14 2.058332 1_555
Mn2 O22 2.162578 1_555
Mn2 O19 2.162578 1_545
Mn3 O0 1.924785 1_555
Mn3 O3 1.924785 1_554
Mn3 O9 2.058332 1_555
Mn3 O15 2.058332 1_554
Mn3 O20 2.162578 1_554
Mn3 O23 2.162578 1_555
Mn4 O4 1.924785 1_454
Mn4 O1 1.924785 1_555
Mn4 O10 2.058332 1_455
Mn4 O16 2.058332 1_554
Mn4 O18 2.162578 1_554
Mn4 O21 2.162578 1_455
Mn5 O5 1.924785 1_554
Mn5 O2 1.924785 1_545
Mn5 O11 2.058332 1_555
Mn5 O17 2.058332 1_544
Mn5 O22 2.162578 1_555
Mn5 O19 2.162578 1_544
As0 O24 1.694857 1_555
As0 O18 1.718733 1_555
As0 O15 1.741998 1_555
As0 O6 1.741998 1_555
As1 O25 1.694857 1_555
As1 O19 1.718733 1_555
As1 O16 1.741998 1_555
As1 O7 1.741998 1_555
As2 O26 1.694857 1_555
As2 O20 1.718733 1_555
As2 O17 1.741998 1_555
As2 O8 1.741998 1_555
As3 O27 1.694857 1_555
As3 O21 1.718733 1_555
As3 O12 1.741998 1_555
As3 O9 1.741998 1_555
As4 O28 1.694857 1_555
As4 O22 1.718733 1_555
As4 O13 1.741998 1_555
As4 O10 1.741998 1_555
As5 O29 1.694857 1_555
As5 O23 1.718733 1_555
As5 O14 1.741998 1_555
As5 O11 1.741998 1_555
