# generated using pymatgen
data_Mg14CoSnO16
_symmetry_space_group_name_H-M   'P 1'
_cell_length_a   8.66909027
_cell_length_b   8.68757194
_cell_length_c   4.31202791
_cell_angle_alpha   90.00000000
_cell_angle_beta   90.00000000
_cell_angle_gamma   90.00000000
_symmetry_Int_Tables_number   1
_chemical_formula_structural   Mg14CoSnO16
_chemical_formula_sum   'Mg14 Co1 Sn1 O16'
_cell_volume   324.75324725
_cell_formula_units_Z   1
loop_
 _symmetry_equiv_pos_site_id
 _symmetry_equiv_pos_as_xyz
  1  'x, y, z'
loop_
 _atom_site_type_symbol
 _atom_site_label
 _atom_site_symmetry_multiplicity
 _atom_site_fract_x
 _atom_site_fract_y
 _atom_site_fract_z
 _atom_site_occupancy
  Mg  Mg0  1  0.50000000  -0.00000000  0.00000000  1
  Mg  Mg1  1  0.50000000  0.50000000  0.00000000  1
  Mg  Mg2  1  -0.00000000  0.23440732  0.50000000  1
  Mg  Mg3  1  -0.00000000  0.76559268  0.50000000  1
  Mg  Mg4  1  0.50000000  0.24685287  0.50000000  1
  Mg  Mg5  1  0.50000000  0.75314713  0.50000000  1
  Mg  Mg6  1  0.24892036  -0.00000000  0.50000000  1
  Mg  Mg7  1  0.26081482  0.50000000  0.50000000  1
  Mg  Mg8  1  0.75107964  -0.00000000  0.50000000  1
  Mg  Mg9  1  0.73918518  0.50000000  0.50000000  1
  Mg  Mg10  1  0.25342241  0.24107124  -0.00000000  1
  Mg  Mg11  1  0.25342241  0.75892876  0.00000000  1
  Mg  Mg12  1  0.74657759  0.24107124  0.00000000  1
  Mg  Mg13  1  0.74657759  0.75892876  0.00000000  1
  Co  Co0  1  -0.00000000  -0.00000000  0.00000000  1
  Sn  Sn0  1  -0.00000000  0.50000000  0.00000000  1
  O  O0  1  0.26293802  -0.00000000  0.00000000  1
  O  O1  1  0.26488889  0.50000000  0.00000000  1
  O  O2  1  0.73706198  -0.00000000  0.00000000  1
  O  O3  1  0.73511111  0.50000000  -0.00000000  1
  O  O4  1  0.24874180  0.25076894  0.50000000  1
  O  O5  1  0.24874180  0.74923106  0.50000000  1
  O  O6  1  0.75125820  0.25076894  0.50000000  1
  O  O7  1  0.75125820  0.74923106  0.50000000  1
  O  O8  1  -0.00000000  -0.00000000  0.50000000  1
  O  O9  1  -0.00000000  0.50000000  0.50000000  1
  O  O10  1  0.50000000  -0.00000000  0.50000000  1
  O  O11  1  0.50000000  0.50000000  0.50000000  1
  O  O12  1  -0.00000000  0.24405195  0.00000000  1
  O  O13  1  -0.00000000  0.75594805  0.00000000  1
  O  O14  1  0.50000000  0.24984433  -0.00000000  1
  O  O15  1  0.50000000  0.75015567  0.00000000  1
loop_
_geom_bond_atom_site_label_1
_geom_bond_atom_site_label_2
_geom_bond_distance
_geom_bond_site_symmetry_2
Mg0 O0 2.055112 1_555
Mg0 O2 2.055112 1_555
Mg0 O10 2.156014 1_555
Mg0 O10 2.156014 1_554
Mg0 O15 2.170541 1_545
Mg0 O14 2.170541 1_555
Mg1 O3 2.038199 1_555
Mg1 O1 2.038199 1_555
Mg1 O11 2.156014 1_554
Mg1 O11 2.156014 1_555
Mg1 O14 2.173245 1_555
Mg1 O15 2.173245 1_555
Mg2 O8 2.036430 1_555
Mg2 O12 2.157641 1_555
Mg2 O12 2.157641 1_556
Mg2 O4 2.161045 1_555
Mg2 O6 2.161045 1_455
Mg2 O9 2.307356 1_555
Mg3 O8 2.036430 1_565
Mg3 O13 2.157641 1_555
Mg3 O13 2.157641 1_556
Mg3 O5 2.161045 1_555
Mg3 O7 2.161045 1_455
Mg3 O9 2.307356 1_555
Mg4 O10 2.144552 1_555
Mg4 O14 2.156171 1_556
Mg4 O14 2.156171 1_555
Mg4 O6 2.178446 1_555
Mg4 O4 2.178446 1_555
Mg4 O11 2.199234 1_555
Mg5 O10 2.144552 1_565
Mg5 O15 2.156171 1_556
Mg5 O15 2.156171 1_555
Mg5 O5 2.178446 1_555
Mg5 O7 2.178446 1_555
Mg5 O11 2.199234 1_555
Mg6 O8 2.157913 1_555
Mg6 O0 2.159436 1_555
Mg6 O0 2.159436 1_556
Mg6 O10 2.176632 1_555
Mg6 O4 2.178574 1_555
Mg6 O5 2.178574 1_545
Mg7 O11 2.073518 1_555
Mg7 O1 2.156303 1_556
Mg7 O1 2.156303 1_555
Mg7 O5 2.167741 1_555
Mg7 O4 2.167741 1_555
Mg7 O9 2.261027 1_555
Mg8 O8 2.157913 1_655
Mg8 O2 2.159436 1_556
Mg8 O2 2.159436 1_555
Mg8 O10 2.176632 1_555
Mg8 O6 2.178574 1_555
Mg8 O7 2.178574 1_545
Mg9 O11 2.073518 1_555
Mg9 O3 2.156303 1_556
Mg9 O3 2.156303 1_555
Mg9 O7 2.167741 1_555
Mg9 O6 2.167741 1_555
Mg9 O9 2.261027 1_655
Mg10 O0 2.095948 1_555
Mg10 O14 2.138962 1_555
Mg10 O4 2.158041 1_554
Mg10 O4 2.158041 1_555
Mg10 O12 2.197094 1_555
Mg10 O1 2.251657 1_555
Mg11 O0 2.095948 1_565
Mg11 O15 2.138962 1_555
Mg11 O5 2.158041 1_555
Mg11 O5 2.158041 1_554
Mg11 O13 2.197094 1_555
Mg11 O1 2.251657 1_555
Mg12 O2 2.095948 1_555
Mg12 O14 2.138962 1_555
Mg12 O6 2.158041 1_555
Mg12 O6 2.158041 1_554
Mg12 O12 2.197094 1_655
Mg12 O3 2.251657 1_555
Mg13 O2 2.095948 1_565
Mg13 O15 2.138962 1_555
Mg13 O7 2.158041 1_555
Mg13 O7 2.158041 1_554
Mg13 O13 2.197094 1_655
Mg13 O3 2.251657 1_555
Co0 O12 2.120219 1_555
Co0 O13 2.120219 1_545
Co0 O8 2.156014 1_555
Co0 O8 2.156014 1_554
Co0 O0 2.279433 1_555
Co0 O2 2.279433 1_455
O1 Sn0 2.296346 1_555
O3 Sn0 2.296346 1_655
O9 Sn0 2.156014 1_556
O9 Sn0 2.156014 1_555
O12 Sn0 2.223567 1_555
O13 Sn0 2.223567 1_555
