# generated using pymatgen
data_SrPd5
_symmetry_space_group_name_H-M   'P 1'
_cell_length_a   5.42730703
_cell_length_b   5.42730720
_cell_length_c   4.38327057
_cell_angle_alpha   90.00000000
_cell_angle_beta   90.00000000
_cell_angle_gamma   119.99999891
_symmetry_Int_Tables_number   1
_chemical_formula_structural   SrPd5
_chemical_formula_sum   'Sr1 Pd5'
_cell_volume   111.81439321
_cell_formula_units_Z   1
loop_
 _symmetry_equiv_pos_site_id
 _symmetry_equiv_pos_as_xyz
  1  'x, y, z'
loop_
 _atom_site_type_symbol
 _atom_site_label
 _atom_site_symmetry_multiplicity
 _atom_site_fract_x
 _atom_site_fract_y
 _atom_site_fract_z
 _atom_site_occupancy
  Sr  Sr0  1  0.00000000  -0.00000000  0.00000000  1
  Pd  Pd0  1  0.66666700  0.33333300  0.00000000  1
  Pd  Pd1  1  0.50000000  -0.00000000  0.50000000  1
  Pd  Pd2  1  0.50000000  0.50000000  0.50000000  1
  Pd  Pd3  1  0.00000000  0.50000000  0.50000000  1
  Pd  Pd4  1  0.33333300  0.66666700  -0.00000000  1
loop_
_geom_bond_atom_site_label_1
_geom_bond_atom_site_label_2
_geom_bond_distance
_geom_bond_site_symmetry_2
Pd0 Pd3 2.694049 1_655
Pd0 Pd3 2.694049 1_654
Pd0 Pd1 2.694049 1_554
Pd0 Pd1 2.694049 1_555
Pd0 Pd2 2.694052 1_555
Pd0 Pd2 2.694052 1_554
Pd0 Sr0 3.133454 1_655
Pd0 Sr0 3.133459 1_555
Pd0 Sr0 3.133459 1_665
Pd1 Pd4 2.694049 1_545
Pd1 Pd4 2.694049 1_546
Pd1 Pd2 2.713654 1_555
Pd1 Pd2 2.713654 1_545
Pd1 Pd3 2.713654 1_655
Pd1 Pd3 2.713654 1_545
Pd1 Sr0 3.488149 1_656
Pd1 Sr0 3.488149 1_555
Pd1 Sr0 3.488149 1_556
Pd1 Sr0 3.488149 1_655
Pd2 Pd4 2.694052 1_555
Pd2 Pd4 2.694052 1_556
Pd2 Pd3 2.713654 1_555
Pd2 Pd3 2.713654 1_655
Pd2 Sr0 3.488149 1_665
Pd2 Sr0 3.488149 1_555
Pd2 Sr0 3.488149 1_556
Pd2 Sr0 3.488149 1_666
Pd3 Pd4 2.694049 1_556
Pd3 Pd4 2.694049 1_555
Pd3 Sr0 3.488149 1_565
Pd3 Sr0 3.488149 1_555
Pd3 Sr0 3.488149 1_556
Pd3 Sr0 3.488149 1_566
Pd4 Sr0 3.133454 1_565
Pd4 Sr0 3.133459 1_665
Pd4 Sr0 3.133459 1_555
