# generated using pymatgen
data_MoPt3
_symmetry_space_group_name_H-M   'P 1'
_cell_length_a   3.97952100
_cell_length_b   3.97952100
_cell_length_c   3.97952100
_cell_angle_alpha   90.00000000
_cell_angle_beta   90.00000000
_cell_angle_gamma   90.00000000
_symmetry_Int_Tables_number   1
_chemical_formula_structural   MoPt3
_chemical_formula_sum   'Mo1 Pt3'
_cell_volume   63.02203208
_cell_formula_units_Z   1
loop_
 _symmetry_equiv_pos_site_id
 _symmetry_equiv_pos_as_xyz
  1  'x, y, z'
loop_
 _atom_site_type_symbol
 _atom_site_label
 _atom_site_symmetry_multiplicity
 _atom_site_fract_x
 _atom_site_fract_y
 _atom_site_fract_z
 _atom_site_occupancy
  Mo  Mo0  1  0.00000000  0.00000000  0.00000000  1
  Pt  Pt0  1  0.50000000  0.50000000  0.00000000  1
  Pt  Pt1  1  0.50000000  0.00000000  0.50000000  1
  Pt  Pt2  1  0.00000000  0.50000000  0.50000000  1
loop_
_geom_bond_atom_site_label_1
_geom_bond_atom_site_label_2
_geom_bond_distance
_geom_bond_site_symmetry_2
Mo0 Pt2 2.813946 1_554
Mo0 Pt0 2.813946 1_445
Mo0 Pt0 2.813946 1_545
Mo0 Pt1 2.813946 1_455
Mo0 Pt1 2.813946 1_454
Mo0 Pt2 2.813946 1_555
Mo0 Pt0 2.813946 1_455
Mo0 Pt0 2.813946 1_555
Mo0 Pt2 2.813946 1_544
Mo0 Pt2 2.813946 1_545
Mo0 Pt1 2.813946 1_555
Mo0 Pt1 2.813946 1_554
Pt0 Pt2 2.813946 1_554
Pt0 Pt1 2.813946 1_565
Pt0 Pt1 2.813946 1_564
Pt0 Pt2 2.813946 1_655
Pt0 Pt2 2.813946 1_555
Pt0 Pt2 2.813946 1_654
Pt0 Pt1 2.813946 1_555
Pt0 Pt1 2.813946 1_554
Pt1 Pt2 2.813946 1_655
Pt1 Pt2 2.813946 1_555
Pt1 Pt2 2.813946 1_545
Pt1 Pt2 2.813946 1_645
