# generated using pymatgen
data_Na2Mo(H2O3)2
_symmetry_space_group_name_H-M   'P 1'
_cell_length_a   8.81724600
_cell_length_b   10.65797900
_cell_length_c   13.88271700
_cell_angle_alpha   90.00000000
_cell_angle_beta   90.00000000
_cell_angle_gamma   90.00000000
_symmetry_Int_Tables_number   1
_chemical_formula_structural   Na2Mo(H2O3)2
_chemical_formula_sum   'Na16 Mo8 H32 O48'
_cell_volume   1304.61476258
_cell_formula_units_Z   8
loop_
 _symmetry_equiv_pos_site_id
 _symmetry_equiv_pos_as_xyz
  1  'x, y, z'
loop_
 _atom_site_type_symbol
 _atom_site_label
 _atom_site_symmetry_multiplicity
 _atom_site_fract_x
 _atom_site_fract_y
 _atom_site_fract_z
 _atom_site_occupancy
  Na  Na0  1  0.75566600  0.94368600  0.14378200  1
  Na  Na1  1  0.74433400  0.44368600  0.14378200  1
  Na  Na2  1  0.16029100  0.49587700  0.58226100  1
  Na  Na3  1  0.33970900  0.50412300  0.08226100  1
  Na  Na4  1  0.75566600  0.55631400  0.64378200  1
  Na  Na5  1  0.24433400  0.44368600  0.35621800  1
  Na  Na6  1  0.66029100  0.49587700  0.91773900  1
  Na  Na7  1  0.83970900  0.99587700  0.91773900  1
  Na  Na8  1  0.83970900  0.50412300  0.41773900  1
  Na  Na9  1  0.66029100  0.00412300  0.41773900  1
  Na  Na10  1  0.25566600  0.94368600  0.35621800  1
  Na  Na11  1  0.25566600  0.55631400  0.85621800  1
  Na  Na12  1  0.33970900  0.99587700  0.58226100  1
  Na  Na13  1  0.24433400  0.05631400  0.85621800  1
  Na  Na14  1  0.16029100  0.00412300  0.08226100  1
  Na  Na15  1  0.74433400  0.05631400  0.64378200  1
  Mo  Mo0  1  0.98399600  0.69874900  0.02362800  1
  Mo  Mo1  1  0.01600400  0.30125100  0.97637200  1
  Mo  Mo2  1  0.48399600  0.69874900  0.47637200  1
  Mo  Mo3  1  0.01600400  0.19874900  0.47637200  1
  Mo  Mo4  1  0.51600400  0.19874900  0.02362800  1
  Mo  Mo5  1  0.98399600  0.80125100  0.52362800  1
  Mo  Mo6  1  0.51600400  0.30125100  0.52362800  1
  Mo  Mo7  1  0.48399600  0.80125100  0.97637200  1
  H  H0  1  0.05797400  0.89887300  0.73386900  1
  H  H1  1  0.55283700  0.66746600  0.16554100  1
  H  H2  1  0.86856900  0.64507100  0.82716400  1
  H  H3  1  0.55797400  0.60112700  0.26613100  1
  H  H4  1  0.94202600  0.10112700  0.26613100  1
  H  H5  1  0.44202600  0.39887300  0.73386900  1
  H  H6  1  0.21272600  0.78622700  0.17853000  1
  H  H7  1  0.28727400  0.28622700  0.17853000  1
  H  H8  1  0.71272600  0.78622700  0.32147000  1
  H  H9  1  0.94716300  0.16746600  0.16554100  1
  H  H10  1  0.63143100  0.35492900  0.32716400  1
  H  H11  1  0.94716300  0.33253400  0.66554100  1
  H  H12  1  0.44716300  0.33253400  0.83445900  1
  H  H13  1  0.71272600  0.71377300  0.82147000  1
  H  H14  1  0.28727400  0.21377300  0.67853000  1
  H  H15  1  0.55283700  0.83253400  0.66554100  1
  H  H16  1  0.94202600  0.39887300  0.76613100  1
  H  H17  1  0.44202600  0.10112700  0.23386900  1
  H  H18  1  0.05283700  0.66746600  0.33445900  1
  H  H19  1  0.86856900  0.85492900  0.32716400  1
  H  H20  1  0.13143100  0.35492900  0.17283600  1
  H  H21  1  0.13143100  0.14507100  0.67283600  1
  H  H22  1  0.44716300  0.16746600  0.33445900  1
  H  H23  1  0.78727400  0.28622700  0.32147000  1
  H  H24  1  0.05797400  0.60112700  0.23386900  1
  H  H25  1  0.36856900  0.64507100  0.67283600  1
  H  H26  1  0.78727400  0.21377300  0.82147000  1
  H  H27  1  0.05283700  0.83253400  0.83445900  1
  H  H28  1  0.63143100  0.14507100  0.82716400  1
  H  H29  1  0.21272600  0.71377300  0.67853000  1
  H  H30  1  0.55797400  0.89887300  0.76613100  1
  H  H31  1  0.36856900  0.85492900  0.17283600  1
  O  O0  1  0.05894700  0.13789600  0.95868600  1
  O  O1  1  0.54085400  0.58462200  0.19673700  1
  O  O2  1  0.95914600  0.41537800  0.69673700  1
  O  O3  1  0.94105300  0.63789600  0.54131400  1
  O  O4  1  0.04372700  0.67900500  0.89979200  1
  O  O5  1  0.37353700  0.15242300  0.11090800  1
  O  O6  1  0.12646300  0.65242300  0.11090800  1
  O  O7  1  0.23502700  0.36346400  0.19995300  1
  O  O8  1  0.45627300  0.32099500  0.39979200  1
  O  O9  1  0.95627300  0.17900500  0.60020800  1
  O  O10  1  0.54372700  0.67900500  0.60020800  1
  O  O11  1  0.95627300  0.32099500  0.10020800  1
  O  O12  1  0.94105300  0.86210400  0.04131400  1
  O  O13  1  0.62646300  0.84757700  0.88909200  1
  O  O14  1  0.04085400  0.58462200  0.30326300  1
  O  O15  1  0.73502700  0.36346400  0.30004700  1
  O  O16  1  0.31816300  0.60557600  0.45987300  1
  O  O17  1  0.73502700  0.13653600  0.80004700  1
  O  O18  1  0.62646300  0.65242300  0.38909200  1
  O  O19  1  0.76497300  0.63653600  0.80004700  1
  O  O20  1  0.26497300  0.63653600  0.69995300  1
  O  O21  1  0.31816300  0.89442400  0.95987300  1
  O  O22  1  0.44105300  0.86210400  0.45868600  1
  O  O23  1  0.18183700  0.10557600  0.45987300  1
  O  O24  1  0.55894700  0.36210400  0.04131400  1
  O  O25  1  0.87353700  0.34757700  0.88909200  1
  O  O26  1  0.87353700  0.15242300  0.38909200  1
  O  O27  1  0.54372700  0.82099500  0.10020800  1
  O  O28  1  0.55894700  0.13789600  0.54131400  1
  O  O29  1  0.12646300  0.84757700  0.61090800  1
  O  O30  1  0.44105300  0.63789600  0.95868600  1
  O  O31  1  0.37353700  0.34757700  0.61090800  1
  O  O32  1  0.23502700  0.13653600  0.69995300  1
  O  O33  1  0.18183700  0.39442400  0.95987300  1
  O  O34  1  0.81816300  0.89442400  0.54012700  1
  O  O35  1  0.45627300  0.17900500  0.89979200  1
  O  O36  1  0.45914600  0.08462200  0.30326300  1
  O  O37  1  0.45914600  0.41537800  0.80326300  1
  O  O38  1  0.54085400  0.91537800  0.69673700  1
  O  O39  1  0.05894700  0.36210400  0.45868600  1
  O  O40  1  0.68183700  0.10557600  0.04012700  1
  O  O41  1  0.04085400  0.91537800  0.80326300  1
  O  O42  1  0.95914600  0.08462200  0.19673700  1
  O  O43  1  0.81816300  0.60557600  0.04012700  1
  O  O44  1  0.76497300  0.86346400  0.30004700  1
  O  O45  1  0.04372700  0.82099500  0.39979200  1
  O  O46  1  0.26497300  0.86346400  0.19995300  1
  O  O47  1  0.68183700  0.39442400  0.54012700  1
loop_
_geom_bond_atom_site_label_1
_geom_bond_atom_site_label_2
_geom_bond_distance
_geom_bond_site_symmetry_2
Na0 O44 2.333236 1_555
Na0 O12 2.334857 1_555
Na0 O40 2.339144 1_565
Na0 O27 2.359653 1_555
Na0 O42 2.452683 1_565
Na1 O15 2.333236 1_555
Na1 O24 2.334857 1_555
Na1 O43 2.339144 1_555
Na1 O11 2.359653 1_555
Na1 O1 2.452683 1_555
Na2 O20 2.401863 1_555
Na2 O39 2.402993 1_555
Na2 O16 2.488268 1_555
Na2 O31 2.488313 1_555
Na2 O3 2.520122 1_455
Na2 O2 2.531250 1_455
Na3 O7 2.401863 1_555
Na3 O30 2.402993 1_554
Na3 O33 2.488268 1_554
Na3 O6 2.488313 1_555
Na3 O24 2.520122 1_555
Na3 O1 2.531250 1_555
Na4 O19 2.333236 1_555
Na4 O3 2.334857 1_555
Na4 O47 2.339144 1_555
Na4 O10 2.359653 1_555
Na4 O2 2.452683 1_555
Na5 O7 2.333236 1_555
Na5 O39 2.334857 1_555
Na5 O16 2.339144 1_555
Na5 O8 2.359653 1_555
Na5 O14 2.452683 1_555
Na6 O19 2.401863 1_555
Na6 O24 2.402993 1_556
Na6 O43 2.488268 1_556
Na6 O25 2.488313 1_555
Na6 O30 2.520122 1_555
Na6 O37 2.531250 1_555
Na7 O17 2.401863 1_565
Na7 O12 2.402993 1_556
Na7 O40 2.488268 1_566
Na7 O13 2.488313 1_555
Na7 O0 2.520122 1_665
Na7 O41 2.531250 1_655
Na8 O15 2.401863 1_555
Na8 O3 2.402993 1_555
Na8 O47 2.488268 1_555
Na8 O18 2.488313 1_555
Na8 O39 2.520122 1_655
Na8 O14 2.531250 1_655
Na9 O44 2.401863 1_545
Na9 O28 2.402993 1_555
Na9 O34 2.488268 1_545
Na9 O26 2.488313 1_555
Na9 O22 2.520122 1_545
Na9 O36 2.531250 1_555
Na10 O46 2.333236 1_555
Na10 O22 2.334857 1_555
Na10 O23 2.339144 1_565
Na10 O45 2.359653 1_555
Na10 O36 2.452683 1_565
Na11 O20 2.333236 1_555
Na11 O30 2.334857 1_555
Na11 O33 2.339144 1_555
Na11 O4 2.359653 1_555
Na11 O37 2.452683 1_555
Na12 O32 2.401863 1_565
Na12 O22 2.402993 1_555
Na12 O23 2.488268 1_565
Na12 O29 2.488313 1_555
Na12 O28 2.520122 1_565
Na12 O38 2.531250 1_555
Na13 O32 2.333236 1_555
Na13 O0 2.334857 1_555
Na13 O21 2.339144 1_545
Na13 O35 2.359653 1_555
Na13 O41 2.452683 1_545
Na14 O46 2.401863 1_545
Na14 O0 2.402993 1_554
Na14 O21 2.488268 1_544
Na14 O5 2.488313 1_555
Na14 O12 2.520122 1_445
Na14 O42 2.531250 1_455
Na15 O17 2.333236 1_555
Na15 O28 2.334857 1_555
Na15 O34 2.339144 1_545
Na15 O9 2.359653 1_555
Na15 O38 2.452683 1_545
Mo0 O43 1.782298 1_555
Mo0 O12 1.798570 1_555
Mo0 O4 1.810314 1_654
Mo0 O6 1.813812 1_655
Mo1 O33 1.782298 1_555
Mo1 O0 1.798570 1_555
Mo1 O11 1.810314 1_456
Mo1 O25 1.813812 1_455
Mo2 O16 1.782298 1_555
Mo2 O22 1.798570 1_555
Mo2 O10 1.810314 1_555
Mo2 O18 1.813812 1_555
Mo3 O23 1.782298 1_555
Mo3 O39 1.798570 1_555
Mo3 O9 1.810314 1_455
Mo3 O26 1.813812 1_455
Mo4 O40 1.782298 1_555
Mo4 O24 1.798570 1_555
Mo4 O35 1.810314 1_554
Mo4 O5 1.813812 1_555
Mo5 O34 1.782298 1_555
Mo5 O3 1.798570 1_555
Mo5 O45 1.810314 1_655
Mo5 O29 1.813812 1_655
Mo6 O47 1.782298 1_555
Mo6 O28 1.798570 1_555
Mo6 O8 1.810314 1_555
Mo6 O31 1.813812 1_555
Mo7 O21 1.782298 1_555
Mo7 O30 1.798570 1_555
Mo7 O27 1.810314 1_556
Mo7 O13 1.813812 1_555
H0 O41 0.990872 1_555
H1 O1 0.989104 1_555
H2 O19 0.992145 1_555
H3 O1 0.990872 1_555
H4 O42 0.990872 1_555
H5 O37 0.990872 1_555
H6 O46 0.989098 1_555
H7 O7 0.989098 1_555
H8 O44 0.989098 1_555
H9 O42 0.989104 1_555
H10 O15 0.992145 1_555
H11 O2 0.989104 1_555
H12 O37 0.989104 1_555
H13 O19 0.989098 1_555
H14 O32 0.989098 1_555
H15 O38 0.989104 1_555
H16 O2 0.990872 1_555
H17 O36 0.990872 1_555
H18 O14 0.989104 1_555
H19 O44 0.992145 1_555
H20 O7 0.992145 1_555
H21 O32 0.992145 1_555
H22 O36 0.989104 1_555
H23 O15 0.989098 1_555
H24 O14 0.990872 1_555
H25 O20 0.992145 1_555
H26 O17 0.989098 1_555
H27 O41 0.989104 1_555
H28 O17 0.992145 1_555
H29 O20 0.989098 1_555
H30 O38 0.990872 1_555
H31 O46 0.992145 1_555
