# generated using pymatgen
data_ThSc
_symmetry_space_group_name_H-M   'P 1'
_cell_length_a   11.56141738
_cell_length_b   11.56141738
_cell_length_c   11.56141798
_cell_angle_alpha   35.07477972
_cell_angle_beta   35.07477972
_cell_angle_gamma   35.07477590
_symmetry_Int_Tables_number   1
_chemical_formula_structural   ThSc
_chemical_formula_sum   'Th8 Sc8'
_cell_volume   455.70266310
_cell_formula_units_Z   8
loop_
 _symmetry_equiv_pos_site_id
 _symmetry_equiv_pos_as_xyz
  1  'x, y, z'
loop_
 _atom_site_type_symbol
 _atom_site_label
 _atom_site_symmetry_multiplicity
 _atom_site_fract_x
 _atom_site_fract_y
 _atom_site_fract_z
 _atom_site_occupancy
  Th  Th0_0  1  0.25000000  0.25000000  0.25000000  1
  Th  Th0_1  1  0.25000000  0.25000000  0.75000000  1
  Th  Th0_2  1  0.25000000  0.75000000  0.25000000  1
  Th  Th0_3  1  0.25000000  0.75000000  0.75000000  1
  Th  Th0_4  1  0.75000000  0.25000000  0.25000000  1
  Th  Th0_5  1  0.75000000  0.25000000  0.75000000  1
  Th  Th0_6  1  0.75000000  0.75000000  0.25000000  1
  Th  Th0_7  1  0.75000000  0.75000000  0.75000000  1
  Sc  Sc0_0  1  0.00000000  0.00000000  0.00000000  1
  Sc  Sc0_1  1  0.00000000  0.00000000  0.50000000  1
  Sc  Sc0_2  1  0.00000000  0.50000000  0.00000000  1
  Sc  Sc0_3  1  0.00000000  0.50000000  0.50000000  1
  Sc  Sc0_4  1  0.50000000  0.00000000  0.00000000  1
  Sc  Sc0_5  1  0.50000000  0.00000000  0.50000000  1
  Sc  Sc0_6  1  0.50000000  0.50000000  0.00000000  1
  Sc  Sc0_7  1  0.50000000  0.50000000  0.50000000  1
loop_
_geom_bond_atom_site_label_1
_geom_bond_atom_site_label_2
_geom_bond_distance
_geom_bond_site_symmetry_2
Th0_0 Th0_6 3.483780 1_455
Th0_0 Th0_6 3.483780 1_545
Th0_0 Th0_5 3.483780 1_455
Th0_0 Th0_3 3.483780 1_554
Th0_0 Th0_3 3.483780 1_545
Th0_0 Th0_5 3.483780 1_554
Th0_1 Th0_7 3.483780 1_455
Th0_1 Th0_7 3.483780 1_545
Th0_1 Th0_4 3.483780 1_456
Th0_1 Th0_2 3.483780 1_546
Th0_1 Th0_2 3.483780 1_555
Th0_1 Th0_4 3.483780 1_555
Th0_2 Th0_4 3.483780 1_465
Th0_2 Th0_4 3.483780 1_555
Th0_2 Th0_7 3.483780 1_455
Th0_2 Th0_7 3.483780 1_554
Th0_3 Th0_5 3.483780 1_555
Th0_3 Th0_5 3.483780 1_465
Th0_3 Th0_6 3.483780 1_555
Th0_3 Th0_6 3.483780 1_456
Th0_4 Th0_7 3.483780 1_554
Th0_4 Th0_7 3.483780 1_545
Th0_5 Th0_6 3.483780 1_555
Th0_5 Th0_6 3.483780 1_546
Sc0_0 Th0_1 3.374660 1_554
Sc0_0 Th0_6 3.374660 1_445
Sc0_0 Th0_5 3.374660 1_454
Sc0_0 Th0_2 3.374660 1_545
Sc0_0 Th0_4 3.374660 1_455
Sc0_0 Th0_3 3.374660 1_544
Sc0_0 Sc0_6 3.483780 1_455
Sc0_0 Sc0_6 3.483780 1_545
Sc0_0 Sc0_5 3.483780 1_455
Sc0_0 Sc0_3 3.483780 1_554
Sc0_0 Sc0_3 3.483780 1_545
Sc0_0 Sc0_5 3.483780 1_554
Sc0_1 Th0_0 3.374660 1_555
Sc0_1 Th0_7 3.374660 1_445
Sc0_1 Th0_3 3.374660 1_545
Sc0_1 Th0_5 3.374660 1_455
Sc0_1 Th0_4 3.374660 1_455
Sc0_1 Th0_2 3.374660 1_545
Sc0_1 Sc0_7 3.483780 1_455
Sc0_1 Sc0_7 3.483780 1_545
Sc0_1 Sc0_2 3.483780 1_555
Sc0_1 Sc0_4 3.483780 1_456
Sc0_1 Sc0_4 3.483780 1_555
Sc0_1 Sc0_2 3.483780 1_546
Sc0_2 Th0_4 3.374660 1_455
Sc0_2 Th0_3 3.374660 1_554
Sc0_2 Th0_6 3.374660 1_455
Sc0_2 Th0_7 3.374660 1_454
Sc0_2 Th0_1 3.374660 1_554
Sc0_2 Th0_0 3.374660 1_555
Sc0_2 Sc0_4 3.483780 1_555
Sc0_2 Sc0_4 3.483780 1_465
Sc0_2 Sc0_7 3.483780 1_455
Sc0_2 Sc0_7 3.483780 1_554
Sc0_3 Th0_2 3.374660 1_555
Sc0_3 Th0_5 3.374660 1_455
Sc0_3 Th0_7 3.374660 1_455
Sc0_3 Th0_1 3.374660 1_555
Sc0_3 Th0_0 3.374660 1_555
Sc0_3 Th0_6 3.374660 1_455
Sc0_3 Sc0_5 3.483780 1_555
Sc0_3 Sc0_5 3.483780 1_465
Sc0_3 Sc0_6 3.483780 1_555
Sc0_3 Sc0_6 3.483780 1_456
Sc0_4 Th0_2 3.374660 1_545
Sc0_4 Th0_5 3.374660 1_554
Sc0_4 Th0_1 3.374660 1_554
Sc0_4 Th0_0 3.374660 1_555
Sc0_4 Th0_6 3.374660 1_545
Sc0_4 Th0_7 3.374660 1_544
Sc0_4 Sc0_7 3.483780 1_554
Sc0_4 Sc0_7 3.483780 1_545
Sc0_5 Th0_4 3.374660 1_555
Sc0_5 Th0_3 3.374660 1_545
Sc0_5 Th0_1 3.374660 1_555
Sc0_5 Th0_7 3.374660 1_545
Sc0_5 Th0_0 3.374660 1_555
Sc0_5 Th0_6 3.374660 1_545
Sc0_5 Sc0_6 3.483780 1_555
Sc0_5 Sc0_6 3.483780 1_546
Sc0_6 Th0_0 3.374660 1_555
Sc0_6 Th0_7 3.374660 1_554
Sc0_6 Th0_3 3.374660 1_554
Sc0_6 Th0_5 3.374660 1_554
Sc0_6 Th0_2 3.374660 1_555
Sc0_6 Th0_4 3.374660 1_555
Sc0_7 Th0_6 3.374660 1_555
Sc0_7 Th0_1 3.374660 1_555
Sc0_7 Th0_3 3.374660 1_555
Sc0_7 Th0_4 3.374660 1_555
Sc0_7 Th0_2 3.374660 1_555
Sc0_7 Th0_5 3.374660 1_555
