# generated using pymatgen
data_BeO
_symmetry_space_group_name_H-M   'P 1'
_cell_length_a   9.41109968
_cell_length_b   9.84070876
_cell_length_c   8.98206648
_cell_angle_alpha   90.96041302
_cell_angle_beta   91.76899099
_cell_angle_gamma   96.06589201
_symmetry_Int_Tables_number   1
_chemical_formula_structural   BeO
_chemical_formula_sum   'Be50 O50'
_cell_volume   826.62665174
_cell_formula_units_Z   50
loop_
 _symmetry_equiv_pos_site_id
 _symmetry_equiv_pos_as_xyz
  1  'x, y, z'
loop_
 _atom_site_type_symbol
 _atom_site_label
 _atom_site_symmetry_multiplicity
 _atom_site_fract_x
 _atom_site_fract_y
 _atom_site_fract_z
 _atom_site_occupancy
  Be  Be0  1  0.05925100  0.04046700  0.42245600  1
  Be  Be1  1  0.21017500  0.34099100  0.92932300  1
  Be  Be2  1  0.83891500  0.11913600  0.28694900  1
  Be  Be3  1  0.89132600  0.39068100  0.82711900  1
  Be  Be4  1  0.09165600  0.22454600  0.18149700  1
  Be  Be5  1  0.97973800  0.95001000  0.73602400  1
  Be  Be6  1  0.75007200  0.36002700  0.36374800  1
  Be  Be7  1  0.47883000  0.44035800  0.84541600  1
  Be  Be8  1  0.08525900  0.79095300  0.64177400  1
  Be  Be9  1  0.21056100  0.98180900  0.15452000  1
  Be  Be10  1  0.30114300  0.21106600  0.40459000  1
  Be  Be11  1  0.98499300  0.07184700  0.02340200  1
  Be  Be12  1  0.01606700  0.30107800  0.44189300  1
  Be  Be13  1  0.73710000  0.22783100  0.55797900  1
  Be  Be14  1  0.54925400  0.65472300  0.62079800  1
  Be  Be15  1  0.82285100  0.85796200  0.94696800  1
  Be  Be16  1  0.42633200  0.60062600  0.30341300  1
  Be  Be17  1  0.72650700  0.46167600  0.08455000  1
  Be  Be18  1  0.87801700  0.82193900  0.41343000  1
  Be  Be19  1  0.49282200  0.35204500  0.56373600  1
  Be  Be20  1  0.64601600  0.23154800  0.78273500  1
  Be  Be21  1  0.19300400  0.49576600  0.24478300  1
  Be  Be22  1  0.90861200  0.69089900  0.14495200  1
  Be  Be23  1  0.10997700  0.19327800  0.68803500  1
  Be  Be24  1  0.32969400  0.60292500  0.83854300  1
  Be  Be25  1  0.64961000  0.60803700  0.83638400  1
  Be  Be26  1  0.46997400  0.51561800  0.07870800  1
  Be  Be27  1  0.61170100  0.95314000  0.73125900  1
  Be  Be28  1  0.94491900  0.66423400  0.84629500  1
  Be  Be29  1  0.50274700  0.07636300  0.52385600  1
  Be  Be30  1  0.80698500  0.48816600  0.61278000  1
  Be  Be31  1  0.13505900  0.75955400  0.96960400  1
  Be  Be32  1  0.51935800  0.31247400  0.27143600  1
  Be  Be33  1  0.13203300  0.79313400  0.27239300  1
  Be  Be34  1  0.29797900  0.94043200  0.48274500  1
  Be  Be35  1  0.08058300  0.46766400  0.71566400  1
  Be  Be36  1  0.67619400  0.70310700  0.19713500  1
  Be  Be37  1  0.20980200  0.42866800  0.53582200  1
  Be  Be38  1  0.48270200  0.02394500  0.25321300  1
  Be  Be39  1  0.35503600  0.20193700  0.71268300  1
  Be  Be40  1  0.30184500  0.67561700  0.56334500  1
  Be  Be41  1  0.62392300  0.04875600  0.01574000  1
  Be  Be42  1  0.35608800  0.74547500  0.13126300  1
  Be  Be43  1  0.57015800  0.82183900  0.45647800  1
  Be  Be44  1  0.77191800  0.74371200  0.66408600  1
  Be  Be45  1  0.41531800  0.87702800  0.96274500  1
  Be  Be46  1  0.01832800  0.45829400  0.02164600  1
  Be  Be47  1  0.75580900  0.91549100  0.24171500  1
  Be  Be48  1  0.97249100  0.56345400  0.38596000  1
  Be  Be49  1  0.77776400  0.25719700  0.06664300  1
  O  O0  1  0.06709200  0.39314700  0.86777300  1
  O  O1  1  0.60544500  0.49345100  0.96153500  1
  O  O2  1  0.55400800  0.93805500  0.89319800  1
  O  O3  1  0.07694900  0.32921900  0.60641000  1
  O  O4  1  0.91645000  0.80867000  0.58870600  1
  O  O5  1  0.84119700  0.48420200  0.44461000  1
  O  O6  1  0.84676300  0.23048200  0.41844100  1
  O  O7  1  0.14223800  0.10575200  0.08150400  1
  O  O8  1  0.65483900  0.03099800  0.19448800  1
  O  O9  1  0.62773600  0.82422800  0.63119000  1
  O  O10  1  0.77431800  0.58986500  0.17573400  1
  O  O11  1  0.13152900  0.38318500  0.12818500  1
  O  O12  1  0.22844400  0.55791400  0.66726100  1
  O  O13  1  0.68215600  0.33154800  0.19768100  1
  O  O14  1  0.44926800  0.66435100  0.47482300  1
  O  O15  1  0.25989500  0.65509200  0.24585900  1
  O  O16  1  0.78679700  0.72709700  0.84676000  1
  O  O17  1  0.34849900  0.10099000  0.57054900  1
  O  O18  1  0.63156400  0.09660500  0.64578100  1
  O  O19  1  0.04983700  0.05239100  0.61918500  1
  O  O20  1  0.47522500  0.94395700  0.42059900  1
  O  O21  1  0.18361700  0.94821900  0.35046000  1
  O  O22  1  0.68910900  0.58394900  0.64477400  1
  O  O23  1  0.80272200  0.82670200  0.10872000  1
  O  O24  1  0.42010500  0.17056600  0.28843500  1
  O  O25  1  0.12039600  0.19816800  0.36217800  1
  O  O26  1  0.34221500  0.46328200  0.94088200  1
  O  O27  1  0.10618000  0.47425400  0.39245100  1
  O  O28  1  0.06409100  0.79868500  0.81028300  1
  O  O29  1  0.11686100  0.84589800  0.10908900  1
  O  O30  1  0.89886300  0.98122100  0.34854100  1
  O  O31  1  0.90416700  0.99050500  0.88524400  1
  O  O32  1  0.61019800  0.30881700  0.46654500  1
  O  O33  1  0.78080900  0.32100600  0.70439400  1
  O  O34  1  0.38279900  0.92727100  0.12650000  1
  O  O35  1  0.23585600  0.80890000  0.57372600  1
  O  O36  1  0.48307200  0.61185500  0.77245800  1
  O  O37  1  0.66819600  0.18325200  0.94479400  1
  O  O38  1  0.49671900  0.31063500  0.73841700  1
  O  O39  1  0.34111900  0.35443800  0.50015700  1
  O  O40  1  0.50625800  0.67869400  0.15408600  1
  O  O41  1  0.90577000  0.17062800  0.13368200  1
  O  O42  1  0.70098600  0.79376900  0.35499100  1
  O  O43  1  0.43882200  0.44874600  0.23735900  1
  O  O44  1  0.23220500  0.21694300  0.81114400  1
  O  O45  1  0.30795600  0.73798000  0.94423500  1
  O  O46  1  0.01011500  0.62565800  0.01092900  1
  O  O47  1  0.93768800  0.54092600  0.72761300  1
  O  O48  1  0.85155800  0.39661700  0.99698400  1
  O  O49  1  0.98415200  0.71486500  0.32464600  1
loop_
_geom_bond_atom_site_label_1
_geom_bond_atom_site_label_2
_geom_bond_distance
_geom_bond_site_symmetry_2
Be0 O30 1.672790 1_445
Be0 O21 1.692261 1_545
Be0 O25 1.700382 1_555
Be0 O19 1.774524 1_555
Be1 O0 1.578585 1_555
Be1 O26 1.635536 1_555
Be1 O44 1.638153 1_555
Be1 O11 2.008087 1_556
Be2 O6 1.592206 1_555
Be2 O41 1.599152 1_555
Be2 O30 1.622965 1_545
Be2 O8 2.003130 1_555
Be3 O48 1.583745 1_555
Be3 O33 1.587506 1_555
Be3 O0 1.680498 1_655
Be3 O47 1.762739 1_555
Be4 O7 1.583881 1_555
Be4 O11 1.649107 1_555
Be4 O25 1.666183 1_555
Be4 O41 1.810014 1_455
Be5 O19 1.577767 1_665
Be5 O31 1.600586 1_555
Be5 O28 1.882311 1_655
Be5 O4 1.937727 1_555
Be6 O5 1.570510 1_555
Be6 O13 1.612850 1_555
Be6 O32 1.670257 1_555
Be6 O6 1.712627 1_555
Be7 O1 1.598157 1_555
Be7 O26 1.600644 1_555
Be7 O38 1.611182 1_555
Be7 O36 1.817594 1_555
Be8 O28 1.534371 1_555
Be8 O35 1.554884 1_555
Be8 O4 1.672146 1_455
Be9 O29 1.563059 1_555
Be9 O7 1.580419 1_565
Be9 O34 1.784201 1_555
Be9 O21 1.816676 1_555
Be10 O24 1.628877 1_555
Be10 O39 1.642023 1_555
Be10 O25 1.722634 1_555
Be10 O17 1.925928 1_555
Be11 O7 1.554271 1_655
Be11 O31 1.593433 1_544
Be11 O41 1.627414 1_555
Be12 O3 1.577675 1_555
Be12 O25 1.652729 1_555
Be12 O6 1.675158 1_455
Be12 O27 1.887807 1_555
Be13 O33 1.608075 1_555
Be13 O6 1.646795 1_555
Be13 O32 1.702495 1_555
Be13 O18 1.757117 1_555
Be14 O36 1.561299 1_555
Be14 O22 1.563669 1_555
Be14 O14 1.600120 1_555
Be14 O9 1.751222 1_555
Be15 O23 1.503662 1_556
Be15 O16 1.560014 1_555
Be15 O31 1.560044 1_555
Be16 O43 1.615977 1_555
Be16 O14 1.651899 1_555
Be16 O40 1.711633 1_555
Be16 O15 1.773335 1_555
Be17 O10 1.512354 1_555
Be17 O48 1.616488 1_554
Be17 O1 1.620450 1_554
Be17 O13 1.674346 1_555
Be18 O4 1.614974 1_555
Be18 O30 1.675642 1_555
Be18 O42 1.723843 1_555
Be18 O49 1.728391 1_555
Be19 O32 1.519760 1_555
Be19 O39 1.523877 1_555
Be19 O38 1.627942 1_555
Be20 O37 1.553606 1_555
Be20 O33 1.649001 1_555
Be20 O38 1.716184 1_555
Be20 O18 1.786580 1_555
Be21 O11 1.564340 1_555
Be21 O27 1.584768 1_555
Be21 O15 1.626393 1_555
Be22 O10 1.558049 1_555
Be22 O46 1.717133 1_655
Be22 O49 1.745582 1_555
Be22 O23 1.777916 1_555
Be23 O19 1.552019 1_555
Be23 O44 1.567284 1_555
Be23 O3 1.590730 1_555
Be24 O36 1.572089 1_555
Be24 O45 1.654262 1_555
Be24 O26 1.678425 1_555
Be24 O12 1.807896 1_555
Be25 O1 1.637124 1_555
Be25 O16 1.648490 1_555
Be25 O36 1.656852 1_555
Be25 O22 1.789090 1_555
Be26 O43 1.601913 1_555
Be26 O1 1.707226 1_554
Be26 O40 1.727373 1_555
Be26 O26 1.731851 1_554
Be27 O9 1.565433 1_555
Be27 O2 1.572102 1_555
Be27 O18 1.614623 1_565
Be28 O47 1.596291 1_555
Be28 O46 1.649033 1_656
Be28 O16 1.670929 1_555
Be28 O28 1.684098 1_655
Be29 O17 1.565385 1_555
Be29 O20 1.580611 1_545
Be29 O18 1.602618 1_555
Be30 O5 1.554846 1_555
Be30 O22 1.559890 1_555
Be30 O47 1.617163 1_555
Be30 O33 1.848245 1_555
Be31 O29 1.526198 1_556
Be31 O28 1.629733 1_555
Be31 O45 1.684902 1_555
Be31 O46 1.724087 1_556
Be32 O24 1.608177 1_555
Be32 O43 1.637287 1_555
Be32 O13 1.681521 1_555
Be32 O32 1.928592 1_555
Be33 O29 1.571556 1_555
Be33 O49 1.605090 1_455
Be33 O21 1.686122 1_555
Be33 O15 1.924173 1_555
Be34 O21 1.586684 1_555
Be34 O35 1.609358 1_555
Be34 O17 1.766569 1_565
Be34 O20 1.772339 1_555
Be35 O0 1.563687 1_555
Be35 O47 1.597183 1_455
Be35 O12 1.644157 1_555
Be35 O3 1.662395 1_555
Be36 O10 1.533895 1_555
Be36 O40 1.625560 1_555
Be36 O42 1.659506 1_555
Be36 O23 1.820047 1_555
Be37 O39 1.539772 1_555
Be37 O3 1.653517 1_555
Be37 O27 1.686679 1_555
Be37 O12 1.712296 1_555
Be38 O24 1.644630 1_555
Be38 O34 1.671225 1_545
Be38 O20 1.708644 1_545
Be38 O8 1.713960 1_555
Be39 O44 1.495003 1_555
Be39 O17 1.600057 1_555
Be39 O38 1.626897 1_555
Be40 O35 1.512048 1_555
Be40 O12 1.611504 1_555
Be40 O14 1.633116 1_555
Be41 O37 1.503179 1_554
Be41 O2 1.610830 1_544
Be41 O8 1.638358 1_555
Be42 O15 1.608773 1_555
Be42 O40 1.629151 1_555
Be42 O45 1.724670 1_554
Be42 O34 1.781497 1_555
Be43 O42 1.598725 1_555
Be43 O20 1.602601 1_555
Be43 O9 1.643281 1_555
Be43 O14 1.835996 1_555
Be44 O4 1.613941 1_555
Be44 O16 1.654745 1_555
Be44 O9 1.663317 1_555
Be44 O22 1.683078 1_555
Be45 O2 1.533540 1_555
Be45 O34 1.592776 1_556
Be45 O45 1.615758 1_555
Be46 O0 1.613518 1_554
Be46 O48 1.628942 1_454
Be46 O11 1.650512 1_555
Be46 O46 1.661188 1_555
Be47 O23 1.569859 1_555
Be47 O8 1.610735 1_565
Be47 O42 1.636722 1_555
Be47 O30 1.693213 1_555
Be48 O5 1.504264 1_555
Be48 O49 1.591257 1_555
Be48 O27 1.608565 1_655
Be49 O37 1.592377 1_554
Be49 O48 1.615666 1_554
Be49 O41 1.651929 1_555
Be49 O13 1.704668 1_555
