# generated using pymatgen
data_ErZnRh
_symmetry_space_group_name_H-M   'P 1'
_cell_length_a   3.95441928
_cell_length_b   6.86065185
_cell_length_c   8.03667606
_cell_angle_alpha   90.00000000
_cell_angle_beta   90.00000000
_cell_angle_gamma   90.00000000
_symmetry_Int_Tables_number   1
_chemical_formula_structural   ErZnRh
_chemical_formula_sum   'Er4 Zn4 Rh4'
_cell_volume   218.03416921
_cell_formula_units_Z   4
loop_
 _symmetry_equiv_pos_site_id
 _symmetry_equiv_pos_as_xyz
  1  'x, y, z'
loop_
 _atom_site_type_symbol
 _atom_site_label
 _atom_site_symmetry_multiplicity
 _atom_site_fract_x
 _atom_site_fract_y
 _atom_site_fract_z
 _atom_site_occupancy
  Er  Er0  1  0.25000000  0.54164643  0.18331233  1
  Er  Er1  1  0.75000000  0.45835035  0.81668448  1
  Er  Er2  1  0.75000000  0.95835035  0.68331552  1
  Er  Er3  1  0.25000000  0.04164643  0.31668767  1
  Zn  Zn0  1  0.25000000  0.63448522  0.56312616  1
  Zn  Zn1  1  0.75000000  0.36551921  0.43686545  1
  Zn  Zn2  1  0.75000000  0.86551921  0.06313455  1
  Zn  Zn3  1  0.25000000  0.13448522  0.93687384  1
  Rh  Rh0  1  0.25000000  0.75253277  0.87561242  1
  Rh  Rh1  1  0.75000000  0.24746502  0.12438672  1
  Rh  Rh2  1  0.75000000  0.74746502  0.37561328  1
  Rh  Rh3  1  0.25000000  0.25253277  0.62438758  1
loop_
_geom_bond_atom_site_label_1
_geom_bond_atom_site_label_2
_geom_bond_distance
_geom_bond_site_symmetry_2
Er0 Rh1 2.864797 1_455
Er0 Rh1 2.864797 1_555
Er0 Rh0 2.865037 1_554
Er0 Rh2 2.879530 1_455
Er0 Rh2 2.879530 1_555
Er1 Rh0 2.864805 1_655
Er1 Rh0 2.864805 1_555
Er1 Rh1 2.865050 1_556
Er1 Rh3 2.879509 1_655
Er1 Rh3 2.879509 1_555
Er2 Rh3 2.864805 1_565
Er2 Rh3 2.864805 1_665
Er2 Rh2 2.865050 1_555
Er2 Rh0 2.879509 1_555
Er2 Rh0 2.879509 1_655
Er3 Rh2 2.864797 1_445
Er3 Rh2 2.864797 1_545
Er3 Rh3 2.865037 1_555
Er3 Rh1 2.879530 1_555
Er3 Rh1 2.879530 1_455
Rh0 Zn2 2.604121 1_556
Rh0 Zn2 2.604121 1_456
Rh0 Zn0 2.638711 1_555
Rh0 Zn3 2.666293 1_565
Rh1 Zn3 2.604064 1_554
Rh1 Zn3 2.604064 1_654
Rh1 Zn1 2.638667 1_555
Rh1 Zn2 2.666234 1_545
Rh2 Zn0 2.604064 1_655
Rh2 Zn0 2.604064 1_555
Rh2 Zn2 2.638667 1_555
Rh2 Zn1 2.666234 1_555
Rh3 Zn1 2.604121 1_555
Rh3 Zn1 2.604121 1_455
Rh3 Zn3 2.638711 1_555
Rh3 Zn0 2.666293 1_555
