# generated using pymatgen
data_Mn2SeN2
_symmetry_space_group_name_H-M   'P 1'
_cell_length_a   3.18592413
_cell_length_b   3.17041977
_cell_length_c   6.40243025
_cell_angle_alpha   89.99999892
_cell_angle_beta   90.32397827
_cell_angle_gamma   119.83915379
_symmetry_Int_Tables_number   1
_chemical_formula_structural   Mn2SeN2
_chemical_formula_sum   'Mn2 Se1 N2'
_cell_volume   56.09447392
_cell_formula_units_Z   1
loop_
 _symmetry_equiv_pos_site_id
 _symmetry_equiv_pos_as_xyz
  1  'x, y, z'
loop_
 _atom_site_type_symbol
 _atom_site_label
 _atom_site_symmetry_multiplicity
 _atom_site_fract_x
 _atom_site_fract_y
 _atom_site_fract_z
 _atom_site_occupancy
  Mn  Mn0  1  0.66326200  0.33163100  0.68058300  1
  Mn  Mn1  1  0.33673800  0.66836900  0.31941700  1
  Se  Se0  1  0.00000000  0.00000000  0.00000000  1
  N  N0  1  0.67154100  0.33577000  0.36806800  1
  N  N1  1  0.32845900  0.66423000  0.63193200  1
loop_
_geom_bond_atom_site_label_1
_geom_bond_atom_site_label_2
_geom_bond_distance
_geom_bond_site_symmetry_2
Mn0 N1 1.860707 1_545
Mn0 N1 1.860710 1_555
Mn0 N1 1.866510 1_655
Mn0 N0 2.001135 1_555
Mn0 Se0 2.745231 1_666
Mn0 Se0 2.745231 1_656
Mn0 Se0 2.755144 1_556
Mn1 N0 1.860707 1_565
Mn1 N0 1.860710 1_555
Mn1 N0 1.866510 1_455
Mn1 N1 2.001135 1_555
Mn1 Se0 2.745231 1_555
Mn1 Se0 2.745231 1_565
Mn1 Se0 2.755144 1_665
