# generated using pymatgen
data_PrNdCo10
_symmetry_space_group_name_H-M   'P 1'
_cell_length_a   3.98259700
_cell_length_b   5.02319793
_cell_length_c   8.71486433
_cell_angle_alpha   89.99999830
_cell_angle_beta   90.00000000
_cell_angle_gamma   90.00000000
_symmetry_Int_Tables_number   1
_chemical_formula_structural   PrNdCo10
_chemical_formula_sum   'Pr1 Nd1 Co10'
_cell_volume   174.34411184
_cell_formula_units_Z   1
loop_
 _symmetry_equiv_pos_site_id
 _symmetry_equiv_pos_as_xyz
  1  'x, y, z'
loop_
 _atom_site_type_symbol
 _atom_site_label
 _atom_site_symmetry_multiplicity
 _atom_site_fract_x
 _atom_site_fract_y
 _atom_site_fract_z
 _atom_site_occupancy
  Pr  Pr0  1  0.00000000  0.49997200  0.50000000  1
  Nd  Nd0  1  0.00000000  0.99998800  0.00000000  1
  Co  Co0  1  0.00000000  0.99997400  0.33283200  1
  Co  Co1  1  0.00000000  0.49994200  0.83365700  1
  Co  Co2  1  0.00000000  0.49994200  0.16634300  1
  Co  Co3  1  0.00000000  0.99997400  0.66716800  1
  Co  Co4  1  0.50000000  0.99999000  0.50000000  1
  Co  Co5  1  0.50000000  0.50002000  0.00000000  1
  Co  Co6  1  0.50000000  0.24953700  0.24956000  1
  Co  Co7  1  0.50000000  0.75046300  0.75044500  1
  Co  Co8  1  0.50000000  0.75046300  0.24955500  1
  Co  Co9  1  0.50000000  0.24953700  0.75044000  1
loop_
_geom_bond_atom_site_label_1
_geom_bond_atom_site_label_2
_geom_bond_distance
_geom_bond_site_symmetry_2
Co0 Co8 2.462285 1_455
Co0 Co8 2.462285 1_555
Co0 Co6 2.462405 1_465
Co0 Co6 2.462405 1_565
Co0 Co4 2.467321 1_555
Co0 Co4 2.467321 1_455
Co0 Co2 2.900434 1_565
Co0 Nd0 2.900586 1_555
Co0 Co2 2.900712 1_555
Co0 Pr0 2.903529 1_565
Co0 Pr0 2.903546 1_555
Co0 Co3 2.913693 1_555
Co1 Co5 2.463082 1_456
Co1 Co5 2.463082 1_556
Co1 Co9 2.464420 1_455
Co1 Co9 2.464420 1_555
Co1 Co7 2.464705 1_455
Co1 Co7 2.464705 1_555
Co1 Co2 2.899313 1_556
Co1 Nd0 2.899737 1_546
Co1 Nd0 2.900137 1_556
Co1 Co3 2.900434 1_545
Co1 Co3 2.900712 1_555
Co1 Pr0 2.907775 1_555
Co2 Co5 2.463082 1_455
Co2 Co5 2.463082 1_555
Co2 Co6 2.464420 1_555
Co2 Co6 2.464420 1_455
Co2 Co8 2.464705 1_455
Co2 Co8 2.464705 1_555
Co2 Nd0 2.899737 1_545
Co2 Nd0 2.900137 1_555
Co2 Pr0 2.907775 1_555
Co3 Co7 2.462285 1_455
Co3 Co7 2.462285 1_555
Co3 Co9 2.462405 1_465
Co3 Co9 2.462405 1_565
Co3 Co4 2.467321 1_455
Co3 Co4 2.467321 1_555
Co3 Nd0 2.900586 1_556
Co3 Pr0 2.903529 1_565
Co3 Pr0 2.903546 1_555
Co4 Co7 2.516900 1_555
Co4 Co8 2.516900 1_555
Co4 Co6 2.516913 1_565
Co4 Co9 2.516913 1_565
Co4 Pr0 3.205144 1_565
Co4 Pr0 3.205144 1_665
Co4 Pr0 3.205285 1_555
Co4 Pr0 3.205285 1_655
Co5 Co7 2.512478 1_554
Co5 Co8 2.512478 1_555
Co5 Co6 2.512616 1_555
Co5 Co9 2.512617 1_554
Co5 Nd0 3.205088 1_655
Co5 Nd0 3.205088 1_555
Co5 Nd0 3.205340 1_645
Co5 Nd0 3.205340 1_545
Co6 Co8 2.506947 1_545
Co6 Co8 2.516250 1_555
Co6 Nd0 3.204173 1_645
Co6 Nd0 3.204173 1_545
Co6 Pr0 3.211125 1_555
Co6 Pr0 3.211125 1_655
Co7 Co9 2.506947 1_565
Co7 Co9 2.516250 1_555
Co7 Nd0 3.204097 1_556
Co7 Nd0 3.204097 1_656
Co7 Pr0 3.211265 1_555
Co7 Pr0 3.211265 1_655
Co8 Nd0 3.204097 1_655
Co8 Nd0 3.204097 1_555
Co8 Pr0 3.211265 1_555
Co8 Pr0 3.211265 1_655
Co9 Nd0 3.204173 1_646
Co9 Nd0 3.204173 1_546
Co9 Pr0 3.211125 1_555
Co9 Pr0 3.211125 1_655
