# generated using pymatgen
data_Nd3Ni2Sn7
_symmetry_space_group_name_H-M   'P 1'
_cell_length_a   13.93778962
_cell_length_b   13.93778962
_cell_length_c   4.61735900
_cell_angle_alpha   90.00000000
_cell_angle_beta   90.00000000
_cell_angle_gamma   160.63943895
_symmetry_Int_Tables_number   1
_chemical_formula_structural   Nd3Ni2Sn7
_chemical_formula_sum   'Nd3 Ni2 Sn7'
_cell_volume   297.35855512
_cell_formula_units_Z   1
loop_
 _symmetry_equiv_pos_site_id
 _symmetry_equiv_pos_as_xyz
  1  'x, y, z'
loop_
 _atom_site_type_symbol
 _atom_site_label
 _atom_site_symmetry_multiplicity
 _atom_site_fract_x
 _atom_site_fract_y
 _atom_site_fract_z
 _atom_site_occupancy
  Nd  Nd0  1  0.50000000  0.50000000  0.50000000  1
  Nd  Nd1  1  0.18505300  0.81494700  0.00000000  1
  Nd  Nd2  1  0.81494700  0.18505300  0.00000000  1
  Ni  Ni0  1  0.37150000  0.62850000  0.50000000  1
  Ni  Ni1  1  0.62850000  0.37150000  0.50000000  1
  Sn  Sn0  1  0.00000000  0.00000000  0.00000000  1
  Sn  Sn1  1  0.41059400  0.58940600  0.00000000  1
  Sn  Sn2  1  0.58940600  0.41059400  0.00000000  1
  Sn  Sn3  1  0.08966700  0.91033300  0.50000000  1
  Sn  Sn4  1  0.91033300  0.08966700  0.50000000  1
  Sn  Sn5  1  0.28071400  0.71928600  0.50000000  1
  Sn  Sn6  1  0.71928600  0.28071400  0.50000000  1
loop_
_geom_bond_atom_site_label_1
_geom_bond_atom_site_label_2
_geom_bond_distance
_geom_bond_site_symmetry_2
Nd0 Sn0 3.289780 1_665
Nd0 Sn0 3.289780 1_555
Nd0 Sn0 3.289780 1_666
Nd0 Sn0 3.289780 1_556
Nd0 Sn1 3.371300 1_555
Nd0 Sn1 3.371300 1_556
Nd0 Sn2 3.371300 1_555
Nd0 Sn2 3.371300 1_556
Nd0 Sn3 3.400530 1_655
Nd0 Sn4 3.400530 1_565
Nd0 Sn3 3.400530 1_545
Nd0 Sn4 3.400530 1_455
Nd0 Ni1 3.531009 1_555
Nd0 Ni0 3.531009 1_555
Nd1 Sn6 3.421627 1_564
Nd1 Sn6 3.421627 1_565
Nd1 Sn6 3.421627 1_454
Nd1 Sn6 3.421627 1_455
Nd1 Sn3 3.492859 1_554
Nd1 Sn3 3.492859 1_555
Nd1 Sn5 3.498533 1_554
Nd1 Sn5 3.498533 1_555
Nd1 Sn2 3.521415 1_455
Nd1 Sn2 3.521415 1_565
Nd1 Ni1 3.638348 1_565
Nd1 Ni1 3.638348 1_564
Nd1 Ni1 3.638348 1_455
Nd1 Ni1 3.638348 1_454
Nd2 Sn5 3.421627 1_654
Nd2 Sn5 3.421627 1_655
Nd2 Sn5 3.421627 1_545
Nd2 Sn5 3.421627 1_544
Nd2 Sn4 3.492859 1_554
Nd2 Sn4 3.492859 1_555
Nd2 Sn6 3.498533 1_555
Nd2 Sn6 3.498533 1_554
Nd2 Sn1 3.521415 1_545
Nd2 Sn1 3.521415 1_655
Nd2 Ni0 3.638348 1_655
Nd2 Ni0 3.638348 1_654
Nd2 Ni0 3.638348 1_544
Nd2 Ni0 3.638348 1_545
Ni0 Sn5 2.494679 1_555
Ni0 Sn1 2.546373 1_555
Ni0 Sn1 2.546373 1_556
Ni0 Sn4 2.575133 1_565
Ni0 Sn4 2.575133 1_455
Ni1 Sn6 2.494679 1_555
Ni1 Sn2 2.546373 1_555
Ni1 Sn2 2.546373 1_556
Ni1 Sn3 2.575133 1_545
Ni1 Sn3 2.575133 1_655
Sn5 Sn6 2.888228 1_455
Sn5 Sn6 2.888228 1_565
