# generated using pymatgen
data_CeAl4Ge2Au
_symmetry_space_group_name_H-M   'P 1'
_cell_length_a   10.77492221
_cell_length_b   10.77492221
_cell_length_c   10.77492230
_cell_angle_alpha   22.82681555
_cell_angle_beta   22.82681555
_cell_angle_gamma   22.82681446
_symmetry_Int_Tables_number   1
_chemical_formula_structural   CeAl4Ge2Au
_chemical_formula_sum   'Ce1 Al4 Ge2 Au1'
_cell_volume   165.20452320
_cell_formula_units_Z   1
loop_
 _symmetry_equiv_pos_site_id
 _symmetry_equiv_pos_as_xyz
  1  'x, y, z'
loop_
 _atom_site_type_symbol
 _atom_site_label
 _atom_site_symmetry_multiplicity
 _atom_site_fract_x
 _atom_site_fract_y
 _atom_site_fract_z
 _atom_site_occupancy
  Ce  Ce0  1  0.50000000  0.50000000  0.50000000  1
  Al  Al0  1  0.91654600  0.91654600  0.91654600  1
  Al  Al1  1  0.69236600  0.69236600  0.69236600  1
  Al  Al2  1  0.08345400  0.08345400  0.08345400  1
  Al  Al3  1  0.30763400  0.30763400  0.30763400  1
  Ge  Ge0  1  0.77632800  0.77632800  0.77632800  1
  Ge  Ge1  1  0.22367200  0.22367200  0.22367100  1
  Au  Au0  1  0.00000000  0.00000000  0.00000000  1
loop_
_geom_bond_atom_site_label_1
_geom_bond_atom_site_label_2
_geom_bond_distance
_geom_bond_site_symmetry_2
Ce0 Ge1 3.046298 1_556
Ce0 Ge1 3.046301 1_655
Ce0 Ge1 3.046301 1_565
Ce0 Ge0 3.046306 1_545
Ce0 Ge0 3.046306 1_455
Ce0 Ge0 3.046306 1_554
Al0 Ge1 2.596532 1_656
Al0 Ge1 2.596532 1_566
Al0 Ge1 2.596536 1_665
Al0 Au0 2.626262 1_666
Al1 Au0 2.591497 1_566
Al1 Au0 2.591497 1_656
Al1 Au0 2.591497 1_665
Al1 Ge0 2.642249 1_555
Al2 Ge0 2.596530 1_454
Al2 Ge0 2.596530 1_544
Al2 Ge0 2.596530 1_445
Al2 Au0 2.626262 1_555
Al3 Au0 2.591497 1_655
Al3 Au0 2.591497 1_565
Al3 Au0 2.591497 1_556
Al3 Ge1 2.642259 1_555
