# generated using pymatgen
data_MgBi8(PO4)8
_symmetry_space_group_name_H-M   'P 1'
_cell_length_a   5.54853763
_cell_length_b   9.94597584
_cell_length_c   16.90155083
_cell_angle_alpha   91.36986385
_cell_angle_beta   83.50639454
_cell_angle_gamma   71.37874892
_symmetry_Int_Tables_number   1
_chemical_formula_structural   MgBi8(PO4)8
_chemical_formula_sum   'Mg1 Bi8 P8 O32'
_cell_volume   876.43798397
_cell_formula_units_Z   1
loop_
 _symmetry_equiv_pos_site_id
 _symmetry_equiv_pos_as_xyz
  1  'x, y, z'
loop_
 _atom_site_type_symbol
 _atom_site_label
 _atom_site_symmetry_multiplicity
 _atom_site_fract_x
 _atom_site_fract_y
 _atom_site_fract_z
 _atom_site_occupancy
  Mg  Mg0  1  0.07033396  0.55620510  0.66692571  1
  Bi  Bi0  1  0.20208782  0.20620812  0.00572990  1
  Bi  Bi1  1  0.33923000  0.34075086  0.48719588  1
  Bi  Bi2  1  0.80792591  0.83478252  0.00421056  1
  Bi  Bi3  1  0.44740836  0.51787116  0.99628782  1
  Bi  Bi4  1  0.74729858  0.70904637  0.54544056  1
  Bi  Bi5  1  0.57170993  0.74753426  0.27330532  1
  Bi  Bi6  1  0.42579840  0.22988385  0.75213716  1
  Bi  Bi7  1  0.07559127  0.98833302  0.48728378  1
  P  P0  1  0.99456691  0.50049979  0.86828627  1
  P  P1  1  0.71804018  0.35612606  0.60475476  1
  P  P2  1  0.94037292  0.51445267  0.11456154  1
  P  P3  1  0.28825619  0.87536258  0.09971021  1
  P  P4  1  0.57246618  0.01679584  0.36523818  1
  P  P5  1  0.47641799  0.00915598  0.62304359  1
  P  P6  1  0.22709906  0.61946871  0.41115167  1
  P  P7  1  0.73240532  0.14141401  0.91187442  1
  O  O0  1  0.79974144  0.44682280  0.05682553  1
  O  O1  1  0.55751329  0.04408463  0.92330475  1
  O  O2  1  0.74013309  0.94589748  0.56730239  1
  O  O3  1  0.75872704  0.26476463  0.52456257  1
  O  O4  1  0.21873732  0.40662750  0.09998035  1
  O  O5  1  0.74788969  0.26391829  0.67782053  1
  O  O6  1  0.58465600  0.26732255  0.97645565  1
  O  O7  1  0.00660664  0.93760145  0.08600297  1
  O  O8  1  0.11761290  0.75251944  0.47486976  1
  O  O9  1  0.43753317  0.46395592  0.61264211  1
  O  O10  1  0.95908333  0.66123646  0.08683586  1
  O  O11  1  0.58868085  0.98204064  0.27521748  1
  O  O12  1  0.43084989  0.98765480  0.08376574  1
  O  O13  1  0.92258437  0.43208549  0.60089501  1
  O  O14  1  0.06730484  0.61581318  0.91496141  1
  O  O15  1  0.15107596  0.34844334  0.89491580  1
  O  O16  1  0.08350133  0.49793029  0.77748698  1
  O  O17  1  0.44420640  0.75368254  0.03214710  1
  O  O18  1  0.34168336  0.16581551  0.60648686  1
  O  O19  1  0.52958592  0.00444310  0.71197153  1
  O  O20  1  0.02987135  0.53822468  0.42765568  1
  O  O21  1  0.32508423  0.90815911  0.60456269  1
  O  O22  1  0.00296028  0.06873759  0.93331750  1
  O  O23  1  0.31213991  0.81639138  0.18255861  1
  O  O24  1  0.48610181  0.51468074  0.42978136  1
  O  O25  1  0.36117834  0.15952246  0.39839836  1
  O  O26  1  0.80822373  0.53412315  0.20000063  1
  O  O27  1  0.83501966  0.01523111  0.38817750  1
  O  O28  1  0.70294848  0.52717948  0.88365439  1
  O  O29  1  0.74152635  0.19076079  0.82657410  1
  O  O30  1  0.24370263  0.67522537  0.32699051  1
  O  O31  1  0.47890943  0.89521321  0.40566998  1
loop_
_geom_bond_atom_site_label_1
_geom_bond_atom_site_label_2
_geom_bond_distance
_geom_bond_site_symmetry_2
Mg0 O16 1.971997 1_555
Mg0 O9 2.043967 1_555
Mg0 O13 2.056429 1_455
Bi0 O15 2.362233 1_554
Bi0 O1 2.381258 1_554
Bi0 O6 2.391846 1_554
Bi0 O22 2.403883 1_554
Bi0 O4 2.553172 1_555
Bi0 O12 2.613327 1_545
Bi0 O0 2.740432 1_455
Bi1 O25 2.281533 1_555
Bi1 O24 2.323793 1_555
Bi1 O3 2.370579 1_555
Bi1 O20 2.479677 1_555
Bi1 O9 2.618909 1_555
Bi1 O18 2.692829 1_555
Bi1 O13 2.726350 1_455
Bi2 O10 2.255803 1_555
Bi2 O7 2.273580 1_655
Bi2 O12 2.394067 1_555
Bi2 O17 2.405953 1_555
Bi2 O14 2.537712 1_654
Bi2 O1 2.617749 1_564
Bi3 O0 2.229975 1_556
Bi3 O28 2.263775 1_555
Bi3 O6 2.364851 1_555
Bi3 O17 2.402377 1_556
Bi3 O4 2.528194 1_556
Bi3 O14 2.587267 1_555
Bi4 O2 2.362785 1_555
Bi4 O8 2.422627 1_655
Bi4 O20 2.595958 1_655
Bi4 O21 2.611819 1_555
Bi4 O13 2.833927 1_555
Bi4 Mg0 2.996845 1_655
Bi5 O23 2.194464 1_555
Bi5 O30 2.268558 1_555
Bi5 O26 2.343112 1_555
Bi5 O11 2.363751 1_555
Bi5 O31 2.554761 1_555
Bi6 O5 2.187482 1_555
Bi6 O19 2.198694 1_555
Bi6 O29 2.211270 1_555
Bi6 O18 2.656824 1_555
Bi6 O15 2.724242 1_555
Bi6 O16 2.725058 1_555
Bi7 O27 2.226703 1_465
Bi7 O8 2.283735 1_555
Bi7 O2 2.330512 1_455
Bi7 O31 2.384429 1_555
Bi7 O21 2.544125 1_555
Bi7 O3 2.761663 1_465
O0 P2 1.577844 1_555
O1 P7 1.575604 1_555
O2 P5 1.580003 1_565
O3 P1 1.566715 1_555
O4 P2 1.561996 1_455
O5 P1 1.548207 1_555
O6 P7 1.583770 1_555
O7 P3 1.532967 1_555
O8 P6 1.597029 1_555
O9 P1 1.571817 1_555
O10 P2 1.574864 1_555
O11 P4 1.538358 1_565
O12 P3 1.573672 1_555
O13 P1 1.547981 1_555
O14 P0 1.557230 1_455
O15 P0 1.589378 1_455
O16 P0 1.555019 1_455
O17 P3 1.599698 1_555
O18 P5 1.545716 1_555
O19 P5 1.563049 1_555
O20 P6 1.560369 1_555
O21 P5 1.547467 1_565
O22 P7 1.532973 1_455
O23 P3 1.534250 1_555
O24 P6 1.553100 1_555
O25 P4 1.566583 1_555
O26 P2 1.522034 1_555
O27 P4 1.544783 1_555
O28 P0 1.543836 1_555
O29 P7 1.534653 1_555
O30 P6 1.542756 1_555
O31 P4 1.599659 1_565
