# generated using pymatgen
data_CaP2(WO5)2
_symmetry_space_group_name_H-M   'P 1'
_cell_length_a   10.17744512
_cell_length_b   8.93182692
_cell_length_c   7.26197280
_cell_angle_alpha   77.11260130
_cell_angle_beta   58.81536799
_cell_angle_gamma   44.07203071
_symmetry_Int_Tables_number   1
_chemical_formula_structural   CaP2(WO5)2
_chemical_formula_sum   'Ca2 P4 W4 O20'
_cell_volume   380.30671085
_cell_formula_units_Z   2
loop_
 _symmetry_equiv_pos_site_id
 _symmetry_equiv_pos_as_xyz
  1  'x, y, z'
loop_
 _atom_site_type_symbol
 _atom_site_label
 _atom_site_symmetry_multiplicity
 _atom_site_fract_x
 _atom_site_fract_y
 _atom_site_fract_z
 _atom_site_occupancy
  Ca  Ca0  1  0.25000000  0.25000000  0.25000000  1
  Ca  Ca1  1  0.00000000  0.00000000  0.00000000  1
  P  P0  1  0.79537800  0.79537800  0.20462200  1
  P  P1  1  0.45462100  0.45462100  0.04537900  1
  P  P2  1  0.20462200  0.20462100  0.79537800  1
  P  P3  1  0.04537800  0.04537800  0.45462200  1
  W  W0  1  0.62500000  0.62500000  0.12500000  1
  W  W1  1  0.62500000  0.12500000  0.62500000  1
  W  W2  1  0.62500000  0.62500000  0.62500000  1
  W  W3  1  0.12500000  0.62500000  0.62500000  1
  O  O0  1  0.97233700  0.32101900  0.99464800  1
  O  O1  1  0.41461000  0.41461000  0.58539000  1
  O  O2  1  0.91542100  0.06166200  0.38264500  1
  O  O3  1  0.25535200  0.53800400  0.27766300  1
  O  O4  1  0.32101900  0.97233700  0.71199600  1
  O  O5  1  0.33457900  0.18833800  0.86735500  1
  O  O6  1  0.83539000  0.83539000  0.66461000  1
  O  O7  1  0.58539000  0.58539000  0.41461000  1
  O  O8  1  0.66461000  0.66461000  0.83539000  1
  O  O9  1  0.27766300  0.92898100  0.25535200  1
  O  O10  1  0.71199600  0.99464800  0.32101900  1
  O  O11  1  0.53800400  0.25535200  0.92898100  1
  O  O12  1  0.99464800  0.71199600  0.97233700  1
  O  O13  1  0.06166200  0.91542100  0.64027200  1
  O  O14  1  0.60972800  0.86735500  0.18833800  1
  O  O15  1  0.38264500  0.64027200  0.91542100  1
  O  O16  1  0.86735500  0.60972800  0.33457900  1
  O  O17  1  0.64027200  0.38264500  0.06166200  1
  O  O18  1  0.92898100  0.27766300  0.53800400  1
  O  O19  1  0.18833800  0.33457900  0.60972800  1
loop_
_geom_bond_atom_site_label_1
_geom_bond_atom_site_label_2
_geom_bond_distance
_geom_bond_site_symmetry_2
Ca0 O16 2.508017 1_455
Ca0 O14 2.508017 1_545
Ca0 O5 2.508017 1_554
Ca0 O19 2.508017 1_555
Ca0 O9 2.665288 1_545
Ca0 O3 2.665288 1_555
Ca0 O11 2.665288 1_554
Ca0 O18 2.665288 1_455
Ca1 O15 2.508017 1_544
Ca1 O2 2.508017 1_455
Ca1 O13 2.508017 1_544
Ca1 O17 2.508017 1_455
Ca1 O0 2.665288 1_454
Ca1 O10 2.665288 1_445
Ca1 O4 2.665288 1_544
Ca1 O12 2.665288 1_444
O0 P2 1.536352 1_655
O0 W0 2.157236 1_556
O1 W3 1.925070 1_555
O1 W1 1.925070 1_555
O2 P3 1.565030 1_655
O2 W1 2.192753 1_555
O3 P1 1.536344 1_555
O3 W3 2.157236 1_555
O4 P2 1.536346 1_565
O4 W2 2.157236 1_555
O5 P2 1.565035 1_555
O5 W1 2.192753 1_555
O6 W3 1.925070 1_655
O6 W1 1.925070 1_565
O7 W0 1.925070 1_555
O7 W2 1.925070 1_555
O8 W2 1.925070 1_555
O8 W0 1.925070 1_556
O9 P3 1.536354 1_565
O9 W0 2.157236 1_555
O10 P0 1.536354 1_555
O10 W1 2.157236 1_565
O11 P1 1.536344 1_556
O11 W1 2.157236 1_555
O12 P0 1.536354 1_556
O12 W3 2.157236 1_655
O13 P3 1.565030 1_565
O13 W3 2.192753 1_555
O14 P0 1.565030 1_555
O14 W0 2.192753 1_555
O15 P1 1.565040 1_556
O15 W2 2.192753 1_555
O16 P0 1.565030 1_555
O16 W2 2.192753 1_555
O17 P1 1.565040 1_555
O17 W0 2.192753 1_555
O18 P3 1.536354 1_655
O18 W2 2.157236 1_555
O19 P2 1.565034 1_555
O19 W3 2.192753 1_555
