# generated using pymatgen
data_BaSmEuWO6
_symmetry_space_group_name_H-M   'P 1'
_cell_length_a   5.91064039
_cell_length_b   5.91064039
_cell_length_c   8.72079652
_cell_angle_alpha   90.00000000
_cell_angle_beta   90.00000000
_cell_angle_gamma   90.00000000
_symmetry_Int_Tables_number   1
_chemical_formula_structural   BaSmEuWO6
_chemical_formula_sum   'Ba2 Sm2 Eu2 W2 O12'
_cell_volume   304.66686779
_cell_formula_units_Z   2
loop_
 _symmetry_equiv_pos_site_id
 _symmetry_equiv_pos_as_xyz
  1  'x, y, z'
loop_
 _atom_site_type_symbol
 _atom_site_label
 _atom_site_symmetry_multiplicity
 _atom_site_fract_x
 _atom_site_fract_y
 _atom_site_fract_z
 _atom_site_occupancy
  Ba  Ba0  1  -0.00000000  0.50000000  0.25000000  1
  Ba  Ba1  1  0.50000000  0.00000000  0.75000000  1
  Sm  Sm0  1  0.00000000  -0.00000000  0.00000000  1
  Sm  Sm1  1  0.50000000  0.50000000  0.50000000  1
  Eu  Eu0  1  0.50000000  0.00000000  0.25000000  1
  Eu  Eu1  1  -0.00000000  0.50000000  0.75000000  1
  W  W0  1  0.00000000  0.00000000  0.50000000  1
  W  W1  1  0.50000000  0.50000000  0.00000000  1
  O  O0  1  0.00000000  -0.00000000  0.26237357  1
  O  O1  1  0.50000000  0.50000000  0.23762643  1
  O  O2  1  -0.00000000  0.00000000  0.73762643  1
  O  O3  1  0.50000000  0.50000000  0.76237357  1
  O  O4  1  0.33437384  0.20248231  0.01345756  1
  O  O5  1  0.66562616  0.79751769  0.01345756  1
  O  O6  1  0.79751769  0.33437384  0.98654244  1
  O  O7  1  0.20248231  0.66562616  0.98654244  1
  O  O8  1  0.83437384  0.29751769  0.51345756  1
  O  O9  1  0.16562616  0.70248231  0.51345756  1
  O  O10  1  0.29751769  0.16562616  0.48654244  1
  O  O11  1  0.70248231  0.83437384  0.48654244  1
loop_
_geom_bond_atom_site_label_1
_geom_bond_atom_site_label_2
_geom_bond_distance
_geom_bond_site_symmetry_2
Ba0 O6 2.769380 1_454
Ba0 O9 2.769380 1_555
Ba0 O7 2.769380 1_554
Ba0 O8 2.769380 1_455
Ba0 O0 2.957290 1_555
Ba0 O1 2.957290 1_555
Ba0 O1 2.957290 1_455
Ba0 O0 2.957290 1_565
Ba1 O5 2.769380 1_546
Ba1 O10 2.769380 1_555
Ba1 O11 2.769380 1_545
Ba1 O4 2.769380 1_556
Ba1 O2 2.957290 1_655
Ba1 O3 2.957290 1_545
Ba1 O2 2.957290 1_555
Ba1 O3 2.957290 1_555
Eu0 O5 2.577982 1_545
Eu0 O4 2.577982 1_555
Eu0 O10 2.577982 1_555
Eu0 O11 2.577982 1_545
Eu0 O0 2.957290 1_555
Eu0 O0 2.957290 1_655
Eu0 O1 2.957290 1_555
Eu0 O1 2.957290 1_545
Eu1 O6 2.577982 1_455
Eu1 O9 2.577982 1_555
Eu1 O7 2.577982 1_555
Eu1 O8 2.577982 1_455
Eu1 O2 2.957290 1_565
Eu1 O3 2.957290 1_555
Eu1 O3 2.957290 1_455
Eu1 O2 2.957290 1_555
O0 W0 2.072292 1_555
O0 Sm0 2.288107 1_555
O1 W1 2.072292 1_555
O1 Sm1 2.288107 1_555
O2 W0 2.072292 1_555
O2 Sm0 2.288107 1_556
O3 W1 2.072292 1_556
O3 Sm1 2.288107 1_555
O4 W1 2.016066 1_555
O4 Sm0 2.313464 1_555
O5 W1 2.016066 1_555
O5 Sm0 2.313464 1_665
O6 W1 2.016066 1_556
O6 Sm0 2.313464 1_656
O7 W1 2.016066 1_556
O7 Sm0 2.313464 1_566
O8 W0 2.016066 1_655
O8 Sm1 2.313464 1_555
O9 W0 2.016066 1_565
O9 Sm1 2.313464 1_555
O10 W0 2.016066 1_555
O10 Sm1 2.313464 1_555
O11 W0 2.016066 1_665
O11 Sm1 2.313464 1_555
