# generated using pymatgen
data_Ba2DyCl7
_symmetry_space_group_name_H-M   'P 1'
_cell_length_a   15.63049218
_cell_length_b   6.85917516
_cell_length_c   10.59002336
_cell_angle_alpha   89.39431708
_cell_angle_beta   90.00000000
_cell_angle_gamma   90.00000000
_symmetry_Int_Tables_number   1
_chemical_formula_structural   Ba2DyCl7
_chemical_formula_sum   'Ba8 Dy4 Cl28'
_cell_volume   1135.31715132
_cell_formula_units_Z   4
loop_
 _symmetry_equiv_pos_site_id
 _symmetry_equiv_pos_as_xyz
  1  'x, y, z'
loop_
 _atom_site_type_symbol
 _atom_site_label
 _atom_site_symmetry_multiplicity
 _atom_site_fract_x
 _atom_site_fract_y
 _atom_site_fract_z
 _atom_site_occupancy
  Ba  Ba0  1  0.27983196  0.23526748  0.54888169  1
  Ba  Ba1  1  0.72016804  0.76473252  0.45111831  1
  Ba  Ba2  1  0.77983196  0.76473252  0.95111831  1
  Ba  Ba3  1  0.22016804  0.23526748  0.04888169  1
  Ba  Ba4  1  0.43919193  0.76494885  0.82354489  1
  Ba  Ba5  1  0.56080807  0.23505115  0.17645511  1
  Ba  Ba6  1  0.93919193  0.23505115  0.67645511  1
  Ba  Ba7  1  0.06080807  0.76494885  0.32354489  1
  Dy  Dy0  1  0.12714637  0.71758081  0.78164663  1
  Dy  Dy1  1  0.87285363  0.28241919  0.21835337  1
  Dy  Dy2  1  0.62714637  0.28241919  0.71835337  1
  Dy  Dy3  1  0.37285363  0.71758081  0.28164663  1
  Cl  Cl0  1  0.07070958  0.37116979  0.87640243  1
  Cl  Cl1  1  0.92929042  0.62883021  0.12359757  1
  Cl  Cl2  1  0.57070958  0.62883021  0.62359757  1
  Cl  Cl3  1  0.42929042  0.37116979  0.37640243  1
  Cl  Cl4  1  0.10497527  0.98694730  0.58561932  1
  Cl  Cl5  1  0.89502473  0.01305270  0.41438068  1
  Cl  Cl6  1  0.60497527  0.01305270  0.91438068  1
  Cl  Cl7  1  0.39502473  0.98694730  0.08561932  1
  Cl  Cl8  1  0.95985292  0.79476860  0.78750697  1
  Cl  Cl9  1  0.04014708  0.20523140  0.21249303  1
  Cl  Cl10  1  0.45985292  0.20523140  0.71249303  1
  Cl  Cl11  1  0.54014708  0.79476860  0.28750697  1
  Cl  Cl12  1  0.36048201  0.79124478  0.52854475  1
  Cl  Cl13  1  0.63951799  0.20875522  0.47145525  1
  Cl  Cl14  1  0.86048201  0.20875522  0.97145525  1
  Cl  Cl15  1  0.13951799  0.79124478  0.02854475  1
  Cl  Cl16  1  0.25743867  0.98834590  0.80181027  1
  Cl  Cl17  1  0.74256133  0.01165410  0.19818973  1
  Cl  Cl18  1  0.75743867  0.01165410  0.69818973  1
  Cl  Cl19  1  0.24256133  0.98834590  0.30181027  1
  Cl  Cl20  1  0.27228139  0.50054294  0.79475670  1
  Cl  Cl21  1  0.72771861  0.49945706  0.20524330  1
  Cl  Cl22  1  0.77228139  0.49945706  0.70524330  1
  Cl  Cl23  1  0.22771861  0.50054294  0.29475670  1
  Cl  Cl24  1  0.10437367  0.49920636  0.57102067  1
  Cl  Cl25  1  0.89562633  0.50079364  0.42897933  1
  Cl  Cl26  1  0.60437367  0.50079364  0.92897933  1
  Cl  Cl27  1  0.39562633  0.49920636  0.07102067  1
loop_
_geom_bond_atom_site_label_1
_geom_bond_atom_site_label_2
_geom_bond_distance
_geom_bond_site_symmetry_2
Ba0 Cl3 3.102690 1_555
Ba0 Cl16 3.173266 1_545
Ba0 Cl19 3.185536 1_545
Ba0 Cl20 3.194499 1_555
Ba0 Cl4 3.241651 1_545
Ba0 Cl24 3.295877 1_555
Ba0 Cl12 3.305332 1_545
Ba0 Cl10 3.309763 1_555
Ba0 Cl23 3.333664 1_555
Ba1 Cl2 3.102690 1_555
Ba1 Cl17 3.173266 1_565
Ba1 Cl18 3.185536 1_565
Ba1 Cl21 3.194499 1_555
Ba1 Cl5 3.241651 1_565
Ba1 Cl25 3.295877 1_555
Ba1 Cl13 3.305332 1_565
Ba1 Cl11 3.309763 1_555
Ba1 Cl22 3.333664 1_555
Ba2 Cl1 3.102690 1_556
Ba2 Cl18 3.173266 1_565
Ba2 Cl17 3.185536 1_566
Ba2 Cl22 3.194499 1_555
Ba2 Cl6 3.241651 1_565
Ba2 Cl26 3.295877 1_555
Ba2 Cl14 3.305332 1_565
Ba2 Cl8 3.309763 1_555
Ba2 Cl21 3.333664 1_556
Ba3 Cl0 3.102690 1_554
Ba3 Cl19 3.173266 1_545
Ba3 Cl16 3.185536 1_544
Ba3 Cl23 3.194499 1_555
Ba3 Cl7 3.241651 1_545
Ba3 Cl27 3.295877 1_555
Ba3 Cl15 3.305332 1_545
Ba3 Cl9 3.309763 1_555
Ba3 Cl20 3.333664 1_554
Ba4 Cl2 3.102087 1_555
Ba4 Cl20 3.193764 1_555
Ba4 Cl16 3.234841 1_555
Ba4 Cl10 3.245386 1_565
Ba4 Cl27 3.248640 1_556
Ba4 Cl6 3.251269 1_565
Ba4 Cl7 3.253819 1_556
Ba4 Cl26 3.339598 1_555
Ba4 Cl12 3.360645 1_555
Ba5 Cl3 3.102087 1_555
Ba5 Cl21 3.193764 1_555
Ba5 Cl17 3.234841 1_555
Ba5 Cl11 3.245386 1_545
Ba5 Cl26 3.248640 1_554
Ba5 Cl7 3.251269 1_545
Ba5 Cl6 3.253819 1_554
Ba5 Cl27 3.339598 1_555
Ba5 Cl13 3.360645 1_555
Ba6 Cl0 3.102087 1_655
Ba6 Cl22 3.193764 1_555
Ba6 Cl18 3.234841 1_555
Ba6 Cl8 3.245386 1_545
Ba6 Cl25 3.248640 1_555
Ba6 Cl4 3.251269 1_645
Ba6 Cl5 3.253819 1_555
Ba6 Cl24 3.339598 1_655
Ba6 Cl14 3.360645 1_555
Ba7 Cl1 3.102087 1_455
Ba7 Cl23 3.193764 1_555
Ba7 Cl19 3.234841 1_555
Ba7 Cl9 3.245386 1_565
Ba7 Cl24 3.248640 1_555
Ba7 Cl5 3.251269 1_465
Ba7 Cl4 3.253819 1_555
Ba7 Cl25 3.339598 1_455
Ba7 Cl15 3.360645 1_555
Cl0 Dy0 2.716711 1_555
Cl1 Dy1 2.716711 1_555
Cl2 Dy2 2.716711 1_555
Cl3 Dy3 2.716711 1_555
Cl4 Dy0 2.786081 1_555
Cl5 Dy1 2.786081 1_555
Cl6 Dy2 2.786081 1_555
Cl7 Dy3 2.786081 1_555
Cl8 Dy0 2.668792 1_655
Cl9 Dy1 2.668792 1_455
Cl10 Dy2 2.668792 1_555
Cl11 Dy3 2.668792 1_555
Cl12 Dy3 2.675268 1_555
Cl13 Dy2 2.675268 1_555
Cl14 Dy1 2.675268 1_556
Cl15 Dy0 2.675268 1_554
Cl16 Dy0 2.765996 1_555
Cl17 Dy1 2.765996 1_555
Cl18 Dy2 2.765996 1_555
Cl19 Dy3 2.765996 1_555
Cl20 Dy0 2.716132 1_555
Cl21 Dy1 2.716132 1_555
Cl22 Dy2 2.716132 1_555
Cl23 Dy3 2.716132 1_555
Cl24 Dy0 2.723275 1_555
Cl25 Dy1 2.723275 1_555
Cl26 Dy2 2.723275 1_555
Cl27 Dy3 2.723275 1_555
