# generated using pymatgen
data_Rb3FeS3
_symmetry_space_group_name_H-M   'P 1'
_cell_length_a   13.01123141
_cell_length_b   7.97866557
_cell_length_c   10.45525877
_cell_angle_alpha   52.79110649
_cell_angle_beta   90.00000000
_cell_angle_gamma   90.00000000
_symmetry_Int_Tables_number   1
_chemical_formula_structural   Rb3FeS3
_chemical_formula_sum   'Rb12 Fe4 S12'
_cell_volume   864.43902584
_cell_formula_units_Z   4
loop_
 _symmetry_equiv_pos_site_id
 _symmetry_equiv_pos_as_xyz
  1  'x, y, z'
loop_
 _atom_site_type_symbol
 _atom_site_label
 _atom_site_symmetry_multiplicity
 _atom_site_fract_x
 _atom_site_fract_y
 _atom_site_fract_z
 _atom_site_occupancy
  Rb  Rb0  1  0.92564961  0.64423257  0.61102825  1
  Rb  Rb1  1  0.42564961  0.35576743  0.88897175  1
  Rb  Rb2  1  0.07435039  0.35576743  0.38897175  1
  Rb  Rb3  1  0.57435039  0.64423257  0.11102825  1
  Rb  Rb4  1  0.63360417  0.61627969  0.51977019  1
  Rb  Rb5  1  0.13360417  0.38372031  0.98022981  1
  Rb  Rb6  1  0.36639583  0.38372031  0.48022981  1
  Rb  Rb7  1  0.86639583  0.61627969  0.01977019  1
  Rb  Rb8  1  0.80819946  0.13161197  0.58086883  1
  Rb  Rb9  1  0.30819946  0.86838803  0.91913117  1
  Rb  Rb10  1  0.19180054  0.86838803  0.41913117  1
  Rb  Rb11  1  0.69180054  0.13161197  0.08086883  1
  Fe  Fe0  1  0.55682336  0.93611822  0.65837461  1
  Fe  Fe1  1  0.05682336  0.06388178  0.84162539  1
  Fe  Fe2  1  0.44317664  0.06388178  0.34162539  1
  Fe  Fe3  1  0.94317664  0.93611822  0.15837461  1
  S  S0  1  0.10657432  0.86017983  0.11409595  1
  S  S1  1  0.60657432  0.13982017  0.38590405  1
  S  S2  1  0.89342568  0.13982017  0.88590405  1
  S  S3  1  0.39342568  0.86017983  0.61409595  1
  S  S4  1  0.04857830  0.88083642  0.74349588  1
  S  S5  1  0.54857830  0.11916358  0.75650412  1
  S  S6  1  0.95142170  0.11916358  0.25650412  1
  S  S7  1  0.45142170  0.88083642  0.24349588  1
  S  S8  1  0.66144160  0.65467043  0.80779070  1
  S  S9  1  0.16144160  0.34532957  0.69220930  1
  S  S10  1  0.33855840  0.34532957  0.19220930  1
  S  S11  1  0.83855840  0.65467043  0.30779070  1
loop_
_geom_bond_atom_site_label_1
_geom_bond_atom_site_label_2
_geom_bond_distance
_geom_bond_site_symmetry_2
Rb0 S2 3.262423 1_555
Rb0 S11 3.320131 1_555
Rb0 S4 3.346985 1_655
Rb0 S6 3.350092 1_565
Rb0 S9 3.656781 1_655
Rb1 S3 3.262423 1_555
Rb1 S10 3.320131 1_556
Rb1 S5 3.346985 1_555
Rb1 S7 3.350092 1_546
Rb1 S8 3.656781 1_555
Rb2 S0 3.262423 1_555
Rb2 S9 3.320131 1_555
Rb2 S6 3.346985 1_455
Rb2 S4 3.350092 1_545
Rb2 S11 3.656781 1_455
Rb3 S1 3.262423 1_555
Rb3 S8 3.320131 1_554
Rb3 S7 3.346985 1_555
Rb3 S5 3.350092 1_564
Rb3 S10 3.656781 1_555
Rb4 S8 3.226251 1_555
Rb4 S7 3.323224 1_555
Rb4 S5 3.347916 1_555
Rb4 S11 3.360965 1_555
Rb4 S1 3.529920 1_565
Rb5 S9 3.226251 1_555
Rb5 S6 3.323224 1_456
Rb5 S4 3.347916 1_555
Rb5 S10 3.360965 1_556
Rb5 S0 3.529920 1_546
Rb6 S10 3.226251 1_555
Rb6 S5 3.323224 1_555
Rb6 S7 3.347916 1_555
Rb6 S9 3.360965 1_555
Rb6 S3 3.529920 1_545
Rb7 S11 3.226251 1_555
Rb7 S4 3.323224 1_654
Rb7 S6 3.347916 1_555
Rb7 S8 3.360965 1_554
Rb7 S2 3.529920 1_564
Rb8 S1 3.298503 1_555
Rb8 S11 3.363530 1_555
Rb8 S2 3.414336 1_555
Rb8 S4 3.544275 1_645
Rb8 S8 3.582816 1_545
Rb8 S5 3.817348 1_555
Rb8 S6 3.923123 1_555
Rb9 S0 3.298503 1_556
Rb9 S10 3.363530 1_556
Rb9 S3 3.414336 1_555
Rb9 S5 3.544275 1_565
Rb9 S9 3.582816 1_565
Rb9 S4 3.817348 1_555
Rb9 S7 3.923123 1_556
Rb10 S3 3.298503 1_555
Rb10 S9 3.363530 1_555
Rb10 S0 3.414336 1_555
Rb10 S6 3.544275 1_465
Rb10 S10 3.582816 1_565
Rb10 S7 3.817348 1_555
Rb10 S4 3.923123 1_555
Rb11 S2 3.298503 1_554
Rb11 S8 3.363530 1_554
Rb11 S1 3.414336 1_555
Rb11 S7 3.544275 1_545
Rb11 S11 3.582816 1_545
Rb11 S6 3.817348 1_555
Rb11 S5 3.923123 1_554
Fe0 S5 2.238141 1_565
Fe0 S8 2.256811 1_555
Fe0 S3 2.332500 1_555
Fe0 S1 2.361395 1_565
Fe0 Rb8 3.501206 1_565
Fe1 S4 2.238141 1_545
Fe1 S9 2.256811 1_555
Fe1 S2 2.332500 1_455
Fe1 S0 2.361395 1_546
Fe1 Rb9 3.501206 1_545
Fe2 S7 2.238141 1_545
Fe2 S10 2.256811 1_555
Fe2 S1 2.332500 1_555
Fe2 S3 2.361395 1_545
Fe2 Rb10 3.501206 1_545
Fe3 S6 2.238141 1_565
Fe3 S11 2.256811 1_555
Fe3 S0 2.332500 1_655
Fe3 S2 2.361395 1_564
Fe3 Rb11 3.501206 1_565
