# generated using pymatgen
data_Rb2Mn3Te4
_symmetry_space_group_name_H-M   'P 1'
_cell_length_a   10.46566383
_cell_length_b   10.46586271
_cell_length_c   10.46541113
_cell_angle_alpha   143.58365064
_cell_angle_beta   104.66187173
_cell_angle_gamma   86.68367515
_symmetry_Int_Tables_number   1
_chemical_formula_structural   Rb2Mn3Te4
_chemical_formula_sum   'Rb4 Mn6 Te8'
_cell_volume   636.76017225
_cell_formula_units_Z   2
loop_
 _symmetry_equiv_pos_site_id
 _symmetry_equiv_pos_as_xyz
  1  'x, y, z'
loop_
 _atom_site_type_symbol
 _atom_site_label
 _atom_site_symmetry_multiplicity
 _atom_site_fract_x
 _atom_site_fract_y
 _atom_site_fract_z
 _atom_site_occupancy
  Rb  Rb0  1  0.12391277  0.26368680  0.38764007  1
  Rb  Rb1  1  0.87609489  0.73630809  0.61234519  1
  Rb  Rb2  1  0.62394320  0.23630808  0.86020514  1
  Rb  Rb3  1  0.37605918  0.76368285  0.13978002  1
  Mn  Mn0  1  0.25003238  0.24999464  -0.00002324  1
  Mn  Mn1  1  0.74999485  0.75003306  0.00009230  1
  Mn  Mn2  1  0.51373659  0.24997689  0.26366711  1
  Mn  Mn3  1  0.48627455  0.75000702  0.73633463  1
  Mn  Mn4  1  0.98627493  0.25000263  0.73631091  1
  Mn  Mn5  1  0.01371319  0.75006758  0.26372767  1
  Te  Te0  1  0.48617234  0.58703898  0.36004302  1
  Te  Te1  1  0.51383790  0.41290223  0.63990950  1
  Te  Te2  1  0.22694478  0.12612521  0.63992497  1
  Te  Te3  1  0.27301295  0.91299637  0.89926113  1
  Te  Te4  1  0.77301981  0.87390340  0.36007660  1
  Te  Te5  1  0.72698529  0.08697157  0.10071681  1
  Te  Te6  1  0.01386851  0.37404246  0.10101994  1
  Te  Te7  1  0.98612189  0.62595414  0.89896923  1
loop_
_geom_bond_atom_site_label_1
_geom_bond_atom_site_label_2
_geom_bond_distance
_geom_bond_site_symmetry_2
Rb0 Te2 3.834508 1_555
Rb0 Te1 3.835324 1_555
Rb0 Te3 3.900266 1_544
Rb0 Te7 3.901957 1_444
Rb0 Te5 3.915347 1_455
Rb0 Te6 3.915487 1_555
Rb0 Te7 3.963646 1_455
Rb0 Te3 3.964842 1_555
Rb1 Te4 3.834712 1_555
Rb1 Te0 3.835282 1_555
Rb1 Te5 3.900321 1_566
Rb1 Te6 3.901938 1_666
Rb1 Te3 3.915273 1_655
Rb1 Te7 3.915494 1_555
Rb1 Te6 3.963504 1_655
Rb1 Te5 3.965030 1_555
Rb2 Te5 3.834544 1_556
Rb2 Te6 3.835343 1_656
Rb2 Te0 3.901092 1_556
Rb2 Te4 3.901138 1_556
Rb2 Te1 3.914793 1_555
Rb2 Te2 3.915872 1_555
Rb2 Te4 3.964049 1_545
Rb2 Te0 3.964746 1_545
Rb3 Te3 3.834396 1_554
Rb3 Te7 3.835460 1_454
Rb3 Te2 3.900967 1_554
Rb3 Te1 3.901294 1_554
Rb3 Te0 3.914980 1_555
Rb3 Te4 3.915472 1_555
Rb3 Te2 3.964376 1_565
Rb3 Te1 3.964458 1_565
Mn0 Te2 2.766006 1_554
Mn0 Te0 2.766079 1_555
Mn0 Te6 2.766743 1_555
Mn0 Te3 2.766837 1_544
Mn1 Te4 2.765471 1_555
Mn1 Te1 2.766532 1_554
Mn1 Te7 2.766601 1_554
Mn1 Te5 2.766862 1_565
Mn2 Te5 2.757407 1_555
Mn2 Te1 2.757499 1_555
Mn2 Te3 2.801150 1_544
Mn2 Te0 2.801409 1_555
Mn3 Te3 2.757439 1_555
Mn3 Te0 2.757738 1_555
Mn3 Te5 2.800999 1_566
Mn3 Te1 2.801515 1_555
Mn4 Te7 2.756812 1_555
Mn4 Te4 2.757161 1_545
Mn4 Te2 2.801097 1_655
Mn4 Te6 2.801343 1_656
Mn5 Te2 2.756860 1_565
Mn5 Te6 2.757255 1_555
Mn5 Te4 2.801198 1_455
Mn5 Te7 2.801363 1_454
