# generated using pymatgen
data_InSeClO3
_symmetry_space_group_name_H-M   'P 1'
_cell_length_a   7.15827000
_cell_length_b   7.26026600
_cell_length_c   16.66453200
_cell_angle_alpha   90.00000000
_cell_angle_beta   90.00000000
_cell_angle_gamma   90.00000000
_symmetry_Int_Tables_number   1
_chemical_formula_structural   InSeClO3
_chemical_formula_sum   'In8 Se8 Cl8 O24'
_cell_volume   866.07146435
_cell_formula_units_Z   8
loop_
 _symmetry_equiv_pos_site_id
 _symmetry_equiv_pos_as_xyz
  1  'x, y, z'
loop_
 _atom_site_type_symbol
 _atom_site_label
 _atom_site_symmetry_multiplicity
 _atom_site_fract_x
 _atom_site_fract_y
 _atom_site_fract_z
 _atom_site_occupancy
  In  In0  1  0.53771400  0.75024100  0.15382600  1
  In  In1  1  0.96228600  0.25024100  0.84617400  1
  In  In2  1  0.03771400  0.24975900  0.34617400  1
  In  In3  1  0.46228600  0.74975900  0.65382600  1
  In  In4  1  0.46228600  0.24975900  0.84617400  1
  In  In5  1  0.03771400  0.74975900  0.15382600  1
  In  In6  1  0.96228600  0.75024100  0.65382600  1
  In  In7  1  0.53771400  0.25024100  0.34617400  1
  Se  Se0  1  0.78646900  0.31985800  0.16091200  1
  Se  Se1  1  0.71353100  0.81985800  0.83908800  1
  Se  Se2  1  0.28646900  0.68014200  0.33908800  1
  Se  Se3  1  0.21353100  0.18014200  0.66091200  1
  Se  Se4  1  0.21353100  0.68014200  0.83908800  1
  Se  Se5  1  0.28646900  0.18014200  0.16091200  1
  Se  Se6  1  0.71353100  0.31985800  0.66091200  1
  Se  Se7  1  0.78646900  0.81985800  0.33908800  1
  Cl  Cl0  1  0.78708300  0.80928000  0.04650300  1
  Cl  Cl1  1  0.71291700  0.30928000  0.95349700  1
  Cl  Cl2  1  0.28708300  0.19072000  0.45349700  1
  Cl  Cl3  1  0.21291700  0.69072000  0.54650300  1
  Cl  Cl4  1  0.21291700  0.19072000  0.95349700  1
  Cl  Cl5  1  0.28708300  0.69072000  0.04650300  1
  Cl  Cl6  1  0.71291700  0.80928000  0.54650300  1
  Cl  Cl7  1  0.78708300  0.30928000  0.45349700  1
  O  O0  1  0.98074100  0.45574000  0.15231400  1
  O  O1  1  0.51925900  0.95574000  0.84768600  1
  O  O2  1  0.48074100  0.54426000  0.34768600  1
  O  O3  1  0.01925900  0.04426000  0.65231400  1
  O  O4  1  0.01925900  0.54426000  0.84768600  1
  O  O5  1  0.48074100  0.04426000  0.15231400  1
  O  O6  1  0.51925900  0.45574000  0.65231400  1
  O  O7  1  0.98074100  0.95574000  0.34768600  1
  O  O8  1  0.59164300  0.45591600  0.15430200  1
  O  O9  1  0.90835700  0.95591600  0.84569800  1
  O  O10  1  0.09164300  0.54408400  0.34569800  1
  O  O11  1  0.40835700  0.04408400  0.65430200  1
  O  O12  1  0.40835700  0.54408400  0.84569800  1
  O  O13  1  0.09164300  0.04408400  0.15430200  1
  O  O14  1  0.90835700  0.45591600  0.65430200  1
  O  O15  1  0.59164300  0.95591600  0.34569800  1
  O  O16  1  0.78777800  0.28438700  0.26923200  1
  O  O17  1  0.71222200  0.78438700  0.73076800  1
  O  O18  1  0.28777800  0.71561300  0.23076800  1
  O  O19  1  0.21222200  0.21561300  0.76923200  1
  O  O20  1  0.21222200  0.71561300  0.73076800  1
  O  O21  1  0.28777800  0.21561300  0.26923200  1
  O  O22  1  0.71222200  0.28438700  0.76923200  1
  O  O23  1  0.78777800  0.78438700  0.23076800  1
loop_
_geom_bond_atom_site_label_1
_geom_bond_atom_site_label_2
_geom_bond_distance
_geom_bond_site_symmetry_2
In0 O8 2.171482 1_555
In0 O5 2.173411 1_565
In0 O18 2.215437 1_555
In0 O23 2.215783 1_555
In1 O9 2.171482 1_545
In1 O4 2.173411 1_655
In1 O19 2.215437 1_655
In1 O22 2.215783 1_555
In2 O10 2.171482 1_555
In2 O7 2.173411 1_445
In2 O16 2.215437 1_455
In2 O21 2.215783 1_555
In3 O11 2.171482 1_565
In3 O6 2.173411 1_555
In3 O17 2.215437 1_555
In3 O20 2.215783 1_555
In4 O12 2.171482 1_555
In4 O1 2.173411 1_545
In4 O22 2.215437 1_555
In4 O19 2.215783 1_555
In5 O13 2.171482 1_565
In5 O0 2.173411 1_455
In5 O23 2.215437 1_455
In5 O18 2.215783 1_555
In6 O14 2.171482 1_555
In6 O3 2.173411 1_665
In6 O20 2.215437 1_655
In6 O17 2.215783 1_555
In7 O15 2.171482 1_545
In7 O2 2.173411 1_555
In7 O21 2.215437 1_555
In7 O16 2.215783 1_555
Cl0 In0 2.562972 1_555
Cl0 In5 2.569858 1_655
Cl1 In1 2.562972 1_555
Cl1 In4 2.569858 1_555
Cl2 In2 2.562972 1_555
Cl2 In7 2.569858 1_555
Cl3 In3 2.562972 1_555
Cl3 In6 2.569858 1_455
Cl4 In4 2.562972 1_555
Cl4 In1 2.569858 1_455
Cl5 In5 2.562972 1_555
Cl5 In0 2.569858 1_555
Cl6 In6 2.562972 1_555
Cl6 In3 2.569858 1_555
Cl7 In7 2.562972 1_555
Cl7 In2 2.569858 1_655
O0 Se0 1.711053 1_555
O1 Se1 1.711053 1_555
O2 Se2 1.711053 1_555
O3 Se3 1.711053 1_555
O4 Se4 1.711053 1_555
O5 Se5 1.711053 1_555
O6 Se6 1.711053 1_555
O7 Se7 1.711053 1_555
O8 Se0 1.712563 1_555
O9 Se1 1.712563 1_555
O10 Se2 1.712563 1_555
O11 Se3 1.712563 1_555
O12 Se4 1.712563 1_555
O13 Se5 1.712563 1_555
O14 Se6 1.712563 1_555
O15 Se7 1.712563 1_555
O16 Se0 1.823404 1_555
O17 Se1 1.823404 1_555
O18 Se2 1.823404 1_555
O19 Se3 1.823404 1_555
O20 Se4 1.823404 1_555
O21 Se5 1.823404 1_555
O22 Se6 1.823404 1_555
O23 Se7 1.823404 1_555
