# generated using pymatgen
data_Tm3Co6Sn5
_symmetry_space_group_name_H-M   'P 1'
_cell_length_a   4.29913200
_cell_length_b   8.05922998
_cell_length_c   8.05922998
_cell_angle_alpha   72.71670784
_cell_angle_beta   74.53075173
_cell_angle_gamma   74.53075173
_symmetry_Int_Tables_number   1
_chemical_formula_structural   Tm3Co6Sn5
_chemical_formula_sum   'Tm3 Co6 Sn5'
_cell_volume   251.57771348
_cell_formula_units_Z   1
loop_
 _symmetry_equiv_pos_site_id
 _symmetry_equiv_pos_as_xyz
  1  'x, y, z'
loop_
 _atom_site_type_symbol
 _atom_site_label
 _atom_site_symmetry_multiplicity
 _atom_site_fract_x
 _atom_site_fract_y
 _atom_site_fract_z
 _atom_site_occupancy
  Tm  Tm0  1  0.00000000  0.00000000  0.00000000  1
  Tm  Tm1  1  0.68311600  0.31688400  0.31688400  1
  Tm  Tm2  1  0.31688400  0.68311600  0.68311600  1
  Co  Co0  1  0.50000000  0.30439100  0.69560900  1
  Co  Co1  1  0.50000000  0.69560900  0.30439100  1
  Co  Co2  1  0.89187500  0.83487000  0.38138000  1
  Co  Co3  1  0.10812500  0.16513000  0.61862000  1
  Co  Co4  1  0.89187500  0.38138000  0.83487000  1
  Co  Co5  1  0.10812500  0.61862000  0.16513000  1
  Sn  Sn0  1  0.67679900  0.98058400  0.66581900  1
  Sn  Sn1  1  0.32320100  0.01941600  0.33418100  1
  Sn  Sn2  1  0.67679900  0.66581900  0.98058400  1
  Sn  Sn3  1  0.32320100  0.33418100  0.01941600  1
  Sn  Sn4  1  0.00000000  0.50000000  0.50000000  1
loop_
_geom_bond_atom_site_label_1
_geom_bond_atom_site_label_2
_geom_bond_distance
_geom_bond_site_symmetry_2
Co0 Co3 2.542235 1_655
Co0 Co4 2.542235 1_455
Co0 Co3 2.542236 1_555
Co0 Co4 2.542236 1_555
Co0 Sn0 2.581162 1_545
Co0 Sn3 2.581162 1_556
Co0 Sn4 2.848574 1_555
Co0 Sn4 2.848574 1_655
Co0 Tm1 2.919573 1_555
Co0 Tm2 2.919573 1_555
Co1 Co5 2.542235 1_655
Co1 Co2 2.542235 1_455
Co1 Co5 2.542236 1_555
Co1 Co2 2.542236 1_555
Co1 Sn2 2.581162 1_554
Co1 Sn1 2.581162 1_565
Co1 Sn4 2.848574 1_555
Co1 Sn4 2.848574 1_655
Co1 Tm1 2.919573 1_555
Co1 Tm2 2.919573 1_555
Co2 Sn4 2.539350 1_655
Co2 Sn1 2.560088 1_665
Co2 Sn1 2.560091 1_565
Co2 Co5 2.648629 1_655
Co2 Sn0 2.716359 1_555
Co2 Tm0 2.927744 1_665
Co2 Tm2 3.187279 1_555
Co2 Tm2 3.187279 1_655
Co3 Sn4 2.539350 1_555
Co3 Sn0 2.560088 1_445
Co3 Sn0 2.560091 1_545
Co3 Co4 2.648629 1_455
Co3 Sn1 2.716359 1_555
Co3 Tm0 2.927744 1_556
Co3 Tm1 3.187279 1_555
Co3 Tm1 3.187279 1_455
Co4 Sn4 2.539350 1_655
Co4 Sn3 2.560088 1_656
Co4 Sn3 2.560091 1_556
Co4 Sn2 2.716359 1_555
Co4 Tm0 2.927744 1_656
Co4 Tm2 3.187279 1_555
Co4 Tm2 3.187279 1_655
Co5 Sn4 2.539350 1_555
Co5 Sn2 2.560088 1_454
Co5 Sn2 2.560091 1_554
Co5 Sn3 2.716359 1_555
Co5 Tm0 2.927744 1_565
Co5 Tm1 3.187279 1_555
Co5 Tm1 3.187279 1_455
Sn0 Sn2 3.007758 1_555
Sn0 Tm2 3.134666 1_655
Sn0 Tm2 3.134669 1_555
Sn0 Tm1 3.274818 1_565
Sn0 Tm0 3.401669 1_666
Sn0 Tm0 3.401671 1_566
Sn1 Sn3 3.007758 1_555
Sn1 Tm1 3.134666 1_455
Sn1 Tm1 3.134669 1_555
Sn1 Tm2 3.274818 1_545
Sn1 Tm0 3.401669 1_555
Sn1 Tm0 3.401671 1_655
Sn2 Tm2 3.134666 1_655
Sn2 Tm2 3.134669 1_555
Sn2 Tm1 3.274818 1_556
Sn2 Tm0 3.401669 1_666
Sn2 Tm0 3.401671 1_566
Sn3 Tm1 3.134666 1_455
Sn3 Tm1 3.134669 1_555
Sn3 Tm2 3.274818 1_554
Sn3 Tm0 3.401669 1_555
Sn3 Tm0 3.401671 1_655
Sn4 Tm2 3.106574 1_455
Sn4 Tm1 3.106574 1_555
Sn4 Tm2 3.106574 1_555
Sn4 Tm1 3.106574 1_455
