# generated using pymatgen
data_La(SiPt)2
_symmetry_space_group_name_H-M   'P 1'
_cell_length_a   4.30594118
_cell_length_b   4.30594118
_cell_length_c   9.86875227
_cell_angle_alpha   90.00000000
_cell_angle_beta   90.00000000
_cell_angle_gamma   90.00000000
_symmetry_Int_Tables_number   1
_chemical_formula_structural   La(SiPt)2
_chemical_formula_sum   'La2 Si4 Pt4'
_cell_volume   182.97781330
_cell_formula_units_Z   2
loop_
 _symmetry_equiv_pos_site_id
 _symmetry_equiv_pos_as_xyz
  1  'x, y, z'
loop_
 _atom_site_type_symbol
 _atom_site_label
 _atom_site_symmetry_multiplicity
 _atom_site_fract_x
 _atom_site_fract_y
 _atom_site_fract_z
 _atom_site_occupancy
  La  La0  1  -0.00000000  0.50000000  0.25605394  1
  La  La1  1  0.50000000  -0.00000000  0.74394606  1
  Si  Si0  1  -0.00000000  0.00000000  0.50000000  1
  Si  Si1  1  0.50000000  0.50000000  0.50000000  1
  Si  Si2  1  -0.00000000  0.50000000  0.87184460  1
  Si  Si3  1  0.50000000  0.00000000  0.12815540  1
  Pt  Pt0  1  0.00000000  0.00000000  -0.00000000  1
  Pt  Pt1  1  0.50000000  0.50000000  -0.00000000  1
  Pt  Pt2  1  -0.00000000  0.50000000  0.62045636  1
  Pt  Pt3  1  0.50000000  -0.00000000  0.37954364  1
loop_
_geom_bond_atom_site_label_1
_geom_bond_atom_site_label_2
_geom_bond_distance
_geom_bond_site_symmetry_2
La0 Si0 3.229716 1_565
La0 Si0 3.229716 1_555
La0 Si1 3.229716 1_455
La0 Si1 3.229716 1_555
La0 Pt3 3.279599 1_455
La0 Pt3 3.279599 1_465
La0 Pt3 3.279599 1_555
La0 Pt3 3.279599 1_565
La0 Si3 3.296014 1_565
La0 Si3 3.296014 1_555
La0 Si3 3.296014 1_465
La0 Si3 3.296014 1_455
La0 Pt0 3.319740 1_555
La0 Pt1 3.319740 1_455
La0 Pt0 3.319740 1_565
La0 Pt1 3.319740 1_555
La1 Si0 3.229716 1_655
La1 Si0 3.229716 1_555
La1 Si1 3.229716 1_555
La1 Si1 3.229716 1_545
La1 Pt2 3.279599 1_655
La1 Pt2 3.279599 1_545
La1 Pt2 3.279599 1_555
La1 Pt2 3.279599 1_645
La1 Si2 3.296014 1_545
La1 Si2 3.296014 1_655
La1 Si2 3.296014 1_555
La1 Si2 3.296014 1_645
La1 Pt0 3.319740 1_656
La1 Pt1 3.319740 1_546
La1 Pt1 3.319740 1_556
La1 Pt0 3.319740 1_556
Pt0 Si3 2.496965 1_555
Pt0 Si3 2.496965 1_455
Pt0 Si2 2.496965 1_554
Pt0 Si2 2.496965 1_544
Pt1 Si3 2.496965 1_565
Pt1 Si3 2.496965 1_555
Pt1 Si2 2.496965 1_654
Pt1 Si2 2.496965 1_554
Pt2 Si0 2.459353 1_555
Pt2 Si1 2.459353 1_455
Pt2 Si1 2.459353 1_555
Pt2 Si0 2.459353 1_565
Pt2 Si2 2.480888 1_555
Pt3 Si0 2.459353 1_655
Pt3 Si1 2.459353 1_555
Pt3 Si1 2.459353 1_545
Pt3 Si0 2.459353 1_555
Pt3 Si3 2.480888 1_555
