# generated using pymatgen
data_CoC12N8(ClO5)2
_symmetry_space_group_name_H-M   'P 1'
_cell_length_a   7.34096500
_cell_length_b   9.23056290
_cell_length_c   9.45597163
_cell_angle_alpha   109.39227645
_cell_angle_beta   105.29677696
_cell_angle_gamma   105.00978419
_symmetry_Int_Tables_number   1
_chemical_formula_structural   CoC12N8(ClO5)2
_chemical_formula_sum   'Co1 C12 N8 Cl2 O10'
_cell_volume   539.03201932
_cell_formula_units_Z   1
loop_
 _symmetry_equiv_pos_site_id
 _symmetry_equiv_pos_as_xyz
  1  'x, y, z'
loop_
 _atom_site_type_symbol
 _atom_site_label
 _atom_site_symmetry_multiplicity
 _atom_site_fract_x
 _atom_site_fract_y
 _atom_site_fract_z
 _atom_site_occupancy
  Co  Co0  1  0.00000000  0.50000000  0.50000000  1
  C  C0  1  0.50619000  0.30473900  0.67726700  1
  C  C1  1  0.49381000  0.69526100  0.32273300  1
  C  C2  1  0.89609700  0.44283700  0.95935500  1
  C  C3  1  0.10390300  0.55716300  0.04064500  1
  C  C4  1  0.53121700  0.44135000  0.94493900  1
  C  C5  1  0.46878300  0.55865000  0.05506100  1
  C  C6  1  0.62627100  0.22016100  0.75812300  1
  C  C7  1  0.37372900  0.77983900  0.24187700  1
  C  C8  1  0.59050800  0.30445700  0.97704500  1
  C  C9  1  0.40949200  0.69554300  0.02295500  1
  C  C10  1  0.48864100  0.30575400  0.51411600  1
  C  C11  1  0.51135900  0.69424600  0.48588400  1
  N  N0  1  0.47033600  0.41327600  0.78267700  1
  N  N1  1  0.52966400  0.58672400  0.21732300  1
  N  N2  1  0.81836200  0.32228500  0.81131200  1
  N  N3  1  0.18163800  0.67771500  0.18868800  1
  N  N4  1  0.75326500  0.45273900  0.03451200  1
  N  N5  1  0.24673500  0.54726100  0.96548800  1
  N  N6  1  0.53882900  0.15742200  0.85078200  1
  N  N7  1  0.46117100  0.84257800  0.14921800  1
  Cl  Cl0  1  0.11418100  0.03017300  0.90318300  1
  Cl  Cl1  1  0.88581900  0.96982700  0.09681700  1
  O  O0  1  0.27917500  0.63826500  0.60610800  1
  O  O1  1  0.72082500  0.36173500  0.39389200  1
  O  O2  1  0.94701600  0.59486900  0.38449200  1
  O  O3  1  0.05298400  0.40513100  0.61550800  1
  O  O4  1  0.35510900  0.32775300  0.42829100  1
  O  O5  1  0.64489100  0.67224700  0.57170900  1
  O  O6  1  0.96164200  0.13459900  0.07908200  1
  O  O7  1  0.03835800  0.86540100  0.92091800  1
  O  O8  1  0.34110800  0.71469000  0.50643500  1
  O  O9  1  0.65889200  0.28531000  0.49356500  1
loop_
_geom_bond_atom_site_label_1
_geom_bond_atom_site_label_2
_geom_bond_distance
_geom_bond_site_symmetry_2
Co0 O2 1.642723 1_455
Co0 O3 1.642723 1_555
Co0 O1 1.882958 1_455
Co0 O0 1.882958 1_555
C0 N0 1.295523 1_555
C1 N1 1.295523 1_555
C2 N2 1.318604 1_555
C2 N4 1.418630 1_556
C2 C3 1.428428 1_656
C3 N3 1.318604 1_555
C3 N5 1.418630 1_554
C4 N0 1.391136 1_555
C4 C5 1.492270 1_556
C4 C8 1.532384 1_555
C4 N4 1.584026 1_556
C5 N1 1.391136 1_555
C5 C9 1.532384 1_555
C5 N5 1.584026 1_554
C6 N2 1.323807 1_555
C6 N6 1.398671 1_555
C7 N3 1.323807 1_555
C7 N7 1.398671 1_555
C8 N6 1.352657 1_555
C8 N4 1.382999 1_556
C9 N7 1.352657 1_555
C9 N5 1.382999 1_554
C10 O4 1.205631 1_555
C10 O9 1.364314 1_555
C11 O5 1.205631 1_555
C11 O8 1.364314 1_555
Cl0 O7 1.559272 1_545
Cl0 O6 2.329535 1_456
Cl1 O6 1.559272 1_565
Cl1 O7 2.329535 1_654
O0 O8 1.447126 1_555
O1 O9 1.447126 1_555
