# generated using pymatgen
data_Tb3DyAl8
_symmetry_space_group_name_H-M   'P 1'
_cell_length_a   9.61162833
_cell_length_b   9.61162833
_cell_length_c   9.61162834
_cell_angle_alpha   33.54500062
_cell_angle_beta   33.54500062
_cell_angle_gamma   33.54500219
_symmetry_Int_Tables_number   1
_chemical_formula_structural   Tb3DyAl8
_chemical_formula_sum   'Tb3 Dy1 Al8'
_cell_volume   241.50930317
_cell_formula_units_Z   1
loop_
 _symmetry_equiv_pos_site_id
 _symmetry_equiv_pos_as_xyz
  1  'x, y, z'
loop_
 _atom_site_type_symbol
 _atom_site_label
 _atom_site_symmetry_multiplicity
 _atom_site_fract_x
 _atom_site_fract_y
 _atom_site_fract_z
 _atom_site_occupancy
  Tb  Tb0  1  0.18756884  0.18756884  0.18756884  1
  Tb  Tb1  1  0.81241714  0.81241714  0.81241714  1
  Tb  Tb2  1  0.31243403  0.31243403  0.31243403  1
  Dy  Dy0  1  0.68756586  0.68756586  0.68756586  1
  Al  Al0  1  0.00002535  0.00002535  0.00002535  1
  Al  Al1  1  0.49998293  0.49998293  0.49998293  1
  Al  Al2  1  0.74988888  0.24993073  0.24993073  1
  Al  Al3  1  0.25018372  0.75003540  0.75003540  1
  Al  Al4  1  0.24993073  0.74988888  0.24993073  1
  Al  Al5  1  0.75003540  0.25018372  0.75003540  1
  Al  Al6  1  0.24993073  0.24993073  0.74988888  1
  Al  Al7  1  0.75003540  0.75003540  0.25018372  1
loop_
_geom_bond_atom_site_label_1
_geom_bond_atom_site_label_2
_geom_bond_distance
_geom_bond_site_symmetry_2
Tb0 Tb2 3.394710 1_555
Tb0 Tb1 3.398542 1_445
Tb0 Tb1 3.398542 1_454
Tb0 Tb1 3.398542 1_544
Dy0 Tb1 3.394332 1_555
Dy0 Tb2 3.398361 1_556
Dy0 Tb2 3.398361 1_655
Dy0 Tb2 3.398361 1_565
Al0 Al6 2.772059 1_554
Al0 Al2 2.772059 1_455
Al0 Al4 2.772059 1_545
Al0 Al7 2.773345 1_445
Al0 Al3 2.773345 1_544
Al0 Al5 2.773345 1_454
Al0 Dy0 3.252624 1_445
Al0 Dy0 3.252624 1_544
Al0 Dy0 3.252624 1_454
Al0 Tb2 3.252865 1_554
Al0 Tb2 3.252865 1_545
Al0 Tb2 3.252865 1_455
Al1 Al6 2.775782 1_555
Al1 Al4 2.775783 1_555
Al1 Al2 2.775783 1_555
Al1 Al7 2.776380 1_555
Al1 Al5 2.776380 1_555
Al1 Al3 2.776380 1_555
Al1 Tb1 3.252744 1_554
Al1 Tb1 3.252744 1_545
Al1 Tb1 3.252744 1_455
Al1 Tb0 3.252839 1_556
Al1 Tb0 3.252840 1_565
Al1 Tb0 3.252840 1_655
Al2 Al6 2.773417 1_555
Al2 Al4 2.773418 1_555
Al2 Al6 2.773882 1_654
Al2 Al4 2.773882 1_645
Al2 Dy0 3.250633 1_545
Al2 Dy0 3.250633 1_554
Al2 Tb1 3.252753 1_554
Al2 Tb1 3.252753 1_545
Al2 Tb2 3.252906 1_555
Al2 Tb0 3.257045 1_655
Al3 Al7 2.772827 1_555
Al3 Al5 2.772827 1_555
Al3 Al7 2.774472 1_456
Al3 Al5 2.774472 1_465
Al3 Tb2 3.250608 1_565
Al3 Tb2 3.250608 1_556
Al3 Dy0 3.252697 1_555
Al3 Tb0 3.252975 1_556
Al3 Tb0 3.252975 1_565
Al3 Tb1 3.257583 1_455
Al4 Al6 2.773417 1_555
Al4 Al6 2.773882 1_564
Al4 Dy0 3.250633 1_455
Al4 Dy0 3.250633 1_554
Al4 Tb1 3.252753 1_554
Al4 Tb1 3.252753 1_455
Al4 Tb2 3.252906 1_555
Al4 Tb0 3.257045 1_565
Al5 Al7 2.772827 1_555
Al5 Al7 2.774472 1_546
Al5 Tb2 3.250608 1_655
Al5 Tb2 3.250608 1_556
Al5 Dy0 3.252697 1_555
Al5 Tb0 3.252975 1_556
Al5 Tb0 3.252975 1_655
Al5 Tb1 3.257583 1_545
Al6 Dy0 3.250633 1_455
Al6 Dy0 3.250633 1_545
Al6 Tb1 3.252753 1_455
Al6 Tb1 3.252753 1_545
Al6 Tb2 3.252906 1_555
Al6 Tb0 3.257045 1_556
Al7 Tb2 3.250608 1_565
Al7 Tb2 3.250608 1_655
Al7 Dy0 3.252697 1_555
Al7 Tb0 3.252976 1_565
Al7 Tb0 3.252976 1_655
Al7 Tb1 3.257583 1_554
