# generated using pymatgen
data_KMg6SbO8
_symmetry_space_group_name_H-M   'P 1'
_cell_length_a   8.97429717
_cell_length_b   4.54991233
_cell_length_c   4.54991233
_cell_angle_alpha   90.00000000
_cell_angle_beta   90.00000000
_cell_angle_gamma   90.00000000
_symmetry_Int_Tables_number   1
_chemical_formula_structural   KMg6SbO8
_chemical_formula_sum   'K1 Mg6 Sb1 O8'
_cell_volume   185.78322756
_cell_formula_units_Z   1
loop_
 _symmetry_equiv_pos_site_id
 _symmetry_equiv_pos_as_xyz
  1  'x, y, z'
loop_
 _atom_site_type_symbol
 _atom_site_label
 _atom_site_symmetry_multiplicity
 _atom_site_fract_x
 _atom_site_fract_y
 _atom_site_fract_z
 _atom_site_occupancy
  K  K0  1  0.00000000  0.00000000  0.00000000  1
  Mg  Mg0  1  0.50000000  0.00000000  0.00000000  1
  Mg  Mg1  1  0.50000000  0.50000000  0.50000000  1
  Mg  Mg2  1  0.26807029  0.00000000  0.50000000  1
  Mg  Mg3  1  0.73192971  -0.00000000  0.50000000  1
  Mg  Mg4  1  0.26807029  0.50000000  -0.00000000  1
  Mg  Mg5  1  0.73192971  0.50000000  0.00000000  1
  Sb  Sb0  1  0.00000000  0.50000000  0.50000000  1
  O  O0  1  0.27855675  -0.00000000  0.00000000  1
  O  O1  1  0.72144325  0.00000000  -0.00000000  1
  O  O2  1  0.26510633  0.50000000  0.50000000  1
  O  O3  1  0.73489367  0.50000000  0.50000000  1
  O  O4  1  0.00000000  0.00000000  0.50000000  1
  O  O5  1  0.50000000  0.00000000  0.50000000  1
  O  O6  1  0.00000000  0.50000000  0.00000000  1
  O  O7  1  0.50000000  0.50000000  0.00000000  1
loop_
_geom_bond_atom_site_label_1
_geom_bond_atom_site_label_2
_geom_bond_distance
_geom_bond_site_symmetry_2
K0 O6 2.274956 1_545
K0 O6 2.274956 1_555
K0 O4 2.274956 1_555
K0 O4 2.274956 1_554
K0 O0 2.499851 1_555
K0 O1 2.499851 1_455
Mg0 O0 1.987298 1_555
Mg0 O1 1.987298 1_555
Mg0 O5 2.274956 1_554
Mg0 O5 2.274956 1_555
Mg0 O7 2.274956 1_545
Mg0 O7 2.274956 1_555
Mg1 O2 2.108006 1_555
Mg1 O3 2.108006 1_555
Mg1 O5 2.274956 1_555
Mg1 O5 2.274956 1_565
Mg1 O7 2.274956 1_555
Mg1 O7 2.274956 1_556
Mg2 O5 2.081406 1_555
Mg2 O2 2.275112 1_545
Mg2 O2 2.275112 1_555
Mg2 O0 2.276902 1_555
Mg2 O0 2.276902 1_556
Mg2 O4 2.405742 1_555
Mg3 O5 2.081406 1_555
Mg3 O3 2.275112 1_555
Mg3 O3 2.275112 1_545
Mg3 O1 2.276902 1_555
Mg3 O1 2.276902 1_556
Mg3 O4 2.405742 1_655
Mg4 O7 2.081406 1_555
Mg4 O2 2.275112 1_554
Mg4 O2 2.275112 1_555
Mg4 O0 2.276902 1_555
Mg4 O0 2.276902 1_565
Mg4 O6 2.405742 1_555
Mg5 O7 2.081406 1_555
Mg5 O3 2.275112 1_555
Mg5 O3 2.275112 1_554
Mg5 O1 2.276902 1_555
Mg5 O1 2.276902 1_565
Mg5 O6 2.405742 1_655
O2 Sb0 2.379143 1_555
O3 Sb0 2.379143 1_655
O4 Sb0 2.274956 1_545
O4 Sb0 2.274956 1_555
O6 Sb0 2.274956 1_555
O6 Sb0 2.274956 1_554
