# generated using pymatgen
data_MgSn2
_symmetry_space_group_name_H-M   'P 1'
_cell_length_a   17.40853930
_cell_length_b   17.40853930
_cell_length_c   10.84101800
_cell_angle_alpha   90.00000000
_cell_angle_beta   90.00000000
_cell_angle_gamma   157.76918421
_symmetry_Int_Tables_number   1
_chemical_formula_structural   MgSn2
_chemical_formula_sum   'Mg16 Sn32'
_cell_volume   1243.01250240
_cell_formula_units_Z   16
loop_
 _symmetry_equiv_pos_site_id
 _symmetry_equiv_pos_as_xyz
  1  'x, y, z'
loop_
 _atom_site_type_symbol
 _atom_site_label
 _atom_site_symmetry_multiplicity
 _atom_site_fract_x
 _atom_site_fract_y
 _atom_site_fract_z
 _atom_site_occupancy
  Mg  Mg0_0  1  0.05567400  0.44432600  0.12500000  1
  Mg  Mg0_1  1  0.05567400  0.44432600  0.62500000  1
  Mg  Mg0_2  1  0.05567400  0.94432600  0.12500000  1
  Mg  Mg0_3  1  0.05567400  0.94432600  0.62500000  1
  Mg  Mg0_4  1  0.55567400  0.44432600  0.12500000  1
  Mg  Mg0_5  1  0.55567400  0.44432600  0.62500000  1
  Mg  Mg0_6  1  0.55567400  0.94432600  0.12500000  1
  Mg  Mg0_7  1  0.55567400  0.94432600  0.62500000  1
  Mg  Mg1_0  1  0.44432600  0.05567400  0.37500000  1
  Mg  Mg1_1  1  0.44432600  0.05567400  0.87500000  1
  Mg  Mg1_2  1  0.44432600  0.55567400  0.37500000  1
  Mg  Mg1_3  1  0.44432600  0.55567400  0.87500000  1
  Mg  Mg1_4  1  0.94432600  0.05567400  0.37500000  1
  Mg  Mg1_5  1  0.94432600  0.05567400  0.87500000  1
  Mg  Mg1_6  1  0.94432600  0.55567400  0.37500000  1
  Mg  Mg1_7  1  0.94432600  0.55567400  0.87500000  1
  Sn  Sn0_0  1  0.22160650  0.27839350  0.12500000  1
  Sn  Sn0_1  1  0.22160650  0.27839350  0.62500000  1
  Sn  Sn0_2  1  0.22160650  0.77839350  0.12500000  1
  Sn  Sn0_3  1  0.22160650  0.77839350  0.62500000  1
  Sn  Sn0_4  1  0.72160650  0.27839350  0.12500000  1
  Sn  Sn0_5  1  0.72160650  0.27839350  0.62500000  1
  Sn  Sn0_6  1  0.72160650  0.77839350  0.12500000  1
  Sn  Sn0_7  1  0.72160650  0.77839350  0.62500000  1
  Sn  Sn1_0  1  0.38805550  0.11194450  0.12500000  1
  Sn  Sn1_1  1  0.38805550  0.11194450  0.62500000  1
  Sn  Sn1_2  1  0.38805550  0.61194450  0.12500000  1
  Sn  Sn1_3  1  0.38805550  0.61194450  0.62500000  1
  Sn  Sn1_4  1  0.88805550  0.11194450  0.12500000  1
  Sn  Sn1_5  1  0.88805550  0.11194450  0.62500000  1
  Sn  Sn1_6  1  0.88805550  0.61194450  0.12500000  1
  Sn  Sn1_7  1  0.88805550  0.61194450  0.62500000  1
  Sn  Sn2_0  1  0.11194450  0.38805550  0.37500000  1
  Sn  Sn2_1  1  0.11194450  0.38805550  0.87500000  1
  Sn  Sn2_2  1  0.11194450  0.88805550  0.37500000  1
  Sn  Sn2_3  1  0.11194450  0.88805550  0.87500000  1
  Sn  Sn2_4  1  0.61194450  0.38805550  0.37500000  1
  Sn  Sn2_5  1  0.61194450  0.38805550  0.87500000  1
  Sn  Sn2_6  1  0.61194450  0.88805550  0.37500000  1
  Sn  Sn2_7  1  0.61194450  0.88805550  0.87500000  1
  Sn  Sn3_0  1  0.27839350  0.22160650  0.37500000  1
  Sn  Sn3_1  1  0.27839350  0.22160650  0.87500000  1
  Sn  Sn3_2  1  0.27839350  0.72160650  0.37500000  1
  Sn  Sn3_3  1  0.27839350  0.72160650  0.87500000  1
  Sn  Sn3_4  1  0.77839350  0.22160650  0.37500000  1
  Sn  Sn3_5  1  0.77839350  0.22160650  0.87500000  1
  Sn  Sn3_6  1  0.77839350  0.72160650  0.37500000  1
  Sn  Sn3_7  1  0.77839350  0.72160650  0.87500000  1
loop_
_geom_bond_atom_site_label_1
_geom_bond_atom_site_label_2
_geom_bond_distance
_geom_bond_site_symmetry_2
Mg0_0 Sn1_4 3.276761 1_455
Mg0_0 Sn1_2 3.276761 1_555
Mg0_0 Sn3_2 3.321145 1_555
Mg0_0 Sn3_3 3.321145 1_554
Mg0_0 Sn3_4 3.321145 1_455
Mg0_0 Sn3_5 3.321145 1_454
Mg0_0 Sn2_0 3.322828 1_555
Mg0_0 Sn2_1 3.322828 1_554
Mg0_0 Sn0_2 3.326366 1_555
Mg0_0 Sn0_4 3.326366 1_455
Mg0_1 Sn1_5 3.276761 1_455
Mg0_1 Sn1_3 3.276761 1_555
Mg0_1 Sn3_3 3.321145 1_555
Mg0_1 Sn3_2 3.321145 1_555
Mg0_1 Sn3_5 3.321145 1_455
Mg0_1 Sn3_4 3.321145 1_455
Mg0_1 Sn2_1 3.322828 1_555
Mg0_1 Sn2_0 3.322828 1_555
Mg0_1 Sn0_3 3.326366 1_555
Mg0_1 Sn0_5 3.326366 1_455
Mg0_2 Sn1_0 3.276761 1_565
Mg0_2 Sn1_6 3.276761 1_455
Mg0_2 Sn3_0 3.321145 1_565
Mg0_2 Sn3_1 3.321145 1_564
Mg0_2 Sn3_6 3.321145 1_455
Mg0_2 Sn3_7 3.321145 1_454
Mg0_2 Sn2_2 3.322828 1_555
Mg0_2 Sn2_3 3.322828 1_554
Mg0_2 Sn0_0 3.326366 1_565
Mg0_2 Sn0_6 3.326366 1_455
Mg0_3 Sn1_1 3.276761 1_565
Mg0_3 Sn1_7 3.276761 1_455
Mg0_3 Sn3_1 3.321145 1_565
Mg0_3 Sn3_0 3.321145 1_565
Mg0_3 Sn3_7 3.321145 1_455
Mg0_3 Sn3_6 3.321145 1_455
Mg0_3 Sn2_3 3.322828 1_555
Mg0_3 Sn2_2 3.322828 1_555
Mg0_3 Sn0_1 3.326366 1_565
Mg0_3 Sn0_7 3.326366 1_455
Mg0_4 Sn1_6 3.276761 1_555
Mg0_4 Sn1_0 3.276761 1_555
Mg0_4 Sn3_6 3.321145 1_555
Mg0_4 Sn3_7 3.321145 1_554
Mg0_4 Sn3_0 3.321145 1_555
Mg0_4 Sn3_1 3.321145 1_554
Mg0_4 Sn2_4 3.322828 1_555
Mg0_4 Sn2_5 3.322828 1_554
Mg0_4 Sn0_6 3.326366 1_555
Mg0_4 Sn0_0 3.326366 1_555
Mg0_5 Sn1_7 3.276761 1_555
Mg0_5 Sn1_1 3.276761 1_555
Mg0_5 Sn3_7 3.321145 1_555
Mg0_5 Sn3_1 3.321145 1_555
Mg0_5 Sn3_6 3.321145 1_555
Mg0_5 Sn3_0 3.321145 1_555
Mg0_5 Sn2_5 3.322828 1_555
Mg0_5 Sn2_4 3.322828 1_555
Mg0_5 Sn0_7 3.326366 1_555
Mg0_5 Sn0_1 3.326366 1_555
Mg0_6 Sn1_4 3.276761 1_565
Mg0_6 Sn1_2 3.276761 1_555
Mg0_6 Sn3_4 3.321145 1_565
Mg0_6 Sn3_2 3.321145 1_555
Mg0_6 Sn3_5 3.321145 1_564
Mg0_6 Sn3_3 3.321145 1_554
Mg0_6 Sn2_6 3.322828 1_555
Mg0_6 Sn2_7 3.322828 1_554
Mg0_6 Sn0_4 3.326366 1_565
Mg0_6 Sn0_2 3.326366 1_555
Mg0_7 Sn1_5 3.276761 1_565
Mg0_7 Sn1_3 3.276761 1_555
Mg0_7 Sn3_5 3.321145 1_565
Mg0_7 Sn3_3 3.321145 1_555
Mg0_7 Sn3_4 3.321145 1_565
Mg0_7 Sn3_2 3.321145 1_555
Mg0_7 Sn2_7 3.322828 1_555
Mg0_7 Sn2_6 3.322828 1_555
Mg0_7 Sn0_5 3.326366 1_565
Mg0_7 Sn0_3 3.326366 1_555
Mg1_0 Sn2_2 3.276761 1_545
Mg1_0 Sn2_4 3.276761 1_555
Mg1_0 Sn0_4 3.321145 1_555
Mg1_0 Sn0_5 3.321145 1_555
Mg1_0 Sn0_3 3.321145 1_545
Mg1_0 Sn0_2 3.321145 1_545
Mg1_0 Sn1_1 3.322828 1_555
Mg1_0 Sn1_0 3.322828 1_555
Mg1_0 Sn3_4 3.326366 1_555
Mg1_0 Sn3_2 3.326366 1_545
Mg1_1 Sn2_3 3.276761 1_545
Mg1_1 Sn2_5 3.276761 1_555
Mg1_1 Sn0_5 3.321145 1_555
Mg1_1 Sn0_3 3.321145 1_545
Mg1_1 Sn0_4 3.321145 1_556
Mg1_1 Sn0_2 3.321145 1_546
Mg1_1 Sn1_1 3.322828 1_555
Mg1_1 Sn1_0 3.322828 1_556
Mg1_1 Sn3_5 3.326366 1_555
Mg1_1 Sn3_3 3.326366 1_545
Mg1_2 Sn2_6 3.276761 1_555
Mg1_2 Sn2_0 3.276761 1_555
Mg1_2 Sn0_6 3.321145 1_555
Mg1_2 Sn0_7 3.321145 1_555
Mg1_2 Sn0_0 3.321145 1_555
Mg1_2 Sn0_1 3.321145 1_555
Mg1_2 Sn1_2 3.322828 1_555
Mg1_2 Sn1_3 3.322828 1_555
Mg1_2 Sn3_6 3.326366 1_555
Mg1_2 Sn3_0 3.326366 1_555
Mg1_3 Sn2_7 3.276761 1_555
Mg1_3 Sn2_1 3.276761 1_555
Mg1_3 Sn0_7 3.321145 1_555
Mg1_3 Sn0_1 3.321145 1_555
Mg1_3 Sn0_6 3.321145 1_556
Mg1_3 Sn0_0 3.321145 1_556
Mg1_3 Sn1_3 3.322828 1_555
Mg1_3 Sn1_2 3.322828 1_556
Mg1_3 Sn3_7 3.326366 1_555
Mg1_3 Sn3_1 3.326366 1_555
Mg1_4 Sn2_6 3.276761 1_545
Mg1_4 Sn2_0 3.276761 1_655
Mg1_4 Sn0_0 3.321145 1_655
Mg1_4 Sn0_1 3.321145 1_655
Mg1_4 Sn0_7 3.321145 1_545
Mg1_4 Sn0_6 3.321145 1_545
Mg1_4 Sn1_4 3.322828 1_555
Mg1_4 Sn1_5 3.322828 1_555
Mg1_4 Sn3_6 3.326366 1_545
Mg1_4 Sn3_0 3.326366 1_655
Mg1_5 Sn2_7 3.276761 1_545
Mg1_5 Sn2_1 3.276761 1_655
Mg1_5 Sn0_1 3.321145 1_655
Mg1_5 Sn0_7 3.321145 1_545
Mg1_5 Sn0_0 3.321145 1_656
Mg1_5 Sn0_6 3.321145 1_546
Mg1_5 Sn1_5 3.322828 1_555
Mg1_5 Sn1_4 3.322828 1_556
Mg1_5 Sn3_7 3.326366 1_545
Mg1_5 Sn3_1 3.326366 1_655
Mg1_6 Sn2_4 3.276761 1_555
Mg1_6 Sn2_2 3.276761 1_655
Mg1_6 Sn0_2 3.321145 1_655
Mg1_6 Sn0_3 3.321145 1_655
Mg1_6 Sn0_5 3.321145 1_555
Mg1_6 Sn0_4 3.321145 1_555
Mg1_6 Sn1_7 3.322828 1_555
Mg1_6 Sn1_6 3.322828 1_555
Mg1_6 Sn3_2 3.326366 1_655
Mg1_6 Sn3_4 3.326366 1_555
Mg1_7 Sn2_5 3.276761 1_555
Mg1_7 Sn2_3 3.276761 1_655
Mg1_7 Sn0_3 3.321145 1_655
Mg1_7 Sn0_5 3.321145 1_555
Mg1_7 Sn0_2 3.321145 1_656
Mg1_7 Sn0_4 3.321145 1_556
Mg1_7 Sn1_7 3.322828 1_555
Mg1_7 Sn1_6 3.322828 1_556
Mg1_7 Sn3_3 3.326366 1_655
Mg1_7 Sn3_5 3.326366 1_555
Sn0_0 Sn1_2 3.311142 1_555
Sn0_0 Sn1_4 3.311142 1_455
Sn0_0 Sn3_0 3.333068 1_555
Sn0_0 Sn3_1 3.333068 1_554
Sn0_0 Sn0_6 3.356120 1_445
Sn0_0 Sn0_6 3.356120 1_555
Sn0_1 Sn1_3 3.311142 1_555
Sn0_1 Sn1_5 3.311142 1_455
Sn0_1 Sn3_1 3.333068 1_555
Sn0_1 Sn3_0 3.333068 1_555
Sn0_1 Sn0_7 3.356120 1_445
Sn0_1 Sn0_7 3.356120 1_555
Sn0_2 Sn1_6 3.311142 1_455
Sn0_2 Sn1_0 3.311142 1_565
Sn0_2 Sn3_2 3.333068 1_555
Sn0_2 Sn3_3 3.333068 1_554
Sn0_2 Sn0_4 3.356120 1_565
Sn0_2 Sn0_4 3.356120 1_455
Sn0_3 Sn1_7 3.311142 1_455
Sn0_3 Sn1_1 3.311142 1_565
Sn0_3 Sn3_3 3.333068 1_555
Sn0_3 Sn3_2 3.333068 1_555
Sn0_3 Sn0_5 3.356120 1_565
Sn0_3 Sn0_5 3.356120 1_455
Sn0_4 Sn1_0 3.311142 1_555
Sn0_4 Sn1_6 3.311142 1_555
Sn0_4 Sn3_4 3.333068 1_555
Sn0_4 Sn3_5 3.333068 1_554
Sn0_5 Sn1_1 3.311142 1_555
Sn0_5 Sn1_7 3.311142 1_555
Sn0_5 Sn3_5 3.333068 1_555
Sn0_5 Sn3_4 3.333068 1_555
Sn0_6 Sn1_2 3.311142 1_555
Sn0_6 Sn1_4 3.311142 1_565
Sn0_6 Sn3_6 3.333068 1_555
Sn0_6 Sn3_7 3.333068 1_554
Sn0_7 Sn1_3 3.311142 1_555
Sn0_7 Sn1_5 3.311142 1_565
Sn0_7 Sn3_7 3.333068 1_555
Sn0_7 Sn3_6 3.333068 1_555
Sn2_0 Sn3_2 3.311142 1_555
Sn2_0 Sn3_4 3.311142 1_455
Sn2_1 Sn3_3 3.311142 1_555
Sn2_1 Sn3_5 3.311142 1_455
Sn2_2 Sn3_0 3.311142 1_565
Sn2_2 Sn3_6 3.311142 1_455
Sn2_3 Sn3_1 3.311142 1_565
Sn2_3 Sn3_7 3.311142 1_455
Sn2_4 Sn3_0 3.311142 1_555
Sn2_4 Sn3_6 3.311142 1_555
Sn2_5 Sn3_7 3.311142 1_555
Sn2_5 Sn3_1 3.311142 1_555
Sn2_6 Sn3_2 3.311142 1_555
Sn2_6 Sn3_4 3.311142 1_565
Sn2_7 Sn3_3 3.311142 1_555
Sn2_7 Sn3_5 3.311142 1_565
Sn3_0 Sn3_6 3.356120 1_445
Sn3_0 Sn3_6 3.356120 1_555
Sn3_1 Sn3_7 3.356120 1_445
Sn3_1 Sn3_7 3.356120 1_555
Sn3_2 Sn3_4 3.356120 1_455
Sn3_2 Sn3_4 3.356120 1_565
Sn3_3 Sn3_5 3.356120 1_455
Sn3_3 Sn3_5 3.356120 1_565
