# generated using pymatgen
data_Mn2Ni9N8
_symmetry_space_group_name_H-M   'P 1'
_cell_length_a   7.87064261
_cell_length_b   4.14480966
_cell_length_c   5.84621336
_cell_angle_alpha   89.99999933
_cell_angle_beta   73.89818584
_cell_angle_gamma   74.73354623
_symmetry_Int_Tables_number   1
_chemical_formula_structural   Mn2Ni9N8
_chemical_formula_sum   'Mn2 Ni9 N8'
_cell_volume   176.21968233
_cell_formula_units_Z   1
loop_
 _symmetry_equiv_pos_site_id
 _symmetry_equiv_pos_as_xyz
  1  'x, y, z'
loop_
 _atom_site_type_symbol
 _atom_site_label
 _atom_site_symmetry_multiplicity
 _atom_site_fract_x
 _atom_site_fract_y
 _atom_site_fract_z
 _atom_site_occupancy
  Mn  Mn0  1  0.36507100  0.81746500  0.79146400  1
  Mn  Mn1  1  0.63492900  0.18253500  0.20853600  1
  Ni  Ni0  1  0.00000000  0.50000000  0.50000000  1
  Ni  Ni1  1  0.04620200  0.97689900  0.71744700  1
  Ni  Ni2  1  0.95379800  0.02310100  0.28255300  1
  Ni  Ni3  1  0.68414200  0.65792900  0.46645700  1
  Ni  Ni4  1  0.31585800  0.34207100  0.53354300  1
  Ni  Ni5  1  0.80039800  0.59980000  0.98795600  1
  Ni  Ni6  1  0.19960200  0.40020000  0.01204400  1
  Ni  Ni7  1  0.42460200  0.78769900  0.19058900  1
  Ni  Ni8  1  0.57539800  0.21230100  0.80941100  1
  N  N0  1  0.19793300  0.90103400  0.06908000  1
  N  N1  1  0.80206700  0.09896600  0.93092000  1
  N  N2  1  0.30075000  0.84962500  0.52456700  1
  N  N3  1  0.69925000  0.15037500  0.47543300  1
  N  N4  1  0.59078500  0.70460800  0.82625300  1
  N  N5  1  0.40921500  0.29539200  0.17374700  1
  N  N6  1  0.92717300  0.53641300  0.23531100  1
  N  N7  1  0.07282700  0.46358700  0.76468900  1
loop_
_geom_bond_atom_site_label_1
_geom_bond_atom_site_label_2
_geom_bond_distance
_geom_bond_site_symmetry_2
Mn0 N0 1.749393 1_556
Mn0 N2 1.763896 1_555
Mn0 N4 1.782968 1_555
Mn1 N1 1.749393 1_554
Mn1 N3 1.763896 1_555
Mn1 N5 1.782968 1_555
N0 Ni2 1.914035 1_465
N0 Ni7 2.041982 1_555
N0 Ni6 2.098516 1_555
N0 Ni6 2.098520 1_565
N1 Ni1 1.914035 1_645
N1 Ni8 2.041982 1_555
N1 Ni5 2.098516 1_555
N1 Ni5 2.098520 1_545
N2 Ni7 1.908111 1_555
N2 Ni1 1.937513 1_555
N2 Ni4 2.077074 1_555
N2 Ni4 2.077074 1_565
N3 Ni8 1.908111 1_555
N3 Ni2 1.937513 1_555
N3 Ni3 2.077074 1_555
N3 Ni3 2.077074 1_545
N4 Ni3 2.017334 1_555
N4 Ni5 2.071689 1_555
N4 Ni8 2.079618 1_565
N4 Ni8 2.079622 1_555
N4 Ni7 2.140950 1_556
N5 Ni4 2.017334 1_555
N5 Ni6 2.071689 1_555
N5 Ni7 2.079618 1_545
N5 Ni7 2.079622 1_555
N5 Ni8 2.140950 1_554
N6 Ni0 1.786703 1_655
N6 Ni3 1.948712 1_555
N6 Ni5 1.954002 1_554
N6 Ni6 2.104778 1_655
N6 Ni2 2.108105 1_555
N6 Ni2 2.108109 1_565
N7 Ni0 1.786703 1_555
N7 Ni4 1.948712 1_555
N7 Ni6 1.954002 1_556
N7 Ni5 2.104778 1_455
N7 Ni1 2.108105 1_555
N7 Ni1 2.108109 1_545
