# generated using pymatgen
data_Yb2FeC4
_symmetry_space_group_name_H-M   'P 1'
_cell_length_a   6.76942090
_cell_length_b   6.76942090
_cell_length_c   6.76942090
_cell_angle_alpha   136.67309293
_cell_angle_beta   112.92460513
_cell_angle_gamma   83.28272871
_symmetry_Int_Tables_number   1
_chemical_formula_structural   Yb2FeC4
_chemical_formula_sum   'Yb4 Fe2 C8'
_cell_volume   189.12495329
_cell_formula_units_Z   2
loop_
 _symmetry_equiv_pos_site_id
 _symmetry_equiv_pos_as_xyz
  1  'x, y, z'
loop_
 _atom_site_type_symbol
 _atom_site_label
 _atom_site_symmetry_multiplicity
 _atom_site_fract_x
 _atom_site_fract_y
 _atom_site_fract_z
 _atom_site_occupancy
  Yb  Yb0  1  0.18854900  0.35503400  0.83351500  1
  Yb  Yb1  1  0.81145100  0.64496600  0.16648500  1
  Yb  Yb2  1  0.52151800  0.85503400  0.66648500  1
  Yb  Yb3  1  0.47848200  0.14496600  0.33351500  1
  Fe  Fe0  1  0.00000000  0.25000000  0.25000000  1
  Fe  Fe1  1  0.00000000  0.75000000  0.75000000  1
  C  C0  1  0.79605000  0.12809800  0.66795300  1
  C  C1  1  0.20395000  0.87190200  0.33204700  1
  C  C2  1  0.46014500  0.62809800  0.83204700  1
  C  C3  1  0.53985500  0.37190200  0.16795300  1
  C  C4  1  0.91073600  0.07978300  0.83095300  1
  C  C5  1  0.08926400  0.92021700  0.16904700  1
  C  C6  1  0.24883000  0.57978300  0.66904700  1
  C  C7  1  0.75117000  0.42021700  0.33095300  1
loop_
_geom_bond_atom_site_label_1
_geom_bond_atom_site_label_2
_geom_bond_distance
_geom_bond_site_symmetry_2
C0 C4 1.313592 1_555
C0 Yb1 2.504802 1_556
C0 Yb1 2.504807 1_545
C0 Yb3 2.507409 1_555
C0 Yb0 2.608784 1_655
C0 Yb2 2.762836 1_545
C1 C5 1.313592 1_555
C1 Yb0 2.504802 1_554
C1 Yb0 2.504807 1_565
C1 Yb2 2.507409 1_555
C1 Yb1 2.608784 1_455
C1 Yb3 2.762836 1_565
C2 C6 1.313590 1_555
C2 Yb3 2.504802 1_566
C2 Yb3 2.504807 1_555
C2 Yb1 2.507416 1_556
C2 Yb2 2.608775 1_555
C2 Yb0 2.762836 1_555
C3 C7 1.313590 1_555
C3 Yb2 2.504802 1_544
C3 Yb2 2.504807 1_555
C3 Yb0 2.507416 1_554
C3 Yb3 2.608775 1_555
C3 Yb1 2.762836 1_555
C4 Fe0 1.952361 1_656
C4 Fe1 1.952361 1_645
C4 Yb2 2.585426 1_545
C4 Yb0 2.785008 1_655
C4 Yb1 2.862376 1_556
C4 Yb1 2.862376 1_545
C5 Fe1 1.952361 1_554
C5 Fe0 1.952361 1_565
C5 Yb3 2.585426 1_565
C5 Yb1 2.785008 1_455
C5 Yb0 2.862376 1_554
C5 Yb0 2.862376 1_565
C6 Fe1 1.952361 1_555
C6 Fe0 1.952361 1_555
C6 Yb0 2.585420 1_555
C6 Yb2 2.785003 1_555
C6 Yb3 2.862377 1_566
C6 Yb3 2.862381 1_555
C7 Fe1 1.952361 1_655
C7 Fe0 1.952361 1_655
C7 Yb1 2.585420 1_555
C7 Yb3 2.785003 1_555
C7 Yb2 2.862377 1_544
C7 Yb2 2.862381 1_555
