# generated using pymatgen
data_SrGa3Pd
_symmetry_space_group_name_H-M   'P 1'
_cell_length_a   6.12131270
_cell_length_b   6.12131270
_cell_length_c   6.01136307
_cell_angle_alpha   90.00000000
_cell_angle_beta   90.00000000
_cell_angle_gamma   116.55733635
_symmetry_Int_Tables_number   1
_chemical_formula_structural   SrGa3Pd
_chemical_formula_sum   'Sr2 Ga6 Pd2'
_cell_volume   201.48202945
_cell_formula_units_Z   2
loop_
 _symmetry_equiv_pos_site_id
 _symmetry_equiv_pos_as_xyz
  1  'x, y, z'
loop_
 _atom_site_type_symbol
 _atom_site_label
 _atom_site_symmetry_multiplicity
 _atom_site_fract_x
 _atom_site_fract_y
 _atom_site_fract_z
 _atom_site_occupancy
  Sr  Sr0  1  0.23515059  0.76484941  0.75000000  1
  Sr  Sr1  1  0.76484941  0.23515059  0.25000000  1
  Ga  Ga0  1  0.66067156  0.33932844  0.75000000  1
  Ga  Ga1  1  0.33932844  0.66067156  0.25000000  1
  Ga  Ga2  1  0.71899090  0.71899090  -0.00000000  1
  Ga  Ga3  1  0.71899090  0.71899090  0.50000000  1
  Ga  Ga4  1  0.28100910  0.28100910  0.00000000  1
  Ga  Ga5  1  0.28100910  0.28100910  0.50000000  1
  Pd  Pd0  1  0.90215582  0.09784418  0.75000000  1
  Pd  Pd1  1  0.09784418  0.90215582  0.25000000  1
loop_
_geom_bond_atom_site_label_1
_geom_bond_atom_site_label_2
_geom_bond_distance
_geom_bond_site_symmetry_2
Ga0 Pd0 2.514761 1_555
Ga0 Ga2 2.654285 1_556
Ga0 Ga3 2.654285 1_555
Ga0 Ga4 2.654285 1_556
Ga0 Ga5 2.654285 1_555
Ga0 Sr1 3.195480 1_555
Ga0 Sr1 3.195480 1_556
Ga0 Sr0 3.310650 1_655
Ga0 Sr0 3.310650 1_545
Ga1 Pd1 2.514761 1_555
Ga1 Ga3 2.654285 1_555
Ga1 Ga2 2.654285 1_555
Ga1 Ga5 2.654285 1_555
Ga1 Ga4 2.654285 1_555
Ga1 Sr0 3.195480 1_554
Ga1 Sr0 3.195480 1_555
Ga1 Sr1 3.310650 1_565
Ga1 Sr1 3.310650 1_455
Ga2 Pd1 2.562953 1_655
Ga2 Pd0 2.562953 1_564
Ga2 Ga4 2.819302 1_555
Ga2 Ga3 3.005682 1_554
Ga2 Ga3 3.005682 1_555
Ga2 Sr1 3.395167 1_565
Ga2 Sr0 3.395167 1_654
Ga2 Sr0 3.442768 1_554
Ga2 Sr1 3.442768 1_555
Ga3 Pd1 2.562953 1_655
Ga3 Pd0 2.562953 1_565
Ga3 Ga5 2.819302 1_555
Ga3 Sr0 3.395167 1_655
Ga3 Sr1 3.395167 1_565
Ga3 Sr0 3.442768 1_555
Ga3 Sr1 3.442768 1_555
Ga4 Pd1 2.562953 1_545
Ga4 Pd0 2.562953 1_454
Ga4 Ga5 3.005682 1_555
Ga4 Ga5 3.005682 1_554
Ga4 Sr1 3.395167 1_455
Ga4 Sr0 3.395167 1_544
Ga4 Sr1 3.442768 1_555
Ga4 Sr0 3.442768 1_554
Ga5 Pd1 2.562953 1_545
Ga5 Pd0 2.562953 1_455
Ga5 Sr1 3.395167 1_455
Ga5 Sr0 3.395167 1_545
Ga5 Sr1 3.442768 1_555
Ga5 Sr0 3.442768 1_555
Pd0 Sr1 3.328463 1_555
Pd0 Sr1 3.328463 1_556
Pd0 Sr0 3.467730 1_645
Pd0 Sr0 3.658346 1_655
Pd0 Sr0 3.658346 1_545
Pd1 Sr0 3.328463 1_555
Pd1 Sr0 3.328463 1_554
Pd1 Sr1 3.467730 1_465
Pd1 Sr1 3.658346 1_455
Pd1 Sr1 3.658346 1_565
