# generated using pymatgen
data_Mg3Si4
_symmetry_space_group_name_H-M   'P 1'
_cell_length_a   6.30625500
_cell_length_b   6.50835183
_cell_length_c   7.42637766
_cell_angle_alpha   113.37907124
_cell_angle_beta   108.08766693
_cell_angle_gamma   83.61452820
_symmetry_Int_Tables_number   1
_chemical_formula_structural   Mg3Si4
_chemical_formula_sum   'Mg6 Si8'
_cell_volume   265.92776037
_cell_formula_units_Z   2
loop_
 _symmetry_equiv_pos_site_id
 _symmetry_equiv_pos_as_xyz
  1  'x, y, z'
loop_
 _atom_site_type_symbol
 _atom_site_label
 _atom_site_symmetry_multiplicity
 _atom_site_fract_x
 _atom_site_fract_y
 _atom_site_fract_z
 _atom_site_occupancy
  Mg  Mg0  1  0.86016800  0.51904600  0.39132700  1
  Mg  Mg1  1  0.45876100  0.78833300  0.52315800  1
  Mg  Mg2  1  0.55395600  0.25899800  0.92022800  1
  Mg  Mg3  1  0.73700700  0.74541200  0.92840400  1
  Mg  Mg4  1  0.95061300  0.96681100  0.40204300  1
  Mg  Mg5  1  0.13897000  0.15252200  0.15151400  1
  Si  Si0  1  0.96355600  0.31281300  0.78972600  1
  Si  Si1  1  0.25106900  0.73462100  0.77780300  1
  Si  Si2  1  0.09562400  0.58135000  0.13938700  1
  Si  Si3  1  0.43152500  0.71630600  0.11578700  1
  Si  Si4  1  0.89962500  0.93553100  0.73918100  1
  Si  Si5  1  0.60163900  0.36150500  0.55346400  1
  Si  Si6  1  0.23256900  0.32428200  0.59986800  1
  Si  Si7  1  0.57155900  0.10269800  0.21480200  1
loop_
_geom_bond_atom_site_label_1
_geom_bond_atom_site_label_2
_geom_bond_distance
_geom_bond_site_symmetry_2
Mg0 Si5 2.780249 1_555
Mg0 Si6 2.856210 1_655
Mg0 Si4 2.876889 1_555
Mg0 Si2 2.886339 1_655
Mg0 Si7 3.028211 1_555
Mg0 Si1 3.076216 1_655
Mg1 Si1 2.752887 1_555
Mg1 Si4 2.797173 1_555
Mg1 Si3 2.823364 1_555
Mg1 Si5 2.897068 1_555
Mg1 Si2 2.961109 1_555
Mg2 Si7 2.724518 1_556
Mg2 Si6 2.750458 1_555
Mg2 Si3 2.884169 1_556
Mg2 Si4 3.089398 1_545
Mg2 Si0 3.123960 1_555
Mg2 Si5 3.154287 1_555
Mg3 Si4 2.667297 1_555
Mg3 Si2 2.701848 1_656
Mg3 Si3 2.763797 1_556
Mg3 Si7 2.816507 1_566
Mg3 Si5 2.863903 1_555
Mg3 Si1 2.916160 1_555
Mg3 Si0 2.957452 1_555
Mg4 Si7 2.621365 1_565
Mg4 Si6 2.705227 1_665
Mg4 Si4 2.707839 1_555
Mg4 Si2 2.765581 1_655
Mg4 Si0 2.848930 1_565
Mg5 Si7 2.626054 1_555
Mg5 Si4 2.796698 1_444
Mg5 Si2 2.808346 1_555
Mg5 Si6 2.942281 1_555
Mg5 Si0 3.106933 1_454
Mg5 Si1 3.224848 1_544
Si0 Si4 2.393238 1_545
Si0 Si2 2.422861 1_656
Si0 Si5 2.486330 1_555
Si0 Si6 2.543324 1_655
Si1 Si4 2.441790 1_455
Si1 Si3 2.458244 1_556
Si1 Si6 2.462698 1_555
Si2 Si3 2.460864 1_555
Si3 Si7 2.503568 1_565
Si5 Si7 2.368831 1_555
Si5 Si6 2.506828 1_555
