# generated using pymatgen
data_Ba2Li(NiO3)2
_symmetry_space_group_name_H-M   'P 1'
_cell_length_a   5.77533700
_cell_length_b   5.77533627
_cell_length_c   7.26728700
_cell_angle_alpha   90.00000000
_cell_angle_beta   90.00000000
_cell_angle_gamma   119.99999847
_symmetry_Int_Tables_number   1
_chemical_formula_structural   Ba2Li(NiO3)2
_chemical_formula_sum   'Ba2 Li1 Ni2 O6'
_cell_volume   209.92180750
_cell_formula_units_Z   1
loop_
 _symmetry_equiv_pos_site_id
 _symmetry_equiv_pos_as_xyz
  1  'x, y, z'
loop_
 _atom_site_type_symbol
 _atom_site_label
 _atom_site_symmetry_multiplicity
 _atom_site_fract_x
 _atom_site_fract_y
 _atom_site_fract_z
 _atom_site_occupancy
  Ba  Ba0  1  0.66666700  0.33333400  0.89150800  1
  Ba  Ba1  1  0.33333300  0.66666600  0.12969300  1
  Li  Li0  1  0.00000000  0.00000000  0.69504300  1
  Ni  Ni0  1  0.00000000  0.00000000  0.00432100  1
  Ni  Ni1  1  0.00000000  0.00000000  0.32562300  1
  O  O0  1  0.84682800  0.15317200  0.18008500  1
  O  O1  1  0.70029400  0.85014700  0.85155600  1
  O  O2  1  0.14985400  0.29970600  0.85155600  1
  O  O3  1  0.84682700  0.69365400  0.18008500  1
  O  O4  1  0.14985400  0.85014700  0.85155600  1
  O  O5  1  0.30634400  0.15317200  0.18008500  1
loop_
_geom_bond_atom_site_label_1
_geom_bond_atom_site_label_2
_geom_bond_distance
_geom_bond_site_symmetry_2
Ba0 O3 2.765132 1_556
Ba0 O0 2.765142 1_556
Ba0 O5 2.765142 1_556
Ba0 O2 2.907092 1_555
Ba0 O1 2.907094 1_555
Ba0 O4 2.907097 1_655
Ba0 O4 2.907097 1_545
Ba0 O1 2.907100 1_545
Ba0 O2 2.907103 1_655
Ba1 O2 2.730254 1_554
Ba1 O4 2.730254 1_554
Ba1 O1 2.730258 1_554
Ba1 O5 2.913922 1_555
Ba1 O0 2.913923 1_455
Ba1 O3 2.913925 1_455
Ba1 O3 2.913926 1_555
Ba1 O5 2.913928 1_565
Ba1 O0 2.913928 1_565
Li0 O2 1.881689 1_555
Li0 O1 1.881689 1_445
Li0 O4 1.881693 1_545
Li0 Ni1 2.684681 1_555
Ni0 O2 1.865351 1_554
Ni0 O1 1.865351 1_444
Ni0 O4 1.865355 1_544
Ni0 O0 1.994799 1_455
Ni0 O5 1.994799 1_555
Ni0 O3 1.994806 1_445
Ni1 O0 1.861804 1_455
Ni1 O5 1.861804 1_555
Ni1 O3 1.861812 1_445
