# generated using pymatgen
data_Yb2MgS4
_symmetry_space_group_name_H-M   'P 1'
_cell_length_a   8.58111205
_cell_length_b   9.12020824
_cell_length_c   9.51407209
_cell_angle_alpha   71.55941395
_cell_angle_beta   78.08956458
_cell_angle_gamma   96.04033117
_symmetry_Int_Tables_number   1
_chemical_formula_structural   Yb2MgS4
_chemical_formula_sum   'Yb8 Mg4 S16'
_cell_volume   679.38507226
_cell_formula_units_Z   4
loop_
 _symmetry_equiv_pos_site_id
 _symmetry_equiv_pos_as_xyz
  1  'x, y, z'
loop_
 _atom_site_type_symbol
 _atom_site_label
 _atom_site_symmetry_multiplicity
 _atom_site_fract_x
 _atom_site_fract_y
 _atom_site_fract_z
 _atom_site_occupancy
  Yb  Yb0  1  0.10524300  0.66196200  0.67978500  1
  Yb  Yb1  1  0.89475700  0.33803800  0.32021500  1
  Yb  Yb2  1  0.25206800  0.85396000  0.99346700  1
  Yb  Yb3  1  0.74793200  0.14604000  0.00653300  1
  Yb  Yb4  1  0.36699800  0.54130300  0.34650900  1
  Yb  Yb5  1  0.63300200  0.45869700  0.65349100  1
  Yb  Yb6  1  0.36652000  0.03522800  0.36117100  1
  Yb  Yb7  1  0.63348000  0.96477200  0.63882900  1
  Mg  Mg0  1  0.11821100  0.18057200  0.63102700  1
  Mg  Mg1  1  0.88178900  0.81942800  0.36897300  1
  Mg  Mg2  1  0.24750600  0.32498100  0.95057000  1
  Mg  Mg3  1  0.75249400  0.67501900  0.04943000  1
  S  S0  1  0.11700800  0.53388000  0.01497300  1
  S  S1  1  0.88299200  0.46612000  0.98502700  1
  S  S2  1  0.06343600  0.11016000  0.92039200  1
  S  S3  1  0.93656400  0.88984000  0.07960800  1
  S  S4  1  0.18434500  0.77070600  0.34755700  1
  S  S5  1  0.81565500  0.22929400  0.65244300  1
  S  S6  1  0.19257300  0.26850900  0.35240900  1
  S  S7  1  0.80742700  0.73149100  0.64759100  1
  S  S8  1  0.28862900  0.93913800  0.67516000  1
  S  S9  1  0.71137100  0.06086200  0.32484000  1
  S  S10  1  0.29122800  0.41838300  0.66650600  1
  S  S11  1  0.70877200  0.58161700  0.33349400  1
  S  S12  1  0.41895300  0.12304900  0.04826400  1
  S  S13  1  0.58104700  0.87695100  0.95173600  1
  S  S14  1  0.47423400  0.63450700  0.02028700  1
  S  S15  1  0.52576600  0.36549300  0.97971300  1
loop_
_geom_bond_atom_site_label_1
_geom_bond_atom_site_label_2
_geom_bond_distance
_geom_bond_site_symmetry_2
Mg0 S6 2.434386 1_555
Mg0 S2 2.548809 1_555
Mg0 S10 2.648510 1_555
Mg0 S5 2.657309 1_455
Mg0 S8 2.740356 1_545
Mg1 S7 2.434386 1_555
Mg1 S3 2.548809 1_555
Mg1 S11 2.648510 1_555
Mg1 S4 2.657309 1_655
Mg1 S9 2.740356 1_565
Mg2 S15 2.463189 1_555
Mg2 S0 2.482651 1_556
Mg2 S10 2.495639 1_555
Mg2 S2 2.511499 1_555
Mg2 S12 2.543973 1_556
Mg3 S14 2.463189 1_555
Mg3 S1 2.482651 1_554
Mg3 S11 2.495639 1_555
Mg3 S3 2.511499 1_555
Mg3 S13 2.543973 1_554
S0 S1 2.140557 1_454
S0 Yb2 2.952793 1_554
S0 Yb1 2.996108 1_455
S0 Yb0 3.057036 1_554
S1 Yb3 2.952793 1_556
S1 Yb0 2.996108 1_655
S1 Yb1 3.057036 1_556
S2 S3 2.109665 1_446
S2 Yb3 2.747524 1_456
S2 Yb2 2.965792 1_545
S3 Yb2 2.747524 1_654
S3 Yb3 2.965792 1_565
S4 Yb4 2.744255 1_555
S4 Yb6 2.787160 1_565
S4 Yb0 2.902546 1_555
S4 Yb2 3.121554 1_554
S5 Yb5 2.744255 1_555
S5 Yb7 2.787160 1_545
S5 Yb1 2.902546 1_555
S5 Yb3 3.121554 1_556
S6 Yb6 2.714600 1_555
S6 Yb4 2.743454 1_555
S6 Yb1 2.751046 1_455
S7 Yb7 2.714600 1_555
S7 Yb5 2.743454 1_555
S7 Yb0 2.751046 1_655
S8 Yb6 2.745018 1_565
S8 Yb0 2.816462 1_555
S8 Yb2 2.818028 1_555
S8 Yb7 2.883072 1_555
S9 Yb7 2.745018 1_545
S9 Yb1 2.816462 1_555
S9 Yb3 2.818028 1_555
S9 Yb6 2.883072 1_555
S10 Yb4 2.796185 1_555
S10 Yb0 2.887655 1_555
S10 Yb5 2.888979 1_555
S11 Yb5 2.796185 1_555
S11 Yb1 2.887655 1_555
S11 Yb4 2.888979 1_555
S12 S15 2.137522 1_554
S12 Yb3 2.744281 1_555
S12 Yb6 2.751251 1_555
S12 Yb2 2.953538 1_544
S13 S14 2.137522 1_556
S13 Yb2 2.744281 1_555
S13 Yb7 2.751251 1_555
S13 Yb3 2.953538 1_566
S14 S15 2.668536 1_554
S14 Yb4 2.861769 1_555
S14 Yb2 2.895885 1_554
S15 Yb5 2.861769 1_555
S15 Yb3 2.895885 1_556
