# generated using pymatgen
data_Re3(PbS3)2
_symmetry_space_group_name_H-M   'P 1'
_cell_length_a   9.75631355
_cell_length_b   9.75631355
_cell_length_c   11.95711276
_cell_angle_alpha   89.22098114
_cell_angle_beta   89.22098114
_cell_angle_gamma   58.49386095
_symmetry_Int_Tables_number   1
_chemical_formula_structural   Re3(PbS3)2
_chemical_formula_sum   'Re12 Pb8 S24'
_cell_volume   970.24711228
_cell_formula_units_Z   4
loop_
 _symmetry_equiv_pos_site_id
 _symmetry_equiv_pos_as_xyz
  1  'x, y, z'
loop_
 _atom_site_type_symbol
 _atom_site_label
 _atom_site_symmetry_multiplicity
 _atom_site_fract_x
 _atom_site_fract_y
 _atom_site_fract_z
 _atom_site_occupancy
  Re  Re0  1  0.48555800  0.11282400  0.63065400  1
  Re  Re1  1  0.51444200  0.88717600  0.36934600  1
  Re  Re2  1  0.88717600  0.51444200  0.86934600  1
  Re  Re3  1  0.11282400  0.48555800  0.13065400  1
  Re  Re4  1  0.60702200  0.80568800  0.58030100  1
  Re  Re5  1  0.39297800  0.19431200  0.41969900  1
  Re  Re6  1  0.19431200  0.39297800  0.91969900  1
  Re  Re7  1  0.80568800  0.60702200  0.08030100  1
  Re  Re8  1  0.30553500  0.02035300  0.53809200  1
  Re  Re9  1  0.69446500  0.97964700  0.46190800  1
  Re  Re10  1  0.97964700  0.69446500  0.96190800  1
  Re  Re11  1  0.02035300  0.30553500  0.03809200  1
  Pb  Pb0  1  0.39826700  0.60173300  0.75000000  1
  Pb  Pb1  1  0.60173300  0.39826700  0.25000000  1
  Pb  Pb2  1  0.66441200  0.12961200  0.02239600  1
  Pb  Pb3  1  0.33558800  0.87038800  0.97760400  1
  Pb  Pb4  1  0.87038800  0.33558800  0.47760400  1
  Pb  Pb5  1  0.12961200  0.66441200  0.52239600  1
  Pb  Pb6  1  0.82316300  0.17683700  0.75000000  1
  Pb  Pb7  1  0.17683700  0.82316300  0.25000000  1
  S  S0  1  0.40890000  0.94196600  0.72581300  1
  S  S1  1  0.59110000  0.05803400  0.27418700  1
  S  S2  1  0.05803400  0.59110000  0.77418700  1
  S  S3  1  0.94196600  0.40890000  0.22581300  1
  S  S4  1  0.45559800  0.27473900  0.80840200  1
  S  S5  1  0.54440200  0.72526100  0.19159800  1
  S  S6  1  0.72526100  0.54440200  0.69159800  1
  S  S7  1  0.27473900  0.45559800  0.30840200  1
  S  S8  1  0.76529400  0.90574700  0.65738600  1
  S  S9  1  0.23470600  0.09425300  0.34261400  1
  S  S10  1  0.09425300  0.23470600  0.84261400  1
  S  S11  1  0.90574700  0.76529400  0.15738600  1
  S  S12  1  0.57116900  0.26223700  0.51639700  1
  S  S13  1  0.42883100  0.73776300  0.48360300  1
  S  S14  1  0.73776300  0.42883100  0.98360300  1
  S  S15  1  0.26223700  0.57116900  0.01639700  1
  S  S16  1  0.69822300  0.79219700  0.92365500  1
  S  S17  1  0.30177700  0.20780300  0.07634500  1
  S  S18  1  0.20780300  0.30177700  0.57634500  1
  S  S19  1  0.79219700  0.69822300  0.42365500  1
  S  S20  1  0.05850100  0.04298400  0.60041900  1
  S  S21  1  0.94149900  0.95701600  0.39958100  1
  S  S22  1  0.95701600  0.94149900  0.89958100  1
  S  S23  1  0.04298400  0.05850100  0.10041900  1
loop_
_geom_bond_atom_site_label_1
_geom_bond_atom_site_label_2
_geom_bond_distance
_geom_bond_site_symmetry_2
Re0 S0 2.420955 1_545
Re0 S8 2.423952 1_545
Re0 S12 2.424135 1_555
Re0 S18 2.440799 1_555
Re0 S4 2.586463 1_555
Re1 S1 2.420955 1_565
Re1 S9 2.423952 1_565
Re1 S13 2.424135 1_555
Re1 S19 2.440799 1_555
Re1 S5 2.586463 1_555
Re2 S2 2.420955 1_655
Re2 S10 2.423952 1_655
Re2 S14 2.424135 1_555
Re2 S16 2.440799 1_555
Re2 S6 2.586463 1_555
Re3 S3 2.420955 1_455
Re3 S11 2.423952 1_455
Re3 S15 2.424135 1_555
Re3 S17 2.440799 1_555
Re3 S7 2.586463 1_555
Re4 S0 2.411772 1_555
Re4 S8 2.413633 1_555
Re4 S19 2.419308 1_555
Re4 S13 2.465362 1_555
Re4 S6 2.544810 1_555
Re5 S1 2.411772 1_555
Re5 S9 2.413633 1_555
Re5 S18 2.419308 1_555
Re5 S12 2.465362 1_555
Re5 S7 2.544810 1_555
Re6 S2 2.411772 1_555
Re6 S10 2.413633 1_555
Re6 S17 2.419308 1_556
Re6 S15 2.465362 1_556
Re6 S4 2.544810 1_555
Re7 S3 2.411772 1_555
Re7 S11 2.413633 1_555
Re7 S16 2.419308 1_554
Re7 S14 2.465362 1_554
Re7 S5 2.544810 1_555
Re8 S20 2.410886 1_555
Re8 S0 2.418448 1_545
Re8 S9 2.436786 1_555
Re8 S18 2.437836 1_555
Re8 S13 2.456413 1_545
Re9 S21 2.410886 1_555
Re9 S1 2.418448 1_565
Re9 S8 2.436786 1_555
Re9 S19 2.437836 1_555
Re9 S12 2.456413 1_565
Re10 S22 2.410886 1_555
Re10 S2 2.418448 1_655
Re10 S11 2.436786 1_556
Re10 S16 2.437836 1_555
Re10 S15 2.456413 1_656
Re11 S23 2.410886 1_555
Re11 S3 2.418448 1_455
Re11 S10 2.436786 1_554
Re11 S17 2.437836 1_555
Re11 S14 2.456413 1_454
Pb0 S4 3.010520 1_555
Pb0 S6 3.010520 1_555
Pb1 S7 3.010520 1_555
Pb1 S5 3.010520 1_555
Pb2 S22 2.856160 1_544
Pb2 S4 3.119414 1_554
Pb3 S23 2.856160 1_566
Pb3 S5 3.119414 1_556
Pb4 S20 2.856160 1_655
Pb4 S6 3.119414 1_555
Pb5 S21 2.856160 1_455
Pb5 S7 3.119414 1_555
Pb6 S20 2.644629 1_655
Pb6 S22 2.644629 1_545
Pb7 S23 2.644629 1_565
Pb7 S21 2.644629 1_455
