# generated using pymatgen
data_Tb3Cu3Sb4
_symmetry_space_group_name_H-M   'P 1'
_cell_length_a   8.28300511
_cell_length_b   8.28300511
_cell_length_c   8.28300511
_cell_angle_alpha   109.47122063
_cell_angle_beta   109.47122063
_cell_angle_gamma   109.47122063
_symmetry_Int_Tables_number   1
_chemical_formula_structural   Tb3Cu3Sb4
_chemical_formula_sum   'Tb6 Cu6 Sb8'
_cell_volume   437.46357438
_cell_formula_units_Z   2
loop_
 _symmetry_equiv_pos_site_id
 _symmetry_equiv_pos_as_xyz
  1  'x, y, z'
loop_
 _atom_site_type_symbol
 _atom_site_label
 _atom_site_symmetry_multiplicity
 _atom_site_fract_x
 _atom_site_fract_y
 _atom_site_fract_z
 _atom_site_occupancy
  Tb  Tb0  1  0.87500000  0.25000000  0.12500000  1
  Tb  Tb1  1  0.62500000  0.75000000  0.37500000  1
  Tb  Tb2  1  0.25000000  0.12500000  0.87500000  1
  Tb  Tb3  1  0.75000000  0.37500000  0.62500000  1
  Tb  Tb4  1  0.12500000  0.87500000  0.25000000  1
  Tb  Tb5  1  0.37500000  0.62500000  0.75000000  1
  Cu  Cu0  1  0.37500000  0.25000000  0.62500000  1
  Cu  Cu1  1  0.12500000  0.75000000  0.87500000  1
  Cu  Cu2  1  0.25000000  0.62500000  0.37500000  1
  Cu  Cu3  1  0.75000000  0.87500000  0.12500000  1
  Cu  Cu4  1  0.62500000  0.37500000  0.25000000  1
  Cu  Cu5  1  0.87500000  0.12500000  0.75000000  1
  Sb  Sb0  1  0.65809850  0.50000000  -0.00000000  1
  Sb  Sb1  1  0.50000000  -0.00000000  0.65809850  1
  Sb  Sb2  1  -0.00000000  0.65809850  0.50000000  1
  Sb  Sb3  1  0.84190150  0.84190150  0.84190150  1
  Sb  Sb4  1  0.50000000  -0.00000000  0.15809850  1
  Sb  Sb5  1  0.15809850  0.50000000  -0.00000000  1
  Sb  Sb6  1  0.00000000  0.15809850  0.50000000  1
  Sb  Sb7  1  0.34190150  0.34190150  0.34190150  1
loop_
_geom_bond_atom_site_label_1
_geom_bond_atom_site_label_2
_geom_bond_distance
_geom_bond_site_symmetry_2
Cu0 Sb0 2.655889 1_556
Cu0 Sb1 2.655889 1_555
Cu0 Sb6 2.655889 1_555
Cu0 Sb7 2.655889 1_555
Cu0 Tb4 2.928485 1_545
Cu0 Tb3 2.928485 1_555
Cu0 Tb5 2.928485 1_555
Cu0 Tb2 2.928485 1_555
Cu1 Sb2 2.655889 1_555
Cu1 Sb4 2.655889 1_566
Cu1 Sb3 2.655889 1_455
Cu1 Sb5 2.655889 1_556
Cu1 Tb2 2.928485 1_565
Cu1 Tb4 2.928485 1_556
Cu1 Tb5 2.928485 1_555
Cu1 Tb3 2.928485 1_455
Cu2 Sb2 2.655889 1_555
Cu2 Sb1 2.655889 1_565
Cu2 Sb5 2.655889 1_555
Cu2 Sb7 2.655889 1_555
Cu2 Tb4 2.928485 1_555
Cu2 Tb1 2.928485 1_555
Cu2 Tb5 2.928485 1_555
Cu2 Tb0 2.928485 1_455
Cu3 Sb0 2.655889 1_555
Cu3 Sb6 2.655889 1_665
Cu3 Sb3 2.655889 1_554
Cu3 Sb4 2.655889 1_565
Cu3 Tb5 2.928485 1_554
Cu3 Tb1 2.928485 1_555
Cu3 Tb0 2.928485 1_565
Cu3 Tb4 2.928485 1_655
Cu4 Sb2 2.655889 1_655
Cu4 Sb0 2.655889 1_555
Cu4 Sb4 2.655889 1_555
Cu4 Sb7 2.655889 1_555
Cu4 Tb0 2.928485 1_555
Cu4 Tb2 2.928485 1_554
Cu4 Tb3 2.928485 1_555
Cu4 Tb1 2.928485 1_555
Cu5 Sb1 2.655889 1_555
Cu5 Sb5 2.655889 1_656
Cu5 Sb3 2.655889 1_545
Cu5 Sb6 2.655889 1_655
Cu5 Tb1 2.928485 1_545
Cu5 Tb0 2.928485 1_556
Cu5 Tb3 2.928485 1_555
Cu5 Tb2 2.928485 1_655
Sb0 Tb5 3.266399 1_554
Sb0 Tb1 3.266399 1_555
Sb0 Tb2 3.266399 1_554
Sb0 Tb3 3.355177 1_554
Sb0 Tb0 3.355177 1_555
Sb0 Tb4 3.355177 1_655
Sb1 Tb4 3.266399 1_545
Sb1 Tb1 3.266399 1_545
Sb1 Tb3 3.266399 1_555
Sb1 Tb0 3.355177 1_556
Sb1 Tb5 3.355177 1_545
Sb1 Tb2 3.355177 1_555
Sb2 Tb5 3.266399 1_555
Sb2 Tb0 3.266399 1_455
Sb2 Tb3 3.266399 1_455
Sb2 Tb1 3.355177 1_455
Sb2 Tb4 3.355177 1_555
Sb2 Tb2 3.355177 1_565
Sb3 Tb2 3.266399 1_665
Sb3 Tb4 3.266399 1_656
Sb3 Tb0 3.266399 1_566
Sb3 Tb3 3.355177 1_555
Sb3 Tb1 3.355177 1_555
Sb3 Tb5 3.355177 1_555
Sb4 Tb2 3.266399 1_554
Sb4 Tb5 3.266399 1_544
Sb4 Tb0 3.266399 1_555
Sb4 Tb1 3.355177 1_545
Sb4 Tb3 3.355177 1_555
Sb4 Tb4 3.355177 1_545
Sb5 Tb0 3.266399 1_455
Sb5 Tb3 3.266399 1_454
Sb5 Tb4 3.266399 1_555
Sb5 Tb1 3.355177 1_555
Sb5 Tb2 3.355177 1_554
Sb5 Tb5 3.355177 1_554
Sb6 Tb2 3.266399 1_555
Sb6 Tb4 3.266399 1_545
Sb6 Tb1 3.266399 1_445
Sb6 Tb3 3.355177 1_455
Sb6 Tb0 3.355177 1_455
Sb6 Tb5 3.355177 1_555
Sb7 Tb1 3.266399 1_555
Sb7 Tb5 3.266399 1_555
Sb7 Tb3 3.266399 1_555
Sb7 Tb0 3.355177 1_455
Sb7 Tb4 3.355177 1_545
Sb7 Tb2 3.355177 1_554
