# generated using pymatgen
data_Ba8Sb4H2O
_symmetry_space_group_name_H-M   'P 1'
_cell_length_a   19.33609295
_cell_length_b   19.33609295
_cell_length_c   19.33609295
_cell_angle_alpha   164.35736127
_cell_angle_beta   164.35736127
_cell_angle_gamma   22.19184602
_symmetry_Int_Tables_number   1
_chemical_formula_structural   Ba8Sb4H2O
_chemical_formula_sum   'Ba8 Sb4 H2 O1'
_cell_volume   525.51640181
_cell_formula_units_Z   1
loop_
 _symmetry_equiv_pos_site_id
 _symmetry_equiv_pos_as_xyz
  1  'x, y, z'
loop_
 _atom_site_type_symbol
 _atom_site_label
 _atom_site_symmetry_multiplicity
 _atom_site_fract_x
 _atom_site_fract_y
 _atom_site_fract_z
 _atom_site_occupancy
  Ba  Ba0  1  0.50000000  0.00000000  0.50000000  1
  Ba  Ba1  1  0.00000000  0.50000000  0.50000000  1
  Ba  Ba2  1  0.91493300  0.91493300  0.00000000  1
  Ba  Ba3  1  0.08506700  0.08506700  0.00000000  1
  Ba  Ba4  1  0.25000000  0.75000000  0.50000000  1
  Ba  Ba5  1  0.75000000  0.25000000  0.50000000  1
  Ba  Ba6  1  0.65931600  0.65931600  0.00000000  1
  Ba  Ba7  1  0.34068400  0.34068400  0.00000000  1
  Sb  Sb0  1  0.56707800  0.56707800  0.00000000  1
  Sb  Sb1  1  0.43292200  0.43292200  0.00000000  1
  Sb  Sb2  1  0.81985200  0.81985200  0.00000000  1
  Sb  Sb3  1  0.18014800  0.18014800  0.00000000  1
  H  H0  1  0.72855000  0.72855000  0.00000000  1
  H  H1  1  0.27145000  0.27145000  0.00000000  1
  O  O0  1  0.00000000  0.00000000  0.00000000  1
loop_
_geom_bond_atom_site_label_1
_geom_bond_atom_site_label_2
_geom_bond_distance
_geom_bond_site_symmetry_2
Ba0 O0 2.631337 1_555
Ba0 O0 2.631337 1_656
Ba0 Sb0 3.661122 1_545
Ba0 Sb1 3.661122 1_545
Ba0 Sb0 3.661122 1_556
Ba0 Sb1 3.661122 1_556
Ba1 O0 2.631337 1_555
Ba1 O0 2.631337 1_566
Ba1 Sb0 3.661122 1_556
Ba1 Sb0 3.661122 1_455
Ba1 Sb1 3.661122 1_455
Ba1 Sb1 3.661122 1_556
Ba2 O0 3.228230 1_665
Ba2 Sb2 3.608254 1_555
Ba2 Sb1 3.783372 1_554
Ba2 Sb1 3.783372 1_655
Ba2 Sb1 3.783372 1_666
Ba2 Sb1 3.783372 1_565
Ba3 O0 3.228230 1_555
Ba3 Sb3 3.608254 1_555
Ba3 Sb0 3.783372 1_455
Ba3 Sb0 3.783372 1_444
Ba3 Sb0 3.783372 1_556
Ba3 Sb0 3.783372 1_545
Ba4 H1 2.754369 1_566
Ba4 H0 2.754369 1_556
Ba4 H0 2.754369 1_455
Ba4 H1 2.754369 1_555
Ba4 Sb3 3.735083 1_555
Ba4 Sb3 3.735083 1_566
Ba4 Sb2 3.735083 1_455
Ba4 Sb2 3.735083 1_556
Ba5 H0 2.754369 1_545
Ba5 H1 2.754369 1_656
Ba5 H0 2.754369 1_556
Ba5 H1 2.754369 1_555
Ba5 Sb3 3.735083 1_555
Ba5 Sb3 3.735083 1_656
Ba5 Sb2 3.735083 1_545
Ba5 Sb2 3.735083 1_556
Ba6 H0 2.627379 1_555
Ba6 Sb0 3.500364 1_555
Ba6 Sb3 3.804320 1_554
Ba6 Sb3 3.804320 1_565
Ba6 Sb3 3.804320 1_655
Ba6 Sb3 3.804320 1_666
Ba7 H1 2.627379 1_555
Ba7 Sb1 3.500364 1_555
Ba7 Sb2 3.804320 1_556
Ba7 Sb2 3.804320 1_545
Ba7 Sb2 3.804320 1_444
Ba7 Sb2 3.804320 1_455
