# generated using pymatgen
data_Li9Mn2Co5O16
_symmetry_space_group_name_H-M   'P 1'
_cell_length_a   5.88717000
_cell_length_b   5.89002876
_cell_length_c   8.58292931
_cell_angle_alpha   70.61612698
_cell_angle_beta   87.99090175
_cell_angle_gamma   86.79341649
_symmetry_Int_Tables_number   1
_chemical_formula_structural   Li9Mn2Co5O16
_chemical_formula_sum   'Li9 Mn2 Co5 O16'
_cell_volume   280.26553298
_cell_formula_units_Z   1
loop_
 _symmetry_equiv_pos_site_id
 _symmetry_equiv_pos_as_xyz
  1  'x, y, z'
loop_
 _atom_site_type_symbol
 _atom_site_label
 _atom_site_symmetry_multiplicity
 _atom_site_fract_x
 _atom_site_fract_y
 _atom_site_fract_z
 _atom_site_occupancy
  Li  Li0  1  0.50000000  0.50000000  0.50000000  1
  Li  Li1  1  0.75533900  0.36675000  0.25871700  1
  Li  Li2  1  0.50000000  0.00000000  0.50000000  1
  Li  Li3  1  0.75499100  0.87425200  0.25769500  1
  Li  Li4  1  0.99730700  0.75045000  0.00112100  1
  Li  Li5  1  0.00269300  0.24955000  0.99887900  1
  Li  Li6  1  0.24500900  0.12574800  0.74230500  1
  Li  Li7  1  0.24466100  0.63325000  0.74128300  1
  Li  Li8  1  0.00000000  0.00000000  0.50000000  1
  Mn  Mn0  1  0.75510200  0.63427700  0.74594200  1
  Mn  Mn1  1  0.24489800  0.36572300  0.25405800  1
  Co  Co0  1  0.00000000  0.50000000  0.50000000  1
  Co  Co1  1  0.50320800  0.25097800  0.00208500  1
  Co  Co2  1  0.75500600  0.13030400  0.74770200  1
  Co  Co3  1  0.24499400  0.86969600  0.25229800  1
  Co  Co4  1  0.49679200  0.74902200  0.99791500  1
  O  O0  1  0.75541600  0.73387100  0.51199900  1
  O  O1  1  0.00105000  0.59713300  0.25983500  1
  O  O2  1  0.77388400  0.26094400  0.51910700  1
  O  O3  1  0.03356200  0.13094000  0.24852300  1
  O  O4  1  0.26418600  0.98017500  0.01087200  1
  O  O5  1  0.26261900  0.47807200  0.01141100  1
  O  O6  1  0.53185200  0.38037700  0.76219800  1
  O  O7  1  0.50314900  0.85813200  0.75732800  1
  O  O8  1  0.24458400  0.26612900  0.48800100  1
  O  O9  1  0.49685100  0.14186800  0.24267200  1
  O  O10  1  0.22611600  0.73905600  0.48089300  1
  O  O11  1  0.46814800  0.61962300  0.23780200  1
  O  O12  1  0.73738100  0.52192800  0.98858900  1
  O  O13  1  0.73581400  0.01982500  0.98912800  1
  O  O14  1  0.96643800  0.86906000  0.75147700  1
  O  O15  1  0.99895000  0.40286700  0.74016500  1
loop_
_geom_bond_atom_site_label_1
_geom_bond_atom_site_label_2
_geom_bond_distance
_geom_bond_site_symmetry_2
Li0 O2 2.054411 1_555
Li0 O10 2.054411 1_555
Li0 O8 2.122717 1_555
Li0 O0 2.122717 1_555
Li0 O11 2.135021 1_555
Li0 O6 2.135021 1_555
Li1 O1 2.040376 1_655
Li1 O3 2.106122 1_655
Li1 O9 2.109612 1_555
Li1 O2 2.116622 1_555
Li1 O11 2.161322 1_555
Li1 O12 2.195838 1_554
Li2 O7 2.086313 1_545
Li2 O9 2.086313 1_555
Li2 O0 2.090155 1_545
Li2 O8 2.090155 1_555
Li2 O2 2.334973 1_555
Li2 O10 2.334973 1_545
Li3 O0 2.061535 1_555
Li3 O9 2.102763 1_565
Li3 O1 2.116697 1_655
Li3 O13 2.181019 1_564
Li3 O3 2.273973 1_665
Li3 O11 2.367210 1_555
Li4 O14 2.032638 1_554
Li4 O1 2.101630 1_655
Li4 O12 2.122016 1_554
Li4 O13 2.127756 1_564
Li4 O4 2.151423 1_655
Li4 O5 2.157906 1_655
Li5 O3 2.032638 1_556
Li5 O15 2.101630 1_455
Li5 O5 2.122016 1_556
Li5 O4 2.127756 1_546
Li5 O13 2.151423 1_455
Li5 O12 2.157906 1_455
Li6 O8 2.061535 1_555
Li6 O7 2.102763 1_545
Li6 O15 2.116697 1_455
Li6 O4 2.181019 1_546
Li6 O14 2.273973 1_445
Li6 O6 2.367210 1_555
Li7 O15 2.040376 1_455
Li7 O14 2.106122 1_455
Li7 O7 2.109612 1_555
Li7 O10 2.116622 1_555
Li7 O6 2.161322 1_555
Li7 O5 2.195838 1_556
Li8 O10 2.020972 1_545
Li8 O2 2.020972 1_455
Li8 O14 2.043219 1_445
Li8 O3 2.043219 1_555
Li8 O8 2.162399 1_555
Li8 O0 2.162399 1_445
Mn0 O0 1.895745 1_555
Mn0 O14 1.924267 1_555
Mn0 O15 1.934451 1_555
Mn0 O7 1.950577 1_555
Mn0 O12 1.965650 1_555
Mn0 O6 2.012924 1_555
Mn1 O8 1.895745 1_555
Mn1 O3 1.924267 1_555
Mn1 O1 1.934451 1_555
Mn1 O9 1.950577 1_555
Mn1 O5 1.965650 1_555
Mn1 O11 2.012924 1_555
Co0 O15 1.947582 1_455
Co0 O1 1.947582 1_555
Co0 O2 1.955159 1_455
Co0 O10 1.955159 1_555
Co0 O8 1.960444 1_555
Co0 O0 1.960444 1_455
Co1 O13 1.903293 1_554
Co1 O5 1.911252 1_555
Co1 O9 1.948019 1_555
Co1 O6 1.948569 1_554
Co1 O12 2.138489 1_554
Co1 O4 2.166505 1_545
Co2 O2 1.856363 1_555
Co2 O14 1.916660 1_545
Co2 O6 1.950553 1_555
Co2 O13 1.956205 1_555
Co2 O15 2.196926 1_555
Co2 O7 2.223655 1_545
Co3 O10 1.856363 1_555
Co3 O3 1.916660 1_565
Co3 O11 1.950553 1_555
Co3 O4 1.956205 1_555
Co3 O1 2.196926 1_555
Co3 O9 2.223655 1_565
Co4 O4 1.903293 1_556
Co4 O12 1.911252 1_555
Co4 O7 1.948019 1_555
Co4 O11 1.948569 1_556
Co4 O5 2.138489 1_556
Co4 O13 2.166505 1_565
