# generated using pymatgen
data_Sr4Fe3ReO12
_symmetry_space_group_name_H-M   'P 1'
_cell_length_a   7.97115200
_cell_length_b   7.97114800
_cell_length_c   7.97114500
_cell_angle_alpha   90.00011501
_cell_angle_beta   89.99995687
_cell_angle_gamma   89.99982749
_symmetry_Int_Tables_number   1
_chemical_formula_structural   Sr4Fe3ReO12
_chemical_formula_sum   'Sr8 Fe6 Re2 O24'
_cell_volume   506.48043403
_cell_formula_units_Z   2
loop_
 _symmetry_equiv_pos_site_id
 _symmetry_equiv_pos_as_xyz
  1  'x, y, z'
loop_
 _atom_site_type_symbol
 _atom_site_label
 _atom_site_symmetry_multiplicity
 _atom_site_fract_x
 _atom_site_fract_y
 _atom_site_fract_z
 _atom_site_occupancy
  Sr  Sr0  1  0.75000100  0.24999900  0.74999800  1
  Sr  Sr1  1  0.24999900  0.75000000  0.25000100  1
  Sr  Sr2  1  0.24999900  0.74999700  0.74999900  1
  Sr  Sr3  1  0.75000100  0.25000000  0.25000100  1
  Sr  Sr4  1  0.25000000  0.25000100  0.24999800  1
  Sr  Sr5  1  0.75000100  0.75000000  0.74999900  1
  Sr  Sr6  1  0.24999800  0.25000200  0.75000000  1
  Sr  Sr7  1  0.75000300  0.74999800  0.25000100  1
  Fe  Fe0  1  0.00000100  0.50000000  0.50000100  1
  Fe  Fe1  1  0.49999900  0.50000000  0.00000000  1
  Fe  Fe2  1  0.50000000  0.00000000  0.50000000  1
  Fe  Fe3  1  0.50000000  0.00000000  0.00000000  1
  Fe  Fe4  1  0.00000000  0.00000000  0.50000000  1
  Fe  Fe5  1  0.00000100  0.50000100  0.99999900  1
  Re  Re0  1  0.00000100  0.00000400  0.00000300  1
  Re  Re1  1  0.49999700  0.49999500  0.50000100  1
  O  O0  1  0.75000100  0.50000000  0.99999800  1
  O  O1  1  0.24999900  0.00000100  0.50000000  1
  O  O2  1  0.75000100  0.99999900  0.50000000  1
  O  O3  1  0.24999900  0.50000000  0.00000100  1
  O  O4  1  0.50000000  0.99999900  0.75000200  1
  O  O5  1  0.00000100  0.50000000  0.24999800  1
  O  O6  1  0.00000000  0.50000100  0.75000200  1
  O  O7  1  0.50000000  0.00000100  0.24999800  1
  O  O8  1  0.50000000  0.24999700  0.99999900  1
  O  O9  1  0.00000100  0.75000400  0.50000000  1
  O  O10  1  0.00000100  0.24999600  0.50000000  1
  O  O11  1  0.50000000  0.75000300  0.99999900  1
  O  O12  1  0.23702000  0.00000000  0.00000100  1
  O  O13  1  0.73701800  0.49999900  0.50000000  1
  O  O14  1  0.76298000  0.00000000  0.00000000  1
  O  O15  1  0.26298200  0.50000000  0.50000000  1
  O  O16  1  0.49999900  0.49999900  0.73702100  1
  O  O17  1  0.00000100  0.00000100  0.23702100  1
  O  O18  1  0.49999900  0.50000000  0.26297900  1
  O  O19  1  0.99999900  0.99999900  0.76297800  1
  O  O20  1  0.50000000  0.26298300  0.50000000  1
  O  O21  1  0.00000000  0.76297900  0.99999900  1
  O  O22  1  0.49999900  0.73701800  0.50000000  1
  O  O23  1  0.00000000  0.23702300  0.00000000  1
loop_
_geom_bond_atom_site_label_1
_geom_bond_atom_site_label_2
_geom_bond_distance
_geom_bond_site_symmetry_2
Fe0 O6 1.992794 1_555
Fe0 O5 1.992810 1_555
Fe0 O10 1.992819 1_555
Fe0 O9 1.992819 1_555
Fe0 O15 2.096262 1_555
Fe0 O13 2.096277 1_455
Fe1 O3 1.992788 1_555
Fe1 O0 1.992804 1_554
Fe1 O8 1.992811 1_554
Fe1 O11 1.992811 1_554
Fe1 O16 2.096244 1_554
Fe1 O18 2.096244 1_555
Fe2 O2 1.992796 1_545
Fe2 O1 1.992796 1_555
Fe2 O4 1.992802 1_545
Fe2 O7 1.992802 1_555
Fe2 O22 2.096268 1_545
Fe2 O20 2.096276 1_555
Fe3 O11 1.992763 1_544
Fe3 O8 1.992763 1_554
Fe3 O7 1.992770 1_555
Fe3 O4 1.992770 1_544
Fe3 O14 2.096254 1_555
Fe3 O12 2.096254 1_555
Fe4 O9 1.992755 1_545
Fe4 O10 1.992755 1_555
Fe4 O2 1.992780 1_445
Fe4 O1 1.992780 1_555
Fe4 O19 2.096236 1_445
Fe4 O17 2.096244 1_555
Fe5 O6 1.992762 1_555
Fe5 O3 1.992772 1_556
Fe5 O5 1.992778 1_556
Fe5 O0 1.992788 1_455
Fe5 O21 2.096237 1_555
Fe5 O23 2.096237 1_556
O0 Sr5 2.818223 1_555
O0 Sr0 2.818229 1_555
O0 Sr7 2.818229 1_556
O0 Sr3 2.818246 1_556
O1 Sr1 2.818223 1_545
O1 Sr6 2.818229 1_555
O1 Sr4 2.818240 1_555
O1 Sr2 2.818246 1_545
O2 Sr0 2.818212 1_565
O2 Sr5 2.818217 1_555
O2 Sr7 2.818223 1_555
O2 Sr3 2.818229 1_565
O3 Sr4 2.818206 1_555
O3 Sr6 2.818217 1_554
O3 Sr1 2.818223 1_555
O3 Sr2 2.818223 1_554
O4 Sr5 2.818223 1_555
O4 Sr0 2.818237 1_565
O4 Sr2 2.818248 1_555
O4 Sr6 2.818251 1_565
O5 Sr7 2.818200 1_455
O5 Sr4 2.818212 1_555
O5 Sr1 2.818220 1_555
O5 Sr3 2.818231 1_455
O6 Sr2 2.818203 1_555
O6 Sr6 2.818206 1_555
O6 Sr5 2.818212 1_455
O6 Sr0 2.818237 1_455
O7 Sr4 2.818223 1_555
O7 Sr3 2.818231 1_555
O7 Sr1 2.818243 1_545
O7 Sr7 2.818257 1_545
O8 Sr4 2.818220 1_556
O8 Sr6 2.818233 1_555
O8 Sr0 2.818237 1_555
O8 Sr3 2.818245 1_556
O9 Sr1 2.818209 1_555
O9 Sr7 2.818211 1_455
O9 Sr2 2.818211 1_555
O9 Sr5 2.818220 1_455
O10 Sr6 2.818211 1_555
O10 Sr0 2.818214 1_455
O10 Sr3 2.818222 1_455
O10 Sr4 2.818231 1_555
O11 Sr5 2.818231 1_555
O11 Sr2 2.818233 1_555
O11 Sr1 2.818242 1_556
O11 Sr7 2.818256 1_556
O12 Re0 1.889314 1_555
O12 Sr4 2.820111 1_555
O12 Sr1 2.820127 1_545
O12 Sr6 2.820144 1_554
O12 Sr2 2.820149 1_544
O13 Re1 1.889330 1_555
O13 Sr3 2.820111 1_555
O13 Sr0 2.820117 1_555
O13 Sr7 2.820118 1_555
O13 Sr5 2.820123 1_555
O14 Re0 1.889330 1_655
O14 Sr3 2.820127 1_555
O14 Sr5 2.820127 1_544
O14 Sr0 2.820133 1_554
O14 Sr7 2.820144 1_545
O15 Re1 1.889283 1_555
O15 Sr2 2.820100 1_555
O15 Sr6 2.820117 1_555
O15 Sr1 2.820122 1_555
O15 Sr4 2.820128 1_555
O16 Re1 1.889321 1_555
O16 Sr2 2.820109 1_555
O16 Sr6 2.820119 1_555
O16 Sr0 2.820132 1_555
O16 Sr5 2.820146 1_555
O17 Re0 1.889305 1_555
O17 Sr3 2.820116 1_455
O17 Sr1 2.820116 1_545
O17 Sr4 2.820123 1_555
O17 Sr7 2.820136 1_445
O18 Re1 1.889337 1_555
O18 Sr4 2.820119 1_555
O18 Sr1 2.820121 1_555
O18 Sr3 2.820132 1_555
O18 Sr7 2.820141 1_555
O19 Re0 1.889361 1_666
O19 Sr0 2.820110 1_565
O19 Sr5 2.820113 1_555
O19 Sr2 2.820132 1_655
O19 Sr6 2.820141 1_665
O20 Re1 1.889258 1_555
O20 Sr0 2.820122 1_555
O20 Sr3 2.820125 1_555
O20 Sr6 2.820136 1_555
O20 Sr4 2.820138 1_555
O21 Re0 1.889361 1_566
O21 Sr2 2.820119 1_555
O21 Sr7 2.820119 1_456
O21 Sr5 2.820120 1_455
O21 Sr1 2.820132 1_556
O22 Re1 1.889345 1_555
O22 Sr2 2.820118 1_555
O22 Sr1 2.820121 1_555
O22 Sr5 2.820133 1_555
O22 Sr7 2.820141 1_555
O23 Re0 1.889314 1_555
O23 Sr6 2.820113 1_554
O23 Sr4 2.820114 1_555
O23 Sr3 2.820123 1_455
O23 Sr0 2.820131 1_454
