# generated using pymatgen
data_Li9Mn2Co5O16
_symmetry_space_group_name_H-M   'P 1'
_cell_length_a   4.97284100
_cell_length_b   5.88044064
_cell_length_c   9.77856976
_cell_angle_alpha   98.60848127
_cell_angle_beta   93.80772814
_cell_angle_gamma   89.97334192
_symmetry_Int_Tables_number   1
_chemical_formula_structural   Li9Mn2Co5O16
_chemical_formula_sum   'Li9 Mn2 Co5 O16'
_cell_volume   282.09121908
_cell_formula_units_Z   1
loop_
 _symmetry_equiv_pos_site_id
 _symmetry_equiv_pos_as_xyz
  1  'x, y, z'
loop_
 _atom_site_type_symbol
 _atom_site_label
 _atom_site_symmetry_multiplicity
 _atom_site_fract_x
 _atom_site_fract_y
 _atom_site_fract_z
 _atom_site_occupancy
  Li  Li0  1  0.36758500  0.06439200  0.24720500  1
  Li  Li1  1  0.63473900  0.43548400  0.75496000  1
  Li  Li2  1  0.87811300  0.80465600  0.24870100  1
  Li  Li3  1  0.87639900  0.31854900  0.24563100  1
  Li  Li4  1  0.12198600  0.68194100  0.75204900  1
  Li  Li5  1  0.36657200  0.55948200  0.24597400  1
  Li  Li6  1  0.63037800  0.94213200  0.75247400  1
  Li  Li7  1  0.12274700  0.19324200  0.75276900  1
  Li  Li8  1  0.00096200  0.49587100  0.00016300  1
  Mn  Mn0  1  0.00018000  0.00570400  0.00006700  1
  Mn  Mn1  1  0.50007800  0.74026900  0.00000300  1
  Co  Co0  1  0.25036100  0.37482000  0.49982600  1
  Co  Co1  1  0.74976400  0.12485900  0.49960300  1
  Co  Co2  1  0.25026300  0.87519200  0.49984200  1
  Co  Co3  1  0.50045800  0.25243400  0.00006400  1
  Co  Co4  1  0.74892600  0.62550200  0.50054900  1
  O  O0  1  0.19109100  0.79434700  0.11017900  1
  O  O1  1  0.44781700  0.15431200  0.61661600  1
  O  O2  1  0.65636500  0.52951000  0.11030400  1
  O  O3  1  0.68480000  0.02684900  0.10793700  1
  O  O4  1  0.94913300  0.40480200  0.61814900  1
  O  O5  1  0.18852700  0.26170700  0.11044700  1
  O  O6  1  0.44756200  0.65423100  0.61652300  1
  O  O7  1  0.94927800  0.90373900  0.61661200  1
  O  O8  1  0.55171800  0.34614900  0.38349100  1
  O  O9  1  0.80839700  0.73949000  0.88994000  1
  O  O10  1  0.05058600  0.09613600  0.38328600  1
  O  O11  1  0.05055500  0.59518200  0.38183000  1
  O  O12  1  0.31606600  0.97250400  0.89227700  1
  O  O13  1  0.55213400  0.84598000  0.38317600  1
  O  O14  1  0.81250600  0.20634600  0.88944100  1
  O  O15  1  0.34395200  0.47418800  0.88991300  1
loop_
_geom_bond_atom_site_label_1
_geom_bond_atom_site_label_2
_geom_bond_distance
_geom_bond_site_symmetry_2
Li0 O5 2.057405 1_555
Li0 O0 2.072563 1_545
Li0 O10 2.120026 1_555
Li0 O8 2.130253 1_555
Li0 O3 2.141665 1_555
Li0 O13 2.146557 1_545
Li1 O15 2.011846 1_555
Li1 O4 2.114686 1_555
Li1 O1 2.143062 1_555
Li1 O14 2.168246 1_555
Li1 O6 2.169424 1_555
Li1 O9 2.197141 1_555
Li2 O11 2.068379 1_655
Li2 O0 2.125125 1_655
Li2 O10 2.140482 1_665
Li2 O13 2.145477 1_555
Li2 O2 2.193920 1_555
Li2 O3 2.210762 1_565
Li3 O11 2.090356 1_655
Li3 O5 2.099555 1_655
Li3 O10 2.154970 1_655
Li3 O8 2.161916 1_555
Li3 O2 2.187512 1_555
Li3 O3 2.191529 1_555
Li4 O4 2.078991 1_455
Li4 O9 2.122885 1_455
Li4 O7 2.134881 1_455
Li4 O6 2.150397 1_555
Li4 O15 2.196004 1_555
Li4 O12 2.203534 1_555
Li5 O2 2.012841 1_555
Li5 O11 2.114717 1_555
Li5 O8 2.137570 1_555
Li5 O13 2.156431 1_555
Li5 O5 2.181123 1_555
Li5 O0 2.196867 1_555
Li6 O14 2.060419 1_565
Li6 O9 2.081123 1_555
Li6 O1 2.116803 1_565
Li6 O7 2.126162 1_555
Li6 O12 2.134075 1_555
Li6 O6 2.151082 1_555
Li7 O4 2.089086 1_455
Li7 O14 2.101221 1_455
Li7 O7 2.141327 1_445
Li7 O1 2.152298 1_555
Li7 O12 2.196555 1_545
Li7 O15 2.209163 1_555
Li8 O5 2.058840 1_555
Li8 O14 2.064953 1_454
Li8 O15 2.071375 1_554
Li8 O2 2.077656 1_455
Li8 O0 2.105491 1_555
Li8 O9 2.110658 1_454
Mn0 O14 1.918401 1_454
Mn0 O5 1.920714 1_555
Mn0 O3 1.941144 1_455
Mn0 O12 1.942857 1_544
Mn0 O0 1.967017 1_545
Mn0 O9 1.969822 1_444
Mn1 O2 1.895077 1_555
Mn1 O15 1.896248 1_554
Mn1 O9 1.930494 1_554
Mn1 O0 1.933818 1_555
Mn1 O12 2.028166 1_554
Mn1 O3 2.034191 1_565
Co0 O8 1.933161 1_555
Co0 O4 1.944882 1_455
Co0 O1 2.059854 1_555
Co0 O6 2.062784 1_555
Co0 O10 2.064777 1_555
Co0 O11 2.071683 1_555
Co1 O10 1.930885 1_655
Co1 O1 1.939707 1_555
Co1 O8 2.060344 1_555
Co1 O13 2.060428 1_545
Co1 O7 2.068249 1_545
Co1 O4 2.077076 1_555
Co2 O7 1.934328 1_455
Co2 O13 1.937270 1_555
Co2 O6 2.060752 1_555
Co2 O1 2.062637 1_565
Co2 O10 2.065149 1_565
Co2 O11 2.075976 1_555
Co3 O15 1.942819 1_554
Co3 O5 1.943940 1_555
Co3 O2 1.944797 1_555
Co3 O14 1.945859 1_554
Co3 O3 2.000520 1_555
Co3 O12 2.003759 1_544
Co4 O6 1.930979 1_555
Co4 O11 1.948949 1_655
Co4 O13 2.061804 1_555
Co4 O7 2.062320 1_555
Co4 O8 2.063979 1_555
Co4 O4 2.071583 1_555
