# generated using pymatgen
data_MgNi2
_symmetry_space_group_name_H-M   'P 1'
_cell_length_a   5.20532520
_cell_length_b   5.20532520
_cell_length_c   5.20532520
_cell_angle_alpha   148.46271096
_cell_angle_beta   148.46271096
_cell_angle_gamma   45.20277309
_symmetry_Int_Tables_number   1
_chemical_formula_structural   MgNi2
_chemical_formula_sum   'Mg1 Ni2'
_cell_volume   38.46365197
_cell_formula_units_Z   1
loop_
 _symmetry_equiv_pos_site_id
 _symmetry_equiv_pos_as_xyz
  1  'x, y, z'
loop_
 _atom_site_type_symbol
 _atom_site_label
 _atom_site_symmetry_multiplicity
 _atom_site_fract_x
 _atom_site_fract_y
 _atom_site_fract_z
 _atom_site_occupancy
  Mg  Mg0  1  0.00000000  0.00000000  0.00000000  1
  Ni  Ni0  1  0.32203200  0.32203200  0.00000000  1
  Ni  Ni1  1  0.67796800  0.67796800  0.00000000  1
loop_
_geom_bond_atom_site_label_1
_geom_bond_atom_site_label_2
_geom_bond_distance
_geom_bond_site_symmetry_2
Mg0 Ni1 2.632054 1_556
Mg0 Ni0 2.632054 1_444
Mg0 Ni1 2.632054 1_545
Mg0 Ni0 2.632054 1_556
Mg0 Ni1 2.632054 1_455
Mg0 Ni0 2.632054 1_455
Mg0 Ni1 2.632054 1_444
Mg0 Ni0 2.632054 1_545
Ni0 Ni1 2.432932 1_444
Ni0 Ni1 2.432932 1_545
Ni0 Ni1 2.432932 1_556
Ni0 Ni1 2.432932 1_455
