# generated using pymatgen
data_Li9Mn2Co5O16
_symmetry_space_group_name_H-M   'P 1'
_cell_length_a   10.80457596
_cell_length_b   10.80457596
_cell_length_c   9.85446380
_cell_angle_alpha   72.27636212
_cell_angle_beta   72.27636212
_cell_angle_gamma   15.47157043
_symmetry_Int_Tables_number   1
_chemical_formula_structural   Li9Mn2Co5O16
_chemical_formula_sum   'Li9 Mn2 Co5 O16'
_cell_volume   292.03923736
_cell_formula_units_Z   1
loop_
 _symmetry_equiv_pos_site_id
 _symmetry_equiv_pos_as_xyz
  1  'x, y, z'
loop_
 _atom_site_type_symbol
 _atom_site_label
 _atom_site_symmetry_multiplicity
 _atom_site_fract_x
 _atom_site_fract_y
 _atom_site_fract_z
 _atom_site_occupancy
  Li  Li0  1  0.42857800  0.42857800  0.80499700  1
  Li  Li1  1  0.31510700  0.31510700  0.44444700  1
  Li  Li2  1  0.18903800  0.18903800  0.06428800  1
  Li  Li3  1  0.81414800  0.81414800  0.93477900  1
  Li  Li4  1  0.69229700  0.69229700  0.55870500  1
  Li  Li5  1  0.56215800  0.56215800  0.19790600  1
  Li  Li6  1  0.06073700  0.06073700  0.67833400  1
  Li  Li7  1  0.93782000  0.93782000  0.31880600  1
  Li  Li8  1  0.87677600  0.87677600  0.62401100  1
  Mn  Mn0  1  0.99894600  0.99894600  0.99917700  1
  Mn  Mn1  1  0.62896500  0.62896500  0.87221800  1
  Co  Co0  1  0.74817700  0.74817700  0.25576400  1
  Co  Co1  1  0.49284000  0.49284000  0.50237400  1
  Co  Co2  1  0.37205000  0.37205000  0.12509700  1
  Co  Co3  1  0.26267100  0.26267100  0.74323500  1
  Co  Co4  1  0.12228300  0.12228300  0.37662600  1
  O  O0  1  0.53633900  0.53633900  0.85990500  1
  O  O1  1  0.41613000  0.41613000  0.46756700  1
  O  O2  1  0.27831400  0.27831400  0.11102800  1
  O  O3  1  0.90268300  0.90268300  0.97712900  1
  O  O4  1  0.77933800  0.77933800  0.60318100  1
  O  O5  1  0.65471000  0.65471000  0.23165400  1
  O  O6  1  0.15210000  0.15210000  0.73538100  1
  O  O7  1  0.03197700  0.03197700  0.35078600  1
  O  O8  1  0.33753200  0.33753200  0.78527600  1
  O  O9  1  0.21659400  0.21659400  0.39975200  1
  O  O10  1  0.10182300  0.10182300  0.01047100  1
  O  O11  1  0.71479900  0.71479900  0.89113800  1
  O  O12  1  0.58921100  0.58921100  0.51944200  1
  O  O13  1  0.47050900  0.47050900  0.13825800  1
  O  O14  1  0.97197500  0.97197500  0.64494500  1
  O  O15  1  0.84337600  0.84337600  0.27332500  1
loop_
_geom_bond_atom_site_label_1
_geom_bond_atom_site_label_2
_geom_bond_distance
_geom_bond_site_symmetry_2
Li0 O8 2.017721 1_555
Li0 O14 2.136755 1_455
Li0 O14 2.136755 1_545
Li0 O3 2.173016 1_545
Li0 O3 2.173016 1_455
Li0 O0 2.526691 1_555
Li1 O4 2.100583 1_455
Li1 O4 2.100583 1_545
Li1 O15 2.167489 1_455
Li1 O15 2.167489 1_545
Li1 O1 2.243651 1_555
Li1 O9 2.283520 1_555
Li2 O10 2.092206 1_555
Li2 O2 2.099395 1_555
Li2 O5 2.151913 1_455
Li2 O5 2.151913 1_545
Li2 O11 2.180034 1_544
Li2 O11 2.180034 1_454
Li3 O8 2.020671 1_655
Li3 O8 2.020671 1_565
Li3 O3 2.062568 1_555
Li3 O2 2.213965 1_566
Li3 O2 2.213965 1_656
Li3 O11 2.296200 1_555
Li4 O4 2.041478 1_555
Li4 O9 2.082949 1_655
Li4 O9 2.082949 1_565
Li4 O6 2.228552 1_655
Li4 O6 2.228552 1_565
Li4 O12 2.355158 1_555
Li5 O7 2.050425 1_655
Li5 O7 2.050425 1_565
Li5 O5 2.107836 1_555
Li5 O13 2.214819 1_555
Li5 O10 2.298749 1_655
Li5 O10 2.298749 1_565
Li6 O14 2.026043 1_445
Li6 O12 2.086144 1_455
Li6 O12 2.086144 1_545
Li6 O6 2.195206 1_555
Li6 O0 2.239474 1_455
Li6 O0 2.239474 1_545
Li7 O1 2.015325 1_565
Li7 O1 2.015325 1_655
Li7 O7 2.134133 1_665
Li7 O15 2.201684 1_555
Li7 O13 2.237283 1_565
Li7 O13 2.237283 1_655
Li8 O1 2.098510 1_655
Li8 O1 2.098510 1_565
Li8 O14 2.110974 1_555
Li8 O8 2.127492 1_565
Li8 O8 2.127492 1_655
Li8 O4 2.158312 1_555
Mn0 O13 1.962544 1_656
Mn0 O13 1.962544 1_566
Mn0 O0 1.991139 1_655
Mn0 O0 1.991139 1_565
Mn0 O3 2.138003 1_555
Mn0 O10 2.239552 1_666
Mn1 O11 1.903488 1_555
Mn1 O6 1.941242 1_655
Mn1 O6 1.941242 1_565
Mn1 O10 1.955133 1_656
Mn1 O10 1.955133 1_566
Mn1 O0 2.023928 1_555
Co0 O9 1.999055 1_655
Co0 O9 1.999055 1_565
Co0 O2 2.000086 1_655
Co0 O2 2.000086 1_565
Co0 O5 2.086641 1_555
Co0 O15 2.098087 1_555
Co1 O1 1.778148 1_555
Co1 O14 1.975594 1_545
Co1 O14 1.975594 1_455
Co1 O7 2.068748 1_565
Co1 O7 2.068748 1_655
Co1 O12 2.121264 1_555
Co2 O15 2.018592 1_545
Co2 O15 2.018592 1_455
Co2 O3 2.020863 1_544
Co2 O3 2.020863 1_454
Co2 O2 2.053957 1_555
Co2 O13 2.151641 1_555
Co3 O8 1.774590 1_555
Co3 O4 1.960788 1_455
Co3 O4 1.960788 1_545
Co3 O11 2.090982 1_545
Co3 O11 2.090982 1_455
Co3 O6 2.392513 1_555
Co4 O12 1.996233 1_455
Co4 O12 1.996233 1_545
Co4 O5 2.007164 1_455
Co4 O5 2.007164 1_545
Co4 O7 2.026448 1_555
Co4 O9 2.100673 1_555
