# generated using pymatgen
data_NdTc3
_symmetry_space_group_name_H-M   'P 1'
_cell_length_a   6.73563027
_cell_length_b   6.73563027
_cell_length_c   4.17910600
_cell_angle_alpha   90.00000000
_cell_angle_beta   90.00000000
_cell_angle_gamma   120.00000263
_symmetry_Int_Tables_number   1
_chemical_formula_structural   NdTc3
_chemical_formula_sum   'Nd2 Tc6'
_cell_volume   164.19899202
_cell_formula_units_Z   2
loop_
 _symmetry_equiv_pos_site_id
 _symmetry_equiv_pos_as_xyz
  1  'x, y, z'
loop_
 _atom_site_type_symbol
 _atom_site_label
 _atom_site_symmetry_multiplicity
 _atom_site_fract_x
 _atom_site_fract_y
 _atom_site_fract_z
 _atom_site_occupancy
  Nd  Nd0  1  0.66666700  0.33333300  0.25000000  1
  Nd  Nd1  1  0.33333300  0.66666700  0.75000000  1
  Tc  Tc0  1  0.86910100  0.13089900  0.75000000  1
  Tc  Tc1  1  0.26179800  0.13089900  0.75000000  1
  Tc  Tc2  1  0.86910100  0.73820200  0.75000000  1
  Tc  Tc3  1  0.13089900  0.86910100  0.25000000  1
  Tc  Tc4  1  0.73820200  0.86910100  0.25000000  1
  Tc  Tc5  1  0.13089900  0.26179800  0.25000000  1
loop_
_geom_bond_atom_site_label_1
_geom_bond_atom_site_label_2
_geom_bond_distance
_geom_bond_site_symmetry_2
Nd0 Tc0 3.153379 1_554
Nd0 Tc0 3.153379 1_555
Nd0 Tc2 3.153383 1_554
Nd0 Tc2 3.153383 1_555
Nd0 Tc1 3.153383 1_555
Nd0 Tc1 3.153383 1_554
Nd0 Tc4 3.393564 1_545
Nd0 Tc5 3.393564 1_655
Nd0 Tc3 3.393568 1_655
Nd0 Tc3 3.393568 1_545
Nd0 Tc5 3.393571 1_555
Nd0 Tc4 3.393571 1_555
Nd1 Tc3 3.153379 1_555
Nd1 Tc3 3.153379 1_556
Nd1 Tc4 3.153383 1_555
Nd1 Tc4 3.153383 1_556
Nd1 Tc5 3.153383 1_555
Nd1 Tc5 3.153383 1_556
Nd1 Tc2 3.393564 1_455
Nd1 Tc1 3.393564 1_565
Nd1 Tc0 3.393568 1_565
Nd1 Tc0 3.393568 1_455
Nd1 Tc1 3.393571 1_555
Nd1 Tc2 3.393571 1_555
Tc0 Tc5 2.588117 1_656
Tc0 Tc5 2.588117 1_655
Tc0 Tc4 2.588117 1_546
Tc0 Tc4 2.588117 1_545
Tc0 Tc1 2.645062 1_655
Tc0 Tc2 2.645062 1_545
Tc1 Tc3 2.588117 1_545
Tc1 Tc3 2.588117 1_546
Tc1 Tc5 2.588117 1_555
Tc1 Tc5 2.588117 1_556
Tc1 Tc2 2.645062 1_445
Tc2 Tc3 2.588117 1_656
Tc2 Tc3 2.588117 1_655
Tc2 Tc4 2.588117 1_556
Tc2 Tc4 2.588117 1_555
Tc3 Tc5 2.645062 1_565
Tc3 Tc4 2.645062 1_455
Tc4 Tc5 2.645062 1_665
