# generated using pymatgen
data_CaLuMn2O6
_symmetry_space_group_name_H-M   'P 1'
_cell_length_a   5.30593200
_cell_length_b   5.56098100
_cell_length_c   7.49695900
_cell_angle_alpha   90.00000000
_cell_angle_beta   90.00000000
_cell_angle_gamma   90.00000000
_symmetry_Int_Tables_number   1
_chemical_formula_structural   CaLuMn2O6
_chemical_formula_sum   'Ca2 Lu2 Mn4 O12'
_cell_volume   221.20667448
_cell_formula_units_Z   2
loop_
 _symmetry_equiv_pos_site_id
 _symmetry_equiv_pos_as_xyz
  1  'x, y, z'
loop_
 _atom_site_type_symbol
 _atom_site_label
 _atom_site_symmetry_multiplicity
 _atom_site_fract_x
 _atom_site_fract_y
 _atom_site_fract_z
 _atom_site_occupancy
  Ca  Ca0  1  0.48896400  0.19320300  0.00000000  1
  Ca  Ca1  1  0.98896400  0.80679700  0.50000000  1
  Lu  Lu0  1  0.51881300  0.32295300  0.50000000  1
  Lu  Lu1  1  0.01881300  0.67704700  0.00000000  1
  Mn  Mn0  1  0.50105200  0.75413300  0.75026100  1
  Mn  Mn1  1  0.50105200  0.75413300  0.24973900  1
  Mn  Mn2  1  0.00105200  0.24586700  0.74973900  1
  Mn  Mn3  1  0.00105200  0.24586700  0.25026100  1
  O  O0  1  0.79019400  0.54221100  0.29929100  1
  O  O1  1  0.19120600  0.93808700  0.80473100  1
  O  O2  1  0.19120600  0.93808700  0.19526900  1
  O  O3  1  0.79019400  0.54221100  0.70070900  1
  O  O4  1  0.29019400  0.45778900  0.20070900  1
  O  O5  1  0.69120600  0.06191300  0.69526900  1
  O  O6  1  0.69120600  0.06191300  0.30473100  1
  O  O7  1  0.29019400  0.45778900  0.79929100  1
  O  O8  1  0.61814100  0.77966500  0.00000000  1
  O  O9  1  0.40870200  0.70837700  0.50000000  1
  O  O10  1  0.11814100  0.22033500  0.50000000  1
  O  O11  1  0.90870200  0.29162300  0.00000000  1
loop_
_geom_bond_atom_site_label_1
_geom_bond_atom_site_label_2
_geom_bond_distance
_geom_bond_site_symmetry_2
Ca0 O11 2.293367 1_555
Ca0 O4 2.354006 1_555
Ca0 O7 2.354006 1_554
Ca0 O8 2.399644 1_545
Ca0 O2 2.579109 1_545
Ca0 O1 2.579109 1_544
Ca0 O6 2.627499 1_555
Ca0 O5 2.627499 1_554
Ca1 O9 2.293367 1_655
Ca1 O3 2.354006 1_555
Ca1 O0 2.354006 1_555
Ca1 O10 2.399644 1_665
Ca1 O5 2.579109 1_565
Ca1 O6 2.579109 1_565
Ca1 O1 2.627499 1_655
Ca1 O2 2.627499 1_655
Lu0 O10 2.201196 1_555
Lu0 O9 2.221537 1_555
Lu0 O5 2.255441 1_555
Lu0 O6 2.255441 1_555
Lu0 O3 2.413339 1_555
Lu0 O0 2.413339 1_555
Lu0 O7 2.658609 1_555
Lu0 O4 2.658609 1_555
Lu1 O8 2.201196 1_455
Lu1 O11 2.221537 1_455
Lu1 O2 2.255441 1_555
Lu1 O1 2.255441 1_554
Lu1 O4 2.413339 1_555
Lu1 O7 2.413339 1_554
Lu1 O0 2.658609 1_455
Lu1 O3 2.658609 1_454
Mn0 O9 1.955750 1_555
Mn0 O3 1.969904 1_555
Mn0 O8 1.977770 1_556
Mn0 O1 1.978894 1_555
Mn0 O7 2.025489 1_555
Mn0 O5 2.029130 1_565
Mn1 O9 1.955750 1_555
Mn1 O0 1.969904 1_555
Mn1 O8 1.977770 1_555
Mn1 O2 1.978894 1_555
Mn1 O4 2.025489 1_555
Mn1 O6 2.029130 1_565
Mn2 O11 1.955750 1_456
Mn2 O7 1.969904 1_555
Mn2 O10 1.977770 1_555
Mn2 O5 1.978894 1_455
Mn2 O3 2.025489 1_455
Mn2 O1 2.029130 1_545
Mn3 O11 1.955750 1_455
Mn3 O4 1.969904 1_555
Mn3 O10 1.977770 1_555
Mn3 O6 1.978894 1_455
Mn3 O0 2.025489 1_455
Mn3 O2 2.029130 1_545
