# generated using pymatgen
data_Al3Ga3Ni10
_symmetry_space_group_name_H-M   'P 1'
_cell_length_a   3.69706758
_cell_length_b   4.97745812
_cell_length_c   9.95658061
_cell_angle_alpha   96.14006594
_cell_angle_beta   90.00000000
_cell_angle_gamma   90.00000000
_symmetry_Int_Tables_number   1
_chemical_formula_structural   Al3Ga3Ni10
_chemical_formula_sum   'Al3 Ga3 Ni10'
_cell_volume   182.16991993
_cell_formula_units_Z   1
loop_
 _symmetry_equiv_pos_site_id
 _symmetry_equiv_pos_as_xyz
  1  'x, y, z'
loop_
 _atom_site_type_symbol
 _atom_site_label
 _atom_site_symmetry_multiplicity
 _atom_site_fract_x
 _atom_site_fract_y
 _atom_site_fract_z
 _atom_site_occupancy
  Al  Al0  1  0.50000000  0.27921241  0.35919833  1
  Al  Al1  1  0.50000000  0.27954615  0.86116472  1
  Al  Al2  1  0.50000000  0.72004985  0.13991207  1
  Ga  Ga0  1  0.50000000  0.71899523  0.64082317  1
  Ga  Ga1  1  -0.00000000  0.00055087  -0.00021071  1
  Ga  Ga2  1  -0.00000000  0.00324970  0.49828400  1
  Ni  Ni0  1  0.50000000  0.77365739  0.38624626  1
  Ni  Ni1  1  0.50000000  0.77366591  0.88772299  1
  Ni  Ni2  1  0.50000000  0.22646401  0.11308018  1
  Ni  Ni3  1  0.50000000  0.22591439  0.61310080  1
  Ni  Ni4  1  -0.00000000  0.99872696  0.24909365  1
  Ni  Ni5  1  -0.00000000  0.00047124  0.74982533  1
  Ni  Ni6  1  0.00000000  0.50101910  0.00059322  1
  Ni  Ni7  1  0.00000000  0.50135924  0.49977842  1
  Ni  Ni8  1  0.00000000  0.49918377  0.25008918  1
  Ni  Ni9  1  -0.00000000  0.49793278  0.75129840  1
loop_
_geom_bond_atom_site_label_1
_geom_bond_atom_site_label_2
_geom_bond_distance
_geom_bond_site_symmetry_2
Al0 Ni2 2.436438 1_555
Al0 Ni0 2.446968 1_555
Al0 Ni8 2.459774 1_555
Al0 Ni8 2.459774 1_655
Al0 Ni4 2.498116 1_645
Al0 Ni4 2.498116 1_545
Al0 Ni7 2.503554 1_555
Al0 Ni7 2.503554 1_655
Al0 Ni0 2.559229 1_545
Al0 Ni3 2.569947 1_555
Al0 Ga2 2.761968 1_655
Al0 Ga2 2.761968 1_555
Al1 Ni1 2.445352 1_555
Al1 Ni3 2.455701 1_555
Al1 Ni9 2.459601 1_555
Al1 Ni9 2.459601 1_655
Al1 Ni6 2.496421 1_656
Al1 Ni6 2.496421 1_556
Al1 Ni5 2.499225 1_555
Al1 Ni5 2.499225 1_655
Al1 Ni2 2.550044 1_556
Al1 Ni1 2.559818 1_545
Al1 Ga1 2.767774 1_556
Al1 Ga1 2.767774 1_656
Al2 Ni0 2.438580 1_555
Al2 Ni2 2.442713 1_555
Al2 Ni8 2.467187 1_655
Al2 Ni8 2.467187 1_555
Al2 Ni4 2.490040 1_655
Al2 Ni4 2.490040 1_555
Al2 Ni6 2.491244 1_555
Al2 Ni6 2.491244 1_655
Al2 Ni1 2.553310 1_554
Al2 Ni2 2.563031 1_565
Al2 Ga1 2.780200 1_665
Al2 Ga1 2.780200 1_565
Ga0 Ni3 2.440247 1_555
Ga0 Ni1 2.444193 1_555
Ga0 Ni9 2.469132 1_655
Ga0 Ni9 2.469132 1_555
Ga0 Ni5 2.496509 1_665
Ga0 Ni5 2.496509 1_565
Ga0 Ni7 2.497450 1_655
Ga0 Ni7 2.497450 1_555
Ga0 Ni3 2.567402 1_565
Ga0 Ni0 2.578049 1_555
Ga1 Ni1 2.380728 1_544
Ga1 Ni1 2.380728 1_444
Ga1 Ni2 2.383809 1_555
Ga1 Ni2 2.383809 1_455
Ga1 Ni4 2.483206 1_545
Ga1 Ni6 2.487267 1_545
Ga1 Ni5 2.488744 1_554
Ga1 Ni6 2.490216 1_555
Ga2 Ni3 2.383537 1_555
Ga2 Ni3 2.383537 1_455
Ga2 Ni0 2.386358 1_445
Ga2 Ni0 2.386358 1_545
Ga2 Ni7 2.477772 1_555
Ga2 Ni4 2.478777 1_545
Ga2 Ni7 2.499774 1_545
Ga2 Ni5 2.506008 1_555
Ni0 Ni8 2.593288 1_655
Ni0 Ni8 2.593288 1_555
Ni0 Ni7 2.619081 1_555
Ni0 Ni7 2.619081 1_655
Ni0 Ni4 2.619949 1_655
Ni0 Ni4 2.619949 1_555
Ni1 Ni9 2.597488 1_655
Ni1 Ni9 2.597488 1_555
Ni1 Ni6 2.616857 1_556
Ni1 Ni6 2.616857 1_656
Ni1 Ni5 2.628344 1_665
Ni1 Ni5 2.628344 1_565
Ni2 Ni8 2.593165 1_655
Ni2 Ni8 2.593165 1_555
Ni2 Ni4 2.619988 1_645
Ni2 Ni4 2.619988 1_545
Ni2 Ni6 2.620385 1_555
Ni2 Ni6 2.620385 1_655
Ni3 Ni9 2.597125 1_655
Ni3 Ni9 2.597125 1_555
Ni3 Ni5 2.618434 1_555
Ni3 Ni5 2.618434 1_655
Ni3 Ni7 2.626927 1_655
Ni3 Ni7 2.626927 1_555
Ni4 Ni8 2.487535 1_555
Ni4 Ni8 2.489962 1_565
Ni5 Ni9 2.474568 1_555
Ni5 Ni9 2.502975 1_545
Ni6 Ni9 2.480528 1_554
Ni6 Ni8 2.485120 1_555
Ni7 Ni8 2.484916 1_555
Ni7 Ni9 2.506161 1_555
