# generated using pymatgen
data_NaAgS2O3
_symmetry_space_group_name_H-M   'P 1'
_cell_length_a   6.24131400
_cell_length_b   8.57266104
_cell_length_c   9.42077052
_cell_angle_alpha   105.97515045
_cell_angle_beta   90.00000000
_cell_angle_gamma   90.00000000
_symmetry_Int_Tables_number   1
_chemical_formula_structural   NaAgS2O3
_chemical_formula_sum   'Na4 Ag4 S8 O12'
_cell_volume   484.58917974
_cell_formula_units_Z   4
loop_
 _symmetry_equiv_pos_site_id
 _symmetry_equiv_pos_as_xyz
  1  'x, y, z'
loop_
 _atom_site_type_symbol
 _atom_site_label
 _atom_site_symmetry_multiplicity
 _atom_site_fract_x
 _atom_site_fract_y
 _atom_site_fract_z
 _atom_site_occupancy
  Na  Na0  1  0.13725200  0.17042500  0.93987600  1
  Na  Na1  1  0.63725200  0.32957500  0.06012400  1
  Na  Na2  1  0.86274800  0.82957500  0.06012400  1
  Na  Na3  1  0.36274800  0.67042500  0.93987600  1
  Ag  Ag0  1  0.51087700  0.78065000  0.44438000  1
  Ag  Ag1  1  0.01087700  0.71935000  0.55562000  1
  Ag  Ag2  1  0.48912300  0.21935000  0.55562000  1
  Ag  Ag3  1  0.98912300  0.28065000  0.44438000  1
  S  S0  1  0.28139200  0.54054400  0.39950300  1
  S  S1  1  0.78139200  0.95945600  0.60049700  1
  S  S2  1  0.71860800  0.45945600  0.60049700  1
  S  S3  1  0.21860800  0.04054400  0.39950300  1
  S  S4  1  0.12922900  0.50954000  0.19389000  1
  S  S5  1  0.62922900  0.99046000  0.80611000  1
  S  S6  1  0.87077100  0.49046000  0.80611000  1
  S  S7  1  0.37077100  0.00954000  0.19389000  1
  O  O0  1  0.30079100  0.46606000  0.08022600  1
  O  O1  1  0.80079100  0.03394000  0.91977400  1
  O  O2  1  0.69920900  0.53394000  0.91977400  1
  O  O3  1  0.19920900  0.96606000  0.08022600  1
  O  O4  1  0.98113600  0.36988600  0.17915200  1
  O  O5  1  0.48113600  0.13011400  0.82084800  1
  O  O6  1  0.01886400  0.63011400  0.82084800  1
  O  O7  1  0.51886400  0.86988600  0.17915200  1
  O  O8  1  0.01978400  0.66000900  0.19386300  1
  O  O9  1  0.51978400  0.83999100  0.80613700  1
  O  O10  1  0.98021600  0.33999100  0.80613700  1
  O  O11  1  0.48021600  0.16000900  0.19386300  1
loop_
_geom_bond_atom_site_label_1
_geom_bond_atom_site_label_2
_geom_bond_distance
_geom_bond_site_symmetry_2
Na0 O10 2.381005 1_455
Na0 O1 2.385942 1_455
Na0 O5 2.402097 1_555
Na0 O3 2.498431 1_546
Na0 O4 2.613966 1_456
Na0 O0 2.714520 1_556
Na1 O11 2.381005 1_555
Na1 O0 2.385942 1_555
Na1 O4 2.402097 1_555
Na1 O2 2.498431 1_554
Na1 O5 2.613966 1_554
Na1 O1 2.714520 1_554
Na2 O8 2.381005 1_655
Na2 O3 2.385942 1_655
Na2 O7 2.402097 1_555
Na2 O1 2.498431 1_564
Na2 O6 2.613966 1_654
Na2 O2 2.714520 1_554
Na3 O9 2.381005 1_555
Na3 O2 2.385942 1_555
Na3 O6 2.402097 1_555
Na3 O0 2.498431 1_556
Na3 O7 2.613966 1_556
Na3 O3 2.714520 1_556
Ag0 S0 2.447034 1_555
Ag0 S1 2.474340 1_555
Ag0 O7 2.807685 1_555
Ag0 S3 2.998104 1_565
Ag1 S1 2.447034 1_455
Ag1 S0 2.474340 1_555
Ag1 O6 2.807685 1_555
Ag1 S2 2.998104 1_455
Ag2 S2 2.447034 1_555
Ag2 S3 2.474340 1_555
Ag2 O5 2.807685 1_555
Ag2 S1 2.998104 1_545
Ag3 S3 2.447034 1_655
Ag3 S2 2.474340 1_555
Ag3 O4 2.807685 1_555
Ag3 S0 2.998104 1_655
S0 S4 2.107433 1_555
S1 S5 2.107433 1_555
S2 S6 2.107433 1_555
S3 S7 2.107433 1_555
O0 S4 1.487417 1_555
O1 S5 1.487417 1_545
O2 S6 1.487417 1_555
O3 S7 1.487417 1_565
O4 S4 1.488424 1_655
O5 S5 1.488424 1_545
O6 S6 1.488424 1_455
O7 S7 1.488424 1_565
O8 S4 1.459682 1_555
O9 S5 1.459682 1_555
O10 S6 1.459682 1_555
O11 S7 1.459682 1_555
