# generated using pymatgen
data_Fe3Mo6PdN2
_symmetry_space_group_name_H-M   'P 1'
_cell_length_a   6.69183900
_cell_length_b   6.68951200
_cell_length_c   6.73219513
_cell_angle_alpha   89.67676141
_cell_angle_beta   90.00000000
_cell_angle_gamma   90.00000000
_symmetry_Int_Tables_number   1
_chemical_formula_structural   Fe3Mo6PdN2
_chemical_formula_sum   'Fe6 Mo12 Pd2 N4'
_cell_volume   301.36284359
_cell_formula_units_Z   2
loop_
 _symmetry_equiv_pos_site_id
 _symmetry_equiv_pos_as_xyz
  1  'x, y, z'
loop_
 _atom_site_type_symbol
 _atom_site_label
 _atom_site_symmetry_multiplicity
 _atom_site_fract_x
 _atom_site_fract_y
 _atom_site_fract_z
 _atom_site_occupancy
  Fe  Fe0  1  0.81923200  0.67787400  0.56629300  1
  Fe  Fe1  1  0.31923200  0.32212600  0.43370700  1
  Fe  Fe2  1  0.06792900  0.56107800  0.33138700  1
  Fe  Fe3  1  0.42849500  0.08038900  0.20004500  1
  Fe  Fe4  1  0.56792900  0.43892200  0.66861300  1
  Fe  Fe5  1  0.92849500  0.91961100  0.79995500  1
  Mo  Mo0  1  0.62333600  0.04541100  0.54427800  1
  Mo  Mo1  1  0.12333600  0.95458900  0.45572200  1
  Mo  Mo2  1  0.87862300  0.55497800  0.95459800  1
  Mo  Mo3  1  0.37862300  0.44502200  0.04540200  1
  Mo  Mo4  1  0.20250700  0.61950100  0.69569500  1
  Mo  Mo5  1  0.29245900  0.12635700  0.79379500  1
  Mo  Mo6  1  0.79245900  0.87364300  0.20620500  1
  Mo  Mo7  1  0.70250700  0.38049900  0.30430500  1
  Mo  Mo8  1  0.05416500  0.21150500  0.13336800  1
  Mo  Mo9  1  0.95079000  0.29898400  0.62326800  1
  Mo  Mo10  1  0.55416500  0.78849500  0.86663200  1
  Mo  Mo11  1  0.45079000  0.70101600  0.37673200  1
  Pd  Pd0  1  0.68625700  0.18476800  0.93507300  1
  Pd  Pd1  1  0.18625700  0.81523200  0.06492700  1
  N  N0  1  0.37324800  0.87371200  0.62654200  1
  N  N1  1  0.87324800  0.12628800  0.37345800  1
  N  N2  1  0.12295800  0.37516400  0.87687200  1
  N  N3  1  0.62295800  0.62483600  0.12312800  1
loop_
_geom_bond_atom_site_label_1
_geom_bond_atom_site_label_2
_geom_bond_distance
_geom_bond_site_symmetry_2
Fe0 Fe5 2.377571 1_555
Fe0 Fe4 2.417692 1_555
Fe0 Fe2 2.427964 1_655
Fe0 Mo9 2.708383 1_555
Fe0 Mo4 2.736025 1_655
Fe0 Mo6 2.754631 1_555
Fe0 Mo2 2.764658 1_555
Fe0 Mo7 2.778099 1_555
Fe0 Mo11 2.780159 1_555
Fe0 Mo0 2.789489 1_565
Fe0 Mo10 2.792677 1_555
Fe0 Mo1 2.847170 1_655
Fe1 Fe3 2.377571 1_555
Fe1 Fe2 2.417692 1_555
Fe1 Fe4 2.427964 1_555
Fe1 Mo11 2.708383 1_555
Fe1 Mo7 2.736025 1_555
Fe1 Mo5 2.754631 1_555
Fe1 Mo3 2.764658 1_555
Fe1 Mo4 2.778099 1_555
Fe1 Mo9 2.780159 1_455
Fe1 Mo1 2.789489 1_545
Fe1 Mo8 2.792677 1_555
Fe1 Mo0 2.847170 1_555
Fe2 Pd1 2.588646 1_555
Fe2 Mo4 2.643823 1_555
Fe2 Mo8 2.699866 1_555
Fe2 Mo7 2.733984 1_455
Fe2 Mo9 2.740585 1_455
Fe2 Mo11 2.745323 1_555
Fe2 Mo1 2.791504 1_555
Fe2 Mo2 2.835852 1_454
Fe2 Mo6 2.908671 1_455
Fe2 Mo3 2.940938 1_555
Fe3 Pd1 2.572861 1_545
Fe3 Pd0 2.575048 1_554
Fe3 Mo3 2.667652 1_555
Fe3 Mo0 2.668181 1_555
Fe3 Mo8 2.690942 1_555
Fe3 Mo1 2.797263 1_545
Fe3 Mo11 2.800646 1_545
Fe3 Mo6 2.801060 1_545
Fe3 Mo7 2.810912 1_555
Fe3 Mo5 2.897196 1_554
Fe3 Mo10 3.099623 1_544
Fe4 Pd0 2.588646 1_555
Fe4 Mo7 2.643823 1_555
Fe4 Mo10 2.699866 1_555
Fe4 Mo4 2.733984 1_555
Fe4 Mo11 2.740585 1_555
Fe4 Mo9 2.745323 1_555
Fe4 Mo0 2.791504 1_555
Fe4 Mo3 2.835852 1_556
Fe4 Mo5 2.908671 1_555
Fe4 Mo2 2.940938 1_555
Fe5 Pd0 2.572861 1_565
Fe5 Pd1 2.575048 1_656
Fe5 Mo2 2.667652 1_555
Fe5 Mo1 2.668181 1_655
Fe5 Mo10 2.690942 1_555
Fe5 Mo0 2.797263 1_565
Fe5 Mo9 2.800646 1_565
Fe5 Mo5 2.801060 1_665
Fe5 Mo4 2.810912 1_655
Fe5 Mo6 2.897196 1_556
Fe5 Mo8 3.099623 1_666
Mo0 N1 2.098809 1_555
Mo0 N0 2.102271 1_545
Mo0 Pd0 2.827666 1_555
Mo1 N0 2.098809 1_555
Mo1 N1 2.102271 1_465
Mo1 Pd1 2.827666 1_555
Mo2 N2 2.097902 1_655
Mo2 N3 2.106823 1_556
Mo2 Pd0 2.794856 1_555
Mo2 Pd1 2.799151 1_656
Mo3 N3 2.097902 1_555
Mo3 N2 2.106823 1_554
Mo3 Pd1 2.794856 1_555
Mo3 Pd0 2.799151 1_554
Mo4 N0 2.098842 1_555
Mo4 N2 2.102420 1_555
Mo4 Pd1 2.818128 1_556
Mo5 N2 2.092870 1_555
Mo5 N0 2.106638 1_545
Mo5 Pd0 2.829476 1_555
Mo5 Pd1 2.850559 1_546
Mo6 N3 2.092870 1_555
Mo6 N1 2.106638 1_565
Mo6 Pd1 2.829476 1_655
Mo6 Pd0 2.850559 1_564
Mo7 N1 2.098842 1_555
Mo7 N3 2.102420 1_555
Mo7 Pd0 2.818128 1_554
Mo8 N2 2.090682 1_554
Mo8 N1 2.095905 1_455
Mo8 Pd0 2.806805 1_454
Mo8 Pd1 2.834529 1_545
Mo9 N1 2.110482 1_555
Mo9 N2 2.124102 1_655
Mo9 Pd0 2.847048 1_555
Mo10 N3 2.090682 1_556
Mo10 N0 2.095905 1_555
Mo10 Pd1 2.806805 1_556
Mo10 Pd0 2.834529 1_565
Mo11 N0 2.110482 1_555
Mo11 N3 2.124102 1_555
Mo11 Pd1 2.847048 1_555
