# generated using pymatgen
data_CaMgB6O17
_symmetry_space_group_name_H-M   'P 1'
_cell_length_a   6.48068800
_cell_length_b   8.11709800
_cell_length_c   11.40726411
_cell_angle_alpha   79.38035491
_cell_angle_beta   90.00000000
_cell_angle_gamma   90.00000000
_symmetry_Int_Tables_number   1
_chemical_formula_structural   CaMgB6O17
_chemical_formula_sum   'Ca2 Mg2 B12 O34'
_cell_volume   589.79414940
_cell_formula_units_Z   2
loop_
 _symmetry_equiv_pos_site_id
 _symmetry_equiv_pos_as_xyz
  1  'x, y, z'
loop_
 _atom_site_type_symbol
 _atom_site_label
 _atom_site_symmetry_multiplicity
 _atom_site_fract_x
 _atom_site_fract_y
 _atom_site_fract_z
 _atom_site_occupancy
  Ca  Ca0  1  0.76548800  0.25000000  0.50000000  1
  Ca  Ca1  1  0.23451200  0.75000000  0.50000000  1
  Mg  Mg0  1  0.00000000  0.50000000  0.00000000  1
  Mg  Mg1  1  0.00000000  0.00000000  0.00000000  1
  B  B0  1  0.72276500  0.35960400  0.79077400  1
  B  B1  1  0.72276500  0.14039600  0.20922600  1
  B  B2  1  0.27723500  0.64039600  0.20922600  1
  B  B3  1  0.27723500  0.85960400  0.79077400  1
  B  B4  1  0.70579500  0.57923600  0.59942200  1
  B  B5  1  0.70579500  0.92076400  0.40057800  1
  B  B6  1  0.29420500  0.42076400  0.40057800  1
  B  B7  1  0.29420500  0.07923600  0.59942200  1
  B  B8  1  0.46924300  0.59937300  0.76320600  1
  B  B9  1  0.46924300  0.90062700  0.23679400  1
  B  B10  1  0.53075700  0.40062700  0.23679400  1
  B  B11  1  0.53075700  0.09937300  0.76320600  1
  O  O0  1  0.94822400  0.25000000  0.00000000  1
  O  O1  1  0.05177600  0.75000000  0.00000000  1
  O  O2  1  0.65191000  0.68321500  0.98174600  1
  O  O3  1  0.65191000  0.81678500  0.01825400  1
  O  O4  1  0.34809000  0.31678500  0.01825400  1
  O  O5  1  0.34809000  0.18321500  0.98174600  1
  O  O6  1  0.89924600  0.39603900  0.86706300  1
  O  O7  1  0.89924600  0.10396100  0.13293700  1
  O  O8  1  0.10075400  0.60396100  0.13293700  1
  O  O9  1  0.10075400  0.89603900  0.86706300  1
  O  O10  1  0.68975200  0.17888700  0.80911100  1
  O  O11  1  0.68975200  0.32111300  0.19088900  1
  O  O12  1  0.31024800  0.82111300  0.19088900  1
  O  O13  1  0.31024800  0.67888700  0.80911100  1
  O  O14  1  0.54092700  0.44895200  0.82101700  1
  O  O15  1  0.54092700  0.05104800  0.17898300  1
  O  O16  1  0.45907300  0.55104800  0.17898300  1
  O  O17  1  0.45907300  0.94895200  0.82101700  1
  O  O18  1  0.79232200  0.42847300  0.66604400  1
  O  O19  1  0.79232200  0.07152700  0.33395600  1
  O  O20  1  0.20767800  0.57152700  0.33395600  1
  O  O21  1  0.20767800  0.92847300  0.66604400  1
  O  O22  1  0.55221300  0.67042900  0.65067100  1
  O  O23  1  0.55221300  0.82957100  0.34932900  1
  O  O24  1  0.44778700  0.32957100  0.34932900  1
  O  O25  1  0.44778700  0.17042900  0.65067100  1
  O  O26  1  0.89173700  0.66900200  0.54373600  1
  O  O27  1  0.89173700  0.83099800  0.45626400  1
  O  O28  1  0.10826300  0.33099800  0.45626400  1
  O  O29  1  0.10826300  0.16900200  0.54373600  1
  O  O30  1  0.60563700  0.51623300  0.49049700  1
  O  O31  1  0.60563700  0.98376700  0.50950300  1
  O  O32  1  0.39436300  0.48376700  0.50950300  1
  O  O33  1  0.39436300  0.01623300  0.49049700  1
loop_
_geom_bond_atom_site_label_1
_geom_bond_atom_site_label_2
_geom_bond_distance
_geom_bond_site_symmetry_2
Ca0 O28 2.344136 1_655
Ca0 O29 2.344136 1_655
Ca0 O30 2.380899 1_555
Ca0 O31 2.380899 1_545
Ca0 O18 2.593825 1_555
Ca0 O19 2.593825 1_555
Ca0 O24 2.683513 1_555
Ca0 O25 2.683513 1_555
Ca1 O26 2.344136 1_455
Ca1 O27 2.344136 1_455
Ca1 O33 2.380899 1_565
Ca1 O32 2.380899 1_555
Ca1 O21 2.593825 1_555
Ca1 O20 2.593825 1_555
Ca1 O23 2.683513 1_555
Ca1 O22 2.683513 1_555
Mg0 O8 1.977302 1_555
Mg0 O6 1.977302 1_454
Mg0 O1 2.056829 1_555
Mg0 O0 2.056829 1_455
Mg0 O2 2.688833 1_454
Mg0 O4 2.688833 1_555
Mg1 O7 1.977302 1_455
Mg1 O9 1.977302 1_544
Mg1 O1 2.056829 1_545
Mg1 O0 2.056829 1_455
Mg1 O3 2.688833 1_445
Mg1 O5 2.688833 1_554
B0 O14 1.458057 1_555
B0 O10 1.458843 1_555
B0 O18 1.498993 1_555
B0 O6 1.499251 1_555
B1 O15 1.458057 1_555
B1 O11 1.458843 1_555
B1 O19 1.498993 1_555
B1 O7 1.499251 1_555
B2 O16 1.458057 1_555
B2 O12 1.458843 1_555
B2 O20 1.498993 1_555
B2 O8 1.499251 1_555
B3 O17 1.458057 1_555
B3 O13 1.458843 1_555
B3 O21 1.498993 1_555
B3 O9 1.499251 1_555
B4 O22 1.428235 1_555
B4 O18 1.430666 1_555
B4 O26 1.488601 1_555
B4 O30 1.568743 1_555
B5 O23 1.428235 1_555
B5 O19 1.430666 1_565
B5 O27 1.488601 1_555
B5 O31 1.568743 1_555
B6 O24 1.428235 1_555
B6 O20 1.430666 1_555
B6 O28 1.488601 1_555
B6 O32 1.568743 1_555
B7 O25 1.428235 1_555
B7 O21 1.430666 1_545
B7 O29 1.488601 1_555
B7 O33 1.568743 1_555
B8 O14 1.358209 1_555
B8 O13 1.370062 1_555
B8 O22 1.413088 1_555
B9 O15 1.358209 1_565
B9 O12 1.370062 1_555
B9 O23 1.413088 1_555
B10 O16 1.358209 1_555
B10 O11 1.370062 1_555
B10 O24 1.413088 1_555
B11 O17 1.358209 1_545
B11 O10 1.370062 1_555
B11 O25 1.413088 1_555
O0 O7 1.772853 1_555
O0 O6 1.772853 1_554
O1 O8 1.772853 1_555
O1 O9 1.772853 1_554
O2 O3 1.230995 1_556
O4 O5 1.230995 1_554
O30 O32 1.403604 1_555
O31 O33 1.403604 1_565
