# generated using pymatgen
data_Ca15Ni(IrO6)4
_symmetry_space_group_name_H-M   'P 1'
_cell_length_a   6.58562112
_cell_length_b   6.58562112
_cell_length_c   13.13473784
_cell_angle_alpha   89.04954201
_cell_angle_beta   89.04954201
_cell_angle_gamma   90.89284993
_symmetry_Int_Tables_number   1
_chemical_formula_structural   Ca15Ni(IrO6)4
_chemical_formula_sum   'Ca15 Ni1 Ir4 O24'
_cell_volume   569.43051153
_cell_formula_units_Z   1
loop_
 _symmetry_equiv_pos_site_id
 _symmetry_equiv_pos_as_xyz
  1  'x, y, z'
loop_
 _atom_site_type_symbol
 _atom_site_label
 _atom_site_symmetry_multiplicity
 _atom_site_fract_x
 _atom_site_fract_y
 _atom_site_fract_z
 _atom_site_occupancy
  Ca  Ca0  1  0.10448300  0.89551700  0.00000000  1
  Ca  Ca1  1  0.11136600  0.88863400  0.50000000  1
  Ca  Ca2  1  0.74756400  0.60202300  0.17733000  1
  Ca  Ca3  1  0.75174100  0.61357100  0.67998700  1
  Ca  Ca4  1  0.38642900  0.24825900  0.32001300  1
  Ca  Ca5  1  0.39797700  0.25243600  0.82267000  1
  Ca  Ca6  1  0.25122600  0.38649500  0.06695200  1
  Ca  Ca7  1  0.24999300  0.38794900  0.57036200  1
  Ca  Ca8  1  0.61350500  0.74877400  0.93304800  1
  Ca  Ca9  1  0.61205100  0.75000700  0.42963800  1
  Ca  Ca10  1  0.88849400  0.11499200  0.24524900  1
  Ca  Ca11  1  0.88500800  0.11150600  0.75475100  1
  Ca  Ca12  1  0.75009100  0.24990900  0.50000000  1
  Ca  Ca13  1  0.25065400  0.75088200  0.24978800  1
  Ca  Ca14  1  0.24911800  0.74934600  0.75021200  1
  Ni  Ni0  1  0.74986800  0.25013200  0.00000000  1
  Ir  Ir0  1  0.50199000  0.00128600  0.12333800  1
  Ir  Ir1  1  0.49967800  0.00037700  0.62574000  1
  Ir  Ir2  1  0.99871400  0.49801000  0.87666200  1
  Ir  Ir3  1  0.99962300  0.50032200  0.37426000  1
  O  O0  1  0.79682200  0.96091800  0.08173800  1
  O  O1  1  0.79626900  0.94444000  0.58927000  1
  O  O2  1  0.58487500  0.29624300  0.14122500  1
  O  O3  1  0.57456800  0.29791400  0.65552100  1
  O  O4  1  0.45767100  0.08183300  0.97637300  1
  O  O5  1  0.44413400  0.07387400  0.47705200  1
  O  O6  1  0.07475800  0.44477200  0.22655100  1
  O  O7  1  0.07015400  0.44384400  0.72767500  1
  O  O8  1  0.29647700  0.57301100  0.90223600  1
  O  O9  1  0.29634800  0.57156200  0.40318400  1
  O  O10  1  0.94418700  0.79700200  0.33851600  1
  O  O11  1  0.94502500  0.79544700  0.83900000  1
  O  O12  1  0.20455300  0.05497500  0.16100000  1
  O  O13  1  0.20299800  0.05581300  0.66148400  1
  O  O14  1  0.42698900  0.70352300  0.09776400  1
  O  O15  1  0.42843800  0.70365200  0.59681600  1
  O  O16  1  0.55615600  0.92984600  0.27232500  1
  O  O17  1  0.55522800  0.92524200  0.77344900  1
  O  O18  1  0.91816700  0.54232900  0.02362700  1
  O  O19  1  0.92612600  0.55586600  0.52294800  1
  O  O20  1  0.70208600  0.42543200  0.34447900  1
  O  O21  1  0.70375700  0.41512500  0.85877500  1
  O  O22  1  0.03908200  0.20317800  0.91826200  1
  O  O23  1  0.05556000  0.20373100  0.41073000  1
loop_
_geom_bond_atom_site_label_1
_geom_bond_atom_site_label_2
_geom_bond_distance
_geom_bond_site_symmetry_2
Ca0 O0 2.326747 1_455
Ca0 O22 2.326747 1_564
Ca0 O11 2.471305 1_454
Ca0 O12 2.471305 1_565
Ca0 O18 2.624201 1_455
Ca0 O4 2.624201 1_564
Ca0 O14 2.806938 1_555
Ca0 O8 2.806938 1_554
Ca1 O1 2.402777 1_455
Ca1 O23 2.402777 1_565
Ca1 O10 2.484832 1_455
Ca1 O13 2.484832 1_565
Ca1 O19 2.502844 1_455
Ca1 O5 2.502844 1_565
Ca1 O9 2.752702 1_555
Ca1 O15 2.752702 1_555
Ca2 O2 2.325791 1_555
Ca2 O18 2.336119 1_555
Ca2 O14 2.467814 1_555
Ca2 O20 2.478879 1_555
Ca2 O6 2.495403 1_655
Ca2 O0 2.670617 1_555
Ca2 O16 2.815800 1_555
Ca2 O10 2.817289 1_555
Ca3 O19 2.383050 1_555
Ca3 O3 2.396891 1_555
Ca3 O7 2.476349 1_655
Ca3 O1 2.477110 1_555
Ca3 O15 2.484683 1_555
Ca3 O21 2.680146 1_555
Ca3 O17 2.740159 1_555
Ca3 O11 2.746054 1_555
Ca4 O5 2.383050 1_555
Ca4 O20 2.396891 1_555
Ca4 O16 2.476349 1_545
Ca4 O23 2.477110 1_555
Ca4 O9 2.484683 1_555
Ca4 O2 2.680146 1_555
Ca4 O6 2.740159 1_555
Ca4 O12 2.746054 1_555
Ca5 O21 2.325791 1_555
Ca5 O4 2.336119 1_555
Ca5 O8 2.467814 1_555
Ca5 O3 2.478879 1_555
Ca5 O17 2.495403 1_545
Ca5 O22 2.670617 1_555
Ca5 O7 2.815800 1_555
Ca5 O13 2.817289 1_555
Ca6 O14 2.414724 1_555
Ca6 O6 2.419110 1_555
Ca6 O8 2.481404 1_554
Ca6 O2 2.495120 1_555
Ca6 O12 2.502817 1_555
Ca6 O18 2.506041 1_455
Ca6 O22 2.709199 1_554
Ca6 O4 2.720299 1_554
Ca7 O7 2.401098 1_555
Ca7 O15 2.405366 1_555
Ca7 O13 2.488455 1_555
Ca7 O19 2.500912 1_455
Ca7 O9 2.501050 1_555
Ca7 O3 2.503707 1_555
Ca7 O5 2.743991 1_555
Ca7 O23 2.762736 1_555
Ca8 O8 2.414724 1_555
Ca8 O17 2.419110 1_555
Ca8 O14 2.481404 1_556
Ca8 O21 2.495120 1_555
Ca8 O11 2.502817 1_555
Ca8 O4 2.506041 1_565
Ca8 O0 2.709199 1_556
Ca8 O18 2.720299 1_556
Ca9 O16 2.401098 1_555
Ca9 O9 2.405366 1_555
Ca9 O10 2.488455 1_555
Ca9 O5 2.500912 1_565
Ca9 O15 2.501050 1_555
Ca9 O20 2.503707 1_555
Ca9 O19 2.743991 1_555
Ca9 O1 2.762736 1_555
Ca10 O12 2.382626 1_655
Ca10 O10 2.444276 1_545
Ca10 O0 2.470376 1_545
Ca10 O6 2.484159 1_655
Ca10 O16 2.505992 1_545
Ca10 O23 2.525430 1_655
Ca10 O2 2.720413 1_555
Ca10 O20 2.738440 1_555
Ca11 O11 2.382626 1_545
Ca11 O13 2.444276 1_655
Ca11 O22 2.470376 1_655
Ca11 O17 2.484159 1_545
Ca11 O7 2.505992 1_655
Ca11 O1 2.525430 1_545
Ca11 O21 2.720413 1_555
Ca11 O3 2.738440 1_555
Ca12 O19 2.335307 1_555
Ca12 O5 2.335307 1_555
Ca12 O23 2.338144 1_655
Ca12 O1 2.338144 1_545
Ca12 O20 2.358671 1_555
Ca12 O3 2.358671 1_555
Ca13 O14 2.321217 1_555
Ca13 O12 2.327230 1_565
Ca13 O6 2.336306 1_555
Ca13 O10 2.340236 1_455
Ca13 O16 2.341358 1_555
Ca13 O9 2.344546 1_555
Ca14 O8 2.321217 1_555
Ca14 O11 2.327230 1_455
Ca14 O17 2.336306 1_555
Ca14 O13 2.340236 1_565
Ca14 O7 2.341358 1_555
Ca14 O15 2.344546 1_555
Ni0 O21 2.162367 1_554
Ni0 O2 2.162367 1_555
Ni0 O0 2.199429 1_545
Ni0 O22 2.199429 1_654
Ni0 O4 2.234376 1_554
Ni0 O18 2.234376 1_555
Ir0 O4 2.020483 1_554
Ir0 O2 2.027981 1_555
Ir0 O0 2.030998 1_545
Ir0 O16 2.043506 1_545
Ir0 O14 2.049222 1_545
Ir0 O12 2.049852 1_555
Ir1 O17 2.034717 1_545
Ir1 O13 2.041717 1_555
Ir1 O1 2.043902 1_545
Ir1 O5 2.044520 1_555
Ir1 O15 2.045725 1_545
Ir1 O3 2.058512 1_555
Ir2 O18 2.020483 1_556
Ir2 O21 2.027981 1_555
Ir2 O22 2.030998 1_655
Ir2 O7 2.043506 1_655
Ir2 O8 2.049222 1_655
Ir2 O11 2.049852 1_555
Ir3 O6 2.034717 1_655
Ir3 O10 2.041717 1_555
Ir3 O23 2.043902 1_655
Ir3 O19 2.044520 1_555
Ir3 O9 2.045725 1_655
Ir3 O20 2.058512 1_555
