# generated using pymatgen
data_ZnCoF4
_symmetry_space_group_name_H-M   'P 1'
_cell_length_a   6.18651389
_cell_length_b   6.18651389
_cell_length_c   5.09949254
_cell_angle_alpha   66.57595225
_cell_angle_beta   66.57595225
_cell_angle_gamma   48.44050548
_symmetry_Int_Tables_number   1
_chemical_formula_structural   ZnCoF4
_chemical_formula_sum   'Zn2 Co2 F8'
_cell_volume   131.43621790
_cell_formula_units_Z   2
loop_
 _symmetry_equiv_pos_site_id
 _symmetry_equiv_pos_as_xyz
  1  'x, y, z'
loop_
 _atom_site_type_symbol
 _atom_site_label
 _atom_site_symmetry_multiplicity
 _atom_site_fract_x
 _atom_site_fract_y
 _atom_site_fract_z
 _atom_site_occupancy
  Zn  Zn0  1  0.75413000  0.24587000  0.75000000  1
  Zn  Zn1  1  0.24587000  0.75413000  0.25000000  1
  Co  Co0  1  0.50000000  0.00000000  0.50000000  1
  Co  Co1  1  0.00000000  0.50000000  0.00000000  1
  F  F0  1  0.60521500  0.63889700  0.84630100  1
  F  F1  1  0.86880300  0.87604300  0.60779400  1
  F  F2  1  0.39478500  0.36110300  0.15369900  1
  F  F3  1  0.87604300  0.86880300  0.10779400  1
  F  F4  1  0.13119700  0.12395700  0.39220600  1
  F  F5  1  0.63889700  0.60521500  0.34630100  1
  F  F6  1  0.12395700  0.13119700  0.89220600  1
  F  F7  1  0.36110300  0.39478500  0.65369900  1
loop_
_geom_bond_atom_site_label_1
_geom_bond_atom_site_label_2
_geom_bond_distance
_geom_bond_site_symmetry_2
Co0 F2 2.093060 1_555
Co0 F0 2.093060 1_545
Co0 F1 2.106303 1_545
Co0 F4 2.106303 1_555
Co0 F6 2.270927 1_555
Co0 F3 2.270927 1_545
Co0 F7 2.349409 1_555
Co0 F5 2.349409 1_545
Co1 F5 2.093060 1_455
Co1 F7 2.093060 1_554
Co1 F3 2.106303 1_455
Co1 F6 2.106303 1_554
Co1 F1 2.270927 1_454
Co1 F4 2.270927 1_555
Co1 F2 2.349409 1_555
Co1 F0 2.349409 1_454
F0 Zn0 2.149308 1_555
F0 Zn1 2.261382 1_556
F1 Zn1 2.171475 1_655
F1 Zn0 2.240625 1_565
F2 Zn1 2.149308 1_555
F2 Zn0 2.261382 1_554
F3 Zn0 2.171475 1_564
F3 Zn1 2.240625 1_655
F4 Zn0 2.171475 1_455
F4 Zn1 2.240625 1_545
F5 Zn1 2.149308 1_555
F5 Zn0 2.261382 1_555
F6 Zn1 2.171475 1_546
F6 Zn0 2.240625 1_455
F7 Zn0 2.149308 1_555
F7 Zn1 2.261382 1_555
