# generated using pymatgen
data_Eu(SbSe2)2
_symmetry_space_group_name_H-M   'P 1'
_cell_length_a   4.15365500
_cell_length_b   12.27889300
_cell_length_c   15.26268400
_cell_angle_alpha   90.00000000
_cell_angle_beta   90.00000000
_cell_angle_gamma   90.00000000
_symmetry_Int_Tables_number   1
_chemical_formula_structural   Eu(SbSe2)2
_chemical_formula_sum   'Eu4 Sb8 Se16'
_cell_volume   778.43176387
_cell_formula_units_Z   4
loop_
 _symmetry_equiv_pos_site_id
 _symmetry_equiv_pos_as_xyz
  1  'x, y, z'
loop_
 _atom_site_type_symbol
 _atom_site_label
 _atom_site_symmetry_multiplicity
 _atom_site_fract_x
 _atom_site_fract_y
 _atom_site_fract_z
 _atom_site_occupancy
  Eu  Eu0  1  0.75000000  0.24833400  0.15772300  1
  Eu  Eu1  1  0.75000000  0.74833400  0.34227700  1
  Eu  Eu2  1  0.25000000  0.75166600  0.84227700  1
  Eu  Eu3  1  0.25000000  0.25166600  0.65772300  1
  Sb  Sb0  1  0.75000000  0.43593000  0.89633700  1
  Sb  Sb1  1  0.75000000  0.93593000  0.60366300  1
  Sb  Sb2  1  0.25000000  0.56407000  0.10366300  1
  Sb  Sb3  1  0.25000000  0.06407000  0.39633700  1
  Sb  Sb4  1  0.75000000  0.40965300  0.39346400  1
  Sb  Sb5  1  0.75000000  0.90965300  0.10653600  1
  Sb  Sb6  1  0.25000000  0.59034700  0.60653600  1
  Sb  Sb7  1  0.25000000  0.09034700  0.89346400  1
  Se  Se0  1  0.75000000  0.14919800  0.52417500  1
  Se  Se1  1  0.75000000  0.64919800  0.97582500  1
  Se  Se2  1  0.25000000  0.85080200  0.47582500  1
  Se  Se3  1  0.25000000  0.35080200  0.02417500  1
  Se  Se4  1  0.75000000  0.22730900  0.81407100  1
  Se  Se5  1  0.75000000  0.72730900  0.68592900  1
  Se  Se6  1  0.25000000  0.77269100  0.18592900  1
  Se  Se7  1  0.25000000  0.27269100  0.31407100  1
  Se  Se8  1  0.75000000  0.42682700  0.58704600  1
  Se  Se9  1  0.75000000  0.92682700  0.91295400  1
  Se  Se10  1  0.25000000  0.57317300  0.41295400  1
  Se  Se11  1  0.25000000  0.07317300  0.08704600  1
  Se  Se12  1  0.75000000  0.49637300  0.21491100  1
  Se  Se13  1  0.75000000  0.99637300  0.28508900  1
  Se  Se14  1  0.25000000  0.50362700  0.78508900  1
  Se  Se15  1  0.25000000  0.00362700  0.71491100  1
loop_
_geom_bond_atom_site_label_1
_geom_bond_atom_site_label_2
_geom_bond_distance
_geom_bond_site_symmetry_2
Eu0 Se12 3.168249 1_555
Eu0 Se3 3.170321 1_555
Eu0 Se3 3.170321 1_655
Eu0 Se7 3.177584 1_655
Eu0 Se7 3.177584 1_555
Eu0 Se11 3.178477 1_655
Eu0 Se11 3.178477 1_555
Eu0 Se13 3.653839 1_545
Eu1 Se13 3.168249 1_555
Eu1 Se2 3.170321 1_555
Eu1 Se2 3.170321 1_655
Eu1 Se6 3.177584 1_655
Eu1 Se6 3.177584 1_555
Eu1 Se10 3.178477 1_655
Eu1 Se10 3.178477 1_555
Eu1 Se12 3.653839 1_555
Eu2 Se14 3.168249 1_555
Eu2 Se1 3.170321 1_555
Eu2 Se1 3.170321 1_455
Eu2 Se5 3.177584 1_455
Eu2 Se5 3.177584 1_555
Eu2 Se9 3.178477 1_555
Eu2 Se9 3.178477 1_455
Eu2 Se15 3.653839 1_565
Eu3 Se15 3.168249 1_555
Eu3 Se0 3.170321 1_455
Eu3 Se0 3.170321 1_555
Eu3 Se4 3.177584 1_555
Eu3 Se4 3.177584 1_455
Eu3 Se8 3.178477 1_455
Eu3 Se8 3.178477 1_555
Eu3 Se14 3.653839 1_555
Sb0 Se14 2.808414 1_555
Sb0 Se14 2.808414 1_655
Sb0 Se4 2.852806 1_555
Sb0 Se1 2.886073 1_555
Sb0 Se3 3.035261 1_656
Sb0 Se3 3.035261 1_556
Sb1 Se15 2.808414 1_565
Sb1 Se15 2.808414 1_665
Sb1 Se5 2.852806 1_555
Sb1 Se0 2.886073 1_565
Sb1 Se2 3.035261 1_555
Sb1 Se2 3.035261 1_655
Sb2 Se12 2.808414 1_455
Sb2 Se12 2.808414 1_555
Sb2 Se6 2.852806 1_555
Sb2 Se3 2.886073 1_555
Sb2 Se1 3.035261 1_554
Sb2 Se1 3.035261 1_454
Sb3 Se13 2.808414 1_445
Sb3 Se13 2.808414 1_545
Sb3 Se7 2.852806 1_555
Sb3 Se2 2.886073 1_545
Sb3 Se0 3.035261 1_455
Sb3 Se0 3.035261 1_555
Sb4 Se10 2.903987 1_655
Sb4 Se10 2.903987 1_555
Sb4 Se12 2.925843 1_555
Sb4 Se7 2.934247 1_555
Sb4 Se7 2.934247 1_655
Sb4 Se8 2.962097 1_555
Sb5 Se11 2.903987 1_665
Sb5 Se11 2.903987 1_565
Sb5 Se13 2.925843 1_555
Sb5 Se6 2.934247 1_555
Sb5 Se6 2.934247 1_655
Sb5 Se9 2.962097 1_554
Sb6 Se8 2.903987 1_455
Sb6 Se8 2.903987 1_555
Sb6 Se14 2.925843 1_555
Sb6 Se5 2.934247 1_455
Sb6 Se5 2.934247 1_555
Sb6 Se10 2.962097 1_555
Sb7 Se9 2.903987 1_545
Sb7 Se9 2.903987 1_445
Sb7 Se15 2.925843 1_555
Sb7 Se4 2.934247 1_455
Sb7 Se4 2.934247 1_555
Sb7 Se11 2.962097 1_556
