# generated using pymatgen
data_SmEu3
_symmetry_space_group_name_H-M   'P 1'
_cell_length_a   7.70363285
_cell_length_b   7.70363285
_cell_length_c   6.23659800
_cell_angle_alpha   90.00000000
_cell_angle_beta   90.00000000
_cell_angle_gamma   120.00000734
_symmetry_Int_Tables_number   1
_chemical_formula_structural   SmEu3
_chemical_formula_sum   'Sm2 Eu6'
_cell_volume   320.53060556
_cell_formula_units_Z   2
loop_
 _symmetry_equiv_pos_site_id
 _symmetry_equiv_pos_as_xyz
  1  'x, y, z'
loop_
 _atom_site_type_symbol
 _atom_site_label
 _atom_site_symmetry_multiplicity
 _atom_site_fract_x
 _atom_site_fract_y
 _atom_site_fract_z
 _atom_site_occupancy
  Sm  Sm0  1  0.66666700  0.33333300  0.25000000  1
  Sm  Sm1  1  0.33333300  0.66666700  0.75000000  1
  Eu  Eu0  1  0.83066100  0.16933900  0.75000000  1
  Eu  Eu1  1  0.33867900  0.16933900  0.75000000  1
  Eu  Eu2  1  0.83066100  0.66132100  0.75000000  1
  Eu  Eu3  1  0.16933900  0.83066100  0.25000000  1
  Eu  Eu4  1  0.66132100  0.83066100  0.25000000  1
  Eu  Eu5  1  0.16933900  0.33867900  0.25000000  1
loop_
_geom_bond_atom_site_label_1
_geom_bond_atom_site_label_2
_geom_bond_distance
_geom_bond_site_symmetry_2
Eu0 Eu2 3.790049 1_555
Eu0 Eu1 3.790049 1_555
Eu0 Sm0 3.809455 1_556
Eu0 Sm0 3.809455 1_555
Eu0 Eu4 3.850863 1_545
Eu0 Eu5 3.850863 1_656
Eu0 Eu5 3.850863 1_655
Eu0 Eu4 3.850863 1_546
Eu0 Sm1 3.851981 1_545
Eu0 Sm1 3.851981 1_655
Eu0 Eu1 3.913584 1_655
Eu0 Eu2 3.913584 1_545
Eu1 Eu2 3.790048 1_555
Eu1 Sm0 3.809455 1_556
Eu1 Sm0 3.809455 1_555
Eu1 Eu3 3.850863 1_545
Eu1 Eu3 3.850863 1_546
Eu1 Eu5 3.850871 1_556
Eu1 Eu5 3.850871 1_555
Eu1 Sm1 3.851974 1_545
Eu1 Sm1 3.851989 1_555
Eu1 Eu2 3.913584 1_445
Eu2 Sm0 3.809455 1_555
Eu2 Sm0 3.809455 1_556
Eu2 Eu3 3.850863 1_655
Eu2 Eu3 3.850863 1_656
Eu2 Eu4 3.850871 1_556
Eu2 Eu4 3.850871 1_555
Eu2 Sm1 3.851974 1_655
Eu2 Sm1 3.851989 1_555
Eu3 Eu4 3.790049 1_555
Eu3 Eu5 3.790049 1_555
Eu3 Sm1 3.809455 1_555
Eu3 Sm1 3.809455 1_554
Eu3 Sm0 3.851981 1_455
Eu3 Sm0 3.851981 1_565
Eu3 Eu5 3.913584 1_565
Eu3 Eu4 3.913584 1_455
Eu4 Eu5 3.790048 1_555
Eu4 Sm1 3.809455 1_555
Eu4 Sm1 3.809455 1_554
Eu4 Sm0 3.851974 1_565
Eu4 Sm0 3.851989 1_555
Eu4 Eu5 3.913584 1_665
Eu5 Sm1 3.809455 1_554
Eu5 Sm1 3.809455 1_555
Eu5 Sm0 3.851974 1_455
Eu5 Sm0 3.851989 1_555
