# generated using pymatgen
data_Ti
_symmetry_space_group_name_H-M   'P 1'
_cell_length_a   12.49990441
_cell_length_b   11.45705503
_cell_length_c   12.33946894
_cell_angle_alpha   93.00327260
_cell_angle_beta   87.91287175
_cell_angle_gamma   88.32714176
_symmetry_Int_Tables_number   1
_chemical_formula_structural   Ti
_chemical_formula_sum   Ti100
_cell_volume   1762.70672182
_cell_formula_units_Z   100
loop_
 _symmetry_equiv_pos_site_id
 _symmetry_equiv_pos_as_xyz
  1  'x, y, z'
loop_
 _atom_site_type_symbol
 _atom_site_label
 _atom_site_symmetry_multiplicity
 _atom_site_fract_x
 _atom_site_fract_y
 _atom_site_fract_z
 _atom_site_occupancy
  Ti  Ti0  1  0.99081943  0.96553572  0.72859043  1
  Ti  Ti1  1  0.58788243  0.92005664  0.18634622  1
  Ti  Ti2  1  0.40817869  0.61565645  0.31591571  1
  Ti  Ti3  1  0.26624178  0.50417370  0.42342374  1
  Ti  Ti4  1  0.52628855  0.21800845  0.64103139  1
  Ti  Ti5  1  0.60376805  0.70835337  0.31882142  1
  Ti  Ti6  1  0.28635457  0.77274941  0.81330812  1
  Ti  Ti7  1  0.16538675  0.46478884  0.75214215  1
  Ti  Ti8  1  0.94053249  0.61223507  0.92822827  1
  Ti  Ti9  1  0.79949632  0.82094021  0.22658298  1
  Ti  Ti10  1  0.02330549  0.99301768  0.08863515  1
  Ti  Ti11  1  0.88153196  0.49781127  0.50623099  1
  Ti  Ti12  1  0.07384678  0.85872404  0.52030139  1
  Ti  Ti13  1  0.62123275  0.46696684  0.42749145  1
  Ti  Ti14  1  0.27422442  0.78278250  0.49802333  1
  Ti  Ti15  1  0.58898340  0.23879928  0.40986030  1
  Ti  Ti16  1  0.89388156  0.05791749  0.25883938  1
  Ti  Ti17  1  0.25548765  0.18009624  0.92474748  1
  Ti  Ti18  1  0.42018158  0.78517297  0.97415639  1
  Ti  Ti19  1  0.88426624  0.25683717  0.41520678  1
  Ti  Ti20  1  0.71704500  0.34625219  0.24185580  1
  Ti  Ti21  1  0.62863961  0.60210388  0.91419008  1
  Ti  Ti22  1  0.59200175  0.98861059  0.72772829  1
  Ti  Ti23  1  0.21979393  0.07626584  0.14301922  1
  Ti  Ti24  1  0.01913334  0.14155504  0.93811976  1
  Ti  Ti25  1  0.68749084  0.58153626  0.64641472  1
  Ti  Ti26  1  0.56471448  0.20530599  0.16368749  1
  Ti  Ti27  1  0.75261046  0.87940853  0.41417708  1
  Ti  Ti28  1  0.43629007  0.48366725  0.96664185  1
  Ti  Ti29  1  0.28305238  0.60516981  0.63470709  1
  Ti  Ti30  1  0.17060203  0.62784655  0.92716066  1
  Ti  Ti31  1  0.89022628  0.73613117  0.54808043  1
  Ti  Ti32  1  0.70733485  0.40582099  0.01532109  1
  Ti  Ti33  1  0.20190216  0.40610903  0.98689543  1
  Ti  Ti34  1  0.44755653  0.58133610  0.76709092  1
  Ti  Ti35  1  0.08185337  0.28221071  0.14631106  1
  Ti  Ti36  1  0.44191214  0.36896763  0.32775552  1
  Ti  Ti37  1  0.76225074  0.63009599  0.39804478  1
  Ti  Ti38  1  0.43605448  0.80537402  0.65211284  1
  Ti  Ti39  1  0.44365208  0.07605483  0.29166181  1
  Ti  Ti40  1  0.54022024  0.46729720  0.16485819  1
  Ti  Ti41  1  0.25383625  0.24403023  0.31372206  1
  Ti  Ti42  1  0.69331631  0.07833746  0.29533923  1
  Ti  Ti43  1  0.76788071  0.58693924  0.16925875  1
  Ti  Ti44  1  0.42052095  0.04039453  0.05681342  1
  Ti  Ti45  1  0.55697460  0.69436201  0.10791280  1
  Ti  Ti46  1  0.79729195  0.93898323  0.63410828  1
  Ti  Ti47  1  0.37616199  0.83341377  0.20997005  1
  Ti  Ti48  1  0.47654329  0.19011384  0.87864473  1
  Ti  Ti49  1  0.48427240  0.62826837  0.52286299  1
  Ti  Ti50  1  0.96646505  0.58012401  0.71063219  1
  Ti  Ti51  1  0.81497759  0.00744158  0.86452316  1
  Ti  Ti52  1  0.42868422  0.41109724  0.57028209  1
  Ti  Ti53  1  0.18613477  0.96434431  0.92024415  1
  Ti  Ti54  1  0.79147966  0.99258392  0.07683747  1
  Ti  Ti55  1  0.76413657  0.76198988  0.00739772  1
  Ti  Ti56  1  0.07698160  0.13051225  0.32554015  1
  Ti  Ti57  1  0.08315435  0.40312837  0.36771512  1
  Ti  Ti58  1  0.84823408  0.25606992  0.86083672  1
  Ti  Ti59  1  0.45409875  0.85593258  0.41143550  1
  Ti  Ti60  1  0.13758551  0.11473145  0.54153054  1
  Ti  Ti61  1  0.58934571  0.76821698  0.78660705  1
  Ti  Ti62  1  0.08528729  0.59371158  0.52483852  1
  Ti  Ti63  1  0.81614937  0.75889403  0.78227686  1
  Ti  Ti64  1  0.20716559  0.95711724  0.69600790  1
  Ti  Ti65  1  0.85717463  0.21842227  0.09403086  1
  Ti  Ti66  1  0.19664176  0.34907023  0.55403968  1
  Ti  Ti67  1  0.19387983  0.82497156  0.08882378  1
  Ti  Ti68  1  0.25446591  0.98206637  0.36516963  1
  Ti  Ti69  1  0.37321126  0.27607721  0.08645650  1
  Ti  Ti70  1  0.79983936  0.48520161  0.80165267  1
  Ti  Ti71  1  0.40074607  0.96915005  0.83177194  1
  Ti  Ti72  1  0.73653239  0.34865358  0.61054003  1
  Ti  Ti73  1  0.69920823  0.17461384  0.74628778  1
  Ti  Ti74  1  0.31987562  0.62863554  0.10694526  1
  Ti  Ti75  1  0.64324902  0.78510929  0.56086287  1
  Ti  Ti76  1  0.19964492  0.69276359  0.29768896  1
  Ti  Ti77  1  0.01583371  0.38211873  0.88050663  1
  Ti  Ti78  1  0.97089896  0.75735453  0.11171697  1
  Ti  Ti79  1  0.39395107  0.00385069  0.59134357  1
  Ti  Ti80  1  0.09865771  0.74872735  0.71770667  1
  Ti  Ti81  1  0.06215837  0.88260446  0.28751670  1
  Ti  Ti82  1  0.60522850  0.93337077  0.95514073  1
  Ti  Ti83  1  0.93200255  0.00621411  0.45943264  1
  Ti  Ti84  1  0.91353458  0.42704240  0.27331371  1
  Ti  Ti85  1  0.30818066  0.18206364  0.68922000  1
  Ti  Ti86  1  0.36219111  0.36718780  0.79331439  1
  Ti  Ti87  1  0.08943789  0.55737442  0.13769944  1
  Ti  Ti88  1  0.96045285  0.66878653  0.33366461  1
  Ti  Ti89  1  0.98641769  0.36402195  0.64717027  1
  Ti  Ti90  1  0.67009198  0.16467456  0.97164010  1
  Ti  Ti91  1  0.57939889  0.01786273  0.49747073  1
  Ti  Ti92  1  0.59256308  0.38677771  0.81315844  1
  Ti  Ti93  1  0.99726329  0.83473753  0.90928799  1
  Ti  Ti94  1  0.25857930  0.43876031  0.20483096  1
  Ti  Ti95  1  0.92105489  0.43846221  0.06484318  1
  Ti  Ti96  1  0.91624957  0.15949625  0.63977695  1
  Ti  Ti97  1  0.74716025  0.12557147  0.51450098  1
  Ti  Ti98  1  0.36948986  0.18963924  0.47787106  1
  Ti  Ti99  1  0.11273901  0.20948550  0.75327466  1
loop_
_geom_bond_atom_site_label_1
_geom_bond_atom_site_label_2
_geom_bond_distance
_geom_bond_site_symmetry_2
Ti0 Ti96 2.686404 1_565
Ti0 Ti64 2.717671 1_655
Ti0 Ti51 2.731422 1_565
Ti0 Ti46 2.741337 1_555
Ti0 Ti93 2.753172 1_555
Ti0 Ti80 2.785965 1_655
Ti0 Ti12 2.929580 1_655
Ti0 Ti99 3.228052 1_665
Ti0 Ti24 3.230923 1_665
Ti1 Ti42 2.616736 1_565
Ti1 Ti39 2.744327 1_565
Ti1 Ti45 2.756015 1_555
Ti1 Ti47 2.863873 1_555
Ti1 Ti82 2.865676 1_554
Ti1 Ti9 2.917578 1_555
Ti1 Ti54 2.997303 1_555
Ti1 Ti5 3.000934 1_555
Ti1 Ti44 3.022943 1_565
Ti1 Ti59 3.316311 1_555
Ti2 Ti3 2.584076 1_555
Ti2 Ti5 2.694527 1_555
Ti2 Ti76 2.748586 1_555
Ti2 Ti49 2.755511 1_555
Ti2 Ti74 2.850868 1_555
Ti2 Ti36 2.857524 1_555
Ti2 Ti40 2.892725 1_555
Ti2 Ti47 2.900884 1_555
Ti2 Ti59 3.016368 1_555
Ti2 Ti94 3.098408 1_555
Ti2 Ti45 3.294370 1_555
Ti3 Ti66 2.607805 1_555
Ti3 Ti57 2.690025 1_555
Ti3 Ti62 2.694151 1_555
Ti3 Ti94 2.767229 1_555
Ti3 Ti36 2.834775 1_555
Ti3 Ti76 2.847635 1_555
Ti3 Ti52 2.981300 1_555
Ti3 Ti41 3.218571 1_555
Ti3 Ti49 3.352850 1_555
Ti4 Ti73 2.610648 1_555
Ti4 Ti52 2.695734 1_555
Ti4 Ti85 2.815878 1_555
Ti4 Ti91 2.869988 1_555
Ti4 Ti98 2.873428 1_555
Ti4 Ti92 2.954256 1_555
Ti4 Ti48 3.010405 1_555
Ti4 Ti79 3.047255 1_555
Ti4 Ti72 3.083048 1_555
Ti4 Ti86 3.136504 1_555
Ti4 Ti97 3.244039 1_555
Ti5 Ti59 2.668723 1_555
Ti5 Ti9 3.013364 1_555
Ti5 Ti75 3.129621 1_555
Ti6 Ti80 2.679043 1_555
Ti6 Ti71 2.705109 1_555
Ti6 Ti64 2.799886 1_555
Ti7 Ti77 2.635443 1_555
Ti7 Ti86 2.747773 1_555
Ti7 Ti89 2.867125 1_455
Ti7 Ti99 3.017457 1_555
Ti8 Ti93 2.685503 1_555
Ti8 Ti95 2.686061 1_556
Ti8 Ti87 3.315550 1_656
Ti10 Ti24 2.584842 1_564
Ti10 Ti16 2.664531 1_465
Ti10 Ti23 2.753570 1_565
Ti10 Ti93 2.821076 1_454
Ti10 Ti78 2.823214 1_455
Ti10 Ti67 2.830920 1_555
Ti10 Ti53 2.854723 1_554
Ti10 Ti81 2.869657 1_555
Ti10 Ti54 2.906881 1_455
Ti11 Ti37 2.554856 1_555
Ti11 Ti89 2.724162 1_555
Ti11 Ti31 2.758164 1_555
Ti11 Ti62 2.815368 1_655
Ti11 Ti72 2.846670 1_555
Ti11 Ti50 2.895209 1_555
Ti11 Ti19 2.924345 1_555
Ti11 Ti84 2.954805 1_555
Ti11 Ti25 3.029859 1_555
Ti11 Ti88 3.121141 1_555
Ti11 Ti57 3.127653 1_655
Ti11 Ti13 3.452098 1_555
Ti12 Ti83 2.572605 1_465
Ti12 Ti14 2.627482 1_555
Ti12 Ti31 2.745861 1_455
Ti12 Ti80 2.823429 1_555
Ti12 Ti81 2.908212 1_555
Ti12 Ti64 2.977489 1_555
Ti12 Ti62 3.039000 1_555
Ti12 Ti60 3.062278 1_565
Ti12 Ti68 3.303565 1_555
Ti13 Ti37 2.636119 1_555
Ti13 Ti15 2.655526 1_555
Ti13 Ti49 2.678011 1_555
Ti13 Ti20 2.822356 1_555
Ti13 Ti36 2.828885 1_555
Ti13 Ti52 3.034196 1_555
Ti13 Ti72 3.075760 1_555
Ti13 Ti25 3.092145 1_555
Ti13 Ti5 3.141472 1_555
Ti13 Ti2 3.483956 1_555
Ti14 Ti59 2.632146 1_555
Ti14 Ti29 2.712524 1_555
Ti14 Ti76 2.828510 1_555
Ti14 Ti38 2.834320 1_555
Ti14 Ti68 2.889681 1_555
Ti14 Ti64 3.146781 1_555
Ti14 Ti49 3.156833 1_555
Ti14 Ti2 3.256902 1_555
Ti14 Ti62 3.270532 1_555
Ti15 Ti42 2.555599 1_555
Ti15 Ti36 2.600786 1_555
Ti15 Ti97 2.733335 1_555
Ti15 Ti91 2.808107 1_555
Ti15 Ti20 2.918301 1_555
Ti15 Ti98 2.919102 1_555
Ti15 Ti4 2.954164 1_555
Ti15 Ti39 3.001632 1_555
Ti15 Ti26 3.068928 1_555
Ti15 Ti52 3.301649 1_555
Ti15 Ti72 3.355487 1_555
Ti16 Ti42 2.532851 1_555
Ti16 Ti56 2.604630 1_655
Ti16 Ti83 2.632056 1_555
Ti16 Ti54 2.707685 1_545
Ti16 Ti65 2.852793 1_555
Ti16 Ti19 2.904773 1_555
Ti16 Ti81 2.909652 1_645
Ti16 Ti9 3.004982 1_545
Ti17 Ti53 2.641787 1_545
Ti17 Ti33 2.719409 1_555
Ti17 Ti69 2.726669 1_556
Ti17 Ti48 2.807632 1_555
Ti17 Ti99 2.844081 1_555
Ti17 Ti85 2.957892 1_555
Ti17 Ti24 2.999837 1_555
Ti17 Ti23 3.024493 1_556
Ti17 Ti86 3.062282 1_555
Ti17 Ti71 3.123395 1_545
Ti17 Ti44 3.130249 1_556
Ti18 Ti6 2.642745 1_555
Ti18 Ti45 2.648012 1_556
Ti18 Ti74 2.786207 1_556
Ti18 Ti71 2.824555 1_555
Ti18 Ti82 2.918863 1_555
Ti18 Ti47 2.961818 1_556
Ti18 Ti44 3.046164 1_566
Ti18 Ti61 3.072013 1_555
Ti18 Ti67 3.126873 1_556
Ti18 Ti34 3.371033 1_555
Ti19 Ti97 2.625024 1_555
Ti19 Ti84 2.711994 1_555
Ti19 Ti56 2.925121 1_655
Ti19 Ti83 2.997782 1_555
Ti19 Ti96 3.075866 1_555
Ti19 Ti72 3.102099 1_555
Ti19 Ti20 3.228692 1_555
Ti20 Ti84 2.684103 1_555
Ti20 Ti26 2.704401 1_555
Ti20 Ti40 2.797040 1_555
Ti20 Ti65 2.806757 1_555
Ti20 Ti32 2.917893 1_555
Ti20 Ti43 3.021608 1_555
Ti20 Ti42 3.193212 1_555
Ti21 Ti61 2.580201 1_555
Ti21 Ti45 2.675424 1_556
Ti21 Ti92 2.761756 1_555
Ti21 Ti55 2.765730 1_556
Ti21 Ti70 2.779039 1_555
Ti21 Ti32 2.799361 1_556
Ti21 Ti28 2.865352 1_555
Ti21 Ti34 2.959776 1_555
Ti21 Ti25 3.353462 1_555
Ti22 Ti73 2.554909 1_565
Ti22 Ti61 2.664631 1_555
Ti22 Ti71 2.692742 1_555
Ti22 Ti46 2.805850 1_555
Ti22 Ti91 2.887763 1_565
Ti22 Ti82 2.918241 1_555
Ti22 Ti4 2.993211 1_565
Ti22 Ti38 3.040378 1_555
Ti22 Ti79 3.049652 1_565
Ti22 Ti75 3.065885 1_555
Ti22 Ti48 3.168561 1_565
Ti22 Ti51 3.317197 1_565
Ti23 Ti44 2.701007 1_555
Ti23 Ti41 2.828627 1_555
Ti23 Ti56 2.853270 1_555
Ti23 Ti35 2.879120 1_555
Ti23 Ti67 2.951236 1_545
Ti23 Ti53 3.020640 1_544
Ti23 Ti68 3.039098 1_545
Ti23 Ti69 3.119557 1_555
Ti24 Ti99 2.687382 1_555
Ti24 Ti58 2.703714 1_455
Ti24 Ti65 2.830189 1_456
Ti24 Ti53 2.863664 1_545
Ti24 Ti77 2.881716 1_555
Ti24 Ti35 3.098039 1_556
Ti24 Ti51 3.154291 1_455
Ti24 Ti93 3.534156 1_445
Ti25 Ti75 2.661826 1_555
Ti25 Ti70 2.680802 1_555
Ti25 Ti72 2.729788 1_555
Ti25 Ti61 2.894242 1_555
Ti25 Ti49 3.058078 1_555
Ti25 Ti63 3.091301 1_555
Ti25 Ti37 3.252065 1_555
Ti25 Ti34 3.299661 1_555
Ti25 Ti92 3.328396 1_555
Ti25 Ti31 3.360775 1_555
Ti26 Ti39 2.679243 1_555
Ti26 Ti90 2.681186 1_554
Ti26 Ti69 2.725727 1_555
Ti26 Ti42 2.764154 1_555
Ti26 Ti44 2.944235 1_555
Ti26 Ti40 3.007543 1_555
Ti26 Ti36 3.029632 1_555
Ti27 Ti9 2.422053 1_555
Ti27 Ti75 2.534376 1_555
Ti27 Ti83 2.765360 1_565
Ti27 Ti91 2.779743 1_565
Ti27 Ti46 2.842758 1_555
Ti27 Ti37 2.851609 1_555
Ti27 Ti42 2.867904 1_565
Ti27 Ti31 2.951293 1_555
Ti27 Ti5 2.969423 1_555
Ti27 Ti97 3.017953 1_565
Ti28 Ti86 2.670306 1_555
Ti28 Ti74 2.692120 1_556
Ti28 Ti34 2.758230 1_555
Ti28 Ti40 2.823211 1_556
Ti28 Ti92 2.831698 1_555
Ti28 Ti69 2.976104 1_556
Ti28 Ti33 3.091581 1_555
Ti29 Ti7 2.660267 1_555
Ti29 Ti34 2.688861 1_555
Ti29 Ti3 2.813923 1_555
Ti29 Ti6 2.848293 1_555
Ti29 Ti49 2.850506 1_555
Ti29 Ti62 2.865419 1_555
Ti29 Ti52 2.891847 1_555
Ti29 Ti80 2.914954 1_555
Ti29 Ti38 3.033075 1_555
Ti29 Ti66 3.274752 1_555
Ti30 Ti6 2.657049 1_555
Ti30 Ti33 2.703610 1_555
Ti30 Ti7 2.784403 1_555
Ti30 Ti8 2.886205 1_455
Ti30 Ti87 2.916525 1_556
Ti30 Ti74 2.950183 1_556
Ti30 Ti67 2.961974 1_556
Ti30 Ti80 3.142984 1_555
Ti30 Ti93 3.186163 1_455
Ti31 Ti46 2.715097 1_555
Ti31 Ti37 2.748797 1_555
Ti31 Ti88 2.818406 1_555
Ti31 Ti62 2.890934 1_655
Ti31 Ti50 2.922601 1_555
Ti31 Ti63 2.998119 1_555
Ti31 Ti75 3.118434 1_555
Ti32 Ti40 2.785967 1_555
Ti32 Ti95 2.793451 1_555
Ti32 Ti90 2.842145 1_554
Ti32 Ti43 2.875804 1_555
Ti32 Ti92 2.924146 1_554
Ti32 Ti58 2.985916 1_554
Ti32 Ti65 3.029415 1_555
Ti32 Ti70 3.034169 1_554
Ti33 Ti77 2.725872 1_555
Ti33 Ti87 2.787786 1_556
Ti33 Ti94 2.814699 1_556
Ti33 Ti35 2.887605 1_556
Ti33 Ti69 2.917404 1_556
Ti33 Ti7 3.055131 1_555
Ti33 Ti86 3.067033 1_555
Ti33 Ti74 3.294212 1_556
Ti34 Ti86 2.733848 1_555
Ti34 Ti61 2.825274 1_555
Ti34 Ti92 2.923902 1_555
Ti34 Ti6 2.953326 1_555
Ti34 Ti38 2.999504 1_555
Ti34 Ti52 3.054472 1_555
Ti34 Ti49 3.108901 1_555
Ti35 Ti56 2.883522 1_555
Ti35 Ti95 2.894987 1_455
Ti35 Ti94 2.971560 1_555
Ti35 Ti84 2.986564 1_455
Ti35 Ti57 2.998552 1_555
Ti35 Ti65 3.006682 1_455
Ti35 Ti41 3.073026 1_555
Ti35 Ti87 3.163980 1_555
Ti36 Ti40 2.637759 1_555
Ti36 Ti41 2.793916 1_555
Ti36 Ti94 2.909478 1_555
Ti36 Ti98 2.976109 1_555
Ti36 Ti52 3.004031 1_555
Ti36 Ti69 3.262386 1_555
Ti37 Ti5 2.411053 1_555
Ti37 Ti88 2.631217 1_555
Ti37 Ti43 2.838405 1_555
Ti37 Ti75 2.942358 1_555
Ti37 Ti9 3.153794 1_555
Ti37 Ti84 3.242369 1_555
Ti38 Ti79 2.479456 1_565
Ti38 Ti49 2.558056 1_555
Ti38 Ti61 2.620120 1_555
Ti38 Ti6 2.728598 1_555
Ti38 Ti75 2.784683 1_555
Ti38 Ti71 2.841613 1_555
Ti38 Ti59 3.057025 1_555
Ti39 Ti98 2.700646 1_555
Ti39 Ti68 2.769370 1_545
Ti39 Ti44 2.931252 1_555
Ti39 Ti59 2.991156 1_545
Ti39 Ti41 3.006473 1_555
Ti39 Ti47 3.059606 1_545
Ti39 Ti91 3.193491 1_555
Ti40 Ti45 2.741902 1_555
Ti40 Ti43 3.195512 1_555
Ti40 Ti69 3.207135 1_555
Ti40 Ti74 3.390886 1_555
Ti41 Ti56 2.600785 1_555
Ti41 Ti98 2.621814 1_555
Ti41 Ti94 2.665049 1_555
Ti41 Ti57 2.803654 1_555
Ti41 Ti68 3.099956 1_545
Ti41 Ti69 3.171874 1_555
Ti41 Ti66 3.189726 1_555
Ti42 Ti97 2.838976 1_555
Ti42 Ti91 2.951053 1_555
Ti42 Ti54 3.025131 1_545
Ti43 Ti95 2.760480 1_555
Ti43 Ti9 2.779853 1_555
Ti43 Ti55 2.904251 1_555
Ti43 Ti84 2.922577 1_555
Ti43 Ti5 2.972846 1_555
Ti43 Ti45 3.015196 1_555
Ti43 Ti78 3.325585 1_555
Ti43 Ti88 3.328260 1_555
Ti44 Ti69 2.749957 1_555
Ti44 Ti82 2.805478 1_544
Ti44 Ti71 2.874502 1_544
Ti44 Ti48 2.935878 1_554
Ti44 Ti47 3.157944 1_545
Ti45 Ti5 2.685789 1_555
Ti45 Ti47 2.933329 1_555
Ti45 Ti55 2.971217 1_555
Ti45 Ti74 3.079406 1_555
Ti46 Ti97 2.731424 1_565
Ti46 Ti75 2.791140 1_555
Ti46 Ti63 2.837918 1_555
Ti46 Ti83 2.838985 1_565
Ti46 Ti51 2.927465 1_565
Ti46 Ti96 2.967690 1_565
Ti46 Ti73 3.162096 1_565
Ti47 Ti59 2.705473 1_555
Ti47 Ti74 2.732139 1_555
Ti47 Ti67 2.771541 1_555
Ti47 Ti68 2.859536 1_555
Ti47 Ti76 2.975423 1_555
Ti48 Ti86 2.726130 1_555
Ti48 Ti90 2.729658 1_555
Ti48 Ti71 2.769062 1_545
Ti48 Ti92 2.851180 1_555
Ti48 Ti69 2.938323 1_556
Ti48 Ti73 3.171006 1_555
Ti48 Ti85 3.201247 1_555
Ti49 Ti52 2.690709 1_555
Ti49 Ti75 2.754241 1_555
Ti49 Ti59 3.031905 1_555
Ti49 Ti5 3.075755 1_555
Ti50 Ti89 2.559694 1_555
Ti50 Ti80 2.578505 1_655
Ti50 Ti70 2.621470 1_555
Ti50 Ti8 2.697386 1_555
Ti50 Ti62 2.699837 1_655
Ti50 Ti63 2.823395 1_555
Ti50 Ti7 2.857098 1_655
Ti51 Ti54 2.640538 1_546
Ti51 Ti90 2.767270 1_555
Ti51 Ti73 2.859341 1_555
Ti51 Ti58 2.893172 1_555
Ti51 Ti63 2.972002 1_545
Ti51 Ti82 2.976635 1_545
Ti51 Ti93 3.058606 1_545
Ti52 Ti98 2.855406 1_555
Ti52 Ti86 2.919047 1_555
Ti52 Ti66 3.017599 1_555
Ti53 Ti67 2.690727 1_556
Ti53 Ti6 2.746738 1_555
Ti53 Ti64 2.766541 1_555
Ti53 Ti93 2.829111 1_455
Ti53 Ti71 2.862324 1_555
Ti54 Ti65 2.737413 1_565
Ti54 Ti55 2.769050 1_555
Ti54 Ti9 2.770257 1_555
Ti54 Ti90 2.848106 1_564
Ti54 Ti82 2.894050 1_554
Ti54 Ti93 3.620884 1_554
Ti55 Ti9 2.807068 1_555
Ti55 Ti63 2.827952 1_554
Ti55 Ti8 2.864692 1_554
Ti55 Ti82 2.866180 1_554
Ti55 Ti78 2.929332 1_555
Ti55 Ti93 3.262302 1_554
Ti56 Ti60 2.810595 1_555
Ti56 Ti68 2.828332 1_545
Ti56 Ti81 2.866907 1_545
Ti56 Ti83 2.867223 1_455
Ti56 Ti57 3.143079 1_555
Ti57 Ti84 2.471189 1_455
Ti57 Ti66 2.831522 1_555
Ti57 Ti62 2.844479 1_555
Ti57 Ti94 2.971859 1_555
Ti57 Ti87 3.420880 1_555
Ti58 Ti73 2.548328 1_555
Ti58 Ti77 2.590437 1_655
Ti58 Ti70 2.816233 1_555
Ti58 Ti90 2.826429 1_555
Ti58 Ti65 2.937543 1_556
Ti58 Ti96 2.974496 1_555
Ti59 Ti91 2.665797 1_565
Ti59 Ti79 2.788435 1_565
Ti59 Ti68 2.936145 1_555
Ti59 Ti75 3.163972 1_555
Ti60 Ti99 2.779524 1_555
Ti60 Ti66 2.803155 1_555
Ti60 Ti64 2.835591 1_545
Ti60 Ti68 2.910801 1_545
Ti60 Ti85 2.948779 1_555
Ti60 Ti96 2.999156 1_455
Ti60 Ti83 3.069187 1_455
Ti60 Ti98 3.131544 1_555
Ti61 Ti82 2.753947 1_555
Ti61 Ti63 2.832369 1_555
Ti61 Ti75 2.859756 1_555
Ti61 Ti71 3.258982 1_555
Ti62 Ti80 2.906797 1_555
Ti62 Ti88 3.023561 1_455
Ti62 Ti66 3.136548 1_555
Ti62 Ti89 3.346844 1_455
Ti62 Ti76 3.365069 1_555
Ti62 Ti7 3.406389 1_555
Ti63 Ti93 2.926978 1_555
Ti63 Ti8 2.975342 1_555
Ti63 Ti70 3.169185 1_555
Ti64 Ti79 2.707724 1_565
Ti64 Ti80 2.800226 1_555
Ti64 Ti85 2.906608 1_565
Ti64 Ti71 2.995189 1_555
Ti64 Ti99 3.127072 1_565
Ti65 Ti95 2.704539 1_555
Ti65 Ti90 2.893534 1_554
Ti65 Ti84 3.280407 1_555
Ti66 Ti7 2.728817 1_555
Ti66 Ti89 2.826363 1_455
Ti66 Ti98 2.886135 1_555
Ti66 Ti85 2.955582 1_555
Ti66 Ti99 3.166001 1_555
Ti67 Ti74 2.731645 1_555
Ti67 Ti78 2.922380 1_455
Ti67 Ti81 2.937853 1_555
Ti67 Ti76 3.059114 1_555
Ti67 Ti93 3.371519 1_454
Ti67 Ti87 3.440608 1_555
Ti68 Ti81 2.865023 1_555
Ti68 Ti98 3.107354 1_565
Ti68 Ti79 3.346349 1_565
Ti68 Ti76 3.469033 1_555
Ti69 Ti94 2.658401 1_555
Ti70 Ti8 2.786018 1_555
Ti70 Ti92 2.857490 1_555
Ti70 Ti72 2.908012 1_555
Ti70 Ti77 3.123569 1_655
Ti70 Ti89 3.195354 1_555
Ti71 Ti79 3.017765 1_565
Ti71 Ti82 3.050619 1_555
Ti71 Ti85 3.288843 1_565
Ti72 Ti73 2.710503 1_555
Ti72 Ti97 2.757863 1_555
Ti72 Ti92 3.031884 1_555
Ti72 Ti96 3.119309 1_555
Ti72 Ti89 3.180948 1_555
Ti73 Ti90 2.799957 1_555
Ti73 Ti92 2.808394 1_555
Ti73 Ti97 2.922734 1_555
Ti73 Ti96 2.967607 1_555
Ti74 Ti94 2.661510 1_555
Ti74 Ti76 2.799090 1_555
Ti74 Ti87 3.032777 1_555
Ti75 Ti91 2.915439 1_565
Ti76 Ti81 2.743358 1_555
Ti76 Ti87 2.864122 1_555
Ti76 Ti88 3.029184 1_455
Ti76 Ti94 3.128640 1_555
Ti77 Ti95 2.568922 1_456
Ti77 Ti99 2.690775 1_555
Ti77 Ti8 2.799228 1_455
Ti77 Ti89 2.913291 1_455
Ti78 Ti9 2.590281 1_555
Ti78 Ti93 2.706127 1_554
Ti78 Ti87 2.731517 1_655
Ti78 Ti8 2.782055 1_554
Ti78 Ti81 2.831231 1_655
Ti78 Ti88 2.969879 1_555
Ti79 Ti85 2.509282 1_555
Ti79 Ti91 2.566448 1_555
Ti79 Ti98 2.624959 1_555
Ti80 Ti93 2.762373 1_455
Ti81 Ti88 2.866516 1_455
Ti81 Ti83 2.907226 1_465
Ti82 Ti90 2.793310 1_565
Ti83 Ti97 2.697037 1_555
Ti83 Ti96 2.759249 1_555
Ti84 Ti95 2.581017 1_555
Ti84 Ti88 2.912070 1_555
Ti84 Ti87 3.170195 1_655
Ti85 Ti86 2.542734 1_555
Ti85 Ti99 2.545627 1_555
Ti85 Ti98 2.697811 1_555
Ti86 Ti92 2.913061 1_555
Ti87 Ti94 2.660981 1_555
Ti87 Ti95 2.696530 1_455
Ti87 Ti88 3.057535 1_455
Ti88 Ti9 3.010466 1_555
Ti89 Ti96 2.524266 1_555
Ti89 Ti99 2.751816 1_655
Ti91 Ti97 2.473945 1_555
Ti91 Ti98 3.257434 1_555
Ti96 Ti97 2.689049 1_555
Ti96 Ti99 2.927537 1_655
