# generated using pymatgen
data_Tb4(Al8Pt3)3
_symmetry_space_group_name_H-M   'P 1'
_cell_length_a   7.48892188
_cell_length_b   7.50273798
_cell_length_c   13.10718031
_cell_angle_alpha   84.57709887
_cell_angle_beta   79.07391352
_cell_angle_gamma   59.92665149
_symmetry_Int_Tables_number   1
_chemical_formula_structural   Tb4(Al8Pt3)3
_chemical_formula_sum   'Tb4 Al24 Pt9'
_cell_volume   625.76685510
_cell_formula_units_Z   1
loop_
 _symmetry_equiv_pos_site_id
 _symmetry_equiv_pos_as_xyz
  1  'x, y, z'
loop_
 _atom_site_type_symbol
 _atom_site_label
 _atom_site_symmetry_multiplicity
 _atom_site_fract_x
 _atom_site_fract_y
 _atom_site_fract_z
 _atom_site_occupancy
  Tb  Tb0  1  0.39408670  0.16806870  0.80805366  1
  Tb  Tb1  1  0.60591724  0.83193157  0.19193336  1
  Tb  Tb2  1  0.73364742  0.49862488  0.80804249  1
  Tb  Tb3  1  0.26635716  0.50137458  0.19194427  1
  Al  Al0  1  0.68476953  0.83365753  0.94534151  1
  Al  Al1  1  0.31523340  0.16634403  0.05464666  1
  Al  Al2  1  0.14673854  0.83254418  0.56103446  1
  Al  Al3  1  0.85325537  0.16745597  0.43897808  1
  Al  Al4  1  0.48016461  0.16662993  0.55887873  1
  Al  Al5  1  0.51983256  0.83336826  0.44113491  1
  Al  Al6  1  0.21664540  0.16543266  0.33039425  1
  Al  Al7  1  0.78335415  0.83456747  0.66961300  1
  Al  Al8  1  0.43733941  0.50686023  0.66977909  1
  Al  Al9  1  0.56265653  0.49314151  0.33022706  1
  Al  Al10  1  0.11009385  0.15964791  0.66834742  1
  Al  Al11  1  0.88990539  0.84035237  0.33165583  1
  Al  Al12  1  0.35158243  0.50026589  0.94525654  1
  Al  Al13  1  0.64842307  0.49973332  0.05472961  1
  Al  Al14  1  0.01487513  0.16688604  0.95471033  1
  Al  Al15  1  0.98513196  0.83311621  0.04527982  1
  Al  Al16  1  0.18650140  0.49949082  0.44118198  1
  Al  Al17  1  0.81349282  0.50050867  0.55883084  1
  Al  Al18  1  0.73477062  0.16396199  0.18345658  1
  Al  Al19  1  0.26522212  0.83603782  0.81653891  1
  Al  Al20  1  0.06147766  0.63150672  0.81521719  1
  Al  Al21  1  0.93852225  0.36849964  0.18477927  1
  Al  Al22  1  0.85604941  0.04087672  0.81613113  1
  Al  Al23  1  0.14396321  0.95911337  0.18386555  1
  Pt  Pt0  1  0.12044187  0.49244111  0.63840556  1
  Pt  Pt1  1  0.87954031  0.50755757  0.36161638  1
  Pt  Pt2  1  0.65687484  0.17154957  0.99992878  1
  Pt  Pt3  1  0.34313120  0.82845454  0.00003432  1
  Pt  Pt4  1  0.53822521  0.16668630  0.36166274  1
  Pt  Pt5  1  0.46178370  0.83330942  0.63836146  1
  Pt  Pt6  1  0.77978138  0.17440754  0.63722997  1
  Pt  Pt7  1  0.22021283  0.82559577  0.36279447  1
  Pt  Pt8  1  0.00000033  0.49999519  -0.00001524  1
loop_
_geom_bond_atom_site_label_1
_geom_bond_atom_site_label_2
_geom_bond_distance
_geom_bond_site_symmetry_2
Al0 Pt3 2.541827 1_556
Al0 Pt8 2.594631 1_656
Al0 Pt2 2.595724 1_565
Al0 Al20 2.746772 1_655
Al0 Al22 2.758286 1_565
Al0 Al15 2.807570 1_556
Al0 Al1 2.862076 1_566
Al0 Al13 2.874562 1_556
Al0 Tb2 3.061733 1_555
Al0 Tb0 3.070778 1_565
Al0 Tb1 3.173598 1_556
Al1 Pt2 2.541888 1_554
Al1 Pt8 2.594686 1_555
Al1 Pt3 2.595811 1_545
Al1 Al21 2.746842 1_455
Al1 Al23 2.758356 1_545
Al1 Al14 2.807524 1_554
Al1 Al12 2.874565 1_554
Al1 Tb3 3.061713 1_555
Al1 Tb1 3.070775 1_545
Al1 Tb0 3.173613 1_554
Al2 Pt7 2.551835 1_555
Al2 Pt6 2.740032 1_465
Al2 Pt5 2.741350 1_555
Al2 Pt0 2.741755 1_555
Al2 Al7 2.815299 1_455
Al2 Al8 2.815424 1_555
Al2 Al5 2.937268 1_555
Al2 Al3 2.956713 1_465
Al3 Pt6 2.551988 1_555
Al3 Pt7 2.739981 1_645
Al3 Pt4 2.741179 1_555
Al3 Pt1 2.741670 1_555
Al3 Al6 2.815358 1_655
Al3 Al9 2.815470 1_555
Al3 Al4 2.937258 1_555
Al4 Pt4 2.538682 1_555
Al4 Pt6 2.666235 1_555
Al4 Pt0 2.671431 1_555
Al4 Pt5 2.675177 1_545
Al4 Al7 2.892311 1_545
Al4 Al8 2.904475 1_555
Al4 Al5 2.921130 1_545
Al4 Tb0 3.206849 1_555
Al5 Pt5 2.538820 1_555
Al5 Pt7 2.666159 1_555
Al5 Pt1 2.671345 1_555
Al5 Pt4 2.675159 1_565
Al5 Al6 2.892357 1_565
Al5 Al9 2.904510 1_555
Al5 Tb1 3.207191 1_555
Al6 Pt4 2.522993 1_555
Al6 Pt7 2.532477 1_545
Al6 Pt1 2.538112 1_455
Al6 Tb1 3.097606 1_545
Al6 Tb3 3.099086 1_555
Al7 Pt5 2.522864 1_555
Al7 Pt6 2.532465 1_565
Al7 Pt0 2.538045 1_655
Al7 Tb0 3.097464 1_565
Al7 Tb2 3.098943 1_555
Al8 Pt6 2.521080 1_555
Al8 Pt5 2.536163 1_555
Al8 Pt0 2.539420 1_555
Al8 Tb2 3.094836 1_555
Al8 Tb0 3.095582 1_555
Al9 Pt7 2.521109 1_555
Al9 Pt4 2.536170 1_555
Al9 Pt1 2.539377 1_555
Al9 Tb3 3.094973 1_555
Al9 Tb1 3.095720 1_555
Al10 Pt0 2.528145 1_555
Al10 Pt6 2.529253 1_455
Al10 Pt5 2.532318 1_545
Al10 Al2 2.812093 1_545
Al10 Al22 2.853343 1_455
Al10 Al19 2.855621 1_545
Al10 Al17 2.890727 1_455
Al10 Al4 2.892431 1_555
Al10 Tb2 3.083194 1_455
Al10 Tb0 3.084361 1_555
Al11 Pt1 2.528234 1_555
Al11 Pt7 2.529322 1_655
Al11 Pt4 2.532278 1_565
Al11 Al3 2.812143 1_565
Al11 Al23 2.853414 1_655
Al11 Al18 2.855693 1_565
Al11 Al16 2.890784 1_655
Al11 Al5 2.892494 1_555
Al11 Tb3 3.083320 1_655
Al11 Tb1 3.084486 1_555
Al12 Pt2 2.541476 1_555
Al12 Pt8 2.595420 1_556
Al12 Pt3 2.596774 1_556
Al12 Al20 2.745420 1_555
Al12 Al19 2.754719 1_555
Al12 Al15 2.805869 1_456
Al12 Al13 2.863549 1_556
Al12 Tb0 3.063075 1_555
Al12 Tb2 3.072398 1_555
Al12 Tb3 3.174843 1_556
Al13 Pt3 2.541601 1_555
Al13 Pt8 2.595372 1_655
Al13 Pt2 2.596845 1_554
Al13 Al21 2.745494 1_555
Al13 Al18 2.754796 1_555
Al13 Al14 2.805845 1_654
Al13 Tb1 3.063084 1_555
Al13 Tb3 3.072406 1_555
Al13 Tb2 3.174835 1_554
Al14 Pt8 2.566506 1_556
Al14 Pt2 2.616866 1_455
Al14 Pt3 2.618417 1_546
Al14 Al15 2.761649 1_446
Al14 Al19 2.802662 1_545
Al14 Al22 2.806846 1_455
Al14 Tb2 3.114962 1_455
Al14 Tb0 3.116522 1_555
Al15 Pt8 2.566701 1_655
Al15 Pt3 2.616877 1_655
Al15 Pt2 2.618539 1_564
Al15 Al18 2.802704 1_565
Al15 Al23 2.806885 1_655
Al15 Tb3 3.114934 1_655
Al15 Tb1 3.116528 1_555
Al16 Pt0 2.538815 1_555
Al16 Pt4 2.668099 1_555
Al16 Pt1 2.670809 1_455
Al16 Pt7 2.674173 1_555
Al16 Al9 2.894533 1_555
Al16 Al6 2.904821 1_555
Al16 Al4 2.916632 1_555
Al16 Al17 2.920466 1_455
Al16 Al2 2.935886 1_555
Al16 Tb3 3.207646 1_555
Al17 Pt1 2.538697 1_555
Al17 Pt5 2.668080 1_555
Al17 Pt0 2.670789 1_655
Al17 Pt6 2.674189 1_555
Al17 Al8 2.894487 1_555
Al17 Al7 2.904802 1_555
Al17 Al5 2.916612 1_555
Al17 Al3 2.935885 1_555
Al17 Tb2 3.207310 1_555
Al18 Pt4 2.509655 1_555
Al18 Pt2 2.569616 1_554
Al18 Al23 2.652780 1_645
Al18 Al21 2.654324 1_555
Al18 Al9 2.868703 1_555
Al18 Tb1 3.076610 1_545
Al18 Tb3 3.119563 1_555
Al19 Pt5 2.509389 1_555
Al19 Pt3 2.569246 1_556
Al19 Al22 2.652649 1_465
Al19 Al20 2.654233 1_555
Al19 Al8 2.868597 1_555
Al19 Tb0 3.076662 1_565
Al19 Tb2 3.119615 1_555
Al20 Pt0 2.502354 1_555
Al20 Pt8 2.575173 1_556
Al20 Al22 2.657960 1_465
Al20 Al7 2.842286 1_455
Al20 Al8 2.845391 1_555
Al20 Tb2 3.096553 1_455
Al20 Tb0 3.097763 1_555
Al21 Pt1 2.502614 1_555
Al21 Pt8 2.575435 1_655
Al21 Al23 2.658065 1_645
Al21 Al6 2.842397 1_655
Al21 Al9 2.845480 1_555
Al21 Tb3 3.096523 1_655
Al21 Tb1 3.097725 1_555
Al22 Pt6 2.513689 1_555
Al22 Pt2 2.570661 1_555
Al22 Al7 2.860623 1_545
Al22 Tb2 3.075592 1_555
Al22 Tb0 3.114756 1_555
Al23 Pt7 2.513982 1_555
Al23 Pt3 2.571011 1_555
Al23 Al6 2.860723 1_565
Al23 Tb3 3.075541 1_555
Al23 Tb1 3.114685 1_555
Pt0 Tb0 3.282234 1_555
Pt0 Tb2 3.283277 1_455
Pt1 Tb1 3.282509 1_555
Pt1 Tb3 3.283640 1_655
Pt2 Tb0 3.484079 1_555
Pt2 Tb3 3.484914 1_556
Pt2 Tb1 3.517123 1_546
Pt2 Tb2 3.518157 1_555
Pt3 Tb1 3.484318 1_555
Pt3 Tb2 3.484727 1_554
Pt3 Tb0 3.516901 1_564
Pt3 Tb3 3.518377 1_555
Pt4 Tb1 3.296469 1_545
Pt4 Tb3 3.307048 1_555
Pt5 Tb0 3.296132 1_565
Pt5 Tb2 3.306674 1_555
Pt6 Tb2 3.308008 1_555
Pt6 Tb0 3.320306 1_555
Pt7 Tb3 3.308358 1_555
Pt7 Tb1 3.320601 1_555
Pt8 Tb2 3.498011 1_454
Pt8 Tb3 3.498243 1_555
Pt8 Tb0 3.499168 1_554
Pt8 Tb1 3.499330 1_455
