# generated using pymatgen
data_BH4C4N5
_symmetry_space_group_name_H-M   'P 1'
_cell_length_a   9.15468111
_cell_length_b   9.15468111
_cell_length_c   9.15468111
_cell_angle_alpha   132.20364229
_cell_angle_beta   132.20364229
_cell_angle_gamma   69.90758558
_symmetry_Int_Tables_number   1
_chemical_formula_structural   BH4C4N5
_chemical_formula_sum   'B2 H8 C8 N10'
_cell_volume   412.81032679
_cell_formula_units_Z   2
loop_
 _symmetry_equiv_pos_site_id
 _symmetry_equiv_pos_as_xyz
  1  'x, y, z'
loop_
 _atom_site_type_symbol
 _atom_site_label
 _atom_site_symmetry_multiplicity
 _atom_site_fract_x
 _atom_site_fract_y
 _atom_site_fract_z
 _atom_site_occupancy
  B  B0  1  0.25000000  0.75000000  0.50000000  1
  B  B1  1  0.50000000  0.50000000  0.00000000  1
  H  H0  1  0.85670900  0.38217500  0.65744900  1
  H  H1  1  0.72472700  0.19926000  0.34255100  1
  H  H2  1  0.94926000  0.10670900  0.97453400  1
  H  H3  1  0.13217500  0.97472600  0.02546600  1
  H  H4  1  0.89329100  0.86782500  0.84255100  1
  H  H5  1  0.02527300  0.05074000  0.15744900  1
  H  H6  1  0.80074000  0.14329100  0.52546600  1
  H  H7  1  0.61782500  0.27527400  0.47453400  1
  C  C0  1  0.45795800  0.71464100  0.55159300  1
  C  C1  1  0.16304800  0.90636500  0.44840700  1
  C  C2  1  0.65636500  0.70795800  0.24331700  1
  C  C3  1  0.46464100  0.41304800  0.75668300  1
  C  C4  1  0.29204200  0.53535900  0.94840700  1
  C  C5  1  0.58695200  0.34363500  0.05159300  1
  C  C6  1  0.09363500  0.54204200  0.25668300  1
  C  C7  1  0.28535900  0.83695200  0.74331700  1
  N  N0  1  0.61296900  0.69142500  0.59616300  1
  N  N1  1  0.09526200  0.01680600  0.40383700  1
  N  N2  1  0.76680600  0.86296900  0.42154400  1
  N  N3  1  0.44142500  0.34526200  0.57845600  1
  N  N4  1  0.13703100  0.55857500  0.90383700  1
  N  N5  1  0.65473800  0.23319400  0.09616300  1
  N  N6  1  0.98319400  0.38703100  0.07845600  1
  N  N7  1  0.30857500  0.90473800  0.92154400  1
  N  N8  1  0.75000000  0.25000000  0.50000000  1
  N  N9  1  0.00000000  0.00000000  0.00000000  1
loop_
_geom_bond_atom_site_label_1
_geom_bond_atom_site_label_2
_geom_bond_distance
_geom_bond_site_symmetry_2
B0 C0 1.589397 1_555
B0 C1 1.589397 1_555
B0 C6 1.589397 1_555
B0 C7 1.589397 1_555
B1 C4 1.589397 1_554
B1 C5 1.589397 1_555
B1 C2 1.589397 1_555
B1 C3 1.589397 1_554
H0 N8 1.035926 1_555
H1 N8 1.035931 1_555
H2 N9 1.035926 1_656
H3 N9 1.035926 1_565
H4 N9 1.035926 1_666
H5 N9 1.035931 1_555
H6 N8 1.035926 1_555
H7 N8 1.035926 1_555
C0 N0 1.164813 1_555
C1 N1 1.164813 1_565
C2 N2 1.164813 1_555
C3 N3 1.164813 1_555
C4 N4 1.164813 1_555
C5 N5 1.164813 1_555
C6 N6 1.164813 1_455
C7 N7 1.164813 1_555
