# generated using pymatgen
data_Tb11In9Ni4
_symmetry_space_group_name_H-M   'P 1'
_cell_length_a   7.27469000
_cell_length_b   25.95417235
_cell_length_c   25.95417235
_cell_angle_alpha   110.88832083
_cell_angle_beta   90.00000000
_cell_angle_gamma   90.00000000
_symmetry_Int_Tables_number   1
_chemical_formula_structural   Tb11In9Ni4
_chemical_formula_sum   'Tb88 In72 Ni32'
_cell_volume   4578.30369416
_cell_formula_units_Z   8
loop_
 _symmetry_equiv_pos_site_id
 _symmetry_equiv_pos_as_xyz
  1  'x, y, z'
loop_
 _atom_site_type_symbol
 _atom_site_label
 _atom_site_symmetry_multiplicity
 _atom_site_fract_x
 _atom_site_fract_y
 _atom_site_fract_z
 _atom_site_occupancy
  Tb  Tb0_0  1  0.00000000  0.46103550  0.29005800  1
  Tb  Tb0_1  1  0.00000000  0.46103550  0.79005800  1
  Tb  Tb0_2  1  0.00000000  0.96103550  0.29005800  1
  Tb  Tb0_3  1  0.00000000  0.96103550  0.79005800  1
  Tb  Tb0_4  1  0.50000000  0.46103550  0.29005800  1
  Tb  Tb0_5  1  0.50000000  0.46103550  0.79005800  1
  Tb  Tb0_6  1  0.50000000  0.96103550  0.29005800  1
  Tb  Tb0_7  1  0.50000000  0.96103550  0.79005800  1
  Tb  Tb1_0  1  0.00000000  0.03896450  0.20994200  1
  Tb  Tb1_1  1  0.00000000  0.03896450  0.70994200  1
  Tb  Tb1_2  1  0.00000000  0.53896450  0.20994200  1
  Tb  Tb1_3  1  0.00000000  0.53896450  0.70994200  1
  Tb  Tb1_4  1  0.50000000  0.03896450  0.20994200  1
  Tb  Tb1_5  1  0.50000000  0.03896450  0.70994200  1
  Tb  Tb1_6  1  0.50000000  0.53896450  0.20994200  1
  Tb  Tb1_7  1  0.50000000  0.53896450  0.70994200  1
  Tb  Tb2_0  1  0.00000000  0.29005800  0.46103550  1
  Tb  Tb2_1  1  0.00000000  0.29005800  0.96103550  1
  Tb  Tb2_2  1  0.00000000  0.79005800  0.46103550  1
  Tb  Tb2_3  1  0.00000000  0.79005800  0.96103550  1
  Tb  Tb2_4  1  0.50000000  0.29005800  0.46103550  1
  Tb  Tb2_5  1  0.50000000  0.29005800  0.96103550  1
  Tb  Tb2_6  1  0.50000000  0.79005800  0.46103550  1
  Tb  Tb2_7  1  0.50000000  0.79005800  0.96103550  1
  Tb  Tb3_0  1  0.00000000  0.20994200  0.03896450  1
  Tb  Tb3_1  1  0.00000000  0.20994200  0.53896450  1
  Tb  Tb3_2  1  0.00000000  0.70994200  0.03896450  1
  Tb  Tb3_3  1  0.00000000  0.70994200  0.53896450  1
  Tb  Tb3_4  1  0.50000000  0.20994200  0.03896450  1
  Tb  Tb3_5  1  0.50000000  0.20994200  0.53896450  1
  Tb  Tb3_6  1  0.50000000  0.70994200  0.03896450  1
  Tb  Tb3_7  1  0.50000000  0.70994200  0.53896450  1
  Tb  Tb4_0  1  0.00000000  0.07931450  0.42068550  1
  Tb  Tb4_1  1  0.00000000  0.07931450  0.92068550  1
  Tb  Tb4_2  1  0.00000000  0.57931450  0.42068550  1
  Tb  Tb4_3  1  0.00000000  0.57931450  0.92068550  1
  Tb  Tb4_4  1  0.50000000  0.07931450  0.42068550  1
  Tb  Tb4_5  1  0.50000000  0.07931450  0.92068550  1
  Tb  Tb4_6  1  0.50000000  0.57931450  0.42068550  1
  Tb  Tb4_7  1  0.50000000  0.57931450  0.92068550  1
  Tb  Tb5_0  1  0.00000000  0.42068550  0.07931450  1
  Tb  Tb5_1  1  0.00000000  0.42068550  0.57931450  1
  Tb  Tb5_2  1  0.00000000  0.92068550  0.07931450  1
  Tb  Tb5_3  1  0.00000000  0.92068550  0.57931450  1
  Tb  Tb5_4  1  0.50000000  0.42068550  0.07931450  1
  Tb  Tb5_5  1  0.50000000  0.42068550  0.57931450  1
  Tb  Tb5_6  1  0.50000000  0.92068550  0.07931450  1
  Tb  Tb5_7  1  0.50000000  0.92068550  0.57931450  1
  Tb  Tb6_0  1  0.00000000  0.18767900  0.31232100  1
  Tb  Tb6_1  1  0.00000000  0.18767900  0.81232100  1
  Tb  Tb6_2  1  0.00000000  0.68767900  0.31232100  1
  Tb  Tb6_3  1  0.00000000  0.68767900  0.81232100  1
  Tb  Tb6_4  1  0.50000000  0.18767900  0.31232100  1
  Tb  Tb6_5  1  0.50000000  0.18767900  0.81232100  1
  Tb  Tb6_6  1  0.50000000  0.68767900  0.31232100  1
  Tb  Tb6_7  1  0.50000000  0.68767900  0.81232100  1
  Tb  Tb7_0  1  0.00000000  0.31232100  0.18767900  1
  Tb  Tb7_1  1  0.00000000  0.31232100  0.68767900  1
  Tb  Tb7_2  1  0.00000000  0.81232100  0.18767900  1
  Tb  Tb7_3  1  0.00000000  0.81232100  0.68767900  1
  Tb  Tb7_4  1  0.50000000  0.31232100  0.18767900  1
  Tb  Tb7_5  1  0.50000000  0.31232100  0.68767900  1
  Tb  Tb7_6  1  0.50000000  0.81232100  0.18767900  1
  Tb  Tb7_7  1  0.50000000  0.81232100  0.68767900  1
  Tb  Tb8_0  1  0.00000000  0.34296600  0.34296600  1
  Tb  Tb8_1  1  0.00000000  0.34296600  0.84296600  1
  Tb  Tb8_2  1  0.00000000  0.84296600  0.34296600  1
  Tb  Tb8_3  1  0.00000000  0.84296600  0.84296600  1
  Tb  Tb8_4  1  0.50000000  0.34296600  0.34296600  1
  Tb  Tb8_5  1  0.50000000  0.34296600  0.84296600  1
  Tb  Tb8_6  1  0.50000000  0.84296600  0.34296600  1
  Tb  Tb8_7  1  0.50000000  0.84296600  0.84296600  1
  Tb  Tb9_0  1  0.00000000  0.15703400  0.15703400  1
  Tb  Tb9_1  1  0.00000000  0.15703400  0.65703400  1
  Tb  Tb9_2  1  0.00000000  0.65703400  0.15703400  1
  Tb  Tb9_3  1  0.00000000  0.65703400  0.65703400  1
  Tb  Tb9_4  1  0.50000000  0.15703400  0.15703400  1
  Tb  Tb9_5  1  0.50000000  0.15703400  0.65703400  1
  Tb  Tb9_6  1  0.50000000  0.65703400  0.15703400  1
  Tb  Tb9_7  1  0.50000000  0.65703400  0.65703400  1
  Tb  Tb10_0  1  0.00000000  0.00000000  0.00000000  1
  Tb  Tb10_1  1  0.00000000  0.00000000  0.50000000  1
  Tb  Tb10_2  1  0.00000000  0.50000000  0.00000000  1
  Tb  Tb10_3  1  0.00000000  0.50000000  0.50000000  1
  Tb  Tb10_4  1  0.50000000  0.00000000  0.00000000  1
  Tb  Tb10_5  1  0.50000000  0.00000000  0.50000000  1
  Tb  Tb10_6  1  0.50000000  0.50000000  0.00000000  1
  Tb  Tb10_7  1  0.50000000  0.50000000  0.50000000  1
  In  In0_0  1  0.25000000  0.08041200  0.31625900  1
  In  In0_1  1  0.25000000  0.08041200  0.81625900  1
  In  In0_2  1  0.25000000  0.58041200  0.31625900  1
  In  In0_3  1  0.25000000  0.58041200  0.81625900  1
  In  In0_4  1  0.75000000  0.08041200  0.31625900  1
  In  In0_5  1  0.75000000  0.08041200  0.81625900  1
  In  In0_6  1  0.75000000  0.58041200  0.31625900  1
  In  In0_7  1  0.75000000  0.58041200  0.81625900  1
  In  In1_0  1  0.25000000  0.41958800  0.18374100  1
  In  In1_1  1  0.25000000  0.41958800  0.68374100  1
  In  In1_2  1  0.25000000  0.91958800  0.18374100  1
  In  In1_3  1  0.25000000  0.91958800  0.68374100  1
  In  In1_4  1  0.75000000  0.41958800  0.18374100  1
  In  In1_5  1  0.75000000  0.41958800  0.68374100  1
  In  In1_6  1  0.75000000  0.91958800  0.18374100  1
  In  In1_7  1  0.75000000  0.91958800  0.68374100  1
  In  In2_0  1  0.25000000  0.31625900  0.08041200  1
  In  In2_1  1  0.25000000  0.31625900  0.58041200  1
  In  In2_2  1  0.25000000  0.81625900  0.08041200  1
  In  In2_3  1  0.25000000  0.81625900  0.58041200  1
  In  In2_4  1  0.75000000  0.31625900  0.08041200  1
  In  In2_5  1  0.75000000  0.31625900  0.58041200  1
  In  In2_6  1  0.75000000  0.81625900  0.08041200  1
  In  In2_7  1  0.75000000  0.81625900  0.58041200  1
  In  In3_0  1  0.25000000  0.18374100  0.41958800  1
  In  In3_1  1  0.25000000  0.18374100  0.91958800  1
  In  In3_2  1  0.25000000  0.68374100  0.41958800  1
  In  In3_3  1  0.25000000  0.68374100  0.91958800  1
  In  In3_4  1  0.75000000  0.18374100  0.41958800  1
  In  In3_5  1  0.75000000  0.18374100  0.91958800  1
  In  In3_6  1  0.75000000  0.68374100  0.41958800  1
  In  In3_7  1  0.75000000  0.68374100  0.91958800  1
  In  In4_0  1  0.25000000  0.46100650  0.38987600  1
  In  In4_1  1  0.25000000  0.46100650  0.88987600  1
  In  In4_2  1  0.25000000  0.96100650  0.38987600  1
  In  In4_3  1  0.25000000  0.96100650  0.88987600  1
  In  In4_4  1  0.75000000  0.46100650  0.38987600  1
  In  In4_5  1  0.75000000  0.46100650  0.88987600  1
  In  In4_6  1  0.75000000  0.96100650  0.38987600  1
  In  In4_7  1  0.75000000  0.96100650  0.88987600  1
  In  In5_0  1  0.25000000  0.03899350  0.11012400  1
  In  In5_1  1  0.25000000  0.03899350  0.61012400  1
  In  In5_2  1  0.25000000  0.53899350  0.11012400  1
  In  In5_3  1  0.25000000  0.53899350  0.61012400  1
  In  In5_4  1  0.75000000  0.03899350  0.11012400  1
  In  In5_5  1  0.75000000  0.03899350  0.61012400  1
  In  In5_6  1  0.75000000  0.53899350  0.11012400  1
  In  In5_7  1  0.75000000  0.53899350  0.61012400  1
  In  In6_0  1  0.25000000  0.38987600  0.46100650  1
  In  In6_1  1  0.25000000  0.38987600  0.96100650  1
  In  In6_2  1  0.25000000  0.88987600  0.46100650  1
  In  In6_3  1  0.25000000  0.88987600  0.96100650  1
  In  In6_4  1  0.75000000  0.38987600  0.46100650  1
  In  In6_5  1  0.75000000  0.38987600  0.96100650  1
  In  In6_6  1  0.75000000  0.88987600  0.46100650  1
  In  In6_7  1  0.75000000  0.88987600  0.96100650  1
  In  In7_0  1  0.25000000  0.11012400  0.03899350  1
  In  In7_1  1  0.25000000  0.11012400  0.53899350  1
  In  In7_2  1  0.25000000  0.61012400  0.03899350  1
  In  In7_3  1  0.25000000  0.61012400  0.53899350  1
  In  In7_4  1  0.75000000  0.11012400  0.03899350  1
  In  In7_5  1  0.75000000  0.11012400  0.53899350  1
  In  In7_6  1  0.75000000  0.61012400  0.03899350  1
  In  In7_7  1  0.75000000  0.61012400  0.53899350  1
  In  In8_0  1  0.25000000  0.25000000  0.25000000  1
  In  In8_1  1  0.25000000  0.25000000  0.75000000  1
  In  In8_2  1  0.25000000  0.75000000  0.25000000  1
  In  In8_3  1  0.25000000  0.75000000  0.75000000  1
  In  In8_4  1  0.75000000  0.25000000  0.25000000  1
  In  In8_5  1  0.75000000  0.25000000  0.75000000  1
  In  In8_6  1  0.75000000  0.75000000  0.25000000  1
  In  In8_7  1  0.75000000  0.75000000  0.75000000  1
  Ni  Ni0_0  1  0.25000000  0.37568800  0.27514200  1
  Ni  Ni0_1  1  0.25000000  0.37568800  0.77514200  1
  Ni  Ni0_2  1  0.25000000  0.87568800  0.27514200  1
  Ni  Ni0_3  1  0.25000000  0.87568800  0.77514200  1
  Ni  Ni0_4  1  0.75000000  0.37568800  0.27514200  1
  Ni  Ni0_5  1  0.75000000  0.37568800  0.77514200  1
  Ni  Ni0_6  1  0.75000000  0.87568800  0.27514200  1
  Ni  Ni0_7  1  0.75000000  0.87568800  0.77514200  1
  Ni  Ni1_0  1  0.25000000  0.12431200  0.22485800  1
  Ni  Ni1_1  1  0.25000000  0.12431200  0.72485800  1
  Ni  Ni1_2  1  0.25000000  0.62431200  0.22485800  1
  Ni  Ni1_3  1  0.25000000  0.62431200  0.72485800  1
  Ni  Ni1_4  1  0.75000000  0.12431200  0.22485800  1
  Ni  Ni1_5  1  0.75000000  0.12431200  0.72485800  1
  Ni  Ni1_6  1  0.75000000  0.62431200  0.22485800  1
  Ni  Ni1_7  1  0.75000000  0.62431200  0.72485800  1
  Ni  Ni2_0  1  0.25000000  0.27514200  0.37568800  1
  Ni  Ni2_1  1  0.25000000  0.27514200  0.87568800  1
  Ni  Ni2_2  1  0.25000000  0.77514200  0.37568800  1
  Ni  Ni2_3  1  0.25000000  0.77514200  0.87568800  1
  Ni  Ni2_4  1  0.75000000  0.27514200  0.37568800  1
  Ni  Ni2_5  1  0.75000000  0.27514200  0.87568800  1
  Ni  Ni2_6  1  0.75000000  0.77514200  0.37568800  1
  Ni  Ni2_7  1  0.75000000  0.77514200  0.87568800  1
  Ni  Ni3_0  1  0.25000000  0.22485800  0.12431200  1
  Ni  Ni3_1  1  0.25000000  0.22485800  0.62431200  1
  Ni  Ni3_2  1  0.25000000  0.72485800  0.12431200  1
  Ni  Ni3_3  1  0.25000000  0.72485800  0.62431200  1
  Ni  Ni3_4  1  0.75000000  0.22485800  0.12431200  1
  Ni  Ni3_5  1  0.75000000  0.22485800  0.62431200  1
  Ni  Ni3_6  1  0.75000000  0.72485800  0.12431200  1
  Ni  Ni3_7  1  0.75000000  0.72485800  0.62431200  1
loop_
_geom_bond_atom_site_label_1
_geom_bond_atom_site_label_2
_geom_bond_distance
_geom_bond_site_symmetry_2
Tb0_0 Tb4_2 3.673758 1_555
Tb0_1 Tb4_3 3.673758 1_555
Tb0_2 Tb4_0 3.673758 1_565
Tb0_3 Tb4_1 3.673758 1_565
Tb0_4 Tb4_6 3.673758 1_555
Tb0_5 Tb4_7 3.673758 1_555
Tb0_6 Tb4_4 3.673758 1_565
Tb0_7 Tb4_5 3.673758 1_565
Tb1_0 Tb5_2 3.673758 1_545
Tb1_1 Tb5_3 3.673758 1_545
Tb1_2 Tb5_0 3.673758 1_555
Tb1_3 Tb5_1 3.673758 1_555
Tb1_4 Tb5_6 3.673758 1_545
Tb1_5 Tb5_7 3.673758 1_545
Tb1_6 Tb5_4 3.673758 1_555
Tb1_7 Tb5_5 3.673758 1_555
Tb2_0 Tb5_1 3.673758 1_555
Tb2_1 Tb5_0 3.673758 1_556
Tb2_2 Tb5_3 3.673758 1_555
Tb2_3 Tb5_2 3.673758 1_556
Tb2_4 Tb5_5 3.673758 1_555
Tb2_5 Tb5_4 3.673758 1_556
Tb2_6 Tb5_7 3.673758 1_555
Tb2_7 Tb5_6 3.673758 1_556
Tb3_0 Tb4_1 3.673758 1_554
Tb3_1 Tb4_0 3.673758 1_555
Tb3_2 Tb4_3 3.673758 1_554
Tb3_3 Tb4_2 3.673758 1_555
Tb3_4 Tb4_5 3.673758 1_554
Tb3_5 Tb4_4 3.673758 1_555
Tb3_6 Tb4_7 3.673758 1_554
Tb3_7 Tb4_6 3.673758 1_555
Tb4_0 Tb4_4 3.637345 1_555
Tb4_0 Tb4_4 3.637345 1_455
Tb4_1 Tb4_5 3.637345 1_455
Tb4_1 Tb4_5 3.637345 1_555
Tb4_2 Tb4_6 3.637345 1_455
Tb4_2 Tb4_6 3.637345 1_555
Tb4_3 Tb4_7 3.637345 1_455
Tb4_3 Tb4_7 3.637345 1_555
Tb5_0 Tb5_4 3.637345 1_555
Tb5_0 Tb5_4 3.637345 1_455
Tb5_1 Tb5_5 3.637345 1_555
Tb5_1 Tb5_5 3.637345 1_455
Tb5_2 Tb5_6 3.637345 1_455
Tb5_2 Tb5_6 3.637345 1_555
Tb5_3 Tb5_7 3.637345 1_455
Tb5_3 Tb5_7 3.637345 1_555
Tb10_0 Tb5_2 3.390723 1_545
Tb10_0 Tb4_1 3.390723 1_554
Tb10_0 Tb10_4 3.637345 1_455
Tb10_0 Tb10_4 3.637345 1_555
Tb10_1 Tb4_0 3.390723 1_555
Tb10_1 Tb5_3 3.390723 1_545
Tb10_1 Tb10_5 3.637345 1_555
Tb10_1 Tb10_5 3.637345 1_455
Tb10_2 Tb4_3 3.390723 1_554
Tb10_2 Tb5_0 3.390723 1_555
Tb10_2 Tb10_6 3.637345 1_555
Tb10_2 Tb10_6 3.637345 1_455
Tb10_3 Tb4_2 3.390723 1_555
Tb10_3 Tb5_1 3.390723 1_555
Tb10_3 Tb10_7 3.637345 1_455
Tb10_3 Tb10_7 3.637345 1_555
Tb10_4 Tb5_6 3.390723 1_545
Tb10_4 Tb4_5 3.390723 1_554
Tb10_5 Tb4_4 3.390723 1_555
Tb10_5 Tb5_7 3.390723 1_545
Tb10_6 Tb4_7 3.390723 1_554
Tb10_6 Tb5_4 3.390723 1_555
Tb10_7 Tb5_5 3.390723 1_555
Tb10_7 Tb4_6 3.390723 1_555
In0_0 Ni1_0 2.975423 1_555
In0_0 In3_0 3.042304 1_555
In0_0 Tb1_0 3.156292 1_555
In0_0 Tb1_4 3.156292 1_555
In0_0 Tb4_0 3.272488 1_555
In0_0 Tb4_4 3.272488 1_555
In0_0 Tb6_0 3.357339 1_555
In0_0 Tb6_4 3.357339 1_555
In0_0 Tb0_2 3.444871 1_545
In0_0 Tb0_6 3.444871 1_545
In0_1 Ni1_1 2.975423 1_555
In0_1 In3_1 3.042304 1_555
In0_1 Tb1_1 3.156292 1_555
In0_1 Tb1_5 3.156292 1_555
In0_1 Tb4_1 3.272488 1_555
In0_1 Tb4_5 3.272488 1_555
In0_1 Tb6_1 3.357339 1_555
In0_1 Tb6_5 3.357339 1_555
In0_1 Tb0_3 3.444871 1_545
In0_1 Tb0_7 3.444871 1_545
In0_2 Ni1_2 2.975423 1_555
In0_2 In3_2 3.042304 1_555
In0_2 Tb1_2 3.156292 1_555
In0_2 Tb1_6 3.156292 1_555
In0_2 Tb4_2 3.272488 1_555
In0_2 Tb4_6 3.272488 1_555
In0_2 Tb6_2 3.357339 1_555
In0_2 Tb6_6 3.357339 1_555
In0_2 Tb0_0 3.444871 1_555
In0_2 Tb0_4 3.444871 1_555
In0_3 Ni1_3 2.975423 1_555
In0_3 In3_3 3.042304 1_555
In0_3 Tb1_3 3.156292 1_555
In0_3 Tb1_7 3.156292 1_555
In0_3 Tb4_3 3.272488 1_555
In0_3 Tb4_7 3.272488 1_555
In0_3 Tb6_3 3.357339 1_555
In0_3 Tb6_7 3.357339 1_555
In0_3 Tb0_5 3.444871 1_555
In0_3 Tb0_1 3.444871 1_555
In0_4 Ni1_4 2.975423 1_555
In0_4 In3_4 3.042304 1_555
In0_4 Tb1_0 3.156292 1_655
In0_4 Tb1_4 3.156292 1_555
In0_4 Tb4_0 3.272488 1_655
In0_4 Tb4_4 3.272488 1_555
In0_4 Tb6_4 3.357339 1_555
In0_4 Tb6_0 3.357339 1_655
In0_4 Tb0_6 3.444871 1_545
In0_4 Tb0_2 3.444871 1_645
In0_5 Ni1_5 2.975423 1_555
In0_5 In3_5 3.042304 1_555
In0_5 Tb1_5 3.156292 1_555
In0_5 Tb1_1 3.156292 1_655
In0_5 Tb4_5 3.272488 1_555
In0_5 Tb4_1 3.272488 1_655
In0_5 Tb6_5 3.357339 1_555
In0_5 Tb6_1 3.357339 1_655
In0_5 Tb0_7 3.444871 1_545
In0_5 Tb0_3 3.444871 1_645
In0_6 Ni1_6 2.975423 1_555
In0_6 In3_6 3.042304 1_555
In0_6 Tb1_2 3.156292 1_655
In0_6 Tb1_6 3.156292 1_555
In0_6 Tb4_2 3.272488 1_655
In0_6 Tb4_6 3.272488 1_555
In0_6 Tb6_2 3.357339 1_655
In0_6 Tb6_6 3.357339 1_555
In0_6 Tb0_4 3.444871 1_555
In0_6 Tb0_0 3.444871 1_655
In0_7 Ni1_7 2.975423 1_555
In0_7 In3_7 3.042304 1_555
In0_7 Tb1_3 3.156292 1_655
In0_7 Tb1_7 3.156292 1_555
In0_7 Tb4_7 3.272488 1_555
In0_7 Tb4_3 3.272488 1_655
In0_7 Tb6_3 3.357339 1_655
In0_7 Tb6_7 3.357339 1_555
In0_7 Tb0_1 3.444871 1_655
In0_7 Tb0_5 3.444871 1_555
In1_0 Ni0_0 2.975423 1_555
In1_0 In2_0 3.042304 1_555
In1_0 Tb0_0 3.156292 1_555
In1_0 Tb0_4 3.156292 1_555
In1_0 Tb5_0 3.272488 1_555
In1_0 Tb5_4 3.272488 1_555
In1_0 Tb7_0 3.357339 1_555
In1_0 Tb7_4 3.357339 1_555
In1_0 Tb1_6 3.444871 1_555
In1_0 Tb1_2 3.444871 1_555
In1_1 Ni0_1 2.975423 1_555
In1_1 In2_1 3.042304 1_555
In1_1 Tb0_5 3.156292 1_555
In1_1 Tb0_1 3.156292 1_555
In1_1 Tb5_1 3.272488 1_555
In1_1 Tb5_5 3.272488 1_555
In1_1 Tb7_5 3.357339 1_555
In1_1 Tb7_1 3.357339 1_555
In1_1 Tb1_3 3.444871 1_555
In1_1 Tb1_7 3.444871 1_555
In1_2 Ni0_2 2.975423 1_555
In1_2 In2_2 3.042304 1_555
In1_2 Tb0_2 3.156292 1_555
In1_2 Tb0_6 3.156292 1_555
In1_2 Tb5_2 3.272488 1_555
In1_2 Tb5_6 3.272488 1_555
In1_2 Tb7_6 3.357339 1_555
In1_2 Tb7_2 3.357339 1_555
In1_2 Tb1_0 3.444871 1_565
In1_2 Tb1_4 3.444871 1_565
In1_3 Ni0_3 2.975423 1_555
In1_3 In2_3 3.042304 1_555
In1_3 Tb0_3 3.156292 1_555
In1_3 Tb0_7 3.156292 1_555
In1_3 Tb5_7 3.272488 1_555
In1_3 Tb5_3 3.272488 1_555
In1_3 Tb7_3 3.357339 1_555
In1_3 Tb7_7 3.357339 1_555
In1_3 Tb1_1 3.444871 1_565
In1_3 Tb1_5 3.444871 1_565
In1_4 Ni0_4 2.975423 1_555
In1_4 In2_4 3.042304 1_555
In1_4 Tb0_4 3.156292 1_555
In1_4 Tb0_0 3.156292 1_655
In1_4 Tb5_4 3.272488 1_555
In1_4 Tb5_0 3.272488 1_655
In1_4 Tb7_0 3.357339 1_655
In1_4 Tb7_4 3.357339 1_555
In1_4 Tb1_6 3.444871 1_555
In1_4 Tb1_2 3.444871 1_655
In1_5 Ni0_5 2.975423 1_555
In1_5 In2_5 3.042304 1_555
In1_5 Tb0_1 3.156292 1_655
In1_5 Tb0_5 3.156292 1_555
In1_5 Tb5_5 3.272488 1_555
In1_5 Tb5_1 3.272488 1_655
In1_5 Tb7_5 3.357339 1_555
In1_5 Tb7_1 3.357339 1_655
In1_5 Tb1_3 3.444871 1_655
In1_5 Tb1_7 3.444871 1_555
In1_6 Ni0_6 2.975423 1_555
In1_6 In2_6 3.042304 1_555
In1_6 Tb0_2 3.156292 1_655
In1_6 Tb0_6 3.156292 1_555
In1_6 Tb5_6 3.272488 1_555
In1_6 Tb5_2 3.272488 1_655
In1_6 Tb7_6 3.357339 1_555
In1_6 Tb7_2 3.357339 1_655
In1_6 Tb1_4 3.444871 1_565
In1_6 Tb1_0 3.444871 1_665
In1_7 Ni0_7 2.975423 1_555
In1_7 In2_7 3.042304 1_555
In1_7 Tb0_3 3.156292 1_655
In1_7 Tb0_7 3.156292 1_555
In1_7 Tb5_3 3.272488 1_655
In1_7 Tb5_7 3.272488 1_555
In1_7 Tb7_7 3.357339 1_555
In1_7 Tb7_3 3.357339 1_655
In1_7 Tb1_5 3.444871 1_565
In1_7 Tb1_1 3.444871 1_665
In2_0 Ni3_0 2.975423 1_555
In2_0 Tb3_0 3.156292 1_555
In2_0 Tb3_4 3.156292 1_555
In2_0 Tb5_4 3.272488 1_555
In2_0 Tb5_0 3.272488 1_555
In2_0 Tb7_4 3.357339 1_555
In2_0 Tb7_0 3.357339 1_555
In2_0 Tb2_1 3.444871 1_554
In2_0 Tb2_5 3.444871 1_554
In2_1 Ni3_1 2.975423 1_555
In2_1 Tb3_1 3.156292 1_555
In2_1 Tb3_5 3.156292 1_555
In2_1 Tb5_5 3.272488 1_555
In2_1 Tb5_1 3.272488 1_555
In2_1 Tb7_1 3.357339 1_555
In2_1 Tb7_5 3.357339 1_555
In2_1 Tb2_0 3.444871 1_555
In2_1 Tb2_4 3.444871 1_555
In2_2 Ni3_2 2.975423 1_555
In2_2 Tb3_6 3.156292 1_555
In2_2 Tb3_2 3.156292 1_555
In2_2 Tb5_2 3.272488 1_555
In2_2 Tb5_6 3.272488 1_555
In2_2 Tb7_2 3.357339 1_555
In2_2 Tb7_6 3.357339 1_555
In2_2 Tb2_7 3.444871 1_554
In2_2 Tb2_3 3.444871 1_554
In2_3 Ni3_3 2.975423 1_555
In2_3 Tb3_3 3.156292 1_555
In2_3 Tb3_7 3.156292 1_555
In2_3 Tb5_7 3.272488 1_555
In2_3 Tb5_3 3.272488 1_555
In2_3 Tb7_3 3.357339 1_555
In2_3 Tb7_7 3.357339 1_555
In2_3 Tb2_6 3.444871 1_555
In2_3 Tb2_2 3.444871 1_555
In2_4 Ni3_4 2.975423 1_555
In2_4 Tb3_4 3.156292 1_555
In2_4 Tb3_0 3.156292 1_655
In2_4 Tb5_4 3.272488 1_555
In2_4 Tb5_0 3.272488 1_655
In2_4 Tb7_0 3.357339 1_655
In2_4 Tb7_4 3.357339 1_555
In2_4 Tb2_1 3.444871 1_654
In2_4 Tb2_5 3.444871 1_554
In2_5 Ni3_5 2.975423 1_555
In2_5 Tb3_1 3.156292 1_655
In2_5 Tb3_5 3.156292 1_555
In2_5 Tb5_1 3.272488 1_655
In2_5 Tb5_5 3.272488 1_555
In2_5 Tb7_5 3.357339 1_555
In2_5 Tb7_1 3.357339 1_655
In2_5 Tb2_4 3.444871 1_555
In2_5 Tb2_0 3.444871 1_655
In2_6 Ni3_6 2.975423 1_555
In2_6 Tb3_6 3.156292 1_555
In2_6 Tb3_2 3.156292 1_655
In2_6 Tb5_6 3.272488 1_555
In2_6 Tb5_2 3.272488 1_655
In2_6 Tb7_2 3.357339 1_655
In2_6 Tb7_6 3.357339 1_555
In2_6 Tb2_7 3.444871 1_554
In2_6 Tb2_3 3.444871 1_654
In2_7 Ni3_7 2.975423 1_555
In2_7 Tb3_7 3.156292 1_555
In2_7 Tb3_3 3.156292 1_655
In2_7 Tb5_7 3.272488 1_555
In2_7 Tb5_3 3.272488 1_655
In2_7 Tb7_3 3.357339 1_655
In2_7 Tb7_7 3.357339 1_555
In2_7 Tb2_6 3.444871 1_555
In2_7 Tb2_2 3.444871 1_655
In3_0 Ni2_0 2.975423 1_555
In3_0 Tb2_4 3.156292 1_555
In3_0 Tb2_0 3.156292 1_555
In3_0 Tb4_0 3.272488 1_555
In3_0 Tb4_4 3.272488 1_555
In3_0 Tb6_4 3.357339 1_555
In3_0 Tb6_0 3.357339 1_555
In3_0 Tb3_5 3.444871 1_555
In3_0 Tb3_1 3.444871 1_555
In3_1 Ni2_1 2.975423 1_555
In3_1 Tb2_5 3.156292 1_555
In3_1 Tb2_1 3.156292 1_555
In3_1 Tb4_5 3.272488 1_555
In3_1 Tb4_1 3.272488 1_555
In3_1 Tb6_1 3.357339 1_555
In3_1 Tb6_5 3.357339 1_555
In3_1 Tb3_4 3.444871 1_556
In3_1 Tb3_0 3.444871 1_556
In3_2 Ni2_2 2.975423 1_555
In3_2 Tb2_2 3.156292 1_555
In3_2 Tb2_6 3.156292 1_555
In3_2 Tb4_6 3.272488 1_555
In3_2 Tb4_2 3.272488 1_555
In3_2 Tb6_2 3.357339 1_555
In3_2 Tb6_6 3.357339 1_555
In3_2 Tb3_7 3.444871 1_555
In3_2 Tb3_3 3.444871 1_555
In3_3 Ni2_3 2.975423 1_555
In3_3 Tb2_3 3.156292 1_555
In3_3 Tb2_7 3.156292 1_555
In3_3 Tb4_7 3.272488 1_555
In3_3 Tb4_3 3.272488 1_555
In3_3 Tb6_3 3.357339 1_555
In3_3 Tb6_7 3.357339 1_555
In3_3 Tb3_2 3.444871 1_556
In3_3 Tb3_6 3.444871 1_556
In3_4 Ni2_4 2.975423 1_555
In3_4 Tb2_4 3.156292 1_555
In3_4 Tb2_0 3.156292 1_655
In3_4 Tb4_0 3.272488 1_655
In3_4 Tb4_4 3.272488 1_555
In3_4 Tb6_0 3.357339 1_655
In3_4 Tb6_4 3.357339 1_555
In3_4 Tb3_5 3.444871 1_555
In3_4 Tb3_1 3.444871 1_655
In3_5 Ni2_5 2.975423 1_555
In3_5 Tb2_1 3.156292 1_655
In3_5 Tb2_5 3.156292 1_555
In3_5 Tb4_5 3.272488 1_555
In3_5 Tb4_1 3.272488 1_655
In3_5 Tb6_5 3.357339 1_555
In3_5 Tb6_1 3.357339 1_655
In3_5 Tb3_4 3.444871 1_556
In3_5 Tb3_0 3.444871 1_656
In3_6 Ni2_6 2.975423 1_555
In3_6 Tb2_6 3.156292 1_555
In3_6 Tb2_2 3.156292 1_655
In3_6 Tb4_2 3.272488 1_655
In3_6 Tb4_6 3.272488 1_555
In3_6 Tb6_2 3.357339 1_655
In3_6 Tb6_6 3.357339 1_555
In3_6 Tb3_7 3.444871 1_555
In3_6 Tb3_3 3.444871 1_655
In3_7 Ni2_7 2.975423 1_555
In3_7 Tb2_3 3.156292 1_655
In3_7 Tb2_7 3.156292 1_555
In3_7 Tb4_3 3.272488 1_655
In3_7 Tb4_7 3.272488 1_555
In3_7 Tb6_7 3.357339 1_555
In3_7 Tb6_3 3.357339 1_655
In3_7 Tb3_6 3.444871 1_556
In3_7 Tb3_2 3.444871 1_656
In4_0 Ni0_0 3.011433 1_555
In4_0 In6_0 3.040854 1_555
In4_0 Tb0_0 3.165542 1_555
In4_0 Tb0_4 3.165542 1_555
In4_0 Tb10_7 3.230833 1_555
In4_0 Tb10_3 3.230833 1_555
In4_0 Tb8_4 3.393517 1_555
In4_0 Tb8_0 3.393517 1_555
In4_0 Tb4_2 3.409485 1_555
In4_0 Tb4_6 3.409485 1_555
In4_1 Ni0_1 3.011433 1_555
In4_1 In6_1 3.040854 1_555
In4_1 Tb0_1 3.165542 1_555
In4_1 Tb0_5 3.165542 1_555
In4_1 Tb10_2 3.230833 1_556
In4_1 Tb10_6 3.230833 1_556
In4_1 Tb8_5 3.393517 1_555
In4_1 Tb8_1 3.393517 1_555
In4_1 Tb4_3 3.409485 1_555
In4_1 Tb4_7 3.409485 1_555
In4_2 Ni0_2 3.011433 1_555
In4_2 In6_2 3.040854 1_555
In4_2 Tb0_2 3.165542 1_555
In4_2 Tb0_6 3.165542 1_555
In4_2 Tb10_5 3.230833 1_565
In4_2 Tb10_1 3.230833 1_565
In4_2 Tb8_6 3.393517 1_555
In4_2 Tb8_2 3.393517 1_555
In4_2 Tb4_4 3.409485 1_565
In4_2 Tb4_0 3.409485 1_565
In4_3 Ni0_3 3.011433 1_555
In4_3 In6_3 3.040854 1_555
In4_3 Tb0_3 3.165542 1_555
In4_3 Tb0_7 3.165542 1_555
In4_3 Tb10_0 3.230833 1_566
In4_3 Tb10_4 3.230833 1_566
In4_3 Tb8_7 3.393517 1_555
In4_3 Tb8_3 3.393517 1_555
In4_3 Tb4_1 3.409485 1_565
In4_3 Tb4_5 3.409485 1_565
In4_4 Ni0_4 3.011433 1_555
In4_4 In6_4 3.040854 1_555
In4_4 Tb0_0 3.165542 1_655
In4_4 Tb0_4 3.165542 1_555
In4_4 Tb10_3 3.230833 1_655
In4_4 Tb10_7 3.230833 1_555
In4_4 Tb8_4 3.393517 1_555
In4_4 Tb8_0 3.393517 1_655
In4_4 Tb4_2 3.409485 1_655
In4_4 Tb4_6 3.409485 1_555
In4_5 Ni0_5 3.011433 1_555
In4_5 In6_5 3.040854 1_555
In4_5 Tb0_1 3.165542 1_655
In4_5 Tb0_5 3.165542 1_555
In4_5 Tb10_2 3.230833 1_656
In4_5 Tb10_6 3.230833 1_556
In4_5 Tb8_5 3.393517 1_555
In4_5 Tb8_1 3.393517 1_655
In4_5 Tb4_7 3.409485 1_555
In4_5 Tb4_3 3.409485 1_655
In4_6 Ni0_6 3.011433 1_555
In4_6 In6_6 3.040854 1_555
In4_6 Tb0_6 3.165542 1_555
In4_6 Tb0_2 3.165542 1_655
In4_6 Tb10_1 3.230833 1_665
In4_6 Tb10_5 3.230833 1_565
In4_6 Tb8_2 3.393517 1_655
In4_6 Tb8_6 3.393517 1_555
In4_6 Tb4_4 3.409485 1_565
In4_6 Tb4_0 3.409485 1_665
In4_7 Ni0_7 3.011433 1_555
In4_7 In6_7 3.040854 1_555
In4_7 Tb0_7 3.165542 1_555
In4_7 Tb0_3 3.165542 1_655
In4_7 Tb10_0 3.230833 1_666
In4_7 Tb10_4 3.230833 1_566
In4_7 Tb8_3 3.393517 1_655
In4_7 Tb8_7 3.393517 1_555
In4_7 Tb4_1 3.409485 1_665
In4_7 Tb4_5 3.409485 1_565
In5_0 Ni1_0 3.011433 1_555
In5_0 In7_0 3.040854 1_555
In5_0 Tb1_0 3.165542 1_555
In5_0 Tb1_4 3.165542 1_555
In5_0 Tb10_0 3.230833 1_555
In5_0 Tb10_4 3.230833 1_555
In5_0 Tb9_0 3.393517 1_555
In5_0 Tb9_4 3.393517 1_555
In5_0 Tb5_2 3.409485 1_545
In5_0 Tb5_6 3.409485 1_545
In5_1 Ni1_1 3.011433 1_555
In5_1 In7_1 3.040854 1_555
In5_1 Tb1_1 3.165542 1_555
In5_1 Tb1_5 3.165542 1_555
In5_1 Tb10_5 3.230833 1_555
In5_1 Tb10_1 3.230833 1_555
In5_1 Tb9_1 3.393517 1_555
In5_1 Tb9_5 3.393517 1_555
In5_1 Tb5_7 3.409485 1_545
In5_1 Tb5_3 3.409485 1_545
In5_2 Ni1_2 3.011433 1_555
In5_2 In7_2 3.040854 1_555
In5_2 Tb1_2 3.165542 1_555
In5_2 Tb1_6 3.165542 1_555
In5_2 Tb10_2 3.230833 1_555
In5_2 Tb10_6 3.230833 1_555
In5_2 Tb9_2 3.393517 1_555
In5_2 Tb9_6 3.393517 1_555
In5_2 Tb5_0 3.409485 1_555
In5_2 Tb5_4 3.409485 1_555
In5_3 Ni1_3 3.011433 1_555
In5_3 In7_3 3.040854 1_555
In5_3 Tb1_3 3.165542 1_555
In5_3 Tb1_7 3.165542 1_555
In5_3 Tb10_7 3.230833 1_555
In5_3 Tb10_3 3.230833 1_555
In5_3 Tb9_7 3.393517 1_555
In5_3 Tb9_3 3.393517 1_555
In5_3 Tb5_1 3.409485 1_555
In5_3 Tb5_5 3.409485 1_555
In5_4 Ni1_4 3.011433 1_555
In5_4 In7_4 3.040854 1_555
In5_4 Tb1_0 3.165542 1_655
In5_4 Tb1_4 3.165542 1_555
In5_4 Tb10_4 3.230833 1_555
In5_4 Tb10_0 3.230833 1_655
In5_4 Tb9_0 3.393517 1_655
In5_4 Tb9_4 3.393517 1_555
In5_4 Tb5_6 3.409485 1_545
In5_4 Tb5_2 3.409485 1_645
In5_5 Ni1_5 3.011433 1_555
In5_5 In7_5 3.040854 1_555
In5_5 Tb1_5 3.165542 1_555
In5_5 Tb1_1 3.165542 1_655
In5_5 Tb10_1 3.230833 1_655
In5_5 Tb10_5 3.230833 1_555
In5_5 Tb9_1 3.393517 1_655
In5_5 Tb9_5 3.393517 1_555
In5_5 Tb5_7 3.409485 1_545
In5_5 Tb5_3 3.409485 1_645
In5_6 Ni1_6 3.011433 1_555
In5_6 In7_6 3.040854 1_555
In5_6 Tb1_2 3.165542 1_655
In5_6 Tb1_6 3.165542 1_555
In5_6 Tb10_2 3.230833 1_655
In5_6 Tb10_6 3.230833 1_555
In5_6 Tb9_2 3.393517 1_655
In5_6 Tb9_6 3.393517 1_555
In5_6 Tb5_4 3.409485 1_555
In5_6 Tb5_0 3.409485 1_655
In5_7 Ni1_7 3.011433 1_555
In5_7 In7_7 3.040854 1_555
In5_7 Tb1_3 3.165542 1_655
In5_7 Tb1_7 3.165542 1_555
In5_7 Tb10_3 3.230833 1_655
In5_7 Tb10_7 3.230833 1_555
In5_7 Tb9_7 3.393517 1_555
In5_7 Tb9_3 3.393517 1_655
In5_7 Tb5_5 3.409485 1_555
In5_7 Tb5_1 3.409485 1_655
In6_0 Ni2_0 3.011433 1_555
In6_0 Tb2_4 3.165542 1_555
In6_0 Tb2_0 3.165542 1_555
In6_0 Tb10_3 3.230833 1_555
In6_0 Tb10_7 3.230833 1_555
In6_0 Tb8_4 3.393517 1_555
In6_0 Tb8_0 3.393517 1_555
In6_0 Tb5_1 3.409485 1_555
In6_0 Tb5_5 3.409485 1_555
In6_1 Ni2_1 3.011433 1_555
In6_1 Tb2_5 3.165542 1_555
In6_1 Tb2_1 3.165542 1_555
In6_1 Tb10_2 3.230833 1_556
In6_1 Tb10_6 3.230833 1_556
In6_1 Tb8_5 3.393517 1_555
In6_1 Tb8_1 3.393517 1_555
In6_1 Tb5_4 3.409485 1_556
In6_1 Tb5_0 3.409485 1_556
In6_2 Ni2_2 3.011433 1_555
In6_2 Tb2_2 3.165542 1_555
In6_2 Tb2_6 3.165542 1_555
In6_2 Tb10_5 3.230833 1_565
In6_2 Tb10_1 3.230833 1_565
In6_2 Tb8_2 3.393517 1_555
In6_2 Tb8_6 3.393517 1_555
In6_2 Tb5_3 3.409485 1_555
In6_2 Tb5_7 3.409485 1_555
In6_3 Ni2_3 3.011433 1_555
In6_3 Tb2_3 3.165542 1_555
In6_3 Tb2_7 3.165542 1_555
In6_3 Tb10_4 3.230833 1_566
In6_3 Tb10_0 3.230833 1_566
In6_3 Tb8_7 3.393517 1_555
In6_3 Tb8_3 3.393517 1_555
In6_3 Tb5_6 3.409485 1_556
In6_3 Tb5_2 3.409485 1_556
In6_4 Ni2_4 3.011433 1_555
In6_4 Tb2_4 3.165542 1_555
In6_4 Tb2_0 3.165542 1_655
In6_4 Tb10_7 3.230833 1_555
In6_4 Tb10_3 3.230833 1_655
In6_4 Tb8_0 3.393517 1_655
In6_4 Tb8_4 3.393517 1_555
In6_4 Tb5_1 3.409485 1_655
In6_4 Tb5_5 3.409485 1_555
In6_5 Ni2_5 3.011433 1_555
In6_5 Tb2_1 3.165542 1_655
In6_5 Tb2_5 3.165542 1_555
In6_5 Tb10_2 3.230833 1_656
In6_5 Tb10_6 3.230833 1_556
In6_5 Tb8_5 3.393517 1_555
In6_5 Tb8_1 3.393517 1_655
In6_5 Tb5_4 3.409485 1_556
In6_5 Tb5_0 3.409485 1_656
In6_6 Ni2_6 3.011433 1_555
In6_6 Tb2_6 3.165542 1_555
In6_6 Tb2_2 3.165542 1_655
In6_6 Tb10_5 3.230833 1_565
In6_6 Tb10_1 3.230833 1_665
In6_6 Tb8_2 3.393517 1_655
In6_6 Tb8_6 3.393517 1_555
In6_6 Tb5_3 3.409485 1_655
In6_6 Tb5_7 3.409485 1_555
In6_7 Ni2_7 3.011433 1_555
In6_7 Tb2_7 3.165542 1_555
In6_7 Tb2_3 3.165542 1_655
In6_7 Tb10_0 3.230833 1_666
In6_7 Tb10_4 3.230833 1_566
In6_7 Tb8_3 3.393517 1_655
In6_7 Tb8_7 3.393517 1_555
In6_7 Tb5_6 3.409485 1_556
In6_7 Tb5_2 3.409485 1_656
In7_0 Ni3_0 3.011433 1_555
In7_0 Tb3_0 3.165542 1_555
In7_0 Tb3_4 3.165542 1_555
In7_0 Tb10_0 3.230833 1_555
In7_0 Tb10_4 3.230833 1_555
In7_0 Tb9_0 3.393517 1_555
In7_0 Tb9_4 3.393517 1_555
In7_0 Tb4_1 3.409485 1_554
In7_0 Tb4_5 3.409485 1_554
In7_1 Ni3_1 3.011433 1_555
In7_1 Tb3_1 3.165542 1_555
In7_1 Tb3_5 3.165542 1_555
In7_1 Tb10_5 3.230833 1_555
In7_1 Tb10_1 3.230833 1_555
In7_1 Tb9_1 3.393517 1_555
In7_1 Tb9_5 3.393517 1_555
In7_1 Tb4_4 3.409485 1_555
In7_1 Tb4_0 3.409485 1_555
In7_2 Ni3_2 3.011433 1_555
In7_2 Tb3_2 3.165542 1_555
In7_2 Tb3_6 3.165542 1_555
In7_2 Tb10_6 3.230833 1_555
In7_2 Tb10_2 3.230833 1_555
In7_2 Tb9_6 3.393517 1_555
In7_2 Tb9_2 3.393517 1_555
In7_2 Tb4_7 3.409485 1_554
In7_2 Tb4_3 3.409485 1_554
In7_3 Ni3_3 3.011433 1_555
In7_3 Tb3_7 3.165542 1_555
In7_3 Tb3_3 3.165542 1_555
In7_3 Tb10_3 3.230833 1_555
In7_3 Tb10_7 3.230833 1_555
In7_3 Tb9_3 3.393517 1_555
In7_3 Tb9_7 3.393517 1_555
In7_3 Tb4_2 3.409485 1_555
In7_3 Tb4_6 3.409485 1_555
In7_4 Ni3_4 3.011433 1_555
In7_4 Tb3_0 3.165542 1_655
In7_4 Tb3_4 3.165542 1_555
In7_4 Tb10_0 3.230833 1_655
In7_4 Tb10_4 3.230833 1_555
In7_4 Tb9_4 3.393517 1_555
In7_4 Tb9_0 3.393517 1_655
In7_4 Tb4_1 3.409485 1_654
In7_4 Tb4_5 3.409485 1_554
In7_5 Ni3_5 3.011433 1_555
In7_5 Tb3_1 3.165542 1_655
In7_5 Tb3_5 3.165542 1_555
In7_5 Tb10_1 3.230833 1_655
In7_5 Tb10_5 3.230833 1_555
In7_5 Tb9_1 3.393517 1_655
In7_5 Tb9_5 3.393517 1_555
In7_5 Tb4_4 3.409485 1_555
In7_5 Tb4_0 3.409485 1_655
In7_6 Ni3_6 3.011433 1_555
In7_6 Tb3_6 3.165542 1_555
In7_6 Tb3_2 3.165542 1_655
In7_6 Tb10_2 3.230833 1_655
In7_6 Tb10_6 3.230833 1_555
In7_6 Tb9_2 3.393517 1_655
In7_6 Tb9_6 3.393517 1_555
In7_6 Tb4_7 3.409485 1_554
In7_6 Tb4_3 3.409485 1_654
In7_7 Ni3_7 3.011433 1_555
In7_7 Tb3_3 3.165542 1_655
In7_7 Tb3_7 3.165542 1_555
In7_7 Tb10_7 3.230833 1_555
In7_7 Tb10_3 3.230833 1_655
In7_7 Tb9_7 3.393517 1_555
In7_7 Tb9_3 3.393517 1_655
In7_7 Tb4_2 3.409485 1_655
In7_7 Tb4_6 3.409485 1_555
In8_0 Ni2_0 3.090201 1_555
In8_0 Ni0_0 3.090201 1_555
In8_0 Ni3_0 3.090201 1_555
In8_0 Ni1_0 3.090201 1_555
In8_0 Tb6_4 3.225797 1_555
In8_0 Tb6_0 3.225797 1_555
In8_0 Tb7_4 3.225797 1_555
In8_0 Tb7_0 3.225797 1_555
In8_0 Tb8_0 3.286300 1_555
In8_0 Tb8_4 3.286300 1_555
In8_0 Tb9_4 3.286300 1_555
In8_0 Tb9_0 3.286300 1_555
In8_1 Ni2_1 3.090201 1_555
In8_1 Ni0_1 3.090201 1_555
In8_1 Ni3_1 3.090201 1_555
In8_1 Ni1_1 3.090201 1_555
In8_1 Tb6_1 3.225797 1_555
In8_1 Tb6_5 3.225797 1_555
In8_1 Tb7_5 3.225797 1_555
In8_1 Tb7_1 3.225797 1_555
In8_1 Tb8_5 3.286300 1_555
In8_1 Tb8_1 3.286300 1_555
In8_1 Tb9_1 3.286300 1_555
In8_1 Tb9_5 3.286300 1_555
In8_2 Ni0_2 3.090201 1_555
In8_2 Ni2_2 3.090201 1_555
In8_2 Ni3_2 3.090201 1_555
In8_2 Ni1_2 3.090201 1_555
In8_2 Tb6_2 3.225797 1_555
In8_2 Tb6_6 3.225797 1_555
In8_2 Tb7_6 3.225797 1_555
In8_2 Tb7_2 3.225797 1_555
In8_2 Tb8_2 3.286300 1_555
In8_2 Tb8_6 3.286300 1_555
In8_2 Tb9_6 3.286300 1_555
In8_2 Tb9_2 3.286300 1_555
In8_3 Ni0_3 3.090201 1_555
In8_3 Ni2_3 3.090201 1_555
In8_3 Ni1_3 3.090201 1_555
In8_3 Ni3_3 3.090201 1_555
In8_3 Tb6_3 3.225797 1_555
In8_3 Tb6_7 3.225797 1_555
In8_3 Tb7_3 3.225797 1_555
In8_3 Tb7_7 3.225797 1_555
In8_3 Tb8_3 3.286300 1_555
In8_3 Tb8_7 3.286300 1_555
In8_3 Tb9_3 3.286300 1_555
In8_3 Tb9_7 3.286300 1_555
In8_4 Ni2_4 3.090201 1_555
In8_4 Ni0_4 3.090201 1_555
In8_4 Ni1_4 3.090201 1_555
In8_4 Ni3_4 3.090201 1_555
In8_4 Tb6_0 3.225797 1_655
In8_4 Tb6_4 3.225797 1_555
In8_4 Tb7_4 3.225797 1_555
In8_4 Tb7_0 3.225797 1_655
In8_4 Tb8_0 3.286300 1_655
In8_4 Tb8_4 3.286300 1_555
In8_4 Tb9_4 3.286300 1_555
In8_4 Tb9_0 3.286300 1_655
In8_5 Ni2_5 3.090201 1_555
In8_5 Ni0_5 3.090201 1_555
In8_5 Ni1_5 3.090201 1_555
In8_5 Ni3_5 3.090201 1_555
In8_5 Tb6_5 3.225797 1_555
In8_5 Tb6_1 3.225797 1_655
In8_5 Tb7_5 3.225797 1_555
In8_5 Tb7_1 3.225797 1_655
In8_5 Tb8_5 3.286300 1_555
In8_5 Tb8_1 3.286300 1_655
In8_5 Tb9_1 3.286300 1_655
In8_5 Tb9_5 3.286300 1_555
In8_6 Ni0_6 3.090201 1_555
In8_6 Ni2_6 3.090201 1_555
In8_6 Ni1_6 3.090201 1_555
In8_6 Ni3_6 3.090201 1_555
In8_6 Tb7_2 3.225797 1_655
In8_6 Tb7_6 3.225797 1_555
In8_6 Tb6_6 3.225797 1_555
In8_6 Tb6_2 3.225797 1_655
In8_6 Tb8_6 3.286300 1_555
In8_6 Tb8_2 3.286300 1_655
In8_6 Tb9_2 3.286300 1_655
In8_6 Tb9_6 3.286300 1_555
In8_7 Ni0_7 3.090201 1_555
In8_7 Ni2_7 3.090201 1_555
In8_7 Ni1_7 3.090201 1_555
In8_7 Ni3_7 3.090201 1_555
In8_7 Tb6_3 3.225797 1_655
In8_7 Tb6_7 3.225797 1_555
In8_7 Tb7_7 3.225797 1_555
In8_7 Tb7_3 3.225797 1_655
In8_7 Tb8_3 3.286300 1_655
In8_7 Tb8_7 3.286300 1_555
In8_7 Tb9_7 3.286300 1_555
In8_7 Tb9_3 3.286300 1_655
Ni0_0 Tb0_0 2.784367 1_555
Ni0_0 Tb0_4 2.784367 1_555
Ni0_0 Tb8_0 2.862449 1_555
Ni0_0 Tb8_4 2.862449 1_555
Ni0_0 Tb7_4 2.916022 1_555
Ni0_0 Tb7_0 2.916022 1_555
Ni0_1 Tb0_1 2.784367 1_555
Ni0_1 Tb0_5 2.784367 1_555
Ni0_1 Tb8_5 2.862449 1_555
Ni0_1 Tb8_1 2.862449 1_555
Ni0_1 Tb7_5 2.916022 1_555
Ni0_1 Tb7_1 2.916022 1_555
Ni0_2 Tb0_6 2.784367 1_555
Ni0_2 Tb0_2 2.784367 1_555
Ni0_2 Tb8_2 2.862449 1_555
Ni0_2 Tb8_6 2.862449 1_555
Ni0_2 Tb7_2 2.916022 1_555
Ni0_2 Tb7_6 2.916022 1_555
Ni0_3 Tb0_7 2.784367 1_555
Ni0_3 Tb0_3 2.784367 1_555
Ni0_3 Tb8_3 2.862449 1_555
Ni0_3 Tb8_7 2.862449 1_555
Ni0_3 Tb7_3 2.916022 1_555
Ni0_3 Tb7_7 2.916022 1_555
Ni0_4 Tb0_0 2.784367 1_655
Ni0_4 Tb0_4 2.784367 1_555
Ni0_4 Tb8_4 2.862449 1_555
Ni0_4 Tb8_0 2.862449 1_655
Ni0_4 Tb7_4 2.916022 1_555
Ni0_4 Tb7_0 2.916022 1_655
Ni0_5 Tb0_1 2.784367 1_655
Ni0_5 Tb0_5 2.784367 1_555
Ni0_5 Tb8_5 2.862449 1_555
Ni0_5 Tb8_1 2.862449 1_655
Ni0_5 Tb7_5 2.916022 1_555
Ni0_5 Tb7_1 2.916022 1_655
Ni0_6 Tb0_6 2.784367 1_555
Ni0_6 Tb0_2 2.784367 1_655
Ni0_6 Tb8_2 2.862449 1_655
Ni0_6 Tb8_6 2.862449 1_555
Ni0_6 Tb7_2 2.916022 1_655
Ni0_6 Tb7_6 2.916022 1_555
Ni0_7 Tb0_7 2.784367 1_555
Ni0_7 Tb0_3 2.784367 1_655
Ni0_7 Tb8_3 2.862449 1_655
Ni0_7 Tb8_7 2.862449 1_555
Ni0_7 Tb7_7 2.916022 1_555
Ni0_7 Tb7_3 2.916022 1_655
Ni1_0 Tb1_4 2.784367 1_555
Ni1_0 Tb1_0 2.784367 1_555
Ni1_0 Tb9_0 2.862449 1_555
Ni1_0 Tb9_4 2.862449 1_555
Ni1_0 Tb6_0 2.916022 1_555
Ni1_0 Tb6_4 2.916022 1_555
Ni1_1 Tb1_1 2.784367 1_555
Ni1_1 Tb1_5 2.784367 1_555
Ni1_1 Tb9_1 2.862449 1_555
Ni1_1 Tb9_5 2.862449 1_555
Ni1_1 Tb6_1 2.916022 1_555
Ni1_1 Tb6_5 2.916022 1_555
Ni1_2 Tb1_2 2.784367 1_555
Ni1_2 Tb1_6 2.784367 1_555
Ni1_2 Tb9_2 2.862449 1_555
Ni1_2 Tb9_6 2.862449 1_555
Ni1_2 Tb6_6 2.916022 1_555
Ni1_2 Tb6_2 2.916022 1_555
Ni1_3 Tb1_3 2.784367 1_555
Ni1_3 Tb1_7 2.784367 1_555
Ni1_3 Tb9_3 2.862449 1_555
Ni1_3 Tb9_7 2.862449 1_555
Ni1_3 Tb6_3 2.916022 1_555
Ni1_3 Tb6_7 2.916022 1_555
Ni1_4 Tb1_0 2.784367 1_655
Ni1_4 Tb1_4 2.784367 1_555
Ni1_4 Tb9_0 2.862449 1_655
Ni1_4 Tb9_4 2.862449 1_555
Ni1_4 Tb6_4 2.916022 1_555
Ni1_4 Tb6_0 2.916022 1_655
Ni1_5 Tb1_5 2.784367 1_555
Ni1_5 Tb1_1 2.784367 1_655
Ni1_5 Tb9_1 2.862449 1_655
Ni1_5 Tb9_5 2.862449 1_555
Ni1_5 Tb6_5 2.916022 1_555
Ni1_5 Tb6_1 2.916022 1_655
Ni1_6 Tb1_2 2.784367 1_655
Ni1_6 Tb1_6 2.784367 1_555
Ni1_6 Tb9_6 2.862449 1_555
Ni1_6 Tb9_2 2.862449 1_655
Ni1_6 Tb6_6 2.916022 1_555
Ni1_6 Tb6_2 2.916022 1_655
Ni1_7 Tb1_3 2.784367 1_655
Ni1_7 Tb1_7 2.784367 1_555
Ni1_7 Tb9_7 2.862449 1_555
Ni1_7 Tb9_3 2.862449 1_655
Ni1_7 Tb6_3 2.916022 1_655
Ni1_7 Tb6_7 2.916022 1_555
Ni2_0 Tb2_0 2.784367 1_555
Ni2_0 Tb2_4 2.784367 1_555
Ni2_0 Tb8_4 2.862449 1_555
Ni2_0 Tb8_0 2.862449 1_555
Ni2_0 Tb6_0 2.916022 1_555
Ni2_0 Tb6_4 2.916022 1_555
Ni2_1 Tb2_5 2.784367 1_555
Ni2_1 Tb2_1 2.784367 1_555
Ni2_1 Tb8_5 2.862449 1_555
Ni2_1 Tb8_1 2.862449 1_555
Ni2_1 Tb6_1 2.916022 1_555
Ni2_1 Tb6_5 2.916022 1_555
Ni2_2 Tb2_6 2.784367 1_555
Ni2_2 Tb2_2 2.784367 1_555
Ni2_2 Tb8_2 2.862449 1_555
Ni2_2 Tb8_6 2.862449 1_555
Ni2_2 Tb6_2 2.916022 1_555
Ni2_2 Tb6_6 2.916022 1_555
Ni2_3 Tb2_3 2.784367 1_555
Ni2_3 Tb2_7 2.784367 1_555
Ni2_3 Tb8_3 2.862449 1_555
Ni2_3 Tb8_7 2.862449 1_555
Ni2_3 Tb6_7 2.916022 1_555
Ni2_3 Tb6_3 2.916022 1_555
Ni2_4 Tb2_4 2.784367 1_555
Ni2_4 Tb2_0 2.784367 1_655
Ni2_4 Tb8_0 2.862449 1_655
Ni2_4 Tb8_4 2.862449 1_555
Ni2_4 Tb6_0 2.916022 1_655
Ni2_4 Tb6_4 2.916022 1_555
Ni2_5 Tb2_5 2.784367 1_555
Ni2_5 Tb2_1 2.784367 1_655
Ni2_5 Tb8_5 2.862449 1_555
Ni2_5 Tb8_1 2.862449 1_655
Ni2_5 Tb6_5 2.916022 1_555
Ni2_5 Tb6_1 2.916022 1_655
Ni2_6 Tb2_6 2.784367 1_555
Ni2_6 Tb2_2 2.784367 1_655
Ni2_6 Tb8_2 2.862449 1_655
Ni2_6 Tb8_6 2.862449 1_555
Ni2_6 Tb6_6 2.916022 1_555
Ni2_6 Tb6_2 2.916022 1_655
Ni2_7 Tb2_3 2.784367 1_655
Ni2_7 Tb2_7 2.784367 1_555
Ni2_7 Tb8_3 2.862449 1_655
Ni2_7 Tb8_7 2.862449 1_555
Ni2_7 Tb6_7 2.916022 1_555
Ni2_7 Tb6_3 2.916022 1_655
Ni3_0 Tb3_4 2.784367 1_555
Ni3_0 Tb3_0 2.784367 1_555
Ni3_0 Tb9_0 2.862449 1_555
Ni3_0 Tb9_4 2.862449 1_555
Ni3_0 Tb7_4 2.916022 1_555
Ni3_0 Tb7_0 2.916022 1_555
Ni3_1 Tb3_1 2.784367 1_555
Ni3_1 Tb3_5 2.784367 1_555
Ni3_1 Tb9_1 2.862449 1_555
Ni3_1 Tb9_5 2.862449 1_555
Ni3_1 Tb7_1 2.916022 1_555
Ni3_1 Tb7_5 2.916022 1_555
Ni3_2 Tb3_2 2.784367 1_555
Ni3_2 Tb3_6 2.784367 1_555
Ni3_2 Tb9_6 2.862449 1_555
Ni3_2 Tb9_2 2.862449 1_555
Ni3_2 Tb7_2 2.916022 1_555
Ni3_2 Tb7_6 2.916022 1_555
Ni3_3 Tb3_7 2.784367 1_555
Ni3_3 Tb3_3 2.784367 1_555
Ni3_3 Tb9_3 2.862449 1_555
Ni3_3 Tb9_7 2.862449 1_555
Ni3_3 Tb7_3 2.916022 1_555
Ni3_3 Tb7_7 2.916022 1_555
Ni3_4 Tb3_4 2.784367 1_555
Ni3_4 Tb3_0 2.784367 1_655
Ni3_4 Tb9_0 2.862449 1_655
Ni3_4 Tb9_4 2.862449 1_555
Ni3_4 Tb7_0 2.916022 1_655
Ni3_4 Tb7_4 2.916022 1_555
Ni3_5 Tb3_1 2.784367 1_655
Ni3_5 Tb3_5 2.784367 1_555
Ni3_5 Tb9_1 2.862449 1_655
Ni3_5 Tb9_5 2.862449 1_555
Ni3_5 Tb7_5 2.916022 1_555
Ni3_5 Tb7_1 2.916022 1_655
Ni3_6 Tb3_6 2.784367 1_555
Ni3_6 Tb3_2 2.784367 1_655
Ni3_6 Tb9_6 2.862449 1_555
Ni3_6 Tb9_2 2.862449 1_655
Ni3_6 Tb7_2 2.916022 1_655
Ni3_6 Tb7_6 2.916022 1_555
Ni3_7 Tb3_7 2.784367 1_555
Ni3_7 Tb3_3 2.784367 1_655
Ni3_7 Tb9_7 2.862449 1_555
Ni3_7 Tb9_3 2.862449 1_655
Ni3_7 Tb7_3 2.916022 1_655
Ni3_7 Tb7_7 2.916022 1_555
