# generated using pymatgen
data_Ca2Mn3P3H6O17
_symmetry_space_group_name_H-M   'P 1'
_cell_length_a   8.86926600
_cell_length_b   13.47791200
_cell_length_c   11.30598294
_cell_angle_alpha   90.00000000
_cell_angle_beta   102.03086976
_cell_angle_gamma   90.00000000
_symmetry_Int_Tables_number   1
_chemical_formula_structural   Ca2Mn3P3H6O17
_chemical_formula_sum   'Ca8 Mn12 P12 H24 O68'
_cell_volume   1321.82272637
_cell_formula_units_Z   4
loop_
 _symmetry_equiv_pos_site_id
 _symmetry_equiv_pos_as_xyz
  1  'x, y, z'
loop_
 _atom_site_type_symbol
 _atom_site_label
 _atom_site_symmetry_multiplicity
 _atom_site_fract_x
 _atom_site_fract_y
 _atom_site_fract_z
 _atom_site_occupancy
  Ca  Ca0  1  0.33968800  0.12741000  0.06747800  1
  Ca  Ca1  1  0.66031200  0.62741000  0.43252200  1
  Ca  Ca2  1  0.66031200  0.87259000  0.93252200  1
  Ca  Ca3  1  0.33968800  0.37259000  0.56747800  1
  Ca  Ca4  1  0.66482900  0.37880900  0.85712100  1
  Ca  Ca5  1  0.33517100  0.87880900  0.64287900  1
  Ca  Ca6  1  0.33517100  0.62119100  0.14287900  1
  Ca  Ca7  1  0.66482900  0.12119100  0.35712100  1
  Mn  Mn0  1  0.00000000  0.50000000  0.50000000  1
  Mn  Mn1  1  0.00000000  0.00000000  0.00000000  1
  Mn  Mn2  1  0.00000000  0.50000000  0.00000000  1
  Mn  Mn3  1  0.00000000  0.00000000  0.50000000  1
  Mn  Mn4  1  0.01530700  0.36947300  0.73841300  1
  Mn  Mn5  1  0.98469300  0.86947300  0.76158700  1
  Mn  Mn6  1  0.98469300  0.63052700  0.26158700  1
  Mn  Mn7  1  0.01530700  0.13052700  0.23841300  1
  Mn  Mn8  1  0.01675100  0.26899500  0.99361300  1
  Mn  Mn9  1  0.98324900  0.76899500  0.50638700  1
  Mn  Mn10  1  0.98324900  0.73100500  0.00638700  1
  Mn  Mn11  1  0.01675100  0.23100500  0.49361300  1
  P  P0  1  0.29958700  0.39135000  0.94880300  1
  P  P1  1  0.70041300  0.89135000  0.55119700  1
  P  P2  1  0.70041300  0.60865000  0.05119700  1
  P  P3  1  0.29958700  0.10865000  0.44880300  1
  P  P4  1  0.08409500  0.38064700  0.27685300  1
  P  P5  1  0.91590500  0.88064700  0.22314700  1
  P  P6  1  0.91590500  0.61935300  0.72314700  1
  P  P7  1  0.08409500  0.11935300  0.77685300  1
  P  P8  1  0.72803600  0.35779400  0.52876500  1
  P  P9  1  0.27196400  0.85779400  0.97123500  1
  P  P10  1  0.27196400  0.64220600  0.47123500  1
  P  P11  1  0.72803600  0.14220600  0.02876500  1
  H  H0  1  0.44420200  0.53574500  0.74081000  1
  H  H1  1  0.55579800  0.03574500  0.75919000  1
  H  H2  1  0.55579800  0.46425500  0.25919000  1
  H  H3  1  0.44420200  0.96425500  0.24081000  1
  H  H4  1  0.59473100  0.53652000  0.68588400  1
  H  H5  1  0.40526900  0.03652000  0.81411600  1
  H  H6  1  0.40526900  0.46348000  0.31411600  1
  H  H7  1  0.59473100  0.96348000  0.18588400  1
  H  H8  1  0.54030600  0.21383200  0.71442200  1
  H  H9  1  0.45969400  0.71383200  0.78557800  1
  H  H10  1  0.45969400  0.78616800  0.28557800  1
  H  H11  1  0.54030600  0.28616800  0.21442200  1
  H  H12  1  0.40037400  0.23226500  0.77837300  1
  H  H13  1  0.59962600  0.73226500  0.72162700  1
  H  H14  1  0.59962600  0.76773500  0.22162700  1
  H  H15  1  0.40037400  0.26773500  0.27837300  1
  H  H16  1  0.75742000  0.13309200  0.70396100  1
  H  H17  1  0.24258000  0.63309200  0.79603900  1
  H  H18  1  0.24258000  0.86690800  0.29603900  1
  H  H19  1  0.75742000  0.36690800  0.20396100  1
  H  H20  1  0.60112600  0.11510900  0.60120700  1
  H  H21  1  0.39887400  0.61510900  0.89879300  1
  H  H22  1  0.39887400  0.88489100  0.39879300  1
  H  H23  1  0.60112600  0.38489100  0.10120700  1
  O  O0  1  0.47493100  0.38995700  0.96972400  1
  O  O1  1  0.52506900  0.88995700  0.53027600  1
  O  O2  1  0.52506900  0.61004300  0.03027600  1
  O  O3  1  0.47493100  0.11004300  0.46972400  1
  O  O4  1  0.24132000  0.29650300  0.00725700  1
  O  O5  1  0.75868000  0.79650300  0.49274300  1
  O  O6  1  0.75868000  0.70349700  0.99274300  1
  O  O7  1  0.24132000  0.20349700  0.50725700  1
  O  O8  1  0.23802500  0.48598600  0.00394800  1
  O  O9  1  0.76197500  0.98598600  0.49605200  1
  O  O10  1  0.76197500  0.51401400  0.99605200  1
  O  O11  1  0.23802500  0.01401400  0.50394800  1
  O  O12  1  0.23267500  0.38878500  0.80876800  1
  O  O13  1  0.76732500  0.88878500  0.69123200  1
  O  O14  1  0.76732500  0.61121500  0.19123200  1
  O  O15  1  0.23267500  0.11121500  0.30876800  1
  O  O16  1  0.25772600  0.38180600  0.33013100  1
  O  O17  1  0.74227400  0.88180600  0.16986900  1
  O  O18  1  0.74227400  0.61819400  0.66986900  1
  O  O19  1  0.25772600  0.11819400  0.83013100  1
  O  O20  1  0.00728600  0.28408900  0.30969000  1
  O  O21  1  0.99271400  0.78408900  0.19031000  1
  O  O22  1  0.99271400  0.71591100  0.69031000  1
  O  O23  1  0.00728600  0.21591100  0.80969000  1
  O  O24  1  0.03525000  0.39013300  0.13712500  1
  O  O25  1  0.96475000  0.89013300  0.36287500  1
  O  O26  1  0.96475000  0.60986700  0.86287500  1
  O  O27  1  0.03525000  0.10986700  0.63712500  1
  O  O28  1  0.00338700  0.47076600  0.32900900  1
  O  O29  1  0.99661300  0.97076600  0.17099100  1
  O  O30  1  0.99661300  0.52923400  0.67099100  1
  O  O31  1  0.00338700  0.02923400  0.82900900  1
  O  O32  1  0.55484700  0.35370400  0.49750300  1
  O  O33  1  0.44515300  0.85370400  0.00249700  1
  O  O34  1  0.44515300  0.64629600  0.50249700  1
  O  O35  1  0.55484700  0.14629600  0.99750300  1
  O  O36  1  0.79350600  0.26228300  0.47635800  1
  O  O37  1  0.20649400  0.76228300  0.02364200  1
  O  O38  1  0.20649400  0.73771700  0.52364200  1
  O  O39  1  0.79350600  0.23771700  0.97635800  1
  O  O40  1  0.79000800  0.35876800  0.66950200  1
  O  O41  1  0.20999200  0.85876800  0.83049800  1
  O  O42  1  0.20999200  0.64123200  0.33049800  1
  O  O43  1  0.79000800  0.14123200  0.16950200  1
  O  O44  1  0.78388000  0.45493100  0.47294500  1
  O  O45  1  0.21612000  0.95493100  0.02705500  1
  O  O46  1  0.21612000  0.54506900  0.52705500  1
  O  O47  1  0.78388000  0.04506900  0.97294500  1
  O  O48  1  0.95065300  0.38943400  0.89413400  1
  O  O49  1  0.04934700  0.88943400  0.60586600  1
  O  O50  1  0.04934700  0.61056600  0.10586600  1
  O  O51  1  0.95065300  0.11056600  0.39413400  1
  O  O52  1  0.07098000  0.35245000  0.58023800  1
  O  O53  1  0.92902000  0.85245000  0.91976200  1
  O  O54  1  0.92902000  0.64755000  0.41976200  1
  O  O55  1  0.07098000  0.14755000  0.08023800  1
  O  O56  1  0.51765300  0.49081600  0.71082400  1
  O  O57  1  0.48234700  0.99081600  0.78917600  1
  O  O58  1  0.48234700  0.50918400  0.28917600  1
  O  O59  1  0.51765300  0.00918400  0.21082400  1
  O  O60  1  0.47256700  0.26766300  0.73761100  1
  O  O61  1  0.52743300  0.76766300  0.76238900  1
  O  O62  1  0.52743300  0.73233700  0.26238900  1
  O  O63  1  0.47256700  0.23233700  0.23761100  1
  O  O64  1  0.64616100  0.12439000  0.68970900  1
  O  O65  1  0.35383900  0.62439000  0.81029100  1
  O  O66  1  0.35383900  0.87561000  0.31029100  1
  O  O67  1  0.64616100  0.37561000  0.18970900  1
loop_
_geom_bond_atom_site_label_1
_geom_bond_atom_site_label_2
_geom_bond_distance
_geom_bond_site_symmetry_2
Ca0 O35 2.227482 1_554
Ca0 O55 2.432626 1_555
Ca0 O63 2.478669 1_555
Ca0 O4 2.484158 1_555
Ca0 O59 2.567218 1_555
Ca0 O45 2.570062 1_545
Ca0 O19 2.632779 1_554
Ca1 O34 2.227482 1_555
Ca1 O54 2.432626 1_555
Ca1 O62 2.478669 1_555
Ca1 O5 2.484158 1_555
Ca1 O58 2.567218 1_555
Ca1 O44 2.570062 1_555
Ca1 O18 2.632779 1_555
Ca2 O33 2.227482 1_556
Ca2 O53 2.432626 1_555
Ca2 O61 2.478669 1_555
Ca2 O6 2.484158 1_555
Ca2 O57 2.567218 1_555
Ca2 O47 2.570062 1_565
Ca2 O17 2.632779 1_556
Ca3 O32 2.227482 1_555
Ca3 O52 2.432626 1_555
Ca3 O60 2.478669 1_555
Ca3 O7 2.484158 1_555
Ca3 O56 2.567218 1_555
Ca3 O46 2.570062 1_555
Ca3 O16 2.632779 1_555
Ca4 O0 2.318171 1_555
Ca4 O56 2.412182 1_555
Ca4 O10 2.442571 1_555
Ca4 O60 2.452959 1_555
Ca4 O39 2.468734 1_555
Ca4 O48 2.485932 1_555
Ca4 O40 2.605176 1_555
Ca5 O1 2.318171 1_555
Ca5 O57 2.412182 1_555
Ca5 O11 2.442571 1_565
Ca5 O61 2.452959 1_555
Ca5 O38 2.468734 1_555
Ca5 O49 2.485932 1_555
Ca5 O41 2.605176 1_555
Ca6 O2 2.318171 1_555
Ca6 O58 2.412182 1_555
Ca6 O8 2.442571 1_555
Ca6 O62 2.452959 1_555
Ca6 O37 2.468734 1_555
Ca6 O50 2.485932 1_555
Ca6 O42 2.605176 1_555
Ca7 O3 2.318171 1_555
Ca7 O59 2.412182 1_555
Ca7 O9 2.442571 1_545
Ca7 O63 2.452959 1_555
Ca7 O36 2.468734 1_555
Ca7 O51 2.485932 1_555
Ca7 O43 2.605176 1_555
Mn0 O44 1.972901 1_455
Mn0 O46 1.972901 1_555
Mn0 O30 1.979319 1_455
Mn0 O28 1.979319 1_555
Mn0 O52 2.221709 1_555
Mn0 O54 2.221709 1_455
Mn1 O47 1.972901 1_454
Mn1 O45 1.972901 1_545
Mn1 O31 1.979319 1_554
Mn1 O29 1.979319 1_445
Mn1 O55 2.221709 1_555
Mn1 O53 2.221709 1_444
Mn2 O50 1.904332 1_555
Mn2 O48 1.904332 1_454
Mn2 O10 2.110724 1_454
Mn2 O8 2.110724 1_555
Mn2 O26 2.119415 1_454
Mn2 O24 2.119415 1_555
Mn3 O49 1.904332 1_545
Mn3 O51 1.904332 1_455
Mn3 O11 2.110724 1_555
Mn3 O9 2.110724 1_445
Mn3 O27 2.119415 1_555
Mn3 O25 2.119415 1_445
Mn4 O12 1.943696 1_555
Mn4 O52 1.965370 1_555
Mn4 O48 1.980331 1_455
Mn4 O40 1.992928 1_455
Mn4 O23 2.227555 1_555
Mn4 O30 2.278667 1_455
Mn5 O13 1.943696 1_555
Mn5 O53 1.965370 1_555
Mn5 O49 1.980331 1_655
Mn5 O41 1.992928 1_655
Mn5 O22 2.227555 1_555
Mn5 O31 2.278667 1_665
Mn6 O14 1.943696 1_555
Mn6 O54 1.965370 1_555
Mn6 O50 1.980331 1_655
Mn6 O42 1.992928 1_655
Mn6 O21 2.227555 1_555
Mn6 O28 2.278667 1_655
Mn7 O15 1.943696 1_555
Mn7 O55 1.965370 1_555
Mn7 O51 1.980331 1_455
Mn7 O43 1.992928 1_455
Mn7 O20 2.227555 1_555
Mn7 O29 2.278667 1_445
Mn8 O55 1.916597 1_556
Mn8 O48 1.992178 1_455
Mn8 O39 1.993796 1_455
Mn8 O4 2.000071 1_556
Mn8 O23 2.184077 1_555
Mn8 O24 2.283475 1_556
Mn9 O54 1.916597 1_555
Mn9 O49 1.992178 1_655
Mn9 O38 1.993796 1_655
Mn9 O5 2.000071 1_555
Mn9 O22 2.184077 1_555
Mn9 O25 2.283475 1_555
Mn10 O53 1.916597 1_554
Mn10 O50 1.992178 1_655
Mn10 O37 1.993796 1_655
Mn10 O6 2.000071 1_554
Mn10 O21 2.184077 1_555
Mn10 O26 2.283475 1_554
Mn11 O52 1.916597 1_555
Mn11 O51 1.992178 1_455
Mn11 O36 1.993796 1_455
Mn11 O7 2.000071 1_555
Mn11 O20 2.184077 1_555
Mn11 O27 2.283475 1_555
H0 O56 0.999045 1_555
H1 O57 0.999045 1_545
H2 O58 0.999045 1_555
H3 O59 0.999045 1_565
H4 O56 1.003324 1_555
H5 O57 1.003324 1_545
H6 O58 1.003324 1_555
H7 O59 1.003324 1_565
H8 O60 1.010815 1_555
H8 O64 1.588107 1_555
H9 O61 1.010815 1_555
H9 O65 1.588107 1_555
H10 O62 1.010815 1_555
H10 O66 1.588107 1_555
H11 O63 1.010815 1_555
H11 O67 1.588107 1_555
H12 O60 0.986407 1_555
H13 O61 0.986407 1_555
H14 O62 0.986407 1_555
H15 O63 0.986407 1_555
H16 O64 0.973232 1_555
H17 O65 0.973232 1_555
H18 O66 0.973232 1_555
H19 O67 0.973232 1_555
H20 O64 1.004879 1_555
H20 O3 1.665413 1_555
H21 O65 1.004879 1_555
H21 O2 1.665413 1_556
H22 O66 1.004879 1_555
H22 O1 1.665413 1_555
H23 O67 1.004879 1_555
H23 O0 1.665413 1_554
O0 P0 1.523652 1_555
O1 P1 1.523652 1_555
O2 P2 1.523652 1_555
O3 P3 1.523652 1_555
O4 P0 1.574916 1_554
O5 P1 1.574916 1_555
O6 P2 1.574916 1_556
O7 P3 1.574916 1_555
O8 P0 1.567049 1_554
O9 P1 1.567049 1_555
O10 P2 1.567049 1_556
O11 P3 1.567049 1_555
O12 P0 1.571091 1_555
O13 P1 1.571091 1_555
O14 P2 1.571091 1_555
O15 P3 1.571091 1_555
O16 P4 1.532290 1_555
O17 P5 1.532290 1_555
O18 P6 1.532290 1_555
O19 P7 1.532290 1_555
O20 P4 1.549514 1_555
O21 P5 1.549514 1_555
O22 P6 1.549514 1_555
O23 P7 1.549514 1_555
O24 P4 1.553824 1_555
O25 P5 1.553824 1_555
O26 P6 1.553824 1_555
O27 P7 1.553824 1_555
O28 P4 1.584731 1_555
O29 P5 1.584731 1_555
O30 P6 1.584731 1_555
O31 P7 1.584731 1_555
O32 P8 1.503700 1_555
O33 P9 1.503700 1_554
O34 P10 1.503700 1_555
O35 P11 1.503700 1_556
O36 P8 1.577590 1_555
O37 P9 1.577590 1_554
O38 P10 1.577590 1_555
O39 P11 1.577590 1_556
O40 P8 1.571468 1_555
O41 P9 1.571468 1_555
O42 P10 1.571468 1_555
O43 P11 1.571468 1_555
O44 P8 1.577317 1_555
O45 P9 1.577317 1_554
O46 P10 1.577317 1_555
O47 P11 1.577317 1_556
