# generated using pymatgen
data_Mg4Si7
_symmetry_space_group_name_H-M   'P 1'
_cell_length_a   4.26786600
_cell_length_b   6.54329300
_cell_length_c   14.30504162
_cell_angle_alpha   78.48474808
_cell_angle_beta   90.00000000
_cell_angle_gamma   90.00000000
_symmetry_Int_Tables_number   1
_chemical_formula_structural   Mg4Si7
_chemical_formula_sum   'Mg8 Si14'
_cell_volume   391.44021267
_cell_formula_units_Z   2
loop_
 _symmetry_equiv_pos_site_id
 _symmetry_equiv_pos_as_xyz
  1  'x, y, z'
loop_
 _atom_site_type_symbol
 _atom_site_label
 _atom_site_symmetry_multiplicity
 _atom_site_fract_x
 _atom_site_fract_y
 _atom_site_fract_z
 _atom_site_occupancy
  Mg  Mg0  1  0.50000000  0.71131300  0.07627600  1
  Mg  Mg1  1  0.50000000  0.23380200  0.49435300  1
  Mg  Mg2  1  0.00000000  0.33635800  0.63034700  1
  Mg  Mg3  1  0.00000000  0.10946200  0.34285100  1
  Mg  Mg4  1  0.50000000  0.18756700  0.15161600  1
  Mg  Mg5  1  0.50000000  0.36285500  0.92260300  1
  Mg  Mg6  1  0.00000000  0.88620300  0.58323700  1
  Mg  Mg7  1  0.00000000  0.58913600  0.41431900  1
  Si  Si0  1  0.00000000  0.40991300  0.04698600  1
  Si  Si1  1  0.00000000  0.03738500  0.02256300  1
  Si  Si2  1  0.00000000  0.12718700  0.81476900  1
  Si  Si3  1  0.00000000  0.72140200  0.92251800  1
  Si  Si4  1  0.50000000  0.88273800  0.43514700  1
  Si  Si5  1  0.50000000  0.58745500  0.56026800  1
  Si  Si6  1  0.50000000  0.95291300  0.89193800  1
  Si  Si7  1  0.00000000  0.87996200  0.19387100  1
  Si  Si8  1  0.50000000  0.42507500  0.29691900  1
  Si  Si9  1  0.00000000  0.53286800  0.79143600  1
  Si  Si10  1  0.50000000  0.05306900  0.70458300  1
  Si  Si11  1  0.00000000  0.49782300  0.20265800  1
  Si  Si12  1  0.50000000  0.80010600  0.28190900  1
  Si  Si13  1  0.50000000  0.67539000  0.71523100  1
loop_
_geom_bond_atom_site_label_1
_geom_bond_atom_site_label_2
_geom_bond_distance
_geom_bond_site_symmetry_2
Mg0 Si6 2.790756 1_554
Mg0 Si11 2.960617 1_555
Mg0 Si11 2.960617 1_655
Mg0 Si0 2.991406 1_555
Mg0 Si0 2.991406 1_655
Mg0 Si1 3.006943 1_565
Mg0 Si1 3.006943 1_665
Mg0 Si3 3.055801 1_654
Mg0 Si3 3.055801 1_554
Mg0 Si7 3.056532 1_555
Mg0 Si7 3.056532 1_655
Mg0 Si12 3.110122 1_555
Mg1 Si4 2.602079 1_545
Mg1 Si5 2.667416 1_555
Mg1 Si8 2.851629 1_555
Mg1 Si10 3.003785 1_555
Mg2 Si2 2.718738 1_555
Mg2 Si5 2.756898 1_455
Mg2 Si5 2.756898 1_555
Mg2 Si9 2.854215 1_555
Mg2 Si10 2.886429 1_555
Mg2 Si10 2.886429 1_455
Mg3 Si4 2.777710 1_545
Mg3 Si4 2.777710 1_445
Mg3 Si7 2.841599 1_545
Mg3 Si11 2.905975 1_555
Mg3 Si8 2.951012 1_555
Mg3 Si8 2.951012 1_455
Mg3 Si12 3.180508 1_445
Mg3 Si12 3.180508 1_545
Mg4 Si12 2.831058 1_545
Mg4 Si8 2.832900 1_555
Mg4 Si0 2.835691 1_655
Mg4 Si0 2.835691 1_555
Mg4 Si7 2.912809 1_645
Mg4 Si7 2.912809 1_545
Mg4 Si1 3.106729 1_655
Mg4 Si1 3.106729 1_555
Mg4 Si11 3.130480 1_555
Mg4 Si11 3.130480 1_655
Mg5 Si6 2.803093 1_545
Mg5 Si0 2.834281 1_656
Mg5 Si0 2.834281 1_556
Mg5 Si9 2.911787 1_655
Mg5 Si9 2.911787 1_555
Mg5 Si1 3.149274 1_656
Mg5 Si1 3.149274 1_556
Mg5 Si3 3.171217 1_655
Mg5 Si3 3.171217 1_555
Mg6 Si5 2.956230 1_555
Mg6 Si5 2.956230 1_455
Mg6 Si13 2.996960 1_455
Mg6 Si13 2.996960 1_555
Mg6 Si4 3.010170 1_455
Mg6 Si4 3.010170 1_555
Mg6 Si10 3.084759 1_465
Mg6 Si10 3.084759 1_565
Mg7 Si4 2.926037 1_555
Mg7 Si4 2.926037 1_455
Mg7 Si5 2.983883 1_455
Mg7 Si5 2.983883 1_555
Mg7 Si12 3.000510 1_555
Mg7 Si12 3.000510 1_455
Mg7 Si8 3.040772 1_455
Mg7 Si8 3.040772 1_555
Mg7 Si11 3.201089 1_555
Si0 Si11 2.408603 1_555
Si0 Si3 2.423935 1_554
Si0 Si1 2.530568 1_555
Si1 Si7 2.461401 1_545
Si1 Si3 2.739421 1_544
Si2 Si6 2.563207 1_545
Si2 Si6 2.563207 1_445
Si2 Si9 2.608443 1_555
Si2 Si3 2.791365 1_545
Si3 Si9 2.441628 1_555
Si3 Si6 2.602923 1_555
Si3 Si6 2.602923 1_455
Si4 Si5 2.357112 1_555
Si10 Si13 2.445416 1_545
Si10 Si6 2.628929 1_545
Si10 Si2 2.752913 1_555
Si10 Si2 2.752913 1_655
Si11 Si7 2.478417 1_555
Si11 Si8 2.518371 1_455
Si11 Si8 2.518371 1_555
Si12 Si4 2.360243 1_555
Si12 Si8 2.420236 1_555
Si12 Si7 2.479924 1_655
Si12 Si7 2.479924 1_555
Si13 Si5 2.398813 1_555
Si13 Si9 2.491146 1_555
Si13 Si9 2.491146 1_655
