# generated using pymatgen
data_Ga2O3
_symmetry_space_group_name_H-M   'P 1'
_cell_length_a   4.90431445
_cell_length_b   4.90431445
_cell_length_c   7.28402800
_cell_angle_alpha   90.00000000
_cell_angle_beta   90.00000000
_cell_angle_gamma   146.57832132
_symmetry_Int_Tables_number   1
_chemical_formula_structural   Ga2O3
_chemical_formula_sum   'Ga4 O6'
_cell_volume   96.49825392
_cell_formula_units_Z   2
loop_
 _symmetry_equiv_pos_site_id
 _symmetry_equiv_pos_as_xyz
  1  'x, y, z'
loop_
 _atom_site_type_symbol
 _atom_site_label
 _atom_site_symmetry_multiplicity
 _atom_site_fract_x
 _atom_site_fract_y
 _atom_site_fract_z
 _atom_site_occupancy
  Ga  Ga0  1  0.24802400  0.75197600  0.25000000  1
  Ga  Ga1  1  0.75197600  0.24802400  0.75000000  1
  Ga  Ga2  1  0.00000000  0.00000000  0.50000000  1
  Ga  Ga3  1  0.00000000  0.00000000  0.00000000  1
  O  O0  1  0.36312500  0.63687500  0.92523300  1
  O  O1  1  0.63687500  0.36312500  0.07476700  1
  O  O2  1  0.63687500  0.36312500  0.42523300  1
  O  O3  1  0.36312500  0.63687500  0.57476700  1
  O  O4  1  0.10703400  0.89296600  0.75000000  1
  O  O5  1  0.89296600  0.10703400  0.25000000  1
loop_
_geom_bond_atom_site_label_1
_geom_bond_atom_site_label_2
_geom_bond_distance
_geom_bond_site_symmetry_2
Ga0 O5 1.960285 1_565
Ga0 O5 1.960285 1_455
Ga0 O2 2.169829 1_565
Ga0 O1 2.169829 1_565
Ga0 O2 2.169829 1_455
Ga0 O1 2.169829 1_455
Ga1 O4 1.960285 1_655
Ga1 O4 1.960285 1_545
Ga1 O0 2.169829 1_655
Ga1 O3 2.169829 1_655
Ga1 O0 2.169829 1_545
Ga1 O3 2.169829 1_545
Ga2 O3 1.984609 1_555
Ga2 O2 1.984609 1_555
Ga2 O2 1.984609 1_445
Ga2 O3 1.984609 1_445
Ga2 O5 2.080177 1_455
Ga2 O4 2.080177 1_545
Ga3 O0 1.984609 1_554
Ga3 O1 1.984609 1_555
Ga3 O1 1.984609 1_445
Ga3 O0 1.984609 1_444
Ga3 O5 2.080177 1_455
Ga3 O4 2.080177 1_544
