# generated using pymatgen
data_In10(Pb2S7)3
_symmetry_space_group_name_H-M   'P 1'
_cell_length_a   3.90571900
_cell_length_b   14.13168402
_cell_length_c   15.92224426
_cell_angle_alpha   95.32240676
_cell_angle_beta   90.00221306
_cell_angle_gamma   97.84021030
_symmetry_Int_Tables_number   1
_chemical_formula_structural   In10(Pb2S7)3
_chemical_formula_sum   'In10 Pb6 S21'
_cell_volume   866.77824806
_cell_formula_units_Z   1
loop_
 _symmetry_equiv_pos_site_id
 _symmetry_equiv_pos_as_xyz
  1  'x, y, z'
loop_
 _atom_site_type_symbol
 _atom_site_label
 _atom_site_symmetry_multiplicity
 _atom_site_fract_x
 _atom_site_fract_y
 _atom_site_fract_z
 _atom_site_occupancy
  In  In0  1  0.68844400  0.37769200  0.48500400  1
  In  In1  1  0.50992800  0.02627100  0.12896600  1
  In  In2  1  0.22152500  0.42930700  0.69186600  1
  In  In3  1  0.78668400  0.57067600  0.30649900  1
  In  In4  1  0.90357700  0.79896700  0.01769700  1
  In  In5  1  0.73256300  0.46891900  0.89262500  1
  In  In6  1  0.31139900  0.62411300  0.51404000  1
  In  In7  1  0.26128400  0.52805600  0.10622200  1
  In  In8  1  0.09776400  0.19785300  0.98124200  1
  In  In9  1  0.48040800  0.97306900  0.87077400  1
  Pb  Pb0  1  0.06925000  0.14808200  0.70582400  1
  Pb  Pb1  1  0.12759800  0.27293200  0.24124100  1
  Pb  Pb2  1  0.93260700  0.85038400  0.29590300  1
  Pb  Pb3  1  0.86373800  0.72287600  0.75626500  1
  Pb  Pb4  1  0.04560100  0.10051600  0.43032500  1
  Pb  Pb5  1  0.95323400  0.90177900  0.56966200  1
  S  S0  1  0.46988200  0.93110000  0.40779000  1
  S  S1  1  0.59940700  0.20340800  0.09572500  1
  S  S2  1  0.53144500  0.07002500  0.59164700  1
  S  S3  1  0.32565200  0.65487300  0.23635300  1
  S  S4  1  0.27717800  0.56109500  0.81175000  1
  S  S5  1  0.22876300  0.47328100  0.40213200  1
  S  S6  1  0.71853800  0.43760200  0.18755400  1
  S  S7  1  0.57971300  0.15729800  0.87340400  1
  S  S8  1  0.61504100  0.23888200  0.36762700  1
  S  S9  1  0.80043200  0.60727600  0.02252000  1
  S  S10  1  0.02304800  0.05162600  0.23576200  1
  S  S11  1  0.67890400  0.34432900  0.76126600  1
  S  S12  1  0.19288000  0.38994200  0.97623900  1
  S  S13  1  0.39925100  0.79592200  0.90324900  1
  S  S14  1  0.00524000  0.00042100  0.99971200  1
  S  S15  1  0.84685500  0.69843000  0.43371300  1
  S  S16  1  0.38119900  0.76206700  0.63170700  1
  S  S17  1  0.96913200  0.94840300  0.76371100  1
  S  S18  1  0.42659400  0.84220900  0.12492000  1
  S  S19  1  0.15243400  0.30264400  0.56426800  1
  S  S20  1  0.75505600  0.52870700  0.59766500  1
loop_
_geom_bond_atom_site_label_1
_geom_bond_atom_site_label_2
_geom_bond_distance
_geom_bond_site_symmetry_2
In0 S8 2.566972 1_555
In0 S19 2.596751 1_555
In0 S19 2.602726 1_655
In0 S20 2.641612 1_555
In0 S5 2.751821 1_655
In0 S5 2.789520 1_555
In1 S18 2.571727 1_545
In1 S1 2.583724 1_555
In1 S10 2.590194 1_555
In1 S10 2.593660 1_655
In1 S14 2.813918 1_554
In1 S14 2.857444 1_654
In2 S4 2.527715 1_555
In2 S19 2.568636 1_555
In2 S11 2.585663 1_555
In2 S11 2.589731 1_455
In2 S20 2.856163 1_555
In2 S20 2.937856 1_455
In3 S6 2.529182 1_555
In3 S15 2.573557 1_555
In3 S3 2.580274 1_655
In3 S3 2.595467 1_555
In3 S5 2.869002 1_655
In3 S5 2.920987 1_555
In4 S18 2.622207 1_555
In4 S18 2.631832 1_655
In4 S13 2.660625 1_654
In4 S13 2.676659 1_554
In4 S9 2.692078 1_555
In4 S14 2.861340 1_664
In5 S11 2.595089 1_555
In5 S12 2.659565 1_655
In5 S12 2.663670 1_555
In5 S9 2.697967 1_556
In5 S4 2.726729 1_655
In5 S4 2.731575 1_555
In6 S16 2.561718 1_555
In6 S15 2.600512 1_555
In6 S15 2.607609 1_455
In6 S5 2.632504 1_555
In6 S20 2.750181 1_555
In6 S20 2.801113 1_455
In7 S3 2.599270 1_555
In7 S9 2.663771 1_455
In7 S9 2.664121 1_555
In7 S12 2.696750 1_554
In7 S6 2.715257 1_455
In7 S6 2.725831 1_555
In8 S7 2.621340 1_455
In8 S7 2.632851 1_555
In8 S1 2.664365 1_556
In8 S1 2.670751 1_456
In8 S12 2.697792 1_555
In8 S14 2.806883 1_555
In9 S7 2.575754 1_565
In9 S13 2.580397 1_555
In9 S17 2.591266 1_455
In9 S17 2.596647 1_555
In9 S14 2.803068 1_565
In9 S14 2.863967 1_665
Pb0 S2 2.815926 1_455
Pb0 S2 2.819926 1_555
Pb0 S17 3.024314 1_445
Pb1 S8 2.864586 1_455
Pb1 S8 2.887018 1_555
Pb1 S10 3.091298 1_555
Pb1 S1 3.100594 1_455
Pb1 S1 3.130687 1_555
Pb1 S6 3.175178 1_455
Pb1 S6 3.221318 1_555
Pb2 S0 2.801423 1_655
Pb2 S0 2.815443 1_555
Pb2 S10 3.059512 1_665
Pb2 S15 3.196255 1_555
Pb3 S16 2.867641 1_655
Pb3 S16 2.877532 1_555
Pb3 S13 3.143196 1_655
Pb3 S13 3.145927 1_555
Pb3 S17 3.148481 1_555
Pb3 S4 3.161751 1_655
Pb3 S4 3.194008 1_555
Pb4 S8 2.984459 1_455
Pb4 S8 2.990370 1_555
Pb4 S0 3.047729 1_445
Pb4 S0 3.087027 1_545
Pb4 S10 3.109383 1_555
Pb5 S16 2.988326 1_655
Pb5 S16 3.004049 1_555
Pb5 S2 3.042402 1_665
Pb5 S2 3.066536 1_565
Pb5 S17 3.097636 1_555
