# generated using pymatgen
data_K2Ge2O3
_symmetry_space_group_name_H-M   'P 1'
_cell_length_a   6.93526336
_cell_length_b   6.93526336
_cell_length_c   6.93526336
_cell_angle_alpha   109.47122063
_cell_angle_beta   109.47122063
_cell_angle_gamma   109.47122063
_symmetry_Int_Tables_number   1
_chemical_formula_structural   K2Ge2O3
_chemical_formula_sum   'K4 Ge4 O6'
_cell_volume   256.78342244
_cell_formula_units_Z   2
loop_
 _symmetry_equiv_pos_site_id
 _symmetry_equiv_pos_as_xyz
  1  'x, y, z'
loop_
 _atom_site_type_symbol
 _atom_site_label
 _atom_site_symmetry_multiplicity
 _atom_site_fract_x
 _atom_site_fract_y
 _atom_site_fract_z
 _atom_site_occupancy
  K  K0  1  0.50684072  0.50684072  0.50684072  1
  K  K1  1  0.99315928  0.50000000  -0.00000000  1
  K  K2  1  -0.00000000  0.99315928  0.50000000  1
  K  K3  1  0.50000000  0.00000000  0.99315928  1
  Ge  Ge0  1  0.03482928  0.03482928  0.03482928  1
  Ge  Ge1  1  0.46517072  0.50000000  -0.00000000  1
  Ge  Ge2  1  0.00000000  0.46517072  0.50000000  1
  Ge  Ge3  1  0.50000000  -0.00000000  0.46517072  1
  O  O0  1  0.24611824  0.99611824  0.25000000  1
  O  O1  1  0.25388176  0.50388176  0.75000000  1
  O  O2  1  0.99611824  0.25000000  0.24611824  1
  O  O3  1  0.50388176  0.75000000  0.25388176  1
  O  O4  1  0.25000000  0.24611824  0.99611824  1
  O  O5  1  0.75000000  0.25388176  0.50388176  1
loop_
_geom_bond_atom_site_label_1
_geom_bond_atom_site_label_2
_geom_bond_distance
_geom_bond_site_symmetry_2
K0 O1 2.809512 1_555
K0 O5 2.809512 1_555
K0 O3 2.809512 1_555
K0 O2 2.892240 1_455
K0 O4 2.892240 1_554
K0 O0 2.892240 1_545
K1 O2 2.809512 1_555
K1 O5 2.809512 1_554
K1 O0 2.809512 1_655
K1 O4 2.892240 1_654
K1 O1 2.892240 1_654
K1 O3 2.892240 1_655
K2 O0 2.809512 1_555
K2 O3 2.809512 1_455
K2 O4 2.809512 1_565
K2 O2 2.892240 1_465
K2 O5 2.892240 1_465
K2 O1 2.892240 1_565
K3 O4 2.809512 1_555
K3 O1 2.809512 1_545
K3 O2 2.809512 1_556
K3 O0 2.892240 1_546
K3 O5 2.892240 1_556
K3 O3 2.892240 1_546
Ge0 O4 1.875563 1_554
Ge0 O0 1.875563 1_545
Ge0 O2 1.875563 1_455
Ge1 O1 1.875563 1_554
Ge1 O4 1.875563 1_554
Ge1 O3 1.875563 1_555
Ge2 O5 1.875563 1_455
Ge2 O2 1.875563 1_455
Ge2 O1 1.875563 1_555
Ge3 O3 1.875563 1_545
Ge3 O0 1.875563 1_545
Ge3 O5 1.875563 1_555
