# generated using pymatgen
data_Li7Mn4CoO12
_symmetry_space_group_name_H-M   'P 1'
_cell_length_a   5.10535371
_cell_length_b   5.88736458
_cell_length_c   14.69958876
_cell_angle_alpha   79.71041946
_cell_angle_beta   89.18173780
_cell_angle_gamma   90.77865838
_symmetry_Int_Tables_number   1
_chemical_formula_structural   Li7Mn4CoO12
_chemical_formula_sum   'Li14 Mn8 Co2 O24'
_cell_volume   434.61819911
_cell_formula_units_Z   2
loop_
 _symmetry_equiv_pos_site_id
 _symmetry_equiv_pos_as_xyz
  1  'x, y, z'
loop_
 _atom_site_type_symbol
 _atom_site_label
 _atom_site_symmetry_multiplicity
 _atom_site_fract_x
 _atom_site_fract_y
 _atom_site_fract_z
 _atom_site_occupancy
  Li  Li0  1  0.15760300  0.09166400  0.33225200  1
  Li  Li1  1  0.17562200  0.57499600  0.33439200  1
  Li  Li2  1  0.66254900  0.08518400  0.83312100  1
  Li  Li3  1  0.67089400  0.58153800  0.83349900  1
  Li  Li4  1  0.16666800  0.33333100  0.83333100  1
  Li  Li5  1  0.16669800  0.83332200  0.83333100  1
  Li  Li6  1  0.34813900  0.40809200  0.17132300  1
  Li  Li7  1  0.35074500  0.91301600  0.16798000  1
  Li  Li8  1  0.98515600  0.25854700  0.49530600  1
  Li  Li9  1  0.98245400  0.75361400  0.49869100  1
  Li  Li10  1  0.83929100  0.41210400  0.67339700  1
  Li  Li11  1  0.84766600  0.90099600  0.67576100  1
  Li  Li12  1  0.49405800  0.25458300  0.99324800  1
  Li  Li13  1  0.48579500  0.76570300  0.99089300  1
  Mn  Mn0  1  0.00584800  0.00965000  0.99306700  1
  Mn  Mn1  1  0.01067300  0.50729100  0.99345500  1
  Mn  Mn2  1  0.32281600  0.15930300  0.67325400  1
  Mn  Mn3  1  0.32758800  0.65708300  0.67360400  1
  Mn  Mn4  1  0.83917500  0.16965800  0.16561200  1
  Mn  Mn5  1  0.83586700  0.66897700  0.16643000  1
  Mn  Mn6  1  0.49737600  0.99766800  0.50024100  1
  Mn  Mn7  1  0.49408400  0.49693300  0.50108100  1
  Co  Co0  1  0.66658500  0.83332600  0.33334500  1
  Co  Co1  1  0.66660800  0.33333700  0.33333600  1
  O  O0  1  0.13805300  0.22150200  0.07470000  1
  O  O1  1  0.13595400  0.72278100  0.07435300  1
  O  O2  1  0.19525700  0.44517700  0.59200000  1
  O  O3  1  0.19741400  0.94392200  0.59234400  1
  O  O4  1  0.00533500  0.35702100  0.24367900  1
  O  O5  1  0.99398300  0.89180000  0.23609600  1
  O  O6  1  0.32793800  0.30961800  0.42299700  1
  O  O7  1  0.33916200  0.77479400  0.43059900  1
  O  O8  1  0.80754900  0.03916100  0.42140500  1
  O  O9  1  0.79831300  0.54160200  0.42419900  1
  O  O10  1  0.53490000  0.12503200  0.24246400  1
  O  O11  1  0.52572000  0.62749700  0.24527100  1
  O  O12  1  0.63005600  0.21509300  0.57720500  1
  O  O13  1  0.63933700  0.68180400  0.58555500  1
  O  O14  1  0.70327200  0.45161600  0.08944500  1
  O  O15  1  0.69396700  0.98489300  0.08108800  1
  O  O16  1  0.48091100  0.37609900  0.74192800  1
  O  O17  1  0.48610800  0.88165000  0.73932800  1
  O  O18  1  0.85256700  0.29060700  0.92473900  1
  O  O19  1  0.84734200  0.78503400  0.92731800  1
  O  O20  1  0.30728500  0.04043400  0.92316600  1
  O  O21  1  0.31119400  0.54067100  0.92520700  1
  O  O22  1  0.02226600  0.12604700  0.74144900  1
  O  O23  1  0.02615800  0.62622600  0.74351300  1
loop_
_geom_bond_atom_site_label_1
_geom_bond_atom_site_label_2
_geom_bond_distance
_geom_bond_site_symmetry_2
Li0 O4 2.018760 1_555
Li0 O5 2.163647 1_445
Li0 O8 2.186382 1_455
Li0 O6 2.190065 1_555
Li0 O10 2.305524 1_555
Li0 O7 2.356083 1_545
Li1 O6 2.019183 1_555
Li1 O7 2.163801 1_555
Li1 O11 2.186299 1_555
Li1 O4 2.189715 1_555
Li1 O9 2.305723 1_455
Li1 O5 2.355626 1_455
Li2 O17 2.178188 1_545
Li2 O18 2.191981 1_555
Li2 O16 2.201990 1_555
Li2 O20 2.214710 1_555
Li2 O22 2.246754 1_655
Li2 O19 2.266818 1_545
Li3 O19 2.178338 1_555
Li3 O16 2.191467 1_555
Li3 O18 2.202461 1_555
Li3 O23 2.214220 1_655
Li3 O21 2.246985 1_555
Li3 O17 2.266469 1_555
Li4 O18 2.060817 1_455
Li4 O16 2.061327 1_555
Li4 O22 2.109450 1_555
Li4 O21 2.109833 1_555
Li4 O23 2.116265 1_555
Li4 O20 2.116590 1_555
Li5 O23 2.079160 1_555
Li5 O20 2.079495 1_565
Li5 O19 2.104898 1_455
Li5 O17 2.105256 1_555
Li5 O21 2.137386 1_555
Li5 O22 2.137614 1_565
Li6 O4 2.025566 1_555
Li6 O11 2.042056 1_555
Li6 O10 2.056439 1_555
Li6 O14 2.148575 1_555
Li6 O0 2.223360 1_555
Li6 O1 2.406862 1_555
Li7 O10 2.031374 1_565
Li7 O5 2.057350 1_455
Li7 O11 2.074118 1_555
Li7 O15 2.145643 1_555
Li7 O1 2.216165 1_555
Li7 O0 2.358853 1_565
Li8 O6 2.025134 1_655
Li8 O8 2.041584 1_555
Li8 O9 2.056434 1_555
Li8 O12 2.148594 1_555
Li8 O2 2.224305 1_655
Li8 O3 2.407245 1_645
Li9 O9 2.031402 1_555
Li9 O7 2.056953 1_655
Li9 O8 2.074046 1_565
Li9 O13 2.144954 1_555
Li9 O3 2.217130 1_655
Li9 O2 2.359123 1_655
Li10 O23 2.005284 1_655
Li10 O22 2.043815 1_655
Li10 O16 2.065893 1_555
Li10 O13 2.140057 1_555
Li10 O2 2.148785 1_655
Li10 O12 2.254133 1_555
Li11 O23 1.982314 1_655
Li11 O22 1.982923 1_665
Li11 O17 2.049481 1_555
Li11 O3 2.137812 1_655
Li11 O13 2.273556 1_555
Li11 O12 2.428455 1_565
Li12 O20 2.004853 1_555
Li12 O21 2.043625 1_555
Li12 O18 2.066324 1_555
Li12 O15 2.139891 1_546
Li12 O0 2.149378 1_556
Li12 O14 2.254216 1_556
Li13 O20 1.982056 1_565
Li13 O21 1.982824 1_555
Li13 O19 2.049485 1_555
Li13 O1 2.138545 1_556
Li13 O15 2.273061 1_556
Li13 O14 2.428065 1_556
Mn0 O20 1.826939 1_555
Mn0 O19 1.946154 1_445
Mn0 O18 1.954826 1_455
Mn0 O0 1.996511 1_556
Mn0 O1 2.013342 1_546
Mn0 O15 2.024384 1_446
Mn1 O21 1.810096 1_555
Mn1 O18 1.937754 1_455
Mn1 O19 1.951043 1_455
Mn1 O1 1.992828 1_556
Mn1 O0 2.003551 1_556
Mn1 O14 2.078203 1_456
Mn2 O22 1.809815 1_555
Mn2 O16 1.937825 1_555
Mn2 O17 1.950226 1_545
Mn2 O3 1.992678 1_545
Mn2 O2 2.004294 1_555
Mn2 O12 2.078166 1_555
Mn3 O23 1.826967 1_555
Mn3 O17 1.945734 1_555
Mn3 O16 1.955015 1_555
Mn3 O2 1.996654 1_555
Mn3 O3 2.013162 1_555
Mn3 O13 2.024125 1_555
Mn4 O10 1.895029 1_555
Mn4 O4 1.925580 1_655
Mn4 O15 1.940049 1_545
Mn4 O5 1.956316 1_545
Mn4 O14 1.969785 1_555
Mn4 O0 1.997681 1_655
Mn5 O11 1.935436 1_555
Mn5 O14 1.972854 1_555
Mn5 O5 1.973833 1_555
Mn5 O1 2.013425 1_655
Mn5 O4 2.176531 1_655
Mn5 O15 2.187896 1_555
Mn6 O8 1.935503 1_565
Mn6 O12 1.973070 1_565
Mn6 O7 1.974035 1_555
Mn6 O3 2.013180 1_555
Mn6 O6 2.176413 1_565
Mn6 O13 2.187600 1_555
Mn7 O9 1.895091 1_555
Mn7 O6 1.925535 1_555
Mn7 O13 1.940008 1_555
Mn7 O7 1.956564 1_555
Mn7 O12 1.969130 1_555
Mn7 O2 1.997538 1_555
Co0 O11 2.055512 1_555
Co0 O8 2.055562 1_565
Co0 O9 2.103155 1_555
Co0 O10 2.103201 1_565
Co0 O5 2.167072 1_555
Co0 O7 2.167225 1_555
Co1 O9 2.080331 1_555
Co1 O10 2.080601 1_555
Co1 O11 2.109957 1_555
Co1 O8 2.110150 1_555
Co1 O6 2.146792 1_555
Co1 O4 2.147000 1_655
