# generated using pymatgen
data_Er2MgSe4
_symmetry_space_group_name_H-M   'P 1'
_cell_length_a   7.50182263
_cell_length_b   7.50182263
_cell_length_c   7.50182263
_cell_angle_alpha   110.37348899
_cell_angle_beta   110.37348899
_cell_angle_gamma   107.68137400
_symmetry_Int_Tables_number   1
_chemical_formula_structural   Er2MgSe4
_chemical_formula_sum   'Er4 Mg2 Se8'
_cell_volume   324.75940491
_cell_formula_units_Z   2
loop_
 _symmetry_equiv_pos_site_id
 _symmetry_equiv_pos_as_xyz
  1  'x, y, z'
loop_
 _atom_site_type_symbol
 _atom_site_label
 _atom_site_symmetry_multiplicity
 _atom_site_fract_x
 _atom_site_fract_y
 _atom_site_fract_z
 _atom_site_occupancy
  Er  Er0  1  0.87500000  0.75651500  0.38151500  1
  Er  Er1  1  0.50651500  0.12500000  0.88151500  1
  Er  Er2  1  0.37500000  0.49348500  0.61848500  1
  Er  Er3  1  0.24348500  0.62500000  0.11848500  1
  Mg  Mg0  1  0.00000000  0.00000000  0.00000000  1
  Mg  Mg1  1  0.75000000  0.25000000  0.50000000  1
  Se  Se0  1  0.50853100  0.37891600  0.25936100  1
  Se  Se1  1  0.75083000  0.49146900  0.87038400  1
  Se  Se2  1  0.11955400  0.24917000  0.74063900  1
  Se  Se3  1  0.62108400  0.88044600  0.12961600  1
  Se  Se4  1  0.24146900  0.00083000  0.37038400  1
  Se  Se5  1  0.99917000  0.36955400  0.24063900  1
  Se  Se6  1  0.63044600  0.87108400  0.62961600  1
  Se  Se7  1  0.12891600  0.75853100  0.75936100  1
loop_
_geom_bond_atom_site_label_1
_geom_bond_atom_site_label_2
_geom_bond_distance
_geom_bond_site_symmetry_2
Er0 Se7 2.802933 1_655
Er0 Se3 2.802935 1_555
Er0 Se0 2.851280 1_555
Er0 Se4 2.851284 1_665
Er0 Se6 3.128907 1_555
Er0 Se2 3.128909 1_665
Er0 Se5 3.256287 1_555
Er0 Se1 3.256287 1_554
Er1 Se0 2.802933 1_556
Er1 Se6 2.802935 1_545
Er1 Se7 2.851280 1_545
Er1 Se1 2.851284 1_555
Er1 Se3 3.128907 1_546
Er1 Se5 3.128909 1_556
Er1 Se2 3.256287 1_555
Er1 Se4 3.256287 1_555
Er2 Se5 2.802931 1_455
Er2 Se1 2.802931 1_555
Er2 Se6 2.851278 1_555
Er2 Se2 2.851284 1_555
Er2 Se0 3.128909 1_555
Er2 Se4 3.128909 1_555
Er2 Se7 3.256281 1_555
Er2 Se3 3.256288 1_556
Er3 Se2 2.802931 1_554
Er3 Se4 2.802931 1_565
Er3 Se3 2.851278 1_555
Er3 Se5 2.851284 1_455
Er3 Se7 3.128909 1_554
Er3 Se1 3.128909 1_454
Er3 Se0 3.256281 1_555
Er3 Se6 3.256288 1_555
Mg0 Se6 2.734658 1_444
Mg0 Se5 2.734660 1_455
Mg0 Se4 2.734660 1_555
Mg0 Se7 2.734666 1_544
Mg0 Se2 3.288318 1_554
Mg0 Se1 3.288318 1_444
Mg0 Se0 3.288320 1_555
Mg0 Se3 3.288325 1_445
Mg1 Se3 2.734658 1_545
Mg1 Se2 2.734660 1_655
Mg1 Se1 2.734660 1_555
Mg1 Se0 2.734666 1_555
Mg1 Se5 3.288318 1_555
Mg1 Se4 3.288318 1_555
Mg1 Se7 3.288320 1_655
Mg1 Se6 3.288325 1_545
