# generated using pymatgen
data_BaV6O11
_symmetry_space_group_name_H-M   'P 1'
_cell_length_a   5.95460875
_cell_length_b   5.95460875
_cell_length_c   13.55212500
_cell_angle_alpha   90.00000000
_cell_angle_beta   90.00000000
_cell_angle_gamma   120.65911131
_symmetry_Int_Tables_number   1
_chemical_formula_structural   BaV6O11
_chemical_formula_sum   'Ba2 V12 O22'
_cell_volume   413.35346057
_cell_formula_units_Z   2
loop_
 _symmetry_equiv_pos_site_id
 _symmetry_equiv_pos_as_xyz
  1  'x, y, z'
loop_
 _atom_site_type_symbol
 _atom_site_label
 _atom_site_symmetry_multiplicity
 _atom_site_fract_x
 _atom_site_fract_y
 _atom_site_fract_z
 _atom_site_occupancy
  Ba  Ba0  1  0.66496500  0.33503500  0.75189300  1
  Ba  Ba1  1  0.33503500  0.66496500  0.25189300  1
  V  V0  1  0.66856800  0.33143200  0.25405400  1
  V  V1  1  0.33143200  0.66856800  0.75405400  1
  V  V2  1  0.00283800  0.99716200  0.64845900  1
  V  V3  1  0.99716200  0.00283800  0.14845900  1
  V  V4  1  0.99523600  0.00476400  0.85858500  1
  V  V5  1  0.00476400  0.99523600  0.35858500  1
  V  V6  1  0.48893100  0.98987200  0.00378500  1
  V  V7  1  0.49887000  0.50113000  0.50272500  1
  V  V8  1  0.98987200  0.48893100  0.50378500  1
  V  V9  1  0.01012800  0.51106900  0.00378500  1
  V  V10  1  0.50113000  0.49887000  0.00272500  1
  V  V11  1  0.51106900  0.01012800  0.50378500  1
  O  O0  1  0.67296800  0.32703200  0.08407500  1
  O  O1  1  0.32703200  0.67296800  0.58407500  1
  O  O2  1  0.66842100  0.33157900  0.41702900  1
  O  O3  1  0.33157900  0.66842100  0.91702900  1
  O  O4  1  0.84670500  0.70314500  0.25430400  1
  O  O5  1  0.14480800  0.85519200  0.75582000  1
  O  O6  1  0.70314500  0.84670500  0.75430400  1
  O  O7  1  0.29685500  0.15329500  0.25430400  1
  O  O8  1  0.85519200  0.14480800  0.25582000  1
  O  O9  1  0.15329500  0.29685500  0.75430400  1
  O  O10  1  0.82695300  0.64789400  0.58149700  1
  O  O11  1  0.17202900  0.82797100  0.08587800  1
  O  O12  1  0.64789400  0.82695300  0.08149700  1
  O  O13  1  0.35210600  0.17304700  0.58149700  1
  O  O14  1  0.16243100  0.34154800  0.42254100  1
  O  O15  1  0.83715600  0.16284400  0.92153200  1
  O  O16  1  0.34154800  0.16243100  0.92254100  1
  O  O17  1  0.65845200  0.83756900  0.42254100  1
  O  O18  1  0.16284400  0.83715600  0.42153200  1
  O  O19  1  0.83756900  0.65845200  0.92254100  1
  O  O20  1  0.17304700  0.35210600  0.08149700  1
  O  O21  1  0.82797100  0.17202900  0.58587800  1
loop_
_geom_bond_atom_site_label_1
_geom_bond_atom_site_label_2
_geom_bond_distance
_geom_bond_site_symmetry_2
Ba0 O13 2.810852 1_555
Ba0 O10 2.810852 1_555
Ba0 O21 2.811933 1_555
Ba0 O16 2.845138 1_555
Ba0 O19 2.845138 1_555
Ba0 O15 2.908615 1_555
Ba0 O9 2.937563 1_555
Ba0 O6 2.937563 1_555
Ba0 O5 2.955444 1_545
Ba0 O5 2.955444 1_655
Ba0 O9 3.030239 1_655
Ba0 O6 3.030239 1_545
Ba1 O20 2.810852 1_555
Ba1 O12 2.810852 1_555
Ba1 O11 2.811933 1_555
Ba1 O17 2.845138 1_555
Ba1 O14 2.845138 1_555
Ba1 O18 2.908615 1_555
Ba1 O7 2.937563 1_555
Ba1 O4 2.937563 1_555
Ba1 O8 2.955444 1_455
Ba1 O8 2.955444 1_565
Ba1 O7 3.030239 1_565
Ba1 O4 3.030239 1_455
O0 V9 2.042487 1_655
O0 V6 2.042487 1_545
O0 V10 2.092178 1_555
O0 V0 2.304027 1_555
O1 V11 2.042487 1_565
O1 V8 2.042487 1_455
O1 V7 2.092178 1_555
O1 V1 2.304027 1_555
O2 V11 2.023611 1_555
O2 V8 2.023611 1_555
O2 V7 2.104030 1_555
O2 V0 2.208658 1_555
O3 V9 2.023611 1_556
O3 V6 2.023611 1_556
O3 V10 2.104030 1_556
O3 V1 2.208658 1_555
O4 V0 1.905223 1_555
O4 V5 2.058802 1_655
O4 V3 2.101027 1_565
O5 V1 1.931289 1_555
O5 V2 2.067634 1_555
O5 V4 2.082080 1_465
O6 V1 1.905223 1_555
O6 V4 2.058802 1_565
O6 V2 2.101027 1_655
O7 V0 1.905223 1_555
O7 V5 2.058802 1_545
O7 V3 2.101027 1_455
O8 V0 1.931289 1_555
O8 V3 2.067634 1_555
O8 V5 2.082080 1_645
O9 V1 1.905223 1_555
O9 V4 2.058802 1_455
O9 V2 2.101027 1_545
O10 V8 1.970476 1_555
O10 V7 1.994675 1_555
O10 V2 2.006078 1_655
O11 V6 1.967913 1_555
O11 V9 1.967913 1_555
O11 V3 1.998377 1_465
O12 V6 1.970476 1_555
O12 V10 1.994675 1_555
O12 V3 2.006078 1_565
O13 V11 1.970476 1_555
O13 V7 1.994675 1_555
O13 V2 2.006078 1_545
O14 V5 1.977537 1_545
O14 V8 1.989454 1_455
O14 V7 2.038572 1_555
O15 V4 1.844852 1_555
O15 V6 2.103541 1_546
O15 V9 2.103541 1_656
O16 V4 1.977537 1_455
O16 V6 1.989454 1_546
O16 V10 2.038572 1_556
O17 V5 1.977537 1_655
O17 V11 1.989454 1_565
O17 V7 2.038572 1_555
O18 V5 1.844852 1_555
O18 V11 2.103541 1_565
O18 V8 2.103541 1_455
O19 V4 1.977537 1_565
O19 V9 1.989454 1_656
O19 V10 2.038572 1_556
O20 V9 1.970476 1_555
O20 V10 1.994675 1_555
O20 V3 2.006078 1_455
O21 V8 1.967913 1_555
O21 V11 1.967913 1_555
O21 V2 1.998377 1_645
