# generated using pymatgen
data_Zn3BO5
_symmetry_space_group_name_H-M   'P 1'
_cell_length_a   3.13426200
_cell_length_b   9.42162000
_cell_length_c   12.40114500
_cell_angle_alpha   90.00000000
_cell_angle_beta   90.00000000
_cell_angle_gamma   90.00000000
_symmetry_Int_Tables_number   1
_chemical_formula_structural   Zn3BO5
_chemical_formula_sum   'Zn12 B4 O20'
_cell_volume   366.20364840
_cell_formula_units_Z   4
loop_
 _symmetry_equiv_pos_site_id
 _symmetry_equiv_pos_as_xyz
  1  'x, y, z'
loop_
 _atom_site_type_symbol
 _atom_site_label
 _atom_site_symmetry_multiplicity
 _atom_site_fract_x
 _atom_site_fract_y
 _atom_site_fract_z
 _atom_site_occupancy
  Zn  Zn0  1  0.50000000  0.00679800  0.22105400  1
  Zn  Zn1  1  0.50000000  0.99320200  0.77894600  1
  Zn  Zn2  1  0.50000000  0.49320200  0.72105400  1
  Zn  Zn3  1  0.50000000  0.50679800  0.27894600  1
  Zn  Zn4  1  0.00000000  0.24005100  0.38239700  1
  Zn  Zn5  1  0.00000000  0.75994900  0.61760300  1
  Zn  Zn6  1  0.00000000  0.25994900  0.88239700  1
  Zn  Zn7  1  0.00000000  0.74005100  0.11760300  1
  Zn  Zn8  1  0.50000000  0.00000000  0.50000000  1
  Zn  Zn9  1  0.50000000  0.50000000  0.00000000  1
  Zn  Zn10  1  0.00000000  0.00000000  0.00000000  1
  Zn  Zn11  1  0.00000000  0.50000000  0.50000000  1
  B  B0  1  0.00000000  0.27823000  0.13947700  1
  B  B1  1  0.00000000  0.72177000  0.86052300  1
  B  B2  1  0.00000000  0.22177000  0.63947700  1
  B  B3  1  0.00000000  0.77823000  0.36052300  1
  O  O0  1  0.50000000  0.39470000  0.41985300  1
  O  O1  1  0.50000000  0.60530000  0.58014700  1
  O  O2  1  0.50000000  0.10530000  0.91985300  1
  O  O3  1  0.50000000  0.89470000  0.08014700  1
  O  O4  1  0.00000000  0.35110000  0.04264500  1
  O  O5  1  0.00000000  0.64890000  0.95735500  1
  O  O6  1  0.00000000  0.14890000  0.54264500  1
  O  O7  1  0.00000000  0.85110000  0.45735500  1
  O  O8  1  0.00000000  0.13108700  0.14174900  1
  O  O9  1  0.00000000  0.86891300  0.85825100  1
  O  O10  1  0.00000000  0.36891300  0.64174900  1
  O  O11  1  0.00000000  0.63108700  0.35825100  1
  O  O12  1  0.00000000  0.35334600  0.23589500  1
  O  O13  1  0.00000000  0.64665400  0.76410500  1
  O  O14  1  0.00000000  0.14665400  0.73589500  1
  O  O15  1  0.00000000  0.85334600  0.26410500  1
  O  O16  1  0.50000000  0.10697700  0.35847600  1
  O  O17  1  0.50000000  0.89302300  0.64152400  1
  O  O18  1  0.50000000  0.39302300  0.85847600  1
  O  O19  1  0.50000000  0.60697700  0.14152400  1
loop_
_geom_bond_atom_site_label_1
_geom_bond_atom_site_label_2
_geom_bond_distance
_geom_bond_site_symmetry_2
B0 O4 1.383236 1_555
B0 O8 1.386612 1_555
B0 O12 1.389440 1_555
B1 O5 1.383236 1_555
B1 O9 1.386612 1_555
B1 O13 1.389440 1_555
B2 O6 1.383236 1_555
B2 O10 1.386612 1_555
B2 O14 1.389440 1_555
B3 O7 1.383236 1_555
B3 O11 1.386612 1_555
B3 O15 1.389440 1_555
O0 Zn3 2.041783 1_555
O0 Zn11 2.104286 1_555
O0 Zn11 2.104286 1_655
O0 Zn4 2.189665 1_555
O0 Zn4 2.189665 1_655
O1 Zn2 2.041783 1_555
O1 Zn11 2.104286 1_555
O1 Zn11 2.104286 1_655
O1 Zn5 2.189665 1_555
O1 Zn5 2.189665 1_655
O2 Zn1 2.041783 1_545
O2 Zn10 2.104286 1_656
O2 Zn10 2.104286 1_556
O2 Zn6 2.189665 1_555
O2 Zn6 2.189665 1_655
O3 Zn0 2.041783 1_565
O3 Zn10 2.104286 1_665
O3 Zn10 2.104286 1_565
O3 Zn7 2.189665 1_655
O3 Zn7 2.189665 1_555
O4 Zn6 2.164883 1_554
O4 Zn9 2.168790 1_455
O4 Zn9 2.168790 1_555
O5 Zn7 2.164883 1_556
O5 Zn9 2.168790 1_556
O5 Zn9 2.168790 1_456
O6 Zn4 2.164883 1_555
O6 Zn8 2.168790 1_455
O6 Zn8 2.168790 1_555
O7 Zn5 2.164883 1_555
O7 Zn8 2.168790 1_465
O7 Zn8 2.168790 1_565
O8 Zn10 2.148346 1_555
O8 Zn0 2.189605 1_555
O8 Zn0 2.189605 1_455
O9 Zn10 2.148346 1_566
O9 Zn1 2.189605 1_555
O9 Zn1 2.189605 1_455
O10 Zn11 2.148346 1_555
O10 Zn2 2.189605 1_555
O10 Zn2 2.189605 1_455
O11 Zn11 2.148346 1_555
O11 Zn3 2.189605 1_555
O11 Zn3 2.189605 1_455
O12 Zn4 2.107161 1_555
O12 Zn3 2.197992 1_555
O12 Zn3 2.197992 1_455
O13 Zn5 2.107161 1_555
O13 Zn2 2.197992 1_555
O13 Zn2 2.197992 1_455
O14 Zn6 2.107161 1_555
O14 Zn1 2.197992 1_445
O14 Zn1 2.197992 1_545
O15 Zn7 2.107161 1_555
O15 Zn0 2.197992 1_465
O15 Zn0 2.197992 1_565
O16 Zn0 1.948105 1_555
O16 Zn8 2.023880 1_555
O16 Zn4 2.028755 1_555
O16 Zn4 2.028755 1_655
O17 Zn1 1.948105 1_555
O17 Zn8 2.023880 1_565
O17 Zn5 2.028755 1_655
O17 Zn5 2.028755 1_555
O18 Zn2 1.948105 1_555
O18 Zn9 2.023880 1_556
O18 Zn6 2.028755 1_555
O18 Zn6 2.028755 1_655
O19 Zn3 1.948105 1_555
O19 Zn9 2.023880 1_555
O19 Zn7 2.028755 1_655
O19 Zn7 2.028755 1_555
