# generated using pymatgen
data_CrReO4
_symmetry_space_group_name_H-M   'P 1'
_cell_length_a   5.75069501
_cell_length_b   7.41420444
_cell_length_c   6.58205044
_cell_angle_alpha   89.99432928
_cell_angle_beta   89.99840338
_cell_angle_gamma   67.18885372
_symmetry_Int_Tables_number   1
_chemical_formula_structural   CrReO4
_chemical_formula_sum   'Cr4 Re4 O16'
_cell_volume   258.68844343
_cell_formula_units_Z   4
loop_
 _symmetry_equiv_pos_site_id
 _symmetry_equiv_pos_as_xyz
  1  'x, y, z'
loop_
 _atom_site_type_symbol
 _atom_site_label
 _atom_site_symmetry_multiplicity
 _atom_site_fract_x
 _atom_site_fract_y
 _atom_site_fract_z
 _atom_site_occupancy
  Cr  Cr0  1  0.24248000  0.01456700  0.50016900  1
  Cr  Cr1  1  0.00692300  0.48539100  0.00005400  1
  Cr  Cr2  1  0.48958700  0.52024500  0.99979200  1
  Cr  Cr3  1  0.75980600  0.97967900  0.50015000  1
  Re  Re0  1  0.72454000  0.49750300  0.49997800  1
  Re  Re1  1  0.52672500  0.00223200  0.99999600  1
  Re  Re2  1  0.27896800  0.49780100  0.49998100  1
  Re  Re3  1  0.97207900  0.00248600  0.00000100  1
  O  O0  1  0.34097500  0.81837100  0.99998300  1
  O  O1  1  0.09356900  0.31335200  0.49999400  1
  O  O2  1  0.86104600  0.77757800  0.00005800  1
  O  O3  1  0.61280100  0.27530800  0.49999200  1
  O  O4  1  0.63814800  0.22474900  0.99996800  1
  O  O5  1  0.38873800  0.72241000  0.49991000  1
  O  O6  1  0.15679900  0.18668100  0.99999900  1
  O  O7  1  0.90936500  0.68165200  0.49997500  1
  O  O8  1  0.74211300  0.50134800  0.79199600  1
  O  O9  1  0.50692400  0.99955900  0.29210300  1
  O  O10  1  0.25633200  0.50053900  0.79200000  1
  O  O11  1  0.99339900  0.99860600  0.29210000  1
  O  O12  1  0.74201600  0.50131800  0.20790600  1
  O  O13  1  0.50683300  0.99953400  0.70799800  1
  O  O14  1  0.25638700  0.50050800  0.20788000  1
  O  O15  1  0.99344800  0.99858300  0.70801900  1
loop_
_geom_bond_atom_site_label_1
_geom_bond_atom_site_label_2
_geom_bond_distance
_geom_bond_site_symmetry_2
Cr0 O5 1.996697 1_545
Cr0 O13 2.015797 1_545
Cr0 O15 2.016946 1_445
Cr0 O9 2.017241 1_545
Cr0 O11 2.018144 1_445
Cr0 O1 2.041995 1_555
Cr1 O2 1.996901 1_455
Cr1 O14 2.016591 1_555
Cr1 O12 2.016630 1_455
Cr1 O8 2.017131 1_454
Cr1 O10 2.017384 1_554
Cr1 O6 2.041483 1_554
Cr2 O8 1.959936 1_555
Cr2 O10 1.960444 1_555
Cr2 O12 1.960988 1_556
Cr2 O14 1.961584 1_556
Cr2 O4 2.019521 1_555
Cr2 O0 2.037491 1_555
Cr3 O15 1.960372 1_555
Cr3 O13 1.960487 1_555
Cr3 O11 1.960989 1_555
Cr3 O9 1.961025 1_555
Cr3 O3 2.020429 1_565
Cr3 O7 2.036816 1_555
O0 Re3 2.029373 1_466
O0 Re1 2.031841 1_565
O1 Re0 2.030045 1_455
O1 Re2 2.034071 1_555
O2 Re1 1.996897 1_564
O2 Re3 2.003470 1_565
O3 Re0 1.986867 1_555
O3 Re2 1.987755 1_555
O4 Re3 1.987343 1_556
O4 Re1 1.987975 1_555
O5 Re2 1.996698 1_555
O5 Re0 2.003213 1_555
O6 Re3 2.029358 1_456
O6 Re1 2.034683 1_555
O7 Re0 2.029533 1_555
O7 Re2 2.032045 1_655
O8 Re0 1.925529 1_555
O9 Re1 1.926583 1_564
O10 Re2 1.926060 1_555
O11 Re3 1.926021 1_565
O12 Re0 1.925832 1_555
O13 Re1 1.925917 1_565
O14 Re2 1.926586 1_555
O15 Re3 1.925266 1_566
