# generated using pymatgen
data_PrBi3(Ru2O7)2
_symmetry_space_group_name_H-M   'P 1'
_cell_length_a   7.39133431
_cell_length_b   7.39133431
_cell_length_c   7.39133420
_cell_angle_alpha   59.58434833
_cell_angle_beta   59.58434833
_cell_angle_gamma   59.58435555
_symmetry_Int_Tables_number   1
_chemical_formula_structural   PrBi3(Ru2O7)2
_chemical_formula_sum   'Pr1 Bi3 Ru4 O14'
_cell_volume   282.83344044
_cell_formula_units_Z   1
loop_
 _symmetry_equiv_pos_site_id
 _symmetry_equiv_pos_as_xyz
  1  'x, y, z'
loop_
 _atom_site_type_symbol
 _atom_site_label
 _atom_site_symmetry_multiplicity
 _atom_site_fract_x
 _atom_site_fract_y
 _atom_site_fract_z
 _atom_site_occupancy
  Pr  Pr0  1  0.50000000  0.50000000  0.50000000  1
  Bi  Bi0  1  0.50000000  0.00000000  0.50000000  1
  Bi  Bi1  1  0.00000000  0.50000000  0.50000000  1
  Bi  Bi2  1  0.50000000  0.50000000  0.00000000  1
  Ru  Ru0  1  0.00000000  0.00000000  0.00000000  1
  Ru  Ru1  1  0.00000000  0.50000000  0.00000000  1
  Ru  Ru2  1  0.50000000  0.00000000  0.00000000  1
  Ru  Ru3  1  0.00000000  0.00000000  0.50000000  1
  O  O0  1  0.62570600  0.62570600  0.62570600  1
  O  O1  1  0.37429400  0.37429400  0.37429400  1
  O  O2  1  0.92203100  0.92203100  0.32721500  1
  O  O3  1  0.32721500  0.92203100  0.92203100  1
  O  O4  1  0.92203100  0.32721500  0.92203100  1
  O  O5  1  0.32796000  0.32796000  0.92626200  1
  O  O6  1  0.92626200  0.32796000  0.32796000  1
  O  O7  1  0.32796000  0.92626200  0.32796000  1
  O  O8  1  0.07796900  0.07796900  0.67278500  1
  O  O9  1  0.67278500  0.07796900  0.07796900  1
  O  O10  1  0.07796900  0.67278500  0.07796900  1
  O  O11  1  0.67204000  0.67204000  0.07373800  1
  O  O12  1  0.07373800  0.67204000  0.67204000  1
  O  O13  1  0.67204000  0.07373800  0.67204000  1
loop_
_geom_bond_atom_site_label_1
_geom_bond_atom_site_label_2
_geom_bond_distance
_geom_bond_site_symmetry_2
Bi0 O1 2.246993 1_555
Bi0 O0 2.246993 1_545
Bi0 O13 2.563542 1_555
Bi0 O7 2.563542 1_545
Bi0 O3 2.566101 1_545
Bi0 O9 2.566101 1_555
Bi0 O2 2.566102 1_545
Bi0 O8 2.566102 1_555
Bi1 O1 2.246993 1_555
Bi1 O0 2.246993 1_455
Bi1 O12 2.563542 1_555
Bi1 O6 2.563542 1_455
Bi1 O4 2.566101 1_455
Bi1 O10 2.566101 1_555
Bi1 O2 2.566102 1_455
Bi1 O8 2.566102 1_555
Bi2 O1 2.246992 1_555
Bi2 O0 2.246992 1_554
Bi2 O11 2.563542 1_555
Bi2 O5 2.563542 1_554
Bi2 O3 2.566102 1_554
Bi2 O4 2.566102 1_554
Bi2 O10 2.566102 1_555
Bi2 O9 2.566102 1_555
O0 Pr0 2.283030 1_555
O1 Pr0 2.283030 1_555
O2 Ru0 2.006830 1_665
O2 Ru3 2.030263 1_665
O3 Ru0 2.006830 1_566
O3 Ru2 2.030263 1_566
O4 Ru0 2.006830 1_656
O4 Ru1 2.030263 1_656
O5 Ru2 2.008237 1_556
O5 Ru1 2.008237 1_556
O5 Pr0 2.585451 1_555
O6 Ru1 2.008237 1_655
O6 Ru3 2.008237 1_655
O6 Pr0 2.585451 1_555
O7 Ru2 2.008237 1_565
O7 Ru3 2.008237 1_565
O7 Pr0 2.585451 1_555
O8 Ru0 2.006830 1_556
O8 Ru3 2.030263 1_555
O9 Ru0 2.006830 1_655
O9 Ru2 2.030263 1_555
O10 Ru0 2.006830 1_565
O10 Ru1 2.030263 1_555
O11 Ru2 2.008237 1_565
O11 Ru1 2.008237 1_655
O11 Pr0 2.585451 1_555
O12 Ru1 2.008237 1_556
O12 Ru3 2.008237 1_565
O12 Pr0 2.585451 1_555
O13 Ru2 2.008237 1_556
O13 Ru3 2.008237 1_655
O13 Pr0 2.585451 1_555
