# generated using pymatgen
data_Cr4FeCoS8
_symmetry_space_group_name_H-M   'P 1'
_cell_length_a   6.94768616
_cell_length_b   6.94768616
_cell_length_c   6.94768616
_cell_angle_alpha   60.00000000
_cell_angle_beta   60.00000000
_cell_angle_gamma   60.00000000
_symmetry_Int_Tables_number   1
_chemical_formula_structural   Cr4FeCoS8
_chemical_formula_sum   'Cr4 Fe1 Co1 S8'
_cell_volume   237.14041735
_cell_formula_units_Z   1
loop_
 _symmetry_equiv_pos_site_id
 _symmetry_equiv_pos_as_xyz
  1  'x, y, z'
loop_
 _atom_site_type_symbol
 _atom_site_label
 _atom_site_symmetry_multiplicity
 _atom_site_fract_x
 _atom_site_fract_y
 _atom_site_fract_z
 _atom_site_occupancy
  Cr  Cr0  1  0.62884900  0.12371700  0.12371700  1
  Cr  Cr1  1  0.12371700  0.62884900  0.12371700  1
  Cr  Cr2  1  0.12371700  0.12371700  0.62884900  1
  Cr  Cr3  1  0.12371700  0.12371700  0.12371700  1
  Fe  Fe0  1  0.50000000  0.50000000  0.50000000  1
  Co  Co0  1  0.75000000  0.75000000  0.75000000  1
  S  S0  1  0.36263900  0.87912000  0.87912000  1
  S  S1  1  0.87912000  0.36263900  0.87912000  1
  S  S2  1  0.87912000  0.87912000  0.36263900  1
  S  S3  1  0.87912000  0.87912000  0.87912000  1
  S  S4  1  0.89564400  0.36811900  0.36811900  1
  S  S5  1  0.36811900  0.89564400  0.36811900  1
  S  S6  1  0.36811900  0.36811900  0.89564400  1
  S  S7  1  0.36811900  0.36811900  0.36811900  1
loop_
_geom_bond_atom_site_label_1
_geom_bond_atom_site_label_2
_geom_bond_distance
_geom_bond_site_symmetry_2
Cr0 S1 2.403609 1_554
Cr0 S2 2.403609 1_545
Cr0 S3 2.403614 1_544
Cr0 S6 2.404048 1_554
Cr0 S5 2.404048 1_545
Cr0 S7 2.404053 1_555
Cr1 S0 2.403609 1_554
Cr1 S2 2.403609 1_455
Cr1 S3 2.403614 1_454
Cr1 S6 2.404048 1_554
Cr1 S4 2.404048 1_455
Cr1 S7 2.404053 1_555
Cr2 S1 2.403609 1_455
Cr2 S0 2.403609 1_545
Cr2 S3 2.403614 1_445
Cr2 S5 2.404048 1_545
Cr2 S4 2.404048 1_455
Cr2 S7 2.404053 1_555
Cr3 S1 2.403614 1_454
Cr3 S0 2.403614 1_544
Cr3 S2 2.403614 1_445
Cr3 S4 2.404053 1_455
Cr3 S6 2.404053 1_554
Cr3 S5 2.404053 1_545
Fe0 S7 2.244389 1_555
Fe0 S4 2.244394 1_555
Fe0 S6 2.244394 1_555
Fe0 S5 2.244394 1_555
Co0 S3 2.197401 1_555
Co0 S1 2.197407 1_555
Co0 S0 2.197407 1_555
Co0 S2 2.197407 1_555
