# generated using pymatgen
data_U2Mn12P7
_symmetry_space_group_name_H-M   'P 1'
_cell_length_a   9.71035958
_cell_length_b   9.69070612
_cell_length_c   3.60539034
_cell_angle_alpha   90.00000000
_cell_angle_beta   90.00000000
_cell_angle_gamma   120.21611549
_symmetry_Int_Tables_number   1
_chemical_formula_structural   U2Mn12P7
_chemical_formula_sum   'U2 Mn12 P7'
_cell_volume   293.17285753
_cell_formula_units_Z   1
loop_
 _symmetry_equiv_pos_site_id
 _symmetry_equiv_pos_as_xyz
  1  'x, y, z'
loop_
 _atom_site_type_symbol
 _atom_site_label
 _atom_site_symmetry_multiplicity
 _atom_site_fract_x
 _atom_site_fract_y
 _atom_site_fract_z
 _atom_site_occupancy
  U  U0  1  0.66547242  0.33075877  0.50000000  1
  U  U1  1  0.33338741  0.66694518  0.00000000  1
  Mn  Mn0  1  0.11432012  0.84122441  -0.00000000  1
  Mn  Mn1  1  0.39150165  0.43943269  0.50000000  1
  Mn  Mn2  1  0.72794378  0.88619865  0.00000000  1
  Mn  Mn3  1  0.56204862  0.95157407  0.50000000  1
  Mn  Mn4  1  0.23000516  0.10087781  0.50000000  1
  Mn  Mn5  1  0.87073516  0.77017475  0.50000000  1
  Mn  Mn6  1  0.89737368  0.13009199  0.50000000  1
  Mn  Mn7  1  0.94532323  0.37660404  0.00000000  1
  Mn  Mn8  1  0.62181903  0.56877978  0.00000000  1
  Mn  Mn9  1  0.43326485  0.05450602  -0.00000000  1
  Mn  Mn10  1  0.04484776  0.60818575  0.50000000  1
  Mn  Mn11  1  0.15912435  0.27347614  0.00000000  1
  P  P0  1  0.00058560  0.00011315  0.00000000  1
  P  P1  1  0.58787502  0.71615352  0.50000000  1
  P  P2  1  0.71179304  0.12045653  -0.00000000  1
  P  P3  1  0.87647102  0.58888333  0.00000000  1
  P  P4  1  0.41089814  0.28870724  0.00000000  1
  P  P5  1  0.28549640  0.87212128  0.50000000  1
  P  P6  1  0.12971258  0.41473590  0.50000000  1
loop_
_geom_bond_atom_site_label_1
_geom_bond_atom_site_label_2
_geom_bond_distance
_geom_bond_site_symmetry_2
Mn0 P0 2.302632 1_565
Mn0 P5 2.366703 1_555
Mn0 P5 2.366703 1_554
Mn0 P3 2.372633 1_455
Mn1 P1 2.383349 1_555
Mn1 P4 2.386534 1_556
Mn1 P4 2.386534 1_555
Mn1 P6 2.430436 1_555
Mn2 P0 2.299128 1_665
Mn2 P2 2.352957 1_565
Mn2 P1 2.357787 1_555
Mn2 P1 2.357787 1_554
Mn3 P2 2.376387 1_566
Mn3 P2 2.376387 1_565
Mn3 P5 2.392316 1_555
Mn3 P1 2.417335 1_555
Mn4 P5 2.531187 1_545
Mn4 P4 2.535773 1_556
Mn4 P4 2.535773 1_555
Mn4 P0 2.641312 1_556
Mn4 P0 2.641312 1_555
Mn5 P1 2.524083 1_555
Mn5 P3 2.537281 1_556
Mn5 P3 2.537281 1_555
Mn5 P0 2.641361 1_665
Mn5 P0 2.641361 1_666
Mn6 P2 2.517234 1_556
Mn6 P2 2.517234 1_555
Mn6 P6 2.536712 1_655
Mn6 P0 2.666712 1_655
Mn6 P0 2.666712 1_656
Mn7 P2 2.374493 1_555
Mn7 P6 2.434369 1_655
Mn7 P6 2.434369 1_654
Mn7 P3 2.462345 1_555
Mn8 P3 2.380678 1_555
Mn8 P1 2.423177 1_555
Mn8 P1 2.423177 1_554
Mn8 P4 2.442551 1_555
Mn9 P4 2.386270 1_555
Mn9 P5 2.424834 1_544
Mn9 P5 2.424834 1_545
Mn9 P2 2.446130 1_555
Mn10 P3 2.376992 1_455
Mn10 P3 2.376992 1_456
Mn10 P6 2.397581 1_555
Mn10 P5 2.446764 1_555
Mn11 P0 2.298434 1_555
Mn11 P6 2.366156 1_555
Mn11 P6 2.366156 1_554
Mn11 P4 2.373961 1_555
P1 U1 2.897874 1_556
P1 U1 2.897874 1_555
P2 U0 2.920277 1_555
P2 U0 2.920277 1_554
P3 U0 2.923375 1_554
P3 U0 2.923375 1_555
P4 U0 2.917646 1_555
P4 U0 2.917646 1_554
P5 U1 2.889634 1_556
P5 U1 2.889634 1_555
P6 U1 2.875662 1_556
P6 U1 2.875662 1_555
