# generated using pymatgen
data_Mg5Si9
_symmetry_space_group_name_H-M   'P 1'
_cell_length_a   6.85934400
_cell_length_b   7.74796768
_cell_length_c   10.89766641
_cell_angle_alpha   105.83224670
_cell_angle_beta   92.70296130
_cell_angle_gamma   114.74353374
_symmetry_Int_Tables_number   1
_chemical_formula_structural   Mg5Si9
_chemical_formula_sum   'Mg10 Si18'
_cell_volume   497.33702117
_cell_formula_units_Z   2
loop_
 _symmetry_equiv_pos_site_id
 _symmetry_equiv_pos_as_xyz
  1  'x, y, z'
loop_
 _atom_site_type_symbol
 _atom_site_label
 _atom_site_symmetry_multiplicity
 _atom_site_fract_x
 _atom_site_fract_y
 _atom_site_fract_z
 _atom_site_occupancy
  Mg  Mg0  1  0.12754500  0.52451600  0.28476300  1
  Mg  Mg1  1  0.93308100  0.17942200  0.59889600  1
  Mg  Mg2  1  0.45397700  0.97097400  0.44477400  1
  Mg  Mg3  1  0.42167500  0.35076800  0.63662000  1
  Mg  Mg4  1  0.37811700  0.31728900  0.35856800  1
  Mg  Mg5  1  0.69141000  0.72408600  0.56862500  1
  Mg  Mg6  1  0.87147600  0.22660500  0.96857000  1
  Mg  Mg7  1  0.85301900  0.62240400  0.12371300  1
  Mg  Mg8  1  0.36716200  0.02861300  0.94647600  1
  Mg  Mg9  1  0.63217600  0.84968500  0.06965500  1
  Si  Si0  1  0.56393100  0.80754000  0.80474000  1
  Si  Si1  1  0.40170500  0.43485500  0.11546000  1
  Si  Si2  1  0.16293500  0.89260800  0.64425800  1
  Si  Si3  1  0.88286500  0.08321600  0.31532800  1
  Si  Si4  1  0.56641600  0.06165700  0.71455400  1
  Si  Si5  1  0.32736600  0.95281600  0.18916700  1
  Si  Si6  1  0.20595800  0.55232200  0.80769100  1
  Si  Si7  1  0.68210000  0.24011000  0.20182500  1
  Si  Si8  1  0.18950300  0.21842900  0.81898700  1
  Si  Si9  1  0.00991900  0.86814200  0.41530700  1
  Si  Si10  1  0.07977400  0.07655800  0.12596100  1
  Si  Si11  1  0.91750100  0.85179500  0.89805500  1
  Si  Si12  1  0.86935600  0.55215700  0.72660900  1
  Si  Si13  1  0.61527200  0.72025900  0.31328700  1
  Si  Si14  1  0.21329800  0.61015500  0.04156200  1
  Si  Si15  1  0.60269400  0.38106700  0.87277300  1
  Si  Si16  1  0.79314400  0.35476200  0.45207900  1
  Si  Si17  1  0.18672400  0.54756900  0.54198700  1
loop_
_geom_bond_atom_site_label_1
_geom_bond_atom_site_label_2
_geom_bond_distance
_geom_bond_site_symmetry_2
Mg0 Si17 2.759180 1_555
Mg0 Si7 2.832851 1_455
Mg0 Si1 2.853882 1_555
Mg0 Si14 2.930928 1_555
Mg0 Si13 2.997724 1_555
Mg0 Si16 3.081139 1_455
Mg0 Si9 3.098878 1_555
Mg0 Si3 3.238655 1_455
Mg1 Si16 2.731230 1_555
Mg1 Si8 2.774764 1_655
Mg1 Si4 2.784283 1_555
Mg1 Si17 2.908681 1_655
Mg1 Si6 2.917631 1_655
Mg1 Si9 2.937340 1_645
Mg1 Si3 2.941359 1_555
Mg1 Mg3 3.001878 1_655
Mg1 Si12 3.064191 1_555
Mg1 Mg5 3.117823 1_545
Mg2 Si13 2.735061 1_555
Mg2 Si9 2.784298 1_555
Mg2 Si4 2.817329 1_565
Mg2 Si5 2.826460 1_555
Mg2 Si16 2.884997 1_565
Mg2 Si2 3.032298 1_555
Mg2 Mg3 3.211189 1_565
Mg2 Si3 3.212488 1_565
Mg3 Si15 2.710130 1_555
Mg3 Si8 2.753304 1_555
Mg3 Si12 2.774201 1_555
Mg3 Si6 2.951208 1_555
Mg3 Si17 2.957068 1_555
Mg3 Mg4 2.959566 1_555
Mg3 Mg5 3.026129 1_555
Mg3 Si4 3.089491 1_555
Mg3 Si0 3.199424 1_555
Mg3 Si2 3.264835 1_545
Mg3 Si16 3.314977 1_555
Mg4 Si5 2.788485 1_545
Mg4 Si10 2.797870 1_555
Mg4 Si16 2.846075 1_555
Mg4 Si7 2.906096 1_555
Mg4 Si1 3.018043 1_555
Mg4 Si17 3.027314 1_555
Mg4 Si3 3.045778 1_455
Mg4 Si13 3.050009 1_555
Mg4 Mg5 3.117951 1_555
Mg5 Si0 2.753407 1_555
Mg5 Si13 2.796674 1_555
Mg5 Si9 2.851506 1_655
Mg5 Si2 2.910562 1_655
Mg5 Si12 2.939853 1_555
Mg5 Si17 3.108718 1_555
Mg5 Si4 3.137060 1_565
Mg5 Si16 3.171818 1_555
Mg6 Si14 2.768195 1_656
Mg6 Si8 2.795485 1_655
Mg6 Si15 2.875491 1_555
Mg6 Si7 2.905142 1_556
Mg6 Si10 2.929547 1_656
Mg6 Si11 2.948930 1_545
Mg6 Si0 2.987980 1_545
Mg6 Si4 2.993227 1_555
Mg7 Si14 2.697469 1_655
Mg7 Si1 2.799970 1_555
Mg7 Si13 2.828504 1_555
Mg7 Si15 2.828849 1_554
Mg7 Si7 3.071721 1_555
Mg7 Si5 3.075883 1_655
Mg7 Si9 3.089004 1_655
Mg7 Si10 3.188946 1_665
Mg8 Si11 2.753810 1_445
Mg8 Si0 2.798161 1_545
Mg8 Si8 2.834382 1_555
Mg8 Si5 2.862792 1_546
Mg8 Si15 2.887643 1_555
Mg8 Si10 2.903448 1_556
Mg8 Si4 2.950814 1_555
Mg8 Si7 3.012811 1_556
Mg8 Si1 3.086465 1_556
Mg8 Si6 3.241811 1_545
Mg9 Si14 2.633754 1_555
Mg9 Si10 2.758385 1_665
Mg9 Si11 2.768178 1_554
Mg9 Si3 2.777866 1_565
Mg9 Si5 2.791718 1_555
Mg9 Si0 2.808998 1_554
Mg9 Si7 2.837501 1_565
Mg9 Si13 3.074508 1_555
Mg9 Si1 3.126517 1_555
Si0 Si4 2.423239 1_565
Si0 Si11 2.431987 1_555
Si0 Si6 2.432708 1_555
Si1 Si13 2.464294 1_555
Si1 Si14 2.476186 1_555
Si1 Si10 2.767934 1_555
Si2 Si4 2.485982 1_565
Si2 Si9 2.586724 1_555
Si2 Si8 2.644069 1_565
Si3 Si9 2.615394 1_645
Si3 Si7 2.639178 1_555
Si5 Si7 2.482196 1_565
Si6 Si8 2.578966 1_555
Si10 Si5 2.427133 1_545
Si10 Si11 2.489323 1_444
Si10 Si3 2.519678 1_455
Si11 Si12 2.433687 1_555
Si12 Si6 2.432310 1_655
Si12 Si15 2.652780 1_555
Si13 Si9 2.510269 1_655
Si13 Si3 2.630392 1_565
Si14 Si6 2.458618 1_554
Si14 Si5 2.461790 1_555
Si15 Si4 2.505014 1_555
Si15 Si8 2.532755 1_555
Si16 Si17 2.460855 1_655
Si16 Si3 2.546715 1_555
Si16 Si7 2.592799 1_555
Si17 Si2 2.678090 1_555
Si17 Si6 2.881790 1_555
