# generated using pymatgen
data_Cs3Mo2BrO7
_symmetry_space_group_name_H-M   'P 1'
_cell_length_a   6.65636509
_cell_length_b   6.65636509
_cell_length_c   16.94471700
_cell_angle_alpha   90.00000000
_cell_angle_beta   90.00000000
_cell_angle_gamma   119.99999094
_symmetry_Int_Tables_number   1
_chemical_formula_structural   Cs3Mo2BrO7
_chemical_formula_sum   'Cs6 Mo4 Br2 O14'
_cell_volume   650.18846364
_cell_formula_units_Z   2
loop_
 _symmetry_equiv_pos_site_id
 _symmetry_equiv_pos_as_xyz
  1  'x, y, z'
loop_
 _atom_site_type_symbol
 _atom_site_label
 _atom_site_symmetry_multiplicity
 _atom_site_fract_x
 _atom_site_fract_y
 _atom_site_fract_z
 _atom_site_occupancy
  Cs  Cs0  1  0.33333300  0.66666700  0.95437500  1
  Cs  Cs1  1  0.66666700  0.33333300  0.45437500  1
  Cs  Cs2  1  0.66666700  0.33333300  0.04562500  1
  Cs  Cs3  1  0.33333300  0.66666700  0.54562500  1
  Cs  Cs4  1  0.66666700  0.33333300  0.75000000  1
  Cs  Cs5  1  0.33333300  0.66666700  0.25000000  1
  Mo  Mo0  1  0.00000000  0.00000000  0.86319600  1
  Mo  Mo1  1  0.00000000  0.00000000  0.36319600  1
  Mo  Mo2  1  0.00000000  0.00000000  0.13680400  1
  Mo  Mo3  1  0.00000000  0.00000000  0.63680400  1
  Br  Br0  1  0.33333300  0.66666700  0.75000000  1
  Br  Br1  1  0.66666700  0.33333300  0.25000000  1
  O  O0  1  0.00000000  0.00000000  0.75000000  1
  O  O1  1  0.00000000  0.00000000  0.25000000  1
  O  O2  1  0.85480400  0.70960700  0.89972100  1
  O  O3  1  0.14519600  0.29039300  0.39972100  1
  O  O4  1  0.29039300  0.14519600  0.89972100  1
  O  O5  1  0.85480400  0.14519600  0.89972100  1
  O  O6  1  0.14519600  0.85480400  0.39972100  1
  O  O7  1  0.70960700  0.85480400  0.39972100  1
  O  O8  1  0.14519600  0.29039300  0.10027900  1
  O  O9  1  0.14519600  0.85480400  0.10027900  1
  O  O10  1  0.70960700  0.85480400  0.10027900  1
  O  O11  1  0.29039300  0.14519600  0.60027900  1
  O  O12  1  0.85480400  0.14519600  0.60027900  1
  O  O13  1  0.85480400  0.70960700  0.60027900  1
loop_
_geom_bond_atom_site_label_1
_geom_bond_atom_site_label_2
_geom_bond_distance
_geom_bond_site_symmetry_2
Cs0 O9 3.288937 1_556
Cs0 O10 3.288937 1_556
Cs0 O8 3.288937 1_556
Cs0 O4 3.463478 1_565
Cs0 O2 3.463478 1_455
Cs0 O5 3.463486 1_565
Cs0 O5 3.463486 1_455
Cs0 O4 3.463491 1_555
Cs0 O2 3.463491 1_555
Cs1 O12 3.288937 1_555
Cs1 O11 3.288937 1_555
Cs1 O13 3.288937 1_555
Cs1 O3 3.463478 1_655
Cs1 O7 3.463478 1_545
Cs1 O6 3.463486 1_655
Cs1 O6 3.463486 1_545
Cs1 O7 3.463491 1_555
Cs1 O3 3.463491 1_555
Cs2 O5 3.288937 1_554
Cs2 O4 3.288937 1_554
Cs2 O2 3.288937 1_554
Cs2 O8 3.463478 1_655
Cs2 O10 3.463478 1_545
Cs2 O9 3.463486 1_655
Cs2 O9 3.463486 1_545
Cs2 O8 3.463491 1_555
Cs2 O10 3.463491 1_555
Cs3 O6 3.288937 1_555
Cs3 O7 3.288937 1_555
Cs3 O3 3.288937 1_555
Cs3 O11 3.463478 1_565
Cs3 O13 3.463478 1_455
Cs3 O12 3.463486 1_565
Cs3 O12 3.463486 1_455
Cs3 O11 3.463491 1_555
Cs3 O13 3.463491 1_555
Cs4 O5 3.337828 1_555
Cs4 O12 3.337828 1_555
Cs4 O11 3.337828 1_555
Cs4 O4 3.337828 1_555
Cs4 O2 3.337828 1_555
Cs4 O13 3.337828 1_555
Cs5 O6 3.337828 1_555
Cs5 O9 3.337828 1_555
Cs5 O10 3.337828 1_555
Cs5 O7 3.337828 1_555
Cs5 O8 3.337828 1_555
Cs5 O3 3.337828 1_555
Mo0 O5 1.784736 1_455
Mo0 O2 1.784741 1_445
Mo0 O4 1.784741 1_555
Mo0 O0 1.918074 1_555
Mo1 O6 1.784736 1_545
Mo1 O7 1.784741 1_445
Mo1 O3 1.784741 1_555
Mo1 O1 1.918074 1_555
Mo2 O9 1.784736 1_545
Mo2 O10 1.784741 1_445
Mo2 O8 1.784741 1_555
Mo2 O1 1.918074 1_555
Mo3 O12 1.784736 1_455
Mo3 O11 1.784741 1_555
Mo3 O13 1.784741 1_445
Mo3 O0 1.918074 1_555
Br0 Cs3 3.463077 1_555
Br0 Cs0 3.463077 1_555
Br0 Cs4 3.843051 1_455
Br0 Cs4 3.843051 1_565
Br0 Cs4 3.843062 1_555
Br1 Cs1 3.463077 1_555
Br1 Cs2 3.463077 1_555
Br1 Cs5 3.843051 1_545
Br1 Cs5 3.843051 1_655
Br1 Cs5 3.843062 1_555
