# generated using pymatgen
data_Na4Ti4Si3O22
_symmetry_space_group_name_H-M   'P 1'
_cell_length_a   7.80314043
_cell_length_b   7.80314043
_cell_length_c   7.80314051
_cell_angle_alpha   87.03651756
_cell_angle_beta   87.03651756
_cell_angle_gamma   87.03651929
_symmetry_Int_Tables_number   1
_chemical_formula_structural   Na4Ti4Si3O22
_chemical_formula_sum   'Na4 Ti4 Si3 O22'
_cell_volume   473.28261063
_cell_formula_units_Z   1
loop_
 _symmetry_equiv_pos_site_id
 _symmetry_equiv_pos_as_xyz
  1  'x, y, z'
loop_
 _atom_site_type_symbol
 _atom_site_label
 _atom_site_symmetry_multiplicity
 _atom_site_fract_x
 _atom_site_fract_y
 _atom_site_fract_z
 _atom_site_occupancy
  Na  Na0  1  0.72474700  0.72474700  0.72474700  1
  Na  Na1  1  0.38099500  0.38099500  0.96084500  1
  Na  Na2  1  0.96084500  0.38099500  0.38099500  1
  Na  Na3  1  0.38099500  0.96084500  0.38099500  1
  Ti  Ti0  1  0.11270500  0.11270500  0.11270500  1
  Ti  Ti1  1  0.84894100  0.14447700  0.84894100  1
  Ti  Ti2  1  0.14447700  0.84894100  0.84894100  1
  Ti  Ti3  1  0.84894100  0.84894100  0.14447700  1
  Si  Si0  1  0.98626300  0.98626300  0.49300900  1
  Si  Si1  1  0.49300900  0.98626300  0.98626300  1
  Si  Si2  1  0.98626300  0.49300900  0.98626300  1
  O  O0  1  0.88013100  0.88013100  0.88013100  1
  O  O1  1  0.10767800  0.86262300  0.10767800  1
  O  O2  1  0.86262300  0.10767800  0.10767800  1
  O  O3  1  0.10767800  0.10767800  0.86262300  1
  O  O4  1  0.10607200  0.36163200  0.10607200  1
  O  O5  1  0.36163200  0.10607200  0.10607200  1
  O  O6  1  0.10607200  0.10607200  0.36163200  1
  O  O7  1  0.86115900  0.39509200  0.86115900  1
  O  O8  1  0.39509200  0.86115900  0.86115900  1
  O  O9  1  0.86115900  0.86115900  0.39509200  1
  O  O10  1  0.12616600  0.60472700  0.86780900  1
  O  O11  1  0.86780900  0.60472700  0.12616600  1
  O  O12  1  0.60472700  0.86780900  0.12616600  1
  O  O13  1  0.60472700  0.12616600  0.86780900  1
  O  O14  1  0.86780900  0.12616600  0.60472700  1
  O  O15  1  0.12616600  0.86780900  0.60472700  1
  O  O16  1  0.33704900  0.33704900  0.55116300  1
  O  O17  1  0.55116300  0.33704900  0.33704900  1
  O  O18  1  0.33704900  0.55116300  0.33704900  1
  O  O19  1  0.52204000  0.30737700  0.52204000  1
  O  O20  1  0.30737700  0.52204000  0.52204000  1
  O  O21  1  0.52204000  0.52204000  0.30737700  1
loop_
_geom_bond_atom_site_label_1
_geom_bond_atom_site_label_2
_geom_bond_distance
_geom_bond_site_symmetry_2
Na0 O0 2.205985 1_555
Na0 O9 2.904126 1_555
Na0 O8 2.904126 1_555
Na0 O7 2.904126 1_555
Na1 O5 2.381937 1_556
Na1 O4 2.381937 1_556
Na1 O13 2.681075 1_555
Na1 O10 2.681075 1_555
Na2 O4 2.381937 1_655
Na2 O6 2.381937 1_655
Na2 O14 2.681075 1_555
Na2 O11 2.681075 1_555
Na3 O5 2.381937 1_565
Na3 O6 2.381937 1_565
Na3 O15 2.681075 1_555
Na3 O12 2.681075 1_555
O0 Ti2 2.067758 1_655
O0 Ti1 2.067758 1_565
O0 Ti3 2.067758 1_556
O1 Ti0 1.956304 1_565
O1 Ti3 2.032051 1_455
O1 Ti2 2.032051 1_554
O2 Ti0 1.956304 1_655
O2 Ti3 2.032051 1_545
O2 Ti1 2.032051 1_554
O3 Ti0 1.956304 1_556
O3 Ti1 2.032051 1_455
O3 Ti2 2.032051 1_545
O4 Si2 1.640470 1_454
O4 Ti0 1.938507 1_555
O5 Si1 1.640470 1_544
O5 Ti0 1.938507 1_555
O6 Si0 1.640470 1_445
O6 Ti0 1.938507 1_555
O7 Si2 1.656055 1_555
O7 Ti1 1.970275 1_555
O8 Si1 1.656055 1_555
O8 Ti2 1.970275 1_555
O9 Si0 1.656055 1_555
O9 Ti3 1.970275 1_555
O10 Si2 1.648280 1_455
O10 Ti2 1.915857 1_555
O11 Si2 1.648280 1_554
O11 Ti3 1.915857 1_555
O12 Si1 1.648280 1_554
O12 Ti3 1.915857 1_555
O13 Si1 1.648280 1_545
O13 Ti1 1.915857 1_555
O14 Si0 1.648280 1_545
O14 Ti1 1.915857 1_555
O15 Si0 1.648280 1_455
O15 Ti2 1.915857 1_555
O16 O20 1.458060 1_555
O16 O19 1.458060 1_555
O17 O21 1.458060 1_555
O17 O19 1.458060 1_555
O18 O21 1.458060 1_555
O18 O20 1.458060 1_555
