# generated using pymatgen
data_NdGaPd
_symmetry_space_group_name_H-M   'P 1'
_cell_length_a   4.57307330
_cell_length_b   7.21935273
_cell_length_c   7.60464849
_cell_angle_alpha   89.99299815
_cell_angle_beta   90.00000000
_cell_angle_gamma   90.00000000
_symmetry_Int_Tables_number   1
_chemical_formula_structural   NdGaPd
_chemical_formula_sum   'Nd4 Ga4 Pd4'
_cell_volume   251.06464858
_cell_formula_units_Z   4
loop_
 _symmetry_equiv_pos_site_id
 _symmetry_equiv_pos_as_xyz
  1  'x, y, z'
loop_
 _atom_site_type_symbol
 _atom_site_label
 _atom_site_symmetry_multiplicity
 _atom_site_fract_x
 _atom_site_fract_y
 _atom_site_fract_z
 _atom_site_occupancy
  Nd  Nd0  1  0.25000000  0.02174293  0.69733376  1
  Nd  Nd1  1  0.25000000  0.52173240  0.80266660  1
  Nd  Nd2  1  0.75000000  0.97825585  0.30262087  1
  Nd  Nd3  1  0.75000000  0.47826567  0.19735368  1
  Ga  Ga0  1  0.25000000  0.17537145  0.07997638  1
  Ga  Ga1  1  0.25000000  0.67539404  0.42003479  1
  Ga  Ga2  1  0.75000000  0.82462156  0.91995518  1
  Ga  Ga3  1  0.75000000  0.32461328  0.57998451  1
  Pd  Pd0  1  0.25000000  0.29320283  0.40780788  1
  Pd  Pd1  1  0.25000000  0.79322465  0.09223902  1
  Pd  Pd2  1  0.75000000  0.70678016  0.59225693  1
  Pd  Pd3  1  0.75000000  0.20679616  0.90776839  1
loop_
_geom_bond_atom_site_label_1
_geom_bond_atom_site_label_2
_geom_bond_distance
_geom_bond_site_symmetry_2
Nd0 Pd0 2.947422 1_555
Nd0 Pd3 3.094265 1_455
Nd0 Pd3 3.094265 1_555
Nd0 Pd2 3.322274 1_445
Nd0 Pd2 3.322274 1_545
Nd0 Pd1 3.426249 1_546
Nd1 Pd1 2.948199 1_556
Nd1 Pd2 3.093981 1_555
Nd1 Pd2 3.093981 1_455
Nd1 Pd3 3.322054 1_455
Nd1 Pd3 3.322054 1_555
Nd1 Pd0 3.426331 1_555
Nd2 Pd2 2.948123 1_555
Nd2 Pd1 3.093988 1_655
Nd2 Pd1 3.093988 1_555
Nd2 Pd0 3.322397 1_565
Nd2 Pd0 3.322397 1_665
Nd2 Pd3 3.425974 1_564
Nd3 Pd3 2.948163 1_554
Nd3 Pd0 3.094203 1_655
Nd3 Pd0 3.094203 1_555
Nd3 Pd1 3.322190 1_655
Nd3 Pd1 3.322190 1_555
Nd3 Pd2 3.426576 1_555
Ga0 Pd0 2.634277 1_555
Ga0 Pd3 2.644740 1_454
Ga0 Pd3 2.644740 1_554
Ga0 Pd1 2.760417 1_545
Ga0 Nd0 3.114192 1_554
Ga0 Nd2 3.181104 1_445
Ga0 Nd2 3.181104 1_545
Ga0 Nd1 3.270847 1_554
Ga0 Nd3 3.287422 1_455
Ga0 Nd3 3.287422 1_555
Ga1 Pd1 2.633822 1_555
Ga1 Pd2 2.644797 1_555
Ga1 Pd2 2.644797 1_455
Ga1 Pd0 2.760751 1_555
Ga1 Nd1 3.113947 1_555
Ga1 Nd3 3.181479 1_455
Ga1 Nd3 3.181479 1_555
Ga1 Nd0 3.271122 1_565
Ga1 Nd2 3.287197 1_555
Ga1 Nd2 3.287197 1_455
Ga2 Pd2 2.633342 1_555
Ga2 Pd1 2.645008 1_556
Ga2 Pd1 2.645008 1_656
Ga2 Pd3 2.760598 1_565
Ga2 Nd2 3.114370 1_556
Ga2 Nd0 3.181029 1_565
Ga2 Nd0 3.181029 1_665
Ga2 Nd3 3.271254 1_556
Ga2 Nd1 3.287214 1_655
Ga2 Nd1 3.287214 1_555
Ga3 Pd3 2.633704 1_555
Ga3 Pd0 2.644640 1_555
Ga3 Pd0 2.644640 1_655
Ga3 Pd2 2.760587 1_555
Ga3 Nd3 3.113916 1_555
Ga3 Nd1 3.181453 1_555
Ga3 Nd1 3.181453 1_655
Ga3 Nd2 3.271486 1_545
Ga3 Nd0 3.287104 1_555
Ga3 Nd0 3.287104 1_655
