# generated using pymatgen
data_ZrTi2
_symmetry_space_group_name_H-M   'P 1'
_cell_length_a   9.44882744
_cell_length_b   9.44882968
_cell_length_c   6.00689064
_cell_angle_alpha   90.00000000
_cell_angle_beta   90.00000000
_cell_angle_gamma   119.99898881
_symmetry_Int_Tables_number   1
_chemical_formula_structural   ZrTi2
_chemical_formula_sum   'Zr8 Ti16'
_cell_volume   464.45187525
_cell_formula_units_Z   8
loop_
 _symmetry_equiv_pos_site_id
 _symmetry_equiv_pos_as_xyz
  1  'x, y, z'
loop_
 _atom_site_type_symbol
 _atom_site_label
 _atom_site_symmetry_multiplicity
 _atom_site_fract_x
 _atom_site_fract_y
 _atom_site_fract_z
 _atom_site_occupancy
  Zr  Zr0_0  1  0.00001370  0.00001371  0.00000000  1
  Zr  Zr0_1  1  0.00001370  0.00001371  0.50000000  1
  Zr  Zr0_2  1  0.00001370  0.50001370  0.00000000  1
  Zr  Zr0_3  1  0.00001370  0.50001370  0.50000000  1
  Zr  Zr0_4  1  0.50001371  0.00001370  0.00000000  1
  Zr  Zr0_5  1  0.50001371  0.00001370  0.50000000  1
  Zr  Zr0_6  1  0.50001371  0.50001370  0.00000000  1
  Zr  Zr0_7  1  0.50001371  0.50001370  0.50000000  1
  Ti  Ti0_0  1  0.33335138  0.16668493  0.25000000  1
  Ti  Ti0_1  1  0.33335138  0.16668493  0.75000000  1
  Ti  Ti0_2  1  0.33335138  0.66668493  0.25000000  1
  Ti  Ti0_3  1  0.33335138  0.66668493  0.75000000  1
  Ti  Ti0_4  1  0.83335138  0.16668493  0.25000000  1
  Ti  Ti0_5  1  0.83335138  0.16668493  0.75000000  1
  Ti  Ti0_6  1  0.83335138  0.66668493  0.25000000  1
  Ti  Ti0_7  1  0.83335138  0.66668493  0.75000000  1
  Ti  Ti1_0  1  0.16668493  0.33335138  0.25000000  1
  Ti  Ti1_1  1  0.16668493  0.33335138  0.75000000  1
  Ti  Ti1_2  1  0.16668492  0.83335137  0.25000000  1
  Ti  Ti1_3  1  0.16668492  0.83335137  0.75000000  1
  Ti  Ti1_4  1  0.66668493  0.33335138  0.25000000  1
  Ti  Ti1_5  1  0.66668493  0.33335138  0.75000000  1
  Ti  Ti1_6  1  0.66668492  0.83335138  0.25000000  1
  Ti  Ti1_7  1  0.66668492  0.83335138  0.75000000  1
loop_
_geom_bond_atom_site_label_1
_geom_bond_atom_site_label_2
_geom_bond_distance
_geom_bond_site_symmetry_2
Zr0_0 Zr0_1 3.003445 1_555
Zr0_0 Zr0_1 3.003445 1_554
Zr0_2 Zr0_3 3.003445 1_555
Zr0_2 Zr0_3 3.003445 1_554
Zr0_4 Zr0_5 3.003445 1_555
Zr0_4 Zr0_5 3.003445 1_554
Zr0_6 Zr0_7 3.003445 1_555
Zr0_6 Zr0_7 3.003445 1_554
Ti0_0 Ti1_0 2.727624 1_555
Ti0_0 Ti1_4 2.727671 1_555
Ti0_0 Ti1_2 2.727672 1_545
Ti0_0 Ti0_1 3.003445 1_555
Ti0_0 Ti0_1 3.003445 1_554
Ti0_0 Zr0_5 3.113701 1_555
Ti0_0 Zr0_4 3.113701 1_555
Ti0_0 Zr0_6 3.113704 1_555
Ti0_0 Zr0_7 3.113704 1_555
Ti0_0 Zr0_0 3.113767 1_555
Ti0_0 Zr0_1 3.113767 1_555
Ti0_1 Ti1_1 2.727624 1_555
Ti0_1 Ti1_5 2.727671 1_555
Ti0_1 Ti1_3 2.727672 1_545
Ti0_1 Zr0_5 3.113701 1_555
Ti0_1 Zr0_4 3.113701 1_556
Ti0_1 Zr0_7 3.113704 1_555
Ti0_1 Zr0_6 3.113704 1_556
Ti0_1 Zr0_1 3.113767 1_555
Ti0_1 Zr0_0 3.113767 1_556
Ti0_2 Ti1_2 2.727624 1_555
Ti0_2 Ti1_6 2.727671 1_555
Ti0_2 Ti1_0 2.727672 1_555
Ti0_2 Ti0_3 3.003445 1_555
Ti0_2 Ti0_3 3.003445 1_554
Ti0_2 Zr0_6 3.113701 1_555
Ti0_2 Zr0_7 3.113701 1_555
Ti0_2 Zr0_4 3.113704 1_565
Ti0_2 Zr0_5 3.113704 1_565
Ti0_2 Zr0_3 3.113767 1_555
Ti0_2 Zr0_2 3.113767 1_555
Ti0_3 Ti1_3 2.727624 1_555
Ti0_3 Ti1_7 2.727671 1_555
Ti0_3 Ti1_1 2.727672 1_555
Ti0_3 Zr0_7 3.113701 1_555
Ti0_3 Zr0_6 3.113701 1_556
Ti0_3 Zr0_5 3.113704 1_565
Ti0_3 Zr0_4 3.113704 1_566
Ti0_3 Zr0_3 3.113767 1_555
Ti0_3 Zr0_2 3.113767 1_556
Ti0_4 Ti1_4 2.727624 1_555
Ti0_4 Ti1_0 2.727671 1_655
Ti0_4 Ti1_6 2.727672 1_545
Ti0_4 Ti0_5 3.003445 1_555
Ti0_4 Ti0_5 3.003445 1_554
Ti0_4 Zr0_0 3.113701 1_655
Ti0_4 Zr0_1 3.113701 1_655
Ti0_4 Zr0_2 3.113704 1_655
Ti0_4 Zr0_3 3.113704 1_655
Ti0_4 Zr0_5 3.113767 1_555
Ti0_4 Zr0_4 3.113767 1_555
Ti0_5 Ti1_5 2.727624 1_555
Ti0_5 Ti1_1 2.727671 1_655
Ti0_5 Ti1_7 2.727672 1_545
Ti0_5 Zr0_1 3.113701 1_655
Ti0_5 Zr0_0 3.113701 1_656
Ti0_5 Zr0_3 3.113704 1_655
Ti0_5 Zr0_2 3.113704 1_656
Ti0_5 Zr0_5 3.113767 1_555
Ti0_5 Zr0_4 3.113767 1_556
Ti0_6 Ti1_6 2.727624 1_555
Ti0_6 Ti1_2 2.727671 1_655
Ti0_6 Ti1_4 2.727672 1_555
Ti0_6 Ti0_7 3.003445 1_555
Ti0_6 Ti0_7 3.003445 1_554
Ti0_6 Zr0_2 3.113701 1_655
Ti0_6 Zr0_3 3.113701 1_655
Ti0_6 Zr0_0 3.113704 1_665
Ti0_6 Zr0_1 3.113704 1_665
Ti0_6 Zr0_7 3.113767 1_555
Ti0_6 Zr0_6 3.113767 1_555
Ti0_7 Ti1_7 2.727624 1_555
Ti0_7 Ti1_3 2.727671 1_655
Ti0_7 Ti1_5 2.727672 1_555
Ti0_7 Zr0_3 3.113701 1_655
Ti0_7 Zr0_2 3.113701 1_656
Ti0_7 Zr0_1 3.113704 1_665
Ti0_7 Zr0_0 3.113704 1_666
Ti0_7 Zr0_7 3.113767 1_555
Ti0_7 Zr0_6 3.113767 1_556
Ti1_0 Ti1_1 3.003445 1_555
Ti1_0 Ti1_1 3.003445 1_554
Ti1_0 Zr0_3 3.113701 1_555
Ti1_0 Zr0_2 3.113701 1_555
Ti1_0 Zr0_6 3.113703 1_555
Ti1_0 Zr0_7 3.113703 1_555
Ti1_0 Zr0_0 3.113767 1_555
Ti1_0 Zr0_1 3.113767 1_555
Ti1_1 Zr0_3 3.113701 1_555
Ti1_1 Zr0_2 3.113701 1_556
Ti1_1 Zr0_7 3.113703 1_555
Ti1_1 Zr0_6 3.113703 1_556
Ti1_1 Zr0_1 3.113767 1_555
Ti1_1 Zr0_0 3.113767 1_556
Ti1_2 Ti1_3 3.003445 1_555
Ti1_2 Ti1_3 3.003445 1_554
Ti1_2 Zr0_0 3.113701 1_565
Ti1_2 Zr0_1 3.113701 1_565
Ti1_2 Zr0_4 3.113703 1_565
Ti1_2 Zr0_5 3.113703 1_565
Ti1_2 Zr0_2 3.113767 1_555
Ti1_2 Zr0_3 3.113767 1_555
Ti1_3 Zr0_1 3.113701 1_565
Ti1_3 Zr0_0 3.113701 1_566
Ti1_3 Zr0_5 3.113703 1_565
Ti1_3 Zr0_4 3.113703 1_566
Ti1_3 Zr0_3 3.113767 1_555
Ti1_3 Zr0_2 3.113767 1_556
Ti1_4 Ti1_5 3.003445 1_555
Ti1_4 Ti1_5 3.003445 1_554
Ti1_4 Zr0_6 3.113701 1_555
Ti1_4 Zr0_7 3.113701 1_555
Ti1_4 Zr0_2 3.113703 1_655
Ti1_4 Zr0_3 3.113703 1_655
Ti1_4 Zr0_5 3.113767 1_555
Ti1_4 Zr0_4 3.113767 1_555
Ti1_5 Zr0_7 3.113701 1_555
Ti1_5 Zr0_6 3.113701 1_556
Ti1_5 Zr0_3 3.113703 1_655
Ti1_5 Zr0_2 3.113703 1_656
Ti1_5 Zr0_5 3.113767 1_555
Ti1_5 Zr0_4 3.113767 1_556
Ti1_6 Ti1_7 3.003445 1_555
Ti1_6 Ti1_7 3.003445 1_554
Ti1_6 Zr0_4 3.113701 1_565
Ti1_6 Zr0_5 3.113701 1_565
Ti1_6 Zr0_0 3.113703 1_665
Ti1_6 Zr0_1 3.113703 1_665
Ti1_6 Zr0_7 3.113767 1_555
Ti1_6 Zr0_6 3.113767 1_555
Ti1_7 Zr0_5 3.113701 1_565
Ti1_7 Zr0_4 3.113701 1_566
Ti1_7 Zr0_1 3.113703 1_665
Ti1_7 Zr0_0 3.113703 1_666
Ti1_7 Zr0_7 3.113767 1_555
Ti1_7 Zr0_6 3.113767 1_556
