# generated using pymatgen
data_Fe4O3F5
_symmetry_space_group_name_H-M   'P 1'
_cell_length_a   6.20840400
_cell_length_b   6.55870700
_cell_length_c   7.03727900
_cell_angle_alpha   90.00000000
_cell_angle_beta   90.00000000
_cell_angle_gamma   90.00000000
_symmetry_Int_Tables_number   1
_chemical_formula_structural   Fe4O3F5
_chemical_formula_sum   'Fe8 O6 F10'
_cell_volume   286.55168685
_cell_formula_units_Z   2
loop_
 _symmetry_equiv_pos_site_id
 _symmetry_equiv_pos_as_xyz
  1  'x, y, z'
loop_
 _atom_site_type_symbol
 _atom_site_label
 _atom_site_symmetry_multiplicity
 _atom_site_fract_x
 _atom_site_fract_y
 _atom_site_fract_z
 _atom_site_occupancy
  Fe  Fe0  1  0.00000000  0.72313600  0.00000000  1
  Fe  Fe1  1  0.50000000  0.76261500  0.00000000  1
  Fe  Fe2  1  0.73173600  0.26223900  0.00000000  1
  Fe  Fe3  1  0.26826400  0.26223900  0.00000000  1
  Fe  Fe4  1  0.76826400  0.73776100  0.50000000  1
  Fe  Fe5  1  0.23173600  0.73776100  0.50000000  1
  Fe  Fe6  1  0.50000000  0.27686400  0.50000000  1
  Fe  Fe7  1  0.00000000  0.23738500  0.50000000  1
  O  O0  1  0.50000000  0.06522300  0.00000000  1
  O  O1  1  0.00000000  0.93477700  0.50000000  1
  O  O2  1  0.00000000  0.43574800  0.00000000  1
  O  O3  1  0.50000000  0.45686500  0.00000000  1
  O  O4  1  0.00000000  0.54313500  0.50000000  1
  O  O5  1  0.50000000  0.56425200  0.50000000  1
  F  F0  1  0.23103000  0.75469300  0.80150100  1
  F  F1  1  0.76897000  0.75469300  0.80150100  1
  F  F2  1  0.00000000  0.04232800  0.00000000  1
  F  F3  1  0.50000000  0.95767200  0.50000000  1
  F  F4  1  0.76897000  0.75469300  0.19849900  1
  F  F5  1  0.23103000  0.75469300  0.19849900  1
  F  F6  1  0.26897000  0.24530700  0.69849900  1
  F  F7  1  0.73103000  0.24530700  0.69849900  1
  F  F8  1  0.26897000  0.24530700  0.30150100  1
  F  F9  1  0.73103000  0.24530700  0.30150100  1
loop_
_geom_bond_atom_site_label_1
_geom_bond_atom_site_label_2
_geom_bond_distance
_geom_bond_site_symmetry_2
Fe0 O2 1.884894 1_555
Fe1 O0 1.984717 1_565
Fe1 O3 2.005325 1_555
Fe2 O3 1.923364 1_555
Fe2 O0 1.933803 1_555
Fe2 O2 2.017150 1_655
Fe3 O3 1.923364 1_555
Fe3 O0 1.933803 1_555
Fe3 O2 2.017150 1_555
Fe4 O4 1.923364 1_655
Fe4 O1 1.933803 1_655
Fe4 O5 2.017150 1_555
Fe5 O4 1.923364 1_555
Fe5 O1 1.933803 1_555
Fe5 O5 2.017150 1_555
Fe6 O5 1.884894 1_555
Fe7 O1 1.984717 1_545
Fe7 O4 2.005325 1_555
F0 Fe0 2.012820 1_556
F0 Fe5 2.124655 1_555
F0 Fe1 2.177726 1_556
F1 Fe0 2.012820 1_656
F1 Fe4 2.124655 1_555
F1 Fe1 2.177726 1_556
F2 Fe0 2.093487 1_545
F2 Fe3 2.203221 1_555
F2 Fe2 2.203221 1_455
F3 Fe6 2.093487 1_565
F3 Fe5 2.203221 1_555
F3 Fe4 2.203221 1_555
F4 Fe0 2.012820 1_655
F4 Fe4 2.124655 1_555
F4 Fe1 2.177726 1_555
F5 Fe0 2.012820 1_555
F5 Fe5 2.124655 1_555
F5 Fe1 2.177726 1_555
F6 Fe6 2.012820 1_555
F6 Fe3 2.124655 1_556
F6 Fe7 2.177726 1_555
F7 Fe6 2.012820 1_555
F7 Fe2 2.124655 1_556
F7 Fe7 2.177726 1_655
F8 Fe6 2.012820 1_555
F8 Fe3 2.124655 1_555
F8 Fe7 2.177726 1_555
F9 Fe6 2.012820 1_555
F9 Fe2 2.124655 1_555
F9 Fe7 2.177726 1_655
