# generated using pymatgen
data_NaEuCr4O12
_symmetry_space_group_name_H-M   'P 1'
_cell_length_a   5.31714078
_cell_length_b   5.31714078
_cell_length_c   7.47696111
_cell_angle_alpha   90.00000000
_cell_angle_beta   90.00000000
_cell_angle_gamma   93.37907173
_symmetry_Int_Tables_number   1
_chemical_formula_structural   NaEuCr4O12
_chemical_formula_sum   'Na1 Eu1 Cr4 O12'
_cell_volume   211.02102498
_cell_formula_units_Z   1
loop_
 _symmetry_equiv_pos_site_id
 _symmetry_equiv_pos_as_xyz
  1  'x, y, z'
loop_
 _atom_site_type_symbol
 _atom_site_label
 _atom_site_symmetry_multiplicity
 _atom_site_fract_x
 _atom_site_fract_y
 _atom_site_fract_z
 _atom_site_occupancy
  Na  Na0  1  0.01017766  0.98982234  0.50000000  1
  Eu  Eu0  1  0.48098893  0.51901107  0.00000000  1
  Cr  Cr0  1  0.48681224  0.02241852  0.25797435  1
  Cr  Cr1  1  0.48681224  0.02241852  0.74202565  1
  Cr  Cr2  1  0.97758148  0.51318776  0.74202565  1
  Cr  Cr3  1  0.97758148  0.51318776  0.25797435  1
  O  O0  1  0.30267343  0.29081620  0.24822659  1
  O  O1  1  0.70918380  0.69732657  0.24822659  1
  O  O2  1  0.70918380  0.69732657  0.75177341  1
  O  O3  1  0.30267343  0.29081620  0.75177341  1
  O  O4  1  0.22467495  0.77532505  0.20563026  1
  O  O5  1  0.79405262  0.20594738  0.29155996  1
  O  O6  1  0.79405262  0.20594738  0.70844004  1
  O  O7  1  0.22467495  0.77532505  0.79436974  1
  O  O8  1  0.54722720  0.03548666  0.00000000  1
  O  O9  1  0.45335086  0.96421503  0.50000000  1
  O  O10  1  0.96451334  0.45277280  0.00000000  1
  O  O11  1  0.03578497  0.54664914  0.50000000  1
loop_
_geom_bond_atom_site_label_1
_geom_bond_atom_site_label_2
_geom_bond_distance
_geom_bond_site_symmetry_2
Na0 O5 2.285993 1_465
Na0 O6 2.285993 1_465
Na0 O11 2.368343 1_555
Na0 O9 2.368343 1_555
Eu0 O1 2.383317 1_555
Eu0 O2 2.383317 1_554
Eu0 O0 2.383317 1_555
Eu0 O3 2.383317 1_554
Eu0 O7 2.509500 1_554
Eu0 O4 2.509500 1_555
Eu0 O10 2.615465 1_555
Eu0 O8 2.615465 1_555
Eu0 O10 2.747998 1_455
Eu0 O8 2.747998 1_565
Cr0 O0 1.779125 1_555
Cr0 O9 1.842729 1_545
Cr0 O5 1.869811 1_555
Cr0 O4 1.898997 1_545
Cr0 O8 1.955992 1_555
Cr0 O1 2.152252 1_545
Cr1 O3 1.779125 1_555
Cr1 O9 1.842729 1_545
Cr1 O6 1.869811 1_555
Cr1 O7 1.898997 1_545
Cr1 O8 1.955992 1_556
Cr1 O2 2.152252 1_545
Cr2 O2 1.779125 1_555
Cr2 O11 1.842729 1_655
Cr2 O6 1.869811 1_555
Cr2 O7 1.898997 1_655
Cr2 O10 1.955992 1_556
Cr2 O3 2.152252 1_655
Cr3 O1 1.779125 1_555
Cr3 O11 1.842729 1_655
Cr3 O5 1.869811 1_555
Cr3 O4 1.898997 1_655
Cr3 O10 1.955992 1_555
Cr3 O0 2.152252 1_655
