# generated using pymatgen
data_K4Ag18Te11
_symmetry_space_group_name_H-M   'P 1'
_cell_length_a   13.44845114
_cell_length_b   13.44845114
_cell_length_c   13.44845114
_cell_angle_alpha   60.00000000
_cell_angle_beta   60.00000000
_cell_angle_gamma   60.00000000
_symmetry_Int_Tables_number   1
_chemical_formula_structural   K4Ag18Te11
_chemical_formula_sum   'K8 Ag36 Te22'
_cell_volume   1719.89451272
_cell_formula_units_Z   2
loop_
 _symmetry_equiv_pos_site_id
 _symmetry_equiv_pos_as_xyz
  1  'x, y, z'
loop_
 _atom_site_type_symbol
 _atom_site_label
 _atom_site_symmetry_multiplicity
 _atom_site_fract_x
 _atom_site_fract_y
 _atom_site_fract_z
 _atom_site_occupancy
  K  K0  1  0.00000000  0.00000000  0.00000000  1
  K  K1  1  0.76732800  0.76732800  0.23267200  1
  K  K2  1  0.23267200  0.76732800  0.23267200  1
  K  K3  1  0.76732800  0.23267200  0.23267200  1
  K  K4  1  0.23267200  0.23267200  0.76732800  1
  K  K5  1  0.76732800  0.23267200  0.76732800  1
  K  K6  1  0.23267200  0.76732800  0.76732800  1
  K  K7  1  0.50000000  0.50000000  0.50000000  1
  Ag  Ag0  1  0.00000000  0.61399900  0.38600100  1
  Ag  Ag1  1  0.00000000  0.00000000  0.38600100  1
  Ag  Ag2  1  0.61399900  0.00000000  0.38600100  1
  Ag  Ag3  1  0.00000000  0.38600100  0.61399900  1
  Ag  Ag4  1  0.61399900  0.38600100  0.00000000  1
  Ag  Ag5  1  0.00000000  0.38600100  0.00000000  1
  Ag  Ag6  1  0.38600100  0.00000000  0.00000000  1
  Ag  Ag7  1  0.38600100  0.61399900  0.00000000  1
  Ag  Ag8  1  0.38600100  0.00000000  0.61399900  1
  Ag  Ag9  1  0.61399900  0.00000000  0.00000000  1
  Ag  Ag10  1  0.00000000  0.00000000  0.61399900  1
  Ag  Ag11  1  0.00000000  0.61399900  0.00000000  1
  Ag  Ag12  1  0.74191200  0.74191200  0.52245200  1
  Ag  Ag13  1  0.99372400  0.74191200  0.52245200  1
  Ag  Ag14  1  0.74191200  0.99372400  0.52245200  1
  Ag  Ag15  1  0.99372400  0.52245200  0.74191200  1
  Ag  Ag16  1  0.74191200  0.52245200  0.74191200  1
  Ag  Ag17  1  0.74191200  0.52245200  0.99372400  1
  Ag  Ag18  1  0.52245200  0.99372400  0.74191200  1
  Ag  Ag19  1  0.52245200  0.74191200  0.99372400  1
  Ag  Ag20  1  0.52245200  0.74191200  0.74191200  1
  Ag  Ag21  1  0.74191200  0.74191200  0.99372400  1
  Ag  Ag22  1  0.74191200  0.99372400  0.74191200  1
  Ag  Ag23  1  0.99372400  0.74191200  0.74191200  1
  Ag  Ag24  1  0.25808800  0.25808800  0.47754800  1
  Ag  Ag25  1  0.00627600  0.25808800  0.47754800  1
  Ag  Ag26  1  0.25808800  0.00627600  0.47754800  1
  Ag  Ag27  1  0.00627600  0.47754800  0.25808800  1
  Ag  Ag28  1  0.25808800  0.47754800  0.25808800  1
  Ag  Ag29  1  0.25808800  0.47754800  0.00627600  1
  Ag  Ag30  1  0.47754800  0.00627600  0.25808800  1
  Ag  Ag31  1  0.47754800  0.25808800  0.00627600  1
  Ag  Ag32  1  0.47754800  0.25808800  0.25808800  1
  Ag  Ag33  1  0.25808800  0.25808800  0.00627600  1
  Ag  Ag34  1  0.25808800  0.00627600  0.25808800  1
  Ag  Ag35  1  0.00627600  0.25808800  0.25808800  1
  Te  Te0  1  0.89034100  0.89034100  0.32897800  1
  Te  Te1  1  0.89034100  0.32897800  0.89034100  1
  Te  Te2  1  0.32897800  0.89034100  0.89034100  1
  Te  Te3  1  0.89034100  0.89034100  0.89034100  1
  Te  Te4  1  0.10965900  0.10965900  0.67102200  1
  Te  Te5  1  0.10965900  0.67102200  0.10965900  1
  Te  Te6  1  0.67102200  0.10965900  0.10965900  1
  Te  Te7  1  0.10965900  0.10965900  0.10965900  1
  Te  Te8  1  0.81551900  0.50000000  0.50000000  1
  Te  Te9  1  0.18448100  0.81551900  0.50000000  1
  Te  Te10  1  0.50000000  0.18448100  0.50000000  1
  Te  Te11  1  0.18448100  0.50000000  0.50000000  1
  Te  Te12  1  0.50000000  0.81551900  0.50000000  1
  Te  Te13  1  0.81551900  0.18448100  0.50000000  1
  Te  Te14  1  0.50000000  0.50000000  0.81551900  1
  Te  Te15  1  0.81551900  0.50000000  0.18448100  1
  Te  Te16  1  0.18448100  0.50000000  0.81551900  1
  Te  Te17  1  0.50000000  0.50000000  0.18448100  1
  Te  Te18  1  0.50000000  0.18448100  0.81551900  1
  Te  Te19  1  0.50000000  0.81551900  0.18448100  1
  Te  Te20  1  0.75000000  0.75000000  0.75000000  1
  Te  Te21  1  0.25000000  0.25000000  0.25000000  1
loop_
_geom_bond_atom_site_label_1
_geom_bond_atom_site_label_2
_geom_bond_distance
_geom_bond_site_symmetry_2
K0 Te3 3.612370 1_444
K0 Te7 3.612370 1_555
K0 Te4 3.612381 1_554
K0 Te0 3.612381 1_445
K0 Te1 3.612381 1_454
K0 Te6 3.612381 1_455
K0 Te2 3.612381 1_544
K0 Te5 3.612381 1_545
K1 Te8 3.653096 1_555
K1 Te19 3.653096 1_555
K1 Te12 3.653096 1_555
K1 Te15 3.653096 1_555
K1 Te6 3.764720 1_565
K1 Te5 3.764720 1_655
K1 Te3 3.764720 1_554
K1 Te0 3.764731 1_555
K2 Te17 3.653096 1_555
K2 Te19 3.653096 1_555
K2 Te11 3.653096 1_555
K2 Te9 3.653096 1_555
K2 Te2 3.764720 1_554
K2 Te0 3.764720 1_455
K2 Te7 3.764720 1_565
K2 Te5 3.764731 1_555
K3 Te17 3.653096 1_555
K3 Te13 3.653096 1_555
K3 Te10 3.653096 1_555
K3 Te15 3.653096 1_555
K3 Te0 3.764720 1_545
K3 Te1 3.764720 1_554
K3 Te7 3.764720 1_655
K3 Te6 3.764731 1_555
K4 Te18 3.653096 1_555
K4 Te11 3.653096 1_555
K4 Te10 3.653096 1_555
K4 Te16 3.653096 1_555
K4 Te2 3.764720 1_545
K4 Te1 3.764720 1_455
K4 Te7 3.764720 1_556
K4 Te4 3.764731 1_555
K5 Te8 3.653096 1_555
K5 Te14 3.653096 1_555
K5 Te18 3.653096 1_555
K5 Te13 3.653096 1_555
K5 Te6 3.764720 1_556
K5 Te4 3.764720 1_655
K5 Te3 3.764720 1_545
K5 Te1 3.764731 1_555
K6 Te14 3.653096 1_555
K6 Te9 3.653096 1_555
K6 Te12 3.653096 1_555
K6 Te16 3.653096 1_555
K6 Te4 3.764720 1_565
K6 Te5 3.764720 1_556
K6 Te3 3.764720 1_455
K6 Te2 3.764731 1_555
Ag0 Te8 2.916454 1_455
Ag0 Te11 2.916454 1_555
Ag0 Ag27 3.031566 1_555
Ag0 Ag28 3.031566 1_555
Ag0 Ag12 3.031566 1_455
Ag0 Ag13 3.031566 1_455
Ag0 Te5 3.061804 1_555
Ag0 Te0 3.061804 1_455
Ag0 Ag3 3.066220 1_555
Ag0 K1 3.747416 1_455
Ag0 K2 3.747416 1_555
Ag1 Te9 2.916454 1_545
Ag1 Te13 2.916454 1_455
Ag1 Ag13 3.031566 1_445
Ag1 Ag34 3.031566 1_555
Ag1 Ag14 3.031566 1_445
Ag1 Ag35 3.031566 1_555
Ag1 Te0 3.061793 1_445
Ag1 Te7 3.061803 1_555
Ag1 Ag10 3.066220 1_555
Ag1 K3 3.747416 1_455
Ag1 K2 3.747416 1_545
Ag2 Te12 2.916454 1_545
Ag2 Te10 2.916454 1_555
Ag2 Ag30 3.031566 1_555
Ag2 Ag32 3.031566 1_555
Ag2 Te6 3.061804 1_555
Ag2 Te0 3.061804 1_545
Ag2 Ag8 3.066220 1_555
Ag2 K1 3.747416 1_545
Ag2 K3 3.747416 1_555
Ag3 Te8 2.916454 1_455
Ag3 Te11 2.916454 1_555
Ag3 Te4 3.061804 1_555
Ag3 Te1 3.061804 1_455
Ag3 K5 3.747416 1_455
Ag3 K4 3.747416 1_555
Ag4 Te14 2.916454 1_554
Ag4 Te17 2.916454 1_555
Ag4 Te6 3.061804 1_555
Ag4 Te1 3.061804 1_554
Ag4 Ag7 3.066220 1_555
Ag4 K5 3.747416 1_554
Ag4 K3 3.747416 1_555
Ag5 Te16 2.916454 1_554
Ag5 Te15 2.916454 1_455
Ag5 Te1 3.061793 1_454
Ag5 Te7 3.061803 1_555
Ag5 K3 3.747416 1_455
Ag5 K4 3.747416 1_554
Ag6 Te19 2.916454 1_545
Ag6 Te18 2.916454 1_554
Ag6 Te2 3.061793 1_544
Ag6 Te7 3.061803 1_555
Ag6 Ag9 3.066220 1_555
Ag6 K2 3.747416 1_545
Ag6 K4 3.747416 1_554
Ag7 Te14 2.916454 1_554
Ag7 Te17 2.916454 1_555
Ag7 Te5 3.061804 1_555
Ag7 Te2 3.061804 1_554
Ag7 K6 3.747416 1_554
Ag7 K2 3.747416 1_555
Ag8 Te12 2.916454 1_545
Ag8 Te10 2.916454 1_555
Ag8 Te4 3.061804 1_555
Ag8 Te2 3.061804 1_545
Ag8 K6 3.747416 1_545
Ag8 K4 3.747416 1_555
Ag9 Te18 2.916454 1_554
Ag9 Te19 2.916454 1_545
Ag9 Te6 3.061793 1_555
Ag9 Te3 3.061803 1_544
Ag9 K5 3.747416 1_554
Ag9 K1 3.747416 1_545
Ag10 Te9 2.916454 1_545
Ag10 Te13 2.916454 1_455
Ag10 Ag23 3.031566 1_445
Ag10 Ag25 3.031566 1_555
Ag10 Ag22 3.031566 1_445
Ag10 Ag26 3.031566 1_555
Ag10 Te4 3.061793 1_555
Ag10 Te3 3.061803 1_445
Ag10 K5 3.747416 1_455
Ag10 K6 3.747416 1_545
Ag11 Te16 2.916454 1_554
Ag11 Te15 2.916454 1_455
Ag11 Ag23 3.031566 1_454
Ag11 Ag27 3.031566 1_555
Ag11 Ag21 3.031566 1_454
Ag11 Ag29 3.031566 1_555
Ag11 Te5 3.061793 1_555
Ag11 Te3 3.061803 1_454
Ag11 Ag5 3.066220 1_555
Ag11 K1 3.747416 1_455
Ag11 K6 3.747416 1_554
Ag12 Te0 2.887235 1_555
Ag12 Ag20 2.951397 1_555
Ag12 Ag16 2.951397 1_555
Ag12 Te12 3.019645 1_555
Ag12 Te8 3.019645 1_555
Ag12 Ag2 3.031566 1_565
Ag12 Te20 3.172671 1_555
Ag12 Ag13 3.386481 1_555
Ag12 Ag14 3.386481 1_555
Ag12 K1 3.587997 1_555
Ag13 Te0 2.887227 1_555
Ag13 Ag15 2.951397 1_555
Ag13 Ag23 2.951397 1_555
Ag13 Te9 3.019645 1_655
Ag13 Te11 3.019645 1_655
Ag13 Te20 3.172671 1_555
Ag13 Ag14 3.386481 1_555
Ag13 K2 3.587997 1_655
Ag14 Te0 2.887227 1_555
Ag14 Ag18 2.951397 1_555
Ag14 Ag22 2.951397 1_555
Ag14 Te13 3.019645 1_565
Ag14 Te10 3.019645 1_565
Ag14 Ag2 3.031566 1_565
Ag14 Te20 3.172671 1_555
Ag14 K3 3.587997 1_565
Ag15 Te1 2.887227 1_555
Ag15 Ag23 2.951397 1_555
Ag15 Te16 3.019645 1_655
Ag15 Te11 3.019645 1_655
Ag15 Ag5 3.031566 1_656
Ag15 Ag3 3.031566 1_655
Ag15 Te20 3.172671 1_555
Ag15 Ag17 3.386481 1_555
Ag15 Ag16 3.386481 1_555
Ag15 K4 3.587997 1_655
Ag16 Te1 2.887235 1_555
Ag16 Ag20 2.951397 1_555
Ag16 Te8 3.019645 1_555
Ag16 Te14 3.019645 1_555
Ag16 Ag3 3.031566 1_655
Ag16 Ag4 3.031566 1_556
Ag16 Te20 3.172671 1_555
Ag16 Ag17 3.386481 1_555
Ag16 K5 3.587997 1_555
Ag17 Te1 2.887227 1_555
Ag17 Ag21 2.951397 1_555
Ag17 Ag19 2.951397 1_555
Ag17 Te15 3.019645 1_556
Ag17 Te17 3.019645 1_556
Ag17 Ag5 3.031566 1_656
Ag17 Ag4 3.031566 1_556
Ag17 Te20 3.172671 1_555
Ag17 K3 3.587997 1_556
Ag18 Te2 2.887227 1_555
Ag18 Ag22 2.951397 1_555
Ag18 Te18 3.019645 1_565
Ag18 Te10 3.019645 1_565
Ag18 Ag6 3.031566 1_566
Ag18 Ag8 3.031566 1_565
Ag18 Te20 3.172671 1_555
Ag18 Ag19 3.386481 1_555
Ag18 Ag20 3.386481 1_555
Ag18 K4 3.587997 1_565
Ag19 Te2 2.887227 1_555
Ag19 Ag21 2.951397 1_555
Ag19 Te19 3.019645 1_556
Ag19 Te17 3.019645 1_556
Ag19 Ag6 3.031566 1_566
Ag19 Ag7 3.031566 1_556
Ag19 Te20 3.172671 1_555
Ag19 Ag20 3.386481 1_555
Ag19 K2 3.587997 1_556
Ag20 Te2 2.887235 1_555
Ag20 Te12 3.019645 1_555
Ag20 Te14 3.019645 1_555
Ag20 Ag8 3.031566 1_565
Ag20 Ag7 3.031566 1_556
Ag20 Te20 3.172671 1_555
Ag20 K6 3.587997 1_555
Ag21 Te3 2.887238 1_555
Ag21 Te19 3.019645 1_556
Ag21 Te15 3.019645 1_556
Ag21 Ag9 3.031566 1_566
Ag21 Te20 3.172671 1_555
Ag21 Ag22 3.386481 1_555
Ag21 Ag23 3.386481 1_555
Ag21 K1 3.587997 1_556
Ag22 Te3 2.887238 1_555
Ag22 Te18 3.019645 1_565
Ag22 Te13 3.019645 1_565
Ag22 Ag9 3.031566 1_566
Ag22 Te20 3.172671 1_555
Ag22 Ag23 3.386481 1_555
Ag22 K5 3.587997 1_565
Ag23 Te3 2.887238 1_555
Ag23 Te16 3.019645 1_655
Ag23 Te9 3.019645 1_655
Ag23 Te20 3.172671 1_555
Ag23 K6 3.587997 1_655
Ag24 Te4 2.887235 1_555
Ag24 Ag32 2.951397 1_555
Ag24 Ag28 2.951397 1_555
Ag24 Te11 3.019645 1_555
Ag24 Te10 3.019645 1_555
Ag24 Ag3 3.031566 1_555
Ag24 Ag8 3.031566 1_555
Ag24 Te21 3.172671 1_555
Ag24 Ag25 3.386481 1_555
Ag24 Ag26 3.386481 1_555
Ag24 K4 3.587997 1_555
Ag25 Te4 2.887227 1_555
Ag25 Ag35 2.951397 1_555
Ag25 Ag27 2.951397 1_555
Ag25 Te13 3.019645 1_455
Ag25 Te8 3.019645 1_455
Ag25 Ag3 3.031566 1_555
Ag25 Te21 3.172671 1_555
Ag25 Ag26 3.386481 1_555
Ag25 K5 3.587997 1_455
Ag26 Te4 2.887227 1_555
Ag26 Ag34 2.951397 1_555
Ag26 Ag30 2.951397 1_555
Ag26 Te9 3.019645 1_545
Ag26 Te12 3.019645 1_545
Ag26 Ag8 3.031566 1_555
Ag26 Te21 3.172671 1_555
Ag26 K6 3.587997 1_545
Ag27 Te5 2.887227 1_555
Ag27 Ag35 2.951397 1_555
Ag27 Te15 3.019645 1_455
Ag27 Te8 3.019645 1_455
Ag27 Te21 3.172671 1_555
Ag27 Ag28 3.386481 1_555
Ag27 Ag29 3.386481 1_555
Ag27 K1 3.587997 1_455
Ag28 Te5 2.887235 1_555
Ag28 Ag32 2.951397 1_555
Ag28 Te17 3.019645 1_555
Ag28 Te11 3.019645 1_555
Ag28 Ag7 3.031566 1_555
Ag28 Te21 3.172671 1_555
Ag28 Ag29 3.386481 1_555
Ag28 K2 3.587997 1_555
Ag29 Te5 2.887227 1_555
Ag29 Ag33 2.951397 1_555
Ag29 Ag31 2.951397 1_555
Ag29 Te16 3.019645 1_554
Ag29 Te14 3.019645 1_554
Ag29 Ag7 3.031566 1_555
Ag29 Te21 3.172671 1_555
Ag29 K6 3.587997 1_554
Ag30 Te6 2.887227 1_555
Ag30 Ag34 2.951397 1_555
Ag30 Te19 3.019645 1_545
Ag30 Te12 3.019645 1_545
Ag30 Ag9 3.031566 1_555
Ag30 Te21 3.172671 1_555
Ag30 Ag31 3.386481 1_555
Ag30 Ag32 3.386481 1_555
Ag30 K1 3.587997 1_545
Ag31 Te6 2.887227 1_555
Ag31 Ag33 2.951397 1_555
Ag31 Te18 3.019645 1_554
Ag31 Te14 3.019645 1_554
Ag31 Ag9 3.031566 1_555
Ag31 Ag4 3.031566 1_555
Ag31 Te21 3.172671 1_555
Ag31 Ag32 3.386481 1_555
Ag31 K5 3.587997 1_554
Ag32 Te6 2.887235 1_555
Ag32 Te17 3.019645 1_555
Ag32 Te10 3.019645 1_555
Ag32 Ag4 3.031566 1_555
Ag32 Te21 3.172671 1_555
Ag32 K3 3.587997 1_555
Ag33 Te7 2.887238 1_555
Ag33 Te18 3.019645 1_554
Ag33 Te16 3.019645 1_554
Ag33 Ag5 3.031566 1_555
Ag33 Ag6 3.031566 1_555
Ag33 Te21 3.172671 1_555
Ag33 Ag35 3.386481 1_555
Ag33 Ag34 3.386481 1_555
Ag33 K4 3.587997 1_554
Ag34 Te7 2.887238 1_555
Ag34 Te19 3.019645 1_545
Ag34 Te9 3.019645 1_545
Ag34 Ag6 3.031566 1_555
Ag34 Te21 3.172671 1_555
Ag34 Ag35 3.386481 1_555
Ag34 K2 3.587997 1_545
Ag35 Te7 2.887238 1_555
Ag35 Te15 3.019645 1_455
Ag35 Te13 3.019645 1_455
Ag35 Ag5 3.031566 1_555
Ag35 Te21 3.172671 1_555
Ag35 K3 3.587997 1_455
