# generated using pymatgen
data_Eu2CoTe2(SO7)2
_symmetry_space_group_name_H-M   'P 1'
_cell_length_a   5.30390700
_cell_length_b   8.06272861
_cell_length_c   8.34634816
_cell_angle_alpha   116.60048460
_cell_angle_beta   106.19495382
_cell_angle_gamma   86.39856823
_symmetry_Int_Tables_number   1
_chemical_formula_structural   Eu2CoTe2(SO7)2
_chemical_formula_sum   'Eu2 Co1 Te2 S2 O14'
_cell_volume   305.67688663
_cell_formula_units_Z   1
loop_
 _symmetry_equiv_pos_site_id
 _symmetry_equiv_pos_as_xyz
  1  'x, y, z'
loop_
 _atom_site_type_symbol
 _atom_site_label
 _atom_site_symmetry_multiplicity
 _atom_site_fract_x
 _atom_site_fract_y
 _atom_site_fract_z
 _atom_site_occupancy
  Eu  Eu0  1  0.09098800  0.25395600  0.98987100  1
  Eu  Eu1  1  0.90901200  0.74604400  0.01012900  1
  Co  Co0  1  0.00000000  0.00000000  0.50000000  1
  Te  Te0  1  0.52048500  0.26524600  0.64565500  1
  Te  Te1  1  0.47951500  0.73475400  0.35434500  1
  S  S0  1  0.77049500  0.24582900  0.25551100  1
  S  S1  1  0.22950500  0.75417100  0.74448900  1
  O  O0  1  0.90737600  0.40634900  0.26584400  1
  O  O1  1  0.09262400  0.59365100  0.73415600  1
  O  O2  1  0.87732500  0.22324100  0.42973600  1
  O  O3  1  0.12267500  0.77675900  0.57026400  1
  O  O4  1  0.48495900  0.27175000  0.22956800  1
  O  O5  1  0.51504100  0.72825000  0.77043200  1
  O  O6  1  0.81844200  0.07815700  0.09142900  1
  O  O7  1  0.18155800  0.92184300  0.90857100  1
  O  O8  1  0.73284100  0.42699700  0.88575800  1
  O  O9  1  0.26715900  0.57300300  0.11424200  1
  O  O10  1  0.26819300  0.17352600  0.72109400  1
  O  O11  1  0.73180700  0.82647400  0.27890600  1
  O  O12  1  0.75261000  0.06766500  0.64765000  1
  O  O13  1  0.24739000  0.93233500  0.35235000  1
loop_
_geom_bond_atom_site_label_1
_geom_bond_atom_site_label_2
_geom_bond_distance
_geom_bond_site_symmetry_2
Eu0 O4 2.416209 1_556
Eu0 O9 2.436686 1_556
Eu0 O10 2.476508 1_555
Eu0 O8 2.478311 1_455
Eu0 O7 2.500903 1_545
Eu0 O0 2.515960 1_456
Eu0 O6 2.614204 1_456
Eu0 O12 2.696787 1_455
Eu1 O5 2.416209 1_554
Eu1 O8 2.436686 1_554
Eu1 O11 2.476508 1_555
Eu1 O9 2.478311 1_655
Eu1 O6 2.500903 1_565
Eu1 O1 2.515960 1_654
Eu1 O7 2.614204 1_654
Eu1 O13 2.696787 1_655
Co0 O13 1.935963 1_545
Co0 O12 1.935963 1_455
Co0 O10 1.964651 1_555
Co0 O11 1.964651 1_445
Co0 O3 2.142976 1_545
Co0 O2 2.142976 1_455
O0 S0 1.480780 1_555
O1 S1 1.480780 1_555
O2 S0 1.494439 1_555
O3 S1 1.494439 1_555
O4 S0 1.483908 1_555
O5 S1 1.483908 1_555
O6 S0 1.503618 1_555
O7 S1 1.503618 1_555
O8 Te0 1.889541 1_555
O9 Te1 1.889541 1_555
O10 Te0 1.935256 1_555
O11 Te1 1.935256 1_555
O12 Te0 1.954420 1_555
O13 Te1 1.954420 1_555
