# generated using pymatgen
data_Mg5Si9
_symmetry_space_group_name_H-M   'P 1'
_cell_length_a   12.96293176
_cell_length_b   7.63170798
_cell_length_c   5.84399598
_cell_angle_alpha   62.84208051
_cell_angle_beta   77.21345591
_cell_angle_gamma   83.67977476
_symmetry_Int_Tables_number   1
_chemical_formula_structural   Mg5Si9
_chemical_formula_sum   'Mg10 Si18'
_cell_volume   501.61946395
_cell_formula_units_Z   2
loop_
 _symmetry_equiv_pos_site_id
 _symmetry_equiv_pos_as_xyz
  1  'x, y, z'
loop_
 _atom_site_type_symbol
 _atom_site_label
 _atom_site_symmetry_multiplicity
 _atom_site_fract_x
 _atom_site_fract_y
 _atom_site_fract_z
 _atom_site_occupancy
  Mg  Mg0  1  0.71172600  0.06794300  0.97972700  1
  Mg  Mg1  1  0.42240200  0.02180200  0.18241500  1
  Mg  Mg2  1  0.56844100  0.37817400  0.62031400  1
  Mg  Mg3  1  0.37858200  0.54929000  0.35226500  1
  Mg  Mg4  1  0.56002700  0.35893600  0.12546900  1
  Mg  Mg5  1  0.45208700  0.74434200  0.74181900  1
  Mg  Mg6  1  0.07177500  0.88222900  0.23845600  1
  Mg  Mg7  1  0.85526800  0.82220100  0.62973500  1
  Mg  Mg8  1  0.02990000  0.44489900  0.05932200  1
  Mg  Mg9  1  0.87843700  0.75642400  0.16628200  1
  Si  Si0  1  0.22597500  0.60043200  0.07090700  1
  Si  Si1  1  0.96818700  0.47986100  0.58646000  1
  Si  Si2  1  0.42829100  0.13106400  0.58281000  1
  Si  Si3  1  0.66289200  0.76041000  0.46766400  1
  Si  Si4  1  0.23053400  0.72805400  0.59552700  1
  Si  Si5  1  0.77332200  0.22094500  0.40937600  1
  Si  Si6  1  0.21114300  0.20913100  0.10990700  1
  Si  Si7  1  0.74198600  0.55305700  0.09163900  1
  Si  Si8  1  0.20320600  0.10612700  0.57875100  1
  Si  Si9  1  0.61698800  0.00162600  0.64359000  1
  Si  Si10  1  0.90318900  0.15126700  0.08475500  1
  Si  Si11  1  0.05015100  0.88922800  0.73151500  1
  Si  Si12  1  0.27937900  0.93561600  0.97948500  1
  Si  Si13  1  0.75264800  0.46561700  0.73991600  1
  Si  Si14  1  0.92470200  0.16128800  0.63631200  1
  Si  Si15  1  0.16343100  0.43589800  0.57042600  1
  Si  Si16  1  0.57478200  0.72860600  0.14534700  1
  Si  Si17  1  0.36030000  0.41556100  0.87964900  1
loop_
_geom_bond_atom_site_label_1
_geom_bond_atom_site_label_2
_geom_bond_distance
_geom_bond_site_symmetry_2
Mg0 Si3 2.731085 1_546
Mg0 Si13 2.756604 1_555
Mg0 Si9 2.781260 1_555
Mg0 Si10 2.884291 1_556
Mg0 Si5 2.930022 1_555
Mg0 Si16 2.959429 1_546
Mg0 Si14 2.971957 1_555
Mg1 Si12 2.688894 1_544
Mg1 Si2 2.837352 1_555
Mg1 Si17 2.837791 1_554
Mg1 Si16 2.869749 1_545
Mg1 Si6 2.970124 1_555
Mg1 Si4 3.266369 1_545
Mg2 Si9 2.820566 1_555
Mg2 Si16 2.834504 1_555
Mg2 Si17 2.841373 1_555
Mg2 Si13 2.855028 1_555
Mg2 Si2 2.865844 1_555
Mg2 Si3 2.954945 1_555
Mg2 Si5 3.035212 1_555
Mg3 Si0 2.730065 1_555
Mg3 Si17 2.730411 1_555
Mg3 Si4 2.748048 1_555
Mg3 Si16 2.774496 1_555
Mg3 Si15 2.846587 1_555
Mg3 Si2 2.902355 1_555
Mg3 Si12 3.103885 1_554
Mg4 Si2 2.733921 1_555
Mg4 Si7 2.844819 1_555
Mg4 Si13 2.873492 1_554
Mg4 Si16 2.904677 1_555
Mg4 Si17 3.128405 1_554
Mg4 Si9 3.187179 1_555
Mg5 Si17 2.597778 1_555
Mg5 Si2 2.663066 1_565
Mg5 Si3 2.829457 1_555
Mg5 Si9 2.847146 1_565
Mg5 Si12 2.971047 1_555
Mg5 Si16 3.076504 1_556
Mg5 Si0 3.127533 1_556
Mg5 Si4 3.202663 1_555
Mg6 Si12 2.752177 1_554
Mg6 Si10 2.827671 1_465
Mg6 Si11 2.857233 1_555
Mg6 Si6 2.955167 1_565
Mg6 Si11 3.012976 1_554
Mg6 Si4 3.016701 1_555
Mg6 Si1 3.060507 1_455
Mg6 Si0 3.112693 1_555
Mg7 Si7 2.740424 1_556
Mg7 Si14 2.850844 1_565
Mg7 Si11 2.867893 1_655
Mg7 Si5 2.891980 1_565
Mg7 Si13 2.899685 1_555
Mg7 Si1 2.937646 1_555
Mg7 Si10 3.000376 1_565
Mg7 Si3 3.008392 1_555
Mg7 Si9 3.237531 1_565
Mg8 Si6 2.781348 1_555
Mg8 Si10 2.853074 1_455
Mg8 Si1 2.933598 1_454
Mg8 Si0 2.947467 1_555
Mg8 Si15 3.021239 1_554
Mg8 Si11 3.046438 1_554
Mg8 Mg9 3.111862 1_455
Mg8 Si1 3.132688 1_455
Mg8 Si14 3.141056 1_455
Mg9 Si7 2.700328 1_555
Mg9 Si1 2.798318 1_555
Mg9 Si11 2.842535 1_654
Mg9 Si10 2.871354 1_565
Mg9 Si3 2.960047 1_555
Mg9 Si13 3.226096 1_555
Si0 Si4 2.477893 1_554
Si0 Si12 2.507336 1_554
Si0 Si17 2.511778 1_554
Si0 Si15 2.566317 1_555
Si0 Si6 2.914198 1_555
Si1 Si14 2.428183 1_555
Si1 Si15 2.502747 1_655
Si1 Si13 2.737036 1_555
Si1 Si10 2.862040 1_556
Si2 Si9 2.572449 1_555
Si3 Si9 2.452706 1_565
Si4 Si8 2.827084 1_565
Si5 Si7 2.418228 1_555
Si5 Si9 2.491886 1_555
Si6 Si8 2.462217 1_555
Si10 Si5 2.454773 1_555
Si10 Si14 2.539668 1_554
Si11 Si14 2.422297 1_465
Si11 Si8 2.462414 1_565
Si11 Si4 2.654946 1_555
Si12 Si8 2.472139 1_565
Si12 Si6 2.543220 1_566
Si12 Si2 2.611819 1_565
Si13 Si7 2.407378 1_556
Si13 Si3 2.433524 1_555
Si14 Si5 2.494173 1_555
Si15 Si8 2.493131 1_555
Si15 Si4 2.555693 1_555
Si16 Si7 2.456559 1_555
Si16 Si3 2.518366 1_555
Si16 Si9 2.683717 1_564
Si17 Si6 2.369570 1_556
Si17 Si4 2.830598 1_555
