# generated using pymatgen
data_Ca2TaCoO6
_symmetry_space_group_name_H-M   'P 1'
_cell_length_a   7.72227700
_cell_length_b   5.47816600
_cell_length_c   5.65828561
_cell_angle_alpha   89.41136548
_cell_angle_beta   90.00000000
_cell_angle_gamma   90.00000000
_symmetry_Int_Tables_number   1
_chemical_formula_structural   Ca2TaCoO6
_chemical_formula_sum   'Ca4 Ta2 Co2 O12'
_cell_volume   239.35500284
_cell_formula_units_Z   2
loop_
 _symmetry_equiv_pos_site_id
 _symmetry_equiv_pos_as_xyz
  1  'x, y, z'
loop_
 _atom_site_type_symbol
 _atom_site_label
 _atom_site_symmetry_multiplicity
 _atom_site_fract_x
 _atom_site_fract_y
 _atom_site_fract_z
 _atom_site_occupancy
  Ca  Ca0  1  0.75000000  0.98179200  0.04469400  1
  Ca  Ca1  1  0.75000000  0.51232900  0.56873400  1
  Ca  Ca2  1  0.25000000  0.48767100  0.43126600  1
  Ca  Ca3  1  0.25000000  0.01820800  0.95530600  1
  Ta  Ta0  1  0.00000000  0.00000000  0.50000000  1
  Ta  Ta1  1  0.50000000  0.00000000  0.50000000  1
  Co  Co0  1  0.00000000  0.50000000  0.00000000  1
  Co  Co1  1  0.50000000  0.50000000  0.00000000  1
  O  O0  1  0.45123000  0.19737100  0.21133700  1
  O  O1  1  0.54440700  0.70991300  0.30234600  1
  O  O2  1  0.54877000  0.80262900  0.78866300  1
  O  O3  1  0.04440700  0.29008700  0.69765400  1
  O  O4  1  0.25000000  0.90498900  0.52959300  1
  O  O5  1  0.45559300  0.29008700  0.69765400  1
  O  O6  1  0.95559300  0.70991300  0.30234600  1
  O  O7  1  0.04877000  0.19737100  0.21133700  1
  O  O8  1  0.75000000  0.42153000  0.98473400  1
  O  O9  1  0.95123000  0.80262900  0.78866300  1
  O  O10  1  0.25000000  0.57847000  0.01526600  1
  O  O11  1  0.75000000  0.09501100  0.47040700  1
loop_
_geom_bond_atom_site_label_1
_geom_bond_atom_site_label_2
_geom_bond_distance
_geom_bond_site_symmetry_2
Ca0 O2 2.346491 1_554
Ca0 O9 2.346491 1_554
Ca0 O8 2.429278 1_564
Ca0 O11 2.493538 1_565
Ca0 O6 2.611454 1_555
Ca0 O1 2.611454 1_555
Ca0 O7 2.762205 1_665
Ca0 O0 2.762205 1_565
Ca1 O11 2.358410 1_555
Ca1 O8 2.400824 1_555
Ca1 O6 2.435289 1_555
Ca1 O1 2.435289 1_555
Ca1 O2 2.555995 1_555
Ca1 O9 2.555995 1_555
Ca1 O5 2.676732 1_555
Ca1 O3 2.676732 1_655
Ca2 O4 2.358410 1_555
Ca2 O10 2.400824 1_555
Ca2 O5 2.435289 1_555
Ca2 O3 2.435289 1_555
Ca2 O0 2.555995 1_555
Ca2 O7 2.555995 1_555
Ca2 O6 2.676732 1_455
Ca2 O1 2.676732 1_555
Ca3 O0 2.346491 1_556
Ca3 O7 2.346491 1_556
Ca3 O10 2.429278 1_546
Ca3 O4 2.493538 1_545
Ca3 O5 2.611454 1_555
Ca3 O3 2.611454 1_555
Ca3 O2 2.762205 1_545
Ca3 O9 2.762205 1_445
Co0 O10 1.979927 1_555
Co0 O8 1.979927 1_454
Co0 O9 2.068702 1_454
Co0 O7 2.068702 1_555
Co0 O6 2.099304 1_455
Co0 O3 2.099304 1_554
Co1 O10 1.979927 1_555
Co1 O8 1.979927 1_554
Co1 O2 2.068702 1_554
Co1 O0 2.068702 1_555
Co1 O1 2.099304 1_555
Co1 O5 2.099304 1_554
O0 Ta1 1.985549 1_555
O1 Ta1 1.982492 1_565
O2 Ta1 1.985549 1_565
O3 Ta0 1.982492 1_555
O4 Ta1 2.006054 1_565
O4 Ta0 2.006054 1_565
O5 Ta1 1.982492 1_555
O6 Ta0 1.982492 1_665
O7 Ta0 1.985549 1_555
O9 Ta0 1.985549 1_665
O11 Ta0 2.006054 1_655
O11 Ta1 2.006054 1_555
