# generated using pymatgen
data_CaP3NO9
_symmetry_space_group_name_H-M   'P 1'
_cell_length_a   6.97204691
_cell_length_b   6.97204691
_cell_length_c   10.86546600
_cell_angle_alpha   90.00000000
_cell_angle_beta   90.00000000
_cell_angle_gamma   120.00000861
_symmetry_Int_Tables_number   1
_chemical_formula_structural   CaP3NO9
_chemical_formula_sum   'Ca2 P6 N2 O18'
_cell_volume   457.40357204
_cell_formula_units_Z   2
loop_
 _symmetry_equiv_pos_site_id
 _symmetry_equiv_pos_as_xyz
  1  'x, y, z'
loop_
 _atom_site_type_symbol
 _atom_site_label
 _atom_site_symmetry_multiplicity
 _atom_site_fract_x
 _atom_site_fract_y
 _atom_site_fract_z
 _atom_site_occupancy
  Ca  Ca0  1  0.00000000  0.00000000  0.00000000  1
  Ca  Ca1  1  0.00000000  0.00000000  0.50000000  1
  P  P0  1  0.71793400  0.11512000  0.25000000  1
  P  P1  1  0.88488000  0.60281300  0.25000000  1
  P  P2  1  0.71793400  0.60281300  0.75000000  1
  P  P3  1  0.39718700  0.28206600  0.25000000  1
  P  P4  1  0.88488000  0.28206600  0.75000000  1
  P  P5  1  0.39718700  0.11512000  0.75000000  1
  N  N0  1  0.33333300  0.66666700  0.00000000  1
  N  N1  1  0.33333300  0.66666700  0.50000000  1
  O  O0  1  0.27499100  0.25779200  0.13238000  1
  O  O1  1  0.74220800  0.01719900  0.13238000  1
  O  O2  1  0.27499100  0.25779200  0.36762000  1
  O  O3  1  0.27499100  0.01719900  0.63238000  1
  O  O4  1  0.98280100  0.72500900  0.13238000  1
  O  O5  1  0.74220800  0.01719900  0.36762000  1
  O  O6  1  0.74220800  0.72500900  0.63238000  1
  O  O7  1  0.27499100  0.01719900  0.86762000  1
  O  O8  1  0.98280100  0.72500900  0.36762000  1
  O  O9  1  0.74220800  0.72500900  0.86762000  1
  O  O10  1  0.98280100  0.25779200  0.63238000  1
  O  O11  1  0.98280100  0.25779200  0.86762000  1
  O  O12  1  0.48279700  0.10500800  0.25000000  1
  O  O13  1  0.89499200  0.37778900  0.25000000  1
  O  O14  1  0.48279700  0.37778900  0.75000000  1
  O  O15  1  0.62221100  0.51720300  0.25000000  1
  O  O16  1  0.89499200  0.51720300  0.75000000  1
  O  O17  1  0.62221100  0.10500800  0.75000000  1
loop_
_geom_bond_atom_site_label_1
_geom_bond_atom_site_label_2
_geom_bond_distance
_geom_bond_site_symmetry_2
Ca0 O0 2.351432 1_555
Ca0 O9 2.351432 1_444
Ca0 O4 2.351432 1_445
Ca0 O7 2.351432 1_554
Ca0 O11 2.351432 1_454
Ca0 O1 2.351432 1_455
Ca1 O2 2.351432 1_555
Ca1 O6 2.351432 1_445
Ca1 O8 2.351432 1_445
Ca1 O3 2.351432 1_555
Ca1 O10 2.351432 1_455
Ca1 O5 2.351432 1_455
O0 P3 1.497852 1_555
O1 P0 1.497849 1_555
O2 P3 1.497852 1_555
O3 P5 1.497851 1_555
O4 P1 1.497851 1_555
O5 P0 1.497849 1_555
O6 P2 1.497852 1_555
O7 P5 1.497851 1_555
O8 P1 1.497851 1_555
O9 P2 1.497852 1_555
O10 P4 1.497849 1_555
O11 P4 1.497849 1_555
O12 P0 1.605297 1_555
O12 P3 1.617703 1_555
O13 P1 1.605290 1_555
O13 P0 1.617708 1_555
O14 P2 1.605294 1_555
O14 P5 1.617710 1_555
O15 P3 1.605294 1_555
O15 P1 1.617710 1_555
O16 P4 1.605297 1_555
O16 P2 1.617703 1_555
O17 P5 1.605290 1_555
O17 P4 1.617708 1_555
