# generated using pymatgen
data_Y2(CuSn)3
_symmetry_space_group_name_H-M   'P 1'
_cell_length_a   6.09260800
_cell_length_b   6.09260800
_cell_length_c   44.51952200
_cell_angle_alpha   90.00000000
_cell_angle_beta   90.00000000
_cell_angle_gamma   90.00000000
_symmetry_Int_Tables_number   1
_chemical_formula_structural   Y2(CuSn)3
_chemical_formula_sum   'Y16 Cu24 Sn24'
_cell_volume   1652.55896890
_cell_formula_units_Z   8
loop_
 _symmetry_equiv_pos_site_id
 _symmetry_equiv_pos_as_xyz
  1  'x, y, z'
loop_
 _atom_site_type_symbol
 _atom_site_label
 _atom_site_symmetry_multiplicity
 _atom_site_fract_x
 _atom_site_fract_y
 _atom_site_fract_z
 _atom_site_occupancy
  Y  Y0_0  1  0.25000000  0.25000000  0.37819050  1
  Y  Y0_1  1  0.25000000  0.25000000  0.87819050  1
  Y  Y0_2  1  0.25000000  0.75000000  0.37819050  1
  Y  Y0_3  1  0.25000000  0.75000000  0.87819050  1
  Y  Y0_4  1  0.75000000  0.25000000  0.37819050  1
  Y  Y0_5  1  0.75000000  0.25000000  0.87819050  1
  Y  Y0_6  1  0.75000000  0.75000000  0.37819050  1
  Y  Y0_7  1  0.75000000  0.75000000  0.87819050  1
  Y  Y1_0  1  0.25000000  0.25000000  0.12180950  1
  Y  Y1_1  1  0.25000000  0.25000000  0.62180950  1
  Y  Y1_2  1  0.25000000  0.75000000  0.12180950  1
  Y  Y1_3  1  0.25000000  0.75000000  0.62180950  1
  Y  Y1_4  1  0.75000000  0.25000000  0.12180950  1
  Y  Y1_5  1  0.75000000  0.25000000  0.62180950  1
  Y  Y1_6  1  0.75000000  0.75000000  0.12180950  1
  Y  Y1_7  1  0.75000000  0.75000000  0.62180950  1
  Cu  Cu0_0  1  0.25000000  0.25000000  0.05861600  1
  Cu  Cu0_1  1  0.25000000  0.25000000  0.55861600  1
  Cu  Cu0_2  1  0.25000000  0.75000000  0.05861600  1
  Cu  Cu0_3  1  0.25000000  0.75000000  0.55861600  1
  Cu  Cu0_4  1  0.75000000  0.25000000  0.05861600  1
  Cu  Cu0_5  1  0.75000000  0.25000000  0.55861600  1
  Cu  Cu0_6  1  0.75000000  0.75000000  0.05861600  1
  Cu  Cu0_7  1  0.75000000  0.75000000  0.55861600  1
  Cu  Cu1_0  1  0.25000000  0.25000000  0.44138400  1
  Cu  Cu1_1  1  0.25000000  0.25000000  0.94138400  1
  Cu  Cu1_2  1  0.25000000  0.75000000  0.44138400  1
  Cu  Cu1_3  1  0.25000000  0.75000000  0.94138400  1
  Cu  Cu1_4  1  0.75000000  0.25000000  0.44138400  1
  Cu  Cu1_5  1  0.75000000  0.25000000  0.94138400  1
  Cu  Cu1_6  1  0.75000000  0.75000000  0.44138400  1
  Cu  Cu1_7  1  0.75000000  0.75000000  0.94138400  1
  Cu  Cu2_0  1  0.25000000  0.25000000  0.25000000  1
  Cu  Cu2_1  1  0.25000000  0.25000000  0.75000000  1
  Cu  Cu2_2  1  0.25000000  0.75000000  0.25000000  1
  Cu  Cu2_3  1  0.25000000  0.75000000  0.75000000  1
  Cu  Cu2_4  1  0.75000000  0.25000000  0.25000000  1
  Cu  Cu2_5  1  0.75000000  0.25000000  0.75000000  1
  Cu  Cu2_6  1  0.75000000  0.75000000  0.25000000  1
  Cu  Cu2_7  1  0.75000000  0.75000000  0.75000000  1
  Sn  Sn0_0  1  0.25000000  0.25000000  0.19307300  1
  Sn  Sn0_1  1  0.25000000  0.25000000  0.69307300  1
  Sn  Sn0_2  1  0.25000000  0.75000000  0.19307300  1
  Sn  Sn0_3  1  0.25000000  0.75000000  0.69307300  1
  Sn  Sn0_4  1  0.75000000  0.25000000  0.19307300  1
  Sn  Sn0_5  1  0.75000000  0.25000000  0.69307300  1
  Sn  Sn0_6  1  0.75000000  0.75000000  0.19307300  1
  Sn  Sn0_7  1  0.75000000  0.75000000  0.69307300  1
  Sn  Sn1_0  1  0.25000000  0.25000000  0.30692700  1
  Sn  Sn1_1  1  0.25000000  0.25000000  0.80692700  1
  Sn  Sn1_2  1  0.25000000  0.75000000  0.30692700  1
  Sn  Sn1_3  1  0.25000000  0.75000000  0.80692700  1
  Sn  Sn1_4  1  0.75000000  0.25000000  0.30692700  1
  Sn  Sn1_5  1  0.75000000  0.25000000  0.80692700  1
  Sn  Sn1_6  1  0.75000000  0.75000000  0.30692700  1
  Sn  Sn1_7  1  0.75000000  0.75000000  0.80692700  1
  Sn  Sn2_0  1  0.25000000  0.25000000  0.00000000  1
  Sn  Sn2_1  1  0.25000000  0.25000000  0.50000000  1
  Sn  Sn2_2  1  0.25000000  0.75000000  0.00000000  1
  Sn  Sn2_3  1  0.25000000  0.75000000  0.50000000  1
  Sn  Sn2_4  1  0.75000000  0.25000000  0.00000000  1
  Sn  Sn2_5  1  0.75000000  0.25000000  0.50000000  1
  Sn  Sn2_6  1  0.75000000  0.75000000  0.00000000  1
  Sn  Sn2_7  1  0.75000000  0.75000000  0.50000000  1
loop_
_geom_bond_atom_site_label_1
_geom_bond_atom_site_label_2
_geom_bond_distance
_geom_bond_site_symmetry_2
Cu0_0 Sn2_0 2.609556 1_555
Cu0_0 Y1_0 2.813344 1_555
Cu0_0 Cu0_4 3.046304 1_455
Cu0_0 Cu0_2 3.046304 1_545
Cu0_0 Cu0_2 3.046304 1_555
Cu0_0 Cu0_4 3.046304 1_555
Cu0_1 Sn2_1 2.609556 1_555
Cu0_1 Y1_1 2.813344 1_555
Cu0_1 Cu0_5 3.046304 1_455
Cu0_1 Cu0_3 3.046304 1_545
Cu0_1 Cu0_3 3.046304 1_555
Cu0_1 Cu0_5 3.046304 1_555
Cu0_2 Sn2_2 2.609556 1_555
Cu0_2 Y1_2 2.813344 1_555
Cu0_2 Cu0_6 3.046304 1_455
Cu0_2 Cu0_6 3.046304 1_555
Cu0_3 Sn2_3 2.609556 1_555
Cu0_3 Y1_3 2.813344 1_555
Cu0_3 Cu0_7 3.046304 1_455
Cu0_3 Cu0_7 3.046304 1_555
Cu0_4 Sn2_4 2.609556 1_555
Cu0_4 Y1_4 2.813344 1_555
Cu0_4 Cu0_6 3.046304 1_545
Cu0_4 Cu0_6 3.046304 1_555
Cu0_5 Sn2_5 2.609556 1_555
Cu0_5 Y1_5 2.813344 1_555
Cu0_5 Cu0_7 3.046304 1_545
Cu0_5 Cu0_7 3.046304 1_555
Cu0_6 Sn2_6 2.609556 1_555
Cu0_6 Y1_6 2.813344 1_555
Cu0_7 Sn2_7 2.609556 1_555
Cu0_7 Y1_7 2.813344 1_555
Cu1_0 Sn2_1 2.609556 1_555
Cu1_0 Y0_0 2.813344 1_555
Cu1_0 Cu1_2 3.046304 1_545
Cu1_0 Cu1_4 3.046304 1_455
Cu1_0 Cu1_4 3.046304 1_555
Cu1_0 Cu1_2 3.046304 1_555
Cu1_1 Sn2_0 2.609556 1_556
Cu1_1 Y0_1 2.813344 1_555
Cu1_1 Cu1_5 3.046304 1_455
Cu1_1 Cu1_3 3.046304 1_545
Cu1_1 Cu1_3 3.046304 1_555
Cu1_1 Cu1_5 3.046304 1_555
Cu1_2 Sn2_3 2.609556 1_555
Cu1_2 Y0_2 2.813344 1_555
Cu1_2 Cu1_6 3.046304 1_455
Cu1_2 Cu1_6 3.046304 1_555
Cu1_3 Sn2_2 2.609556 1_556
Cu1_3 Y0_3 2.813344 1_555
Cu1_3 Cu1_7 3.046304 1_455
Cu1_3 Cu1_7 3.046304 1_555
Cu1_4 Sn2_5 2.609556 1_555
Cu1_4 Y0_4 2.813344 1_555
Cu1_4 Cu1_6 3.046304 1_545
Cu1_4 Cu1_6 3.046304 1_555
Cu1_5 Sn2_4 2.609556 1_556
Cu1_5 Y0_5 2.813344 1_555
Cu1_5 Cu1_7 3.046304 1_545
Cu1_5 Cu1_7 3.046304 1_555
Cu1_6 Sn2_7 2.609556 1_555
Cu1_6 Y0_6 2.813344 1_555
Cu1_7 Sn2_6 2.609556 1_556
Cu1_7 Y0_7 2.813344 1_555
Cu2_0 Sn0_0 2.534363 1_555
Cu2_0 Sn1_0 2.534363 1_555
Cu2_0 Cu2_4 3.046304 1_455
Cu2_0 Cu2_2 3.046304 1_545
Cu2_0 Cu2_2 3.046304 1_555
Cu2_0 Cu2_4 3.046304 1_555
Cu2_1 Sn1_1 2.534363 1_555
Cu2_1 Sn0_1 2.534363 1_555
Cu2_1 Cu2_5 3.046304 1_455
Cu2_1 Cu2_3 3.046304 1_545
Cu2_1 Cu2_5 3.046304 1_555
Cu2_1 Cu2_3 3.046304 1_555
Cu2_2 Sn0_2 2.534363 1_555
Cu2_2 Sn1_2 2.534363 1_555
Cu2_2 Cu2_6 3.046304 1_455
Cu2_2 Cu2_6 3.046304 1_555
Cu2_3 Sn1_3 2.534363 1_555
Cu2_3 Sn0_3 2.534363 1_555
Cu2_3 Cu2_7 3.046304 1_455
Cu2_3 Cu2_7 3.046304 1_555
Cu2_4 Sn0_4 2.534363 1_555
Cu2_4 Sn1_4 2.534363 1_555
Cu2_4 Cu2_6 3.046304 1_545
Cu2_4 Cu2_6 3.046304 1_555
Cu2_5 Sn1_5 2.534363 1_555
Cu2_5 Sn0_5 2.534363 1_555
Cu2_5 Cu2_7 3.046304 1_545
Cu2_5 Cu2_7 3.046304 1_555
Cu2_6 Sn0_6 2.534363 1_555
Cu2_6 Sn1_6 2.534363 1_555
Cu2_7 Sn1_7 2.534363 1_555
Cu2_7 Sn0_7 2.534363 1_555
Sn0_0 Sn0_4 3.046304 1_455
Sn0_0 Sn0_2 3.046304 1_545
Sn0_0 Sn0_2 3.046304 1_555
Sn0_0 Sn0_4 3.046304 1_555
Sn0_0 Y1_0 3.172617 1_555
Sn0_1 Sn0_5 3.046304 1_455
Sn0_1 Sn0_3 3.046304 1_545
Sn0_1 Sn0_5 3.046304 1_555
Sn0_1 Sn0_3 3.046304 1_555
Sn0_1 Y1_1 3.172617 1_555
Sn0_2 Sn0_6 3.046304 1_455
Sn0_2 Sn0_6 3.046304 1_555
Sn0_2 Y1_2 3.172617 1_555
Sn0_3 Sn0_7 3.046304 1_455
Sn0_3 Sn0_7 3.046304 1_555
Sn0_3 Y1_3 3.172617 1_555
Sn0_4 Sn0_6 3.046304 1_545
Sn0_4 Sn0_6 3.046304 1_555
Sn0_4 Y1_4 3.172617 1_555
Sn0_5 Sn0_7 3.046304 1_545
Sn0_5 Sn0_7 3.046304 1_555
Sn0_5 Y1_5 3.172617 1_555
Sn0_6 Y1_6 3.172617 1_555
Sn0_7 Y1_7 3.172617 1_555
Sn1_0 Sn1_4 3.046304 1_455
Sn1_0 Sn1_2 3.046304 1_545
Sn1_0 Sn1_2 3.046304 1_555
Sn1_0 Sn1_4 3.046304 1_555
Sn1_0 Y0_0 3.172617 1_555
Sn1_1 Sn1_5 3.046304 1_455
Sn1_1 Sn1_3 3.046304 1_545
Sn1_1 Sn1_3 3.046304 1_555
Sn1_1 Sn1_5 3.046304 1_555
Sn1_1 Y0_1 3.172617 1_555
Sn1_2 Sn1_6 3.046304 1_455
Sn1_2 Sn1_6 3.046304 1_555
Sn1_2 Y0_2 3.172617 1_555
Sn1_3 Sn1_7 3.046304 1_455
Sn1_3 Sn1_7 3.046304 1_555
Sn1_3 Y0_3 3.172617 1_555
Sn1_4 Sn1_6 3.046304 1_545
Sn1_4 Sn1_6 3.046304 1_555
Sn1_4 Y0_4 3.172617 1_555
Sn1_5 Sn1_7 3.046304 1_545
Sn1_5 Sn1_7 3.046304 1_555
Sn1_5 Y0_5 3.172617 1_555
Sn1_6 Y0_6 3.172617 1_555
Sn1_7 Y0_7 3.172617 1_555
Sn2_0 Sn2_2 3.046304 1_545
Sn2_0 Sn2_4 3.046304 1_455
Sn2_0 Sn2_4 3.046304 1_555
Sn2_0 Sn2_2 3.046304 1_555
Sn2_1 Sn2_3 3.046304 1_545
Sn2_1 Sn2_5 3.046304 1_455
Sn2_1 Sn2_3 3.046304 1_555
Sn2_1 Sn2_5 3.046304 1_555
Sn2_2 Sn2_6 3.046304 1_455
Sn2_2 Sn2_6 3.046304 1_555
Sn2_3 Sn2_7 3.046304 1_455
Sn2_3 Sn2_7 3.046304 1_555
Sn2_4 Sn2_6 3.046304 1_545
Sn2_4 Sn2_6 3.046304 1_555
Sn2_5 Sn2_7 3.046304 1_545
Sn2_5 Sn2_7 3.046304 1_555
