# generated using pymatgen
data_AlV(WO4)2
_symmetry_space_group_name_H-M   'P 1'
_cell_length_a   5.13755458
_cell_length_b   5.55013401
_cell_length_c   9.20360353
_cell_angle_alpha   90.00359630
_cell_angle_beta   90.34321271
_cell_angle_gamma   89.99609762
_symmetry_Int_Tables_number   1
_chemical_formula_structural   AlV(WO4)2
_chemical_formula_sum   'Al2 V2 W4 O16'
_cell_volume   262.42791248
_cell_formula_units_Z   2
loop_
 _symmetry_equiv_pos_site_id
 _symmetry_equiv_pos_as_xyz
  1  'x, y, z'
loop_
 _atom_site_type_symbol
 _atom_site_label
 _atom_site_symmetry_multiplicity
 _atom_site_fract_x
 _atom_site_fract_y
 _atom_site_fract_z
 _atom_site_occupancy
  Al  Al0  1  0.24999400  0.65528000  0.24995700  1
  Al  Al1  1  0.74999300  0.34487000  0.75004400  1
  V  V0  1  0.75009400  0.35945600  0.25017500  1
  V  V1  1  0.24988300  0.64042300  0.74984000  1
  W  W0  1  0.75390100  0.83637100  0.49881300  1
  W  W1  1  0.74613600  0.83634300  0.00118400  1
  W  W2  1  0.24612600  0.16377000  0.50116400  1
  W  W3  1  0.25385400  0.16380800  0.99884300  1
  O  O0  1  0.39702300  0.38561800  0.13377200  1
  O  O1  1  0.10305100  0.38561700  0.36628100  1
  O  O2  1  0.60247500  0.61612100  0.86530500  1
  O  O3  1  0.89738500  0.61604500  0.63457700  1
  O  O4  1  0.40730100  0.87820800  0.60903900  1
  O  O5  1  0.09275000  0.87814200  0.89094100  1
  O  O6  1  0.59235900  0.12055800  0.39041000  1
  O  O7  1  0.90761200  0.12062800  0.10962500  1
  O  O8  1  0.93186400  0.62614500  0.14263200  1
  O  O9  1  0.56811400  0.62622100  0.35741400  1
  O  O10  1  0.06709100  0.37272600  0.85713300  1
  O  O11  1  0.43293900  0.37266500  0.64284400  1
  O  O12  1  0.41646100  0.87716200  0.11924800  1
  O  O13  1  0.58340700  0.12333400  0.88112200  1
  O  O14  1  0.08357300  0.87717000  0.38075400  1
  O  O15  1  0.91661100  0.12331800  0.61888500  1
loop_
_geom_bond_atom_site_label_1
_geom_bond_atom_site_label_2
_geom_bond_distance
_geom_bond_site_symmetry_2
Al0 O8 1.911497 1_455
Al0 O9 1.912032 1_555
Al0 O12 1.925566 1_555
Al0 O14 1.925826 1_555
Al0 O0 1.990815 1_555
Al0 O1 1.991519 1_555
Al1 O10 1.905280 1_655
Al1 O11 1.905576 1_555
Al1 O13 1.926746 1_555
Al1 O15 1.927174 1_555
Al1 O2 1.993856 1_555
Al1 O3 1.994482 1_555
O0 W3 1.894123 1_554
O0 V0 2.106143 1_555
O1 W2 1.893830 1_555
O1 V0 2.104273 1_455
O2 W1 1.895120 1_556
O2 V1 2.099005 1_555
O3 W0 1.894483 1_555
O3 V1 2.097693 1_655
O4 V1 2.021877 1_555
O4 W2 2.042912 1_565
O4 W0 2.067715 1_555
O5 V1 2.022647 1_555
O5 W3 2.043324 1_565
O5 W1 2.067872 1_456
O6 V0 2.023233 1_555
O6 W0 2.040119 1_545
O6 W2 2.069371 1_555
O7 V0 2.024207 1_555
O7 W1 2.040563 1_545
O7 W3 2.069561 1_654
O8 W1 1.987817 1_555
O8 V0 2.013472 1_555
O9 W0 1.987491 1_555
O9 V0 2.012720 1_555
O10 W3 1.987772 1_555
O10 V1 2.018907 1_555
O11 W2 1.987621 1_555
O11 V1 2.018264 1_555
O12 W1 2.030448 1_555
O12 W3 2.108531 1_564
O13 W3 2.028007 1_555
O13 W1 2.108574 1_546
O14 W0 2.030439 1_455
O14 W2 2.108234 1_565
O15 W2 2.027870 1_655
O15 W0 2.108380 1_545
