# generated using pymatgen
data_TmH9C5(NO4)2
_symmetry_space_group_name_H-M   'P 1'
_cell_length_a   6.67449919
_cell_length_b   6.67449919
_cell_length_c   6.62915682
_cell_angle_alpha   75.32164931
_cell_angle_beta   75.32164931
_cell_angle_gamma   66.11525354
_symmetry_Int_Tables_number   1
_chemical_formula_structural   TmH9C5(NO4)2
_chemical_formula_sum   'Tm1 H9 C5 N2 O8'
_cell_volume   257.39420932
_cell_formula_units_Z   1
loop_
 _symmetry_equiv_pos_site_id
 _symmetry_equiv_pos_as_xyz
  1  'x, y, z'
loop_
 _atom_site_type_symbol
 _atom_site_label
 _atom_site_symmetry_multiplicity
 _atom_site_fract_x
 _atom_site_fract_y
 _atom_site_fract_z
 _atom_site_occupancy
  Tm  Tm0  1  0.54913700  0.45086300  0.00000000  1
  H  H0  1  0.73924300  0.81151100  0.57655700  1
  H  H1  1  0.18848900  0.26075700  0.42344300  1
  H  H2  1  0.02413200  0.71956800  0.46397400  1
  H  H3  1  0.28043200  0.97586800  0.53602600  1
  H  H4  1  0.98865900  0.99764500  0.18364900  1
  H  H5  1  0.00235500  0.01134100  0.81635100  1
  H  H6  1  0.39164200  0.98368600  0.12820700  1
  H  H7  1  0.01631400  0.60835800  0.87179300  1
  H  H8  1  0.63364500  0.36635500  0.50000000  1
  C  C0  1  0.83469800  0.99355000  0.29254100  1
  C  C1  1  0.00645000  0.16530200  0.70745900  1
  C  C2  1  0.49319600  0.97779000  0.96760300  1
  C  C3  1  0.02221000  0.50680400  0.03239700  1
  C  C4  1  0.48242600  0.51757400  0.50000000  1
  N  N0  1  0.86511400  0.82873400  0.45572100  1
  N  N1  1  0.17126600  0.13488600  0.54427900  1
  O  O0  1  0.40427600  0.60249900  0.66818800  1
  O  O1  1  0.39750100  0.59572400  0.33181200  1
  O  O2  1  0.53731900  0.80701400  0.88645500  1
  O  O3  1  0.19298600  0.46268100  0.11354500  1
  O  O4  1  0.64883800  0.13775400  0.25755800  1
  O  O5  1  0.86224600  0.35116200  0.74244200  1
  O  O6  1  0.86302600  0.44291900  0.12277400  1
  O  O7  1  0.55708100  0.13697400  0.87722600  1
loop_
_geom_bond_atom_site_label_1
_geom_bond_atom_site_label_2
_geom_bond_distance
_geom_bond_site_symmetry_2
H0 N0 1.025271 1_555
H1 N1 1.025271 1_555
H2 N0 1.021453 1_455
H3 N1 1.021453 1_565
C0 H4 1.102105 1_555
C0 O4 1.258909 1_565
C0 N0 1.322462 1_555
C1 H5 1.102105 1_555
C1 O5 1.258909 1_455
C1 N1 1.322462 1_555
C2 H6 1.108341 1_556
C2 O7 1.258739 1_565
C2 O2 1.278273 1_555
C3 H7 1.108341 1_554
C3 O6 1.258739 1_455
C3 O3 1.278273 1_555
C4 H8 1.101123 1_555
C4 O0 1.273813 1_555
C4 O1 1.273813 1_555
O0 Tm0 2.440230 1_556
O1 Tm0 2.440230 1_555
O2 Tm0 2.279255 1_556
O3 Tm0 2.279255 1_555
O4 Tm0 2.316634 1_555
O5 Tm0 2.316634 1_556
O6 Tm0 2.409726 1_555
O7 Tm0 2.409726 1_556
