# generated using pymatgen
data_LiNdO2
_symmetry_space_group_name_H-M   'P 1'
_cell_length_a   5.75474689
_cell_length_b   5.75218021
_cell_length_c   6.08976197
_cell_angle_alpha   90.00000000
_cell_angle_beta   90.00000000
_cell_angle_gamma   102.44505861
_symmetry_Int_Tables_number   1
_chemical_formula_structural   LiNdO2
_chemical_formula_sum   'Li4 Nd4 O8'
_cell_volume   196.84874783
_cell_formula_units_Z   4
loop_
 _symmetry_equiv_pos_site_id
 _symmetry_equiv_pos_as_xyz
  1  'x, y, z'
loop_
 _atom_site_type_symbol
 _atom_site_label
 _atom_site_symmetry_multiplicity
 _atom_site_fract_x
 _atom_site_fract_y
 _atom_site_fract_z
 _atom_site_occupancy
  Li  Li0  1  0.81733717  0.33692247  0.35855759  1
  Li  Li1  1  0.68266283  0.66307753  0.85855759  1
  Li  Li2  1  0.18266283  0.66307753  0.64144241  1
  Li  Li3  1  0.31733717  0.33692247  0.14144241  1
  Nd  Nd0  1  0.80256487  0.20107527  0.93013410  1
  Nd  Nd1  1  0.69743513  0.79892473  0.43013410  1
  Nd  Nd2  1  0.19743513  0.79892473  0.06986590  1
  Nd  Nd3  1  0.30256487  0.20107527  0.56986590  1
  O  O0  1  0.51682519  0.08997053  0.23860431  1
  O  O1  1  0.98317481  0.91002947  0.73860431  1
  O  O2  1  0.48317481  0.91002947  0.76139569  1
  O  O3  1  0.01682519  0.08997053  0.26139569  1
  O  O4  1  0.79518114  0.57304985  0.13128474  1
  O  O5  1  0.70481886  0.42695015  0.63128474  1
  O  O6  1  0.20481886  0.42695015  0.86871526  1
  O  O7  1  0.29518114  0.57304985  0.36871526  1
loop_
_geom_bond_atom_site_label_1
_geom_bond_atom_site_label_2
_geom_bond_distance
_geom_bond_site_symmetry_2
Li0 O5 1.894828 1_555
Li0 O4 1.962471 1_555
Li0 O3 2.094930 1_655
Li0 O0 2.117399 1_555
Li1 O4 1.894828 1_556
Li1 O5 1.962471 1_555
Li1 O2 2.094930 1_555
Li1 O1 2.117399 1_555
Li2 O7 1.894828 1_555
Li2 O6 1.962471 1_555
Li2 O1 2.094930 1_455
Li2 O2 2.117399 1_555
Li3 O6 1.894828 1_554
Li3 O7 1.962471 1_555
Li3 O0 2.094930 1_555
Li3 O3 2.117399 1_555
Nd0 O5 2.373106 1_555
Nd0 O6 2.426997 1_655
Nd0 O2 2.431196 1_545
Nd0 O1 2.448151 1_545
Nd0 O4 2.473799 1_556
Nd0 O0 2.487612 1_556
Nd0 O3 2.517523 1_656
Nd1 O4 2.373106 1_555
Nd1 O7 2.426997 1_555
Nd1 O3 2.431196 1_665
Nd1 O0 2.448151 1_565
Nd1 O5 2.473799 1_555
Nd1 O1 2.487612 1_555
Nd1 O2 2.517523 1_555
Nd2 O7 2.373106 1_555
Nd2 O4 2.426997 1_455
Nd2 O0 2.431196 1_565
Nd2 O3 2.448151 1_565
Nd2 O6 2.473799 1_554
Nd2 O2 2.487612 1_554
Nd2 O1 2.517523 1_454
Nd3 O6 2.373106 1_555
Nd3 O5 2.426997 1_555
Nd3 O1 2.431196 1_445
Nd3 O2 2.448151 1_545
Nd3 O7 2.473799 1_555
Nd3 O3 2.487612 1_555
Nd3 O0 2.517523 1_555
