# generated using pymatgen
data_ThCd11
_symmetry_space_group_name_H-M   'P 1'
_cell_length_a   9.32349223
_cell_length_b   9.32349223
_cell_length_c   9.32349120
_cell_angle_alpha   90.00000000
_cell_angle_beta   90.00000000
_cell_angle_gamma   90.00000000
_symmetry_Int_Tables_number   1
_chemical_formula_structural   ThCd11
_chemical_formula_sum   'Th3 Cd33'
_cell_volume   810.46784994
_cell_formula_units_Z   3
loop_
 _symmetry_equiv_pos_site_id
 _symmetry_equiv_pos_as_xyz
  1  'x, y, z'
loop_
 _atom_site_type_symbol
 _atom_site_label
 _atom_site_symmetry_multiplicity
 _atom_site_fract_x
 _atom_site_fract_y
 _atom_site_fract_z
 _atom_site_occupancy
  Th  Th0  1  0.50000000  0.00000000  -0.00000000  1
  Th  Th1  1  0.00000000  0.00000000  0.50000000  1
  Th  Th2  1  0.00000000  0.50000000  -0.00000000  1
  Cd  Cd0  1  0.50000000  0.50000000  0.50000000  1
  Cd  Cd1  1  0.15568171  0.15567971  0.84432129  1
  Cd  Cd2  1  0.15568171  0.84432029  0.15567871  1
  Cd  Cd3  1  0.84431829  0.15567971  0.15567871  1
  Cd  Cd4  1  0.84431829  0.84432029  0.84432129  1
  Cd  Cd5  1  0.84431829  0.84432029  0.15567871  1
  Cd  Cd6  1  0.84431829  0.15567971  0.84432129  1
  Cd  Cd7  1  0.15568171  0.84432029  0.84432129  1
  Cd  Cd8  1  0.15568171  0.15567971  0.15567871  1
  Cd  Cd9  1  0.00000000  0.34469474  0.65530726  1
  Cd  Cd10  1  0.34469474  0.34469274  -0.00000000  1
  Cd  Cd11  1  0.34469574  0.00000000  0.65530826  1
  Cd  Cd12  1  0.00000000  0.65530526  0.34469274  1
  Cd  Cd13  1  0.34469474  0.65530726  -0.00000000  1
  Cd  Cd14  1  0.34469574  0.00000000  0.34469274  1
  Cd  Cd15  1  0.00000000  0.34469474  0.34469274  1
  Cd  Cd16  1  0.65530526  0.34469274  -0.00000000  1
  Cd  Cd17  1  0.65530426  0.00000000  0.34469274  1
  Cd  Cd18  1  0.00000000  0.65530526  0.65530726  1
  Cd  Cd19  1  0.65530526  0.65530726  -0.00000000  1
  Cd  Cd20  1  0.65530426  0.00000000  0.65530826  1
  Cd  Cd21  1  0.50000000  0.26570610  0.73429490  1
  Cd  Cd22  1  0.26570810  0.26570710  0.50000000  1
  Cd  Cd23  1  0.26570810  0.50000000  0.73429390  1
  Cd  Cd24  1  0.50000000  0.73429390  0.26570510  1
  Cd  Cd25  1  0.26570810  0.73429290  0.50000000  1
  Cd  Cd26  1  0.26570810  0.50000000  0.26570610  1
  Cd  Cd27  1  0.50000000  0.26570610  0.26570510  1
  Cd  Cd28  1  0.73429190  0.26570710  0.50000000  1
  Cd  Cd29  1  0.73429190  0.50000000  0.26570610  1
  Cd  Cd30  1  0.50000000  0.73429390  0.73429490  1
  Cd  Cd31  1  0.73429190  0.73429290  0.50000000  1
  Cd  Cd32  1  0.73429190  0.50000000  0.73429390  1
loop_
_geom_bond_atom_site_label_1
_geom_bond_atom_site_label_2
_geom_bond_distance
_geom_bond_site_symmetry_2
Cd0 Cd25 3.089241 1_555
Cd0 Cd31 3.089241 1_555
Cd0 Cd28 3.089241 1_555
Cd0 Cd22 3.089241 1_555
Cd0 Cd32 3.089248 1_555
Cd0 Cd23 3.089248 1_555
Cd0 Cd29 3.089248 1_555
Cd0 Cd26 3.089248 1_555
Cd0 Cd30 3.089267 1_555
Cd0 Cd21 3.089267 1_555
Cd0 Cd24 3.089267 1_555
Cd0 Cd27 3.089267 1_555
Cd1 Cd10 2.884076 1_556
Cd1 Cd11 2.884086 1_555
Cd1 Cd9 2.884107 1_555
Cd1 Cd8 2.902938 1_556
Cd1 Cd7 2.902957 1_545
Cd1 Cd6 2.902994 1_455
Cd1 Th0 3.810413 1_556
Cd1 Th2 3.810436 1_556
Cd1 Th1 3.810447 1_555
Cd2 Cd7 2.902938 1_554
Cd2 Cd8 2.902957 1_565
Cd2 Cd5 2.902994 1_455
Cd2 Th0 3.810413 1_565
Cd2 Th2 3.810436 1_555
Cd2 Th1 3.810447 1_565
Cd3 Cd6 2.902938 1_554
Cd3 Cd5 2.902957 1_545
Cd3 Cd8 2.902994 1_655
Cd3 Th0 3.810413 1_555
Cd3 Th2 3.810436 1_655
Cd3 Th1 3.810447 1_655
Cd4 Cd5 2.902938 1_556
Cd4 Cd6 2.902957 1_565
Cd4 Cd7 2.902994 1_655
Cd4 Th0 3.810413 1_566
Cd4 Th2 3.810436 1_656
Cd4 Th1 3.810447 1_665
Cd5 Th0 3.810413 1_565
Cd5 Th2 3.810436 1_655
Cd5 Th1 3.810447 1_665
Cd6 Cd9 2.884107 1_655
Cd6 Th0 3.810413 1_556
Cd6 Th2 3.810436 1_656
Cd6 Th1 3.810447 1_655
Cd7 Th0 3.810413 1_566
Cd7 Th2 3.810436 1_556
Cd7 Th1 3.810447 1_565
Cd8 Th0 3.810413 1_555
Cd8 Th2 3.810436 1_555
Cd8 Th1 3.810447 1_555
Cd9 Th2 3.524882 1_556
Cd9 Th1 3.524907 1_555
Cd10 Cd8 2.884076 1_555
Cd10 Cd16 2.895975 1_555
Cd10 Cd13 2.896012 1_555
Cd10 Cd27 2.962433 1_555
Cd10 Cd21 2.962433 1_554
Cd10 Cd26 2.962450 1_555
Cd10 Cd23 2.962450 1_554
Cd10 Th0 3.524882 1_555
Cd10 Th2 3.524907 1_555
Cd11 Cd7 2.884086 1_545
Cd11 Cd20 2.895956 1_555
Cd11 Cd14 2.896021 1_555
Cd11 Cd21 2.962437 1_555
Cd11 Cd30 2.962437 1_545
Cd11 Cd22 2.962465 1_555
Cd11 Cd25 2.962465 1_545
Cd11 Th0 3.524869 1_556
Cd11 Th1 3.524919 1_555
Cd12 Cd5 2.884107 1_455
Cd12 Cd2 2.884107 1_555
Cd12 Cd15 2.895975 1_555
Cd12 Cd18 2.896012 1_555
Cd12 Cd29 2.962457 1_455
Cd12 Cd26 2.962457 1_555
Cd12 Cd31 2.962468 1_455
Cd12 Cd25 2.962468 1_555
Cd12 Th2 3.524882 1_555
Cd12 Th1 3.524907 1_565
Cd13 Cd7 2.884076 1_554
Cd13 Cd2 2.884076 1_555
Cd13 Cd19 2.895975 1_555
Cd13 Cd24 2.962433 1_555
Cd13 Cd30 2.962433 1_554
Cd13 Cd26 2.962450 1_555
Cd13 Cd23 2.962450 1_554
Cd13 Th0 3.524882 1_565
Cd13 Th2 3.524907 1_555
Cd14 Cd8 2.884092 1_555
Cd14 Cd2 2.884092 1_545
Cd14 Cd17 2.895956 1_555
Cd14 Cd27 2.962439 1_555
Cd14 Cd24 2.962439 1_545
Cd14 Cd22 2.962460 1_555
Cd14 Cd25 2.962460 1_545
Cd14 Th0 3.524878 1_555
Cd14 Th1 3.524915 1_555
Cd15 Cd3 2.884107 1_455
Cd15 Cd8 2.884107 1_555
Cd15 Cd9 2.896012 1_555
Cd15 Cd29 2.962457 1_455
Cd15 Cd26 2.962457 1_555
Cd15 Cd28 2.962468 1_455
Cd15 Cd22 2.962468 1_555
Cd15 Th2 3.524882 1_555
Cd15 Th1 3.524907 1_555
Cd16 Cd6 2.884076 1_554
Cd16 Cd3 2.884076 1_555
Cd16 Cd19 2.896012 1_555
Cd16 Cd27 2.962433 1_555
Cd16 Cd21 2.962433 1_554
Cd16 Cd29 2.962450 1_555
Cd16 Cd32 2.962450 1_554
Cd16 Th0 3.524882 1_555
Cd16 Th2 3.524907 1_655
Cd17 Cd3 2.884092 1_555
Cd17 Cd5 2.884092 1_545
Cd17 Cd20 2.896021 1_555
Cd17 Cd27 2.962439 1_555
Cd17 Cd24 2.962439 1_545
Cd17 Cd28 2.962460 1_555
Cd17 Cd31 2.962460 1_545
Cd17 Th0 3.524878 1_555
Cd17 Th1 3.524915 1_655
Cd18 Cd4 2.884107 1_455
Cd18 Cd7 2.884107 1_555
Cd18 Cd9 2.895975 1_555
Cd18 Cd32 2.962457 1_455
Cd18 Cd23 2.962457 1_555
Cd18 Cd31 2.962468 1_455
Cd18 Cd25 2.962468 1_555
Cd18 Th2 3.524882 1_556
Cd18 Th1 3.524907 1_565
Cd19 Cd4 2.884076 1_554
Cd19 Cd5 2.884076 1_555
Cd19 Cd24 2.962433 1_555
Cd19 Cd30 2.962433 1_554
Cd19 Cd29 2.962450 1_555
Cd19 Cd32 2.962450 1_554
Cd19 Th0 3.524882 1_565
Cd19 Th2 3.524907 1_655
Cd20 Cd6 2.884086 1_555
Cd20 Cd4 2.884086 1_545
Cd20 Cd21 2.962437 1_555
Cd20 Cd30 2.962437 1_545
Cd20 Cd28 2.962465 1_555
Cd20 Cd31 2.962465 1_545
Cd20 Th0 3.524869 1_556
Cd20 Th1 3.524919 1_655
Cd21 Cd32 3.089248 1_555
Cd21 Cd23 3.089248 1_555
Cd21 Cd22 3.089254 1_555
Cd21 Cd28 3.089254 1_555
Cd21 Th0 3.503437 1_556
Cd22 Cd9 2.962468 1_555
Cd22 Cd23 3.089254 1_555
Cd22 Cd26 3.089254 1_555
Cd22 Cd27 3.089254 1_555
Cd22 Th1 3.503463 1_555
Cd23 Cd9 2.962457 1_555
Cd23 Cd30 3.089248 1_555
Cd23 Cd25 3.089254 1_555
Cd23 Th2 3.503457 1_556
Cd24 Cd26 3.089248 1_555
Cd24 Cd29 3.089248 1_555
Cd24 Cd25 3.089254 1_555
Cd24 Cd31 3.089254 1_555
Cd24 Th0 3.503437 1_565
Cd25 Cd26 3.089254 1_555
Cd25 Cd30 3.089254 1_555
Cd25 Th1 3.503463 1_565
Cd26 Cd27 3.089248 1_555
Cd26 Th2 3.503457 1_555
Cd27 Cd29 3.089248 1_555
Cd27 Cd28 3.089254 1_555
Cd27 Th0 3.503437 1_555
Cd28 Cd9 2.962468 1_655
Cd28 Cd32 3.089254 1_555
Cd28 Cd29 3.089254 1_555
Cd28 Th1 3.503463 1_655
Cd29 Cd31 3.089254 1_555
Cd29 Th2 3.503457 1_655
Cd30 Cd32 3.089248 1_555
Cd30 Cd31 3.089254 1_555
Cd30 Th0 3.503437 1_566
Cd31 Cd32 3.089254 1_555
Cd31 Th1 3.503463 1_665
Cd32 Cd9 2.962457 1_655
Cd32 Th2 3.503457 1_656
