# generated using pymatgen
data_MgFe2O5
_symmetry_space_group_name_H-M   'P 1'
_cell_length_a   3.77931500
_cell_length_b   5.63946685
_cell_length_c   10.93145100
_cell_angle_alpha   90.00000000
_cell_angle_beta   90.00000000
_cell_angle_gamma   109.57723507
_symmetry_Int_Tables_number   1
_chemical_formula_structural   MgFe2O5
_chemical_formula_sum   'Mg2 Fe4 O10'
_cell_volume   219.51679183
_cell_formula_units_Z   2
loop_
 _symmetry_equiv_pos_site_id
 _symmetry_equiv_pos_as_xyz
  1  'x, y, z'
loop_
 _atom_site_type_symbol
 _atom_site_label
 _atom_site_symmetry_multiplicity
 _atom_site_fract_x
 _atom_site_fract_y
 _atom_site_fract_z
 _atom_site_occupancy
  Mg  Mg0  1  0.88088800  0.76177600  0.75000000  1
  Mg  Mg1  1  0.11911300  0.23822500  0.25000000  1
  Fe  Fe0  1  0.20392900  0.40785800  0.59950000  1
  Fe  Fe1  1  0.79607200  0.59214300  0.40049900  1
  Fe  Fe2  1  0.79607200  0.59214300  0.09950100  1
  Fe  Fe3  1  0.20392900  0.40785800  0.90050000  1
  O  O0  1  0.69669600  0.39339200  0.25000000  1
  O  O1  1  0.30330500  0.60660900  0.75000000  1
  O  O2  1  0.23839200  0.47678200  0.07983100  1
  O  O3  1  0.76161000  0.52321900  0.92016900  1
  O  O4  1  0.76161000  0.52321900  0.57983100  1
  O  O5  1  0.23839200  0.47678200  0.42016800  1
  O  O6  1  0.04050200  0.08100200  0.65146100  1
  O  O7  1  0.95949800  0.91899700  0.34853900  1
  O  O8  1  0.04050200  0.08100200  0.84853900  1
  O  O9  1  0.95949800  0.91899700  0.15146200  1
loop_
_geom_bond_atom_site_label_1
_geom_bond_atom_site_label_2
_geom_bond_distance
_geom_bond_site_symmetry_2
Mg0 O8 2.009321 1_665
Mg0 O6 2.009321 1_665
Mg0 O1 2.061687 1_555
Mg0 O1 2.061690 1_655
Mg0 O3 2.251007 1_555
Mg0 O4 2.251007 1_555
Mg1 O9 2.009325 1_445
Mg1 O7 2.009330 1_445
Mg1 O0 2.061687 1_555
Mg1 O0 2.061690 1_455
Mg1 O5 2.250998 1_555
Mg1 O2 2.251007 1_555
Fe0 O6 1.827260 1_555
Fe0 O1 1.954963 1_555
Fe0 O5 1.994274 1_555
Fe0 O4 1.998188 1_455
Fe0 O4 1.998191 1_555
Fe1 O7 1.827247 1_555
Fe1 O0 1.954953 1_555
Fe1 O4 1.994274 1_555
Fe1 O5 1.998188 1_555
Fe1 O5 1.998191 1_655
Fe2 O9 1.827250 1_555
Fe2 O0 1.954953 1_555
Fe2 O3 1.994274 1_554
Fe2 O2 1.998189 1_555
Fe2 O2 1.998192 1_655
Fe3 O8 1.827260 1_555
Fe3 O1 1.954963 1_555
Fe3 O2 1.994263 1_556
Fe3 O3 1.998188 1_455
Fe3 O3 1.998191 1_555
