# generated using pymatgen
data_Sr2CeBiO6
_symmetry_space_group_name_H-M   'P 1'
_cell_length_a   6.03216940
_cell_length_b   6.22938287
_cell_length_c   8.65656709
_cell_angle_alpha   89.98396887
_cell_angle_beta   89.90805091
_cell_angle_gamma   90.00080486
_symmetry_Int_Tables_number   1
_chemical_formula_structural   Sr2CeBiO6
_chemical_formula_sum   'Sr4 Ce2 Bi2 O12'
_cell_volume   325.28473041
_cell_formula_units_Z   2
loop_
 _symmetry_equiv_pos_site_id
 _symmetry_equiv_pos_as_xyz
  1  'x, y, z'
loop_
 _atom_site_type_symbol
 _atom_site_label
 _atom_site_symmetry_multiplicity
 _atom_site_fract_x
 _atom_site_fract_y
 _atom_site_fract_z
 _atom_site_occupancy
  Sr  Sr0  1  0.51368894  0.55065198  0.25006813  1
  Sr  Sr1  1  0.98639975  0.05068715  0.25004971  1
  Sr  Sr2  1  0.48631106  0.44934802  0.74993187  1
  Sr  Sr3  1  0.01360025  0.94931285  0.74995029  1
  Ce  Ce0  1  0.50000000  -0.00000000  -0.00000000  1
  Ce  Ce1  1  0.00000000  0.50000000  0.50000000  1
  Bi  Bi0  1  0.00000000  0.50000000  -0.00000000  1
  Bi  Bi1  1  0.50000000  -0.00000000  0.50000000  1
  O  O0  1  0.20027557  0.19986640  0.94561282  1
  O  O1  1  0.29952178  0.69968431  0.55452109  1
  O  O2  1  0.79972443  0.80013360  0.05438718  1
  O  O3  1  0.70047822  0.30031569  0.44547891  1
  O  O4  1  0.30200274  0.70236788  0.94340802  1
  O  O5  1  0.19787034  0.20262374  0.55672427  1
  O  O6  1  0.69799726  0.29763212  0.05659198  1
  O  O7  1  0.80212966  0.79737626  0.44327573  1
  O  O8  1  0.39635540  0.95793917  0.24895275  1
  O  O9  1  0.10354116  0.45797646  0.25083213  1
  O  O10  1  0.60364460  0.04206083  0.75104725  1
  O  O11  1  0.89645884  0.54202354  0.74916787  1
loop_
_geom_bond_atom_site_label_1
_geom_bond_atom_site_label_2
_geom_bond_distance
_geom_bond_site_symmetry_2
Ce0 O0 2.245681 1_554
Ce0 O2 2.245681 1_545
Ce0 O10 2.258149 1_554
Ce0 O8 2.258149 1_545
Ce0 O6 2.259724 1_555
Ce0 O4 2.259724 1_544
Ce1 O3 2.244431 1_455
Ce1 O1 2.244431 1_555
Ce1 O7 2.258063 1_455
Ce1 O5 2.258063 1_555
Ce1 O11 2.259869 1_455
Ce1 O9 2.259869 1_555
Bi0 O4 2.268173 1_554
Bi0 O6 2.268173 1_455
Bi0 O0 2.274965 1_554
Bi0 O2 2.274965 1_455
Bi0 O9 2.275391 1_555
Bi0 O11 2.275391 1_454
Bi1 O5 2.270100 1_555
Bi1 O7 2.270100 1_545
Bi1 O1 2.276540 1_545
Bi1 O3 2.276540 1_555
Bi1 O8 2.277506 1_545
Bi1 O10 2.277506 1_555
O0 Sr3 2.565244 1_545
O0 Sr2 2.872418 1_555
O0 Sr1 3.075864 1_456
O1 Sr2 2.562726 1_555
O1 Sr3 2.871758 1_555
O1 Sr0 3.076898 1_555
O2 Sr1 2.565244 1_565
O2 Sr0 2.872418 1_555
O2 Sr3 3.075864 1_654
O3 Sr0 2.562726 1_555
O3 Sr1 2.871758 1_555
O3 Sr2 3.076898 1_555
O4 Sr2 2.553617 1_555
O4 Sr3 2.864521 1_555
O4 Sr0 3.095204 1_556
O5 Sr3 2.552621 1_545
O5 Sr2 2.863132 1_555
O5 Sr1 3.095636 1_455
O6 Sr0 2.553617 1_555
O6 Sr1 2.864521 1_555
O6 Sr2 3.095204 1_554
O7 Sr1 2.552621 1_565
O7 Sr0 2.863132 1_555
O7 Sr3 3.095636 1_655
O8 Sr1 2.539530 1_465
O8 Sr0 2.634050 1_555
O9 Sr0 2.540534 1_555
O9 Sr1 2.633726 1_455
O10 Sr3 2.539530 1_645
O10 Sr2 2.634050 1_555
O11 Sr2 2.540534 1_555
O11 Sr3 2.633726 1_655
