# generated using pymatgen
data_TlC4S4N
_symmetry_space_group_name_H-M   'P 1'
_cell_length_a   7.42403900
_cell_length_b   9.21521007
_cell_length_c   10.09497532
_cell_angle_alpha   116.83135572
_cell_angle_beta   91.98131827
_cell_angle_gamma   99.09078281
_symmetry_Int_Tables_number   1
_chemical_formula_structural   TlC4S4N
_chemical_formula_sum   'Tl2 C8 S8 N2'
_cell_volume   604.13236487
_cell_formula_units_Z   2
loop_
 _symmetry_equiv_pos_site_id
 _symmetry_equiv_pos_as_xyz
  1  'x, y, z'
loop_
 _atom_site_type_symbol
 _atom_site_label
 _atom_site_symmetry_multiplicity
 _atom_site_fract_x
 _atom_site_fract_y
 _atom_site_fract_z
 _atom_site_occupancy
  Tl  Tl0  1  0.23505500  0.83283100  0.56224200  1
  Tl  Tl1  1  0.76494500  0.16716900  0.43775800  1
  C  C0  1  0.11099500  0.79242500  0.97983600  1
  C  C1  1  0.88900500  0.20757500  0.02016400  1
  C  C2  1  0.98661300  0.73093100  0.06823300  1
  C  C3  1  0.01338700  0.26906900  0.93176700  1
  C  C4  1  0.24524800  0.86073600  0.90212500  1
  C  C5  1  0.75475200  0.13926400  0.09787500  1
  C  C6  1  0.75179200  0.64359800  0.24040500  1
  C  C7  1  0.24820800  0.35640200  0.75959500  1
  S  S0  1  0.58844000  0.05571800  0.19218900  1
  S  S1  1  0.41156000  0.94428200  0.80781100  1
  S  S2  1  0.64775400  0.82051100  0.62858200  1
  S  S3  1  0.35224600  0.17948900  0.37141800  1
  S  S4  1  0.64871500  0.62265900  0.37112300  1
  S  S5  1  0.35128500  0.37734100  0.62887700  1
  S  S6  1  0.79662100  0.66996900  0.60893600  1
  S  S7  1  0.20337900  0.33003100  0.39106400  1
  N  N0  1  0.87360900  0.67994100  0.15810000  1
  N  N1  1  0.12639100  0.32005900  0.84190000  1
loop_
_geom_bond_atom_site_label_1
_geom_bond_atom_site_label_2
_geom_bond_distance
_geom_bond_site_symmetry_2
C0 C4 1.518786 1_555
C0 C2 1.522584 1_456
C1 C5 1.518786 1_555
C1 C3 1.522584 1_654
C2 N0 1.435451 1_555
C3 N1 1.435451 1_555
C4 S1 1.861812 1_555
C5 S0 1.861812 1_555
C6 N0 1.351977 1_555
C6 S4 1.617774 1_555
C7 N1 1.351977 1_555
C7 S5 1.617774 1_555
S0 Tl1 2.443178 1_555
S0 S3 2.576390 1_555
S1 Tl0 2.443178 1_555
S1 S2 2.576390 1_555
S2 S6 1.853807 1_555
S2 S4 2.409756 1_555
S2 Tl0 3.144122 1_555
S3 S7 1.853807 1_555
S3 S5 2.409756 1_555
S3 Tl1 3.144122 1_555
S4 S6 2.425046 1_555
S5 S7 2.425046 1_555
