# generated using pymatgen
data_Na2CoP2O7
_symmetry_space_group_name_H-M   'P 1'
_cell_length_a   6.54113102
_cell_length_b   10.61668851
_cell_length_c   9.49109066
_cell_angle_alpha   106.20585525
_cell_angle_beta   78.32586293
_cell_angle_gamma   74.97961650
_symmetry_Int_Tables_number   1
_chemical_formula_structural   Na2CoP2O7
_chemical_formula_sum   'Na8 Co4 P8 O28'
_cell_volume   583.87242106
_cell_formula_units_Z   4
loop_
 _symmetry_equiv_pos_site_id
 _symmetry_equiv_pos_as_xyz
  1  'x, y, z'
loop_
 _atom_site_type_symbol
 _atom_site_label
 _atom_site_symmetry_multiplicity
 _atom_site_fract_x
 _atom_site_fract_y
 _atom_site_fract_z
 _atom_site_occupancy
  Na  Na0  1  0.41676600  0.68571900  0.72389400  1
  Na  Na1  1  0.41591400  0.18623800  0.72379900  1
  Na  Na2  1  0.58358300  0.31424000  0.27621200  1
  Na  Na3  1  0.58393200  0.81377800  0.27633100  1
  Na  Na4  1  0.25785200  0.55305000  0.96886200  1
  Na  Na5  1  0.25640600  0.05350600  0.96941300  1
  Na  Na6  1  0.74248500  0.44724200  0.03142000  1
  Na  Na7  1  0.74272400  0.94692400  0.03116300  1
  Co  Co0  1  0.76751600  0.36180200  0.63165200  1
  Co  Co1  1  0.23239100  0.63812800  0.36848000  1
  Co  Co2  1  0.76678000  0.86215500  0.63144900  1
  Co  Co3  1  0.23309900  0.13804000  0.36826600  1
  P  P0  1  0.22884300  0.43228200  0.60950100  1
  P  P1  1  0.22891000  0.93211600  0.60898100  1
  P  P2  1  0.77098800  0.56758100  0.39044900  1
  P  P3  1  0.77086000  0.06808600  0.39083300  1
  P  P4  1  0.80548800  0.64409900  0.86047600  1
  P  P5  1  0.80647300  0.14414200  0.86016300  1
  P  P6  1  0.19443700  0.35581800  0.13968000  1
  P  P7  1  0.19399400  0.85586400  0.13993500  1
  O  O0  1  0.11496100  0.32083500  0.57462100  1
  O  O1  1  0.11376900  0.82132900  0.57438600  1
  O  O2  1  0.88497400  0.67898700  0.42500700  1
  O  O3  1  0.88563900  0.17904600  0.42542100  1
  O  O4  1  0.27181300  0.49476000  0.48609600  1
  O  O5  1  0.27250400  0.99431400  0.48541800  1
  O  O6  1  0.72786400  0.50535800  0.51409600  1
  O  O7  1  0.72669200  0.00625400  0.51474200  1
  O  O8  1  0.43386000  0.37822300  0.65857900  1
  O  O9  1  0.43389200  0.87737800  0.65779500  1
  O  O10  1  0.56611700  0.62147100  0.34117200  1
  O  O11  1  0.56641100  0.12224000  0.34127200  1
  O  O12  1  0.06955500  0.55624600  0.76883900  1
  O  O13  1  0.07059100  0.05649300  0.76824100  1
  O  O14  1  0.93032200  0.44328700  0.23138000  1
  O  O15  1  0.92995000  0.94337100  0.23206000  1
  O  O16  1  0.67613700  0.54145200  0.82772600  1
  O  O17  1  0.67738400  0.04134300  0.82777900  1
  O  O18  1  0.32366200  0.45852800  0.17232300  1
  O  O19  1  0.32318900  0.95865000  0.17215900  1
  O  O20  1  0.80780600  0.18783500  0.02672000  1
  O  O21  1  0.80629200  0.68737300  0.02719800  1
  O  O22  1  0.19239100  0.81231100  0.97338200  1
  O  O23  1  0.19369700  0.31240700  0.97292500  1
  O  O24  1  0.73876700  0.76437900  0.80232700  1
  O  O25  1  0.73908100  0.26436100  0.80201500  1
  O  O26  1  0.26168700  0.23543300  0.19752500  1
  O  O27  1  0.26155100  0.73552600  0.19783700  1
loop_
_geom_bond_atom_site_label_1
_geom_bond_atom_site_label_2
_geom_bond_distance
_geom_bond_site_symmetry_2
Na0 O9 2.312726 1_555
Na0 O22 2.315633 1_555
Na0 O6 2.446373 1_555
Na0 O16 2.523431 1_555
Na0 O24 2.624325 1_555
Na1 O23 2.308653 1_555
Na1 O8 2.313062 1_555
Na1 O7 2.441039 1_555
Na1 O17 2.536185 1_555
Na1 O25 2.628237 1_555
Na2 O11 2.311317 1_555
Na2 O20 2.315127 1_555
Na2 O4 2.449338 1_555
Na2 O18 2.526067 1_555
Na2 O26 2.625238 1_555
Na3 O21 2.309286 1_555
Na3 O10 2.314374 1_555
Na3 O5 2.445137 1_555
Na3 O19 2.534489 1_555
Na3 O27 2.624942 1_555
Na4 O12 2.466333 1_555
Na4 O18 2.472958 1_556
Na4 O27 2.484377 1_556
Na4 O22 2.660295 1_555
Na4 O23 2.703499 1_555
Na4 O16 2.746930 1_555
Na4 O21 2.789051 1_456
Na4 O8 2.812896 1_555
Na5 O13 2.465130 1_555
Na5 O19 2.470157 1_546
Na5 O26 2.479885 1_556
Na5 O23 2.661482 1_555
Na5 O22 2.708713 1_545
Na5 O17 2.761738 1_555
Na5 O20 2.773476 1_456
Na5 O9 2.826654 1_545
Na6 O14 2.464666 1_555
Na6 O16 2.473902 1_554
Na6 O25 2.488631 1_554
Na6 O20 2.661408 1_555
Na6 O21 2.697591 1_555
Na6 O18 2.750603 1_555
Na6 O23 2.787787 1_654
Na6 O10 2.807373 1_555
Na7 O15 2.469426 1_555
Na7 O17 2.470950 1_564
Na7 O24 2.484559 1_554
Na7 O21 2.666343 1_555
Na7 O20 2.709617 1_565
Na7 O19 2.753339 1_555
Na7 O22 2.779487 1_654
Na7 O11 2.813025 1_565
Co0 O8 2.100274 1_555
Co0 O16 2.106166 1_555
Co0 O6 2.120465 1_555
Co0 O0 2.122652 1_655
Co0 O25 2.151964 1_555
Co0 O3 2.164239 1_555
Co1 O10 2.099775 1_555
Co1 O18 2.106398 1_555
Co1 O4 2.119165 1_555
Co1 O2 2.122735 1_455
Co1 O27 2.154230 1_555
Co1 O1 2.164871 1_555
Co2 O9 2.098734 1_555
Co2 O17 2.106413 1_565
Co2 O7 2.119353 1_565
Co2 O1 2.119981 1_655
Co2 O24 2.158582 1_555
Co2 O2 2.167791 1_555
Co3 O11 2.099431 1_555
Co3 O19 2.105839 1_545
Co3 O5 2.119024 1_545
Co3 O3 2.122666 1_455
Co3 O26 2.154775 1_555
Co3 O0 2.165147 1_555
O0 P0 1.549987 1_555
O1 P1 1.549885 1_555
O2 P2 1.549821 1_555
O3 P3 1.549680 1_555
O4 P0 1.512568 1_555
O5 P1 1.512355 1_555
O6 P2 1.512785 1_555
O7 P3 1.512999 1_555
O8 P0 1.532268 1_555
O9 P1 1.532301 1_555
O10 P2 1.532156 1_555
O11 P3 1.532078 1_555
O12 P0 1.626451 1_555
O12 P4 1.647459 1_455
O13 P1 1.626192 1_545
O13 P5 1.647837 1_455
O14 P2 1.626409 1_555
O14 P6 1.647209 1_655
O15 P3 1.626152 1_565
O15 P7 1.647543 1_655
O16 P4 1.547704 1_555
O17 P5 1.547267 1_555
O18 P6 1.547482 1_555
O19 P7 1.547521 1_555
O20 P5 1.520714 1_554
O21 P4 1.521131 1_554
O22 P7 1.521176 1_556
O23 P6 1.521327 1_556
O24 P4 1.525686 1_555
O25 P5 1.525752 1_555
O26 P6 1.525261 1_555
O27 P7 1.525474 1_555
