# generated using pymatgen
data_Sr2CeEuCu2RuO10
_symmetry_space_group_name_H-M   'P 1'
_cell_length_a   3.89765001
_cell_length_b   3.89765001
_cell_length_c   14.73111260
_cell_angle_alpha   82.36008071
_cell_angle_beta   82.41499782
_cell_angle_gamma   89.92255709
_symmetry_Int_Tables_number   1
_chemical_formula_structural   Sr2CeEuCu2RuO10
_chemical_formula_sum   'Sr2 Ce1 Eu1 Cu2 Ru1 O10'
_cell_volume   219.83309635
_cell_formula_units_Z   1
loop_
 _symmetry_equiv_pos_site_id
 _symmetry_equiv_pos_as_xyz
  1  'x, y, z'
loop_
 _atom_site_type_symbol
 _atom_site_label
 _atom_site_symmetry_multiplicity
 _atom_site_fract_x
 _atom_site_fract_y
 _atom_site_fract_z
 _atom_site_occupancy
  Sr  Sr0  1  0.57521216  0.58359156  0.84119628  1
  Sr  Sr1  1  0.41717290  0.43032709  0.15250002  1
  Ce  Ce0  1  0.29336622  0.29447347  0.41216031  1
  Eu  Eu0  1  0.70413534  0.70507766  0.59078700  1
  Cu  Cu0  1  0.14113750  0.14498271  0.71387979  1
  Cu  Cu1  1  0.85485777  0.85906896  0.28607327  1
  Ru  Ru0  1  0.97277398  0.02690831  0.00031772  1
  O  O0  1  0.06276454  0.07113694  0.86609853  1
  O  O1  1  0.92607411  0.93751005  0.13641584  1
  O  O2  1  0.64588345  0.14891899  0.70451822  1
  O  O3  1  0.14656279  0.64959833  0.70451822  1
  O  O4  1  0.34820600  0.85156656  0.29953525  1
  O  O5  1  0.84889819  0.35225874  0.29953525  1
  O  O6  1  0.75271867  0.25318879  0.49410475  1
  O  O7  1  0.25270646  0.75317658  0.49410475  1
  O  O8  1  0.47441259  0.04375526  0.00212741  1
  O  O9  1  0.95411733  0.52346000  0.00212741  1
loop_
_geom_bond_atom_site_label_1
_geom_bond_atom_site_label_2
_geom_bond_distance
_geom_bond_site_symmetry_2
Ce0 O7 2.280641 1_555
Ce0 O6 2.280641 1_455
Ce0 O6 2.281821 1_555
Ce0 O7 2.281821 1_545
Ce0 O4 2.538760 1_545
Ce0 O5 2.538760 1_555
Ce0 O5 2.542206 1_455
Ce0 O4 2.542206 1_555
Eu0 O7 2.397739 1_555
Eu0 O6 2.397739 1_565
Eu0 O6 2.400292 1_555
Eu0 O7 2.400292 1_655
Eu0 O3 2.548077 1_655
Eu0 O2 2.548077 1_555
Eu0 O2 2.553492 1_565
Eu0 O3 2.553492 1_555
Cu0 O2 1.953215 1_455
Cu0 O3 1.953215 1_555
Cu0 O3 1.953845 1_545
Cu0 O2 1.953845 1_555
Cu0 O0 2.202747 1_555
Cu1 O5 1.958330 1_565
Cu1 O4 1.958330 1_555
Cu1 O4 1.958749 1_655
Cu1 O5 1.958749 1_555
Cu1 O1 2.165717 1_555
O0 Ru0 1.946410 1_456
O0 Sr0 2.777440 1_455
O0 Sr0 2.777891 1_545
O0 Sr0 2.781359 1_555
O0 Sr0 2.781359 1_445
O1 Ru0 1.972855 1_565
O1 Sr1 2.759134 1_655
O1 Sr1 2.767725 1_555
O1 Sr1 2.767725 1_665
O1 Sr1 2.768883 1_565
O2 Sr0 2.767764 1_545
O2 Sr0 2.785567 1_555
O3 Sr0 2.767764 1_555
O3 Sr0 2.785567 1_455
O4 Sr1 2.872301 1_555
O4 Sr1 2.898483 1_565
O5 Sr1 2.872301 1_655
O5 Sr1 2.898483 1_555
O8 Ru0 1.940242 1_555
O8 Ru0 1.960216 1_455
O8 Sr1 2.825416 1_555
O8 Sr0 2.937990 1_554
O8 Sr1 3.022574 1_545
O8 Sr0 3.142321 1_544
O9 Ru0 1.940242 1_555
O9 Ru0 1.960216 1_565
O9 Sr1 2.825416 1_555
O9 Sr0 2.937990 1_554
O9 Sr1 3.022574 1_655
O9 Sr0 3.142321 1_654
