# generated using pymatgen
data_TaIn(CuSe2)2
_symmetry_space_group_name_H-M   'P 1'
_cell_length_a   5.81909600
_cell_length_b   5.81909600
_cell_length_c   12.21651900
_cell_angle_alpha   90.00000000
_cell_angle_beta   90.00000000
_cell_angle_gamma   90.00000000
_symmetry_Int_Tables_number   1
_chemical_formula_structural   TaIn(CuSe2)2
_chemical_formula_sum   'Ta2 In2 Cu4 Se8'
_cell_volume   413.67427910
_cell_formula_units_Z   2
loop_
 _symmetry_equiv_pos_site_id
 _symmetry_equiv_pos_as_xyz
  1  'x, y, z'
loop_
 _atom_site_type_symbol
 _atom_site_label
 _atom_site_symmetry_multiplicity
 _atom_site_fract_x
 _atom_site_fract_y
 _atom_site_fract_z
 _atom_site_occupancy
  Ta  Ta0  1  0.00000000  0.00000000  0.00000000  1
  Ta  Ta1  1  0.00000000  0.00000000  0.50000000  1
  In  In0  1  0.50000000  0.00000000  0.25000000  1
  In  In1  1  0.00000000  0.50000000  0.75000000  1
  Cu  Cu0  1  0.00000000  0.50000000  0.25000000  1
  Cu  Cu1  1  0.50000000  0.00000000  0.75000000  1
  Cu  Cu2  1  0.50000000  0.50000000  0.00000000  1
  Cu  Cu3  1  0.50000000  0.50000000  0.50000000  1
  Se  Se0  1  0.21246200  0.28101300  0.11068700  1
  Se  Se1  1  0.78753800  0.71898700  0.11068700  1
  Se  Se2  1  0.28101300  0.78753800  0.88931300  1
  Se  Se3  1  0.78753800  0.28101300  0.38931300  1
  Se  Se4  1  0.71898700  0.21246200  0.88931300  1
  Se  Se5  1  0.21246200  0.71898700  0.38931300  1
  Se  Se6  1  0.71898700  0.78753800  0.61068700  1
  Se  Se7  1  0.28101300  0.21246200  0.61068700  1
loop_
_geom_bond_atom_site_label_1
_geom_bond_atom_site_label_2
_geom_bond_distance
_geom_bond_site_symmetry_2
In0 Se5 2.893127 1_545
In0 Se1 2.893127 1_545
In0 Se3 2.893127 1_555
In0 Se0 2.893127 1_555
In1 Se4 2.893127 1_455
In1 Se6 2.893127 1_455
In1 Se7 2.893127 1_555
In1 Se2 2.893127 1_555
Cu0 Se0 2.459455 1_555
Cu0 Se3 2.459455 1_455
Cu0 Se1 2.459455 1_455
Cu0 Se5 2.459455 1_555
Cu1 Se4 2.459455 1_555
Cu1 Se7 2.459455 1_555
Cu1 Se6 2.459455 1_545
Cu1 Se2 2.459455 1_545
Cu2 Se1 2.500393 1_555
Cu2 Se4 2.500393 1_554
Cu2 Se0 2.500393 1_555
Cu2 Se2 2.500393 1_554
Cu3 Se3 2.500393 1_555
Cu3 Se5 2.500393 1_555
Cu3 Se7 2.500393 1_555
Cu3 Se6 2.500393 1_555
Se0 Ta0 2.455813 1_555
Se1 Ta0 2.455813 1_665
Se2 Ta0 2.455813 1_566
Se3 Ta1 2.455813 1_655
Se4 Ta0 2.455813 1_656
Se5 Ta1 2.455813 1_565
Se6 Ta1 2.455813 1_665
Se7 Ta1 2.455813 1_555
