# generated using pymatgen
data_K2U(BrO)4
_symmetry_space_group_name_H-M   'P 1'
_cell_length_a   6.99364125
_cell_length_b   7.34860186
_cell_length_c   8.22150103
_cell_angle_alpha   85.76307188
_cell_angle_beta   103.15605227
_cell_angle_gamma   120.19621804
_symmetry_Int_Tables_number   1
_chemical_formula_structural   K2U(BrO)4
_chemical_formula_sum   'K2 U1 Br4 O4'
_cell_volume   355.19845721
_cell_formula_units_Z   1
loop_
 _symmetry_equiv_pos_site_id
 _symmetry_equiv_pos_as_xyz
  1  'x, y, z'
loop_
 _atom_site_type_symbol
 _atom_site_label
 _atom_site_symmetry_multiplicity
 _atom_site_fract_x
 _atom_site_fract_y
 _atom_site_fract_z
 _atom_site_occupancy
  K  K0  1  0.60298700  0.28666200  0.83352600  1
  K  K1  1  0.39701300  0.71333800  0.16647400  1
  U  U0  1  0.00000000  0.00000000  0.00000000  1
  Br  Br0  1  0.85193200  0.61440600  0.16269900  1
  Br  Br1  1  0.14806800  0.38559400  0.83730100  1
  Br  Br2  1  0.82231300  0.77617900  0.68767800  1
  Br  Br3  1  0.17768700  0.22382100  0.31232200  1
  O  O0  1  0.73138200  0.98951200  0.99272400  1
  O  O1  1  0.26861800  0.01048800  0.00727600  1
  O  O2  1  0.43631100  0.92442700  0.53642300  1
  O  O3  1  0.56368900  0.07557300  0.46357700  1
loop_
_geom_bond_atom_site_label_1
_geom_bond_atom_site_label_2
_geom_bond_distance
_geom_bond_site_symmetry_2
K0 O1 2.818867 1_556
K0 O0 2.881453 1_545
K0 O2 3.309743 1_545
K0 O3 3.408886 1_555
K1 O0 2.818867 1_554
K1 O1 2.881453 1_565
K1 O3 3.309743 1_565
K1 O2 3.408886 1_555
Br0 U0 2.830118 1_665
Br0 K0 3.279656 1_554
Br0 K1 3.496174 1_655
Br0 K1 3.609254 1_555
Br1 U0 2.830118 1_556
Br1 K1 3.279656 1_556
Br1 K0 3.496174 1_455
Br1 K0 3.609254 1_555
Br2 U0 2.821062 1_666
Br2 K0 3.373475 1_555
Br3 U0 2.821062 1_555
Br3 K1 3.373475 1_555
O0 U0 1.828279 1_666
O1 U0 1.828279 1_555
O2 O3 1.239033 1_565
