# generated using pymatgen
data_Mn5O7
_symmetry_space_group_name_H-M   'P 1'
_cell_length_a   5.37428280
_cell_length_b   5.37428280
_cell_length_c   18.82480400
_cell_angle_alpha   90.00000000
_cell_angle_beta   90.00000000
_cell_angle_gamma   147.14698248
_symmetry_Int_Tables_number   1
_chemical_formula_structural   Mn5O7
_chemical_formula_sum   'Mn10 O14'
_cell_volume   294.95777796
_cell_formula_units_Z   2
loop_
 _symmetry_equiv_pos_site_id
 _symmetry_equiv_pos_as_xyz
  1  'x, y, z'
loop_
 _atom_site_type_symbol
 _atom_site_label
 _atom_site_symmetry_multiplicity
 _atom_site_fract_x
 _atom_site_fract_y
 _atom_site_fract_z
 _atom_site_occupancy
  Mn  Mn0  1  0.73214000  0.26786000  0.57614800  1
  Mn  Mn1  1  0.00000000  0.00000000  0.50000000  1
  Mn  Mn2  1  0.00000000  0.00000000  0.00000000  1
  Mn  Mn3  1  0.26786000  0.73214000  0.42385200  1
  Mn  Mn4  1  0.26786000  0.73214000  0.07614800  1
  Mn  Mn5  1  0.73214000  0.26786000  0.92385200  1
  Mn  Mn6  1  0.52828800  0.47171200  0.15809800  1
  Mn  Mn7  1  0.47171200  0.52828800  0.84190200  1
  Mn  Mn8  1  0.47171200  0.52828800  0.65809800  1
  Mn  Mn9  1  0.52828800  0.47171200  0.34190200  1
  O  O0  1  0.35734700  0.64265300  0.97424600  1
  O  O1  1  0.64265300  0.35734700  0.02575400  1
  O  O2  1  0.64265300  0.35734700  0.47424600  1
  O  O3  1  0.35734700  0.64265300  0.52575400  1
  O  O4  1  0.85173900  0.14826100  0.84367500  1
  O  O5  1  0.14826100  0.85173900  0.15632500  1
  O  O6  1  0.14826100  0.85173900  0.34367500  1
  O  O7  1  0.85173900  0.14826100  0.65632500  1
  O  O8  1  0.09284200  0.90715800  0.89488300  1
  O  O9  1  0.90715800  0.09284200  0.10511700  1
  O  O10  1  0.90715800  0.09284200  0.39488300  1
  O  O11  1  0.09284200  0.90715800  0.60511700  1
  O  O12  1  0.53814400  0.46185600  0.75000000  1
  O  O13  1  0.46185600  0.53814400  0.25000000  1
loop_
_geom_bond_atom_site_label_1
_geom_bond_atom_site_label_2
_geom_bond_distance
_geom_bond_site_symmetry_2
Mn0 O7 1.948959 1_555
Mn0 O2 2.128615 1_555
Mn0 O11 2.160922 1_655
Mn0 O11 2.160922 1_545
Mn0 O3 2.208161 1_545
Mn0 O3 2.208161 1_655
Mn1 O3 2.169743 1_445
Mn1 O2 2.169743 1_555
Mn1 O2 2.169743 1_445
Mn1 O3 2.169743 1_555
Mn1 O11 2.198154 1_545
Mn1 O10 2.198154 1_455
Mn2 O1 2.169743 1_555
Mn2 O0 2.169743 1_444
Mn2 O1 2.169743 1_445
Mn2 O0 2.169743 1_554
Mn2 O9 2.198154 1_455
Mn2 O8 2.198154 1_544
Mn3 O6 1.948959 1_555
Mn3 O3 2.128615 1_555
Mn3 O10 2.160922 1_455
Mn3 O10 2.160922 1_565
Mn3 O2 2.208161 1_455
Mn3 O2 2.208161 1_565
Mn4 O5 1.948959 1_555
Mn4 O0 2.128615 1_554
Mn4 O9 2.160922 1_455
Mn4 O9 2.160922 1_565
Mn4 O1 2.208161 1_455
Mn4 O1 2.208161 1_565
Mn5 O4 1.948959 1_555
Mn5 O1 2.128615 1_556
Mn5 O8 2.160922 1_655
Mn5 O8 2.160922 1_545
Mn5 O0 2.208161 1_545
Mn5 O0 2.208161 1_655
Mn6 O13 1.860678 1_555
Mn6 O5 1.959780 1_655
Mn6 O5 1.959780 1_545
Mn6 O9 2.205447 1_455
Mn6 O9 2.205447 1_565
Mn7 O12 1.860678 1_555
Mn7 O4 1.959780 1_455
Mn7 O4 1.959780 1_565
Mn7 O8 2.205447 1_545
Mn7 O8 2.205447 1_655
Mn8 O12 1.860678 1_555
Mn8 O7 1.959780 1_455
Mn8 O7 1.959780 1_565
Mn8 O11 2.205447 1_545
Mn8 O11 2.205447 1_655
Mn9 O13 1.860678 1_555
Mn9 O6 1.959780 1_655
Mn9 O6 1.959780 1_545
Mn9 O10 2.205447 1_565
Mn9 O10 2.205447 1_455
