# generated using pymatgen
data_CeS3
_symmetry_space_group_name_H-M   'P 1'
_cell_length_a   5.66667519
_cell_length_b   5.66667519
_cell_length_c   5.66667519
_cell_angle_alpha   139.39255374
_cell_angle_beta   139.39255374
_cell_angle_gamma   58.77679113
_symmetry_Int_Tables_number   1
_chemical_formula_structural   CeS3
_chemical_formula_sum   'Ce1 S3'
_cell_volume   76.36066151
_cell_formula_units_Z   1
loop_
 _symmetry_equiv_pos_site_id
 _symmetry_equiv_pos_as_xyz
  1  'x, y, z'
loop_
 _atom_site_type_symbol
 _atom_site_label
 _atom_site_symmetry_multiplicity
 _atom_site_fract_x
 _atom_site_fract_y
 _atom_site_fract_z
 _atom_site_occupancy
  Ce  Ce0  1  0.00000000  0.00000000  0.00000000  1
  S  S0  1  0.75000000  0.25000000  0.50000000  1
  S  S1  1  0.25000000  0.75000000  0.50000000  1
  S  S2  1  0.50000000  0.50000000  0.00000000  1
loop_
_geom_bond_atom_site_label_1
_geom_bond_atom_site_label_2
_geom_bond_distance
_geom_bond_site_symmetry_2
Ce0 S2 2.780792 1_455
Ce0 S2 2.780792 1_556
Ce0 S2 2.780792 1_444
Ce0 S2 2.780792 1_545
Ce0 S1 3.156106 1_555
Ce0 S1 3.156106 1_444
Ce0 S0 3.156106 1_455
Ce0 S0 3.156106 1_454
Ce0 S1 3.156106 1_545
Ce0 S0 3.156106 1_555
Ce0 S1 3.156106 1_544
Ce0 S0 3.156106 1_444
S0 S1 2.780792 1_656
S0 S1 2.780792 1_555
S0 S1 2.780792 1_544
S0 S1 2.780792 1_645
