# generated using pymatgen
data_AlV6Ga
_symmetry_space_group_name_H-M   'P 1'
_cell_length_a   4.77518726
_cell_length_b   4.77518726
_cell_length_c   4.77518726
_cell_angle_alpha   90.00000000
_cell_angle_beta   90.00000000
_cell_angle_gamma   90.00000000
_symmetry_Int_Tables_number   1
_chemical_formula_structural   AlV6Ga
_chemical_formula_sum   'Al1 V6 Ga1'
_cell_volume   108.88579381
_cell_formula_units_Z   1
loop_
 _symmetry_equiv_pos_site_id
 _symmetry_equiv_pos_as_xyz
  1  'x, y, z'
loop_
 _atom_site_type_symbol
 _atom_site_label
 _atom_site_symmetry_multiplicity
 _atom_site_fract_x
 _atom_site_fract_y
 _atom_site_fract_z
 _atom_site_occupancy
  Al  Al0  1  0.50000000  0.50000000  0.50000000  1
  V  V0  1  0.50000000  0.74776429  0.00000000  1
  V  V1  1  0.25223571  -0.00000000  0.50000000  1
  V  V2  1  -0.00000000  0.50000000  0.74776429  1
  V  V3  1  0.50000000  0.25223571  0.00000000  1
  V  V4  1  0.74776429  -0.00000000  0.50000000  1
  V  V5  1  0.00000000  0.50000000  0.25223571  1
  Ga  Ga0  1  -0.00000000  -0.00000000  0.00000000  1
loop_
_geom_bond_atom_site_label_1
_geom_bond_atom_site_label_2
_geom_bond_distance
_geom_bond_site_symmetry_2
Al0 V0 2.664654 1_556
Al0 V5 2.664654 1_655
Al0 V2 2.664654 1_655
Al0 V1 2.664654 1_555
Al0 V5 2.664654 1_555
Al0 V3 2.664654 1_556
Al0 V0 2.664654 1_555
Al0 V2 2.664654 1_555
Al0 V4 2.664654 1_555
Al0 V4 2.664654 1_565
Al0 V1 2.664654 1_565
Al0 V3 2.664654 1_555
V0 V3 2.366242 1_555
V0 V3 2.408945 1_565
V0 V5 2.924232 1_555
V0 V4 2.924232 1_564
V0 V1 2.924232 1_565
V0 V4 2.924232 1_565
V0 V2 2.924232 1_554
V0 V5 2.924232 1_655
V0 V2 2.924232 1_654
V0 V1 2.924232 1_564
V1 V4 2.366242 1_555
V1 V4 2.408945 1_455
V1 V5 2.924232 1_545
V1 V2 2.924232 1_545
V1 V5 2.924232 1_555
V1 V2 2.924232 1_555
V1 V3 2.924232 1_555
V1 V3 2.924232 1_556
V2 V5 2.366242 1_555
V2 V5 2.408945 1_556
V2 V4 2.924232 1_465
V2 V4 2.924232 1_455
V2 V3 2.924232 1_456
V2 V3 2.924232 1_556
V3 V5 2.924232 1_555
V3 V4 2.924232 1_555
V3 V5 2.924232 1_655
V3 V4 2.924232 1_554
V4 V5 2.924232 1_645
V4 V5 2.924232 1_655
Ga0 V0 2.674202 1_545
Ga0 V3 2.674202 1_555
Ga0 V5 2.674202 1_545
Ga0 V2 2.674202 1_554
Ga0 V2 2.674202 1_544
Ga0 V1 2.674202 1_555
Ga0 V4 2.674202 1_455
Ga0 V3 2.674202 1_455
Ga0 V1 2.674202 1_554
Ga0 V0 2.674202 1_445
Ga0 V5 2.674202 1_555
Ga0 V4 2.674202 1_454
