# generated using pymatgen
data_Nb8PtSe20
_symmetry_space_group_name_H-M   'P 1'
_cell_length_a   10.58953195
_cell_length_b   10.58953195
_cell_length_c   19.71667769
_cell_angle_alpha   74.71110018
_cell_angle_beta   74.71110018
_cell_angle_gamma   18.96157369
_symmetry_Int_Tables_number   1
_chemical_formula_structural   Nb8PtSe20
_chemical_formula_sum   'Nb8 Pt1 Se20'
_cell_volume   692.27787812
_cell_formula_units_Z   1
loop_
 _symmetry_equiv_pos_site_id
 _symmetry_equiv_pos_as_xyz
  1  'x, y, z'
loop_
 _atom_site_type_symbol
 _atom_site_label
 _atom_site_symmetry_multiplicity
 _atom_site_fract_x
 _atom_site_fract_y
 _atom_site_fract_z
 _atom_site_occupancy
  Nb  Nb0  1  0.07889791  0.07889791  0.09297451  1
  Nb  Nb1  1  0.92110209  0.92110209  0.90702549  1
  Nb  Nb2  1  0.32973698  0.32973698  0.81024832  1
  Nb  Nb3  1  0.67026302  0.67026302  0.18975168  1
  Nb  Nb4  1  0.26784964  0.26784964  0.28051142  1
  Nb  Nb5  1  0.73215036  0.73215036  0.71948858  1
  Nb  Nb6  1  0.15497015  0.15497015  0.55562591  1
  Nb  Nb7  1  0.84502985  0.84502985  0.44437409  1
  Pt  Pt0  1  0.50000000  0.50000000  0.00000000  1
  Se  Se0  1  0.44218766  0.44218766  0.39266541  1
  Se  Se1  1  0.55781234  0.55781234  0.60733459  1
  Se  Se2  1  0.40004108  0.40004108  0.51562733  1
  Se  Se3  1  0.59995892  0.59995892  0.48437267  1
  Se  Se4  1  0.14464987  0.14464987  0.69620423  1
  Se  Se5  1  0.85535013  0.85535013  0.30379577  1
  Se  Se6  1  0.38122717  0.38122717  0.00844620  1
  Se  Se7  1  0.61877283  0.61877283  0.99155380  1
  Se  Se8  1  0.20241139  0.20241139  0.82284142  1
  Se  Se9  1  0.79758861  0.79758861  0.17715858  1
  Se  Se10  1  0.25429748  0.25429748  0.42846082  1
  Se  Se11  1  0.74570252  0.74570252  0.57153918  1
  Se  Se12  1  0.32951795  0.32951795  0.67745971  1
  Se  Se13  1  0.67048205  0.67048205  0.32254029  1
  Se  Se14  1  0.48230586  0.48230586  0.12872417  1
  Se  Se15  1  0.51769414  0.51769414  0.87127583  1
  Se  Se16  1  0.20458300  0.20458300  0.08784978  1
  Se  Se17  1  0.79541700  0.79541700  0.91215022  1
  Se  Se18  1  0.07304785  0.07304785  0.22774782  1
  Se  Se19  1  0.92695215  0.92695215  0.77225218  1
loop_
_geom_bond_atom_site_label_1
_geom_bond_atom_site_label_2
_geom_bond_distance
_geom_bond_site_symmetry_2
Nb0 Se16 2.600344 1_555
Nb0 Se7 2.616192 1_544
Nb0 Se7 2.616192 1_454
Nb0 Se14 2.617315 1_545
Nb0 Se14 2.617315 1_455
Nb0 Se18 2.627252 1_555
Nb1 Se17 2.600344 1_555
Nb1 Se6 2.616192 1_566
Nb1 Se6 2.616192 1_656
Nb1 Se15 2.617315 1_655
Nb1 Se15 2.617315 1_565
Nb1 Se19 2.627252 1_555
Nb2 Se8 2.604438 1_555
Nb2 Se17 2.612101 1_455
Nb2 Se17 2.612101 1_545
Nb2 Se12 2.619377 1_555
Nb2 Se19 2.629533 1_455
Nb2 Se19 2.629533 1_545
Nb3 Se9 2.604438 1_555
Nb3 Se16 2.612101 1_655
Nb3 Se16 2.612101 1_565
Nb3 Se13 2.619377 1_555
Nb3 Se18 2.629533 1_655
Nb3 Se18 2.629533 1_565
Nb4 Se9 2.627563 1_545
Nb4 Se9 2.627563 1_455
Nb4 Se13 2.639146 1_455
Nb4 Se13 2.639146 1_545
Nb4 Se5 2.653870 1_455
Nb4 Se5 2.653870 1_545
Nb4 Se10 2.854452 1_555
Nb5 Se8 2.627563 1_655
Nb5 Se8 2.627563 1_565
Nb5 Se12 2.639146 1_655
Nb5 Se12 2.639146 1_565
Nb5 Se4 2.653870 1_565
Nb5 Se4 2.653870 1_655
Nb5 Se11 2.854452 1_555
Nb6 Se11 2.655440 1_545
Nb6 Se11 2.655440 1_455
Nb6 Se1 2.663616 1_455
Nb6 Se1 2.663616 1_545
Nb6 Se3 2.683277 1_455
Nb6 Se3 2.683277 1_545
Nb6 Se4 2.722041 1_555
Nb6 Se10 2.794662 1_555
Nb7 Se10 2.655440 1_565
Nb7 Se10 2.655440 1_655
Nb7 Se0 2.663616 1_565
Nb7 Se0 2.663616 1_655
Nb7 Se2 2.683277 1_655
Nb7 Se2 2.683277 1_565
Nb7 Se5 2.722041 1_555
Nb7 Se11 2.794662 1_555
Pt0 Se6 2.441896 1_555
Pt0 Se7 2.441896 1_554
Pt0 Se14 2.465065 1_555
Pt0 Se15 2.465065 1_554
Se0 Se2 2.347680 1_555
Se1 Se3 2.347680 1_555
