# generated using pymatgen
data_Ba4Y2Cu7O15
_symmetry_space_group_name_H-M   'P 1'
_cell_length_a   25.68283343
_cell_length_b   25.68283343
_cell_length_c   3.91252900
_cell_angle_alpha   90.00000000
_cell_angle_beta   90.00000000
_cell_angle_gamma   171.32654283
_symmetry_Int_Tables_number   1
_chemical_formula_structural   Ba4Y2Cu7O15
_chemical_formula_sum   'Ba4 Y2 Cu7 O15'
_cell_volume   389.18228145
_cell_formula_units_Z   1
loop_
 _symmetry_equiv_pos_site_id
 _symmetry_equiv_pos_as_xyz
  1  'x, y, z'
loop_
 _atom_site_type_symbol
 _atom_site_label
 _atom_site_symmetry_multiplicity
 _atom_site_fract_x
 _atom_site_fract_y
 _atom_site_fract_z
 _atom_site_occupancy
  Ba  Ba0  1  0.31145200  0.68854800  0.50000000  1
  Ba  Ba1  1  0.68854800  0.31145200  0.50000000  1
  Ba  Ba2  1  0.45804900  0.54195100  0.50000000  1
  Ba  Ba3  1  0.54195100  0.45804900  0.50000000  1
  Y  Y0  1  0.38482700  0.61517300  0.50000000  1
  Y  Y1  1  0.61517300  0.38482700  0.50000000  1
  Cu  Cu0  1  0.91842300  0.08157700  0.00000000  1
  Cu  Cu1  1  0.08157700  0.91842300  0.00000000  1
  Cu  Cu2  1  0.77013300  0.22986700  0.00000000  1
  Cu  Cu3  1  0.22986700  0.77013300  0.00000000  1
  Cu  Cu4  1  0.85130900  0.14869100  0.00000000  1
  Cu  Cu5  1  0.14869100  0.85130900  0.00000000  1
  Cu  Cu6  1  0.00000000  0.00000000  0.00000000  1
  O  O0  1  0.26675900  0.73324100  0.00000000  1
  O  O1  1  0.73324100  0.26675900  0.00000000  1
  O  O2  1  0.85567700  0.14432300  0.50000000  1
  O  O3  1  0.14432300  0.85567700  0.50000000  1
  O  O4  1  0.41333900  0.58666100  0.00000000  1
  O  O5  1  0.58666100  0.41333900  0.00000000  1
  O  O6  1  0.80624100  0.19375900  0.00000000  1
  O  O7  1  0.19375900  0.80624100  0.00000000  1
  O  O8  1  0.91203300  0.08796700  0.50000000  1
  O  O9  1  0.08796700  0.91203300  0.50000000  1
  O  O10  1  0.96327900  0.03672100  0.00000000  1
  O  O11  1  0.03672100  0.96327900  0.00000000  1
  O  O12  1  0.35737500  0.64262500  0.00000000  1
  O  O13  1  0.64262500  0.35737500  0.00000000  1
  O  O14  1  0.00000000  0.00000000  0.50000000  1
loop_
_geom_bond_atom_site_label_1
_geom_bond_atom_site_label_2
_geom_bond_distance
_geom_bond_site_symmetry_2
Ba0 O6 2.769457 1_455
Ba0 O6 2.769457 1_456
Ba0 O6 2.769457 1_566
Ba0 O6 2.769457 1_565
Ba0 O2 2.983715 1_455
Ba0 O2 2.983715 1_565
Ba0 O0 3.011147 1_555
Ba0 O0 3.011147 1_556
Ba0 O12 3.059314 1_556
Ba0 O12 3.059314 1_555
Ba1 O7 2.769457 1_545
Ba1 O7 2.769457 1_546
Ba1 O7 2.769457 1_656
Ba1 O7 2.769457 1_655
Ba1 O3 2.983715 1_545
Ba1 O3 2.983715 1_655
Ba1 O1 3.011147 1_556
Ba1 O1 3.011147 1_555
Ba1 O13 3.059314 1_555
Ba1 O13 3.059314 1_556
Ba2 O10 2.769551 1_456
Ba2 O10 2.769551 1_455
Ba2 O10 2.769551 1_565
Ba2 O10 2.769551 1_566
Ba2 O14 2.896287 1_555
Ba2 O14 2.896287 1_665
Ba2 O4 3.011809 1_555
Ba2 O4 3.011809 1_556
Ba2 O8 3.053940 1_565
Ba2 O8 3.053940 1_455
Ba3 O11 2.769551 1_545
Ba3 O11 2.769551 1_546
Ba3 O11 2.769551 1_656
Ba3 O11 2.769551 1_655
Ba3 O14 2.896287 1_555
Ba3 O14 2.896287 1_665
Ba3 O5 3.011809 1_556
Ba3 O5 3.011809 1_555
Ba3 O9 3.053940 1_655
Ba3 O9 3.053940 1_545
Cu0 O4 1.959462 1_655
Cu0 O4 1.959462 1_545
Cu0 O8 1.983453 1_554
Cu0 O8 1.983453 1_555
Cu0 O10 2.297462 1_555
Cu1 O5 1.959462 1_565
Cu1 O5 1.959462 1_455
Cu1 O9 1.983453 1_555
Cu1 O9 1.983453 1_554
Cu1 O11 2.297462 1_555
Cu2 O6 1.849401 1_555
Cu2 O1 1.889557 1_555
Cu2 O0 1.949756 1_655
Cu2 O0 1.949756 1_545
Cu3 O7 1.849401 1_555
Cu3 O0 1.889557 1_555
Cu3 O1 1.949756 1_565
Cu3 O1 1.949756 1_455
Cu4 O12 1.966778 1_545
Cu4 O12 1.966778 1_655
Cu4 O2 1.969016 1_555
Cu4 O2 1.969016 1_554
Cu4 O6 2.308320 1_555
Cu5 O13 1.966778 1_565
Cu5 O13 1.966778 1_455
Cu5 O3 1.969016 1_555
Cu5 O3 1.969016 1_554
Cu5 O7 2.308320 1_555
Cu6 O11 1.880798 1_545
Cu6 O10 1.880798 1_455
Cu6 O14 1.956265 1_554
Cu6 O14 1.956265 1_555
O2 Y0 2.449653 1_545
O2 Y0 2.449653 1_655
O3 Y1 2.449653 1_455
O3 Y1 2.449653 1_565
O4 Y0 2.441225 1_554
O4 Y0 2.441225 1_555
O5 Y1 2.441225 1_555
O5 Y1 2.441225 1_554
O8 Y0 2.390272 1_545
O8 Y0 2.390272 1_655
O9 Y1 2.390272 1_455
O9 Y1 2.390272 1_565
O12 Y0 2.409140 1_554
O12 Y0 2.409140 1_555
O13 Y1 2.409140 1_555
O13 Y1 2.409140 1_554
