# generated using pymatgen
data_Ca4TiMn3O12
_symmetry_space_group_name_H-M   'P 1'
_cell_length_a   5.35407801
_cell_length_b   10.86090902
_cell_length_c   15.20890900
_cell_angle_alpha   90.00000000
_cell_angle_beta   90.00000000
_cell_angle_gamma   90.00648161
_symmetry_Int_Tables_number   1
_chemical_formula_structural   Ca4TiMn3O12
_chemical_formula_sum   'Ca16 Ti4 Mn12 O48'
_cell_volume   884.40039673
_cell_formula_units_Z   4
loop_
 _symmetry_equiv_pos_site_id
 _symmetry_equiv_pos_as_xyz
  1  'x, y, z'
loop_
 _atom_site_type_symbol
 _atom_site_label
 _atom_site_symmetry_multiplicity
 _atom_site_fract_x
 _atom_site_fract_y
 _atom_site_fract_z
 _atom_site_occupancy
  Ca  Ca0  1  0.99216200  0.01979600  0.12500000  1
  Ca  Ca1  1  0.99266800  0.02267100  0.62500000  1
  Ca  Ca2  1  0.99098000  0.52417400  0.12500000  1
  Ca  Ca3  1  0.99116200  0.52256700  0.62500000  1
  Ca  Ca4  1  0.00932700  0.47914100  0.37575700  1
  Ca  Ca5  1  0.00932700  0.47914100  0.87424300  1
  Ca  Ca6  1  0.00862000  0.97671800  0.37627800  1
  Ca  Ca7  1  0.00862000  0.97671800  0.87372200  1
  Ca  Ca8  1  0.49124700  0.22888200  0.37678500  1
  Ca  Ca9  1  0.49124700  0.22888200  0.87321500  1
  Ca  Ca10  1  0.49100800  0.72667700  0.37494900  1
  Ca  Ca11  1  0.49100800  0.72667700  0.87505100  1
  Ca  Ca12  1  0.50778400  0.27411200  0.12500000  1
  Ca  Ca13  1  0.50737900  0.27239200  0.62500000  1
  Ca  Ca14  1  0.50958600  0.76931900  0.12500000  1
  Ca  Ca15  1  0.50863300  0.77283700  0.62500000  1
  Ti  Ti0  1  0.49917800  0.99851700  0.99928100  1
  Ti  Ti1  1  0.00133500  0.25098800  0.99927400  1
  Ti  Ti2  1  0.00133500  0.25098800  0.25072600  1
  Ti  Ti3  1  0.49917800  0.99851700  0.25071900  1
  Mn  Mn0  1  0.50211300  0.00046100  0.50081800  1
  Mn  Mn1  1  0.50351800  0.50154900  0.00017500  1
  Mn  Mn2  1  0.49989400  0.50007600  0.50003500  1
  Mn  Mn3  1  0.99755200  0.25051000  0.50082600  1
  Mn  Mn4  1  0.00348100  0.74847900  0.99978300  1
  Mn  Mn5  1  0.00046300  0.74998800  0.49998500  1
  Mn  Mn6  1  0.99755200  0.25051000  0.74917400  1
  Mn  Mn7  1  0.00348100  0.74847900  0.25021700  1
  Mn  Mn8  1  0.00046300  0.74998800  0.75001500  1
  Mn  Mn9  1  0.50211300  0.00046100  0.74918200  1
  Mn  Mn10  1  0.50351800  0.50154900  0.24982500  1
  Mn  Mn11  1  0.49989400  0.50007600  0.74996500  1
  O  O0  1  0.20714600  0.10477500  0.26966600  1
  O  O1  1  0.20647900  0.10432300  0.77063900  1
  O  O2  1  0.20481100  0.60271300  0.27047500  1
  O  O3  1  0.20605100  0.60396300  0.77020800  1
  O  O4  1  0.78792500  0.39738700  0.23077700  1
  O  O5  1  0.79346500  0.39640200  0.72935300  1
  O  O6  1  0.79553500  0.89312400  0.23101400  1
  O  O7  1  0.79453300  0.89609900  0.72946100  1
  O  O8  1  0.70739200  0.14480000  0.23052500  1
  O  O9  1  0.70573000  0.14650400  0.72908900  1
  O  O10  1  0.70507800  0.64720900  0.22959600  1
  O  O11  1  0.70598300  0.64600900  0.72973600  1
  O  O12  1  0.29596600  0.35697100  0.26893700  1
  O  O13  1  0.29316400  0.35417100  0.77040400  1
  O  O14  1  0.28757300  0.85218900  0.26942100  1
  O  O15  1  0.29425000  0.85408100  0.77057400  1
  O  O16  1  0.29316400  0.35417100  0.47959500  1
  O  O17  1  0.29596600  0.35697100  0.98106200  1
  O  O18  1  0.29425000  0.85408200  0.47942500  1
  O  O19  1  0.28757300  0.85218900  0.98057800  1
  O  O20  1  0.70739200  0.14480000  0.01947400  1
  O  O21  1  0.70573000  0.14650400  0.52091000  1
  O  O22  1  0.70507800  0.64720800  0.02040300  1
  O  O23  1  0.70598300  0.64600800  0.52026300  1
  O  O24  1  0.78792500  0.39738700  0.01922200  1
  O  O25  1  0.79346500  0.39640200  0.52064600  1
  O  O26  1  0.79553500  0.89312300  0.01898500  1
  O  O27  1  0.79453300  0.89609900  0.52053800  1
  O  O28  1  0.20647900  0.10432300  0.47936000  1
  O  O29  1  0.20714600  0.10477500  0.98033300  1
  O  O30  1  0.20605100  0.60396300  0.47979100  1
  O  O31  1  0.20481100  0.60271300  0.97952400  1
  O  O32  1  0.57404200  0.00872600  0.37735900  1
  O  O33  1  0.57404200  0.00872700  0.87264100  1
  O  O34  1  0.57979600  0.51002700  0.37509100  1
  O  O35  1  0.57979600  0.51002700  0.87490900  1
  O  O36  1  0.42080600  0.49002800  0.12500000  1
  O  O37  1  0.42151900  0.49013300  0.62500000  1
  O  O38  1  0.42483200  0.99088300  0.12500000  1
  O  O39  1  0.42089800  0.99011500  0.62500000  1
  O  O40  1  0.07448000  0.24085200  0.12500000  1
  O  O41  1  0.07907900  0.24022500  0.62500000  1
  O  O42  1  0.08111400  0.73962900  0.12500000  1
  O  O43  1  0.07825100  0.74007500  0.62500000  1
  O  O44  1  0.92559200  0.25872000  0.37739000  1
  O  O45  1  0.92559200  0.25872100  0.87261000  1
  O  O46  1  0.92108600  0.75990900  0.37505200  1
  O  O47  1  0.92108600  0.75990900  0.87494800  1
loop_
_geom_bond_atom_site_label_1
_geom_bond_atom_site_label_2
_geom_bond_distance
_geom_bond_site_symmetry_2
Ca0 O38 2.337771 1_645
Ca0 O6 2.366520 1_545
Ca0 O26 2.366536 1_545
Ca0 O40 2.440939 1_655
Ca0 O8 2.596945 1_555
Ca0 O20 2.596954 1_555
Ca0 O0 2.649042 1_655
Ca0 O29 2.649055 1_654
Ca1 O39 2.319921 1_645
Ca1 O7 2.353483 1_545
Ca1 O27 2.353493 1_545
Ca1 O41 2.407651 1_655
Ca1 O9 2.583729 1_555
Ca1 O21 2.583738 1_555
Ca1 O1 2.646310 1_655
Ca1 O28 2.646323 1_655
Ca2 O36 2.331053 1_655
Ca2 O4 2.380311 1_555
Ca2 O24 2.380321 1_555
Ca2 O42 2.389227 1_655
Ca2 O10 2.580673 1_555
Ca2 O22 2.580676 1_555
Ca2 O2 2.633125 1_655
Ca2 O31 2.633138 1_654
Ca3 O37 2.330976 1_655
Ca3 O5 2.348737 1_555
Ca3 O25 2.348747 1_555
Ca3 O43 2.407861 1_655
Ca3 O11 2.581985 1_555
Ca3 O23 2.581989 1_555
Ca3 O3 2.642402 1_655
Ca3 O30 2.642414 1_655
Ca4 O34 2.324138 1_455
Ca4 O30 2.334616 1_555
Ca4 O2 2.336727 1_555
Ca4 O44 2.435667 1_455
Ca4 O16 2.578025 1_555
Ca4 O12 2.599174 1_555
Ca4 O25 2.645542 1_455
Ca4 O4 2.656185 1_455
Ca5 O35 2.324138 1_455
Ca5 O3 2.334626 1_555
Ca5 O31 2.336717 1_555
Ca5 O45 2.435656 1_455
Ca5 O13 2.578034 1_555
Ca5 O17 2.599165 1_555
Ca5 O5 2.645555 1_455
Ca5 O24 2.656173 1_456
Ca6 O28 2.345318 1_565
Ca6 O32 2.352687 1_465
Ca6 O0 2.385990 1_565
Ca6 O46 2.400949 1_455
Ca6 O18 2.564024 1_555
Ca6 O14 2.588738 1_555
Ca6 O27 2.625662 1_455
Ca6 O6 2.647015 1_455
Ca7 O1 2.345329 1_565
Ca7 O33 2.352689 1_465
Ca7 O29 2.385979 1_565
Ca7 O47 2.400949 1_455
Ca7 O15 2.564039 1_555
Ca7 O19 2.588728 1_555
Ca7 O7 2.625675 1_455
Ca7 O26 2.647006 1_456
Ca8 O16 2.328449 1_555
Ca8 O44 2.347970 1_555
Ca8 O12 2.391497 1_555
Ca8 O32 2.431904 1_555
Ca8 O28 2.566720 1_555
Ca8 O0 2.604674 1_555
Ca8 O21 2.631395 1_555
Ca8 O8 2.668638 1_555
Ca9 O13 2.328460 1_555
Ca9 O45 2.347972 1_555
Ca9 O17 2.391487 1_555
Ca9 O33 2.431893 1_555
Ca9 O1 2.566730 1_555
Ca9 O29 2.604664 1_555
Ca9 O9 2.631408 1_555
Ca9 O20 2.668626 1_556
Ca10 O46 2.330746 1_555
Ca10 O18 2.355767 1_555
Ca10 O14 2.370837 1_555
Ca10 O34 2.400609 1_555
Ca10 O30 2.578002 1_555
Ca10 O2 2.585526 1_555
Ca10 O10 2.635494 1_555
Ca10 O23 2.641407 1_555
Ca11 O47 2.330746 1_555
Ca11 O15 2.355770 1_555
Ca11 O19 2.370826 1_555
Ca11 O35 2.400609 1_555
Ca11 O3 2.578012 1_555
Ca11 O31 2.585517 1_555
Ca11 O22 2.635485 1_556
Ca11 O11 2.641416 1_555
Ca12 O40 2.347858 1_555
Ca12 O8 2.385526 1_555
Ca12 O20 2.385536 1_555
Ca12 O36 2.390887 1_555
Ca12 O4 2.574863 1_555
Ca12 O24 2.574872 1_555
Ca12 O12 2.624599 1_555
Ca12 O17 2.624612 1_554
Ca13 O41 2.319573 1_555
Ca13 O9 2.345993 1_555
Ca13 O21 2.346003 1_555
Ca13 O37 2.409182 1_555
Ca13 O5 2.584304 1_555
Ca13 O25 2.584313 1_555
Ca13 O13 2.644807 1_555
Ca13 O16 2.644820 1_555
Ca14 O42 2.316588 1_555
Ca14 O10 2.320634 1_555
Ca14 O22 2.320651 1_555
Ca14 O38 2.448848 1_555
Ca14 O6 2.598310 1_555
Ca14 O26 2.598314 1_555
Ca14 O14 2.654773 1_555
Ca14 O19 2.654785 1_554
Ca15 O43 2.331570 1_555
Ca15 O11 2.356184 1_555
Ca15 O23 2.356200 1_555
Ca15 O39 2.406187 1_555
Ca15 O7 2.580500 1_555
Ca15 O27 2.580509 1_555
Ca15 O15 2.645415 1_555
Ca15 O18 2.645431 1_555
Mn0 O32 1.918862 1_555
Mn0 O39 1.941334 1_545
Mn0 O21 1.948688 1_555
Mn0 O27 1.956100 1_545
Mn0 O18 1.967621 1_545
Mn0 O28 1.970985 1_555
Mn1 O24 1.919078 1_555
Mn1 O22 1.939472 1_555
Mn1 O17 1.945420 1_554
Mn1 O35 1.950613 1_554
Mn1 O36 1.953427 1_555
Mn1 O31 1.965711 1_554
Mn2 O37 1.949345 1_555
Mn2 O34 1.950815 1_555
Mn2 O23 1.955469 1_555
Mn2 O16 1.957679 1_555
Mn2 O25 1.958849 1_555
Mn2 O30 1.960463 1_555
Mn3 O44 1.918529 1_555
Mn3 O41 1.941558 1_655
Mn3 O25 1.948320 1_555
Mn3 O21 1.951951 1_555
Mn3 O16 1.968867 1_655
Mn3 O28 1.969555 1_655
Mn4 O19 1.915011 1_555
Mn4 O31 1.940010 1_555
Mn4 O26 1.947610 1_456
Mn4 O42 1.951617 1_556
Mn4 O47 1.953134 1_455
Mn4 O22 1.964760 1_456
Mn5 O43 1.949400 1_555
Mn5 O46 1.950025 1_455
Mn5 O30 1.954897 1_555
Mn5 O27 1.957550 1_455
Mn5 O18 1.962073 1_555
Mn5 O23 1.963658 1_455
Mn6 O45 1.918530 1_555
Mn6 O41 1.941558 1_655
Mn6 O5 1.948322 1_555
Mn6 O9 1.951953 1_555
Mn6 O13 1.968865 1_655
Mn6 O1 1.969552 1_655
Mn7 O14 1.915008 1_555
Mn7 O2 1.940007 1_555
Mn7 O6 1.947621 1_455
Mn7 O42 1.951617 1_555
Mn7 O46 1.953134 1_455
Mn7 O10 1.964756 1_455
Mn8 O43 1.949400 1_555
Mn8 O47 1.950025 1_455
Mn8 O3 1.954894 1_555
Mn8 O7 1.957553 1_455
Mn8 O15 1.962064 1_555
Mn8 O11 1.963654 1_455
Mn9 O33 1.918863 1_555
Mn9 O39 1.941334 1_545
Mn9 O9 1.948690 1_555
Mn9 O7 1.956102 1_545
Mn9 O15 1.967628 1_545
Mn9 O1 1.970982 1_555
Mn10 O4 1.919081 1_555
Mn10 O10 1.939484 1_555
Mn10 O12 1.945418 1_555
Mn10 O34 1.950613 1_555
Mn10 O36 1.953427 1_555
Mn10 O2 1.965709 1_555
Mn11 O37 1.949345 1_555
Mn11 O35 1.950815 1_555
Mn11 O11 1.955480 1_555
Mn11 O13 1.957677 1_555
Mn11 O5 1.958851 1_555
Mn11 O3 1.960461 1_555
O0 Ti2 1.954324 1_555
O0 Ti3 1.964694 1_545
O4 Ti2 1.981468 1_655
O6 Ti3 1.979433 1_555
O8 Ti3 1.964910 1_545
O8 Ti2 1.975071 1_655
O12 Ti2 1.972233 1_555
O14 Ti3 1.972259 1_555
O17 Ti1 1.972235 1_555
O19 Ti0 1.972261 1_555
O20 Ti0 1.964908 1_544
O20 Ti1 1.975069 1_654
O24 Ti1 1.981465 1_654
O26 Ti0 1.979437 1_554
O29 Ti1 1.954326 1_555
O29 Ti0 1.964697 1_545
O32 Ti3 1.970441 1_545
O33 Ti0 1.970442 1_545
O38 Ti0 1.954800 1_554
O38 Ti3 1.954800 1_555
O40 Ti2 1.954952 1_555
O40 Ti1 1.954952 1_554
O44 Ti2 1.970436 1_655
O45 Ti1 1.970436 1_655
