# generated using pymatgen
data_RbMgCu2H3(SO5)2
_symmetry_space_group_name_H-M   'P 1'
_cell_length_a   6.01384266
_cell_length_b   6.09742169
_cell_length_c   8.76430162
_cell_angle_alpha   63.11279208
_cell_angle_beta   93.97199045
_cell_angle_gamma   116.45409553
_symmetry_Int_Tables_number   1
_chemical_formula_structural   RbMgCu2H3(SO5)2
_chemical_formula_sum   'Rb1 Mg1 Cu2 H3 S2 O10'
_cell_volume   253.08192905
_cell_formula_units_Z   1
loop_
 _symmetry_equiv_pos_site_id
 _symmetry_equiv_pos_as_xyz
  1  'x, y, z'
loop_
 _atom_site_type_symbol
 _atom_site_label
 _atom_site_symmetry_multiplicity
 _atom_site_fract_x
 _atom_site_fract_y
 _atom_site_fract_z
 _atom_site_occupancy
  Rb  Rb0  1  0.47409000  0.98437400  0.54016100  1
  Mg  Mg0  1  0.12012000  0.59861200  0.29138400  1
  Cu  Cu0  1  0.04179300  0.49442500  0.96584100  1
  Cu  Cu1  1  0.54699500  0.98596900  0.96331900  1
  H  H0  1  0.75977300  0.50772500  0.73145600  1
  H  H1  1  0.36658400  0.47300300  0.15534000  1
  H  H2  1  0.61413600  0.47755300  0.88614300  1
  S  S0  1  0.08935100  0.19926900  0.72086900  1
  S  S1  1  0.84954300  0.80360200  0.34323300  1
  O  O0  1  0.81186100  0.03025400  0.78162100  1
  O  O1  1  0.19969400  0.40838000  0.78509800  1
  O  O2  1  0.13524600  0.94140300  0.29474500  1
  O  O3  1  0.76312600  0.56395100  0.30114100  1
  O  O4  1  0.72296500  0.41168700  0.86293000  1
  O  O5  1  0.29030200  0.59722700  0.10911800  1
  O  O6  1  0.21191700  0.01814600  0.77697400  1
  O  O7  1  0.74638400  0.99477500  0.24086600  1
  O  O8  1  0.13655200  0.35214300  0.52376200  1
  O  O9  1  0.77821700  0.69842200  0.52999800  1
loop_
_geom_bond_atom_site_label_1
_geom_bond_atom_site_label_2
_geom_bond_distance
_geom_bond_site_symmetry_2
Mg0 O8 1.937068 1_555
Mg0 O5 1.961048 1_555
Mg0 O2 2.064885 1_555
Mg0 O3 2.065433 1_455
Cu0 O5 1.954625 1_556
Cu0 O4 2.013581 1_455
Cu0 O1 2.256167 1_555
Cu0 O6 2.554794 1_565
Cu1 O5 1.976858 1_556
Cu1 O4 2.061051 1_565
Cu1 O0 2.173778 1_565
Cu1 O6 2.524467 1_565
Cu1 O7 2.648486 1_556
H0 O4 1.014496 1_555
H0 O9 1.592835 1_555
H1 O5 0.977033 1_555
H2 O4 0.978551 1_555
O0 S0 1.491618 1_655
O0 Rb0 2.848948 1_545
O1 S0 1.492160 1_555
O1 Rb0 2.859038 1_555
O2 S1 1.526647 1_455
O2 Rb0 2.876505 1_555
O3 S1 1.525072 1_555
O3 Rb0 2.869512 1_545
O6 S0 1.479407 1_555
O6 Rb0 2.822262 1_545
O7 S1 1.473045 1_555
O7 Rb0 3.149340 1_555
O8 S0 1.519696 1_555
O9 S1 1.475571 1_555
O9 Rb0 3.065512 1_555
