# generated using pymatgen
data_BaGaSi
_symmetry_space_group_name_H-M   'P 1'
_cell_length_a   4.23780000
_cell_length_b   4.23780000
_cell_length_c   5.18213978
_cell_angle_alpha   90.00000000
_cell_angle_beta   90.00000000
_cell_angle_gamma   119.99999277
_symmetry_Int_Tables_number   1
_chemical_formula_structural   BaGaSi
_chemical_formula_sum   'Ba1 Ga1 Si1'
_cell_volume   80.59733822
_cell_formula_units_Z   1
loop_
 _symmetry_equiv_pos_site_id
 _symmetry_equiv_pos_as_xyz
  1  'x, y, z'
loop_
 _atom_site_type_symbol
 _atom_site_label
 _atom_site_symmetry_multiplicity
 _atom_site_fract_x
 _atom_site_fract_y
 _atom_site_fract_z
 _atom_site_occupancy
  Ba  Ba0  1  0.33333300  0.66666700  -0.00000000  1
  Ga  Ga0  1  0.66666700  0.33333300  0.50000000  1
  Si  Si0  1  -0.00000000  0.00000000  0.50000000  1
loop_
_geom_bond_atom_site_label_1
_geom_bond_atom_site_label_2
_geom_bond_distance
_geom_bond_site_symmetry_2
Ba0 Si0 3.563699 1_564
Ba0 Si0 3.563699 1_565
Ba0 Ga0 3.563699 1_455
Ba0 Ga0 3.563699 1_454
Ba0 Ga0 3.563699 1_565
Ba0 Ga0 3.563699 1_564
Ba0 Si0 3.563701 1_664
Ba0 Si0 3.563701 1_665
Ba0 Si0 3.563701 1_555
Ba0 Si0 3.563701 1_554
Ba0 Ga0 3.563704 1_555
Ba0 Ga0 3.563704 1_554
Ga0 Si0 2.446692 1_655
Ga0 Si0 2.446696 1_555
Ga0 Si0 2.446696 1_665
