# generated using pymatgen
data_RbNbGeO5
_symmetry_space_group_name_H-M   'P 1'
_cell_length_a   7.58624522
_cell_length_b   10.59485609
_cell_length_c   20.98767377
_cell_angle_alpha   90.00000000
_cell_angle_beta   90.00000000
_cell_angle_gamma   90.00000000
_symmetry_Int_Tables_number   1
_chemical_formula_structural   RbNbGeO5
_chemical_formula_sum   'Rb12 Nb12 Ge12 O60'
_cell_volume   1686.88798085
_cell_formula_units_Z   12
loop_
 _symmetry_equiv_pos_site_id
 _symmetry_equiv_pos_as_xyz
  1  'x, y, z'
loop_
 _atom_site_type_symbol
 _atom_site_label
 _atom_site_symmetry_multiplicity
 _atom_site_fract_x
 _atom_site_fract_y
 _atom_site_fract_z
 _atom_site_occupancy
  Rb  Rb0  1  0.23969389  0.38231780  0.34863193  1
  Rb  Rb1  1  0.26030611  0.61768220  0.84863193  1
  Rb  Rb2  1  0.76030611  0.88231780  0.15136807  1
  Rb  Rb3  1  0.73969389  0.11768220  0.65136807  1
  Rb  Rb4  1  0.25896356  0.68600908  0.16713752  1
  Rb  Rb5  1  0.24103644  0.31399092  0.66713752  1
  Rb  Rb6  1  0.74103644  0.18600908  0.33286248  1
  Rb  Rb7  1  0.75896356  0.81399092  0.83286248  1
  Rb  Rb8  1  0.22178260  0.38463733  0.01718251  1
  Rb  Rb9  1  0.27821740  0.61536267  0.51718251  1
  Rb  Rb10  1  0.77821740  0.88463733  0.48281749  1
  Rb  Rb11  1  0.72178260  0.11536267  0.98281749  1
  Nb  Nb0  1  0.25766835  0.02086732  0.39899917  1
  Nb  Nb1  1  0.24233165  0.97913268  0.89899917  1
  Nb  Nb2  1  0.74233165  0.52086732  0.10100083  1
  Nb  Nb3  1  0.75766835  0.47913268  0.60100083  1
  Nb  Nb4  1  0.47995910  0.26676153  0.49964229  1
  Nb  Nb5  1  0.02004090  0.73323847  0.99964229  1
  Nb  Nb6  1  0.52004090  0.76676153  0.00035771  1
  Nb  Nb7  1  0.97995910  0.23323847  0.50035771  1
  Nb  Nb8  1  0.23562085  0.01477561  0.07357728  1
  Nb  Nb9  1  0.26437915  0.98522439  0.57357728  1
  Nb  Nb10  1  0.76437915  0.51477561  0.42642272  1
  Nb  Nb11  1  0.73562085  0.48522439  0.92642272  1
  Ge  Ge0  1  0.51930410  0.24447826  0.14847745  1
  Ge  Ge1  1  0.98069590  0.75552174  0.64847745  1
  Ge  Ge2  1  0.48069590  0.74447826  0.35152255  1
  Ge  Ge3  1  0.01930410  0.25552174  0.85152255  1
  Ge  Ge4  1  0.23502735  0.11683318  0.23043472  1
  Ge  Ge5  1  0.26497265  0.88316682  0.73043472  1
  Ge  Ge6  1  0.76497265  0.61683318  0.26956528  1
  Ge  Ge7  1  0.73502735  0.38316682  0.76956528  1
  Ge  Ge8  1  0.06450178  0.73142317  0.35180673  1
  Ge  Ge9  1  0.43549822  0.26857683  0.85180673  1
  Ge  Ge10  1  0.93549822  0.23142317  0.14819327  1
  Ge  Ge11  1  0.56450178  0.76857683  0.64819327  1
  O  O0  1  0.06095218  0.10287014  0.56278593  1
  O  O1  1  0.43904782  0.89712986  0.06278593  1
  O  O2  1  0.93904782  0.60287014  0.93721407  1
  O  O3  1  0.56095218  0.39712986  0.43721407  1
  O  O4  1  0.23972995  0.08979261  0.31184162  1
  O  O5  1  0.26027005  0.91020739  0.81184162  1
  O  O6  1  0.76027005  0.58979261  0.18815838  1
  O  O7  1  0.73972995  0.41020739  0.68815838  1
  O  O8  1  0.02847337  0.13908262  0.08808924  1
  O  O9  1  0.47152663  0.86091738  0.58808924  1
  O  O10  1  0.97152663  0.63908262  0.41191076  1
  O  O11  1  0.52847337  0.36091738  0.91191076  1
  O  O12  1  0.03628233  0.20823772  0.22439015  1
  O  O13  1  0.46371767  0.79176228  0.72439015  1
  O  O14  1  0.96371767  0.70823772  0.27560985  1
  O  O15  1  0.53628233  0.29176228  0.77560985  1
  O  O16  1  0.41217472  0.16652519  0.08680818  1
  O  O17  1  0.08782528  0.83347481  0.58680818  1
  O  O18  1  0.58782528  0.66652519  0.41319182  1
  O  O19  1  0.91217472  0.33347481  0.91319182  1
  O  O20  1  0.40953004  0.23120860  0.22364161  1
  O  O21  1  0.09046996  0.76879140  0.72364161  1
  O  O22  1  0.59046996  0.73120860  0.27635839  1
  O  O23  1  0.90953004  0.26879140  0.77635839  1
  O  O24  1  0.23740001  0.31240581  0.50134711  1
  O  O25  1  0.26259999  0.68759419  0.00134711  1
  O  O26  1  0.76259999  0.81240581  0.99865289  1
  O  O27  1  0.73740001  0.18759419  0.49865289  1
  O  O28  1  0.42784158  0.14559105  0.42563826  1
  O  O29  1  0.07215842  0.85440895  0.92563826  1
  O  O30  1  0.57215842  0.64559105  0.07436174  1
  O  O31  1  0.92784158  0.35440895  0.57436174  1
  O  O32  1  0.73579955  0.43908209  0.01438329  1
  O  O33  1  0.76420045  0.56091791  0.51438329  1
  O  O34  1  0.26420045  0.93908209  0.48561671  1
  O  O35  1  0.23579955  0.06091791  0.98561671  1
  O  O36  1  0.05638577  0.12487294  0.42867825  1
  O  O37  1  0.44361423  0.87512706  0.92867825  1
  O  O38  1  0.94361423  0.62487294  0.07132175  1
  O  O39  1  0.55638577  0.37512706  0.57132175  1
  O  O40  1  0.72290803  0.16494763  0.16525344  1
  O  O41  1  0.77709197  0.83505237  0.66525344  1
  O  O42  1  0.27709197  0.66494763  0.33474656  1
  O  O43  1  0.22290803  0.33505237  0.83474656  1
  O  O44  1  0.24579281  0.99325686  0.17580893  1
  O  O45  1  0.25420719  0.00674314  0.67580893  1
  O  O46  1  0.75420719  0.49325686  0.32419107  1
  O  O47  1  0.74579281  0.50674314  0.82419107  1
  O  O48  1  0.54413834  0.40395384  0.13053464  1
  O  O49  1  0.95586166  0.59604616  0.63053464  1
  O  O50  1  0.45586166  0.90395384  0.36946536  1
  O  O51  1  0.04413834  0.09604616  0.86946536  1
  O  O52  1  0.06545688  0.88919231  0.37315656  1
  O  O53  1  0.43454312  0.11080769  0.87315656  1
  O  O54  1  0.93454312  0.38919231  0.12684344  1
  O  O55  1  0.56545688  0.61080769  0.62684344  1
  O  O56  1  0.42511401  0.12509301  0.56515093  1
  O  O57  1  0.07488599  0.87490699  0.06515093  1
  O  O58  1  0.57488599  0.62509301  0.93484907  1
  O  O59  1  0.92511401  0.37490699  0.43484907  1
loop_
_geom_bond_atom_site_label_1
_geom_bond_atom_site_label_2
_geom_bond_distance
_geom_bond_site_symmetry_2
Nb0 O28 1.930124 1_555
Nb0 O4 1.974307 1_555
Nb0 O36 1.983406 1_555
Nb0 O34 2.014459 1_545
Nb0 O50 2.044305 1_545
Nb0 O52 2.089654 1_545
Nb1 O29 1.930124 1_555
Nb1 O5 1.974307 1_555
Nb1 O37 1.983406 1_555
Nb1 O35 2.014459 1_565
Nb1 O51 2.044305 1_565
Nb1 O53 2.089654 1_565
Nb2 O30 1.930124 1_555
Nb2 O6 1.974307 1_555
Nb2 O38 1.983406 1_555
Nb2 O32 2.014459 1_555
Nb2 O48 2.044305 1_555
Nb2 O54 2.089654 1_555
Nb3 O31 1.930124 1_555
Nb3 O7 1.974307 1_555
Nb3 O39 1.983406 1_555
Nb3 O33 2.014459 1_555
Nb3 O49 2.044305 1_555
Nb3 O55 2.089654 1_555
Nb4 O24 1.902934 1_555
Nb4 O39 1.979269 1_555
Nb4 O3 2.000505 1_555
Nb4 O28 2.053477 1_555
Nb4 O56 2.077562 1_555
Nb4 O27 2.125608 1_555
Nb5 O25 1.902934 1_556
Nb5 O38 1.979269 1_456
Nb5 O2 2.000505 1_455
Nb5 O29 2.053477 1_555
Nb5 O57 2.077562 1_556
Nb5 O26 2.125608 1_455
Nb6 O26 1.902934 1_554
Nb6 O37 1.979269 1_554
Nb6 O1 2.000505 1_555
Nb6 O30 2.053477 1_555
Nb6 O58 2.077562 1_554
Nb6 O25 2.125608 1_555
Nb7 O27 1.902934 1_555
Nb7 O36 1.979269 1_655
Nb7 O0 2.000505 1_655
Nb7 O31 2.053477 1_555
Nb7 O59 2.077562 1_555
Nb7 O24 2.125608 1_655
Nb8 O35 1.909722 1_554
Nb8 O57 1.927211 1_545
Nb8 O1 1.996627 1_545
Nb8 O8 2.072876 1_555
Nb8 O16 2.110914 1_555
Nb8 O44 2.159063 1_545
Nb9 O34 1.909722 1_555
Nb9 O56 1.927211 1_565
Nb9 O0 1.996627 1_565
Nb9 O9 2.072876 1_555
Nb9 O17 2.110914 1_555
Nb9 O45 2.159063 1_565
Nb10 O33 1.909722 1_555
Nb10 O59 1.927211 1_555
Nb10 O3 1.996627 1_555
Nb10 O10 2.072876 1_555
Nb10 O18 2.110914 1_555
Nb10 O46 2.159063 1_555
Nb11 O32 1.909722 1_556
Nb11 O58 1.927211 1_555
Nb11 O2 1.996627 1_555
Nb11 O11 2.072876 1_555
Nb11 O19 2.110914 1_555
Nb11 O47 2.159063 1_555
Ge0 O16 1.737184 1_555
Ge0 O48 1.741299 1_555
Ge0 O20 1.789371 1_555
Ge0 O40 1.794359 1_555
Ge1 O17 1.737184 1_655
Ge1 O49 1.741299 1_555
Ge1 O21 1.789371 1_655
Ge1 O41 1.794359 1_555
Ge2 O18 1.737184 1_555
Ge2 O50 1.741299 1_555
Ge2 O22 1.789371 1_555
Ge2 O42 1.794359 1_555
Ge3 O19 1.737184 1_455
Ge3 O51 1.741299 1_555
Ge3 O23 1.789371 1_455
Ge3 O43 1.794359 1_555
Ge4 O4 1.732762 1_555
Ge4 O44 1.742199 1_545
Ge4 O12 1.796433 1_555
Ge4 O20 1.800351 1_555
Ge5 O5 1.732762 1_555
Ge5 O45 1.742199 1_565
Ge5 O13 1.796433 1_555
Ge5 O21 1.800351 1_555
Ge6 O6 1.732762 1_555
Ge6 O46 1.742199 1_555
Ge6 O14 1.796433 1_555
Ge6 O22 1.800351 1_555
Ge7 O7 1.732762 1_555
Ge7 O47 1.742199 1_555
Ge7 O15 1.796433 1_555
Ge7 O23 1.800351 1_555
Ge8 O52 1.730573 1_555
Ge8 O10 1.745243 1_455
Ge8 O14 1.789508 1_455
Ge8 O42 1.795895 1_555
Ge9 O53 1.730573 1_555
Ge9 O11 1.745243 1_555
Ge9 O15 1.789508 1_555
Ge9 O43 1.795895 1_555
Ge10 O54 1.730573 1_555
Ge10 O8 1.745243 1_655
Ge10 O12 1.789508 1_655
Ge10 O40 1.795895 1_555
Ge11 O55 1.730573 1_555
Ge11 O9 1.745243 1_555
Ge11 O13 1.789508 1_555
Ge11 O41 1.795895 1_555
O0 Rb3 3.069312 1_455
O0 Rb5 3.415578 1_555
O0 Rb10 3.572598 1_445
O1 Rb2 3.069312 1_555
O1 Rb4 3.415578 1_555
O1 Rb11 3.572598 1_564
O2 Rb1 3.069312 1_655
O2 Rb7 3.415578 1_555
O2 Rb8 3.572598 1_656
O3 Rb0 3.069312 1_555
O3 Rb6 3.415578 1_555
O3 Rb9 3.572598 1_555
O4 Rb0 3.193999 1_555
O5 Rb1 3.193999 1_555
O6 Rb2 3.193999 1_555
O7 Rb3 3.193999 1_555
O8 Rb11 3.218363 1_454
O8 Rb8 3.336712 1_555
O9 Rb10 3.218363 1_555
O9 Rb9 3.336712 1_555
O10 Rb9 3.218363 1_655
O10 Rb10 3.336712 1_555
O11 Rb8 3.218363 1_556
O11 Rb11 3.336712 1_555
O12 Rb6 3.202347 1_455
O12 Rb0 3.547138 1_555
O13 Rb7 3.202347 1_555
O13 Rb1 3.547138 1_555
O14 Rb4 3.202347 1_655
O14 Rb2 3.547138 1_555
O15 Rb5 3.202347 1_555
O15 Rb3 3.547138 1_555
O16 Rb8 3.092188 1_555
O16 Rb11 3.251755 1_554
O17 Rb9 3.092188 1_555
O17 Rb10 3.251755 1_455
O18 Rb10 3.092188 1_555
O18 Rb9 3.251755 1_555
O19 Rb11 3.092188 1_555
O19 Rb8 3.251755 1_656
O20 Rb0 3.332361 1_555
O20 Rb6 3.436364 1_555
O21 Rb1 3.332361 1_555
O21 Rb7 3.436364 1_455
O22 Rb2 3.332361 1_555
O22 Rb4 3.436364 1_555
O23 Rb3 3.332361 1_555
O23 Rb5 3.436364 1_655
O24 Rb9 3.241767 1_555
O24 Rb0 3.289658 1_555
O24 Rb5 3.479705 1_555
O25 Rb8 3.241767 1_555
O25 Rb1 3.289658 1_554
O25 Rb4 3.479705 1_555
O26 Rb11 3.241767 1_565
O26 Rb2 3.289658 1_556
O26 Rb7 3.479705 1_555
O27 Rb10 3.241767 1_545
O27 Rb3 3.289658 1_555
O27 Rb6 3.479705 1_555
O28 Rb6 3.101614 1_555
O28 Rb0 3.307541 1_555
O29 Rb7 3.101614 1_455
O29 Rb1 3.307541 1_555
O30 Rb4 3.101614 1_555
O30 Rb2 3.307541 1_555
O31 Rb5 3.101614 1_655
O31 Rb3 3.307541 1_555
O32 Rb11 3.494776 1_554
O33 Rb10 3.494776 1_555
O34 Rb9 3.494776 1_555
O35 Rb8 3.494776 1_556
O36 Rb6 3.191654 1_455
O36 Rb0 3.492267 1_555
O36 Rb10 3.496084 1_445
O37 Rb7 3.191654 1_555
O37 Rb1 3.492267 1_555
O37 Rb11 3.496084 1_565
O38 Rb4 3.191654 1_655
O38 Rb2 3.492267 1_555
O38 Rb8 3.496084 1_655
O39 Rb5 3.191654 1_555
O39 Rb3 3.492267 1_555
O39 Rb9 3.496084 1_555
O40 Rb2 3.021917 1_545
O40 Rb6 3.527476 1_555
O41 Rb3 3.021917 1_565
O41 Rb7 3.527476 1_555
O42 Rb0 3.021917 1_555
O42 Rb4 3.527476 1_555
O43 Rb1 3.021917 1_555
O43 Rb5 3.527476 1_555
O44 Rb4 3.261860 1_555
O45 Rb5 3.261860 1_555
O46 Rb6 3.261860 1_555
O47 Rb7 3.261860 1_555
O48 Rb8 3.417870 1_555
O49 Rb9 3.417870 1_655
O50 Rb10 3.417870 1_555
O51 Rb11 3.417870 1_455
O52 Rb10 3.169811 1_455
O53 Rb11 3.169811 1_555
O54 Rb8 3.169811 1_655
O55 Rb9 3.169811 1_555
O56 Rb3 2.995953 1_555
O56 Rb5 3.246083 1_555
O57 Rb2 2.995953 1_455
O57 Rb4 3.246083 1_555
O58 Rb1 2.995953 1_555
O58 Rb7 3.246083 1_555
O59 Rb0 2.995953 1_655
O59 Rb6 3.246083 1_555
