# generated using pymatgen
data_Nd2Fe15Si2
_symmetry_space_group_name_H-M   'P 1'
_cell_length_a   6.43274120
_cell_length_b   6.43274120
_cell_length_c   6.43274058
_cell_angle_alpha   81.82047537
_cell_angle_beta   81.82047537
_cell_angle_gamma   81.82047711
_symmetry_Int_Tables_number   1
_chemical_formula_structural   Nd2Fe15Si2
_chemical_formula_sum   'Nd2 Fe15 Si2'
_cell_volume   258.76869578
_cell_formula_units_Z   1
loop_
 _symmetry_equiv_pos_site_id
 _symmetry_equiv_pos_as_xyz
  1  'x, y, z'
loop_
 _atom_site_type_symbol
 _atom_site_label
 _atom_site_symmetry_multiplicity
 _atom_site_fract_x
 _atom_site_fract_y
 _atom_site_fract_z
 _atom_site_occupancy
  Nd  Nd0  1  0.65422500  0.65422500  0.65422500  1
  Nd  Nd1  1  0.34577500  0.34577500  0.34577500  1
  Fe  Fe0  1  0.00000000  0.00000000  0.50000000  1
  Fe  Fe1  1  0.00000000  0.50000000  0.00000000  1
  Fe  Fe2  1  0.50000000  0.00000000  0.00000000  1
  Fe  Fe3  1  0.28637900  0.71362100  0.00000000  1
  Fe  Fe4  1  0.71362100  0.00000000  0.28637900  1
  Fe  Fe5  1  0.00000000  0.28637900  0.71362100  1
  Fe  Fe6  1  0.28637900  0.00000000  0.71362100  1
  Fe  Fe7  1  0.00000000  0.71362100  0.28637900  1
  Fe  Fe8  1  0.71362100  0.28637900  0.00000000  1
  Fe  Fe9  1  0.33803300  0.33803300  0.84484300  1
  Fe  Fe10  1  0.33803300  0.84484300  0.33803300  1
  Fe  Fe11  1  0.84484300  0.33803300  0.33803300  1
  Fe  Fe12  1  0.66196700  0.66196700  0.15515700  1
  Fe  Fe13  1  0.66196700  0.15515700  0.66196700  1
  Fe  Fe14  1  0.15515700  0.66196700  0.66196700  1
  Si  Si0  1  0.89823900  0.89823900  0.89823900  1
  Si  Si1  1  0.10176100  0.10176100  0.10176100  1
loop_
_geom_bond_atom_site_label_1
_geom_bond_atom_site_label_2
_geom_bond_distance
_geom_bond_site_symmetry_2
Nd0 Si0 3.081392 1_555
Nd1 Si1 3.081392 1_555
Fe0 Fe10 2.417383 1_545
Fe0 Fe14 2.417383 1_545
Fe0 Fe13 2.417383 1_455
Fe0 Fe11 2.417383 1_455
Fe0 Fe5 2.449977 1_555
Fe0 Fe6 2.449977 1_555
Fe0 Fe4 2.449977 1_455
Fe0 Fe7 2.449977 1_545
Fe0 Si0 2.566563 1_445
Fe0 Si1 2.566563 1_555
Fe0 Nd1 3.321304 1_555
Fe0 Nd0 3.321304 1_445
Fe1 Fe14 2.417383 1_554
Fe1 Fe11 2.417383 1_455
Fe1 Fe12 2.417383 1_455
Fe1 Fe9 2.417383 1_554
Fe1 Fe7 2.449977 1_555
Fe1 Fe5 2.449977 1_554
Fe1 Fe3 2.449977 1_555
Fe1 Fe8 2.449977 1_455
Fe1 Si0 2.566564 1_454
Fe1 Si1 2.566564 1_555
Fe1 Nd1 3.321304 1_555
Fe1 Nd0 3.321304 1_454
Fe2 Fe9 2.417383 1_554
Fe2 Fe4 2.449977 1_555
Fe2 Fe6 2.449977 1_554
Fe2 Fe8 2.449977 1_555
Fe2 Fe3 2.449977 1_545
Fe2 Si0 2.566564 1_544
Fe2 Si1 2.566564 1_555
Fe2 Nd1 3.321304 1_555
Fe2 Nd0 3.321304 1_544
Fe3 Fe7 2.412827 1_555
Fe3 Fe6 2.412827 1_564
Fe3 Fe9 2.703201 1_554
Fe3 Si1 2.733686 1_565
Fe3 Si0 2.733686 1_454
Fe3 Nd0 3.029769 1_554
Fe3 Nd1 3.029769 1_555
Fe4 Fe8 2.412827 1_555
Fe4 Fe7 2.412827 1_645
Fe4 Si0 2.733686 1_544
Fe4 Si1 2.733686 1_655
Fe4 Nd0 3.029769 1_545
Fe4 Nd1 3.029769 1_555
Fe5 Fe8 2.412827 1_456
Fe5 Fe6 2.412827 1_555
Fe5 Fe9 2.521706 1_555
Fe5 Si1 2.733686 1_556
Fe5 Si0 2.733686 1_445
Fe5 Nd1 3.029769 1_555
Fe5 Nd0 3.029769 1_455
Fe6 Fe9 2.521706 1_555
Fe6 Si1 2.733686 1_556
Fe6 Si0 2.733686 1_445
Fe6 Nd1 3.029769 1_555
Fe6 Nd0 3.029769 1_545
Fe7 Si0 2.733686 1_454
Fe7 Si1 2.733686 1_565
Fe7 Nd0 3.029769 1_455
Fe7 Nd1 3.029769 1_555
Fe8 Fe9 2.703201 1_554
Fe8 Si1 2.733686 1_655
Fe8 Si0 2.733686 1_544
Fe8 Nd1 3.029769 1_555
Fe8 Nd0 3.029769 1_554
Fe9 Si1 2.565001 1_556
Fe9 Nd0 3.087969 1_555
Fe9 Nd1 3.197059 1_555
Fe9 Nd1 3.237381 1_556
Fe10 Fe2 2.417383 1_565
Fe10 Fe14 2.471575 1_555
Fe10 Fe12 2.471575 1_555
Fe10 Fe3 2.521706 1_555
Fe10 Fe7 2.521706 1_555
Fe10 Si1 2.565001 1_565
Fe10 Fe6 2.703201 1_565
Fe10 Fe4 2.703201 1_565
Fe10 Nd0 3.087969 1_555
Fe10 Nd1 3.197059 1_555
Fe10 Nd1 3.237381 1_565
Fe11 Fe13 2.471575 1_555
Fe11 Fe12 2.471575 1_555
Fe11 Fe8 2.521706 1_555
Fe11 Fe4 2.521706 1_555
Fe11 Si1 2.565001 1_655
Fe11 Fe5 2.703201 1_655
Fe11 Fe7 2.703201 1_655
Fe11 Nd0 3.087969 1_555
Fe11 Nd1 3.197059 1_555
Fe11 Nd1 3.237381 1_655
Fe12 Fe2 2.417383 1_565
Fe12 Fe4 2.521706 1_565
Fe12 Fe7 2.521706 1_655
Fe12 Si0 2.565001 1_554
Fe12 Fe8 2.703201 1_555
Fe12 Fe3 2.703201 1_555
Fe12 Nd1 3.087969 1_555
Fe12 Nd0 3.197059 1_555
Fe12 Nd0 3.237381 1_554
Fe13 Fe2 2.417383 1_556
Fe13 Fe9 2.471575 1_555
Fe13 Fe8 2.521706 1_556
Fe13 Fe5 2.521706 1_655
Fe13 Si0 2.565001 1_545
Fe13 Fe4 2.703201 1_555
Fe13 Fe6 2.703201 1_555
Fe13 Nd1 3.087969 1_555
Fe13 Nd0 3.197059 1_555
Fe13 Nd0 3.237381 1_545
Fe14 Fe9 2.471575 1_555
Fe14 Fe3 2.521706 1_556
Fe14 Fe6 2.521706 1_565
Fe14 Si0 2.565001 1_455
Fe14 Fe7 2.703201 1_555
Fe14 Fe5 2.703201 1_555
Fe14 Nd1 3.087969 1_555
Fe14 Nd0 3.197059 1_555
Fe14 Nd0 3.237381 1_455
Si0 Si1 2.570062 1_666
