# generated using pymatgen
data_SrMg3
_symmetry_space_group_name_H-M   'P 1'
_cell_length_a   7.14946203
_cell_length_b   7.14946203
_cell_length_c   5.38612107
_cell_angle_alpha   90.00000000
_cell_angle_beta   90.00000000
_cell_angle_gamma   119.99999569
_symmetry_Int_Tables_number   1
_chemical_formula_structural   SrMg3
_chemical_formula_sum   'Sr2 Mg6'
_cell_volume   238.42593278
_cell_formula_units_Z   2
loop_
 _symmetry_equiv_pos_site_id
 _symmetry_equiv_pos_as_xyz
  1  'x, y, z'
loop_
 _atom_site_type_symbol
 _atom_site_label
 _atom_site_symmetry_multiplicity
 _atom_site_fract_x
 _atom_site_fract_y
 _atom_site_fract_z
 _atom_site_occupancy
  Sr  Sr0  1  0.33333300  0.66666700  0.25000000  1
  Sr  Sr1  1  0.66666700  0.33333300  0.75000000  1
  Mg  Mg0  1  0.30001894  0.15000997  0.25000000  1
  Mg  Mg1  1  0.84999003  0.15000997  0.25000000  1
  Mg  Mg2  1  0.84999003  0.69998106  0.25000000  1
  Mg  Mg3  1  0.69998106  0.84999003  0.75000000  1
  Mg  Mg4  1  0.15000997  0.30001894  0.75000000  1
  Mg  Mg5  1  0.15000997  0.84999003  0.75000000  1
loop_
_geom_bond_atom_site_label_1
_geom_bond_atom_site_label_2
_geom_bond_distance
_geom_bond_site_symmetry_2
Mg0 Mg1 3.217465 1_455
Mg0 Mg2 3.217465 1_445
Mg0 Mg4 3.271580 1_555
Mg0 Mg4 3.271580 1_554
Mg0 Mg5 3.271587 1_545
Mg0 Mg5 3.271587 1_544
Mg0 Sr1 3.522233 1_554
Mg0 Sr1 3.522233 1_555
Mg0 Sr0 3.580677 1_545
Mg0 Sr0 3.580677 1_555
Mg1 Mg2 3.217465 1_545
Mg1 Mg4 3.271587 1_655
Mg1 Mg4 3.271587 1_654
Mg1 Mg3 3.271587 1_544
Mg1 Mg3 3.271587 1_545
Mg1 Sr1 3.522225 1_555
Mg1 Sr1 3.522225 1_554
Mg1 Sr0 3.580677 1_545
Mg1 Sr0 3.580677 1_655
Mg2 Mg3 3.271580 1_554
Mg2 Mg3 3.271580 1_555
Mg2 Mg5 3.271587 1_654
Mg2 Mg5 3.271587 1_655
Mg2 Sr1 3.522233 1_554
Mg2 Sr1 3.522233 1_555
Mg2 Sr0 3.580677 1_655
Mg2 Sr0 3.580677 1_555
Mg3 Mg5 3.217465 1_655
Mg3 Mg4 3.217465 1_665
Mg3 Sr0 3.522233 1_555
Mg3 Sr0 3.522233 1_556
Mg3 Sr1 3.580677 1_565
Mg3 Sr1 3.580677 1_555
Mg4 Mg5 3.217465 1_545
Mg4 Sr0 3.522233 1_555
Mg4 Sr0 3.522233 1_556
Mg4 Sr1 3.580677 1_455
Mg4 Sr1 3.580677 1_555
Mg5 Sr0 3.522225 1_555
Mg5 Sr0 3.522225 1_556
Mg5 Sr1 3.580677 1_455
Mg5 Sr1 3.580677 1_565
