# generated using pymatgen
data_LaMg14C
_symmetry_space_group_name_H-M   'P 1'
_cell_length_a   6.62781209
_cell_length_b   5.98327339
_cell_length_c   10.39241235
_cell_angle_alpha   90.00000000
_cell_angle_beta   90.00000000
_cell_angle_gamma   116.83201979
_symmetry_Int_Tables_number   1
_chemical_formula_structural   LaMg14C
_chemical_formula_sum   'La1 Mg14 C1'
_cell_volume   367.75001767
_cell_formula_units_Z   1
loop_
 _symmetry_equiv_pos_site_id
 _symmetry_equiv_pos_as_xyz
  1  'x, y, z'
loop_
 _atom_site_type_symbol
 _atom_site_label
 _atom_site_symmetry_multiplicity
 _atom_site_fract_x
 _atom_site_fract_y
 _atom_site_fract_z
 _atom_site_occupancy
  La  La0  1  0.10269633  0.30134767  0.12500000  1
  Mg  Mg0  1  0.15465921  0.32732910  0.62500000  1
  Mg  Mg1  1  0.13704582  0.81852241  0.62500000  1
  Mg  Mg2  1  0.57350770  0.26761603  0.12500000  1
  Mg  Mg3  1  0.65231705  0.32943611  0.62500000  1
  Mg  Mg4  1  0.57350770  0.80589067  0.12500000  1
  Mg  Mg5  1  0.65231705  0.82287993  0.62500000  1
  Mg  Mg6  1  0.34663979  0.17513371  0.38278098  1
  Mg  Mg7  1  0.34663979  0.17513371  0.86721902  1
  Mg  Mg8  1  0.34663979  0.67150708  0.38278098  1
  Mg  Mg9  1  0.34663979  0.67150708  0.86721902  1
  Mg  Mg10  1  0.82603364  0.16301732  0.38675853  1
  Mg  Mg11  1  0.82603364  0.16301732  0.86324147  1
  Mg  Mg12  1  0.93262479  0.71631290  0.27862428  1
  Mg  Mg13  1  0.93262479  0.71631290  0.97137572  1
  C  C0  1  0.25007311  0.87503606  0.12500000  1
loop_
_geom_bond_atom_site_label_1
_geom_bond_atom_site_label_2
_geom_bond_distance
_geom_bond_site_symmetry_2
La0 Mg10 3.174483 1_455
La0 Mg11 3.174483 1_454
La0 Mg4 3.216594 1_555
La0 Mg2 3.216594 1_555
La0 Mg6 3.385773 1_555
La0 Mg7 3.385773 1_554
La0 Mg8 3.385778 1_555
La0 Mg9 3.385778 1_554
La0 Mg4 3.421007 1_445
La0 Mg2 3.421007 1_455
La0 Mg13 3.537014 1_444
La0 Mg12 3.537014 1_445
La0 Mg13 3.537024 1_454
La0 Mg12 3.537024 1_455
Mg0 Mg1 2.993450 1_545
Mg0 Mg1 2.993450 1_555
Mg0 Mg6 3.135407 1_555
Mg0 Mg7 3.135407 1_555
Mg0 Mg9 3.135413 1_555
Mg0 Mg8 3.135413 1_555
Mg0 Mg11 3.147624 1_455
Mg0 Mg10 3.147624 1_455
Mg0 Mg5 3.292711 1_555
Mg0 Mg3 3.292711 1_555
Mg0 Mg5 3.335139 1_445
Mg0 Mg3 3.335139 1_455
Mg1 Mg9 3.184823 1_555
Mg1 Mg8 3.184823 1_555
Mg1 Mg7 3.184829 1_565
Mg1 Mg6 3.184829 1_565
Mg1 Mg3 3.224543 1_455
Mg1 Mg5 3.224544 1_455
Mg1 Mg3 3.403432 1_565
Mg1 Mg5 3.403432 1_555
Mg2 Mg7 2.998810 1_554
Mg2 Mg6 2.998810 1_555
Mg3 Mg5 2.952409 1_555
Mg3 Mg5 3.030864 1_545
Mg3 Mg7 3.099172 1_555
Mg3 Mg6 3.099172 1_555
Mg4 Mg8 2.998809 1_555
Mg4 Mg9 2.998809 1_554
Mg5 Mg9 3.099172 1_555
Mg5 Mg8 3.099172 1_555
Mg6 Mg8 2.969938 1_555
Mg6 Mg8 3.013336 1_545
Mg7 Mg9 2.969938 1_555
Mg7 Mg9 3.013336 1_545
Mg10 Mg3 3.079312 1_555
Mg10 Mg5 3.079318 1_545
Mg10 Mg8 3.210973 1_545
Mg10 Mg6 3.210973 1_555
Mg10 Mg12 3.257326 1_555
Mg10 Mg12 3.257326 1_545
Mg10 Mg2 3.396849 1_555
Mg10 Mg4 3.396854 1_545
Mg10 Mg8 3.418619 1_655
Mg10 Mg6 3.418619 1_655
Mg11 Mg3 3.079312 1_555
Mg11 Mg5 3.079318 1_545
Mg11 Mg9 3.210973 1_545
Mg11 Mg7 3.210973 1_555
Mg11 Mg13 3.257326 1_555
Mg11 Mg13 3.257326 1_545
Mg11 Mg2 3.396849 1_556
Mg11 Mg4 3.396854 1_546
Mg11 Mg9 3.418619 1_655
Mg11 Mg7 3.418619 1_655
Mg12 Mg6 3.072010 1_665
Mg12 Mg8 3.072010 1_655
Mg13 Mg7 3.072010 1_665
Mg13 Mg9 3.072010 1_655
C0 Mg2 2.359465 1_565
C0 Mg4 2.359465 1_555
C0 Mg13 2.464498 1_454
C0 Mg12 2.464498 1_455
C0 La0 3.116025 1_555
C0 La0 3.116025 1_565
