# generated using pymatgen
data_CsLaMg6
_symmetry_space_group_name_H-M   'P 1'
_cell_length_a   5.37127300
_cell_length_b   7.52290300
_cell_length_c   11.88325300
_cell_angle_alpha   90.00000000
_cell_angle_beta   90.00000000
_cell_angle_gamma   90.00000000
_symmetry_Int_Tables_number   1
_chemical_formula_structural   CsLaMg6
_chemical_formula_sum   'Cs2 La2 Mg12'
_cell_volume   480.17332711
_cell_formula_units_Z   2
loop_
 _symmetry_equiv_pos_site_id
 _symmetry_equiv_pos_as_xyz
  1  'x, y, z'
loop_
 _atom_site_type_symbol
 _atom_site_label
 _atom_site_symmetry_multiplicity
 _atom_site_fract_x
 _atom_site_fract_y
 _atom_site_fract_z
 _atom_site_occupancy
  Cs  Cs0  1  0.50000000  0.00000000  0.34891700  1
  Cs  Cs1  1  0.50000000  0.50000000  0.84891700  1
  La  La0  1  0.00000000  0.00000000  0.15806900  1
  La  La1  1  0.00000000  0.50000000  0.65806900  1
  Mg  Mg0  1  0.00000000  0.70496300  0.41228600  1
  Mg  Mg1  1  0.00000000  0.29503700  0.41228600  1
  Mg  Mg2  1  0.00000000  0.00000000  0.65644700  1
  Mg  Mg3  1  0.50000000  0.75314900  0.58872000  1
  Mg  Mg4  1  0.50000000  0.24685100  0.58872000  1
  Mg  Mg5  1  0.50000000  0.00000000  0.83458900  1
  Mg  Mg6  1  0.00000000  0.20496300  0.91228600  1
  Mg  Mg7  1  0.00000000  0.79503700  0.91228600  1
  Mg  Mg8  1  0.00000000  0.50000000  0.15644700  1
  Mg  Mg9  1  0.50000000  0.25314900  0.08872000  1
  Mg  Mg10  1  0.50000000  0.74685100  0.08872000  1
  Mg  Mg11  1  0.50000000  0.50000000  0.33458900  1
loop_
_geom_bond_atom_site_label_1
_geom_bond_atom_site_label_2
_geom_bond_distance
_geom_bond_site_symmetry_2
Cs0 Mg4 3.401328 1_555
Cs0 Mg3 3.401328 1_545
Cs0 La0 3.515109 1_555
Cs0 La0 3.515109 1_655
Cs0 Mg1 3.564552 1_655
Cs0 Mg0 3.564552 1_545
Cs0 Mg1 3.564552 1_555
Cs0 Mg0 3.564552 1_645
Cs0 Mg10 3.631416 1_545
Cs0 Mg9 3.631416 1_555
Cs0 Mg11 3.765303 1_555
Cs0 Mg11 3.765303 1_545
Cs1 Mg9 3.401328 1_556
Cs1 Mg10 3.401328 1_556
Cs1 La1 3.515109 1_555
Cs1 La1 3.515109 1_655
Cs1 Mg7 3.564552 1_555
Cs1 Mg7 3.564552 1_655
Cs1 Mg6 3.564552 1_555
Cs1 Mg6 3.564552 1_655
Cs1 Mg3 3.631416 1_555
Cs1 Mg4 3.631416 1_555
Cs1 Mg5 3.765303 1_565
Cs1 Mg5 3.765303 1_555
La0 Mg6 3.302727 1_554
La0 Mg7 3.302727 1_544
La0 Mg10 3.393902 1_545
La0 Mg10 3.393902 1_445
La0 Mg9 3.393902 1_555
La0 Mg9 3.393902 1_455
La0 Mg0 3.748643 1_545
La0 Mg1 3.748643 1_555
La0 Mg8 3.761501 1_555
La0 Mg8 3.761501 1_545
La1 Mg0 3.302727 1_555
La1 Mg1 3.302727 1_555
La1 Mg3 3.393902 1_455
La1 Mg3 3.393902 1_555
La1 Mg4 3.393902 1_455
La1 Mg4 3.393902 1_555
La1 Mg6 3.748643 1_555
La1 Mg7 3.748643 1_555
La1 Mg2 3.761501 1_555
La1 Mg2 3.761501 1_565
Mg0 Mg1 3.083834 1_555
Mg0 Mg11 3.231504 1_455
Mg0 Mg11 3.231504 1_555
Mg0 Mg8 3.408859 1_555
Mg0 Mg3 3.426342 1_455
Mg0 Mg3 3.426342 1_555
Mg1 Mg11 3.231504 1_455
Mg1 Mg11 3.231504 1_555
Mg1 Mg8 3.408859 1_555
Mg1 Mg4 3.426342 1_555
Mg1 Mg4 3.426342 1_455
Mg2 Mg4 3.362879 1_555
Mg2 Mg4 3.362879 1_455
Mg2 Mg3 3.362879 1_545
Mg2 Mg3 3.362879 1_445
Mg2 Mg7 3.408859 1_545
Mg2 Mg6 3.408859 1_555
Mg2 Mg5 3.419640 1_455
Mg2 Mg5 3.419640 1_555
Mg3 Mg5 3.461943 1_565
Mg4 Mg5 3.461943 1_555
Mg5 Mg7 3.231504 1_545
Mg5 Mg6 3.231504 1_555
Mg5 Mg6 3.231504 1_655
Mg5 Mg7 3.231504 1_645
Mg5 Mg9 3.570240 1_556
Mg6 Mg7 3.083834 1_545
Mg6 Mg9 3.426342 1_556
Mg6 Mg9 3.426342 1_456
Mg8 Mg9 3.362879 1_555
Mg8 Mg9 3.362879 1_455
Mg10 Mg8 3.362879 1_655
Mg10 Mg8 3.362879 1_555
Mg10 Mg7 3.426342 1_654
Mg10 Mg7 3.426342 1_554
Mg10 Mg11 3.461943 1_555
Mg10 Mg5 3.570240 1_564
Mg11 Mg8 3.419640 1_555
Mg11 Mg8 3.419640 1_655
Mg11 Mg9 3.461943 1_555
Mg11 Mg3 3.570240 1_555
Mg11 Mg4 3.570240 1_555
