# generated using pymatgen
data_Nb2CuS4
_symmetry_space_group_name_H-M   'P 1'
_cell_length_a   3.54674700
_cell_length_b   8.29544500
_cell_length_c   17.51654400
_cell_angle_alpha   90.00000000
_cell_angle_beta   90.00000000
_cell_angle_gamma   90.00000000
_symmetry_Int_Tables_number   1
_chemical_formula_structural   Nb2CuS4
_chemical_formula_sum   'Nb8 Cu4 S16'
_cell_volume   515.36903668
_cell_formula_units_Z   4
loop_
 _symmetry_equiv_pos_site_id
 _symmetry_equiv_pos_as_xyz
  1  'x, y, z'
loop_
 _atom_site_type_symbol
 _atom_site_label
 _atom_site_symmetry_multiplicity
 _atom_site_fract_x
 _atom_site_fract_y
 _atom_site_fract_z
 _atom_site_occupancy
  Nb  Nb0  1  0.75000000  0.87341800  0.52865300  1
  Nb  Nb1  1  0.25000000  0.12658200  0.47134700  1
  Nb  Nb2  1  0.25000000  0.62658200  0.02865300  1
  Nb  Nb3  1  0.75000000  0.37341800  0.97134700  1
  Nb  Nb4  1  0.75000000  0.56015000  0.39895400  1
  Nb  Nb5  1  0.25000000  0.43985000  0.60104600  1
  Nb  Nb6  1  0.25000000  0.93985000  0.89895400  1
  Nb  Nb7  1  0.75000000  0.06015000  0.10104600  1
  Cu  Cu0  1  0.75000000  0.68901900  0.78145900  1
  Cu  Cu1  1  0.25000000  0.31098100  0.21854100  1
  Cu  Cu2  1  0.25000000  0.81098100  0.28145900  1
  Cu  Cu3  1  0.75000000  0.18901900  0.71854100  1
  S  S0  1  0.75000000  0.64044700  0.64288000  1
  S  S1  1  0.25000000  0.35955300  0.35712000  1
  S  S2  1  0.25000000  0.85955300  0.14288000  1
  S  S3  1  0.75000000  0.14044700  0.85712000  1
  S  S4  1  0.75000000  0.65482500  0.27692400  1
  S  S5  1  0.25000000  0.34517500  0.72307600  1
  S  S6  1  0.25000000  0.84517500  0.77692400  1
  S  S7  1  0.75000000  0.15482500  0.22307600  1
  S  S8  1  0.75000000  0.99153500  0.39634900  1
  S  S9  1  0.25000000  0.00846500  0.60365100  1
  S  S10  1  0.25000000  0.50846500  0.89634900  1
  S  S11  1  0.75000000  0.49153500  0.10365100  1
  S  S12  1  0.75000000  0.83763700  0.99017800  1
  S  S13  1  0.25000000  0.16236300  0.00982200  1
  S  S14  1  0.25000000  0.66236300  0.49017800  1
  S  S15  1  0.75000000  0.33763700  0.50982200  1
loop_
_geom_bond_atom_site_label_1
_geom_bond_atom_site_label_2
_geom_bond_distance
_geom_bond_site_symmetry_2
Nb0 S9 2.475014 1_565
Nb0 S9 2.475014 1_665
Nb0 S8 2.516132 1_555
Nb0 S14 2.581539 1_555
Nb0 S14 2.581539 1_655
Nb0 S0 2.781795 1_555
Nb1 S8 2.475014 1_545
Nb1 S8 2.475014 1_445
Nb1 S9 2.516132 1_555
Nb1 S15 2.581539 1_455
Nb1 S15 2.581539 1_555
Nb1 S1 2.781795 1_555
Nb2 S11 2.475014 1_455
Nb2 S11 2.475014 1_555
Nb2 S10 2.516132 1_554
Nb2 S12 2.581539 1_554
Nb2 S12 2.581539 1_454
Nb2 S2 2.781795 1_555
Nb3 S10 2.475014 1_555
Nb3 S10 2.475014 1_655
Nb3 S11 2.516132 1_556
Nb3 S13 2.581539 1_556
Nb3 S13 2.581539 1_656
Nb3 S3 2.781795 1_555
Nb4 S4 2.277258 1_555
Nb4 S14 2.533213 1_555
Nb4 S14 2.533213 1_655
Nb4 S1 2.539855 1_555
Nb4 S1 2.539855 1_655
Nb4 S15 2.679291 1_555
Nb5 S5 2.277258 1_555
Nb5 S15 2.533213 1_455
Nb5 S15 2.533213 1_555
Nb5 S0 2.539855 1_555
Nb5 S0 2.539855 1_455
Nb5 S14 2.679291 1_555
Nb6 S6 2.277258 1_555
Nb6 S12 2.533213 1_455
Nb6 S12 2.533213 1_555
Nb6 S3 2.539855 1_565
Nb6 S3 2.539855 1_465
Nb6 S13 2.679291 1_566
Nb7 S7 2.277258 1_555
Nb7 S13 2.533213 1_555
Nb7 S13 2.533213 1_655
Nb7 S2 2.539855 1_645
Nb7 S2 2.539855 1_545
Nb7 S12 2.679291 1_544
Cu0 S6 2.197540 1_555
Cu0 S6 2.197540 1_655
Cu0 S0 2.460639 1_555
Cu1 S7 2.197540 1_455
Cu1 S7 2.197540 1_555
Cu1 S1 2.460639 1_555
Cu2 S4 2.197540 1_555
Cu2 S4 2.197540 1_455
Cu2 S2 2.460639 1_555
Cu3 S5 2.197540 1_555
Cu3 S5 2.197540 1_655
Cu3 S3 2.460639 1_555
