# generated using pymatgen
data_Nb5GaSn2
_symmetry_space_group_name_H-M   'P 1'
_cell_length_a   5.18166704
_cell_length_b   7.99362907
_cell_length_c   7.99362846
_cell_angle_alpha   83.97002063
_cell_angle_beta   71.08820244
_cell_angle_gamma   71.08820323
_symmetry_Int_Tables_number   1
_chemical_formula_structural   Nb5GaSn2
_chemical_formula_sum   'Nb10 Ga2 Sn4'
_cell_volume   296.31718842
_cell_formula_units_Z   2
loop_
 _symmetry_equiv_pos_site_id
 _symmetry_equiv_pos_as_xyz
  1  'x, y, z'
loop_
 _atom_site_type_symbol
 _atom_site_label
 _atom_site_symmetry_multiplicity
 _atom_site_fract_x
 _atom_site_fract_y
 _atom_site_fract_z
 _atom_site_occupancy
  Nb  Nb0  1  0.25000000  0.50000000  0.50000000  1
  Nb  Nb1  1  0.75000000  0.50000000  0.50000000  1
  Nb  Nb2  1  0.07110885  0.14601547  0.71176883  1
  Nb  Nb3  1  0.78287668  0.28823117  0.14601547  1
  Nb  Nb4  1  0.21712332  0.71176883  0.85398453  1
  Nb  Nb5  1  0.92889115  0.85398453  0.28823117  1
  Nb  Nb6  1  0.28287668  0.14601547  0.28823117  1
  Nb  Nb7  1  0.71712332  0.85398453  0.71176883  1
  Nb  Nb8  1  0.42889115  0.28823117  0.85398453  1
  Nb  Nb9  1  0.57110885  0.71176883  0.14601547  1
  Ga  Ga0  1  0.25000000  -0.00000000  -0.00000000  1
  Ga  Ga1  1  0.75000000  -0.00000000  -0.00000000  1
  Sn  Sn0  1  0.16843767  0.50000000  0.16312565  1
  Sn  Sn1  1  0.33156233  0.83687435  0.50000000  1
  Sn  Sn2  1  0.66843767  0.16312565  0.50000000  1
  Sn  Sn3  1  0.83156233  0.50000000  0.83687435  1
loop_
_geom_bond_atom_site_label_1
_geom_bond_atom_site_label_2
_geom_bond_distance
_geom_bond_site_symmetry_2
Nb0 Nb1 2.590834 1_455
Nb0 Nb1 2.590834 1_555
Nb0 Sn0 2.857932 1_555
Nb0 Sn1 2.857932 1_555
Nb0 Sn3 2.857935 1_455
Nb0 Sn2 2.857935 1_555
Nb0 Nb8 3.377617 1_555
Nb0 Nb2 3.377617 1_555
Nb0 Nb4 3.377619 1_555
Nb0 Nb6 3.377619 1_555
Nb0 Nb3 3.377619 1_555
Nb0 Nb7 3.377620 1_455
Nb0 Nb9 3.377621 1_555
Nb0 Nb5 3.377621 1_455
Nb1 Sn3 2.857932 1_555
Nb1 Sn2 2.857932 1_555
Nb1 Sn0 2.857935 1_655
Nb1 Sn1 2.857935 1_555
Nb1 Nb9 3.377617 1_555
Nb1 Nb5 3.377617 1_555
Nb1 Nb3 3.377619 1_555
Nb1 Nb7 3.377619 1_555
Nb1 Nb4 3.377619 1_555
Nb1 Nb6 3.377620 1_655
Nb1 Nb8 3.377621 1_555
Nb1 Nb2 3.377621 1_655
Nb2 Sn1 2.833670 1_545
Nb2 Sn3 2.839136 1_455
Nb2 Nb8 3.004257 1_555
Nb2 Nb8 3.004275 1_455
Nb2 Sn2 3.048557 1_555
Nb2 Sn2 3.048561 1_455
Nb2 Nb6 3.202843 1_555
Nb2 Nb7 3.404307 1_545
Nb2 Nb7 3.404315 1_445
Nb2 Nb3 3.455447 1_456
Nb2 Nb4 3.455447 1_545
Nb3 Sn3 2.833670 1_554
Nb3 Sn2 2.839135 1_555
Nb3 Nb6 3.004266 1_655
Nb3 Nb6 3.004266 1_555
Nb3 Sn0 3.048557 1_555
Nb3 Sn0 3.048561 1_655
Nb3 Nb9 3.202844 1_555
Nb3 Nb8 3.404307 1_654
Nb3 Nb8 3.404314 1_554
Nb3 Nb5 3.455447 1_545
Nb4 Sn0 2.833670 1_556
Nb4 Sn1 2.839135 1_555
Nb4 Nb7 3.004266 1_455
Nb4 Nb7 3.004266 1_555
Nb4 Sn3 3.048557 1_555
Nb4 Sn3 3.048561 1_455
Nb4 Nb8 3.202844 1_555
Nb4 Nb9 3.404307 1_456
Nb4 Nb9 3.404314 1_556
Nb4 Nb5 3.455447 1_456
Nb5 Sn2 2.833670 1_565
Nb5 Sn0 2.839136 1_655
Nb5 Nb9 3.004257 1_555
Nb5 Nb9 3.004275 1_655
Nb5 Sn1 3.048557 1_555
Nb5 Sn1 3.048561 1_655
Nb5 Nb7 3.202843 1_555
Nb5 Nb6 3.404307 1_565
Nb5 Nb6 3.404315 1_665
Nb6 Sn1 2.833670 1_545
Nb6 Sn0 2.839136 1_555
Nb6 Sn2 3.048557 1_455
Nb6 Sn2 3.048561 1_555
Nb6 Nb8 3.455446 1_554
Nb6 Nb9 3.455447 1_545
Nb7 Sn2 2.833670 1_565
Nb7 Sn3 2.839136 1_555
Nb7 Sn1 3.048557 1_655
Nb7 Sn1 3.048561 1_555
Nb7 Nb9 3.455446 1_556
Nb7 Nb8 3.455447 1_565
Nb8 Sn0 2.833670 1_556
Nb8 Sn2 2.839136 1_555
Nb8 Sn3 3.048557 1_455
Nb8 Sn3 3.048561 1_555
Nb9 Sn3 2.833670 1_554
Nb9 Sn1 2.839136 1_555
Nb9 Sn0 3.048557 1_655
Nb9 Sn0 3.048561 1_555
Ga0 Ga1 2.590834 1_455
Ga0 Ga1 2.590834 1_555
Ga0 Nb2 2.765528 1_554
Ga0 Nb8 2.765528 1_554
Ga0 Nb6 2.765531 1_555
Ga0 Nb4 2.765531 1_544
Ga0 Nb7 2.765531 1_544
Ga0 Nb3 2.765531 1_455
Ga0 Nb5 2.765533 1_445
Ga0 Nb9 2.765533 1_545
Ga1 Nb5 2.765528 1_545
Ga1 Nb9 2.765528 1_545
Ga1 Nb7 2.765531 1_544
Ga1 Nb3 2.765531 1_555
Ga1 Nb6 2.765531 1_555
Ga1 Nb4 2.765531 1_644
Ga1 Nb2 2.765533 1_654
Ga1 Nb8 2.765533 1_554
