# generated using pymatgen
data_Ba4Yb8Mg(CoO5)4
_symmetry_space_group_name_H-M   'P 1'
_cell_length_a   5.72222653
_cell_length_b   7.14122380
_cell_length_c   12.82563864
_cell_angle_alpha   86.61899659
_cell_angle_beta   90.77163918
_cell_angle_gamma   90.83497597
_symmetry_Int_Tables_number   1
_chemical_formula_structural   Ba4Yb8Mg(CoO5)4
_chemical_formula_sum   'Ba4 Yb8 Mg1 Co4 O20'
_cell_volume   523.09352947
_cell_formula_units_Z   1
loop_
 _symmetry_equiv_pos_site_id
 _symmetry_equiv_pos_as_xyz
  1  'x, y, z'
loop_
 _atom_site_type_symbol
 _atom_site_label
 _atom_site_symmetry_multiplicity
 _atom_site_fract_x
 _atom_site_fract_y
 _atom_site_fract_z
 _atom_site_occupancy
  Ba  Ba0  1  0.27585239  0.93009573  0.89672342  1
  Ba  Ba1  1  0.76667554  0.12405706  0.11582803  1
  Ba  Ba2  1  0.76692093  0.45219094  0.60991705  1
  Ba  Ba3  1  0.25104511  0.63337189  0.41241787  1
  Yb  Yb0  1  0.26744211  0.11271485  0.57718639  1
  Yb  Yb1  1  0.75319465  0.91400170  0.41989771  1
  Yb  Yb2  1  0.78464351  0.58886284  0.90561707  1
  Yb  Yb3  1  0.27596440  0.37674809  0.01236132  1
  Yb  Yb4  1  0.27609935  0.37540073  0.77828054  1
  Yb  Yb5  1  0.70233454  0.64753478  0.22055663  1
  Yb  Yb6  1  0.76943805  0.88717224  0.69898697  1
  Yb  Yb7  1  0.24484193  0.14906369  0.31109665  1
  Mg  Mg0  1  0.25677279  0.86742778  0.17062082  1
  Co  Co0  1  0.26897969  0.70392832  0.65820564  1
  Co  Co1  1  0.76854025  0.32819149  0.38281119  1
  Co  Co2  1  0.77463193  0.17781484  0.83432929  1
  Co  Co3  1  0.15981952  0.51287310  0.17372323  1
  O  O0  1  0.26481620  0.46354239  0.60522305  1
  O  O1  1  0.74711037  0.58222251  0.40818869  1
  O  O2  1  0.77432614  0.93738310  0.89776459  1
  O  O3  1  0.25641381  0.09887461  0.08574315  1
  O  O4  1  0.98902128  0.88356830  0.26616483  1
  O  O5  1  0.53851913  0.14928621  0.73016919  1
  O  O6  1  0.93427874  0.36452965  0.25073736  1
  O  O7  1  0.50228389  0.65878394  0.76494744  1
  O  O8  1  0.99889303  0.15143099  0.72808538  1
  O  O9  1  0.49502089  0.89966049  0.28117434  1
  O  O10  1  0.04365878  0.66154366  0.76703358  1
  O  O11  1  0.39648110  0.43013699  0.25118158  1
  O  O12  1  0.38663370  0.66028124  0.08888169  1
  O  O13  1  0.00070455  0.31323395  0.90290778  1
  O  O14  1  0.52306345  0.19515942  0.44121277  1
  O  O15  1  0.04066700  0.82525472  0.57464069  1
  O  O16  1  0.00377406  0.18464236  0.44884683  1
  O  O17  1  0.49096588  0.82967867  0.57234060  1
  O  O18  1  0.94301527  0.57082917  0.07498738  1
  O  O19  1  0.55715603  0.31221055  0.90898727  1
loop_
_geom_bond_atom_site_label_1
_geom_bond_atom_site_label_2
_geom_bond_distance
_geom_bond_site_symmetry_2
Ba0 O3 2.774551 1_566
Ba0 O2 2.851962 1_555
Ba0 O2 2.871302 1_455
Ba0 O10 2.907316 1_555
Ba0 O7 2.967757 1_555
Ba0 O5 2.982611 1_565
Ba0 O8 3.043932 1_465
Ba0 O12 3.101911 1_556
Ba0 O19 3.158762 1_565
Ba0 O13 3.182112 1_565
Ba1 O6 2.668431 1_555
Ba1 O4 2.809454 1_545
Ba1 O3 2.843700 1_655
Ba1 O3 2.944348 1_555
Ba1 O9 3.016103 1_545
Ba1 O19 3.133900 1_554
Ba1 O2 3.169525 1_544
Ba1 O13 3.269029 1_654
Ba1 O18 3.345914 1_555
Ba2 O1 2.698334 1_555
Ba2 O0 2.850387 1_655
Ba2 O0 2.875201 1_555
Ba2 O8 2.883913 1_555
Ba2 O5 2.888654 1_555
Ba2 O7 2.985891 1_555
Ba2 O10 3.000648 1_655
Ba2 O15 3.084042 1_655
Ba2 O17 3.153254 1_555
Ba2 O14 3.211004 1_555
Ba2 O16 3.220479 1_655
Ba3 O0 2.689954 1_555
Ba3 O11 2.740622 1_555
Ba3 O9 2.829671 1_555
Ba3 O15 2.847391 1_555
Ba3 O1 2.868920 1_555
Ba3 O17 2.874773 1_555
Ba3 O1 2.901569 1_455
Ba3 O4 2.926774 1_455
Mg0 O3 1.924755 1_565
Mg0 O9 1.974684 1_555
Mg0 O4 1.983617 1_455
Mg0 O12 2.018774 1_555
Co0 O15 1.868678 1_555
Co0 O17 1.876316 1_555
Co0 O0 1.882867 1_555
Co0 O7 1.916172 1_555
Co0 O10 1.920806 1_555
Co1 O14 1.828169 1_555
Co1 O16 1.867397 1_655
Co1 O1 1.867916 1_555
Co1 O6 1.954595 1_555
Co2 O13 1.848121 1_655
Co2 O2 1.856108 1_545
Co2 O19 1.887311 1_555
Co2 O8 1.903555 1_555
Co2 O5 1.904494 1_555
Co3 O11 1.757222 1_555
Co3 O18 1.795790 1_455
Co3 O6 1.906461 1_455
Co3 O12 1.959540 1_555
Co3 Yb3 2.441920 1_555
O0 Yb4 2.271432 1_555
O0 Yb0 2.552205 1_555
O1 Yb1 2.382607 1_555
O1 Yb5 2.434937 1_555
O2 Yb2 2.486487 1_555
O2 Yb6 2.595122 1_555
O3 Yb3 2.147572 1_555
O4 Yb5 2.425772 1_555
O4 Yb1 2.426253 1_555
O4 Yb7 2.468791 1_665
O5 Yb4 2.335842 1_555
O5 Yb6 2.363107 1_545
O5 Yb0 2.508151 1_555
O6 Yb5 2.442932 1_555
O6 Yb7 2.455024 1_655
O7 Yb6 2.347798 1_555
O7 Yb4 2.385074 1_555
O7 Yb2 2.440018 1_555
O8 Yb6 2.328552 1_545
O8 Yb4 2.347073 1_655
O8 Yb0 2.517770 1_655
O9 Yb1 2.303233 1_555
O9 Yb5 2.346422 1_555
O9 Yb7 2.353413 1_565
O10 Yb2 2.359045 1_455
O10 Yb6 2.385588 1_455
O10 Yb4 2.450453 1_555
O11 Yb7 2.271033 1_555
O11 Yb5 2.344134 1_555
O12 Yb3 2.375755 1_555
O12 Yb5 2.455271 1_555
O13 Yb3 2.156867 1_556
O13 Yb4 2.280170 1_555
O13 Yb2 2.341844 1_455
O14 Yb7 2.325059 1_555
O14 Yb0 2.334534 1_555
O14 Yb1 2.447788 1_545
O15 Yb6 2.305996 1_455
O15 Yb0 2.414160 1_565
O15 Yb1 2.615465 1_455
O16 Yb0 2.259563 1_555
O16 Yb7 2.284201 1_555
O16 Yb1 2.432844 1_445
O17 Yb6 2.309989 1_555
O17 Yb0 2.411949 1_565
O17 Yb1 2.520068 1_555
O18 Yb2 2.339668 1_554
O18 Yb5 2.427848 1_555
O18 Yb3 2.538780 1_655
O19 Yb3 2.170350 1_556
O19 Yb4 2.336617 1_555
O19 Yb2 2.348618 1_555
