# generated using pymatgen
data_Li95Mn16O64
_symmetry_space_group_name_H-M   'P 1'
_cell_length_a   13.41891251
_cell_length_b   13.44009163
_cell_length_c   9.44544992
_cell_angle_alpha   90.00000000
_cell_angle_beta   90.00001059
_cell_angle_gamma   90.00000000
_symmetry_Int_Tables_number   1
_chemical_formula_structural   Li95Mn16O64
_chemical_formula_sum   'Li95 Mn16 O64'
_cell_volume   1703.50024619
_cell_formula_units_Z   1
loop_
 _symmetry_equiv_pos_site_id
 _symmetry_equiv_pos_as_xyz
  1  'x, y, z'
loop_
 _atom_site_type_symbol
 _atom_site_label
 _atom_site_symmetry_multiplicity
 _atom_site_fract_x
 _atom_site_fract_y
 _atom_site_fract_z
 _atom_site_occupancy
  Li  Li0  1  0.62500000  0.12500000  0.10621904  1
  Li  Li1  1  0.12500100  0.62500100  0.10838459  1
  Li  Li2  1  0.62500000  0.62500100  0.10914730  1
  Li  Li3  1  0.48081766  0.01649914  0.12340656  1
  Li  Li4  1  0.48081766  0.23350086  0.12340656  1
  Li  Li5  1  0.76918134  0.01649914  0.12340656  1
  Li  Li6  1  0.76918134  0.23350086  0.12340656  1
  Li  Li7  1  0.26678478  0.51711668  0.12474860  1
  Li  Li8  1  0.26678478  0.73288332  0.12474860  1
  Li  Li9  1  0.98321422  0.51711668  0.12474860  1
  Li  Li10  1  0.98321422  0.73288332  0.12474860  1
  Li  Li11  1  0.48228030  0.51591951  0.12513772  1
  Li  Li12  1  0.48228030  0.73408049  0.12513772  1
  Li  Li13  1  0.76771870  0.51591951  0.12513772  1
  Li  Li14  1  0.76771870  0.73408049  0.12513772  1
  Li  Li15  1  0.25311417  0.02489098  0.12845753  1
  Li  Li16  1  0.25311417  0.22511002  0.12845753  1
  Li  Li17  1  0.99688483  0.02489098  0.12845753  1
  Li  Li18  1  0.99688483  0.22511002  0.12845753  1
  Li  Li19  1  0.37124069  0.37262364  0.14153220  1
  Li  Li20  1  0.37124069  0.87737736  0.14153220  1
  Li  Li21  1  0.87876131  0.37262364  0.14153220  1
  Li  Li22  1  0.87876131  0.87737736  0.14153220  1
  Li  Li23  1  0.12500100  0.12500100  0.34181414  1
  Li  Li24  1  0.62500000  0.12500100  0.35715944  1
  Li  Li25  1  0.12500100  0.62500100  0.35860226  1
  Li  Li26  1  0.62500000  0.62500100  0.35873294  1
  Li  Li27  1  0.51645969  0.26632202  0.37359280  1
  Li  Li28  1  0.51645969  0.98367698  0.37359280  1
  Li  Li29  1  0.73354031  0.26632202  0.37359280  1
  Li  Li30  1  0.73354031  0.98367698  0.37359280  1
  Li  Li31  1  0.51619499  0.48299478  0.37504216  1
  Li  Li32  1  0.51619499  0.76700422  0.37504216  1
  Li  Li33  1  0.73380501  0.48299478  0.37504216  1
  Li  Li34  1  0.73380501  0.76700422  0.37504216  1
  Li  Li35  1  0.01704633  0.48262261  0.37515023  1
  Li  Li36  1  0.01704633  0.76737739  0.37515023  1
  Li  Li37  1  0.23295367  0.48262261  0.37515023  1
  Li  Li38  1  0.23295367  0.76737739  0.37515023  1
  Li  Li39  1  0.01781505  0.26752799  0.37741135  1
  Li  Li40  1  0.01781505  0.98247201  0.37741135  1
  Li  Li41  1  0.23218495  0.26752799  0.37741135  1
  Li  Li42  1  0.23218495  0.98247201  0.37741135  1
  Li  Li43  1  0.37449612  0.37414631  0.39158951  1
  Li  Li44  1  0.37449612  0.87585469  0.39158951  1
  Li  Li45  1  0.87550588  0.37414631  0.39158951  1
  Li  Li46  1  0.87550588  0.87585469  0.39158951  1
  Li  Li47  1  0.12500100  0.12500000  0.60659014  1
  Li  Li48  1  0.62500000  0.12500000  0.60686658  1
  Li  Li49  1  0.12500100  0.62500100  0.60797773  1
  Li  Li50  1  0.62500000  0.62500100  0.60838201  1
  Li  Li51  1  0.48426358  0.01633445  0.62373873  1
  Li  Li52  1  0.48426358  0.23366555  0.62373873  1
  Li  Li53  1  0.76573542  0.01633445  0.62373873  1
  Li  Li54  1  0.76573542  0.23366555  0.62373873  1
  Li  Li55  1  0.26687274  0.51672098  0.62510011  1
  Li  Li56  1  0.26687274  0.73327902  0.62510011  1
  Li  Li57  1  0.98312726  0.51672098  0.62510011  1
  Li  Li58  1  0.98312726  0.73327902  0.62510011  1
  Li  Li59  1  0.48280854  0.51723272  0.62533659  1
  Li  Li60  1  0.48280854  0.73276728  0.62533659  1
  Li  Li61  1  0.76719146  0.51723272  0.62533659  1
  Li  Li62  1  0.76719146  0.73276728  0.62533659  1
  Li  Li63  1  0.26553678  0.01725293  0.62611235  1
  Li  Li64  1  0.26553678  0.23274707  0.62611235  1
  Li  Li65  1  0.98446322  0.01725293  0.62611235  1
  Li  Li66  1  0.98446322  0.23274707  0.62611235  1
  Li  Li67  1  0.37506458  0.37499787  0.64275775  1
  Li  Li68  1  0.37506458  0.87500413  0.64275775  1
  Li  Li69  1  0.87493642  0.37499787  0.64275775  1
  Li  Li70  1  0.87493642  0.87500413  0.64275775  1
  Li  Li71  1  0.62500000  0.12500100  0.85479698  1
  Li  Li72  1  0.12500100  0.62500100  0.85794102  1
  Li  Li73  1  0.62500000  0.62500100  0.85884508  1
  Li  Li74  1  0.12500100  0.12500100  0.86806597  1
  Li  Li75  1  0.51801684  0.26870825  0.87456685  1
  Li  Li76  1  0.51801684  0.98129175  0.87456685  1
  Li  Li77  1  0.73198416  0.26870825  0.87456685  1
  Li  Li78  1  0.73198416  0.98129175  0.87456685  1
  Li  Li79  1  0.01752397  0.48360702  0.87496459  1
  Li  Li80  1  0.01752397  0.76639298  0.87496459  1
  Li  Li81  1  0.23247703  0.48360702  0.87496459  1
  Li  Li82  1  0.23247703  0.76639298  0.87496459  1
  Li  Li83  1  0.51663987  0.48349584  0.87555225  1
  Li  Li84  1  0.51663987  0.76650516  0.87555225  1
  Li  Li85  1  0.73336113  0.48349584  0.87555225  1
  Li  Li86  1  0.73336113  0.76650516  0.87555225  1
  Li  Li87  1  0.01710794  0.26689375  0.87627376  1
  Li  Li88  1  0.01710794  0.98310625  0.87627376  1
  Li  Li89  1  0.23289206  0.26689375  0.87627376  1
  Li  Li90  1  0.23289206  0.98310625  0.87627376  1
  Li  Li91  1  0.37445570  0.37587372  0.89352458  1
  Li  Li92  1  0.37445570  0.87412828  0.89352458  1
  Li  Li93  1  0.87554630  0.37587372  0.89352458  1
  Li  Li94  1  0.87554630  0.87412828  0.89352458  1
  Mn  Mn0  1  0.12500100  0.37694200  0.12551732  1
  Mn  Mn1  1  0.12500100  0.87305900  0.12551732  1
  Mn  Mn2  1  0.62500000  0.37509486  0.12569388  1
  Mn  Mn3  1  0.62500000  0.87490714  0.12569388  1
  Mn  Mn4  1  0.37462785  0.62500100  0.37410700  1
  Mn  Mn5  1  0.87537415  0.62500100  0.37410700  1
  Mn  Mn6  1  0.37415305  0.12500000  0.37502408  1
  Mn  Mn7  1  0.87584795  0.12500000  0.37502408  1
  Mn  Mn8  1  0.62500000  0.37592190  0.62398439  1
  Mn  Mn9  1  0.62500000  0.87407910  0.62398439  1
  Mn  Mn10  1  0.12500100  0.37512609  0.62621588  1
  Mn  Mn11  1  0.12500100  0.87487491  0.62621588  1
  Mn  Mn12  1  0.37682771  0.12500000  0.87220427  1
  Mn  Mn13  1  0.87317329  0.12500000  0.87220427  1
  Mn  Mn14  1  0.37497514  0.62500100  0.87489229  1
  Mn  Mn15  1  0.87502586  0.62500100  0.87489229  1
  O  O0  1  0.25685934  0.37641242  0.01110083  1
  O  O1  1  0.25685934  0.87358958  0.01110083  1
  O  O2  1  0.99314166  0.37641242  0.01110083  1
  O  O3  1  0.99314166  0.87358958  0.01110083  1
  O  O4  1  0.49173398  0.37473345  0.01364899  1
  O  O5  1  0.49173398  0.87526755  0.01364899  1
  O  O6  1  0.75826702  0.37473345  0.01364899  1
  O  O7  1  0.75826702  0.87526755  0.01364899  1
  O  O8  1  0.62500000  0.00881235  0.23542846  1
  O  O9  1  0.62500000  0.24118765  0.23542846  1
  O  O10  1  0.12500100  0.50923785  0.23741719  1
  O  O11  1  0.12500100  0.74076115  0.23741719  1
  O  O12  1  0.62500000  0.50762850  0.23774218  1
  O  O13  1  0.62500000  0.74237150  0.23774218  1
  O  O14  1  0.12500100  0.00073310  0.24313702  1
  O  O15  1  0.12500100  0.24926690  0.24313702  1
  O  O16  1  0.87687163  0.25654783  0.26239500  1
  O  O17  1  0.87687163  0.99345317  0.26239500  1
  O  O18  1  0.37313037  0.25654783  0.26239600  1
  O  O19  1  0.37313037  0.99345317  0.26239600  1
  O  O20  1  0.37457177  0.49121271  0.26341023  1
  O  O21  1  0.37457177  0.75878829  0.26341023  1
  O  O22  1  0.87543023  0.49121271  0.26341023  1
  O  O23  1  0.87543023  0.75878829  0.26341023  1
  O  O24  1  0.00777017  0.12500100  0.48680545  1
  O  O25  1  0.24223083  0.12500000  0.48680545  1
  O  O26  1  0.50789739  0.12500100  0.48644833  1
  O  O27  1  0.74210261  0.12500000  0.48644833  1
  O  O28  1  0.50762349  0.62500100  0.48714863  1
  O  O29  1  0.74237551  0.62500100  0.48714863  1
  O  O30  1  0.00769450  0.62500100  0.48740291  1
  O  O31  1  0.24230550  0.62500100  0.48740291  1
  O  O32  1  0.49172923  0.37389061  0.51320264  1
  O  O33  1  0.49172923  0.87611139  0.51320264  1
  O  O34  1  0.75827177  0.37389061  0.51320264  1
  O  O35  1  0.75827177  0.87611139  0.51320264  1
  O  O36  1  0.25874401  0.37501381  0.51568155  1
  O  O37  1  0.25874401  0.87498819  0.51568155  1
  O  O38  1  0.99125599  0.37501381  0.51568255  1
  O  O39  1  0.99125599  0.87498819  0.51568255  1
  O  O40  1  0.62500000  0.00771479  0.73564760  1
  O  O41  1  0.62500000  0.24228621  0.73564760  1
  O  O42  1  0.12500100  0.50843480  0.73645482  1
  O  O43  1  0.12500100  0.74156620  0.73645482  1
  O  O44  1  0.62500000  0.50794635  0.73710291  1
  O  O45  1  0.62500000  0.74205365  0.73710291  1
  O  O46  1  0.12500100  0.00802328  0.73746927  1
  O  O47  1  0.12500100  0.24197672  0.73746927  1
  O  O48  1  0.37554920  0.49168075  0.76346327  1
  O  O49  1  0.37554920  0.75832025  0.76346327  1
  O  O50  1  0.87445180  0.49168075  0.76346327  1
  O  O51  1  0.87445180  0.75832025  0.76346327  1
  O  O52  1  0.37642501  0.25640914  0.76656686  1
  O  O53  1  0.37642501  0.99359186  0.76656686  1
  O  O54  1  0.87357699  0.25640914  0.76656686  1
  O  O55  1  0.87357699  0.99359186  0.76656686  1
  O  O56  1  0.00034642  0.12500100  0.97306975  1
  O  O57  1  0.24965458  0.12500000  0.97306975  1
  O  O58  1  0.50785531  0.12500100  0.98190168  1
  O  O59  1  0.74214469  0.12500000  0.98190168  1
  O  O60  1  0.00803337  0.62500100  0.98652422  1
  O  O61  1  0.24196663  0.62500100  0.98652422  1
  O  O62  1  0.50778862  0.62500100  0.98739473  1
  O  O63  1  0.74221238  0.62500100  0.98739473  1
loop_
_geom_bond_atom_site_label_1
_geom_bond_atom_site_label_2
_geom_bond_distance
_geom_bond_site_symmetry_2
Li0 O58 1.962107 1_554
Li0 O59 1.962107 1_554
Li0 O9 1.981915 1_555
Li0 O8 1.981915 1_555
Li1 O61 1.946369 1_554
Li1 O60 1.946391 1_554
Li1 O11 1.976360 1_555
Li1 O10 1.976392 1_555
Li2 O62 1.948428 1_554
Li2 O63 1.948439 1_554
Li2 O13 1.990918 1_555
Li2 O12 1.990939 1_555
Li3 O19 1.976762 1_545
Li3 O58 2.011129 1_554
Li3 O5 2.167777 1_545
Li3 O8 2.207618 1_555
Li4 O18 1.976764 1_555
Li4 O58 2.011110 1_554
Li4 O4 2.167789 1_555
Li4 O9 2.207618 1_555
Li5 O17 1.976785 1_545
Li5 O59 2.011117 1_554
Li5 O7 2.167775 1_545
Li5 O8 2.207607 1_555
Li6 O16 1.976787 1_555
Li6 O59 2.011117 1_554
Li6 O6 2.167787 1_555
Li6 O9 2.207607 1_555
Li7 O61 1.979370 1_554
Li7 O20 1.982071 1_555
Li7 O0 2.178582 1_555
Li7 O10 2.182561 1_555
Li8 O61 1.979351 1_554
Li8 O21 1.982074 1_555
Li8 O1 2.178605 1_555
Li8 O11 2.182561 1_555
Li9 O60 1.979373 1_654
Li9 O22 1.982042 1_555
Li9 O2 2.178584 1_555
Li9 O10 2.182596 1_655
Li10 O60 1.979353 1_654
Li10 O23 1.982045 1_555
Li10 O3 2.178607 1_555
Li10 O11 2.182595 1_655
Li11 O20 1.976108 1_555
Li11 O62 1.989781 1_554
Li11 O4 2.173877 1_555
Li11 O12 2.193498 1_555
Li12 O21 1.976111 1_555
Li12 O62 1.989761 1_554
Li12 O5 2.173889 1_555
Li12 O13 2.193498 1_555
Li13 O22 1.976138 1_555
Li13 O63 1.989777 1_554
Li13 O6 2.173875 1_555
Li13 O12 2.193487 1_555
Li14 O23 1.976140 1_555
Li14 O63 1.989757 1_554
Li14 O7 2.173887 1_555
Li14 O13 2.193487 1_555
Li15 O57 1.991638 1_554
Li15 O14 2.057713 1_555
Li15 O19 2.091100 1_545
Li15 O1 2.316551 1_545
Li16 O57 1.991647 1_554
Li16 O15 2.057711 1_555
Li16 O18 2.091100 1_555
Li16 O0 2.316563 1_555
Li17 O56 1.991648 1_654
Li17 O14 2.057746 1_655
Li17 O17 2.091063 1_545
Li17 O3 2.316551 1_545
Li18 O56 1.991639 1_654
Li18 O15 2.057744 1_655
Li18 O16 2.091063 1_555
Li18 O2 2.316563 1_555
Li19 O18 1.933324 1_555
Li19 O20 1.966620 1_555
Li19 O0 1.968809 1_555
Li19 O4 2.018463 1_555
Li20 O19 1.933324 1_555
Li20 O21 1.966620 1_555
Li20 O1 1.968809 1_555
Li20 O5 2.018463 1_555
Li21 O16 1.933318 1_555
Li21 O22 1.966620 1_555
Li21 O2 1.968799 1_555
Li21 O6 2.018473 1_555
Li22 O17 1.933318 1_555
Li22 O23 1.966620 1_555
Li22 O3 1.968799 1_555
Li22 O7 2.018473 1_555
Li23 O15 1.912616 1_555
Li23 O14 1.912640 1_555
Li23 O25 2.085710 1_555
Li23 O24 2.085720 1_555
Li24 O9 1.939205 1_555
Li24 O8 1.939227 1_555
Li24 O27 1.990119 1_555
Li24 O26 1.990119 1_555
Li25 O11 1.931532 1_555
Li25 O10 1.931564 1_555
Li25 O31 1.989435 1_555
Li25 O30 1.989457 1_555
Li26 O13 1.947930 1_555
Li26 O12 1.947952 1_555
Li26 O29 1.987969 1_555
Li26 O28 1.987980 1_555
Li27 O9 1.984584 1_555
Li27 O32 1.984737 1_555
Li27 O26 2.181076 1_555
Li27 O18 2.195351 1_555
Li28 O8 1.984587 1_565
Li28 O33 1.984707 1_555
Li28 O26 2.181111 1_565
Li28 O19 2.195353 1_555
Li29 O9 1.984584 1_555
Li29 O34 1.984739 1_555
Li29 O27 2.181088 1_555
Li29 O16 2.195380 1_555
Li30 O8 1.984586 1_565
Li30 O35 1.984709 1_555
Li30 O27 2.181099 1_565
Li30 O17 2.195381 1_555
Li31 O12 1.980705 1_555
Li31 O32 1.990231 1_555
Li31 O20 2.176148 1_555
Li31 O28 2.185670 1_555
Li32 O13 1.980703 1_555
Li32 O33 1.990260 1_555
Li32 O21 2.176147 1_555
Li32 O28 2.185635 1_555
Li33 O12 1.980704 1_555
Li33 O34 1.990233 1_555
Li33 O22 2.176172 1_555
Li33 O29 2.185670 1_555
Li34 O13 1.980702 1_555
Li34 O35 1.990263 1_555
Li34 O23 2.176170 1_555
Li34 O29 2.185634 1_555
Li35 O10 1.979639 1_555
Li35 O38 1.993349 1_455
Li35 O22 2.176819 1_455
Li35 O30 2.191282 1_555
Li36 O11 1.979642 1_555
Li36 O39 1.993369 1_455
Li36 O23 2.176818 1_455
Li36 O30 2.191259 1_555
Li37 O10 1.979619 1_555
Li37 O36 1.993343 1_555
Li37 O20 2.176843 1_555
Li37 O31 2.191282 1_555
Li38 O11 1.979622 1_555
Li38 O37 1.993362 1_555
Li38 O21 2.176842 1_555
Li38 O31 2.191259 1_555
Li39 O15 1.933271 1_555
Li39 O38 1.979815 1_455
Li39 O24 2.180656 1_555
Li39 O16 2.186103 1_455
Li40 O14 1.933271 1_565
Li40 O39 1.979795 1_455
Li40 O24 2.180679 1_565
Li40 O17 2.186104 1_455
Li41 O15 1.933250 1_555
Li41 O36 1.979808 1_555
Li41 O25 2.180668 1_555
Li41 O18 2.186122 1_555
Li42 O14 1.933250 1_565
Li42 O37 1.979789 1_555
Li42 O25 2.180668 1_565
Li42 O19 2.186123 1_555
Li43 O36 1.945921 1_555
Li43 O32 1.947890 1_555
Li43 O20 1.985285 1_555
Li43 O18 1.996881 1_555
Li44 O37 1.945920 1_555
Li44 O33 1.947890 1_555
Li44 O21 1.985285 1_555
Li44 O19 1.996881 1_555
Li45 O38 1.945904 1_555
Li45 O34 1.947901 1_555
Li45 O22 1.985285 1_555
Li45 O16 1.996887 1_555
Li46 O39 1.945904 1_555
Li46 O35 1.947901 1_555
Li46 O23 1.985285 1_555
Li46 O17 1.996887 1_555
Li47 O25 1.937717 1_555
Li47 O24 1.937727 1_555
Li47 O46 1.999991 1_555
Li47 O47 1.999991 1_555
Li48 O26 1.939833 1_555
Li48 O27 1.939834 1_555
Li48 O40 1.991083 1_555
Li48 O41 1.991094 1_555
Li49 O31 1.942896 1_555
Li49 O30 1.942917 1_555
Li49 O43 1.981672 1_555
Li49 O42 1.981682 1_555
Li50 O29 1.947319 1_555
Li50 O28 1.947330 1_555
Li50 O45 1.988263 1_555
Li50 O44 1.988284 1_555
Li51 O26 1.978690 1_555
Li51 O53 2.001866 1_545
Li51 O33 2.156818 1_545
Li51 O40 2.167320 1_555
Li52 O26 1.978671 1_555
Li52 O52 2.001868 1_555
Li52 O32 2.156841 1_555
Li52 O41 2.167321 1_555
Li53 O27 1.978678 1_555
Li53 O55 2.001894 1_545
Li53 O35 2.156816 1_545
Li53 O40 2.167309 1_555
Li54 O27 1.978678 1_555
Li54 O54 2.001896 1_555
Li54 O34 2.156840 1_555
Li54 O41 2.167309 1_555
Li55 O31 1.979432 1_555
Li55 O48 1.986945 1_555
Li55 O36 2.169649 1_555
Li55 O42 2.177842 1_555
Li56 O31 1.979412 1_555
Li56 O49 1.986947 1_555
Li56 O37 2.169672 1_555
Li56 O43 2.177843 1_555
Li57 O30 1.979432 1_655
Li57 O50 1.986936 1_555
Li57 O38 2.169644 1_555
Li57 O42 2.177865 1_655
Li58 O30 1.979412 1_655
Li58 O51 1.986938 1_555
Li58 O39 2.169668 1_555
Li58 O43 2.177866 1_655
Li59 O48 1.972738 1_555
Li59 O28 1.977994 1_555
Li59 O44 2.184197 1_555
Li59 O32 2.201741 1_555
Li60 O49 1.972740 1_555
Li60 O28 1.977974 1_555
Li60 O45 2.184197 1_555
Li60 O33 2.201764 1_555
Li61 O50 1.972747 1_555
Li61 O29 1.977996 1_555
Li61 O44 2.184197 1_555
Li61 O34 2.201740 1_555
Li62 O51 1.972749 1_555
Li62 O29 1.977977 1_555
Li62 O45 2.184197 1_555
Li62 O35 2.201763 1_555
Li63 O25 1.981480 1_555
Li63 O53 2.018734 1_545
Li63 O46 2.162889 1_555
Li63 O37 2.179963 1_545
Li64 O25 1.981480 1_555
Li64 O52 2.018736 1_555
Li64 O47 2.162889 1_555
Li64 O36 2.179987 1_555
Li65 O24 1.981492 1_655
Li65 O55 2.018714 1_545
Li65 O46 2.162912 1_655
Li65 O39 2.179959 1_545
Li66 O24 1.981472 1_655
Li66 O54 2.018717 1_555
Li66 O47 2.162912 1_655
Li66 O38 2.179982 1_555
Li67 O48 1.938879 1_555
Li67 O36 1.969034 1_555
Li67 O52 1.976928 1_555
Li67 O32 1.987086 1_555
Li68 O49 1.938890 1_555
Li68 O37 1.969034 1_555
Li68 O53 1.976917 1_555
Li68 O33 1.987086 1_555
Li69 O50 1.938879 1_555
Li69 O38 1.969018 1_555
Li69 O54 1.976928 1_555
Li69 O34 1.987085 1_555
Li70 O51 1.938890 1_555
Li70 O39 1.969018 1_555
Li70 O55 1.976917 1_555
Li70 O35 1.987085 1_555
Li71 O41 1.936844 1_555
Li71 O40 1.936855 1_555
Li71 O59 1.977975 1_555
Li71 O58 1.977976 1_555
Li72 O43 1.941937 1_555
Li72 O42 1.941948 1_555
Li72 O61 1.984582 1_555
Li72 O60 1.984603 1_555
Li73 O45 1.948652 1_555
Li73 O44 1.948674 1_555
Li73 O62 1.986998 1_555
Li73 O63 1.987008 1_555
Li74 O57 1.944649 1_555
Li74 O56 1.944661 1_555
Li74 O47 1.998333 1_555
Li74 O46 1.998354 1_555
Li75 O4 1.969967 1_556
Li75 O41 1.977068 1_555
Li75 O52 2.162863 1_555
Li75 O58 2.185610 1_555
Li76 O5 1.969957 1_556
Li76 O40 1.977070 1_565
Li76 O53 2.162864 1_555
Li76 O58 2.185634 1_565
Li77 O6 1.969967 1_556
Li77 O41 1.977077 1_555
Li77 O54 2.162875 1_555
Li77 O59 2.185621 1_555
Li78 O7 1.969957 1_556
Li78 O40 1.977080 1_565
Li78 O55 2.162876 1_555
Li78 O59 2.185621 1_565
Li79 O2 1.958606 1_456
Li79 O42 1.975595 1_555
Li79 O60 2.176670 1_555
Li79 O50 2.192459 1_455
Li80 O3 1.958626 1_456
Li80 O43 1.975593 1_555
Li80 O60 2.176646 1_555
Li80 O51 2.192458 1_455
Li81 O0 1.958606 1_556
Li81 O42 1.975585 1_555
Li81 O61 2.176669 1_555
Li81 O48 2.192459 1_555
Li82 O1 1.958626 1_556
Li82 O43 1.975583 1_555
Li82 O61 2.176645 1_555
Li82 O49 2.192458 1_555
Li83 O44 1.983040 1_555
Li83 O4 1.987438 1_556
Li83 O48 2.171988 1_555
Li83 O62 2.178784 1_555
Li84 O45 1.983042 1_555
Li84 O5 1.987438 1_556
Li84 O49 2.171988 1_555
Li84 O62 2.178772 1_555
Li85 O44 1.983049 1_555
Li85 O6 1.987438 1_556
Li85 O50 2.171989 1_555
Li85 O63 2.178784 1_555
Li86 O45 1.983051 1_555
Li86 O7 1.987438 1_556
Li86 O51 2.171989 1_555
Li86 O63 2.178772 1_555
Li87 O2 1.972776 1_456
Li87 O47 1.981717 1_555
Li87 O56 2.126816 1_555
Li87 O54 2.191625 1_455
Li88 O3 1.972756 1_456
Li88 O46 1.981717 1_565
Li88 O56 2.126840 1_565
Li88 O55 2.191626 1_455
Li89 O0 1.972778 1_556
Li89 O47 1.981697 1_555
Li89 O57 2.126829 1_555
Li89 O52 2.191649 1_555
Li90 O1 1.972758 1_556
Li90 O46 1.981697 1_565
Li90 O57 2.126829 1_565
Li90 O53 2.191650 1_555
Li91 O0 1.929645 1_556
Li91 O4 1.940180 1_556
Li91 O48 1.982916 1_555
Li91 O52 2.004174 1_555
Li92 O1 1.929645 1_556
Li92 O5 1.940180 1_556
Li92 O49 1.982927 1_555
Li92 O53 2.004163 1_555
Li93 O2 1.929634 1_556
Li93 O6 1.940191 1_556
Li93 O50 1.982916 1_555
Li93 O54 2.004174 1_555
Li94 O3 1.929634 1_556
Li94 O7 1.940191 1_556
Li94 O51 1.982927 1_555
Li94 O55 2.004163 1_555
Mn0 O15 2.044210 1_555
Mn0 O10 2.068492 1_555
Mn0 O0 2.073344 1_555
Mn0 O2 2.073356 1_455
Mn1 O14 2.044198 1_565
Mn1 O11 2.068515 1_555
Mn1 O1 2.073345 1_555
Mn1 O3 2.073356 1_455
Mn2 O12 2.071956 1_555
Mn2 O9 2.076855 1_555
Mn2 O4 2.077984 1_555
Mn2 O6 2.077995 1_555
Mn3 O13 2.071979 1_555
Mn3 O8 2.076832 1_565
Mn3 O5 2.077984 1_555
Mn3 O7 2.077995 1_555
Mn4 O31 2.073165 1_555
Mn4 O28 2.079674 1_555
Mn4 O21 2.080012 1_555
Mn4 O20 2.080024 1_555
Mn5 O30 2.073142 1_655
Mn5 O29 2.079709 1_555
Mn5 O23 2.080012 1_555
Mn5 O22 2.080024 1_555
Mn6 O25 2.061204 1_555
Mn6 O19 2.063428 1_545
Mn6 O18 2.063440 1_555
Mn6 O26 2.080533 1_555
Mn7 O24 2.061204 1_655
Mn7 O17 2.063433 1_545
Mn7 O16 2.063445 1_555
Mn7 O27 2.080545 1_555
Mn8 O44 2.071271 1_555
Mn8 O32 2.072162 1_555
Mn8 O34 2.072174 1_555
Mn8 O41 2.082859 1_555
Mn9 O45 2.071283 1_555
Mn9 O33 2.072162 1_555
Mn9 O35 2.072174 1_555
Mn9 O40 2.082859 1_565
Mn10 O42 2.072278 1_555
Mn10 O47 2.075262 1_555
Mn10 O36 2.076279 1_555
Mn10 O38 2.076297 1_455
Mn11 O43 2.072278 1_555
Mn11 O46 2.075251 1_565
Mn11 O37 2.076279 1_555
Mn11 O39 2.076297 1_455
Mn12 O57 1.954457 1_555
Mn12 O53 2.028512 1_545
Mn12 O52 2.028524 1_555
Mn12 O58 2.040839 1_555
Mn13 O56 1.954457 1_655
Mn13 O55 2.028512 1_545
Mn13 O54 2.028524 1_555
Mn13 O59 2.040851 1_555
Mn14 O61 2.073019 1_555
Mn14 O62 2.074964 1_555
Mn14 O49 2.078085 1_555
Mn14 O48 2.078097 1_555
Mn15 O60 2.073007 1_655
Mn15 O63 2.074964 1_555
Mn15 O51 2.078085 1_555
Mn15 O50 2.078097 1_555
