# generated using pymatgen
data_MgZn
_symmetry_space_group_name_H-M   'P 1'
_cell_length_a   3.16714832
_cell_length_b   3.16714832
_cell_length_c   13.17762100
_cell_angle_alpha   90.00000000
_cell_angle_beta   90.00000000
_cell_angle_gamma   120.00000677
_symmetry_Int_Tables_number   1
_chemical_formula_structural   MgZn
_chemical_formula_sum   'Mg3 Zn3'
_cell_volume   114.47335736
_cell_formula_units_Z   3
loop_
 _symmetry_equiv_pos_site_id
 _symmetry_equiv_pos_as_xyz
  1  'x, y, z'
loop_
 _atom_site_type_symbol
 _atom_site_label
 _atom_site_symmetry_multiplicity
 _atom_site_fract_x
 _atom_site_fract_y
 _atom_site_fract_z
 _atom_site_occupancy
  Mg  Mg0  1  0.00000000  0.00000000  0.00861700  1
  Mg  Mg1  1  0.00000000  0.00000000  0.67664900  1
  Mg  Mg2  1  0.33333300  0.66666700  0.48265400  1
  Zn  Zn0  1  0.33333300  0.66666700  0.84296800  1
  Zn  Zn1  1  0.00000000  0.00000000  0.31668400  1
  Zn  Zn2  1  0.33333300  0.66666700  0.17242800  1
loop_
_geom_bond_atom_site_label_1
_geom_bond_atom_site_label_2
_geom_bond_distance
_geom_bond_site_symmetry_2
Mg0 Zn2 2.829015 1_545
Mg0 Zn2 2.829017 1_555
Mg0 Zn2 2.829017 1_445
Mg0 Zn0 2.847539 1_544
Mg0 Zn0 2.847541 1_554
Mg0 Zn0 2.847541 1_444
Mg1 Zn0 2.854313 1_545
Mg1 Zn0 2.854315 1_445
Mg1 Zn0 2.854315 1_555
Mg2 Zn1 2.850783 1_565
Mg2 Zn1 2.850785 1_555
Mg2 Zn1 2.850785 1_665
Zn1 Zn2 2.637654 1_545
Zn1 Zn2 2.637656 1_445
Zn1 Zn2 2.637656 1_555
