# generated using pymatgen
data_CdSe
_symmetry_space_group_name_H-M   'P 1'
_cell_length_a   4.06439038
_cell_length_b   4.06439038
_cell_length_c   4.06439038
_cell_angle_alpha   60.00000000
_cell_angle_beta   60.00000000
_cell_angle_gamma   60.00000000
_symmetry_Int_Tables_number   1
_chemical_formula_structural   CdSe
_chemical_formula_sum   'Cd1 Se1'
_cell_volume   47.47568579
_cell_formula_units_Z   1
loop_
 _symmetry_equiv_pos_site_id
 _symmetry_equiv_pos_as_xyz
  1  'x, y, z'
loop_
 _atom_site_type_symbol
 _atom_site_label
 _atom_site_symmetry_multiplicity
 _atom_site_fract_x
 _atom_site_fract_y
 _atom_site_fract_z
 _atom_site_occupancy
  Cd  Cd0  1  0.00000000  0.00000000  0.00000000  1
  Se  Se0  1  0.50000000  0.50000000  0.50000000  1
loop_
_geom_bond_atom_site_label_1
_geom_bond_atom_site_label_2
_geom_bond_distance
_geom_bond_site_symmetry_2
Cd0 Se0 2.873958 1_544
Cd0 Se0 2.873958 1_545
Cd0 Se0 2.873958 1_554
Cd0 Se0 2.873958 1_445
Cd0 Se0 2.873958 1_455
Cd0 Se0 2.873958 1_454
