# generated using pymatgen
data_RbLaMnWO6
_symmetry_space_group_name_H-M   'P 1'
_cell_length_a   5.76768884
_cell_length_b   5.78833100
_cell_length_c   8.35964225
_cell_angle_alpha   90.00031604
_cell_angle_beta   90.51922948
_cell_angle_gamma   90.00017701
_symmetry_Int_Tables_number   1
_chemical_formula_structural   RbLaMnWO6
_chemical_formula_sum   'Rb2 La2 Mn2 W2 O12'
_cell_volume   279.07763871
_cell_formula_units_Z   2
loop_
 _symmetry_equiv_pos_site_id
 _symmetry_equiv_pos_as_xyz
  1  'x, y, z'
loop_
 _atom_site_type_symbol
 _atom_site_label
 _atom_site_symmetry_multiplicity
 _atom_site_fract_x
 _atom_site_fract_y
 _atom_site_fract_z
 _atom_site_occupancy
  Rb  Rb0  1  0.24319800  0.76200600  0.00074600  1
  Rb  Rb1  1  0.75681300  0.26200900  0.99926600  1
  La  La0  1  0.24543200  0.80330100  0.49984800  1
  La  La1  1  0.75456600  0.30330600  0.50014700  1
  Mn  Mn0  1  0.25450800  0.27441800  0.75289400  1
  Mn  Mn1  1  0.74546500  0.77441700  0.24711800  1
  W  W0  1  0.75720500  0.76907200  0.74453700  1
  W  W1  1  0.24279300  0.26906900  0.25546300  1
  O  O0  1  0.53672900  0.02204800  0.69183100  1
  O  O1  1  0.46328900  0.52202900  0.30816500  1
  O  O2  1  0.50474800  0.05317300  0.30850400  1
  O  O3  1  0.49524800  0.55317200  0.69149000  1
  O  O4  1  0.98621500  0.47992800  0.25632100  1
  O  O5  1  0.01380100  0.97990400  0.74367800  1
  O  O6  1  0.95962900  0.50125700  0.74665900  1
  O  O7  1  0.04035600  0.00126800  0.25333800  1
  O  O8  1  0.81988000  0.74798800  0.50357800  1
  O  O9  1  0.18012000  0.24797700  0.49642100  1
  O  O10  1  0.71915300  0.77022400  0.96757200  1
  O  O11  1  0.28085200  0.27021800  0.03242600  1
loop_
_geom_bond_atom_site_label_1
_geom_bond_atom_site_label_2
_geom_bond_distance
_geom_bond_site_symmetry_2
La0 O8 2.475721 1_455
La0 O3 2.587872 1_555
La0 O9 2.601473 1_565
La0 O1 2.614141 1_555
La0 O7 2.629567 1_565
La0 O2 2.632655 1_565
La0 O0 2.636818 1_565
La0 O5 2.652157 1_555
La1 O9 2.475746 1_655
La1 O2 2.587882 1_555
La1 O8 2.601506 1_555
La1 O0 2.614046 1_555
La1 O6 2.629493 1_555
La1 O3 2.632633 1_555
La1 O1 2.636687 1_555
La1 O4 2.652232 1_555
Mn0 O6 2.148898 1_455
Mn0 O9 2.188073 1_555
Mn0 O3 2.192675 1_555
Mn0 O5 2.199449 1_545
Mn0 O0 2.249265 1_555
Mn0 O11 2.340474 1_556
Mn1 O7 2.148987 1_665
Mn1 O8 2.187992 1_555
Mn1 O2 2.192565 1_565
Mn1 O4 2.199497 1_555
Mn1 O1 2.249110 1_555
Mn1 O10 2.340580 1_554
O0 W0 1.986267 1_545
O0 Rb1 3.175929 1_555
O1 W1 1.986256 1_555
O1 Rb0 3.175893 1_555
O2 W1 2.007217 1_555
O2 Rb1 3.213384 1_554
O3 W0 2.007242 1_555
O3 Rb0 3.213454 1_556
O4 W1 1.918312 1_655
O4 Rb1 2.812097 1_554
O4 Rb0 3.079762 1_655
O5 W0 1.918287 1_455
O5 Rb0 2.812126 1_556
O5 Rb1 3.079927 1_465
O6 W0 1.940664 1_555
O6 Rb1 2.791106 1_555
O6 Rb0 3.066213 1_656
O7 W1 1.940638 1_555
O7 Rb0 2.791107 1_545
O7 Rb1 3.066041 1_454
O8 W0 2.053362 1_555
O9 W1 2.053355 1_555
O10 W0 1.879352 1_555
O10 Rb0 2.762042 1_556
O10 Rb1 2.866974 1_565
O10 Rb1 2.961426 1_555
O10 Rb0 3.033094 1_656
O11 W1 1.879373 1_555
O11 Rb1 2.762062 1_554
O11 Rb0 2.866982 1_555
O11 Rb0 2.961392 1_545
O11 Rb1 3.033049 1_454
