# generated using pymatgen
data_Ac3Cl
_symmetry_space_group_name_H-M   'P 1'
_cell_length_a   5.46029600
_cell_length_b   5.46029600
_cell_length_c   5.46029600
_cell_angle_alpha   90.00000000
_cell_angle_beta   90.00000000
_cell_angle_gamma   90.00000000
_symmetry_Int_Tables_number   1
_chemical_formula_structural   Ac3Cl
_chemical_formula_sum   'Ac3 Cl1'
_cell_volume   162.79781014
_cell_formula_units_Z   1
loop_
 _symmetry_equiv_pos_site_id
 _symmetry_equiv_pos_as_xyz
  1  'x, y, z'
loop_
 _atom_site_type_symbol
 _atom_site_label
 _atom_site_symmetry_multiplicity
 _atom_site_fract_x
 _atom_site_fract_y
 _atom_site_fract_z
 _atom_site_occupancy
  Ac  Ac0  1  0.00000000  0.50000000  0.50000000  1
  Ac  Ac1  1  0.50000000  0.00000000  0.50000000  1
  Ac  Ac2  1  0.50000000  0.50000000  0.00000000  1
  Cl  Cl0  1  0.00000000  0.00000000  0.00000000  1
loop_
_geom_bond_atom_site_label_1
_geom_bond_atom_site_label_2
_geom_bond_distance
_geom_bond_site_symmetry_2
Ac0 Cl0 3.861012 1_566
Ac0 Cl0 3.861012 1_555
Ac0 Cl0 3.861012 1_556
Ac0 Cl0 3.861012 1_565
Ac1 Cl0 3.861012 1_655
Ac1 Cl0 3.861012 1_555
Ac1 Cl0 3.861012 1_656
Ac1 Cl0 3.861012 1_556
Ac2 Cl0 3.861012 1_665
Ac2 Cl0 3.861012 1_655
Ac2 Cl0 3.861012 1_555
Ac2 Cl0 3.861012 1_565
