# generated using pymatgen
data_TlCo(CO)4
_symmetry_space_group_name_H-M   'P 1'
_cell_length_a   9.11919700
_cell_length_b   9.11919700
_cell_length_c   9.11919700
_cell_angle_alpha   90.00000000
_cell_angle_beta   90.00000000
_cell_angle_gamma   90.00000000
_symmetry_Int_Tables_number   1
_chemical_formula_structural   TlCo(CO)4
_chemical_formula_sum   'Tl4 Co4 C16 O16'
_cell_volume   758.35017851
_cell_formula_units_Z   4
loop_
 _symmetry_equiv_pos_site_id
 _symmetry_equiv_pos_as_xyz
  1  'x, y, z'
loop_
 _atom_site_type_symbol
 _atom_site_label
 _atom_site_symmetry_multiplicity
 _atom_site_fract_x
 _atom_site_fract_y
 _atom_site_fract_z
 _atom_site_occupancy
  Tl  Tl0  1  0.19007700  0.30992300  0.69007700  1
  Tl  Tl1  1  0.30992300  0.69007700  0.19007700  1
  Tl  Tl2  1  0.80992300  0.80992300  0.80992300  1
  Tl  Tl3  1  0.69007700  0.19007700  0.30992300  1
  Co  Co0  1  0.19789200  0.69789200  0.80210800  1
  Co  Co1  1  0.80210800  0.19789200  0.69789200  1
  Co  Co2  1  0.69789200  0.80210800  0.19789200  1
  Co  Co3  1  0.30210800  0.30210800  0.30210800  1
  C  C0  1  0.81275100  0.38481800  0.65420400  1
  C  C1  1  0.41314600  0.41314600  0.41314600  1
  C  C2  1  0.61518200  0.15420400  0.68724900  1
  C  C3  1  0.84579600  0.18724900  0.88481800  1
  C  C4  1  0.38481800  0.65420400  0.81275100  1
  C  C5  1  0.58685400  0.91314600  0.08685400  1
  C  C6  1  0.65420400  0.81275100  0.38481800  1
  C  C7  1  0.31275100  0.11518200  0.34579600  1
  C  C8  1  0.68724900  0.61518200  0.15420400  1
  C  C9  1  0.88481800  0.84579600  0.18724900  1
  C  C10  1  0.18724900  0.88481800  0.84579600  1
  C  C11  1  0.11518200  0.34579600  0.31275100  1
  C  C12  1  0.91314600  0.08685400  0.58685400  1
  C  C13  1  0.15420400  0.68724900  0.61518200  1
  C  C14  1  0.34579600  0.31275100  0.11518200  1
  C  C15  1  0.08685400  0.58685400  0.91314600  1
  O  O0  1  0.98904900  0.36851800  0.31785800  1
  O  O1  1  0.01095100  0.86851800  0.18214200  1
  O  O2  1  0.48745600  0.48745600  0.48745600  1
  O  O3  1  0.18214200  0.01095100  0.86851800  1
  O  O4  1  0.63148200  0.81785800  0.51095100  1
  O  O5  1  0.68214200  0.48904900  0.13148200  1
  O  O6  1  0.51095100  0.63148200  0.81785800  1
  O  O7  1  0.98745600  0.01254400  0.51254400  1
  O  O8  1  0.81785800  0.51095100  0.63148200  1
  O  O9  1  0.01254400  0.51254400  0.98745600  1
  O  O10  1  0.48904900  0.13148200  0.68214200  1
  O  O11  1  0.31785800  0.98904900  0.36851800  1
  O  O12  1  0.51254400  0.98745600  0.01254400  1
  O  O13  1  0.86851800  0.18214200  0.01095100  1
  O  O14  1  0.13148200  0.68214200  0.48904900  1
  O  O15  1  0.36851800  0.31785800  0.98904900  1
loop_
_geom_bond_atom_site_label_1
_geom_bond_atom_site_label_2
_geom_bond_distance
_geom_bond_site_symmetry_2
C0 O8 1.169674 1_555
C0 Co1 1.753241 1_555
C1 O2 1.173720 1_555
C1 Co3 1.753835 1_555
C2 O10 1.169674 1_555
C2 Co1 1.753241 1_555
C3 O13 1.169674 1_556
C3 Co1 1.753241 1_555
C4 O6 1.169674 1_555
C4 Co0 1.753241 1_555
C5 O12 1.173720 1_555
C5 Co2 1.753835 1_555
C6 O4 1.169674 1_555
C6 Co2 1.753241 1_555
C7 O11 1.169674 1_545
C7 Co3 1.753241 1_555
C8 O5 1.169674 1_555
C8 Co2 1.753241 1_555
C9 O1 1.169674 1_655
C9 Co2 1.753241 1_555
C10 O3 1.169674 1_565
C10 Co0 1.753241 1_555
C11 O0 1.169674 1_455
C11 Co3 1.753241 1_555
C12 O7 1.173720 1_555
C12 Co1 1.753835 1_555
C13 O14 1.169674 1_555
C13 Co0 1.753241 1_555
C14 O15 1.169674 1_554
C14 Co3 1.753241 1_555
C15 O9 1.173720 1_555
C15 Co0 1.753835 1_555
