# generated using pymatgen
data_LiLa4CoO8
_symmetry_space_group_name_H-M   'P 1'
_cell_length_a   7.01819783
_cell_length_b   7.55081391
_cell_length_c   7.55074600
_cell_angle_alpha   90.09104252
_cell_angle_beta   105.56439407
_cell_angle_gamma   105.56259221
_symmetry_Int_Tables_number   1
_chemical_formula_structural   LiLa4CoO8
_chemical_formula_sum   'Li2 La8 Co2 O16'
_cell_volume   370.16337547
_cell_formula_units_Z   2
loop_
 _symmetry_equiv_pos_site_id
 _symmetry_equiv_pos_as_xyz
  1  'x, y, z'
loop_
 _atom_site_type_symbol
 _atom_site_label
 _atom_site_symmetry_multiplicity
 _atom_site_fract_x
 _atom_site_fract_y
 _atom_site_fract_z
 _atom_site_occupancy
  Li  Li0  1  0.00000100  0.75000000  0.75000000  1
  Li  Li1  1  0.00000100  0.24999900  0.25000000  1
  La  La0  1  0.72502500  0.43103100  0.93104300  1
  La  La1  1  0.72500400  0.93102600  0.43103800  1
  La  La2  1  0.27499600  0.56897400  0.06896400  1
  La  La3  1  0.27497400  0.06896900  0.56895700  1
  La  La4  1  0.27630100  0.56916100  0.56912300  1
  La  La5  1  0.27629900  0.06916200  0.06912000  1
  La  La6  1  0.72370200  0.43084000  0.43088000  1
  La  La7  1  0.72369700  0.93084000  0.93087800  1
  Co  Co0  1  0.00000000  0.75000000  0.25000000  1
  Co  Co1  1  0.00000000  0.25000000  0.75000000  1
  O  O0  1  0.36287800  0.84070900  0.84071800  1
  O  O1  1  0.36287700  0.34071000  0.34071700  1
  O  O2  1  0.63712300  0.15929000  0.15927900  1
  O  O3  1  0.63712300  0.65929100  0.65927900  1
  O  O4  1  0.64091800  0.66031700  0.16030700  1
  O  O5  1  0.64091600  0.16032100  0.66031000  1
  O  O6  1  0.35908300  0.33967800  0.83969100  1
  O  O7  1  0.35908200  0.83968100  0.33969300  1
  O  O8  1  0.99993800  0.49491100  0.75069500  1
  O  O9  1  0.99993500  0.99490900  0.25069300  1
  O  O10  1  0.00004900  0.74921500  0.00509100  1
  O  O11  1  0.00004700  0.24921400  0.50509000  1
  O  O12  1  0.00006500  0.50509100  0.24930800  1
  O  O13  1  0.00006200  0.00508900  0.74930700  1
  O  O14  1  0.99995400  0.25078600  0.99491100  1
  O  O15  1  0.99995100  0.75078500  0.49491000  1
loop_
_geom_bond_atom_site_label_1
_geom_bond_atom_site_label_2
_geom_bond_distance
_geom_bond_site_symmetry_2
Li0 O8 1.926027 1_455
Li0 O13 1.926030 1_565
Li0 O15 1.926044 1_455
Li0 O10 1.926056 1_556
Li0 O0 2.355970 1_555
Li0 O3 2.355977 1_455
Li1 O9 1.926029 1_445
Li1 O14 1.926043 1_454
Li1 O12 1.926047 1_555
Li1 O11 1.926052 1_555
Li1 O1 2.355964 1_555
Li1 O2 2.355977 1_455
La0 O6 2.375870 1_555
La0 O14 2.592238 1_555
La0 O8 2.592740 1_555
La0 O10 2.595900 1_656
La0 O12 2.596337 1_656
La0 O5 2.719802 1_555
La0 O4 2.725760 1_556
La0 O2 2.731892 1_556
La0 O3 2.732110 1_555
La1 O7 2.375740 1_555
La1 O15 2.592321 1_555
La1 O9 2.592829 1_555
La1 O11 2.595981 1_665
La1 O13 2.596415 1_665
La1 O4 2.719817 1_555
La1 O5 2.725775 1_565
La1 O3 2.731858 1_555
La1 O2 2.732076 1_565
La2 O4 2.375740 1_555
La2 O10 2.592321 1_555
La2 O12 2.592823 1_555
La2 O14 2.595978 1_454
La2 O8 2.596415 1_454
La2 O7 2.719796 1_555
La2 O6 2.725781 1_554
La2 O0 2.731886 1_554
La2 O1 2.732045 1_555
La3 O5 2.375870 1_555
La3 O11 2.592227 1_555
La3 O13 2.592745 1_555
La3 O15 2.595897 1_445
La3 O9 2.596329 1_445
La3 O6 2.719802 1_555
La3 O7 2.725775 1_545
La3 O1 2.731914 1_555
La3 O0 2.732097 1_545
La4 O3 2.342628 1_555
La4 O8 2.608042 1_455
La4 O15 2.608212 1_455
La4 O12 2.608575 1_555
La4 O11 2.609419 1_555
La4 O7 2.724998 1_555
La4 O6 2.725502 1_555
La4 O0 2.725503 1_555
La4 O1 2.726618 1_555
La5 O2 2.342641 1_555
La5 O9 2.608054 1_445
La5 O14 2.608183 1_454
La5 O13 2.608567 1_554
La5 O10 2.609407 1_545
La5 O6 2.724975 1_554
La5 O1 2.725512 1_555
La5 O7 2.725519 1_545
La5 O0 2.726619 1_544
La6 O1 2.342648 1_555
La6 O12 2.608042 1_655
La6 O11 2.608194 1_655
La6 O8 2.608575 1_555
La6 O15 2.609392 1_555
La6 O5 2.724999 1_555
La6 O4 2.725499 1_555
La6 O2 2.725542 1_555
La6 O3 2.726593 1_555
La7 O0 2.342609 1_555
La7 O13 2.608048 1_665
La7 O10 2.608229 1_656
La7 O9 2.608581 1_556
La7 O14 2.609422 1_565
La7 O4 2.725005 1_556
La7 O5 2.725490 1_565
La7 O3 2.725533 1_555
La7 O2 2.726578 1_566
Co0 O10 1.849338 1_555
Co0 O15 1.849346 1_455
Co0 O12 1.849384 1_555
Co0 O9 1.849384 1_455
Co0 O4 2.331331 1_455
Co0 O7 2.331331 1_555
Co1 O11 1.849342 1_555
Co1 O14 1.849348 1_455
Co1 O13 1.849394 1_555
Co1 O8 1.849394 1_455
Co1 O6 2.331338 1_555
Co1 O5 2.331344 1_455
