# generated using pymatgen
data_Zr6NiSn2
_symmetry_space_group_name_H-M   'P 1'
_cell_length_a   15.89342114
_cell_length_b   15.89342114
_cell_length_c   7.08752772
_cell_angle_alpha   90.00000000
_cell_angle_beta   90.00000000
_cell_angle_gamma   120.00000543
_symmetry_Int_Tables_number   1
_chemical_formula_structural   Zr6NiSn2
_chemical_formula_sum   'Zr48 Ni8 Sn16'
_cell_volume   1550.45855387
_cell_formula_units_Z   8
loop_
 _symmetry_equiv_pos_site_id
 _symmetry_equiv_pos_as_xyz
  1  'x, y, z'
loop_
 _atom_site_type_symbol
 _atom_site_label
 _atom_site_symmetry_multiplicity
 _atom_site_fract_x
 _atom_site_fract_y
 _atom_site_fract_z
 _atom_site_occupancy
  Zr  Zr0_0  1  0.12142798  0.00000000  0.25000000  1
  Zr  Zr0_1  1  0.12142798  0.00000000  0.75000000  1
  Zr  Zr0_2  1  0.12142798  0.50000000  0.25000000  1
  Zr  Zr0_3  1  0.12142798  0.50000000  0.75000000  1
  Zr  Zr0_4  1  0.62142798  0.00000000  0.25000000  1
  Zr  Zr0_5  1  0.62142798  0.00000000  0.75000000  1
  Zr  Zr0_6  1  0.62142798  0.50000000  0.25000000  1
  Zr  Zr0_7  1  0.62142798  0.50000000  0.75000000  1
  Zr  Zr1_0  1  0.00000000  0.12142798  0.25000000  1
  Zr  Zr1_1  1  0.00000000  0.12142798  0.75000000  1
  Zr  Zr1_2  1  0.00000000  0.62142798  0.25000000  1
  Zr  Zr1_3  1  0.00000000  0.62142798  0.75000000  1
  Zr  Zr1_4  1  0.50000000  0.12142798  0.25000000  1
  Zr  Zr1_5  1  0.50000000  0.12142798  0.75000000  1
  Zr  Zr1_6  1  0.50000000  0.62142798  0.25000000  1
  Zr  Zr1_7  1  0.50000000  0.62142798  0.75000000  1
  Zr  Zr2_0  1  0.37857202  0.37857202  0.25000000  1
  Zr  Zr2_1  1  0.37857202  0.37857202  0.75000000  1
  Zr  Zr2_2  1  0.37857202  0.87857202  0.25000000  1
  Zr  Zr2_3  1  0.37857202  0.87857202  0.75000000  1
  Zr  Zr2_4  1  0.87857202  0.37857202  0.25000000  1
  Zr  Zr2_5  1  0.87857202  0.37857202  0.75000000  1
  Zr  Zr2_6  1  0.87857202  0.87857202  0.25000000  1
  Zr  Zr2_7  1  0.87857202  0.87857202  0.75000000  1
  Zr  Zr3_0  1  0.30113535  0.00000000  0.00000000  1
  Zr  Zr3_1  1  0.30113535  0.00000000  0.50000000  1
  Zr  Zr3_2  1  0.30113535  0.50000000  0.00000000  1
  Zr  Zr3_3  1  0.30113535  0.50000000  0.50000000  1
  Zr  Zr3_4  1  0.80113535  0.00000000  0.00000000  1
  Zr  Zr3_5  1  0.80113535  0.00000000  0.50000000  1
  Zr  Zr3_6  1  0.80113535  0.50000000  0.00000000  1
  Zr  Zr3_7  1  0.80113535  0.50000000  0.50000000  1
  Zr  Zr4_0  1  0.00000000  0.30113535  0.00000000  1
  Zr  Zr4_1  1  0.00000000  0.30113535  0.50000000  1
  Zr  Zr4_2  1  0.00000000  0.80113535  0.00000000  1
  Zr  Zr4_3  1  0.00000000  0.80113535  0.50000000  1
  Zr  Zr4_4  1  0.50000000  0.30113535  0.00000000  1
  Zr  Zr4_5  1  0.50000000  0.30113535  0.50000000  1
  Zr  Zr4_6  1  0.50000000  0.80113535  0.00000000  1
  Zr  Zr4_7  1  0.50000000  0.80113535  0.50000000  1
  Zr  Zr5_0  1  0.19886464  0.19886464  0.00000000  1
  Zr  Zr5_1  1  0.19886464  0.19886464  0.50000000  1
  Zr  Zr5_2  1  0.19886464  0.69886465  0.00000000  1
  Zr  Zr5_3  1  0.19886464  0.69886465  0.50000000  1
  Zr  Zr5_4  1  0.69886464  0.19886464  0.00000000  1
  Zr  Zr5_5  1  0.69886464  0.19886464  0.50000000  1
  Zr  Zr5_6  1  0.69886464  0.69886464  0.00000000  1
  Zr  Zr5_7  1  0.69886464  0.69886464  0.50000000  1
  Ni  Ni0_0  1  0.00000000  0.00000000  0.00000000  1
  Ni  Ni0_1  1  0.00000000  0.00000000  0.50000000  1
  Ni  Ni0_2  1  0.00000000  0.50000000  0.00000000  1
  Ni  Ni0_3  1  0.00000000  0.50000000  0.50000000  1
  Ni  Ni0_4  1  0.50000000  0.00000000  0.00000000  1
  Ni  Ni0_5  1  0.50000000  0.00000000  0.50000000  1
  Ni  Ni0_6  1  0.50000000  0.50000000  0.00000000  1
  Ni  Ni0_7  1  0.50000000  0.50000000  0.50000000  1
  Sn  Sn0_0  1  0.16666650  0.33333350  0.25000000  1
  Sn  Sn0_1  1  0.16666650  0.33333350  0.75000000  1
  Sn  Sn0_2  1  0.16666650  0.83333350  0.25000000  1
  Sn  Sn0_3  1  0.16666650  0.83333350  0.75000000  1
  Sn  Sn0_4  1  0.66666650  0.33333350  0.25000000  1
  Sn  Sn0_5  1  0.66666650  0.33333350  0.75000000  1
  Sn  Sn0_6  1  0.66666650  0.83333350  0.25000000  1
  Sn  Sn0_7  1  0.66666650  0.83333350  0.75000000  1
  Sn  Sn1_0  1  0.33333350  0.16666650  0.25000000  1
  Sn  Sn1_1  1  0.33333350  0.16666650  0.75000000  1
  Sn  Sn1_2  1  0.33333350  0.66666650  0.25000000  1
  Sn  Sn1_3  1  0.33333350  0.66666650  0.75000000  1
  Sn  Sn1_4  1  0.83333350  0.16666650  0.25000000  1
  Sn  Sn1_5  1  0.83333350  0.16666650  0.75000000  1
  Sn  Sn1_6  1  0.83333350  0.66666650  0.25000000  1
  Sn  Sn1_7  1  0.83333350  0.66666650  0.75000000  1
loop_
_geom_bond_atom_site_label_1
_geom_bond_atom_site_label_2
_geom_bond_distance
_geom_bond_site_symmetry_2
Zr0_0 Zr4_3 3.279330 1_545
Zr0_0 Zr4_2 3.279330 1_545
Zr0_0 Zr5_1 3.279330 1_555
Zr0_0 Zr5_0 3.279330 1_555
Zr0_0 Zr3_0 3.361137 1_555
Zr0_0 Zr3_1 3.361137 1_555
Zr0_1 Zr4_3 3.279330 1_545
Zr0_1 Zr4_2 3.279330 1_546
Zr0_1 Zr5_1 3.279330 1_555
Zr0_1 Zr5_0 3.279330 1_556
Zr0_1 Zr3_0 3.361137 1_556
Zr0_1 Zr3_1 3.361137 1_555
Zr0_2 Zr4_0 3.279330 1_555
Zr0_2 Zr4_1 3.279330 1_555
Zr0_2 Zr5_2 3.279330 1_555
Zr0_2 Zr5_3 3.279330 1_555
Zr0_2 Zr3_2 3.361137 1_555
Zr0_2 Zr3_3 3.361137 1_555
Zr0_3 Zr4_0 3.279330 1_556
Zr0_3 Zr4_1 3.279330 1_555
Zr0_3 Zr5_2 3.279330 1_556
Zr0_3 Zr5_3 3.279330 1_555
Zr0_3 Zr3_2 3.361137 1_556
Zr0_3 Zr3_3 3.361137 1_555
Zr0_4 Zr4_7 3.279330 1_545
Zr0_4 Zr4_6 3.279330 1_545
Zr0_4 Zr5_5 3.279330 1_555
Zr0_4 Zr5_4 3.279330 1_555
Zr0_4 Zr3_4 3.361137 1_555
Zr0_4 Zr3_5 3.361137 1_555
Zr0_5 Zr4_6 3.279330 1_546
Zr0_5 Zr4_7 3.279330 1_545
Zr0_5 Zr5_5 3.279330 1_555
Zr0_5 Zr5_4 3.279330 1_556
Zr0_5 Zr3_4 3.361137 1_556
Zr0_5 Zr3_5 3.361137 1_555
Zr0_6 Zr4_4 3.279330 1_555
Zr0_6 Zr4_5 3.279330 1_555
Zr0_6 Zr5_7 3.279330 1_555
Zr0_6 Zr5_6 3.279330 1_555
Zr0_6 Zr3_7 3.361137 1_555
Zr0_6 Zr3_6 3.361137 1_555
Zr0_7 Zr4_4 3.279330 1_556
Zr0_7 Zr4_5 3.279330 1_555
Zr0_7 Zr5_7 3.279330 1_555
Zr0_7 Zr5_6 3.279330 1_556
Zr0_7 Zr3_7 3.361137 1_555
Zr0_7 Zr3_6 3.361137 1_556
Zr1_0 Zr3_4 3.279330 1_455
Zr1_0 Zr3_5 3.279330 1_455
Zr1_0 Zr5_1 3.279330 1_555
Zr1_0 Zr5_0 3.279330 1_555
Zr1_0 Zr4_0 3.361137 1_555
Zr1_0 Zr4_1 3.361137 1_555
Zr1_1 Zr3_4 3.279330 1_456
Zr1_1 Zr3_5 3.279330 1_455
Zr1_1 Zr5_1 3.279330 1_555
Zr1_1 Zr5_0 3.279330 1_556
Zr1_1 Zr4_0 3.361137 1_556
Zr1_1 Zr4_1 3.361137 1_555
Zr1_2 Zr3_6 3.279330 1_455
Zr1_2 Zr3_7 3.279330 1_455
Zr1_2 Zr5_2 3.279330 1_555
Zr1_2 Zr5_3 3.279330 1_555
Zr1_2 Zr4_3 3.361137 1_555
Zr1_2 Zr4_2 3.361137 1_555
Zr1_3 Zr3_6 3.279330 1_456
Zr1_3 Zr3_7 3.279330 1_455
Zr1_3 Zr5_2 3.279330 1_556
Zr1_3 Zr5_3 3.279330 1_555
Zr1_3 Zr4_3 3.361137 1_555
Zr1_3 Zr4_2 3.361137 1_556
Zr1_4 Zr3_0 3.279330 1_555
Zr1_4 Zr3_1 3.279330 1_555
Zr1_4 Zr5_4 3.279330 1_555
Zr1_4 Zr5_5 3.279330 1_555
Zr1_4 Zr4_4 3.361137 1_555
Zr1_4 Zr4_5 3.361137 1_555
Zr1_5 Zr3_0 3.279330 1_556
Zr1_5 Zr3_1 3.279330 1_555
Zr1_5 Zr5_4 3.279330 1_556
Zr1_5 Zr5_5 3.279330 1_555
Zr1_5 Zr4_4 3.361137 1_556
Zr1_5 Zr4_5 3.361137 1_555
Zr1_6 Zr3_3 3.279330 1_555
Zr1_6 Zr3_2 3.279330 1_555
Zr1_6 Zr5_7 3.279330 1_555
Zr1_6 Zr5_6 3.279330 1_555
Zr1_6 Zr4_6 3.361137 1_555
Zr1_6 Zr4_7 3.361137 1_555
Zr1_7 Zr3_3 3.279330 1_555
Zr1_7 Zr3_2 3.279330 1_556
Zr1_7 Zr5_7 3.279330 1_555
Zr1_7 Zr5_6 3.279330 1_556
Zr1_7 Zr4_6 3.361137 1_556
Zr1_7 Zr4_7 3.361137 1_555
Zr2_0 Zr4_5 3.279330 1_555
Zr2_0 Zr3_3 3.279330 1_555
Zr2_0 Zr3_2 3.279330 1_555
Zr2_0 Zr4_4 3.279330 1_555
Zr2_0 Zr5_0 3.361137 1_555
Zr2_0 Zr5_1 3.361137 1_555
Zr2_1 Zr4_4 3.279330 1_556
Zr2_1 Zr4_5 3.279330 1_555
Zr2_1 Zr3_3 3.279330 1_555
Zr2_1 Zr3_2 3.279330 1_556
Zr2_1 Zr5_0 3.361137 1_556
Zr2_1 Zr5_1 3.361137 1_555
Zr2_2 Zr3_1 3.279330 1_565
Zr2_2 Zr4_7 3.279330 1_555
Zr2_2 Zr3_0 3.279330 1_565
Zr2_2 Zr4_6 3.279330 1_555
Zr2_2 Zr5_3 3.361137 1_555
Zr2_2 Zr5_2 3.361137 1_555
Zr2_3 Zr3_1 3.279330 1_565
Zr2_3 Zr4_7 3.279330 1_555
Zr2_3 Zr3_0 3.279330 1_566
Zr2_3 Zr4_6 3.279330 1_556
Zr2_3 Zr5_2 3.361137 1_556
Zr2_3 Zr5_3 3.361137 1_555
Zr2_4 Zr3_7 3.279330 1_555
Zr2_4 Zr3_6 3.279330 1_555
Zr2_4 Zr4_1 3.279330 1_655
Zr2_4 Zr4_0 3.279330 1_655
Zr2_4 Zr5_4 3.361137 1_555
Zr2_4 Zr5_5 3.361137 1_555
Zr2_5 Zr3_6 3.279330 1_556
Zr2_5 Zr3_7 3.279330 1_555
Zr2_5 Zr4_0 3.279330 1_656
Zr2_5 Zr4_1 3.279330 1_655
Zr2_5 Zr5_4 3.361137 1_556
Zr2_5 Zr5_5 3.361137 1_555
Zr2_6 Zr4_2 3.279330 1_655
Zr2_6 Zr4_3 3.279330 1_655
Zr2_6 Zr3_5 3.279330 1_565
Zr2_6 Zr3_4 3.279330 1_565
Zr2_6 Zr5_6 3.361137 1_555
Zr2_6 Zr5_7 3.361137 1_555
Zr2_7 Zr4_2 3.279330 1_656
Zr2_7 Zr4_3 3.279330 1_655
Zr2_7 Zr3_5 3.279330 1_565
Zr2_7 Zr3_4 3.279330 1_566
Zr2_7 Zr5_6 3.361137 1_556
Zr2_7 Zr5_7 3.361137 1_555
Zr3_0 Zr3_1 3.543764 1_554
Zr3_0 Zr3_1 3.543764 1_555
Zr3_2 Zr3_3 3.543764 1_554
Zr3_2 Zr3_3 3.543764 1_555
Zr3_4 Zr3_5 3.543764 1_554
Zr3_4 Zr3_5 3.543764 1_555
Zr3_6 Zr3_7 3.543764 1_555
Zr3_6 Zr3_7 3.543764 1_554
Zr4_0 Zr4_1 3.543764 1_555
Zr4_0 Zr4_1 3.543764 1_554
Zr4_2 Zr4_3 3.543764 1_555
Zr4_2 Zr4_3 3.543764 1_554
Zr4_4 Zr4_5 3.543764 1_554
Zr4_4 Zr4_5 3.543764 1_555
Zr4_6 Zr4_7 3.543764 1_555
Zr4_6 Zr4_7 3.543764 1_554
Zr5_0 Zr5_1 3.543764 1_555
Zr5_0 Zr5_1 3.543764 1_554
Zr5_2 Zr5_3 3.543764 1_554
Zr5_2 Zr5_3 3.543764 1_555
Zr5_4 Zr5_5 3.543764 1_555
Zr5_4 Zr5_5 3.543764 1_554
Zr5_6 Zr5_7 3.543764 1_554
Zr5_6 Zr5_7 3.543764 1_555
Ni0_0 Zr2_7 2.619943 1_444
Ni0_0 Zr2_6 2.619943 1_445
Ni0_0 Zr1_0 2.619943 1_555
Ni0_0 Zr0_0 2.619943 1_555
Ni0_0 Zr1_1 2.619943 1_554
Ni0_0 Zr0_1 2.619943 1_554
Ni0_0 Zr5_0 3.160639 1_555
Ni0_0 Zr4_2 3.160640 1_545
Ni0_0 Zr3_4 3.160640 1_455
Ni0_1 Zr2_6 2.619943 1_445
Ni0_1 Zr2_7 2.619943 1_445
Ni0_1 Zr1_0 2.619943 1_555
Ni0_1 Zr0_0 2.619943 1_555
Ni0_1 Zr1_1 2.619943 1_555
Ni0_1 Zr0_1 2.619943 1_555
Ni0_1 Zr5_1 3.160639 1_555
Ni0_1 Zr4_3 3.160640 1_545
Ni0_1 Zr3_5 3.160640 1_455
Ni0_2 Zr2_5 2.619943 1_454
Ni0_2 Zr2_4 2.619943 1_455
Ni0_2 Zr1_2 2.619943 1_555
Ni0_2 Zr1_3 2.619943 1_554
Ni0_2 Zr0_2 2.619943 1_555
Ni0_2 Zr0_3 2.619943 1_554
Ni0_2 Zr5_2 3.160639 1_555
Ni0_2 Zr4_0 3.160640 1_555
Ni0_2 Zr3_6 3.160640 1_455
Ni0_3 Zr2_5 2.619943 1_455
Ni0_3 Zr2_4 2.619943 1_455
Ni0_3 Zr1_2 2.619943 1_555
Ni0_3 Zr1_3 2.619943 1_555
Ni0_3 Zr0_2 2.619943 1_555
Ni0_3 Zr0_3 2.619943 1_555
Ni0_3 Zr5_3 3.160639 1_555
Ni0_3 Zr4_1 3.160640 1_555
Ni0_3 Zr3_7 3.160640 1_455
Ni0_4 Zr2_3 2.619943 1_544
Ni0_4 Zr2_2 2.619943 1_545
Ni0_4 Zr1_4 2.619943 1_555
Ni0_4 Zr1_5 2.619943 1_554
Ni0_4 Zr0_5 2.619943 1_554
Ni0_4 Zr0_4 2.619943 1_555
Ni0_4 Zr5_4 3.160639 1_555
Ni0_4 Zr3_0 3.160640 1_555
Ni0_4 Zr4_6 3.160640 1_545
Ni0_5 Zr2_3 2.619943 1_545
Ni0_5 Zr2_2 2.619943 1_545
Ni0_5 Zr1_4 2.619943 1_555
Ni0_5 Zr1_5 2.619943 1_555
Ni0_5 Zr0_5 2.619943 1_555
Ni0_5 Zr0_4 2.619943 1_555
Ni0_5 Zr5_5 3.160639 1_555
Ni0_5 Zr3_1 3.160640 1_555
Ni0_5 Zr4_7 3.160640 1_545
Ni0_6 Zr2_1 2.619943 1_554
Ni0_6 Zr2_0 2.619943 1_555
Ni0_6 Zr0_6 2.619943 1_555
Ni0_6 Zr1_6 2.619943 1_555
Ni0_6 Zr1_7 2.619943 1_554
Ni0_6 Zr0_7 2.619943 1_554
Ni0_6 Zr5_6 3.160639 1_555
Ni0_6 Zr4_4 3.160640 1_555
Ni0_6 Zr3_2 3.160640 1_555
Ni0_7 Zr2_1 2.619943 1_555
Ni0_7 Zr2_0 2.619943 1_555
Ni0_7 Zr0_6 2.619943 1_555
Ni0_7 Zr1_6 2.619943 1_555
Ni0_7 Zr1_7 2.619943 1_555
Ni0_7 Zr0_7 2.619943 1_555
Ni0_7 Zr5_7 3.160639 1_555
Ni0_7 Zr4_5 3.160640 1_555
Ni0_7 Zr3_3 3.160640 1_555
Sn0_0 Zr4_0 3.010411 1_555
Sn0_0 Zr4_1 3.010411 1_555
Sn0_0 Zr3_3 3.010413 1_555
Sn0_0 Zr3_2 3.010413 1_555
Sn0_0 Zr5_1 3.010417 1_555
Sn0_0 Zr5_0 3.010417 1_555
Sn0_0 Zr0_2 3.072161 1_555
Sn0_0 Zr1_0 3.072166 1_555
Sn0_0 Zr2_0 3.072169 1_555
Sn0_1 Zr4_0 3.010411 1_556
Sn0_1 Zr4_1 3.010411 1_555
Sn0_1 Zr3_3 3.010413 1_555
Sn0_1 Zr3_2 3.010413 1_556
Sn0_1 Zr5_1 3.010417 1_555
Sn0_1 Zr5_0 3.010417 1_556
Sn0_1 Zr0_3 3.072161 1_555
Sn0_1 Zr1_1 3.072166 1_555
Sn0_1 Zr2_1 3.072169 1_555
Sn0_2 Zr4_3 3.010411 1_555
Sn0_2 Zr4_2 3.010411 1_555
Sn0_2 Zr3_1 3.010413 1_565
Sn0_2 Zr3_0 3.010413 1_565
Sn0_2 Zr5_2 3.010417 1_555
Sn0_2 Zr5_3 3.010417 1_555
Sn0_2 Zr0_0 3.072161 1_565
Sn0_2 Zr1_2 3.072166 1_555
Sn0_2 Zr2_2 3.072169 1_555
Sn0_3 Zr4_3 3.010411 1_555
Sn0_3 Zr4_2 3.010411 1_556
Sn0_3 Zr3_1 3.010413 1_565
Sn0_3 Zr3_0 3.010413 1_566
Sn0_3 Zr5_2 3.010417 1_556
Sn0_3 Zr5_3 3.010417 1_555
Sn0_3 Zr0_1 3.072161 1_565
Sn0_3 Zr1_3 3.072166 1_555
Sn0_3 Zr2_3 3.072169 1_555
Sn0_4 Zr4_5 3.010411 1_555
Sn0_4 Zr4_4 3.010411 1_555
Sn0_4 Zr3_7 3.010413 1_555
Sn0_4 Zr3_6 3.010413 1_555
Sn0_4 Zr5_4 3.010417 1_555
Sn0_4 Zr5_5 3.010417 1_555
Sn0_4 Zr0_6 3.072161 1_555
Sn0_4 Zr1_4 3.072166 1_555
Sn0_4 Zr2_4 3.072169 1_555
Sn0_5 Zr4_5 3.010411 1_555
Sn0_5 Zr4_4 3.010411 1_556
Sn0_5 Zr3_6 3.010413 1_556
Sn0_5 Zr3_7 3.010413 1_555
Sn0_5 Zr5_4 3.010417 1_556
Sn0_5 Zr5_5 3.010417 1_555
Sn0_5 Zr0_7 3.072161 1_555
Sn0_5 Zr1_5 3.072166 1_555
Sn0_5 Zr2_5 3.072169 1_555
Sn0_6 Zr4_6 3.010411 1_555
Sn0_6 Zr4_7 3.010411 1_555
Sn0_6 Zr3_5 3.010413 1_565
Sn0_6 Zr3_4 3.010413 1_565
Sn0_6 Zr5_7 3.010417 1_555
Sn0_6 Zr5_6 3.010417 1_555
Sn0_6 Zr0_4 3.072161 1_565
Sn0_6 Zr1_6 3.072166 1_555
Sn0_6 Zr2_6 3.072169 1_555
Sn0_7 Zr4_6 3.010411 1_556
Sn0_7 Zr4_7 3.010411 1_555
Sn0_7 Zr3_5 3.010413 1_565
Sn0_7 Zr3_4 3.010413 1_566
Sn0_7 Zr5_7 3.010417 1_555
Sn0_7 Zr5_6 3.010417 1_556
Sn0_7 Zr0_5 3.072161 1_565
Sn0_7 Zr1_7 3.072166 1_555
Sn0_7 Zr2_7 3.072169 1_555
Sn1_0 Zr3_1 3.010411 1_555
Sn1_0 Zr3_0 3.010411 1_555
Sn1_0 Zr4_4 3.010413 1_555
Sn1_0 Zr4_5 3.010413 1_555
Sn1_0 Zr5_0 3.010417 1_555
Sn1_0 Zr5_1 3.010417 1_555
Sn1_0 Zr1_4 3.072161 1_555
Sn1_0 Zr0_0 3.072166 1_555
Sn1_0 Zr2_0 3.072169 1_555
Sn1_1 Zr3_1 3.010411 1_555
Sn1_1 Zr3_0 3.010411 1_556
Sn1_1 Zr4_4 3.010413 1_556
Sn1_1 Zr4_5 3.010413 1_555
Sn1_1 Zr5_0 3.010417 1_556
Sn1_1 Zr5_1 3.010417 1_555
Sn1_1 Zr1_5 3.072161 1_555
Sn1_1 Zr0_1 3.072166 1_555
Sn1_1 Zr2_1 3.072169 1_555
Sn1_2 Zr3_2 3.010411 1_555
Sn1_2 Zr3_3 3.010411 1_555
Sn1_2 Zr4_6 3.010413 1_555
Sn1_2 Zr4_7 3.010413 1_555
Sn1_2 Zr5_2 3.010417 1_555
Sn1_2 Zr5_3 3.010417 1_555
Sn1_2 Zr1_6 3.072161 1_555
Sn1_2 Zr0_2 3.072166 1_555
Sn1_2 Zr2_2 3.072169 1_555
Sn1_3 Zr3_2 3.010411 1_556
Sn1_3 Zr3_3 3.010411 1_555
Sn1_3 Zr4_6 3.010413 1_556
Sn1_3 Zr4_7 3.010413 1_555
Sn1_3 Zr5_2 3.010417 1_556
Sn1_3 Zr5_3 3.010417 1_555
Sn1_3 Zr1_7 3.072161 1_555
Sn1_3 Zr0_3 3.072166 1_555
Sn1_3 Zr2_3 3.072169 1_555
Sn1_4 Zr3_4 3.010411 1_555
Sn1_4 Zr3_5 3.010411 1_555
Sn1_4 Zr4_1 3.010413 1_655
Sn1_4 Zr4_0 3.010413 1_655
Sn1_4 Zr5_4 3.010417 1_555
Sn1_4 Zr5_5 3.010417 1_555
Sn1_4 Zr1_0 3.072161 1_655
Sn1_4 Zr0_4 3.072166 1_555
Sn1_4 Zr2_4 3.072169 1_555
Sn1_5 Zr3_4 3.010411 1_556
Sn1_5 Zr3_5 3.010411 1_555
Sn1_5 Zr4_0 3.010413 1_656
Sn1_5 Zr4_1 3.010413 1_655
Sn1_5 Zr5_4 3.010417 1_556
Sn1_5 Zr5_5 3.010417 1_555
Sn1_5 Zr1_1 3.072161 1_655
Sn1_5 Zr0_5 3.072166 1_555
Sn1_5 Zr2_5 3.072169 1_555
Sn1_6 Zr3_7 3.010411 1_555
Sn1_6 Zr3_6 3.010411 1_555
Sn1_6 Zr4_2 3.010413 1_655
Sn1_6 Zr4_3 3.010413 1_655
Sn1_6 Zr5_7 3.010417 1_555
Sn1_6 Zr5_6 3.010417 1_555
Sn1_6 Zr1_2 3.072161 1_655
Sn1_6 Zr0_6 3.072166 1_555
Sn1_6 Zr2_6 3.072169 1_555
Sn1_7 Zr3_7 3.010411 1_555
Sn1_7 Zr3_6 3.010411 1_556
Sn1_7 Zr4_3 3.010413 1_655
Sn1_7 Zr4_2 3.010413 1_656
Sn1_7 Zr5_7 3.010417 1_555
Sn1_7 Zr5_6 3.010417 1_556
Sn1_7 Zr1_3 3.072161 1_655
Sn1_7 Zr0_7 3.072166 1_555
Sn1_7 Zr2_7 3.072169 1_555
