# generated using pymatgen
data_Hf9W4O3
_symmetry_space_group_name_H-M   'P 1'
_cell_length_a   8.66883943
_cell_length_b   8.66883943
_cell_length_c   8.50261300
_cell_angle_alpha   90.00000000
_cell_angle_beta   90.00000000
_cell_angle_gamma   119.99999563
_symmetry_Int_Tables_number   1
_chemical_formula_structural   Hf9W4O3
_chemical_formula_sum   'Hf18 W8 O6'
_cell_volume   553.35645502
_cell_formula_units_Z   2
loop_
 _symmetry_equiv_pos_site_id
 _symmetry_equiv_pos_as_xyz
  1  'x, y, z'
loop_
 _atom_site_type_symbol
 _atom_site_label
 _atom_site_symmetry_multiplicity
 _atom_site_fract_x
 _atom_site_fract_y
 _atom_site_fract_z
 _atom_site_occupancy
  Hf  Hf0  1  0.45263100  0.90526100  0.25000000  1
  Hf  Hf1  1  0.54736900  0.09473900  0.75000000  1
  Hf  Hf2  1  0.09473900  0.54736900  0.25000000  1
  Hf  Hf3  1  0.90526100  0.45263100  0.75000000  1
  Hf  Hf4  1  0.45263100  0.54736900  0.25000000  1
  Hf  Hf5  1  0.54736900  0.45263100  0.75000000  1
  Hf  Hf6  1  0.20569900  0.41139900  0.56425300  1
  Hf  Hf7  1  0.79430100  0.58860100  0.43574700  1
  Hf  Hf8  1  0.58860100  0.79430100  0.56425300  1
  Hf  Hf9  1  0.79430100  0.58860100  0.06425300  1
  Hf  Hf10  1  0.41139900  0.20569900  0.43574700  1
  Hf  Hf11  1  0.20569900  0.41139900  0.93574700  1
  Hf  Hf12  1  0.20569900  0.79430100  0.56425300  1
  Hf  Hf13  1  0.41139900  0.20569900  0.06425300  1
  Hf  Hf14  1  0.79430100  0.20569900  0.43574700  1
  Hf  Hf15  1  0.58860100  0.79430100  0.93574700  1
  Hf  Hf16  1  0.79430100  0.20569900  0.06425300  1
  Hf  Hf17  1  0.20569900  0.79430100  0.93574700  1
  W  W0  1  0.11118900  0.22237800  0.25000000  1
  W  W1  1  0.88881100  0.77762200  0.75000000  1
  W  W2  1  0.77762200  0.88881100  0.25000000  1
  W  W3  1  0.22237800  0.11118900  0.75000000  1
  W  W4  1  0.11118900  0.88881100  0.25000000  1
  W  W5  1  0.88881100  0.11118900  0.75000000  1
  W  W6  1  0.00000000  0.00000000  0.00000000  1
  W  W7  1  0.00000000  0.00000000  0.50000000  1
  O  O0  1  0.50000000  0.00000000  0.00000000  1
  O  O1  1  0.00000000  0.50000000  0.00000000  1
  O  O2  1  0.50000000  0.00000000  0.50000000  1
  O  O3  1  0.50000000  0.50000000  0.00000000  1
  O  O4  1  0.00000000  0.50000000  0.50000000  1
  O  O5  1  0.50000000  0.50000000  0.50000000  1
loop_
_geom_bond_atom_site_label_1
_geom_bond_atom_site_label_2
_geom_bond_distance
_geom_bond_site_symmetry_2
Hf0 O2 2.241489 1_565
Hf0 O0 2.241489 1_565
Hf0 W2 2.891235 1_555
Hf0 W4 2.891243 1_555
Hf1 O2 2.241489 1_555
Hf1 O0 2.241489 1_556
Hf1 W3 2.891235 1_555
Hf1 W5 2.891243 1_555
Hf2 O1 2.241489 1_555
Hf2 O4 2.241489 1_555
Hf2 W0 2.891235 1_555
Hf2 W4 2.891243 1_555
Hf3 O1 2.241489 1_656
Hf3 O4 2.241489 1_655
Hf3 W1 2.891235 1_555
Hf3 W5 2.891243 1_555
Hf4 O3 2.241487 1_555
Hf4 O5 2.241487 1_555
Hf4 W2 2.891240 1_555
Hf4 W0 2.891240 1_555
Hf5 O5 2.241487 1_555
Hf5 O3 2.241487 1_556
Hf5 W1 2.891240 1_555
Hf5 W3 2.891240 1_555
Hf6 O4 2.331885 1_555
Hf6 O5 2.331894 1_555
Hf6 W0 3.025421 1_555
Hf6 W5 3.108750 1_455
Hf6 W3 3.108754 1_555
Hf6 W7 3.136497 1_555
Hf7 O4 2.331885 1_655
Hf7 O5 2.331894 1_555
Hf7 W1 3.025421 1_555
Hf7 W4 3.108750 1_655
Hf7 W2 3.108754 1_555
Hf7 W7 3.136497 1_665
Hf8 O2 2.331885 1_565
Hf8 O5 2.331894 1_555
Hf8 W2 3.025421 1_555
Hf8 W5 3.108750 1_565
Hf8 W1 3.108754 1_555
Hf8 W7 3.136497 1_665
Hf9 O1 2.331885 1_655
Hf9 O3 2.331894 1_555
Hf9 W1 3.025421 1_554
Hf9 W4 3.108750 1_655
Hf9 W2 3.108754 1_555
Hf9 W6 3.136497 1_665
Hf10 O2 2.331885 1_555
Hf10 O5 2.331894 1_555
Hf10 W3 3.025421 1_555
Hf10 W4 3.108750 1_545
Hf10 W0 3.108754 1_555
Hf10 W7 3.136497 1_555
Hf11 O1 2.331885 1_556
Hf11 O3 2.331894 1_556
Hf11 W0 3.025421 1_556
Hf11 W5 3.108750 1_455
Hf11 W3 3.108754 1_555
Hf11 W6 3.136497 1_556
Hf12 O4 2.331892 1_555
Hf12 O2 2.331892 1_565
Hf12 W4 3.025417 1_555
Hf12 W1 3.108747 1_455
Hf12 W3 3.108747 1_565
Hf12 W7 3.136489 1_565
Hf13 O0 2.331885 1_555
Hf13 O3 2.331894 1_555
Hf13 W3 3.025421 1_554
Hf13 W4 3.108750 1_545
Hf13 W0 3.108754 1_555
Hf13 W6 3.136497 1_555
Hf14 O2 2.331892 1_555
Hf14 O4 2.331892 1_655
Hf14 W5 3.025417 1_555
Hf14 W0 3.108747 1_655
Hf14 W2 3.108747 1_545
Hf14 W7 3.136489 1_655
Hf15 O0 2.331885 1_566
Hf15 O3 2.331894 1_556
Hf15 W2 3.025421 1_556
Hf15 W5 3.108750 1_565
Hf15 W1 3.108754 1_555
Hf15 W6 3.136497 1_666
Hf16 O0 2.331892 1_555
Hf16 O1 2.331892 1_655
Hf16 W5 3.025417 1_554
Hf16 W2 3.108747 1_545
Hf16 W0 3.108747 1_655
Hf16 W6 3.136489 1_655
Hf17 O1 2.331892 1_556
Hf17 O0 2.331892 1_566
Hf17 W4 3.025417 1_556
Hf17 W1 3.108747 1_455
Hf17 W3 3.108747 1_565
Hf17 W6 3.136489 1_566
W0 W6 2.702886 1_555
W0 W7 2.702886 1_555
W0 W4 2.891639 1_545
W0 W2 2.891639 1_445
W1 W6 2.702886 1_666
W1 W7 2.702886 1_665
W1 W5 2.891639 1_565
W1 W3 2.891639 1_665
W2 W6 2.702886 1_665
W2 W7 2.702886 1_665
W2 W4 2.891639 1_655
W3 W7 2.702886 1_555
W3 W6 2.702886 1_556
W3 W5 2.891639 1_455
W4 W7 2.702886 1_565
W4 W6 2.702886 1_565
W5 W7 2.702886 1_655
W5 W6 2.702886 1_656
