# generated using pymatgen
data_Te2Mo3W(Se2S)2
_symmetry_space_group_name_H-M   'P 1'
_cell_length_a   3.34434635
_cell_length_b   3.34434635
_cell_length_c   38.03936400
_cell_angle_alpha   90.00000000
_cell_angle_beta   90.00000000
_cell_angle_gamma   120.00000694
_symmetry_Int_Tables_number   1
_chemical_formula_structural   Te2Mo3W(Se2S)2
_chemical_formula_sum   'Te2 Mo3 W1 Se4 S2'
_cell_volume   368.45660350
_cell_formula_units_Z   1
loop_
 _symmetry_equiv_pos_site_id
 _symmetry_equiv_pos_as_xyz
  1  'x, y, z'
loop_
 _atom_site_type_symbol
 _atom_site_label
 _atom_site_symmetry_multiplicity
 _atom_site_fract_x
 _atom_site_fract_y
 _atom_site_fract_z
 _atom_site_occupancy
  Te  Te0  1  0.66666700  0.33333300  0.04403300  1
  Te  Te1  1  0.66666700  0.33333300  0.14373300  1
  Mo  Mo0  1  0.33333300  0.66666700  0.09386100  1
  Mo  Mo1  1  0.33333300  0.66666700  0.46965000  1
  Mo  Mo2  1  0.66666700  0.33333300  0.28184100  1
  W  W0  1  0.66666700  0.33333300  0.65754800  1
  Se  Se0  1  0.33333300  0.66666700  0.32568000  1
  Se  Se1  1  0.33333300  0.66666700  0.70159800  1
  Se  Se2  1  0.33333300  0.66666700  0.23800300  1
  Se  Se3  1  0.33333300  0.66666700  0.61347800  1
  S  S0  1  0.66666700  0.33333300  0.42980100  1
  S  S1  1  0.66666700  0.33333300  0.50952100  1
loop_
_geom_bond_atom_site_label_1
_geom_bond_atom_site_label_2
_geom_bond_distance
_geom_bond_site_symmetry_2
Mo0 Te0 2.705706 1_455
Mo0 Te0 2.705706 1_565
Mo0 Te0 2.705711 1_555
Mo0 Te1 2.706879 1_565
Mo0 Te1 2.706879 1_455
Mo0 Te1 2.706883 1_555
Mo1 S0 2.454781 1_455
Mo1 S0 2.454781 1_565
Mo1 S0 2.454786 1_555
Mo1 S1 2.455298 1_455
Mo1 S1 2.455298 1_565
Mo1 S1 2.455303 1_555
Mo2 Se2 2.551274 1_545
Mo2 Se2 2.551274 1_655
Mo2 Se2 2.551278 1_555
Mo2 Se0 2.551299 1_655
Mo2 Se0 2.551299 1_545
Mo2 Se0 2.551303 1_555
Se1 W0 2.556552 1_455
Se1 W0 2.556552 1_565
Se1 W0 2.556557 1_555
Se3 W0 2.557051 1_565
Se3 W0 2.557051 1_455
Se3 W0 2.557055 1_555
