# generated using pymatgen
data_Li4MnCo3O8
_symmetry_space_group_name_H-M   'P 1'
_cell_length_a   2.98153000
_cell_length_b   4.94951800
_cell_length_c   9.93578266
_cell_angle_alpha   78.47934063
_cell_angle_beta   90.00000000
_cell_angle_gamma   90.00000000
_symmetry_Int_Tables_number   1
_chemical_formula_structural   Li4MnCo3O8
_chemical_formula_sum   'Li4 Mn1 Co3 O8'
_cell_volume   143.66963619
_cell_formula_units_Z   1
loop_
 _symmetry_equiv_pos_site_id
 _symmetry_equiv_pos_as_xyz
  1  'x, y, z'
loop_
 _atom_site_type_symbol
 _atom_site_label
 _atom_site_symmetry_multiplicity
 _atom_site_fract_x
 _atom_site_fract_y
 _atom_site_fract_z
 _atom_site_occupancy
  Li  Li0  1  0.00000000  0.25294900  0.25729900  1
  Li  Li1  1  0.50000000  0.25046900  0.74899700  1
  Li  Li2  1  0.00000000  0.74705100  0.74270100  1
  Li  Li3  1  0.50000000  0.74953100  0.25100300  1
  Mn  Mn0  1  0.50000000  0.50000000  0.00000000  1
  Co  Co0  1  0.00000000  0.00000000  0.00000000  1
  Co  Co1  1  0.50000000  0.00000000  0.50000000  1
  Co  Co2  1  0.00000000  0.50000000  0.50000000  1
  O  O0  1  0.00000000  0.36672200  0.88557000  1
  O  O1  1  0.50000000  0.36257200  0.38210100  1
  O  O2  1  0.00000000  0.86347300  0.38206200  1
  O  O3  1  0.50000000  0.87500500  0.89617700  1
  O  O4  1  0.00000000  0.13652700  0.61793800  1
  O  O5  1  0.50000000  0.12499500  0.10382300  1
  O  O6  1  0.00000000  0.63327800  0.11443000  1
  O  O7  1  0.50000000  0.63742800  0.61789900  1
loop_
_geom_bond_atom_site_label_1
_geom_bond_atom_site_label_2
_geom_bond_distance
_geom_bond_site_symmetry_2
Li0 O2 2.073217 1_545
Li0 O1 2.079215 1_555
Li0 O1 2.079215 1_455
Li0 O6 2.119257 1_555
Li0 O5 2.309665 1_555
Li0 O5 2.309665 1_455
Li1 O7 2.090067 1_555
Li1 O3 2.122845 1_545
Li1 O4 2.128244 1_555
Li1 O4 2.128244 1_655
Li1 O0 2.169489 1_655
Li1 O0 2.169489 1_555
Li2 O4 2.073217 1_565
Li2 O7 2.079215 1_455
Li2 O7 2.079215 1_555
Li2 O0 2.119257 1_555
Li2 O3 2.309665 1_455
Li2 O3 2.309665 1_555
Li3 O1 2.090067 1_555
Li3 O5 2.122845 1_565
Li3 O2 2.128244 1_555
Li3 O2 2.128244 1_655
Li3 O6 2.169489 1_655
Li3 O6 2.169489 1_555
Mn0 O3 1.935046 1_554
Mn0 O5 1.935046 1_555
Mn0 O0 2.061499 1_654
Mn0 O0 2.061499 1_554
Mn0 O6 2.061499 1_555
Mn0 O6 2.061499 1_655
Co0 O0 1.939824 1_554
Co0 O6 1.939824 1_545
Co0 O5 1.980952 1_555
Co0 O5 1.980952 1_455
Co0 O3 1.980952 1_544
Co0 O3 1.980952 1_444
Co1 O7 1.937255 1_545
Co1 O1 1.937255 1_555
Co1 O4 2.090080 1_555
Co1 O4 2.090080 1_655
Co1 O2 2.090080 1_545
Co1 O2 2.090080 1_645
Co2 O2 1.941011 1_555
Co2 O4 1.941011 1_555
Co2 O7 2.091783 1_555
Co2 O7 2.091783 1_455
Co2 O1 2.091783 1_455
Co2 O1 2.091783 1_555
