# generated using pymatgen
data_SrLuCuS3
_symmetry_space_group_name_H-M   'P 1'
_cell_length_a   6.79769946
_cell_length_b   6.79769946
_cell_length_c   10.03607200
_cell_angle_alpha   90.00000000
_cell_angle_beta   90.00000000
_cell_angle_gamma   146.66209468
_symmetry_Int_Tables_number   1
_chemical_formula_structural   SrLuCuS3
_chemical_formula_sum   'Sr2 Lu2 Cu2 S6'
_cell_volume   254.86791490
_cell_formula_units_Z   2
loop_
 _symmetry_equiv_pos_site_id
 _symmetry_equiv_pos_as_xyz
  1  'x, y, z'
loop_
 _atom_site_type_symbol
 _atom_site_label
 _atom_site_symmetry_multiplicity
 _atom_site_fract_x
 _atom_site_fract_y
 _atom_site_fract_z
 _atom_site_occupancy
  Sr  Sr0  1  0.74889700  0.25110300  0.75000000  1
  Sr  Sr1  1  0.25110300  0.74889700  0.25000000  1
  Lu  Lu0  1  0.00000000  0.00000000  0.00000000  1
  Lu  Lu1  1  0.00000000  0.00000000  0.50000000  1
  Cu  Cu0  1  0.52796000  0.47204000  0.25000000  1
  Cu  Cu1  1  0.47204000  0.52796000  0.75000000  1
  S  S0  1  0.07533100  0.92466900  0.75000000  1
  S  S1  1  0.92466900  0.07533100  0.25000000  1
  S  S2  1  0.63476100  0.36523900  0.06441900  1
  S  S3  1  0.63476100  0.36523900  0.43558100  1
  S  S4  1  0.36523900  0.63476100  0.56441900  1
  S  S5  1  0.36523900  0.63476100  0.93558100  1
loop_
_geom_bond_atom_site_label_1
_geom_bond_atom_site_label_2
_geom_bond_distance
_geom_bond_site_symmetry_2
Lu0 S1 2.694024 1_455
Lu0 S0 2.694024 1_544
Lu0 S2 2.701936 1_445
Lu0 S2 2.701936 1_555
Lu0 S5 2.701936 1_554
Lu0 S5 2.701936 1_444
Lu1 S1 2.694024 1_455
Lu1 S0 2.694024 1_545
Lu1 S4 2.701936 1_555
Lu1 S3 2.701936 1_555
Lu1 S4 2.701936 1_445
Lu1 S3 2.701936 1_445
Cu0 S3 2.324600 1_555
Cu0 S2 2.324600 1_555
Cu0 S1 2.368906 1_565
Cu0 S1 2.368906 1_455
Cu1 S5 2.324600 1_555
Cu1 S4 2.324600 1_555
Cu1 S0 2.368906 1_655
Cu1 S0 2.368906 1_545
S0 Sr0 2.985298 1_565
S0 Sr0 2.985298 1_455
S1 Sr1 2.985298 1_655
S1 Sr1 2.985298 1_545
S2 Sr1 3.093035 1_655
S2 Sr1 3.093035 1_545
S2 Sr0 3.488139 1_554
S3 Sr1 3.093035 1_655
S3 Sr1 3.093035 1_545
S3 Sr0 3.488139 1_555
S4 Sr0 3.093035 1_565
S4 Sr0 3.093035 1_455
S4 Sr1 3.488139 1_555
S5 Sr0 3.093035 1_565
S5 Sr0 3.093035 1_455
S5 Sr1 3.488139 1_556
