# generated using pymatgen
data_Ce2Cu11Au
_symmetry_space_group_name_H-M   'P 1'
_cell_length_a   5.04370300
_cell_length_b   8.14380900
_cell_length_c   10.27222500
_cell_angle_alpha   90.00000000
_cell_angle_beta   90.00000000
_cell_angle_gamma   90.00000000
_symmetry_Int_Tables_number   1
_chemical_formula_structural   Ce2Cu11Au
_chemical_formula_sum   'Ce4 Cu22 Au2'
_cell_volume   421.93116817
_cell_formula_units_Z   2
loop_
 _symmetry_equiv_pos_site_id
 _symmetry_equiv_pos_as_xyz
  1  'x, y, z'
loop_
 _atom_site_type_symbol
 _atom_site_label
 _atom_site_symmetry_multiplicity
 _atom_site_fract_x
 _atom_site_fract_y
 _atom_site_fract_z
 _atom_site_occupancy
  Ce  Ce0  1  0.50000000  0.24000600  0.81286900  1
  Ce  Ce1  1  0.50000000  0.74000600  0.18713100  1
  Ce  Ce2  1  0.00000000  0.75990500  0.68300900  1
  Ce  Ce3  1  0.00000000  0.25990500  0.31699100  1
  Cu  Cu0  1  0.50000000  0.68425200  0.49893400  1
  Cu  Cu1  1  0.50000000  0.18425200  0.50106600  1
  Cu  Cu2  1  0.00000000  0.31482600  0.99829500  1
  Cu  Cu3  1  0.00000000  0.81482600  0.00170500  1
  Cu  Cu4  1  0.50000000  0.94512700  0.64405000  1
  Cu  Cu5  1  0.50000000  0.44512700  0.35595000  1
  Cu  Cu6  1  0.00000000  0.05974000  0.84801500  1
  Cu  Cu7  1  0.00000000  0.55974000  0.15198500  1
  Cu  Cu8  1  0.74959900  0.06468300  0.06280200  1
  Cu  Cu9  1  0.25040100  0.56468300  0.93719800  1
  Cu  Cu10  1  0.24274900  0.93426200  0.44001300  1
  Cu  Cu11  1  0.75725100  0.43426200  0.55998700  1
  Cu  Cu12  1  0.75725100  0.93426200  0.44001300  1
  Cu  Cu13  1  0.24274900  0.43426200  0.55998700  1
  Cu  Cu14  1  0.25040100  0.06468300  0.06280200  1
  Cu  Cu15  1  0.74959900  0.56468300  0.93719800  1
  Cu  Cu16  1  0.50000000  0.59006600  0.73242800  1
  Cu  Cu17  1  0.50000000  0.09006600  0.26757200  1
  Cu  Cu18  1  0.00000000  0.40409300  0.76399800  1
  Cu  Cu19  1  0.00000000  0.90409300  0.23600200  1
  Cu  Cu20  1  0.00000000  0.64417500  0.38970700  1
  Cu  Cu21  1  0.00000000  0.14417500  0.61029300  1
  Au  Au0  1  0.50000000  0.35991900  0.11083800  1
  Au  Au1  1  0.50000000  0.85991900  0.88916200  1
loop_
_geom_bond_atom_site_label_1
_geom_bond_atom_site_label_2
_geom_bond_distance
_geom_bond_site_symmetry_2
Ce0 Cu18 2.897832 1_555
Ce0 Cu18 2.897832 1_655
Ce0 Cu6 2.940281 1_555
Ce0 Cu6 2.940281 1_655
Ce0 Cu4 2.962123 1_545
Ce0 Cu16 2.968159 1_555
Ce0 Cu9 3.194873 1_555
Ce0 Cu15 3.194873 1_555
Ce0 Cu14 3.196063 1_556
Ce0 Cu8 3.196063 1_556
Ce0 Cu2 3.218545 1_555
Ce0 Cu2 3.218545 1_655
Ce0 Cu1 3.234934 1_555
Ce0 Cu11 3.306662 1_555
Ce0 Cu13 3.306662 1_555
Ce0 Cu21 3.361395 1_655
Ce0 Cu21 3.361395 1_555
Ce1 Cu19 2.897832 1_555
Ce1 Cu19 2.897832 1_655
Ce1 Cu7 2.940281 1_655
Ce1 Cu7 2.940281 1_555
Ce1 Cu5 2.962123 1_555
Ce1 Cu17 2.968159 1_565
Ce1 Cu8 3.194873 1_565
Ce1 Cu14 3.194873 1_565
Ce1 Cu9 3.196063 1_554
Ce1 Cu15 3.196063 1_554
Ce1 Cu3 3.218545 1_555
Ce1 Cu3 3.218545 1_655
Ce1 Cu0 3.234934 1_555
Ce1 Cu10 3.306662 1_555
Ce1 Cu12 3.306662 1_555
Ce1 Cu20 3.361395 1_655
Ce1 Cu20 3.361395 1_555
Ce2 Cu16 2.920702 1_555
Ce2 Cu16 2.920702 1_455
Ce2 Cu4 2.965670 1_555
Ce2 Cu4 2.965670 1_455
Ce2 Cu6 2.972429 1_565
Ce2 Cu18 3.014727 1_555
Ce2 Cu12 3.121828 1_455
Ce2 Cu10 3.121828 1_555
Ce2 Cu20 3.156838 1_555
Ce2 Cu11 3.182605 1_455
Ce2 Cu13 3.182605 1_555
Ce2 Cu0 3.211646 1_555
Ce2 Cu0 3.211646 1_455
Ce2 Cu21 3.217331 1_565
Ce2 Cu3 3.304129 1_556
Ce2 Cu15 3.307633 1_455
Ce2 Cu9 3.307633 1_555
Ce3 Cu17 2.920702 1_555
Ce3 Cu17 2.920702 1_455
Ce3 Cu5 2.965670 1_455
Ce3 Cu5 2.965670 1_555
Ce3 Cu7 2.972429 1_555
Ce3 Cu19 3.014727 1_545
Ce3 Cu11 3.121828 1_455
Ce3 Cu13 3.121828 1_555
Ce3 Cu21 3.156838 1_555
Ce3 Cu10 3.182605 1_545
Ce3 Cu12 3.182605 1_445
Ce3 Cu1 3.211646 1_555
Ce3 Cu1 3.211646 1_455
Ce3 Cu20 3.217331 1_555
Ce3 Cu2 3.304129 1_554
Ce3 Cu14 3.307633 1_555
Ce3 Cu8 3.307633 1_455
Cu0 Cu5 2.439178 1_555
Cu0 Cu10 2.489028 1_555
Cu0 Cu12 2.489028 1_555
Cu0 Cu13 2.494311 1_555
Cu0 Cu11 2.494311 1_555
Cu0 Cu16 2.518165 1_555
Cu0 Cu4 2.595313 1_555
Cu0 Cu20 2.779416 1_655
Cu0 Cu20 2.779416 1_555
Cu1 Cu4 2.439178 1_545
Cu1 Cu11 2.489028 1_555
Cu1 Cu13 2.489028 1_555
Cu1 Cu12 2.494311 1_545
Cu1 Cu10 2.494311 1_545
Cu1 Cu17 2.518165 1_555
Cu1 Cu5 2.595313 1_555
Cu1 Cu21 2.779416 1_655
Cu1 Cu21 2.779416 1_555
Cu2 Cu9 2.475739 1_555
Cu2 Cu8 2.486757 1_456
Cu2 Cu7 2.543733 1_556
Cu2 Cu6 2.588149 1_555
Cu3 Cu8 2.475739 1_465
Cu3 Cu9 2.486757 1_554
Cu3 Cu6 2.543733 1_564
Cu3 Cu7 2.588149 1_555
Cu6 Cu8 2.542557 1_456
Cu7 Cu9 2.542557 1_554
Cu10 Cu19 2.439496 1_555
Cu10 Cu12 2.448708 1_455
Cu10 Cu4 2.466614 1_555
Cu10 Cu17 2.535969 1_565
Cu10 Cu12 2.594995 1_555
Cu10 Cu20 2.710549 1_555
Cu10 Cu21 2.735132 1_565
Cu11 Cu18 2.439496 1_655
Cu11 Cu13 2.448708 1_655
Cu11 Cu5 2.466614 1_555
Cu11 Cu16 2.535969 1_555
Cu11 Cu13 2.594995 1_555
Cu11 Cu21 2.710549 1_655
Cu11 Cu20 2.735132 1_655
Cu12 Cu19 2.439496 1_655
Cu12 Cu4 2.466614 1_555
Cu12 Cu17 2.535969 1_565
Cu12 Cu20 2.710549 1_655
Cu12 Cu21 2.735132 1_665
Cu13 Cu18 2.439496 1_555
Cu13 Cu5 2.466614 1_555
Cu13 Cu16 2.535969 1_555
Cu13 Cu21 2.710549 1_555
Cu13 Cu20 2.735132 1_555
Cu14 Cu17 2.460090 1_555
Cu14 Cu3 2.475739 1_545
Cu14 Cu2 2.486757 1_554
Cu14 Cu8 2.517806 1_555
Cu14 Cu8 2.525897 1_455
Cu14 Cu6 2.542557 1_554
Cu14 Cu19 2.543775 1_545
Cu15 Cu16 2.460090 1_555
Cu15 Cu2 2.475739 1_655
Cu15 Cu3 2.486757 1_656
Cu15 Cu9 2.517806 1_555
Cu15 Cu9 2.525897 1_655
Cu15 Cu7 2.542557 1_656
Cu15 Cu18 2.543775 1_655
Cu16 Cu9 2.460090 1_555
Cu16 Cu18 2.959510 1_655
Cu16 Cu18 2.959510 1_555
Cu16 Cu4 3.030714 1_555
Cu17 Cu8 2.460090 1_555
Cu17 Cu19 2.959510 1_645
Cu17 Cu19 2.959510 1_545
Cu17 Cu5 3.030714 1_555
Cu18 Cu2 2.514149 1_555
Cu18 Cu9 2.543775 1_555
Cu18 Cu21 2.640723 1_555
Cu18 Cu6 2.934142 1_555
Cu19 Cu3 2.514149 1_555
Cu19 Cu8 2.543775 1_465
Cu19 Cu20 2.640723 1_555
Cu19 Cu7 2.934142 1_555
Cu20 Cu7 2.536901 1_555
Cu20 Cu5 3.017888 1_455
Cu20 Cu5 3.017888 1_555
Cu21 Cu6 2.536901 1_555
Cu21 Cu4 3.017888 1_445
Cu21 Cu4 3.017888 1_545
Au0 Cu5 2.611717 1_555
Au0 Cu17 2.724281 1_555
Au0 Cu9 2.747192 1_554
Au0 Cu15 2.747192 1_554
Au0 Cu8 2.758477 1_555
Au0 Cu14 2.758477 1_555
Au0 Cu2 2.798407 1_654
Au0 Cu2 2.798407 1_554
Au0 Cu7 3.030925 1_555
Au0 Cu7 3.030925 1_655
Au0 Ce1 3.193026 1_555
Au0 Ce0 3.212814 1_554
Au0 Ce3 3.392282 1_555
Au0 Ce3 3.392282 1_655
Au1 Cu4 2.611717 1_555
Au1 Cu16 2.724281 1_555
Au1 Cu14 2.747192 1_566
Au1 Cu8 2.747192 1_566
Au1 Cu15 2.758477 1_555
Au1 Cu9 2.758477 1_555
Au1 Cu3 2.798407 1_556
Au1 Cu3 2.798407 1_656
Au1 Cu6 3.030925 1_565
Au1 Cu6 3.030925 1_665
Au1 Ce0 3.193026 1_565
Au1 Ce1 3.212814 1_556
Au1 Ce2 3.392282 1_655
Au1 Ce2 3.392282 1_555
