# generated using pymatgen
data_KUSiHO6
_symmetry_space_group_name_H-M   'P 1'
_cell_length_a   7.10127400
_cell_length_b   6.73510200
_cell_length_c   6.76101160
_cell_angle_alpha   74.76020727
_cell_angle_beta   90.00000000
_cell_angle_gamma   90.00000000
_symmetry_Int_Tables_number   1
_chemical_formula_structural   KUSiHO6
_chemical_formula_sum   'K2 U2 Si2 H2 O12'
_cell_volume   311.99296628
_cell_formula_units_Z   2
loop_
 _symmetry_equiv_pos_site_id
 _symmetry_equiv_pos_as_xyz
  1  'x, y, z'
loop_
 _atom_site_type_symbol
 _atom_site_label
 _atom_site_symmetry_multiplicity
 _atom_site_fract_x
 _atom_site_fract_y
 _atom_site_fract_z
 _atom_site_occupancy
  K  K0  1  0.70269400  0.79863000  0.57773500  1
  K  K1  1  0.20269400  0.20137000  0.42226500  1
  U  U0  1  0.03232400  0.85905500  0.01874200  1
  U  U1  1  0.53232400  0.14094500  0.98125800  1
  Si  Si0  1  0.53155600  0.64831300  0.09236100  1
  Si  Si1  1  0.03155600  0.35168700  0.90763900  1
  H  H0  1  0.59040900  0.41747300  0.40741800  1
  H  H1  1  0.09040900  0.58252700  0.59258200  1
  O  O0  1  0.02012700  0.82137600  0.29944300  1
  O  O1  1  0.52012700  0.17862400  0.70055700  1
  O  O2  1  0.35328900  0.80893600  0.04218300  1
  O  O3  1  0.85328900  0.19106400  0.95781700  1
  O  O4  1  0.70534500  0.81302100  0.01343300  1
  O  O5  1  0.20534500  0.18697900  0.98656700  1
  O  O6  1  0.03892200  0.91532000  0.73580700  1
  O  O7  1  0.53892200  0.08468000  0.26419300  1
  O  O8  1  0.02818500  0.52770600  0.03126400  1
  O  O9  1  0.52818500  0.47229400  0.96873600  1
  O  O10  1  0.53615000  0.55279700  0.34624400  1
  O  O11  1  0.03615000  0.44720300  0.65375600  1
loop_
_geom_bond_atom_site_label_1
_geom_bond_atom_site_label_2
_geom_bond_distance
_geom_bond_site_symmetry_2
K0 O7 2.722311 1_565
K0 O6 2.811098 1_655
K0 O10 2.819931 1_555
K0 O0 2.914349 1_655
K0 O4 2.972768 1_556
K0 O1 3.168226 1_565
K0 O9 3.209414 1_555
K1 O6 2.722311 1_545
K1 O7 2.811098 1_555
K1 O11 2.819931 1_555
K1 O1 2.914349 1_555
K1 O5 2.972768 1_554
K1 O0 3.168226 1_545
K1 O8 3.209414 1_555
H0 O10 0.975724 1_555
H1 O11 0.975724 1_555
O0 U0 1.849443 1_555
O1 U1 1.849443 1_555
O2 Si0 1.641654 1_555
O2 U0 2.303468 1_555
O2 U1 2.510388 1_564
O3 Si1 1.641654 1_655
O3 U1 2.303468 1_555
O3 U0 2.510388 1_646
O4 Si0 1.651428 1_555
O4 U0 2.344099 1_655
O4 U1 2.486421 1_564
O5 Si1 1.651428 1_555
O5 U1 2.344099 1_555
O5 U0 2.486421 1_546
O6 U0 1.850403 1_556
O7 U1 1.850403 1_554
O8 Si1 1.620350 1_554
O8 U0 2.211120 1_555
O9 Si0 1.620350 1_556
O9 U1 2.211120 1_555
O10 Si0 1.667568 1_555
O11 Si1 1.667568 1_555
