# generated using pymatgen
data_GdNi4Au
_symmetry_space_group_name_H-M   'P 1'
_cell_length_a   4.96572384
_cell_length_b   4.96572384
_cell_length_c   4.96572384
_cell_angle_alpha   60.00000000
_cell_angle_beta   60.00000000
_cell_angle_gamma   60.00000000
_symmetry_Int_Tables_number   1
_chemical_formula_structural   GdNi4Au
_chemical_formula_sum   'Gd1 Ni4 Au1'
_cell_volume   86.58301245
_cell_formula_units_Z   1
loop_
 _symmetry_equiv_pos_site_id
 _symmetry_equiv_pos_as_xyz
  1  'x, y, z'
loop_
 _atom_site_type_symbol
 _atom_site_label
 _atom_site_symmetry_multiplicity
 _atom_site_fract_x
 _atom_site_fract_y
 _atom_site_fract_z
 _atom_site_occupancy
  Gd  Gd0  1  0.00000000  0.00000000  0.00000000  1
  Ni  Ni0  1  0.62490700  0.62490700  0.12527900  1
  Ni  Ni1  1  0.62490700  0.12527900  0.62490700  1
  Ni  Ni2  1  0.12527900  0.62490700  0.62490700  1
  Ni  Ni3  1  0.62490700  0.62490700  0.62490700  1
  Au  Au0  1  0.25000000  0.25000000  0.25000000  1
loop_
_geom_bond_atom_site_label_1
_geom_bond_atom_site_label_2
_geom_bond_distance
_geom_bond_site_symmetry_2
Gd0 Ni2 2.911611 1_554
Gd0 Ni0 2.911611 1_545
Gd0 Ni0 2.911611 1_455
Gd0 Ni2 2.911611 1_544
Gd0 Ni2 2.911611 1_545
Gd0 Ni0 2.911611 1_445
Gd0 Ni3 2.911611 1_544
Gd0 Ni3 2.911611 1_454
Gd0 Ni1 2.911611 1_554
Gd0 Ni1 2.911611 1_455
Gd0 Ni1 2.911611 1_454
Gd0 Ni3 2.911611 1_445
Ni0 Ni1 2.481015 1_555
Ni0 Ni2 2.481015 1_555
Ni0 Ni3 2.481015 1_555
Ni0 Ni1 2.484709 1_564
Ni0 Ni2 2.484709 1_654
Ni0 Ni3 2.484709 1_554
Ni1 Ni2 2.481015 1_555
Ni1 Ni3 2.481015 1_555
Ni1 Ni2 2.484709 1_645
Ni1 Ni3 2.484709 1_545
Ni2 Ni3 2.481015 1_555
Ni2 Ni3 2.484709 1_455
Au0 Ni0 2.911217 1_555
Au0 Ni1 2.911217 1_555
Au0 Ni2 2.911217 1_555
Au0 Ni2 2.911217 1_545
Au0 Ni1 2.911217 1_554
Au0 Ni2 2.911217 1_554
Au0 Ni3 2.911217 1_455
Au0 Ni1 2.911217 1_455
Au0 Ni3 2.911217 1_545
Au0 Ni0 2.911217 1_545
Au0 Ni0 2.911217 1_455
Au0 Ni3 2.911217 1_554
Au0 Gd0 3.040872 1_565
Au0 Gd0 3.040872 1_555
Au0 Gd0 3.040872 1_556
Au0 Gd0 3.040872 1_655
