# generated using pymatgen
data_GaN
_symmetry_space_group_name_H-M   'P 1'
_cell_length_a   3.20443292
_cell_length_b   3.20443292
_cell_length_c   8.47450900
_cell_angle_alpha   90.00000000
_cell_angle_beta   90.00000000
_cell_angle_gamma   119.99997767
_symmetry_Int_Tables_number   1
_chemical_formula_structural   GaN
_chemical_formula_sum   'Ga2 N2'
_cell_volume   75.36117197
_cell_formula_units_Z   2
loop_
 _symmetry_equiv_pos_site_id
 _symmetry_equiv_pos_as_xyz
  1  'x, y, z'
loop_
 _atom_site_type_symbol
 _atom_site_label
 _atom_site_symmetry_multiplicity
 _atom_site_fract_x
 _atom_site_fract_y
 _atom_site_fract_z
 _atom_site_occupancy
  Ga  Ga0  1  0.33333300  0.66666700  0.75000000  1
  Ga  Ga1  1  0.66666700  0.33333300  0.25000000  1
  N  N0  1  0.00000000  0.00000000  0.25000000  1
  N  N1  1  0.00000000  0.00000000  0.75000000  1
loop_
_geom_bond_atom_site_label_1
_geom_bond_atom_site_label_2
_geom_bond_distance
_geom_bond_site_symmetry_2
Ga0 N1 1.850078 1_565
Ga0 N1 1.850082 1_555
Ga0 N1 1.850082 1_665
Ga1 N0 1.850078 1_655
Ga1 N0 1.850082 1_665
Ga1 N0 1.850082 1_555
