# generated using pymatgen
data_CePOs2C
_symmetry_space_group_name_H-M   'P 1'
_cell_length_a   5.88785238
_cell_length_b   5.88785238
_cell_length_c   7.09184900
_cell_angle_alpha   90.00000000
_cell_angle_beta   90.00000000
_cell_angle_gamma   141.42257852
_symmetry_Int_Tables_number   1
_chemical_formula_structural   CePOs2C
_chemical_formula_sum   'Ce2 P2 Os4 C2'
_cell_volume   153.30616329
_cell_formula_units_Z   2
loop_
 _symmetry_equiv_pos_site_id
 _symmetry_equiv_pos_as_xyz
  1  'x, y, z'
loop_
 _atom_site_type_symbol
 _atom_site_label
 _atom_site_symmetry_multiplicity
 _atom_site_fract_x
 _atom_site_fract_y
 _atom_site_fract_z
 _atom_site_occupancy
  Ce  Ce0  1  0.54709300  0.45290700  0.25000000  1
  Ce  Ce1  1  0.45290700  0.54709300  0.75000000  1
  P  P0  1  0.27054600  0.72945400  0.25000000  1
  P  P1  1  0.72945400  0.27054600  0.75000000  1
  Os  Os0  1  0.83280400  0.16719600  0.05419600  1
  Os  Os1  1  0.16719600  0.83280400  0.94580400  1
  Os  Os2  1  0.16719600  0.83280400  0.55419600  1
  Os  Os3  1  0.83280400  0.16719600  0.44580400  1
  C  C0  1  0.00000000  0.00000000  0.00000000  1
  C  C1  1  0.00000000  0.00000000  0.50000000  1
loop_
_geom_bond_atom_site_label_1
_geom_bond_atom_site_label_2
_geom_bond_distance
_geom_bond_site_symmetry_2
Ce0 P0 3.073734 1_555
Ce0 P0 3.154529 1_545
Ce0 P0 3.154529 1_655
Ce1 P1 3.073734 1_555
Ce1 P1 3.154529 1_565
Ce1 P1 3.154529 1_455
Os0 P1 2.444077 1_554
Os0 P0 2.487933 1_545
Os0 P0 2.487933 1_655
Os1 P0 2.444077 1_556
Os1 P1 2.487933 1_455
Os1 P1 2.487933 1_565
Os2 P0 2.444077 1_555
Os2 P1 2.487933 1_455
Os2 P1 2.487933 1_565
Os3 P1 2.444077 1_555
Os3 P0 2.487933 1_545
Os3 P0 2.487933 1_655
C0 Os0 1.897662 1_455
C0 Os1 1.897662 1_544
C0 Ce1 2.683300 1_554
C0 Ce0 2.683300 1_555
C0 Ce0 2.683300 1_445
C0 Ce1 2.683300 1_444
C1 Os2 1.897662 1_545
C1 Os3 1.897662 1_455
C1 Ce1 2.683300 1_555
C1 Ce0 2.683300 1_555
C1 Ce0 2.683300 1_445
C1 Ce1 2.683300 1_445
