# generated using pymatgen
data_FeB4
_symmetry_space_group_name_H-M   'P 1'
_cell_length_a   2.99712967
_cell_length_b   4.50957005
_cell_length_c   5.25046997
_cell_angle_alpha   90.00000000
_cell_angle_beta   90.00000000
_cell_angle_gamma   90.00000000
_symmetry_Int_Tables_number   1
_chemical_formula_structural   FeB4
_chemical_formula_sum   'Fe2 B8'
_cell_volume   70.96412453
_cell_formula_units_Z   2
loop_
 _symmetry_equiv_pos_site_id
 _symmetry_equiv_pos_as_xyz
  1  'x, y, z'
loop_
 _atom_site_type_symbol
 _atom_site_label
 _atom_site_symmetry_multiplicity
 _atom_site_fract_x
 _atom_site_fract_y
 _atom_site_fract_z
 _atom_site_occupancy
  Fe  Fe0  1  0.00000000  0.50000000  -0.00000000  1
  Fe  Fe1  1  0.50000000  -0.00000000  0.50000000  1
  B  B0  1  0.50000000  0.16254798  0.87291057  1
  B  B1  1  0.50000000  0.83745202  0.12708943  1
  B  B2  1  -0.00000000  0.66254798  0.62708943  1
  B  B3  1  0.00000000  0.33745202  0.37291057  1
  B  B4  1  0.50000000  0.75203348  0.81264573  1
  B  B5  1  0.50000000  0.24796652  0.18735427  1
  B  B6  1  -0.00000000  0.25203348  0.68735427  1
  B  B7  1  0.00000000  0.74796652  0.31264573  1
loop_
_geom_bond_atom_site_label_1
_geom_bond_atom_site_label_2
_geom_bond_distance
_geom_bond_site_symmetry_2
B0 B5 1.695319 1_556
B0 B6 1.832408 1_555
B0 B6 1.832408 1_655
B0 B4 1.878091 1_545
B0 B1 1.982506 1_546
B0 Fe1 2.090672 1_555
B0 Fe0 2.237571 1_556
B0 Fe0 2.237571 1_656
B1 B4 1.695319 1_554
B1 B7 1.832408 1_555
B1 B7 1.832408 1_655
B1 B5 1.878091 1_565
B1 Fe1 2.090672 1_565
B1 Fe0 2.237571 1_655
B1 Fe0 2.237571 1_555
B2 B7 1.695319 1_555
B2 B4 1.832408 1_455
B2 B4 1.832408 1_555
B2 B6 1.878091 1_555
B2 B3 1.982506 1_555
B2 Fe0 2.090672 1_556
B2 Fe1 2.237571 1_465
B2 Fe1 2.237571 1_565
B3 B6 1.695319 1_555
B3 B5 1.832408 1_555
B3 B5 1.832408 1_455
B3 B7 1.878091 1_555
B3 Fe0 2.090672 1_555
B3 Fe1 2.237571 1_555
B3 Fe1 2.237571 1_455
B4 Fe1 1.986219 1_565
B4 Fe0 2.122530 1_556
B4 Fe0 2.122530 1_656
B5 Fe1 1.986219 1_555
B5 Fe0 2.122530 1_555
B5 Fe0 2.122530 1_655
B6 Fe0 1.986219 1_556
B6 Fe1 2.122530 1_455
B6 Fe1 2.122530 1_555
B7 Fe0 1.986219 1_555
B7 Fe1 2.122530 1_565
B7 Fe1 2.122530 1_465
