# generated using pymatgen
data_Ni(BiO3)2
_symmetry_space_group_name_H-M   'P 1'
_cell_length_a   4.83040178
_cell_length_b   9.66035311
_cell_length_c   9.76418085
_cell_angle_alpha   90.00000791
_cell_angle_beta   90.00002890
_cell_angle_gamma   90.00060554
_symmetry_Int_Tables_number   1
_chemical_formula_structural   Ni(BiO3)2
_chemical_formula_sum   'Ni4 Bi8 O24'
_cell_volume   455.62974834
_cell_formula_units_Z   4
loop_
 _symmetry_equiv_pos_site_id
 _symmetry_equiv_pos_as_xyz
  1  'x, y, z'
loop_
 _atom_site_type_symbol
 _atom_site_label
 _atom_site_symmetry_multiplicity
 _atom_site_fract_x
 _atom_site_fract_y
 _atom_site_fract_z
 _atom_site_occupancy
  Ni  Ni0  1  0.00005555  0.49996771  0.00000022  1
  Ni  Ni1  1  0.50004208  0.75000140  0.50000000  1
  Ni  Ni2  1  0.00003637  0.00000232  0.00000022  1
  Ni  Ni3  1  0.50005002  0.25002246  0.50000017  1
  Bi  Bi0  1  0.00001834  0.00005455  0.33328449  1
  Bi  Bi1  1  0.00003640  0.50000541  0.33327697  1
  Bi  Bi2  1  0.00001668  0.00005657  0.66671541  1
  Bi  Bi3  1  0.00003624  0.50000650  0.66672347  1
  Bi  Bi4  1  0.50002070  0.24999090  0.16677733  1
  Bi  Bi5  1  0.50003395  0.74994480  0.16677232  1
  Bi  Bi6  1  0.50002083  0.24999145  0.83322302  1
  Bi  Bi7  1  0.50003264  0.74994485  0.83322761  1
  O  O0  1  0.20396011  0.39755398  0.50000028  1
  O  O1  1  0.20400758  0.89764281  0.50000032  1
  O  O2  1  0.29537956  0.14786583  0.00000004  1
  O  O3  1  0.29542054  0.64776944  0.00000013  1
  O  O4  1  0.70394906  0.35239153  0.00000027  1
  O  O5  1  0.70395602  0.85234075  0.00000010  1
  O  O6  1  0.79539683  0.10228399  0.49999999  1
  O  O7  1  0.79537733  0.60216818  0.49999986  1
  O  O8  1  0.18813558  0.40549583  0.16006686  1
  O  O9  1  0.18815159  0.90551528  0.16010160  1
  O  O10  1  0.18813485  0.40549590  0.83993290  1
  O  O11  1  0.18815007  0.90551501  0.83989834  1
  O  O12  1  0.31211051  0.15557056  0.34016132  1
  O  O13  1  0.31218889  0.65547247  0.34014156  1
  O  O14  1  0.31211073  0.15557050  0.65983912  1
  O  O15  1  0.31218984  0.65547086  0.65985659  1
  O  O16  1  0.68811356  0.34448716  0.34001765  1
  O  O17  1  0.68811771  0.84449381  0.33998589  1
  O  O18  1  0.68811383  0.34448720  0.65998283  1
  O  O19  1  0.68811753  0.84449389  0.66001466  1
  O  O20  1  0.81213630  0.09452287  0.15993804  1
  O  O21  1  0.81212241  0.59444096  0.15991877  1
  O  O22  1  0.81213608  0.09452337  0.84006226  1
  O  O23  1  0.81212165  0.59444090  0.84008139  1
loop_
_geom_bond_atom_site_label_1
_geom_bond_atom_site_label_2
_geom_bond_distance
_geom_bond_site_symmetry_2
Ni0 O3 2.018460 1_555
Ni0 O4 2.019455 1_455
Ni0 O21 2.023667 1_455
Ni0 O23 2.023670 1_454
Ni0 O8 2.025094 1_555
Ni0 O10 2.025098 1_554
Ni1 O7 2.018595 1_555
Ni1 O1 2.019675 1_555
Ni1 O15 2.023266 1_555
Ni1 O13 2.023274 1_555
Ni1 O17 2.024770 1_555
Ni1 O19 2.024774 1_555
Ni2 O2 2.018808 1_555
Ni2 O5 2.019948 1_445
Ni2 O20 2.023946 1_455
Ni2 O22 2.023949 1_454
Ni2 O9 2.025498 1_545
Ni2 O11 2.025501 1_544
Ni3 O6 2.017987 1_555
Ni3 O0 2.019115 1_555
Ni3 O12 2.022978 1_555
Ni3 O14 2.022979 1_555
Ni3 O16 2.024386 1_555
Ni3 O18 2.024386 1_555
Bi0 O9 2.125886 1_545
Bi0 O20 2.126344 1_455
Bi0 O17 2.128947 1_445
Bi0 O12 2.129350 1_555
Bi0 O1 2.144665 1_545
Bi0 O6 2.145257 1_455
Bi1 O8 2.125904 1_555
Bi1 O21 2.126365 1_455
Bi1 O16 2.128745 1_455
Bi1 O13 2.129219 1_555
Bi1 O0 2.144752 1_555
Bi1 O7 2.145099 1_455
Bi2 O11 2.125896 1_545
Bi2 O22 2.126338 1_455
Bi2 O19 2.128955 1_445
Bi2 O14 2.129343 1_555
Bi2 O1 2.144673 1_545
Bi2 O6 2.145243 1_455
Bi3 O10 2.125901 1_555
Bi3 O23 2.126360 1_455
Bi3 O18 2.128751 1_455
Bi3 O15 2.129206 1_555
Bi3 O0 2.144757 1_555
Bi3 O7 2.145099 1_455
Bi4 O16 2.126061 1_555
Bi4 O12 2.126487 1_555
Bi4 O8 2.128539 1_555
Bi4 O20 2.129115 1_555
Bi4 O4 2.144926 1_555
Bi4 O2 2.145284 1_555
Bi5 O17 2.126054 1_555
Bi5 O13 2.126454 1_555
Bi5 O9 2.128964 1_555
Bi5 O21 2.129270 1_555
Bi5 O5 2.144855 1_555
Bi5 O3 2.145408 1_555
Bi6 O18 2.126059 1_555
Bi6 O14 2.126488 1_555
Bi6 O10 2.128538 1_555
Bi6 O22 2.129114 1_555
Bi6 O4 2.144923 1_556
Bi6 O2 2.145286 1_556
Bi7 O19 2.126052 1_555
Bi7 O15 2.126469 1_555
Bi7 O11 2.128963 1_555
Bi7 O23 2.129273 1_555
Bi7 O5 2.144859 1_556
Bi7 O3 2.145409 1_556
