# generated using pymatgen
data_Sr3CdPtO6
_symmetry_space_group_name_H-M   'P 1'
_cell_length_a   6.87165181
_cell_length_b   6.87165181
_cell_length_c   6.87165132
_cell_angle_alpha   90.23925439
_cell_angle_beta   90.23925439
_cell_angle_gamma   90.23925380
_symmetry_Int_Tables_number   1
_chemical_formula_structural   Sr3CdPtO6
_chemical_formula_sum   'Sr6 Cd2 Pt2 O12'
_cell_volume   324.46810640
_cell_formula_units_Z   2
loop_
 _symmetry_equiv_pos_site_id
 _symmetry_equiv_pos_as_xyz
  1  'x, y, z'
loop_
 _atom_site_type_symbol
 _atom_site_label
 _atom_site_symmetry_multiplicity
 _atom_site_fract_x
 _atom_site_fract_y
 _atom_site_fract_z
 _atom_site_occupancy
  Sr  Sr0  1  0.38685400  0.11314600  0.75000000  1
  Sr  Sr1  1  0.11314600  0.75000000  0.38685400  1
  Sr  Sr2  1  0.75000000  0.38685400  0.11314600  1
  Sr  Sr3  1  0.61314600  0.88685400  0.25000000  1
  Sr  Sr4  1  0.25000000  0.61314600  0.88685400  1
  Sr  Sr5  1  0.88685400  0.25000000  0.61314600  1
  Cd  Cd0  1  0.75000000  0.75000000  0.75000000  1
  Cd  Cd1  1  0.25000000  0.25000000  0.25000000  1
  Pt  Pt0  1  0.50000000  0.50000000  0.50000000  1
  Pt  Pt1  1  0.00000000  0.00000000  0.00000000  1
  O  O0  1  0.94867900  0.08256800  0.28496600  1
  O  O1  1  0.28496600  0.94867900  0.08256800  1
  O  O2  1  0.08256800  0.28496600  0.94867900  1
  O  O3  1  0.55132100  0.21503400  0.41743200  1
  O  O4  1  0.41743200  0.55132100  0.21503400  1
  O  O5  1  0.21503400  0.41743200  0.55132100  1
  O  O6  1  0.05132100  0.91743200  0.71503400  1
  O  O7  1  0.71503400  0.05132100  0.91743200  1
  O  O8  1  0.91743200  0.71503400  0.05132100  1
  O  O9  1  0.44867900  0.78496600  0.58256800  1
  O  O10  1  0.78496600  0.58256800  0.44867900  1
  O  O11  1  0.58256800  0.44867900  0.78496600  1
loop_
_geom_bond_atom_site_label_1
_geom_bond_atom_site_label_2
_geom_bond_distance
_geom_bond_site_symmetry_2
Cd0 O8 2.378088 1_556
Cd0 O10 2.378088 1_555
Cd0 O7 2.378088 1_565
Cd0 O9 2.378088 1_555
Cd0 O6 2.378088 1_655
Cd0 O11 2.378088 1_555
Cd1 O5 2.378088 1_555
Cd1 O2 2.378088 1_554
Cd1 O3 2.378088 1_555
Cd1 O1 2.378088 1_545
Cd1 O4 2.378088 1_555
Cd1 O0 2.378088 1_455
O0 Pt1 2.068561 1_655
O0 Sr5 2.565206 1_555
O0 Sr1 2.649214 1_645
O0 Sr3 2.673818 1_545
O0 Sr2 2.767850 1_555
O1 Pt1 2.068561 1_565
O1 Sr3 2.565206 1_555
O1 Sr0 2.649214 1_564
O1 Sr4 2.673818 1_554
O1 Sr1 2.767850 1_555
O2 Pt1 2.068561 1_556
O2 Sr4 2.565206 1_555
O2 Sr2 2.649214 1_456
O2 Sr5 2.673818 1_455
O2 Sr0 2.767850 1_555
O3 Pt0 2.068561 1_555
O3 Sr3 2.565206 1_545
O3 Sr0 2.649214 1_555
O3 Sr5 2.673818 1_555
O3 Sr2 2.767850 1_555
O4 Pt0 2.068561 1_555
O4 Sr4 2.565206 1_554
O4 Sr2 2.649214 1_555
O4 Sr3 2.673818 1_555
O4 Sr1 2.767850 1_555
O5 Pt0 2.068561 1_555
O5 Sr5 2.565206 1_455
O5 Sr1 2.649214 1_555
O5 Sr4 2.673818 1_555
O5 Sr0 2.767850 1_555
O6 Pt1 2.068561 1_566
O6 Sr1 2.565206 1_555
O6 Sr5 2.649214 1_465
O6 Sr0 2.673818 1_565
O6 Sr4 2.767850 1_555
O7 Pt1 2.068561 1_656
O7 Sr0 2.565206 1_555
O7 Sr3 2.649214 1_546
O7 Sr2 2.673818 1_556
O7 Sr5 2.767850 1_555
O8 Pt1 2.068561 1_665
O8 Sr2 2.565206 1_555
O8 Sr4 2.649214 1_654
O8 Sr1 2.673818 1_655
O8 Sr3 2.767850 1_555
O9 Pt0 2.068561 1_555
O9 Sr0 2.565206 1_565
O9 Sr3 2.649214 1_555
O9 Sr1 2.673818 1_555
O9 Sr4 2.767850 1_555
O10 Pt0 2.068561 1_555
O10 Sr1 2.565206 1_655
O10 Sr5 2.649214 1_555
O10 Sr2 2.673818 1_555
O10 Sr3 2.767850 1_555
O11 Pt0 2.068561 1_555
O11 Sr2 2.565206 1_556
O11 Sr4 2.649214 1_555
O11 Sr0 2.673818 1_555
O11 Sr5 2.767850 1_555
