# generated using pymatgen
data_TaN
_symmetry_space_group_name_H-M   'P 1'
_cell_length_a   10.59164238
_cell_length_b   10.62647480
_cell_length_c   11.42441353
_cell_angle_alpha   90.10641956
_cell_angle_beta   92.03459442
_cell_angle_gamma   89.97413194
_symmetry_Int_Tables_number   1
_chemical_formula_structural   TaN
_chemical_formula_sum   'Ta50 N50'
_cell_volume   1285.02560575
_cell_formula_units_Z   50
loop_
 _symmetry_equiv_pos_site_id
 _symmetry_equiv_pos_as_xyz
  1  'x, y, z'
loop_
 _atom_site_type_symbol
 _atom_site_label
 _atom_site_symmetry_multiplicity
 _atom_site_fract_x
 _atom_site_fract_y
 _atom_site_fract_z
 _atom_site_occupancy
  Ta  Ta0  1  0.83210100  0.59591500  0.12150100  1
  Ta  Ta1  1  0.22984300  0.86808100  0.06537800  1
  Ta  Ta2  1  0.55922100  0.54916600  0.14485100  1
  Ta  Ta3  1  0.06695500  0.81311400  0.26209900  1
  Ta  Ta4  1  0.10325500  0.76703800  0.77584100  1
  Ta  Ta5  1  0.11488300  0.49381500  0.22127100  1
  Ta  Ta6  1  0.33616500  0.03634400  0.34591100  1
  Ta  Ta7  1  0.19761400  0.18701700  0.14767200  1
  Ta  Ta8  1  0.71474300  0.09764400  0.92334300  1
  Ta  Ta9  1  0.93376500  0.07488700  0.40963000  1
  Ta  Ta10  1  0.03858500  0.00452900  0.93191500  1
  Ta  Ta11  1  0.13992000  0.88599100  0.50019900  1
  Ta  Ta12  1  0.87021700  0.86161700  0.58052600  1
  Ta  Ta13  1  0.47229000  0.20719800  0.79089300  1
  Ta  Ta14  1  0.77704200  0.31262000  0.76043600  1
  Ta  Ta15  1  0.38441500  0.30610500  0.31892000  1
  Ta  Ta16  1  0.63965400  0.46202700  0.37283500  1
  Ta  Ta17  1  0.74563400  0.86813000  0.12928100  1
  Ta  Ta18  1  0.49312400  0.18094000  0.53348100  1
  Ta  Ta19  1  0.01204300  0.30528200  0.99546700  1
  Ta  Ta20  1  0.64089900  0.94683800  0.37175200  1
  Ta  Ta21  1  0.26167400  0.47230700  0.00452300  1
  Ta  Ta22  1  0.41989400  0.87583200  0.55155900  1
  Ta  Ta23  1  0.57488100  0.73451700  0.97212000  1
  Ta  Ta24  1  0.25786300  0.10424600  0.61436000  1
  Ta  Ta25  1  0.74777500  0.33675000  0.03254800  1
  Ta  Ta26  1  0.94994100  0.30176800  0.26001300  1
  Ta  Ta27  1  0.30810600  0.68891400  0.37321200  1
  Ta  Ta28  1  0.15795900  0.33880600  0.49024400  1
  Ta  Ta29  1  0.49404300  0.02666100  0.04946700  1
  Ta  Ta30  1  0.86338300  0.36562300  0.52624800  1
  Ta  Ta31  1  0.77028500  0.58416500  0.84386400  1
  Ta  Ta32  1  0.63345800  0.94311500  0.72745100  1
  Ta  Ta33  1  0.44427600  0.79580100  0.19463000  1
  Ta  Ta34  1  0.68165500  0.19926100  0.27907600  1
  Ta  Ta35  1  0.43706300  0.48203200  0.53911700  1
  Ta  Ta36  1  0.45824200  0.29464800  0.08362000  1
  Ta  Ta37  1  0.82080700  0.71763200  0.34188500  1
  Ta  Ta38  1  0.84043200  0.83866700  0.86421600  1
  Ta  Ta39  1  0.70804400  0.62183300  0.57562000  1
  Ta  Ta40  1  0.21602200  0.20463800  0.86776200  1
  Ta  Ta41  1  0.00868600  0.48950400  0.76257700  1
  Ta  Ta42  1  0.91954600  0.07752800  0.14658100  1
  Ta  Ta43  1  0.51488100  0.45385600  0.90770200  1
  Ta  Ta44  1  0.28553000  0.40763700  0.73406800  1
  Ta  Ta45  1  0.39921000  0.65258800  0.73665100  1
  Ta  Ta46  1  0.74226800  0.11329200  0.57482800  1
  Ta  Ta47  1  0.14968200  0.60596000  0.55344400  1
  Ta  Ta48  1  0.98512100  0.12179100  0.69358300  1
  Ta  Ta49  1  0.35857900  0.92839500  0.81661600  1
  N  N0  1  0.19362900  0.59368900  0.73339600  1
  N  N1  1  0.80380100  0.48714600  0.67877500  1
  N  N2  1  0.24561700  0.76741900  0.21864000  1
  N  N3  1  0.06645800  0.12200400  0.26005800  1
  N  N4  1  0.42284000  0.84414400  0.00364800  1
  N  N5  1  0.01225200  0.18137300  0.86215100  1
  N  N6  1  0.13380300  0.59567500  0.07563700  1
  N  N7  1  0.21354000  0.50789900  0.39062700  1
  N  N8  1  0.35515500  0.15093700  0.98164500  1
  N  N9  1  0.00020600  0.25987400  0.43592200  1
  N  N10  1  0.57242500  0.61263100  0.83582000  1
  N  N11  1  0.53392400  0.03077200  0.86277800  1
  N  N12  1  0.87725800  0.41366700  0.88763200  1
  N  N13  1  0.32155200  0.00192600  0.16976800  1
  N  N14  1  0.07537300  0.05028100  0.54810700  1
  N  N15  1  0.04321300  0.75603600  0.60081300  1
  N  N16  1  0.62662900  0.29080700  0.87364500  1
  N  N17  1  0.54480900  0.59677800  0.62929100  1
  N  N18  1  0.02168700  0.46770700  0.57551700  1
  N  N19  1  0.71287600  0.58461100  0.25637900  1
  N  N20  1  0.54858300  0.36753600  0.23439800  1
  N  N21  1  0.98111700  0.63854100  0.26603400  1
  N  N22  1  0.05285800  0.91828500  0.11013900  1
  N  N23  1  0.92211700  0.42654300  0.12201900  1
  N  N24  1  0.58334800  0.99458800  0.54666900  1
  N  N25  1  0.34142700  0.67186200  0.55308300  1
  N  N26  1  0.14641500  0.39926100  0.87442300  1
  N  N27  1  0.48667100  0.82343100  0.72129600  1
  N  N28  1  0.95907900  0.86465200  0.40653800  1
  N  N29  1  0.97687100  0.93594100  0.75790000  1
  N  N30  1  0.50406600  0.12959300  0.34445100  1
  N  N31  1  0.58068300  0.93285700  0.19060100  1
  N  N32  1  0.95792800  0.66086500  0.82548100  1
  N  N33  1  0.19092000  0.89714900  0.89008500  1
  N  N34  1  0.29131400  0.19852800  0.44976200  1
  N  N35  1  0.84489800  0.97978000  0.99744000  1
  N  N36  1  0.75544500  0.77400000  0.70485800  1
  N  N37  1  0.26015000  0.90961700  0.65500500  1
  N  N38  1  0.28836400  0.37117500  0.16368000  1
  N  N39  1  0.43199500  0.31924800  0.64429200  1
  N  N40  1  0.71958500  0.78952800  0.47415500  1
  N  N41  1  0.79001300  0.02098700  0.26817000  1
  N  N42  1  0.20187700  0.66544100  0.00842600  1
  N  N43  1  0.62543700  0.17861500  0.08639100  1
  N  N44  1  0.15242900  0.26129500  0.66482400  1
  N  N45  1  0.78532000  0.34851100  0.35786900  1
  N  N46  1  0.78022000  0.11660300  0.75241700  1
  N  N47  1  0.44275400  0.61409700  0.26000100  1
  N  N48  1  0.78252700  0.72049700  0.99536100  1
  N  N49  1  0.44961100  0.85452200  0.37274200  1
loop_
_geom_bond_atom_site_label_1
_geom_bond_atom_site_label_2
_geom_bond_distance
_geom_bond_site_symmetry_2
N0 Ta47 2.095987 1_555
N0 Ta4 2.138393 1_555
N0 Ta44 2.203214 1_555
N0 Ta45 2.264898 1_555
N0 Ta41 2.285529 1_555
N1 Ta39 2.094286 1_555
N1 Ta14 2.101401 1_555
N1 Ta31 2.187709 1_555
N1 Ta30 2.274042 1_555
N1 Ta41 2.340696 1_655
N2 Ta3 2.031789 1_555
N2 Ta27 2.043127 1_555
N2 Ta1 2.055215 1_555
N2 Ta33 2.153000 1_555
N3 Ta42 2.044616 1_455
N3 Ta7 2.046061 1_555
N3 Ta26 2.273749 1_455
N3 Ta9 2.306552 1_455
N4 Ta23 2.029297 1_554
N4 Ta29 2.138688 1_565
N4 Ta1 2.200420 1_555
N4 Ta33 2.246072 1_555
N4 Ta49 2.394517 1_554
N5 Ta19 2.011526 1_555
N5 Ta48 2.036777 1_455
N5 Ta10 2.057626 1_555
N5 Ta40 2.171154 1_555
N6 Ta5 2.002626 1_555
N6 Ta21 2.070159 1_555
N7 Ta5 2.170998 1_555
N7 Ta27 2.181780 1_555
N7 Ta28 2.219593 1_555
N7 Ta47 2.254937 1_555
N8 Ta40 2.013917 1_555
N8 Ta29 2.104635 1_556
N8 Ta36 2.187723 1_556
N8 Ta7 2.598161 1_556
N8 Ta13 2.615947 1_555
N9 Ta28 1.950939 1_555
N9 Ta9 2.105636 1_455
N9 Ta26 2.108907 1_455
N9 Ta30 2.127953 1_455
N10 Ta43 1.983477 1_555
N10 Ta23 2.023027 1_555
N10 Ta31 2.116035 1_555
N10 Ta45 2.164076 1_555
N11 Ta32 2.116310 1_545
N11 Ta8 2.134692 1_555
N11 Ta13 2.140553 1_555
N11 Ta29 2.189419 1_556
N11 Ta49 2.200221 1_545
N12 Ta14 2.068090 1_555
N12 Ta19 2.182010 1_655
N12 Ta41 2.185142 1_655
N12 Ta31 2.185780 1_555
N12 Ta25 2.336048 1_556
N13 Ta6 2.045091 1_555
N13 Ta1 2.073989 1_545
N13 Ta29 2.340050 1_555
N13 Ta7 2.373070 1_555
N13 Ta33 2.557651 1_545
N14 Ta11 1.958773 1_545
N14 Ta48 2.088266 1_455
N14 Ta24 2.129141 1_555
N14 Ta9 2.157182 1_455
N15 Ta47 2.036258 1_555
N15 Ta4 2.079752 1_555
N15 Ta11 2.090035 1_555
N15 Ta12 2.153792 1_455
N16 Ta13 2.060062 1_555
N16 Ta14 2.100538 1_555
N16 Ta43 2.140713 1_555
N16 Ta25 2.238804 1_556
N16 Ta8 2.317687 1_555
N17 Ta39 1.874123 1_555
N17 Ta35 1.939987 1_555
N17 Ta45 2.089267 1_555
N18 Ta47 2.021702 1_555
N18 Ta30 2.058465 1_455
N18 Ta41 2.158385 1_555
N18 Ta28 2.236436 1_555
N19 Ta0 2.030378 1_555
N19 Ta16 2.036913 1_555
N19 Ta37 2.043581 1_555
N19 Ta2 2.065299 1_555
N20 Ta16 2.080061 1_555
N20 Ta36 2.088386 1_555
N20 Ta15 2.122403 1_555
N20 Ta2 2.190940 1_555
N20 Ta34 2.322642 1_555
N21 Ta3 2.067539 1_655
N21 Ta37 2.107318 1_555
N21 Ta5 2.163475 1_655
N21 Ta0 2.288138 1_555
N22 Ta1 2.031315 1_555
N22 Ta3 2.067329 1_555
N22 Ta10 2.234601 1_564
N22 Ta42 2.251118 1_465
N23 Ta0 2.036297 1_555
N23 Ta26 2.074774 1_555
N23 Ta19 2.178911 1_654
N23 Ta25 2.286706 1_555
N23 Ta5 2.408163 1_655
N24 Ta46 2.118923 1_565
N24 Ta22 2.145221 1_555
N24 Ta20 2.169050 1_555
N24 Ta32 2.184618 1_555
N24 Ta18 2.201485 1_565
N25 Ta27 2.080846 1_555
N25 Ta47 2.148690 1_555
N25 Ta45 2.173690 1_555
N25 Ta35 2.264760 1_555
N25 Ta22 2.322024 1_555
N26 Ta21 2.041984 1_556
N26 Ta41 2.133374 1_555
N26 Ta40 2.197413 1_555
N26 Ta44 2.217777 1_555
N26 Ta19 2.254183 1_555
N27 Ta32 2.008307 1_555
N27 Ta45 2.049156 1_555
N27 Ta49 2.090371 1_555
N27 Ta22 2.115861 1_555
N28 Ta3 2.111474 1_655
N28 Ta11 2.172349 1_655
N28 Ta12 2.229571 1_555
N28 Ta37 2.247703 1_555
N28 Ta9 2.250330 1_565
N29 Ta48 2.111397 1_565
N29 Ta38 2.182370 1_555
N29 Ta10 2.193965 1_665
N29 Ta4 2.243898 1_655
N29 Ta12 2.416293 1_555
N30 Ta6 2.036776 1_555
N30 Ta34 2.178754 1_555
N30 Ta18 2.233422 1_555
N30 Ta15 2.276624 1_555
N30 Ta20 2.436565 1_545
N31 Ta17 2.024909 1_555
N31 Ta33 2.053662 1_555
N31 Ta29 2.082199 1_565
N31 Ta20 2.148738 1_555
N32 Ta4 2.007429 1_655
N32 Ta41 2.035452 1_655
N32 Ta31 2.165663 1_555
N32 Ta38 2.312636 1_555
N33 Ta49 2.018799 1_555
N33 Ta10 2.045675 1_565
N33 Ta1 2.054122 1_556
N33 Ta4 2.094197 1_555
N34 Ta28 2.114921 1_555
N34 Ta15 2.150730 1_555
N34 Ta6 2.152962 1_555
N34 Ta24 2.172549 1_555
N34 Ta18 2.318136 1_555
N35 Ta8 2.026135 1_565
N35 Ta42 2.122655 1_566
N35 Ta38 2.133967 1_555
N35 Ta17 2.214022 1_556
N35 Ta10 2.224480 1_665
N36 Ta38 2.115779 1_555
N36 Ta12 2.119138 1_555
N36 Ta32 2.232803 1_555
N36 Ta39 2.232920 1_555
N36 Ta31 2.570981 1_555
N37 Ta49 2.097066 1_555
N37 Ta24 2.120486 1_565
N37 Ta22 2.127938 1_555
N37 Ta11 2.156668 1_555
N37 Ta4 2.671278 1_555
N38 Ta21 2.124019 1_555
N38 Ta15 2.129390 1_555
N38 Ta7 2.185149 1_555
N38 Ta36 2.201836 1_555
N38 Ta5 2.363898 1_555
N39 Ta18 2.057269 1_555
N39 Ta13 2.088339 1_555
N39 Ta44 2.109213 1_555
N39 Ta35 2.109810 1_555
N40 Ta37 2.031394 1_555
N40 Ta12 2.114005 1_555
N40 Ta39 2.133569 1_555
N40 Ta20 2.189617 1_555
N41 Ta42 2.076538 1_555
N41 Ta20 2.157054 1_545
N41 Ta34 2.220106 1_555
N41 Ta9 2.254037 1_555
N41 Ta17 2.305482 1_545
N42 N6 1.304218 1_555
N42 Ta21 2.148414 1_555
N42 Ta1 2.264878 1_555
N43 Ta36 2.156738 1_555
N43 Ta29 2.163307 1_555
N43 Ta25 2.223416 1_555
N43 Ta34 2.270180 1_555
N43 Ta8 2.285442 1_554
N44 Ta24 2.098821 1_555
N44 Ta28 2.161996 1_555
N44 Ta44 2.224808 1_555
N44 Ta48 2.343354 1_455
N44 Ta40 2.466839 1_555
N45 Ta16 1.970020 1_555
N45 Ta30 2.074355 1_555
N45 Ta34 2.111244 1_555
N45 Ta26 2.161541 1_555
N46 Ta46 2.054481 1_555
N46 Ta14 2.085122 1_555
N46 Ta8 2.105336 1_555
N46 Ta48 2.295337 1_555
N46 Ta32 2.421891 1_545
N47 Ta2 1.959459 1_555
N47 Ta33 2.071839 1_555
N47 Ta27 2.113033 1_555
N48 Ta0 2.014387 1_556
N48 Ta38 2.066569 1_555
N48 Ta23 2.210895 1_555
N48 Ta17 2.233301 1_556
N48 Ta31 2.255237 1_555
N49 Ta22 2.089875 1_555
N49 Ta33 2.126083 1_555
N49 Ta20 2.251851 1_555
N49 Ta6 2.290157 1_565
N49 Ta27 2.312213 1_555
