# generated using pymatgen
data_Ba2SrTi3O9
_symmetry_space_group_name_H-M   'P 1'
_cell_length_a   8.91335345
_cell_length_b   8.91335345
_cell_length_c   4.09803600
_cell_angle_alpha   90.00000000
_cell_angle_beta   90.00000000
_cell_angle_gamma   143.08189393
_symmetry_Int_Tables_number   1
_chemical_formula_structural   Ba2SrTi3O9
_chemical_formula_sum   'Ba2 Sr1 Ti3 O9'
_cell_volume   195.56722247
_cell_formula_units_Z   1
loop_
 _symmetry_equiv_pos_site_id
 _symmetry_equiv_pos_as_xyz
  1  'x, y, z'
loop_
 _atom_site_type_symbol
 _atom_site_label
 _atom_site_symmetry_multiplicity
 _atom_site_fract_x
 _atom_site_fract_y
 _atom_site_fract_z
 _atom_site_occupancy
  Ba  Ba0  1  0.66698700  0.33301300  0.00501800  1
  Ba  Ba1  1  0.33301300  0.66698700  0.00501800  1
  Sr  Sr0  1  0.00000000  0.00000000  0.99517500  1
  Ti  Ti0  1  0.16466900  0.83533100  0.48625900  1
  Ti  Ti1  1  0.83533100  0.16466900  0.48625900  1
  Ti  Ti2  1  0.50000000  0.50000000  0.48574000  1
  O  O0  1  0.16260000  0.83740000  0.03552300  1
  O  O1  1  0.83740000  0.16260000  0.03552300  1
  O  O2  1  0.50000000  0.50000000  0.03560500  1
  O  O3  1  0.83471300  0.67123000  0.52703900  1
  O  O4  1  0.50000000  0.00000000  0.52186300  1
  O  O5  1  0.16528700  0.32877000  0.52703900  1
  O  O6  1  0.32877000  0.16528700  0.52703900  1
  O  O7  1  0.00000000  0.50000000  0.52186300  1
  O  O8  1  0.67123000  0.83471300  0.52703900  1
loop_
_geom_bond_atom_site_label_1
_geom_bond_atom_site_label_2
_geom_bond_distance
_geom_bond_site_symmetry_2
Ba0 O7 2.807483 1_654
Ba0 O4 2.807483 1_554
Ba0 O6 2.820184 1_554
Ba0 O3 2.820184 1_554
Ba0 O0 2.825948 1_545
Ba0 O0 2.825948 1_655
Ba0 O2 2.826452 1_555
Ba0 O1 2.884313 1_555
Ba0 O4 2.906501 1_555
Ba0 O7 2.906501 1_655
Ba0 O6 2.948402 1_555
Ba0 O3 2.948402 1_555
Ba1 O4 2.807483 1_564
Ba1 O7 2.807483 1_554
Ba1 O5 2.820184 1_554
Ba1 O8 2.820184 1_554
Ba1 O1 2.825948 1_455
Ba1 O1 2.825948 1_565
Ba1 O2 2.826452 1_555
Ba1 O0 2.884313 1_555
Ba1 O7 2.906501 1_555
Ba1 O4 2.906501 1_565
Ba1 O5 2.948402 1_555
Ba1 O8 2.948402 1_555
O0 Ti0 1.847464 1_555
O0 Ti0 2.251176 1_554
O0 Sr0 2.754456 1_564
O1 Ti1 1.847464 1_555
O1 Ti1 2.251176 1_554
O1 Sr0 2.754456 1_654
O2 Ti2 1.844669 1_555
O2 Ti2 2.253367 1_554
O2 Sr0 2.827066 1_554
O2 Sr0 2.827066 1_664
O3 Ti0 1.984549 1_655
O3 Ti2 1.994487 1_555
O3 Sr0 2.745008 1_665
O3 Sr0 2.933481 1_664
O4 Ti1 2.023483 1_555
O4 Ti0 2.023483 1_545
O5 Ti1 1.984549 1_455
O5 Ti2 1.994487 1_555
O5 Sr0 2.745008 1_555
O5 Sr0 2.933481 1_554
O6 Ti0 1.984549 1_545
O6 Ti2 1.994487 1_555
O6 Sr0 2.745008 1_555
O6 Sr0 2.933481 1_554
O7 Ti0 2.023483 1_555
O7 Ti1 2.023483 1_455
O8 Ti1 1.984549 1_565
O8 Ti2 1.994487 1_555
O8 Sr0 2.745008 1_665
O8 Sr0 2.933481 1_664
