# generated using pymatgen
data_CsRb3(Mo3O10)2
_symmetry_space_group_name_H-M   'P 1'
_cell_length_a   8.59458316
_cell_length_b   8.67730956
_cell_length_c   8.84149218
_cell_angle_alpha   63.12704157
_cell_angle_beta   85.73939272
_cell_angle_gamma   74.44576942
_symmetry_Int_Tables_number   1
_chemical_formula_structural   CsRb3(Mo3O10)2
_chemical_formula_sum   'Cs1 Rb3 Mo6 O20'
_cell_volume   565.78810824
_cell_formula_units_Z   1
loop_
 _symmetry_equiv_pos_site_id
 _symmetry_equiv_pos_as_xyz
  1  'x, y, z'
loop_
 _atom_site_type_symbol
 _atom_site_label
 _atom_site_symmetry_multiplicity
 _atom_site_fract_x
 _atom_site_fract_y
 _atom_site_fract_z
 _atom_site_occupancy
  Cs  Cs0  1  0.69078700  0.76548300  0.90871800  1
  Rb  Rb0  1  0.15383600  0.97514800  0.72445100  1
  Rb  Rb1  1  0.84625200  0.02482300  0.27554500  1
  Rb  Rb2  1  0.30854600  0.23733100  0.08929400  1
  Mo  Mo0  1  0.45451200  0.30497200  0.53430000  1
  Mo  Mo1  1  0.54534800  0.69585500  0.46486000  1
  Mo  Mo2  1  0.03461400  0.55712700  0.64465000  1
  Mo  Mo3  1  0.96656900  0.44160300  0.35619900  1
  Mo  Mo4  1  0.76404800  0.34457400  0.79827300  1
  Mo  Mo5  1  0.23527100  0.65557000  0.20167100  1
  O  O0  1  0.42506200  0.12838800  0.72580500  1
  O  O1  1  0.57229800  0.87442000  0.27342100  1
  O  O2  1  0.24073200  0.45869700  0.70527800  1
  O  O3  1  0.75976200  0.53924500  0.29856900  1
  O  O4  1  0.60008100  0.20174900  0.43776100  1
  O  O5  1  0.40029300  0.79730100  0.56314000  1
  O  O6  1  0.73256500  0.62814400  0.60308400  1
  O  O7  1  0.26768400  0.37183100  0.39577700  1
  O  O8  1  0.59443400  0.40336800  0.62297800  1
  O  O9  1  0.40547100  0.59672400  0.37686400  1
  O  O10  1  0.94274100  0.40829000  0.85632400  1
  O  O11  1  0.05647800  0.59206600  0.14374000  1
  O  O12  1  0.98717100  0.76076200  0.65883800  1
  O  O13  1  0.01454600  0.23910700  0.33976900  1
  O  O14  1  0.82962300  0.11221600  0.86942100  1
  O  O15  1  0.17147500  0.88808400  0.13050500  1
  O  O16  1  0.63866400  0.36608100  0.95629200  1
  O  O17  1  0.35977800  0.63221800  0.04383800  1
  O  O18  1  0.96812500  0.35305700  0.59601500  1
  O  O19  1  0.03323300  0.64576900  0.40462100  1
loop_
_geom_bond_atom_site_label_1
_geom_bond_atom_site_label_2
_geom_bond_distance
_geom_bond_site_symmetry_2
Cs0 O3 3.106193 1_556
Cs0 O0 3.136157 1_565
Cs0 O12 3.249786 1_555
Cs0 O17 3.296697 1_556
Cs0 O6 3.374761 1_555
Cs0 O14 3.393466 1_565
Cs0 O16 3.446114 1_555
Cs0 O10 3.472739 1_555
Cs0 O11 3.473852 1_656
Cs0 O1 3.752266 1_556
Mo0 O4 1.739993 1_555
Mo0 O0 1.754338 1_555
Mo0 O7 1.888161 1_555
Mo0 O8 2.021346 1_555
Mo0 O9 2.203071 1_555
Mo1 O5 1.739587 1_555
Mo1 O1 1.755760 1_555
Mo1 O6 1.887813 1_555
Mo1 O9 2.022144 1_555
Mo1 O8 2.208989 1_555
Mo2 O2 1.752369 1_555
Mo2 O12 1.763712 1_455
Mo2 O19 1.902293 1_555
Mo2 O10 1.984004 1_455
Mo2 O18 2.216907 1_455
Mo2 O6 2.516551 1_455
Mo3 O3 1.753099 1_555
Mo3 O13 1.764053 1_655
Mo3 O18 1.900592 1_555
Mo3 O11 1.984580 1_655
Mo3 O19 2.217354 1_655
Mo3 O7 2.507841 1_655
Mo4 O16 1.747056 1_555
Mo4 O14 1.753635 1_555
Mo4 O10 1.938250 1_555
Mo4 O8 2.002368 1_555
Mo4 O6 2.231490 1_555
Mo4 O18 2.400804 1_555
Mo5 O17 1.746702 1_555
Mo5 O15 1.754296 1_555
Mo5 O11 1.937399 1_555
Mo5 O9 2.005210 1_555
Mo5 O7 2.228925 1_555
Mo5 O19 2.391758 1_555
O0 Rb0 2.980447 1_545
O1 Rb1 2.987323 1_565
O1 Rb2 3.129051 1_565
O2 Rb2 3.058591 1_556
O4 Rb1 2.947546 1_555
O5 Rb0 2.947921 1_555
O7 Rb2 3.365430 1_555
O10 Rb2 3.467910 1_656
O11 Rb2 3.465305 1_555
O12 Rb0 2.894343 1_655
O12 Rb1 3.209879 1_565
O13 Rb1 2.896701 1_455
O13 Rb0 3.215452 1_545
O13 Rb2 3.235404 1_555
O14 Rb0 3.145164 1_645
O14 Rb1 3.323462 1_556
O15 Rb1 3.151111 1_465
O15 Rb0 3.324184 1_554
O15 Rb2 3.399609 1_565
O16 Rb1 3.205920 1_556
O16 Rb2 3.270680 1_556
O17 Rb0 3.206763 1_554
O17 Rb2 3.410952 1_555
O18 Rb0 2.947261 1_645
O19 Rb1 2.957678 1_465
