# generated using pymatgen
data_Nb5Ge3
_symmetry_space_group_name_H-M   'P 1'
_cell_length_a   7.70846877
_cell_length_b   7.70846877
_cell_length_c   5.36358600
_cell_angle_alpha   90.00000000
_cell_angle_beta   90.00000000
_cell_angle_gamma   120.00000660
_symmetry_Int_Tables_number   1
_chemical_formula_structural   Nb5Ge3
_chemical_formula_sum   'Nb10 Ge6'
_cell_volume   276.00826411
_cell_formula_units_Z   2
loop_
 _symmetry_equiv_pos_site_id
 _symmetry_equiv_pos_as_xyz
  1  'x, y, z'
loop_
 _atom_site_type_symbol
 _atom_site_label
 _atom_site_symmetry_multiplicity
 _atom_site_fract_x
 _atom_site_fract_y
 _atom_site_fract_z
 _atom_site_occupancy
  Nb  Nb0  1  0.00000000  0.75110400  0.75000000  1
  Nb  Nb1  1  0.00000000  0.24889600  0.25000000  1
  Nb  Nb2  1  0.75110400  0.75110400  0.25000000  1
  Nb  Nb3  1  0.75110400  0.00000000  0.75000000  1
  Nb  Nb4  1  0.24889600  0.24889600  0.75000000  1
  Nb  Nb5  1  0.24889600  0.00000000  0.25000000  1
  Nb  Nb6  1  0.33333300  0.66666700  0.00000000  1
  Nb  Nb7  1  0.66666700  0.33333300  0.50000000  1
  Nb  Nb8  1  0.66666700  0.33333300  0.00000000  1
  Nb  Nb9  1  0.33333300  0.66666700  0.50000000  1
  Ge  Ge0  1  0.39163200  0.00000000  0.75000000  1
  Ge  Ge1  1  0.39163200  0.39163200  0.25000000  1
  Ge  Ge2  1  0.00000000  0.60836800  0.25000000  1
  Ge  Ge3  1  0.00000000  0.39163200  0.75000000  1
  Ge  Ge4  1  0.60836800  0.60836800  0.75000000  1
  Ge  Ge5  1  0.60836800  0.00000000  0.25000000  1
loop_
_geom_bond_atom_site_label_1
_geom_bond_atom_site_label_2
_geom_bond_distance
_geom_bond_site_symmetry_2
Ge0 Nb0 2.646253 1_545
Ge0 Nb4 2.646254 1_555
Ge0 Nb9 2.729012 1_545
Ge0 Nb6 2.729012 1_546
Ge0 Nb8 2.729014 1_556
Ge0 Nb7 2.729014 1_555
Ge0 Nb3 2.770979 1_555
Ge0 Nb5 2.898727 1_556
Ge0 Nb5 2.898727 1_555
Ge1 Nb1 2.646253 1_555
Ge1 Nb5 2.646253 1_555
Ge1 Nb7 2.729019 1_555
Ge1 Nb8 2.729019 1_555
Ge1 Nb9 2.729019 1_555
Ge1 Nb6 2.729019 1_555
Ge1 Nb2 2.770978 1_555
Ge1 Nb4 2.898727 1_554
Ge1 Nb4 2.898727 1_555
Ge2 Nb5 2.646253 1_565
Ge2 Nb2 2.646254 1_455
Ge2 Nb6 2.729012 1_555
Ge2 Nb9 2.729012 1_555
Ge2 Nb7 2.729014 1_455
Ge2 Nb8 2.729014 1_455
Ge2 Nb1 2.770979 1_555
Ge2 Nb0 2.898727 1_555
Ge2 Nb0 2.898727 1_554
Ge3 Nb3 2.646253 1_455
Ge3 Nb4 2.646254 1_555
Ge3 Nb7 2.729012 1_455
Ge3 Nb8 2.729012 1_456
Ge3 Nb9 2.729014 1_555
Ge3 Nb6 2.729014 1_556
Ge3 Nb0 2.770979 1_555
Ge3 Nb1 2.898727 1_556
Ge3 Nb1 2.898727 1_555
Ge4 Nb0 2.646253 1_655
Ge4 Nb3 2.646253 1_565
Ge4 Nb6 2.729019 1_556
Ge4 Nb7 2.729019 1_555
Ge4 Nb9 2.729019 1_555
Ge4 Nb8 2.729019 1_556
Ge4 Nb4 2.770978 1_555
Ge4 Nb2 2.898727 1_555
Ge4 Nb2 2.898727 1_556
Ge5 Nb1 2.646253 1_655
Ge5 Nb2 2.646254 1_545
Ge5 Nb7 2.729012 1_555
Ge5 Nb8 2.729012 1_555
Ge5 Nb9 2.729014 1_545
Ge5 Nb6 2.729014 1_545
Ge5 Nb5 2.770979 1_555
Ge5 Nb3 2.898727 1_555
Ge5 Nb3 2.898727 1_554
