# generated using pymatgen
data_Ba2Co2O5
_symmetry_space_group_name_H-M   'P 1'
_cell_length_a   9.59507674
_cell_length_b   9.59507674
_cell_length_c   9.59507674
_cell_angle_alpha   145.70719326
_cell_angle_beta   145.49686328
_cell_angle_gamma   49.43847446
_symmetry_Int_Tables_number   1
_chemical_formula_structural   Ba2Co2O5
_chemical_formula_sum   'Ba4 Co4 O10'
_cell_volume   280.63351542
_cell_formula_units_Z   2
loop_
 _symmetry_equiv_pos_site_id
 _symmetry_equiv_pos_as_xyz
  1  'x, y, z'
loop_
 _atom_site_type_symbol
 _atom_site_label
 _atom_site_symmetry_multiplicity
 _atom_site_fract_x
 _atom_site_fract_y
 _atom_site_fract_z
 _atom_site_occupancy
  Ba  Ba0  1  0.88525700  0.38428700  0.49226300  1
  Ba  Ba1  1  0.11474300  0.60700600  0.49902900  1
  Ba  Ba2  1  0.39202300  0.88428700  0.49902900  1
  Ba  Ba3  1  0.60797700  0.10700600  0.49226300  1
  Co  Co0  1  0.00000000  0.99607900  0.99607900  1
  Co  Co1  1  0.50000000  0.49607900  0.99607900  1
  Co  Co2  1  0.81679600  0.77309100  0.08988700  1
  Co  Co3  1  0.18320400  0.27309100  0.95629500  1
  O  O0  1  0.75093300  0.74961100  0.49589800  1
  O  O1  1  0.24906700  0.74496400  0.99867800  1
  O  O2  1  0.75371400  0.24961100  0.99867800  1
  O  O3  1  0.24628600  0.24496400  0.49589800  1
  O  O4  1  0.82616700  0.83663200  0.96796500  1
  O  O5  1  0.17383300  0.14179800  0.01046400  1
  O  O6  1  0.36866600  0.33663200  0.01046400  1
  O  O7  1  0.63133400  0.64179800  0.96796500  1
  O  O8  1  0.89717400  0.10253200  0.49970600  1
  O  O9  1  0.10282600  0.60253200  0.20535800  1
loop_
_geom_bond_atom_site_label_1
_geom_bond_atom_site_label_2
_geom_bond_distance
_geom_bond_site_symmetry_2
Ba0 O8 2.688942 1_555
Ba0 O3 2.764710 1_655
Ba0 O1 2.782414 1_655
Ba0 O6 2.799447 1_555
Ba0 O2 2.801637 1_554
Ba0 O0 2.818880 1_555
Ba0 O4 2.885152 1_555
Ba0 O4 2.955642 1_544
Ba0 O6 3.071250 1_656
Ba1 O9 2.688932 1_555
Ba1 O2 2.764719 1_454
Ba1 O0 2.782426 1_455
Ba1 O7 2.799447 1_555
Ba1 O3 2.801649 1_555
Ba1 O1 2.818895 1_555
Ba1 O5 2.885152 1_566
Ba1 O5 2.955642 1_555
Ba1 O7 3.071250 1_454
Ba2 O9 2.688940 1_555
Ba2 O1 2.764713 1_554
Ba2 O3 2.782405 1_565
Ba2 O4 2.799447 1_555
Ba2 O0 2.801633 1_555
Ba2 O2 2.818889 1_565
Ba2 O6 2.885152 1_566
Ba2 O6 2.955642 1_555
Ba2 O4 3.071250 1_454
Ba3 O8 2.688932 1_555
Ba3 O0 2.764725 1_545
Ba3 O2 2.782420 1_555
Ba3 O5 2.799447 1_555
Ba3 O1 2.801643 1_544
Ba3 O3 2.818902 1_555
Ba3 O7 2.885152 1_555
Ba3 O7 2.955642 1_544
Ba3 O5 3.071250 1_656
Co0 O2 2.005841 1_465
Co0 O3 2.005845 1_566
Co0 O0 2.007420 1_455
Co0 O1 2.007424 1_555
Co0 O4 2.662815 1_455
Co0 O5 2.662824 1_566
Co1 O1 2.005841 1_555
Co1 O0 2.005844 1_556
Co1 O3 2.007421 1_555
Co1 O2 2.007424 1_555
Co1 O6 2.662815 1_556
Co1 O7 2.662824 1_555
Co2 O7 1.780867 1_554
Co2 O4 1.780875 1_554
Co2 O9 1.892354 1_655
Co2 O8 1.919139 1_565
Co3 O5 1.780867 1_556
Co3 O6 1.780874 1_556
Co3 O8 1.892354 1_455
Co3 O9 1.919139 1_556
