# generated using pymatgen
data_Ta5N6
_symmetry_space_group_name_H-M   'P 1'
_cell_length_a   5.19125827
_cell_length_b   5.19125815
_cell_length_c   10.43794667
_cell_angle_alpha   90.00000000
_cell_angle_beta   90.00000000
_cell_angle_gamma   120.00000082
_symmetry_Int_Tables_number   1
_chemical_formula_structural   Ta5N6
_chemical_formula_sum   'Ta10 N12'
_cell_volume   243.60767327
_cell_formula_units_Z   2
loop_
 _symmetry_equiv_pos_site_id
 _symmetry_equiv_pos_as_xyz
  1  'x, y, z'
loop_
 _atom_site_type_symbol
 _atom_site_label
 _atom_site_symmetry_multiplicity
 _atom_site_fract_x
 _atom_site_fract_y
 _atom_site_fract_z
 _atom_site_occupancy
  Ta  Ta0  1  0.67619886  0.00000000  0.75000000  1
  Ta  Ta1  1  0.67619886  0.67619886  0.25000000  1
  Ta  Ta2  1  -0.00000000  0.32380114  0.25000000  1
  Ta  Ta3  1  0.00000000  0.67619886  0.75000000  1
  Ta  Ta4  1  0.32380114  0.32380114  0.75000000  1
  Ta  Ta5  1  0.32380114  0.00000000  0.25000000  1
  Ta  Ta6  1  0.33333300  0.66666700  0.50000000  1
  Ta  Ta7  1  0.66666700  0.33333300  -0.00000000  1
  Ta  Ta8  1  0.66666700  0.33333300  0.50000000  1
  Ta  Ta9  1  0.33333300  0.66666700  -0.00000000  1
  N  N0  1  0.34129929  0.34129929  0.37859569  1
  N  N1  1  0.65870071  0.00000000  0.37859569  1
  N  N2  1  0.00000000  0.65870071  0.37859569  1
  N  N3  1  -0.00000000  0.34129929  0.87859569  1
  N  N4  1  0.65870071  0.00000000  0.12140431  1
  N  N5  1  0.65870071  0.65870071  0.87859569  1
  N  N6  1  0.34129929  0.00000000  0.87859569  1
  N  N7  1  0.65870071  0.65870071  0.62140431  1
  N  N8  1  -0.00000000  0.34129929  0.62140431  1
  N  N9  1  0.00000000  0.65870071  0.12140431  1
  N  N10  1  0.34129929  0.00000000  0.62140431  1
  N  N11  1  0.34129929  0.34129929  0.12140431  1
loop_
_geom_bond_atom_site_label_1
_geom_bond_atom_site_label_2
_geom_bond_distance
_geom_bond_site_symmetry_2
N0 Ta6 2.128459 1_555
N0 Ta8 2.128459 1_555
N0 Ta5 2.188193 1_555
N0 Ta2 2.188193 1_555
N0 Ta1 2.196419 1_555
N1 Ta8 2.128455 1_555
N1 Ta6 2.128457 1_545
N1 Ta2 2.188193 1_655
N1 Ta1 2.188193 1_545
N1 Ta5 2.196420 1_555
N2 Ta6 2.128455 1_555
N2 Ta8 2.128457 1_455
N2 Ta5 2.188193 1_565
N2 Ta1 2.188193 1_455
N2 Ta2 2.196419 1_555
N3 Ta7 2.128455 1_456
N3 Ta9 2.128457 1_556
N3 Ta0 2.188193 1_455
N3 Ta4 2.188193 1_555
N3 Ta3 2.196419 1_555
N4 Ta7 2.128455 1_555
N4 Ta9 2.128457 1_545
N4 Ta2 2.188193 1_655
N4 Ta1 2.188193 1_545
N4 Ta5 2.196420 1_555
N5 Ta7 2.128459 1_556
N5 Ta9 2.128459 1_556
N5 Ta0 2.188193 1_565
N5 Ta3 2.188193 1_655
N5 Ta4 2.196419 1_555
N6 Ta9 2.128455 1_546
N6 Ta7 2.128457 1_556
N6 Ta3 2.188193 1_545
N6 Ta4 2.188193 1_555
N6 Ta0 2.196420 1_555
N7 Ta8 2.128459 1_555
N7 Ta6 2.128459 1_555
N7 Ta0 2.188193 1_565
N7 Ta3 2.188193 1_655
N7 Ta4 2.196419 1_555
N8 Ta8 2.128455 1_455
N8 Ta6 2.128457 1_555
N8 Ta0 2.188193 1_455
N8 Ta4 2.188193 1_555
N8 Ta3 2.196419 1_555
N9 Ta9 2.128455 1_555
N9 Ta7 2.128457 1_455
N9 Ta5 2.188193 1_565
N9 Ta1 2.188193 1_455
N9 Ta2 2.196419 1_555
N10 Ta6 2.128455 1_545
N10 Ta8 2.128457 1_555
N10 Ta3 2.188193 1_545
N10 Ta4 2.188193 1_555
N10 Ta0 2.196420 1_555
N11 Ta9 2.128459 1_555
N11 Ta7 2.128459 1_555
N11 Ta5 2.188193 1_555
N11 Ta2 2.188193 1_555
N11 Ta1 2.196419 1_555
