# generated using pymatgen
data_TbInPt2
_symmetry_space_group_name_H-M   'P 1'
_cell_length_a   4.79515384
_cell_length_b   4.79515384
_cell_length_c   8.40008800
_cell_angle_alpha   90.00000000
_cell_angle_beta   90.00000000
_cell_angle_gamma   119.99999786
_symmetry_Int_Tables_number   1
_chemical_formula_structural   TbInPt2
_chemical_formula_sum   'Tb2 In2 Pt4'
_cell_volume   167.27058186
_cell_formula_units_Z   2
loop_
 _symmetry_equiv_pos_site_id
 _symmetry_equiv_pos_as_xyz
  1  'x, y, z'
loop_
 _atom_site_type_symbol
 _atom_site_label
 _atom_site_symmetry_multiplicity
 _atom_site_fract_x
 _atom_site_fract_y
 _atom_site_fract_z
 _atom_site_occupancy
  Tb  Tb0  1  0.00000000  0.00000000  0.00000000  1
  Tb  Tb1  1  0.00000000  0.00000000  0.50000000  1
  In  In0  1  0.33333300  0.66666700  0.25000000  1
  In  In1  1  0.66666700  0.33333300  0.75000000  1
  Pt  Pt0  1  0.33333300  0.66666700  0.59099800  1
  Pt  Pt1  1  0.66666700  0.33333300  0.40900200  1
  Pt  Pt2  1  0.66666700  0.33333300  0.09099800  1
  Pt  Pt3  1  0.33333300  0.66666700  0.90900200  1
loop_
_geom_bond_atom_site_label_1
_geom_bond_atom_site_label_2
_geom_bond_distance
_geom_bond_site_symmetry_2
In0 Pt3 2.864413 1_554
In0 Pt0 2.864413 1_555
In0 Pt2 3.073824 1_455
In0 Pt1 3.073824 1_455
In0 Pt1 3.073824 1_565
In0 Pt2 3.073824 1_565
In0 Pt2 3.073832 1_555
In0 Pt1 3.073832 1_555
In0 Tb0 3.474849 1_565
In0 Tb1 3.474849 1_565
In0 Tb1 3.474853 1_665
In0 Tb0 3.474853 1_555
In0 Tb0 3.474853 1_665
In0 Tb1 3.474853 1_555
In1 Pt2 2.864413 1_556
In1 Pt1 2.864413 1_555
In1 Pt0 3.073824 1_655
In1 Pt3 3.073824 1_545
In1 Pt0 3.073824 1_545
In1 Pt3 3.073824 1_655
In1 Pt0 3.073832 1_555
In1 Pt3 3.073832 1_555
In1 Tb0 3.474849 1_656
In1 Tb1 3.474849 1_655
In1 Tb1 3.474853 1_665
In1 Tb0 3.474853 1_556
In1 Tb0 3.474853 1_666
In1 Tb1 3.474853 1_555
Pt0 Pt3 2.671262 1_555
Pt0 Tb1 2.872069 1_565
Pt0 Tb1 2.872073 1_555
Pt0 Tb1 2.872073 1_665
Pt1 Pt2 2.671262 1_555
Pt1 Tb1 2.872069 1_655
Pt1 Tb1 2.872073 1_555
Pt1 Tb1 2.872073 1_665
Pt2 Tb0 2.872069 1_655
Pt2 Tb0 2.872073 1_555
Pt2 Tb0 2.872073 1_665
Pt3 Tb0 2.872069 1_566
Pt3 Tb0 2.872073 1_556
Pt3 Tb0 2.872073 1_666
