# generated using pymatgen
data_V2Re2O11
_symmetry_space_group_name_H-M   'P 1'
_cell_length_a   7.79942742
_cell_length_b   7.79942742
_cell_length_c   9.37355600
_cell_angle_alpha   90.00000000
_cell_angle_beta   90.00000000
_cell_angle_gamma   127.83995949
_symmetry_Int_Tables_number   1
_chemical_formula_structural   V2Re2O11
_chemical_formula_sum   'V4 Re4 O22'
_cell_volume   450.30524626
_cell_formula_units_Z   2
loop_
 _symmetry_equiv_pos_site_id
 _symmetry_equiv_pos_as_xyz
  1  'x, y, z'
loop_
 _atom_site_type_symbol
 _atom_site_label
 _atom_site_symmetry_multiplicity
 _atom_site_fract_x
 _atom_site_fract_y
 _atom_site_fract_z
 _atom_site_occupancy
  V  V0  1  0.79254800  0.20745200  0.21651900  1
  V  V1  1  0.48236600  0.51763400  0.54853700  1
  V  V2  1  0.51763400  0.48236600  0.04853700  1
  V  V3  1  0.20745200  0.79254800  0.71651900  1
  Re  Re0  1  0.00097100  0.99902900  0.52710200  1
  Re  Re1  1  0.26131500  0.73868500  0.13352000  1
  Re  Re2  1  0.99902900  0.00097100  0.02710200  1
  Re  Re3  1  0.73868500  0.26131500  0.63352000  1
  O  O0  1  0.55168500  0.44831500  0.21448600  1
  O  O1  1  0.86944200  0.13055800  0.63208900  1
  O  O2  1  0.19821100  0.28398600  0.47366100  1
  O  O3  1  0.93527300  0.06472700  0.19406900  1
  O  O4  1  0.77308500  0.22691500  0.39316700  1
  O  O5  1  0.71601400  0.80178900  0.47366100  1
  O  O6  1  0.13055800  0.86944200  0.13208900  1
  O  O7  1  0.71366000  0.28634000  0.81319000  1
  O  O8  1  0.22691500  0.77308500  0.89316700  1
  O  O9  1  0.38543400  0.61456600  0.05833600  1
  O  O10  1  0.28398600  0.19821100  0.97366100  1
  O  O11  1  0.44831500  0.55168500  0.71448600  1
  O  O12  1  0.45940200  0.98163700  0.61647700  1
  O  O13  1  0.54059800  0.01836300  0.11647700  1
  O  O14  1  0.80178900  0.71601400  0.97366100  1
  O  O15  1  0.98163700  0.45940200  0.11647700  1
  O  O16  1  0.01836300  0.54059800  0.61647700  1
  O  O17  1  0.61456600  0.38543400  0.55833600  1
  O  O18  1  0.28634000  0.71366000  0.31319000  1
  O  O19  1  0.06472700  0.93527300  0.69406900  1
  O  O20  1  0.90219900  0.09780100  0.91470900  1
  O  O21  1  0.09780100  0.90219900  0.41470900  1
loop_
_geom_bond_atom_site_label_1
_geom_bond_atom_site_label_2
_geom_bond_distance
_geom_bond_site_symmetry_2
O0 V2 1.627047 1_555
O1 Re3 1.832032 1_555
O1 Re0 2.089106 1_645
O2 Re0 1.833620 1_545
O2 V1 1.941659 1_555
O3 Re2 1.802046 1_555
O3 V0 2.010704 1_555
O4 V0 1.678123 1_555
O4 Re3 2.303938 1_555
O5 Re0 1.833620 1_655
O5 V1 1.941659 1_555
O6 Re1 1.832032 1_555
O6 Re2 2.089106 1_465
O7 Re3 1.720256 1_555
O8 V3 1.678123 1_555
O8 Re1 2.303938 1_556
O9 V2 1.854477 1_555
O9 Re1 1.876357 1_555
O10 Re2 1.833620 1_456
O10 V2 1.941659 1_556
O11 V1 1.627047 1_555
O12 V3 1.833081 1_555
O12 Re3 1.923231 1_565
O13 V0 1.833081 1_555
O13 Re1 1.923231 1_545
O14 Re2 1.833620 1_566
O14 V2 1.941659 1_556
O15 V0 1.833081 1_555
O15 Re1 1.923231 1_655
O16 V3 1.833081 1_555
O16 Re3 1.923231 1_455
O17 V1 1.854477 1_555
O17 Re3 1.876357 1_555
O18 Re1 1.720256 1_555
O19 Re0 1.802046 1_555
O19 V3 2.010704 1_555
O20 Re2 1.717672 1_556
O21 Re0 1.717672 1_555
