# generated using pymatgen
data_Cs3Tm11Te18
_symmetry_space_group_name_H-M   'P 1'
_cell_length_a   13.58269723
_cell_length_b   13.58269723
_cell_length_c   20.33101432
_cell_angle_alpha   79.99853338
_cell_angle_beta   79.99853338
_cell_angle_gamma   18.45963277
_symmetry_Int_Tables_number   1
_chemical_formula_structural   Cs3Tm11Te18
_chemical_formula_sum   'Cs3 Tm11 Te18'
_cell_volume   1169.13074921
_cell_formula_units_Z   1
loop_
 _symmetry_equiv_pos_site_id
 _symmetry_equiv_pos_as_xyz
  1  'x, y, z'
loop_
 _atom_site_type_symbol
 _atom_site_label
 _atom_site_symmetry_multiplicity
 _atom_site_fract_x
 _atom_site_fract_y
 _atom_site_fract_z
 _atom_site_occupancy
  Cs  Cs0  1  0.00000000  0.00000000  -0.00000000  1
  Cs  Cs1  1  0.30407429  0.30407429  0.59163543  1
  Cs  Cs2  1  0.69592571  0.69592571  0.40836457  1
  Tm  Tm0  1  0.50000000  0.50000000  0.50000000  1
  Tm  Tm1  1  0.03242485  0.03242485  0.24120641  1
  Tm  Tm2  1  0.96757515  0.96757515  0.75879359  1
  Tm  Tm3  1  0.65354085  0.65354085  0.77525624  1
  Tm  Tm4  1  0.34645915  0.34645915  0.22474376  1
  Tm  Tm5  1  0.33766094  0.33766094  0.81824585  1
  Tm  Tm6  1  0.66233906  0.66233906  0.18175415  1
  Tm  Tm7  1  0.20352324  0.20352324  0.92885663  1
  Tm  Tm8  1  0.79647676  0.79647676  0.07114337  1
  Tm  Tm9  1  0.09278823  0.09278823  0.62705856  1
  Tm  Tm10  1  0.90721177  0.90721177  0.37294144  1
  Te  Te0  1  0.07590960  0.07590960  0.78065980  1
  Te  Te1  1  0.92409040  0.92409040  0.21934020  1
  Te  Te2  1  0.50559275  0.50559275  0.64984765  1
  Te  Te3  1  0.49440725  0.49440725  0.35015235  1
  Te  Te4  1  0.23183112  0.23183112  0.77774908  1
  Te  Te5  1  0.76816888  0.76816888  0.22225092  1
  Te  Te6  1  0.08018261  0.08018261  0.48472707  1
  Te  Te7  1  0.91981739  0.91981739  0.51527293  1
  Te  Te8  1  0.13403902  0.13403902  0.28089652  1
  Te  Te9  1  0.86596098  0.86596098  0.71910348  1
  Te  Te10  1  0.43881008  0.43881008  0.85980542  1
  Te  Te11  1  0.56118992  0.56118992  0.14019458  1
  Te  Te12  1  0.62898779  0.62898779  0.92915956  1
  Te  Te13  1  0.37101221  0.37101221  0.07084044  1
  Te  Te14  1  0.79105656  0.79105656  0.92249210  1
  Te  Te15  1  0.20894344  0.20894344  0.07750790  1
  Te  Te16  1  0.32839870  0.32839870  0.37894287  1
  Te  Te17  1  0.67160130  0.67160130  0.62105713  1
loop_
_geom_bond_atom_site_label_1
_geom_bond_atom_site_label_2
_geom_bond_distance
_geom_bond_site_symmetry_2
Cs0 Te12 4.126724 1_454
Cs0 Te12 4.126724 1_544
Cs0 Te13 4.126724 1_455
Cs0 Te13 4.126724 1_545
Cs0 Te10 4.148271 1_544
Cs0 Te10 4.148271 1_454
Cs0 Te11 4.148271 1_545
Cs0 Te11 4.148271 1_455
Cs1 Te7 3.884940 1_545
Cs1 Te7 3.884940 1_455
Cs1 Te4 3.935829 1_555
Cs1 Te9 3.966033 1_545
Cs1 Te9 3.966033 1_455
Cs1 Te17 4.119916 1_545
Cs1 Te17 4.119916 1_455
Cs1 Te16 4.258178 1_555
Cs2 Te6 3.884940 1_565
Cs2 Te6 3.884940 1_655
Cs2 Te5 3.935829 1_555
Cs2 Te8 3.966033 1_655
Cs2 Te8 3.966033 1_565
Cs2 Te16 4.119916 1_565
Cs2 Te16 4.119916 1_655
Cs2 Te17 4.258178 1_555
Te0 Tm3 3.001807 1_545
Te0 Tm3 3.001807 1_455
Te0 Tm2 3.014997 1_445
Te0 Tm9 3.075675 1_555
Te1 Tm4 3.001807 1_565
Te1 Tm4 3.001807 1_655
Te1 Tm1 3.014997 1_665
Te1 Tm10 3.075675 1_555
Te2 Tm0 3.076485 1_555
Te2 Tm2 3.145951 1_545
Te2 Tm2 3.145951 1_455
Te2 Tm9 3.169564 1_655
Te2 Tm9 3.169564 1_565
Te3 Tm0 3.076485 1_555
Te3 Tm1 3.145951 1_565
Te3 Tm1 3.145951 1_655
Te3 Tm10 3.169564 1_455
Te3 Tm10 3.169564 1_545
Te4 Tm3 3.032019 1_545
Te4 Tm3 3.032019 1_455
Te4 Tm7 3.032122 1_555
Te4 Tm5 3.090718 1_555
Te5 Tm4 3.032019 1_565
Te5 Tm4 3.032019 1_655
Te5 Tm8 3.032122 1_555
Te5 Tm6 3.090718 1_555
Te6 Tm9 2.971900 1_555
Te6 Tm0 3.038129 1_545
Te6 Tm0 3.038129 1_455
Te7 Tm10 2.971900 1_555
Te7 Tm0 3.038129 1_565
Te7 Tm0 3.038129 1_655
Te8 Tm6 2.974349 1_545
Te8 Tm6 2.974349 1_455
Te8 Tm1 2.974655 1_555
Te9 Tm5 2.974349 1_565
Te9 Tm5 2.974349 1_655
Te9 Tm2 2.974655 1_555
Te10 Tm5 2.979312 1_555
Te10 Tm2 3.000223 1_545
Te10 Tm2 3.000223 1_455
Te11 Tm6 2.979312 1_555
Te11 Tm1 3.000223 1_655
Te11 Tm1 3.000223 1_565
Te12 Tm7 2.955717 1_565
Te12 Tm7 2.955717 1_655
Te12 Tm3 3.082080 1_555
Te13 Tm8 2.955717 1_545
Te13 Tm8 2.955717 1_455
Te13 Tm4 3.082080 1_555
Te14 Tm8 3.051159 1_556
Te14 Tm5 3.141311 1_655
Te14 Tm5 3.141311 1_565
Te14 Tm7 3.188256 1_655
Te14 Tm7 3.188256 1_565
Te15 Tm7 3.051159 1_554
Te15 Tm6 3.141311 1_545
Te15 Tm6 3.141311 1_455
Te15 Tm8 3.188256 1_545
Te15 Tm8 3.188256 1_455
Te16 Tm10 3.022636 1_545
Te16 Tm10 3.022636 1_455
Te16 Tm4 3.086849 1_555
Te17 Tm9 3.022636 1_565
Te17 Tm9 3.022636 1_655
Te17 Tm3 3.086849 1_555
