# generated using pymatgen
data_LaMnO3
_symmetry_space_group_name_H-M   'P 1'
_cell_length_a   5.57487583
_cell_length_b   5.57487795
_cell_length_c   8.82672443
_cell_angle_alpha   71.59227220
_cell_angle_beta   71.59269584
_cell_angle_gamma   89.99493466
_symmetry_Int_Tables_number   1
_chemical_formula_structural   LaMnO3
_chemical_formula_sum   'La4 Mn4 O12'
_cell_volume   245.45715843
_cell_formula_units_Z   4
loop_
 _symmetry_equiv_pos_site_id
 _symmetry_equiv_pos_as_xyz
  1  'x, y, z'
loop_
 _atom_site_type_symbol
 _atom_site_label
 _atom_site_symmetry_multiplicity
 _atom_site_fract_x
 _atom_site_fract_y
 _atom_site_fract_z
 _atom_site_occupancy
  La  La0  1  0.75000400  0.75000200  0.49999600  1
  La  La1  1  0.49993500  0.50006100  0.00000900  1
  La  La2  1  0.25000200  0.25000200  0.49999700  1
  La  La3  1  0.00006000  0.99993300  0.00000700  1
  Mn  Mn0  1  0.37417300  0.87417300  0.25164200  1
  Mn  Mn1  1  0.12583100  0.62583400  0.74835200  1
  Mn  Mn2  1  0.62618000  0.12617400  0.74760700  1
  Mn  Mn3  1  0.87382700  0.37383400  0.25235000  1
  O  O0  1  0.88569400  0.38569500  0.74675200  1
  O  O1  1  0.61428900  0.11428900  0.25326500  1
  O  O2  1  0.36754000  0.86753900  0.74680000  1
  O  O3  1  0.13246200  0.63246200  0.25321800  1
  O  O4  1  0.74997200  0.24997200  0.50006100  1
  O  O5  1  0.50097300  0.00097300  0.99792700  1
  O  O6  1  0.24995500  0.74995500  0.50009100  1
  O  O7  1  0.99911700  0.49911800  0.00189300  1
  O  O8  1  0.36757500  0.38569800  0.74674000  1
  O  O9  1  0.13242700  0.11428600  0.25327700  1
  O  O10  1  0.88569900  0.86757600  0.74674000  1
  O  O11  1  0.61428500  0.63242600  0.25327700  1
loop_
_geom_bond_atom_site_label_1
_geom_bond_atom_site_label_2
_geom_bond_distance
_geom_bond_site_symmetry_2
La0 O11 2.772500 1_555
La0 O1 2.772509 1_565
La0 O0 2.772631 1_555
La0 O10 2.772634 1_555
La0 O9 2.772645 1_665
La0 O3 2.772779 1_655
La0 O8 2.772785 1_555
La0 O2 2.772931 1_555
La0 O4 2.787425 1_555
La0 O6 2.787430 1_655
La0 O6 2.787446 1_555
La0 O4 2.787453 1_565
La1 O5 2.786769 1_564
La1 O7 2.786787 1_455
La1 O7 2.788168 1_555
La1 O5 2.788206 1_554
La1 O2 2.808343 1_554
La1 O3 2.808362 1_555
La1 O11 2.808991 1_555
La1 O8 2.809019 1_554
La1 O10 2.809316 1_554
La1 O1 2.809318 1_555
La1 O9 2.809325 1_555
La1 O0 2.809334 1_554
La2 O9 2.772498 1_555
La2 O1 2.772524 1_555
La2 O8 2.772626 1_555
La2 O11 2.772648 1_555
La2 O0 2.772652 1_455
La2 O10 2.772771 1_445
La2 O3 2.772776 1_555
La2 O2 2.772910 1_545
La2 O4 2.787427 1_455
La2 O6 2.787439 1_555
La2 O6 2.787439 1_545
La2 O4 2.787449 1_555
La3 O7 2.786766 1_455
La3 O5 2.786779 1_564
La3 O7 2.788192 1_465
La3 O5 2.788193 1_464
La3 O2 2.808349 1_554
La3 O3 2.808356 1_555
La3 O10 2.808989 1_454
La3 O9 2.809021 1_565
La3 O8 2.809312 1_564
La3 O0 2.809316 1_464
La3 O11 2.809329 1_455
La3 O1 2.809347 1_465
Mn0 O11 1.899464 1_555
Mn0 O9 1.899464 1_565
Mn0 O3 1.899579 1_555
Mn0 O1 1.899615 1_565
Mn0 O6 1.962196 1_555
Mn0 O5 2.003786 1_564
Mn1 O10 1.899522 1_455
Mn1 O8 1.899546 1_555
Mn1 O2 1.899641 1_555
Mn1 O0 1.899696 1_455
Mn1 O6 1.960711 1_555
Mn1 O7 2.002412 1_456
Mn2 O4 1.955064 1_555
Mn2 O5 1.976973 1_555
Mn2 O10 2.042356 1_545
Mn2 O2 2.042396 1_545
Mn2 O8 2.042403 1_555
Mn2 O0 2.042785 1_555
Mn3 O4 1.956367 1_555
Mn3 O7 1.978055 1_555
Mn3 O11 2.042424 1_555
Mn3 O9 2.042479 1_655
Mn3 O3 2.042591 1_655
Mn3 O1 2.042739 1_555
