# generated using pymatgen
data_NaNd9(Si3O13)2
_symmetry_space_group_name_H-M   'P 1'
_cell_length_a   9.65233001
_cell_length_b   9.65233001
_cell_length_c   7.10637200
_cell_angle_alpha   90.00000000
_cell_angle_beta   90.00000000
_cell_angle_gamma   120.00000008
_symmetry_Int_Tables_number   1
_chemical_formula_structural   NaNd9(Si3O13)2
_chemical_formula_sum   'Na1 Nd9 Si6 O26'
_cell_volume   573.38046595
_cell_formula_units_Z   1
loop_
 _symmetry_equiv_pos_site_id
 _symmetry_equiv_pos_as_xyz
  1  'x, y, z'
loop_
 _atom_site_type_symbol
 _atom_site_label
 _atom_site_symmetry_multiplicity
 _atom_site_fract_x
 _atom_site_fract_y
 _atom_site_fract_z
 _atom_site_occupancy
  Na  Na0  1  0.66666700  0.33333300  0.49484300  1
  Nd  Nd0  1  0.00000000  0.00000000  0.99918200  1
  Nd  Nd1  1  0.00000000  0.00000000  0.49949600  1
  Nd  Nd2  1  0.66666700  0.33333300  0.99793300  1
  Nd  Nd3  1  0.57347700  0.67327500  0.74781200  1
  Nd  Nd4  1  0.32672500  0.90020200  0.74781200  1
  Nd  Nd5  1  0.09979800  0.42652300  0.74781200  1
  Nd  Nd6  1  0.08851200  0.65553600  0.25145300  1
  Nd  Nd7  1  0.34446400  0.43297600  0.25145300  1
  Nd  Nd8  1  0.56702400  0.91148800  0.25145300  1
  Si  Si0  1  0.36335400  0.29500300  0.75022000  1
  Si  Si1  1  0.70499700  0.06835000  0.75022000  1
  Si  Si2  1  0.93165000  0.63664600  0.75022000  1
  Si  Si3  1  0.30370800  0.03624000  0.24708200  1
  Si  Si4  1  0.96376000  0.26746800  0.24708200  1
  Si  Si5  1  0.73253200  0.69629200  0.24708200  1
  O  O0  1  0.41146200  0.41910500  0.57163200  1
  O  O1  1  0.58089500  0.99235700  0.57163200  1
  O  O2  1  0.00764300  0.58853800  0.57163200  1
  O  O3  1  0.23178900  0.91437300  0.06339300  1
  O  O4  1  0.08562700  0.31741500  0.06339300  1
  O  O5  1  0.68258500  0.76821100  0.06339300  1
  O  O6  1  0.23820600  0.91911400  0.43465500  1
  O  O7  1  0.08088600  0.31909200  0.43465500  1
  O  O8  1  0.68090800  0.76179400  0.43465500  1
  O  O9  1  0.42412700  0.41450600  0.93602200  1
  O  O10  1  0.58549400  0.00962200  0.93602200  1
  O  O11  1  0.99037800  0.57587300  0.93602200  1
  O  O12  1  0.16711100  0.17536200  0.74927400  1
  O  O13  1  0.82463800  0.99174900  0.74927400  1
  O  O14  1  0.00825100  0.83288900  0.74927400  1
  O  O15  1  0.49603400  0.14498400  0.23985700  1
  O  O16  1  0.85501600  0.35105000  0.23985700  1
  O  O17  1  0.64895000  0.50396600  0.23985700  1
  O  O18  1  0.33333300  0.66666700  0.75641700  1
  O  O19  1  0.33333300  0.66666700  0.25112800  1
  O  O20  1  0.45491900  0.19197700  0.75916600  1
  O  O21  1  0.80802300  0.26294200  0.75916600  1
  O  O22  1  0.73705800  0.54508100  0.75916600  1
  O  O23  1  0.20573900  0.13651100  0.24975900  1
  O  O24  1  0.86348900  0.06922800  0.24975900  1
  O  O25  1  0.93077200  0.79426100  0.24975900  1
loop_
_geom_bond_atom_site_label_1
_geom_bond_atom_site_label_2
_geom_bond_distance
_geom_bond_site_symmetry_2
Na0 O16 2.511360 1_555
Na0 O15 2.511363 1_555
Na0 O17 2.511367 1_555
Na0 O21 2.603574 1_555
Na0 O20 2.603579 1_555
Na0 O22 2.603581 1_555
Nd0 O12 2.427049 1_555
Nd0 O13 2.427049 1_445
Nd0 O14 2.427049 1_545
Nd0 O23 2.496807 1_556
Nd0 O25 2.496807 1_446
Nd0 O24 2.496807 1_456
Nd0 O4 2.783151 1_556
Nd0 O5 2.783153 1_446
Nd0 O3 2.783160 1_546
Nd1 O12 2.426373 1_555
Nd1 O13 2.426373 1_445
Nd1 O14 2.426373 1_545
Nd1 O23 2.492553 1_555
Nd1 O25 2.492553 1_445
Nd1 O24 2.492553 1_455
Nd1 O8 2.811316 1_445
Nd1 O7 2.811316 1_555
Nd1 O6 2.811316 1_545
Nd2 O16 2.445230 1_556
Nd2 O15 2.445233 1_556
Nd2 O17 2.445237 1_556
Nd2 O21 2.475745 1_555
Nd2 O20 2.475751 1_555
Nd2 O22 2.475752 1_555
Nd2 O10 2.849954 1_555
Nd2 O11 2.849959 1_555
Nd2 O9 2.849973 1_555
Nd3 O18 2.287543 1_555
Nd3 O8 2.423173 1_555
Nd3 O22 2.446298 1_555
Nd3 O5 2.452179 1_556
Nd3 O0 2.489038 1_555
Nd3 O9 2.550488 1_555
Nd3 O13 2.806164 1_555
Nd4 O18 2.287533 1_555
Nd4 O6 2.423173 1_555
Nd4 O20 2.446298 1_565
Nd4 O3 2.452177 1_556
Nd4 O1 2.489038 1_555
Nd4 O10 2.550487 1_565
Nd4 O14 2.806164 1_555
Nd5 O18 2.287538 1_555
Nd5 O7 2.423173 1_555
Nd5 O21 2.446298 1_455
Nd5 O4 2.452181 1_556
Nd5 O2 2.489038 1_555
Nd5 O11 2.550494 1_455
Nd5 O12 2.806164 1_555
Nd6 O19 2.311248 1_555
Nd6 O2 2.387416 1_555
Nd6 O11 2.405156 1_454
Nd6 O25 2.479927 1_455
Nd6 O3 2.546635 1_555
Nd6 O6 2.565016 1_555
Nd6 O16 2.664615 1_455
Nd7 O19 2.311258 1_555
Nd7 O0 2.387416 1_555
Nd7 O9 2.405153 1_554
Nd7 O23 2.479927 1_555
Nd7 O4 2.546635 1_555
Nd7 O7 2.565016 1_555
Nd7 O17 2.664615 1_555
Nd8 O19 2.311252 1_555
Nd8 O1 2.387416 1_555
Nd8 O10 2.405157 1_564
Nd8 O24 2.479927 1_565
Nd8 O5 2.546642 1_555
Nd8 O8 2.565016 1_555
Nd8 O15 2.664615 1_565
O0 Si0 1.644669 1_555
O1 Si1 1.644668 1_565
O2 Si2 1.644663 1_455
O3 Si3 1.659210 1_565
O4 Si4 1.659210 1_455
O5 Si5 1.659205 1_555
O6 Si3 1.655254 1_565
O7 Si4 1.655254 1_455
O8 Si5 1.655254 1_555
O9 Si0 1.655713 1_555
O10 Si1 1.655714 1_555
O11 Si2 1.655703 1_555
O12 Si0 1.653539 1_555
O13 Si1 1.653531 1_565
O14 Si2 1.653540 1_455
O15 Si3 1.613081 1_555
O16 Si4 1.613082 1_555
O17 Si5 1.613081 1_555
O20 Si0 1.628799 1_555
O21 Si1 1.628807 1_555
O22 Si2 1.628808 1_555
O23 Si3 1.657267 1_555
O24 Si4 1.657267 1_555
O25 Si5 1.657267 1_555
