# generated using pymatgen
data_Sr2InOsO6
_symmetry_space_group_name_H-M   'P 1'
_cell_length_a   5.76927300
_cell_length_b   5.79113400
_cell_length_c   9.97593972
_cell_angle_alpha   90.00000000
_cell_angle_beta   125.09586721
_cell_angle_gamma   90.00000000
_symmetry_Int_Tables_number   1
_chemical_formula_structural   Sr2InOsO6
_chemical_formula_sum   'Sr4 In2 Os2 O12'
_cell_volume   272.70513756
_cell_formula_units_Z   2
loop_
 _symmetry_equiv_pos_site_id
 _symmetry_equiv_pos_as_xyz
  1  'x, y, z'
loop_
 _atom_site_type_symbol
 _atom_site_label
 _atom_site_symmetry_multiplicity
 _atom_site_fract_x
 _atom_site_fract_y
 _atom_site_fract_z
 _atom_site_occupancy
  Sr  Sr0  1  0.25644000  0.03335600  0.75066100  1
  Sr  Sr1  1  0.25644000  0.46664400  0.25066100  1
  Sr  Sr2  1  0.74356000  0.96664400  0.24933900  1
  Sr  Sr3  1  0.74356000  0.53335600  0.74933900  1
  In  In0  1  0.00000000  0.50000000  0.50000000  1
  In  In1  1  0.00000000  0.00000000  0.00000000  1
  Os  Os0  1  0.50000000  0.00000000  0.50000000  1
  Os  Os1  1  0.50000000  0.50000000  0.00000000  1
  O  O0  1  0.18921500  0.48470700  0.76183000  1
  O  O1  1  0.18921500  0.01529300  0.26183000  1
  O  O2  1  0.81078500  0.51529300  0.23817000  1
  O  O3  1  0.81078500  0.98470700  0.73817000  1
  O  O4  1  0.73808500  0.20111100  0.46201200  1
  O  O5  1  0.73808500  0.29888900  0.96201200  1
  O  O6  1  0.26191500  0.79888900  0.53798800  1
  O  O7  1  0.26191500  0.70111100  0.03798800  1
  O  O8  1  0.66097400  0.72283500  0.46201500  1
  O  O9  1  0.66097400  0.77716500  0.96201500  1
  O  O10  1  0.33902600  0.27716500  0.53798500  1
  O  O11  1  0.33902600  0.22283500  0.03798500  1
loop_
_geom_bond_atom_site_label_1
_geom_bond_atom_site_label_2
_geom_bond_distance
_geom_bond_site_symmetry_2
In0 O0 2.177914 1_555
In0 O2 2.177914 1_455
In0 O6 2.182768 1_555
In0 O4 2.182768 1_455
In0 O8 2.186848 1_455
In0 O10 2.186848 1_555
In1 O3 2.177914 1_444
In1 O1 2.177914 1_555
In1 O5 2.182768 1_454
In1 O7 2.182768 1_545
In1 O11 2.186848 1_555
In1 O9 2.186848 1_444
O0 Os1 1.992299 1_556
O0 Sr3 2.517355 1_455
O0 Sr0 2.654177 1_555
O1 Os0 1.992299 1_555
O1 Sr2 2.517355 1_445
O1 Sr1 2.654177 1_555
O2 Os1 1.992299 1_555
O2 Sr1 2.517355 1_655
O2 Sr2 2.654177 1_555
O3 Os0 1.992299 1_565
O3 Sr0 2.517355 1_665
O3 Sr3 2.654177 1_555
O4 Os0 1.996329 1_555
O4 Sr2 2.534364 1_545
O4 Sr1 2.791871 1_555
O4 Sr0 2.876926 1_655
O5 Os1 1.996329 1_556
O5 Sr3 2.534364 1_555
O5 Sr0 2.791871 1_555
O5 Sr1 2.876926 1_656
O6 Os0 1.996329 1_565
O6 Sr0 2.534364 1_565
O6 Sr3 2.791871 1_555
O6 Sr2 2.876926 1_455
O7 Os1 1.996329 1_555
O7 Sr1 2.534364 1_555
O7 Sr2 2.791871 1_555
O7 Sr3 2.876926 1_454
O8 Os0 1.996771 1_565
O8 Sr1 2.536778 1_555
O8 Sr2 2.807906 1_555
O8 Sr3 2.841920 1_555
O9 Os1 1.996771 1_556
O9 Sr0 2.536778 1_565
O9 Sr3 2.807906 1_555
O9 Sr2 2.841920 1_556
O10 Os0 1.996771 1_555
O10 Sr3 2.536778 1_555
O10 Sr0 2.807906 1_555
O10 Sr1 2.841920 1_555
O11 Os1 1.996771 1_555
O11 Sr2 2.536778 1_545
O11 Sr1 2.807906 1_555
O11 Sr0 2.841920 1_554
