# generated using pymatgen
data_NdPaO4
_symmetry_space_group_name_H-M   'P 1'
_cell_length_a   6.66765459
_cell_length_b   6.66765459
_cell_length_c   6.66765459
_cell_angle_alpha   131.37012399
_cell_angle_beta   131.37012399
_cell_angle_gamma   71.22568553
_symmetry_Int_Tables_number   1
_chemical_formula_structural   NdPaO4
_chemical_formula_sum   'Nd2 Pa2 O8'
_cell_volume   163.42755681
_cell_formula_units_Z   2
loop_
 _symmetry_equiv_pos_site_id
 _symmetry_equiv_pos_as_xyz
  1  'x, y, z'
loop_
 _atom_site_type_symbol
 _atom_site_label
 _atom_site_symmetry_multiplicity
 _atom_site_fract_x
 _atom_site_fract_y
 _atom_site_fract_z
 _atom_site_occupancy
  Nd  Nd0  1  0.50000000  0.50000000  -0.00000000  1
  Nd  Nd1  1  0.25000000  0.75000000  0.50000000  1
  Pa  Pa0  1  -0.00000000  0.00000000  -0.00000000  1
  Pa  Pa1  1  0.75000000  0.25000000  0.50000000  1
  O  O0  1  0.37500000  0.35538694  0.48038694  1
  O  O1  1  0.87500000  0.89461206  0.51961206  1
  O  O2  1  0.10538794  0.12500000  0.48038794  1
  O  O3  1  0.64461306  0.12500000  0.01961206  1
  O  O4  1  0.87500000  0.35538794  0.98038694  1
  O  O5  1  0.64461306  0.62500000  0.51961206  1
  O  O6  1  0.10538794  0.62500000  0.98038794  1
  O  O7  1  0.37500000  0.89461206  0.01961206  1
loop_
_geom_bond_atom_site_label_1
_geom_bond_atom_site_label_2
_geom_bond_distance
_geom_bond_site_symmetry_2
Nd0 O5 2.431528 1_555
Nd0 O6 2.431531 1_554
Nd0 O1 2.431531 1_555
Nd0 O2 2.431531 1_554
Nd0 O7 2.431531 1_555
Nd0 O3 2.431531 1_555
Nd0 O4 2.431534 1_554
Nd0 O0 2.431534 1_554
Nd1 O2 2.431531 1_565
Nd1 O6 2.431531 1_554
Nd1 O7 2.431531 1_556
Nd1 O1 2.431531 1_455
Nd1 O4 2.431531 1_454
Nd1 O3 2.431534 1_566
Nd1 O0 2.431534 1_555
Nd1 O5 2.431537 1_555
O0 Pa0 2.306737 1_555
O0 Pa1 2.306737 1_555
O1 Pa1 2.306740 1_565
O1 Pa0 2.306740 1_666
O2 Pa0 2.306740 1_555
O2 Pa1 2.306740 1_455
O3 Pa0 2.306734 1_655
O3 Pa1 2.306744 1_555
O4 Pa1 2.306734 1_555
O4 Pa0 2.306744 1_656
O5 Pa0 2.306737 1_666
O5 Pa1 2.306740 1_555
O6 Pa1 2.306740 1_455
O6 Pa0 2.306740 1_566
O7 Pa1 2.306740 1_565
O7 Pa0 2.306740 1_565
