# generated using pymatgen
data_K3Ge7HO20
_symmetry_space_group_name_H-M   'P 1'
_cell_length_a   7.81090473
_cell_length_b   7.81090473
_cell_length_c   7.81090461
_cell_angle_alpha   89.44318555
_cell_angle_beta   89.44318555
_cell_angle_gamma   89.44318612
_symmetry_Int_Tables_number   1
_chemical_formula_structural   K3Ge7HO20
_chemical_formula_sum   'K3 Ge7 H1 O20'
_cell_volume   476.47803230
_cell_formula_units_Z   1
loop_
 _symmetry_equiv_pos_site_id
 _symmetry_equiv_pos_as_xyz
  1  'x, y, z'
loop_
 _atom_site_type_symbol
 _atom_site_label
 _atom_site_symmetry_multiplicity
 _atom_site_fract_x
 _atom_site_fract_y
 _atom_site_fract_z
 _atom_site_occupancy
  K  K0  1  0.98235400  0.45657400  0.98235400  1
  K  K1  1  0.98235400  0.98235400  0.45657400  1
  K  K2  1  0.45657400  0.98235400  0.98235400  1
  Ge  Ge0  1  0.98338500  0.48793000  0.48793000  1
  Ge  Ge1  1  0.48793000  0.98338500  0.48793000  1
  Ge  Ge2  1  0.48793000  0.48793000  0.98338500  1
  Ge  Ge3  1  0.35266700  0.35266700  0.35266700  1
  Ge  Ge4  1  0.32544500  0.63911800  0.63911800  1
  Ge  Ge5  1  0.63911800  0.63911800  0.32544500  1
  Ge  Ge6  1  0.63911800  0.32544500  0.63911800  1
  H  H0  1  0.54977000  0.54977000  0.54977000  1
  O  O0  1  0.81435000  0.81435000  0.81435000  1
  O  O1  1  0.80774500  0.23444100  0.23444100  1
  O  O2  1  0.23444100  0.23444100  0.80774500  1
  O  O3  1  0.23444100  0.80774500  0.23444100  1
  O  O4  1  0.11766300  0.35956400  0.35956400  1
  O  O5  1  0.35956400  0.11766300  0.35956400  1
  O  O6  1  0.35956400  0.35956400  0.11766300  1
  O  O7  1  0.09655700  0.62520500  0.62520500  1
  O  O8  1  0.34384100  0.87057100  0.62338200  1
  O  O9  1  0.34384100  0.62338200  0.87057100  1
  O  O10  1  0.87057100  0.62338200  0.34384100  1
  O  O11  1  0.62338200  0.87057100  0.34384100  1
  O  O12  1  0.62520500  0.62520500  0.09655700  1
  O  O13  1  0.87057100  0.34384100  0.62338200  1
  O  O14  1  0.62520500  0.09655700  0.62520500  1
  O  O15  1  0.62338200  0.34384100  0.87057100  1
  O  O16  1  0.62108800  0.62108800  0.62108800  1
  O  O17  1  0.61064800  0.38229700  0.38229700  1
  O  O18  1  0.38229700  0.38229700  0.61064800  1
  O  O19  1  0.38229700  0.61064800  0.38229700  1
loop_
_geom_bond_atom_site_label_1
_geom_bond_atom_site_label_2
_geom_bond_distance
_geom_bond_site_symmetry_2
K0 O1 2.945335 1_556
K0 O2 2.945335 1_655
K0 O13 3.083838 1_555
K0 O15 3.083838 1_555
K0 O7 3.196227 1_655
K0 O12 3.196227 1_556
K0 O4 3.220826 1_656
K0 O6 3.220826 1_656
K0 O10 3.230141 1_556
K0 O9 3.230141 1_655
K0 O0 3.338341 1_555
K1 O3 2.945335 1_655
K1 O1 2.945335 1_565
K1 O10 3.083838 1_555
K1 O11 3.083838 1_555
K1 O14 3.196227 1_565
K1 O7 3.196227 1_655
K1 O4 3.220826 1_665
K1 O5 3.220826 1_665
K1 O8 3.230141 1_655
K1 O13 3.230141 1_565
K1 O0 3.338341 1_555
K2 O3 2.945335 1_556
K2 O2 2.945335 1_565
K2 O8 3.083838 1_555
K2 O9 3.083838 1_555
K2 O14 3.196227 1_565
K2 O12 3.196227 1_556
K2 O5 3.220826 1_566
K2 O6 3.220826 1_566
K2 O11 3.230141 1_556
K2 O15 3.230141 1_565
K2 O0 3.338341 1_555
Ge0 O4 1.757653 1_655
Ge0 O7 1.772007 1_655
Ge0 O13 1.772154 1_555
Ge0 O10 1.772154 1_555
Ge1 O5 1.757653 1_565
Ge1 O14 1.772007 1_565
Ge1 O8 1.772154 1_555
Ge1 O11 1.772154 1_555
Ge2 O6 1.757653 1_556
Ge2 O12 1.772007 1_556
Ge2 O15 1.772154 1_555
Ge2 O9 1.772154 1_555
Ge3 O6 1.836143 1_555
Ge3 O5 1.836143 1_555
Ge3 O4 1.836143 1_555
Ge3 O18 2.046163 1_555
Ge3 O17 2.046163 1_555
Ge3 O19 2.046163 1_555
Ge4 O7 1.796583 1_555
Ge4 O9 1.817825 1_555
Ge4 O8 1.817825 1_555
Ge4 O19 2.064010 1_555
Ge4 O18 2.064010 1_555
Ge5 O12 1.796583 1_555
Ge5 O11 1.817825 1_555
Ge5 O10 1.817825 1_555
Ge5 O17 2.064010 1_555
Ge5 O19 2.064010 1_555
Ge6 O14 1.796583 1_555
Ge6 O15 1.817825 1_555
Ge6 O13 1.817825 1_555
Ge6 O17 2.064010 1_555
Ge6 O18 2.064010 1_555
H0 O16 0.974184 1_555
