# generated using pymatgen
data_NdHg2
_symmetry_space_group_name_H-M   'P 1'
_cell_length_a   9.98356410
_cell_length_b   9.98356562
_cell_length_c   7.04270064
_cell_angle_alpha   90.00000000
_cell_angle_beta   90.00000000
_cell_angle_gamma   120.00000167
_symmetry_Int_Tables_number   1
_chemical_formula_structural   NdHg2
_chemical_formula_sum   'Nd8 Hg16'
_cell_volume   607.91259346
_cell_formula_units_Z   8
loop_
 _symmetry_equiv_pos_site_id
 _symmetry_equiv_pos_as_xyz
  1  'x, y, z'
loop_
 _atom_site_type_symbol
 _atom_site_label
 _atom_site_symmetry_multiplicity
 _atom_site_fract_x
 _atom_site_fract_y
 _atom_site_fract_z
 _atom_site_occupancy
  Nd  Nd0_0  1  0.00000000  0.00000000  0.00000000  1
  Nd  Nd0_1  1  0.00000000  0.00000000  0.50000000  1
  Nd  Nd0_2  1  0.00000000  0.50000000  0.00000000  1
  Nd  Nd0_3  1  0.00000000  0.50000000  0.50000000  1
  Nd  Nd0_4  1  0.50000000  0.00000000  0.00000000  1
  Nd  Nd0_5  1  0.50000000  0.00000000  0.50000000  1
  Nd  Nd0_6  1  0.50000000  0.50000000  0.00000000  1
  Nd  Nd0_7  1  0.50000000  0.50000000  0.50000000  1
  Hg  Hg0_0  1  0.33333350  0.16666650  0.24997073  1
  Hg  Hg0_1  1  0.33333350  0.16666650  0.74997072  1
  Hg  Hg0_2  1  0.33333350  0.66666650  0.24997073  1
  Hg  Hg0_3  1  0.33333350  0.66666650  0.74997072  1
  Hg  Hg0_4  1  0.83333350  0.16666650  0.24997073  1
  Hg  Hg0_5  1  0.83333350  0.16666650  0.74997072  1
  Hg  Hg0_6  1  0.83333350  0.66666650  0.24997073  1
  Hg  Hg0_7  1  0.83333350  0.66666650  0.74997072  1
  Hg  Hg1_0  1  0.16666650  0.33333350  0.25002927  1
  Hg  Hg1_1  1  0.16666650  0.33333350  0.75002928  1
  Hg  Hg1_2  1  0.16666650  0.83333350  0.25002927  1
  Hg  Hg1_3  1  0.16666650  0.83333350  0.75002928  1
  Hg  Hg1_4  1  0.66666650  0.33333350  0.25002927  1
  Hg  Hg1_5  1  0.66666650  0.33333350  0.75002928  1
  Hg  Hg1_6  1  0.66666650  0.83333350  0.25002927  1
  Hg  Hg1_7  1  0.66666650  0.83333350  0.75002928  1
loop_
_geom_bond_atom_site_label_1
_geom_bond_atom_site_label_2
_geom_bond_distance
_geom_bond_site_symmetry_2
Nd0_0 Nd0_1 3.521350 1_554
Nd0_0 Nd0_1 3.521350 1_555
Nd0_2 Nd0_3 3.521350 1_554
Nd0_2 Nd0_3 3.521350 1_555
Nd0_4 Nd0_5 3.521350 1_555
Nd0_4 Nd0_5 3.521350 1_554
Nd0_6 Nd0_7 3.521350 1_554
Nd0_6 Nd0_7 3.521350 1_555
Hg0_0 Hg1_4 2.882004 1_555
Hg0_0 Hg1_2 2.882004 1_545
Hg0_0 Hg1_0 2.882013 1_555
Hg0_0 Nd0_4 3.377158 1_555
Hg0_0 Nd0_0 3.377162 1_555
Hg0_0 Nd0_6 3.377162 1_555
Hg0_0 Nd0_5 3.377373 1_555
Hg0_0 Nd0_1 3.377377 1_555
Hg0_0 Nd0_7 3.377377 1_555
Hg0_1 Hg1_5 2.882004 1_555
Hg0_1 Hg1_3 2.882004 1_545
Hg0_1 Hg1_1 2.882013 1_555
Hg0_1 Nd0_5 3.377158 1_555
Hg0_1 Nd0_1 3.377162 1_555
Hg0_1 Nd0_7 3.377162 1_555
Hg0_1 Nd0_4 3.377373 1_556
Hg0_1 Nd0_0 3.377377 1_556
Hg0_1 Nd0_6 3.377377 1_556
Hg0_2 Hg1_6 2.882004 1_555
Hg0_2 Hg1_0 2.882004 1_555
Hg0_2 Hg1_2 2.882013 1_555
Hg0_2 Nd0_6 3.377158 1_555
Hg0_2 Nd0_2 3.377162 1_555
Hg0_2 Nd0_4 3.377162 1_565
Hg0_2 Nd0_7 3.377373 1_555
Hg0_2 Nd0_3 3.377377 1_555
Hg0_2 Nd0_5 3.377377 1_565
Hg0_3 Hg1_7 2.882004 1_555
Hg0_3 Hg1_1 2.882004 1_555
Hg0_3 Hg1_3 2.882013 1_555
Hg0_3 Nd0_7 3.377158 1_555
Hg0_3 Nd0_3 3.377162 1_555
Hg0_3 Nd0_5 3.377162 1_565
Hg0_3 Nd0_6 3.377373 1_556
Hg0_3 Nd0_2 3.377377 1_556
Hg0_3 Nd0_4 3.377377 1_566
Hg0_4 Hg1_0 2.882004 1_655
Hg0_4 Hg1_6 2.882004 1_545
Hg0_4 Hg1_4 2.882013 1_555
Hg0_4 Nd0_0 3.377158 1_655
Hg0_4 Nd0_4 3.377162 1_555
Hg0_4 Nd0_2 3.377162 1_655
Hg0_4 Nd0_1 3.377373 1_655
Hg0_4 Nd0_5 3.377377 1_555
Hg0_4 Nd0_3 3.377377 1_655
Hg0_5 Hg1_1 2.882004 1_655
Hg0_5 Hg1_7 2.882004 1_545
Hg0_5 Hg1_5 2.882013 1_555
Hg0_5 Nd0_1 3.377158 1_655
Hg0_5 Nd0_5 3.377162 1_555
Hg0_5 Nd0_3 3.377162 1_655
Hg0_5 Nd0_0 3.377373 1_656
Hg0_5 Nd0_4 3.377377 1_556
Hg0_5 Nd0_2 3.377377 1_656
Hg0_6 Hg1_2 2.882004 1_655
Hg0_6 Hg1_4 2.882004 1_555
Hg0_6 Hg1_6 2.882013 1_555
Hg0_6 Nd0_2 3.377158 1_655
Hg0_6 Nd0_6 3.377162 1_555
Hg0_6 Nd0_0 3.377162 1_665
Hg0_6 Nd0_3 3.377373 1_655
Hg0_6 Nd0_7 3.377377 1_555
Hg0_6 Nd0_1 3.377377 1_665
Hg0_7 Hg1_3 2.882004 1_655
Hg0_7 Hg1_5 2.882004 1_555
Hg0_7 Hg1_7 2.882013 1_555
Hg0_7 Nd0_3 3.377158 1_655
Hg0_7 Nd0_7 3.377162 1_555
Hg0_7 Nd0_1 3.377162 1_665
Hg0_7 Nd0_2 3.377373 1_656
Hg0_7 Nd0_6 3.377377 1_556
Hg0_7 Nd0_0 3.377377 1_666
Hg1_0 Nd0_3 3.377158 1_555
Hg1_0 Nd0_7 3.377162 1_555
Hg1_0 Nd0_1 3.377162 1_555
Hg1_0 Nd0_2 3.377373 1_555
Hg1_0 Nd0_6 3.377377 1_555
Hg1_0 Nd0_0 3.377377 1_555
Hg1_1 Nd0_2 3.377158 1_556
Hg1_1 Nd0_6 3.377162 1_556
Hg1_1 Nd0_0 3.377162 1_556
Hg1_1 Nd0_3 3.377373 1_555
Hg1_1 Nd0_7 3.377377 1_555
Hg1_1 Nd0_1 3.377377 1_555
Hg1_2 Nd0_1 3.377158 1_565
Hg1_2 Nd0_5 3.377162 1_565
Hg1_2 Nd0_3 3.377162 1_555
Hg1_2 Nd0_0 3.377373 1_565
Hg1_2 Nd0_4 3.377377 1_565
Hg1_2 Nd0_2 3.377377 1_555
Hg1_3 Nd0_0 3.377158 1_566
Hg1_3 Nd0_4 3.377162 1_566
Hg1_3 Nd0_2 3.377162 1_556
Hg1_3 Nd0_1 3.377373 1_565
Hg1_3 Nd0_5 3.377377 1_565
Hg1_3 Nd0_3 3.377377 1_555
Hg1_4 Nd0_7 3.377158 1_555
Hg1_4 Nd0_3 3.377162 1_655
Hg1_4 Nd0_5 3.377162 1_555
Hg1_4 Nd0_6 3.377373 1_555
Hg1_4 Nd0_2 3.377377 1_655
Hg1_4 Nd0_4 3.377377 1_555
Hg1_5 Nd0_6 3.377158 1_556
Hg1_5 Nd0_2 3.377162 1_656
Hg1_5 Nd0_4 3.377162 1_556
Hg1_5 Nd0_7 3.377373 1_555
Hg1_5 Nd0_3 3.377377 1_655
Hg1_5 Nd0_5 3.377377 1_555
Hg1_6 Nd0_5 3.377158 1_565
Hg1_6 Nd0_1 3.377162 1_665
Hg1_6 Nd0_7 3.377162 1_555
Hg1_6 Nd0_4 3.377373 1_565
Hg1_6 Nd0_0 3.377377 1_665
Hg1_6 Nd0_6 3.377377 1_555
Hg1_7 Nd0_4 3.377158 1_566
Hg1_7 Nd0_0 3.377162 1_666
Hg1_7 Nd0_6 3.377162 1_556
Hg1_7 Nd0_5 3.377373 1_565
Hg1_7 Nd0_1 3.377377 1_665
Hg1_7 Nd0_7 3.377377 1_555
