# generated using pymatgen
data_LiCo3P3O13
_symmetry_space_group_name_H-M   'P 1'
_cell_length_a   6.10372000
_cell_length_b   7.21767400
_cell_length_c   10.55787385
_cell_angle_alpha   79.54012063
_cell_angle_beta   90.00000000
_cell_angle_gamma   90.00000000
_symmetry_Int_Tables_number   1
_chemical_formula_structural   LiCo3P3O13
_chemical_formula_sum   'Li2 Co6 P6 O26'
_cell_volume   457.39425932
_cell_formula_units_Z   2
loop_
 _symmetry_equiv_pos_site_id
 _symmetry_equiv_pos_as_xyz
  1  'x, y, z'
loop_
 _atom_site_type_symbol
 _atom_site_label
 _atom_site_symmetry_multiplicity
 _atom_site_fract_x
 _atom_site_fract_y
 _atom_site_fract_z
 _atom_site_occupancy
  Li  Li0  1  0.75000000  0.36102400  0.13510200  1
  Li  Li1  1  0.25000000  0.63897600  0.86489800  1
  Co  Co0  1  0.25000000  0.63284100  0.19082000  1
  Co  Co1  1  0.75000000  0.36715900  0.80918000  1
  Co  Co2  1  0.25000000  0.23242700  0.45414800  1
  Co  Co3  1  0.50000000  0.00000000  0.00000000  1
  Co  Co4  1  0.75000000  0.76757300  0.54585200  1
  Co  Co5  1  0.00000000  0.00000000  0.00000000  1
  P  P0  1  0.25000000  0.78061800  0.46464800  1
  P  P1  1  0.75000000  0.21938200  0.53535200  1
  P  P2  1  0.25000000  0.26536400  0.77699800  1
  P  P3  1  0.75000000  0.73463600  0.22300200  1
  P  P4  1  0.75000000  0.70071800  0.87810000  1
  P  P5  1  0.25000000  0.29928200  0.12190000  1
  O  O0  1  0.75000000  0.64754500  0.74153300  1
  O  O1  1  0.54886400  0.27634200  0.44703200  1
  O  O2  1  0.25000000  0.19657600  0.65024200  1
  O  O3  1  0.53689100  0.80451000  0.90075200  1
  O  O4  1  0.75000000  0.34593300  0.63820900  1
  O  O5  1  0.75000000  0.13415000  0.90341500  1
  O  O6  1  0.25000000  0.65406700  0.36179100  1
  O  O7  1  0.03689100  0.19549000  0.09924800  1
  O  O8  1  0.25000000  0.98894800  0.40233400  1
  O  O9  1  0.75000000  0.01105200  0.59766600  1
  O  O10  1  0.05783300  0.39146100  0.80571600  1
  O  O11  1  0.25000000  0.86585000  0.09658500  1
  O  O12  1  0.55783300  0.60853900  0.19428400  1
  O  O13  1  0.75000000  0.49339200  0.95577800  1
  O  O14  1  0.75000000  0.80342400  0.34975800  1
  O  O15  1  0.46310900  0.19549000  0.09924800  1
  O  O16  1  0.95113600  0.27634200  0.44703200  1
  O  O17  1  0.45113600  0.72365800  0.55296800  1
  O  O18  1  0.44216700  0.39146100  0.80571600  1
  O  O19  1  0.25000000  0.35245500  0.25846700  1
  O  O20  1  0.75000000  0.91650300  0.10985800  1
  O  O21  1  0.25000000  0.08349700  0.89014200  1
  O  O22  1  0.94216700  0.60853900  0.19428400  1
  O  O23  1  0.96310900  0.80451000  0.90075200  1
  O  O24  1  0.04886400  0.72365800  0.55296800  1
  O  O25  1  0.25000000  0.50660800  0.04422200  1
loop_
_geom_bond_atom_site_label_1
_geom_bond_atom_site_label_2
_geom_bond_distance
_geom_bond_site_symmetry_2
Li0 O13 1.959721 1_554
Li0 O7 2.191198 1_655
Li0 O15 2.191198 1_555
Li0 O12 2.315820 1_555
Li0 O22 2.315820 1_555
Li1 O25 1.959721 1_556
Li1 O3 2.191198 1_555
Li1 O23 2.191198 1_455
Li1 O18 2.315820 1_555
Li1 O10 2.315820 1_555
Co0 O11 1.791848 1_555
Co0 O6 1.839085 1_555
Co0 O12 1.886833 1_555
Co0 O22 1.886833 1_455
Co0 O25 1.933318 1_555
Co0 O19 2.020097 1_555
Co1 O5 1.791848 1_555
Co1 O4 1.839085 1_555
Co1 O10 1.886833 1_655
Co1 O18 1.886833 1_555
Co1 O13 1.933318 1_555
Co1 O0 2.020097 1_555
Co2 O1 1.850704 1_555
Co2 O16 1.850704 1_455
Co2 O8 1.933030 1_545
Co2 O2 2.039296 1_555
Co2 O19 2.090192 1_555
Co3 O15 1.917392 1_555
Co3 O3 1.917392 1_544
Co3 O21 1.945030 1_554
Co3 O20 1.945030 1_545
Co3 O11 1.986787 1_545
Co3 O5 1.986787 1_554
Co4 O24 1.850704 1_655
Co4 O17 1.850704 1_555
Co4 O9 1.933030 1_565
Co4 O14 2.039296 1_555
Co4 O0 2.090192 1_555
Co5 O7 1.917392 1_555
Co5 O23 1.917392 1_444
Co5 O21 1.945030 1_554
Co5 O20 1.945030 1_445
Co5 O11 1.986787 1_545
Co5 O5 1.986787 1_454
O0 P4 1.557937 1_555
O1 P1 1.551296 1_555
O2 P2 1.509547 1_555
O3 P4 1.541241 1_555
O4 P1 1.540699 1_555
O6 P0 1.540699 1_555
O7 P5 1.541241 1_555
O8 P0 1.527949 1_555
O9 P1 1.527949 1_555
O10 P2 1.547977 1_555
O12 P3 1.547977 1_555
O13 P4 1.570425 1_555
O14 P3 1.509547 1_555
O15 P5 1.541241 1_555
O16 P1 1.551296 1_555
O17 P0 1.551296 1_555
O18 P2 1.547977 1_555
O19 P5 1.557937 1_555
O20 P3 1.606454 1_555
O21 P2 1.606454 1_555
O22 P3 1.547977 1_555
O23 P4 1.541241 1_555
O24 P0 1.551296 1_555
O25 P5 1.570425 1_555
