# generated using pymatgen
data_Li7Mn2(CoO4)3
_symmetry_space_group_name_H-M   'P 1'
_cell_length_a   2.99546251
_cell_length_b   2.99546251
_cell_length_c   29.77590115
_cell_angle_alpha   87.67804228
_cell_angle_beta   87.67804228
_cell_angle_gamma   56.88771431
_symmetry_Int_Tables_number   1
_chemical_formula_structural   Li7Mn2(CoO4)3
_chemical_formula_sum   'Li7 Mn2 Co3 O12'
_cell_volume   223.54691306
_cell_formula_units_Z   1
loop_
 _symmetry_equiv_pos_site_id
 _symmetry_equiv_pos_as_xyz
  1  'x, y, z'
loop_
 _atom_site_type_symbol
 _atom_site_label
 _atom_site_symmetry_multiplicity
 _atom_site_fract_x
 _atom_site_fract_y
 _atom_site_fract_z
 _atom_site_occupancy
  Li  Li0  1  0.33340200  0.33340200  0.91659600  1
  Li  Li1  1  0.99552100  0.99552100  0.74755100  1
  Li  Li2  1  0.65704500  0.65704500  0.58249200  1
  Li  Li3  1  0.34571400  0.34571400  0.41661800  1
  Li  Li4  1  0.00134100  0.00134100  0.25046500  1
  Li  Li5  1  0.66903500  0.66903500  0.08651000  1
  Li  Li6  1  0.99988100  0.99988100  0.49940600  1
  Mn  Mn0  1  0.00060400  0.00060400  0.00090900  1
  Mn  Mn1  1  0.66458100  0.66458100  0.83292100  1
  Co  Co0  1  0.32953500  0.32953500  0.66719700  1
  Co  Co1  1  0.66798200  0.66798200  0.33177700  1
  Co  Co2  1  0.33546400  0.33546400  0.16761300  1
  O  O0  1  0.64056500  0.64056500  0.96227400  1
  O  O1  1  0.30890000  0.30890000  0.79537100  1
  O  O2  1  0.00660500  0.00660500  0.63125900  1
  O  O3  1  0.66574800  0.66574800  0.45624200  1
  O  O4  1  0.33661400  0.33661400  0.29295400  1
  O  O5  1  0.98056300  0.98056300  0.13052300  1
  O  O6  1  0.02344300  0.02344300  0.87190600  1
  O  O7  1  0.66364300  0.66364300  0.70614200  1
  O  O8  1  0.33459300  0.33459300  0.54279000  1
  O  O9  1  0.99253100  0.99253100  0.36779200  1
  O  O10  1  0.68761900  0.68761900  0.20301900  1
  O  O11  1  0.35906900  0.35906900  0.03967300  1
loop_
_geom_bond_atom_site_label_1
_geom_bond_atom_site_label_2
_geom_bond_distance
_geom_bond_site_symmetry_2
Li0 O6 2.153350 1_555
Li0 O0 2.161197 1_555
Li0 O6 2.164646 1_565
Li0 O6 2.164646 1_655
Li0 O0 2.188606 1_455
Li0 O0 2.188606 1_545
Li1 O7 2.059010 1_655
Li1 O7 2.059010 1_565
Li1 O7 2.185237 1_555
Li1 O1 2.213692 1_565
Li1 O1 2.213692 1_655
Li1 O1 2.229166 1_665
Li2 O8 2.050834 1_655
Li2 O8 2.050834 1_565
Li2 O8 2.113707 1_555
Li2 O2 2.160110 1_565
Li2 O2 2.160110 1_655
Li2 O2 2.397008 1_665
Li3 O3 2.055051 1_545
Li3 O3 2.055051 1_455
Li3 O3 2.101765 1_555
Li3 O9 2.154930 1_455
Li3 O9 2.154930 1_545
Li3 O9 2.413350 1_445
Li4 O4 2.070739 1_455
Li4 O4 2.070739 1_545
Li4 O10 2.206024 1_545
Li4 O10 2.206024 1_455
Li4 O4 2.219394 1_555
Li4 O10 2.223083 1_445
Li5 O5 2.146787 1_555
Li5 O5 2.149146 1_545
Li5 O5 2.149146 1_455
Li5 O11 2.195651 1_555
Li5 O11 2.203168 1_655
Li5 O11 2.203168 1_565
Li6 O3 2.085032 1_655
Li6 O3 2.085032 1_565
Li6 O8 2.087763 1_655
Li6 O8 2.087763 1_565
Li6 O3 2.226737 1_555
Li6 O8 2.233251 1_665
Mn0 O0 1.955602 1_454
Mn0 O0 1.955602 1_544
Mn0 O11 1.960710 1_545
Mn0 O11 1.960710 1_455
Mn0 O11 2.258045 1_555
Mn0 O0 2.263074 1_444
Mn1 O1 1.945584 1_655
Mn1 O1 1.945584 1_565
Mn1 O6 1.963740 1_565
Mn1 O6 1.963740 1_655
Mn1 O1 2.225681 1_555
Mn1 O6 2.263464 1_665
Co0 O2 1.989648 1_565
Co0 O2 1.989648 1_655
Co0 O7 2.012599 1_455
Co0 O7 2.012599 1_545
Co0 O2 2.051000 1_555
Co0 O7 2.151829 1_555
Co1 O9 1.987063 1_545
Co1 O9 1.987063 1_455
Co1 O4 2.016515 1_655
Co1 O4 2.016515 1_565
Co1 O9 2.059564 1_555
Co1 O4 2.137576 1_555
Co2 O10 1.917778 1_545
Co2 O10 1.917778 1_455
Co2 O5 1.939501 1_455
Co2 O5 1.939501 1_545
Co2 O10 2.175521 1_555
Co2 O5 2.214735 1_445
