# generated using pymatgen
data_Zr(CoGe)6
_symmetry_space_group_name_H-M   'P 1'
_cell_length_a   5.02304431
_cell_length_b   5.02304550
_cell_length_c   7.67525441
_cell_angle_alpha   90.00000000
_cell_angle_beta   90.00000000
_cell_angle_gamma   120.00001221
_symmetry_Int_Tables_number   1
_chemical_formula_structural   Zr(CoGe)6
_chemical_formula_sum   'Zr1 Co6 Ge6'
_cell_volume   167.70942879
_cell_formula_units_Z   1
loop_
 _symmetry_equiv_pos_site_id
 _symmetry_equiv_pos_as_xyz
  1  'x, y, z'
loop_
 _atom_site_type_symbol
 _atom_site_label
 _atom_site_symmetry_multiplicity
 _atom_site_fract_x
 _atom_site_fract_y
 _atom_site_fract_z
 _atom_site_occupancy
  Zr  Zr0  1  -0.00000000  0.00000000  0.00000000  1
  Co  Co0  1  -0.00000000  0.50000000  0.74980776  1
  Co  Co1  1  0.50000000  0.00000000  0.25019224  1
  Co  Co2  1  0.50000000  0.50000000  0.25019224  1
  Co  Co3  1  -0.00000000  0.50000000  0.25019224  1
  Co  Co4  1  0.50000000  0.00000000  0.74980776  1
  Co  Co5  1  0.50000000  0.50000000  0.74980776  1
  Ge  Ge0  1  0.66666700  0.33333300  0.50000000  1
  Ge  Ge1  1  -0.00000000  0.00000000  0.34010341  1
  Ge  Ge2  1  -0.00000000  0.00000000  0.65989659  1
  Ge  Ge3  1  0.33333300  0.66666700  0.00000000  1
  Ge  Ge4  1  0.66666700  0.33333300  0.00000000  1
  Ge  Ge5  1  0.33333300  0.66666700  0.50000000  1
loop_
_geom_bond_atom_site_label_1
_geom_bond_atom_site_label_2
_geom_bond_distance
_geom_bond_site_symmetry_2
Co0 Ge5 2.403906 1_555
Co0 Ge0 2.403906 1_455
Co0 Ge4 2.406260 1_456
Co0 Ge3 2.406260 1_556
Co0 Co4 2.511522 1_565
Co0 Co4 2.511522 1_455
Co0 Co5 2.511522 1_555
Co0 Co5 2.511522 1_455
Co0 Ge2 2.604606 1_555
Co0 Ge2 2.604606 1_565
Co0 Zr0 3.161528 1_556
Co0 Zr0 3.161528 1_566
Co1 Ge5 2.403906 1_545
Co1 Ge0 2.403906 1_555
Co1 Ge3 2.406260 1_545
Co1 Ge4 2.406260 1_555
Co1 Co3 2.511522 1_655
Co1 Co3 2.511522 1_545
Co1 Co2 2.511523 1_545
Co1 Co2 2.511523 1_555
Co1 Ge1 2.604605 1_655
Co1 Ge1 2.604605 1_555
Co1 Zr0 3.161527 1_555
Co1 Zr0 3.161527 1_655
Co2 Ge5 2.403908 1_555
Co2 Ge0 2.403908 1_555
Co2 Ge4 2.406263 1_555
Co2 Ge3 2.406263 1_555
Co2 Co3 2.511522 1_555
Co2 Co3 2.511522 1_655
Co2 Ge1 2.604605 1_665
Co2 Ge1 2.604605 1_555
Co2 Zr0 3.161527 1_665
Co2 Zr0 3.161527 1_555
Co3 Ge5 2.403906 1_555
Co3 Ge0 2.403906 1_455
Co3 Ge3 2.406260 1_555
Co3 Ge4 2.406260 1_455
Co3 Ge1 2.604606 1_565
Co3 Ge1 2.604606 1_555
Co3 Zr0 3.161528 1_555
Co3 Zr0 3.161528 1_565
Co4 Ge5 2.403906 1_545
Co4 Ge0 2.403906 1_555
Co4 Ge4 2.406260 1_556
Co4 Ge3 2.406260 1_546
Co4 Co5 2.511523 1_555
Co4 Co5 2.511523 1_545
Co4 Ge2 2.604605 1_555
Co4 Ge2 2.604605 1_655
Co4 Zr0 3.161527 1_656
Co4 Zr0 3.161527 1_556
Co5 Ge5 2.403908 1_555
Co5 Ge0 2.403908 1_555
Co5 Ge3 2.406263 1_556
Co5 Ge4 2.406263 1_556
Co5 Ge2 2.604605 1_555
Co5 Ge2 2.604605 1_665
Co5 Zr0 3.161527 1_556
Co5 Zr0 3.161527 1_666
Ge1 Ge2 2.454494 1_555
Ge1 Zr0 2.610380 1_555
Ge2 Zr0 2.610380 1_556
Ge3 Zr0 2.900054 1_565
Ge3 Zr0 2.900057 1_665
Ge3 Zr0 2.900058 1_555
Ge4 Zr0 2.900054 1_655
Ge4 Zr0 2.900057 1_555
Ge4 Zr0 2.900058 1_665
