# generated using pymatgen
data_La5Ir3
_symmetry_space_group_name_H-M   'P 1'
_cell_length_a   6.63062462
_cell_length_b   11.43455450
_cell_length_c   11.43455450
_cell_angle_alpha   90.00000000
_cell_angle_beta   90.00000000
_cell_angle_gamma   90.00000000
_symmetry_Int_Tables_number   1
_chemical_formula_structural   La5Ir3
_chemical_formula_sum   'La20 Ir12'
_cell_volume   866.94778121
_cell_formula_units_Z   4
loop_
 _symmetry_equiv_pos_site_id
 _symmetry_equiv_pos_as_xyz
  1  'x, y, z'
loop_
 _atom_site_type_symbol
 _atom_site_label
 _atom_site_symmetry_multiplicity
 _atom_site_fract_x
 _atom_site_fract_y
 _atom_site_fract_z
 _atom_site_occupancy
  La  La0  1  0.39870999  0.84296494  0.54328974  1
  La  La1  1  0.89870999  0.65703306  0.54328974  1
  La  La2  1  0.89870999  0.84296694  0.95671026  1
  La  La3  1  0.39870999  0.65703506  0.95671026  1
  La  La4  1  0.89870999  0.54328974  0.84296694  1
  La  La5  1  0.39870999  0.95671026  0.84296494  1
  La  La6  1  0.39870999  0.54328974  0.65703506  1
  La  La7  1  0.89870999  0.95671026  0.65703306  1
  La  La8  1  0.60129001  0.15703506  0.45671026  1
  La  La9  1  0.10129101  0.34296694  0.45671026  1
  La  La10  1  0.10129101  0.15703306  0.04328974  1
  La  La11  1  0.60129001  0.34296494  0.04328974  1
  La  La12  1  0.10129101  0.45671026  0.15703306  1
  La  La13  1  0.60129001  0.04328974  0.15703506  1
  La  La14  1  0.60129001  0.45671026  0.34296494  1
  La  La15  1  0.10129101  0.04328974  0.34296694  1
  La  La16  1  0.50000000  0.75000000  0.25000000  1
  La  La17  1  -0.00000000  0.75000000  0.25000000  1
  La  La18  1  -0.00000000  0.25000000  0.75000000  1
  La  La19  1  0.50000000  0.25000000  0.75000000  1
  Ir  Ir0  1  0.25000000  0.90363932  0.09636068  1
  Ir  Ir1  1  0.75000000  0.59636068  0.09636068  1
  Ir  Ir2  1  0.75000000  0.90363932  0.40363932  1
  Ir  Ir3  1  0.25000000  0.59636068  0.40363932  1
  Ir  Ir4  1  0.75000000  0.09636068  0.90363932  1
  Ir  Ir5  1  0.25000000  0.40363932  0.90363932  1
  Ir  Ir6  1  0.25000000  0.09636068  0.59636068  1
  Ir  Ir7  1  0.75000000  0.40363932  0.59636068  1
  Ir  Ir8  1  0.13304179  0.75000000  0.75000000  1
  Ir  Ir9  1  0.63304179  0.75000000  0.75000000  1
  Ir  Ir10  1  0.86695821  0.25000000  0.25000000  1
  Ir  Ir11  1  0.36695821  0.25000000  0.25000000  1
loop_
_geom_bond_atom_site_label_1
_geom_bond_atom_site_label_2
_geom_bond_distance
_geom_bond_site_symmetry_2
Ir0 La2 2.908043 1_454
Ir0 La13 2.908048 1_565
Ir0 La16 2.986720 1_555
Ir0 La17 2.986720 1_555
Ir0 La10 3.120209 1_565
Ir0 La5 3.120232 1_554
Ir0 La3 3.387256 1_554
Ir0 La15 3.387273 1_565
Ir1 La12 2.908048 1_655
Ir1 La3 2.908048 1_554
Ir1 La16 2.986720 1_555
Ir1 La17 2.986720 1_655
Ir1 La4 3.120211 1_554
Ir1 La11 3.120232 1_555
Ir1 La14 3.387256 1_555
Ir1 La2 3.387275 1_554
Ir2 La15 2.908048 1_665
Ir2 La0 2.908048 1_555
Ir2 La16 2.986720 1_555
Ir2 La17 2.986720 1_655
Ir2 La7 3.120211 1_555
Ir2 La8 3.120232 1_565
Ir2 La13 3.387256 1_565
Ir2 La1 3.387275 1_555
Ir3 La1 2.908043 1_455
Ir3 La14 2.908048 1_555
Ir3 La16 2.986720 1_555
Ir3 La17 2.986720 1_555
Ir3 La9 3.120209 1_555
Ir3 La6 3.120232 1_555
Ir3 La0 3.387256 1_555
Ir3 La12 3.387273 1_555
Ir4 La10 2.908048 1_656
Ir4 La5 2.908048 1_545
Ir4 La18 2.986720 1_655
Ir4 La19 2.986720 1_555
Ir4 La2 3.120211 1_545
Ir4 La13 3.120232 1_556
Ir4 La11 3.387256 1_556
Ir4 La7 3.387275 1_545
Ir5 La4 2.908043 1_455
Ir5 La11 2.908048 1_556
Ir5 La18 2.986720 1_555
Ir5 La19 2.986720 1_555
Ir5 La12 3.120209 1_556
Ir5 La3 3.120232 1_555
Ir5 La6 3.387256 1_555
Ir5 La10 3.387273 1_556
Ir6 La7 2.908043 1_445
Ir6 La8 2.908048 1_555
Ir6 La18 2.986720 1_555
Ir6 La19 2.986720 1_555
Ir6 La15 3.120209 1_555
Ir6 La0 3.120232 1_545
Ir6 La5 3.387256 1_545
Ir6 La9 3.387273 1_555
Ir7 La9 2.908048 1_655
Ir7 La6 2.908048 1_555
Ir7 La18 2.986720 1_655
Ir7 La19 2.986720 1_555
Ir7 La1 3.120211 1_555
Ir7 La14 3.120232 1_555
Ir7 La8 3.387256 1_555
Ir7 La4 3.387275 1_555
Ir8 La7 3.021759 1_455
Ir8 La1 3.021759 1_455
Ir8 La4 3.021759 1_455
Ir8 La2 3.021759 1_455
Ir8 La5 3.133661 1_555
Ir8 La6 3.133661 1_555
Ir8 La3 3.133661 1_555
Ir8 La0 3.133661 1_555
Ir9 La6 3.021751 1_555
Ir9 La3 3.021751 1_555
Ir9 La0 3.021751 1_555
Ir9 La5 3.021751 1_555
Ir9 La7 3.133669 1_555
Ir9 La1 3.133669 1_555
Ir9 La4 3.133669 1_555
Ir9 La2 3.133669 1_555
Ir10 La12 3.021762 1_655
Ir10 La15 3.021762 1_655
Ir10 La9 3.021762 1_655
Ir10 La10 3.021762 1_655
Ir10 La14 3.133661 1_555
Ir10 La11 3.133661 1_555
Ir10 La8 3.133661 1_555
Ir10 La13 3.133661 1_555
Ir11 La13 3.021751 1_555
Ir11 La14 3.021751 1_555
Ir11 La11 3.021751 1_555
Ir11 La8 3.021751 1_555
Ir11 La12 3.133665 1_555
Ir11 La9 3.133665 1_555
Ir11 La10 3.133665 1_555
Ir11 La15 3.133665 1_555
