# generated using pymatgen
data_KSc(WO4)2
_symmetry_space_group_name_H-M   'P 1'
_cell_length_a   7.52239672
_cell_length_b   7.52239672
_cell_length_c   7.36747453
_cell_angle_alpha   61.27794726
_cell_angle_beta   61.27794726
_cell_angle_gamma   85.77429086
_symmetry_Int_Tables_number   1
_chemical_formula_structural   KSc(WO4)2
_chemical_formula_sum   'K2 Sc2 W4 O16'
_cell_volume   313.84687203
_cell_formula_units_Z   2
loop_
 _symmetry_equiv_pos_site_id
 _symmetry_equiv_pos_as_xyz
  1  'x, y, z'
loop_
 _atom_site_type_symbol
 _atom_site_label
 _atom_site_symmetry_multiplicity
 _atom_site_fract_x
 _atom_site_fract_y
 _atom_site_fract_z
 _atom_site_occupancy
  K  K0  1  0.20783000  0.79217000  0.75000000  1
  K  K1  1  0.79217000  0.20783000  0.25000000  1
  Sc  Sc0  1  0.77896500  0.22103500  0.75000000  1
  Sc  Sc1  1  0.22103500  0.77896500  0.25000000  1
  W  W0  1  0.70285400  0.69321800  0.79801600  1
  W  W1  1  0.29714600  0.30678200  0.20198400  1
  W  W2  1  0.30678200  0.29714600  0.70198400  1
  W  W3  1  0.69321800  0.70285400  0.29801600  1
  O  O0  1  0.62003400  0.75579700  0.56215300  1
  O  O1  1  0.37996600  0.24420300  0.43784700  1
  O  O2  1  0.24420300  0.37996600  0.93784700  1
  O  O3  1  0.75579700  0.62003400  0.06215300  1
  O  O4  1  0.33075700  0.03878200  0.89598200  1
  O  O5  1  0.66924300  0.96121800  0.10401800  1
  O  O6  1  0.96121800  0.66924300  0.60401800  1
  O  O7  1  0.03878200  0.33075700  0.39598200  1
  O  O8  1  0.60789400  0.37579200  0.94851300  1
  O  O9  1  0.39210600  0.62420800  0.05148700  1
  O  O10  1  0.62420800  0.39210600  0.55148700  1
  O  O11  1  0.37579200  0.60789400  0.44851300  1
  O  O12  1  0.74671300  0.96743400  0.70812800  1
  O  O13  1  0.25328700  0.03256600  0.29187200  1
  O  O14  1  0.03256600  0.25328700  0.79187200  1
  O  O15  1  0.96743400  0.74671300  0.20812800  1
loop_
_geom_bond_atom_site_label_1
_geom_bond_atom_site_label_2
_geom_bond_distance
_geom_bond_site_symmetry_2
K0 O0 2.778373 1_555
K0 O2 2.778373 1_555
K0 O15 2.809780 1_456
K0 O13 2.809780 1_565
K0 O9 2.907837 1_556
K0 O11 2.907837 1_555
K0 O4 2.929093 1_565
K0 O6 2.929093 1_455
K0 O1 2.966289 1_565
K0 O3 2.966289 1_456
K1 O3 2.778373 1_555
K1 O1 2.778373 1_555
K1 O12 2.809780 1_545
K1 O14 2.809780 1_654
K1 O10 2.907837 1_555
K1 O8 2.907837 1_554
K1 O7 2.929093 1_655
K1 O5 2.929093 1_545
K1 O2 2.966289 1_654
K1 O0 2.966289 1_545
O0 W0 1.959711 1_555
O0 W3 1.982824 1_555
O1 W1 1.959711 1_555
O1 W2 1.982824 1_555
O2 W2 1.959711 1_555
O2 W1 1.982824 1_556
O3 W3 1.959711 1_555
O3 W0 1.982824 1_554
O4 W2 1.838172 1_555
O4 Sc1 2.138490 1_546
O5 W3 1.838172 1_555
O5 Sc0 2.138490 1_564
O6 W0 1.838172 1_555
O6 Sc1 2.138490 1_655
O7 W1 1.838172 1_555
O7 Sc0 2.138490 1_455
O8 W1 2.067024 1_556
O8 W0 2.094462 1_555
O8 Sc0 2.181052 1_555
O9 W0 2.067024 1_554
O9 W1 2.094462 1_555
O9 Sc1 2.181052 1_555
O10 W3 2.067024 1_555
O10 W2 2.094462 1_555
O10 Sc0 2.181052 1_555
O11 W2 2.067024 1_555
O11 W3 2.094462 1_555
O11 Sc1 2.181052 1_555
O12 W0 1.838411 1_555
O12 Sc0 2.121100 1_565
O13 W1 1.838411 1_555
O13 Sc1 2.121100 1_545
O14 W2 1.838411 1_555
O14 Sc0 2.121100 1_455
O15 W3 1.838411 1_555
O15 Sc1 2.121100 1_655
