# generated using pymatgen
data_Ta2SiAs2
_symmetry_space_group_name_H-M   'P 1'
_cell_length_a   5.44698600
_cell_length_b   5.44698600
_cell_length_c   26.84278600
_cell_angle_alpha   90.00000000
_cell_angle_beta   90.00000000
_cell_angle_gamma   90.00000000
_symmetry_Int_Tables_number   1
_chemical_formula_structural   Ta2SiAs2
_chemical_formula_sum   'Ta16 Si8 As16'
_cell_volume   796.41623970
_cell_formula_units_Z   8
loop_
 _symmetry_equiv_pos_site_id
 _symmetry_equiv_pos_as_xyz
  1  'x, y, z'
loop_
 _atom_site_type_symbol
 _atom_site_label
 _atom_site_symmetry_multiplicity
 _atom_site_fract_x
 _atom_site_fract_y
 _atom_site_fract_z
 _atom_site_occupancy
  Ta  Ta0_0  1  0.25000000  0.25000000  0.09466650  1
  Ta  Ta0_1  1  0.25000000  0.25000000  0.59466650  1
  Ta  Ta0_2  1  0.25000000  0.75000000  0.09466650  1
  Ta  Ta0_3  1  0.25000000  0.75000000  0.59466650  1
  Ta  Ta0_4  1  0.75000000  0.25000000  0.09466650  1
  Ta  Ta0_5  1  0.75000000  0.25000000  0.59466650  1
  Ta  Ta0_6  1  0.75000000  0.75000000  0.09466650  1
  Ta  Ta0_7  1  0.75000000  0.75000000  0.59466650  1
  Ta  Ta1_0  1  0.25000000  0.25000000  0.40533350  1
  Ta  Ta1_1  1  0.25000000  0.25000000  0.90533350  1
  Ta  Ta1_2  1  0.25000000  0.75000000  0.40533350  1
  Ta  Ta1_3  1  0.25000000  0.75000000  0.90533350  1
  Ta  Ta1_4  1  0.75000000  0.25000000  0.40533350  1
  Ta  Ta1_5  1  0.75000000  0.25000000  0.90533350  1
  Ta  Ta1_6  1  0.75000000  0.75000000  0.40533350  1
  Ta  Ta1_7  1  0.75000000  0.75000000  0.90533350  1
  Si  Si0_0  1  0.25000000  0.25000000  0.00000000  1
  Si  Si0_1  1  0.25000000  0.25000000  0.50000000  1
  Si  Si0_2  1  0.25000000  0.75000000  0.00000000  1
  Si  Si0_3  1  0.25000000  0.75000000  0.50000000  1
  Si  Si0_4  1  0.75000000  0.25000000  0.00000000  1
  Si  Si0_5  1  0.75000000  0.25000000  0.50000000  1
  Si  Si0_6  1  0.75000000  0.75000000  0.00000000  1
  Si  Si0_7  1  0.75000000  0.75000000  0.50000000  1
  As  As0_0  1  0.25000000  0.25000000  0.30295750  1
  As  As0_1  1  0.25000000  0.25000000  0.80295750  1
  As  As0_2  1  0.25000000  0.75000000  0.30295750  1
  As  As0_3  1  0.25000000  0.75000000  0.80295750  1
  As  As0_4  1  0.75000000  0.25000000  0.30295750  1
  As  As0_5  1  0.75000000  0.25000000  0.80295750  1
  As  As0_6  1  0.75000000  0.75000000  0.30295750  1
  As  As0_7  1  0.75000000  0.75000000  0.80295750  1
  As  As1_0  1  0.25000000  0.25000000  0.19704250  1
  As  As1_1  1  0.25000000  0.25000000  0.69704250  1
  As  As1_2  1  0.25000000  0.75000000  0.19704250  1
  As  As1_3  1  0.25000000  0.75000000  0.69704250  1
  As  As1_4  1  0.75000000  0.25000000  0.19704250  1
  As  As1_5  1  0.75000000  0.25000000  0.69704250  1
  As  As1_6  1  0.75000000  0.75000000  0.19704250  1
  As  As1_7  1  0.75000000  0.75000000  0.69704250  1
loop_
_geom_bond_atom_site_label_1
_geom_bond_atom_site_label_2
_geom_bond_distance
_geom_bond_site_symmetry_2
Ta0_0 Ta0_2 2.723493 1_545
Ta0_0 Ta0_4 2.723493 1_455
Ta0_0 Ta0_4 2.723493 1_555
Ta0_0 Ta0_2 2.723493 1_555
Ta0_1 Ta0_3 2.723493 1_545
Ta0_1 Ta0_5 2.723493 1_455
Ta0_1 Ta0_3 2.723493 1_555
Ta0_1 Ta0_5 2.723493 1_555
Ta0_2 Ta0_6 2.723493 1_455
Ta0_2 Ta0_6 2.723493 1_555
Ta0_3 Ta0_7 2.723493 1_455
Ta0_3 Ta0_7 2.723493 1_555
Ta0_4 Ta0_6 2.723493 1_545
Ta0_4 Ta0_6 2.723493 1_555
Ta0_5 Ta0_7 2.723493 1_545
Ta0_5 Ta0_7 2.723493 1_555
Ta1_0 Ta1_4 2.723493 1_455
Ta1_0 Ta1_2 2.723493 1_545
Ta1_0 Ta1_4 2.723493 1_555
Ta1_0 Ta1_2 2.723493 1_555
Ta1_1 Ta1_3 2.723493 1_545
Ta1_1 Ta1_5 2.723493 1_455
Ta1_1 Ta1_5 2.723493 1_555
Ta1_1 Ta1_3 2.723493 1_555
Ta1_2 Ta1_6 2.723493 1_455
Ta1_2 Ta1_6 2.723493 1_555
Ta1_3 Ta1_7 2.723493 1_455
Ta1_3 Ta1_7 2.723493 1_555
Ta1_4 Ta1_6 2.723493 1_545
Ta1_4 Ta1_6 2.723493 1_555
Ta1_5 Ta1_7 2.723493 1_545
Ta1_5 Ta1_7 2.723493 1_555
Si0_0 Ta0_0 2.541113 1_555
Si0_0 Ta1_1 2.541113 1_554
Si0_0 Si0_4 2.723493 1_455
Si0_0 Si0_2 2.723493 1_545
Si0_0 Si0_4 2.723493 1_555
Si0_0 Si0_2 2.723493 1_555
Si0_1 Ta0_1 2.541113 1_555
Si0_1 Ta1_0 2.541113 1_555
Si0_1 Si0_3 2.723493 1_545
Si0_1 Si0_5 2.723493 1_455
Si0_1 Si0_3 2.723493 1_555
Si0_1 Si0_5 2.723493 1_555
Si0_2 Ta0_2 2.541113 1_555
Si0_2 Ta1_3 2.541113 1_554
Si0_2 Si0_6 2.723493 1_455
Si0_2 Si0_6 2.723493 1_555
Si0_3 Ta0_3 2.541113 1_555
Si0_3 Ta1_2 2.541113 1_555
Si0_3 Si0_7 2.723493 1_455
Si0_3 Si0_7 2.723493 1_555
Si0_4 Ta0_4 2.541113 1_555
Si0_4 Ta1_5 2.541113 1_554
Si0_4 Si0_6 2.723493 1_545
Si0_4 Si0_6 2.723493 1_555
Si0_5 Ta0_5 2.541113 1_555
Si0_5 Ta1_4 2.541113 1_555
Si0_5 Si0_7 2.723493 1_545
Si0_5 Si0_7 2.723493 1_555
Si0_6 Ta0_6 2.541113 1_555
Si0_6 Ta1_7 2.541113 1_554
Si0_7 Ta0_7 2.541113 1_555
Si0_7 Ta1_6 2.541113 1_555
As0_0 As0_2 2.723493 1_545
As0_0 As0_4 2.723493 1_455
As0_0 As0_2 2.723493 1_555
As0_0 As0_4 2.723493 1_555
As0_0 Ta1_0 2.748057 1_555
As0_0 As1_0 2.843054 1_555
As0_1 As0_3 2.723493 1_545
As0_1 As0_5 2.723493 1_455
As0_1 As0_5 2.723493 1_555
As0_1 As0_3 2.723493 1_555
As0_1 Ta1_1 2.748057 1_555
As0_1 As1_1 2.843054 1_555
As0_2 As0_6 2.723493 1_455
As0_2 As0_6 2.723493 1_555
As0_2 Ta1_2 2.748057 1_555
As0_2 As1_2 2.843054 1_555
As0_3 As0_7 2.723493 1_455
As0_3 As0_7 2.723493 1_555
As0_3 Ta1_3 2.748057 1_555
As0_3 As1_3 2.843054 1_555
As0_4 As0_6 2.723493 1_545
As0_4 As0_6 2.723493 1_555
As0_4 Ta1_4 2.748057 1_555
As0_4 As1_4 2.843054 1_555
As0_5 As0_7 2.723493 1_545
As0_5 As0_7 2.723493 1_555
As0_5 Ta1_5 2.748057 1_555
As0_5 As1_5 2.843054 1_555
As0_6 Ta1_6 2.748057 1_555
As0_6 As1_6 2.843054 1_555
As0_7 Ta1_7 2.748057 1_555
As0_7 As1_7 2.843054 1_555
As1_0 As1_4 2.723493 1_455
As1_0 As1_2 2.723493 1_545
As1_0 As1_4 2.723493 1_555
As1_0 As1_2 2.723493 1_555
As1_0 Ta0_0 2.748057 1_555
As1_1 As1_3 2.723493 1_545
As1_1 As1_5 2.723493 1_455
As1_1 As1_5 2.723493 1_555
As1_1 As1_3 2.723493 1_555
As1_1 Ta0_1 2.748057 1_555
As1_2 As1_6 2.723493 1_455
As1_2 As1_6 2.723493 1_555
As1_2 Ta0_2 2.748057 1_555
As1_3 As1_7 2.723493 1_455
As1_3 As1_7 2.723493 1_555
As1_3 Ta0_3 2.748057 1_555
As1_4 As1_6 2.723493 1_545
As1_4 As1_6 2.723493 1_555
As1_4 Ta0_4 2.748057 1_555
As1_5 As1_7 2.723493 1_545
As1_5 As1_7 2.723493 1_555
As1_5 Ta0_5 2.748057 1_555
As1_6 Ta0_6 2.748057 1_555
As1_7 Ta0_7 2.748057 1_555
