# generated using pymatgen
data_Gd3Co4Sn13
_symmetry_space_group_name_H-M   'P 1'
_cell_length_a   9.93782800
_cell_length_b   9.93782800
_cell_length_c   9.93782800
_cell_angle_alpha   90.00000000
_cell_angle_beta   90.00000000
_cell_angle_gamma   90.00000000
_symmetry_Int_Tables_number   1
_chemical_formula_structural   Gd3Co4Sn13
_chemical_formula_sum   'Gd6 Co8 Sn26'
_cell_volume   981.46412041
_cell_formula_units_Z   2
loop_
 _symmetry_equiv_pos_site_id
 _symmetry_equiv_pos_as_xyz
  1  'x, y, z'
loop_
 _atom_site_type_symbol
 _atom_site_label
 _atom_site_symmetry_multiplicity
 _atom_site_fract_x
 _atom_site_fract_y
 _atom_site_fract_z
 _atom_site_occupancy
  Gd  Gd0  1  0.50000000  0.00000000  0.75000000  1
  Gd  Gd1  1  0.00000000  0.25000000  0.50000000  1
  Gd  Gd2  1  0.75000000  0.50000000  0.00000000  1
  Gd  Gd3  1  0.50000000  0.00000000  0.25000000  1
  Gd  Gd4  1  0.00000000  0.75000000  0.50000000  1
  Gd  Gd5  1  0.25000000  0.50000000  0.00000000  1
  Co  Co0  1  0.75000000  0.25000000  0.75000000  1
  Co  Co1  1  0.25000000  0.75000000  0.25000000  1
  Co  Co2  1  0.75000000  0.75000000  0.25000000  1
  Co  Co3  1  0.25000000  0.25000000  0.75000000  1
  Co  Co4  1  0.25000000  0.75000000  0.75000000  1
  Co  Co5  1  0.75000000  0.25000000  0.25000000  1
  Co  Co6  1  0.25000000  0.25000000  0.25000000  1
  Co  Co7  1  0.75000000  0.75000000  0.75000000  1
  Sn  Sn0  1  0.50000000  0.50000000  0.50000000  1
  Sn  Sn1  1  0.00000000  0.00000000  0.00000000  1
  Sn  Sn2  1  0.65725000  0.19629400  0.50000000  1
  Sn  Sn3  1  0.80370600  0.50000000  0.65725000  1
  Sn  Sn4  1  0.50000000  0.34275000  0.80370600  1
  Sn  Sn5  1  0.34275000  0.80370600  0.50000000  1
  Sn  Sn6  1  0.19629400  0.50000000  0.34275000  1
  Sn  Sn7  1  0.50000000  0.65725000  0.19629400  1
  Sn  Sn8  1  0.65725000  0.80370600  0.50000000  1
  Sn  Sn9  1  0.80370600  0.50000000  0.34275000  1
  Sn  Sn10  1  0.34275000  0.19629400  0.50000000  1
  Sn  Sn11  1  0.19629400  0.50000000  0.65725000  1
  Sn  Sn12  1  0.50000000  0.65725000  0.80370600  1
  Sn  Sn13  1  0.50000000  0.34275000  0.19629400  1
  Sn  Sn14  1  0.15725000  0.00000000  0.69629400  1
  Sn  Sn15  1  0.30370600  0.15725000  0.00000000  1
  Sn  Sn16  1  0.00000000  0.30370600  0.84275000  1
  Sn  Sn17  1  0.84275000  0.00000000  0.30370600  1
  Sn  Sn18  1  0.69629400  0.84275000  0.00000000  1
  Sn  Sn19  1  0.00000000  0.69629400  0.15725000  1
  Sn  Sn20  1  0.15725000  0.00000000  0.30370600  1
  Sn  Sn21  1  0.30370600  0.84275000  0.00000000  1
  Sn  Sn22  1  0.84275000  0.00000000  0.69629400  1
  Sn  Sn23  1  0.69629400  0.15725000  0.00000000  1
  Sn  Sn24  1  0.00000000  0.30370600  0.15725000  1
  Sn  Sn25  1  0.00000000  0.69629400  0.84275000  1
loop_
_geom_bond_atom_site_label_1
_geom_bond_atom_site_label_2
_geom_bond_distance
_geom_bond_site_symmetry_2
Gd0 Sn14 3.447752 1_555
Gd0 Sn12 3.447752 1_545
Gd0 Sn22 3.447752 1_555
Gd0 Sn4 3.447752 1_555
Gd0 Sn18 3.524202 1_546
Gd0 Sn23 3.524202 1_556
Gd0 Sn2 3.524202 1_555
Gd0 Sn8 3.524202 1_545
Gd0 Sn5 3.524202 1_545
Gd0 Sn10 3.524202 1_555
Gd0 Sn21 3.524202 1_546
Gd0 Sn15 3.524202 1_556
Gd1 Sn24 3.447752 1_555
Gd1 Sn2 3.447752 1_455
Gd1 Sn16 3.447752 1_555
Gd1 Sn10 3.447752 1_555
Gd1 Sn3 3.524202 1_455
Gd1 Sn14 3.524202 1_555
Gd1 Sn11 3.524202 1_555
Gd1 Sn9 3.524202 1_455
Gd1 Sn6 3.524202 1_555
Gd1 Sn22 3.524202 1_455
Gd1 Sn20 3.524202 1_555
Gd1 Sn17 3.524202 1_455
Gd2 Sn3 3.447752 1_554
Gd2 Sn23 3.447752 1_555
Gd2 Sn9 3.447752 1_555
Gd2 Sn18 3.447752 1_555
Gd2 Sn19 3.524202 1_655
Gd2 Sn12 3.524202 1_554
Gd2 Sn4 3.524202 1_554
Gd2 Sn25 3.524202 1_654
Gd2 Sn13 3.524202 1_555
Gd2 Sn7 3.524202 1_555
Gd2 Sn16 3.524202 1_654
Gd2 Sn24 3.524202 1_655
Gd3 Sn7 3.447752 1_545
Gd3 Sn17 3.447752 1_555
Gd3 Sn13 3.447752 1_555
Gd3 Sn20 3.447752 1_555
Gd3 Sn23 3.524202 1_555
Gd3 Sn2 3.524202 1_555
Gd3 Sn8 3.524202 1_545
Gd3 Sn5 3.524202 1_545
Gd3 Sn18 3.524202 1_545
Gd3 Sn10 3.524202 1_555
Gd3 Sn21 3.524202 1_545
Gd3 Sn15 3.524202 1_555
Gd4 Sn5 3.447752 1_555
Gd4 Sn8 3.447752 1_455
Gd4 Sn25 3.447752 1_555
Gd4 Sn19 3.447752 1_555
Gd4 Sn22 3.524202 1_465
Gd4 Sn11 3.524202 1_555
Gd4 Sn9 3.524202 1_455
Gd4 Sn6 3.524202 1_555
Gd4 Sn3 3.524202 1_455
Gd4 Sn14 3.524202 1_565
Gd4 Sn20 3.524202 1_565
Gd4 Sn17 3.524202 1_465
Gd5 Sn21 3.447752 1_555
Gd5 Sn15 3.447752 1_555
Gd5 Sn11 3.447752 1_554
Gd5 Sn6 3.447752 1_555
Gd5 Sn25 3.524202 1_554
Gd5 Sn12 3.524202 1_554
Gd5 Sn4 3.524202 1_554
Gd5 Sn19 3.524202 1_555
Gd5 Sn13 3.524202 1_555
Gd5 Sn7 3.524202 1_555
Gd5 Sn24 3.524202 1_555
Gd5 Sn16 3.524202 1_554
Co0 Sn16 2.703142 1_655
Co0 Sn3 2.703142 1_555
Co0 Sn22 2.703142 1_555
Co0 Sn4 2.703142 1_555
Co0 Sn23 2.703142 1_556
Co0 Sn2 2.703142 1_555
Co0 Gd2 3.513553 1_556
Co0 Gd0 3.513553 1_555
Co0 Gd1 3.513553 1_655
Co1 Sn19 2.703142 1_555
Co1 Sn6 2.703142 1_555
Co1 Sn20 2.703142 1_565
Co1 Sn7 2.703142 1_555
Co1 Sn5 2.703142 1_555
Co1 Sn21 2.703142 1_555
Co1 Gd3 3.513553 1_565
Co1 Gd4 3.513553 1_555
Co1 Gd5 3.513553 1_555
Co2 Sn18 2.703142 1_555
Co2 Sn8 2.703142 1_555
Co2 Sn7 2.703142 1_555
Co2 Sn19 2.703142 1_655
Co2 Sn17 2.703142 1_565
Co2 Sn9 2.703142 1_555
Co2 Gd4 3.513553 1_655
Co2 Gd3 3.513553 1_565
Co2 Gd2 3.513553 1_555
Co3 Sn15 2.703142 1_556
Co3 Sn4 2.703142 1_555
Co3 Sn16 2.703142 1_555
Co3 Sn10 2.703142 1_555
Co3 Sn14 2.703142 1_555
Co3 Sn11 2.703142 1_555
Co3 Gd0 3.513553 1_555
Co3 Gd1 3.513553 1_555
Co3 Gd5 3.513553 1_556
Co4 Sn12 2.703142 1_555
Co4 Sn25 2.703142 1_555
Co4 Sn21 2.703142 1_556
Co4 Sn14 2.703142 1_565
Co4 Sn11 2.703142 1_555
Co4 Sn5 2.703142 1_555
Co4 Gd0 3.513553 1_565
Co4 Gd4 3.513553 1_555
Co4 Gd5 3.513553 1_556
Co5 Sn24 2.703142 1_655
Co5 Sn13 2.703142 1_555
Co5 Sn17 2.703142 1_555
Co5 Sn23 2.703142 1_555
Co5 Sn2 2.703142 1_555
Co5 Sn9 2.703142 1_555
Co5 Gd3 3.513553 1_555
Co5 Gd1 3.513553 1_655
Co5 Gd2 3.513553 1_555
Co6 Sn15 2.703142 1_555
Co6 Sn13 2.703142 1_555
Co6 Sn20 2.703142 1_555
Co6 Sn6 2.703142 1_555
Co6 Sn10 2.703142 1_555
Co6 Sn24 2.703142 1_555
Co6 Gd3 3.513553 1_555
Co6 Gd1 3.513553 1_555
Co6 Gd5 3.513553 1_555
Co7 Sn22 2.703142 1_565
Co7 Sn25 2.703142 1_655
Co7 Sn3 2.703142 1_555
Co7 Sn12 2.703142 1_555
Co7 Sn18 2.703142 1_556
Co7 Sn8 2.703142 1_555
Co7 Gd2 3.513553 1_556
Co7 Gd4 3.513553 1_655
Co7 Gd0 3.513553 1_565
Sn0 Sn3 3.398750 1_555
Sn0 Sn12 3.398750 1_555
Sn0 Sn13 3.398750 1_555
Sn0 Sn4 3.398750 1_555
Sn0 Sn6 3.398750 1_555
Sn0 Sn10 3.398750 1_555
Sn0 Sn8 3.398750 1_555
Sn0 Sn7 3.398750 1_555
Sn0 Sn11 3.398750 1_555
Sn0 Sn5 3.398750 1_555
Sn0 Sn2 3.398750 1_555
Sn0 Sn9 3.398750 1_555
Sn1 Sn24 3.398750 1_555
Sn1 Sn16 3.398750 1_554
Sn1 Sn15 3.398750 1_555
Sn1 Sn21 3.398750 1_545
Sn1 Sn17 3.398750 1_455
Sn1 Sn20 3.398750 1_555
Sn1 Sn22 3.398750 1_454
Sn1 Sn25 3.398750 1_544
Sn1 Sn14 3.398750 1_554
Sn1 Sn23 3.398750 1_455
Sn1 Sn18 3.398750 1_445
Sn1 Sn19 3.398750 1_545
Sn2 Sn22 3.317998 1_555
Sn3 Sn9 3.125447 1_555
Sn5 Sn8 3.125447 1_555
Sn10 Sn2 3.125447 1_555
Sn10 Sn20 3.317998 1_555
Sn10 Sn14 3.317998 1_555
Sn11 Sn6 3.125447 1_555
Sn11 Sn25 3.317998 1_555
Sn11 Sn16 3.317998 1_555
Sn12 Sn4 3.125447 1_555
Sn12 Sn18 3.317998 1_556
Sn12 Sn21 3.317998 1_556
Sn13 Sn7 3.125447 1_555
Sn13 Sn15 3.317998 1_555
Sn13 Sn23 3.317998 1_555
Sn14 Sn22 3.125447 1_455
Sn14 Sn5 3.317998 1_545
Sn15 Sn21 3.125447 1_545
Sn15 Sn4 3.317998 1_554
Sn16 Sn24 3.125447 1_556
Sn16 Sn3 3.317998 1_455
Sn17 Sn20 3.125447 1_655
Sn17 Sn2 3.317998 1_555
Sn17 Sn8 3.317998 1_545
Sn18 Sn23 3.125447 1_565
Sn18 Sn7 3.317998 1_555
Sn19 Sn25 3.125447 1_554
Sn19 Sn6 3.317998 1_555
Sn19 Sn9 3.317998 1_455
Sn20 Sn5 3.317998 1_545
Sn21 Sn7 3.317998 1_555
Sn22 Sn8 3.317998 1_545
Sn23 Sn4 3.317998 1_554
Sn24 Sn6 3.317998 1_555
Sn24 Sn9 3.317998 1_455
Sn25 Sn3 3.317998 1_455
