# generated using pymatgen
data_HC9N10Cl7
_symmetry_space_group_name_H-M   'P 1'
_cell_length_a   9.47041089
_cell_length_b   8.64772011
_cell_length_c   17.70643532
_cell_angle_alpha   84.40021379
_cell_angle_beta   79.73477358
_cell_angle_gamma   56.79975098
_symmetry_Int_Tables_number   1
_chemical_formula_structural   HC9N10Cl7
_chemical_formula_sum   'H2 C18 N20 Cl14'
_cell_volume   1193.97620874
_cell_formula_units_Z   2
loop_
 _symmetry_equiv_pos_site_id
 _symmetry_equiv_pos_as_xyz
  1  'x, y, z'
loop_
 _atom_site_type_symbol
 _atom_site_label
 _atom_site_symmetry_multiplicity
 _atom_site_fract_x
 _atom_site_fract_y
 _atom_site_fract_z
 _atom_site_occupancy
  H  H0  1  0.31569700  0.36860700  0.75000000  1
  H  H1  1  0.68430300  0.63139300  0.25000000  1
  C  C0  1  0.43665500  0.94435300  0.79969900  1
  C  C1  1  0.56334500  0.05564700  0.20030100  1
  C  C2  1  0.61899100  0.94435300  0.70030100  1
  C  C3  1  0.38100900  0.05564700  0.29969900  1
  C  C4  1  0.66127200  0.67745600  0.75000000  1
  C  C5  1  0.33872800  0.32254400  0.25000000  1
  C  C6  1  0.22995800  0.59667200  0.67936800  1
  C  C7  1  0.77004200  0.40332800  0.32063200  1
  C  C8  1  0.17337100  0.59667200  0.82063200  1
  C  C9  1  0.82662900  0.40332800  0.17936800  1
  C  C10  1  0.21159600  0.82534800  0.60223800  1
  C  C11  1  0.78840400  0.17465200  0.39776200  1
  C  C12  1  0.96305600  0.82534800  0.89776200  1
  C  C13  1  0.03694400  0.17465200  0.10223800  1
  C  C14  1  0.23751100  0.58228600  0.55316100  1
  C  C15  1  0.76248900  0.41771400  0.44683900  1
  C  C16  1  0.18020300  0.58228600  0.94683900  1
  C  C17  1  0.81979700  0.41771400  0.05316100  1
  N  N0  1  0.52344300  0.75989800  0.80346200  1
  N  N1  1  0.47655700  0.24010200  0.19653800  1
  N  N2  1  0.71665900  0.75989800  0.69653800  1
  N  N3  1  0.28334100  0.24010200  0.30346200  1
  N  N4  1  0.25692300  0.49939600  0.87933600  1
  N  N5  1  0.74307700  0.50060400  0.12066400  1
  N  N6  1  0.24368000  0.49939600  0.62066400  1
  N  N7  1  0.75632000  0.50060400  0.37933600  1
  N  N8  1  0.22227100  0.74500900  0.53877300  1
  N  N9  1  0.77772900  0.25499100  0.46122700  1
  N  N10  1  0.03272000  0.74500900  0.96122700  1
  N  N11  1  0.96728000  0.25499100  0.03877300  1
  N  N12  1  0.47697100  0.04605900  0.75000000  1
  N  N13  1  0.52302900  0.95394100  0.25000000  1
  N  N14  1  0.21315200  0.76240000  0.67381300  1
  N  N15  1  0.78684800  0.23760000  0.32618700  1
  N  N16  1  0.02444800  0.76240000  0.82618700  1
  N  N17  1  0.97555200  0.23760000  0.17381300  1
  N  N18  1  0.24458300  0.51083400  0.75000000  1
  N  N19  1  0.75541700  0.48916600  0.25000000  1
  Cl  Cl0  1  0.71747200  0.53276400  0.97561800  1
  Cl  Cl1  1  0.28252800  0.46723600  0.02438200  1
  Cl  Cl2  1  0.74976400  0.53276400  0.52438200  1
  Cl  Cl3  1  0.25023600  0.46723600  0.47561800  1
  Cl  Cl4  1  0.77958400  0.44083100  0.75000000  1
  Cl  Cl5  1  0.22041600  0.55916900  0.25000000  1
  Cl  Cl6  1  0.76842500  0.03128300  0.91180200  1
  Cl  Cl7  1  0.23157500  0.96871700  0.08819800  1
  Cl  Cl8  1  0.20029200  0.03128300  0.58819800  1
  Cl  Cl9  1  0.79970800  0.96871700  0.41180200  1
  Cl  Cl10  1  0.68174700  0.06156800  0.63457200  1
  Cl  Cl11  1  0.31825300  0.93843200  0.36542800  1
  Cl  Cl12  1  0.25668500  0.06156800  0.86542800  1
  Cl  Cl13  1  0.74331500  0.93843200  0.13457200  1
loop_
_geom_bond_atom_site_label_1
_geom_bond_atom_site_label_2
_geom_bond_distance
_geom_bond_site_symmetry_2
H0 N18 1.029166 1_555
H1 N19 1.029166 1_555
C0 N0 1.336929 1_555
C0 N12 1.338166 1_565
C0 Cl12 1.708262 1_565
C1 N1 1.336929 1_555
C1 N13 1.338166 1_545
C1 Cl13 1.708262 1_545
C2 N2 1.336929 1_555
C2 N12 1.338156 1_565
C2 Cl10 1.708267 1_565
C3 N3 1.336929 1_555
C3 N13 1.338156 1_545
C3 Cl11 1.708267 1_545
C4 N2 1.334304 1_555
C4 N0 1.334304 1_555
C4 Cl4 1.712238 1_555
C5 N3 1.334304 1_555
C5 N1 1.334304 1_555
C5 Cl5 1.712238 1_555
C6 N6 1.344525 1_555
C6 N14 1.348053 1_555
C6 N18 1.379227 1_555
C7 N7 1.344525 1_555
C7 N15 1.348053 1_555
C7 N19 1.379227 1_555
C8 N4 1.344518 1_555
C8 N16 1.348057 1_555
C8 N18 1.379227 1_555
C9 N5 1.344518 1_555
C9 N17 1.348057 1_555
C9 N19 1.379227 1_555
C10 N14 1.328880 1_555
C10 N8 1.338148 1_555
C10 Cl8 1.720190 1_565
C11 N15 1.328880 1_555
C11 N9 1.338148 1_555
C11 Cl9 1.720190 1_545
C12 N16 1.328880 1_655
C12 N10 1.338148 1_655
C12 Cl6 1.720190 1_565
C13 N17 1.328880 1_455
C13 N11 1.338148 1_455
C13 Cl7 1.720190 1_545
C14 N6 1.325762 1_555
C14 N8 1.336645 1_555
C14 Cl3 1.722168 1_555
C15 N7 1.325762 1_555
C15 N9 1.336645 1_555
C15 Cl2 1.722168 1_555
C16 N4 1.325761 1_555
C16 N10 1.336645 1_555
C16 Cl1 1.722168 1_556
C17 N5 1.325761 1_555
C17 N11 1.336645 1_555
C17 Cl0 1.722168 1_554
