# generated using pymatgen
data_MgTi2CoO7
_symmetry_space_group_name_H-M   'P 1'
_cell_length_a   6.48716400
_cell_length_b   12.16435630
_cell_length_c   14.77582300
_cell_angle_alpha   90.00000000
_cell_angle_beta   90.00000000
_cell_angle_gamma   104.69808910
_symmetry_Int_Tables_number   1
_chemical_formula_structural   MgTi2CoO7
_chemical_formula_sum   'Mg8 Ti16 Co8 O56'
_cell_volume   1127.83663872
_cell_formula_units_Z   8
loop_
 _symmetry_equiv_pos_site_id
 _symmetry_equiv_pos_as_xyz
  1  'x, y, z'
loop_
 _atom_site_type_symbol
 _atom_site_label
 _atom_site_symmetry_multiplicity
 _atom_site_fract_x
 _atom_site_fract_y
 _atom_site_fract_z
 _atom_site_occupancy
  Mg  Mg0  1  0.04848600  0.74770300  0.52300100  1
  Mg  Mg1  1  0.30623500  0.88306400  0.89486900  1
  Mg  Mg2  1  0.69376500  0.61693600  0.39486900  1
  Mg  Mg3  1  0.69376500  0.11693600  0.10513100  1
  Mg  Mg4  1  0.30623500  0.38306400  0.60513100  1
  Mg  Mg5  1  0.04848600  0.24770300  0.97699900  1
  Mg  Mg6  1  0.95151400  0.25229700  0.47699900  1
  Mg  Mg7  1  0.95151400  0.75229700  0.02300100  1
  Ti  Ti0  1  0.82445800  0.98415800  0.90884200  1
  Ti  Ti1  1  0.41184500  0.66340800  0.02627300  1
  Ti  Ti2  1  0.41184500  0.16340800  0.47372700  1
  Ti  Ti3  1  0.58815500  0.33659200  0.97372700  1
  Ti  Ti4  1  0.53315300  0.81329400  0.72111700  1
  Ti  Ti5  1  0.46684700  0.68670600  0.22111700  1
  Ti  Ti6  1  0.46684700  0.18670600  0.27888300  1
  Ti  Ti7  1  0.53315300  0.31329400  0.77888300  1
  Ti  Ti8  1  0.58815500  0.83659200  0.52627300  1
  Ti  Ti9  1  0.86625900  0.49349200  0.14169900  1
  Ti  Ti10  1  0.13374100  0.00650800  0.64169900  1
  Ti  Ti11  1  0.13374100  0.50650800  0.85830100  1
  Ti  Ti12  1  0.17554200  0.51584200  0.40884200  1
  Ti  Ti13  1  0.82445800  0.48415800  0.59115800  1
  Ti  Ti14  1  0.17554200  0.01584200  0.09115800  1
  Ti  Ti15  1  0.86625900  0.99349200  0.35830100  1
  Co  Co0  1  0.66353400  0.09914700  0.65372200  1
  Co  Co1  1  0.33646600  0.40085300  0.15372200  1
  Co  Co2  1  0.33646600  0.90085300  0.34627800  1
  Co  Co3  1  0.66353400  0.59914700  0.84627800  1
  Co  Co4  1  0.00817600  0.22586100  0.77470400  1
  Co  Co5  1  0.99182400  0.27413900  0.27470400  1
  Co  Co6  1  0.99182400  0.77413900  0.22529600  1
  Co  Co7  1  0.00817600  0.72586100  0.72529600  1
  O  O0  1  0.71393000  0.99168800  0.02105900  1
  O  O1  1  0.28607000  0.50831200  0.52105900  1
  O  O2  1  0.28607000  0.00831100  0.97894100  1
  O  O3  1  0.71393000  0.49168800  0.47894100  1
  O  O4  1  0.99230800  0.88027500  0.92088800  1
  O  O5  1  0.00769200  0.61972500  0.42088800  1
  O  O6  1  0.00769200  0.11972500  0.07911200  1
  O  O7  1  0.99230800  0.38027500  0.57911200  1
  O  O8  1  0.97201900  0.12843000  0.87491900  1
  O  O9  1  0.02798100  0.37157000  0.37491900  1
  O  O10  1  0.02798100  0.87157000  0.12508100  1
  O  O11  1  0.97201900  0.62843000  0.62508100  1
  O  O12  1  0.62503000  0.94628800  0.29761600  1
  O  O13  1  0.37497000  0.55371200  0.79761600  1
  O  O14  1  0.37497000  0.05371200  0.70238400  1
  O  O15  1  0.62503000  0.44628800  0.20238400  1
  O  O16  1  0.96068800  0.15445700  0.36014400  1
  O  O17  1  0.03931200  0.34554300  0.86014400  1
  O  O18  1  0.03931200  0.84554300  0.63985600  1
  O  O19  1  0.96068800  0.65445700  0.13985600  1
  O  O20  1  0.04438700  0.89726700  0.31002200  1
  O  O21  1  0.33477500  0.83137100  0.45688100  1
  O  O22  1  0.95561300  0.60273300  0.81002100  1
  O  O23  1  0.04438700  0.39726700  0.18997800  1
  O  O24  1  0.74157100  0.74560100  0.48364100  1
  O  O25  1  0.25842900  0.75439900  0.98364100  1
  O  O26  1  0.25842900  0.25439900  0.51635900  1
  O  O27  1  0.74157100  0.24560100  0.01635900  1
  O  O28  1  0.77823300  0.96842800  0.47234100  1
  O  O29  1  0.22176700  0.53157200  0.97234100  1
  O  O30  1  0.22176700  0.03157200  0.52765900  1
  O  O31  1  0.77823300  0.46842800  0.02765900  1
  O  O32  1  0.43570700  0.23614600  0.88084000  1
  O  O33  1  0.56429300  0.26385400  0.38084000  1
  O  O34  1  0.56429300  0.76385400  0.11916000  1
  O  O35  1  0.43570700  0.73614600  0.61916000  1
  O  O36  1  0.73339000  0.23408400  0.73667200  1
  O  O37  1  0.26661000  0.26591600  0.23667200  1
  O  O38  1  0.26661000  0.76591600  0.26332800  1
  O  O39  1  0.73339000  0.73408400  0.76332800  1
  O  O40  1  0.60159700  0.42156100  0.66266200  1
  O  O41  1  0.39840300  0.07843900  0.16266200  1
  O  O42  1  0.39840300  0.57843900  0.33733800  1
  O  O43  1  0.60159700  0.92156100  0.83733800  1
  O  O44  1  0.25637700  0.29280100  0.72236000  1
  O  O45  1  0.74362300  0.20719900  0.22236000  1
  O  O46  1  0.74362300  0.70719900  0.27764000  1
  O  O47  1  0.25637700  0.79280100  0.77764000  1
  O  O48  1  0.64865700  0.43276600  0.85909000  1
  O  O49  1  0.35134300  0.06723400  0.35909000  1
  O  O50  1  0.35134300  0.56723400  0.14091000  1
  O  O51  1  0.64865700  0.93276600  0.64091000  1
  O  O52  1  0.33477500  0.33137100  0.04311900  1
  O  O53  1  0.66522500  0.16862900  0.54311900  1
  O  O54  1  0.66522500  0.66862900  0.95688100  1
  O  O55  1  0.95561300  0.10273300  0.68997900  1
loop_
_geom_bond_atom_site_label_1
_geom_bond_atom_site_label_2
_geom_bond_distance
_geom_bond_site_symmetry_2
Mg0 O11 2.064199 1_455
Mg0 O24 2.068130 1_455
Mg0 O18 2.106470 1_555
Mg0 O21 2.116685 1_555
Mg0 O5 2.135649 1_555
Mg1 O2 1.995643 1_565
Mg1 O25 2.004992 1_555
Mg1 O47 2.032325 1_555
Mg1 O43 2.039088 1_555
Mg1 O4 2.064270 1_455
Mg2 O3 1.995653 1_555
Mg2 O24 2.004992 1_555
Mg2 O46 2.032325 1_555
Mg2 O42 2.039088 1_555
Mg2 O5 2.064270 1_655
Mg3 O0 1.995653 1_545
Mg3 O27 2.004992 1_555
Mg3 O45 2.032325 1_555
Mg3 O41 2.039088 1_555
Mg3 O6 2.064270 1_655
Mg4 O1 1.995653 1_555
Mg4 O26 2.004992 1_555
Mg4 O44 2.032325 1_555
Mg4 O40 2.039088 1_555
Mg4 O7 2.064270 1_455
Mg5 O8 2.064199 1_455
Mg5 O27 2.068130 1_456
Mg5 O17 2.106470 1_555
Mg5 O52 2.116685 1_556
Mg5 O6 2.135649 1_556
Mg6 O9 2.064199 1_655
Mg6 O26 2.068130 1_655
Mg6 O16 2.106470 1_555
Mg6 O53 2.116685 1_555
Mg6 O7 2.135649 1_555
Mg7 O10 2.064199 1_655
Mg7 O25 2.068130 1_654
Mg7 O19 2.106470 1_555
Mg7 O54 2.116685 1_554
Mg7 O4 2.135649 1_554
Co0 O53 1.838630 1_555
Co0 O14 1.949790 1_555
Co0 O55 1.958851 1_555
Co0 O36 2.006089 1_555
Co0 O51 2.010541 1_545
Co1 O52 1.838630 1_555
Co1 O15 1.949790 1_555
Co1 O23 1.958847 1_555
Co1 O37 2.006089 1_555
Co1 O50 2.010541 1_555
Co2 O21 1.838630 1_555
Co2 O12 1.949790 1_555
Co2 O20 1.958847 1_555
Co2 O38 2.006089 1_555
Co2 O49 2.010541 1_565
Co3 O54 1.838630 1_555
Co3 O13 1.949790 1_555
Co3 O22 1.958851 1_555
Co3 O39 2.006089 1_555
Co3 O48 2.010541 1_555
Co4 O44 1.785613 1_555
Co4 O8 1.873836 1_455
Co4 O36 1.895753 1_455
Co4 O17 1.898647 1_555
Co4 O55 1.915108 1_455
Co5 O45 1.785613 1_555
Co5 O9 1.873836 1_655
Co5 O37 1.895753 1_655
Co5 O16 1.898647 1_555
Co5 O23 1.915117 1_655
Co6 O46 1.785613 1_555
Co6 O10 1.873836 1_655
Co6 O38 1.895753 1_655
Co6 O19 1.898647 1_555
Co6 O20 1.915117 1_655
Co7 O47 1.785613 1_555
Co7 O11 1.873836 1_455
Co7 O39 1.895753 1_455
Co7 O18 1.898647 1_555
Co7 O22 1.915108 1_455
O0 Ti0 1.817998 1_554
O1 Ti12 1.817998 1_555
O2 Ti14 1.818000 1_556
O3 Ti13 1.817998 1_555
O4 Ti0 1.874145 1_555
O5 Ti12 1.874145 1_555
O6 Ti14 1.874145 1_555
O7 Ti13 1.874145 1_555
O8 Ti0 1.842558 1_545
O9 Ti12 1.842558 1_555
O10 Ti14 1.842558 1_565
O11 Ti13 1.842558 1_555
O12 Ti15 1.768230 1_555
O13 Ti11 1.768230 1_555
O14 Ti10 1.768230 1_555
O15 Ti9 1.768230 1_555
O16 Ti15 1.897692 1_545
O17 Ti11 1.897692 1_555
O18 Ti10 1.897692 1_565
O19 Ti9 1.897692 1_555
O20 Ti15 1.975006 1_455
O21 Ti8 1.924618 1_555
O22 Ti11 1.975011 1_655
O23 Ti9 1.975006 1_455
O24 Ti8 1.780842 1_555
O25 Ti1 1.780842 1_556
O26 Ti2 1.780842 1_555
O27 Ti3 1.780842 1_554
O28 Ti15 1.780459 1_555
O28 Ti8 1.929734 1_555
O29 Ti11 1.780459 1_555
O29 Ti1 1.929734 1_556
O30 Ti10 1.780459 1_555
O30 Ti2 1.929734 1_555
O31 Ti9 1.780459 1_555
O31 Ti3 1.929734 1_554
O32 Ti7 1.802445 1_555
O32 Ti3 1.934295 1_555
O33 Ti6 1.802445 1_555
O33 Ti2 1.934295 1_555
O34 Ti5 1.802445 1_555
O34 Ti1 1.934295 1_555
O35 Ti4 1.802445 1_555
O35 Ti8 1.934295 1_555
O36 Ti7 1.907843 1_555
O37 Ti6 1.907843 1_555
O38 Ti5 1.907843 1_555
O39 Ti4 1.907843 1_555
O40 Ti13 1.796548 1_555
O40 Ti7 2.140999 1_555
O41 Ti14 1.796548 1_555
O41 Ti6 2.140999 1_555
O42 Ti12 1.796548 1_555
O42 Ti5 2.140999 1_555
O43 Ti0 1.796548 1_555
O43 Ti4 2.140999 1_555
O44 Ti7 1.938122 1_555
O45 Ti6 1.938122 1_555
O46 Ti5 1.938122 1_555
O47 Ti4 1.938122 1_555
O48 Ti7 1.877619 1_555
O48 Ti3 2.039324 1_555
O49 Ti6 1.877619 1_555
O49 Ti2 2.039324 1_555
O50 Ti5 1.877619 1_555
O50 Ti1 2.039324 1_555
O51 Ti4 1.877619 1_555
O51 Ti8 2.039324 1_555
O52 Ti3 1.924618 1_554
O53 Ti2 1.924618 1_555
O54 Ti1 1.924618 1_556
O55 Ti10 1.975011 1_655
