# generated using pymatgen
data_Hf2(TiGa)3
_symmetry_space_group_name_H-M   'P 1'
_cell_length_a   7.76778823
_cell_length_b   7.76778823
_cell_length_c   5.62278100
_cell_angle_alpha   90.00000000
_cell_angle_beta   90.00000000
_cell_angle_gamma   120.00000192
_symmetry_Int_Tables_number   1
_chemical_formula_structural   Hf2(TiGa)3
_chemical_formula_sum   'Hf4 Ti6 Ga6'
_cell_volume   293.81674664
_cell_formula_units_Z   2
loop_
 _symmetry_equiv_pos_site_id
 _symmetry_equiv_pos_as_xyz
  1  'x, y, z'
loop_
 _atom_site_type_symbol
 _atom_site_label
 _atom_site_symmetry_multiplicity
 _atom_site_fract_x
 _atom_site_fract_y
 _atom_site_fract_z
 _atom_site_occupancy
  Hf  Hf0  1  0.66666700  0.33333300  0.00000000  1
  Hf  Hf1  1  0.33333300  0.66666700  0.00000000  1
  Hf  Hf2  1  0.33333300  0.66666700  0.50000000  1
  Hf  Hf3  1  0.66666700  0.33333300  0.50000000  1
  Ti  Ti0  1  0.76282700  0.76282700  0.75000000  1
  Ti  Ti1  1  0.23717300  0.00000000  0.75000000  1
  Ti  Ti2  1  0.00000000  0.23717300  0.75000000  1
  Ti  Ti3  1  0.23717300  0.23717300  0.25000000  1
  Ti  Ti4  1  0.76282700  0.00000000  0.25000000  1
  Ti  Ti5  1  0.00000000  0.76282700  0.25000000  1
  Ga  Ga0  1  0.38625100  0.38625100  0.75000000  1
  Ga  Ga1  1  0.61374900  0.00000000  0.75000000  1
  Ga  Ga2  1  0.00000000  0.61374900  0.75000000  1
  Ga  Ga3  1  0.61374900  0.61374900  0.25000000  1
  Ga  Ga4  1  0.38625100  0.00000000  0.25000000  1
  Ga  Ga5  1  0.00000000  0.38625100  0.25000000  1
loop_
_geom_bond_atom_site_label_1
_geom_bond_atom_site_label_2
_geom_bond_distance
_geom_bond_site_symmetry_2
Ga0 Ti2 2.620780 1_555
Ga0 Ti1 2.620780 1_555
Ga0 Hf0 2.790147 1_556
Ga0 Hf1 2.790147 1_556
Ga0 Hf3 2.790147 1_555
Ga0 Hf2 2.790147 1_555
Ga0 Ti0 2.925163 1_555
Ga0 Ti3 3.040542 1_556
Ga0 Ti3 3.040542 1_555
Ga1 Ti2 2.620780 1_655
Ga1 Ti0 2.620780 1_545
Ga1 Hf3 2.790140 1_555
Ga1 Hf0 2.790140 1_556
Ga1 Hf1 2.790143 1_546
Ga1 Hf2 2.790143 1_545
Ga1 Ti1 2.925163 1_555
Ga1 Ti4 3.040542 1_556
Ga1 Ti4 3.040542 1_555
Ga2 Ti1 2.620780 1_565
Ga2 Ti0 2.620780 1_455
Ga2 Hf2 2.790140 1_555
Ga2 Hf1 2.790140 1_556
Ga2 Hf3 2.790143 1_455
Ga2 Hf0 2.790143 1_456
Ga2 Ti2 2.925163 1_555
Ga2 Ti5 3.040542 1_555
Ga2 Ti5 3.040542 1_556
Ga3 Ti4 2.620780 1_565
Ga3 Ti5 2.620780 1_655
Ga3 Hf0 2.790147 1_555
Ga3 Hf1 2.790147 1_555
Ga3 Hf3 2.790147 1_555
Ga3 Hf2 2.790147 1_555
Ga3 Ti3 2.925163 1_555
Ga3 Ti0 3.040542 1_555
Ga3 Ti0 3.040542 1_554
Ga4 Ti5 2.620780 1_545
Ga4 Ti3 2.620780 1_555
Ga4 Hf2 2.790140 1_545
Ga4 Hf1 2.790140 1_545
Ga4 Hf3 2.790143 1_555
Ga4 Hf0 2.790143 1_555
Ga4 Ti4 2.925163 1_555
Ga4 Ti1 3.040542 1_554
Ga4 Ti1 3.040542 1_555
Ga5 Ti4 2.620780 1_455
Ga5 Ti3 2.620780 1_555
Ga5 Hf3 2.790140 1_455
Ga5 Hf0 2.790140 1_455
Ga5 Hf1 2.790143 1_555
Ga5 Hf2 2.790143 1_555
Ga5 Ti5 2.925163 1_555
Ga5 Ti2 3.040542 1_555
Ga5 Ti2 3.040542 1_554
