# generated using pymatgen
data_Zn(WO2)2
_symmetry_space_group_name_H-M   'P 1'
_cell_length_a   6.39755615
_cell_length_b   6.39755615
_cell_length_c   21.04526950
_cell_angle_alpha   80.97601221
_cell_angle_beta   80.97601221
_cell_angle_gamma   58.40602120
_symmetry_Int_Tables_number   1
_chemical_formula_structural   Zn(WO2)2
_chemical_formula_sum   'Zn8 W16 O32'
_cell_volume   721.74597518
_cell_formula_units_Z   8
loop_
 _symmetry_equiv_pos_site_id
 _symmetry_equiv_pos_as_xyz
  1  'x, y, z'
loop_
 _atom_site_type_symbol
 _atom_site_label
 _atom_site_symmetry_multiplicity
 _atom_site_fract_x
 _atom_site_fract_y
 _atom_site_fract_z
 _atom_site_occupancy
  Zn  Zn0  1  0.64274400  0.64274400  0.02880400  1
  Zn  Zn1  1  0.12114900  0.12114900  0.12393100  1
  Zn  Zn2  1  0.90977100  0.90977100  0.27909600  1
  Zn  Zn3  1  0.39619900  0.39619900  0.37266200  1
  Zn  Zn4  1  0.60502800  0.60502800  0.63034500  1
  Zn  Zn5  1  0.52566400  0.52566400  0.48955100  1
  Zn  Zn6  1  0.86839500  0.86839500  0.87979700  1
  Zn  Zn7  1  0.74307500  0.74307500  0.75111900  1
  W  W0  1  0.61884200  0.11491000  0.12391600  1
  W  W1  1  0.25259000  0.25259000  0.25486700  1
  W  W2  1  0.11491000  0.61884200  0.12391600  1
  W  W3  1  0.12182700  0.12182700  0.55027200  1
  W  W4  1  0.91006500  0.38492900  0.37325500  1
  W  W5  1  0.59089100  0.59089100  0.21239000  1
  W  W6  1  0.38111800  0.38111800  0.82062100  1
  W  W7  1  0.38492900  0.91006500  0.37325500  1
  W  W8  1  0.10567200  0.64458000  0.61193300  1
  W  W9  1  0.88684500  0.88684500  0.47683100  1
  W  W10  1  0.64458000  0.10567200  0.61193300  1
  W  W11  1  0.92153100  0.33767600  0.87637200  1
  W  W12  1  0.33767600  0.92153100  0.87637200  1
  W  W13  1  0.10017900  0.10017900  0.68791300  1
  W  W14  1  0.98477300  0.98477300  0.01400200  1
  W  W15  1  0.34084800  0.34084800  0.95705300  1
  O  O0  1  0.29549600  0.80620400  0.07216600  1
  O  O1  1  0.93453300  0.93453300  0.18281300  1
  O  O2  1  0.80620400  0.29549600  0.07216600  1
  O  O3  1  0.79715300  0.79715300  0.06818900  1
  O  O4  1  0.42233700  0.42233700  0.18498700  1
  O  O5  1  0.55682300  0.09855500  0.31498900  1
  O  O6  1  0.41461000  0.96260800  0.19084500  1
  O  O7  1  0.20682600  0.20682600  0.43287100  1
  O  O8  1  0.09855500  0.55682300  0.31498900  1
  O  O9  1  0.30116200  0.30116200  0.06904700  1
  O  O10  1  0.07216600  0.07216600  0.31551600  1
  O  O11  1  0.96260800  0.41461000  0.19084500  1
  O  O12  1  0.75707900  0.34945700  0.55972000  1
  O  O13  1  0.69770400  0.69770400  0.42795300  1
  O  O14  1  0.70061600  0.22489400  0.43084500  1
  O  O15  1  0.42085600  0.42085600  0.66314300  1
  O  O16  1  0.34945700  0.75707900  0.55972000  1
  O  O17  1  0.59264100  0.59264100  0.32085300  1
  O  O18  1  0.30971200  0.30971200  0.55733200  1
  O  O19  1  0.22489400  0.70061600  0.43084500  1
  O  O20  1  0.91833600  0.91833600  0.68511500  1
  O  O21  1  0.01333500  0.57953100  0.81448100  1
  O  O22  1  0.92675800  0.47116100  0.67917700  1
  O  O23  1  0.68814900  0.68814900  0.92947700  1
  O  O24  1  0.57953100  0.01333500  0.81448100  1
  O  O25  1  0.77503100  0.77503100  0.56403100  1
  O  O26  1  0.56954600  0.56954600  0.81937700  1
  O  O27  1  0.47116100  0.92675800  0.67917700  1
  O  O28  1  0.16017800  0.16017800  0.95631700  1
  O  O29  1  0.19029300  0.73289600  0.94009500  1
  O  O30  1  0.04400100  0.04400100  0.81813400  1
  O  O31  1  0.73289600  0.19029300  0.94009500  1
loop_
_geom_bond_atom_site_label_1
_geom_bond_atom_site_label_2
_geom_bond_distance
_geom_bond_site_symmetry_2
O0 Zn0 2.022574 1_555
O0 Zn1 2.107902 1_565
O0 W2 2.145794 1_555
O0 W14 2.168002 1_455
O1 Zn2 1.995243 1_555
O1 W0 2.200364 1_565
O1 W2 2.200364 1_655
O1 Zn1 2.225221 1_665
O2 Zn0 2.022574 1_555
O2 Zn1 2.107902 1_655
O2 W0 2.145794 1_555
O2 W14 2.168002 1_545
O3 Zn0 2.043244 1_555
O3 W0 2.169719 1_565
O3 W2 2.169719 1_655
O3 W14 2.198357 1_555
O4 W5 2.065607 1_555
O4 W1 2.180627 1_555
O4 W2 2.189963 1_555
O4 W0 2.189963 1_555
O5 Zn2 2.005376 1_545
O5 Zn3 2.106794 1_555
O5 W7 2.160953 1_545
O5 W1 2.175321 1_555
O6 W5 2.035873 1_555
O6 W1 2.159309 1_565
O6 Zn1 2.218708 1_565
O6 W0 2.228590 1_565
O7 W4 2.123442 1_455
O7 W7 2.123442 1_545
O7 Zn3 2.261851 1_555
O7 W3 2.482507 1_555
O8 Zn2 2.005376 1_455
O8 Zn3 2.106794 1_555
O8 W4 2.160953 1_455
O8 W1 2.175321 1_555
O9 Zn1 2.131153 1_555
O9 W2 2.156597 1_555
O9 W0 2.156597 1_555
O9 W15 2.318666 1_554
O10 Zn2 2.092078 1_445
O10 W4 2.179193 1_455
O10 W7 2.179193 1_545
O10 W1 2.183007 1_555
O11 W5 2.035873 1_555
O11 W1 2.159309 1_655
O11 Zn1 2.218708 1_655
O11 W2 2.228590 1_655
O12 W3 1.997533 1_655
O12 Zn5 2.014514 1_555
O12 Zn4 2.114478 1_555
O12 W10 2.132680 1_555
O13 Zn5 2.115996 1_555
O13 W7 2.135036 1_555
O13 W4 2.135036 1_555
O13 W9 2.510301 1_555
O14 W9 2.009633 1_545
O14 Zn5 2.130034 1_555
O14 Zn3 2.141030 1_555
O14 W4 2.202594 1_555
O15 Zn4 2.048747 1_555
O15 W8 2.109456 1_555
O15 W10 2.109456 1_555
O16 W3 1.997533 1_565
O16 Zn5 2.014514 1_555
O16 Zn4 2.114478 1_555
O16 W8 2.132680 1_555
O17 W4 2.126320 1_555
O17 W7 2.126320 1_555
O17 Zn3 2.267789 1_555
O17 W5 2.286226 1_555
O18 W3 2.130170 1_555
O18 W8 2.232826 1_555
O18 W10 2.232826 1_555
O18 Zn5 2.572113 1_555
O19 W9 2.009633 1_455
O19 Zn5 2.130034 1_555
O19 Zn3 2.141030 1_555
O19 W7 2.202594 1_555
O20 W13 2.042372 1_665
O20 Zn7 2.187236 1_555
O20 W8 2.223396 1_655
O20 W10 2.223396 1_565
O21 W6 2.019568 1_555
O21 Zn7 2.062136 1_455
O21 W11 2.124986 1_455
O21 Zn6 2.183128 1_455
O22 W13 2.016362 1_655
O22 Zn4 2.136955 1_555
O22 Zn7 2.196713 1_555
O22 W8 2.207639 1_655
O23 Zn0 2.060541 1_556
O23 Zn6 2.095097 1_555
O23 W12 2.293589 1_555
O23 W11 2.293589 1_555
O24 W6 2.019568 1_555
O24 Zn7 2.062136 1_545
O24 W12 2.124986 1_545
O24 Zn6 2.183128 1_545
O25 W9 2.025767 1_555
O25 Zn4 2.144896 1_555
O25 W10 2.177740 1_565
O25 W8 2.177740 1_655
O26 W6 2.099970 1_555
O26 Zn7 2.195290 1_555
O26 W12 2.345022 1_555
O26 W11 2.345022 1_555
O27 W13 2.016362 1_565
O27 Zn4 2.136955 1_555
O27 Zn7 2.196713 1_555
O27 W10 2.207639 1_565
O28 W15 2.020709 1_555
O28 W14 2.111167 1_446
O28 W11 2.200239 1_455
O28 W12 2.200239 1_545
O29 W12 2.105183 1_555
O29 W15 2.154454 1_555
O29 W14 2.160868 1_456
O29 Zn6 2.281874 1_455
O30 W11 2.127126 1_455
O30 W12 2.127126 1_545
O30 Zn6 2.148514 1_445
O30 W13 2.699309 1_555
O31 W11 2.105183 1_555
O31 W15 2.154454 1_555
O31 W14 2.160868 1_546
O31 Zn6 2.281874 1_545
