# generated using pymatgen
data_GdV2Fe10N
_symmetry_space_group_name_H-M   'P 1'
_cell_length_a   4.75670200
_cell_length_b   6.49847801
_cell_length_c   6.49847801
_cell_angle_alpha   97.39533667
_cell_angle_beta   111.46826621
_cell_angle_gamma   68.53173379
_symmetry_Int_Tables_number   1
_chemical_formula_structural   GdV2Fe10N
_chemical_formula_sum   'Gd1 V2 Fe10 N1'
_cell_volume   173.96684270
_cell_formula_units_Z   1
loop_
 _symmetry_equiv_pos_site_id
 _symmetry_equiv_pos_as_xyz
  1  'x, y, z'
loop_
 _atom_site_type_symbol
 _atom_site_label
 _atom_site_symmetry_multiplicity
 _atom_site_fract_x
 _atom_site_fract_y
 _atom_site_fract_z
 _atom_site_occupancy
  Gd  Gd0  1  0.00000000  0.00000000  0.00000000  1
  V  V0  1  0.00000000  0.35880200  0.35880200  1
  V  V1  1  0.00000000  0.64119800  0.64119800  1
  Fe  Fe0  1  0.72492600  0.77507400  0.22492600  1
  Fe  Fe1  1  0.27507400  0.22492600  0.77507400  1
  Fe  Fe2  1  0.50000000  0.77611200  0.77611200  1
  Fe  Fe3  1  0.50000000  0.22388800  0.22388800  1
  Fe  Fe4  1  0.50000000  0.00000000  0.50000000  1
  Fe  Fe5  1  0.00000000  0.00000000  0.50000000  1
  Fe  Fe6  1  0.50000000  0.50000000  0.00000000  1
  Fe  Fe7  1  0.00000000  0.50000000  0.00000000  1
  Fe  Fe8  1  0.64004600  0.35995400  0.64004600  1
  Fe  Fe9  1  0.35995400  0.64004600  0.35995400  1
  N  N0  1  0.50000000  0.00000000  0.00000000  1
loop_
_geom_bond_atom_site_label_1
_geom_bond_atom_site_label_2
_geom_bond_distance
_geom_bond_site_symmetry_2
Gd0 N0 2.378351 1_455
Gd0 N0 2.378351 1_555
Gd0 V0 3.077951 1_555
Gd0 V1 3.077951 1_544
V0 V1 2.422509 1_555
Fe0 N0 1.917889 1_565
Fe0 Fe6 2.461538 1_555
Fe0 Fe7 2.461538 1_655
Fe0 Fe4 2.461538 1_565
Fe0 Fe5 2.461538 1_665
Fe0 V0 2.639783 1_655
Fe0 V1 2.639783 1_655
Fe0 Fe9 2.642378 1_555
Fe0 Fe9 2.642378 1_655
Fe1 N0 1.917889 1_556
Fe1 Fe4 2.461538 1_555
Fe1 Fe5 2.461538 1_555
Fe1 Fe6 2.461538 1_556
Fe1 Fe7 2.461538 1_556
Fe1 V0 2.639783 1_555
Fe1 V1 2.639783 1_555
Fe1 Fe8 2.642378 1_555
Fe1 Fe8 2.642378 1_455
Fe2 N0 1.920603 1_566
Fe2 Fe6 2.451206 1_556
Fe2 Fe7 2.451206 1_656
Fe2 Fe4 2.451206 1_565
Fe2 Fe5 2.451206 1_565
Fe2 V1 2.644997 1_555
Fe2 V1 2.644997 1_655
Fe2 Fe9 2.652591 1_555
Fe2 Fe8 2.652591 1_555
Fe3 N0 1.920603 1_555
Fe3 Fe4 2.451206 1_555
Fe3 Fe5 2.451206 1_655
Fe3 Fe7 2.451206 1_555
Fe3 Fe6 2.451206 1_555
Fe3 V0 2.644997 1_655
Fe3 V0 2.644997 1_555
Fe3 Fe8 2.652591 1_555
Fe3 Fe9 2.652591 1_555
Fe4 Fe5 2.378351 1_555
Fe4 Fe5 2.378351 1_655
Fe4 V0 2.613307 1_555
Fe4 V1 2.613307 1_645
Fe4 Fe9 2.625349 1_545
Fe4 Fe8 2.625349 1_555
Fe4 Gd0 3.249239 1_555
Fe4 Gd0 3.249239 1_656
Fe5 V0 2.613307 1_555
Fe5 V1 2.613307 1_545
Fe5 Fe8 2.625349 1_455
Fe5 Fe9 2.625349 1_545
Fe5 Gd0 3.249239 1_555
Fe5 Gd0 3.249239 1_556
Fe6 Fe7 2.378351 1_655
Fe6 Fe7 2.378351 1_555
Fe6 V0 2.613307 1_655
Fe6 V1 2.613307 1_554
Fe6 Fe8 2.625349 1_554
Fe6 Fe9 2.625349 1_555
Fe6 Gd0 3.249239 1_565
Fe6 Gd0 3.249239 1_655
Fe7 V0 2.613307 1_555
Fe7 V1 2.613307 1_554
Fe7 Fe8 2.625349 1_454
Fe7 Fe9 2.625349 1_555
Fe7 Gd0 3.249239 1_555
Fe7 Gd0 3.249239 1_565
Fe8 Fe9 2.388276 1_555
Fe8 V1 2.923979 1_555
Fe8 V1 2.923979 1_655
Fe8 V0 2.923979 1_655
Fe8 V0 2.923979 1_555
Fe8 Gd0 3.069239 1_656
Fe9 V1 2.923979 1_555
Fe9 V1 2.923979 1_655
Fe9 V0 2.923979 1_655
Fe9 V0 2.923979 1_555
Fe9 Gd0 3.069239 1_565
