# generated using pymatgen
data_YbBeF4
_symmetry_space_group_name_H-M   'P 1'
_cell_length_a   7.67210515
_cell_length_b   8.08823598
_cell_length_c   5.31578320
_cell_angle_alpha   106.77994567
_cell_angle_beta   82.21098222
_cell_angle_gamma   92.80220400
_symmetry_Int_Tables_number   1
_chemical_formula_structural   YbBeF4
_chemical_formula_sum   'Yb4 Be4 F16'
_cell_volume   312.88872871
_cell_formula_units_Z   4
loop_
 _symmetry_equiv_pos_site_id
 _symmetry_equiv_pos_as_xyz
  1  'x, y, z'
loop_
 _atom_site_type_symbol
 _atom_site_label
 _atom_site_symmetry_multiplicity
 _atom_site_fract_x
 _atom_site_fract_y
 _atom_site_fract_z
 _atom_site_occupancy
  Yb  Yb0  1  0.86599300  0.90418100  0.73483900  1
  Yb  Yb1  1  0.41505600  0.87969100  0.71743700  1
  Yb  Yb2  1  0.13399700  0.09576100  0.26516300  1
  Yb  Yb3  1  0.58497000  0.12028200  0.28258700  1
  Be  Be0  1  0.80110500  0.48536400  0.31654300  1
  Be  Be1  1  0.19888100  0.51460100  0.68339300  1
  Be  Be2  1  0.85460500  0.35551400  0.75178800  1
  Be  Be3  1  0.14543000  0.64452500  0.24819900  1
  F  F0  1  0.04675700  0.81595900  0.33669000  1
  F  F1  1  0.25883200  0.63451100  0.48140100  1
  F  F2  1  0.65673000  0.00776100  0.57940500  1
  F  F3  1  0.86950000  0.09989200  0.12653300  1
  F  F4  1  0.01027000  0.48693100  0.24507200  1
  F  F5  1  0.98970900  0.51319200  0.75503700  1
  F  F6  1  0.73739900  0.39129400  0.03371300  1
  F  F7  1  0.95327900  0.18406400  0.66325900  1
  F  F8  1  0.27213300  0.34012700  0.53621600  1
  F  F9  1  0.13049300  0.90006700  0.87340000  1
  F  F10  1  0.26261600  0.60877700  0.96628900  1
  F  F11  1  0.61429200  0.86637900  0.97913400  1
  F  F12  1  0.72772100  0.65989600  0.46392500  1
  F  F13  1  0.34330300  0.99218300  0.42056700  1
  F  F14  1  0.38572600  0.13357500  0.02087600  1
  F  F15  1  0.74120500  0.36547800  0.51853100  1
loop_
_geom_bond_atom_site_label_1
_geom_bond_atom_site_label_2
_geom_bond_distance
_geom_bond_site_symmetry_2
Be0 F12 1.497706 1_555
Be0 F4 1.598505 1_655
Be0 F6 1.606398 1_555
Be0 F15 1.651717 1_555
Be1 F8 1.496753 1_555
Be1 F5 1.598618 1_455
Be1 F10 1.606946 1_555
Be1 F1 1.651944 1_555
Be2 F7 1.531947 1_555
Be2 F6 1.596262 1_556
Be2 F5 1.601269 1_555
Be2 F15 1.630288 1_555
Be3 F0 1.531839 1_555
Be3 F10 1.596145 1_554
Be3 F4 1.601099 1_555
Be3 F1 1.630170 1_555
F0 Yb0 2.311087 1_455
F0 Yb2 2.448254 1_565
F1 Yb1 2.383697 1_555
F2 Yb3 2.175882 1_555
F2 Yb0 2.202934 1_545
F2 Yb1 2.220712 1_545
F3 Yb3 2.223953 1_555
F3 Yb0 2.224818 1_544
F3 Yb2 2.255705 1_655
F7 Yb2 2.310752 1_655
F7 Yb0 2.449061 1_545
F8 Yb2 2.381284 1_555
F9 Yb1 2.224082 1_555
F9 Yb2 2.225024 1_566
F9 Yb0 2.255540 1_455
F11 Yb3 2.214530 1_566
F11 Yb1 2.227613 1_555
F11 Yb0 2.236237 1_555
F12 Yb0 2.381062 1_555
F13 Yb1 2.175955 1_555
F13 Yb2 2.203095 1_565
F13 Yb3 2.220696 1_565
F14 Yb1 2.214388 1_544
F14 Yb3 2.227674 1_555
F14 Yb2 2.236408 1_555
F15 Yb3 2.383654 1_555
