# generated using pymatgen
data_Mg6CuNi
_symmetry_space_group_name_H-M   'P 1'
_cell_length_a   5.91252735
_cell_length_b   5.91252735
_cell_length_c   4.79197100
_cell_angle_alpha   90.00000000
_cell_angle_beta   90.00000000
_cell_angle_gamma   120.23108254
_symmetry_Int_Tables_number   1
_chemical_formula_structural   Mg6CuNi
_chemical_formula_sum   'Mg6 Cu1 Ni1'
_cell_volume   144.73552771
_cell_formula_units_Z   1
loop_
 _symmetry_equiv_pos_site_id
 _symmetry_equiv_pos_as_xyz
  1  'x, y, z'
loop_
 _atom_site_type_symbol
 _atom_site_label
 _atom_site_symmetry_multiplicity
 _atom_site_fract_x
 _atom_site_fract_y
 _atom_site_fract_z
 _atom_site_occupancy
  Mg  Mg0  1  0.14212600  0.32966000  0.50000000  1
  Mg  Mg1  1  0.67034000  0.85787400  0.50000000  1
  Mg  Mg2  1  0.16515700  0.83484300  0.50000000  1
  Mg  Mg3  1  0.35193800  0.16869200  0.00000000  1
  Mg  Mg4  1  0.83130800  0.64806200  0.00000000  1
  Mg  Mg5  1  0.33519500  0.66480500  0.00000000  1
  Cu  Cu0  1  0.66689200  0.33310800  0.50000000  1
  Ni  Ni0  1  0.83704300  0.16295600  0.00000000  1
loop_
_geom_bond_atom_site_label_1
_geom_bond_atom_site_label_2
_geom_bond_distance
_geom_bond_site_symmetry_2
Mg0 Mg1 2.779699 1_445
Mg0 Ni0 2.859310 1_455
Mg0 Ni0 2.859310 1_456
Mg0 Mg2 2.920718 1_555
Mg0 Mg5 2.948323 1_555
Mg0 Mg5 2.948323 1_556
Mg0 Mg2 2.996490 1_545
Mg0 Mg3 3.061747 1_556
Mg0 Mg3 3.061747 1_555
Mg0 Mg1 3.112165 1_555
Mg1 Ni0 2.859307 1_565
Mg1 Ni0 2.859307 1_566
Mg1 Mg2 2.920718 1_555
Mg1 Mg5 2.948323 1_555
Mg1 Mg5 2.948323 1_556
Mg1 Mg2 2.996490 1_655
Mg1 Mg4 3.061747 1_556
Mg1 Mg4 3.061747 1_555
Mg2 Mg3 2.943044 1_566
Mg2 Mg3 2.943044 1_565
Mg2 Mg4 2.943044 1_456
Mg2 Mg4 2.943044 1_455
Mg2 Mg5 2.963108 1_555
Mg2 Mg5 2.963108 1_556
Mg3 Mg4 2.824383 1_555
Mg3 Ni0 2.885421 1_555
Mg3 Mg5 2.930652 1_545
Mg3 Mg5 2.984350 1_555
Mg3 Ni0 3.027397 1_455
Mg3 Mg4 3.067481 1_445
Mg4 Ni0 2.885424 1_555
Mg4 Mg5 2.930652 1_655
Mg4 Mg5 2.984350 1_555
Mg4 Ni0 3.027394 1_565
Mg5 Ni0 2.945990 1_565
Mg5 Ni0 2.945996 1_455
Cu0 Mg1 2.820153 1_545
Cu0 Mg0 2.820153 1_655
Cu0 Mg3 2.886272 1_555
Cu0 Mg3 2.886272 1_556
Cu0 Mg4 2.886272 1_555
Cu0 Mg4 2.886272 1_556
Cu0 Mg2 2.945986 1_545
Cu0 Mg2 2.945986 1_655
Cu0 Ni0 2.963793 1_555
Cu0 Ni0 2.963793 1_556
Cu0 Mg0 3.092479 1_555
Cu0 Mg1 3.092479 1_555
