# generated using pymatgen
data_Zr(Ni2As)2
_symmetry_space_group_name_H-M   'P 1'
_cell_length_a   3.72560442
_cell_length_b   7.02784122
_cell_length_c   7.02785485
_cell_angle_alpha   89.99773404
_cell_angle_beta   90.00000000
_cell_angle_gamma   90.00000000
_symmetry_Int_Tables_number   1
_chemical_formula_structural   Zr(Ni2As)2
_chemical_formula_sum   'Zr2 Ni8 As4'
_cell_volume   184.01001643
_cell_formula_units_Z   2
loop_
 _symmetry_equiv_pos_site_id
 _symmetry_equiv_pos_as_xyz
  1  'x, y, z'
loop_
 _atom_site_type_symbol
 _atom_site_label
 _atom_site_symmetry_multiplicity
 _atom_site_fract_x
 _atom_site_fract_y
 _atom_site_fract_z
 _atom_site_occupancy
  Zr  Zr0  1  0.00000000  0.50000000  0.50000000  1
  Zr  Zr1  1  0.50000000  -0.00000000  0.00000000  1
  Ni  Ni0  1  0.50000000  0.15500030  0.59043985  1
  Ni  Ni1  1  0.50000000  0.84499970  0.40956015  1
  Ni  Ni2  1  0.00000000  0.34490081  0.09038513  1
  Ni  Ni3  1  0.00000000  0.65509919  0.90961487  1
  Ni  Ni4  1  0.50000000  0.59039840  0.15497907  1
  Ni  Ni5  1  0.50000000  0.40960160  0.84502093  1
  Ni  Ni6  1  0.00000000  0.09041586  0.34487823  1
  Ni  Ni7  1  0.00000000  0.90958414  0.65512177  1
  As  As0  1  0.50000000  0.71698956  0.71703393  1
  As  As1  1  0.50000000  0.28301044  0.28296607  1
  As  As2  1  0.00000000  0.78297374  0.21697119  1
  As  As3  1  -0.00000000  0.21702626  0.78302881  1
loop_
_geom_bond_atom_site_label_1
_geom_bond_atom_site_label_2
_geom_bond_distance
_geom_bond_site_symmetry_2
Ni0 Zr1 3.077522 1_556
Ni0 Zr0 3.122915 1_555
Ni0 Zr0 3.122915 1_655
Ni1 Zr1 3.077522 1_565
Ni1 Zr0 3.122915 1_555
Ni1 Zr0 3.122915 1_655
Ni2 Zr0 3.078209 1_555
Ni2 Zr1 3.122336 1_455
Ni2 Zr1 3.122336 1_555
Ni3 Zr0 3.078209 1_555
Ni3 Zr1 3.122336 1_466
Ni3 Zr1 3.122336 1_566
Ni4 Zr1 3.077738 1_565
Ni4 Zr0 3.122975 1_655
Ni4 Zr0 3.122975 1_555
Ni5 Zr1 3.077738 1_556
Ni5 Zr0 3.122975 1_655
Ni5 Zr0 3.122975 1_555
Ni6 Zr0 3.078058 1_555
Ni6 Zr1 3.122260 1_555
Ni6 Zr1 3.122260 1_455
Ni7 Zr0 3.078058 1_555
Ni7 Zr1 3.122260 1_466
Ni7 Zr1 3.122260 1_566
As0 Ni5 2.340018 1_555
As0 Ni1 2.340640 1_555
As0 Ni3 2.343277 1_555
As0 Ni3 2.343277 1_655
As0 Ni7 2.343359 1_555
As0 Ni7 2.343359 1_655
As0 Zr1 2.812641 1_566
As0 Zr0 2.849953 1_655
As0 Zr0 2.849953 1_555
As1 Ni4 2.340018 1_555
As1 Ni0 2.340640 1_555
As1 Ni2 2.343277 1_555
As1 Ni2 2.343277 1_655
As1 Ni6 2.343359 1_555
As1 Ni6 2.343359 1_655
As1 Zr1 2.812641 1_555
As1 Zr0 2.849953 1_655
As1 Zr0 2.849953 1_555
As2 Ni3 2.339578 1_554
As2 Ni6 2.340219 1_565
As2 Ni4 2.343406 1_455
As2 Ni4 2.343406 1_555
As2 Ni1 2.343507 1_555
As2 Ni1 2.343507 1_455
As2 Zr0 2.812660 1_555
As2 Zr1 2.849791 1_565
As2 Zr1 2.849791 1_465
As3 Ni2 2.339578 1_556
As3 Ni7 2.340219 1_545
As3 Ni5 2.343406 1_455
As3 Ni5 2.343406 1_555
As3 Ni0 2.343507 1_455
As3 Ni0 2.343507 1_555
As3 Zr0 2.812660 1_555
As3 Zr1 2.849791 1_456
As3 Zr1 2.849791 1_556
