# generated using pymatgen
data_RbSbClF3
_symmetry_space_group_name_H-M   'P 1'
_cell_length_a   8.23839100
_cell_length_b   8.53066600
_cell_length_c   15.41551700
_cell_angle_alpha   90.00000000
_cell_angle_beta   90.00000000
_cell_angle_gamma   90.00000000
_symmetry_Int_Tables_number   1
_chemical_formula_structural   RbSbClF3
_chemical_formula_sum   'Rb8 Sb8 Cl8 F24'
_cell_volume   1083.38653343
_cell_formula_units_Z   8
loop_
 _symmetry_equiv_pos_site_id
 _symmetry_equiv_pos_as_xyz
  1  'x, y, z'
loop_
 _atom_site_type_symbol
 _atom_site_label
 _atom_site_symmetry_multiplicity
 _atom_site_fract_x
 _atom_site_fract_y
 _atom_site_fract_z
 _atom_site_occupancy
  Rb  Rb0  1  0.18154100  0.19247200  0.44224100  1
  Rb  Rb1  1  0.81845900  0.80752800  0.55775900  1
  Rb  Rb2  1  0.31845900  0.80752800  0.94224100  1
  Rb  Rb3  1  0.81845900  0.69247200  0.05775900  1
  Rb  Rb4  1  0.68154100  0.19247200  0.05775900  1
  Rb  Rb5  1  0.18154100  0.30752800  0.94224100  1
  Rb  Rb6  1  0.68154100  0.30752800  0.55775900  1
  Rb  Rb7  1  0.31845900  0.69247200  0.44224100  1
  Sb  Sb0  1  0.12902400  0.00356700  0.17572600  1
  Sb  Sb1  1  0.87097600  0.99643300  0.82427400  1
  Sb  Sb2  1  0.37097600  0.99643300  0.67572600  1
  Sb  Sb3  1  0.87097600  0.50356700  0.32427400  1
  Sb  Sb4  1  0.62902400  0.00356700  0.32427400  1
  Sb  Sb5  1  0.12902400  0.49643300  0.67572600  1
  Sb  Sb6  1  0.62902400  0.49643300  0.82427400  1
  Sb  Sb7  1  0.37097600  0.50356700  0.17572600  1
  Cl  Cl0  1  0.01834400  0.37811400  0.14973600  1
  Cl  Cl1  1  0.98165600  0.62188600  0.85026400  1
  Cl  Cl2  1  0.48165600  0.62188600  0.64973600  1
  Cl  Cl3  1  0.98165600  0.87811400  0.35026400  1
  Cl  Cl4  1  0.51834400  0.37811400  0.35026400  1
  Cl  Cl5  1  0.01834400  0.12188600  0.64973600  1
  Cl  Cl6  1  0.51834400  0.12188600  0.85026400  1
  Cl  Cl7  1  0.48165600  0.87811400  0.14973600  1
  F  F0  1  0.15788300  0.04251000  0.04997000  1
  F  F1  1  0.84211700  0.95749000  0.95003000  1
  F  F2  1  0.34211700  0.95749000  0.54997000  1
  F  F3  1  0.84211700  0.54251000  0.45003000  1
  F  F4  1  0.65788300  0.04251000  0.45003000  1
  F  F5  1  0.15788300  0.45749000  0.54997000  1
  F  F6  1  0.65788300  0.45749000  0.95003000  1
  F  F7  1  0.34211700  0.54251000  0.04997000  1
  F  F8  1  0.39120300  0.00303300  0.34562300  1
  F  F9  1  0.60879700  0.99696700  0.65437700  1
  F  F10  1  0.10879700  0.99696700  0.84562300  1
  F  F11  1  0.60879700  0.50303300  0.15437700  1
  F  F12  1  0.89120300  0.00303300  0.15437700  1
  F  F13  1  0.39120300  0.49696700  0.84562300  1
  F  F14  1  0.89120300  0.49696700  0.65437700  1
  F  F15  1  0.10879700  0.50303300  0.34562300  1
  F  F16  1  0.38702800  0.27894500  0.14641200  1
  F  F17  1  0.61297200  0.72105500  0.85358800  1
  F  F18  1  0.11297200  0.72105500  0.64641200  1
  F  F19  1  0.61297200  0.77894500  0.35358800  1
  F  F20  1  0.88702800  0.27894500  0.35358800  1
  F  F21  1  0.38702800  0.22105500  0.64641200  1
  F  F22  1  0.88702800  0.22105500  0.85358800  1
  F  F23  1  0.11297200  0.77894500  0.14641200  1
loop_
_geom_bond_atom_site_label_1
_geom_bond_atom_site_label_2
_geom_bond_distance
_geom_bond_site_symmetry_2
Cl0 Sb7 3.121789 1_555
Cl0 Sb3 3.139840 1_455
Cl0 Rb3 3.451595 1_455
Cl0 Rb4 3.495333 1_455
Cl0 Rb5 3.521580 1_554
Cl1 Sb6 3.121789 1_555
Cl1 Sb5 3.139840 1_655
Cl1 Rb5 3.451595 1_655
Cl1 Rb2 3.495333 1_655
Cl1 Rb3 3.521580 1_556
Cl2 Sb5 3.121789 1_555
Cl2 Sb6 3.139840 1_555
Cl2 Rb6 3.451595 1_555
Cl2 Rb1 3.495333 1_555
Cl2 Rb7 3.521580 1_555
Cl3 Sb4 3.121789 1_565
Cl3 Sb0 3.139840 1_665
Cl3 Rb0 3.451595 1_665
Cl3 Rb7 3.495333 1_655
Cl3 Rb1 3.521580 1_555
Cl4 Sb3 3.121789 1_555
Cl4 Sb7 3.139840 1_555
Cl4 Rb7 3.451595 1_555
Cl4 Rb0 3.495333 1_555
Cl4 Rb6 3.521580 1_555
Cl5 Sb2 3.121789 1_545
Cl5 Sb1 3.139840 1_445
Cl5 Rb1 3.451595 1_445
Cl5 Rb6 3.495333 1_455
Cl5 Rb0 3.521580 1_555
Cl6 Sb1 3.121789 1_545
Cl6 Sb2 3.139840 1_545
Cl6 Rb2 3.451595 1_545
Cl6 Rb5 3.495333 1_555
Cl6 Rb4 3.521580 1_556
Cl7 Sb0 3.121789 1_565
Cl7 Sb4 3.139840 1_565
Cl7 Rb4 3.451595 1_565
Cl7 Rb3 3.495333 1_555
Cl7 Rb2 3.521580 1_554
F0 Sb0 1.981170 1_555
F0 Rb5 2.811945 1_554
F0 Rb2 2.919963 1_544
F1 Sb1 1.981170 1_555
F1 Rb3 2.811945 1_556
F1 Rb4 2.919963 1_566
F2 Sb2 1.981170 1_555
F2 Rb7 2.811945 1_555
F2 Rb0 2.919963 1_565
F3 Sb3 1.981170 1_555
F3 Rb1 2.811945 1_555
F3 Rb6 2.919963 1_555
F4 Sb4 1.981170 1_555
F4 Rb6 2.811945 1_555
F4 Rb1 2.919963 1_545
F5 Sb5 1.981170 1_555
F5 Rb0 2.811945 1_555
F5 Rb7 2.919963 1_555
F6 Sb6 1.981170 1_555
F6 Rb4 2.811945 1_556
F6 Rb3 2.919963 1_556
F7 Sb7 1.981170 1_555
F7 Rb2 2.811945 1_554
F7 Rb5 2.919963 1_554
F8 Sb4 1.986716 1_555
F8 Rb0 2.795253 1_555
F8 Rb7 3.097784 1_545
F9 Sb2 1.986716 1_555
F9 Rb1 2.795253 1_555
F9 Rb6 3.097784 1_565
F10 Sb1 1.986716 1_455
F10 Rb2 2.795253 1_555
F10 Rb5 3.097784 1_565
F11 Sb7 1.986716 1_555
F11 Rb3 2.795253 1_555
F11 Rb4 3.097784 1_555
F12 Sb0 1.986716 1_655
F12 Rb4 2.795253 1_555
F12 Rb3 3.097784 1_545
F13 Sb6 1.986716 1_555
F13 Rb5 2.795253 1_555
F13 Rb2 3.097784 1_555
F14 Sb5 1.986716 1_655
F14 Rb6 2.795253 1_555
F14 Rb1 3.097784 1_555
F15 Sb3 1.986716 1_455
F15 Rb7 2.795253 1_555
F15 Rb0 3.097784 1_555
F16 Sb7 1.973175 1_555
F16 Rb4 2.880771 1_555
F17 Sb6 1.973175 1_555
F17 Rb2 2.880771 1_555
F18 Sb5 1.973175 1_555
F18 Rb1 2.880771 1_455
F19 Sb4 1.973175 1_565
F19 Rb7 2.880771 1_555
F20 Sb3 1.973175 1_555
F20 Rb0 2.880771 1_655
F21 Sb2 1.973175 1_545
F21 Rb6 2.880771 1_555
F22 Sb1 1.973175 1_545
F22 Rb5 2.880771 1_655
F23 Sb0 1.973175 1_565
F23 Rb3 2.880771 1_455
