# generated using pymatgen
data_Sr3Pr7Cr9NiO30
_symmetry_space_group_name_H-M   'P 1'
_cell_length_a   5.56291370
_cell_length_b   5.51613987
_cell_length_c   39.15346005
_cell_angle_alpha   89.87661368
_cell_angle_beta   89.96471372
_cell_angle_gamma   90.30377166
_symmetry_Int_Tables_number   1
_chemical_formula_structural   Sr3Pr7Cr9NiO30
_chemical_formula_sum   'Sr6 Pr14 Cr18 Ni2 O60'
_cell_volume   1201.43573109
_cell_formula_units_Z   2
loop_
 _symmetry_equiv_pos_site_id
 _symmetry_equiv_pos_as_xyz
  1  'x, y, z'
loop_
 _atom_site_type_symbol
 _atom_site_label
 _atom_site_symmetry_multiplicity
 _atom_site_fract_x
 _atom_site_fract_y
 _atom_site_fract_z
 _atom_site_occupancy
  Sr  Sr0  1  0.02586181  0.99407566  0.04986181  1
  Sr  Sr1  1  0.02585612  0.99523467  0.24917664  1
  Sr  Sr2  1  0.02948515  0.99295664  0.44956755  1
  Sr  Sr3  1  0.02922546  0.99484270  0.64975996  1
  Sr  Sr4  1  0.02849863  0.99400176  0.84940391  1
  Sr  Sr5  1  0.47634194  0.49634236  0.14961168  1
  Pr  Pr0  1  0.46315935  0.49429820  0.35066870  1
  Pr  Pr1  1  0.45966695  0.49287163  0.55076819  1
  Pr  Pr2  1  0.45946891  0.49246473  0.75058122  1
  Pr  Pr3  1  0.46415234  0.49456075  0.95090739  1
  Pr  Pr4  1  0.53913082  0.50917579  0.04989519  1
  Pr  Pr5  1  0.54025369  0.50960049  0.24906020  1
  Pr  Pr6  1  0.54335645  0.51073255  0.64959136  1
  Pr  Pr7  1  0.53950202  0.51020606  0.44941809  1
  Pr  Pr8  1  0.54346909  0.51009766  0.84931541  1
  Pr  Pr9  1  0.96073326  0.00934345  0.14967132  1
  Pr  Pr10  1  0.95789616  0.00879008  0.55078791  1
  Pr  Pr11  1  0.95870277  0.00730330  0.75040836  1
  Pr  Pr12  1  0.95787778  0.00996767  0.35093220  1
  Pr  Pr13  1  0.95849282  0.00946516  0.95073106  1
  Cr  Cr0  1  0.00131627  0.50136257  0.00013416  1
  Cr  Cr1  1  0.00330377  0.49978896  0.09984160  1
  Cr  Cr2  1  0.00172017  0.50218704  0.29965269  1
  Cr  Cr3  1  0.00087403  0.50367452  0.50009149  1
  Cr  Cr4  1  0.49671633  0.00182035  0.09980328  1
  Cr  Cr5  1  0.49677696  0.99902499  0.00021392  1
  Cr  Cr6  1  0.49742957  0.99885968  0.29971091  1
  Cr  Cr7  1  0.49691282  0.00083082  0.49999859  1
  Cr  Cr8  1  0.49669130  0.00073413  0.19957977  1
  Cr  Cr9  1  0.49711582  0.99945648  0.69979793  1
  Cr  Cr10  1  0.49784420  0.99919131  0.89973991  1
  Cr  Cr11  1  0.49771431  0.99768336  0.60021094  1
  Cr  Cr12  1  0.49708530  0.99960603  0.40034356  1
  Cr  Cr13  1  0.49795708  0.99800570  0.79995630  1
  Cr  Cr14  1  0.00342810  0.50028045  0.19957772  1
  Cr  Cr15  1  0.00120469  0.50172375  0.69975583  1
  Cr  Cr16  1  0.00058316  0.50073280  0.40034197  1
  Cr  Cr17  1  0.00274194  0.50082518  0.89951413  1
  Ni  Ni0  1  0.00079543  0.50006571  0.60036342  1
  Ni  Ni1  1  0.00086480  0.50027522  0.80005102  1
  O  O0  1  0.01034295  0.57478987  0.14939406  1
  O  O1  1  0.01891656  0.57757744  0.34920512  1
  O  O2  1  0.01865603  0.57500881  0.54829068  1
  O  O3  1  0.01762788  0.57390303  0.74799059  1
  O  O4  1  0.01723501  0.57556862  0.94893735  1
  O  O5  1  0.21100298  0.21965365  0.10795235  1
  O  O6  1  0.21433403  0.22217618  0.30883563  1
  O  O7  1  0.21454143  0.22270643  0.50957233  1
  O  O8  1  0.21610007  0.21940003  0.70946540  1
  O  O9  1  0.21658974  0.22142452  0.90918571  1
  O  O10  1  0.21690669  0.20812531  0.19276717  1
  O  O11  1  0.22539812  0.20579599  0.59134906  1
  O  O12  1  0.21501099  0.21670003  0.39073130  1
  O  O13  1  0.22558338  0.20581385  0.79119865  1
  O  O14  1  0.21588123  0.21726532  0.99074769  1
  O  O15  1  0.28154880  0.70780100  0.09283978  1
  O  O16  1  0.28971058  0.70190804  0.29290848  1
  O  O17  1  0.28891595  0.70195529  0.49325550  1
  O  O18  1  0.28818994  0.70094668  0.69298703  1
  O  O19  1  0.29454420  0.70315503  0.00679103  1
  O  O20  1  0.28811614  0.70056729  0.89297824  1
  O  O21  1  0.28895297  0.71935003  0.20774858  1
  O  O22  1  0.29373573  0.70373686  0.40727035  1
  O  O23  1  0.29949759  0.71723505  0.60699430  1
  O  O24  1  0.29902374  0.71700467  0.80649140  1
  O  O25  1  0.49094738  0.07817132  0.05017874  1
  O  O26  1  0.49038839  0.08192939  0.64978400  1
  O  O27  1  0.49060881  0.07520635  0.24918700  1
  O  O28  1  0.49073977  0.08167044  0.45041570  1
  O  O29  1  0.49167960  0.08036604  0.84954442  1
  O  O30  1  0.51428710  0.92589198  0.34966029  1
  O  O31  1  0.51717452  0.94417148  0.15117361  1
  O  O32  1  0.51504036  0.92349605  0.55013434  1
  O  O33  1  0.51398534  0.92379642  0.74978286  1
  O  O34  1  0.51349427  0.92646325  0.94959490  1
  O  O35  1  0.72250792  0.26975804  0.19332660  1
  O  O36  1  0.71569607  0.28480678  0.39130359  1
  O  O37  1  0.70717003  0.27441053  0.59188507  1
  O  O38  1  0.72935552  0.27912043  0.10690884  1
  O  O39  1  0.71976141  0.28612871  0.30828288  1
  O  O40  1  0.70771768  0.27469718  0.79163136  1
  O  O41  1  0.72030914  0.28735289  0.50916261  1
  O  O42  1  0.71698317  0.28341361  0.99114641  1
  O  O43  1  0.72155548  0.28785260  0.70872215  1
  O  O44  1  0.72259836  0.28763639  0.90847455  1
  O  O45  1  0.77212424  0.77815108  0.20641420  1
  O  O46  1  0.78043440  0.77964917  0.00596955  1
  O  O47  1  0.77141384  0.79174375  0.60604198  1
  O  O48  1  0.78072211  0.78021113  0.40659708  1
  O  O49  1  0.77749419  0.76923127  0.09365828  1
  O  O50  1  0.77014146  0.79073527  0.80570058  1
  O  O51  1  0.77995915  0.77768296  0.69308456  1
  O  O52  1  0.78119446  0.77293806  0.29325932  1
  O  O53  1  0.78151844  0.77417385  0.49343437  1
  O  O54  1  0.78048042  0.77476200  0.89299619  1
  O  O55  1  0.97952699  0.44096124  0.25097515  1
  O  O56  1  0.97935017  0.44055199  0.05090408  1
  O  O57  1  0.97935677  0.44201529  0.65233331  1
  O  O58  1  0.97972095  0.43721132  0.45155237  1
  O  O59  1  0.97799677  0.44161535  0.85208901  1
loop_
_geom_bond_atom_site_label_1
_geom_bond_atom_site_label_2
_geom_bond_distance
_geom_bond_site_symmetry_2
Cr0 O46 1.984847 1_455
Cr0 O19 1.987536 1_555
Cr0 O14 2.009329 1_554
Cr0 O42 2.013304 1_454
Cr0 O56 2.018729 1_455
Cr0 O4 2.046804 1_554
Cr1 O15 1.940844 1_555
Cr1 O56 1.948952 1_455
Cr1 O5 1.959832 1_555
Cr1 O38 1.964439 1_455
Cr1 O49 1.965757 1_455
Cr1 O0 1.985008 1_555
Cr2 O55 1.940195 1_455
Cr2 O52 1.953549 1_455
Cr2 O16 1.956929 1_555
Cr2 O6 1.982777 1_555
Cr2 O1 1.987349 1_555
Cr2 O39 1.993140 1_455
Cr3 O2 1.931069 1_555
Cr3 O58 1.939814 1_455
Cr3 O53 1.949714 1_455
Cr3 O17 1.953222 1_555
Cr3 O41 1.990910 1_455
Cr3 O7 1.992551 1_555
Cr4 O25 1.987522 1_555
Cr4 O38 2.018234 1_555
Cr4 O5 2.023143 1_555
Cr4 O15 2.029574 1_545
Cr4 O31 2.038975 1_545
Cr4 O49 2.041015 1_545
Cr5 O19 1.993472 1_555
Cr5 O25 2.005617 1_565
Cr5 O46 2.006145 1_555
Cr5 O14 2.011732 1_564
Cr5 O42 2.015994 1_564
Cr5 O34 2.024946 1_554
Cr6 O30 1.998190 1_555
Cr6 O16 2.017793 1_555
Cr6 O27 2.022051 1_565
Cr6 O52 2.032347 1_555
Cr6 O39 2.033563 1_565
Cr6 O6 2.036409 1_565
Cr7 O28 1.991319 1_555
Cr7 O32 2.010613 1_545
Cr7 O17 2.026955 1_545
Cr7 O7 2.031626 1_555
Cr7 O41 2.037955 1_555
Cr7 O53 2.039055 1_545
Cr8 O31 1.924846 1_545
Cr8 O35 1.954084 1_555
Cr8 O10 1.954583 1_555
Cr8 O21 1.955849 1_545
Cr8 O45 1.986404 1_545
Cr8 O27 1.986432 1_555
Cr9 O33 2.002570 1_555
Cr9 O26 2.009830 1_565
Cr9 O51 2.015593 1_555
Cr9 O8 2.019996 1_565
Cr9 O18 2.028608 1_555
Cr9 O43 2.047818 1_565
Cr10 O34 1.993995 1_555
Cr10 O29 2.015103 1_565
Cr10 O54 2.023839 1_555
Cr10 O9 2.027083 1_565
Cr10 O20 2.031402 1_555
Cr10 O44 2.047819 1_565
Cr11 O23 1.912948 1_555
Cr11 O47 1.917932 1_555
Cr11 O11 1.936608 1_565
Cr11 O37 1.942305 1_565
Cr11 O26 1.997228 1_565
Cr11 O32 2.006149 1_555
Cr12 O22 1.998737 1_555
Cr12 O48 2.008386 1_555
Cr12 O28 2.013361 1_565
Cr12 O36 2.013945 1_565
Cr12 O12 2.014114 1_565
Cr12 O30 2.028816 1_555
Cr13 O50 1.915222 1_555
Cr13 O24 1.916383 1_555
Cr13 O13 1.935134 1_565
Cr13 O40 1.943156 1_565
Cr13 O29 1.995271 1_565
Cr13 O33 2.009545 1_555
Cr14 O0 2.006827 1_555
Cr14 O21 2.016784 1_555
Cr14 O45 2.024588 1_455
Cr14 O35 2.024780 1_455
Cr14 O10 2.024925 1_555
Cr14 O55 2.042259 1_455
Cr15 O57 1.890312 1_455
Cr15 O3 1.933025 1_555
Cr15 O18 1.950964 1_555
Cr15 O43 1.978184 1_455
Cr15 O51 1.979584 1_455
Cr15 O8 2.004161 1_555
Cr16 O48 1.988413 1_455
Cr16 O22 1.992355 1_555
Cr16 O36 2.009475 1_455
Cr16 O12 2.010230 1_555
Cr16 O58 2.037838 1_455
Cr16 O1 2.048038 1_555
Cr17 O59 1.891030 1_455
Cr17 O20 1.944066 1_555
Cr17 O54 1.973765 1_455
Cr17 O44 1.978075 1_455
Cr17 O4 1.980994 1_555
Cr17 O9 1.987814 1_555
Ni0 O23 2.060173 1_555
Ni0 O57 2.062442 1_455
Ni0 O47 2.071068 1_455
Ni0 O37 2.075696 1_455
Ni0 O2 2.081651 1_555
Ni0 O11 2.084226 1_555
Ni1 O24 2.055403 1_555
Ni1 O59 2.066050 1_455
Ni1 O50 2.070356 1_455
Ni1 O40 2.072986 1_455
Ni1 O3 2.079495 1_555
Ni1 O13 2.084370 1_555
O0 Pr9 2.414393 1_465
O0 Sr5 2.630459 1_555
O0 Sr5 2.999687 1_455
O1 Pr12 2.412042 1_465
O1 Pr0 2.516676 1_555
O2 Pr10 2.420502 1_465
O2 Pr1 2.499058 1_555
O3 Pr11 2.416834 1_465
O3 Pr2 2.503058 1_555
O4 Pr13 2.418518 1_465
O4 Pr3 2.529525 1_555
O5 Pr9 2.433964 1_455
O5 Sr5 2.675538 1_555
O5 Sr0 2.789922 1_545
O6 Pr12 2.468459 1_455
O6 Pr0 2.615966 1_555
O6 Sr1 2.850324 1_545
O7 Pr10 2.450699 1_455
O7 Pr1 2.583311 1_555
O7 Sr2 2.861385 1_545
O8 Pr11 2.441352 1_455
O8 Pr2 2.585490 1_555
O8 Sr3 2.842813 1_545
O9 Pr13 2.458773 1_455
O9 Pr3 2.612750 1_555
O9 Sr4 2.854651 1_545
O10 Pr9 2.464685 1_455
O10 Sr1 2.712809 1_545
O10 Sr5 2.725182 1_555
O11 Pr10 2.431182 1_455
O11 Pr1 2.587524 1_555
O11 Sr3 2.783399 1_545
O12 Pr12 2.401629 1_455
O12 Pr0 2.583683 1_555
O12 Sr2 2.804727 1_545
O13 Pr11 2.438662 1_455
O13 Pr2 2.585911 1_555
O13 Sr4 2.780749 1_545
O14 Pr13 2.410801 1_455
O14 Pr3 2.577801 1_555
O14 Sr0 2.821529 1_546
O15 Pr4 2.470319 1_555
O15 Sr0 2.713613 1_555
O15 Sr5 2.735126 1_555
O16 Pr5 2.456795 1_555
O16 Pr0 2.712965 1_555
O16 Sr1 2.778599 1_555
O17 Pr7 2.455291 1_555
O17 Pr1 2.702999 1_555
O17 Sr2 2.757025 1_555
O18 Pr6 2.454226 1_555
O18 Pr2 2.705283 1_555
O18 Sr3 2.753904 1_555
O19 Pr4 2.419700 1_555
O19 Pr3 2.649812 1_554
O19 Sr0 2.772558 1_555
O20 Pr8 2.462692 1_555
O20 Pr3 2.719950 1_555
O20 Sr4 2.762681 1_555
O21 Pr5 2.433337 1_555
O21 Sr1 2.668406 1_555
O21 Sr5 2.793565 1_555
O22 Pr7 2.396403 1_555
O22 Pr0 2.674754 1_555
O22 Sr2 2.735323 1_555
O23 Pr6 2.435248 1_555
O23 Pr1 2.681973 1_555
O23 Sr3 2.727914 1_555
O24 Pr8 2.444205 1_555
O24 Pr2 2.672789 1_555
O24 Sr4 2.730330 1_555
O25 Pr4 2.391132 1_555
O25 Sr0 2.626108 1_545
O26 Pr6 2.382065 1_555
O26 Sr3 2.607495 1_545
O26 Sr3 3.038267 1_645
O27 Pr5 2.410580 1_555
O27 Sr1 2.620438 1_545
O28 Pr7 2.378181 1_555
O28 Sr2 2.609862 1_545
O28 Sr2 3.039415 1_645
O29 Pr8 2.386383 1_555
O29 Sr4 2.617833 1_545
O29 Sr4 3.026535 1_645
O30 Pr0 2.396401 1_555
O30 Pr12 2.508986 1_565
O31 Sr5 2.480399 1_555
O31 Pr9 2.492283 1_565
O31 Sr5 3.055994 1_565
O32 Pr1 2.393728 1_555
O32 Pr10 2.505799 1_565
O33 Pr2 2.397075 1_555
O33 Pr11 2.514185 1_565
O34 Pr3 2.397186 1_555
O34 Pr13 2.515523 1_565
O35 Sr5 2.525628 1_555
O35 Pr9 2.601775 1_555
O35 Pr5 2.750278 1_555
O36 Pr0 2.419146 1_555
O36 Pr12 2.577083 1_555
O36 Pr7 2.776024 1_555
O37 Pr1 2.439570 1_555
O37 Pr10 2.590451 1_555
O37 Pr6 2.767202 1_555
O38 Sr5 2.497170 1_555
O38 Pr9 2.585875 1_555
O38 Pr4 2.778170 1_555
O39 Pr0 2.476486 1_555
O39 Pr12 2.622369 1_555
O39 Pr5 2.810165 1_555
O40 Pr2 2.438313 1_555
O40 Pr11 2.599876 1_555
O40 Pr8 2.764884 1_555
O41 Pr1 2.462444 1_555
O41 Pr10 2.603365 1_555
O41 Pr7 2.828130 1_555
O42 Pr3 2.414359 1_555
O42 Pr13 2.573271 1_555
O42 Pr4 2.800595 1_556
O43 Pr2 2.471459 1_555
O43 Pr11 2.610104 1_555
O43 Pr6 2.803164 1_555
O44 Pr3 2.480467 1_555
O44 Pr13 2.612840 1_555
O44 Pr8 2.804917 1_555
O45 Sr1 2.494617 1_655
O45 Pr5 2.571512 1_555
O45 Pr9 2.762936 1_565
O45 Sr5 3.172122 1_555
O46 Sr0 2.492174 1_655
O46 Pr4 2.636399 1_555
O46 Pr13 2.690361 1_564
O47 Sr3 2.497239 1_655
O47 Pr6 2.623891 1_555
O47 Pr10 2.676332 1_565
O48 Sr2 2.473253 1_655
O48 Pr7 2.606754 1_555
O48 Pr12 2.701806 1_565
O49 Sr0 2.521401 1_655
O49 Pr4 2.597167 1_555
O49 Pr9 2.757534 1_565
O49 Sr5 3.134723 1_555
O50 Sr4 2.498997 1_655
O50 Pr8 2.620656 1_555
O50 Pr11 2.680840 1_565
O51 Sr3 2.491167 1_655
O51 Pr6 2.606464 1_555
O51 Pr11 2.762627 1_565
O52 Sr1 2.511047 1_655
O52 Pr5 2.625718 1_555
O52 Pr12 2.788615 1_565
O53 Sr2 2.505930 1_655
O53 Pr7 2.625966 1_555
O53 Pr10 2.771648 1_565
O54 Sr4 2.499954 1_655
O54 Pr8 2.605349 1_555
O54 Pr13 2.787199 1_565
O55 Sr1 2.474668 1_645
O55 Pr5 2.475937 1_555
O56 Sr0 2.478165 1_645
O56 Pr4 2.480294 1_555
O57 Pr6 2.459232 1_555
O57 Sr3 2.485930 1_645
O57 Sr3 3.062037 1_655
O58 Sr2 2.469000 1_645
O58 Pr7 2.485313 1_555
O58 Sr2 3.077391 1_655
O59 Pr8 2.450994 1_555
O59 Sr4 2.488949 1_645
O59 Sr4 3.060056 1_655
