# generated using pymatgen
data_Li5Mn(CoO4)2
_symmetry_space_group_name_H-M   'P 1'
_cell_length_a   2.93961200
_cell_length_b   5.92615000
_cell_length_c   8.10938142
_cell_angle_alpha   89.42707374
_cell_angle_beta   90.00000000
_cell_angle_gamma   90.00000000
_symmetry_Int_Tables_number   1
_chemical_formula_structural   Li5Mn(CoO4)2
_chemical_formula_sum   'Li5 Mn1 Co2 O8'
_cell_volume   141.26307854
_cell_formula_units_Z   1
loop_
 _symmetry_equiv_pos_site_id
 _symmetry_equiv_pos_as_xyz
  1  'x, y, z'
loop_
 _atom_site_type_symbol
 _atom_site_label
 _atom_site_symmetry_multiplicity
 _atom_site_fract_x
 _atom_site_fract_y
 _atom_site_fract_z
 _atom_site_occupancy
  Li  Li0  1  0.00000000  0.00757500  0.51330300  1
  Li  Li1  1  0.50000000  0.24904800  0.25468500  1
  Li  Li2  1  0.00000000  0.49259100  0.99049100  1
  Li  Li3  1  0.50000000  0.76279400  0.74204300  1
  Li  Li4  1  0.50000000  0.23707900  0.74362000  1
  Mn  Mn0  1  0.00000000  0.00396200  0.99098800  1
  Co  Co0  1  0.00000000  0.48711900  0.51000700  1
  Co  Co1  1  0.50000000  0.75480300  0.26130200  1
  O  O0  1  0.00000000  0.51345800  0.27004400  1
  O  O1  1  0.50000000  0.77328700  0.00680100  1
  O  O2  1  0.00000000  0.99793500  0.76684900  1
  O  O3  1  0.50000000  0.26786900  0.49754800  1
  O  O4  1  0.00000000  0.50173700  0.72201000  1
  O  O5  1  0.50000000  0.74159300  0.49279500  1
  O  O6  1  0.00000000  0.98701400  0.23701400  1
  O  O7  1  0.50000000  0.22213600  0.00050000  1
loop_
_geom_bond_atom_site_label_1
_geom_bond_atom_site_label_2
_geom_bond_distance
_geom_bond_site_symmetry_2
Li0 O2 2.056324 1_545
Li0 O3 2.133576 1_555
Li0 O3 2.133576 1_455
Li0 O5 2.162820 1_545
Li0 O5 2.162820 1_445
Li0 O6 2.245060 1_545
Li1 O3 1.973738 1_555
Li1 O7 2.069033 1_555
Li1 O6 2.143984 1_545
Li1 O6 2.143984 1_645
Li1 O0 2.152911 1_555
Li1 O0 2.152911 1_655
Li2 O7 2.175579 1_456
Li2 O7 2.175579 1_556
Li2 O4 2.177348 1_555
Li2 O1 2.224697 1_456
Li2 O1 2.224697 1_556
Li2 O0 2.271606 1_556
Li3 O5 2.026402 1_555
Li3 O2 2.036711 1_655
Li3 O2 2.036711 1_555
Li3 O4 2.141297 1_555
Li3 O4 2.141297 1_655
Li3 O1 2.148545 1_556
Li4 O3 2.001999 1_555
Li4 O2 2.049132 1_545
Li4 O2 2.049132 1_645
Li4 O7 2.084134 1_556
Li4 O4 2.155326 1_555
Li4 O4 2.155326 1_655
Mn0 O2 1.818337 1_545
Mn0 O7 1.959578 1_556
Mn0 O7 1.959578 1_456
Mn0 O6 1.996642 1_546
Mn0 O1 2.010472 1_446
Mn0 O1 2.010472 1_546
Co0 O4 1.722259 1_555
Co0 O0 1.950645 1_555
Co0 O3 1.965036 1_455
Co0 O3 1.965036 1_555
Co0 O5 2.109460 1_555
Co0 O5 2.109460 1_455
Co1 O5 1.878114 1_555
Co1 O6 2.021732 1_555
Co1 O6 2.021732 1_655
Co1 O0 2.051568 1_555
Co1 O0 2.051568 1_655
Co1 O1 2.065656 1_555
