# generated using pymatgen
data_TaCr3(CuS4)2
_symmetry_space_group_name_H-M   'P 1'
_cell_length_a   6.98480100
_cell_length_b   7.14507900
_cell_length_c   9.95666200
_cell_angle_alpha   90.00000000
_cell_angle_beta   90.00000000
_cell_angle_gamma   90.00000000
_symmetry_Int_Tables_number   1
_chemical_formula_structural   TaCr3(CuS4)2
_chemical_formula_sum   'Ta2 Cr6 Cu4 S16'
_cell_volume   496.90668183
_cell_formula_units_Z   2
loop_
 _symmetry_equiv_pos_site_id
 _symmetry_equiv_pos_as_xyz
  1  'x, y, z'
loop_
 _atom_site_type_symbol
 _atom_site_label
 _atom_site_symmetry_multiplicity
 _atom_site_fract_x
 _atom_site_fract_y
 _atom_site_fract_z
 _atom_site_occupancy
  Ta  Ta0  1  0.50000000  0.76574400  0.25000000  1
  Ta  Ta1  1  0.50000000  0.23425600  0.75000000  1
  Cr  Cr0  1  0.74499500  0.00000000  0.50000000  1
  Cr  Cr1  1  0.74549800  0.50000000  0.50000000  1
  Cr  Cr2  1  0.25450200  0.50000000  0.00000000  1
  Cr  Cr3  1  0.00000000  0.75179300  0.25000000  1
  Cr  Cr4  1  0.25500500  0.00000000  0.00000000  1
  Cr  Cr5  1  0.00000000  0.24820700  0.75000000  1
  Cu  Cu0  1  0.76572000  0.74036200  0.87624500  1
  Cu  Cu1  1  0.23428000  0.25963800  0.37624500  1
  Cu  Cu2  1  0.23428000  0.74036200  0.62375500  1
  Cu  Cu3  1  0.76572000  0.25963800  0.12375500  1
  S  S0  1  0.75785300  0.99693800  0.25671300  1
  S  S1  1  0.50709300  0.75003900  0.49647700  1
  S  S2  1  0.75056900  0.51739000  0.25728600  1
  S  S3  1  0.49290700  0.24996100  0.99647700  1
  S  S4  1  0.24943100  0.51739000  0.24271400  1
  S  S5  1  0.02662100  0.75083700  0.00971900  1
  S  S6  1  0.24214700  0.99693800  0.24328700  1
  S  S7  1  0.49290700  0.75003900  0.00352300  1
  S  S8  1  0.24943100  0.48261000  0.75728600  1
  S  S9  1  0.02662100  0.24916300  0.99028100  1
  S  S10  1  0.24214700  0.00306200  0.75671300  1
  S  S11  1  0.97337900  0.75083700  0.49028100  1
  S  S12  1  0.75785300  0.00306200  0.74328700  1
  S  S13  1  0.50709300  0.24996100  0.50352300  1
  S  S14  1  0.75056900  0.48261000  0.74271400  1
  S  S15  1  0.97337900  0.24916300  0.50971900  1
loop_
_geom_bond_atom_site_label_1
_geom_bond_atom_site_label_2
_geom_bond_distance
_geom_bond_site_symmetry_2
Cr0 S15 2.392386 1_555
Cr0 S11 2.392386 1_545
Cr0 S0 2.424090 1_545
Cr0 S12 2.424090 1_555
Cr0 S13 2.439720 1_555
Cr0 S1 2.439720 1_545
Cr1 S11 2.398967 1_555
Cr1 S15 2.398967 1_555
Cr1 S14 2.420073 1_555
Cr1 S2 2.420073 1_555
Cr1 S13 2.442522 1_555
Cr1 S1 2.442522 1_555
Cr2 S5 2.398967 1_555
Cr2 S9 2.398967 1_554
Cr2 S8 2.420073 1_554
Cr2 S4 2.420073 1_555
Cr2 S3 2.442522 1_554
Cr2 S7 2.442522 1_555
Cr3 S5 2.399621 1_555
Cr3 S11 2.399621 1_455
Cr3 S4 2.417780 1_555
Cr3 S2 2.417780 1_455
Cr3 S0 2.435808 1_455
Cr3 S6 2.435808 1_555
Cr4 S9 2.392386 1_554
Cr4 S5 2.392386 1_545
Cr4 S6 2.424090 1_545
Cr4 S10 2.424090 1_554
Cr4 S7 2.439720 1_545
Cr4 S3 2.439720 1_554
Cr5 S15 2.399621 1_455
Cr5 S9 2.399621 1_555
Cr5 S14 2.417780 1_455
Cr5 S8 2.417780 1_555
Cr5 S12 2.435808 1_455
Cr5 S10 2.435808 1_555
Cu0 S5 2.256691 1_656
Cu0 S14 2.273881 1_555
Cu0 S7 2.289506 1_556
Cu0 S12 2.297540 1_565
Cu1 S15 2.256691 1_455
Cu1 S4 2.273881 1_555
Cu1 S13 2.289506 1_555
Cu1 S6 2.297540 1_545
Cu2 S11 2.256691 1_455
Cu2 S8 2.273881 1_555
Cu2 S1 2.289506 1_555
Cu2 S10 2.297540 1_565
Cu3 S9 2.256691 1_654
Cu3 S2 2.273881 1_555
Cu3 S3 2.289506 1_554
Cu3 S0 2.297540 1_545
S0 Ta0 2.444796 1_555
S1 Ta0 2.457152 1_555
S2 Ta0 2.493443 1_555
S3 Ta1 2.457152 1_555
S4 Ta0 2.493443 1_555
S6 Ta0 2.444796 1_555
S7 Ta0 2.457152 1_555
S8 Ta1 2.493443 1_555
S10 Ta1 2.444796 1_555
S12 Ta1 2.444796 1_555
S13 Ta1 2.457152 1_555
S14 Ta1 2.493443 1_555
