# generated using pymatgen
data_CaTiCr(PO4)3
_symmetry_space_group_name_H-M   'P 1'
_cell_length_a   8.85139971
_cell_length_b   8.85140065
_cell_length_c   8.85139965
_cell_angle_alpha   58.39114266
_cell_angle_beta   58.39114198
_cell_angle_gamma   58.39115109
_symmetry_Int_Tables_number   1
_chemical_formula_structural   CaTiCr(PO4)3
_chemical_formula_sum   'Ca2 Ti2 Cr2 P6 O24'
_cell_volume   472.30822371
_cell_formula_units_Z   2
loop_
 _symmetry_equiv_pos_site_id
 _symmetry_equiv_pos_as_xyz
  1  'x, y, z'
loop_
 _atom_site_type_symbol
 _atom_site_label
 _atom_site_symmetry_multiplicity
 _atom_site_fract_x
 _atom_site_fract_y
 _atom_site_fract_z
 _atom_site_occupancy
  Ca  Ca0  1  0.99832500  0.99832500  0.99832500  1
  Ca  Ca1  1  0.49832500  0.49832500  0.49832500  1
  Ti  Ti0  1  0.14739800  0.14739800  0.14739800  1
  Ti  Ti1  1  0.64739800  0.64739800  0.64739800  1
  Cr  Cr0  1  0.35423600  0.35423600  0.35423600  1
  Cr  Cr1  1  0.85423600  0.85423600  0.85423600  1
  P  P0  1  0.04021500  0.46145800  0.75061200  1
  P  P1  1  0.46145800  0.75061200  0.04021500  1
  P  P2  1  0.75061200  0.04021500  0.46145800  1
  P  P3  1  0.25061200  0.96145800  0.54021500  1
  P  P4  1  0.54021500  0.25061200  0.96145800  1
  P  P5  1  0.96145800  0.54021500  0.25061200  1
  O  O0  1  0.12162500  0.50874100  0.29453100  1
  O  O1  1  0.29453100  0.12162500  0.50874100  1
  O  O2  1  0.05678700  0.27222800  0.92193500  1
  O  O3  1  0.50874100  0.29453100  0.12162500  1
  O  O4  1  0.00874100  0.62162500  0.79453100  1
  O  O5  1  0.22658200  0.43617800  0.58194900  1
  O  O6  1  0.27222800  0.92193500  0.05678700  1
  O  O7  1  0.43617800  0.58194900  0.22658200  1
  O  O8  1  0.20580900  0.99957600  0.37181200  1
  O  O9  1  0.58194900  0.22658200  0.43617800  1
  O  O10  1  0.08194900  0.93617800  0.72658200  1
  O  O11  1  0.37181200  0.20580900  0.99957600  1
  O  O12  1  0.62162500  0.79453100  0.00874100  1
  O  O13  1  0.92193500  0.05678700  0.27222800  1
  O  O14  1  0.42193500  0.77222800  0.55678700  1
  O  O15  1  0.79453100  0.00874100  0.62162500  1
  O  O16  1  0.55678700  0.42193500  0.77222800  1
  O  O17  1  0.72658200  0.08194900  0.93617800  1
  O  O18  1  0.77222800  0.55678700  0.42193500  1
  O  O19  1  0.99957600  0.37181200  0.20580900  1
  O  O20  1  0.49957600  0.70580900  0.87181200  1
  O  O21  1  0.93617800  0.72658200  0.08194900  1
  O  O22  1  0.70580900  0.87181200  0.49957600  1
  O  O23  1  0.87181200  0.49957600  0.70580900  1
loop_
_geom_bond_atom_site_label_1
_geom_bond_atom_site_label_2
_geom_bond_distance
_geom_bond_site_symmetry_2
Ca0 O10 2.393712 1_655
Ca0 O17 2.393712 1_565
Ca0 O21 2.393712 1_556
Ca0 O13 2.415108 1_566
Ca0 O6 2.415109 1_656
Ca0 O2 2.415109 1_665
Ca1 O5 2.393712 1_555
Ca1 O7 2.393712 1_555
Ca1 O9 2.393712 1_555
Ca1 O18 2.415108 1_555
Ca1 O16 2.415108 1_555
Ca1 O14 2.415109 1_555
Cr0 O3 1.954527 1_555
Cr0 O1 1.954527 1_555
Cr0 O0 1.954527 1_555
Cr0 O5 2.037499 1_555
Cr0 O7 2.037499 1_555
Cr0 O9 2.037499 1_555
Cr1 O12 1.954527 1_556
Cr1 O15 1.954527 1_565
Cr1 O4 1.954527 1_655
Cr1 O10 2.037498 1_655
Cr1 O21 2.037499 1_556
Cr1 O17 2.037499 1_565
O0 P5 1.512875 1_455
O1 P3 1.512875 1_545
O2 P0 1.561963 1_555
O2 Ti0 2.069839 1_556
O3 P4 1.512875 1_554
O4 P0 1.512875 1_555
O5 P0 1.543304 1_555
O6 P1 1.561963 1_555
O6 Ti0 2.069840 1_565
O7 P1 1.543304 1_555
O8 P3 1.563713 1_555
O8 Ti0 1.888919 1_565
O9 P2 1.543305 1_555
O10 P3 1.543304 1_555
O11 P4 1.563713 1_555
O11 Ti0 1.888918 1_556
O12 P1 1.512875 1_555
O13 P2 1.561963 1_555
O13 Ti0 2.069839 1_655
O14 P3 1.561963 1_555
O14 Ti1 2.069840 1_555
O15 P2 1.512875 1_555
O16 P4 1.561963 1_555
O16 Ti1 2.069840 1_555
O17 P4 1.543305 1_555
O18 P5 1.561963 1_555
O18 Ti1 2.069840 1_555
O19 P5 1.563714 1_555
O19 Ti0 1.888919 1_655
O20 P1 1.563713 1_556
O20 Ti1 1.888919 1_555
O21 P5 1.543304 1_555
O22 P2 1.563714 1_565
O22 Ti1 1.888919 1_555
O23 P0 1.563713 1_655
O23 Ti1 1.888919 1_555
