# generated using pymatgen
data_CaV4O9
_symmetry_space_group_name_H-M   'P 1'
_cell_length_a   8.42453100
_cell_length_b   8.42453100
_cell_length_c   5.19846900
_cell_angle_alpha   90.00000000
_cell_angle_beta   90.00000000
_cell_angle_gamma   90.00000000
_symmetry_Int_Tables_number   1
_chemical_formula_structural   CaV4O9
_chemical_formula_sum   'Ca2 V8 O18'
_cell_volume   368.94949813
_cell_formula_units_Z   2
loop_
 _symmetry_equiv_pos_site_id
 _symmetry_equiv_pos_as_xyz
  1  'x, y, z'
loop_
 _atom_site_type_symbol
 _atom_site_label
 _atom_site_symmetry_multiplicity
 _atom_site_fract_x
 _atom_site_fract_y
 _atom_site_fract_z
 _atom_site_occupancy
  Ca  Ca0  1  0.00000000  0.50000000  0.15757100  1
  Ca  Ca1  1  0.50000000  0.00000000  0.84242900  1
  V  V0  1  0.09039200  0.78511700  0.62672600  1
  V  V1  1  0.21488300  0.09039200  0.37327400  1
  V  V2  1  0.71488300  0.59039200  0.62672600  1
  V  V3  1  0.59039200  0.28511700  0.37327400  1
  V  V4  1  0.90960800  0.21488300  0.62672600  1
  V  V5  1  0.28511700  0.40960800  0.62672600  1
  V  V6  1  0.40960800  0.71488300  0.37327400  1
  V  V7  1  0.78511700  0.90960800  0.37327400  1
  O  O0  1  0.00000000  0.00000000  0.50000000  1
  O  O1  1  0.50000000  0.50000000  0.50000000  1
  O  O2  1  0.74600600  0.93007900  0.06349100  1
  O  O3  1  0.43007900  0.75399400  0.06349100  1
  O  O4  1  0.56992100  0.24600600  0.06349100  1
  O  O5  1  0.25399400  0.06992100  0.06349100  1
  O  O6  1  0.75399400  0.56992100  0.93650900  1
  O  O7  1  0.06992100  0.74600600  0.93650900  1
  O  O8  1  0.93007900  0.25399400  0.93650900  1
  O  O9  1  0.24600600  0.43007900  0.93650900  1
  O  O10  1  0.10694000  0.29312500  0.46086900  1
  O  O11  1  0.79312500  0.39306000  0.46086900  1
  O  O12  1  0.20687500  0.60694000  0.46086900  1
  O  O13  1  0.89306000  0.70687500  0.46086900  1
  O  O14  1  0.60694000  0.79312500  0.53913100  1
  O  O15  1  0.70687500  0.10694000  0.53913100  1
  O  O16  1  0.29312500  0.89306000  0.53913100  1
  O  O17  1  0.39306000  0.20687500  0.53913100  1
loop_
_geom_bond_atom_site_label_1
_geom_bond_atom_site_label_2
_geom_bond_distance
_geom_bond_site_symmetry_2
Ca0 O7 2.441885 1_554
Ca0 O9 2.441885 1_554
Ca0 O8 2.441885 1_454
Ca0 O6 2.441885 1_454
Ca0 O13 2.516949 1_455
Ca0 O11 2.516949 1_455
Ca0 O12 2.516949 1_555
Ca0 O10 2.516949 1_555
Ca1 O2 2.441885 1_546
Ca1 O4 2.441885 1_556
Ca1 O5 2.441885 1_556
Ca1 O3 2.441885 1_546
Ca1 O15 2.516949 1_555
Ca1 O17 2.516949 1_555
Ca1 O14 2.516949 1_545
Ca1 O16 2.516949 1_545
O0 V1 2.071481 1_555
O0 V4 2.071481 1_455
O0 V7 2.071481 1_445
O0 V0 2.071481 1_545
O1 V2 2.071481 1_555
O1 V6 2.071481 1_555
O1 V3 2.071481 1_555
O1 V5 2.071481 1_555
O2 V7 1.652781 1_555
O3 V6 1.652781 1_555
O4 V3 1.652781 1_555
O5 V1 1.652781 1_555
O6 V2 1.652781 1_555
O7 V0 1.652781 1_555
O8 V4 1.652781 1_555
O9 V5 1.652781 1_555
O10 V4 1.985333 1_455
O10 V1 1.987796 1_555
O10 V5 1.989861 1_555
O11 V2 1.985333 1_555
O11 V3 1.987796 1_555
O11 V4 1.989861 1_555
O12 V5 1.985333 1_555
O12 V6 1.987796 1_555
O12 V0 1.989861 1_555
O13 V0 1.985333 1_655
O13 V7 1.987796 1_555
O13 V2 1.989861 1_555
O14 V6 1.985333 1_555
O14 V2 1.987796 1_555
O14 V7 1.989861 1_555
O15 V7 1.985333 1_545
O15 V4 1.987796 1_555
O15 V3 1.989861 1_555
O16 V1 1.985333 1_565
O16 V0 1.987796 1_555
O16 V6 1.989861 1_555
O17 V3 1.985333 1_555
O17 V5 1.987796 1_555
O17 V1 1.989861 1_555
