# generated using pymatgen
data_SrCdB2O5
_symmetry_space_group_name_H-M   'P 1'
_cell_length_a   5.76671848
_cell_length_b   11.98703551
_cell_length_c   12.69437340
_cell_angle_alpha   90.00000000
_cell_angle_beta   90.00000000
_cell_angle_gamma   90.00000000
_symmetry_Int_Tables_number   1
_chemical_formula_structural   SrCdB2O5
_chemical_formula_sum   'Sr8 Cd8 B16 O40'
_cell_volume   877.50946823
_cell_formula_units_Z   8
loop_
 _symmetry_equiv_pos_site_id
 _symmetry_equiv_pos_as_xyz
  1  'x, y, z'
loop_
 _atom_site_type_symbol
 _atom_site_label
 _atom_site_symmetry_multiplicity
 _atom_site_fract_x
 _atom_site_fract_y
 _atom_site_fract_z
 _atom_site_occupancy
  Sr  Sr0  1  0.88384272  0.61892327  0.58862890  1
  Sr  Sr1  1  0.61615728  0.11892327  0.41137110  1
  Sr  Sr2  1  0.38384272  0.38107673  0.91137110  1
  Sr  Sr3  1  0.11615728  0.88107673  0.08862890  1
  Sr  Sr4  1  0.11615728  0.38107673  0.41137110  1
  Sr  Sr5  1  0.38384272  0.88107673  0.58862890  1
  Sr  Sr6  1  0.61615728  0.61892327  0.08862890  1
  Sr  Sr7  1  0.88384272  0.11892327  0.91137110  1
  Cd  Cd0  1  0.12814464  0.63262279  0.26469871  1
  Cd  Cd1  1  0.37185536  0.13262279  0.73530129  1
  Cd  Cd2  1  0.62814464  0.36737721  0.23530129  1
  Cd  Cd3  1  0.87185536  0.86737721  0.76469871  1
  Cd  Cd4  1  0.87185536  0.36737721  0.73530129  1
  Cd  Cd5  1  0.62814464  0.86737721  0.26469871  1
  Cd  Cd6  1  0.37185536  0.63262279  0.76469871  1
  Cd  Cd7  1  0.12814464  0.13262279  0.23530129  1
  B  B0  1  0.62645976  0.61115030  0.32666272  1
  B  B1  1  0.87354024  0.11115030  0.67333728  1
  B  B2  1  0.12645976  0.38884970  0.17333728  1
  B  B3  1  0.37354024  0.88884970  0.82666272  1
  B  B4  1  0.37354024  0.38884970  0.67333728  1
  B  B5  1  0.12645976  0.88884970  0.32666272  1
  B  B6  1  0.87354024  0.61115030  0.82666272  1
  B  B7  1  0.62645976  0.11115030  0.17333728  1
  B  B8  1  0.37747599  0.62149455  0.48874169  1
  B  B9  1  0.12252401  0.12149455  0.51125831  1
  B  B10  1  0.87747599  0.37850545  0.01125831  1
  B  B11  1  0.62252401  0.87850545  0.98874169  1
  B  B12  1  0.62252401  0.37850545  0.51125831  1
  B  B13  1  0.87747599  0.87850545  0.48874169  1
  B  B14  1  0.12252401  0.62149455  0.98874169  1
  B  B15  1  0.37747599  0.12149455  0.01125831  1
  O  O0  1  0.17451528  0.59194984  0.44226340  1
  O  O1  1  0.32548472  0.09194984  0.55773660  1
  O  O2  1  0.67451528  0.40805016  0.05773660  1
  O  O3  1  0.82548472  0.90805016  0.94226340  1
  O  O4  1  0.82548472  0.40805016  0.55773660  1
  O  O5  1  0.67451528  0.90805016  0.44226340  1
  O  O6  1  0.32548472  0.59194984  0.94226340  1
  O  O7  1  0.17451528  0.09194984  0.05773660  1
  O  O8  1  0.59067732  0.60133761  0.43493143  1
  O  O9  1  0.90932268  0.10133761  0.56506857  1
  O  O10  1  0.09067732  0.39866239  0.06506857  1
  O  O11  1  0.40932268  0.89866239  0.93493143  1
  O  O12  1  0.40932268  0.39866239  0.56506857  1
  O  O13  1  0.09067732  0.89866239  0.43493143  1
  O  O14  1  0.90932268  0.60133761  0.93493143  1
  O  O15  1  0.59067732  0.10133761  0.06506857  1
  O  O16  1  0.50267155  0.68835977  0.27075439  1
  O  O17  1  0.99732845  0.18835977  0.72924561  1
  O  O18  1  0.00267155  0.31164023  0.22924561  1
  O  O19  1  0.49732845  0.81164023  0.77075439  1
  O  O20  1  0.49732845  0.31164023  0.72924561  1
  O  O21  1  0.00267155  0.81164023  0.27075439  1
  O  O22  1  0.99732845  0.68835977  0.77075439  1
  O  O23  1  0.50267155  0.18835977  0.22924561  1
  O  O24  1  0.78440698  0.54419592  0.27748812  1
  O  O25  1  0.71559302  0.04419592  0.72251188  1
  O  O26  1  0.28440698  0.45580408  0.22251188  1
  O  O27  1  0.21559302  0.95580408  0.77748812  1
  O  O28  1  0.21559302  0.45580408  0.72251188  1
  O  O29  1  0.28440698  0.95580408  0.27748812  1
  O  O30  1  0.71559302  0.54419592  0.77748812  1
  O  O31  1  0.78440698  0.04419592  0.22251188  1
  O  O32  1  0.10180758  0.66899798  0.08523167  1
  O  O33  1  0.39819242  0.16899798  0.91476833  1
  O  O34  1  0.60180758  0.33100202  0.41476833  1
  O  O35  1  0.89819242  0.83100202  0.58523167  1
  O  O36  1  0.89819242  0.33100202  0.91476833  1
  O  O37  1  0.60180758  0.83100202  0.08523167  1
  O  O38  1  0.39819242  0.66899798  0.58523167  1
  O  O39  1  0.10180758  0.16899798  0.41476833  1
loop_
_geom_bond_atom_site_label_1
_geom_bond_atom_site_label_2
_geom_bond_distance
_geom_bond_site_symmetry_2
Cd0 O24 2.253703 1_455
Cd0 O16 2.262077 1_555
Cd0 O21 2.265899 1_555
Cd0 O0 2.321649 1_555
Cd0 O32 2.324539 1_555
Cd0 O26 2.364579 1_555
Cd1 O25 2.253703 1_555
Cd1 O17 2.262077 1_455
Cd1 O20 2.265899 1_555
Cd1 O1 2.321649 1_555
Cd1 O33 2.324539 1_555
Cd1 O27 2.364579 1_545
Cd2 O26 2.253703 1_555
Cd2 O18 2.262077 1_655
Cd2 O23 2.265899 1_555
Cd2 O2 2.321649 1_555
Cd2 O34 2.324539 1_555
Cd2 O24 2.364579 1_555
Cd3 O27 2.253703 1_655
Cd3 O19 2.262077 1_555
Cd3 O22 2.265899 1_555
Cd3 O3 2.321649 1_555
Cd3 O35 2.324539 1_555
Cd3 O25 2.364579 1_565
Cd4 O28 2.253703 1_655
Cd4 O20 2.262077 1_555
Cd4 O17 2.265899 1_555
Cd4 O4 2.321649 1_555
Cd4 O36 2.324539 1_555
Cd4 O30 2.364579 1_555
Cd5 O29 2.253703 1_555
Cd5 O21 2.262077 1_655
Cd5 O16 2.265899 1_555
Cd5 O5 2.321649 1_555
Cd5 O37 2.324539 1_555
Cd5 O31 2.364579 1_565
Cd6 O30 2.253703 1_555
Cd6 O22 2.262077 1_455
Cd6 O19 2.265899 1_555
Cd6 O6 2.321649 1_555
Cd6 O38 2.324539 1_555
Cd6 O28 2.364579 1_555
Cd7 O31 2.253703 1_455
Cd7 O23 2.262077 1_555
Cd7 O18 2.265899 1_555
Cd7 O7 2.321649 1_555
Cd7 O39 2.324539 1_555
Cd7 O29 2.364579 1_545
B0 O24 1.365080 1_555
B0 O16 1.367429 1_555
B0 O8 1.394776 1_555
B1 O25 1.365080 1_555
B1 O17 1.367429 1_555
B1 O9 1.394776 1_555
B2 O26 1.365080 1_555
B2 O18 1.367429 1_555
B2 O10 1.394776 1_555
B3 O27 1.365080 1_555
B3 O19 1.367429 1_555
B3 O11 1.394776 1_555
B4 O28 1.365080 1_555
B4 O20 1.367429 1_555
B4 O12 1.394776 1_555
B5 O29 1.365080 1_555
B5 O21 1.367429 1_555
B5 O13 1.394776 1_555
B6 O30 1.365080 1_555
B6 O22 1.367429 1_555
B6 O14 1.394776 1_555
B7 O31 1.365080 1_555
B7 O23 1.367429 1_555
B7 O15 1.394776 1_555
B8 O38 1.356041 1_555
B8 O0 1.357725 1_555
B8 O8 1.427092 1_555
B9 O39 1.356041 1_555
B9 O1 1.357725 1_555
B9 O9 1.427092 1_455
B10 O36 1.356041 1_554
B10 O2 1.357725 1_555
B10 O10 1.427092 1_655
B11 O37 1.356041 1_556
B11 O3 1.357725 1_555
B11 O11 1.427092 1_555
B12 O34 1.356041 1_555
B12 O4 1.357725 1_555
B12 O12 1.427092 1_555
B13 O35 1.356041 1_555
B13 O5 1.357725 1_555
B13 O13 1.427092 1_655
B14 O32 1.356041 1_556
B14 O6 1.357725 1_555
B14 O14 1.427092 1_455
B15 O33 1.356041 1_554
B15 O7 1.357725 1_555
B15 O15 1.427092 1_555
O0 Sr0 2.523195 1_455
O0 Sr4 2.580025 1_555
O1 Sr1 2.523195 1_555
O1 Sr5 2.580025 1_545
O2 Sr2 2.523195 1_554
O2 Sr6 2.580025 1_555
O3 Sr3 2.523195 1_656
O3 Sr7 2.580025 1_565
O4 Sr4 2.523195 1_655
O4 Sr0 2.580025 1_555
O5 Sr5 2.523195 1_555
O5 Sr1 2.580025 1_565
O6 Sr6 2.523195 1_556
O6 Sr2 2.580025 1_555
O7 Sr7 2.523195 1_454
O7 Sr3 2.580025 1_545
O8 Sr0 2.590239 1_555
O9 Sr1 2.590239 1_555
O10 Sr2 2.590239 1_554
O11 Sr3 2.590239 1_556
O12 Sr4 2.590239 1_555
O13 Sr5 2.590239 1_555
O14 Sr6 2.590239 1_556
O15 Sr7 2.590239 1_554
O16 Sr6 2.542888 1_555
O17 Sr7 2.542888 1_555
O18 Sr4 2.542888 1_555
O19 Sr5 2.542888 1_555
O20 Sr2 2.542888 1_555
O21 Sr3 2.542888 1_555
O22 Sr0 2.542888 1_555
O23 Sr1 2.542888 1_555
O24 Sr6 2.737066 1_555
O24 Sr4 3.220521 1_655
O25 Sr7 2.737066 1_555
O25 Sr5 3.220521 1_545
O26 Sr4 2.737066 1_555
O26 Sr6 3.220521 1_555
O27 Sr5 2.737066 1_555
O27 Sr7 3.220521 1_465
O28 Sr2 2.737066 1_555
O28 Sr0 3.220521 1_455
O29 Sr3 2.737066 1_555
O29 Sr1 3.220521 1_565
O30 Sr0 2.737066 1_555
O30 Sr2 3.220521 1_555
O31 Sr1 2.737066 1_555
O31 Sr3 3.220521 1_645
O32 Sr3 2.543908 1_555
O32 Sr6 2.864536 1_455
O32 Sr6 3.026543 1_555
O33 Sr2 2.543908 1_555
O33 Sr7 2.864536 1_555
O33 Sr7 3.026543 1_455
O34 Sr1 2.543908 1_555
O34 Sr4 2.864536 1_555
O34 Sr4 3.026543 1_655
O35 Sr0 2.543908 1_555
O35 Sr5 2.864536 1_655
O35 Sr5 3.026543 1_555
O36 Sr7 2.543908 1_555
O36 Sr2 2.864536 1_655
O36 Sr2 3.026543 1_555
O37 Sr6 2.543908 1_555
O37 Sr3 2.864536 1_555
O37 Sr3 3.026543 1_655
O38 Sr5 2.543908 1_555
O38 Sr0 2.864536 1_555
O38 Sr0 3.026543 1_455
O39 Sr4 2.543908 1_555
O39 Sr1 2.864536 1_455
O39 Sr1 3.026543 1_555
