# generated using pymatgen
data_Cu4Si(GeO4)3
_symmetry_space_group_name_H-M   'P 1'
_cell_length_a   2.94411400
_cell_length_b   4.85287500
_cell_length_c   17.45774300
_cell_angle_alpha   90.00000000
_cell_angle_beta   90.00000000
_cell_angle_gamma   90.00000000
_symmetry_Int_Tables_number   1
_chemical_formula_structural   Cu4Si(GeO4)3
_chemical_formula_sum   'Cu4 Si1 Ge3 O12'
_cell_volume   249.42605810
_cell_formula_units_Z   1
loop_
 _symmetry_equiv_pos_site_id
 _symmetry_equiv_pos_as_xyz
  1  'x, y, z'
loop_
 _atom_site_type_symbol
 _atom_site_label
 _atom_site_symmetry_multiplicity
 _atom_site_fract_x
 _atom_site_fract_y
 _atom_site_fract_z
 _atom_site_occupancy
  Cu  Cu0  1  0.00000000  0.51082500  0.12274800  1
  Cu  Cu1  1  0.00000000  0.49982000  0.62522700  1
  Cu  Cu2  1  0.00000000  0.51082500  0.87725200  1
  Cu  Cu3  1  0.00000000  0.49982000  0.37477300  1
  Si  Si0  1  0.50000000  0.90378000  0.00000000  1
  Ge  Ge0  1  0.50000000  0.91820300  0.50000000  1
  Ge  Ge1  1  0.50000000  0.08704500  0.24836800  1
  Ge  Ge2  1  0.50000000  0.08704500  0.75163200  1
  O  O0  1  0.50000000  0.71889800  0.07831600  1
  O  O1  1  0.50000000  0.71489000  0.58358800  1
  O  O2  1  0.50000000  0.29648600  0.16566700  1
  O  O3  1  0.50000000  0.28424300  0.66682500  1
  O  O4  1  0.50000000  0.71889800  0.92168400  1
  O  O5  1  0.50000000  0.71489000  0.41641200  1
  O  O6  1  0.50000000  0.28424300  0.33317500  1
  O  O7  1  0.50000000  0.29648600  0.83433300  1
  O  O8  1  0.00000000  0.07464300  0.00000000  1
  O  O9  1  0.00000000  0.12892300  0.50000000  1
  O  O10  1  0.00000000  0.87501900  0.24903900  1
  O  O11  1  0.00000000  0.87501900  0.75096100  1
loop_
_geom_bond_atom_site_label_1
_geom_bond_atom_site_label_2
_geom_bond_distance
_geom_bond_site_symmetry_2
Cu0 O0 1.946339 1_555
Cu0 O0 1.946339 1_455
Cu0 O2 1.951996 1_455
Cu0 O2 1.951996 1_555
Cu1 O1 1.945429 1_455
Cu1 O1 1.945429 1_555
Cu1 O3 1.946483 1_455
Cu1 O3 1.946483 1_555
Cu2 O4 1.946339 1_455
Cu2 O4 1.946339 1_555
Cu2 O7 1.951996 1_455
Cu2 O7 1.951996 1_555
Cu3 O5 1.945429 1_555
Cu3 O5 1.945429 1_455
Cu3 O6 1.946483 1_455
Cu3 O6 1.946483 1_555
Ge0 O5 1.761510 1_555
Ge0 O1 1.761510 1_555
Ge0 O9 1.792389 1_565
Ge0 O9 1.792389 1_665
Ge1 O6 1.762896 1_555
Ge1 O2 1.765653 1_555
Ge1 O10 1.796051 1_645
Ge1 O10 1.796051 1_545
Ge2 O3 1.762896 1_555
Ge2 O7 1.765653 1_555
Ge2 O11 1.796051 1_645
Ge2 O11 1.796051 1_545
O0 Si0 1.635322 1_555
O4 Si0 1.635322 1_556
O8 Si0 1.689522 1_445
O8 Si0 1.689522 1_545
