# generated using pymatgen
data_Mg(MnGe)6
_symmetry_space_group_name_H-M   'P 1'
_cell_length_a   5.14823664
_cell_length_b   5.14822931
_cell_length_c   8.10447047
_cell_angle_alpha   90.00000111
_cell_angle_beta   90.00000251
_cell_angle_gamma   120.00011073
_symmetry_Int_Tables_number   1
_chemical_formula_structural   Mg(MnGe)6
_chemical_formula_sum   'Mg1 Mn6 Ge6'
_cell_volume   186.02494103
_cell_formula_units_Z   1
loop_
 _symmetry_equiv_pos_site_id
 _symmetry_equiv_pos_as_xyz
  1  'x, y, z'
loop_
 _atom_site_type_symbol
 _atom_site_label
 _atom_site_symmetry_multiplicity
 _atom_site_fract_x
 _atom_site_fract_y
 _atom_site_fract_z
 _atom_site_occupancy
  Mg  Mg0  1  0.00000003  0.00000001  -0.00000353  1
  Mn  Mn0  1  0.49999961  0.00000006  0.25046826  1
  Mn  Mn1  1  0.49999963  0.00000012  0.74953096  1
  Mn  Mn2  1  -0.00000005  0.49999947  0.25046815  1
  Mn  Mn3  1  0.00000009  0.49999963  0.74953098  1
  Mn  Mn4  1  0.50000025  0.50000038  0.25046778  1
  Mn  Mn5  1  0.50000037  0.50000032  0.74953160  1
  Ge  Ge0  1  -0.00000007  -0.00000007  0.33554929  1
  Ge  Ge1  1  0.00000005  0.00000003  0.66445882  1
  Ge  Ge2  1  0.33335162  0.66668743  0.50000636  1
  Ge  Ge3  1  0.66664842  0.33331259  0.50000635  1
  Ge  Ge4  1  0.33335193  0.66668673  -0.00000752  1
  Ge  Ge5  1  0.66664812  0.33331330  -0.00000750  1
loop_
_geom_bond_atom_site_label_1
_geom_bond_atom_site_label_2
_geom_bond_distance
_geom_bond_site_symmetry_2
Ge0 Mn4 2.664866 1_445
Ge0 Mn2 2.664867 1_555
Ge0 Mn4 2.664870 1_555
Ge0 Mn0 2.664871 1_555
Ge0 Mn2 2.664872 1_545
Ge0 Mn0 2.664874 1_455
Ge0 Ge1 2.665638 1_555
Ge0 Mg0 2.719478 1_555
Ge1 Mn5 2.664848 1_445
Ge1 Mn3 2.664848 1_555
Ge1 Mn5 2.664851 1_555
Ge1 Mn1 2.664852 1_555
Ge1 Mn3 2.664853 1_545
Ge1 Mn1 2.664856 1_455
Ge1 Mg0 2.719355 1_556
Ge2 Mn1 2.509575 1_565
Ge2 Mn5 2.509642 1_555
Ge2 Mn0 2.509663 1_565
Ge2 Mn3 2.509679 1_555
Ge2 Mn4 2.509729 1_555
Ge2 Mn2 2.509768 1_555
Ge3 Mn1 2.509574 1_555
Ge3 Mn5 2.509642 1_555
Ge3 Mn0 2.509662 1_555
Ge3 Mn3 2.509679 1_655
Ge3 Mn4 2.509729 1_555
Ge3 Mn2 2.509767 1_655
Ge4 Mn1 2.515699 1_564
Ge4 Mn5 2.515754 1_554
Ge4 Mn0 2.515792 1_565
Ge4 Mn3 2.515802 1_554
Ge4 Mn4 2.515848 1_555
Ge4 Mn2 2.515895 1_555
Ge4 Mg0 2.972250 1_665
Ge4 Mg0 2.972329 1_565
Ge4 Mg0 2.972418 1_555
Ge5 Mn1 2.515699 1_554
Ge5 Mn5 2.515754 1_554
Ge5 Mn0 2.515792 1_555
Ge5 Mn3 2.515802 1_654
Ge5 Mn4 2.515848 1_555
Ge5 Mn2 2.515894 1_655
Ge5 Mg0 2.972250 1_555
Ge5 Mg0 2.972329 1_655
Ge5 Mg0 2.972418 1_665
