# generated using pymatgen
data_VP2(NO4)2
_symmetry_space_group_name_H-M   'P 1'
_cell_length_a   8.49506900
_cell_length_b   8.49506900
_cell_length_c   5.27513200
_cell_angle_alpha   90.00000000
_cell_angle_beta   90.00000000
_cell_angle_gamma   90.00000000
_symmetry_Int_Tables_number   1
_chemical_formula_structural   VP2(NO4)2
_chemical_formula_sum   'V2 P4 N4 O16'
_cell_volume   380.68621677
_cell_formula_units_Z   2
loop_
 _symmetry_equiv_pos_site_id
 _symmetry_equiv_pos_as_xyz
  1  'x, y, z'
loop_
 _atom_site_type_symbol
 _atom_site_label
 _atom_site_symmetry_multiplicity
 _atom_site_fract_x
 _atom_site_fract_y
 _atom_site_fract_z
 _atom_site_occupancy
  V  V0  1  0.00000000  0.00000000  0.28963400  1
  V  V1  1  0.50000000  0.50000000  0.28963400  1
  P  P0  1  0.63128500  0.13128500  0.26473400  1
  P  P1  1  0.36871500  0.86871500  0.26473400  1
  P  P2  1  0.13128500  0.36871500  0.26473400  1
  P  P3  1  0.86871500  0.63128500  0.26473400  1
  N  N0  1  0.23431000  0.73431000  0.89265100  1
  N  N1  1  0.76569000  0.26569000  0.89265100  1
  N  N2  1  0.73431000  0.76569000  0.89265100  1
  N  N3  1  0.26569000  0.23431000  0.89265100  1
  O  O0  1  0.06544000  0.22204600  0.38134900  1
  O  O1  1  0.93456000  0.77795400  0.38134900  1
  O  O2  1  0.22204600  0.93456000  0.38134900  1
  O  O3  1  0.43456000  0.72204600  0.38134900  1
  O  O4  1  0.77795400  0.06544000  0.38134900  1
  O  O5  1  0.56544000  0.27795400  0.38134900  1
  O  O6  1  0.27795400  0.43456000  0.38134900  1
  O  O7  1  0.72204600  0.56544000  0.38134900  1
  O  O8  1  0.00000000  0.50000000  0.24720600  1
  O  O9  1  0.50000000  0.00000000  0.24720600  1
  O  O10  1  0.00000000  0.00000000  0.98483500  1
  O  O11  1  0.50000000  0.50000000  0.98483500  1
  O  O12  1  0.65782800  0.15782800  0.95640000  1
  O  O13  1  0.34217200  0.84217200  0.95640000  1
  O  O14  1  0.15782800  0.34217200  0.95640000  1
  O  O15  1  0.84217200  0.65782800  0.95640000  1
loop_
_geom_bond_atom_site_label_1
_geom_bond_atom_site_label_2
_geom_bond_distance
_geom_bond_site_symmetry_2
N0 O13 1.338761 1_555
N1 O12 1.338761 1_555
N2 O15 1.338761 1_555
N3 O14 1.338761 1_555
O0 P2 1.497908 1_555
O0 V0 2.025149 1_555
O1 P3 1.497908 1_555
O1 V0 2.025149 1_665
O2 P1 1.497908 1_555
O2 V0 2.025149 1_565
O3 P1 1.497908 1_555
O3 V1 2.025149 1_555
O4 P0 1.497908 1_555
O4 V0 2.025149 1_655
O5 P0 1.497908 1_555
O5 V1 2.025149 1_555
O6 P2 1.497908 1_555
O6 V1 2.025149 1_555
O7 P3 1.497908 1_555
O7 V1 2.025149 1_555
O8 P3 1.579945 1_455
O8 P2 1.579945 1_555
O9 P0 1.579945 1_555
O9 P1 1.579945 1_545
O10 V0 1.607855 1_556
O11 V1 1.607855 1_556
O12 P0 1.657467 1_556
O13 P1 1.657467 1_556
O14 P2 1.657467 1_556
O15 P3 1.657467 1_556
