# generated using pymatgen
data_RbI(OF)2
_symmetry_space_group_name_H-M   'P 1'
_cell_length_a   6.28206600
_cell_length_b   8.75677800
_cell_length_c   8.85408800
_cell_angle_alpha   90.00000000
_cell_angle_beta   90.00000000
_cell_angle_gamma   90.00000000
_symmetry_Int_Tables_number   1
_chemical_formula_structural   RbI(OF)2
_chemical_formula_sum   'Rb4 I4 O8 F8'
_cell_volume   487.06920106
_cell_formula_units_Z   4
loop_
 _symmetry_equiv_pos_site_id
 _symmetry_equiv_pos_as_xyz
  1  'x, y, z'
loop_
 _atom_site_type_symbol
 _atom_site_label
 _atom_site_symmetry_multiplicity
 _atom_site_fract_x
 _atom_site_fract_y
 _atom_site_fract_z
 _atom_site_occupancy
  Rb  Rb0  1  0.52834200  0.28826800  0.31137200  1
  Rb  Rb1  1  0.47165800  0.71173200  0.81137200  1
  Rb  Rb2  1  0.52834200  0.21173200  0.81137200  1
  Rb  Rb3  1  0.47165800  0.78826800  0.31137200  1
  I  I0  1  0.94521900  0.00803000  0.53234900  1
  I  I1  1  0.05478100  0.99197000  0.03234900  1
  I  I2  1  0.94521900  0.49197000  0.03234900  1
  I  I3  1  0.05478100  0.50803000  0.53234900  1
  O  O0  1  0.85679000  0.20295200  0.55735700  1
  O  O1  1  0.14321000  0.79704800  0.05735700  1
  O  O2  1  0.85679000  0.29704800  0.05735700  1
  O  O3  1  0.14321000  0.70295200  0.55735700  1
  O  O4  1  0.86530600  0.97088800  0.34026000  1
  O  O5  1  0.13469400  0.02911200  0.84026000  1
  O  O6  1  0.86530600  0.52911200  0.84026000  1
  O  O7  1  0.13469400  0.47088800  0.34026000  1
  F  F0  1  0.24309400  0.07227100  0.46589600  1
  F  F1  1  0.75690600  0.92772900  0.96589600  1
  F  F2  1  0.24309400  0.42772900  0.96589600  1
  F  F3  1  0.75690600  0.57227100  0.46589600  1
  F  F4  1  0.65355000  0.93021500  0.60922600  1
  F  F5  1  0.34645000  0.06978500  0.10922600  1
  F  F6  1  0.65355000  0.56978500  0.10922600  1
  F  F7  1  0.34645000  0.43021500  0.60922600  1
loop_
_geom_bond_atom_site_label_1
_geom_bond_atom_site_label_2
_geom_bond_distance
_geom_bond_site_symmetry_2
I0 O4 1.802896 1_545
I0 O0 1.808617 1_555
I1 O5 1.802896 1_564
I1 O1 1.808617 1_555
I2 O6 1.802896 1_554
I2 O2 1.808617 1_555
I3 O7 1.802896 1_555
I3 O3 1.808617 1_555
O0 Rb2 3.053125 1_555
O0 Rb0 3.091772 1_555
O1 Rb3 3.053125 1_555
O1 Rb1 3.091772 1_554
O2 Rb0 3.053125 1_555
O2 Rb2 3.091772 1_554
O3 Rb1 3.053125 1_555
O3 Rb3 3.091772 1_555
O4 Rb3 2.956026 1_555
O4 Rb0 3.502926 1_565
O5 Rb2 2.956026 1_555
O5 Rb1 3.502926 1_545
O6 Rb1 2.956026 1_555
O6 Rb2 3.502926 1_555
O7 Rb0 2.956026 1_555
O7 Rb3 3.502926 1_555
F0 I0 2.040662 1_455
F0 Rb0 2.942872 1_555
F0 Rb3 3.180957 1_545
F1 I1 2.040662 1_656
F1 Rb1 2.942872 1_555
F1 Rb2 3.180957 1_565
F2 I2 2.040662 1_456
F2 Rb2 2.942872 1_555
F2 Rb1 3.180957 1_555
F3 I3 2.040662 1_655
F3 Rb3 2.942872 1_555
F3 Rb0 3.180957 1_555
F4 I0 2.070000 1_565
F4 Rb1 2.858230 1_555
F4 Rb3 3.131401 1_555
F4 Rb2 3.146308 1_565
F5 I1 2.070000 1_545
F5 Rb0 2.858230 1_555
F5 Rb2 3.131401 1_554
F5 Rb3 3.146308 1_545
F6 I2 2.070000 1_555
F6 Rb3 2.858230 1_555
F6 Rb1 3.131401 1_554
F6 Rb0 3.146308 1_555
F7 I3 2.070000 1_555
F7 Rb2 2.858230 1_555
F7 Rb0 3.131401 1_555
F7 Rb1 3.146308 1_555
