# generated using pymatgen
data_Li2TbF6
_symmetry_space_group_name_H-M   'P 1'
_cell_length_a   5.08207200
_cell_length_b   7.66895690
_cell_length_c   11.71699405
_cell_angle_alpha   106.43409489
_cell_angle_beta   90.00000000
_cell_angle_gamma   90.00000000
_symmetry_Int_Tables_number   1
_chemical_formula_structural   Li2TbF6
_chemical_formula_sum   'Li8 Tb4 F24'
_cell_volume   438.00386800
_cell_formula_units_Z   4
loop_
 _symmetry_equiv_pos_site_id
 _symmetry_equiv_pos_as_xyz
  1  'x, y, z'
loop_
 _atom_site_type_symbol
 _atom_site_label
 _atom_site_symmetry_multiplicity
 _atom_site_fract_x
 _atom_site_fract_y
 _atom_site_fract_z
 _atom_site_occupancy
  Li  Li0  1  0.99537200  0.59660400  0.19601500  1
  Li  Li1  1  0.49537200  0.40339600  0.30398500  1
  Li  Li2  1  0.00462800  0.40339600  0.80398500  1
  Li  Li3  1  0.50462800  0.59660400  0.69601500  1
  Li  Li4  1  0.48460900  0.97323000  0.34032000  1
  Li  Li5  1  0.98460900  0.02677000  0.15968000  1
  Li  Li6  1  0.51539100  0.02677000  0.65968000  1
  Li  Li7  1  0.01539100  0.97323000  0.84032000  1
  Tb  Tb0  1  0.01906000  0.75080600  0.50155400  1
  Tb  Tb1  1  0.51906000  0.24919400  0.99844600  1
  Tb  Tb2  1  0.98094000  0.24919400  0.49844600  1
  Tb  Tb3  1  0.48094000  0.75080600  0.00155400  1
  F  F0  1  0.69219200  0.54072700  0.07796700  1
  F  F1  1  0.19219200  0.45927300  0.42203300  1
  F  F2  1  0.30780800  0.45927300  0.92203300  1
  F  F3  1  0.80780800  0.54072700  0.57796700  1
  F  F4  1  0.85293100  0.91329700  0.68217500  1
  F  F5  1  0.35293100  0.08670300  0.81782500  1
  F  F6  1  0.14706900  0.08670300  0.31782500  1
  F  F7  1  0.64706900  0.91329700  0.18217500  1
  F  F8  1  0.73554000  0.95941600  0.95398000  1
  F  F9  1  0.23554000  0.04058400  0.54602000  1
  F  F10  1  0.26446000  0.04058400  0.04602000  1
  F  F11  1  0.76446000  0.95941600  0.45398000  1
  F  F12  1  0.72916700  0.59282400  0.83731100  1
  F  F13  1  0.22916700  0.40717600  0.66268900  1
  F  F14  1  0.27083300  0.40717600  0.16268900  1
  F  F15  1  0.77083300  0.59282400  0.33731100  1
  F  F16  1  0.11434700  0.75143800  0.10356100  1
  F  F17  1  0.61434700  0.24856200  0.39643900  1
  F  F18  1  0.88565300  0.24856200  0.89643900  1
  F  F19  1  0.38565300  0.75143800  0.60356100  1
  F  F20  1  0.24008500  0.75825300  0.83721200  1
  F  F21  1  0.74008500  0.24174700  0.66278800  1
  F  F22  1  0.75991500  0.24174700  0.16278800  1
  F  F23  1  0.25991500  0.75825300  0.33721200  1
loop_
_geom_bond_atom_site_label_1
_geom_bond_atom_site_label_2
_geom_bond_distance
_geom_bond_site_symmetry_2
F0 Li0 2.033573 1_555
F0 Tb3 2.316464 1_555
F0 Tb1 2.337139 1_554
F1 Li1 2.033573 1_555
F1 Tb2 2.316464 1_455
F1 Tb0 2.337139 1_555
F2 Li2 2.033573 1_555
F2 Tb1 2.316464 1_555
F2 Tb3 2.337139 1_556
F3 Li3 2.033573 1_555
F3 Tb0 2.316464 1_655
F3 Tb2 2.337139 1_555
F4 Li7 1.960759 1_655
F4 Li6 1.974624 1_565
F4 Tb0 2.291795 1_655
F5 Li6 1.960759 1_555
F5 Li7 1.974624 1_545
F5 Tb1 2.291795 1_555
F6 Li5 1.960759 1_455
F6 Li4 1.974624 1_545
F6 Tb2 2.291795 1_455
F7 Li4 1.960759 1_555
F7 Li5 1.974624 1_565
F7 Tb3 2.291795 1_555
F8 Li7 1.971633 1_655
F8 Tb3 2.246977 1_556
F8 Tb1 2.401100 1_565
F9 Li6 1.971633 1_555
F9 Tb2 2.246977 1_455
F9 Tb0 2.401100 1_545
F10 Li5 1.971633 1_455
F10 Tb1 2.246977 1_554
F10 Tb3 2.401100 1_545
F11 Li4 1.971633 1_555
F11 Tb0 2.246977 1_655
F11 Tb2 2.401100 1_565
F12 Li2 1.975258 1_655
F12 Li3 2.017685 1_555
F12 Tb3 2.333123 1_556
F13 Li3 1.975258 1_555
F13 Li2 2.017685 1_555
F13 Tb2 2.333123 1_455
F14 Li0 1.975258 1_455
F14 Li1 2.017685 1_555
F14 Tb1 2.333123 1_554
F15 Li1 1.975258 1_555
F15 Li0 2.017685 1_555
F15 Tb0 2.333123 1_655
F16 Li0 1.917517 1_455
F16 Li5 2.130719 1_465
F16 Tb3 2.212747 1_555
F17 Li1 1.917517 1_555
F17 Li4 2.130719 1_545
F17 Tb2 2.212747 1_555
F18 Li2 1.917517 1_655
F18 Li7 2.130719 1_645
F18 Tb1 2.212747 1_555
F19 Li3 1.917517 1_555
F19 Li6 2.130719 1_565
F19 Tb0 2.212747 1_555
F20 Li7 1.997338 1_555
F20 Li3 2.218304 1_555
F20 Tb3 2.296014 1_556
F21 Li6 1.997338 1_555
F21 Li2 2.218304 1_655
F21 Tb2 2.296014 1_555
F22 Li5 1.997338 1_555
F22 Li1 2.218304 1_555
F22 Tb1 2.296014 1_554
F23 Li4 1.997338 1_555
F23 Li0 2.218304 1_455
F23 Tb0 2.296014 1_555
