# generated using pymatgen
data_ZnF2
_symmetry_space_group_name_H-M   'P 1'
_cell_length_a   3.13289021
_cell_length_b   4.70294417
_cell_length_c   4.70294417
_cell_angle_alpha   90.00000000
_cell_angle_beta   90.00000000
_cell_angle_gamma   90.00000000
_symmetry_Int_Tables_number   1
_chemical_formula_structural   ZnF2
_chemical_formula_sum   'Zn2 F4'
_cell_volume   69.29227525
_cell_formula_units_Z   2
loop_
 _symmetry_equiv_pos_site_id
 _symmetry_equiv_pos_as_xyz
  1  'x, y, z'
loop_
 _atom_site_type_symbol
 _atom_site_label
 _atom_site_symmetry_multiplicity
 _atom_site_fract_x
 _atom_site_fract_y
 _atom_site_fract_z
 _atom_site_occupancy
  Zn  Zn0  1  0.50000000  0.50000000  0.50000000  1
  Zn  Zn1  1  -0.00000000  0.00000000  -0.00000000  1
  F  F0  1  0.00000000  0.69686162  0.69686162  1
  F  F1  1  0.50000000  0.80313838  0.19686162  1
  F  F2  1  0.00000000  0.30313838  0.30313838  1
  F  F3  1  0.50000000  0.19686162  0.80313838  1
loop_
_geom_bond_atom_site_label_1
_geom_bond_atom_site_label_2
_geom_bond_distance
_geom_bond_site_symmetry_2
F0 Zn1 2.016163 1_566
F0 Zn0 2.041585 1_455
F0 Zn0 2.041585 1_555
F1 Zn0 2.016163 1_555
F1 Zn1 2.041585 1_565
F1 Zn1 2.041585 1_665
F2 Zn1 2.016163 1_555
F2 Zn0 2.041585 1_455
F2 Zn0 2.041585 1_555
F3 Zn0 2.016163 1_555
F3 Zn1 2.041585 1_656
F3 Zn1 2.041585 1_556
