# generated using pymatgen
data_La7(IO6)3
_symmetry_space_group_name_H-M   'P 1'
_cell_length_a   15.65535054
_cell_length_b   16.43589205
_cell_length_c   4.33506000
_cell_angle_alpha   90.00000000
_cell_angle_beta   90.00000000
_cell_angle_gamma   120.18748826
_symmetry_Int_Tables_number   1
_chemical_formula_structural   La7(IO6)3
_chemical_formula_sum   'La14 I6 O36'
_cell_volume   964.18023251
_cell_formula_units_Z   2
loop_
 _symmetry_equiv_pos_site_id
 _symmetry_equiv_pos_as_xyz
  1  'x, y, z'
loop_
 _atom_site_type_symbol
 _atom_site_label
 _atom_site_symmetry_multiplicity
 _atom_site_fract_x
 _atom_site_fract_y
 _atom_site_fract_z
 _atom_site_occupancy
  La  La0  1  0.09538000  0.85746200  0.25000000  1
  La  La1  1  0.77266300  0.92037000  0.25000000  1
  La  La2  1  0.13603600  0.23620400  0.25000000  1
  La  La3  1  0.90462000  0.14253800  0.75000000  1
  La  La4  1  0.22733700  0.07963000  0.75000000  1
  La  La5  1  0.86396400  0.76379600  0.75000000  1
  La  La6  1  0.69309600  0.54921100  0.25000000  1
  La  La7  1  0.87423200  0.31630300  0.25000000  1
  La  La8  1  0.44368300  0.13102100  0.25000000  1
  La  La9  1  0.30690400  0.45079000  0.75000000  1
  La  La10  1  0.12576800  0.68369700  0.75000000  1
  La  La11  1  0.55631700  0.86897900  0.75000000  1
  La  La12  1  0.33618900  0.67085800  0.25000000  1
  La  La13  1  0.66381100  0.32914200  0.75000000  1
  I  I0  1  0.89930400  0.53816700  0.25000000  1
  I  I1  1  0.65703100  0.09902600  0.25000000  1
  I  I2  1  0.43239200  0.33533100  0.25000000  1
  I  I3  1  0.10069600  0.46183300  0.75000000  1
  I  I4  1  0.34296900  0.90097400  0.75000000  1
  I  I5  1  0.56760800  0.66466900  0.75000000  1
  O  O0  1  0.75758100  0.43740300  0.25000000  1
  O  O1  1  0.68670100  0.22799500  0.25000000  1
  O  O2  1  0.54002900  0.30928600  0.25000000  1
  O  O3  1  0.24241900  0.56259700  0.75000000  1
  O  O4  1  0.31329900  0.77200500  0.75000000  1
  O  O5  1  0.45997100  0.69071400  0.75000000  1
  O  O6  1  0.74366400  0.71016600  0.25000000  1
  O  O7  1  0.97792800  0.25595400  0.25000000  1
  O  O8  1  0.28354300  0.02198300  0.25000000  1
  O  O9  1  0.25633600  0.28983400  0.75000000  1
  O  O10  1  0.02207200  0.74404600  0.75000000  1
  O  O11  1  0.71645700  0.97801700  0.75000000  1
  O  O12  1  0.87510000  0.84842100  0.25000000  1
  O  O13  1  0.95982000  0.11483900  0.25000000  1
  O  O14  1  0.14823600  0.02568500  0.25000000  1
  O  O15  1  0.12490000  0.15157900  0.75000000  1
  O  O16  1  0.04018000  0.88516100  0.75000000  1
  O  O17  1  0.85176400  0.97431500  0.75000000  1
  O  O18  1  0.89257900  0.71316700  0.25000000  1
  O  O19  1  0.78413500  0.11473600  0.25000000  1
  O  O20  1  0.32398100  0.21199800  0.25000000  1
  O  O21  1  0.10742100  0.28683300  0.75000000  1
  O  O22  1  0.21586500  0.88526400  0.75000000  1
  O  O23  1  0.67601900  0.78800200  0.75000000  1
  O  O24  1  0.16999100  0.62896100  0.25000000  1
  O  O25  1  0.45695500  0.83795400  0.25000000  1
  O  O26  1  0.38528700  0.54616000  0.25000000  1
  O  O27  1  0.83000900  0.37103900  0.75000000  1
  O  O28  1  0.54304500  0.16204600  0.75000000  1
  O  O29  1  0.61471300  0.45384000  0.75000000  1
  O  O30  1  0.16083000  0.75609100  0.25000000  1
  O  O31  1  0.59894500  0.84040800  0.25000000  1
  O  O32  1  0.24235000  0.40726900  0.25000000  1
  O  O33  1  0.83917000  0.24390900  0.75000000  1
  O  O34  1  0.40105500  0.15959200  0.75000000  1
  O  O35  1  0.75765000  0.59273100  0.75000000  1
loop_
_geom_bond_atom_site_label_1
_geom_bond_atom_site_label_2
_geom_bond_distance
_geom_bond_site_symmetry_2
La0 O30 2.354295 1_555
La0 O14 2.455304 1_565
La0 O16 2.459247 1_555
La0 O16 2.459247 1_554
La0 O10 2.709003 1_554
La0 O10 2.709003 1_555
La0 O22 2.756461 1_555
La0 O22 2.756461 1_554
La0 O8 2.824676 1_565
La0 O18 2.851729 1_455
La1 O31 2.351398 1_555
La1 O12 2.424335 1_555
La1 O17 2.431798 1_555
La1 O17 2.431798 1_554
La2 O21 2.442581 1_554
La2 O21 2.442581 1_555
La2 O32 2.443197 1_555
La2 O13 2.460782 1_455
La2 O15 2.533632 1_555
La2 O15 2.533632 1_554
La2 O7 2.653337 1_455
La2 O9 2.711574 1_555
La2 O9 2.711574 1_554
La2 O20 3.161156 1_555
La3 O33 2.354295 1_555
La3 O17 2.455304 1_545
La3 O13 2.459247 1_555
La3 O13 2.459247 1_556
La3 O7 2.709003 1_556
La3 O7 2.709003 1_555
La3 O19 2.756461 1_556
La3 O19 2.756461 1_555
La3 O11 2.824676 1_545
La3 O21 2.851729 1_655
La4 O34 2.351398 1_555
La4 O15 2.424335 1_555
La4 O14 2.431798 1_555
La4 O14 2.431798 1_556
La5 O18 2.442581 1_555
La5 O18 2.442581 1_556
La5 O35 2.443197 1_555
La5 O16 2.460782 1_655
La5 O12 2.533632 1_555
La5 O12 2.533632 1_556
La5 O10 2.653337 1_655
La5 O6 2.711574 1_556
La5 O6 2.711574 1_555
La5 O23 3.161156 1_555
La6 O35 2.346102 1_555
La6 O35 2.346102 1_554
La6 O6 2.349240 1_555
La6 O0 2.502371 1_555
La6 O29 2.593583 1_555
La6 O29 2.593583 1_554
La6 O18 2.924277 1_555
La7 O7 2.288802 1_555
La7 O33 2.399673 1_555
La7 O33 2.399673 1_554
La7 O1 2.537837 1_555
La7 O27 2.571617 1_555
La7 O27 2.571617 1_554
La8 O8 2.231284 1_555
La8 O34 2.383112 1_554
La8 O34 2.383112 1_555
La8 O2 2.532842 1_555
La8 O28 2.565197 1_555
La8 O28 2.565197 1_554
La8 O20 2.791311 1_555
La9 O32 2.346103 1_556
La9 O32 2.346103 1_555
La9 O9 2.349255 1_555
La9 O3 2.502356 1_555
La9 O26 2.593577 1_555
La9 O26 2.593577 1_556
La9 O21 2.924283 1_555
La10 O10 2.288802 1_555
La10 O30 2.399673 1_556
La10 O30 2.399673 1_555
La10 O4 2.537837 1_555
La10 O24 2.571617 1_555
La10 O24 2.571617 1_556
La11 O11 2.231284 1_555
La11 O31 2.383112 1_556
La11 O31 2.383112 1_555
La11 O5 2.532842 1_555
La11 O25 2.565197 1_555
La11 O25 2.565197 1_556
La11 O23 2.791311 1_555
La12 O24 2.332845 1_555
La12 O25 2.428018 1_555
La12 O26 2.525003 1_555
La12 O3 2.718907 1_555
La12 O3 2.718907 1_554
La12 O5 2.814952 1_554
La12 O5 2.814952 1_555
La12 O4 2.861717 1_554
La12 O4 2.861717 1_555
La13 O27 2.332845 1_555
La13 O28 2.428018 1_555
La13 O29 2.525003 1_555
La13 O0 2.718907 1_556
La13 O0 2.718907 1_555
La13 O2 2.814952 1_556
La13 O2 2.814952 1_555
La13 O1 2.861717 1_555
La13 O1 2.861717 1_556
I0 O0 1.992540 1_555
I1 O19 1.873366 1_555
I1 O1 1.928418 1_555
I2 O20 1.878759 1_555
I2 O2 1.936032 1_555
I3 O3 1.992540 1_555
I4 O22 1.873366 1_555
I4 O4 1.928418 1_555
I5 O23 1.878759 1_555
I5 O5 1.936032 1_555
