# generated using pymatgen
data_HgNCl3O
_symmetry_space_group_name_H-M   'P 1'
_cell_length_a   10.48326900
_cell_length_b   2.89957200
_cell_length_c   19.96069000
_cell_angle_alpha   90.00000000
_cell_angle_beta   90.00000000
_cell_angle_gamma   90.00000000
_symmetry_Int_Tables_number   1
_chemical_formula_structural   HgNCl3O
_chemical_formula_sum   'Hg4 N4 Cl12 O4'
_cell_volume   606.74495941
_cell_formula_units_Z   4
loop_
 _symmetry_equiv_pos_site_id
 _symmetry_equiv_pos_as_xyz
  1  'x, y, z'
loop_
 _atom_site_type_symbol
 _atom_site_label
 _atom_site_symmetry_multiplicity
 _atom_site_fract_x
 _atom_site_fract_y
 _atom_site_fract_z
 _atom_site_occupancy
  Hg  Hg0  1  0.57835700  0.25000000  0.59942100  1
  Hg  Hg1  1  0.07835700  0.25000000  0.90057900  1
  Hg  Hg2  1  0.42164300  0.75000000  0.40057900  1
  Hg  Hg3  1  0.92164300  0.75000000  0.09942100  1
  N  N0  1  0.06628300  0.75000000  0.63472000  1
  N  N1  1  0.56628300  0.75000000  0.86528000  1
  N  N2  1  0.93371700  0.25000000  0.36528000  1
  N  N3  1  0.43371700  0.25000000  0.13472000  1
  Cl  Cl0  1  0.43134200  0.25000000  0.69137500  1
  Cl  Cl1  1  0.93134200  0.25000000  0.80862500  1
  Cl  Cl2  1  0.56865800  0.75000000  0.30862500  1
  Cl  Cl3  1  0.06865800  0.75000000  0.19137500  1
  Cl  Cl4  1  0.78492700  0.75000000  0.65638600  1
  Cl  Cl5  1  0.28492700  0.75000000  0.84361400  1
  Cl  Cl6  1  0.21507300  0.25000000  0.34361400  1
  Cl  Cl7  1  0.71507300  0.25000000  0.15638600  1
  Cl  Cl8  1  0.66713100  0.25000000  0.48698700  1
  Cl  Cl9  1  0.16713100  0.25000000  0.01301300  1
  Cl  Cl10  1  0.33286900  0.75000000  0.51301300  1
  Cl  Cl11  1  0.83286900  0.75000000  0.98698700  1
  O  O0  1  0.09833200  0.25000000  0.63287500  1
  O  O1  1  0.59833200  0.25000000  0.86712500  1
  O  O2  1  0.90166800  0.75000000  0.36712500  1
  O  O3  1  0.40166800  0.75000000  0.13287500  1
loop_
_geom_bond_atom_site_label_1
_geom_bond_atom_site_label_2
_geom_bond_distance
_geom_bond_site_symmetry_2
N0 O0 1.488663 1_565
N0 O0 1.488663 1_555
N1 O1 1.488663 1_565
N1 O1 1.488663 1_555
N2 O2 1.488663 1_555
N2 O2 1.488663 1_545
N3 O3 1.488663 1_545
N3 O3 1.488663 1_555
Cl0 Hg0 2.396711 1_555
Cl1 Hg1 2.396711 1_655
Cl2 Hg2 2.396711 1_555
Cl3 Hg3 2.396711 1_455
Cl4 Hg0 2.843291 1_555
Cl4 Hg0 2.843291 1_565
Cl5 Hg1 2.843291 1_555
Cl5 Hg1 2.843291 1_565
Cl6 Hg2 2.843291 1_545
Cl6 Hg2 2.843291 1_555
Cl7 Hg3 2.843291 1_555
Cl7 Hg3 2.843291 1_545
Cl8 Hg0 2.429567 1_555
Cl9 Hg1 2.429567 1_554
Cl10 Hg2 2.429567 1_555
Cl11 Hg3 2.429567 1_556
