# generated using pymatgen
data_Mg2Cr3GaS8
_symmetry_space_group_name_H-M   'P 1'
_cell_length_a   7.25436454
_cell_length_b   7.25455427
_cell_length_c   7.25451782
_cell_angle_alpha   59.91809595
_cell_angle_beta   59.91641515
_cell_angle_gamma   59.91778724
_symmetry_Int_Tables_number   1
_chemical_formula_structural   Mg2Cr3GaS8
_chemical_formula_sum   'Mg2 Cr3 Ga1 S8'
_cell_volume   269.45700443
_cell_formula_units_Z   1
loop_
 _symmetry_equiv_pos_site_id
 _symmetry_equiv_pos_as_xyz
  1  'x, y, z'
loop_
 _atom_site_type_symbol
 _atom_site_label
 _atom_site_symmetry_multiplicity
 _atom_site_fract_x
 _atom_site_fract_y
 _atom_site_fract_z
 _atom_site_occupancy
  Mg  Mg0  1  0.87549100  0.87553200  0.87551500  1
  Mg  Mg1  1  0.12449700  0.12450000  0.12448600  1
  Cr  Cr0  1  0.50010600  0.49983500  0.99993200  1
  Cr  Cr1  1  0.99990600  0.49993800  0.50002700  1
  Cr  Cr2  1  0.50003700  0.00011300  0.50008000  1
  Ga  Ga0  1  0.50002000  0.50001900  0.49996500  1
  S  S0  1  0.73657700  0.73662500  0.73658800  1
  S  S1  1  0.25965100  0.25961500  0.71201200  1
  S  S2  1  0.25963100  0.71205200  0.25964600  1
  S  S3  1  0.71199400  0.25963700  0.25963100  1
  S  S4  1  0.74035000  0.28801600  0.74036900  1
  S  S5  1  0.28796100  0.74035000  0.74037100  1
  S  S6  1  0.26338600  0.26342300  0.26340700  1
  S  S7  1  0.74039900  0.74033900  0.28797200  1
loop_
_geom_bond_atom_site_label_1
_geom_bond_atom_site_label_2
_geom_bond_distance
_geom_bond_site_symmetry_2
Mg0 S7 2.440765 1_556
Mg0 S5 2.440779 1_655
Mg0 S4 2.440972 1_565
Mg0 S0 2.470045 1_555
Mg1 S2 2.440756 1_545
Mg1 S1 2.440868 1_554
Mg1 S3 2.440980 1_455
Mg1 S6 2.469956 1_555
Cr0 S4 2.422875 1_555
Cr0 S3 2.423967 1_556
Cr0 S5 2.424495 1_555
Cr0 S2 2.425615 1_556
Cr0 S6 2.432987 1_556
Cr0 S0 2.433536 1_555
Cr1 S4 2.423324 1_555
Cr1 S7 2.423756 1_555
Cr1 S1 2.424680 1_655
Cr1 S2 2.425152 1_655
Cr1 S6 2.433013 1_655
Cr1 S0 2.433473 1_555
Cr2 S1 2.423113 1_555
Cr2 S3 2.423347 1_555
Cr2 S5 2.425180 1_545
Cr2 S7 2.425407 1_545
Cr2 S0 2.432637 1_545
Cr2 S6 2.433868 1_555
Ga0 S7 2.473212 1_555
Ga0 S2 2.473277 1_555
Ga0 S3 2.473335 1_555
Ga0 S5 2.473397 1_555
Ga0 S4 2.473436 1_555
Ga0 S1 2.473579 1_555
