# generated using pymatgen
data_KEuF4
_symmetry_space_group_name_H-M   'P 1'
_cell_length_a   3.67108708
_cell_length_b   6.15712068
_cell_length_c   15.38284386
_cell_angle_alpha   90.00000000
_cell_angle_beta   90.00000000
_cell_angle_gamma   90.00000000
_symmetry_Int_Tables_number   1
_chemical_formula_structural   KEuF4
_chemical_formula_sum   'K4 Eu4 F16'
_cell_volume   347.70343732
_cell_formula_units_Z   4
loop_
 _symmetry_equiv_pos_site_id
 _symmetry_equiv_pos_as_xyz
  1  'x, y, z'
loop_
 _atom_site_type_symbol
 _atom_site_label
 _atom_site_symmetry_multiplicity
 _atom_site_fract_x
 _atom_site_fract_y
 _atom_site_fract_z
 _atom_site_occupancy
  K  K0  1  0.25000000  0.72378366  0.70070792  1
  K  K1  1  0.75000000  0.27621634  0.29929208  1
  K  K2  1  0.75000000  0.77621634  0.20070792  1
  K  K3  1  0.25000000  0.22378366  0.79929208  1
  Eu  Eu0  1  0.25000000  0.25133132  0.06064520  1
  Eu  Eu1  1  0.75000000  0.74866868  0.93935480  1
  Eu  Eu2  1  0.75000000  0.24866868  0.56064520  1
  Eu  Eu3  1  0.25000000  0.75133132  0.43935480  1
  F  F0  1  0.25000000  0.60721746  0.86636047  1
  F  F1  1  0.75000000  0.39278254  0.13363953  1
  F  F2  1  0.75000000  0.89278254  0.36636047  1
  F  F3  1  0.25000000  0.10721746  0.63363953  1
  F  F4  1  0.25000000  0.63477668  0.03867532  1
  F  F5  1  0.75000000  0.36522332  0.96132468  1
  F  F6  1  0.75000000  0.86522332  0.53867532  1
  F  F7  1  0.25000000  0.13477668  0.46132468  1
  F  F8  1  0.25000000  0.50176843  0.55812683  1
  F  F9  1  0.75000000  0.49823157  0.44187317  1
  F  F10  1  0.75000000  0.99823157  0.05812683  1
  F  F11  1  0.25000000  0.00176843  0.94187317  1
  F  F12  1  0.25000000  0.59343894  0.30691683  1
  F  F13  1  0.75000000  0.40656106  0.69308317  1
  F  F14  1  0.75000000  0.90656106  0.80691683  1
  F  F15  1  0.25000000  0.09343894  0.19308317  1
loop_
_geom_bond_atom_site_label_1
_geom_bond_atom_site_label_2
_geom_bond_distance
_geom_bond_site_symmetry_2
Eu0 F15 2.257339 1_555
Eu0 F1 2.321327 1_455
Eu0 F1 2.321327 1_555
Eu0 F4 2.384986 1_555
Eu0 F11 2.387304 1_554
Eu0 F10 2.408158 1_445
Eu0 F10 2.408158 1_545
Eu0 F5 2.489023 1_554
Eu0 F5 2.489023 1_454
Eu1 F14 2.257339 1_555
Eu1 F0 2.321327 1_655
Eu1 F0 2.321327 1_555
Eu1 F5 2.384986 1_555
Eu1 F10 2.387304 1_556
Eu1 F11 2.408158 1_665
Eu1 F11 2.408158 1_565
Eu1 F4 2.489023 1_656
Eu1 F4 2.489023 1_556
Eu2 F13 2.257339 1_555
Eu2 F3 2.321327 1_555
Eu2 F3 2.321327 1_655
Eu2 F6 2.384986 1_545
Eu2 F9 2.387304 1_555
Eu2 F8 2.408158 1_655
Eu2 F8 2.408158 1_555
Eu2 F7 2.489023 1_555
Eu2 F7 2.489023 1_655
Eu3 F12 2.257339 1_555
Eu3 F2 2.321327 1_555
Eu3 F2 2.321327 1_455
Eu3 F7 2.384986 1_565
Eu3 F8 2.387304 1_555
Eu3 F9 2.408158 1_455
Eu3 F9 2.408158 1_555
Eu3 F6 2.489023 1_455
Eu3 F6 2.489023 1_555
F0 K3 2.576434 1_555
F0 K0 2.647352 1_555
F1 K2 2.576434 1_555
F1 K1 2.647352 1_555
F2 K1 2.576434 1_565
F2 K2 2.647352 1_555
F3 K0 2.576434 1_545
F3 K3 2.647352 1_555
F8 K0 2.584414 1_555
F9 K1 2.584414 1_555
F10 K2 2.584414 1_555
F11 K3 2.584414 1_555
F12 K1 2.682887 1_455
F12 K1 2.682887 1_555
F12 K2 2.702775 1_455
F12 K2 2.702775 1_555
F13 K0 2.682887 1_555
F13 K0 2.682887 1_655
F13 K3 2.702775 1_555
F13 K3 2.702775 1_655
F14 K3 2.682887 1_565
F14 K3 2.682887 1_665
F14 K0 2.702775 1_655
F14 K0 2.702775 1_555
F15 K2 2.682887 1_445
F15 K2 2.682887 1_545
F15 K1 2.702775 1_455
F15 K1 2.702775 1_555
