# generated using pymatgen
data_Ca2Nb2CuO8
_symmetry_space_group_name_H-M   'P 1'
_cell_length_a   10.13253595
_cell_length_b   10.13253595
_cell_length_c   5.46923153
_cell_angle_alpha   86.98301197
_cell_angle_beta   86.98301197
_cell_angle_gamma   38.82302634
_symmetry_Int_Tables_number   1
_chemical_formula_structural   Ca2Nb2CuO8
_chemical_formula_sum   'Ca4 Nb4 Cu2 O16'
_cell_volume   351.47574740
_cell_formula_units_Z   2
loop_
 _symmetry_equiv_pos_site_id
 _symmetry_equiv_pos_as_xyz
  1  'x, y, z'
loop_
 _atom_site_type_symbol
 _atom_site_label
 _atom_site_symmetry_multiplicity
 _atom_site_fract_x
 _atom_site_fract_y
 _atom_site_fract_z
 _atom_site_occupancy
  Ca  Ca0  1  0.46555900  0.12061900  0.74398100  1
  Ca  Ca1  1  0.87938100  0.53444100  0.75601900  1
  Ca  Ca2  1  0.53444100  0.87938100  0.25601900  1
  Ca  Ca3  1  0.12061900  0.46555900  0.24398100  1
  Nb  Nb0  1  0.26121800  0.97411400  0.76507100  1
  Nb  Nb1  1  0.02588600  0.73878200  0.73492900  1
  Nb  Nb2  1  0.73878200  0.02588600  0.23492900  1
  Nb  Nb3  1  0.97411400  0.26121800  0.26507100  1
  Cu  Cu0  1  0.73567200  0.26432800  0.75000000  1
  Cu  Cu1  1  0.26432800  0.73567200  0.25000000  1
  O  O0  1  0.19826100  0.95373000  0.43392900  1
  O  O1  1  0.04627000  0.80173900  0.06607100  1
  O  O2  1  0.80173900  0.04627000  0.56607100  1
  O  O3  1  0.95373000  0.19826100  0.93392900  1
  O  O4  1  0.35994800  0.75928600  0.96902500  1
  O  O5  1  0.24071400  0.64005200  0.53097500  1
  O  O6  1  0.64005200  0.24071400  0.03097500  1
  O  O7  1  0.75928600  0.35994800  0.46902500  1
  O  O8  1  0.24819700  0.12795300  0.01151600  1
  O  O9  1  0.87204700  0.75180300  0.48848400  1
  O  O10  1  0.83834300  0.53310900  0.17086800  1
  O  O11  1  0.46689100  0.16165700  0.32913200  1
  O  O12  1  0.16165700  0.46689100  0.82913200  1
  O  O13  1  0.53310900  0.83834300  0.67086800  1
  O  O14  1  0.12795300  0.24819700  0.51151600  1
  O  O15  1  0.75180300  0.87204700  0.98848400  1
loop_
_geom_bond_atom_site_label_1
_geom_bond_atom_site_label_2
_geom_bond_distance
_geom_bond_site_symmetry_2
Ca0 O12 2.279426 1_555
Ca0 O15 2.283691 1_545
Ca0 O11 2.286313 1_555
Ca0 O13 2.418714 1_545
Ca0 O8 2.532666 1_556
Ca1 O13 2.279426 1_555
Ca1 O14 2.283691 1_655
Ca1 O10 2.286313 1_556
Ca1 O12 2.418714 1_655
Ca1 O9 2.532666 1_555
Ca2 O10 2.279426 1_555
Ca2 O8 2.283691 1_565
Ca2 O13 2.286313 1_555
Ca2 O11 2.418714 1_565
Ca2 O15 2.532666 1_554
Ca3 O11 2.279426 1_555
Ca3 O9 2.283691 1_455
Ca3 O12 2.286313 1_554
Ca3 O10 2.418714 1_455
Ca3 O14 2.532666 1_555
Nb0 O4 1.857985 1_555
Nb0 O13 1.940999 1_555
Nb0 O0 2.023842 1_555
Nb0 O8 2.036156 1_566
Nb0 O3 2.147173 1_465
Nb0 O14 2.325413 1_565
Nb1 O5 1.857985 1_555
Nb1 O12 1.940999 1_555
Nb1 O1 2.023842 1_556
Nb1 O9 2.036156 1_455
Nb1 O2 2.147173 1_465
Nb1 O15 2.325413 1_455
Nb2 O6 1.857985 1_555
Nb2 O11 1.940999 1_555
Nb2 O2 2.023842 1_555
Nb2 O15 2.036156 1_544
Nb2 O1 2.147173 1_645
Nb2 O9 2.325413 1_545
Nb3 O7 1.857985 1_555
Nb3 O10 1.940999 1_555
Nb3 O3 2.023842 1_554
Nb3 O14 2.036156 1_655
Nb3 O0 2.147173 1_645
Nb3 O8 2.325413 1_655
Cu0 O7 1.877033 1_555
Cu0 O6 1.877033 1_556
Cu0 O2 2.049459 1_555
Cu0 O3 2.049459 1_555
Cu1 O4 1.877033 1_554
Cu1 O5 1.877033 1_555
Cu1 O0 2.049459 1_555
Cu1 O1 2.049459 1_555
