# generated using pymatgen
data_RbNaMg6O7
_symmetry_space_group_name_H-M   'P 1'
_cell_length_a   8.56113228
_cell_length_b   4.63554761
_cell_length_c   4.63554761
_cell_angle_alpha   90.00000000
_cell_angle_beta   90.00000000
_cell_angle_gamma   90.00000000
_symmetry_Int_Tables_number   1
_chemical_formula_structural   RbNaMg6O7
_chemical_formula_sum   'Rb1 Na1 Mg6 O7'
_cell_volume   183.96419285
_cell_formula_units_Z   1
loop_
 _symmetry_equiv_pos_site_id
 _symmetry_equiv_pos_as_xyz
  1  'x, y, z'
loop_
 _atom_site_type_symbol
 _atom_site_label
 _atom_site_symmetry_multiplicity
 _atom_site_fract_x
 _atom_site_fract_y
 _atom_site_fract_z
 _atom_site_occupancy
  Rb  Rb0  1  0.02664241  0.50000000  0.50000000  1
  Na  Na0  1  0.99660844  0.00000000  0.00000000  1
  Mg  Mg0  1  0.49867786  -0.00000000  -0.00000000  1
  Mg  Mg1  1  0.50787416  0.50000000  0.50000000  1
  Mg  Mg2  1  0.24956961  0.00000000  0.50000000  1
  Mg  Mg3  1  0.75233792  -0.00000000  0.50000000  1
  Mg  Mg4  1  0.24956961  0.50000000  0.00000000  1
  Mg  Mg5  1  0.75233792  0.50000000  -0.00000000  1
  O  O0  1  0.26413932  -0.00000000  0.00000000  1
  O  O1  1  0.73044626  0.00000000  -0.00000000  1
  O  O2  1  0.73140565  0.50000000  0.50000000  1
  O  O3  1  0.00864923  0.00000000  0.50000000  1
  O  O4  1  0.48654618  0.00000000  0.50000000  1
  O  O5  1  0.00864923  0.50000000  0.00000000  1
  O  O6  1  0.48654618  0.50000000  -0.00000000  1
loop_
_geom_bond_atom_site_label_1
_geom_bond_atom_site_label_2
_geom_bond_distance
_geom_bond_site_symmetry_2
Na0 O1 2.278650 1_555
Na0 O0 2.290367 1_655
Na0 O5 2.320065 1_645
Na0 O3 2.320065 1_654
Na0 O5 2.320065 1_655
Na0 O3 2.320065 1_655
Mg0 O1 1.984200 1_555
Mg0 O0 2.007915 1_555
Mg0 O6 2.320100 1_545
Mg0 O6 2.320100 1_555
Mg0 O4 2.320100 1_555
Mg0 O4 2.320100 1_554
Mg1 O2 1.913683 1_555
Mg1 O4 2.324955 1_565
Mg1 O6 2.324955 1_556
Mg1 O6 2.324955 1_555
Mg1 O4 2.324955 1_555
Mg2 O4 2.028788 1_555
Mg2 O3 2.062551 1_555
Mg2 O0 2.321128 1_555
Mg2 O0 2.321128 1_556
Mg3 O3 2.194315 1_655
Mg3 O4 2.275478 1_555
Mg3 O2 2.324691 1_555
Mg3 O2 2.324691 1_545
Mg3 O1 2.325339 1_555
Mg3 O1 2.325339 1_556
Mg4 O6 2.028788 1_555
Mg4 O5 2.062551 1_555
Mg4 O0 2.321128 1_555
Mg4 O0 2.321128 1_565
Mg5 O5 2.194315 1_655
Mg5 O6 2.275478 1_555
Mg5 O2 2.324691 1_554
Mg5 O2 2.324691 1_555
Mg5 O1 2.325339 1_555
Mg5 O1 2.325339 1_565
O2 Rb0 2.527561 1_655
O3 Rb0 2.322887 1_555
O3 Rb0 2.322887 1_545
O5 Rb0 2.322887 1_555
O5 Rb0 2.322887 1_554
