# generated using pymatgen
data_Zr5Sn
_symmetry_space_group_name_H-M   'P 1'
_cell_length_a   5.56650188
_cell_length_b   5.56650188
_cell_length_c   5.14705100
_cell_angle_alpha   90.00000000
_cell_angle_beta   90.00000000
_cell_angle_gamma   119.99999854
_symmetry_Int_Tables_number   1
_chemical_formula_structural   Zr5Sn
_chemical_formula_sum   'Zr5 Sn1'
_cell_volume   138.11912847
_cell_formula_units_Z   1
loop_
 _symmetry_equiv_pos_site_id
 _symmetry_equiv_pos_as_xyz
  1  'x, y, z'
loop_
 _atom_site_type_symbol
 _atom_site_label
 _atom_site_symmetry_multiplicity
 _atom_site_fract_x
 _atom_site_fract_y
 _atom_site_fract_z
 _atom_site_occupancy
  Zr  Zr0  1  0.66666700  0.33333300  0.00000000  1
  Zr  Zr1  1  0.33333300  0.66666700  0.00000000  1
  Zr  Zr2  1  0.00000000  0.32306100  0.50000000  1
  Zr  Zr3  1  0.67693900  0.67693900  0.50000000  1
  Zr  Zr4  1  0.32306100  0.00000000  0.50000000  1
  Sn  Sn0  1  0.00000000  0.00000000  0.00000000  1
loop_
_geom_bond_atom_site_label_1
_geom_bond_atom_site_label_2
_geom_bond_distance
_geom_bond_site_symmetry_2
Zr0 Zr2 3.189871 1_655
Zr0 Zr2 3.189871 1_654
Zr0 Zr4 3.189872 1_555
Zr0 Zr4 3.189872 1_554
Zr0 Zr3 3.189874 1_555
Zr0 Zr3 3.189874 1_554
Zr0 Zr1 3.213818 1_545
Zr0 Zr1 3.213818 1_655
Zr0 Zr1 3.213828 1_555
Zr1 Zr4 3.189871 1_565
Zr1 Zr4 3.189871 1_564
Zr1 Zr2 3.189872 1_554
Zr1 Zr2 3.189872 1_555
Zr1 Zr3 3.189874 1_554
Zr1 Zr3 3.189874 1_555
Zr2 Zr4 3.114781 1_555
Zr2 Zr3 3.114781 1_445
Zr2 Zr3 3.264468 1_455
Zr2 Zr4 3.264469 1_565
Zr2 Zr4 3.264469 1_455
Zr2 Zr3 3.264469 1_555
Zr3 Zr4 3.114781 1_665
Zr3 Zr4 3.264468 1_565
Zr3 Zr4 3.264469 1_555
Sn0 Zr2 3.139584 1_554
Sn0 Zr2 3.139584 1_555
Sn0 Zr4 3.139584 1_555
Sn0 Zr4 3.139584 1_554
Sn0 Zr3 3.139584 1_445
Sn0 Zr3 3.139584 1_444
Sn0 Zr0 3.213818 1_455
Sn0 Zr1 3.213818 1_545
Sn0 Zr0 3.213823 1_445
Sn0 Zr0 3.213823 1_555
Sn0 Zr1 3.213823 1_445
Sn0 Zr1 3.213823 1_555
