# generated using pymatgen
data_CdSn3
_symmetry_space_group_name_H-M   'P 1'
_cell_length_a   6.77588185
_cell_length_b   6.77588185
_cell_length_c   5.27683377
_cell_angle_alpha   90.00000000
_cell_angle_beta   90.00000000
_cell_angle_gamma   119.99999693
_symmetry_Int_Tables_number   1
_chemical_formula_structural   CdSn3
_chemical_formula_sum   'Cd2 Sn6'
_cell_volume   209.81460085
_cell_formula_units_Z   2
loop_
 _symmetry_equiv_pos_site_id
 _symmetry_equiv_pos_as_xyz
  1  'x, y, z'
loop_
 _atom_site_type_symbol
 _atom_site_label
 _atom_site_symmetry_multiplicity
 _atom_site_fract_x
 _atom_site_fract_y
 _atom_site_fract_z
 _atom_site_occupancy
  Cd  Cd0  1  0.33333300  0.66666700  0.75000000  1
  Cd  Cd1  1  0.66666700  0.33333300  0.25000000  1
  Sn  Sn0  1  0.16990633  0.33981266  0.25000000  1
  Sn  Sn1  1  0.66018734  0.83009367  0.25000000  1
  Sn  Sn2  1  0.16990633  0.83009367  0.25000000  1
  Sn  Sn3  1  0.83009367  0.66018734  0.75000000  1
  Sn  Sn4  1  0.33981266  0.16990633  0.75000000  1
  Sn  Sn5  1  0.83009367  0.16990633  0.75000000  1
loop_
_geom_bond_atom_site_label_1
_geom_bond_atom_site_label_2
_geom_bond_distance
_geom_bond_site_symmetry_2
Cd0 Sn2 3.261898 1_555
Cd0 Sn2 3.261898 1_556
Cd0 Sn0 3.261902 1_556
Cd0 Sn1 3.261902 1_556
Cd0 Sn0 3.261902 1_555
Cd0 Sn1 3.261902 1_555
Cd0 Sn4 3.388151 1_565
Cd0 Sn3 3.388151 1_455
Cd0 Sn5 3.388154 1_565
Cd0 Sn5 3.388154 1_455
Cd0 Sn3 3.388158 1_555
Cd0 Sn4 3.388158 1_555
Cd1 Sn5 3.261898 1_555
Cd1 Sn5 3.261898 1_554
Cd1 Sn4 3.261902 1_554
Cd1 Sn3 3.261902 1_555
Cd1 Sn4 3.261902 1_555
Cd1 Sn3 3.261902 1_554
Cd1 Sn0 3.388151 1_655
Cd1 Sn1 3.388151 1_545
Cd1 Sn2 3.388154 1_655
Cd1 Sn2 3.388154 1_545
Cd1 Sn0 3.388158 1_555
Cd1 Sn1 3.388158 1_555
Sn0 Sn4 3.307186 1_555
Sn0 Sn4 3.307186 1_554
Sn0 Sn5 3.307186 1_455
Sn0 Sn5 3.307186 1_454
Sn0 Sn2 3.322086 1_555
Sn0 Sn1 3.322086 1_555
Sn0 Sn2 3.453796 1_545
Sn0 Sn1 3.453796 1_445
Sn1 Sn3 3.307186 1_555
Sn1 Sn3 3.307186 1_554
Sn1 Sn5 3.307186 1_565
Sn1 Sn5 3.307186 1_564
Sn1 Sn2 3.322086 1_555
Sn1 Sn2 3.453796 1_655
Sn2 Sn4 3.307186 1_565
Sn2 Sn4 3.307186 1_564
Sn2 Sn3 3.307186 1_455
Sn2 Sn3 3.307186 1_454
Sn3 Sn5 3.322086 1_555
Sn3 Sn4 3.322086 1_555
Sn3 Sn5 3.453796 1_565
Sn3 Sn4 3.453796 1_665
Sn4 Sn5 3.322086 1_555
Sn4 Sn5 3.453796 1_455
