# generated using pymatgen
data_CoGeN2
_symmetry_space_group_name_H-M   'P 1'
_cell_length_a   5.22180100
_cell_length_b   10.71099000
_cell_length_c   12.68486000
_cell_angle_alpha   90.00000000
_cell_angle_beta   90.00000000
_cell_angle_gamma   90.00000000
_symmetry_Int_Tables_number   1
_chemical_formula_structural   CoGeN2
_chemical_formula_sum   'Co16 Ge16 N32'
_cell_volume   709.47257015
_cell_formula_units_Z   16
loop_
 _symmetry_equiv_pos_site_id
 _symmetry_equiv_pos_as_xyz
  1  'x, y, z'
loop_
 _atom_site_type_symbol
 _atom_site_label
 _atom_site_symmetry_multiplicity
 _atom_site_fract_x
 _atom_site_fract_y
 _atom_site_fract_z
 _atom_site_occupancy
  Co  Co0  1  0.63583500  0.95295700  0.44350000  1
  Co  Co1  1  0.13583500  0.54704300  0.55650000  1
  Co  Co2  1  0.36416500  0.45295700  0.05650000  1
  Co  Co3  1  0.86416500  0.04704300  0.94350000  1
  Co  Co4  1  0.36416500  0.04704300  0.55650000  1
  Co  Co5  1  0.86416500  0.45295700  0.44350000  1
  Co  Co6  1  0.63583500  0.54704300  0.94350000  1
  Co  Co7  1  0.13583500  0.95295700  0.05650000  1
  Co  Co8  1  0.81620300  0.30471200  0.30183300  1
  Co  Co9  1  0.31620300  0.19528800  0.69816700  1
  Co  Co10  1  0.18379700  0.80471200  0.19816700  1
  Co  Co11  1  0.68379700  0.69528800  0.80183300  1
  Co  Co12  1  0.18379700  0.69528800  0.69816700  1
  Co  Co13  1  0.68379700  0.80471200  0.30183300  1
  Co  Co14  1  0.81620300  0.19528800  0.80183300  1
  Co  Co15  1  0.31620300  0.30471200  0.19816700  1
  Ge  Ge0  1  0.62297000  0.04301000  0.18444900  1
  Ge  Ge1  1  0.12297000  0.45699000  0.81555100  1
  Ge  Ge2  1  0.37703000  0.54301000  0.31555100  1
  Ge  Ge3  1  0.87703000  0.95699000  0.68444900  1
  Ge  Ge4  1  0.37703000  0.95699000  0.81555100  1
  Ge  Ge5  1  0.87703000  0.54301000  0.18444900  1
  Ge  Ge6  1  0.62297000  0.45699000  0.68444900  1
  Ge  Ge7  1  0.12297000  0.04301000  0.31555100  1
  Ge  Ge8  1  0.81826800  0.29013100  0.06134300  1
  Ge  Ge9  1  0.31826800  0.20986900  0.93865700  1
  Ge  Ge10  1  0.18173200  0.79013100  0.43865700  1
  Ge  Ge11  1  0.68173200  0.70986900  0.56134300  1
  Ge  Ge12  1  0.18173200  0.70986900  0.93865700  1
  Ge  Ge13  1  0.68173200  0.79013100  0.06134300  1
  Ge  Ge14  1  0.81826800  0.20986900  0.56134300  1
  Ge  Ge15  1  0.31826800  0.29013100  0.43865700  1
  N  N0  1  0.71149800  0.48047600  0.30527400  1
  N  N1  1  0.21149800  0.01952400  0.69472600  1
  N  N2  1  0.28850200  0.98047600  0.19472600  1
  N  N3  1  0.78850200  0.51952400  0.80527400  1
  N  N4  1  0.28850200  0.51952400  0.69472600  1
  N  N5  1  0.78850200  0.98047600  0.30527400  1
  N  N6  1  0.71149800  0.01952400  0.80527400  1
  N  N7  1  0.21149800  0.48047600  0.19472600  1
  N  N8  1  0.68048100  0.29050300  0.44143700  1
  N  N9  1  0.18048100  0.20949700  0.55856300  1
  N  N10  1  0.31951900  0.79050300  0.05856300  1
  N  N11  1  0.81951900  0.70949700  0.94143700  1
  N  N12  1  0.31951900  0.70949700  0.55856300  1
  N  N13  1  0.81951900  0.79050300  0.44143700  1
  N  N14  1  0.68048100  0.20949700  0.94143700  1
  N  N15  1  0.18048100  0.29050300  0.05856300  1
  N  N16  1  0.72843000  0.46128700  0.06775300  1
  N  N17  1  0.22843000  0.03871300  0.93224700  1
  N  N18  1  0.27157000  0.96128700  0.43224700  1
  N  N19  1  0.77157000  0.53871300  0.56775300  1
  N  N20  1  0.27157000  0.53871300  0.93224700  1
  N  N21  1  0.77157000  0.96128700  0.06775300  1
  N  N22  1  0.72843000  0.03871300  0.56775300  1
  N  N23  1  0.22843000  0.46128700  0.43224700  1
  N  N24  1  0.65148500  0.21829100  0.18079500  1
  N  N25  1  0.15148500  0.28170900  0.81920500  1
  N  N26  1  0.34851500  0.71829100  0.31920500  1
  N  N27  1  0.84851500  0.78170900  0.68079500  1
  N  N28  1  0.34851500  0.78170900  0.81920500  1
  N  N29  1  0.84851500  0.71829100  0.18079500  1
  N  N30  1  0.65148500  0.28170900  0.68079500  1
  N  N31  1  0.15148500  0.21829100  0.31920500  1
loop_
_geom_bond_atom_site_label_1
_geom_bond_atom_site_label_2
_geom_bond_distance
_geom_bond_site_symmetry_2
Co0 N22 1.887240 1_565
Co0 N18 1.909553 1_555
Co0 N5 1.948521 1_555
Co0 N13 1.987065 1_555
Co1 N23 1.887240 1_555
Co1 N19 1.909553 1_455
Co1 N4 1.948521 1_555
Co1 N12 1.987065 1_555
Co2 N20 1.887240 1_554
Co2 N16 1.909553 1_555
Co2 N7 1.948521 1_555
Co2 N15 1.987065 1_555
Co3 N21 1.887240 1_546
Co3 N17 1.909553 1_655
Co3 N6 1.948521 1_555
Co3 N14 1.987065 1_555
Co4 N18 1.887240 1_545
Co4 N22 1.909553 1_555
Co4 N1 1.948521 1_555
Co4 N9 1.987065 1_555
Co5 N19 1.887240 1_555
Co5 N23 1.909553 1_655
Co5 N0 1.948521 1_555
Co5 N8 1.987065 1_555
Co6 N16 1.887240 1_556
Co6 N20 1.909553 1_555
Co6 N3 1.948521 1_555
Co6 N11 1.987065 1_555
Co7 N17 1.887240 1_564
Co7 N21 1.909553 1_455
Co7 N2 1.948521 1_555
Co7 N10 1.987065 1_555
Co8 N8 1.913471 1_555
Co8 N0 1.960879 1_555
Co8 N24 1.988454 1_555
Co8 N31 1.992639 1_655
Co9 N9 1.913471 1_555
Co9 N1 1.960879 1_555
Co9 N25 1.988454 1_555
Co9 N30 1.992639 1_555
Co10 N10 1.913471 1_555
Co10 N2 1.960879 1_555
Co10 N26 1.988454 1_555
Co10 N29 1.992639 1_455
Co11 N11 1.913471 1_555
Co11 N3 1.960879 1_555
Co11 N27 1.988454 1_555
Co11 N28 1.992639 1_555
Co12 N12 1.913471 1_555
Co12 N4 1.960879 1_555
Co12 N28 1.988454 1_555
Co12 N27 1.992639 1_455
Co13 N13 1.913471 1_555
Co13 N5 1.960879 1_555
Co13 N29 1.988454 1_555
Co13 N26 1.992639 1_555
Co14 N14 1.913471 1_555
Co14 N6 1.960879 1_555
Co14 N30 1.988454 1_555
Co14 N25 1.992639 1_655
Co15 N15 1.913471 1_555
Co15 N7 1.960879 1_555
Co15 N31 1.988454 1_555
Co15 N24 1.992639 1_555
Ge0 N2 1.875094 1_545
Ge0 N5 1.882761 1_545
Ge0 N24 1.883899 1_555
Ge0 N21 1.886672 1_545
Ge1 N3 1.875094 1_455
Ge1 N4 1.882761 1_555
Ge1 N25 1.883899 1_555
Ge1 N20 1.886672 1_555
Ge2 N0 1.875094 1_555
Ge2 N7 1.882761 1_555
Ge2 N26 1.883899 1_555
Ge2 N23 1.886672 1_555
Ge3 N1 1.875094 1_665
Ge3 N6 1.882761 1_565
Ge3 N27 1.883899 1_555
Ge3 N22 1.886672 1_565
Ge4 N6 1.875094 1_565
Ge4 N1 1.882761 1_565
Ge4 N28 1.883899 1_555
Ge4 N17 1.886672 1_565
Ge5 N7 1.875094 1_655
Ge5 N0 1.882761 1_555
Ge5 N29 1.883899 1_555
Ge5 N16 1.886672 1_555
Ge6 N4 1.875094 1_555
Ge6 N3 1.882761 1_555
Ge6 N30 1.883899 1_555
Ge6 N19 1.886672 1_555
Ge7 N5 1.875094 1_445
Ge7 N2 1.882761 1_545
Ge7 N31 1.883899 1_555
Ge7 N18 1.886672 1_545
Ge8 N14 1.891300 1_554
Ge8 N15 1.891737 1_655
Ge8 N16 1.894066 1_555
Ge8 N24 1.909582 1_555
Ge9 N15 1.891300 1_556
Ge9 N14 1.891737 1_555
Ge9 N17 1.894066 1_555
Ge9 N25 1.909582 1_555
Ge10 N12 1.891300 1_555
Ge10 N13 1.891737 1_455
Ge10 N18 1.894066 1_555
Ge10 N26 1.909582 1_555
Ge11 N13 1.891300 1_555
Ge11 N12 1.891737 1_555
Ge11 N19 1.894066 1_555
Ge11 N27 1.909582 1_555
Ge12 N10 1.891300 1_556
Ge12 N11 1.891737 1_455
Ge12 N20 1.894066 1_555
Ge12 N28 1.909582 1_555
Ge13 N11 1.891300 1_554
Ge13 N10 1.891737 1_555
Ge13 N21 1.894066 1_555
Ge13 N29 1.909582 1_555
Ge14 N8 1.891300 1_555
Ge14 N9 1.891737 1_655
Ge14 N22 1.894066 1_555
Ge14 N30 1.909582 1_555
Ge15 N9 1.891300 1_555
Ge15 N8 1.891737 1_555
Ge15 N23 1.894066 1_555
Ge15 N31 1.909582 1_555
