# generated using pymatgen
data_MgSn
_symmetry_space_group_name_H-M   'P 1'
_cell_length_a   6.83707035
_cell_length_b   6.83707035
_cell_length_c   7.08107477
_cell_angle_alpha   74.70180336
_cell_angle_beta   74.70180336
_cell_angle_gamma   27.82035652
_symmetry_Int_Tables_number   1
_chemical_formula_structural   MgSn
_chemical_formula_sum   'Mg3 Sn3'
_cell_volume   148.66573294
_cell_formula_units_Z   3
loop_
 _symmetry_equiv_pos_site_id
 _symmetry_equiv_pos_as_xyz
  1  'x, y, z'
loop_
 _atom_site_type_symbol
 _atom_site_label
 _atom_site_symmetry_multiplicity
 _atom_site_fract_x
 _atom_site_fract_y
 _atom_site_fract_z
 _atom_site_occupancy
  Mg  Mg0  1  0.61358200  0.61358200  0.27901400  1
  Mg  Mg1  1  0.32799300  0.32799300  0.33565600  1
  Mg  Mg2  1  0.27804100  0.27804100  0.93695600  1
  Sn  Sn0  1  0.99420400  0.99420400  0.01701800  1
  Sn  Sn1  1  0.94387200  0.94387200  0.60112900  1
  Sn  Sn2  1  0.67564100  0.67564100  0.66356000  1
loop_
_geom_bond_atom_site_label_1
_geom_bond_atom_site_label_2
_geom_bond_distance
_geom_bond_site_symmetry_2
Mg0 Sn2 3.051652 1_555
Mg0 Sn1 3.191414 1_455
Mg0 Sn1 3.191414 1_545
Mg0 Sn0 3.201893 1_455
Mg0 Sn0 3.201893 1_545
Mg1 Sn2 3.103150 1_455
Mg1 Sn2 3.103150 1_545
Mg1 Sn0 3.154910 1_545
Mg1 Sn0 3.154910 1_455
Mg1 Sn1 3.189483 1_455
Mg1 Sn1 3.189483 1_545
Mg2 Sn2 3.118839 1_545
Mg2 Sn2 3.118839 1_455
Mg2 Sn1 3.218049 1_545
Mg2 Sn1 3.218049 1_455
