# generated using pymatgen
data_Na6MoN4
_symmetry_space_group_name_H-M   'P 1'
_cell_length_a   7.52183300
_cell_length_b   7.52183300
_cell_length_c   5.81595500
_cell_angle_alpha   90.00000000
_cell_angle_beta   90.00000000
_cell_angle_gamma   90.00000000
_symmetry_Int_Tables_number   1
_chemical_formula_structural   Na6MoN4
_chemical_formula_sum   'Na12 Mo2 N8'
_cell_volume   329.05493728
_cell_formula_units_Z   2
loop_
 _symmetry_equiv_pos_site_id
 _symmetry_equiv_pos_as_xyz
  1  'x, y, z'
loop_
 _atom_site_type_symbol
 _atom_site_label
 _atom_site_symmetry_multiplicity
 _atom_site_fract_x
 _atom_site_fract_y
 _atom_site_fract_z
 _atom_site_occupancy
  Na  Na0  1  0.50000000  0.00000000  0.63741700  1
  Na  Na1  1  0.00000000  0.50000000  0.86258300  1
  Na  Na2  1  0.00000000  0.50000000  0.36258300  1
  Na  Na3  1  0.50000000  0.00000000  0.13741700  1
  Na  Na4  1  0.20639300  0.20639300  0.50000000  1
  Na  Na5  1  0.79360700  0.79360700  0.50000000  1
  Na  Na6  1  0.70639300  0.70639300  0.00000000  1
  Na  Na7  1  0.29360700  0.29360700  0.00000000  1
  Na  Na8  1  0.20639300  0.79360700  0.50000000  1
  Na  Na9  1  0.79360700  0.20639300  0.50000000  1
  Na  Na10  1  0.70639300  0.29360700  0.00000000  1
  Na  Na11  1  0.29360700  0.70639300  0.00000000  1
  Mo  Mo0  1  0.50000000  0.50000000  0.50000000  1
  Mo  Mo1  1  0.00000000  0.00000000  0.00000000  1
  N  N0  1  0.50000000  0.28461700  0.32482800  1
  N  N1  1  0.50000000  0.71538300  0.32482800  1
  N  N2  1  0.00000000  0.78461700  0.17517200  1
  N  N3  1  0.00000000  0.21538300  0.17517200  1
  N  N4  1  0.28461700  0.50000000  0.67517200  1
  N  N5  1  0.71538300  0.50000000  0.67517200  1
  N  N6  1  0.78461700  0.00000000  0.82482800  1
  N  N7  1  0.21538300  0.00000000  0.82482800  1
loop_
_geom_bond_atom_site_label_1
_geom_bond_atom_site_label_2
_geom_bond_distance
_geom_bond_site_symmetry_2
Mo0 N4 1.913787 1_555
Mo0 N1 1.913787 1_555
Mo0 N0 1.913787 1_555
Mo0 N5 1.913787 1_555
Mo1 N3 1.913787 1_555
Mo1 N7 1.913787 1_554
Mo1 N6 1.913787 1_454
Mo1 N2 1.913787 1_545
N0 Na3 2.402342 1_555
N0 Na10 2.446161 1_555
N0 Na7 2.446161 1_555
N0 Na9 2.502288 1_555
N0 Na4 2.502288 1_555
N0 Na0 2.808619 1_555
N1 Na3 2.402342 1_565
N1 Na11 2.446161 1_555
N1 Na6 2.446161 1_555
N1 Na5 2.502288 1_555
N1 Na8 2.502288 1_555
N1 Na0 2.808619 1_565
N2 Na2 2.402342 1_555
N2 Na8 2.446161 1_555
N2 Na5 2.446161 1_455
N2 Na6 2.502288 1_455
N2 Na11 2.502288 1_555
N2 Na1 2.808619 1_554
N3 Na2 2.402342 1_555
N3 Na4 2.446161 1_555
N3 Na9 2.446161 1_455
N3 Na10 2.502288 1_455
N3 Na7 2.502288 1_555
N3 Na1 2.808619 1_554
N4 Na1 2.402342 1_555
N4 Na7 2.446161 1_556
N4 Na11 2.446161 1_556
N4 Na8 2.502288 1_555
N4 Na4 2.502288 1_555
N4 Na2 2.808619 1_555
N5 Na1 2.402342 1_655
N5 Na6 2.446161 1_556
N5 Na10 2.446161 1_556
N5 Na5 2.502288 1_555
N5 Na9 2.502288 1_555
N5 Na2 2.808619 1_655
N6 Na0 2.402342 1_555
N6 Na5 2.446161 1_545
N6 Na9 2.446161 1_555
N6 Na6 2.502288 1_546
N6 Na10 2.502288 1_556
N6 Na3 2.808619 1_556
N7 Na0 2.402342 1_555
N7 Na8 2.446161 1_545
N7 Na4 2.446161 1_555
N7 Na11 2.502288 1_546
N7 Na7 2.502288 1_556
N7 Na3 2.808619 1_556
