# generated using pymatgen
data_BaSrPrHfO6
_symmetry_space_group_name_H-M   'P 1'
_cell_length_a   8.68998186
_cell_length_b   8.74069510
_cell_length_c   8.67802383
_cell_angle_alpha   90.00000000
_cell_angle_beta   90.00000000
_cell_angle_gamma   90.00000000
_symmetry_Int_Tables_number   1
_chemical_formula_structural   BaSrPrHfO6
_chemical_formula_sum   'Ba4 Sr4 Pr4 Hf4 O24'
_cell_volume   659.15215965
_cell_formula_units_Z   4
loop_
 _symmetry_equiv_pos_site_id
 _symmetry_equiv_pos_as_xyz
  1  'x, y, z'
loop_
 _atom_site_type_symbol
 _atom_site_label
 _atom_site_symmetry_multiplicity
 _atom_site_fract_x
 _atom_site_fract_y
 _atom_site_fract_z
 _atom_site_occupancy
  Ba  Ba0  1  -0.00000000  -0.00000000  0.00000000  1
  Ba  Ba1  1  0.50000000  0.50000000  0.50000000  1
  Ba  Ba2  1  0.50000000  0.50000000  -0.00000000  1
  Ba  Ba3  1  0.50000000  0.00000000  -0.00000000  1
  Sr  Sr0  1  -0.00000000  0.50000000  0.50000000  1
  Sr  Sr1  1  0.50000000  0.00000000  0.50000000  1
  Sr  Sr2  1  -0.00000000  0.50000000  0.00000000  1
  Sr  Sr3  1  -0.00000000  0.00000000  0.50000000  1
  Pr  Pr0  1  0.24671114  0.25146743  0.25262526  1
  Pr  Pr1  1  0.75328886  0.74853257  0.25262526  1
  Pr  Pr2  1  0.75328886  0.25146743  0.74737474  1
  Pr  Pr3  1  0.24671114  0.74853257  0.74737474  1
  Hf  Hf0  1  0.75522647  0.74767759  0.74695296  1
  Hf  Hf1  1  0.24477353  0.25232241  0.74695296  1
  Hf  Hf2  1  0.24477353  0.74767759  0.25304704  1
  Hf  Hf3  1  0.75522647  0.25232241  0.25304704  1
  O  O0  1  0.98457385  0.20256241  0.29413288  1
  O  O1  1  0.01542615  0.79743759  0.29413288  1
  O  O2  1  0.01542615  0.20256241  0.70586712  1
  O  O3  1  0.98457385  0.79743759  0.70586712  1
  O  O4  1  0.27835247  0.98345544  0.21336892  1
  O  O5  1  0.27835247  0.01654456  0.78663108  1
  O  O6  1  0.72164753  0.01654456  0.21336892  1
  O  O7  1  0.72164753  0.98345544  0.78663108  1
  O  O8  1  0.20583139  0.28788727  0.98355052  1
  O  O9  1  0.79416861  0.28788727  0.01644948  1
  O  O10  1  0.20583139  0.71211273  0.01644948  1
  O  O11  1  0.79416861  0.71211273  0.98355052  1
  O  O12  1  0.51715878  0.28528056  0.22077556  1
  O  O13  1  0.48284122  0.71471944  0.22077556  1
  O  O14  1  0.48284122  0.28528056  0.77922444  1
  O  O15  1  0.51715878  0.71471944  0.77922444  1
  O  O16  1  0.20833390  0.51653057  0.29675795  1
  O  O17  1  0.20833390  0.48346943  0.70324205  1
  O  O18  1  0.79166610  0.48346943  0.29675795  1
  O  O19  1  0.79166610  0.51653057  0.70324205  1
  O  O20  1  0.29654654  0.21005485  0.51569502  1
  O  O21  1  0.70345346  0.21005485  0.48430498  1
  O  O22  1  0.29654654  0.78994515  0.48430498  1
  O  O23  1  0.70345346  0.78994515  0.51569502  1
loop_
_geom_bond_atom_site_label_1
_geom_bond_atom_site_label_2
_geom_bond_distance
_geom_bond_site_symmetry_2
Ba0 O7 3.049653 1_444
Ba0 O5 3.049653 1_554
Ba0 O6 3.049653 1_455
Ba0 O4 3.049653 1_545
Ba0 O11 3.090576 1_444
Ba0 O9 3.090576 1_455
Ba0 O10 3.090576 1_545
Ba0 O8 3.090576 1_554
Ba0 O2 3.109338 1_554
Ba0 O1 3.109338 1_545
Ba0 O0 3.109338 1_455
Ba0 O3 3.109338 1_444
Ba1 O15 3.068565 1_555
Ba1 O14 3.068565 1_555
Ba1 O12 3.068565 1_555
Ba1 O13 3.068565 1_555
Ba1 O18 3.091232 1_555
Ba1 O19 3.091232 1_555
Ba1 O16 3.091232 1_555
Ba1 O17 3.091232 1_555
Ba1 O23 3.093087 1_555
Ba1 O21 3.093087 1_555
Ba1 O22 3.093087 1_555
Ba1 O20 3.093087 1_555
Ba2 O13 2.686123 1_555
Ba2 O14 2.686123 1_554
Ba2 O15 2.686123 1_554
Ba2 O12 2.686123 1_555
Ba2 O9 3.161093 1_555
Ba2 O10 3.161093 1_555
Ba2 O11 3.161093 1_554
Ba2 O8 3.161093 1_554
Ba3 O5 2.675691 1_554
Ba3 O7 2.675691 1_544
Ba3 O6 2.675691 1_555
Ba3 O4 2.675691 1_545
Ba3 O13 3.148124 1_545
Ba3 O12 3.148124 1_555
Ba3 O15 3.148124 1_544
Ba3 O14 3.148124 1_554
Hf0 O3 2.070855 1_555
Hf0 O19 2.079932 1_555
Hf0 O23 2.089594 1_555
Hf0 O11 2.103992 1_555
Hf0 O15 2.107455 1_555
Hf0 O7 2.109707 1_555
Hf1 O2 2.070855 1_555
Hf1 O17 2.079932 1_555
Hf1 O20 2.089594 1_555
Hf1 O8 2.103992 1_555
Hf1 O14 2.107455 1_555
Hf1 O5 2.109707 1_555
Hf2 O1 2.070855 1_555
Hf2 O16 2.079932 1_555
Hf2 O22 2.089594 1_555
Hf2 O10 2.103992 1_555
Hf2 O13 2.107455 1_555
Hf2 O4 2.109707 1_555
Hf3 O0 2.070855 1_555
Hf3 O18 2.079932 1_555
Hf3 O21 2.089594 1_555
Hf3 O9 2.103992 1_555
Hf3 O12 2.107455 1_555
Hf3 O6 2.109707 1_555
O0 Pr0 2.345552 1_655
O0 Sr3 2.518814 1_655
O1 Pr1 2.345552 1_455
O1 Sr3 2.518814 1_565
O2 Pr2 2.345552 1_455
O2 Sr3 2.518814 1_555
O3 Pr3 2.345552 1_655
O3 Sr3 2.518814 1_665
O4 Pr0 2.383167 1_565
O4 Sr1 3.149276 1_565
O5 Pr3 2.383167 1_545
O5 Sr1 3.149276 1_555
O6 Pr1 2.383167 1_545
O6 Sr1 3.149276 1_555
O7 Pr2 2.383167 1_565
O7 Sr1 3.149276 1_565
O8 Pr0 2.383261 1_556
O8 Sr2 2.580133 1_556
O9 Pr2 2.383261 1_554
O9 Sr2 2.580133 1_655
O10 Pr3 2.383261 1_554
O10 Sr2 2.580133 1_555
O11 Pr1 2.383261 1_556
O11 Sr2 2.580133 1_656
O12 Pr0 2.384767 1_555
O13 Pr1 2.384767 1_555
O14 Pr2 2.384767 1_555
O15 Pr3 2.384767 1_555
O16 Pr0 2.371840 1_555
O16 Sr0 2.531653 1_555
O16 Sr2 3.151273 1_555
O17 Pr3 2.371840 1_555
O17 Sr0 2.531653 1_555
O17 Sr2 3.151273 1_556
O18 Pr1 2.371840 1_555
O18 Sr0 2.531653 1_655
O18 Sr2 3.151273 1_655
O19 Pr2 2.371840 1_555
O19 Sr0 2.531653 1_655
O19 Sr2 3.151273 1_656
O20 Pr0 2.351664 1_555
O20 Sr1 2.552526 1_555
O21 Pr2 2.351664 1_555
O21 Sr1 2.552526 1_555
O22 Pr3 2.351664 1_555
O22 Sr1 2.552526 1_565
O23 Pr1 2.351664 1_555
O23 Sr1 2.552526 1_565
