# generated using pymatgen
data_Sm10S19
_symmetry_space_group_name_H-M   'P 1'
_cell_length_a   8.82033297
_cell_length_b   8.82033297
_cell_length_c   15.98634433
_cell_angle_alpha   90.00000000
_cell_angle_beta   90.00000000
_cell_angle_gamma   90.00000000
_symmetry_Int_Tables_number   1
_chemical_formula_structural   Sm10S19
_chemical_formula_sum   'Sm20 S38'
_cell_volume   1243.70999243
_cell_formula_units_Z   2
loop_
 _symmetry_equiv_pos_site_id
 _symmetry_equiv_pos_as_xyz
  1  'x, y, z'
loop_
 _atom_site_type_symbol
 _atom_site_label
 _atom_site_symmetry_multiplicity
 _atom_site_fract_x
 _atom_site_fract_y
 _atom_site_fract_z
 _atom_site_occupancy
  Sm  Sm0  1  0.05538767  0.35463299  0.10326996  1
  Sm  Sm1  1  0.64536701  0.55538767  0.60326996  1
  Sm  Sm2  1  0.85463299  0.94461233  0.60326996  1
  Sm  Sm3  1  0.44461233  0.14536701  0.10326996  1
  Sm  Sm4  1  0.94461233  0.64536701  0.89673004  1
  Sm  Sm5  1  0.35463299  0.44461233  0.39673004  1
  Sm  Sm6  1  0.14536701  0.05538767  0.39673004  1
  Sm  Sm7  1  0.55538767  0.85463299  0.89673004  1
  Sm  Sm8  1  0.04073492  0.34815220  0.62228871  1
  Sm  Sm9  1  0.65184780  0.54073492  0.12228871  1
  Sm  Sm10  1  0.84815220  0.95926508  0.12228871  1
  Sm  Sm11  1  0.45926508  0.15184780  0.62228871  1
  Sm  Sm12  1  0.95926508  0.65184780  0.37771129  1
  Sm  Sm13  1  0.34815220  0.45926508  0.87771129  1
  Sm  Sm14  1  0.15184780  0.04073492  0.87771129  1
  Sm  Sm15  1  0.54073492  0.84815220  0.37771129  1
  Sm  Sm16  1  0.75000000  0.25000000  0.38530343  1
  Sm  Sm17  1  0.75000000  0.25000000  0.88530343  1
  Sm  Sm18  1  0.25000000  0.75000000  0.61469657  1
  Sm  Sm19  1  0.25000000  0.75000000  0.11469657  1
  S  S0  1  0.75000000  0.75000000  0.25000000  1
  S  S1  1  0.25000000  0.25000000  0.75000000  1
  S  S2  1  0.80384129  0.47054926  0.75078033  1
  S  S3  1  0.52945074  0.30384129  0.25078033  1
  S  S4  1  0.97054926  0.19615871  0.25078033  1
  S  S5  1  0.69615871  0.02945074  0.75078033  1
  S  S6  1  0.19615871  0.52945074  0.24921967  1
  S  S7  1  0.47054926  0.69615871  0.74921967  1
  S  S8  1  0.02945074  0.80384129  0.74921967  1
  S  S9  1  0.30384129  0.97054926  0.24921967  1
  S  S10  1  0.88724187  0.42438700  0.25012531  1
  S  S11  1  0.57561300  0.38724187  0.75012531  1
  S  S12  1  0.92438700  0.11275813  0.75012531  1
  S  S13  1  0.61275813  0.07561300  0.25012531  1
  S  S14  1  0.11275813  0.57561300  0.74987469  1
  S  S15  1  0.42438700  0.61275813  0.24987469  1
  S  S16  1  0.07561300  0.88724187  0.24987469  1
  S  S17  1  0.38724187  0.92438700  0.74987469  1
  S  S18  1  0.25000000  0.75000000  0.43457746  1
  S  S19  1  0.25000000  0.75000000  0.93457746  1
  S  S20  1  0.55336983  0.85156980  0.56197529  1
  S  S21  1  0.14843020  0.05336983  0.06197529  1
  S  S22  1  0.35156980  0.44663017  0.06197529  1
  S  S23  1  0.94663017  0.64843020  0.56197529  1
  S  S24  1  0.44663017  0.14843020  0.43802471  1
  S  S25  1  0.85156980  0.94663017  0.93802471  1
  S  S26  1  0.64843020  0.55336983  0.93802471  1
  S  S27  1  0.05336983  0.35156980  0.43802471  1
  S  S28  1  0.54856646  0.84814938  0.07300731  1
  S  S29  1  0.15185062  0.04856646  0.57300731  1
  S  S30  1  0.34814938  0.45143354  0.57300731  1
  S  S31  1  0.95143354  0.65185062  0.07300731  1
  S  S32  1  0.45143354  0.15185062  0.92699269  1
  S  S33  1  0.84814938  0.95143354  0.42699269  1
  S  S34  1  0.65185062  0.54856646  0.42699269  1
  S  S35  1  0.04856646  0.34814938  0.92699269  1
  S  S36  1  0.75000000  0.25000000  0.06542254  1
  S  S37  1  0.75000000  0.25000000  0.56542254  1
loop_
_geom_bond_atom_site_label_1
_geom_bond_atom_site_label_2
_geom_bond_distance
_geom_bond_site_symmetry_2
S0 Sm10 2.885257 1_555
S0 Sm15 2.885257 1_555
S0 Sm9 2.885257 1_555
S0 Sm12 2.885257 1_555
S1 Sm8 2.885257 1_555
S1 Sm13 2.885257 1_555
S1 Sm11 2.885257 1_555
S1 Sm14 2.885257 1_555
S2 Sm1 2.841596 1_555
S2 Sm17 2.938466 1_555
S2 Sm4 3.059924 1_555
S2 Sm8 3.122627 1_655
S3 Sm3 2.841596 1_555
S3 Sm16 2.938466 1_555
S3 Sm5 3.059924 1_555
S3 Sm9 3.122627 1_555
S4 Sm0 2.841596 1_655
S4 Sm16 2.938466 1_555
S4 Sm6 3.059924 1_655
S4 Sm10 3.122627 1_545
S5 Sm2 2.841596 1_545
S5 Sm17 2.938466 1_555
S5 Sm7 3.059924 1_545
S5 Sm11 3.122627 1_555
S6 Sm5 2.841596 1_555
S6 Sm19 2.938466 1_555
S6 Sm0 3.059924 1_555
S6 Sm12 3.122627 1_455
S7 Sm7 2.841596 1_555
S7 Sm18 2.938466 1_555
S7 Sm1 3.059924 1_555
S7 Sm13 3.122627 1_555
S8 Sm4 2.841596 1_455
S8 Sm18 2.938466 1_555
S8 Sm2 3.059924 1_455
S8 Sm14 3.122627 1_565
S9 Sm6 2.841596 1_565
S9 Sm19 2.938466 1_555
S9 Sm3 3.059924 1_565
S9 Sm15 3.122627 1_555
S10 S4 2.142990 1_555
S10 Sm0 2.844245 1_655
S10 Sm16 2.915682 1_555
S10 Sm12 2.930671 1_555
S10 Sm9 3.088760 1_555
S11 S2 2.142990 1_555
S11 Sm1 2.844245 1_555
S11 Sm17 2.915682 1_555
S11 Sm13 2.930671 1_555
S11 Sm11 3.088760 1_555
S12 S5 2.142990 1_555
S12 Sm2 2.844245 1_545
S12 Sm17 2.915682 1_555
S12 Sm14 2.930671 1_655
S12 Sm8 3.088760 1_655
S13 S3 2.142990 1_555
S13 Sm3 2.844245 1_555
S13 Sm16 2.915682 1_555
S13 Sm15 2.930671 1_545
S13 Sm10 3.088760 1_545
S14 S8 2.142990 1_555
S14 Sm4 2.844245 1_455
S14 Sm18 2.915682 1_555
S14 Sm8 2.930671 1_555
S14 Sm13 3.088760 1_555
S15 S6 2.142990 1_555
S15 Sm5 2.844245 1_555
S15 Sm19 2.915682 1_555
S15 Sm9 2.930671 1_555
S15 Sm15 3.088760 1_555
S16 S9 2.142990 1_555
S16 Sm6 2.844245 1_565
S16 Sm19 2.915682 1_555
S16 Sm10 2.930671 1_455
S16 Sm12 3.088760 1_455
S17 S7 2.142990 1_555
S17 Sm7 2.844245 1_555
S17 Sm18 2.915682 1_555
S17 Sm11 2.930671 1_565
S17 Sm14 3.088760 1_565
S18 Sm15 2.855165 1_555
S18 Sm12 2.855165 1_455
S18 Sm18 2.879446 1_555
S18 Sm5 2.910912 1_555
S18 Sm6 2.910912 1_565
S19 Sm13 2.855165 1_555
S19 Sm14 2.855165 1_565
S19 Sm19 2.879446 1_556
S19 Sm4 2.910912 1_455
S19 Sm7 2.910912 1_555
S20 Sm1 2.814073 1_555
S20 Sm2 2.858360 1_555
S20 Sm11 2.938273 1_565
S20 Sm18 2.944991 1_555
S20 Sm15 2.947969 1_555
S21 Sm3 2.814073 1_555
S21 Sm0 2.858360 1_555
S21 Sm10 2.938273 1_445
S21 Sm19 2.944991 1_545
S21 Sm14 2.947969 1_554
S22 Sm0 2.814073 1_555
S22 Sm3 2.858360 1_555
S22 Sm9 2.938273 1_555
S22 Sm19 2.944991 1_555
S22 Sm13 2.947969 1_554
S23 Sm2 2.814073 1_555
S23 Sm1 2.858360 1_555
S23 Sm8 2.938273 1_655
S23 Sm18 2.944991 1_655
S23 Sm12 2.947969 1_555
S24 Sm5 2.814073 1_555
S24 Sm6 2.858360 1_555
S24 Sm15 2.938273 1_545
S24 Sm16 2.944991 1_555
S24 Sm11 2.947969 1_555
S25 Sm7 2.814073 1_555
S25 Sm4 2.858360 1_555
S25 Sm14 2.938273 1_665
S25 Sm17 2.944991 1_565
S25 Sm10 2.947969 1_556
S26 Sm4 2.814073 1_555
S26 Sm7 2.858360 1_555
S26 Sm13 2.938273 1_555
S26 Sm17 2.944991 1_555
S26 Sm9 2.947969 1_556
S27 Sm6 2.814073 1_555
S27 Sm5 2.858360 1_555
S27 Sm12 2.938273 1_455
S27 Sm16 2.944991 1_455
S27 Sm8 2.947969 1_555
S28 Sm3 2.819104 1_565
S28 Sm7 2.819251 1_554
S28 Sm19 2.851089 1_555
S28 Sm10 2.926388 1_555
S28 Sm9 2.966947 1_555
S29 Sm2 2.819104 1_445
S29 Sm6 2.819251 1_555
S29 Sm18 2.851089 1_545
S29 Sm8 2.926388 1_555
S29 Sm11 2.966947 1_555
S30 Sm1 2.819104 1_555
S30 Sm5 2.819251 1_555
S30 Sm18 2.851089 1_555
S30 Sm11 2.926388 1_555
S30 Sm8 2.966947 1_555
S31 Sm0 2.819104 1_655
S31 Sm4 2.819251 1_554
S31 Sm19 2.851089 1_655
S31 Sm9 2.926388 1_555
S31 Sm10 2.966947 1_555
S32 Sm7 2.819104 1_545
S32 Sm3 2.819251 1_556
S32 Sm17 2.851089 1_555
S32 Sm14 2.926388 1_555
S32 Sm13 2.966947 1_555
S33 Sm6 2.819104 1_665
S33 Sm2 2.819251 1_555
S33 Sm16 2.851089 1_565
S33 Sm12 2.926388 1_555
S33 Sm15 2.966947 1_555
S34 Sm5 2.819104 1_555
S34 Sm1 2.819251 1_555
S34 Sm16 2.851089 1_555
S34 Sm15 2.926388 1_555
S34 Sm12 2.966947 1_555
S35 Sm4 2.819104 1_455
S35 Sm0 2.819251 1_556
S35 Sm17 2.851089 1_455
S35 Sm13 2.926388 1_555
S35 Sm14 2.966947 1_555
S36 Sm10 2.855165 1_545
S36 Sm9 2.855165 1_555
S36 Sm17 2.879446 1_554
S36 Sm0 2.910912 1_655
S36 Sm3 2.910912 1_555
S37 Sm8 2.855165 1_655
S37 Sm11 2.855165 1_555
S37 Sm16 2.879446 1_555
S37 Sm1 2.910912 1_555
S37 Sm2 2.910912 1_545
