# generated using pymatgen
data_PrGePd
_symmetry_space_group_name_H-M   'P 1'
_cell_length_a   5.74899638
_cell_length_b   5.74899638
_cell_length_c   7.48767331
_cell_angle_alpha   51.25551783
_cell_angle_beta   51.25551783
_cell_angle_gamma   46.39239668
_symmetry_Int_Tables_number   1
_chemical_formula_structural   PrGePd
_chemical_formula_sum   'Pr2 Ge2 Pd2'
_cell_volume   131.23729340
_cell_formula_units_Z   2
loop_
 _symmetry_equiv_pos_site_id
 _symmetry_equiv_pos_as_xyz
  1  'x, y, z'
loop_
 _atom_site_type_symbol
 _atom_site_label
 _atom_site_symmetry_multiplicity
 _atom_site_fract_x
 _atom_site_fract_y
 _atom_site_fract_z
 _atom_site_occupancy
  Pr  Pr0  1  0.53740300  0.53740300  0.70188600  1
  Pr  Pr1  1  0.46259700  0.46259700  0.29811400  1
  Ge  Ge0  1  0.83960500  0.83960500  0.10857900  1
  Ge  Ge1  1  0.16039500  0.16039500  0.89142100  1
  Pd  Pd0  1  0.18307900  0.18307900  0.27355800  1
  Pd  Pd1  1  0.81692100  0.81692100  0.72644200  1
loop_
_geom_bond_atom_site_label_1
_geom_bond_atom_site_label_2
_geom_bond_distance
_geom_bond_site_symmetry_2
Ge0 Pd0 2.570469 1_655
Ge0 Pd0 2.570469 1_565
Ge0 Ge1 2.575050 1_664
Ge0 Pd1 3.029643 1_554
Ge0 Pr0 3.178347 1_564
Ge0 Pr0 3.178347 1_654
Ge0 Pr1 3.192069 1_555
Ge0 Pr0 3.257998 1_555
Ge0 Pr1 3.367987 1_655
Ge0 Pr1 3.367987 1_565
Ge1 Pd1 2.570469 1_545
Ge1 Pd1 2.570469 1_455
Ge1 Pd0 3.029643 1_556
Ge1 Pr1 3.178347 1_456
Ge1 Pr1 3.178347 1_546
Ge1 Pr0 3.192069 1_555
Ge1 Pr1 3.257998 1_555
Ge1 Pr0 3.367987 1_455
Ge1 Pr0 3.367987 1_545
Pd0 Pd1 2.933287 1_445
Pd0 Pr1 3.082226 1_555
Pd0 Pr1 3.163485 1_545
Pd0 Pr1 3.163485 1_455
Pd0 Pr0 3.243016 1_554
Pd0 Pr0 3.325632 1_545
Pd0 Pr0 3.325632 1_455
Pd1 Pr0 3.082226 1_555
Pd1 Pr0 3.163485 1_565
Pd1 Pr0 3.163485 1_655
Pd1 Pr1 3.243016 1_556
Pd1 Pr1 3.325632 1_655
Pd1 Pr1 3.325632 1_565
