# generated using pymatgen
data_NiH9C4(NO2)3
_symmetry_space_group_name_H-M   'P 1'
_cell_length_a   8.47882800
_cell_length_b   8.93028100
_cell_length_c   11.86015600
_cell_angle_alpha   90.00000000
_cell_angle_beta   90.00000000
_cell_angle_gamma   90.00000000
_symmetry_Int_Tables_number   1
_chemical_formula_structural   NiH9C4(NO2)3
_chemical_formula_sum   'Ni4 H36 C16 N12 O24'
_cell_volume   898.03104682
_cell_formula_units_Z   4
loop_
 _symmetry_equiv_pos_site_id
 _symmetry_equiv_pos_as_xyz
  1  'x, y, z'
loop_
 _atom_site_type_symbol
 _atom_site_label
 _atom_site_symmetry_multiplicity
 _atom_site_fract_x
 _atom_site_fract_y
 _atom_site_fract_z
 _atom_site_occupancy
  Ni  Ni0  1  0.24824200  0.25000000  0.75000000  1
  Ni  Ni1  1  0.25175800  0.25000000  0.25000000  1
  Ni  Ni2  1  0.75175800  0.75000000  0.25000000  1
  Ni  Ni3  1  0.74824200  0.75000000  0.75000000  1
  H  H0  1  0.25000000  0.32630900  0.00000000  1
  H  H1  1  0.25000000  0.17369100  0.50000000  1
  H  H2  1  0.75000000  0.67369100  0.00000000  1
  H  H3  1  0.75000000  0.82630900  0.50000000  1
  H  H4  1  0.90886600  0.07071100  0.79064500  1
  H  H5  1  0.59113400  0.07071100  0.20935500  1
  H  H6  1  0.90886600  0.42928900  0.70935500  1
  H  H7  1  0.59113400  0.42928900  0.29064500  1
  H  H8  1  0.09113400  0.92928900  0.20935500  1
  H  H9  1  0.40886600  0.92928900  0.79064500  1
  H  H10  1  0.09113400  0.57071100  0.29064500  1
  H  H11  1  0.40886600  0.57071100  0.70935500  1
  H  H12  1  0.08264300  0.75941700  0.87705300  1
  H  H13  1  0.41735700  0.75941700  0.12294700  1
  H  H14  1  0.08264300  0.74058300  0.62294700  1
  H  H15  1  0.41735700  0.74058300  0.37705300  1
  H  H16  1  0.91735700  0.24058300  0.12294700  1
  H  H17  1  0.58264300  0.24058300  0.87705300  1
  H  H18  1  0.91735700  0.25941700  0.37705300  1
  H  H19  1  0.58264300  0.25941700  0.62294700  1
  H  H20  1  0.16586000  0.93260000  0.92396900  1
  H  H21  1  0.33414000  0.93260000  0.07603100  1
  H  H22  1  0.16586000  0.56740000  0.57603100  1
  H  H23  1  0.33414000  0.56740000  0.42396900  1
  H  H24  1  0.83414000  0.06740000  0.07603100  1
  H  H25  1  0.66586000  0.06740000  0.92396900  1
  H  H26  1  0.83414000  0.43260000  0.42396900  1
  H  H27  1  0.66586000  0.43260000  0.57603100  1
  H  H28  1  0.31589300  0.53724400  0.05822700  1
  H  H29  1  0.18410700  0.53724400  0.94177300  1
  H  H30  1  0.31589300  0.96275600  0.44177300  1
  H  H31  1  0.18410700  0.96275600  0.55822700  1
  H  H32  1  0.68410700  0.46275600  0.94177300  1
  H  H33  1  0.81589300  0.46275600  0.05822700  1
  H  H34  1  0.68410700  0.03724400  0.55822700  1
  H  H35  1  0.81589300  0.03724400  0.44177300  1
  C  C0  1  0.25000000  0.20320700  0.00000000  1
  C  C1  1  0.25000000  0.29679300  0.50000000  1
  C  C2  1  0.75000000  0.79679300  0.00000000  1
  C  C3  1  0.75000000  0.70320700  0.50000000  1
  C  C4  1  0.97956300  0.01380100  0.72480300  1
  C  C5  1  0.52043700  0.01380100  0.27519700  1
  C  C6  1  0.97956300  0.48619900  0.77519700  1
  C  C7  1  0.52043700  0.48619900  0.22480300  1
  C  C8  1  0.02043700  0.98619900  0.27519700  1
  C  C9  1  0.47956300  0.98619900  0.72480300  1
  C  C10  1  0.02043700  0.51380100  0.22480300  1
  C  C11  1  0.47956300  0.51380100  0.77519700  1
  C  C12  1  0.25000000  0.74383100  0.00000000  1
  C  C13  1  0.25000000  0.75616900  0.50000000  1
  C  C14  1  0.75000000  0.25616900  0.00000000  1
  C  C15  1  0.75000000  0.24383100  0.50000000  1
  N  N0  1  0.15749900  0.81844000  0.92820400  1
  N  N1  1  0.34250100  0.81844000  0.07179600  1
  N  N2  1  0.15749900  0.68156000  0.57179600  1
  N  N3  1  0.34250100  0.68156000  0.42820400  1
  N  N4  1  0.84250100  0.18156000  0.07179600  1
  N  N5  1  0.65749900  0.18156000  0.92820400  1
  N  N6  1  0.84250100  0.31844000  0.42820400  1
  N  N7  1  0.65749900  0.31844000  0.57179600  1
  N  N8  1  0.25000000  0.59427800  0.00000000  1
  N  N9  1  0.25000000  0.90572200  0.50000000  1
  N  N10  1  0.75000000  0.40572200  0.00000000  1
  N  N11  1  0.75000000  0.09427800  0.50000000  1
  O  O0  1  0.24287500  0.13626700  0.90554400  1
  O  O1  1  0.25712500  0.13626700  0.09445600  1
  O  O2  1  0.24287500  0.36373300  0.59445600  1
  O  O3  1  0.25712500  0.36373300  0.40554400  1
  O  O4  1  0.75712500  0.86373300  0.09445600  1
  O  O5  1  0.74287500  0.86373300  0.90554400  1
  O  O6  1  0.75712500  0.63626700  0.40554400  1
  O  O7  1  0.74287500  0.63626700  0.59445600  1
  O  O8  1  0.10012400  0.08039500  0.68560600  1
  O  O9  1  0.39987600  0.08039500  0.31439400  1
  O  O10  1  0.10012400  0.41960500  0.81439400  1
  O  O11  1  0.39987600  0.41960500  0.18560600  1
  O  O12  1  0.89987600  0.91960500  0.31439400  1
  O  O13  1  0.60012400  0.91960500  0.68560600  1
  O  O14  1  0.89987600  0.58039500  0.18560600  1
  O  O15  1  0.60012400  0.58039500  0.81439400  1
  O  O16  1  0.93623900  0.88444300  0.69252800  1
  O  O17  1  0.56376100  0.88444300  0.30747200  1
  O  O18  1  0.93623900  0.61555700  0.80747200  1
  O  O19  1  0.56376100  0.61555700  0.19252800  1
  O  O20  1  0.06376100  0.11555700  0.30747200  1
  O  O21  1  0.43623900  0.11555700  0.69252800  1
  O  O22  1  0.06376100  0.38444300  0.19252800  1
  O  O23  1  0.43623900  0.38444300  0.80747200  1
loop_
_geom_bond_atom_site_label_1
_geom_bond_atom_site_label_2
_geom_bond_distance
_geom_bond_site_symmetry_2
Ni0 O2 2.106383 1_555
Ni0 O0 2.106383 1_555
Ni0 O21 2.108769 1_555
Ni0 O23 2.108769 1_555
Ni0 O10 2.110580 1_555
Ni0 O8 2.110580 1_555
Ni1 O1 2.106383 1_555
Ni1 O3 2.106383 1_555
Ni1 O22 2.108769 1_555
Ni1 O20 2.108769 1_555
Ni1 O9 2.110580 1_555
Ni1 O11 2.110580 1_555
Ni2 O4 2.106383 1_555
Ni2 O6 2.106383 1_555
Ni2 O19 2.108769 1_555
Ni2 O17 2.108769 1_555
Ni2 O12 2.110580 1_555
Ni2 O14 2.110580 1_555
Ni3 O7 2.106383 1_555
Ni3 O5 2.106383 1_555
Ni3 O18 2.108769 1_555
Ni3 O16 2.108769 1_555
Ni3 O15 2.110580 1_555
Ni3 O13 2.110580 1_555
H12 N0 1.024057 1_555
H13 N1 1.024057 1_555
H14 N2 1.024057 1_555
H15 N3 1.024057 1_555
H16 N4 1.024057 1_555
H17 N5 1.024057 1_555
H18 N6 1.024057 1_555
H19 N7 1.024057 1_555
H20 N0 1.023176 1_555
H21 N1 1.023176 1_555
H22 N2 1.023176 1_555
H23 N3 1.023176 1_555
H24 N4 1.023176 1_555
H25 N5 1.023176 1_555
H26 N6 1.023176 1_555
H27 N7 1.023176 1_555
H28 N8 1.023943 1_555
H29 N8 1.023943 1_556
H30 N9 1.023943 1_555
H31 N9 1.023943 1_555
H32 N10 1.023943 1_556
H33 N10 1.023943 1_555
H34 N11 1.023943 1_555
H35 N11 1.023943 1_555
C0 H0 1.099335 1_555
C0 O0 1.271218 1_554
C0 O1 1.271218 1_555
C1 H1 1.099335 1_555
C1 O2 1.271218 1_555
C1 O3 1.271218 1_555
C2 H2 1.099335 1_555
C2 O5 1.271218 1_554
C2 O4 1.271218 1_555
C3 H3 1.099335 1_555
C3 O7 1.271218 1_555
C3 O6 1.271218 1_555
C4 H4 1.107882 1_555
C4 O8 1.270714 1_655
C4 O16 1.271203 1_545
C5 H5 1.107882 1_555
C5 O9 1.270714 1_555
C5 O17 1.271203 1_545
C6 H6 1.107882 1_555
C6 O10 1.270714 1_655
C6 O18 1.271203 1_555
C7 H7 1.107882 1_555
C7 O11 1.270714 1_555
C7 O19 1.271203 1_555
C8 H8 1.107882 1_555
C8 O12 1.270714 1_455
C8 O20 1.271203 1_565
C9 H9 1.107882 1_555
C9 O13 1.270714 1_555
C9 O21 1.271203 1_565
C10 H10 1.107882 1_555
C10 O14 1.270714 1_455
C10 O22 1.271203 1_555
C11 H11 1.107882 1_555
C11 O15 1.270714 1_555
C11 O23 1.271203 1_555
C12 N8 1.335550 1_555
C12 N0 1.335712 1_554
C12 N1 1.335712 1_555
C13 N9 1.335550 1_555
C13 N2 1.335712 1_555
C13 N3 1.335712 1_555
C14 N10 1.335550 1_555
C14 N5 1.335712 1_554
C14 N4 1.335712 1_555
C15 N11 1.335550 1_555
C15 N7 1.335712 1_555
C15 N6 1.335712 1_555
