# generated using pymatgen
data_CsEr(MoO4)2
_symmetry_space_group_name_H-M   'P 1'
_cell_length_a   7.58640356
_cell_length_b   7.58640356
_cell_length_c   7.77787429
_cell_angle_alpha   62.08060457
_cell_angle_beta   62.08060457
_cell_angle_gamma   88.58511734
_symmetry_Int_Tables_number   1
_chemical_formula_structural   CsEr(MoO4)2
_chemical_formula_sum   'Cs2 Er2 Mo4 O16'
_cell_volume   338.47940240
_cell_formula_units_Z   2
loop_
 _symmetry_equiv_pos_site_id
 _symmetry_equiv_pos_as_xyz
  1  'x, y, z'
loop_
 _atom_site_type_symbol
 _atom_site_label
 _atom_site_symmetry_multiplicity
 _atom_site_fract_x
 _atom_site_fract_y
 _atom_site_fract_z
 _atom_site_occupancy
  Cs  Cs0  1  0.19702200  0.80297800  0.75000000  1
  Cs  Cs1  1  0.80297800  0.19702200  0.25000000  1
  Er  Er0  1  0.77083300  0.22916700  0.75000000  1
  Er  Er1  1  0.22916700  0.77083300  0.25000000  1
  Mo  Mo0  1  0.69662300  0.69317700  0.76657700  1
  Mo  Mo1  1  0.30337700  0.30682300  0.23342300  1
  Mo  Mo2  1  0.30682300  0.30337700  0.73342300  1
  Mo  Mo3  1  0.69317700  0.69662300  0.26657700  1
  O  O0  1  0.61727700  0.75904700  0.56579600  1
  O  O1  1  0.38272300  0.24095300  0.43420400  1
  O  O2  1  0.24095300  0.38272300  0.93420400  1
  O  O3  1  0.75904700  0.61727700  0.06579600  1
  O  O4  1  0.38040200  0.06720700  0.87813200  1
  O  O5  1  0.61959800  0.93279300  0.12186800  1
  O  O6  1  0.93279300  0.61959800  0.62186800  1
  O  O7  1  0.06720700  0.38040200  0.37813200  1
  O  O8  1  0.58557200  0.36856100  0.96602600  1
  O  O9  1  0.41442800  0.63143900  0.03397400  1
  O  O10  1  0.63143900  0.41442800  0.53397400  1
  O  O11  1  0.36856100  0.58557200  0.46602600  1
  O  O12  1  0.78769700  0.94974200  0.69901300  1
  O  O13  1  0.21230300  0.05025800  0.30098700  1
  O  O14  1  0.05025800  0.21230300  0.80098700  1
  O  O15  1  0.94974200  0.78769700  0.19901300  1
loop_
_geom_bond_atom_site_label_1
_geom_bond_atom_site_label_2
_geom_bond_distance
_geom_bond_site_symmetry_2
Cs0 O3 2.899292 1_456
Cs0 O1 2.899292 1_565
Cs0 O0 2.906137 1_555
Cs0 O2 2.906137 1_555
Cs0 O15 3.037376 1_456
Cs0 O13 3.037376 1_565
Cs0 O11 3.147377 1_555
Cs0 O9 3.147377 1_556
Cs0 O6 3.202139 1_455
Cs0 O4 3.202139 1_565
Cs0 O14 3.407177 1_565
Cs0 O12 3.407177 1_455
Cs1 O2 2.899292 1_654
Cs1 O0 2.899292 1_545
Cs1 O3 2.906137 1_555
Cs1 O1 2.906137 1_555
Cs1 O14 3.037376 1_654
Cs1 O12 3.037376 1_545
Cs1 O8 3.147377 1_554
Cs1 O10 3.147377 1_555
Cs1 O7 3.202139 1_655
Cs1 O5 3.202139 1_545
Cs1 O13 3.407177 1_655
Cs1 O15 3.407177 1_545
Er0 O8 2.301277 1_555
Er0 O10 2.301277 1_555
Er0 O14 2.322425 1_655
Er0 O12 2.322425 1_545
Er0 O7 2.380589 1_655
Er0 O5 2.380589 1_546
Er0 O6 2.746789 1_555
Er0 O4 2.746789 1_555
Er1 O11 2.301277 1_555
Er1 O9 2.301277 1_555
Er1 O13 2.322425 1_565
Er1 O15 2.322425 1_455
Er1 O6 2.380589 1_455
Er1 O4 2.380589 1_564
Er1 O5 2.746789 1_555
Er1 O7 2.746789 1_555
Mo0 O0 1.784787 1_555
Mo0 O12 1.819498 1_555
Mo0 O6 1.854463 1_555
Mo0 O9 2.023812 1_556
Mo0 O8 2.117078 1_555
Mo0 O3 2.394957 1_556
Mo1 O1 1.784787 1_555
Mo1 O13 1.819498 1_555
Mo1 O7 1.854463 1_555
Mo1 O8 2.023812 1_554
Mo1 O9 2.117078 1_555
Mo1 O2 2.394957 1_554
Mo2 O2 1.784787 1_555
Mo2 O14 1.819498 1_555
Mo2 O4 1.854463 1_555
Mo2 O11 2.023812 1_555
Mo2 O10 2.117078 1_555
Mo2 O1 2.394957 1_555
Mo3 O3 1.784787 1_555
Mo3 O15 1.819498 1_555
Mo3 O5 1.854463 1_555
Mo3 O10 2.023812 1_555
Mo3 O11 2.117078 1_555
Mo3 O0 2.394957 1_555
