# generated using pymatgen
data_CaMg
_symmetry_space_group_name_H-M   'P 1'
_cell_length_a   7.27338732
_cell_length_b   7.27338732
_cell_length_c   22.67119800
_cell_angle_alpha   90.00000000
_cell_angle_beta   90.00000000
_cell_angle_gamma   119.99999386
_symmetry_Int_Tables_number   1
_chemical_formula_structural   CaMg
_chemical_formula_sum   'Ca16 Mg16'
_cell_volume   1038.67232272
_cell_formula_units_Z   16
loop_
 _symmetry_equiv_pos_site_id
 _symmetry_equiv_pos_as_xyz
  1  'x, y, z'
loop_
 _atom_site_type_symbol
 _atom_site_label
 _atom_site_symmetry_multiplicity
 _atom_site_fract_x
 _atom_site_fract_y
 _atom_site_fract_z
 _atom_site_occupancy
  Ca  Ca0_0  1  0.33333350  0.16666650  0.32151000  1
  Ca  Ca0_1  1  0.33333350  0.16666650  0.82151000  1
  Ca  Ca0_2  1  0.33333350  0.66666650  0.32151000  1
  Ca  Ca0_3  1  0.33333350  0.66666650  0.82151000  1
  Ca  Ca0_4  1  0.83333350  0.16666650  0.32151000  1
  Ca  Ca0_5  1  0.83333350  0.16666650  0.82151000  1
  Ca  Ca0_6  1  0.83333350  0.66666650  0.32151000  1
  Ca  Ca0_7  1  0.83333350  0.66666650  0.82151000  1
  Ca  Ca1_0  1  0.16666650  0.33333350  0.17849000  1
  Ca  Ca1_1  1  0.16666650  0.33333350  0.67849000  1
  Ca  Ca1_2  1  0.16666650  0.83333350  0.17849000  1
  Ca  Ca1_3  1  0.16666650  0.83333350  0.67849000  1
  Ca  Ca1_4  1  0.66666650  0.33333350  0.17849000  1
  Ca  Ca1_5  1  0.66666650  0.33333350  0.67849000  1
  Ca  Ca1_6  1  0.66666650  0.83333350  0.17849000  1
  Ca  Ca1_7  1  0.66666650  0.83333350  0.67849000  1
  Mg  Mg0_0  1  0.16666650  0.33333350  0.44372900  1
  Mg  Mg0_1  1  0.16666650  0.33333350  0.94372900  1
  Mg  Mg0_2  1  0.16666650  0.83333350  0.44372900  1
  Mg  Mg0_3  1  0.16666650  0.83333350  0.94372900  1
  Mg  Mg0_4  1  0.66666650  0.33333350  0.44372900  1
  Mg  Mg0_5  1  0.66666650  0.33333350  0.94372900  1
  Mg  Mg0_6  1  0.66666650  0.83333350  0.44372900  1
  Mg  Mg0_7  1  0.66666650  0.83333350  0.94372900  1
  Mg  Mg1_0  1  0.33333350  0.16666650  0.05627100  1
  Mg  Mg1_1  1  0.33333350  0.16666650  0.55627100  1
  Mg  Mg1_2  1  0.33333350  0.66666650  0.05627100  1
  Mg  Mg1_3  1  0.33333350  0.66666650  0.55627100  1
  Mg  Mg1_4  1  0.83333350  0.16666650  0.05627100  1
  Mg  Mg1_5  1  0.83333350  0.16666650  0.55627100  1
  Mg  Mg1_6  1  0.83333350  0.66666650  0.05627100  1
  Mg  Mg1_7  1  0.83333350  0.66666650  0.55627100  1
loop_
_geom_bond_atom_site_label_1
_geom_bond_atom_site_label_2
_geom_bond_distance
_geom_bond_site_symmetry_2
Ca0_0 Mg0_2 3.476510 1_545
Ca0_0 Mg0_4 3.476510 1_555
Ca0_0 Mg0_0 3.476514 1_555
Ca0_0 Ca0_2 3.636694 1_555
Ca0_0 Ca0_4 3.636694 1_455
Ca0_0 Ca0_2 3.636694 1_545
Ca0_0 Ca0_4 3.636694 1_555
Ca0_0 Ca0_6 3.636694 1_445
Ca0_0 Ca0_6 3.636694 1_555
Ca0_0 Ca1_2 3.862886 1_545
Ca0_0 Ca1_4 3.862886 1_555
Ca0_0 Ca1_0 3.862889 1_555
Ca0_1 Mg0_5 3.476510 1_555
Ca0_1 Mg0_3 3.476510 1_545
Ca0_1 Mg0_1 3.476514 1_555
Ca0_1 Ca0_3 3.636694 1_555
Ca0_1 Ca0_5 3.636694 1_455
Ca0_1 Ca0_5 3.636694 1_555
Ca0_1 Ca0_3 3.636694 1_545
Ca0_1 Ca0_7 3.636694 1_445
Ca0_1 Ca0_7 3.636694 1_555
Ca0_1 Ca1_5 3.862886 1_555
Ca0_1 Ca1_3 3.862886 1_545
Ca0_1 Ca1_1 3.862889 1_555
Ca0_2 Mg0_6 3.476510 1_555
Ca0_2 Mg0_0 3.476510 1_555
Ca0_2 Mg0_2 3.476514 1_555
Ca0_2 Ca0_6 3.636694 1_455
Ca0_2 Ca0_6 3.636694 1_555
Ca0_2 Ca0_4 3.636694 1_455
Ca0_2 Ca0_4 3.636694 1_565
Ca0_2 Ca1_0 3.862886 1_555
Ca0_2 Ca1_6 3.862886 1_555
Ca0_2 Ca1_2 3.862889 1_555
Ca0_3 Mg0_1 3.476510 1_555
Ca0_3 Mg0_7 3.476510 1_555
Ca0_3 Mg0_3 3.476514 1_555
Ca0_3 Ca0_7 3.636694 1_455
Ca0_3 Ca0_7 3.636694 1_555
Ca0_3 Ca0_5 3.636694 1_455
Ca0_3 Ca0_5 3.636694 1_565
Ca0_3 Ca1_7 3.862886 1_555
Ca0_3 Ca1_1 3.862886 1_555
Ca0_3 Ca1_3 3.862889 1_555
Ca0_4 Mg0_0 3.476510 1_655
Ca0_4 Mg0_6 3.476510 1_545
Ca0_4 Mg0_4 3.476514 1_555
Ca0_4 Ca0_6 3.636694 1_555
Ca0_4 Ca0_6 3.636694 1_545
Ca0_4 Ca1_6 3.862886 1_545
Ca0_4 Ca1_0 3.862886 1_655
Ca0_4 Ca1_4 3.862889 1_555
Ca0_5 Mg0_7 3.476510 1_545
Ca0_5 Mg0_1 3.476510 1_655
Ca0_5 Mg0_5 3.476514 1_555
Ca0_5 Ca0_7 3.636694 1_555
Ca0_5 Ca0_7 3.636694 1_545
Ca0_5 Ca1_7 3.862886 1_545
Ca0_5 Ca1_1 3.862886 1_655
Ca0_5 Ca1_5 3.862889 1_555
Ca0_6 Mg0_2 3.476510 1_655
Ca0_6 Mg0_4 3.476510 1_555
Ca0_6 Mg0_6 3.476514 1_555
Ca0_6 Ca1_2 3.862886 1_655
Ca0_6 Ca1_4 3.862886 1_555
Ca0_6 Ca1_6 3.862889 1_555
Ca0_7 Mg0_3 3.476510 1_655
Ca0_7 Mg0_5 3.476510 1_555
Ca0_7 Mg0_7 3.476514 1_555
Ca0_7 Ca1_5 3.862886 1_555
Ca0_7 Ca1_3 3.862886 1_655
Ca0_7 Ca1_7 3.862889 1_555
Ca1_0 Mg1_4 3.476510 1_455
Ca1_0 Mg1_2 3.476510 1_555
Ca1_0 Mg1_0 3.476514 1_555
Ca1_0 Ca1_4 3.636694 1_555
Ca1_0 Ca1_2 3.636694 1_545
Ca1_0 Ca1_2 3.636694 1_555
Ca1_0 Ca1_4 3.636694 1_455
Ca1_0 Ca1_6 3.636694 1_555
Ca1_0 Ca1_6 3.636694 1_445
Ca1_1 Mg1_5 3.476510 1_455
Ca1_1 Mg1_3 3.476510 1_555
Ca1_1 Mg1_1 3.476514 1_555
Ca1_1 Ca1_5 3.636694 1_555
Ca1_1 Ca1_3 3.636694 1_545
Ca1_1 Ca1_3 3.636694 1_555
Ca1_1 Ca1_5 3.636694 1_455
Ca1_1 Ca1_7 3.636694 1_555
Ca1_1 Ca1_7 3.636694 1_445
Ca1_2 Mg1_6 3.476510 1_455
Ca1_2 Mg1_0 3.476510 1_565
Ca1_2 Mg1_2 3.476514 1_555
Ca1_2 Ca1_6 3.636694 1_555
Ca1_2 Ca1_6 3.636694 1_455
Ca1_2 Ca1_4 3.636694 1_565
Ca1_2 Ca1_4 3.636694 1_455
Ca1_3 Mg1_7 3.476510 1_455
Ca1_3 Mg1_1 3.476510 1_565
Ca1_3 Mg1_3 3.476514 1_555
Ca1_3 Ca1_7 3.636694 1_555
Ca1_3 Ca1_7 3.636694 1_455
Ca1_3 Ca1_5 3.636694 1_565
Ca1_3 Ca1_5 3.636694 1_455
Ca1_4 Mg1_0 3.476510 1_555
Ca1_4 Mg1_6 3.476510 1_555
Ca1_4 Mg1_4 3.476514 1_555
Ca1_4 Ca1_6 3.636694 1_545
Ca1_4 Ca1_6 3.636694 1_555
Ca1_5 Mg1_7 3.476510 1_555
Ca1_5 Mg1_1 3.476510 1_555
Ca1_5 Mg1_5 3.476514 1_555
Ca1_5 Ca1_7 3.636694 1_545
Ca1_5 Ca1_7 3.636694 1_555
Ca1_6 Mg1_2 3.476510 1_555
Ca1_6 Mg1_4 3.476510 1_565
Ca1_6 Mg1_6 3.476514 1_555
Ca1_7 Mg1_3 3.476510 1_555
Ca1_7 Mg1_5 3.476510 1_565
Ca1_7 Mg1_7 3.476514 1_555
Mg0_0 Mg1_3 3.304310 1_555
Mg0_0 Mg1_5 3.304310 1_455
Mg0_0 Mg1_1 3.304314 1_555
Mg0_1 Mg1_2 3.304310 1_556
Mg0_1 Mg1_4 3.304310 1_456
Mg0_1 Mg1_0 3.304314 1_556
Mg0_2 Mg1_7 3.304310 1_455
Mg0_2 Mg1_1 3.304310 1_565
Mg0_2 Mg1_3 3.304314 1_555
Mg0_3 Mg1_6 3.304310 1_456
Mg0_3 Mg1_0 3.304310 1_566
Mg0_3 Mg1_2 3.304314 1_556
Mg0_4 Mg1_1 3.304310 1_555
Mg0_4 Mg1_7 3.304310 1_555
Mg0_4 Mg1_5 3.304314 1_555
Mg0_5 Mg1_6 3.304310 1_556
Mg0_5 Mg1_0 3.304310 1_556
Mg0_5 Mg1_4 3.304314 1_556
Mg0_6 Mg1_3 3.304310 1_555
Mg0_6 Mg1_5 3.304310 1_565
Mg0_6 Mg1_7 3.304314 1_555
Mg0_7 Mg1_2 3.304310 1_556
Mg0_7 Mg1_4 3.304310 1_566
Mg0_7 Mg1_6 3.304314 1_556
