# generated using pymatgen
data_Mn3Mo3C
_symmetry_space_group_name_H-M   'P 1'
_cell_length_a   8.00576405
_cell_length_b   8.00588082
_cell_length_c   8.00591588
_cell_angle_alpha   60.00107551
_cell_angle_beta   60.00053900
_cell_angle_gamma   60.00037635
_symmetry_Int_Tables_number   1
_chemical_formula_structural   Mn3Mo3C
_chemical_formula_sum   'Mn12 Mo12 C4'
_cell_volume   362.83942160
_cell_formula_units_Z   4
loop_
 _symmetry_equiv_pos_site_id
 _symmetry_equiv_pos_as_xyz
  1  'x, y, z'
loop_
 _atom_site_type_symbol
 _atom_site_label
 _atom_site_symmetry_multiplicity
 _atom_site_fract_x
 _atom_site_fract_y
 _atom_site_fract_z
 _atom_site_occupancy
  Mn  Mn0  1  0.12499239  0.12499653  0.62501587  1
  Mn  Mn1  1  0.25159621  0.91613255  0.91611724  1
  Mn  Mn2  1  0.91614613  0.25159432  0.91611270  1
  Mn  Mn3  1  0.33384563  0.33386774  0.33388205  1
  Mn  Mn4  1  0.33385529  -0.00160030  0.33389240  1
  Mn  Mn5  1  0.33386410  0.33387672  -0.00160201  1
  Mn  Mn6  1  -0.00160294  0.33387052  0.33388358  1
  Mn  Mn7  1  0.91615457  0.91613649  0.91611934  1
  Mn  Mn8  1  0.12499335  0.62501818  0.12499235  1
  Mn  Mn9  1  0.62501429  0.12499696  0.12499317  1
  Mn  Mn10  1  0.12499274  0.12499685  0.12499284  1
  Mn  Mn11  1  0.91614500  0.91611626  0.25159289  1
  Mo  Mo0  1  0.56230978  0.56230678  0.93769660  1
  Mo  Mo1  1  0.93768994  0.93769123  0.56230804  1
  Mo  Mo2  1  0.68769415  0.68769714  0.31230356  1
  Mo  Mo3  1  0.31230759  0.68769374  0.68769499  1
  Mo  Mo4  1  0.68769560  0.31230257  0.31230543  1
  Mo  Mo5  1  0.31230943  0.31230131  0.68769618  1
  Mo  Mo6  1  0.56231203  0.93769169  0.56230763  1
  Mo  Mo7  1  0.31230802  0.68769582  0.31230269  1
  Mo  Mo8  1  0.93768825  0.56230730  0.93769600  1
  Mo  Mo9  1  0.93769078  0.56231054  0.56230973  1
  Mo  Mo10  1  0.68769393  0.31230225  0.68769730  1
  Mo  Mo11  1  0.56230884  0.93768880  0.93769553  1
  C  C0  1  0.62500059  0.62500337  0.12499377  1
  C  C1  1  0.12499311  0.62500378  0.62500050  1
  C  C2  1  0.62500069  0.12499753  0.62499975  1
  C  C3  1  0.62500049  0.62500333  0.62499988  1
loop_
_geom_bond_atom_site_label_1
_geom_bond_atom_site_label_2
_geom_bond_distance
_geom_bond_site_symmetry_2
Mn0 Mn2 2.454558 1_455
Mn0 Mn7 2.454599 1_445
Mn0 Mn1 2.454627 1_545
Mn0 Mn4 2.454728 1_555
Mn0 Mn3 2.454780 1_555
Mn0 Mn6 2.454791 1_555
Mn0 Mo10 2.915954 1_455
Mn0 Mo5 2.915986 1_555
Mn0 Mo3 2.916037 1_545
Mn0 Mo1 2.916040 1_445
Mn0 Mo6 2.916062 1_545
Mn0 Mo9 2.916077 1_455
Mn1 Mn8 2.454703 1_556
Mn1 Mn10 2.454833 1_566
Mn1 Mo6 2.671234 1_555
Mn1 Mo0 2.671285 1_555
Mn1 Mo11 2.671339 1_555
Mn1 Mn7 2.685442 1_455
Mn1 Mn2 2.685616 1_465
Mn1 Mn11 2.685688 1_456
Mn1 Mo3 2.914078 1_555
Mn1 Mo5 2.914249 1_565
Mn1 Mo7 2.914369 1_556
Mn2 Mn9 2.454766 1_556
Mn2 Mo9 2.671241 1_555
Mn2 Mo0 2.671318 1_555
Mn2 Mo8 2.671334 1_555
Mn2 Mn7 2.685575 1_545
Mn2 Mo10 2.914122 1_555
Mn2 Mo5 2.914141 1_655
Mn2 Mo4 2.914390 1_556
Mn3 Mn8 2.454887 1_555
Mn3 Mn9 2.454986 1_555
Mn3 Mo5 2.671242 1_555
Mn3 Mo7 2.671290 1_555
Mn3 Mo4 2.671335 1_555
Mn3 Mn6 2.685505 1_555
Mn3 Mn4 2.685637 1_555
Mn3 Mn5 2.685747 1_555
Mn3 Mo9 2.914122 1_455
Mn3 Mo6 2.914305 1_545
Mn3 Mo0 2.914386 1_554
Mn4 Mn9 2.454943 1_555
Mn4 Mo3 2.671203 1_545
Mn4 Mo2 2.671295 1_545
Mn4 Mo7 2.671314 1_545
Mn4 Mn6 2.685685 1_555
Mn4 Mn5 2.685908 1_555
Mn4 Mo6 2.914151 1_545
Mn4 Mo1 2.914159 1_445
Mn4 Mo11 2.914427 1_544
Mn5 Mn8 2.454826 1_555
Mn5 Mn9 2.454873 1_555
Mn5 Mo3 2.671255 1_554
Mn5 Mo10 2.671259 1_554
Mn5 Mo5 2.671276 1_554
Mn5 Mn6 2.685792 1_555
Mn5 Mo0 2.914197 1_554
Mn5 Mo8 2.914206 1_454
Mn5 Mo11 2.914323 1_544
Mn6 Mn8 2.454892 1_555
Mn6 Mo10 2.671208 1_455
Mn6 Mo2 2.671252 1_455
Mn6 Mo4 2.671302 1_455
Mn6 Mo9 2.914132 1_455
Mn6 Mo1 2.914301 1_445
Mn6 Mo8 2.914374 1_454
Mn7 Mn8 2.454686 1_656
Mn7 Mn9 2.454814 1_566
Mn7 Mo1 2.671263 1_555
Mn7 Mo8 2.671322 1_555
Mn7 Mo11 2.671347 1_555
Mn7 Mo3 2.914105 1_655
Mn7 Mo10 2.914238 1_565
Mn7 Mo2 2.914371 1_556
Mn8 Mo2 2.915965 1_455
Mn8 Mo7 2.915996 1_555
Mn8 Mo8 2.916017 1_454
Mn8 Mo3 2.916023 1_554
Mn8 Mo0 2.916039 1_554
Mn8 Mo9 2.916117 1_455
Mn9 Mo4 2.915976 1_555
Mn9 Mo10 2.916019 1_554
Mn9 Mo11 2.916026 1_544
Mn9 Mo2 2.916030 1_545
Mn9 Mo0 2.916065 1_554
Mn9 Mo6 2.916115 1_545
Mn10 Mn2 2.454751 1_454
Mn10 Mn11 2.454753 1_445
Mn10 Mn5 2.454914 1_555
Mn10 Mn4 2.454982 1_555
Mn10 Mn6 2.455010 1_555
Mn10 Mo4 2.915960 1_455
Mn10 Mo5 2.916029 1_554
Mn10 Mo7 2.916043 1_545
Mn10 Mo11 2.916046 1_544
Mn10 Mo8 2.916062 1_454
Mn10 Mo1 2.916113 1_445
Mn11 Mn8 2.454570 1_655
Mn11 Mn9 2.454765 1_565
Mn11 Mo9 2.671252 1_555
Mn11 Mo6 2.671322 1_555
Mn11 Mo1 2.671337 1_555
Mn11 Mn7 2.685654 1_554
Mn11 Mn2 2.685855 1_564
Mn11 Mo2 2.914124 1_555
Mn11 Mo7 2.914142 1_655
Mn11 Mo4 2.914344 1_565
C0 Mo0 2.123535 1_554
C0 Mo8 2.123549 1_554
C0 Mo11 2.123581 1_554
C0 Mo7 2.123598 1_555
C0 Mo2 2.123629 1_555
C0 Mo4 2.123693 1_555
C1 Mo9 2.123537 1_455
C1 Mo1 2.123582 1_455
C1 Mo3 2.123631 1_555
C1 Mo8 2.123644 1_455
C1 Mo7 2.123676 1_555
C1 Mo5 2.123692 1_555
C2 Mo6 2.123558 1_545
C2 Mo1 2.123570 1_545
C2 Mo5 2.123576 1_555
C2 Mo10 2.123607 1_555
C2 Mo4 2.123652 1_555
C2 Mo11 2.123667 1_545
C3 Mo9 2.123566 1_555
C3 Mo3 2.123581 1_555
C3 Mo6 2.123597 1_555
C3 Mo2 2.123657 1_555
C3 Mo0 2.123661 1_555
C3 Mo10 2.123674 1_555
