# generated using pymatgen
data_Co(C2N3)3
_symmetry_space_group_name_H-M   'P 1'
_cell_length_a   7.35489322
_cell_length_b   12.84788161
_cell_length_c   12.11214500
_cell_angle_alpha   90.00000000
_cell_angle_beta   90.00000000
_cell_angle_gamma   29.14099116
_symmetry_Int_Tables_number   1
_chemical_formula_structural   Co(C2N3)3
_chemical_formula_sum   'Co2 C12 N18'
_cell_volume   557.34304542
_cell_formula_units_Z   2
loop_
 _symmetry_equiv_pos_site_id
 _symmetry_equiv_pos_as_xyz
  1  'x, y, z'
loop_
 _atom_site_type_symbol
 _atom_site_label
 _atom_site_symmetry_multiplicity
 _atom_site_fract_x
 _atom_site_fract_y
 _atom_site_fract_z
 _atom_site_occupancy
  Co  Co0  1  0.00000000  0.30266500  0.25000000  1
  Co  Co1  1  0.00000000  0.69733500  0.75000000  1
  C  C0  1  0.68024300  0.80327300  0.25000000  1
  C  C1  1  0.68024300  0.51648300  0.75000000  1
  C  C2  1  0.31975700  0.19672700  0.75000000  1
  C  C3  1  0.31975700  0.48351700  0.25000000  1
  C  C4  1  0.68075700  0.30387600  0.89905800  1
  C  C5  1  0.68075700  0.01536700  0.10094200  1
  C  C6  1  0.68075700  0.30387600  0.60094200  1
  C  C7  1  0.68075700  0.01536700  0.39905800  1
  C  C8  1  0.31924300  0.69612400  0.10094200  1
  C  C9  1  0.31924300  0.98463300  0.89905800  1
  C  C10  1  0.31924300  0.69612400  0.39905800  1
  C  C11  1  0.31924300  0.98463300  0.60094200  1
  N  N0  1  0.00000000  0.59758400  0.25000000  1
  N  N1  1  0.00000000  0.40241600  0.75000000  1
  N  N2  1  0.37585100  0.99084300  0.25000000  1
  N  N3  1  0.37585100  0.63330600  0.75000000  1
  N  N4  1  0.62414900  0.00915700  0.75000000  1
  N  N5  1  0.62414900  0.36669400  0.25000000  1
  N  N6  1  0.00000000  0.15863600  0.94623100  1
  N  N7  1  0.00000000  0.84136400  0.05376900  1
  N  N8  1  0.00000000  0.15863600  0.55376900  1
  N  N9  1  0.00000000  0.84136400  0.44623100  1
  N  N10  1  0.37865300  0.44370800  0.86175000  1
  N  N11  1  0.37865300  0.17763900  0.13825000  1
  N  N12  1  0.37865300  0.44370800  0.63825000  1
  N  N13  1  0.37865300  0.17763900  0.36175000  1
  N  N14  1  0.62134700  0.55629200  0.13825000  1
  N  N15  1  0.62134700  0.82236100  0.86175000  1
  N  N16  1  0.62134700  0.55629200  0.36175000  1
  N  N17  1  0.62134700  0.82236100  0.63825000  1
loop_
_geom_bond_atom_site_label_1
_geom_bond_atom_site_label_2
_geom_bond_distance
_geom_bond_site_symmetry_2
Co0 N5 2.084684 1_455
Co0 N2 2.084684 1_545
Co0 N11 2.086554 1_555
Co0 N13 2.086554 1_555
Co0 N14 2.086554 1_455
Co0 N16 2.086554 1_455
Co1 N3 2.084684 1_555
Co1 N4 2.084684 1_465
Co1 N15 2.086554 1_455
Co1 N17 2.086554 1_455
Co1 N10 2.086554 1_555
Co1 N12 2.086554 1_555
C0 N2 1.181132 1_555
C0 N0 1.287613 1_655
C1 N3 1.181127 1_555
C1 N1 1.287619 1_655
C2 N4 1.181132 1_555
C2 N1 1.287613 1_555
C3 N5 1.181127 1_555
C3 N0 1.287619 1_555
C4 N10 1.181396 1_555
C4 N6 1.291481 1_655
C5 N11 1.181396 1_555
C5 N7 1.291481 1_645
C6 N12 1.181396 1_555
C6 N8 1.291481 1_655
C7 N13 1.181396 1_555
C7 N9 1.291481 1_645
C8 N14 1.181396 1_555
C8 N7 1.291481 1_555
C9 N15 1.181396 1_555
C9 N6 1.291481 1_565
C10 N16 1.181396 1_555
C10 N9 1.291481 1_555
C11 N17 1.181396 1_555
C11 N8 1.291481 1_565
