# generated using pymatgen
data_Li2CoAgF6
_symmetry_space_group_name_H-M   'P 1'
_cell_length_a   5.85843800
_cell_length_b   5.85843788
_cell_length_c   5.85843740
_cell_angle_alpha   60.00000011
_cell_angle_beta   59.99999663
_cell_angle_gamma   59.99999934
_symmetry_Int_Tables_number   1
_chemical_formula_structural   Li2CoAgF6
_chemical_formula_sum   'Li2 Co1 Ag1 F6'
_cell_volume   142.17736166
_cell_formula_units_Z   1
loop_
 _symmetry_equiv_pos_site_id
 _symmetry_equiv_pos_as_xyz
  1  'x, y, z'
loop_
 _atom_site_type_symbol
 _atom_site_label
 _atom_site_symmetry_multiplicity
 _atom_site_fract_x
 _atom_site_fract_y
 _atom_site_fract_z
 _atom_site_occupancy
  Li  Li0  1  0.25000000  0.25000000  0.25000000  1
  Li  Li1  1  0.75000000  0.75000000  0.75000000  1
  Co  Co0  1  0.00000000  0.00000000  0.00000000  1
  Ag  Ag0  1  0.50000000  0.50000000  0.50000000  1
  F  F0  1  0.22553700  0.77446300  0.22553700  1
  F  F1  1  0.77446300  0.77446300  0.22553700  1
  F  F2  1  0.77446300  0.22553700  0.77446300  1
  F  F3  1  0.77446300  0.22553700  0.22553700  1
  F  F4  1  0.22553700  0.77446300  0.77446300  1
  F  F5  1  0.22553700  0.22553700  0.77446300  1
loop_
_geom_bond_atom_site_label_1
_geom_bond_atom_site_label_2
_geom_bond_distance
_geom_bond_site_symmetry_2
Co0 F3 1.868592 1_455
Co0 F4 1.868592 1_544
Co0 F0 1.868593 1_545
Co0 F5 1.868593 1_554
Co0 F1 1.868593 1_445
Co0 F2 1.868593 1_454
Ag0 F3 2.273948 1_555
Ag0 F4 2.273948 1_555
Ag0 F1 2.273949 1_555
Ag0 F0 2.273949 1_555
Ag0 F5 2.273949 1_555
Ag0 F2 2.273949 1_555
