# generated using pymatgen
data_Mg14AlFe
_symmetry_space_group_name_H-M   'P 1'
_cell_length_a   6.21313751
_cell_length_b   6.19291118
_cell_length_c   10.05749697
_cell_angle_alpha   90.00000000
_cell_angle_beta   90.00000000
_cell_angle_gamma   119.89237521
_symmetry_Int_Tables_number   1
_chemical_formula_structural   Mg14AlFe
_chemical_formula_sum   'Mg14 Al1 Fe1'
_cell_volume   335.50294005
_cell_formula_units_Z   1
loop_
 _symmetry_equiv_pos_site_id
 _symmetry_equiv_pos_as_xyz
  1  'x, y, z'
loop_
 _atom_site_type_symbol
 _atom_site_label
 _atom_site_symmetry_multiplicity
 _atom_site_fract_x
 _atom_site_fract_y
 _atom_site_fract_z
 _atom_site_occupancy
  Mg  Mg0  1  0.17030656  0.33515278  0.62500000  1
  Mg  Mg1  1  0.16714189  0.83357044  0.62500000  1
  Mg  Mg2  1  0.67478198  0.33561694  0.12500000  1
  Mg  Mg3  1  0.66418071  0.33376787  0.62500000  1
  Mg  Mg4  1  0.67478198  0.83916404  0.12500000  1
  Mg  Mg5  1  0.66418071  0.83041184  0.62500000  1
  Mg  Mg6  1  0.32549787  0.15621384  0.35542200  1
  Mg  Mg7  1  0.32549787  0.15621384  0.89457800  1
  Mg  Mg8  1  0.32549787  0.66928503  0.35542200  1
  Mg  Mg9  1  0.32549787  0.66928503  0.89457800  1
  Mg  Mg10  1  0.83563068  0.16781584  0.37650891  1
  Mg  Mg11  1  0.83563068  0.16781584  0.87349109  1
  Mg  Mg12  1  0.84451986  0.67226043  0.36408818  1
  Mg  Mg13  1  0.84451986  0.67226043  0.88591182  1
  Al  Al0  1  0.15779540  0.32889720  0.12500000  1
  Fe  Fe0  1  0.16453821  0.83226861  0.12500000  1
loop_
_geom_bond_atom_site_label_1
_geom_bond_atom_site_label_2
_geom_bond_distance
_geom_bond_site_symmetry_2
Mg0 Mg5 3.072791 1_555
Mg0 Mg3 3.072791 1_555
Mg0 Mg10 3.081543 1_455
Mg0 Mg11 3.081543 1_455
Mg0 Mg1 3.096502 1_555
Mg0 Mg1 3.096503 1_545
Mg0 Mg5 3.140364 1_445
Mg0 Mg3 3.140364 1_455
Mg0 Mg7 3.251738 1_555
Mg0 Mg6 3.251738 1_555
Mg0 Mg9 3.251744 1_555
Mg0 Mg8 3.251744 1_555
Mg1 Mg3 3.097965 1_565
Mg1 Mg5 3.097966 1_555
Mg1 Mg3 3.115264 1_455
Mg1 Mg5 3.115265 1_455
Mg1 Mg12 3.147385 1_455
Mg1 Mg13 3.147385 1_455
Mg1 Mg9 3.217443 1_555
Mg1 Mg8 3.217443 1_555
Mg1 Mg7 3.217449 1_565
Mg1 Mg6 3.217449 1_565
Mg2 Mg6 2.985188 1_555
Mg2 Mg7 2.985188 1_554
Mg2 Mg4 3.074489 1_545
Mg2 Mg4 3.118422 1_555
Mg3 Mg5 3.075672 1_555
Mg3 Mg5 3.117239 1_545
Mg3 Mg7 3.268306 1_555
Mg3 Mg6 3.268306 1_555
Mg4 Mg8 2.985188 1_555
Mg4 Mg9 2.985188 1_554
Mg5 Mg9 3.268307 1_555
Mg5 Mg8 3.268307 1_555
Mg10 Mg2 3.084220 1_555
Mg10 Mg4 3.084226 1_545
Mg10 Mg3 3.086773 1_555
Mg10 Mg5 3.086779 1_545
Mg10 Mg8 3.087343 1_655
Mg10 Mg6 3.087343 1_655
Mg10 Mg12 3.099344 1_555
Mg10 Mg12 3.099344 1_545
Mg10 Mg8 3.141503 1_545
Mg10 Mg6 3.141503 1_555
Mg11 Mg2 3.084220 1_556
Mg11 Mg4 3.084226 1_546
Mg11 Mg3 3.086773 1_555
Mg11 Mg5 3.086779 1_545
Mg11 Mg9 3.087343 1_655
Mg11 Mg7 3.087343 1_655
Mg11 Mg13 3.099344 1_555
Mg11 Mg13 3.099344 1_545
Mg11 Mg9 3.141503 1_545
Mg11 Mg7 3.141503 1_555
Mg12 Mg4 3.008207 1_555
Mg12 Mg2 3.008213 1_555
Mg12 Mg5 3.192892 1_555
Mg12 Mg3 3.192898 1_555
Mg13 Mg4 3.008207 1_556
Mg13 Mg2 3.008213 1_556
Mg13 Mg5 3.192892 1_555
Mg13 Mg3 3.192898 1_555
Al0 Mg6 2.951379 1_555
Al0 Mg7 2.951379 1_554
Al0 Mg8 2.951386 1_555
Al0 Mg9 2.951386 1_554
Al0 Mg4 3.021984 1_445
Al0 Mg2 3.021984 1_455
Al0 Mg11 3.067588 1_454
Al0 Mg10 3.067588 1_455
Al0 Fe0 3.096669 1_545
Al0 Fe0 3.096669 1_555
Al0 Mg4 3.191573 1_555
Al0 Mg2 3.191573 1_555
Fe0 Mg8 2.897531 1_555
Fe0 Mg9 2.897531 1_554
Fe0 Mg6 2.897537 1_565
Fe0 Mg7 2.897537 1_564
Fe0 Mg12 2.958669 1_455
Fe0 Mg13 2.958669 1_454
Fe0 Mg2 3.064428 1_455
Fe0 Mg4 3.064428 1_455
Fe0 Mg2 3.149150 1_565
Fe0 Mg4 3.149150 1_555
