# generated using pymatgen
data_CuH5IO7
_symmetry_space_group_name_H-M   'P 1'
_cell_length_a   5.32427400
_cell_length_b   6.59562600
_cell_length_c   15.87654300
_cell_angle_alpha   90.00000000
_cell_angle_beta   90.00000000
_cell_angle_gamma   90.00000000
_symmetry_Int_Tables_number   1
_chemical_formula_structural   CuH5IO7
_chemical_formula_sum   'Cu4 H20 I4 O28'
_cell_volume   557.53529081
_cell_formula_units_Z   4
loop_
 _symmetry_equiv_pos_site_id
 _symmetry_equiv_pos_as_xyz
  1  'x, y, z'
loop_
 _atom_site_type_symbol
 _atom_site_label
 _atom_site_symmetry_multiplicity
 _atom_site_fract_x
 _atom_site_fract_y
 _atom_site_fract_z
 _atom_site_occupancy
  Cu  Cu0  1  0.66179400  0.85663500  0.43645000  1
  Cu  Cu1  1  0.83820600  0.14336500  0.93645000  1
  Cu  Cu2  1  0.16179400  0.64336500  0.56355000  1
  Cu  Cu3  1  0.33820600  0.35663500  0.06355000  1
  H  H0  1  0.42654000  0.42696400  0.26593000  1
  H  H1  1  0.07346000  0.57303600  0.76593000  1
  H  H2  1  0.92654000  0.07303600  0.73407000  1
  H  H3  1  0.57346000  0.92696400  0.23407000  1
  H  H4  1  0.86636800  0.46155200  0.33966800  1
  H  H5  1  0.63363200  0.53844800  0.83966800  1
  H  H6  1  0.36636800  0.03844800  0.66033200  1
  H  H7  1  0.13363200  0.96155200  0.16033200  1
  H  H8  1  0.96869400  0.03403800  0.33189500  1
  H  H9  1  0.53130600  0.96596200  0.83189500  1
  H  H10  1  0.46869400  0.46596200  0.66810500  1
  H  H11  1  0.03130600  0.53403800  0.16810500  1
  H  H12  1  0.52802800  0.25753100  0.41228900  1
  H  H13  1  0.97197200  0.74246900  0.91228900  1
  H  H14  1  0.02802800  0.24246900  0.58771100  1
  H  H15  1  0.47197200  0.75753100  0.08771100  1
  H  H16  1  0.47083500  0.19997100  0.50483700  1
  H  H17  1  0.02916500  0.80002900  0.00483700  1
  H  H18  1  0.97083500  0.30002900  0.49516300  1
  H  H19  1  0.52916500  0.69997100  0.99516300  1
  I  I0  1  0.21425400  0.70392600  0.34545200  1
  I  I1  1  0.28574600  0.29607400  0.84545200  1
  I  I2  1  0.71425400  0.79607400  0.65454800  1
  I  I3  1  0.78574600  0.20392600  0.15454800  1
  O  O0  1  0.09903200  0.71952600  0.23717100  1
  O  O1  1  0.40096800  0.28047400  0.73717100  1
  O  O2  1  0.59903200  0.78047400  0.76282900  1
  O  O3  1  0.90096800  0.21952600  0.26282900  1
  O  O4  1  0.49449800  0.87456100  0.32759400  1
  O  O5  1  0.00550200  0.12543900  0.82759400  1
  O  O6  1  0.99449800  0.62543900  0.67240600  1
  O  O7  1  0.50550200  0.37456100  0.17240600  1
  O  O8  1  0.33934100  0.70237300  0.45866400  1
  O  O9  1  0.16065900  0.29762700  0.95866400  1
  O  O10  1  0.83934100  0.79762700  0.54133600  1
  O  O11  1  0.66065900  0.20237300  0.04133600  1
  O  O12  1  0.40637500  0.45752200  0.32861700  1
  O  O13  1  0.09362500  0.54247800  0.82861700  1
  O  O14  1  0.90637500  0.04247800  0.67138300  1
  O  O15  1  0.59362500  0.95752200  0.17138300  1
  O  O16  1  0.93208200  0.54320300  0.38757400  1
  O  O17  1  0.56791800  0.45679700  0.88757400  1
  O  O18  1  0.43208200  0.95679700  0.61242600  1
  O  O19  1  0.06791800  0.04320300  0.11242600  1
  O  O20  1  0.00358000  0.94233700  0.38192100  1
  O  O21  1  0.49642000  0.05766300  0.88192100  1
  O  O22  1  0.50358000  0.55766300  0.61807900  1
  O  O23  1  0.99642000  0.44233700  0.11807900  1
  O  O24  1  0.60128700  0.18774100  0.46120900  1
  O  O25  1  0.89871300  0.81225900  0.96120900  1
  O  O26  1  0.10128700  0.31225900  0.53879100  1
  O  O27  1  0.39871300  0.68774100  0.03879100  1
loop_
_geom_bond_atom_site_label_1
_geom_bond_atom_site_label_2
_geom_bond_distance
_geom_bond_site_symmetry_2
Cu0 O4 1.947884 1_555
Cu0 O10 1.953986 1_555
Cu0 O8 2.026597 1_555
Cu0 O20 2.092975 1_655
Cu0 O24 2.242211 1_565
Cu1 O5 1.947884 1_655
Cu1 O11 1.953986 1_556
Cu1 O9 2.026597 1_655
Cu1 O21 2.092975 1_555
Cu1 O25 2.242211 1_545
Cu2 O6 1.947884 1_455
Cu2 O8 1.953986 1_555
Cu2 O10 2.026597 1_455
Cu2 O22 2.092975 1_555
Cu2 O26 2.242211 1_555
Cu3 O7 1.947884 1_555
Cu3 O9 1.953986 1_554
Cu3 O11 2.026597 1_555
Cu3 O23 2.092975 1_455
Cu3 O27 2.242211 1_555
H0 O12 1.021116 1_555
H0 O7 1.581440 1_555
H1 O13 1.021116 1_555
H1 O6 1.581440 1_455
H2 O14 1.021116 1_555
H2 O5 1.581440 1_655
H3 O15 1.021116 1_555
H3 O4 1.581440 1_555
H4 O16 0.995452 1_555
H5 O17 0.995452 1_555
H6 O18 0.995452 1_545
H7 O19 0.995452 1_565
H8 O20 1.015446 1_645
H8 O3 1.682003 1_555
H9 O21 1.015446 1_565
H9 O2 1.682003 1_555
H10 O22 1.015446 1_555
H10 O1 1.682003 1_555
H11 O23 1.015446 1_455
H11 O0 1.682003 1_555
H12 O24 0.983492 1_555
H13 O25 0.983492 1_555
H14 O26 0.983492 1_555
H15 O27 0.983492 1_555
H16 O24 0.984228 1_555
H17 O25 0.984228 1_454
H18 O26 0.984228 1_655
H19 O27 0.984228 1_556
I0 O0 1.828206 1_555
I0 O4 1.890334 1_555
I0 O8 1.916862 1_555
I0 O12 1.938817 1_555
I0 O16 1.956544 1_455
I0 O20 2.016453 1_555
I1 O1 1.828206 1_555
I1 O5 1.890334 1_555
I1 O9 1.916862 1_555
I1 O13 1.938817 1_555
I1 O17 1.956544 1_555
I1 O21 2.016453 1_555
I2 O2 1.828206 1_555
I2 O6 1.890334 1_555
I2 O10 1.916862 1_555
I2 O14 1.938817 1_565
I2 O18 1.956544 1_555
I2 O22 2.016453 1_555
I3 O3 1.828206 1_555
I3 O7 1.890334 1_555
I3 O11 1.916862 1_555
I3 O15 1.938817 1_545
I3 O19 1.956544 1_655
I3 O23 2.016453 1_555
