# generated using pymatgen
data_Mg4Si7
_symmetry_space_group_name_H-M   'P 1'
_cell_length_a   3.94897900
_cell_length_b   6.91972202
_cell_length_c   14.81888106
_cell_angle_alpha   92.67182902
_cell_angle_beta   97.05650949
_cell_angle_gamma   89.99569436
_symmetry_Int_Tables_number   1
_chemical_formula_structural   Mg4Si7
_chemical_formula_sum   'Mg8 Si14'
_cell_volume   401.42771980
_cell_formula_units_Z   2
loop_
 _symmetry_equiv_pos_site_id
 _symmetry_equiv_pos_as_xyz
  1  'x, y, z'
loop_
 _atom_site_type_symbol
 _atom_site_label
 _atom_site_symmetry_multiplicity
 _atom_site_fract_x
 _atom_site_fract_y
 _atom_site_fract_z
 _atom_site_occupancy
  Mg  Mg0  1  0.50428400  0.81898800  0.07147300  1
  Mg  Mg1  1  0.71594800  0.56212200  0.49400500  1
  Mg  Mg2  1  0.28964800  0.74912400  0.64724600  1
  Mg  Mg3  1  0.13992200  0.36039000  0.34038200  1
  Mg  Mg4  1  0.54835700  0.33678400  0.16639600  1
  Mg  Mg5  1  0.90090400  0.76576400  0.86899300  1
  Mg  Mg6  1  0.25032300  0.26158300  0.57045100  1
  Mg  Mg7  1  0.17744400  0.86184100  0.41772200  1
  Si  Si0  1  0.98507900  0.49603700  0.04454600  1
  Si  Si1  1  0.98682300  0.13655400  0.04156600  1
  Si  Si2  1  0.43545900  0.50161100  0.94421600  1
  Si  Si3  1  0.43694600  0.13802600  0.94649100  1
  Si  Si4  1  0.68924700  0.17890400  0.43929400  1
  Si  Si5  1  0.74720500  0.94319100  0.55274200  1
  Si  Si6  1  0.34454800  0.04275700  0.78690300  1
  Si  Si7  1  0.07180000  0.01908700  0.19672700  1
  Si  Si8  1  0.62216700  0.64837700  0.30569400  1
  Si  Si9  1  0.80898300  0.47287800  0.68826600  1
  Si  Si10  1  0.35126500  0.41979400  0.78341900  1
  Si  Si11  1  0.07061000  0.65688400  0.19700800  1
  Si  Si12  1  0.61661600  0.00787900  0.29399900  1
  Si  Si13  1  0.80645500  0.11773500  0.69881300  1
loop_
_geom_bond_atom_site_label_1
_geom_bond_atom_site_label_2
_geom_bond_distance
_geom_bond_site_symmetry_2
Mg0 Si2 2.818031 1_554
Mg0 Si11 2.937584 1_555
Mg0 Si3 2.938504 1_564
Mg0 Si7 2.969531 1_565
Mg0 Si0 2.976657 1_555
Mg0 Si11 2.982017 1_655
Mg0 Si1 2.992536 1_565
Mg0 Si1 3.011404 1_465
Mg0 Si0 3.012248 1_455
Mg0 Si7 3.020560 1_665
Mg1 Si4 2.734755 1_555
Mg1 Si5 2.736006 1_555
Mg1 Si8 2.860410 1_555
Mg1 Si9 2.951149 1_555
Mg2 Si5 2.791238 1_455
Mg2 Si5 2.797649 1_555
Mg2 Si6 2.820695 1_565
Mg2 Si9 2.831748 1_455
Mg2 Si9 2.833887 1_555
Mg2 Si10 3.103630 1_555
Mg3 Si4 2.775936 1_455
Mg3 Si4 2.796660 1_555
Mg3 Si8 2.863334 1_555
Mg3 Si8 2.872719 1_455
Mg3 Si11 3.010273 1_555
Mg3 Si7 3.093958 1_555
Mg3 Si12 3.182304 1_555
Mg3 Si12 3.191943 1_455
Mg4 Si0 2.898283 1_555
Mg4 Si8 2.903840 1_555
Mg4 Si0 2.936153 1_455
Mg4 Si11 2.964338 1_555
Mg4 Si7 2.979437 1_555
Mg4 Si1 2.981164 1_555
Mg4 Si1 3.002087 1_455
Mg4 Si11 3.007079 1_655
Mg4 Si12 3.017293 1_555
Mg4 Si7 3.028333 1_655
Mg5 Si2 2.941262 1_655
Mg5 Si2 2.942096 1_555
Mg5 Si6 2.994067 1_665
Mg5 Si6 3.088800 1_565
Mg6 Si4 2.798772 1_555
Mg6 Si4 2.802246 1_455
Mg6 Si13 2.929502 1_555
Mg6 Si13 2.945755 1_455
Mg6 Si5 2.947698 1_445
Mg6 Si9 2.955097 1_455
Mg6 Si5 2.974053 1_545
Mg6 Si9 2.978097 1_555
Mg7 Si5 2.817261 1_455
Mg7 Si5 2.858625 1_555
Mg7 Si12 2.888711 1_565
Mg7 Si12 2.909006 1_465
Mg7 Si8 2.917097 1_555
Mg7 Si8 2.936600 1_455
Mg7 Si4 2.952607 1_465
Mg7 Si4 2.962626 1_565
Si0 Si2 2.455658 1_654
Si0 Si11 2.456729 1_655
Si0 Si2 2.476950 1_554
Si0 Si1 2.485879 1_555
Si1 Si3 2.400286 1_654
Si1 Si3 2.439259 1_554
Si1 Si7 2.458614 1_655
Si2 Si3 2.517701 1_555
Si3 Si6 2.408989 1_555
Si4 Si5 2.387501 1_545
Si10 Si2 2.405943 1_555
Si10 Si9 2.452615 1_455
Si10 Si9 2.462706 1_555
Si10 Si6 2.612108 1_555
Si11 Si7 2.506547 1_565
Si11 Si8 2.538347 1_455
Si11 Si8 2.547250 1_555
Si12 Si4 2.393627 1_555
Si12 Si7 2.441530 1_555
Si12 Si7 2.441707 1_655
Si12 Si8 2.501638 1_545
Si13 Si5 2.414728 1_545
Si13 Si6 2.422801 1_655
Si13 Si6 2.439007 1_555
Si13 Si9 2.469815 1_555
