# generated using pymatgen
data_Al(NiO2)2
_symmetry_space_group_name_H-M   'P 1'
_cell_length_a   5.78617820
_cell_length_b   5.78626937
_cell_length_c   5.79430356
_cell_angle_alpha   120.00934191
_cell_angle_beta   120.04545189
_cell_angle_gamma   89.87465539
_symmetry_Int_Tables_number   1
_chemical_formula_structural   Al(NiO2)2
_chemical_formula_sum   'Al2 Ni4 O8'
_cell_volume   137.21152663
_cell_formula_units_Z   2
loop_
 _symmetry_equiv_pos_site_id
 _symmetry_equiv_pos_as_xyz
  1  'x, y, z'
loop_
 _atom_site_type_symbol
 _atom_site_label
 _atom_site_symmetry_multiplicity
 _atom_site_fract_x
 _atom_site_fract_y
 _atom_site_fract_z
 _atom_site_occupancy
  Al  Al0  1  0.00001100  0.50000600  0.00000700  1
  Al  Al1  1  0.00000400  0.00000400  0.50001100  1
  Ni  Ni0  1  0.37116300  0.62118700  0.74999200  1
  Ni  Ni1  1  0.62886700  0.37881700  0.25002700  1
  Ni  Ni2  1  0.49999500  0.00001000  0.49999700  1
  Ni  Ni3  1  0.00000100  0.99998200  0.99997800  1
  O  O0  1  0.76711300  0.77396800  0.50843900  1
  O  O1  1  0.76553400  0.25866700  0.99154300  1
  O  O2  1  0.22319400  0.24816500  0.97364000  1
  O  O3  1  0.23286400  0.22603700  0.49155000  1
  O  O4  1  0.22543000  0.75045800  0.47360100  1
  O  O5  1  0.23445200  0.74132500  0.00843200  1
  O  O6  1  0.77455200  0.24953100  0.52640800  1
  O  O7  1  0.77681900  0.75184800  0.02637600  1
loop_
_geom_bond_atom_site_label_1
_geom_bond_atom_site_label_2
_geom_bond_distance
_geom_bond_site_symmetry_2
Al0 O5 1.914698 1_555
Al0 O1 1.914770 1_454
Al0 O4 1.943692 1_555
Al0 O6 1.943710 1_454
Al0 O2 1.944511 1_554
Al0 O7 1.944552 1_455
Al1 O3 1.914778 1_555
Al1 O0 1.914781 1_445
Al1 O2 1.943823 1_555
Al1 O7 1.943848 1_445
Al1 O4 1.944308 1_545
Al1 O6 1.944334 1_455
Ni0 O3 1.869171 1_555
Ni0 O5 1.869205 1_556
Ni0 O7 1.917852 1_556
Ni0 O4 1.917948 1_555
Ni1 O0 1.869171 1_555
Ni1 O1 1.869204 1_554
Ni1 O2 1.917933 1_554
Ni1 O6 1.917966 1_555
Ni2 O1 2.019101 1_555
Ni2 O5 2.019181 1_545
Ni2 O3 2.020246 1_555
Ni2 O0 2.020247 1_545
Ni2 O6 2.043846 1_555
Ni2 O4 2.044058 1_545
Ni3 O0 2.019078 1_455
Ni3 O3 2.019214 1_566
Ni3 O5 2.020048 1_556
Ni3 O1 2.020224 1_465
Ni3 O2 2.044024 1_565
Ni3 O7 2.044029 1_456
