# generated using pymatgen
data_Zr(AsO5)2
_symmetry_space_group_name_H-M   'P 1'
_cell_length_a   6.97029800
_cell_length_b   5.65240900
_cell_length_c   13.11903213
_cell_angle_alpha   77.48917522
_cell_angle_beta   90.00000000
_cell_angle_gamma   90.00000000
_symmetry_Int_Tables_number   1
_chemical_formula_structural   Zr(AsO5)2
_chemical_formula_sum   'Zr2 As4 O20'
_cell_volume   504.60324098
_cell_formula_units_Z   2
loop_
 _symmetry_equiv_pos_site_id
 _symmetry_equiv_pos_as_xyz
  1  'x, y, z'
loop_
 _atom_site_type_symbol
 _atom_site_label
 _atom_site_symmetry_multiplicity
 _atom_site_fract_x
 _atom_site_fract_y
 _atom_site_fract_z
 _atom_site_occupancy
  Zr  Zr0  1  0.24469400  0.83428200  0.87053800  1
  Zr  Zr1  1  0.74469400  0.16571800  0.12946200  1
  As  As0  1  0.24713600  0.25048600  0.05513200  1
  As  As1  1  0.74713600  0.74951400  0.94486800  1
  As  As2  1  0.35370100  0.39790100  0.69712600  1
  As  As3  1  0.85370100  0.60209900  0.30287400  1
  O  O0  1  0.25074300  0.09506900  0.95668600  1
  O  O1  1  0.75074300  0.90493100  0.04331400  1
  O  O2  1  0.44497600  0.17869400  0.13251500  1
  O  O3  1  0.94497600  0.82130600  0.86748500  1
  O  O4  1  0.04744600  0.17561800  0.12984700  1
  O  O5  1  0.54744600  0.82438200  0.87015300  1
  O  O6  1  0.24550500  0.55430100  0.00150200  1
  O  O7  1  0.74550500  0.44569900  0.99849800  1
  O  O8  1  0.24843600  0.11960100  0.72715700  1
  O  O9  1  0.74843600  0.88039900  0.27284300  1
  O  O10  1  0.25773800  0.58826100  0.76713600  1
  O  O11  1  0.75773800  0.41173900  0.23286400  1
  O  O12  1  0.66702500  0.28634600  0.68995400  1
  O  O13  1  0.16702500  0.71365400  0.31004600  1
  O  O14  1  0.32422400  0.60735600  0.53275900  1
  O  O15  1  0.82422400  0.39264400  0.46724100  1
  O  O16  1  0.17550700  0.92193000  0.32766600  1
  O  O17  1  0.67550700  0.07807000  0.67233400  1
  O  O18  1  0.88957000  0.17944400  0.47917200  1
  O  O19  1  0.38957000  0.82055600  0.52082800  1
loop_
_geom_bond_atom_site_label_1
_geom_bond_atom_site_label_2
_geom_bond_distance
_geom_bond_site_symmetry_2
As0 O4 1.702212 1_555
As0 O2 1.708348 1_555
As0 O6 1.709021 1_555
As0 O0 1.712287 1_554
As1 O5 1.702212 1_555
As1 O3 1.708348 1_555
As1 O7 1.709021 1_555
As1 O1 1.712287 1_556
As2 O10 1.696146 1_555
As2 O8 1.702822 1_555
As2 O14 2.233299 1_555
As2 O12 2.280755 1_555
As3 O11 1.696146 1_555
As3 O9 1.702822 1_555
As3 O15 2.233299 1_555
As3 O13 2.280755 1_655
O0 Zr0 2.042977 1_545
O1 Zr1 2.042977 1_565
O2 Zr1 2.091099 1_555
O3 Zr0 2.091099 1_655
O4 Zr1 2.111049 1_455
O5 Zr0 2.111049 1_555
O6 Zr0 2.068446 1_554
O7 Zr1 2.068446 1_556
O8 Zr0 2.196713 1_545
O9 Zr1 2.196713 1_565
O10 Zr0 2.144653 1_555
O11 Zr1 2.144653 1_555
O12 O17 1.249309 1_555
O13 O16 1.249309 1_555
O14 O19 1.265896 1_555
O15 O18 1.265896 1_555
