# generated using pymatgen
data_Yb2Mo4O15
_symmetry_space_group_name_H-M   'P 1'
_cell_length_a   9.46854905
_cell_length_b   6.72156650
_cell_length_c   10.42100652
_cell_angle_alpha   74.83418117
_cell_angle_beta   90.00000000
_cell_angle_gamma   90.00000000
_symmetry_Int_Tables_number   1
_chemical_formula_structural   Yb2Mo4O15
_chemical_formula_sum   'Yb4 Mo8 O30'
_cell_volume   640.13068718
_cell_formula_units_Z   2
loop_
 _symmetry_equiv_pos_site_id
 _symmetry_equiv_pos_as_xyz
  1  'x, y, z'
loop_
 _atom_site_type_symbol
 _atom_site_label
 _atom_site_symmetry_multiplicity
 _atom_site_fract_x
 _atom_site_fract_y
 _atom_site_fract_z
 _atom_site_occupancy
  Yb  Yb0  1  0.52231155  0.71213548  0.22381542  1
  Yb  Yb1  1  0.47768845  0.28786452  0.77618458  1
  Yb  Yb2  1  0.02231155  0.28786452  0.27618458  1
  Yb  Yb3  1  0.97768845  0.71213548  0.72381542  1
  Mo  Mo0  1  0.74346292  0.42084264  0.01012950  1
  Mo  Mo1  1  0.25653708  0.57915736  0.98987050  1
  Mo  Mo2  1  0.24346292  0.57915736  0.48987050  1
  Mo  Mo3  1  0.75653708  0.42084264  0.51012950  1
  Mo  Mo4  1  0.90339529  0.87944567  0.15767421  1
  Mo  Mo5  1  0.09660471  0.12055433  0.84232579  1
  Mo  Mo6  1  0.40339529  0.12055433  0.34232579  1
  Mo  Mo7  1  0.59660471  0.87944567  0.65767421  1
  O  O0  1  0.71999727  0.88710387  0.14731009  1
  O  O1  1  0.28000273  0.11289613  0.85268991  1
  O  O2  1  0.21999727  0.11289613  0.35268991  1
  O  O3  1  0.78000273  0.88710387  0.64731009  1
  O  O4  1  0.62394027  0.52568422  0.10258571  1
  O  O5  1  0.37605973  0.47431578  0.89741429  1
  O  O6  1  0.12394027  0.47431578  0.39741429  1
  O  O7  1  0.87605973  0.52568422  0.60258571  1
  O  O8  1  0.34696582  0.72039746  0.08407568  1
  O  O9  1  0.65303418  0.27960254  0.91592432  1
  O  O10  1  0.84696582  0.27960254  0.41592432  1
  O  O11  1  0.15303418  0.72039746  0.58407568  1
  O  O12  1  0.00000000  0.00000000  0.00000000  1
  O  O13  1  0.50000000  0.00000000  0.50000000  1
  O  O14  1  0.66526647  0.62224528  0.39884697  1
  O  O15  1  0.33473353  0.37775472  0.60115303  1
  O  O16  1  0.16526647  0.37775472  0.10115303  1
  O  O17  1  0.83473353  0.62224528  0.89884697  1
  O  O18  1  0.97094820  0.94837730  0.29612288  1
  O  O19  1  0.02905180  0.05162270  0.70387712  1
  O  O20  1  0.47094820  0.05162270  0.20387712  1
  O  O21  1  0.52905180  0.94837730  0.79612288  1
  O  O22  1  0.94398873  0.61907767  0.18418378  1
  O  O23  1  0.05601127  0.38092233  0.81581622  1
  O  O24  1  0.44398873  0.38092233  0.31581622  1
  O  O25  1  0.55601127  0.61907767  0.68418378  1
  O  O26  1  0.86497706  0.25501664  0.11883739  1
  O  O27  1  0.13502294  0.74498336  0.88116261  1
  O  O28  1  0.36497706  0.74498336  0.38116261  1
  O  O29  1  0.63502294  0.25501664  0.61883739  1
loop_
_geom_bond_atom_site_label_1
_geom_bond_atom_site_label_2
_geom_bond_distance
_geom_bond_site_symmetry_2
Mo0 O4 1.749549 1_555
Mo0 O9 1.756646 1_554
Mo0 O17 1.761503 1_554
Mo0 O26 1.785727 1_555
Mo1 O5 1.749549 1_555
Mo1 O8 1.756646 1_556
Mo1 O16 1.761503 1_556
Mo1 O27 1.785727 1_555
Mo2 O6 1.749549 1_555
Mo2 O11 1.756646 1_555
Mo2 O15 1.761503 1_555
Mo2 O28 1.785727 1_555
Mo3 O7 1.749549 1_555
Mo3 O10 1.756646 1_555
Mo3 O14 1.761503 1_555
Mo3 O29 1.785727 1_555
Mo4 O0 1.739794 1_555
Mo4 O22 1.741801 1_555
Mo4 O18 1.747902 1_555
Mo4 O12 1.869894 1_665
Mo4 O26 2.476747 1_565
Mo5 O1 1.739794 1_555
Mo5 O23 1.741801 1_555
Mo5 O19 1.747902 1_555
Mo5 O12 1.869894 1_556
Mo5 O27 2.476747 1_545
Mo6 O2 1.739794 1_555
Mo6 O24 1.741801 1_555
Mo6 O20 1.747902 1_555
Mo6 O13 1.869894 1_555
Mo6 O28 2.476747 1_545
Mo7 O3 1.739794 1_555
Mo7 O25 1.741801 1_555
Mo7 O21 1.747902 1_555
Mo7 O13 1.869894 1_565
Mo7 O29 2.476747 1_565
O0 Yb0 2.243163 1_555
O1 Yb1 2.243163 1_555
O2 Yb2 2.243163 1_555
O3 Yb3 2.243163 1_555
O4 Yb0 2.218338 1_555
O5 Yb1 2.218338 1_555
O6 Yb2 2.218338 1_555
O7 Yb3 2.218338 1_555
O8 Yb0 2.199515 1_555
O9 Yb1 2.199515 1_555
O10 Yb2 2.199515 1_655
O11 Yb3 2.199515 1_455
O14 Yb0 2.224318 1_555
O15 Yb1 2.224318 1_555
O16 Yb2 2.224318 1_555
O17 Yb3 2.224318 1_555
O18 Yb2 2.288804 1_665
O19 Yb3 2.288804 1_445
O20 Yb0 2.288804 1_545
O21 Yb1 2.288804 1_565
O22 Yb2 2.304053 1_655
O23 Yb3 2.304053 1_455
O24 Yb0 2.304053 1_555
O25 Yb1 2.304053 1_555
O26 Yb2 2.268509 1_655
O27 Yb3 2.268509 1_455
O28 Yb0 2.268509 1_555
O29 Yb1 2.268509 1_555
