# generated using pymatgen
data_NdCoSb2
_symmetry_space_group_name_H-M   'P 1'
_cell_length_a   4.38998100
_cell_length_b   4.38998100
_cell_length_c   9.85992700
_cell_angle_alpha   90.00000000
_cell_angle_beta   90.00000000
_cell_angle_gamma   90.00000000
_symmetry_Int_Tables_number   1
_chemical_formula_structural   NdCoSb2
_chemical_formula_sum   'Nd2 Co2 Sb4'
_cell_volume   190.01985431
_cell_formula_units_Z   2
loop_
 _symmetry_equiv_pos_site_id
 _symmetry_equiv_pos_as_xyz
  1  'x, y, z'
loop_
 _atom_site_type_symbol
 _atom_site_label
 _atom_site_symmetry_multiplicity
 _atom_site_fract_x
 _atom_site_fract_y
 _atom_site_fract_z
 _atom_site_occupancy
  Nd  Nd0  1  0.00000000  0.50000000  0.74399800  1
  Nd  Nd1  1  0.50000000  0.00000000  0.25600200  1
  Co  Co0  1  0.50000000  0.50000000  0.50000000  1
  Co  Co1  1  0.00000000  0.00000000  0.50000000  1
  Sb  Sb0  1  0.50000000  0.50000000  0.00000000  1
  Sb  Sb1  1  0.00000000  0.00000000  0.00000000  1
  Sb  Sb2  1  0.00000000  0.50000000  0.36610800  1
  Sb  Sb3  1  0.50000000  0.00000000  0.63389200  1
loop_
_geom_bond_atom_site_label_1
_geom_bond_atom_site_label_2
_geom_bond_distance
_geom_bond_site_symmetry_2
Nd0 Sb3 3.288552 1_555
Nd0 Sb3 3.288552 1_455
Nd0 Sb3 3.288552 1_565
Nd0 Sb3 3.288552 1_465
Nd0 Sb0 3.345052 1_556
Nd0 Sb1 3.345052 1_556
Nd0 Sb0 3.345052 1_456
Nd0 Sb1 3.345052 1_566
Nd1 Sb2 3.288552 1_655
Nd1 Sb2 3.288552 1_645
Nd1 Sb2 3.288552 1_545
Nd1 Sb2 3.288552 1_555
Nd1 Sb0 3.345052 1_545
Nd1 Sb1 3.345052 1_655
Nd1 Sb1 3.345052 1_555
Nd1 Sb0 3.345052 1_555
Co0 Sb3 2.561410 1_565
Co0 Sb2 2.561410 1_555
Co0 Sb3 2.561410 1_555
Co0 Sb2 2.561410 1_655
Co0 Nd0 3.256665 1_655
Co0 Nd0 3.256665 1_555
Co0 Nd1 3.256665 1_555
Co0 Nd1 3.256665 1_565
Co1 Sb3 2.561410 1_455
Co1 Sb2 2.561410 1_545
Co1 Sb2 2.561410 1_555
Co1 Sb3 2.561410 1_555
Co1 Nd0 3.256665 1_545
Co1 Nd0 3.256665 1_555
Co1 Nd1 3.256665 1_555
Co1 Nd1 3.256665 1_455
Sb0 Sb1 3.104185 1_555
Sb0 Sb1 3.104185 1_665
Sb0 Sb1 3.104185 1_565
Sb0 Sb1 3.104185 1_655
