# generated using pymatgen
data_BaSrCeWO6
_symmetry_space_group_name_H-M   'P 1'
_cell_length_a   6.03952001
_cell_length_b   6.06884434
_cell_length_c   8.51196633
_cell_angle_alpha   90.05478749
_cell_angle_beta   90.24352553
_cell_angle_gamma   90.04359540
_symmetry_Int_Tables_number   1
_chemical_formula_structural   BaSrCeWO6
_chemical_formula_sum   'Ba2 Sr2 Ce2 W2 O12'
_cell_volume   311.98525677
_cell_formula_units_Z   2
loop_
 _symmetry_equiv_pos_site_id
 _symmetry_equiv_pos_as_xyz
  1  'x, y, z'
loop_
 _atom_site_type_symbol
 _atom_site_label
 _atom_site_symmetry_multiplicity
 _atom_site_fract_x
 _atom_site_fract_y
 _atom_site_fract_z
 _atom_site_occupancy
  Ba  Ba0  1  0.50736959  0.52590789  0.24969665  1
  Ba  Ba1  1  0.49263041  0.47409211  0.75030335  1
  Sr  Sr0  1  0.99246456  0.03513750  0.25091357  1
  Sr  Sr1  1  0.00753544  0.96486250  0.74908643  1
  Ce  Ce0  1  -0.00000000  0.50000000  -0.00000000  1
  Ce  Ce1  1  0.50000000  0.00000000  0.50000000  1
  W  W0  1  0.50000000  0.00000000  -0.00000000  1
  W  W1  1  -0.00000000  0.50000000  0.50000000  1
  O  O0  1  0.21834107  0.20870390  0.96052892  1
  O  O1  1  0.27307745  0.71902710  0.53229454  1
  O  O2  1  0.78165893  0.79129610  0.03947108  1
  O  O3  1  0.72692255  0.28097290  0.46770546  1
  O  O4  1  0.29068708  0.73471305  0.96516635  1
  O  O5  1  0.19837348  0.22558597  0.53869713  1
  O  O6  1  0.70931292  0.26528695  0.03483365  1
  O  O7  1  0.80162652  0.77441403  0.46130287  1
  O  O8  1  0.42047856  0.99722306  0.23708014  1
  O  O9  1  0.05857893  0.47253120  0.26225453  1
  O  O10  1  0.57952144  0.00277694  0.76291986  1
  O  O11  1  0.94142107  0.52746880  0.73774547  1
loop_
_geom_bond_atom_site_label_1
_geom_bond_atom_site_label_2
_geom_bond_distance
_geom_bond_site_symmetry_2
Ba0 O6 2.711173 1_555
Ba0 O3 2.720070 1_555
Ba0 O9 2.732079 1_555
Ba0 O8 2.910473 1_555
Ba0 O2 2.926943 1_555
Ba0 O7 2.939493 1_555
Ba0 O4 3.027459 1_554
Ba0 O1 3.031203 1_555
Ba0 O8 3.252343 1_545
Ba0 O9 3.346274 1_655
Ba1 O4 2.711173 1_555
Ba1 O1 2.720070 1_555
Ba1 O11 2.732079 1_555
Ba1 O10 2.910473 1_555
Ba1 O0 2.926943 1_555
Ba1 O5 2.939493 1_555
Ba1 O6 3.027459 1_556
Ba1 O3 3.031203 1_555
Ba1 O10 3.252343 1_565
Ba1 O11 3.346274 1_455
Ce0 O0 2.232305 1_554
Ce0 O2 2.232305 1_455
Ce0 O9 2.264998 1_555
Ce0 O11 2.264998 1_454
Ce0 O4 2.280467 1_554
Ce0 O6 2.280467 1_455
Ce1 O3 2.205001 1_555
Ce1 O1 2.205001 1_545
Ce1 O10 2.286965 1_555
Ce1 O8 2.286965 1_545
Ce1 O5 2.304199 1_555
Ce1 O7 2.304199 1_545
O0 W0 2.147105 1_556
O0 Sr1 2.650032 1_545
O0 Sr0 3.018529 1_456
O1 W1 2.134152 1_555
O1 Sr1 2.868211 1_555
O2 W0 2.147105 1_565
O2 Sr0 2.650032 1_565
O2 Sr1 3.018529 1_654
O3 W1 2.134152 1_655
O3 Sr0 2.868211 1_555
O4 W0 2.066602 1_566
O4 Sr1 2.870546 1_555
O5 W1 2.078004 1_555
O5 Sr1 2.656936 1_545
O5 Sr0 2.974804 1_455
O6 W0 2.066602 1_555
O6 Sr0 2.870546 1_555
O7 W1 2.078004 1_655
O7 Sr0 2.656936 1_565
O7 Sr1 2.974804 1_655
O8 W0 2.076447 1_565
O8 Sr0 2.598552 1_465
O9 W1 2.062468 1_555
O9 Sr0 2.685621 1_455
O10 W0 2.076447 1_556
O10 Sr1 2.598552 1_645
O11 W1 2.062468 1_655
O11 Sr1 2.685621 1_655
