# generated using pymatgen
data_Ce2AlSi2O9
_symmetry_space_group_name_H-M   'P 1'
_cell_length_a   5.69586900
_cell_length_b   7.83923600
_cell_length_c   16.56148410
_cell_angle_alpha   68.00156392
_cell_angle_beta   90.00000000
_cell_angle_gamma   90.00000000
_symmetry_Int_Tables_number   1
_chemical_formula_structural   Ce2AlSi2O9
_chemical_formula_sum   'Ce8 Al4 Si8 O36'
_cell_volume   685.65181990
_cell_formula_units_Z   4
loop_
 _symmetry_equiv_pos_site_id
 _symmetry_equiv_pos_as_xyz
  1  'x, y, z'
loop_
 _atom_site_type_symbol
 _atom_site_label
 _atom_site_symmetry_multiplicity
 _atom_site_fract_x
 _atom_site_fract_y
 _atom_site_fract_z
 _atom_site_occupancy
  Ce  Ce0  1  0.20641100  0.22618600  0.93899200  1
  Ce  Ce1  1  0.70641100  0.77381400  0.56100800  1
  Ce  Ce2  1  0.79358900  0.77381400  0.06100800  1
  Ce  Ce3  1  0.29358900  0.22618600  0.43899200  1
  Ce  Ce4  1  0.29844700  0.80979100  0.86279600  1
  Ce  Ce5  1  0.79844700  0.19020900  0.63720400  1
  Ce  Ce6  1  0.70155300  0.19020900  0.13720400  1
  Ce  Ce7  1  0.20155300  0.80979100  0.36279600  1
  Al  Al0  1  0.99711300  0.51079600  0.74856400  1
  Al  Al1  1  0.49711300  0.48920400  0.75143600  1
  Al  Al2  1  0.00288700  0.48920400  0.25143600  1
  Al  Al3  1  0.50288700  0.51079600  0.24856400  1
  Si  Si0  1  0.74926500  0.51448800  0.91722100  1
  Si  Si1  1  0.24926500  0.48551200  0.58277900  1
  Si  Si2  1  0.25073500  0.48551200  0.08277900  1
  Si  Si3  1  0.75073500  0.51448800  0.41722100  1
  Si  Si4  1  0.72617900  0.08639600  0.84580200  1
  Si  Si5  1  0.22617900  0.91360400  0.65419800  1
  Si  Si6  1  0.27382100  0.91360400  0.15419800  1
  Si  Si7  1  0.77382100  0.08639600  0.34580200  1
  O  O0  1  0.68285900  0.66834200  0.95812800  1
  O  O1  1  0.18285900  0.33165800  0.54187200  1
  O  O2  1  0.31714100  0.33165800  0.04187200  1
  O  O3  1  0.81714100  0.66834200  0.45812800  1
  O  O4  1  0.80763700  0.30970900  0.99088600  1
  O  O5  1  0.30763700  0.69029100  0.50911400  1
  O  O6  1  0.19236300  0.69029100  0.00911400  1
  O  O7  1  0.69236300  0.30970900  0.49088600  1
  O  O8  1  0.50786200  0.52331100  0.86022100  1
  O  O9  1  0.00786200  0.47668900  0.63977900  1
  O  O10  1  0.49213800  0.47668900  0.13977900  1
  O  O11  1  0.99213800  0.52331100  0.36022100  1
  O  O12  1  0.99134500  0.56057900  0.85721400  1
  O  O13  1  0.49134500  0.43942100  0.64278600  1
  O  O14  1  0.00865500  0.43942100  0.14278600  1
  O  O15  1  0.50865500  0.56057900  0.35721400  1
  O  O16  1  0.66729300  0.99666300  0.77307200  1
  O  O17  1  0.16729300  0.00333700  0.72692800  1
  O  O18  1  0.33270700  0.00333700  0.22692800  1
  O  O19  1  0.83270700  0.99666300  0.27307200  1
  O  O20  1  0.75344100  0.31185500  0.79199700  1
  O  O21  1  0.25344100  0.68814500  0.70800300  1
  O  O22  1  0.24655900  0.68814500  0.20800300  1
  O  O23  1  0.74655900  0.31185500  0.29199700  1
  O  O24  1  0.96406800  0.00849700  0.90535600  1
  O  O25  1  0.46406800  0.99150300  0.59464400  1
  O  O26  1  0.03593200  0.99150300  0.09464400  1
  O  O27  1  0.53593200  0.00849700  0.40535600  1
  O  O28  1  0.49438100  0.03197300  0.91052300  1
  O  O29  1  0.99438100  0.96802700  0.58947700  1
  O  O30  1  0.50561900  0.96802700  0.08947700  1
  O  O31  1  0.00561900  0.03197300  0.41052300  1
  O  O32  1  0.73690500  0.65562800  0.70370300  1
  O  O33  1  0.23690500  0.34437200  0.79629700  1
  O  O34  1  0.26309500  0.34437200  0.29629700  1
  O  O35  1  0.76309500  0.65562800  0.20370300  1
loop_
_geom_bond_atom_site_label_1
_geom_bond_atom_site_label_2
_geom_bond_distance
_geom_bond_site_symmetry_2
Ce0 O33 2.198444 1_555
Ce0 O2 2.244974 1_556
Ce0 O28 2.401752 1_555
Ce0 O24 2.416624 1_455
Ce0 O4 2.597694 1_455
Ce0 O26 2.723930 1_546
Ce0 O12 2.747144 1_455
Ce0 O8 2.792662 1_555
Ce0 O30 3.071295 1_546
Ce1 O32 2.198444 1_555
Ce1 O3 2.244974 1_555
Ce1 O29 2.401752 1_555
Ce1 O25 2.416624 1_555
Ce1 O5 2.597694 1_555
Ce1 O27 2.723930 1_565
Ce1 O13 2.747144 1_555
Ce1 O9 2.792662 1_655
Ce1 O31 3.071295 1_665
Ce2 O35 2.198444 1_555
Ce2 O0 2.244974 1_554
Ce2 O30 2.401752 1_555
Ce2 O26 2.416624 1_655
Ce2 O6 2.597694 1_655
Ce2 O24 2.723930 1_564
Ce2 O14 2.747144 1_655
Ce2 O10 2.792662 1_555
Ce2 O28 3.071295 1_564
Ce3 O34 2.198444 1_555
Ce3 O1 2.244974 1_555
Ce3 O31 2.401752 1_555
Ce3 O27 2.416624 1_555
Ce3 O7 2.597694 1_555
Ce3 O25 2.723930 1_545
Ce3 O15 2.747144 1_555
Ce3 O11 2.792662 1_455
Ce3 O29 3.071295 1_445
Ce4 O17 2.316399 1_565
Ce4 O6 2.326830 1_556
Ce4 O28 2.436248 1_565
Ce4 O8 2.557321 1_555
Ce4 O12 2.649579 1_455
Ce4 O16 2.671532 1_555
Ce4 O0 2.684195 1_555
Ce4 O24 2.715370 1_465
Ce5 O16 2.316399 1_545
Ce5 O7 2.326830 1_555
Ce5 O29 2.436248 1_545
Ce5 O9 2.557321 1_655
Ce5 O13 2.649579 1_555
Ce5 O17 2.671532 1_655
Ce5 O1 2.684195 1_655
Ce5 O25 2.715370 1_545
Ce6 O19 2.316399 1_545
Ce6 O4 2.326830 1_554
Ce6 O30 2.436248 1_545
Ce6 O10 2.557321 1_555
Ce6 O14 2.649579 1_655
Ce6 O18 2.671532 1_555
Ce6 O2 2.684195 1_555
Ce6 O26 2.715370 1_645
Ce7 O18 2.316399 1_565
Ce7 O5 2.326830 1_555
Ce7 O31 2.436248 1_565
Ce7 O11 2.557321 1_455
Ce7 O15 2.649579 1_555
Ce7 O19 2.671532 1_455
Ce7 O3 2.684195 1_455
Ce7 O27 2.715370 1_565
Al0 O32 1.845473 1_555
Al0 O33 1.849280 1_655
Al0 O9 1.918861 1_655
Al0 O21 1.953484 1_655
Al0 O12 1.979225 1_555
Al0 O20 2.008859 1_555
Al1 O33 1.845473 1_555
Al1 O32 1.849280 1_555
Al1 O8 1.918861 1_555
Al1 O20 1.953484 1_555
Al1 O13 1.979225 1_555
Al1 O21 2.008859 1_555
Al2 O34 1.845473 1_555
Al2 O35 1.849280 1_455
Al2 O11 1.918861 1_455
Al2 O23 1.953484 1_455
Al2 O14 1.979225 1_555
Al2 O22 2.008859 1_555
Al3 O35 1.845473 1_555
Al3 O34 1.849280 1_555
Al3 O10 1.918861 1_555
Al3 O22 1.953484 1_555
Al3 O15 1.979225 1_555
Al3 O23 2.008859 1_555
O0 Si0 1.633666 1_555
O1 Si1 1.633666 1_555
O2 Si2 1.633666 1_555
O3 Si3 1.633666 1_555
O4 Si0 1.645828 1_555
O5 Si1 1.645828 1_555
O6 Si2 1.645828 1_555
O7 Si3 1.645828 1_555
O8 Si0 1.654581 1_555
O9 Si1 1.654581 1_555
O10 Si2 1.654581 1_555
O11 Si3 1.654581 1_555
O12 Si0 1.658443 1_555
O13 Si1 1.658443 1_555
O14 Si2 1.658443 1_555
O15 Si3 1.658443 1_555
O16 Si4 1.641021 1_565
O17 Si5 1.641021 1_545
O18 Si6 1.641021 1_545
O19 Si7 1.641021 1_565
O20 Si4 1.661947 1_555
O21 Si5 1.661947 1_555
O22 Si6 1.661947 1_555
O23 Si7 1.661947 1_555
O24 Si4 1.652413 1_555
O25 Si5 1.652413 1_555
O26 Si6 1.652413 1_555
O27 Si7 1.652413 1_555
O28 Si4 1.652729 1_555
O29 Si5 1.652729 1_655
O30 Si6 1.652729 1_555
O31 Si7 1.652729 1_455
