# generated using pymatgen
data_Rb2LiVO4
_symmetry_space_group_name_H-M   'P 1'
_cell_length_a   6.53821624
_cell_length_b   6.53821624
_cell_length_c   7.87547292
_cell_angle_alpha   90.00000000
_cell_angle_beta   90.00000000
_cell_angle_gamma   126.77617024
_symmetry_Int_Tables_number   1
_chemical_formula_structural   Rb2LiVO4
_chemical_formula_sum   'Rb4 Li2 V2 O8'
_cell_volume   269.66036196
_cell_formula_units_Z   2
loop_
 _symmetry_equiv_pos_site_id
 _symmetry_equiv_pos_as_xyz
  1  'x, y, z'
loop_
 _atom_site_type_symbol
 _atom_site_label
 _atom_site_symmetry_multiplicity
 _atom_site_fract_x
 _atom_site_fract_y
 _atom_site_fract_z
 _atom_site_occupancy
  Rb  Rb0  1  0.39578086  0.60421914  0.54931261  1
  Rb  Rb1  1  0.60421914  0.39578086  0.04931261  1
  Rb  Rb2  1  0.06237862  0.93762138  0.41071800  1
  Rb  Rb3  1  0.93762138  0.06237862  0.91071800  1
  Li  Li0  1  0.20120950  0.79879050  0.82920338  1
  Li  Li1  1  0.79879050  0.20120950  0.32920338  1
  V  V0  1  0.69105263  0.30894737  0.61076037  1
  V  V1  1  0.30894737  0.69105263  0.11076037  1
  O  O0  1  0.11449638  0.40638617  0.21772492  1
  O  O1  1  0.88550362  0.59361383  0.71772492  1
  O  O2  1  0.36537342  0.63462658  0.90876225  1
  O  O3  1  0.63462658  0.36537342  0.40876225  1
  O  O4  1  0.59361383  0.88550362  0.21772492  1
  O  O5  1  0.40638617  0.11449638  0.71772492  1
  O  O6  1  0.83703968  0.16296032  0.57709255  1
  O  O7  1  0.16296032  0.83703968  0.07709255  1
loop_
_geom_bond_atom_site_label_1
_geom_bond_atom_site_label_2
_geom_bond_distance
_geom_bond_site_symmetry_2
Li0 O1 1.874971 1_455
Li0 O5 1.874971 1_565
Li0 O7 2.002804 1_556
Li0 O2 2.018947 1_555
Li1 O4 1.874971 1_545
Li1 O0 1.874971 1_655
Li1 O6 2.002804 1_555
Li1 O3 2.018947 1_555
O0 V1 1.719526 1_555
O0 Rb0 3.004407 1_555
O0 Rb3 3.021200 1_454
O0 Rb2 3.251038 1_545
O1 V0 1.719526 1_555
O1 Rb1 3.004407 1_556
O1 Rb2 3.021200 1_655
O1 Rb3 3.251038 1_565
O2 V1 1.722186 1_556
O2 Rb0 2.853070 1_555
O2 Rb1 3.003763 1_556
O2 Rb3 3.048169 1_455
O2 Rb3 3.048169 1_565
O3 V0 1.722186 1_555
O3 Rb1 2.853070 1_555
O3 Rb0 3.003763 1_555
O3 Rb2 3.048169 1_545
O3 Rb2 3.048169 1_655
O4 V1 1.719526 1_555
O4 Rb0 3.004407 1_555
O4 Rb3 3.021200 1_564
O4 Rb2 3.251038 1_655
O5 V0 1.719526 1_555
O5 Rb1 3.004407 1_556
O5 Rb2 3.021200 1_545
O5 Rb3 3.251038 1_455
O6 V0 1.727227 1_555
O6 Rb3 2.878595 1_555
O6 Rb2 2.942320 1_645
O6 Rb0 3.016146 1_655
O6 Rb0 3.016146 1_545
O7 V1 1.727227 1_555
O7 Rb2 2.878595 1_555
O7 Rb3 2.942320 1_464
O7 Rb1 3.016146 1_565
O7 Rb1 3.016146 1_455
