# generated using pymatgen
data_Ho4(Al8Pd3)3
_symmetry_space_group_name_H-M   'P 1'
_cell_length_a   7.49304666
_cell_length_b   7.50915113
_cell_length_c   13.07993833
_cell_angle_alpha   84.56427127
_cell_angle_beta   79.05059301
_cell_angle_gamma   59.92457737
_symmetry_Int_Tables_number   1
_chemical_formula_structural   Ho4(Al8Pd3)3
_chemical_formula_sum   'Ho4 Al24 Pd9'
_cell_volume   625.28199166
_cell_formula_units_Z   1
loop_
 _symmetry_equiv_pos_site_id
 _symmetry_equiv_pos_as_xyz
  1  'x, y, z'
loop_
 _atom_site_type_symbol
 _atom_site_label
 _atom_site_symmetry_multiplicity
 _atom_site_fract_x
 _atom_site_fract_y
 _atom_site_fract_z
 _atom_site_occupancy
  Ho  Ho0  1  0.39375934  0.16820290  0.80851732  1
  Ho  Ho1  1  0.60624066  0.83179710  0.19148268  1
  Ho  Ho2  1  0.73363843  0.49827382  0.80850586  1
  Ho  Ho3  1  0.26636157  0.50172618  0.19149414  1
  Al  Al0  1  0.68449711  0.83364199  0.94488548  1
  Al  Al1  1  0.31550289  0.16635801  0.05511452  1
  Al  Al2  1  0.14613068  0.83300951  0.56162534  1
  Al  Al3  1  0.85386932  0.16699049  0.43837466  1
  Al  Al4  1  0.47963335  0.16672439  0.55976857  1
  Al  Al5  1  0.52036665  0.83327561  0.44023143  1
  Al  Al6  1  0.21713844  0.16536805  0.32923666  1
  Al  Al7  1  0.78286156  0.83463195  0.67076334  1
  Al  Al8  1  0.43658471  0.50702744  0.67096681  1
  Al  Al9  1  0.56341529  0.49297256  0.32903319  1
  Al  Al10  1  0.10946030  0.15944149  0.66954236  1
  Al  Al11  1  0.89053970  0.84055851  0.33045764  1
  Al  Al12  1  0.35207567  0.49995244  0.94490005  1
  Al  Al13  1  0.64792433  0.50004756  0.05509995  1
  Al  Al14  1  0.01486973  0.16715660  0.95518347  1
  Al  Al15  1  0.98513027  0.83284340  0.04481653  1
  Al  Al16  1  0.18692450  0.49969785  0.44030129  1
  Al  Al17  1  0.81307550  0.50030215  0.55969871  1
  Al  Al18  1  0.73372993  0.16384933  0.18361449  1
  Al  Al19  1  0.26627007  0.83615067  0.81638551  1
  Al  Al20  1  0.06162037  0.63070537  0.81491482  1
  Al  Al21  1  0.93837963  0.36929463  0.18508518  1
  Al  Al22  1  0.85537978  0.04161817  0.81626236  1
  Al  Al23  1  0.14462022  0.95838183  0.18373764  1
  Pd  Pd0  1  0.12005350  0.49226207  0.63844376  1
  Pd  Pd1  1  0.87994650  0.50773793  0.36155624  1
  Pd  Pd2  1  0.65645594  0.17172580  0.99999058  1
  Pd  Pd3  1  0.34354406  0.82827420  0.00000942  1
  Pd  Pd4  1  0.53806058  0.16677904  0.36161725  1
  Pd  Pd5  1  0.46193942  0.83322096  0.63838275  1
  Pd  Pd6  1  0.77868480  0.17477421  0.63791407  1
  Pd  Pd7  1  0.22131520  0.82522579  0.36208593  1
  Pd  Pd8  1  -0.00000000  0.50000000  0.00000000  1
loop_
_geom_bond_atom_site_label_1
_geom_bond_atom_site_label_2
_geom_bond_distance
_geom_bond_site_symmetry_2
Ho0 Pd0 3.283565 1_555
Ho0 Pd5 3.298668 1_545
Ho0 Pd6 3.313262 1_555
Ho0 Pd2 3.476361 1_555
Ho0 Pd8 3.491841 1_556
Ho0 Pd3 3.510569 1_546
Ho1 Pd1 3.283565 1_555
Ho1 Pd4 3.298668 1_565
Ho1 Pd7 3.313262 1_555
Ho1 Pd3 3.476361 1_555
Ho1 Pd8 3.491841 1_655
Ho1 Pd2 3.510569 1_564
Ho2 Pd0 3.282504 1_655
Ho2 Pd6 3.303456 1_555
Ho2 Pd5 3.309183 1_555
Ho2 Pd3 3.477590 1_556
Ho2 Pd8 3.491198 1_656
Ho2 Pd2 3.511104 1_555
Ho3 Pd1 3.282504 1_455
Ho3 Pd7 3.303456 1_555
Ho3 Pd4 3.309183 1_555
Ho3 Pd2 3.477590 1_554
Ho3 Pd8 3.491198 1_555
Ho3 Pd3 3.511104 1_555
Al0 Pd3 2.538961 1_556
Al0 Pd8 2.598899 1_656
Al0 Pd2 2.600631 1_565
Al0 Ho2 3.054802 1_555
Al0 Ho0 3.062782 1_565
Al0 Ho1 3.166845 1_556
Al1 Pd2 2.538961 1_554
Al1 Pd8 2.598899 1_555
Al1 Pd3 2.600631 1_545
Al1 Ho3 3.054802 1_555
Al1 Ho1 3.062782 1_545
Al1 Ho0 3.166845 1_554
Al2 Pd7 2.563208 1_555
Al2 Pd5 2.741219 1_555
Al2 Pd6 2.742622 1_465
Al2 Pd0 2.744862 1_555
Al3 Pd6 2.563208 1_555
Al3 Pd4 2.741219 1_555
Al3 Pd7 2.742622 1_645
Al3 Pd1 2.744862 1_555
Al4 Pd4 2.545203 1_555
Al4 Pd6 2.662178 1_555
Al4 Pd0 2.667593 1_555
Al4 Pd5 2.672019 1_545
Al4 Ho0 3.194458 1_555
Al5 Pd5 2.545203 1_555
Al5 Pd7 2.662178 1_555
Al5 Pd1 2.667593 1_555
Al5 Pd4 2.672019 1_565
Al5 Ho1 3.194458 1_555
Al6 Pd4 2.524934 1_555
Al6 Pd7 2.535053 1_545
Al6 Pd1 2.541980 1_455
Al6 Ho1 3.092088 1_545
Al6 Ho3 3.095260 1_555
Al7 Pd5 2.524934 1_555
Al7 Pd6 2.535053 1_565
Al7 Pd0 2.541980 1_655
Al7 Ho0 3.092088 1_565
Al7 Ho2 3.095260 1_555
Al8 Pd6 2.521078 1_555
Al8 Pd5 2.540738 1_555
Al8 Pd0 2.544486 1_555
Al8 Ho0 3.089504 1_555
Al8 Ho2 3.089854 1_555
Al9 Pd7 2.521078 1_555
Al9 Pd4 2.540738 1_555
Al9 Pd1 2.544486 1_555
Al9 Ho1 3.089504 1_555
Al9 Ho3 3.089854 1_555
Al10 Pd0 2.532138 1_555
Al10 Pd6 2.534150 1_455
Al10 Pd5 2.537344 1_545
Al10 Ho2 3.075389 1_455
Al10 Ho0 3.079104 1_555
Al11 Pd1 2.532138 1_555
Al11 Pd7 2.534150 1_655
Al11 Pd4 2.537344 1_565
Al11 Ho3 3.075389 1_655
Al11 Ho1 3.079104 1_555
Al12 Pd2 2.539576 1_555
Al12 Pd8 2.599215 1_556
Al12 Pd3 2.600612 1_556
Al12 Ho0 3.055497 1_555
Al12 Ho2 3.063929 1_555
Al12 Ho3 3.166815 1_556
Al13 Pd3 2.539576 1_555
Al13 Pd8 2.599215 1_655
Al13 Pd2 2.600612 1_554
Al13 Ho1 3.055497 1_555
Al13 Ho3 3.063929 1_555
Al13 Ho2 3.166815 1_554
Al14 Pd8 2.564479 1_556
Al14 Pd3 2.620903 1_546
Al14 Pd2 2.621201 1_455
Al14 Ho2 3.111944 1_455
Al14 Ho0 3.113022 1_555
Al15 Pd8 2.564479 1_655
Al15 Pd2 2.620903 1_564
Al15 Pd3 2.621201 1_655
Al15 Ho3 3.111944 1_655
Al15 Ho1 3.113022 1_555
Al16 Pd0 2.545261 1_555
Al16 Pd4 2.664158 1_555
Al16 Pd1 2.665420 1_455
Al16 Pd7 2.673148 1_555
Al16 Ho3 3.195208 1_555
Al17 Pd1 2.545261 1_555
Al17 Pd5 2.664158 1_555
Al17 Pd0 2.665420 1_655
Al17 Pd6 2.673148 1_555
Al17 Ho2 3.195208 1_555
Al18 Pd4 2.500305 1_555
Al18 Pd2 2.564061 1_554
Al18 Ho1 3.072743 1_545
Al18 Ho3 3.117518 1_555
Al19 Pd5 2.500305 1_555
Al19 Pd3 2.564061 1_556
Al19 Ho0 3.072743 1_565
Al19 Ho2 3.117518 1_555
Al20 Pd0 2.492964 1_555
Al20 Pd8 2.572292 1_556
Al20 Ho0 3.094415 1_555
Al20 Ho2 3.095035 1_455
Al21 Pd1 2.492964 1_555
Al21 Pd8 2.572292 1_655
Al21 Ho1 3.094415 1_555
Al21 Ho3 3.095035 1_655
Al22 Pd6 2.502669 1_555
Al22 Pd2 2.564351 1_555
Al22 Ho2 3.071673 1_555
Al22 Ho0 3.114095 1_555
Al23 Pd7 2.502669 1_555
Al23 Pd3 2.564351 1_555
Al23 Ho3 3.071673 1_555
Al23 Ho1 3.114095 1_555
