# generated using pymatgen
data_MnCr2Se3S
_symmetry_space_group_name_H-M   'P 1'
_cell_length_a   6.96960725
_cell_length_b   6.96960725
_cell_length_c   6.33193832
_cell_angle_alpha   64.56541973
_cell_angle_beta   64.56541973
_cell_angle_gamma   30.63234518
_symmetry_Int_Tables_number   1
_chemical_formula_structural   MnCr2Se3S
_chemical_formula_sum   'Mn1 Cr2 Se3 S1'
_cell_volume   140.32329743
_cell_formula_units_Z   1
loop_
 _symmetry_equiv_pos_site_id
 _symmetry_equiv_pos_as_xyz
  1  'x, y, z'
loop_
 _atom_site_type_symbol
 _atom_site_label
 _atom_site_symmetry_multiplicity
 _atom_site_fract_x
 _atom_site_fract_y
 _atom_site_fract_z
 _atom_site_occupancy
  Mn  Mn0  1  0.99827600  0.99827600  0.98594800  1
  Cr  Cr0  1  0.74576600  0.74576600  0.23902700  1
  Cr  Cr1  1  0.25951800  0.25951800  0.76119200  1
  Se  Se0  1  0.12847400  0.12847400  0.20037600  1
  Se  Se1  1  0.63723300  0.63723300  0.69394600  1
  Se  Se2  1  0.36922900  0.36922900  0.30075300  1
  S  S0  1  0.86150500  0.86150500  0.81875800  1
loop_
_geom_bond_atom_site_label_1
_geom_bond_atom_site_label_2
_geom_bond_distance
_geom_bond_site_symmetry_2
Mn0 S0 2.497077 1_555
Mn0 Se0 2.650273 1_666
Mn0 Se1 2.687308 1_565
Mn0 Se1 2.687308 1_655
Mn0 Se2 2.700490 1_656
Mn0 Se2 2.700490 1_566
Cr0 S0 2.411435 1_554
Cr0 Se0 2.505876 1_655
Cr0 Se0 2.505876 1_565
Cr0 Se1 2.585198 1_555
Cr0 Se2 2.621999 1_655
Cr0 Se2 2.621999 1_565
Cr1 S0 2.418097 1_455
Cr1 S0 2.418097 1_545
Cr1 Se0 2.544387 1_556
Cr1 Se2 2.616440 1_555
Cr1 Se1 2.626169 1_455
Cr1 Se1 2.626169 1_545
