# generated using pymatgen
data_Sm4(TmS2)11
_symmetry_space_group_name_H-M   'P 1'
_cell_length_a   19.49488146
_cell_length_b   19.49488146
_cell_length_c   11.26917325
_cell_angle_alpha   88.60264804
_cell_angle_beta   88.60264804
_cell_angle_gamma   11.50218951
_symmetry_Int_Tables_number   1
_chemical_formula_structural   Sm4(TmS2)11
_chemical_formula_sum   'Sm4 Tm11 S22'
_cell_volume   853.76755401
_cell_formula_units_Z   1
loop_
 _symmetry_equiv_pos_site_id
 _symmetry_equiv_pos_as_xyz
  1  'x, y, z'
loop_
 _atom_site_type_symbol
 _atom_site_label
 _atom_site_symmetry_multiplicity
 _atom_site_fract_x
 _atom_site_fract_y
 _atom_site_fract_z
 _atom_site_occupancy
  Sm  Sm0  1  0.63294100  0.63294100  0.34802900  1
  Sm  Sm1  1  0.36705900  0.36705900  0.65197100  1
  Sm  Sm2  1  0.89505700  0.89505700  0.01174700  1
  Sm  Sm3  1  0.10494300  0.10494300  0.98825300  1
  Tm  Tm0  1  0.53872500  0.53872500  0.27046700  1
  Tm  Tm1  1  0.46127500  0.46127500  0.72953300  1
  Tm  Tm2  1  0.93013700  0.93013700  0.35965400  1
  Tm  Tm3  1  0.06986300  0.06986300  0.64034600  1
  Tm  Tm4  1  0.73606600  0.73606600  0.35240400  1
  Tm  Tm5  1  0.26393400  0.26393400  0.64759600  1
  Tm  Tm6  1  0.20202200  0.20202200  0.05845900  1
  Tm  Tm7  1  0.79797800  0.79797800  0.94154100  1
  Tm  Tm8  1  0.00000000  0.00000000  0.00000000  1
  Tm  Tm9  1  0.34248600  0.34248600  0.30158600  1
  Tm  Tm10  1  0.65751400  0.65751400  0.69841400  1
  S  S0  1  0.40720400  0.40720400  0.21048600  1
  S  S1  1  0.59279600  0.59279600  0.78951400  1
  S  S2  1  0.91160900  0.91160900  0.75365400  1
  S  S3  1  0.08839100  0.08839100  0.24634600  1
  S  S4  1  0.99219500  0.99219500  0.23939600  1
  S  S5  1  0.00780500  0.00780500  0.76060400  1
  S  S6  1  0.64918000  0.64918000  0.09324300  1
  S  S7  1  0.35082000  0.35082000  0.90675700  1
  S  S8  1  0.54751700  0.54751700  0.03055300  1
  S  S9  1  0.45248300  0.45248300  0.96944700  1
  S  S10  1  0.83159800  0.83159800  0.14999800  1
  S  S11  1  0.16840200  0.16840200  0.85000200  1
  S  S12  1  0.74515600  0.74515600  0.11964100  1
  S  S13  1  0.25484400  0.25484400  0.88035900  1
  S  S14  1  0.81156300  0.81156300  0.69113500  1
  S  S15  1  0.18843700  0.18843700  0.30886500  1
  S  S16  1  0.55539700  0.55539700  0.49328600  1
  S  S17  1  0.44460300  0.44460300  0.50671400  1
  S  S18  1  0.86504900  0.86504900  0.45469800  1
  S  S19  1  0.13495100  0.13495100  0.54530200  1
  S  S20  1  0.71969400  0.71969400  0.58968700  1
  S  S21  1  0.28030600  0.28030600  0.41031300  1
loop_
_geom_bond_atom_site_label_1
_geom_bond_atom_site_label_2
_geom_bond_distance
_geom_bond_site_symmetry_2
S0 Tm9 2.689036 1_555
S0 Tm2 2.739856 1_455
S0 Tm2 2.739856 1_545
S0 Sm2 3.017609 1_455
S0 Sm2 3.017609 1_545
S1 Tm10 2.689036 1_555
S1 Tm3 2.739856 1_565
S1 Tm3 2.739856 1_655
S1 Sm3 3.017609 1_565
S1 Sm3 3.017609 1_655
S2 Tm1 2.752584 1_565
S2 Tm1 2.752584 1_655
S2 Sm1 2.865874 1_655
S2 Sm1 2.865874 1_565
S2 Sm2 2.963124 1_556
S3 Tm0 2.752584 1_455
S3 Tm0 2.752584 1_545
S3 Sm0 2.865874 1_455
S3 Sm0 2.865874 1_545
S3 Sm3 2.963124 1_554
S4 Tm0 2.688511 1_565
S4 Tm0 2.688511 1_655
S4 Tm8 2.707348 1_665
S4 Tm2 2.733581 1_555
S5 Tm1 2.688511 1_455
S5 Tm1 2.688511 1_545
S5 Tm8 2.707348 1_556
S5 Tm3 2.733581 1_555
S6 Tm6 2.851793 1_565
S6 Tm6 2.851793 1_655
S6 Sm3 2.874137 1_564
S6 Sm3 2.874137 1_654
S6 Sm0 2.924405 1_555
S7 Tm7 2.851793 1_545
S7 Tm7 2.851793 1_455
S7 Sm2 2.874137 1_546
S7 Sm2 2.874137 1_456
S7 Sm1 2.924405 1_555
S8 Tm8 2.713644 1_655
S8 Tm8 2.713644 1_565
S8 Tm0 2.716755 1_555
S8 Sm3 2.992379 1_564
S8 Sm3 2.992379 1_654
S9 Tm8 2.713644 1_656
S9 Tm8 2.713644 1_566
S9 Tm1 2.716755 1_555
S9 Sm2 2.992379 1_456
S9 Sm2 2.992379 1_546
S10 Tm9 2.635949 1_655
S10 Tm9 2.635949 1_565
S10 Tm7 2.714714 1_554
S10 Sm2 2.880924 1_555
S11 Tm10 2.635949 1_545
S11 Tm10 2.635949 1_455
S11 Tm6 2.714714 1_556
S11 Sm3 2.880924 1_555
S12 Tm4 2.638064 1_555
S12 Tm6 2.673608 1_655
S12 Tm6 2.673608 1_565
S12 Tm7 2.832954 1_554
S13 Tm5 2.638064 1_555
S13 Tm7 2.673608 1_455
S13 Tm7 2.673608 1_545
S13 Tm6 2.832954 1_556
S14 Tm5 2.741426 1_655
S14 Tm5 2.741426 1_565
S14 Tm7 2.857933 1_555
S14 Sm1 2.932470 1_565
S14 Sm1 2.932470 1_655
S15 Tm4 2.741426 1_455
S15 Tm4 2.741426 1_545
S15 Tm6 2.857933 1_555
S15 Sm0 2.932470 1_545
S15 Sm0 2.932470 1_455
S16 Tm0 2.608249 1_555
S16 Tm3 2.631205 1_565
S16 Tm3 2.631205 1_655
S16 Sm0 3.389313 1_555
S17 Tm1 2.608249 1_555
S17 Tm2 2.631205 1_455
S17 Tm2 2.631205 1_545
S17 Sm1 3.389313 1_555
S18 Tm2 2.718493 1_555
S18 Tm9 2.762897 1_565
S18 Tm9 2.762897 1_655
S18 Sm1 2.961930 1_655
S18 Sm1 2.961930 1_565
S19 Tm3 2.718493 1_555
S19 Tm10 2.762897 1_545
S19 Tm10 2.762897 1_455
S19 Sm0 2.961930 1_545
S19 Sm0 2.961930 1_455
S20 Tm10 2.678621 1_555
S20 Tm5 2.691181 1_565
S20 Tm5 2.691181 1_655
S20 Tm4 2.733189 1_555
S21 Tm9 2.678621 1_555
S21 Tm4 2.691181 1_455
S21 Tm4 2.691181 1_545
S21 Tm5 2.733189 1_555
