# generated using pymatgen
data_Li7Mn4CoO12
_symmetry_space_group_name_H-M   'P 1'
_cell_length_a   5.07319000
_cell_length_b   5.95104063
_cell_length_c   7.63280828
_cell_angle_alpha   81.02393124
_cell_angle_beta   77.54817393
_cell_angle_gamma   75.23493153
_symmetry_Int_Tables_number   1
_chemical_formula_structural   Li7Mn4CoO12
_chemical_formula_sum   'Li7 Mn4 Co1 O12'
_cell_volume   216.33929426
_cell_formula_units_Z   1
loop_
 _symmetry_equiv_pos_site_id
 _symmetry_equiv_pos_as_xyz
  1  'x, y, z'
loop_
 _atom_site_type_symbol
 _atom_site_label
 _atom_site_symmetry_multiplicity
 _atom_site_fract_x
 _atom_site_fract_y
 _atom_site_fract_z
 _atom_site_occupancy
  Li  Li0  1  0.50033600  0.82833300  0.16472100  1
  Li  Li1  1  0.50943700  0.33609200  0.16380100  1
  Li  Li2  1  0.49530800  0.50742300  0.49483900  1
  Li  Li3  1  0.50026500  0.00103300  0.49573000  1
  Li  Li4  1  0.50358000  0.16150500  0.84189400  1
  Li  Li5  1  0.49210400  0.66408200  0.84066500  1
  Li  Li6  1  0.99605300  0.50074300  0.00295900  1
  Mn  Mn0  1  0.00124800  0.00084600  0.00111000  1
  Mn  Mn1  1  0.99646900  0.66692000  0.33034700  1
  Mn  Mn2  1  0.00293600  0.33043700  0.66769700  1
  Mn  Mn3  1  0.00273800  0.82625800  0.66909800  1
  Co  Co0  1  0.99735400  0.17684900  0.32576700  1
  O  O0  1  0.22888700  0.15626000  0.09044500  1
  O  O1  1  0.21804400  0.69712500  0.08746200  1
  O  O2  1  0.22294700  0.82969700  0.42671400  1
  O  O3  1  0.23126500  0.31716600  0.42387900  1
  O  O4  1  0.22116400  0.52061900  0.73538500  1
  O  O5  1  0.23468900  0.97976800  0.76247800  1
  O  O6  1  0.76237600  0.50110500  0.26174200  1
  O  O7  1  0.76738000  0.02202900  0.23498100  1
  O  O8  1  0.79082400  0.14255000  0.58262200  1
  O  O9  1  0.76576300  0.68339100  0.57974400  1
  O  O10  1  0.77567700  0.84402700  0.90629400  1
  O  O11  1  0.78315500  0.30574400  0.90962800  1
loop_
_geom_bond_atom_site_label_1
_geom_bond_atom_site_label_2
_geom_bond_distance
_geom_bond_site_symmetry_2
Li0 O1 2.021449 1_555
Li0 O0 2.155888 1_565
Li0 O10 2.161386 1_554
Li0 O7 2.180338 1_565
Li0 O6 2.182390 1_555
Li0 O2 2.182903 1_555
Li1 O7 2.060063 1_555
Li1 O6 2.110650 1_555
Li1 O11 2.131771 1_554
Li1 O3 2.179015 1_555
Li1 O0 2.188964 1_555
Li1 O1 2.345826 1_555
Li2 O6 1.989472 1_555
Li2 O4 2.049302 1_555
Li2 O2 2.122666 1_555
Li2 O3 2.155681 1_555
Li2 O9 2.174111 1_555
Li2 O8 2.394022 1_555
Li3 O3 2.096345 1_555
Li3 O9 2.120165 1_545
Li3 O2 2.124821 1_545
Li3 O8 2.133223 1_555
Li3 O7 2.158403 1_555
Li3 O5 2.190951 1_545
Li4 O11 2.022628 1_555
Li4 O10 2.095268 1_545
Li4 O0 2.098987 1_556
Li4 O5 2.170520 1_545
Li4 O8 2.189719 1_555
Li4 O4 2.383345 1_555
Li5 O5 2.080061 1_555
Li5 O1 2.089755 1_556
Li5 O4 2.133666 1_555
Li5 O9 2.173597 1_555
Li5 O10 2.175019 1_555
Li5 O11 2.320504 1_555
Li6 O11 2.061381 1_554
Li6 O1 2.066274 1_655
Li6 O6 2.072967 1_555
Li6 O4 2.115899 1_654
Li6 O10 2.165403 1_554
Li6 O0 2.173131 1_655
Mn0 O7 1.921140 1_455
Mn0 O0 1.932574 1_555
Mn0 O5 1.949678 1_544
Mn0 O10 1.953590 1_444
Mn0 O1 1.959231 1_545
Mn0 O11 1.979533 1_454
Mn1 O6 1.919652 1_555
Mn1 O1 1.957843 1_655
Mn1 O2 1.988370 1_655
Mn1 O9 2.010503 1_555
Mn1 O3 2.213614 1_655
Mn1 O7 2.231461 1_565
Mn2 O11 1.945692 1_455
Mn2 O4 1.959937 1_555
Mn2 O3 1.970029 1_555
Mn2 O8 1.992739 1_455
Mn2 O5 2.214886 1_545
Mn2 O9 2.220455 1_455
Mn3 O9 1.920641 1_455
Mn3 O10 1.927229 1_455
Mn3 O4 1.928595 1_555
Mn3 O2 1.944165 1_555
Mn3 O5 1.959613 1_555
Mn3 O8 2.005312 1_465
Co0 O0 1.925210 1_655
Co0 O3 1.936419 1_655
Co0 O7 1.945768 1_555
Co0 O8 2.020257 1_555
Co0 O6 2.041554 1_555
Co0 O2 2.202254 1_645
