# generated using pymatgen
data_MgNb2Te4Cl10O
_symmetry_space_group_name_H-M   'P 1'
_cell_length_a   7.12280607
_cell_length_b   8.92887409
_cell_length_c   9.37011208
_cell_angle_alpha   82.72239380
_cell_angle_beta   89.98160753
_cell_angle_gamma   75.75225265
_symmetry_Int_Tables_number   1
_chemical_formula_structural   MgNb2Te4Cl10O
_chemical_formula_sum   'Mg1 Nb2 Te4 Cl10 O1'
_cell_volume   572.64778252
_cell_formula_units_Z   1
loop_
 _symmetry_equiv_pos_site_id
 _symmetry_equiv_pos_as_xyz
  1  'x, y, z'
loop_
 _atom_site_type_symbol
 _atom_site_label
 _atom_site_symmetry_multiplicity
 _atom_site_fract_x
 _atom_site_fract_y
 _atom_site_fract_z
 _atom_site_occupancy
  Mg  Mg0  1  0.18820600  0.34378500  0.72724400  1
  Nb  Nb0  1  0.50391800  0.66011600  0.61981600  1
  Nb  Nb1  1  0.49086100  0.37018500  0.35421700  1
  Te  Te0  1  0.21858400  0.90556900  0.14024700  1
  Te  Te1  1  0.05105500  0.20361600  0.00479900  1
  Te  Te2  1  0.92764000  0.80167800  0.01805300  1
  Te  Te3  1  0.81270900  0.07980900  0.83885300  1
  Cl  Cl0  1  0.44968900  0.18236100  0.19487600  1
  Cl  Cl1  1  0.38790600  0.48300500  0.82403400  1
  Cl  Cl2  1  0.78891400  0.19729800  0.43086200  1
  Cl  Cl3  1  0.16102800  0.51471600  0.29116800  1
  Cl  Cl4  1  0.61600300  0.52233800  0.17958000  1
  Cl  Cl5  1  0.33162900  0.19939400  0.54901400  1
  Cl  Cl6  1  0.85508100  0.47430300  0.72035600  1
  Cl  Cl7  1  0.65841700  0.79545100  0.45260700  1
  Cl  Cl8  1  0.19152700  0.80128500  0.56486900  1
  Cl  Cl9  1  0.54920800  0.80380700  0.81314800  1
  O  O0  1  0.50280700  0.49699600  0.50482800  1
loop_
_geom_bond_atom_site_label_1
_geom_bond_atom_site_label_2
_geom_bond_distance
_geom_bond_site_symmetry_2
Mg0 Te1 3.009984 1_556
Nb0 O0 1.919779 1_555
Nb1 O0 1.932160 1_555
Te0 Te2 2.771804 1_455
Te0 Te1 2.774697 1_565
Te1 Te3 2.807664 1_454
Te2 Te3 2.756917 1_564
Cl0 Nb1 2.450396 1_555
Cl1 Mg0 2.355392 1_555
Cl1 Nb0 2.592461 1_555
Cl2 Nb1 2.347918 1_555
Cl3 Nb1 2.418506 1_555
Cl4 Nb1 2.312965 1_555
Cl5 Mg0 2.321830 1_555
Cl5 Nb1 2.662392 1_555
Cl6 Mg0 2.369032 1_655
Cl6 Nb0 2.731169 1_555
Cl7 Nb0 2.302125 1_555
Cl8 Nb0 2.293627 1_555
Cl9 Nb0 2.413459 1_555
