# generated using pymatgen
data_LaYbCu2
_symmetry_space_group_name_H-M   'P 1'
_cell_length_a   4.97359807
_cell_length_b   4.97359807
_cell_length_c   4.97359807
_cell_angle_alpha   60.00000000
_cell_angle_beta   60.00000000
_cell_angle_gamma   60.00000000
_symmetry_Int_Tables_number   1
_chemical_formula_structural   LaYbCu2
_chemical_formula_sum   'La1 Yb1 Cu2'
_cell_volume   86.99555436
_cell_formula_units_Z   1
loop_
 _symmetry_equiv_pos_site_id
 _symmetry_equiv_pos_as_xyz
  1  'x, y, z'
loop_
 _atom_site_type_symbol
 _atom_site_label
 _atom_site_symmetry_multiplicity
 _atom_site_fract_x
 _atom_site_fract_y
 _atom_site_fract_z
 _atom_site_occupancy
  La  La0  1  0.50000000  0.50000000  0.50000000  1
  Yb  Yb0  1  0.00000000  0.00000000  0.00000000  1
  Cu  Cu0  1  0.75000000  0.75000000  0.75000000  1
  Cu  Cu1  1  0.25000000  0.25000000  0.25000000  1
loop_
_geom_bond_atom_site_label_1
_geom_bond_atom_site_label_2
_geom_bond_distance
_geom_bond_site_symmetry_2
Cu0 Yb0 3.045694 1_566
Cu0 Yb0 3.045694 1_656
Cu0 Yb0 3.045694 1_665
Cu0 La0 3.045694 1_555
Cu0 La0 3.045694 1_556
Cu0 Yb0 3.045694 1_666
Cu0 La0 3.045694 1_655
Cu0 La0 3.045694 1_565
Cu1 Yb0 3.045694 1_565
Cu1 Yb0 3.045694 1_655
Cu1 Yb0 3.045694 1_556
Cu1 Yb0 3.045694 1_555
Cu1 La0 3.045694 1_455
Cu1 La0 3.045694 1_545
Cu1 La0 3.045694 1_555
Cu1 La0 3.045694 1_554
