# generated using pymatgen
data_Bi4O7
_symmetry_space_group_name_H-M   'P 1'
_cell_length_a   7.89560700
_cell_length_b   7.89560700
_cell_length_c   5.56083800
_cell_angle_alpha   90.00000000
_cell_angle_beta   90.00000000
_cell_angle_gamma   90.00000000
_symmetry_Int_Tables_number   1
_chemical_formula_structural   Bi4O7
_chemical_formula_sum   'Bi8 O14'
_cell_volume   346.66603247
_cell_formula_units_Z   2
loop_
 _symmetry_equiv_pos_site_id
 _symmetry_equiv_pos_as_xyz
  1  'x, y, z'
loop_
 _atom_site_type_symbol
 _atom_site_label
 _atom_site_symmetry_multiplicity
 _atom_site_fract_x
 _atom_site_fract_y
 _atom_site_fract_z
 _atom_site_occupancy
  Bi  Bi0  1  0.99893200  0.76099800  0.23900100  1
  Bi  Bi1  1  0.76099800  0.00106800  0.76099900  1
  Bi  Bi2  1  0.00106800  0.23900200  0.23900100  1
  Bi  Bi3  1  0.23900200  0.99893200  0.76099900  1
  Bi  Bi4  1  0.26099800  0.49893200  0.76099900  1
  Bi  Bi5  1  0.73900200  0.50106800  0.76099900  1
  Bi  Bi6  1  0.50106800  0.26099800  0.23900100  1
  Bi  Bi7  1  0.49893200  0.73900200  0.23900100  1
  O  O0  1  0.00000000  0.50000000  0.00000000  1
  O  O1  1  0.50000000  0.00000000  0.00000000  1
  O  O2  1  0.24358100  0.74358100  0.50000000  1
  O  O3  1  0.74358100  0.75641900  0.50000000  1
  O  O4  1  0.75641900  0.25641900  0.50000000  1
  O  O5  1  0.25641900  0.24358100  0.50000000  1
  O  O6  1  0.24848000  0.74848000  0.00000000  1
  O  O7  1  0.74848000  0.75152000  0.00000000  1
  O  O8  1  0.75152000  0.25152000  0.00000000  1
  O  O9  1  0.25152000  0.24848000  0.00000000  1
  O  O10  1  0.00000000  0.00000000  0.50000000  1
  O  O11  1  0.50000000  0.50000000  0.50000000  1
  O  O12  1  0.00000000  0.00000000  0.00000000  1
  O  O13  1  0.50000000  0.50000000  0.00000000  1
loop_
_geom_bond_atom_site_label_1
_geom_bond_atom_site_label_2
_geom_bond_distance
_geom_bond_site_symmetry_2
Bi0 O12 2.308127 1_665
Bi0 O6 2.378727 1_655
Bi0 O10 2.380666 1_665
Bi0 O7 2.383769 1_555
Bi0 O2 2.420057 1_655
Bi0 O0 2.452157 1_655
Bi0 O3 2.484483 1_555
Bi1 O12 2.308127 1_656
Bi1 O7 2.378727 1_546
Bi1 O10 2.380666 1_655
Bi1 O8 2.383769 1_556
Bi1 O3 2.420057 1_545
Bi1 O1 2.452157 1_556
Bi1 O4 2.484483 1_555
Bi2 O12 2.308127 1_555
Bi2 O8 2.378727 1_455
Bi2 O10 2.380666 1_555
Bi2 O9 2.383769 1_555
Bi2 O4 2.420057 1_455
Bi2 O0 2.452157 1_555
Bi2 O5 2.484483 1_555
Bi3 O12 2.308127 1_566
Bi3 O9 2.378727 1_566
Bi3 O10 2.380666 1_565
Bi3 O6 2.383769 1_556
Bi3 O5 2.420057 1_565
Bi3 O1 2.452157 1_566
Bi3 O2 2.484483 1_555
Bi4 O13 2.308127 1_556
Bi4 O6 2.378727 1_556
Bi4 O11 2.380666 1_555
Bi4 O9 2.383769 1_556
Bi4 O2 2.420057 1_555
Bi4 O0 2.452157 1_556
Bi4 O5 2.484483 1_555
Bi5 O13 2.308127 1_556
Bi5 O8 2.378727 1_556
Bi5 O11 2.380666 1_555
Bi5 O7 2.383769 1_556
Bi5 O4 2.420057 1_555
Bi5 O0 2.452157 1_656
Bi5 O3 2.484483 1_555
Bi6 O13 2.308127 1_555
Bi6 O9 2.378727 1_555
Bi6 O11 2.380666 1_555
Bi6 O8 2.383769 1_555
Bi6 O5 2.420057 1_555
Bi6 O1 2.452157 1_555
Bi6 O4 2.484483 1_555
Bi7 O13 2.308127 1_555
Bi7 O7 2.378727 1_555
Bi7 O11 2.380666 1_555
Bi7 O6 2.383769 1_555
Bi7 O3 2.420057 1_555
Bi7 O1 2.452157 1_565
Bi7 O2 2.484483 1_555
