# generated using pymatgen
data_Yb4Ir
_symmetry_space_group_name_H-M   'P 1'
_cell_length_a   8.10141997
_cell_length_b   8.10141997
_cell_length_c   8.10141997
_cell_angle_alpha   60.00000000
_cell_angle_beta   60.00000000
_cell_angle_gamma   60.00000000
_symmetry_Int_Tables_number   1
_chemical_formula_structural   Yb4Ir
_chemical_formula_sum   'Yb8 Ir2'
_cell_volume   375.98320112
_cell_formula_units_Z   2
loop_
 _symmetry_equiv_pos_site_id
 _symmetry_equiv_pos_as_xyz
  1  'x, y, z'
loop_
 _atom_site_type_symbol
 _atom_site_label
 _atom_site_symmetry_multiplicity
 _atom_site_fract_x
 _atom_site_fract_y
 _atom_site_fract_z
 _atom_site_occupancy
  Yb  Yb0  1  0.62014700  0.62014700  0.62014700  1
  Yb  Yb1  1  0.13955800  0.62014700  0.62014700  1
  Yb  Yb2  1  0.62014700  0.13955800  0.62014700  1
  Yb  Yb3  1  0.61044200  0.12985300  0.12985300  1
  Yb  Yb4  1  0.12985300  0.12985300  0.12985300  1
  Yb  Yb5  1  0.62014700  0.62014700  0.13955800  1
  Yb  Yb6  1  0.12985300  0.61044200  0.12985300  1
  Yb  Yb7  1  0.12985300  0.12985300  0.61044200  1
  Ir  Ir0  1  0.00000000  0.00000000  0.00000000  1
  Ir  Ir1  1  0.75000000  0.75000000  0.75000000  1
loop_
_geom_bond_atom_site_label_1
_geom_bond_atom_site_label_2
_geom_bond_distance
_geom_bond_site_symmetry_2
Ir0 Yb7 2.576841 1_554
Ir0 Yb3 2.576841 1_455
Ir0 Yb6 2.576841 1_545
Ir0 Yb4 2.576848 1_555
Ir1 Yb2 2.576841 1_565
Ir1 Yb5 2.576841 1_556
Ir1 Yb1 2.576841 1_655
Ir1 Yb0 2.576848 1_555
