# generated using pymatgen
data_MgAlFeO4
_symmetry_space_group_name_H-M   'P 1'
_cell_length_a   5.85011643
_cell_length_b   8.33999300
_cell_length_c   5.87688820
_cell_angle_alpha   90.00001461
_cell_angle_beta   89.99999311
_cell_angle_gamma   90.00000486
_symmetry_Int_Tables_number   1
_chemical_formula_structural   MgAlFeO4
_chemical_formula_sum   'Mg4 Al4 Fe4 O16'
_cell_volume   286.73296455
_cell_formula_units_Z   4
loop_
 _symmetry_equiv_pos_site_id
 _symmetry_equiv_pos_as_xyz
  1  'x, y, z'
loop_
 _atom_site_type_symbol
 _atom_site_label
 _atom_site_symmetry_multiplicity
 _atom_site_fract_x
 _atom_site_fract_y
 _atom_site_fract_z
 _atom_site_occupancy
  Mg  Mg0  1  0.50000000  0.87500200  0.75000300  1
  Mg  Mg1  1  0.00000000  0.37499900  0.24999600  1
  Mg  Mg2  1  0.99999900  0.37499900  0.75000400  1
  Mg  Mg3  1  0.50000000  0.87500200  0.24999600  1
  Al  Al0  1  0.25000000  0.62499900  0.00000000  1
  Al  Al1  1  0.75000000  0.12500000  0.50000000  1
  Al  Al2  1  0.25000000  0.12500000  0.50000000  1
  Al  Al3  1  0.75000000  0.62500000  0.00000000  1
  Fe  Fe0  1  0.99999900  0.75814700  0.49999900  1
  Fe  Fe1  1  0.50000100  0.49185200  0.49999900  1
  Fe  Fe2  1  0.50000000  0.25812500  0.00000200  1
  Fe  Fe3  1  0.00000200  0.99187300  0.00000000  1
  O  O0  1  0.24200100  0.35400800  0.50000000  1
  O  O1  1  0.74200000  0.85401200  0.00000000  1
  O  O2  1  0.75799900  0.35400800  0.50000000  1
  O  O3  1  0.25800000  0.85401100  0.00000000  1
  O  O4  1  0.25799900  0.89599200  0.50000000  1
  O  O5  1  0.75799800  0.39598800  0.00000000  1
  O  O6  1  0.24200300  0.39598800  0.00000000  1
  O  O7  1  0.74200100  0.89599200  0.50000000  1
  O  O8  1  0.00000000  0.12560400  0.72488100  1
  O  O9  1  0.50000000  0.62560300  0.22488200  1
  O  O10  1  0.00000000  0.12560400  0.27511900  1
  O  O11  1  0.50000000  0.62560300  0.77511800  1
  O  O12  1  0.00000000  0.62439800  0.77511800  1
  O  O13  1  0.50000000  0.12439600  0.27512000  1
  O  O14  1  0.50000000  0.12439600  0.72488000  1
  O  O15  1  0.00000000  0.62439800  0.22488200  1
loop_
_geom_bond_atom_site_label_1
_geom_bond_atom_site_label_2
_geom_bond_distance
_geom_bond_site_symmetry_2
Mg0 O1 2.047802 1_556
Mg0 O3 2.047803 1_556
Mg0 O7 2.047831 1_555
Mg0 O4 2.047831 1_555
Mg0 O14 2.085178 1_565
Mg0 O11 2.085216 1_555
Mg1 O5 2.047805 1_455
Mg1 O6 2.047809 1_555
Mg1 O2 2.047836 1_455
Mg1 O0 2.047836 1_555
Mg1 O10 2.085186 1_555
Mg1 O15 2.085216 1_555
Mg2 O5 2.047801 1_556
Mg2 O6 2.047813 1_656
Mg2 O2 2.047832 1_555
Mg2 O0 2.047840 1_655
Mg2 O8 2.085186 1_655
Mg2 O12 2.085216 1_655
Mg3 O1 2.047798 1_555
Mg3 O3 2.047798 1_555
Mg3 O4 2.047835 1_555
Mg3 O7 2.047836 1_555
Mg3 O13 2.085178 1_565
Mg3 O9 2.085216 1_555
Al0 O6 1.910523 1_555
Al0 O3 1.910532 1_555
Al0 O15 1.971208 1_555
Al0 O11 1.971208 1_554
Al0 O12 1.971208 1_554
Al0 O9 1.971208 1_555
Al1 O2 1.910498 1_555
Al1 O7 1.910498 1_545
Al1 O14 1.971200 1_555
Al1 O13 1.971200 1_555
Al1 O10 1.971204 1_655
Al1 O8 1.971204 1_655
Al2 O4 1.910498 1_545
Al2 O0 1.910498 1_555
Al2 O13 1.971200 1_555
Al2 O14 1.971200 1_555
Al2 O8 1.971204 1_555
Al2 O10 1.971204 1_555
Al3 O5 1.910532 1_555
Al3 O1 1.910532 1_555
Al3 O12 1.971208 1_654
Al3 O9 1.971208 1_555
Al3 O15 1.971208 1_655
Al3 O11 1.971208 1_554
Fe0 O7 1.897283 1_555
Fe0 O4 1.897292 1_655
Fe0 O15 1.964283 1_655
Fe0 O12 1.964293 1_655
Fe1 O2 1.897278 1_555
Fe1 O0 1.897287 1_555
Fe1 O9 1.964293 1_555
Fe1 O11 1.964302 1_555
Fe2 O6 1.897369 1_555
Fe2 O5 1.897374 1_555
Fe2 O13 1.964194 1_555
Fe2 O14 1.964213 1_554
Fe3 O3 1.897369 1_555
Fe3 O1 1.897382 1_455
Fe3 O10 1.964208 1_565
Fe3 O8 1.964208 1_564
