# generated using pymatgen
data_Ca2Ga2SiO7
_symmetry_space_group_name_H-M   'P 1'
_cell_length_a   5.16850604
_cell_length_b   7.91851335
_cell_length_c   7.89357000
_cell_angle_alpha   90.00000000
_cell_angle_beta   90.00000000
_cell_angle_gamma   89.87780209
_symmetry_Int_Tables_number   1
_chemical_formula_structural   Ca2Ga2SiO7
_chemical_formula_sum   'Ca4 Ga4 Si2 O14'
_cell_volume   323.05848959
_cell_formula_units_Z   2
loop_
 _symmetry_equiv_pos_site_id
 _symmetry_equiv_pos_as_xyz
  1  'x, y, z'
loop_
 _atom_site_type_symbol
 _atom_site_label
 _atom_site_symmetry_multiplicity
 _atom_site_fract_x
 _atom_site_fract_y
 _atom_site_fract_z
 _atom_site_occupancy
  Ca  Ca0  1  0.51682100  0.82725100  0.34294300  1
  Ca  Ca1  1  0.48317900  0.67274900  0.84294300  1
  Ca  Ca2  1  0.51435500  0.14760300  0.66416700  1
  Ca  Ca3  1  0.48564500  0.35239700  0.16416700  1
  Ga  Ga0  1  0.00017300  0.49885900  0.50152600  1
  Ga  Ga1  1  0.99982700  0.00114100  0.00152600  1
  Ga  Ga2  1  0.96510100  0.64297100  0.14299900  1
  Ga  Ga3  1  0.03489900  0.85702900  0.64299900  1
  Si  Si0  1  0.94604700  0.35596700  0.85707900  1
  Si  Si1  1  0.05395300  0.14403300  0.35707900  1
  O  O0  1  0.19256900  0.00772000  0.48884600  1
  O  O1  1  0.80743100  0.49228000  0.98884600  1
  O  O2  1  0.19811700  0.32571500  0.40585100  1
  O  O3  1  0.80188300  0.17428500  0.90585100  1
  O  O4  1  0.21752700  0.66097900  0.58693500  1
  O  O5  1  0.78247300  0.83902100  0.08693500  1
  O  O6  1  0.78099100  0.58073900  0.33749800  1
  O  O7  1  0.21900900  0.91926100  0.83749800  1
  O  O8  1  0.80463000  0.40027100  0.67308300  1
  O  O9  1  0.19537000  0.09972900  0.17308300  1
  O  O10  1  0.31261100  0.63475800  0.13951200  1
  O  O11  1  0.68738900  0.86524200  0.63951200  1
  O  O12  1  0.25776700  0.35444100  0.85956000  1
  O  O13  1  0.74223300  0.14555900  0.35956000  1
loop_
_geom_bond_atom_site_label_1
_geom_bond_atom_site_label_2
_geom_bond_distance
_geom_bond_site_symmetry_2
Ca0 O6 2.380134 1_555
Ca0 O5 2.445021 1_555
Ca0 O10 2.454141 1_555
Ca0 O0 2.483344 1_565
Ca0 O11 2.519731 1_555
Ca0 O13 2.782105 1_565
Ca0 O4 2.800795 1_555
Ca0 O9 3.032838 1_565
Ca1 O7 2.380134 1_555
Ca1 O4 2.445021 1_555
Ca1 O11 2.454141 1_555
Ca1 O1 2.483344 1_555
Ca1 O10 2.519731 1_556
Ca1 O12 2.782105 1_555
Ca1 O5 2.800795 1_556
Ca1 O8 3.032838 1_555
Ca2 O11 2.414192 1_545
Ca2 O3 2.427746 1_555
Ca2 O0 2.432295 1_555
Ca2 O8 2.504325 1_555
Ca2 O12 2.609764 1_555
Ca2 O13 2.677440 1_555
Ca2 O7 2.735557 1_545
Ca2 O2 2.967917 1_555
Ca3 O10 2.414192 1_555
Ca3 O2 2.427746 1_555
Ca3 O1 2.432295 1_554
Ca3 O9 2.504325 1_555
Ca3 O13 2.609764 1_555
Ca3 O12 2.677440 1_554
Ca3 O6 2.735557 1_555
Ca3 O3 2.967917 1_554
Ga0 O4 1.835947 1_555
Ga0 O6 1.837662 1_455
Ga0 O8 1.862285 1_455
Ga0 O2 1.868371 1_555
Ga1 O5 1.835947 1_545
Ga1 O7 1.837662 1_644
Ga1 O9 1.862285 1_655
Ga1 O3 1.868371 1_554
Ga2 O10 1.797357 1_655
Ga2 O5 1.868312 1_555
Ga2 O6 1.872819 1_555
Ga2 O1 1.890166 1_554
Ga3 O11 1.797357 1_455
Ga3 O4 1.868312 1_555
Ga3 O7 1.872819 1_555
Ga3 O0 1.890166 1_565
O0 Si1 1.660396 1_555
O1 Si0 1.660396 1_555
O2 Si1 1.666642 1_555
O3 Si0 1.666642 1_555
O8 Si0 1.663022 1_555
O9 Si1 1.663022 1_555
O12 Si0 1.611265 1_455
O13 Si1 1.611265 1_655
