# generated using pymatgen
data_Ti4Cr
_symmetry_space_group_name_H-M   'P 1'
_cell_length_a   6.31085448
_cell_length_b   6.31085448
_cell_length_c   6.31085448
_cell_angle_alpha   60.00000000
_cell_angle_beta   60.00000000
_cell_angle_gamma   60.00000000
_symmetry_Int_Tables_number   1
_chemical_formula_structural   Ti4Cr
_chemical_formula_sum   'Ti8 Cr2'
_cell_volume   177.72540021
_cell_formula_units_Z   2
loop_
 _symmetry_equiv_pos_site_id
 _symmetry_equiv_pos_as_xyz
  1  'x, y, z'
loop_
 _atom_site_type_symbol
 _atom_site_label
 _atom_site_symmetry_multiplicity
 _atom_site_fract_x
 _atom_site_fract_y
 _atom_site_fract_z
 _atom_site_occupancy
  Ti  Ti0  1  0.60706000  0.60706000  0.60706000  1
  Ti  Ti1  1  0.17882100  0.60706000  0.60706000  1
  Ti  Ti2  1  0.60706000  0.17882100  0.60706000  1
  Ti  Ti3  1  0.57117900  0.14294000  0.14294000  1
  Ti  Ti4  1  0.14294000  0.14294000  0.14294000  1
  Ti  Ti5  1  0.60706000  0.60706000  0.17882100  1
  Ti  Ti6  1  0.14294000  0.57117900  0.14294000  1
  Ti  Ti7  1  0.14294000  0.14294000  0.57117900  1
  Cr  Cr0  1  0.00000000  0.00000000  0.00000000  1
  Cr  Cr1  1  0.75000000  0.75000000  0.75000000  1
loop_
_geom_bond_atom_site_label_1
_geom_bond_atom_site_label_2
_geom_bond_distance
_geom_bond_site_symmetry_2
Ti0 Ti2 2.702554 1_555
Ti0 Ti1 2.702554 1_555
Ti0 Ti5 2.702554 1_555
Ti0 Ti6 3.171634 1_655
Ti0 Ti6 3.171634 1_556
Ti0 Ti3 3.171634 1_556
Ti0 Ti3 3.171634 1_565
Ti0 Ti7 3.171634 1_655
Ti0 Ti7 3.171634 1_565
Ti1 Ti2 2.702554 1_555
Ti1 Ti5 2.702554 1_555
Ti1 Ti7 3.171629 1_565
Ti1 Ti6 3.171629 1_556
Ti1 Ti4 3.171634 1_565
Ti1 Ti4 3.171634 1_556
Ti1 Ti6 3.171642 1_555
Ti1 Ti7 3.171642 1_555
Ti2 Ti5 2.702554 1_555
Ti2 Ti3 3.171629 1_556
Ti2 Ti7 3.171629 1_655
Ti2 Ti4 3.171634 1_556
Ti2 Ti4 3.171634 1_655
Ti2 Ti7 3.171642 1_555
Ti2 Ti3 3.171642 1_555
Ti3 Ti7 2.702554 1_555
Ti3 Ti4 2.702554 1_555
Ti3 Ti6 2.702554 1_555
Ti3 Ti5 3.171629 1_545
Ti3 Ti5 3.171642 1_555
Ti4 Ti7 2.702554 1_555
Ti4 Ti6 2.702554 1_555
Ti4 Ti5 3.171634 1_545
Ti4 Ti5 3.171634 1_455
Ti5 Ti6 3.171629 1_655
Ti5 Ti6 3.171642 1_555
Ti6 Ti7 2.702554 1_555
Cr0 Ti4 2.209620 1_555
Cr0 Ti6 2.209625 1_545
Cr0 Ti3 2.209625 1_455
Cr0 Ti7 2.209625 1_554
Cr1 Ti0 2.209620 1_555
Cr1 Ti5 2.209625 1_556
Cr1 Ti2 2.209625 1_565
Cr1 Ti1 2.209625 1_655
