# generated using pymatgen
data_Te2MoWSeS
_symmetry_space_group_name_H-M   'P 1'
_cell_length_a   3.40155112
_cell_length_b   3.40155112
_cell_length_c   38.76485200
_cell_angle_alpha   90.00000000
_cell_angle_beta   90.00000000
_cell_angle_gamma   120.00002169
_symmetry_Int_Tables_number   1
_chemical_formula_structural   Te2MoWSeS
_chemical_formula_sum   'Te4 Mo2 W2 Se2 S2'
_cell_volume   388.43885922
_cell_formula_units_Z   2
loop_
 _symmetry_equiv_pos_site_id
 _symmetry_equiv_pos_as_xyz
  1  'x, y, z'
loop_
 _atom_site_type_symbol
 _atom_site_label
 _atom_site_symmetry_multiplicity
 _atom_site_fract_x
 _atom_site_fract_y
 _atom_site_fract_z
 _atom_site_occupancy
  Te  Te0  1  0.00000000  0.00000000  0.70609800  1
  Te  Te1  1  0.33333300  0.66666700  0.42106400  1
  Te  Te2  1  0.33333300  0.66666700  0.51811500  1
  Te  Te3  1  0.00000000  0.00000000  0.60906900  1
  Mo  Mo0  1  0.00000000  0.00000000  0.09393000  1
  Mo  Mo1  1  0.33333300  0.66666700  0.28179500  1
  W  W0  1  0.00000000  0.00000000  0.46959500  1
  W  W1  1  0.33333300  0.66666700  0.65763100  1
  Se  Se0  1  0.33333300  0.66666700  0.05146300  1
  Se  Se1  1  0.33333300  0.66666700  0.13639300  1
  S  S0  1  0.00000000  0.00000000  0.32059300  1
  S  S1  1  0.00000000  0.00000000  0.24300100  1
loop_
_geom_bond_atom_site_label_1
_geom_bond_atom_site_label_2
_geom_bond_distance
_geom_bond_site_symmetry_2
Te0 W1 2.717866 1_545
Te0 W1 2.717867 1_445
Te0 W1 2.717867 1_555
Te1 W0 2.719581 1_565
Te1 W0 2.719583 1_555
Te1 W0 2.719583 1_665
Te2 W0 2.719286 1_565
Te2 W0 2.719288 1_555
Te2 W0 2.719288 1_665
Te3 W1 2.720413 1_545
Te3 W1 2.720414 1_445
Te3 W1 2.720414 1_555
Mo0 Se1 2.562498 1_545
Mo0 Se1 2.562500 1_555
Mo0 Se1 2.562500 1_445
Mo0 Se0 2.562598 1_545
Mo0 Se0 2.562599 1_445
Mo0 Se0 2.562599 1_555
Mo1 S1 2.473538 1_565
Mo1 S1 2.473540 1_665
Mo1 S1 2.473540 1_555
Mo1 S0 2.473632 1_565
Mo1 S0 2.473634 1_665
Mo1 S0 2.473634 1_555
