# generated using pymatgen
data_Al38O21
_symmetry_space_group_name_H-M   'P 1'
_cell_length_a   5.61324138
_cell_length_b   5.65972576
_cell_length_c   51.26456301
_cell_angle_alpha   89.66909869
_cell_angle_beta   90.83000344
_cell_angle_gamma   60.65785663
_symmetry_Int_Tables_number   1
_chemical_formula_structural   Al38O21
_chemical_formula_sum   'Al38 O21'
_cell_volume   1419.40061162
_cell_formula_units_Z   1
loop_
 _symmetry_equiv_pos_site_id
 _symmetry_equiv_pos_as_xyz
  1  'x, y, z'
loop_
 _atom_site_type_symbol
 _atom_site_label
 _atom_site_symmetry_multiplicity
 _atom_site_fract_x
 _atom_site_fract_y
 _atom_site_fract_z
 _atom_site_occupancy
  Al  Al0  1  0.46188098  0.52589761  0.00764945  1
  Al  Al1  1  0.96030817  0.52736858  0.00767212  1
  Al  Al2  1  0.46162117  0.02560021  0.00778981  1
  Al  Al3  1  0.14111958  0.18772375  0.05353973  1
  Al  Al4  1  0.14488968  0.68595067  0.05355362  1
  Al  Al5  1  0.64188194  0.68720037  0.05365538  1
  Al  Al6  1  0.64538797  0.18506799  0.05360679  1
  Al  Al7  1  0.31925080  0.34382800  0.09859115  1
  Al  Al8  1  0.31873009  0.84482804  0.09858776  1
  Al  Al9  1  0.82170833  0.84196989  0.09866349  1
  Al  Al10  1  0.81761924  0.34379033  0.09847694  1
  Al  Al11  1  0.99551566  0.00826492  0.14471678  1
  Al  Al12  1  0.99439847  0.50488337  0.14401035  1
  Al  Al13  1  0.49405558  0.50852835  0.14469431  1
  Al  Al14  1  0.49620368  0.00511652  0.14407038  1
  Al  Al15  1  0.17246731  0.16803160  0.18906853  1
  Al  Al16  1  0.66905689  0.16154500  0.18956130  1
  Al  Al17  1  0.67159791  0.66893446  0.18945624  1
  Al  Al18  1  0.16938219  0.66053165  0.18987321  1
  Al  Al19  1  0.85043680  0.33328501  0.23277829  1
  Al  Al20  1  0.34599418  0.84039571  0.23276651  1
  Al  Al21  1  0.35411420  0.34318827  0.23946790  1
  Al  Al22  1  0.84607589  0.84715339  0.23970991  1
  Al  Al23  1  0.95554845  0.43581973  0.28061934  1
  Al  Al24  1  0.51335713  0.96014851  0.29245107  1
  Al  Al25  1  0.43878631  0.44923116  0.30857887  1
  Al  Al26  1  0.98676111  0.99198708  0.32376539  1
  Al  Al27  1  0.26195291  0.72468753  0.36776109  1
  Al  Al28  1  0.80266201  0.29684538  0.37969029  1
  Al  Al29  1  0.66009209  0.83872179  0.38472357  1
  Al  Al30  1  0.24562406  0.37841345  0.41293216  1
  Al  Al31  1  0.18644642  0.94831172  0.42826491  1
  Al  Al32  1  0.15579525  0.68448577  0.47237820  1
  Al  Al33  1  0.63490249  0.06395106  0.46348973  1
  Al  Al34  1  0.64901870  0.54464165  0.49549957  1
  Al  Al35  1  0.19221941  0.02404206  0.52777130  1
  Al  Al36  1  0.72296421  0.11077912  0.53991993  1
  Al  Al37  1  0.96190909  0.02733215  0.00739368  1
  O  O0  1  0.33455850  0.34550153  0.27907535  1
  O  O1  1  0.84366424  0.80981771  0.27565908  1
  O  O2  1  0.63725410  0.59569520  0.30040096  1
  O  O3  1  0.14065848  0.10292829  0.30088924  1
  O  O4  1  0.63541592  0.10462863  0.31945287  1
  O  O5  1  0.19783685  0.64136558  0.33232494  1
  O  O6  1  0.03064078  0.07042344  0.35700370  1
  O  O7  1  0.63013330  0.60726104  0.36092975  1
  O  O8  1  0.02654500  0.66615503  0.38792643  1
  O  O9  1  0.54286785  0.20185898  0.38823576  1
  O  O10  1  0.39831728  0.79730058  0.39943962  1
  O  O11  1  0.98491033  0.26995895  0.40909223  1
  O  O12  1  0.23940309  0.60776211  0.43724393  1
  O  O13  1  0.41371846  0.07911628  0.43845308  1
  O  O14  1  0.95641676  0.03603915  0.45709746  1
  O  O15  1  0.81717236  0.71649408  0.48061825  1
  O  O16  1  0.47626386  0.36812891  0.48163345  1
  O  O17  1  0.30767499  0.82351459  0.49877861  1
  O  O18  1  0.83297063  0.31652885  0.52143745  1
  O  O19  1  0.05004654  0.88238177  0.54896925  1
  O  O20  1  0.42692829  0.11248544  0.53870855  1
loop_
_geom_bond_atom_site_label_1
_geom_bond_atom_site_label_2
_geom_bond_distance
_geom_bond_site_symmetry_2
Al0 Al4 2.844422 1_555
Al0 Al6 2.874471 1_555
Al0 Al5 2.876902 1_555
Al1 Al5 2.851685 1_555
Al1 Al3 2.867210 1_655
Al1 Al4 2.876904 1_655
Al2 Al3 2.847538 1_555
Al2 Al5 2.863619 1_545
Al2 Al6 2.874396 1_555
Al3 Al6 2.790109 1_455
Al3 Al7 2.817234 1_555
Al3 Al6 2.823197 1_555
Al3 Al4 2.829584 1_545
Al3 Al4 2.830262 1_555
Al3 Al8 2.842314 1_545
Al3 Al5 2.842766 1_455
Al3 Al5 2.849825 1_545
Al3 Al37 2.878044 1_455
Al4 Al5 2.793140 1_555
Al4 Al8 2.812349 1_555
Al4 Al5 2.820125 1_455
Al4 Al9 2.827314 1_455
Al4 Al7 2.839633 1_555
Al4 Al6 2.842397 1_465
Al4 Al6 2.850185 1_555
Al5 Al9 2.816443 1_555
Al5 Al8 2.819731 1_555
Al5 Al6 2.827477 1_565
Al5 Al6 2.832356 1_555
Al6 Al7 2.830375 1_555
Al6 Al9 2.843229 1_545
Al7 Al8 2.825637 1_545
Al7 Al8 2.834091 1_555
Al7 Al9 2.834111 1_455
Al7 Al9 2.858475 1_545
Al8 Al9 2.797924 1_455
Al8 Al9 2.815393 1_555
Al10 Al7 2.797449 1_555
Al10 Al6 2.800603 1_555
Al10 Al7 2.815805 1_655
Al10 Al3 2.820879 1_655
Al10 Al9 2.828949 1_545
Al10 Al9 2.830948 1_555
Al10 Al5 2.834451 1_555
Al10 Al8 2.846309 1_645
Al10 Al8 2.846318 1_555
Al10 Al12 2.847599 1_555
Al10 Al11 2.871128 1_555
Al10 Al13 2.876153 1_555
Al11 Al15 2.795062 1_655
Al11 Al14 2.802473 1_655
Al11 Al12 2.807680 1_555
Al11 Al14 2.811251 1_555
Al11 Al16 2.825385 1_555
Al11 Al13 2.841468 1_645
Al11 Al13 2.851123 1_555
Al11 Al12 2.852517 1_545
Al11 Al18 2.860800 1_645
Al11 Al8 2.871286 1_645
Al11 Al9 2.875826 1_545
Al12 Al13 2.799225 1_555
Al12 Al13 2.814576 1_655
Al12 Al15 2.825600 1_655
Al12 Al9 2.838066 1_555
Al12 Al17 2.841048 1_555
Al12 Al18 2.841422 1_655
Al12 Al14 2.841989 1_565
Al12 Al7 2.845330 1_655
Al12 Al14 2.850627 1_655
Al13 Al17 2.815591 1_555
Al13 Al14 2.816480 1_565
Al13 Al18 2.834509 1_555
Al13 Al14 2.843651 1_555
Al13 Al16 2.846705 1_555
Al13 Al8 2.867564 1_555
Al13 Al7 2.876163 1_555
Al14 Al16 2.822053 1_555
Al14 Al15 2.824481 1_555
Al14 Al17 2.837189 1_545
Al14 Al8 2.845142 1_545
Al14 Al9 2.846772 1_545
Al14 Al7 2.848237 1_555
Al15 Al20 2.743036 1_545
Al15 Al19 2.765493 1_455
Al15 Al16 2.769417 1_555
Al15 Al18 2.779519 1_555
Al15 Al17 2.840915 1_545
Al15 Al16 2.844408 1_455
Al15 Al17 2.851802 1_455
Al15 Al18 2.880897 1_545
Al15 Al21 3.105124 1_555
Al16 Al17 2.781116 1_545
Al16 Al19 2.796286 1_555
Al16 Al18 2.842814 1_555
Al16 Al18 2.849858 1_645
Al16 Al17 2.878676 1_555
Al16 Al22 2.983808 1_545
Al16 Al21 3.017952 1_555
Al17 Al19 2.750742 1_555
Al17 Al20 2.759717 1_555
Al17 Al18 2.770957 1_655
Al17 Al18 2.843050 1_555
Al17 Al22 3.088474 1_555
Al18 Al20 2.793928 1_555
Al18 Al21 2.968299 1_555
Al18 Al22 3.036989 1_455
Al19 Al23 2.647636 1_555
Al19 Al22 2.784220 1_545
Al19 Al21 2.785191 1_555
Al19 Al20 2.813324 1_645
Al19 Al21 2.870819 1_655
Al19 Al20 2.879313 1_555
Al19 Al22 2.920242 1_555
Al20 Al21 2.810996 1_555
Al20 Al22 2.815425 1_455
Al20 Al22 2.843288 1_555
Al20 Al21 2.890654 1_565
Al21 O0 2.034782 1_555
Al22 O1 1.854781 1_555
Al23 O2 1.875632 1_555
Al23 O1 1.904185 1_555
Al23 O0 1.932161 1_655
Al23 O3 1.933046 1_655
Al24 O1 1.846962 1_555
Al24 O2 1.865659 1_555
Al24 O4 1.894431 1_565
Al24 O3 1.894787 1_565
Al24 O0 2.012893 1_565
Al25 O2 1.737409 1_555
Al25 O5 1.765008 1_555
Al25 O4 1.786830 1_555
Al25 O0 1.815436 1_555
Al26 O3 1.751646 1_665
Al26 O4 1.760211 1_565
Al26 O5 1.790219 1_655
Al26 O6 1.806908 1_665
Al27 O6 1.815416 1_565
Al27 O8 1.840967 1_555
Al27 O7 1.874318 1_555
Al27 O10 1.916280 1_555
Al27 O5 1.951744 1_555
Al28 O6 1.756584 1_655
Al28 O11 1.772482 1_555
Al28 O7 1.798736 1_555
Al28 O9 1.841641 1_555
Al29 O10 1.775084 1_555
Al29 O8 1.797636 1_655
Al29 O9 1.836243 1_565
Al29 O7 1.860288 1_555
Al30 O12 1.793048 1_555
Al30 O11 1.852198 1_455
Al30 O8 1.942983 1_555
Al30 O9 1.956300 1_555
Al30 O13 1.960517 1_555
Al31 O13 1.832790 1_565
Al31 O10 1.843324 1_555
Al31 O12 1.854578 1_555
Al31 O11 1.867783 1_465
Al31 O14 1.879882 1_465
Al32 O16 1.864342 1_555
Al32 O12 1.867278 1_555
Al32 O15 1.873731 1_455
Al32 O14 1.897182 1_465
Al32 O17 1.952947 1_555
Al33 O13 1.744796 1_555
Al33 O14 1.768541 1_555
Al33 O16 1.778184 1_555
Al33 O15 1.914986 1_545
Al34 O18 1.770592 1_555
Al34 O17 1.799781 1_555
Al34 O15 1.825095 1_555
Al34 O16 1.838839 1_555
Al35 O20 1.711390 1_555
Al35 O19 1.761467 1_545
Al35 O17 1.801026 1_545
Al35 O18 1.901441 1_455
Al36 O20 1.657270 1_555
Al36 O19 1.702789 1_645
Al36 O18 1.828660 1_555
Al37 Al6 2.856252 1_555
Al37 Al4 2.884377 1_645
