# generated using pymatgen
data_InAg(MoO4)2
_symmetry_space_group_name_H-M   'P 1'
_cell_length_a   5.10457282
_cell_length_b   5.03737794
_cell_length_c   19.31771563
_cell_angle_alpha   82.60836835
_cell_angle_beta   82.50655406
_cell_angle_gamma   90.75093941
_symmetry_Int_Tables_number   1
_chemical_formula_structural   InAg(MoO4)2
_chemical_formula_sum   'In3 Ag3 Mo6 O24'
_cell_volume   488.16882529
_cell_formula_units_Z   3
loop_
 _symmetry_equiv_pos_site_id
 _symmetry_equiv_pos_as_xyz
  1  'x, y, z'
loop_
 _atom_site_type_symbol
 _atom_site_label
 _atom_site_symmetry_multiplicity
 _atom_site_fract_x
 _atom_site_fract_y
 _atom_site_fract_z
 _atom_site_occupancy
  In  In0  1  0.42324200  0.92324200  0.15351500  1
  In  In1  1  0.67736600  0.67736600  0.64526700  1
  In  In2  1  0.07224100  0.57224100  0.85551800  1
  Ag  Ag0  1  0.25769200  0.75769200  0.48461700  1
  Ag  Ag1  1  0.49782900  0.49782900  0.00434300  1
  Ag  Ag2  1  0.32607500  0.32607500  0.34785000  1
  Mo  Mo0  1  0.90305100  0.40305100  0.19389700  1
  Mo  Mo1  1  0.15205100  0.15205100  0.69589700  1
  Mo  Mo2  1  0.74610000  0.24610000  0.50779900  1
  Mo  Mo3  1  0.99924800  0.99924800  0.00150500  1
  Mo  Mo4  1  0.84538800  0.84538800  0.30922500  1
  Mo  Mo5  1  0.59605800  0.09605800  0.80788400  1
  O  O0  1  0.58397000  0.67453200  0.36837100  1
  O  O1  1  0.04765900  0.95709600  0.36837100  1
  O  O2  1  0.41767900  0.30844500  0.86490800  1
  O  O3  1  0.71741200  0.82664700  0.86490800  1
  O  O4  1  0.52619400  0.12533800  0.45491400  1
  O  O5  1  0.01889200  0.41974800  0.45491400  1
  O  O6  1  0.88732300  0.28425300  0.94658700  1
  O  O7  1  0.16608900  0.76916000  0.94658700  1
  O  O8  1  0.70087700  0.27196800  0.13252500  1
  O  O9  1  0.16659800  0.59550700  0.13252500  1
  O  O10  1  0.02814400  0.41733400  0.63994400  1
  O  O11  1  0.33191200  0.94272300  0.63994400  1
  O  O12  1  0.56306100  0.47647400  0.56181000  1
  O  O13  1  0.87512900  0.96171600  0.56181000  1
  O  O14  1  0.23571700  0.11418700  0.05287400  1
  O  O15  1  0.71140900  0.83293900  0.05287400  1
  O  O16  1  0.11481600  0.09134100  0.21486700  1
  O  O17  1  0.67031700  0.69379200  0.21486700  1
  O  O18  1  0.82697500  0.92934400  0.71958200  1
  O  O19  1  0.45344300  0.35107400  0.71958200  1
  O  O20  1  0.67161800  0.16439400  0.27641100  1
  O  O21  1  0.05197000  0.55919400  0.27641100  1
  O  O22  1  0.92190600  0.31877700  0.78554700  1
  O  O23  1  0.29254700  0.89567600  0.78554700  1
loop_
_geom_bond_atom_site_label_1
_geom_bond_atom_site_label_2
_geom_bond_distance
_geom_bond_site_symmetry_2
In0 O16 2.099251 1_565
In0 O17 2.099252 1_555
In0 O9 2.204613 1_555
In0 O8 2.204620 1_565
In0 O14 2.376887 1_565
In0 O15 2.376888 1_555
In1 O12 2.147877 1_555
In1 O13 2.147882 1_555
In1 O10 2.231730 1_655
In1 O11 2.231732 1_555
In1 O19 2.232641 1_555
In1 O18 2.232646 1_555
In2 O23 2.176019 1_555
In2 O22 2.176019 1_455
In2 O7 2.228180 1_555
In2 O6 2.228182 1_455
In2 O2 2.234014 1_555
In2 O3 2.234018 1_455
Ag0 O4 2.256651 1_565
Ag0 O5 2.256658 1_555
Ag0 O12 2.604002 1_555
Ag0 O13 2.604003 1_455
Ag0 O1 2.697588 1_555
Ag0 O0 2.697588 1_555
Ag1 O15 2.354291 1_555
Ag1 O14 2.354297 1_555
Ag1 O6 2.478222 1_554
Ag1 O7 2.478227 1_554
Ag2 O0 2.286016 1_555
Ag2 O1 2.286020 1_545
Ag2 O20 2.317532 1_555
Ag2 O21 2.317533 1_555
Ag2 O5 2.526581 1_555
Ag2 O4 2.526581 1_555
Mo0 O8 1.846435 1_555
Mo0 O9 1.846441 1_655
Mo0 O16 1.947606 1_655
Mo0 O17 1.947607 1_555
Mo0 O20 2.088123 1_555
Mo0 O21 2.088123 1_655
Mo1 O11 1.784079 1_545
Mo1 O10 1.784084 1_555
Mo1 O18 1.960240 1_445
Mo1 O19 1.960246 1_555
Mo1 O23 2.225802 1_545
Mo1 O22 2.225803 1_455
Mo2 O4 1.764921 1_555
Mo2 O5 1.764926 1_655
Mo2 O13 1.842284 1_545
Mo2 O12 1.842285 1_555
Mo3 O14 1.794133 1_665
Mo3 O15 1.794139 1_555
Mo3 O7 1.816802 1_654
Mo3 O6 1.816803 1_564
Mo4 O1 1.773717 1_655
Mo4 O0 1.773725 1_555
Mo4 O20 1.921679 1_565
Mo4 O21 1.921681 1_655
Mo4 O16 2.338682 1_665
Mo4 O17 2.338687 1_555
Mo5 O3 1.803980 1_545
Mo5 O2 1.803982 1_555
Mo5 O22 1.962355 1_555
Mo5 O23 1.962355 1_545
Mo5 O18 2.207829 1_545
Mo5 O19 2.207829 1_555
