# generated using pymatgen
data_ZnS
_symmetry_space_group_name_H-M   'P 1'
_cell_length_a   13.38468428
_cell_length_b   13.54728528
_cell_length_c   13.45348700
_cell_angle_alpha   85.53343646
_cell_angle_beta   87.04686363
_cell_angle_gamma   89.88633704
_symmetry_Int_Tables_number   1
_chemical_formula_structural   ZnS
_chemical_formula_sum   'Zn50 S50'
_cell_volume   2428.82523333
_cell_formula_units_Z   50
loop_
 _symmetry_equiv_pos_site_id
 _symmetry_equiv_pos_as_xyz
  1  'x, y, z'
loop_
 _atom_site_type_symbol
 _atom_site_label
 _atom_site_symmetry_multiplicity
 _atom_site_fract_x
 _atom_site_fract_y
 _atom_site_fract_z
 _atom_site_occupancy
  Zn  Zn0  1  0.57507073  0.01591915  0.60860679  1
  Zn  Zn1  1  0.14190736  0.54484181  0.77016576  1
  Zn  Zn2  1  0.92401712  0.18415394  0.91783171  1
  Zn  Zn3  1  0.58879815  0.34460131  0.89597339  1
  Zn  Zn4  1  0.06332473  0.11767431  0.47443192  1
  Zn  Zn5  1  0.56725759  0.12497607  0.36092503  1
  Zn  Zn6  1  0.74147091  0.64564444  0.46095968  1
  Zn  Zn7  1  0.49457614  0.78256379  0.20302101  1
  Zn  Zn8  1  0.47013358  0.27944221  0.54230467  1
  Zn  Zn9  1  0.84187692  0.06937706  0.14064403  1
  Zn  Zn10  1  0.87786744  0.41795682  0.58428558  1
  Zn  Zn11  1  0.53189642  0.98985316  0.04966901  1
  Zn  Zn12  1  0.86982964  0.51349890  0.26359413  1
  Zn  Zn13  1  0.02470734  0.00500386  0.74644154  1
  Zn  Zn14  1  0.41945610  0.57075213  0.77870069  1
  Zn  Zn15  1  0.61211828  0.44617579  0.10922506  1
  Zn  Zn16  1  0.09353441  0.90456968  0.60096981  1
  Zn  Zn17  1  0.08467181  0.86067004  0.14793388  1
  Zn  Zn18  1  0.10924663  0.14431833  0.04469932  1
  Zn  Zn19  1  0.27892326  0.70392645  0.28548113  1
  Zn  Zn20  1  0.06687181  0.29026992  0.88702850  1
  Zn  Zn21  1  0.48412699  0.15705884  0.74778651  1
  Zn  Zn22  1  0.67490365  0.39035668  0.36383543  1
  Zn  Zn23  1  0.72974231  0.03427152  0.79559916  1
  Zn  Zn24  1  0.32795392  0.98748556  0.86188196  1
  Zn  Zn25  1  0.12056371  0.75334222  0.98553825  1
  Zn  Zn26  1  0.66490769  0.63507963  0.64672536  1
  Zn  Zn27  1  0.49738504  0.53664366  0.27881420  1
  Zn  Zn28  1  0.84842264  0.11951510  0.38456549  1
  Zn  Zn29  1  0.30867661  0.32418465  0.87108195  1
  Zn  Zn30  1  0.02902958  0.95951537  0.30675995  1
  Zn  Zn31  1  0.94206146  0.82379878  0.48741408  1
  Zn  Zn32  1  0.15182212  0.34285183  0.35014260  1
  Zn  Zn33  1  0.20011833  0.34166362  0.17080095  1
  Zn  Zn34  1  0.82145850  0.34009563  0.06204885  1
  Zn  Zn35  1  0.32109312  0.89389365  0.02250788  1
  Zn  Zn36  1  0.64117534  0.91859711  0.31964474  1
  Zn  Zn37  1  0.83321252  0.52245131  0.73251961  1
  Zn  Zn38  1  0.36363178  0.01268887  0.54857334  1
  Zn  Zn39  1  0.01151259  0.27265982  0.24625269  1
  Zn  Zn40  1  0.66161736  0.47523265  0.56956090  1
  Zn  Zn41  1  0.72839353  0.76174976  0.13554471  1
  Zn  Zn42  1  0.24082371  0.20282525  0.66343897  1
  Zn  Zn43  1  0.00303690  0.67537592  0.41510645  1
  Zn  Zn44  1  0.02926553  0.32596493  0.61007098  1
  Zn  Zn45  1  0.54500477  0.83308014  0.76971451  1
  Zn  Zn46  1  0.90999319  0.82399415  0.24227283  1
  Zn  Zn47  1  0.94738494  0.80310435  0.00663378  1
  Zn  Zn48  1  0.16247348  0.54110675  0.49325878  1
  Zn  Zn49  1  0.01314607  0.73454164  0.64594454  1
  S  S0  1  0.50318012  0.94734363  0.21478932  1
  S  S1  1  0.32486489  0.16506729  0.80912657  1
  S  S2  1  0.55914238  0.27725984  0.27830427  1
  S  S3  1  0.78616509  0.18508937  0.02688022  1
  S  S4  1  0.17198172  0.37292743  0.76824143  1
  S  S5  1  0.08609371  0.98994996  0.99814523  1
  S  S6  1  0.85088826  0.65860710  0.06475943  1
  S  S7  1  0.70778685  0.43360842  0.96730751  1
  S  S8  1  0.88637833  0.04300719  0.84021958  1
  S  S9  1  0.15356597  0.64306174  0.61828905  1
  S  S10  1  0.91090467  0.69255500  0.78414483  1
  S  S11  1  0.56949538  0.66607768  0.78310609  1
  S  S12  1  0.20111772  0.28161115  0.02033120  1
  S  S13  1  0.57885636  0.74103738  0.05495012  1
  S  S14  1  0.88726421  0.54747537  0.43244720  1
  S  S15  1  0.72800628  0.07316003  0.28877172  1
  S  S16  1  0.58849615  0.86697956  0.95268477  1
  S  S17  1  0.27041229  0.67978267  0.97878731  1
  S  S18  1  0.39400430  0.53667214  0.61477651  1
  S  S19  1  0.60481670  0.16870439  0.86525502  1
  S  S20  1  0.68844873  0.51765137  0.24200207  1
  S  S21  1  0.50050000  0.42716533  0.62364857  1
  S  S22  1  0.08012719  0.14672510  0.64128186  1
  S  S23  1  0.93768614  0.40123961  0.15608866  1
  S  S24  1  0.32923609  0.42729216  0.21985884  1
  S  S25  1  0.22967272  0.92582006  0.48025364  1
  S  S26  1  0.43967035  0.68090331  0.33585197  1
  S  S27  1  0.74398088  0.34588455  0.50777848  1
  S  S28  1  0.53045357  0.15253814  0.00686949  1
  S  S29  1  0.97257680  0.55687096  0.83948846  1
  S  S30  1  0.26883264  0.65185590  0.82730564  1
  S  S31  1  0.14353769  0.94187353  0.86345235  1
  S  S32  1  0.49686911  0.37479984  0.38153350  1
  S  S33  1  0.00637636  0.11054109  0.19081185  1
  S  S34  1  0.93158961  0.98993469  0.46876635  1
  S  S35  1  0.17663973  0.37532606  0.50681035  1
  S  S36  1  0.52325864  0.98300644  0.45266169  1
  S  S37  1  0.74277533  0.77770337  0.32272103  1
  S  S38  1  0.44040502  0.42317282  0.88621684  1
  S  S39  1  0.17685977  0.03159985  0.37270863  1
  S  S40  1  0.44422738  0.49754833  0.12441501  1
  S  S41  1  0.25069767  0.84225888  0.18059280  1
  S  S42  1  0.14074819  0.61240743  0.33417745  1
  S  S43  1  0.41559761  0.94399105  0.71182391  1
  S  S44  1  0.68605666  0.91913822  0.69471611  1
  S  S45  1  0.94908302  0.65915365  0.18044736  1
  S  S46  1  0.33458591  0.18114990  0.51926621  1
  S  S47  1  0.95584314  0.24252730  0.41378602  1
  S  S48  1  0.59527966  0.18401383  0.61591635  1
  S  S49  1  0.83272027  0.90356132  0.09632604  1
loop_
_geom_bond_atom_site_label_1
_geom_bond_atom_site_label_2
_geom_bond_distance
_geom_bond_site_symmetry_2
S0 Zn7 2.253780 1_555
S0 Zn11 2.264473 1_555
S0 Zn36 2.394409 1_555
S1 Zn21 2.251352 1_555
S1 Zn42 2.331808 1_555
S1 Zn29 2.376496 1_555
S1 Zn24 2.455558 1_545
S2 S32 2.128797 1_555
S2 Zn5 2.271079 1_555
S2 Zn22 2.557352 1_555
S3 Zn34 2.244632 1_555
S3 Zn9 2.257241 1_555
S3 Zn2 2.297998 1_554
S4 Zn20 2.298471 1_555
S4 Zn1 2.364618 1_555
S4 Zn29 2.410711 1_555
S4 Zn42 2.917389 1_555
S5 Zn18 2.255726 1_566
S5 Zn17 2.564206 1_556
S6 Zn41 2.363212 1_555
S6 Zn47 2.403998 1_555
S7 Zn15 2.260946 1_556
S7 Zn3 2.292767 1_555
S7 Zn34 2.342010 1_556
S8 Zn23 2.216192 1_555
S8 Zn13 2.267491 1_655
S8 Zn2 2.317195 1_555
S9 Zn48 2.256536 1_555
S9 Zn49 2.279750 1_555
S9 Zn1 2.348264 1_555
S10 S29 2.111563 1_555
S10 Zn49 2.286778 1_655
S10 Zn37 2.684664 1_555
S11 Zn26 2.247257 1_555
S11 Zn45 2.279947 1_555
S11 Zn14 2.395556 1_555
S12 Zn18 2.225200 1_555
S12 Zn33 2.239125 1_555
S12 Zn29 2.441728 1_554
S12 Zn20 2.599434 1_554
S13 S16 2.106547 1_554
S13 Zn7 2.344748 1_555
S13 Zn41 2.352372 1_555
S14 Zn43 2.316967 1_655
S14 Zn12 2.375853 1_555
S14 Zn6 2.390779 1_555
S14 Zn10 2.585249 1_555
S15 Zn28 2.235409 1_555
S15 Zn36 2.394189 1_545
S15 Zn5 2.439106 1_555
S15 Zn9 2.449408 1_555
S16 Zn11 2.297541 1_556
S16 Zn45 2.633243 1_555
S17 S30 2.102715 1_555
S17 Zn25 2.238629 1_555
S18 S21 2.056316 1_555
S18 Zn14 2.330110 1_555
S19 S28 2.099748 1_556
S19 Zn21 2.331270 1_555
S19 Zn3 2.457097 1_555
S19 Zn23 2.661414 1_555
S20 Zn22 2.285546 1_555
S20 Zn15 2.373539 1_555
S20 Zn12 2.459874 1_555
S20 Zn27 2.595791 1_555
S21 Zn40 2.318217 1_555
S21 Zn8 2.399580 1_555
S22 Zn42 2.323909 1_555
S22 Zn4 2.331131 1_555
S22 Zn13 2.390063 1_555
S22 Zn44 2.529835 1_555
S23 Zn34 2.253447 1_555
S23 Zn39 2.295574 1_655
S23 Zn12 2.330530 1_555
S24 S40 2.129647 1_555
S24 Zn33 2.238903 1_555
S25 S39 2.103586 1_565
S25 Zn16 2.380139 1_555
S25 Zn38 2.406504 1_565
S26 Zn7 2.261789 1_555
S26 Zn27 2.274090 1_555
S26 Zn19 2.302243 1_555
S27 Zn22 2.229024 1_555
S27 Zn40 2.258666 1_555
S27 Zn10 2.361706 1_555
S28 Zn11 2.234411 1_545
S29 Zn1 2.416092 1_655
S29 Zn37 2.480431 1_555
S30 Zn14 2.380450 1_555
S30 Zn1 2.428322 1_555
S31 S5 2.082620 1_555
S31 Zn13 2.404613 1_565
S31 Zn24 2.544343 1_555
S31 Zn25 2.934849 1_555
S32 Zn22 2.390650 1_555
S32 Zn8 2.441732 1_555
S32 Zn27 2.498837 1_555
S33 Zn18 2.356436 1_555
S33 Zn39 2.376064 1_555
S33 Zn9 2.414734 1_455
S33 Zn30 2.502096 1_545
S34 Zn31 2.250026 1_555
S34 Zn28 2.327328 1_565
S34 Zn4 2.481132 1_665
S34 Zn30 2.542850 1_655
S35 Zn32 2.227902 1_555
S35 Zn48 2.247500 1_555
S35 Zn44 2.417904 1_555
S36 Zn5 2.264729 1_565
S36 Zn0 2.319095 1_565
S36 Zn38 2.486946 1_565
S36 Zn36 2.530124 1_555
S37 Zn36 2.340392 1_555
S37 Zn6 2.477567 1_555
S37 Zn46 2.494849 1_555
S37 Zn41 2.561220 1_555
S38 Zn29 2.244409 1_555
S38 Zn3 2.256530 1_555
S38 Zn14 2.399421 1_555
S39 Zn4 2.359901 1_555
S39 Zn30 2.445290 1_545
S40 Zn27 2.329521 1_555
S40 Zn15 2.354678 1_555
S41 Zn17 2.296691 1_555
S41 Zn19 2.299171 1_555
S41 Zn35 2.337683 1_555
S42 Zn19 2.268154 1_555
S42 Zn43 2.289594 1_555
S42 Zn48 2.310638 1_555
S43 Zn24 2.395288 1_555
S43 Zn45 2.410538 1_555
S43 Zn38 2.451548 1_565
S43 Zn0 2.631725 1_565
S44 Zn23 2.243185 1_565
S44 Zn0 2.280537 1_565
S44 Zn45 2.360256 1_555
S45 S6 2.088651 1_555
S45 Zn12 2.410897 1_555
S45 Zn46 2.488440 1_555
S46 Zn42 2.293421 1_555
S46 Zn8 2.300558 1_555
S46 Zn38 2.321015 1_555
S47 Zn28 2.273483 1_555
S47 Zn39 2.342391 1_655
S47 Zn4 2.343613 1_655
S48 Zn21 2.263514 1_555
S48 Zn0 2.304053 1_555
S48 Zn8 2.328253 1_555
S49 Zn9 2.373572 1_565
S49 Zn41 2.386625 1_555
S49 Zn47 2.391713 1_555
S49 Zn46 2.441743 1_555
