# generated using pymatgen
data_Li7Mn4CoO12
_symmetry_space_group_name_H-M   'P 1'
_cell_length_a   3.04676801
_cell_length_b   3.04676801
_cell_length_c   29.76941597
_cell_angle_alpha   86.59028837
_cell_angle_beta   86.59028837
_cell_angle_gamma   56.08465933
_symmetry_Int_Tables_number   1
_chemical_formula_structural   Li7Mn4CoO12
_chemical_formula_sum   'Li7 Mn4 Co1 O12'
_cell_volume   228.80586043
_cell_formula_units_Z   1
loop_
 _symmetry_equiv_pos_site_id
 _symmetry_equiv_pos_as_xyz
  1  'x, y, z'
loop_
 _atom_site_type_symbol
 _atom_site_label
 _atom_site_symmetry_multiplicity
 _atom_site_fract_x
 _atom_site_fract_y
 _atom_site_fract_z
 _atom_site_occupancy
  Li  Li0  1  0.66691000  0.66691000  0.08277300  1
  Li  Li1  1  0.00013200  0.00013200  0.24989300  1
  Li  Li2  1  0.33315100  0.33315100  0.41693500  1
  Li  Li3  1  0.67312100  0.67312100  0.58839200  1
  Li  Li4  1  0.99099500  0.99099500  0.74797600  1
  Li  Li5  1  0.33361600  0.33361600  0.91403700  1
  Li  Li6  1  0.33268900  0.33268900  0.66712300  1
  Mn  Mn0  1  0.99834400  0.99834400  0.99936100  1
  Mn  Mn1  1  0.00328800  0.00328800  0.50003600  1
  Mn  Mn2  1  0.33319900  0.33319900  0.16657600  1
  Mn  Mn3  1  0.66657500  0.66657500  0.33340300  1
  Co  Co0  1  0.66601400  0.66601400  0.83307600  1
  O  O0  1  0.35665200  0.35665200  0.03789400  1
  O  O1  1  0.68965900  0.68965900  0.20510400  1
  O  O2  1  0.02301600  0.02301600  0.37163900  1
  O  O3  1  0.34778400  0.34778400  0.53590500  1
  O  O4  1  0.67102200  0.67102200  0.70978300  1
  O  O5  1  0.99016600  0.99016600  0.87173500  1
  O  O6  1  0.97705100  0.97705100  0.12833200  1
  O  O7  1  0.31068400  0.31068400  0.29477600  1
  O  O8  1  0.64918900  0.64918900  0.46158100  1
  O  O9  1  0.99601300  0.99601300  0.62492900  1
  O  O10  1  0.34729300  0.34729300  0.79738300  1
  O  O11  1  0.64343700  0.64343700  0.96135700  1
loop_
_geom_bond_atom_site_label_1
_geom_bond_atom_site_label_2
_geom_bond_distance
_geom_bond_site_symmetry_2
Li0 O0 2.166611 1_655
Li0 O0 2.166611 1_565
Li0 O6 2.178781 1_455
Li0 O6 2.178781 1_545
Li0 O0 2.206737 1_555
Li0 O6 2.219578 1_555
Li1 O1 2.164548 1_545
Li1 O1 2.164548 1_455
Li1 O7 2.166002 1_455
Li1 O7 2.166002 1_545
Li1 O1 2.205901 1_445
Li1 O7 2.208075 1_555
Li2 O8 2.149363 1_545
Li2 O8 2.149363 1_455
Li2 O2 2.174178 1_655
Li2 O2 2.174178 1_565
Li2 O2 2.214379 1_555
Li2 O8 2.227087 1_555
Li3 O9 2.000591 1_455
Li3 O9 2.000591 1_545
Li3 O9 2.110279 1_555
Li3 O3 2.275449 1_565
Li3 O3 2.275449 1_655
Li3 O3 2.423095 1_555
Li4 O4 2.033090 1_655
Li4 O4 2.033090 1_565
Li4 O4 2.125513 1_555
Li4 O10 2.158484 1_655
Li4 O10 2.158484 1_565
Li4 O10 2.493006 1_665
Li5 O5 2.050240 1_455
Li5 O5 2.050240 1_545
Li5 O11 2.210885 1_455
Li5 O11 2.210885 1_545
Li5 O11 2.253263 1_555
Li5 O5 2.304611 1_445
Li6 O9 2.062103 1_455
Li6 O9 2.062103 1_545
Li6 O4 2.066790 1_545
Li6 O4 2.066790 1_455
Li6 O9 2.272205 1_445
Li6 O4 2.288060 1_555
Mn0 O11 1.954880 1_655
Mn0 O11 1.954880 1_565
Mn0 O0 1.957140 1_566
Mn0 O0 1.957140 1_656
Mn0 O11 2.283488 1_555
Mn0 O0 2.308081 1_666
Mn1 O3 1.941888 1_545
Mn1 O3 1.941888 1_455
Mn1 O8 1.963882 1_545
Mn1 O8 1.963882 1_455
Mn1 O3 2.199892 1_555
Mn1 O8 2.287158 1_445
Mn2 O6 1.956444 1_545
Mn2 O6 1.956444 1_455
Mn2 O1 1.960556 1_545
Mn2 O1 1.960556 1_455
Mn2 O6 2.293234 1_445
Mn2 O1 2.299373 1_555
Mn3 O2 1.955751 1_655
Mn3 O2 1.955751 1_565
Mn3 O7 1.963289 1_655
Mn3 O7 1.963289 1_565
Mn3 O2 2.294471 1_665
Mn3 O7 2.298358 1_555
Co0 O10 1.997896 1_655
Co0 O10 1.997896 1_565
Co0 O5 2.030727 1_455
Co0 O5 2.030727 1_545
Co0 O10 2.076717 1_555
Co0 O5 2.152697 1_555
