# generated using pymatgen
data_Sc5Sb3
_symmetry_space_group_name_H-M   'P 1'
_cell_length_a   7.66464130
_cell_length_b   8.75587965
_cell_length_c   11.16822545
_cell_angle_alpha   90.00000000
_cell_angle_beta   90.00000000
_cell_angle_gamma   90.00000000
_symmetry_Int_Tables_number   1
_chemical_formula_structural   Sc5Sb3
_chemical_formula_sum   'Sc20 Sb12'
_cell_volume   749.50716842
_cell_formula_units_Z   4
loop_
 _symmetry_equiv_pos_site_id
 _symmetry_equiv_pos_as_xyz
  1  'x, y, z'
loop_
 _atom_site_type_symbol
 _atom_site_label
 _atom_site_symmetry_multiplicity
 _atom_site_fract_x
 _atom_site_fract_y
 _atom_site_fract_z
 _atom_site_occupancy
  Sc  Sc0  1  0.80508047  0.56012830  0.06648356  1
  Sc  Sc1  1  0.69490919  0.93985818  0.56652168  1
  Sc  Sc2  1  0.19490919  0.06014182  0.93347832  1
  Sc  Sc3  1  0.30508047  0.43987170  0.43351644  1
  Sc  Sc4  1  0.19490919  0.43985818  0.93347832  1
  Sc  Sc5  1  0.30508047  0.06012830  0.43351644  1
  Sc  Sc6  1  0.80508047  0.93987170  0.06648356  1
  Sc  Sc7  1  0.69490919  0.56014182  0.56652168  1
  Sc  Sc8  1  0.17516394  0.75000000  0.22991942  1
  Sc  Sc9  1  0.32484769  0.75000000  0.72991097  1
  Sc  Sc10  1  0.82484769  0.25000000  0.77008903  1
  Sc  Sc11  1  0.67516394  0.25000000  0.27008058  1
  Sc  Sc12  1  0.47404288  0.75000000  0.00536256  1
  Sc  Sc13  1  0.02595038  0.75000000  0.50541013  1
  Sc  Sc14  1  0.52595038  0.25000000  0.99458987  1
  Sc  Sc15  1  0.97404288  0.25000000  0.49463744  1
  Sc  Sc16  1  0.65713257  0.75000000  0.28707737  1
  Sc  Sc17  1  0.84285403  0.75000000  0.78708550  1
  Sc  Sc18  1  0.34285403  0.25000000  0.71291450  1
  Sc  Sc19  1  0.15713257  0.25000000  0.21292263  1
  Sb  Sb0  1  0.40772758  0.75000000  0.47606359  1
  Sb  Sb1  1  0.09228287  0.75000000  0.97608864  1
  Sb  Sb2  1  0.59228287  0.25000000  0.52391136  1
  Sb  Sb3  1  0.90772758  0.25000000  0.02393641  1
  Sb  Sb4  1  0.93523437  0.51001212  0.32585250  1
  Sb  Sb5  1  0.56477550  0.99003785  0.82583031  1
  Sb  Sb6  1  0.06477550  0.00996215  0.67416969  1
  Sb  Sb7  1  0.43523437  0.48998788  0.17414750  1
  Sb  Sb8  1  0.06477550  0.49003785  0.67416969  1
  Sb  Sb9  1  0.43523437  0.01001212  0.17414750  1
  Sb  Sb10  1  0.93523437  0.98998788  0.32585250  1
  Sb  Sb11  1  0.56477550  0.50996215  0.82583031  1
loop_
_geom_bond_atom_site_label_1
_geom_bond_atom_site_label_2
_geom_bond_distance
_geom_bond_site_symmetry_2
Sb0 Sc16 2.847634 1_555
Sb0 Sc5 2.866779 1_565
Sb0 Sc3 2.866779 1_555
Sb0 Sc9 2.905323 1_555
Sb0 Sc1 2.937541 1_555
Sb0 Sc7 2.937541 1_555
Sb0 Sc13 2.944483 1_555
Sb0 Sc8 3.276329 1_555
Sb1 Sc17 2.847897 1_455
Sb1 Sc2 2.866964 1_565
Sb1 Sc4 2.866964 1_555
Sb1 Sc8 2.905144 1_556
Sb1 Sc0 2.937484 1_456
Sb1 Sc6 2.937484 1_456
Sb1 Sc12 2.944262 1_556
Sb1 Sc9 3.276648 1_555
Sb2 Sc18 2.847897 1_555
Sb2 Sc1 2.866964 1_545
Sb2 Sc7 2.866964 1_555
Sb2 Sc11 2.905144 1_555
Sb2 Sc5 2.937484 1_555
Sb2 Sc3 2.937484 1_555
Sb2 Sc15 2.944262 1_555
Sb2 Sc10 3.276648 1_555
Sb3 Sc19 2.847634 1_655
Sb3 Sc0 2.866779 1_555
Sb3 Sc6 2.866779 1_545
Sb3 Sc10 2.905323 1_554
Sb3 Sc2 2.937541 1_654
Sb3 Sc4 2.937541 1_654
Sb3 Sc14 2.944483 1_554
Sb3 Sc11 3.276329 1_555
Sb4 Sc15 2.970669 1_555
Sb4 Sc13 2.986691 1_655
Sb4 Sc8 2.990855 1_655
Sb4 Sc16 3.024322 1_555
Sb4 Sc11 3.089412 1_555
Sb4 Sc0 3.094922 1_555
Sb4 Sc19 3.109080 1_655
Sb4 Sc3 3.139858 1_655
Sb4 Sc7 3.287883 1_555
Sb5 Sc14 2.970167 1_565
Sb5 Sc12 2.986838 1_556
Sb5 Sc9 2.991099 1_555
Sb5 Sc17 3.024452 1_555
Sb5 Sc10 3.089030 1_565
Sb5 Sc1 3.094321 1_555
Sb5 Sc18 3.108793 1_565
Sb5 Sc2 3.139867 1_565
Sb5 Sc6 3.287693 1_556
Sb6 Sc13 2.970167 1_545
Sb6 Sc15 2.986838 1_455
Sb6 Sc10 2.991099 1_455
Sb6 Sc18 3.024452 1_555
Sb6 Sc9 3.089030 1_545
Sb6 Sc2 3.094321 1_555
Sb6 Sc17 3.108793 1_445
Sb6 Sc1 3.139867 1_445
Sb6 Sc5 3.287693 1_555
Sb7 Sc12 2.970669 1_555
Sb7 Sc14 2.986691 1_554
Sb7 Sc11 2.990855 1_555
Sb7 Sc19 3.024322 1_555
Sb7 Sc8 3.089412 1_555
Sb7 Sc3 3.094922 1_555
Sb7 Sc16 3.109080 1_555
Sb7 Sc0 3.139858 1_555
Sb7 Sc4 3.287883 1_554
Sb8 Sc13 2.970167 1_555
Sb8 Sc15 2.986838 1_455
Sb8 Sc10 2.991099 1_455
Sb8 Sc18 3.024452 1_555
Sb8 Sc9 3.089030 1_555
Sb8 Sc4 3.094321 1_555
Sb8 Sc17 3.108793 1_455
Sb8 Sc7 3.139867 1_455
Sb8 Sc3 3.287693 1_555
Sb9 Sc12 2.970669 1_545
Sb9 Sc14 2.986691 1_554
Sb9 Sc11 2.990855 1_555
Sb9 Sc19 3.024322 1_555
Sb9 Sc8 3.089412 1_545
Sb9 Sc5 3.094922 1_555
Sb9 Sc16 3.109080 1_545
Sb9 Sc6 3.139858 1_545
Sb9 Sc2 3.287883 1_554
Sb10 Sc15 2.970669 1_565
Sb10 Sc13 2.986691 1_655
Sb10 Sc8 2.990855 1_655
Sb10 Sc16 3.024322 1_555
Sb10 Sc11 3.089412 1_565
Sb10 Sc6 3.094922 1_555
Sb10 Sc19 3.109080 1_665
Sb10 Sc5 3.139858 1_665
Sb10 Sc1 3.287883 1_555
Sb11 Sc14 2.970167 1_555
Sb11 Sc12 2.986838 1_556
Sb11 Sc9 2.991099 1_555
Sb11 Sc17 3.024452 1_555
Sb11 Sc10 3.089030 1_555
Sb11 Sc7 3.094321 1_555
Sb11 Sc18 3.108793 1_555
Sb11 Sc4 3.139867 1_555
Sb11 Sc0 3.287693 1_556
