# generated using pymatgen
data_BaYMg14
_symmetry_space_group_name_H-M   'P 1'
_cell_length_a   6.68242471
_cell_length_b   6.67847882
_cell_length_c   10.65395504
_cell_angle_alpha   90.00000000
_cell_angle_beta   90.00000000
_cell_angle_gamma   119.98047458
_symmetry_Int_Tables_number   1
_chemical_formula_structural   BaYMg14
_chemical_formula_sum   'Ba1 Y1 Mg14'
_cell_volume   411.84949037
_cell_formula_units_Z   1
loop_
 _symmetry_equiv_pos_site_id
 _symmetry_equiv_pos_as_xyz
  1  'x, y, z'
loop_
 _atom_site_type_symbol
 _atom_site_label
 _atom_site_symmetry_multiplicity
 _atom_site_fract_x
 _atom_site_fract_y
 _atom_site_fract_z
 _atom_site_occupancy
  Ba  Ba0  1  0.16697130  0.83348515  0.12500000  1
  Y  Y0  1  0.17940489  0.33970195  0.12500000  1
  Mg  Mg0  1  0.16378339  0.33189120  0.62500000  1
  Mg  Mg1  1  0.16627015  0.83313458  0.62500000  1
  Mg  Mg2  1  0.66492631  0.33270023  0.12500000  1
  Mg  Mg3  1  0.66802079  0.33238855  0.62500000  1
  Mg  Mg4  1  0.66492631  0.83222508  0.12500000  1
  Mg  Mg5  1  0.66802079  0.83563124  0.62500000  1
  Mg  Mg6  1  0.33966335  0.17778353  0.39079260  1
  Mg  Mg7  1  0.33966335  0.17778353  0.85920740  1
  Mg  Mg8  1  0.33966335  0.66188081  0.39079260  1
  Mg  Mg9  1  0.33966335  0.66188081  0.85920740  1
  Mg  Mg10  1  0.83089896  0.16544998  0.37588082  1
  Mg  Mg11  1  0.83089896  0.16544998  0.87411918  1
  Mg  Mg12  1  0.81861239  0.65930669  0.38716749  1
  Mg  Mg13  1  0.81861239  0.65930669  0.86283251  1
loop_
_geom_bond_atom_site_label_1
_geom_bond_atom_site_label_2
_geom_bond_distance
_geom_bond_site_symmetry_2
Ba0 Mg2 3.331760 1_565
Ba0 Mg4 3.331760 1_555
Ba0 Y0 3.340015 1_555
Ba0 Y0 3.340015 1_565
Ba0 Mg2 3.350680 1_455
Ba0 Mg4 3.350681 1_455
Ba0 Mg13 3.444909 1_454
Ba0 Mg12 3.444909 1_455
Ba0 Mg8 3.462037 1_555
Ba0 Mg9 3.462037 1_554
Ba0 Mg6 3.462043 1_565
Ba0 Mg7 3.462043 1_564
Mg0 Mg7 3.142565 1_555
Mg0 Mg6 3.142565 1_555
Mg0 Mg9 3.142572 1_555
Mg0 Mg8 3.142572 1_555
Mg0 Mg10 3.279779 1_455
Mg0 Mg11 3.279779 1_455
Mg0 Mg5 3.314557 1_445
Mg0 Mg3 3.314557 1_455
Mg0 Mg1 3.339270 1_555
Mg0 Mg1 3.339270 1_545
Mg0 Mg5 3.367870 1_555
Mg0 Mg3 3.367870 1_555
Mg1 Mg9 3.193941 1_555
Mg1 Mg8 3.193941 1_555
Mg1 Mg7 3.193948 1_565
Mg1 Mg6 3.193948 1_565
Mg1 Mg12 3.235731 1_455
Mg1 Mg13 3.235731 1_455
Mg1 Mg3 3.337877 1_455
Mg1 Mg5 3.337877 1_455
Mg1 Mg3 3.344610 1_565
Mg1 Mg5 3.344610 1_555
Mg2 Y0 3.268078 1_555
Mg2 Mg4 3.336066 1_555
Mg2 Mg4 3.342413 1_545
Mg2 Mg6 3.400888 1_555
Mg2 Mg7 3.400888 1_554
Mg2 Y0 3.414838 1_655
Mg3 Mg7 3.137303 1_555
Mg3 Mg6 3.137303 1_555
Mg3 Mg5 3.317583 1_545
Mg3 Mg5 3.360896 1_555
Mg4 Y0 3.268078 1_555
Mg4 Mg8 3.400888 1_555
Mg4 Mg9 3.400888 1_554
Mg4 Y0 3.414838 1_665
Mg5 Mg8 3.137303 1_555
Mg5 Mg9 3.137303 1_555
Mg6 Mg8 3.233033 1_555
Mg6 Y0 3.390037 1_555
Mg6 Mg8 3.445445 1_545
Mg7 Mg9 3.233033 1_555
Mg7 Y0 3.390037 1_556
Mg7 Mg9 3.445445 1_545
Mg8 Y0 3.390044 1_555
Mg9 Y0 3.390044 1_556
Mg10 Mg3 3.268743 1_555
Mg10 Mg5 3.268750 1_545
Mg10 Mg2 3.295466 1_555
Mg10 Mg4 3.295473 1_545
Mg10 Mg8 3.328364 1_545
Mg10 Mg6 3.328365 1_555
Mg10 Mg12 3.342161 1_555
Mg10 Mg12 3.342161 1_545
Mg10 Y0 3.348665 1_655
Mg10 Mg8 3.363131 1_655
Mg10 Mg6 3.363132 1_655
Mg11 Mg3 3.268743 1_555
Mg11 Mg5 3.268750 1_545
Mg11 Mg2 3.295466 1_556
Mg11 Mg4 3.295473 1_546
Mg11 Mg9 3.328364 1_545
Mg11 Mg7 3.328365 1_555
Mg11 Mg13 3.342161 1_555
Mg11 Mg13 3.342161 1_545
Mg11 Y0 3.348665 1_656
Mg11 Mg9 3.363131 1_655
Mg11 Mg7 3.363132 1_655
Mg12 Mg5 3.162929 1_555
Mg12 Mg3 3.162936 1_555
Mg12 Mg6 3.209398 1_555
Mg12 Mg8 3.209398 1_555
Mg12 Mg4 3.372712 1_555
Mg12 Mg2 3.372719 1_555
Mg12 Mg6 3.473540 1_665
Mg12 Mg8 3.473540 1_655
Mg13 Mg5 3.162929 1_555
Mg13 Mg3 3.162936 1_555
Mg13 Mg7 3.209398 1_555
Mg13 Mg9 3.209398 1_555
Mg13 Mg4 3.372712 1_556
Mg13 Mg2 3.372719 1_556
Mg13 Mg7 3.473540 1_665
Mg13 Mg9 3.473540 1_655
