# generated using pymatgen
data_CaFe3Si2O9
_symmetry_space_group_name_H-M   'P 1'
_cell_length_a   6.60305900
_cell_length_b   8.39685200
_cell_length_c   17.87265900
_cell_angle_alpha   90.00000000
_cell_angle_beta   90.00000000
_cell_angle_gamma   90.00000000
_symmetry_Int_Tables_number   1
_chemical_formula_structural   CaFe3Si2O9
_chemical_formula_sum   'Ca4 Fe12 Si8 O36'
_cell_volume   990.94795489
_cell_formula_units_Z   4
loop_
 _symmetry_equiv_pos_site_id
 _symmetry_equiv_pos_as_xyz
  1  'x, y, z'
loop_
 _atom_site_type_symbol
 _atom_site_label
 _atom_site_symmetry_multiplicity
 _atom_site_fract_x
 _atom_site_fract_y
 _atom_site_fract_z
 _atom_site_occupancy
  Ca  Ca0  1  0.25000000  0.51259600  0.94351500  1
  Ca  Ca1  1  0.25000000  0.98740400  0.44351500  1
  Ca  Ca2  1  0.75000000  0.48740400  0.05648500  1
  Ca  Ca3  1  0.75000000  0.01259600  0.55648500  1
  Fe  Fe0  1  0.94943000  0.36297000  0.62435600  1
  Fe  Fe1  1  0.55057000  0.13703000  0.12435600  1
  Fe  Fe2  1  0.44943000  0.63703000  0.37564400  1
  Fe  Fe3  1  0.05057000  0.86297000  0.87564400  1
  Fe  Fe4  1  0.05057000  0.63703000  0.37564400  1
  Fe  Fe5  1  0.44943000  0.86297000  0.87564400  1
  Fe  Fe6  1  0.55057000  0.36297000  0.62435600  1
  Fe  Fe7  1  0.94943000  0.13703000  0.12435600  1
  Fe  Fe8  1  0.25000000  0.92578600  0.22960800  1
  Fe  Fe9  1  0.25000000  0.57421400  0.72960800  1
  Fe  Fe10  1  0.75000000  0.07421400  0.77039200  1
  Fe  Fe11  1  0.75000000  0.42578600  0.27039200  1
  Si  Si0  1  0.25000000  0.17688900  0.58445200  1
  Si  Si1  1  0.25000000  0.32311100  0.08445200  1
  Si  Si2  1  0.75000000  0.82311100  0.41554800  1
  Si  Si3  1  0.75000000  0.67688900  0.91554800  1
  Si  Si4  1  0.25000000  0.56240600  0.22336300  1
  Si  Si5  1  0.25000000  0.93759400  0.72336300  1
  Si  Si6  1  0.75000000  0.43759400  0.77663700  1
  Si  Si7  1  0.75000000  0.06240600  0.27663700  1
  O  O0  1  0.25000000  0.37043200  0.61011700  1
  O  O1  1  0.25000000  0.12956800  0.11011700  1
  O  O2  1  0.75000000  0.62956800  0.38988300  1
  O  O3  1  0.75000000  0.87043200  0.88988300  1
  O  O4  1  0.25000000  0.08980900  0.66586700  1
  O  O5  1  0.25000000  0.41019100  0.16586700  1
  O  O6  1  0.75000000  0.91019100  0.33413300  1
  O  O7  1  0.75000000  0.58980900  0.83413300  1
  O  O8  1  0.25000000  0.53052300  0.42853300  1
  O  O9  1  0.25000000  0.96947700  0.92853300  1
  O  O10  1  0.75000000  0.46947700  0.57146700  1
  O  O11  1  0.75000000  0.03052300  0.07146700  1
  O  O12  1  0.25000000  0.80446900  0.34380200  1
  O  O13  1  0.25000000  0.69553100  0.84380200  1
  O  O14  1  0.75000000  0.19553100  0.65619800  1
  O  O15  1  0.75000000  0.30446900  0.15619800  1
  O  O16  1  0.04543600  0.14634000  0.53730000  1
  O  O17  1  0.45456400  0.35366000  0.03730000  1
  O  O18  1  0.54543600  0.85366000  0.46270000  1
  O  O19  1  0.95456400  0.64634000  0.96270000  1
  O  O20  1  0.95456400  0.85366000  0.46270000  1
  O  O21  1  0.54543600  0.64634000  0.96270000  1
  O  O22  1  0.45456400  0.14634000  0.53730000  1
  O  O23  1  0.04543600  0.35366000  0.03730000  1
  O  O24  1  0.53981300  0.46024800  0.72476400  1
  O  O25  1  0.96018700  0.03975200  0.22476400  1
  O  O26  1  0.03981300  0.53975200  0.27523600  1
  O  O27  1  0.46018700  0.96024800  0.77523600  1
  O  O28  1  0.46018700  0.53975200  0.27523600  1
  O  O29  1  0.03981300  0.96024800  0.77523600  1
  O  O30  1  0.96018700  0.46024800  0.72476400  1
  O  O31  1  0.53981300  0.03975200  0.22476400  1
  O  O32  1  0.25000000  0.72592800  0.17634500  1
  O  O33  1  0.25000000  0.77407200  0.67634500  1
  O  O34  1  0.75000000  0.27407200  0.82365500  1
  O  O35  1  0.75000000  0.22592800  0.32365500  1
loop_
_geom_bond_atom_site_label_1
_geom_bond_atom_site_label_2
_geom_bond_distance
_geom_bond_site_symmetry_2
Ca0 O21 2.276909 1_555
Ca0 O19 2.276909 1_455
Ca0 O13 2.352774 1_555
Ca0 O17 2.532821 1_556
Ca0 O23 2.532821 1_556
Ca1 O18 2.276909 1_555
Ca1 O20 2.276909 1_455
Ca1 O12 2.352774 1_555
Ca1 O22 2.532821 1_565
Ca1 O16 2.532821 1_565
Ca2 O23 2.276909 1_655
Ca2 O17 2.276909 1_555
Ca2 O15 2.352774 1_555
Ca2 O19 2.532821 1_554
Ca2 O21 2.532821 1_554
Ca3 O16 2.276909 1_655
Ca3 O22 2.276909 1_555
Ca3 O14 2.352774 1_555
Ca3 O20 2.532821 1_545
Ca3 O18 2.532821 1_545
Fe0 O10 1.851333 1_555
Fe0 O30 1.972991 1_555
Fe0 O0 2.001912 1_655
Fe0 O14 2.008654 1_555
Fe0 O16 2.476199 1_655
Fe1 O11 1.851333 1_555
Fe1 O31 1.972991 1_555
Fe1 O1 2.001912 1_555
Fe1 O15 2.008654 1_555
Fe1 O17 2.476199 1_555
Fe2 O8 1.851333 1_555
Fe2 O28 1.972991 1_555
Fe2 O2 2.001912 1_555
Fe2 O12 2.008654 1_555
Fe2 O18 2.476199 1_555
Fe3 O9 1.851333 1_555
Fe3 O29 1.972991 1_555
Fe3 O3 2.001912 1_455
Fe3 O13 2.008654 1_555
Fe3 O19 2.476199 1_455
Fe4 O8 1.851333 1_555
Fe4 O26 1.972991 1_555
Fe4 O2 2.001912 1_455
Fe4 O12 2.008654 1_555
Fe4 O20 2.476199 1_455
Fe5 O9 1.851333 1_555
Fe5 O27 1.972991 1_555
Fe5 O3 2.001912 1_555
Fe5 O13 2.008654 1_555
Fe5 O21 2.476199 1_555
Fe6 O10 1.851333 1_555
Fe6 O24 1.972991 1_555
Fe6 O0 2.001912 1_555
Fe6 O14 2.008654 1_555
Fe6 O22 2.476199 1_555
Fe7 O11 1.851333 1_555
Fe7 O25 1.972991 1_555
Fe7 O1 2.001912 1_655
Fe7 O15 2.008654 1_555
Fe7 O23 2.476199 1_655
Fe8 O32 1.929376 1_555
Fe8 O31 2.141337 1_565
Fe8 O25 2.141337 1_465
Fe8 O12 2.281050 1_555
Fe9 O33 1.929376 1_555
Fe9 O24 2.141337 1_555
Fe9 O30 2.141337 1_455
Fe9 O13 2.281050 1_555
Fe10 O34 1.929376 1_555
Fe10 O29 2.141337 1_645
Fe10 O27 2.141337 1_545
Fe10 O14 2.281050 1_555
Fe11 O35 1.929376 1_555
Fe11 O26 2.141337 1_655
Fe11 O28 2.141337 1_555
Fe11 O15 2.281050 1_555
O0 Si0 1.688646 1_555
O1 Si1 1.688646 1_555
O2 Si2 1.688646 1_555
O3 Si3 1.688646 1_555
O4 Si0 1.628488 1_555
O4 Si5 1.639995 1_545
O5 Si1 1.628488 1_555
O5 Si4 1.639995 1_555
O6 Si2 1.628488 1_555
O6 Si7 1.639995 1_565
O7 Si3 1.628488 1_555
O7 Si6 1.639995 1_555
O16 Si0 1.612612 1_555
O17 Si1 1.612612 1_555
O18 Si2 1.612612 1_555
O19 Si3 1.612612 1_555
O20 Si2 1.612612 1_555
O21 Si3 1.612612 1_555
O22 Si0 1.612612 1_555
O23 Si1 1.612612 1_555
O24 Si6 1.679856 1_555
O25 Si7 1.679856 1_555
O26 Si4 1.679856 1_555
O27 Si5 1.679856 1_555
O28 Si4 1.679856 1_555
O29 Si5 1.679856 1_555
O30 Si6 1.679856 1_555
O31 Si7 1.679856 1_555
O32 Si4 1.609810 1_555
O33 Si5 1.609810 1_555
O34 Si6 1.609810 1_555
O35 Si7 1.609810 1_555
