# generated using pymatgen
data_BaO10
_symmetry_space_group_name_H-M   'P 1'
_cell_length_a   8.99010700
_cell_length_b   8.47110100
_cell_length_c   11.40277055
_cell_angle_alpha   56.14328880
_cell_angle_beta   90.00000000
_cell_angle_gamma   90.00000000
_symmetry_Int_Tables_number   1
_chemical_formula_structural   BaO10
_chemical_formula_sum   'Ba4 O40'
_cell_volume   721.14058232
_cell_formula_units_Z   4
loop_
 _symmetry_equiv_pos_site_id
 _symmetry_equiv_pos_as_xyz
  1  'x, y, z'
loop_
 _atom_site_type_symbol
 _atom_site_label
 _atom_site_symmetry_multiplicity
 _atom_site_fract_x
 _atom_site_fract_y
 _atom_site_fract_z
 _atom_site_occupancy
  Ba  Ba0  1  0.33873500  0.74411400  0.49640200  1
  Ba  Ba1  1  0.16126500  0.74411400  0.99640200  1
  Ba  Ba2  1  0.66126500  0.25588600  0.50359800  1
  Ba  Ba3  1  0.83873500  0.25588600  0.00359800  1
  O  O0  1  0.05278600  0.92250900  0.42223000  1
  O  O1  1  0.44721400  0.92250900  0.92223000  1
  O  O2  1  0.94721400  0.07749100  0.57777000  1
  O  O3  1  0.55278600  0.07749100  0.07777000  1
  O  O4  1  0.13563100  0.66218100  0.78642600  1
  O  O5  1  0.36436900  0.66218100  0.28642600  1
  O  O6  1  0.86436900  0.33781900  0.21357400  1
  O  O7  1  0.63563100  0.33781900  0.71357400  1
  O  O8  1  0.47592100  0.14505800  0.29912100  1
  O  O9  1  0.02407900  0.14505800  0.79912100  1
  O  O10  1  0.52407900  0.85494200  0.70087900  1
  O  O11  1  0.97592100  0.85494200  0.20087900  1
  O  O12  1  0.58862700  0.64664800  0.38618000  1
  O  O13  1  0.91137300  0.64664800  0.88618000  1
  O  O14  1  0.41137300  0.35335200  0.61382000  1
  O  O15  1  0.08862700  0.35335200  0.11382000  1
  O  O16  1  0.03912900  0.60262200  0.55814000  1
  O  O17  1  0.46087100  0.60262200  0.05814000  1
  O  O18  1  0.96087100  0.39737800  0.44186000  1
  O  O19  1  0.53912900  0.39737800  0.94186000  1
  O  O20  1  0.12437300  0.86817400  0.18651000  1
  O  O21  1  0.37562700  0.86817400  0.68651000  1
  O  O22  1  0.87562700  0.13182600  0.81349000  1
  O  O23  1  0.62437300  0.13182600  0.31349000  1
  O  O24  1  0.48876500  0.37207500  0.70966300  1
  O  O25  1  0.01123500  0.37207500  0.20966300  1
  O  O26  1  0.51123500  0.62792500  0.29033700  1
  O  O27  1  0.98876500  0.62792500  0.79033700  1
  O  O28  1  0.59343500  0.81843100  0.61284500  1
  O  O29  1  0.90656500  0.81843100  0.11284500  1
  O  O30  1  0.40656500  0.18156900  0.38715500  1
  O  O31  1  0.09343500  0.18156900  0.88715500  1
  O  O32  1  0.41408900  0.08396100  0.07255800  1
  O  O33  1  0.08591100  0.08396100  0.57255800  1
  O  O34  1  0.58591100  0.91603900  0.92744200  1
  O  O35  1  0.91408900  0.91603900  0.42744200  1
  O  O36  1  0.40205800  0.37251800  0.95277200  1
  O  O37  1  0.09794200  0.37251800  0.45277200  1
  O  O38  1  0.59794200  0.62748200  0.04722800  1
  O  O39  1  0.90205800  0.62748200  0.54722800  1
loop_
_geom_bond_atom_site_label_1
_geom_bond_atom_site_label_2
_geom_bond_distance
_geom_bond_site_symmetry_2
Ba0 O5 2.849417 1_555
Ba0 O0 2.860679 1_555
Ba0 O14 2.870213 1_555
Ba0 O16 2.871746 1_555
Ba0 O28 2.886830 1_555
Ba0 O21 2.907235 1_555
Ba0 O12 2.909395 1_555
Ba0 O24 3.020889 1_555
Ba0 O8 3.099042 1_565
Ba1 O4 2.849417 1_555
Ba1 O1 2.860679 1_555
Ba1 O15 2.870213 1_556
Ba1 O17 2.871746 1_556
Ba1 O29 2.886830 1_456
Ba1 O20 2.907235 1_556
Ba1 O13 2.909395 1_455
Ba1 O25 3.020889 1_556
Ba1 O9 3.099042 1_565
Ba2 O7 2.849417 1_555
Ba2 O2 2.860679 1_555
Ba2 O12 2.870213 1_555
Ba2 O18 2.871746 1_555
Ba2 O30 2.886830 1_555
Ba2 O23 2.907235 1_555
Ba2 O14 2.909395 1_555
Ba2 O26 3.020889 1_555
Ba2 O10 3.099042 1_545
Ba3 O6 2.849417 1_555
Ba3 O3 2.860679 1_555
Ba3 O13 2.870213 1_554
Ba3 O19 2.871746 1_554
Ba3 O31 2.886830 1_654
Ba3 O22 2.907235 1_554
Ba3 O15 2.909395 1_655
Ba3 O27 3.020889 1_554
Ba3 O11 3.099042 1_545
O0 O35 1.248066 1_455
O1 O34 1.248066 1_555
O2 O33 1.248066 1_655
O3 O32 1.248066 1_555
O10 O21 1.341679 1_555
O10 O28 1.355748 1_555
O11 O20 1.341679 1_655
O11 O29 1.355748 1_555
O12 O26 1.377227 1_555
O13 O27 1.377227 1_555
O14 O24 1.377227 1_555
O15 O25 1.377227 1_555
O16 O39 1.244651 1_455
O17 O38 1.244651 1_555
O18 O37 1.244651 1_655
O19 O36 1.244651 1_555
O22 O9 1.341679 1_655
O23 O8 1.341679 1_555
O24 O7 1.347248 1_555
O25 O6 1.347248 1_455
O26 O5 1.347248 1_555
O27 O4 1.347248 1_655
O30 O8 1.355748 1_555
O31 O9 1.355748 1_555
