# generated using pymatgen
data_Zr(GaN)2
_symmetry_space_group_name_H-M   'P 1'
_cell_length_a   3.24082800
_cell_length_b   3.24077074
_cell_length_c   8.55032500
_cell_angle_alpha   90.00001097
_cell_angle_beta   90.00168553
_cell_angle_gamma   119.99940902
_symmetry_Int_Tables_number   1
_chemical_formula_structural   Zr(GaN)2
_chemical_formula_sum   'Zr1 Ga2 N2'
_cell_volume   77.77143851
_cell_formula_units_Z   1
loop_
 _symmetry_equiv_pos_site_id
 _symmetry_equiv_pos_as_xyz
  1  'x, y, z'
loop_
 _atom_site_type_symbol
 _atom_site_label
 _atom_site_symmetry_multiplicity
 _atom_site_fract_x
 _atom_site_fract_y
 _atom_site_fract_z
 _atom_site_occupancy
  Zr  Zr0  1  0.00000000  0.00000000  0.00000000  1
  Ga  Ga0  1  0.66663400  0.33331800  0.32159900  1
  Ga  Ga1  1  0.33336600  0.66668200  0.67840100  1
  N  N0  1  0.66665000  0.33332500  0.85615800  1
  N  N1  1  0.33335000  0.66667500  0.14384200  1
loop_
_geom_bond_atom_site_label_1
_geom_bond_atom_site_label_2
_geom_bond_distance
_geom_bond_site_symmetry_2
Ga0 N1 2.410514 1_555
Ga0 N1 2.410518 1_545
Ga0 N1 2.410763 1_655
Ga1 N0 2.410514 1_555
Ga1 N0 2.410518 1_565
Ga1 N0 2.410763 1_455
N0 Zr0 2.239098 1_666
N0 Zr0 2.239098 1_656
N0 Zr0 2.239119 1_556
N1 Zr0 2.239098 1_555
N1 Zr0 2.239098 1_565
N1 Zr0 2.239119 1_665
