# generated using pymatgen
data_BaSr4
_symmetry_space_group_name_H-M   'P 1'
_cell_length_a   35.61350544
_cell_length_b   35.61350544
_cell_length_c   35.61350472
_cell_angle_alpha   13.87396436
_cell_angle_beta   13.87396436
_cell_angle_gamma   13.87396532
_symmetry_Int_Tables_number   1
_chemical_formula_structural   BaSr4
_chemical_formula_sum   'Ba8 Sr32'
_cell_volume   2260.17748920
_cell_formula_units_Z   8
loop_
 _symmetry_equiv_pos_site_id
 _symmetry_equiv_pos_as_xyz
  1  'x, y, z'
loop_
 _atom_site_type_symbol
 _atom_site_label
 _atom_site_symmetry_multiplicity
 _atom_site_fract_x
 _atom_site_fract_y
 _atom_site_fract_z
 _atom_site_occupancy
  Ba  Ba0_0  1  0.00000000  0.00000000  0.00000000  1
  Ba  Ba0_1  1  0.00000000  0.00000000  0.50000000  1
  Ba  Ba0_2  1  0.00000000  0.50000000  0.00000000  1
  Ba  Ba0_3  1  0.00000000  0.50000000  0.50000000  1
  Ba  Ba0_4  1  0.50000000  0.00000000  0.00000000  1
  Ba  Ba0_5  1  0.50000000  0.00000000  0.50000000  1
  Ba  Ba0_6  1  0.50000000  0.50000000  0.00000000  1
  Ba  Ba0_7  1  0.50000000  0.50000000  0.50000000  1
  Sr  Sr0_0  1  0.29951900  0.29951900  0.29951900  1
  Sr  Sr0_1  1  0.29951900  0.29951900  0.79951900  1
  Sr  Sr0_2  1  0.29951900  0.79951900  0.29951900  1
  Sr  Sr0_3  1  0.29951900  0.79951900  0.79951900  1
  Sr  Sr0_4  1  0.79951900  0.29951900  0.29951900  1
  Sr  Sr0_5  1  0.79951900  0.29951900  0.79951900  1
  Sr  Sr0_6  1  0.79951900  0.79951900  0.29951900  1
  Sr  Sr0_7  1  0.79951900  0.79951900  0.79951900  1
  Sr  Sr1_0  1  0.09994950  0.09994950  0.09994950  1
  Sr  Sr1_1  1  0.09994950  0.09994950  0.59994950  1
  Sr  Sr1_2  1  0.09994950  0.59994950  0.09994950  1
  Sr  Sr1_3  1  0.09994950  0.59994950  0.59994950  1
  Sr  Sr1_4  1  0.59994950  0.09994950  0.09994950  1
  Sr  Sr1_5  1  0.59994950  0.09994950  0.59994950  1
  Sr  Sr1_6  1  0.59994950  0.59994950  0.09994950  1
  Sr  Sr1_7  1  0.59994950  0.59994950  0.59994950  1
  Sr  Sr2_0  1  0.40005050  0.40005050  0.40005050  1
  Sr  Sr2_1  1  0.40005050  0.40005050  0.90005050  1
  Sr  Sr2_2  1  0.40005050  0.90005050  0.40005050  1
  Sr  Sr2_3  1  0.40005050  0.90005050  0.90005050  1
  Sr  Sr2_4  1  0.90005050  0.40005050  0.40005050  1
  Sr  Sr2_5  1  0.90005050  0.40005050  0.90005050  1
  Sr  Sr2_6  1  0.90005050  0.90005050  0.40005050  1
  Sr  Sr2_7  1  0.90005050  0.90005050  0.90005050  1
  Sr  Sr3_0  1  0.20048100  0.20048100  0.20048100  1
  Sr  Sr3_1  1  0.20048100  0.20048100  0.70048100  1
  Sr  Sr3_2  1  0.20048100  0.70048100  0.20048100  1
  Sr  Sr3_3  1  0.20048100  0.70048100  0.70048100  1
  Sr  Sr3_4  1  0.70048100  0.20048100  0.20048100  1
  Sr  Sr3_5  1  0.70048100  0.20048100  0.70048100  1
  Sr  Sr3_6  1  0.70048100  0.70048100  0.20048100  1
  Sr  Sr3_7  1  0.70048100  0.70048100  0.70048100  1
loop_
_geom_bond_atom_site_label_1
_geom_bond_atom_site_label_2
_geom_bond_distance
_geom_bond_site_symmetry_2
Ba0_0 Ba0_5 4.301314 1_455
Ba0_0 Ba0_3 4.301314 1_545
Ba0_0 Ba0_5 4.301314 1_554
Ba0_0 Ba0_3 4.301314 1_554
Ba0_0 Ba0_6 4.301314 1_545
Ba0_0 Ba0_6 4.301314 1_455
Ba0_0 Sr3_4 4.354899 1_455
Ba0_0 Sr3_2 4.354899 1_545
Ba0_0 Sr0_5 4.354899 1_454
Ba0_0 Sr0_3 4.354899 1_544
Ba0_0 Sr0_6 4.354899 1_445
Ba0_0 Sr3_1 4.354899 1_554
Ba0_1 Ba0_4 4.301314 1_456
Ba0_1 Ba0_4 4.301314 1_555
Ba0_1 Ba0_2 4.301314 1_546
Ba0_1 Ba0_2 4.301314 1_555
Ba0_1 Ba0_7 4.301314 1_455
Ba0_1 Ba0_7 4.301314 1_545
Ba0_1 Sr3_3 4.354899 1_545
Ba0_1 Sr3_5 4.354899 1_455
Ba0_1 Sr0_2 4.354899 1_545
Ba0_1 Sr0_4 4.354899 1_455
Ba0_1 Sr3_0 4.354899 1_555
Ba0_1 Sr0_7 4.354899 1_445
Ba0_2 Ba0_7 4.301314 1_455
Ba0_2 Ba0_7 4.301314 1_554
Ba0_2 Ba0_4 4.301314 1_465
Ba0_2 Ba0_4 4.301314 1_555
Ba0_2 Sr3_6 4.354899 1_455
Ba0_2 Sr0_1 4.354899 1_554
Ba0_2 Sr3_0 4.354899 1_555
Ba0_2 Sr0_7 4.354899 1_454
Ba0_2 Sr3_3 4.354899 1_554
Ba0_2 Sr0_4 4.354899 1_455
Ba0_3 Ba0_6 4.301314 1_555
Ba0_3 Ba0_6 4.301314 1_456
Ba0_3 Ba0_5 4.301314 1_465
Ba0_3 Ba0_5 4.301314 1_555
Ba0_3 Sr3_7 4.354899 1_455
Ba0_3 Sr3_1 4.354899 1_555
Ba0_3 Sr0_6 4.354899 1_455
Ba0_3 Sr0_0 4.354899 1_555
Ba0_3 Sr3_2 4.354899 1_555
Ba0_3 Sr0_5 4.354899 1_455
Ba0_4 Ba0_7 4.301314 1_554
Ba0_4 Ba0_7 4.301314 1_545
Ba0_4 Sr3_6 4.354899 1_545
Ba0_4 Sr0_1 4.354899 1_554
Ba0_4 Sr3_0 4.354899 1_555
Ba0_4 Sr0_7 4.354899 1_544
Ba0_4 Sr3_5 4.354899 1_554
Ba0_4 Sr0_2 4.354899 1_545
Ba0_5 Ba0_6 4.301314 1_546
Ba0_5 Ba0_6 4.301314 1_555
Ba0_5 Sr3_7 4.354899 1_545
Ba0_5 Sr3_1 4.354899 1_555
Ba0_5 Sr0_6 4.354899 1_545
Ba0_5 Sr0_0 4.354899 1_555
Ba0_5 Sr3_4 4.354899 1_555
Ba0_5 Sr0_3 4.354899 1_545
Ba0_6 Sr3_4 4.354899 1_555
Ba0_6 Sr3_2 4.354899 1_555
Ba0_6 Sr0_5 4.354899 1_554
Ba0_6 Sr0_3 4.354899 1_554
Ba0_6 Sr3_7 4.354899 1_554
Ba0_6 Sr0_0 4.354899 1_555
Ba0_7 Sr3_5 4.354899 1_555
Ba0_7 Sr3_3 4.354899 1_555
Ba0_7 Sr0_2 4.354899 1_555
Ba0_7 Sr0_4 4.354899 1_555
Ba0_7 Sr3_6 4.354899 1_555
Ba0_7 Sr0_1 4.354899 1_555
Sr0_0 Sr1_2 4.276035 1_555
Sr0_0 Sr1_4 4.276035 1_555
Sr0_0 Sr1_1 4.276035 1_555
Sr0_0 Sr0_3 4.301314 1_554
Sr0_0 Sr0_5 4.301314 1_554
Sr0_0 Sr0_5 4.301314 1_455
Sr0_0 Sr0_3 4.301314 1_545
Sr0_0 Sr0_6 4.301314 1_545
Sr0_0 Sr0_6 4.301314 1_455
Sr0_1 Sr1_5 4.276035 1_555
Sr0_1 Sr1_3 4.276035 1_555
Sr0_1 Sr1_0 4.276035 1_556
Sr0_1 Sr0_4 4.301314 1_555
Sr0_1 Sr0_2 4.301314 1_555
Sr0_1 Sr0_4 4.301314 1_456
Sr0_1 Sr0_2 4.301314 1_546
Sr0_1 Sr0_7 4.301314 1_545
Sr0_1 Sr0_7 4.301314 1_455
Sr0_2 Sr1_6 4.276035 1_555
Sr0_2 Sr1_0 4.276035 1_565
Sr0_2 Sr1_3 4.276035 1_555
Sr0_2 Sr0_7 4.301314 1_554
Sr0_2 Sr0_7 4.301314 1_455
Sr0_2 Sr0_4 4.301314 1_465
Sr0_2 Sr0_4 4.301314 1_555
Sr0_3 Sr1_7 4.276035 1_555
Sr0_3 Sr1_1 4.276035 1_565
Sr0_3 Sr1_2 4.276035 1_556
Sr0_3 Sr0_6 4.301314 1_456
Sr0_3 Sr0_6 4.301314 1_555
Sr0_3 Sr0_5 4.301314 1_555
Sr0_3 Sr0_5 4.301314 1_465
Sr0_4 Sr1_6 4.276035 1_555
Sr0_4 Sr1_0 4.276035 1_655
Sr0_4 Sr1_5 4.276035 1_555
Sr0_4 Sr0_7 4.301314 1_554
Sr0_4 Sr0_7 4.301314 1_545
Sr0_5 Sr1_7 4.276035 1_555
Sr0_5 Sr1_1 4.276035 1_655
Sr0_5 Sr1_4 4.276035 1_556
Sr0_5 Sr0_6 4.301314 1_546
Sr0_5 Sr0_6 4.301314 1_555
Sr0_6 Sr1_4 4.276035 1_565
Sr0_6 Sr1_2 4.276035 1_655
Sr0_6 Sr1_7 4.276035 1_555
Sr0_7 Sr1_3 4.276035 1_655
Sr0_7 Sr1_5 4.276035 1_565
Sr0_7 Sr1_6 4.276035 1_556
Sr1_0 Sr1_3 4.301314 1_545
Sr1_0 Sr1_5 4.301314 1_455
Sr1_0 Sr1_3 4.301314 1_554
Sr1_0 Sr1_5 4.301314 1_554
Sr1_0 Sr1_6 4.301314 1_545
Sr1_0 Sr1_6 4.301314 1_455
Sr1_0 Sr2_3 4.304461 1_544
Sr1_0 Sr2_5 4.304461 1_454
Sr1_0 Sr2_6 4.304461 1_445
Sr1_1 Sr1_2 4.301314 1_555
Sr1_1 Sr1_4 4.301314 1_555
Sr1_1 Sr1_2 4.301314 1_546
Sr1_1 Sr1_4 4.301314 1_456
Sr1_1 Sr1_7 4.301314 1_455
Sr1_1 Sr1_7 4.301314 1_545
Sr1_1 Sr2_2 4.304461 1_545
Sr1_1 Sr2_4 4.304461 1_455
Sr1_1 Sr2_7 4.304461 1_445
Sr1_2 Sr1_7 4.301314 1_455
Sr1_2 Sr1_7 4.301314 1_554
Sr1_2 Sr1_4 4.301314 1_555
Sr1_2 Sr1_4 4.301314 1_465
Sr1_2 Sr2_1 4.304461 1_554
Sr1_2 Sr2_7 4.304461 1_454
Sr1_2 Sr2_4 4.304461 1_455
Sr1_3 Sr1_6 4.301314 1_555
Sr1_3 Sr1_6 4.301314 1_456
Sr1_3 Sr1_5 4.301314 1_555
Sr1_3 Sr1_5 4.301314 1_465
Sr1_3 Sr2_6 4.304461 1_455
Sr1_3 Sr2_0 4.304461 1_555
Sr1_3 Sr2_5 4.304461 1_455
Sr1_4 Sr1_7 4.301314 1_545
Sr1_4 Sr1_7 4.301314 1_554
Sr1_4 Sr2_1 4.304461 1_554
Sr1_4 Sr2_7 4.304461 1_544
Sr1_4 Sr2_2 4.304461 1_545
Sr1_5 Sr1_6 4.301314 1_555
Sr1_5 Sr1_6 4.301314 1_546
Sr1_5 Sr2_6 4.304461 1_545
Sr1_5 Sr2_0 4.304461 1_555
Sr1_5 Sr2_3 4.304461 1_545
Sr1_6 Sr2_3 4.304461 1_554
Sr1_6 Sr2_5 4.304461 1_554
Sr1_6 Sr2_0 4.304461 1_555
Sr1_7 Sr2_2 4.304461 1_555
Sr1_7 Sr2_4 4.304461 1_555
Sr1_7 Sr2_1 4.304461 1_555
Sr2_0 Sr3_2 4.276035 1_555
Sr2_0 Sr3_4 4.276035 1_555
Sr2_0 Sr3_1 4.276035 1_555
Sr2_0 Sr2_3 4.301314 1_554
Sr2_0 Sr2_5 4.301314 1_554
Sr2_0 Sr2_5 4.301314 1_455
Sr2_0 Sr2_3 4.301314 1_545
Sr2_0 Sr2_6 4.301314 1_455
Sr2_0 Sr2_6 4.301314 1_545
Sr2_1 Sr3_5 4.276035 1_555
Sr2_1 Sr3_3 4.276035 1_555
Sr2_1 Sr3_0 4.276035 1_556
Sr2_1 Sr2_2 4.301314 1_546
Sr2_1 Sr2_4 4.301314 1_456
Sr2_1 Sr2_2 4.301314 1_555
Sr2_1 Sr2_4 4.301314 1_555
Sr2_1 Sr2_7 4.301314 1_455
Sr2_1 Sr2_7 4.301314 1_545
Sr2_2 Sr3_0 4.276035 1_565
Sr2_2 Sr3_6 4.276035 1_555
Sr2_2 Sr3_3 4.276035 1_555
Sr2_2 Sr2_7 4.301314 1_554
Sr2_2 Sr2_7 4.301314 1_455
Sr2_2 Sr2_4 4.301314 1_465
Sr2_2 Sr2_4 4.301314 1_555
Sr2_3 Sr3_1 4.276035 1_565
Sr2_3 Sr3_7 4.276035 1_555
Sr2_3 Sr3_2 4.276035 1_556
Sr2_3 Sr2_6 4.301314 1_456
Sr2_3 Sr2_6 4.301314 1_555
Sr2_3 Sr2_5 4.301314 1_555
Sr2_3 Sr2_5 4.301314 1_465
Sr2_4 Sr3_0 4.276035 1_655
Sr2_4 Sr3_6 4.276035 1_555
Sr2_4 Sr3_5 4.276035 1_555
Sr2_4 Sr2_7 4.301314 1_554
Sr2_4 Sr2_7 4.301314 1_545
Sr2_5 Sr3_1 4.276035 1_655
Sr2_5 Sr3_7 4.276035 1_555
Sr2_5 Sr3_4 4.276035 1_556
Sr2_5 Sr2_6 4.301314 1_546
Sr2_5 Sr2_6 4.301314 1_555
Sr2_6 Sr3_2 4.276035 1_655
Sr2_6 Sr3_4 4.276035 1_565
Sr2_6 Sr3_7 4.276035 1_555
Sr2_7 Sr3_5 4.276035 1_565
Sr2_7 Sr3_3 4.276035 1_655
Sr2_7 Sr3_6 4.276035 1_556
Sr3_0 Sr3_5 4.301314 1_554
Sr3_0 Sr3_3 4.301314 1_554
Sr3_0 Sr3_3 4.301314 1_545
Sr3_0 Sr3_5 4.301314 1_455
Sr3_0 Sr3_6 4.301314 1_545
Sr3_0 Sr3_6 4.301314 1_455
Sr3_1 Sr3_4 4.301314 1_555
Sr3_1 Sr3_2 4.301314 1_555
Sr3_1 Sr3_4 4.301314 1_456
Sr3_1 Sr3_2 4.301314 1_546
Sr3_1 Sr3_7 4.301314 1_545
Sr3_1 Sr3_7 4.301314 1_455
Sr3_2 Sr3_7 4.301314 1_554
Sr3_2 Sr3_7 4.301314 1_455
Sr3_2 Sr3_4 4.301314 1_555
Sr3_2 Sr3_4 4.301314 1_465
Sr3_3 Sr3_6 4.301314 1_555
Sr3_3 Sr3_6 4.301314 1_456
Sr3_3 Sr3_5 4.301314 1_555
Sr3_3 Sr3_5 4.301314 1_465
Sr3_4 Sr3_7 4.301314 1_554
Sr3_4 Sr3_7 4.301314 1_545
Sr3_5 Sr3_6 4.301314 1_555
Sr3_5 Sr3_6 4.301314 1_546
