# generated using pymatgen
data_USnPt2
_symmetry_space_group_name_H-M   'P 1'
_cell_length_a   4.20213778
_cell_length_b   4.20213778
_cell_length_c   11.47988700
_cell_angle_alpha   90.00000000
_cell_angle_beta   90.00000000
_cell_angle_gamma   119.99999648
_symmetry_Int_Tables_number   1
_chemical_formula_structural   USnPt2
_chemical_formula_sum   'U2 Sn2 Pt4'
_cell_volume   175.55323447
_cell_formula_units_Z   2
loop_
 _symmetry_equiv_pos_site_id
 _symmetry_equiv_pos_as_xyz
  1  'x, y, z'
loop_
 _atom_site_type_symbol
 _atom_site_label
 _atom_site_symmetry_multiplicity
 _atom_site_fract_x
 _atom_site_fract_y
 _atom_site_fract_z
 _atom_site_occupancy
  U  U0  1  0.00000000  0.00000000  0.50000000  1
  U  U1  1  0.00000000  0.00000000  0.00000000  1
  Sn  Sn0  1  0.33333300  0.66666700  0.25000000  1
  Sn  Sn1  1  0.66666700  0.33333300  0.75000000  1
  Pt  Pt0  1  0.33333300  0.66666700  0.87298100  1
  Pt  Pt1  1  0.66666700  0.33333300  0.12701900  1
  Pt  Pt2  1  0.66666700  0.33333300  0.37298100  1
  Pt  Pt3  1  0.33333300  0.66666700  0.62701900  1
loop_
_geom_bond_atom_site_label_1
_geom_bond_atom_site_label_2
_geom_bond_distance
_geom_bond_site_symmetry_2
Pt0 Sn1 2.806987 1_455
Pt0 Sn1 2.806987 1_565
Pt0 Sn1 2.806993 1_555
Pt0 Pt3 2.823616 1_555
Pt0 U1 2.830586 1_566
Pt0 U1 2.830589 1_556
Pt0 U1 2.830589 1_666
Pt1 Sn0 2.806987 1_545
Pt1 Sn0 2.806987 1_655
Pt1 Sn0 2.806993 1_555
Pt1 Pt2 2.823616 1_555
Pt1 U1 2.830586 1_655
Pt1 U1 2.830589 1_665
Pt1 U1 2.830589 1_555
Pt2 Sn0 2.806987 1_545
Pt2 Sn0 2.806987 1_655
Pt2 Sn0 2.806993 1_555
Pt2 U0 2.830586 1_655
Pt2 U0 2.830589 1_665
Pt2 U0 2.830589 1_555
Pt3 Sn1 2.806987 1_455
Pt3 Sn1 2.806987 1_565
Pt3 Sn1 2.806993 1_555
Pt3 U0 2.830586 1_565
Pt3 U0 2.830589 1_555
Pt3 U0 2.830589 1_665
