# generated using pymatgen
data_Cr7FeO12
_symmetry_space_group_name_H-M   'P 1'
_cell_length_a   9.99190327
_cell_length_b   10.06144968
_cell_length_c   10.62465780
_cell_angle_alpha   86.03200335
_cell_angle_beta   82.43727768
_cell_angle_gamma   88.62654418
_symmetry_Int_Tables_number   1
_chemical_formula_structural   Cr7FeO12
_chemical_formula_sum   'Cr28 Fe4 O48'
_cell_volume   1056.18034311
_cell_formula_units_Z   4
loop_
 _symmetry_equiv_pos_site_id
 _symmetry_equiv_pos_as_xyz
  1  'x, y, z'
loop_
 _atom_site_type_symbol
 _atom_site_label
 _atom_site_symmetry_multiplicity
 _atom_site_fract_x
 _atom_site_fract_y
 _atom_site_fract_z
 _atom_site_occupancy
  Cr  Cr0  1  0.34968100  0.12068000  0.30178100  1
  Cr  Cr1  1  0.96616900  0.40093200  0.20396400  1
  Cr  Cr2  1  0.42991400  0.77168500  0.27087400  1
  Cr  Cr3  1  0.80018000  0.95156200  0.03625700  1
  Cr  Cr4  1  0.68169000  0.51496700  0.09261900  1
  Cr  Cr5  1  0.62969400  0.12000000  0.57660300  1
  Cr  Cr6  1  0.16736200  0.59212800  0.24277500  1
  Cr  Cr7  1  0.37273900  0.40296600  0.71647300  1
  Cr  Cr8  1  0.14275400  0.23365500  0.83340500  1
  Cr  Cr9  1  0.64717300  0.19114400  0.82505600  1
  Cr  Cr10  1  0.85523200  0.23885400  0.99194200  1
  Cr  Cr11  1  0.37547800  0.64405100  0.96830200  1
  Cr  Cr12  1  0.02653400  0.41645300  0.65545300  1
  Cr  Cr13  1  0.52203500  0.55208000  0.43028200  1
  Cr  Cr14  1  0.92015600  0.91817800  0.49954200  1
  Cr  Cr15  1  0.06911800  0.22567500  0.40310400  1
  Cr  Cr16  1  0.66997700  0.76787900  0.92789400  1
  Cr  Cr17  1  0.75063600  0.38650000  0.58418200  1
  Cr  Cr18  1  0.78277100  0.68508100  0.27951000  1
  Cr  Cr19  1  0.91800100  0.65478200  0.77155800  1
  Cr  Cr20  1  0.65644800  0.57354700  0.75838000  1
  Cr  Cr21  1  0.93663200  0.11171900  0.71418700  1
  Cr  Cr22  1  0.58217000  0.13047500  0.11767300  1
  Cr  Cr23  1  0.12146900  0.91099800  0.90774200  1
  Cr  Cr24  1  0.09144400  0.94159600  0.19217600  1
  Cr  Cr25  1  0.67099200  0.77273100  0.53406600  1
  Cr  Cr26  1  0.21780900  0.19997200  0.07762400  1
  Cr  Cr27  1  0.24852700  0.93435900  0.50441900  1
  Fe  Fe0  1  0.23315800  0.70439500  0.72837500  1
  Fe  Fe1  1  0.40630400  0.92551900  0.96745000  1
  Fe  Fe2  1  0.45253200  0.35921800  0.97539500  1
  Fe  Fe3  1  0.73144200  0.18440200  0.32277800  1
  O  O0  1  0.71435900  0.97236200  0.51461100  1
  O  O1  1  0.54830000  0.12802200  0.29686900  1
  O  O2  1  0.98476700  0.09290000  0.53534000  1
  O  O3  1  0.64139300  0.27979900  0.48186000  1
  O  O4  1  0.14024300  0.38252100  0.27171900  1
  O  O5  1  0.24266700  0.02062600  0.01462500  1
  O  O6  1  0.83290900  0.39628400  0.08766800  1
  O  O7  1  0.64633000  0.26727600  0.98489900  1
  O  O8  1  0.82409200  0.08384300  0.88390900  1
  O  O9  1  0.83599300  0.49181700  0.70064800  1
  O  O10  1  0.75249700  0.59431700  0.91446600  1
  O  O11  1  0.75670600  0.75520600  0.72365200  1
  O  O12  1  0.04110900  0.77070600  0.83019100  1
  O  O13  1  0.42796400  0.77995300  0.08797600  1
  O  O14  1  0.04801600  0.23415900  0.01254600  1
  O  O15  1  0.32549300  0.54774100  0.82112800  1
  O  O16  1  0.12460400  0.77555100  0.24420600  1
  O  O17  1  0.58343500  0.74433400  0.37947300  1
  O  O18  1  0.31049900  0.27195100  0.89743400  1
  O  O19  1  0.07789600  0.58522200  0.67376200  1
  O  O20  1  0.33605500  0.61685000  0.31579000  1
  O  O21  1  0.33868000  0.83762600  0.60829800  1
  O  O22  1  0.10165900  0.84928700  0.48989800  1
  O  O23  1  0.77627200  0.10719300  0.13384300  1
  O  O24  1  0.10297900  0.05769100  0.78327900  1
  O  O25  1  0.98695400  0.93301600  0.05707100  1
  O  O26  1  0.52965600  0.10364100  0.72647100  1
  O  O27  1  0.73929500  0.77557700  0.10340900  1
  O  O28  1  0.15517700  0.10772700  0.25176600  1
  O  O29  1  0.96049800  0.36609000  0.51699500  1
  O  O30  1  0.65021600  0.57344000  0.56213000  1
  O  O31  1  0.35090600  0.92917700  0.33994600  1
  O  O32  1  0.95662400  0.58025700  0.24127400  1
  O  O33  1  0.19868400  0.33686200  0.67472300  1
  O  O34  1  0.66755600  0.52811800  0.27406300  1
  O  O35  1  0.59123900  0.98678000  0.98201700  1
  O  O36  1  0.91234200  0.24845500  0.31192700  1
  O  O37  1  0.57226400  0.38483100  0.75726600  1
  O  O38  1  0.83851600  0.76345600  0.42519100  1
  O  O39  1  0.39728500  0.20641300  0.12796700  1
  O  O40  1  0.53000600  0.70711800  0.84455600  1
  O  O41  1  0.25561000  0.12441100  0.46888500  1
  O  O42  1  0.50426400  0.51516400  0.05014200  1
  O  O43  1  0.39842600  0.47721400  0.54851300  1
  O  O44  1  0.76288900  0.19671500  0.66286900  1
  O  O45  1  0.22628700  0.56647600  0.08196700  1
  O  O46  1  0.96245300  0.28564000  0.78965000  1
  O  O47  1  0.29416000  0.81114400  0.88743700  1
loop_
_geom_bond_atom_site_label_1
_geom_bond_atom_site_label_2
_geom_bond_distance
_geom_bond_site_symmetry_2
Cr0 O41 1.898764 1_555
Cr0 O31 1.941434 1_545
Cr0 O1 1.981408 1_555
Cr0 O39 1.987125 1_555
Cr0 O28 2.090451 1_555
Cr1 O32 1.871472 1_555
Cr1 O36 1.895319 1_555
Cr1 O6 1.935433 1_555
Cr1 O4 1.968117 1_655
Cr2 O20 1.839442 1_555
Cr2 O31 1.902946 1_555
Cr2 O13 1.941894 1_555
Cr2 O17 2.040051 1_555
Cr3 O25 1.911219 1_555
Cr3 O23 1.930177 1_565
Cr3 O27 1.943433 1_555
Cr3 O8 2.015884 1_564
Cr3 O35 2.251486 1_554
Cr4 O42 1.885972 1_555
Cr4 O6 1.900787 1_555
Cr4 O34 1.927831 1_555
Cr4 O10 2.046006 1_554
Cr5 O26 1.764739 1_555
Cr5 O0 1.812329 1_545
Cr5 O3 1.834675 1_555
Cr5 O44 1.917104 1_555
Cr6 O45 1.766720 1_555
Cr6 O16 1.884943 1_555
Cr6 O20 1.973776 1_555
Cr6 O32 2.114129 1_455
Cr6 O4 2.128701 1_555
Cr7 O43 1.874188 1_555
Cr7 O15 1.906326 1_555
Cr7 O33 1.990748 1_555
Cr7 O37 2.096372 1_555
Cr7 O18 2.279208 1_555
Cr8 O33 1.941785 1_555
Cr8 O18 1.946255 1_555
Cr8 O24 1.948339 1_555
Cr8 O46 1.968985 1_455
Cr8 O14 2.011356 1_556
Cr9 O7 1.909695 1_555
Cr9 O26 1.936994 1_555
Cr9 O44 1.942845 1_555
Cr9 O37 2.180462 1_555
Cr9 O8 2.188045 1_555
Cr9 O35 2.580033 1_545
Cr10 O6 1.933762 1_556
Cr10 O14 1.966191 1_656
Cr10 O23 2.027534 1_556
Cr10 O8 2.052262 1_555
Cr10 O7 2.110416 1_555
Cr10 O46 2.294958 1_555
Cr11 O45 1.934239 1_556
Cr11 O40 1.977984 1_555
Cr11 O15 2.017918 1_555
Cr11 O47 2.035471 1_555
Cr11 O42 2.037671 1_556
Cr11 O13 2.052305 1_556
Cr12 O29 1.797463 1_455
Cr12 O19 1.816150 1_555
Cr12 O33 1.909434 1_555
Cr12 O46 1.927576 1_455
Cr12 O9 2.042255 1_455
Cr13 O43 1.782149 1_555
Cr13 O30 2.043536 1_555
Cr13 O17 2.057844 1_555
Cr13 O34 2.080987 1_555
Cr13 O20 2.405185 1_555
Cr14 O22 1.918490 1_655
Cr14 O2 1.965561 1_565
Cr14 O38 2.028188 1_555
Cr14 O0 2.103071 1_555
Cr15 O36 1.948423 1_455
Cr15 O2 1.987826 1_455
Cr15 O4 2.105185 1_555
Cr15 O29 2.110804 1_455
Cr15 O28 2.141111 1_555
Cr15 O41 2.269820 1_555
Cr16 O40 1.885636 1_555
Cr16 O10 1.919430 1_555
Cr16 O27 2.079828 1_556
Cr16 O11 2.239229 1_555
Cr16 O35 2.402832 1_555
Cr17 O9 1.970791 1_555
Cr17 O3 2.013937 1_555
Cr17 O44 2.038371 1_555
Cr17 O30 2.123638 1_555
Cr17 O29 2.134116 1_555
Cr17 O37 2.386000 1_555
Cr18 O38 1.935126 1_555
Cr18 O34 1.984969 1_555
Cr18 O32 2.020073 1_555
Cr18 O27 2.116047 1_555
Cr18 O17 2.219090 1_555
Cr19 O12 1.905944 1_655
Cr19 O19 1.931846 1_655
Cr19 O11 1.985970 1_555
Cr19 O9 2.079764 1_555
Cr19 O10 2.160944 1_555
Cr20 O9 1.995072 1_555
Cr20 O40 2.006243 1_555
Cr20 O10 2.047288 1_555
Cr20 O11 2.092249 1_555
Cr20 O30 2.094270 1_555
Cr20 O37 2.096487 1_555
Cr21 O2 1.919051 1_555
Cr21 O24 1.954393 1_655
Cr21 O8 2.001546 1_555
Cr21 O46 2.010424 1_555
Cr21 O44 2.038590 1_555
Cr22 O1 1.887924 1_555
Cr22 O7 1.957306 1_554
Cr22 O39 1.974629 1_555
Cr22 O23 1.976412 1_555
Cr22 O35 2.103228 1_544
Cr23 O12 1.924972 1_555
Cr23 O24 1.934513 1_565
Cr23 O25 1.961082 1_456
Cr23 O47 1.970333 1_555
Cr23 O5 2.138250 1_566
Cr24 O16 1.760770 1_555
Cr24 O25 1.890492 1_455
Cr24 O28 1.975847 1_565
Cr24 O5 2.360868 1_565
Cr25 O38 1.909572 1_555
Cr25 O17 1.999996 1_555
Cr25 O30 2.018308 1_555
Cr25 O0 2.055617 1_555
Cr25 O11 2.284653 1_555
Cr26 O14 1.929398 1_555
Cr26 O39 1.941416 1_555
Cr26 O5 1.966666 1_555
Cr26 O28 2.040021 1_555
Cr26 O18 2.102603 1_554
Cr27 O21 1.745798 1_555
Cr27 O22 1.745871 1_555
Cr27 O31 1.908490 1_555
Cr27 O41 1.924471 1_565
Fe0 O21 2.003303 1_555
Fe0 O15 2.064288 1_555
Fe0 O19 2.145588 1_555
Fe0 O12 2.188552 1_555
Fe0 O47 2.221457 1_555
Fe1 O5 1.901562 1_566
Fe1 O13 1.905229 1_556
Fe1 O47 1.936626 1_555
Fe1 O35 1.990355 1_555
Fe2 O42 1.918114 1_556
Fe2 O18 1.985176 1_555
Fe2 O7 2.137360 1_555
Fe2 O39 2.180916 1_556
Fe2 O37 2.463939 1_555
Fe3 O36 1.920031 1_555
Fe3 O1 1.987512 1_555
Fe3 O3 2.090555 1_555
Fe3 O23 2.190001 1_555
