# generated using pymatgen
data_LaSi2Ag
_symmetry_space_group_name_H-M   'P 1'
_cell_length_a   4.29787087
_cell_length_b   4.35276466
_cell_length_c   9.00402478
_cell_angle_alpha   103.98762251
_cell_angle_beta   90.00000000
_cell_angle_gamma   90.00000000
_symmetry_Int_Tables_number   1
_chemical_formula_structural   LaSi2Ag
_chemical_formula_sum   'La2 Si4 Ag2'
_cell_volume   163.44917436
_cell_formula_units_Z   2
loop_
 _symmetry_equiv_pos_site_id
 _symmetry_equiv_pos_as_xyz
  1  'x, y, z'
loop_
 _atom_site_type_symbol
 _atom_site_label
 _atom_site_symmetry_multiplicity
 _atom_site_fract_x
 _atom_site_fract_y
 _atom_site_fract_z
 _atom_site_occupancy
  La  La0  1  0.25000000  0.40122913  0.80245725  1
  La  La1  1  0.75000000  0.59877087  0.19754275  1
  Si  Si0  1  0.25000000  0.03197036  0.06394072  1
  Si  Si1  1  0.75000000  0.96802964  0.93605928  1
  Si  Si2  1  0.25000000  0.16584500  0.33169001  1
  Si  Si3  1  0.75000000  0.83415500  0.66830999  1
  Ag  Ag0  1  0.25000000  0.74778152  0.49556404  1
  Ag  Ag1  1  0.75000000  0.25221848  0.50443596  1
loop_
_geom_bond_atom_site_label_1
_geom_bond_atom_site_label_2
_geom_bond_distance
_geom_bond_site_symmetry_2
La0 Si0 3.155311 1_566
La0 Si0 3.155314 1_556
La0 Si1 3.273700 1_455
La0 Si1 3.273700 1_555
La0 Si1 3.273703 1_445
La0 Si1 3.273703 1_545
La0 Si3 3.275401 1_455
La0 Si3 3.275401 1_555
La0 Si3 3.275404 1_445
La0 Si3 3.275404 1_545
La1 Si1 3.155311 1_544
La1 Si1 3.155314 1_554
La1 Si0 3.273700 1_655
La1 Si0 3.273700 1_555
La1 Si0 3.273703 1_665
La1 Si0 3.273703 1_565
La1 Si2 3.275401 1_555
La1 Si2 3.275401 1_655
La1 Si2 3.275404 1_565
La1 Si2 3.275404 1_665
Si0 Si2 2.339335 1_555
Si0 Si1 2.422043 1_444
Si0 Si1 2.422043 1_544
Si1 Si3 2.339335 1_555
Ag0 Si2 2.605111 1_555
Ag0 Si2 2.605115 1_565
Ag0 Si3 2.625999 1_455
Ag0 Si3 2.625999 1_555
Ag0 Ag1 3.059502 1_555
Ag0 Ag1 3.059502 1_455
Ag0 Ag1 3.059508 1_465
Ag0 Ag1 3.059508 1_565
Ag0 La1 3.376065 1_455
Ag0 La1 3.376065 1_555
Ag0 La0 3.453432 1_555
Ag0 La0 3.453437 1_565
Ag1 Si3 2.605111 1_555
Ag1 Si3 2.605115 1_545
Ag1 Si2 2.625999 1_655
Ag1 Si2 2.625999 1_555
Ag1 La0 3.376065 1_555
Ag1 La0 3.376065 1_655
Ag1 La1 3.453432 1_555
Ag1 La1 3.453437 1_545
