# generated using pymatgen
data_Li9Mn2Co5O16
_symmetry_space_group_name_H-M   'P 1'
_cell_length_a   5.88698500
_cell_length_b   5.88970927
_cell_length_c   8.62089308
_cell_angle_alpha   88.22759637
_cell_angle_beta   70.29806700
_cell_angle_gamma   87.72694490
_symmetry_Int_Tables_number   1
_chemical_formula_structural   Li9Mn2Co5O16
_chemical_formula_sum   'Li9 Mn2 Co5 O16'
_cell_volume   281.14024520
_cell_formula_units_Z   1
loop_
 _symmetry_equiv_pos_site_id
 _symmetry_equiv_pos_as_xyz
  1  'x, y, z'
loop_
 _atom_site_type_symbol
 _atom_site_label
 _atom_site_symmetry_multiplicity
 _atom_site_fract_x
 _atom_site_fract_y
 _atom_site_fract_z
 _atom_site_occupancy
  Li  Li0  1  0.12145400  0.25304400  0.25540400  1
  Li  Li1  1  0.25029800  0.99136400  0.48944800  1
  Li  Li2  1  0.62430400  0.25417100  0.25207300  1
  Li  Li3  1  0.76232700  0.99163200  0.48909900  1
  Li  Li4  1  0.87622800  0.74824500  0.74801400  1
  Li  Li5  1  0.37698400  0.74764400  0.74697300  1
  Li  Li6  1  0.48970300  0.50805200  0.01271700  1
  Li  Li7  1  0.99767700  0.50575900  0.01061800  1
  Li  Li8  1  0.12569500  0.74678100  0.25201500  1
  Mn  Mn0  1  0.99728600  0.99359900  0.00530600  1
  Mn  Mn1  1  0.37215000  0.24958000  0.74891800  1
  Co  Co0  1  0.25270300  0.50758800  0.49708000  1
  Co  Co1  1  0.49065900  0.99247900  0.00507600  1
  Co  Co2  1  0.62843600  0.75036000  0.24989100  1
  Co  Co3  1  0.76158200  0.50886600  0.49326100  1
  Co  Co4  1  0.87491500  0.25066100  0.74677800  1
  O  O0  1  0.86669100  0.98716500  0.23402600  1
  O  O1  1  0.01161600  0.73146600  0.50610900  1
  O  O2  1  0.39991700  0.99141300  0.22989400  1
  O  O3  1  0.52919200  0.74353100  0.48514100  1
  O  O4  1  0.61457400  0.46864300  0.74492800  1
  O  O5  1  0.14204600  0.48655700  0.73964000  1
  O  O6  1  0.23950300  0.22596700  0.99420000  1
  O  O7  1  0.77064600  0.23982400  0.98065800  1
  O  O8  1  0.39148400  0.52200800  0.26389600  1
  O  O9  1  0.48066400  0.26321700  0.51581600  1
  O  O10  1  0.85586200  0.50826600  0.26422500  1
  O  O11  1  0.97583700  0.25737500  0.51361000  1
  O  O12  1  0.12783500  0.02695200  0.75702100  1
  O  O13  1  0.60056000  0.01022300  0.76624500  1
  O  O14  1  0.75701900  0.77391500  0.00457300  1
  O  O15  1  0.23415100  0.76365400  0.99734800  1
loop_
_geom_bond_atom_site_label_1
_geom_bond_atom_site_label_2
_geom_bond_distance
_geom_bond_site_symmetry_2
Li0 O11 2.098955 1_455
Li0 O10 2.109611 1_455
Li0 O6 2.130101 1_554
Li0 O2 2.165102 1_545
Li0 O0 2.264077 1_445
Li0 O8 2.308077 1_555
Li1 O1 2.087830 1_555
Li1 O2 2.110384 1_555
Li1 O3 2.144714 1_555
Li1 O11 2.168207 1_465
Li1 O12 2.186612 1_565
Li1 O9 2.203882 1_565
Li2 O8 2.030185 1_555
Li2 O0 2.054461 1_545
Li2 O10 2.092054 1_555
Li2 O2 2.127729 1_545
Li2 O9 2.143633 1_555
Li2 O7 2.207145 1_554
Li3 O3 2.052752 1_555
Li3 O0 2.074837 1_555
Li3 O11 2.104711 1_565
Li3 O1 2.115659 1_655
Li3 O9 2.217199 1_565
Li3 O13 2.258575 1_565
Li4 O1 1.969735 1_655
Li4 O14 2.091167 1_556
Li4 O5 2.137502 1_655
Li4 O13 2.164145 1_565
Li4 O12 2.274387 1_665
Li4 O4 2.305822 1_555
Li5 O15 2.038977 1_555
Li5 O4 2.111803 1_555
Li5 O13 2.115765 1_565
Li5 O5 2.124893 1_555
Li5 O3 2.129902 1_555
Li5 O12 2.144001 1_565
Li6 O8 2.047688 1_555
Li6 O15 2.118860 1_554
Li6 O4 2.190700 1_554
Li6 O7 2.195236 1_554
Li6 O14 2.246662 1_555
Li6 O6 2.307442 1_554
Li7 O10 2.060952 1_555
Li7 O15 2.075530 1_654
Li7 O14 2.090807 1_555
Li7 O6 2.110633 1_654
Li7 O7 2.174875 1_554
Li7 O5 2.205083 1_654
Li8 O8 2.036343 1_555
Li8 O1 2.063542 1_555
Li8 O15 2.069773 1_554
Li8 O0 2.080385 1_455
Li8 O10 2.136109 1_455
Li8 O2 2.162945 1_555
Mn0 O0 1.859021 1_555
Mn0 O15 1.890691 1_654
Mn0 O14 1.956149 1_555
Mn0 O7 1.986702 1_564
Mn0 O6 1.992509 1_664
Mn0 O12 2.021764 1_664
Mn1 O9 1.892443 1_555
Mn1 O5 1.924997 1_555
Mn1 O13 1.946740 1_555
Mn1 O4 1.952641 1_555
Mn1 O12 1.966976 1_555
Mn1 O6 1.994374 1_555
Co0 O1 1.882142 1_555
Co0 O8 1.898259 1_555
Co0 O9 1.969043 1_555
Co0 O5 1.970850 1_555
Co0 O3 2.156075 1_555
Co0 O11 2.206711 1_455
Co1 O2 1.828439 1_555
Co1 O13 1.939745 1_564
Co1 O14 1.987851 1_555
Co1 O6 2.002555 1_564
Co1 O15 2.082274 1_554
Co1 O7 2.195662 1_564
Co2 O3 1.911521 1_555
Co2 O10 1.946820 1_555
Co2 O8 1.947937 1_555
Co2 O2 1.960838 1_555
Co2 O0 1.986267 1_555
Co2 O14 1.993906 1_555
Co3 O10 1.862273 1_555
Co3 O3 1.922331 1_555
Co3 O11 1.949511 1_555
Co3 O1 2.041992 1_655
Co3 O4 2.056867 1_555
Co3 O9 2.195801 1_555
Co4 O11 1.893892 1_555
Co4 O7 1.899160 1_555
Co4 O4 1.963821 1_555
Co4 O12 1.971442 1_655
Co4 O5 2.123662 1_655
Co4 O13 2.150843 1_555
