# generated using pymatgen
data_Nb9Ni4Ge
_symmetry_space_group_name_H-M   'P 1'
_cell_length_a   5.08009600
_cell_length_b   9.69214403
_cell_length_c   9.69214403
_cell_angle_alpha   86.06169997
_cell_angle_beta   74.80690547
_cell_angle_gamma   74.80690547
_symmetry_Int_Tables_number   1
_chemical_formula_structural   Nb9Ni4Ge
_chemical_formula_sum   'Nb18 Ni8 Ge2'
_cell_volume   444.43632361
_cell_formula_units_Z   2
loop_
 _symmetry_equiv_pos_site_id
 _symmetry_equiv_pos_as_xyz
  1  'x, y, z'
loop_
 _atom_site_type_symbol
 _atom_site_label
 _atom_site_symmetry_multiplicity
 _atom_site_fract_x
 _atom_site_fract_y
 _atom_site_fract_z
 _atom_site_occupancy
  Nb  Nb0  1  0.75000000  0.50000000  0.50000000  1
  Nb  Nb1  1  0.25000000  0.50000000  0.50000000  1
  Nb  Nb2  1  0.79343700  0.77554300  0.63758200  1
  Nb  Nb3  1  0.20656300  0.22445700  0.36241800  1
  Nb  Nb4  1  0.70656300  0.36241800  0.22445700  1
  Nb  Nb5  1  0.29343700  0.63758200  0.77554300  1
  Nb  Nb6  1  0.56898100  0.63758200  0.22445700  1
  Nb  Nb7  1  0.43101900  0.36241800  0.77554300  1
  Nb  Nb8  1  0.06898100  0.22445700  0.63758200  1
  Nb  Nb9  1  0.93101900  0.77554300  0.36241800  1
  Nb  Nb10  1  0.58512500  0.07960600  0.75014500  1
  Nb  Nb11  1  0.41487500  0.92039400  0.24985500  1
  Nb  Nb12  1  0.91487500  0.24985500  0.92039400  1
  Nb  Nb13  1  0.08512500  0.75014500  0.07960600  1
  Nb  Nb14  1  0.66473100  0.75014500  0.92039400  1
  Nb  Nb15  1  0.33526900  0.24985500  0.07960600  1
  Nb  Nb16  1  0.16473100  0.92039400  0.75014500  1
  Nb  Nb17  1  0.83526900  0.07960600  0.24985500  1
  Ni  Ni0  1  0.50000000  0.00000000  0.50000000  1
  Ni  Ni1  1  0.00000000  0.00000000  0.50000000  1
  Ni  Ni2  1  0.50000000  0.50000000  0.00000000  1
  Ni  Ni3  1  0.00000000  0.50000000  0.00000000  1
  Ni  Ni4  1  0.13122900  0.50000000  0.23754200  1
  Ni  Ni5  1  0.86877100  0.50000000  0.76245800  1
  Ni  Ni6  1  0.36877100  0.76245800  0.50000000  1
  Ni  Ni7  1  0.63122900  0.23754200  0.50000000  1
  Ge  Ge0  1  0.25000000  0.00000000  0.00000000  1
  Ge  Ge1  1  0.75000000  0.00000000  0.00000000  1
loop_
_geom_bond_atom_site_label_1
_geom_bond_atom_site_label_2
_geom_bond_distance
_geom_bond_site_symmetry_2
Nb0 Nb1 2.540048 1_655
Nb0 Nb1 2.540048 1_555
Nb0 Ni7 2.763938 1_555
Nb0 Ni5 2.763938 1_555
Nb0 Ni6 2.763938 1_555
Nb0 Ni4 2.763938 1_655
Nb1 Ni6 2.763938 1_555
Nb1 Ni4 2.763938 1_555
Nb1 Ni7 2.763938 1_555
Nb1 Ni5 2.763938 1_455
Nb2 Nb9 2.573715 1_555
Nb2 Ni0 2.770663 1_565
Nb2 Ni1 2.770665 1_665
Nb2 Ni5 2.829580 1_555
Nb2 Ni6 2.850055 1_555
Nb2 Ni6 2.850059 1_655
Nb3 Nb8 2.573715 1_555
Nb3 Ni0 2.770663 1_555
Nb3 Ni1 2.770665 1_555
Nb3 Ni4 2.829580 1_555
Nb3 Ni7 2.850055 1_555
Nb3 Ni7 2.850059 1_455
Nb4 Nb6 2.573715 1_555
Nb4 Ni3 2.770663 1_655
Nb4 Ni2 2.770665 1_555
Nb4 Ni7 2.829580 1_555
Nb4 Ni4 2.850055 1_655
Nb4 Ni4 2.850059 1_555
Nb5 Nb7 2.573715 1_555
Nb5 Ni3 2.770663 1_556
Nb5 Ni2 2.770665 1_556
Nb5 Ni6 2.829580 1_555
Nb5 Ni5 2.850055 1_455
Nb5 Ni5 2.850059 1_555
Nb6 Ni3 2.770663 1_655
Nb6 Ni2 2.770665 1_555
Nb6 Ni6 2.829580 1_555
Nb6 Ni4 2.850055 1_655
Nb6 Ni4 2.850059 1_555
Nb7 Ni3 2.770663 1_556
Nb7 Ni2 2.770665 1_556
Nb7 Ni7 2.829580 1_555
Nb7 Ni5 2.850055 1_455
Nb7 Ni5 2.850059 1_555
Nb8 Ni0 2.770663 1_555
Nb8 Ni1 2.770665 1_555
Nb8 Ni5 2.829580 1_455
Nb8 Ni7 2.850055 1_555
Nb8 Ni7 2.850059 1_455
Nb9 Ni0 2.770663 1_565
Nb9 Ni1 2.770665 1_665
Nb9 Ni4 2.829580 1_655
Nb9 Ni6 2.850055 1_555
Nb9 Ni6 2.850059 1_655
Nb10 Nb7 2.655895 1_555
Nb10 Ni1 2.764339 1_655
Nb10 Ni0 2.764341 1_555
Nb10 Ni7 2.767026 1_555
Nb11 Nb6 2.655895 1_555
Nb11 Ni1 2.764339 1_565
Nb11 Ni0 2.764341 1_565
Nb11 Ni6 2.767026 1_555
Nb12 Nb8 2.655895 1_655
Nb12 Ni2 2.764339 1_556
Nb12 Ni3 2.764341 1_656
Nb12 Ni5 2.767026 1_555
Nb13 Nb9 2.655895 1_455
Nb13 Ni2 2.764339 1_555
Nb13 Ni3 2.764341 1_555
Nb13 Ni4 2.767026 1_555
Nb14 Nb2 2.655895 1_555
Nb14 Ni3 2.764339 1_656
Nb14 Ni2 2.764341 1_556
Nb14 Ni5 2.767026 1_555
Nb15 Nb3 2.655895 1_555
Nb15 Ni3 2.764339 1_555
Nb15 Ni2 2.764341 1_555
Nb15 Ni4 2.767026 1_555
Nb16 Nb5 2.655895 1_555
Nb16 Ni0 2.764339 1_565
Nb16 Ni1 2.764341 1_565
Nb16 Ni6 2.767026 1_555
Nb17 Nb4 2.655895 1_555
Nb17 Ni0 2.764339 1_555
Nb17 Ni1 2.764341 1_655
Nb17 Ni7 2.767026 1_555
Ni0 Ni1 2.540048 1_655
Ni0 Ni1 2.540048 1_555
Ni0 Ni6 2.559190 1_545
Ni0 Ni7 2.559190 1_555
Ni1 Ni7 2.559190 1_455
Ni1 Ni6 2.559190 1_545
Ni2 Ni3 2.540048 1_555
Ni2 Ni3 2.540048 1_655
Ni2 Ni4 2.559190 1_555
Ni2 Ni5 2.559190 1_554
Ni3 Ni5 2.559190 1_454
Ni3 Ni4 2.559190 1_555
Ge0 Ge1 2.540048 1_455
Ge0 Ge1 2.540048 1_555
Ge0 Nb11 2.762044 1_545
Ge0 Nb16 2.762044 1_544
Ge0 Nb15 2.762044 1_555
Ge0 Nb13 2.762044 1_545
Ge0 Nb12 2.762046 1_454
Ge0 Nb17 2.762046 1_455
Ge0 Nb14 2.762046 1_544
Ge0 Nb10 2.762046 1_554
Ge1 Nb12 2.762044 1_554
Ge1 Nb17 2.762044 1_555
Ge1 Nb14 2.762044 1_544
Ge1 Nb10 2.762044 1_554
Ge1 Nb11 2.762046 1_545
Ge1 Nb16 2.762046 1_644
Ge1 Nb15 2.762046 1_555
Ge1 Nb13 2.762046 1_645
