# generated using pymatgen
data_Gd4GaSbS9
_symmetry_space_group_name_H-M   'P 1'
_cell_length_a   9.96693837
_cell_length_b   9.96693837
_cell_length_c   13.64358457
_cell_angle_alpha   90.00000000
_cell_angle_beta   90.00000000
_cell_angle_gamma   90.88059114
_symmetry_Int_Tables_number   1
_chemical_formula_structural   Gd4GaSbS9
_chemical_formula_sum   'Gd16 Ga4 Sb4 S36'
_cell_volume   1355.19171465
_cell_formula_units_Z   4
loop_
 _symmetry_equiv_pos_site_id
 _symmetry_equiv_pos_as_xyz
  1  'x, y, z'
loop_
 _atom_site_type_symbol
 _atom_site_label
 _atom_site_symmetry_multiplicity
 _atom_site_fract_x
 _atom_site_fract_y
 _atom_site_fract_z
 _atom_site_occupancy
  Gd  Gd0  1  0.12762095  0.09095407  0.81410051  1
  Gd  Gd1  1  0.90904593  0.87237905  0.18589949  1
  Gd  Gd2  1  0.62762095  0.59095407  0.68589949  1
  Gd  Gd3  1  0.40904593  0.37237905  0.31410051  1
  Gd  Gd4  1  0.33596198  0.32042620  0.60096692  1
  Gd  Gd5  1  0.67957380  0.66403802  0.39903308  1
  Gd  Gd6  1  0.83596198  0.82042620  0.89903308  1
  Gd  Gd7  1  0.17957380  0.16403802  0.10096692  1
  Gd  Gd8  1  0.62549621  0.04300786  0.68161202  1
  Gd  Gd9  1  0.95699214  0.37450379  0.31838798  1
  Gd  Gd10  1  0.12549621  0.54300786  0.81838798  1
  Gd  Gd11  1  0.45699214  0.87450379  0.18161202  1
  Gd  Gd12  1  0.44967113  0.32747720  0.89617990  1
  Gd  Gd13  1  0.67252280  0.55032887  0.10382010  1
  Gd  Gd14  1  0.94967113  0.82747720  0.60382010  1
  Gd  Gd15  1  0.17252280  0.05032887  0.39617990  1
  Ga  Ga0  1  0.38599546  0.82413165  0.90781180  1
  Ga  Ga1  1  0.17586835  0.61400454  0.09218820  1
  Ga  Ga2  1  0.88599546  0.32413165  0.59218820  1
  Ga  Ga3  1  0.67586835  0.11400454  0.40781180  1
  Sb  Sb0  1  0.32870388  0.83173697  0.61298826  1
  Sb  Sb1  1  0.16826303  0.67129612  0.38701174  1
  Sb  Sb2  1  0.82870388  0.33173697  0.88701174  1
  Sb  Sb3  1  0.66826303  0.17129612  0.11298826  1
  S  S0  1  0.16442601  0.01536853  0.59941091  1
  S  S1  1  0.98463147  0.83557399  0.40058909  1
  S  S2  1  0.66442601  0.51536853  0.90058909  1
  S  S3  1  0.48463147  0.33557399  0.09941091  1
  S  S4  1  0.66495170  0.14649348  0.91872670  1
  S  S5  1  0.85350652  0.33504830  0.08127330  1
  S  S6  1  0.16495170  0.64649348  0.58127330  1
  S  S7  1  0.35350652  0.83504830  0.41872670  1
  S  S8  1  0.20483005  0.81797387  0.80221790  1
  S  S9  1  0.18202613  0.79516995  0.19778210  1
  S  S10  1  0.70483005  0.31797387  0.69778210  1
  S  S11  1  0.68202613  0.29516995  0.30221790  1
  S  S12  1  0.57474037  0.82150506  0.80962773  1
  S  S13  1  0.17849494  0.42525963  0.19037227  1
  S  S14  1  0.07474037  0.32150506  0.69037227  1
  S  S15  1  0.67849494  0.92525963  0.30962773  1
  S  S16  1  0.87196357  0.12803643  0.50000000  1
  S  S17  1  0.37196357  0.62803643  -0.00000000  1
  S  S18  1  0.49122293  0.11863774  0.50775185  1
  S  S19  1  0.88136226  0.50877707  0.49224815  1
  S  S20  1  0.99122293  0.61863774  0.99224815  1
  S  S21  1  0.38136226  0.00877707  0.00775185  1
  S  S22  1  0.68027793  0.81372012  0.56785098  1
  S  S23  1  0.18627988  0.31972207  0.43214902  1
  S  S24  1  0.18027793  0.31372012  0.93214902  1
  S  S25  1  0.68627988  0.81972207  0.06785098  1
  S  S26  1  0.88137555  0.00393324  0.75098480  1
  S  S27  1  0.99606676  0.11862445  0.24901520  1
  S  S28  1  0.38137555  0.50393324  0.74901520  1
  S  S29  1  0.49606676  0.61862445  0.25098480  1
  S  S30  1  0.50015808  0.49984192  0.50000000  1
  S  S31  1  0.00015808  0.99984192  -0.00000000  1
  S  S32  1  0.39024507  0.14145489  0.75412010  1
  S  S33  1  0.85854511  0.60975493  0.24587990  1
  S  S34  1  0.89024507  0.64145489  0.74587990  1
  S  S35  1  0.35854511  0.10975493  0.25412010  1
loop_
_geom_bond_atom_site_label_1
_geom_bond_atom_site_label_2
_geom_bond_distance
_geom_bond_site_symmetry_2
Gd0 S26 2.729839 1_455
Gd0 S32 2.781035 1_555
Gd0 S24 2.786286 1_555
Gd0 S8 2.843493 1_545
Gd0 S14 2.906024 1_555
Gd0 S31 2.972567 1_546
Gd0 S0 3.048023 1_555
Gd1 S27 2.729839 1_565
Gd1 S33 2.781035 1_555
Gd1 S25 2.786286 1_555
Gd1 S9 2.843493 1_655
Gd1 S15 2.906024 1_555
Gd1 S31 2.972567 1_655
Gd1 S1 3.048023 1_555
Gd2 S28 2.729839 1_555
Gd2 S34 2.781035 1_555
Gd2 S22 2.786286 1_555
Gd2 S10 2.843493 1_555
Gd2 S12 2.906024 1_555
Gd2 S30 2.972567 1_555
Gd2 S2 3.048023 1_555
Gd3 S29 2.729839 1_555
Gd3 S35 2.781035 1_555
Gd3 S23 2.786286 1_555
Gd3 S11 2.843493 1_555
Gd3 S13 2.906024 1_555
Gd3 S30 2.972567 1_555
Gd3 S3 3.048023 1_555
Gd4 S23 2.744178 1_555
Gd4 S28 2.757665 1_555
Gd4 S30 2.771946 1_555
Gd4 S32 2.805453 1_555
Gd4 S18 2.855305 1_555
Gd4 S14 2.875333 1_555
Gd4 S0 3.465298 1_555
Gd5 S22 2.744178 1_555
Gd5 S29 2.757665 1_555
Gd5 S30 2.771946 1_555
Gd5 S33 2.805453 1_555
Gd5 S19 2.855305 1_555
Gd5 S15 2.875333 1_555
Gd5 S1 3.465298 1_555
Gd6 S25 2.744178 1_556
Gd6 S26 2.757665 1_565
Gd6 S31 2.771946 1_656
Gd6 S34 2.805453 1_555
Gd6 S20 2.855305 1_555
Gd6 S12 2.875333 1_555
Gd6 S2 3.465298 1_555
Gd7 S24 2.744178 1_554
Gd7 S27 2.757665 1_455
Gd7 S31 2.771946 1_545
Gd7 S35 2.805453 1_555
Gd7 S21 2.855305 1_555
Gd7 S13 2.875333 1_555
Gd7 S3 3.465298 1_555
Gd8 S32 2.740425 1_555
Gd8 S26 2.753590 1_555
Gd8 S22 2.822782 1_545
Gd8 S18 2.831430 1_555
Gd8 S10 2.849213 1_555
Gd8 S12 2.854143 1_545
Gd9 S33 2.740425 1_555
Gd9 S27 2.753590 1_555
Gd9 S23 2.822782 1_655
Gd9 S19 2.831430 1_555
Gd9 S11 2.849213 1_555
Gd9 S13 2.854143 1_655
Gd10 S34 2.740425 1_455
Gd10 S28 2.753590 1_555
Gd10 S24 2.822782 1_555
Gd10 S20 2.831430 1_455
Gd10 S8 2.849213 1_555
Gd10 S14 2.854143 1_555
Gd11 S35 2.740425 1_565
Gd11 S29 2.753590 1_555
Gd11 S25 2.822782 1_555
Gd11 S21 2.831430 1_565
Gd11 S9 2.849213 1_555
Gd11 S15 2.854143 1_555
Gd12 S24 2.730875 1_555
Gd12 S32 2.740672 1_555
Gd12 S28 2.761294 1_555
Gd12 S3 2.795618 1_556
Gd12 S2 2.822931 1_555
Gd12 S4 2.841032 1_555
Gd13 S25 2.730875 1_555
Gd13 S33 2.740672 1_555
Gd13 S29 2.761294 1_555
Gd13 S2 2.795618 1_554
Gd13 S3 2.822931 1_555
Gd13 S5 2.841032 1_555
Gd14 S22 2.730875 1_555
Gd14 S34 2.740672 1_555
Gd14 S26 2.761294 1_565
Gd14 S1 2.795618 1_555
Gd14 S0 2.822931 1_665
Gd14 S6 2.841032 1_655
Gd15 S23 2.730875 1_555
Gd15 S35 2.740672 1_555
Gd15 S27 2.761294 1_455
Gd15 S0 2.795618 1_555
Gd15 S1 2.822931 1_445
Gd15 S7 2.841032 1_545
Ga0 S21 2.291479 1_566
Ga0 S12 2.309898 1_555
Ga0 S8 2.310052 1_555
Ga0 S17 2.326609 1_556
Ga1 S20 2.291479 1_454
Ga1 S13 2.309898 1_555
Ga1 S9 2.310052 1_555
Ga1 S17 2.326609 1_555
Ga2 S19 2.291479 1_555
Ga2 S14 2.309898 1_655
Ga2 S10 2.310052 1_555
Ga2 S16 2.326609 1_555
Ga3 S18 2.291479 1_555
Ga3 S15 2.309898 1_545
Ga3 S11 2.310052 1_555
Ga3 S16 2.326609 1_555
S0 Sb0 2.481356 1_545
S1 Sb1 2.481356 1_655
S2 Sb2 2.481356 1_555
S3 Sb3 2.481356 1_555
S4 Sb2 2.483395 1_555
S4 Sb3 2.662085 1_556
S5 Sb3 2.483395 1_555
S5 Sb2 2.662085 1_554
S6 Sb0 2.483395 1_555
S6 Sb1 2.662085 1_555
S7 Sb1 2.483395 1_555
S7 Sb0 2.662085 1_555
S8 Sb0 2.864174 1_555
S9 Sb1 2.864174 1_555
S10 Sb2 2.864174 1_555
S11 Sb3 2.864174 1_555
