# generated using pymatgen
data_Li7Mn2(CoO4)3
_symmetry_space_group_name_H-M   'P 1'
_cell_length_a   7.59262933
_cell_length_b   7.59262933
_cell_length_c   10.11718007
_cell_angle_alpha   73.43032620
_cell_angle_beta   73.43032620
_cell_angle_gamma   22.64744509
_symmetry_Int_Tables_number   1
_chemical_formula_structural   Li7Mn2(CoO4)3
_chemical_formula_sum   'Li7 Mn2 Co3 O12'
_cell_volume   214.87201384
_cell_formula_units_Z   1
loop_
 _symmetry_equiv_pos_site_id
 _symmetry_equiv_pos_as_xyz
  1  'x, y, z'
loop_
 _atom_site_type_symbol
 _atom_site_label
 _atom_site_symmetry_multiplicity
 _atom_site_fract_x
 _atom_site_fract_y
 _atom_site_fract_z
 _atom_site_occupancy
  Li  Li0  1  0.49643400  0.49643400  0.26560900  1
  Li  Li1  1  0.17175500  0.17175500  0.73662700  1
  Li  Li2  1  0.82824500  0.82824500  0.26337300  1
  Li  Li3  1  0.50356600  0.50356600  0.73439100  1
  Li  Li4  1  0.16391700  0.16391700  0.26287600  1
  Li  Li5  1  0.83608300  0.83608300  0.73712400  1
  Li  Li6  1  0.00000000  0.00000000  0.50000000  1
  Mn  Mn0  1  0.33687700  0.33687700  0.99477400  1
  Mn  Mn1  1  0.66312300  0.66312300  0.00522600  1
  Co  Co0  1  0.34002700  0.34002700  0.49780300  1
  Co  Co1  1  0.00000000  0.00000000  0.00000000  1
  Co  Co2  1  0.65997300  0.65997300  0.50219700  1
  O  O0  1  0.57587800  0.57587800  0.89745100  1
  O  O1  1  0.25247800  0.25247800  0.39026800  1
  O  O2  1  0.91700700  0.91700700  0.88389200  1
  O  O3  1  0.59399800  0.59399800  0.38231600  1
  O  O4  1  0.24718800  0.24718800  0.88824200  1
  O  O5  1  0.91154000  0.91154000  0.38115500  1
  O  O6  1  0.40600200  0.40600200  0.61768400  1
  O  O7  1  0.08299300  0.08299300  0.11610800  1
  O  O8  1  0.74752200  0.74752200  0.60973200  1
  O  O9  1  0.42412200  0.42412200  0.10254900  1
  O  O10  1  0.08846000  0.08846000  0.61884500  1
  O  O11  1  0.75281200  0.75281200  0.11175800  1
loop_
_geom_bond_atom_site_label_1
_geom_bond_atom_site_label_2
_geom_bond_distance
_geom_bond_site_symmetry_2
Li0 O5 2.080240 1_455
Li0 O5 2.080240 1_545
Li0 O3 2.121845 1_555
Li0 O9 2.216762 1_555
Li0 O7 2.244431 1_565
Li0 O7 2.244431 1_655
Li1 O10 1.953921 1_555
Li1 O8 2.073885 1_455
Li1 O8 2.073885 1_545
Li1 O4 2.148621 1_555
Li1 O0 2.357290 1_455
Li1 O0 2.357290 1_545
Li2 O5 1.953921 1_555
Li2 O1 2.073885 1_655
Li2 O1 2.073885 1_565
Li2 O11 2.148621 1_555
Li2 O9 2.357290 1_565
Li2 O9 2.357290 1_655
Li3 O10 2.080240 1_655
Li3 O10 2.080240 1_565
Li3 O6 2.121845 1_555
Li3 O0 2.216762 1_555
Li3 O2 2.244431 1_545
Li3 O2 2.244431 1_455
Li4 O3 2.008692 1_545
Li4 O3 2.008692 1_455
Li4 O1 2.094884 1_555
Li4 O7 2.167362 1_555
Li4 O11 2.266031 1_545
Li4 O11 2.266031 1_455
Li5 O6 2.008692 1_565
Li5 O6 2.008692 1_655
Li5 O8 2.094884 1_555
Li5 O2 2.167362 1_555
Li5 O4 2.266031 1_655
Li5 O4 2.266031 1_565
Li6 O5 2.025284 1_445
Li6 O10 2.025284 1_555
Li6 O3 2.151679 1_545
Li6 O6 2.151679 1_455
Li6 O6 2.151679 1_545
Li6 O3 2.151679 1_455
Mn0 O9 1.923638 1_556
Mn0 O4 1.944813 1_555
Mn0 O2 2.031253 1_545
Mn0 O2 2.031253 1_455
Mn0 O11 2.080474 1_456
Mn0 O11 2.080474 1_546
Mn1 O0 1.923638 1_554
Mn1 O11 1.944813 1_555
Mn1 O7 2.031253 1_655
Mn1 O7 2.031253 1_565
Mn1 O4 2.080474 1_564
Mn1 O4 2.080474 1_654
Co0 O6 1.768918 1_555
Co0 O1 1.925592 1_555
Co0 O5 2.004537 1_455
Co0 O5 2.004537 1_545
Co0 O8 2.120089 1_545
Co0 O8 2.120089 1_455
Co1 O2 1.936829 1_444
Co1 O7 1.936829 1_555
Co1 O0 1.973220 1_454
Co1 O9 1.973220 1_545
Co1 O9 1.973220 1_455
Co1 O0 1.973220 1_544
Co2 O3 1.768918 1_555
Co2 O8 1.925592 1_555
Co2 O10 2.004537 1_655
Co2 O10 2.004537 1_565
Co2 O1 2.120089 1_565
Co2 O1 2.120089 1_655
