# generated using pymatgen
data_CaMn4(AgO4)4
_symmetry_space_group_name_H-M   'P 1'
_cell_length_a   5.57079094
_cell_length_b   8.29714953
_cell_length_c   9.19436891
_cell_angle_alpha   88.02256015
_cell_angle_beta   80.17233592
_cell_angle_gamma   96.52882789
_symmetry_Int_Tables_number   1
_chemical_formula_structural   CaMn4(AgO4)4
_chemical_formula_sum   'Ca1 Mn4 Ag4 O16'
_cell_volume   415.39586598
_cell_formula_units_Z   1
loop_
 _symmetry_equiv_pos_site_id
 _symmetry_equiv_pos_as_xyz
  1  'x, y, z'
loop_
 _atom_site_type_symbol
 _atom_site_label
 _atom_site_symmetry_multiplicity
 _atom_site_fract_x
 _atom_site_fract_y
 _atom_site_fract_z
 _atom_site_occupancy
  Ca  Ca0  1  0.08566000  0.15299300  0.90226600  1
  Mn  Mn0  1  0.81461000  0.13947400  0.32396200  1
  Mn  Mn1  1  0.23677300  0.62759500  0.21390900  1
  Mn  Mn2  1  0.69701100  0.37645400  0.76592700  1
  Mn  Mn3  1  0.20689700  0.84735200  0.68576600  1
  Ag  Ag0  1  0.47009700  0.24675800  0.10955700  1
  Ag  Ag1  1  0.69943500  0.69153900  0.49005800  1
  Ag  Ag2  1  0.27629700  0.31264900  0.51741900  1
  Ag  Ag3  1  0.65212300  0.77544500  0.92390600  1
  O  O0  1  0.94978800  0.11823500  0.14860500  1
  O  O1  1  0.53232200  0.20223200  0.32936000  1
  O  O2  1  0.26011800  0.01715200  0.58941700  1
  O  O3  1  0.24733800  0.47307200  0.10948300  1
  O  O4  1  0.72823400  0.52449500  0.88067500  1
  O  O5  1  0.46817800  0.78464600  0.70883200  1
  O  O6  1  0.78166000  0.96812500  0.42156000  1
  O  O7  1  0.05017000  0.71017700  0.60797900  1
  O  O8  1  0.49196500  0.21848800  0.87161400  1
  O  O9  1  0.04310600  0.88121200  0.85083500  1
  O  O10  1  0.37197500  0.79269500  0.11536500  1
  O  O11  1  0.96848000  0.29437700  0.72033600  1
  O  O12  1  0.95314900  0.65150300  0.27571000  1
  O  O13  1  0.57059400  0.43217200  0.61684200  1
  O  O14  1  0.98078700  0.28604000  0.39079700  1
  O  O15  1  0.37990200  0.59549000  0.35169700  1
loop_
_geom_bond_atom_site_label_1
_geom_bond_atom_site_label_2
_geom_bond_distance
_geom_bond_site_symmetry_2
Ca0 O8 2.233799 1_555
Ca0 O11 2.238697 1_455
Ca0 O0 2.259658 1_456
Ca0 O9 2.314122 1_545
Mn0 O6 1.629899 1_545
Mn0 O14 1.644146 1_555
Mn0 O0 1.683138 1_555
Mn0 O1 1.705264 1_555
Mn1 O12 1.622106 1_455
Mn1 O3 1.628471 1_555
Mn1 O15 1.637535 1_555
Mn1 O10 1.646658 1_555
Mn2 O4 1.660004 1_555
Mn2 O13 1.717107 1_555
Mn2 O11 1.721633 1_555
Mn2 O8 1.777530 1_555
Mn3 O2 1.608341 1_565
Mn3 O7 1.616348 1_555
Mn3 O5 1.644459 1_555
Mn3 O9 1.682230 1_555
Ag0 O1 2.134860 1_555
Ag0 O8 2.192482 1_554
Ag0 O3 2.365593 1_555
Ag1 O12 2.278838 1_555
Ag1 O6 2.331447 1_555
Ag1 O7 2.383917 1_655
Ag1 O13 2.386453 1_555
Ag1 O5 2.398228 1_555
Ag1 O15 2.437710 1_555
Ag2 O14 2.168761 1_455
Ag2 O13 2.170576 1_555
Ag2 O11 2.296412 1_455
Ag2 O1 2.329781 1_555
Ag2 O2 2.504985 1_555
Ag2 O15 2.703175 1_555
Ag3 O10 2.164546 1_556
Ag3 O4 2.207610 1_555
Ag3 O9 2.233977 1_655
Ag3 O5 2.380204 1_555
