# generated using pymatgen
data_CeAl6Pd
_symmetry_space_group_name_H-M   'P 1'
_cell_length_a   4.28685658
_cell_length_b   4.28685658
_cell_length_c   8.33190329
_cell_angle_alpha   90.00000000
_cell_angle_beta   90.00000000
_cell_angle_gamma   90.00000000
_symmetry_Int_Tables_number   1
_chemical_formula_structural   CeAl6Pd
_chemical_formula_sum   'Ce1 Al6 Pd1'
_cell_volume   153.11654771
_cell_formula_units_Z   1
loop_
 _symmetry_equiv_pos_site_id
 _symmetry_equiv_pos_as_xyz
  1  'x, y, z'
loop_
 _atom_site_type_symbol
 _atom_site_label
 _atom_site_symmetry_multiplicity
 _atom_site_fract_x
 _atom_site_fract_y
 _atom_site_fract_z
 _atom_site_occupancy
  Ce  Ce0  1  0.00000000  -0.00000000  0.50000000  1
  Al  Al0  1  0.50000000  0.50000000  0.35196191  1
  Al  Al1  1  0.50000000  0.50000000  0.64803809  1
  Al  Al2  1  0.00000000  0.50000000  0.16769826  1
  Al  Al3  1  -0.00000000  0.50000000  0.83230174  1
  Al  Al4  1  0.50000000  0.00000000  0.16769826  1
  Al  Al5  1  0.50000000  -0.00000000  0.83230174  1
  Pd  Pd0  1  0.00000000  -0.00000000  -0.00000000  1
loop_
_geom_bond_atom_site_label_1
_geom_bond_atom_site_label_2
_geom_bond_distance
_geom_bond_site_symmetry_2
Al0 Al1 2.466878 1_555
Al0 Al4 2.636537 1_555
Al0 Al4 2.636537 1_565
Al0 Al2 2.636537 1_555
Al0 Al2 2.636537 1_655
Al0 Ce0 3.272605 1_655
Al0 Ce0 3.272605 1_665
Al0 Ce0 3.272605 1_565
Al0 Ce0 3.272605 1_555
Al1 Al5 2.636537 1_555
Al1 Al3 2.636537 1_555
Al1 Al3 2.636537 1_655
Al1 Al5 2.636537 1_565
Al1 Ce0 3.272605 1_655
Al1 Ce0 3.272605 1_665
Al1 Ce0 3.272605 1_565
Al1 Ce0 3.272605 1_555
Al2 Pd0 2.558629 1_555
Al2 Pd0 2.558629 1_565
Al2 Al3 2.794491 1_554
Al2 Al4 3.031265 1_455
Al2 Al4 3.031265 1_555
Al2 Al4 3.031265 1_465
Al2 Al4 3.031265 1_565
Al2 Ce0 3.501431 1_565
Al2 Ce0 3.501431 1_555
Al3 Pd0 2.558629 1_556
Al3 Pd0 2.558629 1_566
Al3 Al5 3.031265 1_455
Al3 Al5 3.031265 1_565
Al3 Al5 3.031265 1_555
Al3 Al5 3.031265 1_465
Al3 Ce0 3.501431 1_565
Al3 Ce0 3.501431 1_555
Al4 Pd0 2.558629 1_555
Al4 Pd0 2.558629 1_655
Al4 Al5 2.794491 1_554
Al4 Ce0 3.501431 1_555
Al4 Ce0 3.501431 1_655
Al5 Pd0 2.558629 1_556
Al5 Pd0 2.558629 1_656
Al5 Ce0 3.501431 1_555
Al5 Ce0 3.501431 1_655
