# generated using pymatgen
data_La10(ErS3)9
_symmetry_space_group_name_H-M   'P 1'
_cell_length_a   15.00547609
_cell_length_b   15.00547609
_cell_length_c   21.81423543
_cell_angle_alpha   58.22857749
_cell_angle_beta   58.22857749
_cell_angle_gamma   15.10088874
_symmetry_Int_Tables_number   1
_chemical_formula_structural   La10(ErS3)9
_chemical_formula_sum   'La10 Er9 S27'
_cell_volume   1084.20090391
_cell_formula_units_Z   1
loop_
 _symmetry_equiv_pos_site_id
 _symmetry_equiv_pos_as_xyz
  1  'x, y, z'
loop_
 _atom_site_type_symbol
 _atom_site_label
 _atom_site_symmetry_multiplicity
 _atom_site_fract_x
 _atom_site_fract_y
 _atom_site_fract_z
 _atom_site_occupancy
  La  La0  1  0.87374400  0.87374400  0.70925100  1
  La  La1  1  0.95857500  0.95857500  0.19321200  1
  La  La2  1  0.88489300  0.88489300  0.89201600  1
  La  La3  1  0.04142500  0.04142500  0.80678800  1
  La  La4  1  0.12625600  0.12625600  0.29074900  1
  La  La5  1  0.18220500  0.18220500  0.60307300  1
  La  La6  1  0.20065000  0.20065000  0.77962500  1
  La  La7  1  0.11510700  0.11510700  0.10798400  1
  La  La8  1  0.79935000  0.79935000  0.22037500  1
  La  La9  1  0.81779500  0.81779500  0.39692700  1
  Er  Er0  1  0.82151100  0.82151100  0.57630800  1
  Er  Er1  1  0.17848900  0.17848900  0.42369200  1
  Er  Er2  1  0.42727300  0.42727300  0.02893000  1
  Er  Er3  1  0.00190300  0.00190300  0.50013400  1
  Er  Er4  1  0.24892100  0.24892100  0.91258900  1
  Er  Er5  1  0.75107900  0.75107900  0.08741100  1
  Er  Er6  1  0.57272700  0.57272700  0.97107000  1
  Er  Er7  1  0.47481500  0.47481500  0.35951000  1
  Er  Er8  1  0.52518500  0.52518500  0.64049000  1
  S  S0  1  0.32346100  0.32346100  0.65948600  1
  S  S1  1  0.67653900  0.67653900  0.34051400  1
  S  S2  1  0.70038500  0.70038500  0.01477000  1
  S  S3  1  0.39486600  0.39486600  0.16800000  1
  S  S4  1  0.54897300  0.54897300  0.39848400  1
  S  S5  1  0.54292800  0.54292800  0.11435400  1
  S  S6  1  0.75504900  0.75504900  0.81998000  1
  S  S7  1  0.45707200  0.45707200  0.88564600  1
  S  S8  1  0.14160600  0.14160600  0.94749000  1
  S  S9  1  0.24495100  0.24495100  0.18002000  1
  S  S10  1  0.40655000  0.40655000  0.31438500  1
  S  S11  1  0.85839400  0.85839400  0.05251000  1
  S  S12  1  0.92623800  0.92623800  0.46342200  1
  S  S13  1  0.45102700  0.45102700  0.60151600  1
  S  S14  1  0.28585500  0.28585500  0.33110800  1
  S  S15  1  0.60513400  0.60513400  0.83200000  1
  S  S16  1  0.71414500  0.71414500  0.66889200  1
  S  S17  1  0.29961500  0.29961500  0.98523000  1
  S  S18  1  0.70180600  0.70180600  0.49257900  1
  S  S19  1  0.07726500  0.07726500  0.53717200  1
  S  S20  1  0.29819400  0.29819400  0.50742100  1
  S  S21  1  0.97500900  0.97500900  0.73469700  1
  S  S22  1  0.35695100  0.35695100  0.81504000  1
  S  S23  1  0.59345000  0.59345000  0.68561500  1
  S  S24  1  0.00000000  0.00000000  0.00000000  1
  S  S25  1  0.02499100  0.02499100  0.26530300  1
  S  S26  1  0.64304900  0.64304900  0.18496000  1
loop_
_geom_bond_atom_site_label_1
_geom_bond_atom_site_label_2
_geom_bond_distance
_geom_bond_site_symmetry_2
La0 S22 2.870191 1_655
La0 S22 2.870191 1_565
La0 S13 2.992868 1_565
La0 S13 2.992868 1_655
La0 S0 3.004850 1_565
La0 S0 3.004850 1_655
La0 S6 3.040310 1_555
La0 S21 3.340806 1_555
La1 S5 2.925552 1_565
La1 S5 2.925552 1_655
La1 S3 2.981601 1_655
La1 S3 2.981601 1_565
La1 S10 2.987347 1_565
La1 S10 2.987347 1_655
La1 S25 3.110989 1_665
La2 S7 2.863772 1_655
La2 S7 2.863772 1_565
La2 S22 2.980119 1_565
La2 S22 2.980119 1_655
La2 S17 2.996489 1_655
La2 S17 2.996489 1_565
La2 S21 3.031732 1_555
La2 S11 3.153872 1_556
La3 S7 2.925552 1_545
La3 S7 2.925552 1_455
La3 S15 2.981601 1_455
La3 S15 2.981601 1_545
La3 S23 2.987347 1_545
La3 S23 2.987347 1_455
La3 S21 3.110989 1_445
La4 S26 2.870191 1_545
La4 S26 2.870191 1_455
La4 S4 2.992868 1_455
La4 S4 2.992868 1_545
La4 S1 3.004850 1_455
La4 S1 3.004850 1_545
La4 S9 3.040310 1_555
La4 S25 3.340806 1_555
La5 S16 2.881211 1_545
La5 S16 2.881211 1_455
La5 S18 2.923067 1_545
La5 S18 2.923067 1_455
La5 S20 2.934770 1_555
La5 S23 3.008578 1_455
La5 S23 3.008578 1_545
La6 S6 2.965680 1_545
La6 S6 2.965680 1_455
La6 S16 2.975486 1_545
La6 S16 2.975486 1_455
La6 S8 3.108342 1_555
La6 S15 3.133564 1_455
La6 S15 3.133564 1_545
La6 S0 3.169573 1_555
La7 S5 2.863772 1_455
La7 S5 2.863772 1_545
La7 S26 2.980119 1_455
La7 S26 2.980119 1_545
La7 S2 2.996489 1_455
La7 S2 2.996489 1_545
La7 S25 3.031732 1_555
La7 S8 3.153872 1_554
La8 S9 2.965680 1_655
La8 S9 2.965680 1_565
La8 S14 2.975486 1_655
La8 S14 2.975486 1_565
La8 S11 3.108342 1_555
La8 S3 3.133564 1_565
La8 S3 3.133564 1_655
La8 S1 3.169573 1_555
La9 S14 2.881211 1_565
La9 S14 2.881211 1_655
La9 S20 2.923067 1_565
La9 S20 2.923067 1_655
La9 S18 2.934770 1_555
La9 S10 3.008578 1_565
La9 S10 3.008578 1_655
Er0 S0 2.700942 1_655
Er0 S0 2.700942 1_565
Er0 S16 2.725632 1_555
Er0 S12 2.760679 1_555
Er0 S20 2.781069 1_565
Er0 S20 2.781069 1_655
Er1 S19 2.697766 1_555
Er1 S1 2.700942 1_455
Er1 S1 2.700942 1_545
Er1 S14 2.725632 1_555
Er1 S18 2.781069 1_455
Er1 S18 2.781069 1_545
Er2 S3 2.650638 1_555
Er2 S11 2.689187 1_455
Er2 S11 2.689187 1_545
Er2 S24 2.741698 1_655
Er2 S24 2.741698 1_565
Er2 S7 2.758978 1_554
Er3 S4 2.732584 1_455
Er3 S4 2.732584 1_545
Er3 S13 2.741124 1_545
Er3 S13 2.741124 1_455
Er3 S19 2.757536 1_555
Er3 S12 2.761122 1_445
Er4 S17 2.706346 1_555
Er4 S2 2.742640 1_456
Er4 S2 2.742640 1_546
Er4 S22 2.755489 1_555
Er4 S6 2.758768 1_545
Er4 S6 2.758768 1_455
Er4 S8 2.861971 1_555
Er5 S2 2.706346 1_555
Er5 S17 2.742640 1_564
Er5 S17 2.742640 1_654
Er5 S26 2.755489 1_555
Er5 S9 2.758768 1_565
Er5 S9 2.758768 1_655
Er5 S11 2.861971 1_555
Er6 S15 2.650638 1_555
Er6 S8 2.689187 1_655
Er6 S8 2.689187 1_565
Er6 S24 2.741698 1_566
Er6 S24 2.741698 1_656
Er6 S5 2.758978 1_556
Er7 S25 2.660915 1_565
Er7 S25 2.660915 1_655
Er7 S10 2.686514 1_555
Er7 S4 2.753711 1_555
Er7 S12 2.763060 1_455
Er7 S12 2.763060 1_545
Er8 S21 2.660915 1_545
Er8 S21 2.660915 1_455
Er8 S23 2.686514 1_555
Er8 S13 2.753711 1_555
Er8 S19 2.767381 1_565
Er8 S19 2.767381 1_655
