# generated using pymatgen
data_CeGd3
_symmetry_space_group_name_H-M   'P 1'
_cell_length_a   5.02957200
_cell_length_b   5.02957200
_cell_length_c   5.02957200
_cell_angle_alpha   90.00000000
_cell_angle_beta   90.00000000
_cell_angle_gamma   90.00000000
_symmetry_Int_Tables_number   1
_chemical_formula_structural   CeGd3
_chemical_formula_sum   'Ce1 Gd3'
_cell_volume   127.23104341
_cell_formula_units_Z   1
loop_
 _symmetry_equiv_pos_site_id
 _symmetry_equiv_pos_as_xyz
  1  'x, y, z'
loop_
 _atom_site_type_symbol
 _atom_site_label
 _atom_site_symmetry_multiplicity
 _atom_site_fract_x
 _atom_site_fract_y
 _atom_site_fract_z
 _atom_site_occupancy
  Ce  Ce0  1  0.00000000  0.00000000  0.00000000  1
  Gd  Gd0  1  0.00000000  0.50000000  0.50000000  1
  Gd  Gd1  1  0.50000000  0.00000000  0.50000000  1
  Gd  Gd2  1  0.50000000  0.50000000  0.00000000  1
loop_
_geom_bond_atom_site_label_1
_geom_bond_atom_site_label_2
_geom_bond_distance
_geom_bond_site_symmetry_2
Ce0 Gd0 3.556444 1_544
Ce0 Gd1 3.556444 1_454
Ce0 Gd0 3.556444 1_555
Ce0 Gd1 3.556444 1_555
Ce0 Gd2 3.556444 1_545
Ce0 Gd2 3.556444 1_455
Ce0 Gd0 3.556444 1_545
Ce0 Gd0 3.556444 1_554
Ce0 Gd1 3.556444 1_455
Ce0 Gd2 3.556444 1_555
Ce0 Gd2 3.556444 1_445
Ce0 Gd1 3.556444 1_554
Gd0 Gd1 3.556444 1_555
Gd0 Gd2 3.556444 1_555
Gd0 Gd2 3.556444 1_455
Gd0 Gd1 3.556444 1_565
Gd0 Gd1 3.556444 1_465
Gd0 Gd2 3.556444 1_556
Gd0 Gd1 3.556444 1_455
Gd0 Gd2 3.556444 1_456
Gd1 Gd2 3.556444 1_545
Gd1 Gd2 3.556444 1_556
Gd1 Gd2 3.556444 1_546
Gd1 Gd2 3.556444 1_555
