# generated using pymatgen
data_In4Bi3S10
_symmetry_space_group_name_H-M   'P 1'
_cell_length_a   7.75957400
_cell_length_b   11.71683311
_cell_length_c   18.01981977
_cell_angle_alpha   98.09602815
_cell_angle_beta   90.00144354
_cell_angle_gamma   90.11378641
_symmetry_Int_Tables_number   1
_chemical_formula_structural   In4Bi3S10
_chemical_formula_sum   'In16 Bi12 S40'
_cell_volume   1621.98765821
_cell_formula_units_Z   4
loop_
 _symmetry_equiv_pos_site_id
 _symmetry_equiv_pos_as_xyz
  1  'x, y, z'
loop_
 _atom_site_type_symbol
 _atom_site_label
 _atom_site_symmetry_multiplicity
 _atom_site_fract_x
 _atom_site_fract_y
 _atom_site_fract_z
 _atom_site_occupancy
  In  In0  1  0.49871300  0.22072100  0.03880500  1
  In  In1  1  0.24932800  0.73093300  0.38092600  1
  In  In2  1  0.75062900  0.73478800  0.38243300  1
  In  In3  1  0.24373800  0.94481700  0.67902000  1
  In  In4  1  0.75126400  0.94461000  0.67503800  1
  In  In5  1  0.99925300  0.90234900  0.85681600  1
  In  In6  1  0.50425900  0.69428100  0.55919600  1
  In  In7  1  0.49905000  0.90767100  0.85766500  1
  In  In8  1  0.49960800  0.77789900  0.20417100  1
  In  In9  1  0.99971300  0.21938200  0.03847900  1
  In  In10  1  0.99533500  0.69065900  0.56478300  1
  In  In11  1  0.99992800  0.77729400  0.20364000  1
  In  In12  1  0.25051400  0.86012000  0.03494800  1
  In  In13  1  0.74996600  0.86018700  0.03505900  1
  In  In14  1  0.24979500  0.41714100  0.20016500  1
  In  In15  1  0.75064900  0.41842300  0.20026400  1
  Bi  Bi0  1  0.29523500  0.57049000  0.73617900  1
  Bi  Bi1  1  0.69917800  0.57085100  0.73615600  1
  Bi  Bi2  1  0.24786200  0.37443400  0.43339200  1
  Bi  Bi3  1  0.74419600  0.36512400  0.43279500  1
  Bi  Bi4  1  0.49840200  0.25983900  0.80429000  1
  Bi  Bi5  1  0.24882800  0.50533700  0.98447400  1
  Bi  Bi6  1  0.75135900  0.50505300  0.98469100  1
  Bi  Bi7  1  0.49936000  0.13261400  0.25432500  1
  Bi  Bi8  1  0.99844800  0.27760000  0.80797800  1
  Bi  Bi9  1  0.99427300  0.13325200  0.25456300  1
  Bi  Bi10  1  0.43739300  0.06278500  0.50181500  1
  Bi  Bi11  1  0.03051300  0.06956700  0.50275200  1
  S  S0  1  0.99982400  0.00112500  0.00002600  1
  S  S1  1  0.99931300  0.08551800  0.64757500  1
  S  S2  1  0.49969600  0.48428300  0.87731200  1
  S  S3  1  0.49826800  0.86544000  0.34806800  1
  S  S4  1  0.24907500  0.63504200  0.23803600  1
  S  S5  1  0.75002300  0.63651700  0.23894600  1
  S  S6  1  0.00181500  0.86468900  0.34844900  1
  S  S7  1  0.50013200  0.71452800  0.05893800  1
  S  S8  1  0.49133800  0.29774600  0.51833200  1
  S  S9  1  0.00042100  0.59885100  0.42609600  1
  S  S10  1  0.99985700  0.80014400  0.70577000  1
  S  S11  1  0.24773300  0.27333000  0.94801100  1
  S  S12  1  0.75097800  0.27305800  0.94788200  1
  S  S13  1  0.50107300  0.36451600  0.29053900  1
  S  S14  1  0.24818500  0.15114300  0.36131900  1
  S  S15  1  0.74782000  0.14544200  0.36336000  1
  S  S16  1  0.00007700  0.43497400  0.09495600  1
  S  S17  1  0.25785500  0.84081500  0.53231900  1
  S  S18  1  0.75651300  0.83711200  0.53332800  1
  S  S19  1  0.99993200  0.49633200  0.87576600  1
  S  S20  1  0.49982800  0.59880000  0.42202900  1
  S  S21  1  0.25199600  0.77243400  0.89082100  1
  S  S22  1  0.74663600  0.77348600  0.89051900  1
  S  S23  1  0.99946600  0.71442200  0.05822400  1
  S  S24  1  0.50046000  0.00315800  0.00085400  1
  S  S25  1  0.24961200  0.20271900  0.14398500  1
  S  S26  1  0.75010500  0.20284400  0.14378400  1
  S  S27  1  0.99863800  0.36514900  0.29106300  1
  S  S28  1  0.00080900  0.30080600  0.51867800  1
  S  S29  1  0.49227000  0.08059600  0.64746700  1
  S  S30  1  0.25286900  0.55696300  0.59061600  1
  S  S31  1  0.74285600  0.55166300  0.59116300  1
  S  S32  1  0.24771500  0.03895600  0.81637500  1
  S  S33  1  0.74761200  0.03941500  0.81325800  1
  S  S34  1  0.25297600  0.33840300  0.71993400  1
  S  S35  1  0.74383700  0.33812000  0.72044500  1
  S  S36  1  0.50001400  0.79676400  0.70644800  1
  S  S37  1  0.50082000  0.43547000  0.09479900  1
  S  S38  1  0.24996100  0.92287500  0.18006900  1
  S  S39  1  0.75070100  0.92303000  0.18047000  1
loop_
_geom_bond_atom_site_label_1
_geom_bond_atom_site_label_2
_geom_bond_distance
_geom_bond_site_symmetry_2
In0 S24 2.544629 1_555
In0 S37 2.575702 1_555
In0 S11 2.671736 1_554
In0 S12 2.677783 1_554
In0 S25 2.735705 1_555
In0 S26 2.746028 1_555
In1 S6 2.599523 1_555
In1 S3 2.610839 1_555
In1 S20 2.656797 1_555
In1 S4 2.660330 1_555
In1 S9 2.670374 1_555
In1 S17 2.848632 1_555
In2 S6 2.596415 1_655
In2 S3 2.615408 1_555
In2 S20 2.672671 1_555
In2 S5 2.678171 1_555
In2 S9 2.697777 1_655
In2 S18 2.813280 1_555
In3 S32 2.564110 1_565
In3 S29 2.610750 1_565
In3 S10 2.627628 1_455
In3 S1 2.628984 1_465
In3 S36 2.731877 1_555
In3 S17 2.752882 1_555
In4 S33 2.580531 1_565
In4 S1 2.625439 1_565
In4 S29 2.657063 1_565
In4 S10 2.677638 1_555
In4 S18 2.683875 1_555
In4 S36 2.717517 1_555
In5 S22 2.595671 1_555
In5 S21 2.610227 1_655
In5 S32 2.669526 1_665
In5 S0 2.675405 1_566
In5 S33 2.715775 1_565
In5 S10 2.815021 1_555
In6 S20 2.565766 1_555
In6 S31 2.614431 1_555
In6 S30 2.637906 1_555
In6 S18 2.656330 1_555
In6 S17 2.661817 1_555
In6 S36 2.754358 1_555
In7 S22 2.605255 1_555
In7 S21 2.607188 1_555
In7 S32 2.656593 1_565
In7 S33 2.660693 1_565
In7 S24 2.663893 1_566
In7 S36 2.848943 1_555
In8 S7 2.617840 1_555
In8 S3 2.650798 1_555
In8 S38 2.654706 1_555
In8 S39 2.657372 1_555
In8 S5 2.686565 1_555
In8 S4 2.688531 1_555
In9 S0 2.553570 1_555
In9 S16 2.586998 1_655
In9 S11 2.654532 1_654
In9 S12 2.660785 1_554
In9 S26 2.737153 1_555
In9 S25 2.742023 1_655
In10 S9 2.578223 1_655
In10 S30 2.623318 1_655
In10 S31 2.630951 1_555
In10 S18 2.643206 1_555
In10 S10 2.680139 1_555
In10 S17 2.804070 1_655
In11 S23 2.620173 1_555
In11 S39 2.654041 1_555
In11 S38 2.654267 1_655
In11 S6 2.665564 1_655
In11 S5 2.677451 1_555
In11 S4 2.683927 1_655
In12 S38 2.614880 1_555
In12 S21 2.655055 1_554
In12 S7 2.658832 1_555
In12 S23 2.659603 1_455
In12 S0 2.686089 1_465
In12 S24 2.687934 1_565
In13 S39 2.620041 1_555
In13 S7 2.655144 1_555
In13 S23 2.655792 1_555
In13 S22 2.659161 1_554
In13 S0 2.676819 1_565
In13 S24 2.690366 1_565
In14 S4 2.548218 1_555
In14 S25 2.573004 1_555
In14 S13 2.668612 1_555
In14 S27 2.669949 1_455
In14 S16 2.739634 1_555
In14 S37 2.749287 1_555
In15 S5 2.552285 1_555
In15 S26 2.586871 1_555
In15 S27 2.657421 1_555
In15 S13 2.660895 1_555
In15 S16 2.736228 1_655
In15 S37 2.741889 1_555
Bi0 S30 2.626037 1_555
Bi0 S34 2.712966 1_555
Bi0 S36 3.197540 1_555
Bi1 S31 2.612807 1_555
Bi1 S35 2.724403 1_555
Bi1 S36 3.177544 1_555
Bi2 S8 2.667103 1_555
Bi2 S28 2.673594 1_555
Bi2 S14 2.752189 1_555
Bi3 S8 2.680578 1_555
Bi3 S28 2.694844 1_655
Bi3 S15 2.699043 1_555
Bi4 S35 2.671056 1_555
Bi4 S34 2.680613 1_555
Bi4 S2 2.769924 1_555
Bi5 S11 2.705225 1_555
Bi5 S2 2.728929 1_555
Bi5 S19 2.742120 1_455
Bi5 S16 2.970706 1_556
Bi5 S37 2.985026 1_556
Bi6 S12 2.705727 1_555
Bi6 S2 2.735318 1_555
Bi6 S19 2.743700 1_555
Bi6 S16 2.968591 1_656
Bi6 S37 2.971603 1_556
Bi7 S13 2.703589 1_555
Bi7 S14 2.728916 1_555
Bi7 S15 2.741430 1_555
Bi7 S25 2.974866 1_555
Bi7 S26 2.980950 1_555
Bi8 S19 2.679281 1_555
Bi8 S35 2.685986 1_555
Bi8 S34 2.690410 1_655
Bi8 S12 3.175458 1_555
Bi8 S11 3.185481 1_655
Bi9 S27 2.704190 1_555
Bi9 S15 2.728284 1_555
Bi9 S14 2.740642 1_655
Bi9 S26 2.950226 1_555
Bi9 S25 3.001528 1_655
Bi10 S29 2.637960 1_555
Bi10 S8 2.758157 1_555
Bi10 S17 3.065188 1_545
Bi11 S1 2.601313 1_455
Bi11 S28 2.694392 1_555
