# generated using pymatgen
data_PuU4N5
_symmetry_space_group_name_H-M   'P 1'
_cell_length_a   3.44009005
_cell_length_b   12.43266727
_cell_length_c   3.44009005
_cell_angle_alpha   97.95231165
_cell_angle_beta   90.00000000
_cell_angle_gamma   97.95231165
_symmetry_Int_Tables_number   1
_chemical_formula_structural   PuU4N5
_chemical_formula_sum   'Pu1 U4 N5'
_cell_volume   144.28728968
_cell_formula_units_Z   1
loop_
 _symmetry_equiv_pos_site_id
 _symmetry_equiv_pos_as_xyz
  1  'x, y, z'
loop_
 _atom_site_type_symbol
 _atom_site_label
 _atom_site_symmetry_multiplicity
 _atom_site_fract_x
 _atom_site_fract_y
 _atom_site_fract_z
 _atom_site_occupancy
  Pu  Pu0  1  0.10000000  0.20000000  0.10000000  1
  U  U0  1  0.69928500  0.39857000  0.69928500  1
  U  U1  1  0.30004700  0.60009400  0.30004700  1
  U  U2  1  0.89995300  0.79990600  0.89995300  1
  U  U3  1  0.50071500  0.00143000  0.50071500  1
  N  N0  1  0.40023000  0.80046000  0.40023000  1
  N  N1  1  0.20074000  0.40148000  0.20074000  1
  N  N2  1  0.79977000  0.59954000  0.79977000  1
  N  N3  1  0.99926000  0.99852000  0.99926000  1
  N  N4  1  0.60000000  0.20000000  0.60000000  1
loop_
_geom_bond_atom_site_label_1
_geom_bond_atom_site_label_2
_geom_bond_distance
_geom_bond_site_symmetry_2
N0 U2 2.432520 1_455
N0 U2 2.432520 1_454
N0 U2 2.432520 1_555
N0 U2 2.432520 1_554
N0 U1 2.442938 1_555
N0 U3 2.450302 1_565
N1 U1 2.421577 1_555
N1 U0 2.432770 1_555
N1 U0 2.432770 1_454
N1 U0 2.432770 1_554
N1 U0 2.432770 1_455
N1 Pu0 2.456521 1_555
N2 U1 2.432520 1_555
N2 U1 2.432520 1_656
N2 U1 2.432520 1_655
N2 U1 2.432520 1_556
N2 U2 2.442938 1_555
N2 U0 2.450302 1_555
N3 U2 2.421577 1_555
N3 U3 2.432770 1_666
N3 U3 2.432770 1_566
N3 U3 2.432770 1_665
N3 U3 2.432770 1_565
N3 Pu0 2.456521 1_666
N4 U0 2.421041 1_555
N4 U3 2.421041 1_555
N4 Pu0 2.432511 1_655
N4 Pu0 2.432511 1_555
N4 Pu0 2.432511 1_556
N4 Pu0 2.432511 1_656
