# generated using pymatgen
data_LiAsSe2
_symmetry_space_group_name_H-M   'P 1'
_cell_length_a   5.57132216
_cell_length_b   5.62740254
_cell_length_c   6.82842642
_cell_angle_alpha   110.76683371
_cell_angle_beta   114.07616348
_cell_angle_gamma   90.00000000
_symmetry_Int_Tables_number   1
_chemical_formula_structural   LiAsSe2
_chemical_formula_sum   'Li2 As2 Se4'
_cell_volume   180.11935423
_cell_formula_units_Z   2
loop_
 _symmetry_equiv_pos_site_id
 _symmetry_equiv_pos_as_xyz
  1  'x, y, z'
loop_
 _atom_site_type_symbol
 _atom_site_label
 _atom_site_symmetry_multiplicity
 _atom_site_fract_x
 _atom_site_fract_y
 _atom_site_fract_z
 _atom_site_occupancy
  Li  Li0  1  0.26514176  0.50509807  0.00374292  1
  Li  Li1  1  0.73859916  0.00509807  0.00374292  1
  As  As0  1  0.00440149  0.83733212  0.57071619  1
  As  As1  1  0.56631270  0.33733212  0.57071619  1
  Se  Se0  1  0.96017954  0.23380583  0.48771931  1
  Se  Se1  1  0.52753977  0.73380583  0.48771931  1
  Se  Se2  1  0.22544133  0.98905398  0.97498258  1
  Se  Se3  1  0.74954225  0.48905398  0.97498258  1
loop_
_geom_bond_atom_site_label_1
_geom_bond_atom_site_label_2
_geom_bond_distance
_geom_bond_site_symmetry_2
Li0 Se3 2.783852 1_554
Li0 Se1 2.785181 1_555
Li0 Se3 2.797415 1_454
Li0 Se2 2.801484 1_554
Li0 Se2 2.842670 1_544
Li0 Se0 2.988993 1_454
Li1 Se2 2.783836 1_544
Li1 Se0 2.785180 1_555
Li1 Se2 2.797431 1_644
Li1 Se3 2.801485 1_554
Li1 Se3 2.842671 1_544
Li1 Se1 2.988994 1_544
As0 Se2 2.328277 1_555
As0 Se0 2.478411 1_465
As0 Se1 2.501259 1_455
As1 Se3 2.328276 1_555
As1 Se1 2.478411 1_555
As1 Se0 2.501269 1_555
