# generated using pymatgen
data_CaSn2S5
_symmetry_space_group_name_H-M   'P 1'
_cell_length_a   8.53144965
_cell_length_b   9.93864735
_cell_length_c   10.21357728
_cell_angle_alpha   68.34549040
_cell_angle_beta   87.45462507
_cell_angle_gamma   85.23025823
_symmetry_Int_Tables_number   1
_chemical_formula_structural   CaSn2S5
_chemical_formula_sum   'Ca4 Sn8 S20'
_cell_volume   802.02595598
_cell_formula_units_Z   4
loop_
 _symmetry_equiv_pos_site_id
 _symmetry_equiv_pos_as_xyz
  1  'x, y, z'
loop_
 _atom_site_type_symbol
 _atom_site_label
 _atom_site_symmetry_multiplicity
 _atom_site_fract_x
 _atom_site_fract_y
 _atom_site_fract_z
 _atom_site_occupancy
  Ca  Ca0  1  0.17923900  0.49984300  0.69681600  1
  Ca  Ca1  1  0.82076100  0.50015700  0.30318400  1
  Ca  Ca2  1  0.35593800  0.97473800  0.78347500  1
  Ca  Ca3  1  0.64406200  0.02526200  0.21652500  1
  Sn  Sn0  1  0.50000000  0.50000000  0.00000000  1
  Sn  Sn1  1  0.00000000  0.00000000  0.50000000  1
  Sn  Sn2  1  0.24138300  0.75359500  0.24654600  1
  Sn  Sn3  1  0.75861700  0.24640500  0.75345400  1
  Sn  Sn4  1  0.87344600  0.80079300  0.93900100  1
  Sn  Sn5  1  0.12655400  0.19920700  0.06099900  1
  Sn  Sn6  1  0.36741000  0.30258800  0.43801100  1
  Sn  Sn7  1  0.63259000  0.69741200  0.56198900  1
  S  S0  1  0.33767800  0.01006400  0.11182000  1
  S  S1  1  0.66232200  0.98993600  0.88818000  1
  S  S2  1  0.15654900  0.49140000  0.38213600  1
  S  S3  1  0.84345100  0.50860000  0.61786400  1
  S  S4  1  0.07484500  0.83800100  0.75925800  1
  S  S5  1  0.92515500  0.16199900  0.24074200  1
  S  S6  1  0.45086300  0.29415300  0.66572800  1
  S  S7  1  0.54913700  0.70584700  0.33427200  1
  S  S8  1  0.12213500  0.77201800  0.46882900  1
  S  S9  1  0.87786500  0.22798200  0.53117100  1
  S  S10  1  0.94682100  0.79937400  0.16788300  1
  S  S11  1  0.05317900  0.20062600  0.83211700  1
  S  S12  1  0.70510500  0.94177300  0.51515800  1
  S  S13  1  0.29489500  0.05822700  0.48484200  1
  S  S14  1  0.38636600  0.72661600  0.03637300  1
  S  S15  1  0.61363400  0.27338400  0.96362700  1
  S  S16  1  0.57066200  0.33215400  0.25998800  1
  S  S17  1  0.42933800  0.66784600  0.74001200  1
  S  S18  1  0.20432400  0.44404000  0.00041600  1
  S  S19  1  0.79567600  0.55596000  0.99958400  1
loop_
_geom_bond_atom_site_label_1
_geom_bond_atom_site_label_2
_geom_bond_distance
_geom_bond_site_symmetry_2
Ca0 S8 2.865268 1_555
Ca0 S18 2.956114 1_556
Ca0 S17 2.958900 1_555
Ca0 S3 2.996096 1_455
Ca0 S6 3.045629 1_555
Ca0 S11 3.045790 1_555
Ca0 S2 3.260578 1_555
Ca1 S9 2.865268 1_555
Ca1 S19 2.956114 1_554
Ca1 S16 2.958900 1_555
Ca1 S2 2.996096 1_655
Ca1 S7 3.045629 1_555
Ca1 S10 3.045790 1_555
Ca1 S3 3.260578 1_555
Ca2 S14 2.841226 1_556
Ca2 S1 2.903806 1_555
Ca2 S13 2.909346 1_565
Ca2 S4 2.915781 1_555
Ca2 S6 3.115026 1_565
Ca2 S17 3.247950 1_555
Ca2 S11 3.421037 1_565
Ca2 S0 3.493919 1_566
Ca3 S15 2.841226 1_554
Ca3 S0 2.903806 1_555
Ca3 S12 2.909346 1_545
Ca3 S5 2.915781 1_555
Ca3 S7 3.115026 1_545
Ca3 S16 3.247950 1_555
Ca3 S10 3.421037 1_545
Ca3 S1 3.493919 1_544
S0 Sn5 2.418119 1_555
S0 Sn2 2.593230 1_545
S1 Sn4 2.418119 1_555
S1 Sn3 2.593230 1_565
S2 Sn6 2.413031 1_555
S2 Sn2 2.606431 1_555
S3 Sn7 2.413031 1_555
S3 Sn3 2.606431 1_555
S4 Sn4 2.404943 1_455
S4 Sn1 2.616186 1_565
S5 Sn5 2.404943 1_655
S5 Sn1 2.616186 1_655
S6 Sn6 2.432399 1_555
S6 Sn3 2.758561 1_555
S7 Sn7 2.432399 1_555
S7 Sn2 2.758561 1_555
S8 Sn2 2.508682 1_555
S8 Sn1 2.536016 1_565
S9 Sn3 2.508682 1_555
S9 Sn1 2.536016 1_655
S10 Sn4 2.441538 1_554
S10 Sn2 2.624365 1_655
S11 Sn5 2.441538 1_556
S11 Sn3 2.624365 1_455
S12 Sn7 2.424042 1_555
S12 Sn1 2.613414 1_665
S13 Sn6 2.424042 1_555
S13 Sn1 2.613414 1_555
S14 Sn2 2.518655 1_555
S14 Sn0 2.524466 1_555
S15 Sn3 2.518655 1_555
S15 Sn0 2.524466 1_556
S16 Sn6 2.410319 1_555
S16 Sn0 2.627387 1_555
S17 Sn7 2.410319 1_555
S17 Sn0 2.627387 1_556
S18 Sn5 2.421758 1_555
S18 Sn0 2.627393 1_555
S19 Sn4 2.421758 1_555
S19 Sn0 2.627393 1_556
