# generated using pymatgen
data_DyMgCrS4
_symmetry_space_group_name_H-M   'P 1'
_cell_length_a   7.65660740
_cell_length_b   7.55949674
_cell_length_c   7.56001313
_cell_angle_alpha   59.32218902
_cell_angle_beta   59.57498696
_cell_angle_gamma   59.57482603
_symmetry_Int_Tables_number   1
_chemical_formula_structural   DyMgCrS4
_chemical_formula_sum   'Dy2 Mg2 Cr2 S8'
_cell_volume   305.82343544
_cell_formula_units_Z   2
loop_
 _symmetry_equiv_pos_site_id
 _symmetry_equiv_pos_as_xyz
  1  'x, y, z'
loop_
 _atom_site_type_symbol
 _atom_site_label
 _atom_site_symmetry_multiplicity
 _atom_site_fract_x
 _atom_site_fract_y
 _atom_site_fract_z
 _atom_site_occupancy
  Dy  Dy0  1  0.49997500  0.50005700  0.50000400  1
  Dy  Dy1  1  0.99998100  0.50000500  0.50003800  1
  Mg  Mg0  1  0.87466800  0.87532800  0.87538100  1
  Mg  Mg1  1  0.12542300  0.12466600  0.12453000  1
  Cr  Cr0  1  0.49999400  0.50004200  0.99994600  1
  Cr  Cr1  1  0.49986100  0.99988100  0.50010200  1
  S  S0  1  0.71071300  0.75479400  0.75480200  1
  S  S1  1  0.27082100  0.22918900  0.72919600  1
  S  S2  1  0.27079400  0.72919600  0.22922000  1
  S  S3  1  0.72038400  0.24520700  0.24520600  1
  S  S4  1  0.72916500  0.27082400  0.77079300  1
  S  S5  1  0.27973400  0.75480600  0.75478700  1
  S  S6  1  0.28925300  0.24516500  0.24525800  1
  S  S7  1  0.72924000  0.77083600  0.27073600  1
loop_
_geom_bond_atom_site_label_1
_geom_bond_atom_site_label_2
_geom_bond_distance
_geom_bond_site_symmetry_2
Dy0 S2 2.685453 1_555
Dy0 S4 2.685478 1_555
Dy0 S1 2.685652 1_555
Dy0 S7 2.685700 1_555
Dy0 S5 2.732875 1_555
Dy0 S3 2.733410 1_555
Dy1 S4 2.685506 1_555
Dy1 S2 2.685558 1_655
Dy1 S1 2.685607 1_655
Dy1 S7 2.685776 1_555
Dy1 S0 2.732957 1_555
Dy1 S6 2.733291 1_655
Mg0 S7 2.430676 1_556
Mg0 S4 2.431334 1_565
Mg0 S5 2.530221 1_655
Mg0 S0 2.530253 1_555
Mg1 S1 2.430527 1_554
Mg1 S2 2.431116 1_545
Mg1 S3 2.529984 1_455
Mg1 S6 2.530115 1_555
Cr0 S4 2.446943 1_555
Cr0 S2 2.447247 1_556
Cr0 S5 2.494412 1_555
Cr0 S0 2.494588 1_555
Cr0 S6 2.495408 1_556
Cr0 S3 2.495625 1_556
Cr1 S1 2.447109 1_565
Cr1 S7 2.447157 1_555
Cr1 S5 2.493194 1_555
Cr1 S6 2.494637 1_565
Cr1 S0 2.495056 1_555
Cr1 S3 2.496593 1_565
