# generated using pymatgen
data_Ba(HoS2)2
_symmetry_space_group_name_H-M   'P 1'
_cell_length_a   4.02783459
_cell_length_b   12.27445145
_cell_length_c   14.47674458
_cell_angle_alpha   90.00000000
_cell_angle_beta   90.00000000
_cell_angle_gamma   90.00000000
_symmetry_Int_Tables_number   1
_chemical_formula_structural   Ba(HoS2)2
_chemical_formula_sum   'Ba4 Ho8 S16'
_cell_volume   715.72243638
_cell_formula_units_Z   4
loop_
 _symmetry_equiv_pos_site_id
 _symmetry_equiv_pos_as_xyz
  1  'x, y, z'
loop_
 _atom_site_type_symbol
 _atom_site_label
 _atom_site_symmetry_multiplicity
 _atom_site_fract_x
 _atom_site_fract_y
 _atom_site_fract_z
 _atom_site_occupancy
  Ba  Ba0  1  0.25000000  0.75699365  0.33857099  1
  Ba  Ba1  1  0.25000000  0.25699365  0.16142901  1
  Ba  Ba2  1  0.75000000  0.24300635  0.66142901  1
  Ba  Ba3  1  0.75000000  0.74300635  0.83857099  1
  Ho  Ho0  1  0.25000000  0.43251826  0.39134781  1
  Ho  Ho1  1  0.25000000  0.93251826  0.10865219  1
  Ho  Ho2  1  0.75000000  0.56748174  0.60865219  1
  Ho  Ho3  1  0.75000000  0.06748174  0.89134781  1
  Ho  Ho4  1  0.25000000  0.42195309  0.89811488  1
  Ho  Ho5  1  0.25000000  0.92195309  0.60188512  1
  Ho  Ho6  1  0.75000000  0.57804691  0.10188512  1
  Ho  Ho7  1  0.75000000  0.07804691  0.39811488  1
  S  S0  1  0.25000000  0.20791043  0.83876564  1
  S  S1  1  0.25000000  0.70791043  0.66123436  1
  S  S2  1  0.75000000  0.79208957  0.16123436  1
  S  S3  1  0.75000000  0.29208957  0.33876564  1
  S  S4  1  0.25000000  0.12305418  0.52250549  1
  S  S5  1  0.25000000  0.62305418  0.97749451  1
  S  S6  1  0.75000000  0.87694582  0.47749451  1
  S  S7  1  0.75000000  0.37694582  0.02250549  1
  S  S8  1  0.25000000  0.02167515  0.28297486  1
  S  S9  1  0.25000000  0.52167515  0.21702514  1
  S  S10  1  0.75000000  0.97832485  0.71702514  1
  S  S11  1  0.75000000  0.47832485  0.78297486  1
  S  S12  1  0.25000000  0.41989259  0.57659809  1
  S  S13  1  0.25000000  0.91989259  0.92340191  1
  S  S14  1  0.75000000  0.58010741  0.42340191  1
  S  S15  1  0.75000000  0.08010741  0.07659809  1
loop_
_geom_bond_atom_site_label_1
_geom_bond_atom_site_label_2
_geom_bond_distance
_geom_bond_site_symmetry_2
Ba0 S6 3.204440 1_555
Ba0 S6 3.204440 1_455
Ba0 S14 3.205942 1_455
Ba0 S14 3.205942 1_555
Ba0 S2 3.291238 1_455
Ba0 S2 3.291238 1_555
Ba0 S8 3.347031 1_565
Ba0 S9 3.382165 1_555
Ba1 S7 3.204440 1_455
Ba1 S7 3.204440 1_555
Ba1 S15 3.205942 1_455
Ba1 S15 3.205942 1_555
Ba1 S3 3.291238 1_555
Ba1 S3 3.291238 1_455
Ba1 S9 3.347031 1_555
Ba1 S8 3.382165 1_555
Ba2 S4 3.204440 1_555
Ba2 S4 3.204440 1_655
Ba2 S12 3.205942 1_655
Ba2 S12 3.205942 1_555
Ba2 S0 3.291238 1_655
Ba2 S0 3.291238 1_555
Ba2 S10 3.347031 1_545
Ba2 S11 3.382165 1_555
Ba3 S5 3.204440 1_555
Ba3 S5 3.204440 1_655
Ba3 S13 3.205942 1_655
Ba3 S13 3.205942 1_555
Ba3 S1 3.291238 1_655
Ba3 S1 3.291238 1_555
Ba3 S11 3.347031 1_555
Ba3 S10 3.382165 1_555
Ho0 S12 2.686295 1_555
Ho0 S14 2.748273 1_455
Ho0 S14 2.748273 1_555
Ho0 S9 2.750689 1_555
Ho0 S3 2.757972 1_455
Ho0 S3 2.757972 1_555
Ho1 S13 2.686295 1_554
Ho1 S15 2.748273 1_565
Ho1 S15 2.748273 1_465
Ho1 S8 2.750689 1_565
Ho1 S2 2.757972 1_455
Ho1 S2 2.757972 1_555
Ho2 S14 2.686295 1_555
Ho2 S12 2.748273 1_655
Ho2 S12 2.748273 1_555
Ho2 S11 2.750689 1_555
Ho2 S1 2.757972 1_655
Ho2 S1 2.757972 1_555
Ho3 S15 2.686295 1_556
Ho3 S13 2.748273 1_545
Ho3 S13 2.748273 1_645
Ho3 S10 2.750689 1_545
Ho3 S0 2.757972 1_655
Ho3 S0 2.757972 1_555
Ho4 S11 2.704262 1_555
Ho4 S11 2.704262 1_455
Ho4 S5 2.722791 1_555
Ho4 S7 2.757504 1_456
Ho4 S7 2.757504 1_556
Ho4 S0 2.764177 1_555
Ho5 S10 2.704262 1_455
Ho5 S10 2.704262 1_555
Ho5 S4 2.722791 1_565
Ho5 S6 2.757504 1_455
Ho5 S6 2.757504 1_555
Ho5 S1 2.764177 1_555
Ho6 S9 2.704262 1_555
Ho6 S9 2.704262 1_655
Ho6 S7 2.722791 1_555
Ho6 S5 2.757504 1_554
Ho6 S5 2.757504 1_654
Ho6 S2 2.764177 1_555
Ho7 S8 2.704262 1_655
Ho7 S8 2.704262 1_555
Ho7 S6 2.722791 1_545
Ho7 S4 2.757504 1_555
Ho7 S4 2.757504 1_655
Ho7 S3 2.764177 1_555
