# generated using pymatgen
data_Y4ZrSi3
_symmetry_space_group_name_H-M   'P 1'
_cell_length_a   8.36904339
_cell_length_b   8.36904339
_cell_length_c   6.20049200
_cell_angle_alpha   90.00000000
_cell_angle_beta   90.00000000
_cell_angle_gamma   119.99999514
_symmetry_Int_Tables_number   1
_chemical_formula_structural   Y4ZrSi3
_chemical_formula_sum   'Y8 Zr2 Si6'
_cell_volume   376.10442493
_cell_formula_units_Z   2
loop_
 _symmetry_equiv_pos_site_id
 _symmetry_equiv_pos_as_xyz
  1  'x, y, z'
loop_
 _atom_site_type_symbol
 _atom_site_label
 _atom_site_symmetry_multiplicity
 _atom_site_fract_x
 _atom_site_fract_y
 _atom_site_fract_z
 _atom_site_occupancy
  Y  Y0  1  0.66666700  0.33333300  0.00000000  1
  Y  Y1  1  0.33333300  0.66666700  0.00000000  1
  Y  Y2  1  0.00000000  0.75414600  0.25704200  1
  Y  Y3  1  0.24585400  0.24585400  0.25704200  1
  Y  Y4  1  0.75414600  0.00000000  0.25704200  1
  Y  Y5  1  0.00000000  0.24585400  0.74295800  1
  Y  Y6  1  0.75414600  0.75414600  0.74295800  1
  Y  Y7  1  0.24585400  0.00000000  0.74295800  1
  Zr  Zr0  1  0.33333300  0.66666700  0.50000000  1
  Zr  Zr1  1  0.66666700  0.33333300  0.50000000  1
  Si  Si0  1  0.00000000  0.39815600  0.27592000  1
  Si  Si1  1  0.60184400  0.60184400  0.27592000  1
  Si  Si2  1  0.39815600  0.00000000  0.27592000  1
  Si  Si3  1  0.00000000  0.60184400  0.72408000  1
  Si  Si4  1  0.39815600  0.39815600  0.72408000  1
  Si  Si5  1  0.60184400  0.00000000  0.72408000  1
loop_
_geom_bond_atom_site_label_1
_geom_bond_atom_site_label_2
_geom_bond_distance
_geom_bond_site_symmetry_2
Y0 Zr1 3.100246 1_554
Y0 Zr1 3.100246 1_555
Y1 Zr0 3.100246 1_555
Y1 Zr0 3.100246 1_554
Si0 Zr1 2.914387 1_455
Si0 Zr0 2.914389 1_555
Si0 Y3 2.914540 1_555
Si0 Y4 2.914540 1_455
Si0 Y2 2.981594 1_555
Si0 Y0 3.080612 1_455
Si0 Y1 3.080615 1_555
Si0 Y5 3.163969 1_555
Si0 Y5 3.541923 1_554
Si1 Zr0 2.914394 1_555
Si1 Zr1 2.914394 1_555
Si1 Y2 2.914540 1_655
Si1 Y4 2.914540 1_565
Si1 Y3 2.981595 1_555
Si1 Y1 3.080619 1_555
Si1 Y0 3.080619 1_555
Si1 Y6 3.163969 1_555
Si1 Y6 3.541923 1_554
Si2 Zr0 2.914387 1_545
Si2 Zr1 2.914389 1_555
Si2 Y3 2.914540 1_555
Si2 Y2 2.914540 1_545
Si2 Y4 2.981594 1_555
Si2 Y1 3.080612 1_545
Si2 Y0 3.080615 1_555
Si2 Y7 3.163969 1_555
Si2 Y7 3.541923 1_554
Si3 Zr0 2.914387 1_555
Si3 Zr1 2.914389 1_455
Si3 Y6 2.914540 1_455
Si3 Y7 2.914540 1_565
Si3 Y5 2.981594 1_555
Si3 Y1 3.080612 1_556
Si3 Y0 3.080615 1_456
Si3 Y2 3.163969 1_555
Si3 Y2 3.541923 1_556
Si4 Zr0 2.914394 1_555
Si4 Zr1 2.914394 1_555
Si4 Y5 2.914540 1_555
Si4 Y7 2.914540 1_555
Si4 Y6 2.981595 1_555
Si4 Y0 3.080619 1_556
Si4 Y1 3.080619 1_556
Si4 Y3 3.163969 1_555
Si4 Y3 3.541923 1_556
Si5 Zr1 2.914387 1_555
Si5 Zr0 2.914389 1_545
Si5 Y6 2.914540 1_545
Si5 Y5 2.914540 1_655
Si5 Y7 2.981594 1_555
Si5 Y0 3.080612 1_556
Si5 Y1 3.080615 1_546
Si5 Y4 3.163969 1_555
Si5 Y4 3.541923 1_556
