# generated using pymatgen
data_Li6Mn3CoO10
_symmetry_space_group_name_H-M   'P 1'
_cell_length_a   2.93222900
_cell_length_b   5.97507126
_cell_length_c   10.39209236
_cell_angle_alpha   97.51578801
_cell_angle_beta   96.90896849
_cell_angle_gamma   92.72072229
_symmetry_Int_Tables_number   1
_chemical_formula_structural   Li6Mn3CoO10
_chemical_formula_sum   'Li6 Mn3 Co1 O10'
_cell_volume   178.82751681
_cell_formula_units_Z   1
loop_
 _symmetry_equiv_pos_site_id
 _symmetry_equiv_pos_as_xyz
  1  'x, y, z'
loop_
 _atom_site_type_symbol
 _atom_site_label
 _atom_site_symmetry_multiplicity
 _atom_site_fract_x
 _atom_site_fract_y
 _atom_site_fract_z
 _atom_site_occupancy
  Li  Li0  1  0.99028600  0.48709000  0.98185600  1
  Li  Li1  1  0.60411900  0.29819900  0.20149600  1
  Li  Li2  1  0.40048900  0.70095800  0.80049600  1
  Li  Li3  1  0.80865500  0.90958400  0.61272700  1
  Li  Li4  1  0.19739500  0.10306100  0.40067700  1
  Li  Li5  1  0.39953100  0.20016500  0.79868900  1
  Mn  Mn0  1  0.98910700  0.00486200  0.99095200  1
  Mn  Mn1  1  0.80868100  0.39663900  0.60700900  1
  Mn  Mn2  1  0.59672600  0.79974700  0.20279900  1
  Co  Co0  1  0.21196800  0.59620100  0.40094900  1
  O  O0  1  0.51127800  0.22147700  0.99981000  1
  O  O1  1  0.05474400  0.03734400  0.19236200  1
  O  O2  1  0.88805300  0.45040800  0.78485400  1
  O  O3  1  0.31788800  0.62082900  0.59160800  1
  O  O4  1  0.66785400  0.83498000  0.39942300  1
  O  O5  1  0.47631800  0.77844000  0.00477300  1
  O  O6  1  0.13706700  0.55954800  0.20847800  1
  O  O7  1  0.90994700  0.95282600  0.81334800  1
  O  O8  1  0.28651800  0.18081500  0.59900300  1
  O  O9  1  0.74337400  0.36682600  0.40869100  1
loop_
_geom_bond_atom_site_label_1
_geom_bond_atom_site_label_2
_geom_bond_distance
_geom_bond_site_symmetry_2
Li0 O2 2.014427 1_555
Li0 O0 2.110744 1_555
Li0 O5 2.166255 1_656
Li0 O0 2.264153 1_655
Li0 O6 2.321807 1_656
Li0 O5 2.363358 1_556
Li1 O0 2.068031 1_554
Li1 O1 2.090752 1_655
Li1 O9 2.124314 1_555
Li1 O6 2.125236 1_555
Li1 O6 2.144134 1_655
Li1 O1 2.172430 1_555
Li2 O2 2.046794 1_455
Li2 O7 2.049444 1_555
Li2 O5 2.095208 1_556
Li2 O2 2.122953 1_555
Li2 O7 2.133245 1_455
Li2 O3 2.142616 1_555
Li3 O7 2.050484 1_555
Li3 O8 2.122050 1_665
Li3 O3 2.164493 1_555
Li3 O4 2.187846 1_555
Li3 O8 2.287857 1_565
Li3 O3 2.340707 1_655
Li4 O8 2.034786 1_555
Li4 O9 2.110599 1_455
Li4 O1 2.135372 1_555
Li4 O4 2.162773 1_545
Li4 O4 2.174967 1_445
Li4 O9 2.178947 1_555
Li5 O7 2.044080 1_445
Li5 O8 2.048806 1_555
Li5 O2 2.052009 1_555
Li5 O0 2.062430 1_555
Li5 O7 2.159006 1_545
Li5 O2 2.173227 1_455
Mn0 O7 1.815773 1_545
Mn0 O0 1.942882 1_655
Mn0 O0 1.954168 1_555
Mn0 O5 2.005358 1_546
Mn0 O5 2.019115 1_646
Mn0 O1 2.061292 1_656
Mn1 O2 1.818583 1_555
Mn1 O8 1.941136 1_555
Mn1 O8 1.950530 1_655
Mn1 O3 1.993262 1_655
Mn1 O3 2.018603 1_555
Mn1 O9 2.030183 1_555
Mn2 O1 1.930078 1_665
Mn2 O6 1.933283 1_555
Mn2 O4 2.010922 1_555
Mn2 O5 2.031804 1_555
Mn2 O1 2.183071 1_565
Mn2 O6 2.188418 1_655
Co0 O9 1.910351 1_455
Co0 O4 1.911198 1_555
Co0 O3 1.953250 1_555
Co0 O6 1.967755 1_555
Co0 O9 2.124678 1_555
Co0 O4 2.190258 1_455
