# generated using pymatgen
data_Li24MnCr11O36
_symmetry_space_group_name_H-M   'P 1'
_cell_length_a   8.77521679
_cell_length_b   8.77521679
_cell_length_c   9.69533283
_cell_angle_alpha   82.14839661
_cell_angle_beta   82.14839661
_cell_angle_gamma   58.96686718
_symmetry_Int_Tables_number   1
_chemical_formula_structural   Li24MnCr11O36
_chemical_formula_sum   'Li24 Mn1 Cr11 O36'
_cell_volume   631.79813417
_cell_formula_units_Z   1
loop_
 _symmetry_equiv_pos_site_id
 _symmetry_equiv_pos_as_xyz
  1  'x, y, z'
loop_
 _atom_site_type_symbol
 _atom_site_label
 _atom_site_symmetry_multiplicity
 _atom_site_fract_x
 _atom_site_fract_y
 _atom_site_fract_z
 _atom_site_occupancy
  Li  Li0  1  0.82502300  0.00843200  0.24914600  1
  Li  Li1  1  0.74971900  0.25028100  0.00000000  1
  Li  Li2  1  0.66757800  0.16650500  0.74977300  1
  Li  Li3  1  0.58371800  0.08290500  0.49949500  1
  Li  Li4  1  0.50519300  0.32781700  0.25131300  1
  Li  Li5  1  0.50025100  0.99966700  0.24979700  1
  Li  Li6  1  0.34054500  0.15832500  0.75085600  1
  Li  Li7  1  0.32634200  0.50836400  0.74956300  1
  Li  Li8  1  0.25189200  0.74810800  0.50000000  1
  Li  Li9  1  0.15990000  0.34142400  0.24969000  1
  Li  Li10  1  0.16760500  0.66610400  0.25001700  1
  Li  Li11  1  0.08416900  0.58282300  0.99953900  1
  Li  Li12  1  0.00803900  0.82580600  0.74968500  1
  Li  Li13  1  0.00033300  0.49974900  0.75020300  1
  Li  Li14  1  0.99156800  0.17497700  0.75085400  1
  Li  Li15  1  0.91709500  0.41628200  0.50050500  1
  Li  Li16  1  0.84167500  0.65945500  0.24914400  1
  Li  Li17  1  0.83349500  0.33242200  0.25022700  1
  Li  Li18  1  0.67218300  0.49480700  0.74868700  1
  Li  Li19  1  0.65857600  0.84010000  0.75031000  1
  Li  Li20  1  0.49163600  0.67365800  0.25043700  1
  Li  Li21  1  0.41717700  0.91583100  0.00046100  1
  Li  Li22  1  0.33389600  0.83239500  0.74998300  1
  Li  Li23  1  0.17419400  0.99196100  0.25031500  1
  Mn  Mn0  1  0.58260100  0.41739900  0.50000000  1
  Cr  Cr0  1  0.92277200  0.07722800  0.50000000  1
  Cr  Cr1  1  0.42138900  0.57861100  0.00000000  1
  Cr  Cr2  1  0.41255100  0.25451500  0.99987400  1
  Cr  Cr3  1  0.25502300  0.41497400  0.49911100  1
  Cr  Cr4  1  0.24551500  0.08917800  0.50076800  1
  Cr  Cr5  1  0.07889400  0.92110600  0.00000000  1
  Cr  Cr6  1  0.08821800  0.24523900  0.99991400  1
  Cr  Cr7  1  0.91082200  0.75448500  0.49923200  1
  Cr  Cr8  1  0.75476100  0.91178200  0.00008600  1
  Cr  Cr9  1  0.74548500  0.58744900  0.00012600  1
  Cr  Cr10  1  0.58502600  0.74497700  0.50088900  1
  O  O0  1  0.88547300  0.02393100  0.88681100  1
  O  O1  1  0.71421200  0.21476600  0.38629900  1
  O  O2  1  0.61872100  0.11866800  0.11385200  1
  O  O3  1  0.54826900  0.04831700  0.88581600  1
  O  O4  1  0.52404200  0.38565700  0.88672500  1
  O  O5  1  0.45287300  0.31021800  0.61109000  1
  O  O6  1  0.30899500  0.44801800  0.11293500  1
  O  O7  1  0.38244000  0.52721900  0.38642400  1
  O  O8  1  0.28143700  0.14277100  0.11297100  1
  O  O9  1  0.35666500  0.21989300  0.38694200  1
  O  O10  1  0.21464600  0.71481000  0.88605700  1
  O  O11  1  0.21915200  0.35753200  0.88623500  1
  O  O12  1  0.19100900  0.05199100  0.88670500  1
  O  O13  1  0.14361900  0.28216200  0.61347400  1
  O  O14  1  0.11789900  0.61771800  0.61414300  1
  O  O15  1  0.97606900  0.11452700  0.11318900  1
  O  O16  1  0.04776600  0.54818400  0.38554100  1
  O  O17  1  0.05300700  0.19002200  0.38687600  1
  O  O18  1  0.94800900  0.80899100  0.11329500  1
  O  O19  1  0.95168300  0.45173100  0.11418400  1
  O  O20  1  0.02282600  0.88602800  0.38599800  1
  O  O21  1  0.88133200  0.38127900  0.88614800  1
  O  O22  1  0.85722900  0.71856300  0.88702900  1
  O  O23  1  0.80997800  0.94699300  0.61312400  1
  O  O24  1  0.78010700  0.64333500  0.61305800  1
  O  O25  1  0.78523400  0.28578800  0.61370100  1
  O  O26  1  0.64246800  0.78084800  0.11376500  1
  O  O27  1  0.71783800  0.85638100  0.38652600  1
  O  O28  1  0.61434300  0.47595800  0.11327500  1
  O  O29  1  0.68978200  0.54712700  0.38891000  1
  O  O30  1  0.55198200  0.69100500  0.88706500  1
  O  O31  1  0.47278100  0.61756000  0.61357600  1
  O  O32  1  0.45181600  0.95223400  0.61445900  1
  O  O33  1  0.38228200  0.88210100  0.38585700  1
  O  O34  1  0.28519000  0.78535400  0.11394300  1
  O  O35  1  0.11397200  0.97717400  0.61400200  1
loop_
_geom_bond_atom_site_label_1
_geom_bond_atom_site_label_2
_geom_bond_distance
_geom_bond_site_symmetry_2
Li0 O20 2.060240 1_645
Li0 O18 2.063123 1_545
Li0 O2 2.104803 1_555
Li0 O1 2.116915 1_555
Li0 O15 2.195642 1_555
Li0 O27 2.214767 1_545
Li1 O4 2.085978 1_554
Li1 O28 2.085978 1_555
Li1 O15 2.089823 1_555
Li1 O0 2.089823 1_554
Li1 O2 2.132520 1_555
Li1 O21 2.132520 1_554
Li2 O25 2.065654 1_555
Li2 O3 2.068817 1_555
Li2 O5 2.174180 1_555
Li2 O0 2.181734 1_555
Li2 O23 2.188684 1_545
Li2 O4 2.188850 1_555
Li3 O5 2.087255 1_555
Li3 O27 2.089639 1_545
Li3 O9 2.090879 1_555
Li3 O23 2.091725 1_545
Li3 O1 2.128498 1_555
Li3 O32 2.136288 1_545
Li4 O7 2.058005 1_555
Li4 O6 2.061245 1_555
Li4 O1 2.118059 1_555
Li4 O2 2.134805 1_555
Li4 O9 2.188383 1_555
Li4 O28 2.203791 1_555
Li5 O33 2.057273 1_555
Li5 O2 2.068183 1_565
Li5 O27 2.178246 1_555
Li5 O26 2.180691 1_555
Li5 O8 2.185938 1_565
Li5 O9 2.196354 1_565
Li6 O11 2.058689 1_555
Li6 O13 2.058746 1_555
Li6 O32 2.110153 1_545
Li6 O3 2.111617 1_555
Li6 O12 2.186738 1_555
Li6 O5 2.254040 1_555
Li7 O4 2.061710 1_555
Li7 O5 2.073285 1_555
Li7 O10 2.112746 1_555
Li7 O14 2.119557 1_555
Li7 O31 2.183876 1_555
Li7 O11 2.203728 1_555
Li8 O31 2.056960 1_555
Li8 O7 2.056960 1_555
Li8 O35 2.111899 1_555
Li8 O20 2.111899 1_555
Li8 O33 2.145256 1_555
Li8 O14 2.145256 1_555
Li9 O9 2.056905 1_555
Li9 O8 2.064333 1_555
Li9 O16 2.110211 1_555
Li9 O19 2.118082 1_455
Li9 O6 2.189452 1_555
Li9 O17 2.208018 1_555
Li10 O34 2.065048 1_555
Li10 O16 2.067874 1_555
Li10 O7 2.158767 1_555
Li10 O6 2.182754 1_555
Li10 O20 2.187728 1_555
Li10 O18 2.189785 1_455
Li11 O6 2.081186 1_556
Li11 O11 2.083649 1_555
Li11 O22 2.089808 1_455
Li11 O18 2.091871 1_456
Li11 O10 2.130237 1_555
Li11 O19 2.141722 1_456
Li12 O23 2.059842 1_455
Li12 O0 2.063936 1_465
Li12 O10 2.113338 1_555
Li12 O14 2.117800 1_555
Li12 O35 2.195587 1_555
Li12 O22 2.206900 1_455
Li13 O14 2.057273 1_555
Li13 O21 2.068183 1_455
Li13 O13 2.178246 1_555
Li13 O11 2.180691 1_555
Li13 O22 2.185938 1_455
Li13 O24 2.196354 1_455
Li14 O35 2.060240 1_645
Li14 O12 2.063123 1_655
Li14 O21 2.104803 1_555
Li14 O25 2.116915 1_555
Li14 O0 2.195642 1_555
Li14 O13 2.214767 1_655
Li15 O29 2.087255 1_555
Li15 O13 2.089639 1_655
Li15 O24 2.090879 1_555
Li15 O17 2.091725 1_655
Li15 O25 2.128498 1_555
Li15 O16 2.136288 1_655
Li16 O26 2.058689 1_555
Li16 O27 2.058746 1_555
Li16 O16 2.110153 1_655
Li16 O19 2.111617 1_555
Li16 O18 2.186738 1_555
Li16 O29 2.254040 1_555
Li17 O1 2.065654 1_555
Li17 O19 2.068817 1_555
Li17 O29 2.174180 1_555
Li17 O15 2.181734 1_555
Li17 O17 2.188684 1_655
Li17 O28 2.188850 1_555
Li18 O31 2.058005 1_555
Li18 O30 2.061245 1_555
Li18 O25 2.118059 1_555
Li18 O21 2.134805 1_555
Li18 O24 2.188383 1_555
Li18 O4 2.203791 1_555
Li19 O24 2.056905 1_555
Li19 O22 2.064333 1_555
Li19 O32 2.110211 1_555
Li19 O3 2.118082 1_565
Li19 O30 2.189452 1_555
Li19 O23 2.208018 1_555
Li20 O28 2.061710 1_555
Li20 O29 2.073285 1_555
Li20 O34 2.112746 1_555
Li20 O33 2.119557 1_555
Li20 O7 2.183876 1_555
Li20 O26 2.203728 1_555
Li21 O30 2.081186 1_554
Li21 O26 2.083649 1_555
Li21 O8 2.089808 1_565
Li21 O12 2.091871 1_564
Li21 O34 2.130237 1_555
Li21 O3 2.141722 1_564
Li22 O10 2.065048 1_555
Li22 O32 2.067874 1_555
Li22 O31 2.158767 1_555
Li22 O30 2.182754 1_555
Li22 O35 2.187728 1_555
Li22 O12 2.189785 1_565
Li23 O17 2.059842 1_565
Li23 O15 2.063936 1_465
Li23 O34 2.113338 1_555
Li23 O33 2.117800 1_555
Li23 O20 2.195587 1_555
Li23 O8 2.206900 1_565
Mn0 O7 1.928632 1_555
Mn0 O31 1.928632 1_555
Mn0 O25 1.944519 1_555
Mn0 O1 1.944519 1_555
Mn0 O5 1.957751 1_555
Mn0 O29 1.957751 1_555
Cr0 O35 1.878901 1_645
Cr0 O20 1.878901 1_645
Cr0 O1 1.982823 1_555
Cr0 O25 1.982823 1_555
Cr0 O23 2.003983 1_545
Cr0 O17 2.003983 1_655
Cr1 O4 1.884058 1_554
Cr1 O28 1.884058 1_555
Cr1 O34 1.972660 1_555
Cr1 O10 1.972660 1_554
Cr1 O6 2.003103 1_555
Cr1 O30 2.003103 1_554
Cr2 O6 1.885755 1_556
Cr2 O11 1.888970 1_555
Cr2 O2 1.969258 1_556
Cr2 O3 1.969832 1_555
Cr2 O4 2.001921 1_555
Cr2 O8 2.003110 1_556
Cr3 O9 1.891579 1_555
Cr3 O5 1.906508 1_555
Cr3 O14 1.955805 1_555
Cr3 O16 1.972322 1_555
Cr3 O7 1.980340 1_555
Cr3 O13 2.017154 1_555
Cr4 O13 1.881164 1_555
Cr4 O17 1.886121 1_555
Cr4 O32 1.968917 1_545
Cr4 O33 1.980608 1_545
Cr4 O9 1.999642 1_555
Cr4 O35 2.008098 1_545
Cr5 O15 1.886428 1_465
Cr5 O0 1.886428 1_464
Cr5 O10 1.969763 1_554
Cr5 O34 1.969763 1_555
Cr5 O18 2.004688 1_455
Cr5 O12 2.004688 1_564
Cr6 O8 1.884516 1_556
Cr6 O12 1.885459 1_555
Cr6 O21 1.972409 1_455
Cr6 O19 1.973235 1_456
Cr6 O15 2.003682 1_456
Cr6 O11 2.007622 1_555
Cr7 O27 1.881164 1_555
Cr7 O23 1.886121 1_555
Cr7 O16 1.968917 1_655
Cr7 O14 1.980608 1_655
Cr7 O24 1.999642 1_555
Cr7 O20 2.008098 1_655
Cr8 O22 1.884516 1_554
Cr8 O18 1.885459 1_555
Cr8 O2 1.972409 1_565
Cr8 O3 1.973235 1_564
Cr8 O0 2.003682 1_564
Cr8 O26 2.007622 1_555
Cr9 O30 1.885755 1_554
Cr9 O26 1.888970 1_555
Cr9 O21 1.969258 1_554
Cr9 O19 1.969832 1_555
Cr9 O28 2.001921 1_555
Cr9 O22 2.003110 1_554
Cr10 O24 1.891579 1_555
Cr10 O29 1.906508 1_555
Cr10 O33 1.955805 1_555
Cr10 O32 1.972322 1_555
Cr10 O31 1.980340 1_555
Cr10 O27 2.017154 1_555
