# generated using pymatgen
data_AgC2N3
_symmetry_space_group_name_H-M   'P 1'
_cell_length_a   4.91795000
_cell_length_b   4.91794858
_cell_length_c   11.05716600
_cell_angle_alpha   90.00000000
_cell_angle_beta   90.00000000
_cell_angle_gamma   120.00000952
_symmetry_Int_Tables_number   1
_chemical_formula_structural   AgC2N3
_chemical_formula_sum   'Ag3 C6 N9'
_cell_volume   231.60211055
_cell_formula_units_Z   3
loop_
 _symmetry_equiv_pos_site_id
 _symmetry_equiv_pos_as_xyz
  1  'x, y, z'
loop_
 _atom_site_type_symbol
 _atom_site_label
 _atom_site_symmetry_multiplicity
 _atom_site_fract_x
 _atom_site_fract_y
 _atom_site_fract_z
 _atom_site_occupancy
  Ag  Ag0  1  0.00000000  0.44506300  0.66666700  1
  Ag  Ag1  1  0.44506300  0.00000000  0.33333300  1
  Ag  Ag2  1  0.55493700  0.55493700  0.00000000  1
  C  C0  1  0.02752700  0.11247600  0.29502300  1
  C  C1  1  0.97247300  0.08494900  0.03831100  1
  C  C2  1  0.88752400  0.91505100  0.62835600  1
  C  C3  1  0.11247600  0.02752700  0.70497700  1
  C  C4  1  0.91505100  0.88752400  0.37164400  1
  C  C5  1  0.08494900  0.97247300  0.96168900  1
  N  N0  1  0.72274000  0.58981100  0.40814500  1
  N  N1  1  0.47122700  0.00000000  0.83333300  1
  N  N2  1  0.58981100  0.72274000  0.59185500  1
  N  N3  1  0.00000000  0.47122700  0.16666700  1
  N  N4  1  0.52877300  0.52877300  0.50000000  1
  N  N5  1  0.13292900  0.41018900  0.25852200  1
  N  N6  1  0.86707100  0.27726000  0.07481200  1
  N  N7  1  0.41018900  0.13292900  0.74147800  1
  N  N8  1  0.27726000  0.86707100  0.92518800  1
loop_
_geom_bond_atom_site_label_1
_geom_bond_atom_site_label_2
_geom_bond_distance
_geom_bond_site_symmetry_2
Ag0 C3 2.416154 1_555
Ag0 C2 2.416156 1_445
Ag0 N7 2.646093 1_455
Ag0 N2 2.646097 1_555
Ag0 C3 2.665786 1_565
Ag0 C2 2.665788 1_455
Ag1 C0 2.416155 1_555
Ag1 C4 2.416157 1_445
Ag1 N5 2.646093 1_545
Ag1 N0 2.646096 1_555
Ag1 C0 2.665787 1_655
Ag1 C4 2.665789 1_545
Ag2 C1 2.416156 1_565
Ag2 C5 2.416156 1_654
Ag2 N8 2.646097 1_554
Ag2 N6 2.646097 1_555
Ag2 C5 2.665788 1_544
Ag2 C1 2.665788 1_455
C0 N5 1.347715 1_555
C1 N6 1.347715 1_555
C2 N2 1.347715 1_555
C3 N7 1.347715 1_555
C4 N0 1.347715 1_555
C5 N8 1.347715 1_555
N0 N4 1.321090 1_555
N1 N7 1.321090 1_555
N1 N8 1.321090 1_545
N2 N4 1.321090 1_555
N3 N6 1.321090 1_455
N3 N5 1.321090 1_555
