# generated using pymatgen
data_K3TaF6
_symmetry_space_group_name_H-M   'P 1'
_cell_length_a   6.52194497
_cell_length_b   6.52194511
_cell_length_c   6.52194510
_cell_angle_alpha   59.99999943
_cell_angle_beta   59.99999921
_cell_angle_gamma   59.99999923
_symmetry_Int_Tables_number   1
_chemical_formula_structural   K3TaF6
_chemical_formula_sum   'K3 Ta1 F6'
_cell_volume   196.16268755
_cell_formula_units_Z   1
loop_
 _symmetry_equiv_pos_site_id
 _symmetry_equiv_pos_as_xyz
  1  'x, y, z'
loop_
 _atom_site_type_symbol
 _atom_site_label
 _atom_site_symmetry_multiplicity
 _atom_site_fract_x
 _atom_site_fract_y
 _atom_site_fract_z
 _atom_site_occupancy
  K  K0  1  0.25000000  0.25000000  0.25000000  1
  K  K1  1  0.75000000  0.75000000  0.75000000  1
  K  K2  1  0.50000000  0.50000000  0.50000000  1
  Ta  Ta0  1  0.00000000  0.00000000  0.00000000  1
  F  F0  1  0.22543957  0.77456043  0.22543957  1
  F  F1  1  0.77456043  0.77456043  0.22543957  1
  F  F2  1  0.77456043  0.22543957  0.77456043  1
  F  F3  1  0.77456043  0.22543957  0.22543957  1
  F  F4  1  0.22543957  0.77456043  0.77456043  1
  F  F5  1  0.22543957  0.22543957  0.77456043  1
loop_
_geom_bond_atom_site_label_1
_geom_bond_atom_site_label_2
_geom_bond_distance
_geom_bond_site_symmetry_2
F0 Ta0 2.079325 1_565
F0 K2 2.532387 1_555
F0 K1 3.268831 1_554
F0 K1 3.268831 1_455
F0 K0 3.268831 1_555
F0 K0 3.268831 1_565
F1 Ta0 2.079325 1_665
F1 K2 2.532387 1_555
F1 K0 3.268831 1_565
F1 K0 3.268831 1_655
F1 K1 3.268831 1_555
F1 K1 3.268831 1_554
F2 Ta0 2.079325 1_656
F2 K2 2.532387 1_555
F2 K0 3.268831 1_556
F2 K0 3.268831 1_655
F2 K1 3.268831 1_555
F2 K1 3.268831 1_545
F3 Ta0 2.079325 1_655
F3 K2 2.532387 1_555
F3 K0 3.268831 1_555
F3 K0 3.268831 1_655
F3 K1 3.268831 1_545
F3 K1 3.268831 1_554
F4 Ta0 2.079325 1_566
F4 K2 2.532387 1_555
F4 K1 3.268831 1_555
F4 K1 3.268831 1_455
F4 K0 3.268831 1_565
F4 K0 3.268831 1_556
F5 Ta0 2.079325 1_556
F5 K2 2.532387 1_555
F5 K1 3.268831 1_545
F5 K1 3.268831 1_455
F5 K0 3.268831 1_555
F5 K0 3.268831 1_556
