# generated using pymatgen
data_ZnCu2(PO4)2
_symmetry_space_group_name_H-M   'P 1'
_cell_length_a   9.15617950
_cell_length_b   9.15617950
_cell_length_c   15.83417237
_cell_angle_alpha   60.52442037
_cell_angle_beta   60.52442037
_cell_angle_gamma   32.20457554
_symmetry_Int_Tables_number   1
_chemical_formula_structural   ZnCu2(PO4)2
_chemical_formula_sum   'Zn4 Cu8 P8 O32'
_cell_volume   607.64163295
_cell_formula_units_Z   4
loop_
 _symmetry_equiv_pos_site_id
 _symmetry_equiv_pos_as_xyz
  1  'x, y, z'
loop_
 _atom_site_type_symbol
 _atom_site_label
 _atom_site_symmetry_multiplicity
 _atom_site_fract_x
 _atom_site_fract_y
 _atom_site_fract_z
 _atom_site_occupancy
  Zn  Zn0  1  0.16424700  0.56586100  0.12376700  1
  Zn  Zn1  1  0.43413900  0.83575300  0.37623300  1
  Zn  Zn2  1  0.56586100  0.16424700  0.62376700  1
  Zn  Zn3  1  0.83575300  0.43413900  0.87623300  1
  Cu  Cu0  1  0.36471700  0.83718400  0.03171000  1
  Cu  Cu1  1  0.16281600  0.63528300  0.46829000  1
  Cu  Cu2  1  0.63528300  0.16281600  0.96829000  1
  Cu  Cu3  1  0.00000000  0.50000000  0.00000000  1
  Cu  Cu4  1  0.83718400  0.36471700  0.53171000  1
  Cu  Cu5  1  0.64634000  0.35366000  0.75000000  1
  Cu  Cu6  1  0.35366000  0.64634000  0.25000000  1
  Cu  Cu7  1  0.50000000  0.00000000  0.50000000  1
  P  P0  1  0.49288400  0.92568100  0.14053600  1
  P  P1  1  0.81032300  0.22398900  0.39321100  1
  P  P2  1  0.50711600  0.07431900  0.85946400  1
  P  P3  1  0.22398900  0.81032300  0.89321100  1
  P  P4  1  0.92568100  0.49288400  0.64053600  1
  P  P5  1  0.07431900  0.50711600  0.35946400  1
  P  P6  1  0.18967700  0.77601100  0.60678900  1
  P  P7  1  0.77601100  0.18967700  0.10678900  1
  O  O0  1  0.18770200  0.31803100  0.89334300  1
  O  O1  1  0.61121400  0.21121200  0.08188800  1
  O  O2  1  0.31803100  0.18770200  0.39334300  1
  O  O3  1  0.65224800  0.18985800  0.47644700  1
  O  O4  1  0.63962200  0.81176300  0.94213700  1
  O  O5  1  0.69562200  0.39042900  0.29818700  1
  O  O6  1  0.81014200  0.34775200  0.02355300  1
  O  O7  1  0.91832500  0.12500400  0.88370500  1
  O  O8  1  0.34775200  0.81014200  0.52355300  1
  O  O9  1  0.78878800  0.38878600  0.41811200  1
  O  O10  1  0.63313600  0.13159600  0.85482100  1
  O  O11  1  0.98551400  0.41853800  0.73761300  1
  O  O12  1  0.38878600  0.78878800  0.91811200  1
  O  O13  1  0.12500400  0.91832500  0.38370500  1
  O  O14  1  0.81229800  0.68196900  0.10665700  1
  O  O15  1  0.36686400  0.86840400  0.14517900  1
  O  O16  1  0.41853800  0.98551400  0.23761300  1
  O  O17  1  0.18985800  0.65224800  0.97644700  1
  O  O18  1  0.13159600  0.63313600  0.35482100  1
  O  O19  1  0.01448600  0.58146200  0.26238700  1
  O  O20  1  0.87499600  0.08167500  0.61629500  1
  O  O21  1  0.81176300  0.63962200  0.44213700  1
  O  O22  1  0.08167500  0.87499600  0.11629500  1
  O  O23  1  0.39042900  0.69562200  0.79818700  1
  O  O24  1  0.21121200  0.61121400  0.58188800  1
  O  O25  1  0.68196900  0.81229800  0.60665700  1
  O  O26  1  0.58146200  0.01448600  0.76238700  1
  O  O27  1  0.18823700  0.36037800  0.55786300  1
  O  O28  1  0.36037800  0.18823700  0.05786300  1
  O  O29  1  0.60957100  0.30437800  0.20181300  1
  O  O30  1  0.30437800  0.60957100  0.70181300  1
  O  O31  1  0.86840400  0.36686400  0.64517900  1
loop_
_geom_bond_atom_site_label_1
_geom_bond_atom_site_label_2
_geom_bond_distance
_geom_bond_site_symmetry_2
Cu0 O12 1.925975 1_554
Cu0 O15 1.964659 1_555
Cu0 O22 2.037666 1_555
Cu0 O4 2.054658 1_554
Cu0 O6 2.419493 1_555
Cu1 O24 1.925975 1_555
Cu1 O18 1.964659 1_555
Cu1 O13 2.037666 1_555
Cu1 O27 2.054658 1_555
Cu1 O3 2.419493 1_555
Cu2 O1 1.925975 1_556
Cu2 O10 1.964659 1_555
Cu2 O7 2.037666 1_555
Cu2 O28 2.054658 1_556
Cu2 O17 2.419493 1_555
Cu3 O14 1.910166 1_455
Cu3 O0 1.910166 1_554
Cu3 O28 2.082593 1_555
Cu3 O4 2.082593 1_454
Cu4 O9 1.925975 1_555
Cu4 O31 1.964659 1_555
Cu4 O20 2.037666 1_555
Cu4 O21 2.054658 1_555
Cu4 O8 2.419493 1_555
Cu5 O31 1.949614 1_555
Cu5 O10 1.949614 1_555
Cu5 O23 2.012966 1_555
Cu5 O30 2.012966 1_555
Cu6 O15 1.949614 1_555
Cu6 O18 1.949614 1_555
Cu6 O5 2.012966 1_555
Cu6 O29 2.012966 1_555
Cu7 O25 1.910166 1_545
Cu7 O2 1.910166 1_555
Cu7 O27 2.082593 1_555
Cu7 O21 2.082593 1_545
O0 P2 1.552545 1_555
O0 Zn3 2.523150 1_455
O1 P7 1.573731 1_555
O1 Zn0 2.166038 1_555
O2 P5 1.552545 1_555
O2 Zn1 2.523150 1_545
O3 P1 1.553200 1_555
O3 Zn2 2.020366 1_555
O4 P2 1.579557 1_565
O5 P1 1.509746 1_555
O6 P7 1.553200 1_555
O6 Zn3 2.020366 1_554
O7 P3 1.580660 1_645
O7 Zn3 2.175841 1_555
O8 P6 1.553200 1_555
O8 Zn1 2.020366 1_555
O9 P1 1.573731 1_555
O9 Zn1 2.166038 1_555
O10 P2 1.585710 1_555
O11 P4 1.514654 1_555
O11 Zn3 1.932244 1_555
O12 P3 1.573731 1_555
O12 Zn3 2.166038 1_555
O13 P1 1.580660 1_465
O13 Zn1 2.175841 1_555
O14 P0 1.552545 1_555
O14 Zn0 2.523150 1_655
O15 P0 1.585710 1_555
O16 P0 1.514654 1_555
O16 Zn1 1.932244 1_555
O17 P3 1.553200 1_555
O17 Zn0 2.020366 1_556
O18 P5 1.585710 1_555
O19 P5 1.514654 1_555
O19 Zn0 1.932244 1_555
O20 P6 1.580660 1_645
O20 Zn2 2.175841 1_555
O21 P5 1.579557 1_655
O22 P7 1.580660 1_465
O22 Zn0 2.175841 1_555
O23 P3 1.509746 1_555
O24 P6 1.573731 1_555
O24 Zn2 2.166038 1_555
O25 P4 1.552545 1_555
O25 Zn2 2.523150 1_565
O26 P2 1.514654 1_555
O26 Zn2 1.932244 1_555
O27 P4 1.579557 1_455
O28 P0 1.579557 1_545
O29 P7 1.509746 1_555
O30 P6 1.509746 1_555
O31 P4 1.585710 1_555
