# generated using pymatgen
data_NdCu4Ag
_symmetry_space_group_name_H-M   'P 1'
_cell_length_a   5.07698616
_cell_length_b   5.07698616
_cell_length_c   5.07698616
_cell_angle_alpha   60.00000000
_cell_angle_beta   60.00000000
_cell_angle_gamma   60.00000000
_symmetry_Int_Tables_number   1
_chemical_formula_structural   NdCu4Ag
_chemical_formula_sum   'Nd1 Cu4 Ag1'
_cell_volume   92.53434178
_cell_formula_units_Z   1
loop_
 _symmetry_equiv_pos_site_id
 _symmetry_equiv_pos_as_xyz
  1  'x, y, z'
loop_
 _atom_site_type_symbol
 _atom_site_label
 _atom_site_symmetry_multiplicity
 _atom_site_fract_x
 _atom_site_fract_y
 _atom_site_fract_z
 _atom_site_occupancy
  Nd  Nd0  1  0.00000000  0.00000000  0.00000000  1
  Cu  Cu0  1  0.62337072  0.62337072  0.12988785  1
  Cu  Cu1  1  0.62337072  0.12988785  0.62337072  1
  Cu  Cu2  1  0.12988785  0.62337072  0.62337072  1
  Cu  Cu3  1  0.62337072  0.62337072  0.62337072  1
  Ag  Ag0  1  0.25000000  0.25000000  0.25000000  1
loop_
_geom_bond_atom_site_label_1
_geom_bond_atom_site_label_2
_geom_bond_distance
_geom_bond_site_symmetry_2
Cu0 Cu1 2.505406 1_555
Cu0 Cu2 2.505406 1_555
Cu0 Cu3 2.505406 1_555
Cu0 Cu2 2.571580 1_654
Cu0 Cu3 2.571580 1_554
Cu0 Cu1 2.571580 1_564
Cu0 Nd0 2.980241 1_665
Cu0 Nd0 2.980241 1_655
Cu0 Nd0 2.980241 1_565
Cu1 Cu2 2.505406 1_555
Cu1 Cu3 2.505406 1_555
Cu1 Cu3 2.571580 1_545
Cu1 Cu2 2.571580 1_645
Cu1 Nd0 2.980241 1_656
Cu1 Nd0 2.980241 1_655
Cu1 Nd0 2.980241 1_556
Cu2 Cu3 2.505406 1_555
Cu2 Cu3 2.571580 1_455
Cu2 Nd0 2.980241 1_566
Cu2 Nd0 2.980241 1_565
Cu2 Nd0 2.980241 1_556
Cu3 Nd0 2.980241 1_665
Cu3 Nd0 2.980241 1_656
Cu3 Nd0 2.980241 1_566
Ag0 Cu1 2.973187 1_455
Ag0 Cu0 2.973187 1_455
Ag0 Cu2 2.973187 1_545
Ag0 Cu1 2.973187 1_554
Ag0 Cu0 2.973187 1_545
Ag0 Cu2 2.973187 1_554
Ag0 Cu3 2.973187 1_455
Ag0 Cu3 2.973187 1_554
Ag0 Cu3 2.973187 1_545
Ag0 Cu1 2.973187 1_555
Ag0 Cu2 2.973187 1_555
Ag0 Cu0 2.973187 1_555
Ag0 Nd0 3.109006 1_655
Ag0 Nd0 3.109006 1_565
Ag0 Nd0 3.109006 1_555
Ag0 Nd0 3.109006 1_556
