# generated using pymatgen
data_RbSrCl3
_symmetry_space_group_name_H-M   'P 1'
_cell_length_a   7.84950998
_cell_length_b   7.91933592
_cell_length_c   11.22331600
_cell_angle_alpha   90.00000000
_cell_angle_beta   90.00000000
_cell_angle_gamma   89.54065090
_symmetry_Int_Tables_number   1
_chemical_formula_structural   RbSrCl3
_chemical_formula_sum   'Rb4 Sr4 Cl12'
_cell_volume   697.65152057
_cell_formula_units_Z   4
loop_
 _symmetry_equiv_pos_site_id
 _symmetry_equiv_pos_as_xyz
  1  'x, y, z'
loop_
 _atom_site_type_symbol
 _atom_site_label
 _atom_site_symmetry_multiplicity
 _atom_site_fract_x
 _atom_site_fract_y
 _atom_site_fract_z
 _atom_site_occupancy
  Rb  Rb0  1  0.02579900  0.51025500  0.75000000  1
  Rb  Rb1  1  0.97420100  0.48974500  0.25000000  1
  Rb  Rb2  1  0.52490400  0.99284600  0.75000000  1
  Rb  Rb3  1  0.47509600  0.00715400  0.25000000  1
  Sr  Sr0  1  0.50000000  0.50000000  0.00000000  1
  Sr  Sr1  1  0.50000000  0.50000000  0.50000000  1
  Sr  Sr2  1  0.00000000  0.00000000  0.00000000  1
  Sr  Sr3  1  0.00000000  0.00000000  0.50000000  1
  Cl  Cl0  1  0.80342600  0.30238800  0.95044700  1
  Cl  Cl1  1  0.19657400  0.69761200  0.04955300  1
  Cl  Cl2  1  0.19657400  0.69761200  0.45044700  1
  Cl  Cl3  1  0.80342600  0.30238800  0.54955300  1
  Cl  Cl4  1  0.69032500  0.80829300  0.47520800  1
  Cl  Cl5  1  0.30967500  0.19170700  0.52479200  1
  Cl  Cl6  1  0.30967500  0.19170700  0.97520800  1
  Cl  Cl7  1  0.69032500  0.80829300  0.02479200  1
  Cl  Cl8  1  0.45434500  0.57075600  0.75000000  1
  Cl  Cl9  1  0.54565500  0.42924400  0.25000000  1
  Cl  Cl10  1  0.00194400  0.92228300  0.75000000  1
  Cl  Cl11  1  0.99805600  0.07771700  0.25000000  1
loop_
_geom_bond_atom_site_label_1
_geom_bond_atom_site_label_2
_geom_bond_distance
_geom_bond_site_symmetry_2
Cl0 Sr2 2.892331 1_656
Cl0 Sr0 2.893326 1_556
Cl0 Rb0 3.296034 1_655
Cl1 Sr2 2.892331 1_565
Cl1 Sr0 2.893326 1_555
Cl1 Rb1 3.296034 1_455
Cl2 Sr3 2.892331 1_565
Cl2 Sr1 2.893326 1_555
Cl2 Rb1 3.296034 1_455
Cl3 Sr3 2.892331 1_655
Cl3 Sr1 2.893326 1_555
Cl3 Rb0 3.296034 1_655
Cl4 Sr1 2.885935 1_555
Cl4 Sr3 2.889684 1_665
Cl4 Rb3 3.417654 1_565
Cl4 Rb2 3.647359 1_555
Cl5 Sr1 2.885935 1_555
Cl5 Sr3 2.889684 1_555
Cl5 Rb2 3.417654 1_545
Cl5 Rb3 3.647359 1_555
Cl6 Sr0 2.885935 1_556
Cl6 Sr2 2.889684 1_556
Cl6 Rb2 3.417654 1_545
Cl6 Rb3 3.647359 1_556
Cl7 Sr0 2.885935 1_555
Cl7 Sr2 2.889684 1_665
Cl7 Rb3 3.417654 1_565
Cl7 Rb2 3.647359 1_554
Cl8 Sr0 2.883031 1_556
Cl8 Sr1 2.883031 1_555
Cl8 Rb2 3.392624 1_555
Cl8 Rb0 3.401627 1_555
Cl9 Sr0 2.883031 1_555
Cl9 Sr1 2.883031 1_555
Cl9 Rb3 3.392624 1_555
Cl9 Rb1 3.401627 1_555
Cl10 Sr3 2.872553 1_565
Cl10 Sr2 2.872553 1_566
Cl10 Rb0 3.266857 1_555
Cl10 Rb2 3.781564 1_455
Cl11 Sr2 2.872553 1_655
Cl11 Sr3 2.872553 1_655
Cl11 Rb1 3.266857 1_555
Cl11 Rb3 3.781564 1_655
