# generated using pymatgen
data_NaFeCuSe2
_symmetry_space_group_name_H-M   'P 1'
_cell_length_a   4.02745445
_cell_length_b   4.02745445
_cell_length_c   7.18533600
_cell_angle_alpha   90.00000000
_cell_angle_beta   90.00000000
_cell_angle_gamma   120.00000745
_symmetry_Int_Tables_number   1
_chemical_formula_structural   NaFeCuSe2
_chemical_formula_sum   'Na1 Fe1 Cu1 Se2'
_cell_volume   100.93434192
_cell_formula_units_Z   1
loop_
 _symmetry_equiv_pos_site_id
 _symmetry_equiv_pos_as_xyz
  1  'x, y, z'
loop_
 _atom_site_type_symbol
 _atom_site_label
 _atom_site_symmetry_multiplicity
 _atom_site_fract_x
 _atom_site_fract_y
 _atom_site_fract_z
 _atom_site_occupancy
  Na  Na0  1  0.00000000  0.00000000  0.00797500  1
  Fe  Fe0  1  0.33333300  0.66666700  0.60764200  1
  Cu  Cu0  1  0.66666700  0.33333300  0.38385700  1
  Se  Se0  1  0.66666700  0.33333300  0.73459600  1
  Se  Se1  1  0.33333300  0.66666700  0.26593000  1
loop_
_geom_bond_atom_site_label_1
_geom_bond_atom_site_label_2
_geom_bond_distance
_geom_bond_site_symmetry_2
Na0 Se1 2.973588 1_545
Na0 Se1 2.973590 1_555
Na0 Se1 2.973590 1_445
Na0 Se0 3.043902 1_454
Na0 Se0 3.043904 1_554
Na0 Se0 3.043904 1_444
Fe0 Se1 2.455316 1_555
Fe0 Se0 2.497780 1_455
Fe0 Se0 2.497780 1_565
Fe0 Se0 2.497787 1_555
Cu0 Se1 2.474829 1_545
Cu0 Se1 2.474829 1_655
Cu0 Se1 2.474836 1_555
Cu0 Se0 2.520178 1_555
