# generated using pymatgen
data_SiNiSb
_symmetry_space_group_name_H-M   'P 1'
_cell_length_a   4.05342800
_cell_length_b   4.05342800
_cell_length_c   6.81797600
_cell_angle_alpha   90.00000000
_cell_angle_beta   90.00000000
_cell_angle_gamma   90.00000000
_symmetry_Int_Tables_number   1
_chemical_formula_structural   SiNiSb
_chemical_formula_sum   'Si2 Ni2 Sb2'
_cell_volume   112.02124484
_cell_formula_units_Z   2
loop_
 _symmetry_equiv_pos_site_id
 _symmetry_equiv_pos_as_xyz
  1  'x, y, z'
loop_
 _atom_site_type_symbol
 _atom_site_label
 _atom_site_symmetry_multiplicity
 _atom_site_fract_x
 _atom_site_fract_y
 _atom_site_fract_z
 _atom_site_occupancy
  Si  Si0  1  0.00000000  0.50000000  0.80589400  1
  Si  Si1  1  0.50000000  0.00000000  0.19410600  1
  Ni  Ni0  1  0.00000000  0.00000000  0.00000000  1
  Ni  Ni1  1  0.50000000  0.50000000  0.00000000  1
  Sb  Sb0  1  0.00000000  0.50000000  0.27474200  1
  Sb  Sb1  1  0.50000000  0.00000000  0.72525800  1
loop_
_geom_bond_atom_site_label_1
_geom_bond_atom_site_label_2
_geom_bond_distance
_geom_bond_site_symmetry_2
Ni0 Si1 2.420534 1_455
Ni0 Si1 2.420534 1_555
Ni0 Si0 2.420534 1_544
Ni0 Si0 2.420534 1_554
Ni0 Sb0 2.759781 1_555
Ni0 Sb0 2.759781 1_545
Ni0 Sb1 2.759781 1_454
Ni0 Sb1 2.759781 1_554
Ni1 Si1 2.420534 1_565
Ni1 Si0 2.420534 1_654
Ni1 Si1 2.420534 1_555
Ni1 Si0 2.420534 1_554
Ni1 Sb0 2.759781 1_555
Ni1 Sb0 2.759781 1_655
Ni1 Sb1 2.759781 1_564
Ni1 Sb1 2.759781 1_554
Sb0 Si1 2.918457 1_565
Sb0 Si1 2.918457 1_455
Sb0 Si1 2.918457 1_465
Sb0 Si1 2.918457 1_555
Sb1 Si0 2.918457 1_645
Sb1 Si0 2.918457 1_555
Sb1 Si0 2.918457 1_545
Sb1 Si0 2.918457 1_655
