# generated using pymatgen
data_Eu2ZnGe3
_symmetry_space_group_name_H-M   'P 1'
_cell_length_a   8.36687144
_cell_length_b   8.36793136
_cell_length_c   8.91182741
_cell_angle_alpha   89.99807955
_cell_angle_beta   90.00151976
_cell_angle_gamma   119.99578374
_symmetry_Int_Tables_number   1
_chemical_formula_structural   Eu2ZnGe3
_chemical_formula_sum   'Eu8 Zn4 Ge12'
_cell_volume   540.37724612
_cell_formula_units_Z   4
loop_
 _symmetry_equiv_pos_site_id
 _symmetry_equiv_pos_as_xyz
  1  'x, y, z'
loop_
 _atom_site_type_symbol
 _atom_site_label
 _atom_site_symmetry_multiplicity
 _atom_site_fract_x
 _atom_site_fract_y
 _atom_site_fract_z
 _atom_site_occupancy
  Eu  Eu0  1  0.49857563  0.99715789  0.74196715  1
  Eu  Eu1  1  0.50142010  0.00283156  0.25803291  1
  Eu  Eu2  1  0.00141131  0.00283012  0.24196734  1
  Eu  Eu3  1  0.99857168  0.99715787  0.75803357  1
  Eu  Eu4  1  0.00167170  0.50334274  0.75000407  1
  Eu  Eu5  1  0.49833932  0.49667110  0.25000232  1
  Eu  Eu6  1  0.99833397  0.49666467  0.24999735  1
  Eu  Eu7  1  0.50167188  0.50334329  0.74999667  1
  Zn  Zn0  1  0.16682910  0.33366941  0.52718524  1
  Zn  Zn1  1  0.83316962  0.66632513  0.47277801  1
  Zn  Zn2  1  0.33316626  0.66632229  0.02721963  1
  Zn  Zn3  1  0.66682566  0.33366937  0.97281256  1
  Ge  Ge0  1  0.33086401  0.66171408  0.47244443  1
  Ge  Ge1  1  0.66914063  0.33828415  0.52754360  1
  Ge  Ge2  1  0.16913794  0.33828410  0.97245806  1
  Ge  Ge3  1  0.83087236  0.66171413  0.02755604  1
  Ge  Ge4  1  0.15966461  0.83057177  0.52027425  1
  Ge  Ge5  1  0.32907605  0.16941431  0.47970213  1
  Ge  Ge6  1  0.82907519  0.16941355  0.02029309  1
  Ge  Ge7  1  0.65966452  0.83056772  0.97972607  1
  Ge  Ge8  1  0.84033750  0.16944084  0.47970957  1
  Ge  Ge9  1  0.67092145  0.83058314  0.52027549  1
  Ge  Ge10  1  0.17092499  0.83058725  0.97972480  1
  Ge  Ge11  1  0.34033452  0.16944151  0.02029564  1
loop_
_geom_bond_atom_site_label_1
_geom_bond_atom_site_label_2
_geom_bond_distance
_geom_bond_site_symmetry_2
Eu0 Ge1 3.124592 1_565
Eu0 Ge4 3.151965 1_555
Eu0 Ge9 3.152083 1_555
Eu0 Ge10 3.182323 1_555
Eu0 Ge7 3.182412 1_555
Eu0 Zn3 3.190615 1_565
Eu0 Ge5 3.405186 1_565
Eu0 Ge8 3.405251 1_565
Eu0 Ge0 3.417514 1_555
Eu0 Ge6 3.448352 1_566
Eu0 Ge11 3.448575 1_566
Eu0 Zn2 3.494374 1_556
Eu1 Ge0 3.124476 1_545
Eu1 Ge8 3.151909 1_555
Eu1 Ge5 3.151993 1_555
Eu1 Ge6 3.182242 1_555
Eu1 Ge11 3.182373 1_555
Eu1 Zn2 3.190419 1_545
Eu1 Ge9 3.405016 1_545
Eu1 Ge4 3.405117 1_545
Eu1 Ge1 3.417484 1_555
Eu1 Ge10 3.448214 1_544
Eu1 Ge7 3.448352 1_544
Eu1 Zn3 3.494177 1_554
Eu2 Ge3 3.124537 1_445
Eu2 Ge6 3.151873 1_455
Eu2 Ge11 3.151950 1_555
Eu2 Ge5 3.182229 1_555
Eu2 Ge8 3.182453 1_455
Eu2 Zn1 3.190306 1_445
Eu2 Ge7 3.405033 1_444
Eu2 Ge10 3.405169 1_544
Eu2 Ge2 3.417403 1_554
Eu2 Ge9 3.448225 1_445
Eu2 Ge4 3.448248 1_545
Eu2 Zn0 3.494250 1_555
Eu3 Ge2 3.124668 1_665
Eu3 Ge7 3.151976 1_555
Eu3 Ge10 3.151994 1_655
Eu3 Ge9 3.182289 1_555
Eu3 Ge4 3.182523 1_655
Eu3 Zn0 3.190559 1_665
Eu3 Ge11 3.405246 1_666
Eu3 Ge6 3.405250 1_566
Eu3 Ge3 3.417433 1_556
Eu3 Ge8 3.448388 1_565
Eu3 Ge5 3.448448 1_665
Eu3 Zn1 3.494461 1_555
Eu4 Ge2 3.120239 1_555
Eu4 Ge1 3.120347 1_455
Eu4 Ge4 3.133269 1_555
Eu4 Ge10 3.133375 1_555
Eu4 Zn3 3.135360 1_455
Eu4 Zn0 3.135369 1_555
Eu4 Ge8 3.414748 1_455
Eu4 Ge6 3.414775 1_456
Eu4 Ge3 3.436663 1_456
Eu4 Ge0 3.436784 1_555
Eu4 Zn1 3.445807 1_455
Eu4 Zn2 3.445832 1_556
Eu5 Ge0 3.120242 1_555
Eu5 Ge3 3.120313 1_555
Eu5 Ge11 3.133210 1_555
Eu5 Ge5 3.133250 1_555
Eu5 Zn2 3.135021 1_555
Eu5 Zn1 3.135052 1_555
Eu5 Ge7 3.414525 1_554
Eu5 Ge9 3.414665 1_555
Eu5 Ge1 3.436563 1_555
Eu5 Ge2 3.436689 1_554
Eu5 Zn3 3.445712 1_554
Eu5 Zn0 3.445742 1_555
Eu6 Ge3 3.120090 1_555
Eu6 Ge0 3.120266 1_655
Eu6 Ge8 3.133137 1_555
Eu6 Ge6 3.133315 1_555
Eu6 Zn2 3.135109 1_655
Eu6 Zn1 3.135120 1_555
Eu6 Ge10 3.414637 1_654
Eu6 Ge4 3.414664 1_655
Eu6 Ge2 3.436651 1_654
Eu6 Ge1 3.436702 1_555
Eu6 Zn0 3.445593 1_655
Eu6 Zn3 3.445704 1_554
Eu7 Ge1 3.120357 1_555
Eu7 Ge2 3.120403 1_555
Eu7 Ge9 3.133281 1_555
Eu7 Ge7 3.133315 1_555
Eu7 Zn3 3.135229 1_555
Eu7 Zn0 3.135325 1_555
Eu7 Ge11 3.414693 1_556
Eu7 Ge5 3.414887 1_555
Eu7 Ge0 3.436587 1_555
Eu7 Ge3 3.436783 1_556
Eu7 Zn2 3.445908 1_556
Eu7 Zn1 3.445908 1_555
Ge0 Zn0 2.426914 1_555
Ge0 Ge9 2.500744 1_555
Ge0 Ge4 2.500759 1_555
Ge1 Zn1 2.426932 1_555
Ge1 Ge8 2.500645 1_555
Ge1 Ge5 2.500811 1_555
Ge2 Zn2 2.426927 1_556
Ge2 Ge6 2.500798 1_456
Ge3 Zn3 2.426942 1_554
Ge3 Ge7 2.500761 1_554
Ge4 Zn1 2.403436 1_455
Ge4 Ge5 2.482110 1_565
Ge5 Zn0 2.403484 1_555
Ge6 Zn3 2.403474 1_554
Ge6 Ge7 2.482144 1_544
Ge7 Zn2 2.403464 1_556
Ge8 Zn0 2.403379 1_655
Ge8 Ge9 2.482211 1_545
Ge9 Zn1 2.403536 1_555
Ge10 Zn2 2.403503 1_556
Ge10 Ge11 2.482210 1_566
Ge10 Ge3 2.500720 1_456
Ge11 Zn3 2.403396 1_554
Ge11 Ge2 2.500614 1_554
