# generated using pymatgen
data_NaReO2
_symmetry_space_group_name_H-M   'P 1'
_cell_length_a   7.04764609
_cell_length_b   7.04764609
_cell_length_c   7.04764609
_cell_angle_alpha   130.16458321
_cell_angle_beta   130.16458321
_cell_angle_gamma   73.14378831
_symmetry_Int_Tables_number   1
_chemical_formula_structural   NaReO2
_chemical_formula_sum   'Na4 Re4 O8'
_cell_volume   199.61050120
_cell_formula_units_Z   4
loop_
 _symmetry_equiv_pos_site_id
 _symmetry_equiv_pos_as_xyz
  1  'x, y, z'
loop_
 _atom_site_type_symbol
 _atom_site_label
 _atom_site_symmetry_multiplicity
 _atom_site_fract_x
 _atom_site_fract_y
 _atom_site_fract_z
 _atom_site_occupancy
  Na  Na0  1  0.87500000  0.62500000  0.25000000  1
  Na  Na1  1  0.37500000  0.62500000  0.75000000  1
  Na  Na2  1  0.37500000  0.62500000  0.25000000  1
  Na  Na3  1  0.37500000  0.12500000  0.75000000  1
  Re  Re0  1  0.37500000  0.12500000  0.25000000  1
  Re  Re1  1  0.87500000  0.12500000  0.75000000  1
  Re  Re2  1  0.87500000  0.12500000  0.25000000  1
  Re  Re3  1  0.87500000  0.62500000  0.75000000  1
  O  O0  1  0.17160400  0.37913200  0.20752800  1
  O  O1  1  0.17160400  0.96407500  0.79247200  1
  O  O2  1  0.12913200  0.42160400  0.70752800  1
  O  O3  1  0.57839600  0.87086800  0.29247200  1
  O  O4  1  0.71407500  0.42160400  0.29247200  1
  O  O5  1  0.57839600  0.28592500  0.70752800  1
  O  O6  1  0.62086800  0.82839600  0.79247200  1
  O  O7  1  0.03592500  0.82839600  0.20752800  1
loop_
_geom_bond_atom_site_label_1
_geom_bond_atom_site_label_2
_geom_bond_distance
_geom_bond_site_symmetry_2
Na0 O4 2.316236 1_555
Na0 O7 2.316236 1_655
Na0 O1 2.345034 1_655
Na0 O5 2.345034 1_554
Na0 O3 2.345036 1_555
Na0 O0 2.345036 1_655
Na1 O6 2.316230 1_555
Na1 O2 2.316230 1_555
Na1 O1 2.345030 1_555
Na1 O5 2.345030 1_555
Na1 O3 2.345036 1_556
Na1 O0 2.345036 1_555
Na2 O0 2.316230 1_555
Na2 O3 2.316230 1_555
Na2 O7 2.345030 1_555
Na2 O4 2.345030 1_555
Na2 O2 2.345036 1_554
Na2 O6 2.345036 1_555
Na3 O1 2.316236 1_545
Na3 O5 2.316236 1_555
Na3 O4 2.345034 1_556
Na3 O7 2.345034 1_545
Na3 O6 2.345036 1_545
Na3 O2 2.345036 1_555
O0 Re1 2.000337 1_454
O0 Re0 2.000337 1_555
O1 Re0 2.000335 1_566
O1 Re1 2.000339 1_465
O2 Re3 2.000337 1_455
O2 Re2 2.000337 1_455
O3 Re1 2.000337 1_565
O3 Re0 2.000337 1_565
O4 Re3 2.000335 1_555
O4 Re2 2.000339 1_555
O5 Re0 2.000335 1_555
O5 Re1 2.000339 1_555
O6 Re3 2.000337 1_555
O6 Re2 2.000337 1_566
O7 Re3 2.000335 1_454
O7 Re2 2.000339 1_465
