# generated using pymatgen
data_MgOs
_symmetry_space_group_name_H-M   'P 1'
_cell_length_a   5.63467000
_cell_length_b   9.02917400
_cell_length_c   10.06211600
_cell_angle_alpha   90.00000000
_cell_angle_beta   90.00000000
_cell_angle_gamma   90.00000000
_symmetry_Int_Tables_number   1
_chemical_formula_structural   MgOs
_chemical_formula_sum   'Mg16 Os16'
_cell_volume   511.92439807
_cell_formula_units_Z   16
loop_
 _symmetry_equiv_pos_site_id
 _symmetry_equiv_pos_as_xyz
  1  'x, y, z'
loop_
 _atom_site_type_symbol
 _atom_site_label
 _atom_site_symmetry_multiplicity
 _atom_site_fract_x
 _atom_site_fract_y
 _atom_site_fract_z
 _atom_site_occupancy
  Mg  Mg0_0  1  0.00000000  0.12500000  0.32440100  1
  Mg  Mg0_1  1  0.00000000  0.12500000  0.82440100  1
  Mg  Mg0_2  1  0.00000000  0.62500000  0.32440100  1
  Mg  Mg0_3  1  0.00000000  0.62500000  0.82440100  1
  Mg  Mg0_4  1  0.50000000  0.12500000  0.32440100  1
  Mg  Mg0_5  1  0.50000000  0.12500000  0.82440100  1
  Mg  Mg0_6  1  0.50000000  0.62500000  0.32440100  1
  Mg  Mg0_7  1  0.50000000  0.62500000  0.82440100  1
  Mg  Mg1_0  1  0.00000000  0.37500000  0.17559900  1
  Mg  Mg1_1  1  0.00000000  0.37500000  0.67559900  1
  Mg  Mg1_2  1  0.00000000  0.87500000  0.17559900  1
  Mg  Mg1_3  1  0.00000000  0.87500000  0.67559900  1
  Mg  Mg1_4  1  0.50000000  0.37500000  0.17559900  1
  Mg  Mg1_5  1  0.50000000  0.37500000  0.67559900  1
  Mg  Mg1_6  1  0.50000000  0.87500000  0.17559900  1
  Mg  Mg1_7  1  0.50000000  0.87500000  0.67559900  1
  Os  Os0_0  1  0.25000000  0.37500000  0.43926000  1
  Os  Os0_1  1  0.25000000  0.37500000  0.93926000  1
  Os  Os0_2  1  0.25000000  0.87500000  0.43926000  1
  Os  Os0_3  1  0.25000000  0.87500000  0.93926000  1
  Os  Os0_4  1  0.75000000  0.37500000  0.43926000  1
  Os  Os0_5  1  0.75000000  0.37500000  0.93926000  1
  Os  Os0_6  1  0.75000000  0.87500000  0.43926000  1
  Os  Os0_7  1  0.75000000  0.87500000  0.93926000  1
  Os  Os1_0  1  0.25000000  0.12500000  0.06074000  1
  Os  Os1_1  1  0.25000000  0.12500000  0.56074000  1
  Os  Os1_2  1  0.25000000  0.62500000  0.06074000  1
  Os  Os1_3  1  0.25000000  0.62500000  0.56074000  1
  Os  Os1_4  1  0.75000000  0.12500000  0.06074000  1
  Os  Os1_5  1  0.75000000  0.12500000  0.56074000  1
  Os  Os1_6  1  0.75000000  0.62500000  0.06074000  1
  Os  Os1_7  1  0.75000000  0.62500000  0.56074000  1
loop_
_geom_bond_atom_site_label_1
_geom_bond_atom_site_label_2
_geom_bond_distance
_geom_bond_site_symmetry_2
Mg0_0 Mg1_2 2.708721 1_545
Mg0_0 Mg1_0 2.708721 1_555
Mg0_0 Os1_1 2.763976 1_555
Mg0_0 Os1_5 2.763976 1_455
Mg0_0 Mg0_4 2.817335 1_555
Mg0_0 Mg0_4 2.817335 1_455
Mg0_0 Os0_6 2.900934 1_445
Mg0_0 Os0_2 2.900934 1_545
Mg0_0 Os0_4 2.900934 1_455
Mg0_0 Os0_0 2.900934 1_555
Mg0_0 Os1_4 3.003779 1_455
Mg0_0 Os1_0 3.003779 1_555
Mg0_1 Mg1_3 2.708721 1_545
Mg0_1 Mg1_1 2.708721 1_555
Mg0_1 Os1_4 2.763976 1_456
Mg0_1 Os1_0 2.763976 1_556
Mg0_1 Mg0_5 2.817335 1_455
Mg0_1 Mg0_5 2.817335 1_555
Mg0_1 Os0_7 2.900934 1_445
Mg0_1 Os0_3 2.900934 1_545
Mg0_1 Os0_5 2.900934 1_455
Mg0_1 Os0_1 2.900934 1_555
Mg0_1 Os1_1 3.003779 1_555
Mg0_1 Os1_5 3.003779 1_455
Mg0_2 Mg1_0 2.708721 1_555
Mg0_2 Mg1_2 2.708721 1_555
Mg0_2 Os1_7 2.763976 1_455
Mg0_2 Os1_3 2.763976 1_555
Mg0_2 Mg0_6 2.817335 1_455
Mg0_2 Mg0_6 2.817335 1_555
Mg0_2 Os0_4 2.900934 1_455
Mg0_2 Os0_0 2.900934 1_555
Mg0_2 Os0_6 2.900934 1_455
Mg0_2 Os0_2 2.900934 1_555
Mg0_2 Os1_2 3.003779 1_555
Mg0_2 Os1_6 3.003779 1_455
Mg0_3 Mg1_1 2.708721 1_555
Mg0_3 Mg1_3 2.708721 1_555
Mg0_3 Os1_2 2.763976 1_556
Mg0_3 Os1_6 2.763976 1_456
Mg0_3 Mg0_7 2.817335 1_455
Mg0_3 Mg0_7 2.817335 1_555
Mg0_3 Os0_1 2.900934 1_555
Mg0_3 Os0_5 2.900934 1_455
Mg0_3 Os0_7 2.900934 1_455
Mg0_3 Os0_3 2.900934 1_555
Mg0_3 Os1_7 3.003779 1_455
Mg0_3 Os1_3 3.003779 1_555
Mg0_4 Mg1_6 2.708721 1_545
Mg0_4 Mg1_4 2.708721 1_555
Mg0_4 Os1_1 2.763976 1_555
Mg0_4 Os1_5 2.763976 1_555
Mg0_4 Os0_2 2.900934 1_545
Mg0_4 Os0_6 2.900934 1_545
Mg0_4 Os0_4 2.900934 1_555
Mg0_4 Os0_0 2.900934 1_555
Mg0_4 Os1_0 3.003779 1_555
Mg0_4 Os1_4 3.003779 1_555
Mg0_5 Mg1_7 2.708721 1_545
Mg0_5 Mg1_5 2.708721 1_555
Mg0_5 Os1_4 2.763976 1_556
Mg0_5 Os1_0 2.763976 1_556
Mg0_5 Os0_3 2.900934 1_545
Mg0_5 Os0_7 2.900934 1_545
Mg0_5 Os0_1 2.900934 1_555
Mg0_5 Os0_5 2.900934 1_555
Mg0_5 Os1_1 3.003779 1_555
Mg0_5 Os1_5 3.003779 1_555
Mg0_6 Mg1_4 2.708721 1_555
Mg0_6 Mg1_6 2.708721 1_555
Mg0_6 Os1_3 2.763976 1_555
Mg0_6 Os1_7 2.763976 1_555
Mg0_6 Os0_0 2.900934 1_555
Mg0_6 Os0_4 2.900934 1_555
Mg0_6 Os0_2 2.900934 1_555
Mg0_6 Os0_6 2.900934 1_555
Mg0_6 Os1_2 3.003779 1_555
Mg0_6 Os1_6 3.003779 1_555
Mg0_7 Mg1_5 2.708721 1_555
Mg0_7 Mg1_7 2.708721 1_555
Mg0_7 Os1_6 2.763976 1_556
Mg0_7 Os1_2 2.763976 1_556
Mg0_7 Os0_5 2.900934 1_555
Mg0_7 Os0_1 2.900934 1_555
Mg0_7 Os0_3 2.900934 1_555
Mg0_7 Os0_7 2.900934 1_555
Mg0_7 Os1_3 3.003779 1_555
Mg0_7 Os1_7 3.003779 1_555
Mg1_0 Os0_5 2.763976 1_454
Mg1_0 Os0_1 2.763976 1_554
Mg1_0 Mg1_4 2.817335 1_555
Mg1_0 Mg1_4 2.817335 1_455
Mg1_0 Os1_2 2.900934 1_555
Mg1_0 Os1_6 2.900934 1_455
Mg1_0 Os1_0 2.900934 1_555
Mg1_0 Os1_4 2.900934 1_455
Mg1_0 Os0_4 3.003779 1_455
Mg1_0 Os0_0 3.003779 1_555
Mg1_1 Os0_0 2.763976 1_555
Mg1_1 Os0_4 2.763976 1_455
Mg1_1 Mg1_5 2.817335 1_455
Mg1_1 Mg1_5 2.817335 1_555
Mg1_1 Os1_7 2.900934 1_455
Mg1_1 Os1_3 2.900934 1_555
Mg1_1 Os1_5 2.900934 1_455
Mg1_1 Os1_1 2.900934 1_555
Mg1_1 Os0_1 3.003779 1_555
Mg1_1 Os0_5 3.003779 1_455
Mg1_2 Os0_7 2.763976 1_454
Mg1_2 Os0_3 2.763976 1_554
Mg1_2 Mg1_6 2.817335 1_455
Mg1_2 Mg1_6 2.817335 1_555
Mg1_2 Os1_4 2.900934 1_465
Mg1_2 Os1_0 2.900934 1_565
Mg1_2 Os1_2 2.900934 1_555
Mg1_2 Os1_6 2.900934 1_455
Mg1_2 Os0_2 3.003779 1_555
Mg1_2 Os0_6 3.003779 1_455
Mg1_3 Os0_6 2.763976 1_455
Mg1_3 Os0_2 2.763976 1_555
Mg1_3 Mg1_7 2.817335 1_455
Mg1_3 Mg1_7 2.817335 1_555
Mg1_3 Os1_1 2.900934 1_565
Mg1_3 Os1_5 2.900934 1_465
Mg1_3 Os1_3 2.900934 1_555
Mg1_3 Os1_7 2.900934 1_455
Mg1_3 Os0_7 3.003779 1_455
Mg1_3 Os0_3 3.003779 1_555
Mg1_4 Os0_1 2.763976 1_554
Mg1_4 Os0_5 2.763976 1_554
Mg1_4 Os1_2 2.900934 1_555
Mg1_4 Os1_6 2.900934 1_555
Mg1_4 Os1_0 2.900934 1_555
Mg1_4 Os1_4 2.900934 1_555
Mg1_4 Os0_0 3.003779 1_555
Mg1_4 Os0_4 3.003779 1_555
Mg1_5 Os0_0 2.763976 1_555
Mg1_5 Os0_4 2.763976 1_555
Mg1_5 Os1_3 2.900934 1_555
Mg1_5 Os1_7 2.900934 1_555
Mg1_5 Os1_1 2.900934 1_555
Mg1_5 Os1_5 2.900934 1_555
Mg1_5 Os0_5 3.003779 1_555
Mg1_5 Os0_1 3.003779 1_555
Mg1_6 Os0_7 2.763976 1_554
Mg1_6 Os0_3 2.763976 1_554
Mg1_6 Os1_4 2.900934 1_565
Mg1_6 Os1_0 2.900934 1_565
Mg1_6 Os1_2 2.900934 1_555
Mg1_6 Os1_6 2.900934 1_555
Mg1_6 Os0_2 3.003779 1_555
Mg1_6 Os0_6 3.003779 1_555
Mg1_7 Os0_6 2.763976 1_555
Mg1_7 Os0_2 2.763976 1_555
Mg1_7 Os1_5 2.900934 1_565
Mg1_7 Os1_1 2.900934 1_565
Mg1_7 Os1_3 2.900934 1_555
Mg1_7 Os1_7 2.900934 1_555
Mg1_7 Os0_7 3.003779 1_555
Mg1_7 Os0_3 3.003779 1_555
Os0_0 Os1_3 2.567003 1_555
Os0_0 Os1_1 2.567003 1_555
Os0_0 Os0_4 2.817335 1_455
Os0_0 Os0_4 2.817335 1_555
Os0_1 Os1_2 2.567003 1_556
Os0_1 Os1_0 2.567003 1_556
Os0_1 Os0_5 2.817335 1_455
Os0_1 Os0_5 2.817335 1_555
Os0_2 Os1_1 2.567003 1_565
Os0_2 Os1_3 2.567003 1_555
Os0_2 Os0_6 2.817335 1_555
Os0_2 Os0_6 2.817335 1_455
Os0_3 Os1_0 2.567003 1_566
Os0_3 Os1_2 2.567003 1_556
Os0_3 Os0_7 2.817335 1_455
Os0_3 Os0_7 2.817335 1_555
Os0_4 Os1_7 2.567003 1_555
Os0_4 Os1_5 2.567003 1_555
Os0_5 Os1_6 2.567003 1_556
Os0_5 Os1_4 2.567003 1_556
Os0_6 Os1_5 2.567003 1_565
Os0_6 Os1_7 2.567003 1_555
Os0_7 Os1_4 2.567003 1_566
Os0_7 Os1_6 2.567003 1_556
Os1_0 Os1_4 2.817335 1_455
Os1_0 Os1_4 2.817335 1_555
Os1_1 Os1_5 2.817335 1_455
Os1_1 Os1_5 2.817335 1_555
Os1_2 Os1_6 2.817335 1_455
Os1_2 Os1_6 2.817335 1_555
Os1_3 Os1_7 2.817335 1_455
Os1_3 Os1_7 2.817335 1_555
