# generated using pymatgen
data_NaMg14Ni
_symmetry_space_group_name_H-M   'P 1'
_cell_length_a   6.36923718
_cell_length_b   6.43075326
_cell_length_c   9.99950160
_cell_angle_alpha   90.00000000
_cell_angle_beta   90.00000000
_cell_angle_gamma   120.32001746
_symmetry_Int_Tables_number   1
_chemical_formula_structural   NaMg14Ni
_chemical_formula_sum   'Na1 Mg14 Ni1'
_cell_volume   353.54828039
_cell_formula_units_Z   1
loop_
 _symmetry_equiv_pos_site_id
 _symmetry_equiv_pos_as_xyz
  1  'x, y, z'
loop_
 _atom_site_type_symbol
 _atom_site_label
 _atom_site_symmetry_multiplicity
 _atom_site_fract_x
 _atom_site_fract_y
 _atom_site_fract_z
 _atom_site_occupancy
  Na  Na0  1  0.16471399  0.83235650  0.12500000  1
  Mg  Mg0  1  0.16727714  0.33363807  0.62500000  1
  Mg  Mg1  1  0.17169052  0.83584476  0.62500000  1
  Mg  Mg2  1  0.66894459  0.33908914  0.12500000  1
  Mg  Mg3  1  0.66455220  0.32926290  0.62500000  1
  Mg  Mg4  1  0.66894459  0.82985445  0.12500000  1
  Mg  Mg5  1  0.66455220  0.83528829  0.62500000  1
  Mg  Mg6  1  0.32688931  0.17566615  0.36644100  1
  Mg  Mg7  1  0.32688931  0.17566615  0.88355900  1
  Mg  Mg8  1  0.32688931  0.65122415  0.36644100  1
  Mg  Mg9  1  0.32688931  0.65122415  0.88355900  1
  Mg  Mg10  1  0.84652528  0.17326314  0.36034445  1
  Mg  Mg11  1  0.84652528  0.17326314  0.88965555  1
  Mg  Mg12  1  0.83005990  0.66503045  0.38414646  1
  Mg  Mg13  1  0.83005990  0.66503045  0.86585354  1
  Ni  Ni0  1  0.16859720  0.33429810  0.12500000  1
loop_
_geom_bond_atom_site_label_1
_geom_bond_atom_site_label_2
_geom_bond_distance
_geom_bond_site_symmetry_2
Na0 Ni0 3.215447 1_565
Na0 Ni0 3.215448 1_555
Mg0 Mg6 3.129350 1_555
Mg0 Mg7 3.129350 1_555
Mg0 Mg8 3.129357 1_555
Mg0 Mg9 3.129357 1_555
Mg0 Mg11 3.180176 1_455
Mg0 Mg10 3.180176 1_455
Mg0 Mg5 3.181559 1_555
Mg0 Mg3 3.181559 1_555
Mg0 Mg5 3.187863 1_445
Mg0 Mg3 3.187863 1_455
Mg0 Mg1 3.215468 1_555
Mg0 Mg1 3.215468 1_545
Mg1 Mg12 3.054256 1_455
Mg1 Mg13 3.054256 1_455
Mg1 Mg3 3.140961 1_565
Mg1 Mg5 3.140961 1_555
Mg1 Mg8 3.202535 1_555
Mg1 Mg9 3.202535 1_555
Mg1 Mg6 3.202541 1_565
Mg1 Mg7 3.202541 1_565
Mg1 Mg3 3.228279 1_455
Mg1 Mg5 3.228279 1_455
Mg2 Mg7 3.060715 1_554
Mg2 Mg6 3.060715 1_555
Mg2 Na0 3.149581 1_655
Mg2 Mg4 3.155991 1_555
Mg2 Ni0 3.171389 1_555
Mg2 Ni0 3.198070 1_655
Mg2 Na0 3.219717 1_545
Mg2 Mg4 3.274763 1_545
Mg3 Mg5 3.176629 1_545
Mg3 Mg7 3.184455 1_555
Mg3 Mg6 3.184455 1_555
Mg3 Mg5 3.254124 1_555
Mg4 Mg8 3.060715 1_555
Mg4 Mg9 3.060715 1_554
Mg4 Na0 3.149581 1_655
Mg4 Ni0 3.171389 1_555
Mg4 Ni0 3.198070 1_665
Mg4 Na0 3.219717 1_555
Mg5 Mg8 3.184454 1_555
Mg5 Mg9 3.184454 1_555
Mg6 Ni0 2.987362 1_555
Mg6 Na0 3.076912 1_545
Mg7 Ni0 2.987362 1_556
Mg7 Na0 3.076912 1_546
Mg8 Ni0 2.987369 1_555
Mg8 Na0 3.076905 1_555
Mg9 Ni0 2.987369 1_556
Mg9 Na0 3.076905 1_556
Mg10 Ni0 2.945126 1_655
Mg10 Mg2 3.028597 1_555
Mg10 Mg4 3.028604 1_545
Mg10 Mg12 3.225444 1_545
Mg10 Mg12 3.225444 1_555
Mg10 Mg3 3.244576 1_555
Mg10 Mg5 3.244582 1_545
Mg11 Ni0 2.945126 1_656
Mg11 Mg2 3.028597 1_556
Mg11 Mg4 3.028604 1_546
Mg11 Mg13 3.225444 1_545
Mg11 Mg13 3.225444 1_555
Mg11 Mg3 3.244576 1_555
Mg11 Mg5 3.244582 1_545
Mg12 Mg5 3.045623 1_555
Mg12 Mg3 3.045630 1_555
Mg12 Mg4 3.160656 1_555
Mg12 Mg2 3.160662 1_555
Mg12 Mg6 3.165875 1_555
Mg12 Mg8 3.165875 1_555
Mg12 Na0 3.178115 1_655
Mg12 Mg6 3.215039 1_665
Mg12 Mg8 3.215039 1_655
Mg13 Mg5 3.045623 1_555
Mg13 Mg3 3.045630 1_555
Mg13 Mg4 3.160656 1_556
Mg13 Mg2 3.160662 1_556
Mg13 Mg7 3.165875 1_555
Mg13 Mg9 3.165875 1_555
Mg13 Na0 3.178115 1_656
Mg13 Mg7 3.215039 1_665
Mg13 Mg9 3.215039 1_655
