# generated using pymatgen
data_Li4Co7O3F13
_symmetry_space_group_name_H-M   'P 1'
_cell_length_a   6.06517200
_cell_length_b   6.09317778
_cell_length_c   10.53983625
_cell_angle_alpha   105.48486266
_cell_angle_beta   91.48752668
_cell_angle_gamma   118.98927935
_symmetry_Int_Tables_number   1
_chemical_formula_structural   Li4Co7O3F13
_chemical_formula_sum   'Li4 Co7 O3 F13'
_cell_volume   322.71866200
_cell_formula_units_Z   1
loop_
 _symmetry_equiv_pos_site_id
 _symmetry_equiv_pos_as_xyz
  1  'x, y, z'
loop_
 _atom_site_type_symbol
 _atom_site_label
 _atom_site_symmetry_multiplicity
 _atom_site_fract_x
 _atom_site_fract_y
 _atom_site_fract_z
 _atom_site_occupancy
  Li  Li0  1  0.90150100  0.18340300  0.93883200  1
  Li  Li1  1  0.13046200  0.35079100  0.55900000  1
  Li  Li2  1  0.87326200  0.66514200  0.44050400  1
  Li  Li3  1  0.11626100  0.82111100  0.05758300  1
  Co  Co0  1  0.47809000  0.74086700  0.75015600  1
  Co  Co1  1  0.46327300  0.22789500  0.77115400  1
  Co  Co2  1  0.48067600  0.99238400  0.50043400  1
  Co  Co3  1  0.49655900  0.48777600  0.00129400  1
  Co  Co4  1  0.02338700  0.75029900  0.74701200  1
  Co  Co5  1  0.99495200  0.24179900  0.25148200  1
  Co  Co6  1  0.49243000  0.74776900  0.24914000  1
  O  O0  1  0.30570000  0.39653200  0.86702800  1
  O  O1  1  0.27392100  0.89566200  0.85834300  1
  O  O2  1  0.26860000  0.66556800  0.62621700  1
  F  F0  1  0.75770300  0.85501400  0.86430400  1
  F  F1  1  0.74920100  0.37601900  0.87307800  1
  F  F2  1  0.74247600  0.87278700  0.37097100  1
  F  F3  1  0.72621300  0.13711000  0.63393700  1
  F  F4  1  0.24044100  0.39169400  0.36352400  1
  F  F5  1  0.75419100  0.33655500  0.38398700  1
  F  F6  1  0.74575300  0.61242700  0.63994100  1
  F  F7  1  0.25931800  0.85616900  0.37536700  1
  F  F8  1  0.26555500  0.14611200  0.62768600  1
  F  F9  1  0.24315800  0.61043700  0.12720400  1
  F  F10  1  0.23472800  0.14224600  0.12257100  1
  F  F11  1  0.75586100  0.10377300  0.13373300  1
  F  F12  1  0.72632400  0.64265800  0.11552000  1
loop_
_geom_bond_atom_site_label_1
_geom_bond_atom_site_label_2
_geom_bond_distance
_geom_bond_site_symmetry_2
Li0 O0 2.409245 1_655
Li1 O2 1.602679 1_555
Li3 O1 2.392306 1_554
Co0 O2 1.600020 1_555
Co0 F0 1.763866 1_555
Co0 O1 2.086723 1_555
Co0 F6 2.332673 1_555
Co0 O0 2.516569 1_555
Co1 F1 1.686568 1_555
Co1 F8 1.702113 1_555
Co1 O0 1.854153 1_555
Co1 O1 2.248575 1_545
Co1 F3 2.342773 1_555
Co2 F7 1.572518 1_555
Co2 F3 1.712036 1_565
Co2 F8 2.232321 1_565
Co3 F12 1.521029 1_555
Co3 O0 1.588321 1_554
Co3 F1 2.294656 1_554
Co4 O1 1.586911 1_555
Co4 F6 1.684854 1_455
Co4 O2 2.142665 1_555
Co4 F0 2.282738 1_455
Co5 F4 1.568534 1_655
Co5 F11 1.586664 1_555
Co5 F10 2.201485 1_655
Co5 F5 2.215553 1_555
Co6 F9 1.654175 1_555
Co6 F2 1.669110 1_555
Co6 F7 2.176900 1_555
Co6 F12 2.215580 1_555
F0 Li0 1.677809 1_565
F1 Li0 2.040324 1_555
F2 Li2 2.050569 1_555
F3 Li1 2.426092 1_655
F4 Li1 2.221762 1_555
F5 Li2 1.680556 1_555
F6 Li2 2.307369 1_555
F7 Li2 2.275340 1_455
F8 Li1 2.047584 1_555
F9 Li3 2.051812 1_555
F10 Li3 1.646282 1_545
F11 Li0 2.333778 1_554
F12 Li3 2.255102 1_655
