# generated using pymatgen
data_MgH16(IO8)2
_symmetry_space_group_name_H-M   'P 1'
_cell_length_a   5.58695800
_cell_length_b   10.81192100
_cell_length_c   12.14657777
_cell_angle_alpha   66.71334341
_cell_angle_beta   90.00000000
_cell_angle_gamma   90.00000000
_symmetry_Int_Tables_number   1
_chemical_formula_structural   MgH16(IO8)2
_chemical_formula_sum   'Mg2 H32 I4 O32'
_cell_volume   673.95291648
_cell_formula_units_Z   2
loop_
 _symmetry_equiv_pos_site_id
 _symmetry_equiv_pos_as_xyz
  1  'x, y, z'
loop_
 _atom_site_type_symbol
 _atom_site_label
 _atom_site_symmetry_multiplicity
 _atom_site_fract_x
 _atom_site_fract_y
 _atom_site_fract_z
 _atom_site_occupancy
  Mg  Mg0  1  0.00000000  0.00000000  0.00000000  1
  Mg  Mg1  1  0.50000000  0.00000000  0.50000000  1
  H  H0  1  0.59980400  0.64090800  0.38899600  1
  H  H1  1  0.09980400  0.35909200  0.11100400  1
  H  H2  1  0.40019600  0.35909200  0.61100400  1
  H  H3  1  0.90019600  0.64090800  0.88899600  1
  H  H4  1  0.35618300  0.48181400  0.33123400  1
  H  H5  1  0.85618300  0.51818600  0.16876600  1
  H  H6  1  0.64381700  0.51818600  0.66876600  1
  H  H7  1  0.14381700  0.48181400  0.83123400  1
  H  H8  1  0.17339500  0.75340900  0.11171600  1
  H  H9  1  0.67339500  0.24659100  0.38828400  1
  H  H10  1  0.82660500  0.24659100  0.88828400  1
  H  H11  1  0.32660500  0.75340900  0.61171600  1
  H  H12  1  0.26677900  0.81008100  0.97630900  1
  H  H13  1  0.76677900  0.18991900  0.52369100  1
  H  H14  1  0.73322100  0.18991900  0.02369100  1
  H  H15  1  0.23322100  0.81008100  0.47630900  1
  H  H16  1  0.77314600  0.78925900  0.15754500  1
  H  H17  1  0.27314600  0.21074100  0.34245500  1
  H  H18  1  0.22685400  0.21074100  0.84245500  1
  H  H19  1  0.72685400  0.78925900  0.65754500  1
  H  H20  1  0.55475900  0.87409800  0.08235700  1
  H  H21  1  0.05475900  0.12590200  0.41764300  1
  H  H22  1  0.44524100  0.12590200  0.91764300  1
  H  H23  1  0.94524100  0.87409800  0.58235700  1
  H  H24  1  0.17017100  0.10935600  0.15750400  1
  H  H25  1  0.67017100  0.89064400  0.34249600  1
  H  H26  1  0.82982900  0.89064400  0.84249600  1
  H  H27  1  0.32982900  0.10935600  0.65750400  1
  H  H28  1  0.14880300  0.94907000  0.22914200  1
  H  H29  1  0.64880300  0.05093000  0.27085800  1
  H  H30  1  0.85119700  0.05093000  0.77085800  1
  H  H31  1  0.35119700  0.94907000  0.72914200  1
  I  I0  1  0.03848300  0.62352000  0.37732700  1
  I  I1  1  0.53848300  0.37648000  0.12267300  1
  I  I2  1  0.96151700  0.37648000  0.62267300  1
  I  I3  1  0.46151700  0.62352000  0.87732700  1
  O  O0  1  0.95910600  0.64365900  0.22437300  1
  O  O1  1  0.45910600  0.35634100  0.27562700  1
  O  O2  1  0.04089400  0.35634100  0.77562700  1
  O  O3  1  0.54089400  0.64365900  0.72437300  1
  O  O4  1  0.73314200  0.69645600  0.40071300  1
  O  O5  1  0.23314200  0.30354400  0.09928700  1
  O  O6  1  0.26685800  0.30354400  0.59928700  1
  O  O7  1  0.76685800  0.69645600  0.90071300  1
  O  O8  1  0.18099800  0.78252400  0.35497600  1
  O  O9  1  0.68099800  0.21747600  0.14502400  1
  O  O10  1  0.81900200  0.21747600  0.64502400  1
  O  O11  1  0.31900200  0.78252400  0.85497600  1
  O  O12  1  0.35502400  0.55097100  0.36685200  1
  O  O13  1  0.85502400  0.44902900  0.13314800  1
  O  O14  1  0.64497600  0.44902900  0.63314800  1
  O  O15  1  0.14497600  0.55097100  0.86685200  1
  O  O16  1  0.09674900  0.56174300  0.55597300  1
  O  O17  1  0.59674900  0.43825700  0.94402700  1
  O  O18  1  0.90325100  0.43825700  0.44402700  1
  O  O19  1  0.40325100  0.56174300  0.05597300  1
  O  O20  1  0.23579900  0.83550800  0.04631300  1
  O  O21  1  0.73579900  0.16449200  0.45368700  1
  O  O22  1  0.76420100  0.16449200  0.95368700  1
  O  O23  1  0.26420100  0.83550800  0.54631300  1
  O  O24  1  0.72103500  0.88178700  0.10644600  1
  O  O25  1  0.22103500  0.11821300  0.39355400  1
  O  O26  1  0.27896500  0.11821300  0.89355400  1
  O  O27  1  0.77896500  0.88178700  0.60644600  1
  O  O28  1  0.12574500  0.02454500  0.15119500  1
  O  O29  1  0.62574500  0.97545500  0.34880500  1
  O  O30  1  0.87425500  0.97545500  0.84880500  1
  O  O31  1  0.37425500  0.02454500  0.65119500  1
loop_
_geom_bond_atom_site_label_1
_geom_bond_atom_site_label_2
_geom_bond_distance
_geom_bond_site_symmetry_2
Mg0 O28 2.078957 1_555
Mg0 O30 2.078957 1_444
Mg0 O22 2.103315 1_454
Mg0 O20 2.103315 1_545
Mg0 O26 2.104239 1_554
Mg0 O24 2.104239 1_445
Mg1 O31 2.078957 1_555
Mg1 O29 2.078957 1_545
Mg1 O21 2.103315 1_555
Mg1 O23 2.103315 1_545
Mg1 O27 2.104239 1_545
Mg1 O25 2.104239 1_555
H0 O4 1.001744 1_555
H1 O5 1.001744 1_555
H2 O6 1.001744 1_555
H3 O7 1.001744 1_555
H4 O12 1.001037 1_555
H5 O13 1.001037 1_555
H6 O14 1.001037 1_555
H7 O15 1.001037 1_555
H8 O20 0.991480 1_555
H9 O21 0.991480 1_555
H10 O22 0.991480 1_555
H11 O23 0.991480 1_555
H12 O20 1.006672 1_556
H12 O11 1.641070 1_555
H13 O21 1.006672 1_555
H13 O10 1.641070 1_555
H14 O22 1.006672 1_554
H14 O9 1.641070 1_555
H15 O23 1.006672 1_555
H15 O8 1.641070 1_555
H16 O24 0.989884 1_555
H17 O25 0.989884 1_555
H18 O26 0.989884 1_555
H19 O27 0.989884 1_555
H20 O24 0.987297 1_555
H21 O25 0.987297 1_555
H22 O26 0.987297 1_555
H23 O27 0.987297 1_555
H24 O28 0.981770 1_555
H25 O29 0.981770 1_555
H26 O30 0.981770 1_555
H27 O31 0.981770 1_555
H28 O28 0.983889 1_565
H29 O29 0.983889 1_545
H30 O30 0.983889 1_545
H31 O31 0.983889 1_565
I0 O8 1.814964 1_555
I0 O0 1.837363 1_455
I0 O4 1.946752 1_455
I0 O12 1.959074 1_555
I0 O18 1.989050 1_455
I0 O16 2.028489 1_555
I1 O9 1.814964 1_555
I1 O1 1.837363 1_555
I1 O5 1.946752 1_555
I1 O13 1.959074 1_555
I1 O19 1.989050 1_555
I1 O17 2.028489 1_554
I2 O10 1.814964 1_555
I2 O2 1.837363 1_655
I2 O6 1.946752 1_655
I2 O14 1.959074 1_555
I2 O16 1.989050 1_655
I2 O18 2.028489 1_555
I3 O11 1.814964 1_555
I3 O3 1.837363 1_555
I3 O7 1.946752 1_555
I3 O15 1.959074 1_555
I3 O17 1.989050 1_555
I3 O19 2.028489 1_556
