# generated using pymatgen
data_NaPO4
_symmetry_space_group_name_H-M   'P 1'
_cell_length_a   13.78332100
_cell_length_b   7.06279700
_cell_length_c   7.23648232
_cell_angle_alpha   87.78183693
_cell_angle_beta   90.00000000
_cell_angle_gamma   90.00000000
_symmetry_Int_Tables_number   1
_chemical_formula_structural   NaPO4
_chemical_formula_sum   'Na8 P8 O32'
_cell_volume   703.93500078
_cell_formula_units_Z   8
loop_
 _symmetry_equiv_pos_site_id
 _symmetry_equiv_pos_as_xyz
  1  'x, y, z'
loop_
 _atom_site_type_symbol
 _atom_site_label
 _atom_site_symmetry_multiplicity
 _atom_site_fract_x
 _atom_site_fract_y
 _atom_site_fract_z
 _atom_site_occupancy
  Na  Na0  1  0.60012800  0.83153700  0.70071100  1
  Na  Na1  1  0.39987200  0.16846300  0.29928900  1
  Na  Na2  1  0.10012800  0.16846300  0.79928900  1
  Na  Na3  1  0.89987200  0.83153700  0.20071100  1
  Na  Na4  1  0.10483200  0.64070200  0.50441300  1
  Na  Na5  1  0.89516800  0.35929800  0.49558700  1
  Na  Na6  1  0.60483200  0.35929800  0.99558700  1
  Na  Na7  1  0.39516800  0.64070200  0.00441300  1
  P  P0  1  0.37041800  0.67870900  0.51526100  1
  P  P1  1  0.62958200  0.32129100  0.48473900  1
  P  P2  1  0.87041800  0.32129100  0.98473900  1
  P  P3  1  0.12958200  0.67870900  0.01526100  1
  P  P4  1  0.87338300  0.84432500  0.64231100  1
  P  P5  1  0.12661700  0.15567500  0.35768900  1
  P  P6  1  0.37338300  0.15567500  0.85768900  1
  P  P7  1  0.62661700  0.84432500  0.14231100  1
  O  O0  1  0.27235800  0.58486100  0.56893000  1
  O  O1  1  0.72764200  0.41513900  0.43107000  1
  O  O2  1  0.77235800  0.41513900  0.93107000  1
  O  O3  1  0.22764200  0.58486100  0.06893000  1
  O  O4  1  0.44414900  0.66578000  0.67297000  1
  O  O5  1  0.55585100  0.33422000  0.32703000  1
  O  O6  1  0.94414900  0.33422000  0.82703000  1
  O  O7  1  0.05585100  0.66578000  0.17297000  1
  O  O8  1  0.09963700  0.57048500  0.84243900  1
  O  O9  1  0.90036300  0.42951500  0.15756100  1
  O  O10  1  0.59963700  0.42951500  0.65756100  1
  O  O11  1  0.40036300  0.57048500  0.34243900  1
  O  O12  1  0.94601600  0.89538000  0.79787000  1
  O  O13  1  0.05398400  0.10462000  0.20213000  1
  O  O14  1  0.44601600  0.10462000  0.70213000  1
  O  O15  1  0.55398400  0.89538000  0.29787000  1
  O  O16  1  0.92635100  0.69295000  0.53285400  1
  O  O17  1  0.07364900  0.30705000  0.46714600  1
  O  O18  1  0.42635100  0.30705000  0.96714600  1
  O  O19  1  0.57364900  0.69295000  0.03285400  1
  O  O20  1  0.77552100  0.77715500  0.72222000  1
  O  O21  1  0.22447900  0.22284500  0.27778000  1
  O  O22  1  0.27552100  0.22284500  0.77778000  1
  O  O23  1  0.72447900  0.77715500  0.22222000  1
  O  O24  1  0.14698300  0.88904400  0.96170300  1
  O  O25  1  0.85301700  0.11095600  0.03829700  1
  O  O26  1  0.64698300  0.11095600  0.53829700  1
  O  O27  1  0.35301700  0.88904400  0.46170300  1
  O  O28  1  0.35355600  0.97868300  0.98289000  1
  O  O29  1  0.64644400  0.02131700  0.01711000  1
  O  O30  1  0.85355600  0.02131700  0.51711000  1
  O  O31  1  0.14644400  0.97868300  0.48289000  1
loop_
_geom_bond_atom_site_label_1
_geom_bond_atom_site_label_2
_geom_bond_distance
_geom_bond_site_symmetry_2
Na0 O26 2.348084 1_565
Na0 O20 2.451820 1_555
Na0 O4 2.459910 1_555
Na0 O19 2.585768 1_556
Na0 O29 2.772013 1_566
Na0 O10 2.868514 1_555
Na0 O14 2.869452 1_565
Na0 O15 3.000699 1_555
Na1 O27 2.348084 1_545
Na1 O21 2.451820 1_555
Na1 O5 2.459910 1_555
Na1 O18 2.585768 1_554
Na1 O28 2.772013 1_544
Na1 O11 2.868514 1_555
Na1 O15 2.869452 1_545
Na1 O14 3.000699 1_555
Na2 O24 2.348084 1_545
Na2 O22 2.451820 1_555
Na2 O6 2.459910 1_455
Na2 O17 2.585768 1_555
Na2 O31 2.772013 1_545
Na2 O8 2.868514 1_555
Na2 O12 2.869452 1_445
Na2 O13 3.000699 1_556
Na3 O25 2.348084 1_565
Na3 O23 2.451820 1_555
Na3 O7 2.459910 1_655
Na3 O16 2.585768 1_555
Na3 O30 2.772013 1_565
Na3 O9 2.868514 1_555
Na3 O13 2.869452 1_665
Na3 O12 3.000699 1_554
Na4 O0 2.385591 1_555
Na4 O17 2.420707 1_555
Na4 O31 2.454108 1_555
Na4 O8 2.478037 1_555
Na4 O7 2.491383 1_555
Na4 O16 2.497261 1_455
Na5 O1 2.385591 1_555
Na5 O16 2.420707 1_555
Na5 O30 2.454108 1_555
Na5 O9 2.478037 1_555
Na5 O6 2.491383 1_555
Na5 O17 2.497261 1_655
Na6 O2 2.385591 1_555
Na6 O19 2.420707 1_556
Na6 O29 2.454108 1_556
Na6 O10 2.478037 1_555
Na6 O5 2.491383 1_556
Na6 O18 2.497261 1_555
Na7 O3 2.385591 1_555
Na7 O18 2.420707 1_554
Na7 O28 2.454108 1_554
Na7 O11 2.478037 1_555
Na7 O4 2.491383 1_554
Na7 O19 2.497261 1_555
O0 P0 1.548242 1_555
O1 P1 1.548242 1_555
O2 P2 1.548242 1_555
O3 P3 1.548242 1_555
O4 P0 1.528242 1_555
O5 P1 1.528242 1_555
O6 P2 1.528242 1_555
O7 P3 1.528242 1_555
O8 P3 1.546824 1_556
O9 P2 1.546824 1_554
O10 P1 1.546824 1_555
O11 P0 1.546824 1_555
O12 P4 1.559133 1_555
O13 P5 1.559133 1_555
O14 P6 1.559133 1_555
O15 P7 1.559133 1_555
O16 P4 1.539156 1_555
O17 P5 1.539156 1_555
O18 P6 1.539156 1_555
O19 P7 1.539156 1_555
O20 P4 1.535462 1_555
O21 P5 1.535462 1_555
O22 P6 1.535462 1_555
O23 P7 1.535462 1_555
O24 P3 1.539492 1_556
O25 P2 1.539492 1_554
O26 P1 1.539492 1_555
O27 P0 1.539492 1_555
O28 P6 1.539650 1_565
O29 P7 1.539650 1_545
O30 P4 1.539650 1_545
O31 P5 1.539650 1_565
