# generated using pymatgen
data_Na5V2(PO5)3
_symmetry_space_group_name_H-M   'P 1'
_cell_length_a   5.22719757
_cell_length_b   6.36136600
_cell_length_c   10.65333373
_cell_angle_alpha   72.62873264
_cell_angle_beta   89.65477153
_cell_angle_gamma   88.84362522
_symmetry_Int_Tables_number   1
_chemical_formula_structural   Na5V2(PO5)3
_chemical_formula_sum   'Na5 V2 P3 O15'
_cell_volume   338.01994857
_cell_formula_units_Z   1
loop_
 _symmetry_equiv_pos_site_id
 _symmetry_equiv_pos_as_xyz
  1  'x, y, z'
loop_
 _atom_site_type_symbol
 _atom_site_label
 _atom_site_symmetry_multiplicity
 _atom_site_fract_x
 _atom_site_fract_y
 _atom_site_fract_z
 _atom_site_occupancy
  Na  Na0  1  0.98811900  0.91290300  0.82768000  1
  Na  Na1  1  0.98811900  0.74058300  0.17232000  1
  Na  Na2  1  0.01904400  0.49274400  0.52448300  1
  Na  Na3  1  0.01904400  0.01722600  0.47551700  1
  Na  Na4  1  0.39655400  0.18462900  0.00000000  1
  V  V0  1  0.50056100  0.65054800  0.69848700  1
  V  V1  1  0.50056100  0.34903500  0.30151300  1
  P  P0  1  0.50349100  0.18255700  0.62777600  1
  P  P1  1  0.50349100  0.81033300  0.37222400  1
  P  P2  1  0.46308200  0.65682100  0.00000000  1
  O  O0  1  0.89347000  0.20547100  0.00000000  1
  O  O1  1  0.79391400  0.17191000  0.62064300  1
  O  O2  1  0.79391400  0.79255400  0.37935700  1
  O  O3  1  0.81488700  0.66194600  0.68624200  1
  O  O4  1  0.81488700  0.34818800  0.31375800  1
  O  O5  1  0.40400600  0.34497100  0.70284100  1
  O  O6  1  0.40400600  0.04781200  0.29715900  1
  O  O7  1  0.37469700  0.74523600  0.51284800  1
  O  O8  1  0.37469700  0.25808400  0.48715200  1
  O  O9  1  0.38943100  0.95267500  0.70082900  1
  O  O10  1  0.38943100  0.65350400  0.29917100  1
  O  O11  1  0.39939000  0.56485900  0.87990000  1
  O  O12  1  0.39939000  0.44476000  0.12010000  1
  O  O13  1  0.27856700  0.84536300  0.00000000  1
  O  O14  1  0.74274800  0.71468900  0.00000000  1
loop_
_geom_bond_atom_site_label_1
_geom_bond_atom_site_label_2
_geom_bond_distance
_geom_bond_site_symmetry_2
Na0 O14 2.293418 1_556
Na0 O13 2.322929 1_656
Na0 O9 2.464519 1_655
Na0 O1 2.529729 1_565
Na0 O3 2.673970 1_555
Na1 O14 2.293418 1_555
Na1 O13 2.322929 1_655
Na1 O10 2.464519 1_655
Na1 O2 2.529732 1_555
Na1 O4 2.673970 1_555
Na2 O1 2.331030 1_455
Na2 O2 2.362886 1_455
Na2 O7 2.459720 1_555
Na2 O8 2.464995 1_555
Na2 O3 2.511198 1_455
Na2 O5 2.728824 1_555
Na2 O4 2.885362 1_455
Na3 O2 2.331020 1_445
Na3 O1 2.362886 1_455
Na3 O8 2.459724 1_555
Na3 O7 2.464991 1_545
Na3 O4 2.511202 1_455
Na3 O6 2.728823 1_555
Na3 O3 2.885359 1_445
Na4 O13 2.256524 1_545
Na4 O11 2.375085 1_554
Na4 O12 2.375090 1_555
Na4 O0 2.603530 1_555
Na4 O0 2.630386 1_455
O1 P0 1.520696 1_555
O2 P1 1.520696 1_555
O3 V0 1.648771 1_555
O4 V1 1.648771 1_555
O5 P0 1.563345 1_555
O5 V0 2.005258 1_555
O6 P1 1.563345 1_545
O6 V1 2.005258 1_555
O7 P1 1.580420 1_555
O7 V0 1.998808 1_555
O8 P0 1.580420 1_555
O8 V1 1.998808 1_555
O9 P0 1.565145 1_565
O9 V0 2.003826 1_555
O10 P1 1.565145 1_555
O10 V1 2.003826 1_555
O11 P2 1.596885 1_556
O11 V0 1.918908 1_555
O12 P2 1.596881 1_555
O12 V1 1.918909 1_555
O13 P2 1.523839 1_555
O14 P2 1.514693 1_555
