# generated using pymatgen
data_Sr2UCdO6
_symmetry_space_group_name_H-M   'P 1'
_cell_length_a   6.11993100
_cell_length_b   5.95210838
_cell_length_c   8.49302886
_cell_angle_alpha   90.71253571
_cell_angle_beta   90.00000000
_cell_angle_gamma   90.00000000
_symmetry_Int_Tables_number   1
_chemical_formula_structural   Sr2UCdO6
_chemical_formula_sum   'Sr4 U2 Cd2 O12'
_cell_volume   309.34732986
_cell_formula_units_Z   2
loop_
 _symmetry_equiv_pos_site_id
 _symmetry_equiv_pos_as_xyz
  1  'x, y, z'
loop_
 _atom_site_type_symbol
 _atom_site_label
 _atom_site_symmetry_multiplicity
 _atom_site_fract_x
 _atom_site_fract_y
 _atom_site_fract_z
 _atom_site_occupancy
  Sr  Sr0  1  0.45313600  0.48692900  0.75595900  1
  Sr  Sr1  1  0.04686400  0.98692900  0.25595900  1
  Sr  Sr2  1  0.54686400  0.51307100  0.24404100  1
  Sr  Sr3  1  0.95313600  0.01307100  0.74404100  1
  U  U0  1  0.50000000  0.00000000  0.00000000  1
  U  U1  1  0.00000000  0.50000000  0.50000000  1
  Cd  Cd0  1  0.50000000  0.00000000  0.50000000  1
  Cd  Cd1  1  0.00000000  0.50000000  0.00000000  1
  O  O0  1  0.04592800  0.60176900  0.73399100  1
  O  O1  1  0.45407200  0.10176900  0.23399100  1
  O  O2  1  0.95407200  0.39823100  0.26600900  1
  O  O3  1  0.54592800  0.89823100  0.76600900  1
  O  O4  1  0.18854900  0.21427100  0.54375300  1
  O  O5  1  0.31145100  0.71427100  0.04375300  1
  O  O6  1  0.81145100  0.78572900  0.45624700  1
  O  O7  1  0.68854900  0.28572900  0.95624700  1
  O  O8  1  0.27745600  0.68654700  0.43704200  1
  O  O9  1  0.22254400  0.18654700  0.93704200  1
  O  O10  1  0.72254400  0.31345300  0.56295800  1
  O  O11  1  0.77745600  0.81345300  0.06295800  1
loop_
_geom_bond_atom_site_label_1
_geom_bond_atom_site_label_2
_geom_bond_distance
_geom_bond_site_symmetry_2
Cd0 O4 2.320756 1_555
Cd0 O6 2.320756 1_545
Cd0 O1 2.363059 1_555
Cd0 O3 2.363059 1_545
Cd0 O10 2.365772 1_555
Cd0 O8 2.365772 1_545
Cd1 O5 2.320756 1_555
Cd1 O7 2.320756 1_454
Cd1 O0 2.363059 1_554
Cd1 O2 2.363059 1_455
Cd1 O11 2.365772 1_455
Cd1 O9 2.365772 1_554
O0 U1 2.089334 1_555
O0 Sr3 2.513531 1_465
O0 Sr0 2.591466 1_555
O1 U0 2.089334 1_555
O1 Sr2 2.513531 1_555
O1 Sr1 2.591466 1_545
O2 U1 2.089334 1_655
O2 Sr1 2.513531 1_645
O2 Sr2 2.591466 1_555
O3 U0 2.089334 1_566
O3 Sr0 2.513531 1_555
O3 Sr3 2.591466 1_565
O4 U1 2.092283 1_555
O4 Sr3 2.540483 1_455
O4 Sr0 2.903652 1_555
O4 Sr1 2.911182 1_545
O5 U0 2.092283 1_565
O5 Sr2 2.540483 1_555
O5 Sr1 2.903652 1_555
O5 Sr0 2.911182 1_554
O6 U1 2.092283 1_655
O6 Sr1 2.540483 1_655
O6 Sr2 2.903652 1_555
O6 Sr3 2.911182 1_565
O7 U0 2.092283 1_556
O7 Sr0 2.540483 1_555
O7 Sr3 2.903652 1_555
O7 Sr2 2.911182 1_556
O8 U1 2.101616 1_555
O8 Sr2 2.535610 1_555
O8 Sr1 2.760756 1_555
O8 Sr0 3.159753 1_555
O9 U0 2.101616 1_556
O9 Sr3 2.535610 1_455
O9 Sr0 2.760756 1_555
O9 Sr1 3.159753 1_546
O10 U1 2.101616 1_655
O10 Sr0 2.535610 1_555
O10 Sr3 2.760756 1_555
O10 Sr2 3.159753 1_555
O11 U0 2.101616 1_565
O11 Sr1 2.535610 1_655
O11 Sr2 2.760756 1_555
O11 Sr3 3.159753 1_564
