# generated using pymatgen
data_Ba3Ta2Ti6O21
_symmetry_space_group_name_H-M   'P 1'
_cell_length_a   9.05506943
_cell_length_b   9.05506943
_cell_length_c   11.94360000
_cell_angle_alpha   90.00000000
_cell_angle_beta   90.00000000
_cell_angle_gamma   119.99999587
_symmetry_Int_Tables_number   1
_chemical_formula_structural   Ba3Ta2Ti6O21
_chemical_formula_sum   'Ba6 Ta4 Ti12 O42'
_cell_volume   848.10469923
_cell_formula_units_Z   2
loop_
 _symmetry_equiv_pos_site_id
 _symmetry_equiv_pos_as_xyz
  1  'x, y, z'
loop_
 _atom_site_type_symbol
 _atom_site_label
 _atom_site_symmetry_multiplicity
 _atom_site_fract_x
 _atom_site_fract_y
 _atom_site_fract_z
 _atom_site_occupancy
  Ba  Ba0  1  0.59561600  0.00000000  0.75000000  1
  Ba  Ba1  1  0.40438400  0.00000000  0.25000000  1
  Ba  Ba2  1  0.00000000  0.59561600  0.75000000  1
  Ba  Ba3  1  0.00000000  0.40438400  0.25000000  1
  Ba  Ba4  1  0.40438400  0.40438400  0.75000000  1
  Ba  Ba5  1  0.59561600  0.59561600  0.25000000  1
  Ta  Ta0  1  0.33333300  0.66666700  0.50000000  1
  Ta  Ta1  1  0.66666700  0.33333300  0.50000000  1
  Ta  Ta2  1  0.66666700  0.33333300  0.00000000  1
  Ta  Ta3  1  0.33333300  0.66666700  0.00000000  1
  Ti  Ti0  1  0.23697000  0.00000000  0.59587200  1
  Ti  Ti1  1  0.76303000  0.00000000  0.40412800  1
  Ti  Ti2  1  0.00000000  0.23697000  0.59587200  1
  Ti  Ti3  1  0.76303000  0.00000000  0.09587200  1
  Ti  Ti4  1  0.00000000  0.23697000  0.90412800  1
  Ti  Ti5  1  0.00000000  0.76303000  0.40412800  1
  Ti  Ti6  1  0.23697000  0.00000000  0.90412800  1
  Ti  Ti7  1  0.00000000  0.76303000  0.09587200  1
  Ti  Ti8  1  0.76303000  0.76303000  0.59587200  1
  Ti  Ti9  1  0.23697000  0.23697000  0.40412800  1
  Ti  Ti10  1  0.23697000  0.23697000  0.09587200  1
  Ti  Ti11  1  0.76303000  0.76303000  0.90412800  1
  O  O0  1  0.16710700  0.48026400  0.59962900  1
  O  O1  1  0.83289300  0.51973600  0.40037100  1
  O  O2  1  0.51973600  0.68684300  0.59962900  1
  O  O3  1  0.83289300  0.51973600  0.09962900  1
  O  O4  1  0.48026400  0.16710700  0.90037100  1
  O  O5  1  0.48026400  0.31315700  0.40037100  1
  O  O6  1  0.16710700  0.48026400  0.90037100  1
  O  O7  1  0.51973600  0.83289300  0.09962900  1
  O  O8  1  0.31315700  0.83289300  0.59962900  1
  O  O9  1  0.48026400  0.31315700  0.09962900  1
  O  O10  1  0.68684300  0.51973600  0.90037100  1
  O  O11  1  0.68684300  0.16710700  0.40037100  1
  O  O12  1  0.51973600  0.68684300  0.90037100  1
  O  O13  1  0.31315700  0.48026400  0.09962900  1
  O  O14  1  0.51973600  0.83289300  0.40037100  1
  O  O15  1  0.48026400  0.16710700  0.59962900  1
  O  O16  1  0.68684300  0.16710700  0.09962900  1
  O  O17  1  0.31315700  0.48026400  0.40037100  1
  O  O18  1  0.31315700  0.83289300  0.90037100  1
  O  O19  1  0.68684300  0.51973600  0.59962900  1
  O  O20  1  0.83289300  0.31315700  0.90037100  1
  O  O21  1  0.16710700  0.68684300  0.09962900  1
  O  O22  1  0.16710700  0.68684300  0.40037100  1
  O  O23  1  0.83289300  0.31315700  0.59962900  1
  O  O24  1  0.20121200  0.00000000  0.07393100  1
  O  O25  1  0.79878800  0.00000000  0.92606900  1
  O  O26  1  0.00000000  0.20121200  0.07393100  1
  O  O27  1  0.79878800  0.00000000  0.57393100  1
  O  O28  1  0.00000000  0.20121200  0.42606900  1
  O  O29  1  0.00000000  0.79878800  0.92606900  1
  O  O30  1  0.20121200  0.00000000  0.42606900  1
  O  O31  1  0.00000000  0.79878800  0.57393100  1
  O  O32  1  0.79878800  0.79878800  0.07393100  1
  O  O33  1  0.20121200  0.20121200  0.92606900  1
  O  O34  1  0.20121200  0.20121200  0.57393100  1
  O  O35  1  0.79878800  0.79878800  0.42606900  1
  O  O36  1  0.20473200  0.00000000  0.75000000  1
  O  O37  1  0.79526800  0.00000000  0.25000000  1
  O  O38  1  0.00000000  0.20473200  0.75000000  1
  O  O39  1  0.00000000  0.79526800  0.25000000  1
  O  O40  1  0.79526800  0.79526800  0.75000000  1
  O  O41  1  0.20473200  0.20473200  0.25000000  1
loop_
_geom_bond_atom_site_label_1
_geom_bond_atom_site_label_2
_geom_bond_distance
_geom_bond_site_symmetry_2
Ba0 O25 2.794067 1_555
Ba0 O27 2.794067 1_555
Ba0 O4 2.861247 1_555
Ba0 O15 2.861247 1_555
Ba0 O18 2.861248 1_545
Ba0 O8 2.861248 1_545
Ba0 O12 3.128929 1_545
Ba0 O2 3.128929 1_545
Ba0 O20 3.128929 1_555
Ba0 O23 3.128929 1_555
Ba0 O40 3.171230 1_545
Ba0 O38 3.171231 1_655
Ba1 O30 2.794067 1_555
Ba1 O24 2.794067 1_555
Ba1 O14 2.861247 1_545
Ba1 O7 2.861247 1_545
Ba1 O16 2.861248 1_555
Ba1 O11 2.861248 1_555
Ba1 O5 3.128929 1_555
Ba1 O9 3.128929 1_555
Ba1 O21 3.128929 1_545
Ba1 O22 3.128929 1_545
Ba1 O41 3.171230 1_555
Ba1 O39 3.171231 1_545
Ba2 O29 2.794067 1_555
Ba2 O31 2.794067 1_555
Ba2 O6 2.861247 1_555
Ba2 O0 2.861247 1_555
Ba2 O20 2.861248 1_455
Ba2 O23 2.861248 1_455
Ba2 O10 3.128929 1_455
Ba2 O19 3.128929 1_455
Ba2 O18 3.128929 1_555
Ba2 O8 3.128929 1_555
Ba2 O40 3.171230 1_455
Ba2 O36 3.171231 1_565
Ba3 O26 2.794067 1_555
Ba3 O28 2.794067 1_555
Ba3 O3 2.861247 1_455
Ba3 O1 2.861247 1_455
Ba3 O21 2.861248 1_555
Ba3 O22 2.861248 1_555
Ba3 O17 3.128929 1_555
Ba3 O13 3.128929 1_555
Ba3 O16 3.128929 1_455
Ba3 O11 3.128929 1_455
Ba3 O41 3.171230 1_555
Ba3 O37 3.171231 1_455
Ba4 O33 2.794067 1_555
Ba4 O34 2.794067 1_555
Ba4 O12 2.861247 1_555
Ba4 O10 2.861247 1_555
Ba4 O19 2.861247 1_555
Ba4 O2 2.861247 1_555
Ba4 O4 3.128929 1_555
Ba4 O6 3.128929 1_555
Ba4 O15 3.128929 1_555
Ba4 O0 3.128929 1_555
Ba4 O38 3.171231 1_555
Ba4 O36 3.171231 1_555
Ba5 O35 2.794067 1_555
Ba5 O32 2.794067 1_555
Ba5 O17 2.861247 1_555
Ba5 O5 2.861247 1_555
Ba5 O9 2.861247 1_555
Ba5 O13 2.861247 1_555
Ba5 O3 3.128929 1_555
Ba5 O7 3.128929 1_555
Ba5 O14 3.128929 1_555
Ba5 O1 3.128929 1_555
Ba5 O39 3.171231 1_655
Ba5 O37 3.171231 1_565
O0 Ti2 1.952311 1_555
O0 Ta0 1.997475 1_555
O1 Ti5 1.952311 1_655
O1 Ta1 1.997475 1_555
O2 Ti8 1.952311 1_555
O2 Ta0 1.997478 1_555
O3 Ti7 1.952311 1_655
O3 Ta2 1.997475 1_555
O4 Ti6 1.952311 1_555
O4 Ta2 1.997475 1_556
O5 Ti9 1.952311 1_555
O5 Ta1 1.997478 1_555
O6 Ti4 1.952311 1_555
O6 Ta3 1.997475 1_556
O7 Ti3 1.952311 1_565
O7 Ta3 1.997475 1_555
O8 Ti0 1.952310 1_565
O8 Ta0 1.997471 1_555
O9 Ti10 1.952311 1_555
O9 Ta2 1.997478 1_555
O10 Ti11 1.952311 1_555
O10 Ta2 1.997478 1_556
O11 Ti1 1.952310 1_555
O11 Ta1 1.997471 1_555
O12 Ti11 1.952311 1_555
O12 Ta3 1.997478 1_556
O13 Ti10 1.952311 1_555
O13 Ta3 1.997478 1_555
O14 Ti1 1.952311 1_565
O14 Ta0 1.997475 1_555
O15 Ti0 1.952311 1_555
O15 Ta1 1.997475 1_555
O16 Ti3 1.952310 1_555
O16 Ta2 1.997471 1_555
O17 Ti9 1.952311 1_555
O17 Ta0 1.997478 1_555
O18 Ti6 1.952310 1_565
O18 Ta3 1.997471 1_556
O19 Ti8 1.952311 1_555
O19 Ta1 1.997478 1_555
O20 Ti4 1.952310 1_655
O20 Ta2 1.997471 1_556
O21 Ti7 1.952310 1_555
O21 Ta3 1.997471 1_555
O22 Ti5 1.952310 1_555
O22 Ta0 1.997471 1_555
O23 Ti2 1.952310 1_655
O23 Ta1 1.997471 1_555
O24 Ti10 2.020668 1_555
O24 Ti7 2.020668 1_545
O24 Ti6 2.053744 1_554
O25 Ti11 2.020668 1_545
O25 Ti4 2.020668 1_655
O25 Ti3 2.053744 1_556
O26 Ti10 2.020668 1_555
O26 Ti3 2.020668 1_455
O26 Ti4 2.053744 1_554
O27 Ti8 2.020668 1_545
O27 Ti2 2.020668 1_655
O27 Ti1 2.053744 1_555
O28 Ti9 2.020668 1_555
O28 Ti1 2.020668 1_455
O28 Ti2 2.053744 1_555
O29 Ti11 2.020668 1_455
O29 Ti6 2.020668 1_565
O29 Ti7 2.053744 1_556
O30 Ti9 2.020668 1_555
O30 Ti5 2.020668 1_545
O30 Ti0 2.053744 1_555
O31 Ti8 2.020668 1_455
O31 Ti0 2.020668 1_565
O31 Ti5 2.053744 1_555
O32 Ti7 2.020668 1_655
O32 Ti3 2.020668 1_565
O32 Ti11 2.053744 1_554
O33 Ti6 2.020668 1_555
O33 Ti4 2.020668 1_555
O33 Ti10 2.053744 1_556
O34 Ti0 2.020668 1_555
O34 Ti2 2.020668 1_555
O34 Ti9 2.053744 1_555
O35 Ti5 2.020668 1_655
O35 Ti1 2.020668 1_565
O35 Ti8 2.053744 1_555
O36 Ti6 1.863845 1_555
O36 Ti0 1.863845 1_555
O37 Ti3 1.863845 1_555
O37 Ti1 1.863845 1_555
O38 Ti4 1.863845 1_555
O38 Ti2 1.863845 1_555
O39 Ti7 1.863845 1_555
O39 Ti5 1.863845 1_555
O40 Ti11 1.863845 1_555
O40 Ti8 1.863845 1_555
O41 Ti9 1.863845 1_555
O41 Ti10 1.863845 1_555
