# generated using pymatgen
data_MgFe2CoO7
_symmetry_space_group_name_H-M   'P 1'
_cell_length_a   7.13981446
_cell_length_b   10.87651818
_cell_length_c   13.33319700
_cell_angle_alpha   90.00000000
_cell_angle_beta   90.00000000
_cell_angle_gamma   108.38413094
_symmetry_Int_Tables_number   1
_chemical_formula_structural   MgFe2CoO7
_chemical_formula_sum   'Mg8 Fe16 Co8 O56'
_cell_volume   982.56338203
_cell_formula_units_Z   8
loop_
 _symmetry_equiv_pos_site_id
 _symmetry_equiv_pos_as_xyz
  1  'x, y, z'
loop_
 _atom_site_type_symbol
 _atom_site_label
 _atom_site_symmetry_multiplicity
 _atom_site_fract_x
 _atom_site_fract_y
 _atom_site_fract_z
 _atom_site_occupancy
  Mg  Mg0  1  0.04881400  0.77282000  0.48846900  1
  Mg  Mg1  1  0.31233800  0.94626100  0.86261700  1
  Mg  Mg2  1  0.68766200  0.55373900  0.36261700  1
  Mg  Mg3  1  0.68766200  0.05373900  0.13738300  1
  Mg  Mg4  1  0.31233800  0.44626100  0.63738300  1
  Mg  Mg5  1  0.04881400  0.27282000  0.01153100  1
  Mg  Mg6  1  0.95118600  0.22718000  0.51153100  1
  Mg  Mg7  1  0.95118600  0.72718000  0.98846900  1
  Fe  Fe0  1  0.82661700  0.97018200  0.87854300  1
  Fe  Fe1  1  0.41436100  0.68557900  0.00799000  1
  Fe  Fe2  1  0.41436100  0.18557900  0.49201000  1
  Fe  Fe3  1  0.58563900  0.31442100  0.99201000  1
  Fe  Fe4  1  0.47142700  0.76501700  0.71516300  1
  Fe  Fe5  1  0.52857300  0.73498300  0.21516300  1
  Fe  Fe6  1  0.52857300  0.23498300  0.28483700  1
  Fe  Fe7  1  0.47142700  0.26501700  0.78483700  1
  Fe  Fe8  1  0.58563900  0.81442100  0.50799000  1
  Fe  Fe9  1  0.87746000  0.45894800  0.15535000  1
  Fe  Fe10  1  0.12254000  0.04105200  0.65535000  1
  Fe  Fe11  1  0.12254000  0.54105200  0.84465000  1
  Fe  Fe12  1  0.17338300  0.52981800  0.37854300  1
  Fe  Fe13  1  0.82661700  0.47018200  0.62145700  1
  Fe  Fe14  1  0.17338300  0.02981800  0.12145700  1
  Fe  Fe15  1  0.87746000  0.95894800  0.34465000  1
  Co  Co0  1  0.62123300  0.06791700  0.68314400  1
  Co  Co1  1  0.37876700  0.43208300  0.18314400  1
  Co  Co2  1  0.37876700  0.93208300  0.31685600  1
  Co  Co3  1  0.62123300  0.56791700  0.81685600  1
  Co  Co4  1  0.97787600  0.24793100  0.76706600  1
  Co  Co5  1  0.02212400  0.25206900  0.26706600  1
  Co  Co6  1  0.02212400  0.75206900  0.23293400  1
  Co  Co7  1  0.97787600  0.74793100  0.73293400  1
  O  O0  1  0.75883600  0.96836400  0.01072300  1
  O  O1  1  0.24116400  0.53163600  0.51072300  1
  O  O2  1  0.24116400  0.03163600  0.98927700  1
  O  O3  1  0.75883600  0.46836400  0.48927700  1
  O  O4  1  0.99346000  0.87138000  0.84609800  1
  O  O5  1  0.00654000  0.62862000  0.34609800  1
  O  O6  1  0.00654000  0.12862000  0.15390200  1
  O  O7  1  0.99346000  0.37138000  0.65390200  1
  O  O8  1  0.99437700  0.14334800  0.87528800  1
  O  O9  1  0.00562300  0.35665200  0.37528800  1
  O  O10  1  0.00562300  0.85665200  0.12471200  1
  O  O11  1  0.99437700  0.64334800  0.62471200  1
  O  O12  1  0.63640900  0.92634900  0.26974000  1
  O  O13  1  0.36359100  0.57365100  0.76974000  1
  O  O14  1  0.36359100  0.07365100  0.73026000  1
  O  O15  1  0.63640900  0.42634900  0.23026000  1
  O  O16  1  0.99148400  0.13816400  0.36777100  1
  O  O17  1  0.00851600  0.36183600  0.86777100  1
  O  O18  1  0.00851600  0.86183600  0.63222900  1
  O  O19  1  0.99148400  0.63816400  0.13222900  1
  O  O20  1  0.09521200  0.89175500  0.33495000  1
  O  O21  1  0.36285600  0.82910300  0.42769000  1
  O  O22  1  0.90478800  0.60824500  0.83495100  1
  O  O23  1  0.09521200  0.39175500  0.16504900  1
  O  O24  1  0.73386800  0.71243700  0.46045900  1
  O  O25  1  0.26613200  0.78756300  0.96045900  1
  O  O26  1  0.26613200  0.28756300  0.53954100  1
  O  O27  1  0.73386800  0.21243700  0.03954100  1
  O  O28  1  0.79546000  0.95494500  0.47790000  1
  O  O29  1  0.20454000  0.54505500  0.97790000  1
  O  O30  1  0.20454000  0.04505500  0.52210000  1
  O  O31  1  0.79546000  0.45494500  0.02210000  1
  O  O32  1  0.43702700  0.17335200  0.91362700  1
  O  O33  1  0.56297300  0.32664800  0.41362700  1
  O  O34  1  0.56297300  0.82664800  0.08637300  1
  O  O35  1  0.43702700  0.67335200  0.58637300  1
  O  O36  1  0.70960100  0.20846400  0.76753600  1
  O  O37  1  0.29039900  0.29153600  0.26753600  1
  O  O38  1  0.29039900  0.79153600  0.23246400  1
  O  O39  1  0.70960100  0.70846400  0.73246400  1
  O  O40  1  0.59298800  0.44238600  0.70083400  1
  O  O41  1  0.40701200  0.05761400  0.20083400  1
  O  O42  1  0.40701200  0.55761400  0.29916600  1
  O  O43  1  0.59298800  0.94238600  0.79916600  1
  O  O44  1  0.22770000  0.27619300  0.73217200  1
  O  O45  1  0.77230000  0.22380700  0.23217200  1
  O  O46  1  0.77230000  0.72380700  0.26782800  1
  O  O47  1  0.22770000  0.77619300  0.76782800  1
  O  O48  1  0.52480100  0.40744000  0.88102200  1
  O  O49  1  0.47519900  0.09256000  0.38102200  1
  O  O50  1  0.47519900  0.59256000  0.11897800  1
  O  O51  1  0.52480100  0.90744000  0.61897800  1
  O  O52  1  0.36285600  0.32910300  0.07231000  1
  O  O53  1  0.63714400  0.17089700  0.57231000  1
  O  O54  1  0.63714400  0.67089700  0.92769000  1
  O  O55  1  0.90478800  0.10824500  0.66504900  1
loop_
_geom_bond_atom_site_label_1
_geom_bond_atom_site_label_2
_geom_bond_distance
_geom_bond_site_symmetry_2
Mg0 O24 2.166961 1_455
Mg0 O18 2.206790 1_555
Mg0 O11 2.255823 1_455
Mg0 O21 2.278844 1_555
Mg0 O20 2.388017 1_555
Mg0 O5 2.419867 1_555
Mg1 O2 2.066431 1_565
Mg1 O25 2.104958 1_555
Mg1 O47 2.163090 1_555
Mg1 O4 2.173869 1_455
Mg1 O43 2.187679 1_555
Mg1 O14 2.201858 1_565
Mg1 O32 2.443118 1_565
Mg2 O3 2.066431 1_555
Mg2 O24 2.104958 1_555
Mg2 O46 2.163090 1_555
Mg2 O5 2.173869 1_655
Mg2 O42 2.187679 1_555
Mg2 O15 2.201858 1_555
Mg2 O33 2.443118 1_555
Mg3 O0 2.066431 1_545
Mg3 O27 2.104958 1_555
Mg3 O45 2.163090 1_555
Mg3 O6 2.173869 1_655
Mg3 O41 2.187679 1_555
Mg3 O12 2.201858 1_545
Mg3 O34 2.443118 1_545
Mg4 O1 2.066431 1_555
Mg4 O26 2.104958 1_555
Mg4 O44 2.163090 1_555
Mg4 O7 2.173869 1_455
Mg4 O40 2.187679 1_555
Mg4 O13 2.201858 1_555
Mg4 O35 2.443118 1_555
Mg5 O27 2.166961 1_455
Mg5 O17 2.206790 1_554
Mg5 O8 2.255823 1_454
Mg5 O52 2.278844 1_555
Mg5 O23 2.388006 1_555
Mg5 O6 2.419867 1_555
Mg6 O26 2.166961 1_655
Mg6 O16 2.206790 1_555
Mg6 O9 2.255823 1_655
Mg6 O53 2.278844 1_555
Mg6 O55 2.388006 1_555
Mg6 O7 2.419867 1_555
Mg7 O25 2.166961 1_655
Mg7 O19 2.206790 1_556
Mg7 O10 2.255823 1_656
Mg7 O54 2.278844 1_555
Mg7 O22 2.388006 1_555
Mg7 O4 2.419867 1_555
Fe0 O0 1.826074 1_556
Fe0 O8 1.887040 1_565
Fe0 O4 1.889031 1_555
Fe0 O43 1.917252 1_555
Fe1 O29 1.815759 1_554
Fe1 O25 1.868839 1_554
Fe1 O34 1.882913 1_555
Fe1 O50 1.918162 1_555
Fe1 O54 1.965229 1_554
Fe2 O30 1.815759 1_555
Fe2 O26 1.868839 1_555
Fe2 O33 1.882913 1_555
Fe2 O49 1.918162 1_555
Fe2 O53 1.965229 1_555
Fe3 O31 1.815759 1_556
Fe3 O27 1.868839 1_556
Fe3 O32 1.882913 1_555
Fe3 O48 1.918162 1_555
Fe3 O52 1.965229 1_556
Fe4 O47 1.915582 1_555
Fe4 O51 1.953755 1_555
Fe4 O35 1.961780 1_555
Fe4 O39 1.995771 1_555
Fe4 O13 2.108008 1_555
Fe4 O43 2.161773 1_555
Fe5 O46 1.915582 1_555
Fe5 O50 1.953755 1_555
Fe5 O34 1.961780 1_555
Fe5 O38 1.995771 1_555
Fe5 O12 2.108008 1_555
Fe5 O42 2.161773 1_555
Fe6 O45 1.915582 1_555
Fe6 O49 1.953755 1_555
Fe6 O33 1.961780 1_555
Fe6 O37 1.995771 1_555
Fe6 O15 2.108008 1_555
Fe6 O41 2.161773 1_555
Fe7 O44 1.915582 1_555
Fe7 O48 1.953755 1_555
Fe7 O32 1.961780 1_555
Fe7 O36 1.995771 1_555
Fe7 O14 2.108008 1_555
Fe7 O40 2.161773 1_555
Fe8 O28 1.815759 1_555
Fe8 O24 1.868839 1_555
Fe8 O35 1.882913 1_555
Fe8 O51 1.918162 1_555
Fe8 O21 1.965229 1_555
Fe9 O31 1.866833 1_555
Fe9 O19 1.885841 1_555
Fe9 O23 1.919543 1_655
Fe9 O15 1.923650 1_555
Fe10 O30 1.866833 1_555
Fe10 O18 1.885841 1_545
Fe10 O55 1.919543 1_455
Fe10 O14 1.923650 1_555
Fe11 O29 1.866833 1_555
Fe11 O17 1.885841 1_555
Fe11 O22 1.919543 1_455
Fe11 O13 1.923650 1_555
Fe12 O1 1.826074 1_555
Fe12 O9 1.887040 1_555
Fe12 O5 1.889031 1_555
Fe12 O42 1.917252 1_555
Fe13 O3 1.826074 1_555
Fe13 O11 1.887040 1_555
Fe13 O7 1.889031 1_555
Fe13 O40 1.917252 1_555
Fe14 O2 1.826074 1_554
Fe14 O10 1.887040 1_545
Fe14 O6 1.889031 1_555
Fe14 O41 1.917252 1_555
Fe15 O28 1.866833 1_555
Fe15 O16 1.885841 1_565
Fe15 O20 1.919544 1_655
Fe15 O12 1.923650 1_555
Co0 O53 1.836027 1_555
Co0 O36 1.841907 1_555
Co0 O51 1.869356 1_545
Co0 O55 1.946584 1_555
Co0 O14 1.963343 1_555
Co0 O43 2.030808 1_545
Co1 O52 1.836027 1_555
Co1 O37 1.841907 1_555
Co1 O50 1.869356 1_555
Co1 O23 1.946584 1_555
Co1 O15 1.963343 1_555
Co1 O42 2.030808 1_555
Co2 O21 1.836027 1_555
Co2 O38 1.841907 1_555
Co2 O49 1.869356 1_565
Co2 O20 1.946582 1_555
Co2 O12 1.963343 1_555
Co2 O41 2.030808 1_565
Co3 O54 1.836027 1_555
Co3 O39 1.841907 1_555
Co3 O48 1.869356 1_555
Co3 O22 1.946584 1_555
Co3 O13 1.963343 1_555
Co3 O40 2.030808 1_555
Co4 O44 1.773886 1_655
Co4 O17 1.792944 1_655
Co4 O36 1.826077 1_555
Co4 O8 1.863976 1_555
Co4 O55 1.982590 1_555
Co4 O7 1.999392 1_555
Co5 O45 1.773886 1_455
Co5 O16 1.792944 1_455
Co5 O37 1.826077 1_555
Co5 O9 1.863976 1_555
Co5 O23 1.982590 1_555
Co5 O6 1.999392 1_555
Co6 O46 1.773886 1_455
Co6 O19 1.792944 1_455
Co6 O38 1.826077 1_555
Co6 O10 1.863976 1_555
Co6 O20 1.982581 1_555
Co6 O5 1.999392 1_555
Co7 O47 1.773886 1_655
Co7 O18 1.792944 1_655
Co7 O39 1.826077 1_555
Co7 O11 1.863976 1_555
Co7 O22 1.982590 1_555
Co7 O4 1.999392 1_555
