# generated using pymatgen
data_GdDyAl4
_symmetry_space_group_name_H-M   'P 1'
_cell_length_a   5.55309592
_cell_length_b   5.55309592
_cell_length_c   5.55309592
_cell_angle_alpha   60.00000000
_cell_angle_beta   60.00000000
_cell_angle_gamma   60.00000000
_symmetry_Int_Tables_number   1
_chemical_formula_structural   GdDyAl4
_chemical_formula_sum   'Gd1 Dy1 Al4'
_cell_volume   121.08505051
_cell_formula_units_Z   1
loop_
 _symmetry_equiv_pos_site_id
 _symmetry_equiv_pos_as_xyz
  1  'x, y, z'
loop_
 _atom_site_type_symbol
 _atom_site_label
 _atom_site_symmetry_multiplicity
 _atom_site_fract_x
 _atom_site_fract_y
 _atom_site_fract_z
 _atom_site_occupancy
  Gd  Gd0  1  0.00000000  -0.00000000  -0.00000000  1
  Dy  Dy0  1  0.25000000  0.25000000  0.25000000  1
  Al  Al0  1  0.62496957  0.62496957  0.12509129  1
  Al  Al1  1  0.62496957  0.12509129  0.62496957  1
  Al  Al2  1  0.12509129  0.62496957  0.62496957  1
  Al  Al3  1  0.62496957  0.62496957  0.62496957  1
loop_
_geom_bond_atom_site_label_1
_geom_bond_atom_site_label_2
_geom_bond_distance
_geom_bond_site_symmetry_2
Dy0 Gd0 3.400563 1_556
Dy0 Gd0 3.400563 1_565
Dy0 Gd0 3.400563 1_555
Dy0 Gd0 3.400563 1_655
Al0 Al1 2.775872 1_555
Al0 Al2 2.775872 1_555
Al0 Al3 2.775872 1_555
Al0 Al3 2.777224 1_554
Al0 Al2 2.777224 1_654
Al0 Al1 2.777224 1_564
Al0 Dy0 3.255719 1_555
Al0 Dy0 3.255719 1_565
Al0 Dy0 3.255719 1_655
Al0 Gd0 3.255863 1_565
Al0 Gd0 3.255863 1_655
Al0 Gd0 3.255863 1_665
Al1 Al2 2.775872 1_555
Al1 Al3 2.775872 1_555
Al1 Al3 2.777224 1_545
Al1 Al2 2.777224 1_645
Al1 Dy0 3.255719 1_555
Al1 Dy0 3.255719 1_655
Al1 Dy0 3.255719 1_556
Al1 Gd0 3.255863 1_655
Al1 Gd0 3.255863 1_656
Al1 Gd0 3.255863 1_556
Al2 Al3 2.775872 1_555
Al2 Al3 2.777224 1_455
Al2 Dy0 3.255719 1_555
Al2 Dy0 3.255719 1_556
Al2 Dy0 3.255719 1_565
Al2 Gd0 3.255863 1_565
Al2 Gd0 3.255863 1_566
Al2 Gd0 3.255863 1_556
Al3 Dy0 3.255719 1_655
Al3 Dy0 3.255719 1_556
Al3 Dy0 3.255719 1_565
Al3 Gd0 3.255863 1_566
Al3 Gd0 3.255863 1_656
Al3 Gd0 3.255863 1_665
