# generated using pymatgen
data_Li6Zn3(PS4)4
_symmetry_space_group_name_H-M   'P 1'
_cell_length_a   9.12758334
_cell_length_b   11.50695332
_cell_length_c   22.97533952
_cell_angle_alpha   89.89407205
_cell_angle_beta   90.00967199
_cell_angle_gamma   89.95108936
_symmetry_Int_Tables_number   1
_chemical_formula_structural   Li6Zn3(PS4)4
_chemical_formula_sum   'Li24 Zn12 P16 S64'
_cell_volume   2413.11038945
_cell_formula_units_Z   4
loop_
 _symmetry_equiv_pos_site_id
 _symmetry_equiv_pos_as_xyz
  1  'x, y, z'
loop_
 _atom_site_type_symbol
 _atom_site_label
 _atom_site_symmetry_multiplicity
 _atom_site_fract_x
 _atom_site_fract_y
 _atom_site_fract_z
 _atom_site_occupancy
  Li  Li0  1  0.74692958  0.99432618  0.62681807  1
  Li  Li1  1  0.74746450  0.99383607  0.87317902  1
  Li  Li2  1  0.25232949  0.75154625  0.74897383  1
  Li  Li3  1  0.24815738  0.73890280  0.99851095  1
  Li  Li4  1  0.50558421  0.49807165  0.25117462  1
  Li  Li5  1  0.50314483  0.00005299  0.25004705  1
  Li  Li6  1  0.50009388  0.50180041  0.50130529  1
  Li  Li7  1  0.49852144  -0.00002110  0.49596694  1
  Li  Li8  1  0.00611927  0.75223016  0.37377584  1
  Li  Li9  1  0.00281301  0.25036564  0.37491170  1
  Li  Li10  1  0.50437361  0.49979992  0.75033338  1
  Li  Li11  1  0.49276801  0.00191210  0.74901517  1
  Li  Li12  1  0.00510446  0.74819457  0.62156538  1
  Li  Li13  1  0.00114327  0.25192830  0.62500508  1
  Li  Li14  1  0.50943877  0.49767207  0.99882693  1
  Li  Li15  1  0.49309862  0.00199767  0.00337067  1
  Li  Li16  1  0.99386317  0.74703665  0.87418347  1
  Li  Li17  1  0.00072352  0.25345922  0.87600443  1
  Li  Li18  1  0.99692283  0.74973942  0.12755253  1
  Li  Li19  1  0.00099912  0.25171882  0.12481248  1
  Li  Li20  1  0.50001398  0.74770886  0.62321441  1
  Li  Li21  1  0.51053311  0.74723708  0.87608671  1
  Li  Li22  1  0.00835275  0.00209312  0.74878040  1
  Li  Li23  1  0.99242559  0.49793042  0.00070254  1
  Zn  Zn0  1  0.49947202  0.25164912  0.12415606  1
  Zn  Zn1  1  0.50667065  0.74786171  0.12766782  1
  Zn  Zn2  1  0.50071999  0.25009845  0.37408545  1
  Zn  Zn3  1  0.49950331  0.75070905  0.37572767  1
  Zn  Zn4  1  0.00174777  0.49922833  0.25004864  1
  Zn  Zn5  1  0.99762745  0.00089148  0.25014464  1
  Zn  Zn6  1  0.49099548  0.25004852  0.62540203  1
  Zn  Zn7  1  0.00002340  0.49993934  0.49977254  1
  Zn  Zn8  1  0.00554596  0.00160036  0.49832358  1
  Zn  Zn9  1  0.49160251  0.25261032  0.87549872  1
  Zn  Zn10  1  0.99146977  0.50010113  0.74989639  1
  Zn  Zn11  1  0.99963418  0.00035433  0.00196467  1
  P  P0  1  0.75064642  0.24968745  0.24980190  1
  P  P1  1  0.75100382  0.74990222  0.25104171  1
  P  P2  1  0.75135235  0.24953522  0.49973380  1
  P  P3  1  0.74983644  0.74578687  0.49897706  1
  P  P4  1  0.25092352  0.49997759  0.37518714  1
  P  P5  1  0.25087286  0.00093758  0.37388768  1
  P  P6  1  0.74726983  0.24949820  0.74734350  1
  P  P7  1  0.75054055  0.75185009  0.75134280  1
  P  P8  1  0.24571873  0.49841316  0.62764900  1
  P  P9  1  0.25339948  0.99674428  0.62144676  1
  P  P10  1  0.74575787  0.24683645  0.00178814  1
  P  P11  1  0.75182371  0.75879894  0.99992619  1
  P  P12  1  0.24837131  0.49567376  0.87702902  1
  P  P13  1  0.24913717  0.00271287  0.87416242  1
  P  P14  1  0.25410027  0.50499890  0.12590884  1
  P  P15  1  0.24770270  0.00008315  0.12561127  1
  S  S0  1  0.86194266  0.35336470  0.05215201  1
  S  S1  1  0.86870788  0.86474316  0.05522630  1
  S  S2  1  0.86576055  0.36104178  0.30213045  1
  S  S3  1  0.86686834  0.86151226  0.30280980  1
  S  S4  1  0.37170979  0.61176762  0.17974398  1
  S  S5  1  0.36719475  0.10952206  0.17667687  1
  S  S6  1  0.86510636  0.36020200  0.55209951  1
  S  S7  1  0.87118975  0.86124020  0.55038585  1
  S  S8  1  0.36545644  0.61134725  0.42754928  1
  S  S9  1  0.36386119  0.11346193  0.42611244  1
  S  S10  1  0.86013523  0.35843876  0.80113757  1
  S  S11  1  0.87542918  0.86003630  0.80208261  1
  S  S12  1  0.36834158  0.60623478  0.67787806  1
  S  S13  1  0.36060990  0.11033887  0.67643694  1
  S  S14  1  0.37101344  0.60597810  0.92676539  1
  S  S15  1  0.37121814  0.10711144  0.92765589  1
  S  S16  1  0.63454012  0.64637294  0.30663984  1
  S  S17  1  0.63640819  0.14488122  0.30591165  1
  S  S18  1  0.64094640  0.64364004  0.55407942  1
  S  S19  1  0.62783076  0.14529454  0.55504101  1
  S  S20  1  0.13721109  0.89613117  0.42988517  1
  S  S21  1  0.13608384  0.39504005  0.43096754  1
  S  S22  1  0.63303707  0.64614166  0.80255630  1
  S  S23  1  0.62539244  0.14626067  0.80406627  1
  S  S24  1  0.13110049  0.89410914  0.67581797  1
  S  S25  1  0.12742788  0.39360276  0.68198149  1
  S  S26  1  0.63185945  0.65196461  0.05417808  1
  S  S27  1  0.62732269  0.14116193  0.05585379  1
  S  S28  1  0.13026539  0.89480059  0.93089588  1
  S  S29  1  0.12845433  0.39559160  0.92928397  1
  S  S30  1  0.13272885  0.89602918  0.18114213  1
  S  S31  1  0.13753504  0.39812068  0.18044918  1
  S  S32  1  0.86566057  0.13879657  0.19728122  1
  S  S33  1  0.86383366  0.63749064  0.19868273  1
  S  S34  1  0.86375572  0.13780836  0.44712727  1
  S  S35  1  0.87630850  0.64252148  0.44664257  1
  S  S36  1  0.36613014  0.38886774  0.32265164  1
  S  S37  1  0.36650016  0.88901062  0.32216377  1
  S  S38  1  0.86718010  0.14071872  0.69681654  1
  S  S39  1  0.87518766  0.64744895  0.69770383  1
  S  S40  1  0.36098192  0.38901432  0.57395417  1
  S  S41  1  0.37605571  0.89528806  0.57029150  1
  S  S42  1  0.86694772  0.13578274  0.94802334  1
  S  S43  1  0.86738329  0.64997965  0.94959562  1
  S  S44  1  0.36695328  0.39134718  0.82206477  1
  S  S45  1  0.37045560  0.89207416  0.82410965  1
  S  S46  1  0.36840419  0.39370582  0.07298159  1
  S  S47  1  0.36768311  0.88599852  0.07460115  1
  S  S48  1  0.63390790  0.35347888  0.19433134  1
  S  S49  1  0.63852577  0.85603858  0.19491699  1
  S  S50  1  0.63134134  0.35284188  0.44541757  1
  S  S51  1  0.63869997  0.85398369  0.44308769  1
  S  S52  1  0.13571197  0.60395882  0.31911579  1
  S  S53  1  0.13451878  0.10511283  0.31827439  1
  S  S54  1  0.62761220  0.35394053  0.69372867  1
  S  S55  1  0.62764977  0.85480795  0.69672015  1
  S  S56  1  0.13454092  0.60190526  0.56982924  1
  S  S57  1  0.12810915  0.10470899  0.56978875  1
  S  S58  1  0.63533837  0.35006569  0.94359310  1
  S  S59  1  0.62442391  0.86287008  0.94841803  1
  S  S60  1  0.12927315  0.60258801  0.81993797  1
  S  S61  1  0.12590606  0.10477226  0.82372563  1
  S  S62  1  0.12940897  0.60578234  0.07238208  1
  S  S63  1  0.13853629  0.10574354  0.06881121  1
loop_
_geom_bond_atom_site_label_1
_geom_bond_atom_site_label_2
_geom_bond_distance
_geom_bond_site_symmetry_2
Li0 S55 2.517162 1_555
Li0 S38 2.577087 1_565
Li0 S7 2.592877 1_555
Li0 S19 2.627676 1_565
Li1 S11 2.531753 1_555
Li1 S59 2.552351 1_555
Li1 S23 2.612464 1_565
Li1 S42 2.612859 1_565
Li2 S12 2.567684 1_555
Li2 S24 2.593575 1_555
Li2 S45 2.601933 1_555
Li2 S60 2.617525 1_555
Li3 S14 2.514202 1_555
Li3 S62 2.528959 1_556
Li3 S28 2.602915 1_555
Li3 S47 2.669244 1_556
Li4 S48 2.418896 1_555
Li4 S4 2.426273 1_555
Li4 S36 2.427330 1_555
Li4 S16 2.435667 1_555
Li5 S49 2.425347 1_545
Li5 S17 2.432103 1_555
Li5 S37 2.434994 1_545
Li5 S5 2.440682 1_555
Li6 S18 2.407759 1_555
Li6 S8 2.441216 1_555
Li6 S50 2.455004 1_555
Li6 S40 2.465391 1_555
Li7 S41 2.368986 1_545
Li7 S9 2.404292 1_555
Li7 S51 2.437169 1_545
Li7 S19 2.458141 1_555
Li8 S35 2.407431 1_455
Li8 S3 2.417486 1_455
Li8 S20 2.417898 1_555
Li8 S52 2.427391 1_555
Li9 S21 2.433250 1_555
Li9 S53 2.436644 1_555
Li9 S2 2.443702 1_455
Li9 S34 2.457026 1_455
Li10 S22 2.380094 1_555
Li10 S54 2.403960 1_555
Li10 S12 2.408737 1_555
Li10 S44 2.417138 1_555
Li11 S13 2.404460 1_555
Li11 S45 2.411547 1_545
Li11 S55 2.414347 1_545
Li11 S23 2.415537 1_555
Li12 S56 2.376306 1_555
Li12 S24 2.388720 1_555
Li12 S39 2.409507 1_455
Li12 S7 2.418545 1_455
Li13 S25 2.389676 1_555
Li13 S57 2.413979 1_555
Li13 S38 2.418765 1_455
Li13 S6 2.426669 1_455
Li14 S58 2.412675 1_555
Li14 S14 2.424812 1_555
Li14 S46 2.446813 1_556
Li14 S26 2.455459 1_556
Li15 S27 2.351447 1_555
Li15 S59 2.366133 1_544
Li15 S15 2.390809 1_554
Li15 S47 2.401157 1_545
Li16 S43 2.361730 1_555
Li16 S11 2.364845 1_555
Li16 S60 2.418338 1_655
Li16 S28 2.479955 1_655
Li17 S29 2.354313 1_555
Li17 S61 2.383334 1_555
Li17 S10 2.460401 1_455
Li17 S42 2.461231 1_455
Li18 S33 2.410461 1_555
Li18 S62 2.412041 1_655
Li18 S1 2.422953 1_555
Li18 S30 2.428351 1_655
Li19 S0 2.399054 1_455
Li19 S32 2.445825 1_455
Li19 S31 2.456852 1_555
Li19 S63 2.461276 1_555
Li20 S18 2.370001 1_555
Li20 S41 2.372990 1_555
Li20 S12 2.380805 1_555
Li20 S55 2.395330 1_555
Li21 S22 2.337364 1_555
Li21 S14 2.369945 1_555
Li21 S59 2.371238 1_555
Li21 S45 2.413915 1_555
Li22 S61 2.349735 1_555
Li22 S24 2.369664 1_545
Li22 S38 2.370491 1_455
Li22 S11 2.374931 1_445
Li23 S0 2.362120 1_555
Li23 S29 2.371949 1_654
Li23 S43 2.393974 1_554
Li23 S62 2.413541 1_655
P0 S48 2.043957 1_555
P0 S32 2.047001 1_555
P0 S2 2.049114 1_555
P0 S17 2.049496 1_555
P1 S16 2.044005 1_555
P1 S33 2.045684 1_555
P1 S3 2.046957 1_555
P1 S49 2.049381 1_555
P2 S6 2.038310 1_555
P2 S50 2.040149 1_555
P2 S34 2.042114 1_555
P2 S19 2.078888 1_555
P3 S18 1.992252 1_555
P3 S35 2.047870 1_555
P3 S51 2.054126 1_555
P3 S7 2.096383 1_555
P4 S52 2.046656 1_555
P4 S8 2.046961 1_555
P4 S21 2.048450 1_555
P4 S36 2.049675 1_555
P5 S20 2.045202 1_545
P5 S9 2.046329 1_555
P5 S37 2.046618 1_545
P5 S53 2.046753 1_555
P6 S38 2.028745 1_555
P6 S54 2.036279 1_555
P6 S10 2.041514 1_555
P6 S23 2.084269 1_555
P7 S22 2.002936 1_555
P7 S11 2.053181 1_555
P7 S55 2.056334 1_555
P7 S39 2.063976 1_555
P8 S12 2.032503 1_555
P8 S25 2.043455 1_555
P8 S56 2.050447 1_555
P8 S40 2.053628 1_555
P9 S41 2.000247 1_555
P9 S24 2.049067 1_555
P9 S57 2.061926 1_565
P9 S13 2.066467 1_565
P10 S0 1.993301 1_555
P10 S27 2.046307 1_555
P10 S58 2.050882 1_554
P10 S42 2.094368 1_554
P11 S43 2.005292 1_555
P11 S59 2.044193 1_555
P11 S1 2.060622 1_556
P11 S26 2.064220 1_556
P12 S29 1.990775 1_555
P12 S14 2.043844 1_555
P12 S44 2.052131 1_555
P12 S60 2.099300 1_555
P13 S61 1.994862 1_555
P13 S45 2.042773 1_545
P13 S15 2.050029 1_555
P13 S28 2.101191 1_545
P14 S62 2.035845 1_555
P14 S4 2.049169 1_555
P14 S46 2.052115 1_555
P14 S31 2.052248 1_555
P15 S5 2.039440 1_555
P15 S30 2.039525 1_545
P15 S63 2.041019 1_555
P15 S47 2.073611 1_545
S1 Zn11 2.314576 1_565
S2 Zn4 2.344735 1_655
S3 Zn5 2.336114 1_565
S4 Zn1 2.323432 1_555
S5 Zn0 2.363280 1_555
S6 Zn7 2.354592 1_655
S7 Zn8 2.353729 1_665
S8 Zn3 2.341580 1_555
S9 Zn2 2.336290 1_555
S10 Zn10 2.340297 1_555
S13 Zn6 2.317857 1_555
S15 Zn9 2.332953 1_555
S16 Zn3 2.342088 1_555
S17 Zn2 2.336282 1_555
S19 Zn6 2.373086 1_555
S20 Zn8 2.322674 1_565
S21 Zn7 2.345952 1_555
S23 Zn9 2.384933 1_555
S25 Zn10 2.341295 1_455
S26 Zn1 2.319403 1_555
S27 Zn0 2.333723 1_555
S28 Zn11 2.359788 1_466
S30 Zn5 2.344184 1_465
S31 Zn4 2.334919 1_555
S32 Zn5 2.330949 1_555
S33 Zn4 2.344725 1_655
S34 Zn8 2.346122 1_655
S35 Zn7 2.333668 1_655
S36 Zn2 2.333365 1_555
S37 Zn3 2.347315 1_555
S39 Zn10 2.329858 1_555
S40 Zn6 2.313398 1_555
S42 Zn11 2.328162 1_556
S44 Zn9 2.310718 1_555
S46 Zn0 2.339814 1_555
S47 Zn1 2.368838 1_555
S48 Zn0 2.342434 1_555
S49 Zn1 2.322550 1_555
S50 Zn2 2.348204 1_555
S51 Zn3 2.330305 1_555
S52 Zn4 2.339764 1_555
S53 Zn5 2.336340 1_455
S54 Zn6 2.336090 1_555
S56 Zn7 2.341736 1_555
S57 Zn8 2.316033 1_555
S58 Zn9 2.331255 1_555
S60 Zn10 2.360371 1_455
S63 Zn11 2.333599 1_455
