# generated using pymatgen
data_Li3NbN2
_symmetry_space_group_name_H-M   'P 1'
_cell_length_a   8.62965218
_cell_length_b   9.96466379
_cell_length_c   9.96466370
_cell_angle_alpha   90.00000364
_cell_angle_beta   125.26439096
_cell_angle_gamma   54.73560940
_symmetry_Int_Tables_number   1
_chemical_formula_structural   Li3NbN2
_chemical_formula_sum   'Li24 Nb8 N16'
_cell_volume   494.71828748
_cell_formula_units_Z   8
loop_
 _symmetry_equiv_pos_site_id
 _symmetry_equiv_pos_as_xyz
  1  'x, y, z'
loop_
 _atom_site_type_symbol
 _atom_site_label
 _atom_site_symmetry_multiplicity
 _atom_site_fract_x
 _atom_site_fract_y
 _atom_site_fract_z
 _atom_site_occupancy
  Li  Li0  1  0.21358583  0.05524698  0.99695023  1
  Li  Li1  1  0.78641417  0.76883280  0.50304977  1
  Li  Li2  1  0.78641417  0.44475302  0.78336440  1
  Li  Li3  1  0.21358583  0.73116720  0.71663560  1
  Li  Li4  1  0.21968537  0.78336440  0.27188257  1
  Li  Li5  1  0.78031463  0.71663560  0.05219721  1
  Li  Li6  1  0.21968537  0.99695023  0.44780279  1
  Li  Li7  1  0.78031463  0.50304977  0.22811743  1
  Li  Li8  1  0.67592022  0.05219721  0.73116720  1
  Li  Li9  1  0.67592022  0.27188257  0.44475302  1
  Li  Li10  1  0.32407978  0.22811743  0.76883280  1
  Li  Li11  1  0.32407978  0.44780279  0.05524698  1
  Li  Li12  1  0.78641417  0.94475302  0.00304977  1
  Li  Li13  1  0.21358583  0.23116720  0.49695023  1
  Li  Li14  1  0.21358583  0.55524698  0.21663560  1
  Li  Li15  1  0.78641417  0.26883280  0.28336440  1
  Li  Li16  1  0.78031463  0.21663560  0.72811743  1
  Li  Li17  1  0.21968537  0.28336440  0.94780279  1
  Li  Li18  1  0.78031463  0.00304977  0.55219721  1
  Li  Li19  1  0.21968537  0.49695023  0.77188257  1
  Li  Li20  1  0.32407978  0.94780279  0.26883280  1
  Li  Li21  1  0.32407978  0.72811743  0.55524698  1
  Li  Li22  1  0.67592022  0.77188257  0.23116720  1
  Li  Li23  1  0.67592022  0.55219721  0.94475302  1
  Nb  Nb0  1  0.23731659  1.00000000  0.73731659  1
  Nb  Nb1  1  0.76268341  0.73731659  0.76268341  1
  Nb  Nb2  1  0.76268341  0.50000000  0.50000000  1
  Nb  Nb3  1  0.23731659  0.76268341  0.00000000  1
  Nb  Nb4  1  0.76268341  0.00000000  0.26268341  1
  Nb  Nb5  1  0.23731659  0.26268341  0.23731659  1
  Nb  Nb6  1  0.23731659  0.50000000  0.50000000  1
  Nb  Nb7  1  0.76268341  0.23731659  1.00000000  1
  N  N0  1  -0.00000000  0.00000000  0.50000000  1
  N  N1  1  -0.00000000  0.50000000  -0.00000000  1
  N  N2  1  -0.00000000  0.50000000  0.50000000  1
  N  N3  1  -0.00000000  0.00000000  -0.00000000  1
  N  N4  1  0.50000000  0.98463728  0.75000000  1
  N  N5  1  0.50000000  0.51536272  0.25000000  1
  N  N6  1  0.00000000  0.25000000  0.73463728  1
  N  N7  1  -0.00000000  0.75000000  0.76536272  1
  N  N8  1  0.53072443  0.73463728  0.51536272  1
  N  N9  1  0.46927557  0.76536272  0.98463728  1
  N  N10  1  0.50000000  0.01536272  0.25000000  1
  N  N11  1  0.50000000  0.48463728  0.75000000  1
  N  N12  1  -0.00000000  0.75000000  0.26536272  1
  N  N13  1  0.00000000  0.25000000  0.23463728  1
  N  N14  1  0.46927557  0.26536272  0.48463728  1
  N  N15  1  0.53072443  0.23463728  0.01536272  1
loop_
_geom_bond_atom_site_label_1
_geom_bond_atom_site_label_2
_geom_bond_distance
_geom_bond_site_symmetry_2
Li0 N10 2.072298 1_556
Li0 N6 2.074187 1_555
Li0 N3 2.222077 1_556
Li0 N9 2.486085 1_545
Li1 N10 2.072298 1_565
Li1 N7 2.074187 1_655
Li1 N2 2.222077 1_655
Li1 N8 2.486091 1_555
Li2 N11 2.072298 1_555
Li2 N6 2.074187 1_655
Li2 N1 2.222077 1_656
Li2 N8 2.486079 1_555
Li3 N11 2.072298 1_555
Li3 N7 2.074187 1_555
Li3 N0 2.222077 1_565
Li3 N9 2.486085 1_555
Li4 N12 2.072298 1_555
Li4 N8 2.074183 1_555
Li4 N3 2.222077 1_565
Li4 N5 2.486082 1_555
Li5 N12 2.072298 1_655
Li5 N9 2.074179 1_554
Li5 N1 2.222077 1_655
Li5 N4 2.486082 1_554
Li6 N13 2.072298 1_565
Li6 N8 2.074184 1_555
Li6 N0 2.222077 1_565
Li6 N4 2.486082 1_555
Li7 N13 2.072298 1_655
Li7 N9 2.074188 1_554
Li7 N2 2.222077 1_655
Li7 N5 2.486082 1_555
Li8 N14 2.072301 1_555
Li8 N4 2.074187 1_545
Li8 N3 2.222077 1_656
Li8 N7 2.486082 1_645
Li9 N14 2.072289 1_555
Li9 N5 2.074187 1_555
Li9 N0 2.222077 1_655
Li9 N6 2.486082 1_655
Li10 N15 2.072296 1_556
Li10 N4 2.074187 1_545
Li10 N2 2.222077 1_555
Li10 N6 2.486082 1_555
Li11 N15 2.072294 1_555
Li11 N5 2.074187 1_555
Li11 N1 2.222077 1_555
Li11 N7 2.486083 1_554
Li12 N4 2.072298 1_554
Li12 N12 2.074187 1_655
Li12 N3 2.222077 1_665
Li12 N15 2.486085 1_565
Li13 N4 2.072298 1_545
Li13 N13 2.074187 1_555
Li13 N2 2.222077 1_555
Li13 N14 2.486091 1_555
Li14 N5 2.072298 1_555
Li14 N12 2.074187 1_555
Li14 N1 2.222077 1_555
Li14 N14 2.486079 1_555
Li15 N5 2.072298 1_555
Li15 N13 2.074187 1_655
Li15 N0 2.222077 1_655
Li15 N15 2.486085 1_555
Li16 N6 2.072298 1_655
Li16 N14 2.074183 1_555
Li16 N3 2.222077 1_656
Li16 N11 2.486082 1_555
Li17 N6 2.072298 1_555
Li17 N15 2.074179 1_556
Li17 N1 2.222077 1_556
Li17 N10 2.486082 1_556
Li18 N7 2.072298 1_645
Li18 N14 2.074184 1_555
Li18 N0 2.222077 1_655
Li18 N10 2.486082 1_555
Li19 N7 2.072298 1_555
Li19 N15 2.074188 1_556
Li19 N2 2.222077 1_555
Li19 N11 2.486082 1_555
Li20 N8 2.072301 1_555
Li20 N10 2.074187 1_565
Li20 N3 2.222077 1_565
Li20 N13 2.486082 1_565
Li21 N8 2.072289 1_555
Li21 N11 2.074187 1_555
Li21 N0 2.222077 1_565
Li21 N12 2.486082 1_555
Li22 N9 2.072296 1_554
Li22 N10 2.074187 1_565
Li22 N2 2.222077 1_655
Li22 N12 2.486082 1_655
Li23 N9 2.072294 1_555
Li23 N11 2.074187 1_555
Li23 N1 2.222077 1_656
Li23 N13 2.486083 1_656
N0 Nb4 2.047960 1_455
N0 Nb0 2.047960 1_545
N1 Nb5 2.047960 1_555
N1 Nb1 2.047960 1_454
N2 Nb2 2.047960 1_455
N2 Nb6 2.047960 1_555
N3 Nb3 2.047960 1_545
N3 Nb7 2.047960 1_454
N4 Nb1 2.108688 1_555
N4 Nb0 2.108688 1_555
N5 Nb2 2.108688 1_555
N5 Nb3 2.108688 1_555
N6 Nb0 2.108688 1_545
N6 Nb2 2.108688 1_455
N7 Nb3 2.108688 1_556
N7 Nb1 2.108688 1_455
N8 Nb1 2.108690 1_555
N8 Nb2 2.108691 1_555
N9 Nb0 2.108685 1_555
N9 Nb3 2.108696 1_556
N10 Nb5 2.108688 1_555
N10 Nb4 2.108688 1_555
N11 Nb6 2.108688 1_555
N11 Nb7 2.108688 1_555
N12 Nb4 2.108688 1_465
N12 Nb6 2.108688 1_555
N13 Nb7 2.108688 1_454
N13 Nb5 2.108688 1_555
N14 Nb5 2.108690 1_555
N14 Nb6 2.108691 1_555
N15 Nb4 2.108685 1_555
N15 Nb7 2.108696 1_554
