# generated using pymatgen
data_Mg16Al12Sn
_symmetry_space_group_name_H-M   'P 1'
_cell_length_a   9.09362198
_cell_length_b   9.09362198
_cell_length_c   9.10126185
_cell_angle_alpha   70.90784505
_cell_angle_beta   70.90784505
_cell_angle_gamma   109.29524759
_symmetry_Int_Tables_number   1
_chemical_formula_structural   Mg16Al12Sn
_chemical_formula_sum   'Mg16 Al12 Sn1'
_cell_volume   585.94864600
_cell_formula_units_Z   1
loop_
 _symmetry_equiv_pos_site_id
 _symmetry_equiv_pos_as_xyz
  1  'x, y, z'
loop_
 _atom_site_type_symbol
 _atom_site_label
 _atom_site_symmetry_multiplicity
 _atom_site_fract_x
 _atom_site_fract_y
 _atom_site_fract_z
 _atom_site_occupancy
  Mg  Mg0  1  0.34060400  0.34060400  0.66550100  1
  Mg  Mg1  1  0.99983300  0.99983300  0.00096800  1
  Mg  Mg2  1  0.99853600  0.99853600  0.34540800  1
  Mg  Mg3  1  0.31270400  0.31270400  0.28928500  1
  Mg  Mg4  1  0.39719600  0.67837600  0.00263700  1
  Mg  Mg5  1  0.28619700  0.59773900  0.40020600  1
  Mg  Mg6  1  0.68626100  0.00456900  0.60023400  1
  Mg  Mg7  1  0.65309600  0.00363100  0.99458200  1
  Mg  Mg8  1  0.31953700  0.71198500  0.68323600  1
  Mg  Mg9  1  0.99851700  0.40097400  0.31727900  1
  Mg  Mg10  1  0.40097400  0.99851700  0.31727900  1
  Mg  Mg11  1  0.71198500  0.31953700  0.68323600  1
  Mg  Mg12  1  0.00363100  0.65309600  0.99458200  1
  Mg  Mg13  1  0.00456900  0.68626100  0.60023400  1
  Mg  Mg14  1  0.59773900  0.28619700  0.40020600  1
  Mg  Mg15  1  0.67837600  0.39719600  0.00263700  1
  Al  Al0  1  0.63250600  0.63250600  0.17633400  1
  Al  Al1  1  0.82353400  0.82353400  0.81949900  1
  Al  Al2  1  0.17706700  0.36039400  0.00814300  1
  Al  Al3  1  0.00167700  0.18686900  0.63345400  1
  Al  Al4  1  0.63441900  0.82360300  0.35478500  1
  Al  Al5  1  0.81005700  0.18019400  0.18798100  1
  Al  Al6  1  0.99711600  0.36624700  0.81829700  1
  Al  Al7  1  0.36624700  0.99711600  0.81829700  1
  Al  Al8  1  0.18019400  0.81005700  0.18798100  1
  Al  Al9  1  0.82360300  0.63441900  0.35478500  1
  Al  Al10  1  0.18686900  0.00167700  0.63345400  1
  Al  Al11  1  0.36039400  0.17706700  0.00814300  1
  Sn  Sn0  1  0.61656500  0.61656500  0.70133000  1
loop_
_geom_bond_atom_site_label_1
_geom_bond_atom_site_label_2
_geom_bond_distance
_geom_bond_site_symmetry_2
Mg0 Mg5 3.065115 1_555
Mg0 Mg14 3.065115 1_555
Mg0 Sn0 3.100026 1_555
Mg0 Mg1 3.130901 1_446
Mg1 Mg2 3.127143 1_555
Mg1 Mg12 3.183885 1_654
Mg1 Mg7 3.183885 1_564
Mg2 Mg3 3.046577 1_665
Mg2 Mg6 3.053464 1_565
Mg3 Mg5 3.124291 1_555
Mg3 Mg4 3.127156 1_555
Mg3 Mg9 3.169457 1_455
Mg4 Mg7 3.060507 1_564
Mg4 Mg8 3.153870 1_554
Mg4 Sn0 3.160094 1_554
Mg4 Mg5 3.167819 1_555
Mg4 Mg9 3.185344 1_455
Mg4 Mg6 3.250232 1_564
Mg5 Mg9 3.113931 1_455
Mg5 Mg8 3.140077 1_555
Mg6 Sn0 3.116811 1_545
Mg6 Mg8 3.153450 1_545
Mg6 Mg9 3.173022 1_555
Mg6 Mg7 3.498941 1_555
Mg8 Sn0 3.134038 1_555
Mg10 Mg7 3.052798 1_564
Mg10 Mg14 3.113931 1_565
Mg10 Mg8 3.140859 1_555
Mg10 Mg3 3.169457 1_565
Mg10 Mg13 3.173022 1_555
Mg10 Mg5 3.180080 1_555
Mg10 Mg15 3.185344 1_565
Mg11 Mg7 3.038803 1_555
Mg11 Sn0 3.134038 1_555
Mg11 Mg14 3.140077 1_555
Mg11 Mg9 3.140859 1_555
Mg11 Mg6 3.149170 1_555
Mg11 Mg13 3.153450 1_655
Mg11 Mg15 3.153870 1_556
Mg12 Mg8 3.038803 1_555
Mg12 Mg9 3.052798 1_456
Mg12 Mg15 3.060507 1_456
Mg12 Mg13 3.498941 1_555
Mg13 Mg2 3.053464 1_455
Mg13 Sn0 3.116811 1_455
Mg13 Mg5 3.129247 1_555
Mg13 Mg8 3.149170 1_555
Mg13 Mg15 3.250232 1_456
Mg14 Mg3 3.124291 1_555
Mg14 Mg6 3.129247 1_555
Mg14 Mg15 3.167819 1_555
Mg14 Mg9 3.180080 1_555
Mg15 Mg3 3.127156 1_555
Mg15 Sn0 3.160094 1_554
Al0 Al1 2.684588 1_554
Al0 Al9 2.739114 1_555
Al0 Al4 2.739114 1_555
Al0 Mg3 2.910476 1_555
Al0 Mg5 2.981937 1_555
Al0 Mg14 2.981937 1_555
Al0 Mg15 3.102156 1_555
Al0 Mg4 3.102156 1_555
Al0 Mg7 3.144655 1_564
Al0 Mg12 3.144655 1_654
Al0 Mg1 3.242506 1_555
Al1 Al3 2.723326 1_665
Al1 Al10 2.723326 1_665
Al1 Sn0 2.923797 1_555
Al1 Mg13 3.014869 1_655
Al1 Mg6 3.014869 1_565
Al1 Mg12 3.064734 1_655
Al1 Mg7 3.064734 1_565
Al1 Mg1 3.103861 1_556
Al1 Mg4 3.240782 1_556
Al1 Mg15 3.240782 1_556
Al2 Al6 2.741009 1_454
Al2 Al5 2.749621 1_455
Al2 Mg4 2.895726 1_555
Al2 Mg9 2.962287 1_455
Al2 Mg8 3.035865 1_554
Al2 Mg0 3.078805 1_554
Al2 Mg2 3.080208 1_445
Al2 Mg3 3.154174 1_555
Al2 Mg1 3.173165 1_445
Al3 Al6 2.699427 1_455
Al3 Mg9 2.915146 1_455
Al3 Mg6 2.969745 1_455
Al3 Mg3 2.973453 1_555
Al3 Mg0 3.089651 1_555
Al3 Mg7 3.120611 1_455
Al3 Mg5 3.160735 1_555
Al3 Mg11 3.205884 1_455
Al3 Mg1 3.209971 1_446
Al4 Al5 2.672347 1_565
Al4 Al9 2.806295 1_555
Al4 Mg8 2.942828 1_555
Al4 Mg5 2.950725 1_555
Al4 Sn0 3.016146 1_555
Al4 Mg7 3.065503 1_564
Al4 Mg10 3.082766 1_555
Al4 Mg2 3.121993 1_555
Al4 Mg1 3.175608 1_555
Al4 Mg6 3.240641 1_565
Al5 Al6 2.776069 1_554
Al5 Mg14 2.897602 1_555
Al5 Mg15 2.979749 1_555
Al5 Mg9 2.990592 1_555
Al5 Mg2 3.106232 1_545
Al5 Mg7 3.113077 1_554
Al5 Mg10 3.123420 1_545
Al5 Mg6 3.166118 1_555
Al5 Mg1 3.215664 1_545
Al6 Mg13 2.900946 1_655
Al6 Mg15 2.993674 1_556
Al6 Mg8 3.002392 1_655
Al6 Mg0 3.097861 1_655
Al6 Mg7 3.110072 1_555
Al6 Mg11 3.180115 1_555
Al6 Mg1 3.213168 1_546
Al6 Mg5 3.221833 1_655
Al7 Al8 2.776069 1_556
Al7 Mg6 2.900946 1_565
Al7 Mg4 2.993674 1_556
Al7 Mg11 3.002392 1_565
Al7 Mg0 3.097861 1_565
Al7 Mg12 3.110072 1_555
Al7 Mg8 3.180115 1_555
Al7 Mg1 3.213168 1_456
Al7 Mg14 3.221833 1_565
Al8 Al9 2.672347 1_455
Al8 Mg5 2.897602 1_555
Al8 Mg4 2.979749 1_555
Al8 Mg10 2.990592 1_555
Al8 Mg2 3.106232 1_455
Al8 Mg12 3.113077 1_554
Al8 Mg9 3.123420 1_455
Al8 Mg13 3.166118 1_555
Al8 Mg1 3.215664 1_455
Al9 Mg11 2.942828 1_555
Al9 Mg14 2.950725 1_555
Al9 Sn0 3.016146 1_555
Al9 Mg12 3.065503 1_654
Al9 Mg9 3.082766 1_555
Al9 Mg2 3.121993 1_555
Al9 Mg1 3.175608 1_555
Al9 Mg13 3.240641 1_655
Al10 Al7 2.699427 1_545
Al10 Al3 2.747079 1_555
Al10 Mg10 2.915146 1_545
Al10 Mg13 2.969745 1_545
Al10 Mg3 2.973453 1_555
Al10 Mg0 3.089651 1_555
Al10 Mg12 3.120611 1_545
Al10 Mg14 3.160735 1_555
Al10 Mg8 3.205884 1_545
Al10 Mg1 3.209971 1_446
Al11 Al2 2.719414 1_555
Al11 Al7 2.741009 1_544
Al11 Al8 2.749621 1_545
Al11 Mg15 2.895726 1_555
Al11 Mg10 2.962287 1_545
Al11 Mg11 3.035865 1_554
Al11 Mg0 3.078805 1_554
Al11 Mg2 3.080208 1_445
Al11 Mg3 3.154174 1_555
Al11 Mg1 3.173165 1_445
