# generated using pymatgen
data_Li9Mn2Co5O16
_symmetry_space_group_name_H-M   'P 1'
_cell_length_a   7.71593230
_cell_length_b   7.71593230
_cell_length_c   5.83132204
_cell_angle_alpha   68.16691333
_cell_angle_beta   68.16691333
_cell_angle_gamma   96.14700931
_symmetry_Int_Tables_number   1
_chemical_formula_structural   Li9Mn2Co5O16
_chemical_formula_sum   'Li9 Mn2 Co5 O16'
_cell_volume   286.76599915
_cell_formula_units_Z   1
loop_
 _symmetry_equiv_pos_site_id
 _symmetry_equiv_pos_as_xyz
  1  'x, y, z'
loop_
 _atom_site_type_symbol
 _atom_site_label
 _atom_site_symmetry_multiplicity
 _atom_site_fract_x
 _atom_site_fract_y
 _atom_site_fract_z
 _atom_site_occupancy
  Li  Li0  1  0.87075400  0.87075400  0.50196700  1
  Li  Li1  1  0.37830600  0.37830600  0.49285000  1
  Li  Li2  1  0.75721700  0.51338100  0.48251200  1
  Li  Li3  1  0.23864100  0.98972300  0.51540000  1
  Li  Li4  1  0.62678200  0.12635900  0.50085000  1
  Li  Li5  1  0.12635900  0.62678200  0.50085000  1
  Li  Li6  1  0.51338100  0.75721700  0.48251200  1
  Li  Li7  1  0.98972300  0.23864100  0.51540000  1
  Li  Li8  1  0.87180300  0.87180300  0.00591000  1
  Mn  Mn0  1  0.99290700  0.24335300  0.00783200  1
  Mn  Mn1  1  0.24335300  0.99290700  0.00783200  1
  Co  Co0  1  0.51140400  0.75946000  0.99031200  1
  Co  Co1  1  0.37696500  0.37696500  0.99432700  1
  Co  Co2  1  0.75946000  0.51140400  0.99031200  1
  Co  Co3  1  0.62601500  0.12300000  0.00105800  1
  Co  Co4  1  0.12300000  0.62601500  0.00105800  1
  O  O0  1  0.11182100  0.11182100  0.24453200  1
  O  O1  1  0.61852300  0.61852300  0.24109800  1
  O  O2  1  0.02786000  0.76132900  0.21880200  1
  O  O3  1  0.51707300  0.26887000  0.19814700  1
  O  O4  1  0.87568700  0.36409500  0.24129200  1
  O  O5  1  0.36409500  0.87568700  0.24129200  1
  O  O6  1  0.76132900  0.02786000  0.21880200  1
  O  O7  1  0.26887000  0.51707300  0.19814700  1
  O  O8  1  0.63641700  0.63641700  0.74594500  1
  O  O9  1  0.12702500  0.12702500  0.77525200  1
  O  O10  1  0.47251700  0.22982300  0.79715600  1
  O  O11  1  0.99728300  0.72562600  0.78601100  1
  O  O12  1  0.37033600  0.88964500  0.75968700  1
  O  O13  1  0.88964500  0.37033600  0.75968700  1
  O  O14  1  0.22982300  0.47251700  0.79715600  1
  O  O15  1  0.72562600  0.99728300  0.78601100  1
loop_
_geom_bond_atom_site_label_1
_geom_bond_atom_site_label_2
_geom_bond_distance
_geom_bond_site_symmetry_2
Li0 O8 2.008929 1_555
Li0 O0 2.068423 1_665
Li0 O6 2.162459 1_565
Li0 O2 2.162459 1_655
Li0 O15 2.237837 1_555
Li0 O11 2.237837 1_555
Li1 O1 2.059733 1_555
Li1 O14 2.148378 1_555
Li1 O10 2.148378 1_555
Li1 O9 2.162275 1_555
Li1 O7 2.171878 1_555
Li1 O3 2.171878 1_555
Li2 O1 2.059658 1_555
Li2 O8 2.083035 1_555
Li2 O4 2.148326 1_555
Li2 O2 2.225597 1_655
Li2 O13 2.240034 1_555
Li2 O10 2.442513 1_555
Li3 O12 2.021045 1_555
Li3 O5 2.084181 1_555
Li3 O9 2.139838 1_565
Li3 O0 2.140139 1_565
Li3 O11 2.172642 1_455
Li3 O3 2.401270 1_565
Li4 O6 2.046747 1_555
Li4 O15 2.052522 1_545
Li4 O4 2.088649 1_555
Li4 O12 2.117431 1_545
Li4 O10 2.177005 1_555
Li4 O3 2.215521 1_555
Li5 O2 2.046747 1_555
Li5 O11 2.052522 1_455
Li5 O5 2.088649 1_555
Li5 O13 2.117431 1_455
Li5 O14 2.177005 1_555
Li5 O7 2.215521 1_555
Li6 O1 2.059658 1_555
Li6 O8 2.083035 1_555
Li6 O5 2.148326 1_555
Li6 O6 2.225597 1_565
Li6 O12 2.240034 1_555
Li6 O14 2.442513 1_555
Li7 O13 2.021045 1_555
Li7 O4 2.084181 1_555
Li7 O9 2.139838 1_655
Li7 O0 2.140139 1_655
Li7 O15 2.172642 1_545
Li7 O7 2.401270 1_655
Li8 O15 2.059132 1_554
Li8 O11 2.059132 1_554
Li8 O6 2.064530 1_565
Li8 O2 2.064530 1_655
Li8 O1 2.171250 1_555
Li8 O9 2.189606 1_664
Mn0 O13 1.912815 1_554
Mn0 O6 1.917840 1_555
Mn0 O4 1.935802 1_555
Mn0 O9 1.943300 1_654
Mn0 O0 1.968882 1_655
Mn0 O14 1.999776 1_654
Mn1 O12 1.912815 1_554
Mn1 O2 1.917840 1_555
Mn1 O5 1.935802 1_555
Mn1 O9 1.943300 1_564
Mn1 O0 1.968882 1_565
Mn1 O10 1.999776 1_564
Co0 O15 1.943814 1_555
Co0 O1 1.978135 1_556
Co0 O8 2.010564 1_555
Co0 O5 2.048257 1_556
Co0 O12 2.078595 1_555
Co0 O7 2.084759 1_556
Co1 O14 1.916825 1_555
Co1 O10 1.916825 1_555
Co1 O7 1.920531 1_556
Co1 O3 1.920531 1_556
Co1 O8 2.222938 1_555
Co1 O0 2.272191 1_556
Co2 O11 1.943814 1_555
Co2 O1 1.978135 1_556
Co2 O8 2.010564 1_555
Co2 O4 2.048257 1_556
Co2 O13 2.078595 1_555
Co2 O3 2.084759 1_556
Co3 O15 1.857893 1_544
Co3 O6 1.923047 1_555
Co3 O3 1.934025 1_555
Co3 O10 2.005858 1_554
Co3 O5 2.183591 1_545
Co3 O13 2.191352 1_554
Co4 O11 1.857893 1_454
Co4 O2 1.923047 1_555
Co4 O7 1.934025 1_555
Co4 O14 2.005858 1_554
Co4 O4 2.183591 1_455
Co4 O12 2.191352 1_554
