# generated using pymatgen
data_H9CN6Cl
_symmetry_space_group_name_H-M   'P 1'
_cell_length_a   6.85776100
_cell_length_b   7.77499966
_cell_length_c   7.77487531
_cell_angle_alpha   120.00181660
_cell_angle_beta   90.00000000
_cell_angle_gamma   90.00000000
_symmetry_Int_Tables_number   1
_chemical_formula_structural   H9CN6Cl
_chemical_formula_sum   'H18 C2 N12 Cl2'
_cell_volume   359.00362866
_cell_formula_units_Z   2
loop_
 _symmetry_equiv_pos_site_id
 _symmetry_equiv_pos_as_xyz
  1  'x, y, z'
loop_
 _atom_site_type_symbol
 _atom_site_label
 _atom_site_symmetry_multiplicity
 _atom_site_fract_x
 _atom_site_fract_y
 _atom_site_fract_z
 _atom_site_occupancy
  H  H0  1  0.75000000  0.15954000  0.85317700  1
  H  H1  1  0.75000000  0.14682400  0.30643200  1
  H  H2  1  0.75000000  0.69367700  0.84050400  1
  H  H3  1  0.25000000  0.84046000  0.14682300  1
  H  H4  1  0.25000000  0.85317600  0.69356800  1
  H  H5  1  0.25000000  0.30632300  0.15949600  1
  H  H6  1  0.87092000  0.85052100  0.57509800  1
  H  H7  1  0.87091400  0.42490900  0.27542300  1
  H  H8  1  0.87091700  0.72456000  0.14950400  1
  H  H9  1  0.37092000  0.14947900  0.42490200  1
  H  H10  1  0.37091400  0.57509100  0.72457700  1
  H  H11  1  0.37091700  0.27544000  0.85049600  1
  H  H12  1  0.12908000  0.14947900  0.42490200  1
  H  H13  1  0.12908600  0.57509100  0.72457700  1
  H  H14  1  0.12908300  0.27544000  0.85049600  1
  H  H15  1  0.62908000  0.85052100  0.57509800  1
  H  H16  1  0.62908600  0.42490900  0.27542300  1
  H  H17  1  0.62908300  0.72456000  0.14950400  1
  C  C0  1  0.75000000  0.00011600  0.00023300  1
  C  C1  1  0.25000000  0.99988400  0.99976700  1
  N  N0  1  0.75000000  0.02042500  0.83856300  1
  N  N1  1  0.75000000  0.16125200  0.18162200  1
  N  N2  1  0.75000000  0.81818500  0.97954400  1
  N  N3  1  0.25000000  0.97957500  0.16143700  1
  N  N4  1  0.25000000  0.83874800  0.81837800  1
  N  N5  1  0.25000000  0.18181500  0.02045600  1
  N  N6  1  0.75000000  0.84834100  0.65120000  1
  N  N7  1  0.75000000  0.34885200  0.19718900  1
  N  N8  1  0.75000000  0.80283900  0.15170800  1
  N  N9  1  0.25000000  0.15165900  0.34880000  1
  N  N10  1  0.25000000  0.65114800  0.80281100  1
  N  N11  1  0.25000000  0.19716100  0.84829200  1
  Cl  Cl0  1  0.75000000  0.33337100  0.66668100  1
  Cl  Cl1  1  0.25000000  0.66662900  0.33331900  1
loop_
_geom_bond_atom_site_label_1
_geom_bond_atom_site_label_2
_geom_bond_distance
_geom_bond_site_symmetry_2
H0 N0 1.029518 1_555
H1 N1 1.031061 1_555
H2 N2 1.029167 1_555
H3 N3 1.029518 1_555
H4 N4 1.031061 1_555
H5 N5 1.029167 1_555
H6 N6 1.023741 1_555
H7 N7 1.023488 1_555
H8 N8 1.023663 1_555
H9 N9 1.023741 1_555
H10 N10 1.023488 1_555
H11 N11 1.023663 1_555
H12 N9 1.023741 1_555
H13 N10 1.023488 1_555
H14 N11 1.023663 1_555
H15 N6 1.023741 1_555
H16 N7 1.023488 1_555
H17 N8 1.023663 1_555
C0 N1 1.338481 1_555
C0 N2 1.341335 1_544
C0 N0 1.342900 1_554
C1 N4 1.338481 1_555
C1 N5 1.341335 1_566
C1 N3 1.342900 1_556
N0 N6 1.401081 1_545
N1 N7 1.401994 1_555
N2 N8 1.402027 1_556
N3 N9 1.401081 1_565
N10 N4 1.401994 1_555
N11 N5 1.402027 1_556
