# generated using pymatgen
data_FeO
_symmetry_space_group_name_H-M   'P 1'
_cell_length_a   3.17076793
_cell_length_b   5.26427154
_cell_length_c   5.21738046
_cell_angle_alpha   110.60978302
_cell_angle_beta   90.60904028
_cell_angle_gamma   93.31885664
_symmetry_Int_Tables_number   1
_chemical_formula_structural   FeO
_chemical_formula_sum   'Fe4 O4'
_cell_volume   81.33221342
_cell_formula_units_Z   4
loop_
 _symmetry_equiv_pos_site_id
 _symmetry_equiv_pos_as_xyz
  1  'x, y, z'
loop_
 _atom_site_type_symbol
 _atom_site_label
 _atom_site_symmetry_multiplicity
 _atom_site_fract_x
 _atom_site_fract_y
 _atom_site_fract_z
 _atom_site_occupancy
  Fe  Fe0  1  0.50003401  -0.00002560  0.50001773  1
  Fe  Fe1  1  0.50003202  0.49990912  -0.00013357  1
  Fe  Fe2  1  0.00003476  -0.00002955  0.00001310  1
  Fe  Fe3  1  0.00003685  0.49991181  0.49986599  1
  O  O0  1  0.96932792  0.25572787  0.72383318  1
  O  O1  1  0.46904645  0.25560959  0.22356191  1
  O  O2  1  0.03060095  0.74438257  0.27627856  1
  O  O3  1  0.53088704  0.74451419  0.77656310  1
loop_
_geom_bond_atom_site_label_1
_geom_bond_atom_site_label_2
_geom_bond_distance
_geom_bond_site_symmetry_2
Fe0 O2 2.003498 1_545
Fe0 O0 2.003685 1_555
Fe0 O2 2.280633 1_645
Fe0 O0 2.281485 1_455
Fe0 O3 2.297418 1_545
Fe0 O1 2.297803 1_555
Fe1 O3 2.017178 1_554
Fe1 O1 2.017480 1_555
Fe1 O0 2.214590 1_554
Fe1 O2 2.216392 1_555
Fe1 O0 2.225488 1_454
Fe1 O2 2.226514 1_655
Fe2 O3 2.002054 1_444
Fe2 O1 2.002335 1_555
Fe2 O3 2.280543 1_544
Fe2 O1 2.281475 1_455
Fe2 O2 2.296681 1_545
Fe2 O0 2.297062 1_454
Fe3 O2 2.017759 1_555
Fe3 O0 2.018094 1_455
Fe3 O1 2.214833 1_555
Fe3 O3 2.216697 1_455
Fe3 O1 2.226949 1_455
Fe3 O3 2.228009 1_555
