# generated using pymatgen
data_Fe3(PO4)4
_symmetry_space_group_name_H-M   'P 1'
_cell_length_a   13.43536890
_cell_length_b   7.83940863
_cell_length_c   8.94117215
_cell_angle_alpha   91.11779090
_cell_angle_beta   85.69808275
_cell_angle_gamma   91.05369104
_symmetry_Int_Tables_number   1
_chemical_formula_structural   Fe3(PO4)4
_chemical_formula_sum   'Fe9 P12 O48'
_cell_volume   938.76482617
_cell_formula_units_Z   3
loop_
 _symmetry_equiv_pos_site_id
 _symmetry_equiv_pos_as_xyz
  1  'x, y, z'
loop_
 _atom_site_type_symbol
 _atom_site_label
 _atom_site_symmetry_multiplicity
 _atom_site_fract_x
 _atom_site_fract_y
 _atom_site_fract_z
 _atom_site_occupancy
  Fe  Fe0  1  0.16792400  0.13284000  0.42070800  1
  Fe  Fe1  1  0.83807600  0.02912600  0.17051000  1
  Fe  Fe2  1  0.83049700  0.63416100  0.08169200  1
  Fe  Fe3  1  0.17280500  0.00344900  0.83853000  1
  Fe  Fe4  1  0.83008100  0.49365000  0.65890800  1
  Fe  Fe5  1  0.16003700  0.53100500  0.32494500  1
  Fe  Fe6  1  0.49911200  0.86619600  0.91311700  1
  Fe  Fe7  1  0.49754400  0.99454400  0.49307500  1
  Fe  Fe8  1  0.50660300  0.46739100  0.00789500  1
  P  P0  1  0.61077600  0.79313800  0.19260500  1
  P  P1  1  0.38771300  0.19496100  0.80187000  1
  P  P2  1  0.05719700  0.31354600  0.64013000  1
  P  P3  1  0.27928100  0.70010800  0.02274000  1
  P  P4  1  0.28024200  0.80402200  0.53075900  1
  P  P5  1  0.05810700  0.20317900  0.13853700  1
  P  P6  1  0.94296600  0.70532500  0.36227200  1
  P  P7  1  0.94164300  0.81408500  0.85804400  1
  P  P8  1  0.72155800  0.19160900  0.47476100  1
  P  P9  1  0.72238300  0.29629700  0.96678800  1
  P  P10  1  0.60951900  0.68658300  0.69276100  1
  P  P11  1  0.38748600  0.29966500  0.30903200  1
  O  O0  1  0.27135000  0.29465400  0.34303900  1
  O  O1  1  0.43451100  0.42205000  0.42461000  1
  O  O2  1  0.72865500  0.79455400  0.16137700  1
  O  O3  1  0.41783700  0.14391400  0.63735500  1
  O  O4  1  0.05530700  0.81893000  0.82262200  1
  O  O5  1  0.39571900  0.70431300  0.98909800  1
  O  O6  1  0.91089700  0.85880600  0.02708500  1
  O  O7  1  0.75056000  0.35595000  0.80621300  1
  O  O8  1  0.55925000  0.86552100  0.68905200  1
  O  O9  1  0.43619500  0.12724000  0.33180000  1
  O  O10  1  0.08573000  0.13925400  0.97732600  1
  O  O11  1  0.60820100  0.17650300  0.51774600  1
  O  O12  1  0.43053800  0.37356400  0.83806800  1
  O  O13  1  0.94299600  0.31690500  0.67088400  1
  O  O14  1  0.74491500  0.13364500  0.31177400  1
  O  O15  1  0.39518900  0.80804900  0.50510200  1
  O  O16  1  0.24884000  0.85292100  0.69532700  1
  O  O17  1  0.10126300  0.38459500  0.16508300  1
  O  O18  1  0.09873500  0.07867300  0.25136700  1
  O  O19  1  0.76798800  0.36941300  0.49703900  1
  O  O20  1  0.94266300  0.20368400  0.16317700  1
  O  O21  1  0.57689600  0.63892600  0.85888300  1
  O  O22  1  0.75664000  0.06081900  0.59108000  1
  O  O23  1  0.09083700  0.36057000  0.47426500  1
  O  O24  1  0.23103900  0.57620400  0.91017100  1
  O  O25  1  0.90247800  0.57872800  0.24497700  1
  O  O26  1  0.08576900  0.44080100  0.76312400  1
  O  O27  1  0.60679200  0.29142300  0.99160200  1
  O  O28  1  0.56694400  0.61299600  0.16554200  1
  O  O29  1  0.91411200  0.64115600  0.52193800  1
  O  O30  1  0.10677100  0.13384000  0.64427000  1
  O  O31  1  0.58551900  0.85798000  0.35336800  1
  O  O32  1  0.57179500  0.91911400  0.07987400  1
  O  O33  1  0.25844800  0.63459000  0.18210800  1
  O  O34  1  0.76165700  0.42883700  0.07952500  1
  O  O35  1  0.23264000  0.87443200  0.00133800  1
  O  O36  1  0.88834200  0.63380900  0.85054800  1
  O  O37  1  0.05903200  0.70535500  0.34081800  1
  O  O38  1  0.91038400  0.94163000  0.74323800  1
  O  O39  1  0.57978200  0.55952700  0.57025900  1
  O  O40  1  0.27272500  0.19158200  0.82755300  1
  O  O41  1  0.42921200  0.06614000  0.90849900  1
  O  O42  1  0.90221700  0.88509000  0.33806000  1
  O  O43  1  0.76698800  0.12203000  0.99815000  1
  O  O44  1  0.23798400  0.62542800  0.49219000  1
  O  O45  1  0.72360100  0.68560500  0.66209600  1
  O  O46  1  0.23908800  0.93385300  0.42477500  1
  O  O47  1  0.40765900  0.36415500  0.14955200  1
loop_
_geom_bond_atom_site_label_1
_geom_bond_atom_site_label_2
_geom_bond_distance
_geom_bond_site_symmetry_2
Fe0 O46 1.846937 1_545
Fe0 O18 1.873101 1_555
Fe0 O0 1.961399 1_555
Fe0 O30 2.103324 1_555
Fe0 O23 2.109359 1_555
Fe1 O14 1.895652 1_555
Fe1 O20 1.941739 1_555
Fe1 O43 2.026778 1_554
Fe1 O6 2.043901 1_545
Fe1 O42 2.134800 1_545
Fe1 O2 2.337134 1_545
Fe2 O34 1.842115 1_555
Fe2 O25 1.872865 1_555
Fe2 O2 1.960336 1_555
Fe2 O6 2.095496 1_555
Fe2 O36 2.152704 1_554
Fe3 O10 1.954123 1_555
Fe3 O16 1.965880 1_545
Fe3 O40 1.974863 1_555
Fe3 O35 2.012756 1_546
Fe3 O4 2.132228 1_545
Fe3 O30 2.276543 1_555
Fe4 O19 1.958433 1_555
Fe4 O7 1.960459 1_555
Fe4 O29 1.977729 1_555
Fe4 O13 2.083317 1_555
Fe4 O45 2.093627 1_555
Fe4 O36 2.202762 1_555
Fe5 O37 1.939484 1_555
Fe5 O33 1.945842 1_555
Fe5 O44 2.010974 1_555
Fe5 O17 2.013941 1_555
Fe5 O23 2.066338 1_555
Fe5 O0 2.417800 1_555
Fe6 O41 1.844731 1_565
Fe6 O32 1.878347 1_556
Fe6 O5 1.956769 1_555
Fe6 O8 2.103183 1_555
Fe6 O21 2.111955 1_555
Fe7 O31 1.968866 1_555
Fe7 O15 1.987500 1_555
Fe7 O3 1.990502 1_565
Fe7 O9 2.027121 1_565
Fe7 O11 2.062202 1_565
Fe7 O8 2.258037 1_555
Fe8 O27 1.940916 1_554
Fe8 O47 1.942730 1_555
Fe8 O28 2.005398 1_555
Fe8 O12 2.013136 1_554
Fe8 O21 2.076001 1_554
Fe8 O5 2.418436 1_554
O0 P11 1.567055 1_555
O1 P11 1.557101 1_555
O2 P0 1.587285 1_555
O3 P1 1.543158 1_555
O4 P7 1.536104 1_455
O5 P3 1.570595 1_556
O6 P7 1.571286 1_554
O7 P9 1.536706 1_555
O8 P10 1.570038 1_555
O9 P11 1.536258 1_555
O10 P5 1.537839 1_556
O11 P8 1.545501 1_555
O12 P1 1.541696 1_555
O13 P2 1.538957 1_655
O14 P8 1.529532 1_555
O15 P4 1.544019 1_555
O16 P4 1.543004 1_555
O17 P5 1.546709 1_555
O18 P5 1.552097 1_555
O19 P8 1.532167 1_555
O20 P5 1.550220 1_655
O21 P10 1.567111 1_555
O22 P8 1.577344 1_555
O23 P2 1.566583 1_555
O24 P3 1.553447 1_556
O25 P6 1.551084 1_555
O26 P2 1.535703 1_555
O27 P9 1.552087 1_555
O28 P0 1.541798 1_555
O29 P6 1.542467 1_555
O30 P2 1.571596 1_555
O31 P0 1.531126 1_555
O32 P0 1.550035 1_555
O33 P3 1.528407 1_555
O34 P9 1.546885 1_554
O35 P3 1.535113 1_555
O36 P7 1.575086 1_555
O37 P6 1.556793 1_455
O38 P7 1.532972 1_555
O39 P10 1.536191 1_555
O40 P1 1.544564 1_555
O41 P1 1.541978 1_555
O42 P6 1.546171 1_555
O43 P9 1.540912 1_555
O44 P4 1.543621 1_555
O45 P10 1.536818 1_555
O46 P4 1.541607 1_555
O47 P11 1.525601 1_555
