# generated using pymatgen
data_ErZn2
_symmetry_space_group_name_H-M   'P 1'
_cell_length_a   4.40604383
_cell_length_b   5.55905499
_cell_length_c   5.55905499
_cell_angle_alpha   77.31559801
_cell_angle_beta   66.65326655
_cell_angle_gamma   66.65326655
_symmetry_Int_Tables_number   1
_chemical_formula_structural   ErZn2
_chemical_formula_sum   'Er2 Zn4'
_cell_volume   114.46024589
_cell_formula_units_Z   2
loop_
 _symmetry_equiv_pos_site_id
 _symmetry_equiv_pos_as_xyz
  1  'x, y, z'
loop_
 _atom_site_type_symbol
 _atom_site_label
 _atom_site_symmetry_multiplicity
 _atom_site_fract_x
 _atom_site_fract_y
 _atom_site_fract_z
 _atom_site_occupancy
  Er  Er0  1  0.46996378  0.28003622  0.78003622  1
  Er  Er1  1  0.53003622  0.71996378  0.21996378  1
  Zn  Zn0  1  0.83402525  0.12177002  0.21017848  1
  Zn  Zn1  1  0.16597475  0.87822998  0.78982152  1
  Zn  Zn2  1  0.83402525  0.71017848  0.62177002  1
  Zn  Zn3  1  0.16597475  0.28982152  0.37822998  1
loop_
_geom_bond_atom_site_label_1
_geom_bond_atom_site_label_2
_geom_bond_distance
_geom_bond_site_symmetry_2
Er0 Zn1 3.007705 1_545
Er0 Zn3 3.007705 1_555
Er0 Zn3 3.007707 1_655
Er0 Zn1 3.007707 1_645
Er0 Zn3 3.057231 1_556
Er0 Zn1 3.057231 1_555
Er0 Zn2 3.075779 1_545
Er0 Zn0 3.075779 1_555
Er0 Zn0 3.172142 1_556
Er0 Zn2 3.172142 1_555
Er0 Zn0 3.172145 1_456
Er0 Zn2 3.172145 1_455
Er1 Zn0 3.007705 1_565
Er1 Zn2 3.007705 1_555
Er1 Zn0 3.007707 1_465
Er1 Zn2 3.007707 1_455
Er1 Zn2 3.057231 1_554
Er1 Zn0 3.057231 1_555
Er1 Zn1 3.075779 1_555
Er1 Zn3 3.075779 1_565
Er1 Zn1 3.172142 1_554
Er1 Zn3 3.172142 1_555
Er1 Zn1 3.172145 1_654
Er1 Zn3 3.172145 1_655
Zn0 Zn3 2.536492 1_555
Zn0 Zn3 2.536500 1_655
Zn0 Zn1 2.558068 1_644
Zn0 Zn2 2.858554 1_545
Zn1 Zn2 2.536492 1_555
Zn1 Zn2 2.536500 1_455
Zn1 Zn3 2.858554 1_565
Zn2 Zn3 2.558068 1_655
