# generated using pymatgen
data_BaPrDyTiO6
_symmetry_space_group_name_H-M   'P 1'
_cell_length_a   5.89864345
_cell_length_b   5.89864345
_cell_length_c   5.89864345
_cell_angle_alpha   60.00000000
_cell_angle_beta   60.00000000
_cell_angle_gamma   60.00000000
_symmetry_Int_Tables_number   1
_chemical_formula_structural   BaPrDyTiO6
_chemical_formula_sum   'Ba1 Pr1 Dy1 Ti1 O6'
_cell_volume   145.12473436
_cell_formula_units_Z   1
loop_
 _symmetry_equiv_pos_site_id
 _symmetry_equiv_pos_as_xyz
  1  'x, y, z'
loop_
 _atom_site_type_symbol
 _atom_site_label
 _atom_site_symmetry_multiplicity
 _atom_site_fract_x
 _atom_site_fract_y
 _atom_site_fract_z
 _atom_site_occupancy
  Ba  Ba0  1  0.25000000  0.25000000  0.25000000  1
  Pr  Pr0  1  0.75000000  0.75000000  0.75000000  1
  Dy  Dy0  1  0.00000000  0.00000000  -0.00000000  1
  Ti  Ti0  1  0.50000000  0.50000000  0.50000000  1
  O  O0  1  0.73558243  0.26441757  0.26441757  1
  O  O1  1  0.26441757  0.73558243  0.73558243  1
  O  O2  1  0.73558243  0.26441757  0.73558243  1
  O  O3  1  0.26441757  0.73558243  0.26441757  1
  O  O4  1  0.73558243  0.73558243  0.26441757  1
  O  O5  1  0.26441757  0.26441757  0.73558243  1
loop_
_geom_bond_atom_site_label_1
_geom_bond_atom_site_label_2
_geom_bond_distance
_geom_bond_site_symmetry_2
Ba0 O4 2.951773 1_545
Ba0 O3 2.951773 1_555
Ba0 O2 2.951773 1_554
Ba0 O0 2.951773 1_555
Ba0 O1 2.951773 1_545
Ba0 O5 2.951773 1_555
Ba0 O4 2.951773 1_455
Ba0 O1 2.951773 1_554
Ba0 O2 2.951773 1_455
Ba0 O3 2.951773 1_545
Ba0 O5 2.951773 1_554
Ba0 O0 2.951773 1_455
Dy0 O2 2.205756 1_454
Dy0 O0 2.205756 1_455
Dy0 O5 2.205756 1_554
Dy0 O4 2.205756 1_445
Dy0 O3 2.205756 1_545
Dy0 O1 2.205756 1_544
O0 Ti0 1.965215 1_555
O0 Pr0 2.951773 1_545
O0 Pr0 2.951773 1_554
O1 Ti0 1.965215 1_555
O1 Pr0 2.951773 1_555
O1 Pr0 2.951773 1_455
O2 Ti0 1.965215 1_555
O2 Pr0 2.951773 1_545
O2 Pr0 2.951773 1_555
O3 Ti0 1.965215 1_555
O3 Pr0 2.951773 1_554
O3 Pr0 2.951773 1_455
O4 Ti0 1.965215 1_555
O4 Pr0 2.951773 1_555
O4 Pr0 2.951773 1_554
O5 Ti0 1.965215 1_555
O5 Pr0 2.951773 1_545
O5 Pr0 2.951773 1_455
