# generated using pymatgen
data_Lu(Fe5Si)2
_symmetry_space_group_name_H-M   'P 1'
_cell_length_a   8.22148655
_cell_length_b   6.31792408
_cell_length_c   6.24942029
_cell_angle_alpha   81.71522124
_cell_angle_beta   49.50347111
_cell_angle_gamma   48.78130765
_symmetry_Int_Tables_number   1
_chemical_formula_structural   Lu(Fe5Si)2
_chemical_formula_sum   'Lu1 Fe10 Si2'
_cell_volume   161.21092151
_cell_formula_units_Z   1
loop_
 _symmetry_equiv_pos_site_id
 _symmetry_equiv_pos_as_xyz
  1  'x, y, z'
loop_
 _atom_site_type_symbol
 _atom_site_label
 _atom_site_symmetry_multiplicity
 _atom_site_fract_x
 _atom_site_fract_y
 _atom_site_fract_z
 _atom_site_occupancy
  Lu  Lu0  1  0.00000000  0.00000000  0.00000000  1
  Fe  Fe0  1  0.00311500  0.64163800  0.35836200  1
  Fe  Fe1  1  0.99688500  0.35836200  0.64163800  1
  Fe  Fe2  1  0.64163800  0.00311500  0.99688500  1
  Fe  Fe3  1  0.35836200  0.99688500  0.00311500  1
  Fe  Fe4  1  0.50000000  0.00000000  0.50000000  1
  Fe  Fe5  1  0.00000000  0.50000000  0.00000000  1
  Fe  Fe6  1  0.49894400  0.71933200  0.28066800  1
  Fe  Fe7  1  0.50105600  0.28066800  0.71933200  1
  Fe  Fe8  1  0.71933200  0.49894400  0.50105600  1
  Fe  Fe9  1  0.28066800  0.50105600  0.49894400  1
  Si  Si0  1  0.00000000  0.00000000  0.50000000  1
  Si  Si1  1  0.50000000  0.50000000  0.00000000  1
loop_
_geom_bond_atom_site_label_1
_geom_bond_atom_site_label_2
_geom_bond_distance
_geom_bond_site_symmetry_2
Lu0 Si1 3.124710 1_545
Lu0 Si1 3.124710 1_455
Lu0 Si0 3.124710 1_554
Lu0 Si0 3.124710 1_555
Fe0 Fe1 2.330165 1_455
Fe0 Si1 2.526265 1_555
Fe0 Si0 2.526265 1_565
Fe0 Fe9 2.544746 1_555
Fe0 Fe4 2.549368 1_465
Fe0 Fe5 2.549368 1_555
Fe0 Fe8 2.624778 1_455
Fe0 Fe7 2.644921 1_465
Fe0 Fe7 2.644921 1_554
Fe0 Fe2 2.872329 1_465
Fe0 Fe2 2.872329 1_554
Fe0 Fe3 2.925401 1_456
Fe0 Fe3 2.925401 1_545
Fe0 Lu0 2.946053 1_565
Fe1 Si1 2.526265 1_556
Fe1 Si0 2.526265 1_655
Fe1 Fe8 2.544746 1_555
Fe1 Fe5 2.549368 1_656
Fe1 Fe4 2.549368 1_655
Fe1 Fe9 2.624778 1_655
Fe1 Fe6 2.644921 1_556
Fe1 Fe6 2.644921 1_645
Fe1 Fe3 2.872329 1_556
Fe1 Fe3 2.872329 1_645
Fe1 Fe2 2.925401 1_565
Fe1 Fe2 2.925401 1_654
Fe1 Lu0 2.946053 1_656
Fe2 Fe3 2.330165 1_546
Fe2 Si0 2.526265 1_655
Fe2 Si1 2.526265 1_556
Fe2 Fe7 2.544746 1_555
Fe2 Fe5 2.549368 1_646
Fe2 Fe4 2.549368 1_556
Fe2 Fe6 2.624778 1_546
Fe2 Fe9 2.644921 1_645
Fe2 Fe9 2.644921 1_556
Fe2 Lu0 2.946053 1_656
Fe3 Si0 2.526265 1_565
Fe3 Si1 2.526265 1_555
Fe3 Fe6 2.544746 1_555
Fe3 Fe4 2.549368 1_564
Fe3 Fe5 2.549368 1_565
Fe3 Fe7 2.624778 1_564
Fe3 Fe8 2.644921 1_465
Fe3 Fe8 2.644921 1_554
Fe3 Lu0 2.946053 1_565
Fe4 Fe5 2.385223 1_556
Fe4 Fe5 2.385223 1_645
Fe4 Fe7 2.399889 1_555
Fe4 Fe8 2.399889 1_545
Fe4 Fe9 2.399889 1_555
Fe4 Fe6 2.399889 1_545
Fe4 Lu0 3.158962 1_556
Fe4 Lu0 3.158962 1_655
Fe5 Fe7 2.399889 1_554
Fe5 Fe8 2.399889 1_455
Fe5 Fe9 2.399889 1_554
Fe5 Fe6 2.399889 1_455
Fe5 Lu0 3.158962 1_555
Fe5 Lu0 3.158962 1_565
Fe6 Si1 2.379430 1_555
Fe6 Si0 2.379430 1_565
Fe6 Fe8 2.546067 1_555
Fe6 Fe9 2.553992 1_555
Fe6 Lu0 2.990087 1_655
Fe6 Lu0 2.990087 1_566
Fe7 Si0 2.379430 1_655
Fe7 Si1 2.379430 1_556
Fe7 Fe9 2.546067 1_555
Fe7 Fe8 2.553992 1_555
Fe7 Lu0 2.990087 1_655
Fe7 Lu0 2.990087 1_566
Fe8 Si0 2.379430 1_655
Fe8 Si1 2.379430 1_556
Fe8 Lu0 2.990087 1_655
Fe8 Lu0 2.990087 1_566
Fe9 Si0 2.379430 1_565
Fe9 Si1 2.379430 1_555
Fe9 Lu0 2.990087 1_566
Fe9 Lu0 2.990087 1_655
Si0 Si1 2.385223 1_456
Si0 Si1 2.385223 1_545
