# generated using pymatgen
data_NaNiO2
_symmetry_space_group_name_H-M   'P 1'
_cell_length_a   2.99576827
_cell_length_b   10.88583879
_cell_length_c   4.98996900
_cell_angle_alpha   76.80139638
_cell_angle_beta   92.09466681
_cell_angle_gamma   81.45813771
_symmetry_Int_Tables_number   1
_chemical_formula_structural   NaNiO2
_chemical_formula_sum   'Na4 Ni4 O8'
_cell_volume   156.25396104
_cell_formula_units_Z   4
loop_
 _symmetry_equiv_pos_site_id
 _symmetry_equiv_pos_as_xyz
  1  'x, y, z'
loop_
 _atom_site_type_symbol
 _atom_site_label
 _atom_site_symmetry_multiplicity
 _atom_site_fract_x
 _atom_site_fract_y
 _atom_site_fract_z
 _atom_site_occupancy
  Na  Na0  1  0.88089920  0.24991987  0.21936576  1
  Na  Na1  1  0.34677430  0.25019253  0.71929269  1
  Na  Na2  1  0.11906182  0.75007337  0.78059951  1
  Na  Na3  1  0.65321508  0.74981392  0.28069046  1
  Ni  Ni0  1  0.25012275  0.50004064  0.25018262  1
  Ni  Ni1  1  0.49977841  -0.00000818  0.49994277  1
  Ni  Ni2  1  0.75022497  0.49999581  0.74997366  1
  Ni  Ni3  1  0.99983950  -0.00001342  0.99995827  1
  O  O0  1  0.27184667  0.40252424  0.97814942  1
  O  O1  1  0.76844457  0.40222981  0.47858187  1
  O  O2  1  0.72849669  0.59745656  0.02201114  1
  O  O3  1  0.23186073  0.59775834  0.52156658  1
  O  O4  1  0.50850599  0.90336653  0.87130492  1
  O  O5  1  0.10229612  0.90286641  0.36984223  1
  O  O6  1  0.49119696  0.09664469  0.12854691  1
  O  O7  1  0.89743524  0.09714087  0.62999119  1
loop_
_geom_bond_atom_site_label_1
_geom_bond_atom_site_label_2
_geom_bond_distance
_geom_bond_site_symmetry_2
Na0 O6 2.288582 1_555
Na0 O0 2.312590 1_654
Na0 O7 2.319228 1_555
Na0 O1 2.319675 1_555
Na0 O0 2.358709 1_554
Na0 O6 2.414898 1_655
Na1 O1 2.296060 1_455
Na1 O7 2.296105 1_555
Na1 O6 2.305068 1_556
Na1 O0 2.314609 1_555
Na1 O1 2.366826 1_555
Na1 O7 2.397478 1_455
Na2 O4 2.288080 1_555
Na2 O2 2.312324 1_456
Na2 O3 2.319119 1_555
Na2 O5 2.319699 1_555
Na2 O2 2.359831 1_556
Na2 O4 2.415320 1_455
Na3 O5 2.296300 1_555
Na3 O3 2.297025 1_655
Na3 O4 2.305602 1_554
Na3 O2 2.314210 1_555
Na3 O3 2.366640 1_555
Na3 O5 2.396735 1_655
Ni0 O3 1.901139 1_555
Ni0 O0 1.902031 1_554
Ni0 O1 1.915481 1_555
Ni0 O2 1.920713 1_455
Ni0 O2 2.119915 1_555
Ni0 O1 2.130107 1_455
Ni1 O5 1.894248 1_545
Ni1 O7 1.894685 1_555
Ni1 O4 1.907665 1_545
Ni1 O6 1.907951 1_555
Ni1 O7 2.151228 1_455
Ni1 O5 2.151637 1_645
Ni2 O1 1.901553 1_555
Ni2 O2 1.901615 1_556
Ni2 O3 1.915430 1_555
Ni2 O0 1.920892 1_655
Ni2 O0 2.120225 1_555
Ni2 O3 2.129775 1_655
Ni3 O5 1.894649 1_646
Ni3 O7 1.895107 1_555
Ni3 O4 1.935004 1_645
Ni3 O6 1.935004 1_556
Ni3 O4 2.093828 1_545
Ni3 O6 2.094036 1_656
