# generated using pymatgen
data_NaY(BH4)4
_symmetry_space_group_name_H-M   'P 1'
_cell_length_a   7.55111995
_cell_length_b   7.55111995
_cell_length_c   9.26269500
_cell_angle_alpha   90.00000000
_cell_angle_beta   90.00000000
_cell_angle_gamma   109.93741666
_symmetry_Int_Tables_number   1
_chemical_formula_structural   NaY(BH4)4
_chemical_formula_sum   'Na2 Y2 B8 H32'
_cell_volume   496.49889161
_cell_formula_units_Z   2
loop_
 _symmetry_equiv_pos_site_id
 _symmetry_equiv_pos_as_xyz
  1  'x, y, z'
loop_
 _atom_site_type_symbol
 _atom_site_label
 _atom_site_symmetry_multiplicity
 _atom_site_fract_x
 _atom_site_fract_y
 _atom_site_fract_z
 _atom_site_occupancy
  Na  Na0  1  0.00000000  0.00000000  0.50000000  1
  Na  Na1  1  0.00000000  0.00000000  0.00000000  1
  Y  Y0  1  0.35441500  0.64558500  0.25000000  1
  Y  Y1  1  0.64558500  0.35441500  0.75000000  1
  B  B0  1  0.23978500  0.76021500  0.03185800  1
  B  B1  1  0.76021500  0.23978500  0.96814200  1
  B  B2  1  0.23978500  0.76021500  0.46814200  1
  B  B3  1  0.76021500  0.23978500  0.53185800  1
  B  B4  1  0.22313700  0.29502500  0.25000000  1
  B  B5  1  0.29502500  0.22313700  0.75000000  1
  B  B6  1  0.77686300  0.70497500  0.75000000  1
  B  B7  1  0.70497500  0.77686300  0.25000000  1
  H  H0  1  0.18509600  0.81490400  0.92488900  1
  H  H1  1  0.81490400  0.18509600  0.07511100  1
  H  H2  1  0.18509600  0.81490400  0.57511100  1
  H  H3  1  0.81490400  0.18509600  0.42488900  1
  H  H4  1  0.33690600  0.66309400  0.99878700  1
  H  H5  1  0.66309400  0.33690600  0.00121300  1
  H  H6  1  0.33690600  0.66309400  0.50121300  1
  H  H7  1  0.66309400  0.33690600  0.49878700  1
  H  H8  1  0.10855000  0.66011200  0.10828700  1
  H  H9  1  0.66011200  0.10855000  0.89171300  1
  H  H10  1  0.10855000  0.66011200  0.39171300  1
  H  H11  1  0.66011200  0.10855000  0.60828700  1
  H  H12  1  0.89145000  0.33988800  0.89171300  1
  H  H13  1  0.33988800  0.89145000  0.10828700  1
  H  H14  1  0.89145000  0.33988800  0.60828700  1
  H  H15  1  0.33988800  0.89145000  0.39171300  1
  H  H16  1  0.15764000  0.12490900  0.25000000  1
  H  H17  1  0.12490900  0.15764000  0.75000000  1
  H  H18  1  0.84236000  0.87509100  0.75000000  1
  H  H19  1  0.87509100  0.84236000  0.25000000  1
  H  H20  1  0.09894600  0.36652400  0.25000000  1
  H  H21  1  0.36652400  0.09894600  0.75000000  1
  H  H22  1  0.90105400  0.63347600  0.75000000  1
  H  H23  1  0.63347600  0.90105400  0.25000000  1
  H  H24  1  0.32362200  0.35295000  0.14217900  1
  H  H25  1  0.35295000  0.32362200  0.85782100  1
  H  H26  1  0.32362200  0.35295000  0.35782100  1
  H  H27  1  0.35295000  0.32362200  0.64217900  1
  H  H28  1  0.67637800  0.64705000  0.85782100  1
  H  H29  1  0.64705000  0.67637800  0.14217900  1
  H  H30  1  0.67637800  0.64705000  0.64217900  1
  H  H31  1  0.64705000  0.67637800  0.35782100  1
loop_
_geom_bond_atom_site_label_1
_geom_bond_atom_site_label_2
_geom_bond_distance
_geom_bond_site_symmetry_2
B0 H0 1.199629 1_554
B0 H4 1.239477 1_554
B0 H8 1.242464 1_555
B0 H13 1.242464 1_555
B1 H1 1.199629 1_556
B1 H5 1.239477 1_556
B1 H9 1.242464 1_555
B1 H12 1.242464 1_555
B2 H2 1.199629 1_555
B2 H6 1.239477 1_555
B2 H10 1.242464 1_555
B2 H15 1.242464 1_555
B3 H3 1.199629 1_555
B3 H7 1.239477 1_555
B3 H11 1.242464 1_555
B3 H14 1.242464 1_555
B4 H16 1.208900 1_555
B4 H20 1.231348 1_555
B4 H26 1.240218 1_555
B4 H24 1.240218 1_555
B5 H17 1.208900 1_555
B5 H21 1.231348 1_555
B5 H25 1.240218 1_555
B5 H27 1.240218 1_555
B6 H18 1.208900 1_555
B6 H22 1.231348 1_555
B6 H28 1.240218 1_555
B6 H30 1.240218 1_555
B7 H19 1.208900 1_555
B7 H23 1.231348 1_555
B7 H29 1.240218 1_555
B7 H31 1.240218 1_555
H0 Na1 2.392351 1_566
H1 Na1 2.392351 1_655
H2 Na0 2.392351 1_565
H3 Na0 2.392351 1_655
H4 Y0 2.336961 1_556
H5 Y1 2.336961 1_554
H6 Y0 2.336961 1_555
H7 Y1 2.336961 1_555
H8 Y0 2.306677 1_555
H9 Y1 2.306677 1_555
H10 Y0 2.306677 1_555
H11 Y1 2.306677 1_555
H12 Y1 2.306677 1_555
H13 Y0 2.306677 1_555
H14 Y1 2.306677 1_555
H15 Y0 2.306677 1_555
H16 Na0 2.627400 1_555
H16 Na1 2.627400 1_555
H17 Na1 2.627400 1_556
H17 Na0 2.627400 1_555
H18 Na0 2.627400 1_665
H18 Na1 2.627400 1_666
H19 Na1 2.627400 1_665
H19 Na0 2.627400 1_665
H20 Y0 2.321520 1_555
H21 Y1 2.321520 1_555
H22 Y1 2.321520 1_555
H23 Y0 2.321520 1_555
H24 Y0 2.363039 1_555
H25 Y1 2.363039 1_555
H26 Y0 2.363039 1_555
H27 Y1 2.363039 1_555
H28 Y1 2.363039 1_555
H29 Y0 2.363039 1_555
H30 Y1 2.363039 1_555
H31 Y0 2.363039 1_555
