# generated using pymatgen
data_YbMnO3
_symmetry_space_group_name_H-M   'P 1'
_cell_length_a   6.08290812
_cell_length_b   6.08290812
_cell_length_c   11.68361100
_cell_angle_alpha   90.00000000
_cell_angle_beta   90.00000000
_cell_angle_gamma   120.00000135
_symmetry_Int_Tables_number   1
_chemical_formula_structural   YbMnO3
_chemical_formula_sum   'Yb6 Mn6 O18'
_cell_volume   374.39516246
_cell_formula_units_Z   6
loop_
 _symmetry_equiv_pos_site_id
 _symmetry_equiv_pos_as_xyz
  1  'x, y, z'
loop_
 _atom_site_type_symbol
 _atom_site_label
 _atom_site_symmetry_multiplicity
 _atom_site_fract_x
 _atom_site_fract_y
 _atom_site_fract_z
 _atom_site_occupancy
  Yb  Yb0  1  0.66666700  0.33333300  0.23524100  1
  Yb  Yb1  1  0.33333300  0.66666700  0.73524100  1
  Yb  Yb2  1  0.66666700  0.33333300  0.73524100  1
  Yb  Yb3  1  0.33333300  0.66666700  0.23524100  1
  Yb  Yb4  1  0.00000000  0.00000000  0.77328600  1
  Yb  Yb5  1  0.00000000  0.00000000  0.27328600  1
  Mn  Mn0  1  0.66817200  0.00000000  0.50010800  1
  Mn  Mn1  1  0.66817200  0.66817200  0.00010800  1
  Mn  Mn2  1  0.00000000  0.33182800  0.00010800  1
  Mn  Mn3  1  0.00000000  0.66817200  0.50010800  1
  Mn  Mn4  1  0.33182800  0.33182800  0.50010800  1
  Mn  Mn5  1  0.33182800  0.00000000  0.00010800  1
  O  O0  1  0.66666700  0.33333300  0.01586200  1
  O  O1  1  0.33333300  0.66666700  0.51586100  1
  O  O2  1  0.66666700  0.33333300  0.51586100  1
  O  O3  1  0.33333300  0.66666700  0.01586200  1
  O  O4  1  0.00000000  0.00000000  0.97813900  1
  O  O5  1  0.00000000  0.00000000  0.47813900  1
  O  O6  1  0.36114400  0.00000000  0.84310600  1
  O  O7  1  0.36114400  0.36114400  0.34310600  1
  O  O8  1  0.00000000  0.63885600  0.34310600  1
  O  O9  1  0.00000000  0.36114400  0.84310600  1
  O  O10  1  0.63885600  0.63885600  0.84310600  1
  O  O11  1  0.63885600  0.00000000  0.34310600  1
  O  O12  1  0.30540400  0.00000000  0.15757600  1
  O  O13  1  0.30540400  0.30540400  0.65757600  1
  O  O14  1  0.00000000  0.69459600  0.65757600  1
  O  O15  1  0.00000000  0.30540400  0.15757600  1
  O  O16  1  0.69459600  0.69459600  0.15757600  1
  O  O17  1  0.69459600  0.00000000  0.65757600  1
loop_
_geom_bond_atom_site_label_1
_geom_bond_atom_site_label_2
_geom_bond_distance
_geom_bond_site_symmetry_2
Mn0 O11 1.842998 1_555
Mn0 O17 1.846803 1_555
Mn0 O5 2.034734 1_655
Mn0 O2 2.040544 1_555
Mn0 O1 2.040547 1_545
Mn1 O10 1.842998 1_554
Mn1 O16 1.846803 1_555
Mn1 O4 2.034734 1_664
Mn1 O3 2.040551 1_555
Mn1 O0 2.040551 1_555
Mn2 O9 1.842998 1_554
Mn2 O15 1.846803 1_555
Mn2 O4 2.034734 1_554
Mn2 O0 2.040545 1_455
Mn2 O3 2.040548 1_555
Mn3 O8 1.842998 1_555
Mn3 O14 1.846803 1_555
Mn3 O5 2.034734 1_565
Mn3 O1 2.040544 1_555
Mn3 O2 2.040547 1_455
Mn4 O7 1.842998 1_555
Mn4 O13 1.846803 1_555
Mn4 O5 2.034734 1_555
Mn4 O1 2.040550 1_555
Mn4 O2 2.040550 1_555
Mn5 O6 1.842998 1_554
Mn5 O12 1.846803 1_555
Mn5 O4 2.034734 1_554
Mn5 O3 2.040545 1_545
Mn5 O0 2.040548 1_555
O0 Yb0 2.563139 1_555
O1 Yb1 2.563151 1_555
O2 Yb2 2.563151 1_555
O3 Yb3 2.563139 1_555
O4 Yb4 2.393423 1_555
O5 Yb5 2.393423 1_555
O6 Yb1 2.320590 1_545
O6 Yb2 2.320592 1_555
O6 Yb4 2.343374 1_555
O7 Yb3 2.320595 1_555
O7 Yb0 2.320595 1_555
O7 Yb5 2.343374 1_555
O8 Yb3 2.320590 1_555
O8 Yb0 2.320592 1_455
O8 Yb5 2.343374 1_565
O9 Yb2 2.320590 1_455
O9 Yb1 2.320592 1_555
O9 Yb4 2.343374 1_555
O10 Yb2 2.320595 1_555
O10 Yb1 2.320595 1_555
O10 Yb4 2.343374 1_665
O11 Yb0 2.320590 1_555
O11 Yb3 2.320592 1_545
O11 Yb5 2.343374 1_655
O12 Yb5 2.297581 1_555
O12 Yb3 2.303915 1_545
O12 Yb0 2.303918 1_555
O13 Yb4 2.297581 1_555
O13 Yb1 2.303921 1_555
O13 Yb2 2.303921 1_555
O14 Yb4 2.297581 1_565
O14 Yb1 2.303915 1_555
O14 Yb2 2.303918 1_455
O15 Yb5 2.297581 1_555
O15 Yb0 2.303915 1_455
O15 Yb3 2.303918 1_555
O16 Yb5 2.297581 1_665
O16 Yb0 2.303921 1_555
O16 Yb3 2.303921 1_555
O17 Yb4 2.297581 1_655
O17 Yb2 2.303915 1_555
O17 Yb1 2.303918 1_545
