# generated using pymatgen
data_NaPrCuWO6
_symmetry_space_group_name_H-M   'P 1'
_cell_length_a   5.36933513
_cell_length_b   5.36933513
_cell_length_c   8.57191696
_cell_angle_alpha   90.00000000
_cell_angle_beta   90.00000000
_cell_angle_gamma   90.00000000
_symmetry_Int_Tables_number   1
_chemical_formula_structural   NaPrCuWO6
_chemical_formula_sum   'Na2 Pr2 Cu2 W2 O12'
_cell_volume   247.12630645
_cell_formula_units_Z   2
loop_
 _symmetry_equiv_pos_site_id
 _symmetry_equiv_pos_as_xyz
  1  'x, y, z'
loop_
 _atom_site_type_symbol
 _atom_site_label
 _atom_site_symmetry_multiplicity
 _atom_site_fract_x
 _atom_site_fract_y
 _atom_site_fract_z
 _atom_site_occupancy
  Na  Na0  1  0.00000000  0.50000000  0.25000000  1
  Na  Na1  1  0.50000000  0.00000000  0.75000000  1
  Pr  Pr0  1  0.50000000  0.00000000  0.25000000  1
  Pr  Pr1  1  0.00000000  0.50000000  0.75000000  1
  Cu  Cu0  1  0.00000000  0.00000000  -0.00000000  1
  Cu  Cu1  1  0.50000000  0.50000000  0.50000000  1
  W  W0  1  0.00000000  0.00000000  0.50000000  1
  W  W1  1  0.50000000  0.50000000  -0.00000000  1
  O  O0  1  0.00000000  0.00000000  0.27130836  1
  O  O1  1  0.50000000  0.50000000  0.22869164  1
  O  O2  1  0.00000000  0.00000000  0.72869164  1
  O  O3  1  0.50000000  0.50000000  0.77130836  1
  O  O4  1  0.31607220  0.18862842  0.00641071  1
  O  O5  1  0.68392780  0.81137158  0.00641071  1
  O  O6  1  0.81137158  0.31607220  0.99358929  1
  O  O7  1  0.18862842  0.68392780  0.99358929  1
  O  O8  1  0.81607220  0.31137158  0.50641071  1
  O  O9  1  0.18392780  0.68862842  0.50641071  1
  O  O10  1  0.31137158  0.18392780  0.49358929  1
  O  O11  1  0.68862842  0.81607220  0.49358929  1
loop_
_geom_bond_atom_site_label_1
_geom_bond_atom_site_label_2
_geom_bond_distance
_geom_bond_site_symmetry_2
Na0 O9 2.613805 1_555
Na0 O7 2.613805 1_554
Na0 O6 2.613805 1_454
Na0 O8 2.613805 1_455
Na0 O1 2.690874 1_555
Na0 O1 2.690874 1_455
Na0 O0 2.690874 1_565
Na0 O0 2.690874 1_555
Na1 O5 2.613805 1_546
Na1 O4 2.613805 1_556
Na1 O10 2.613805 1_555
Na1 O11 2.613805 1_545
Na1 O3 2.690874 1_545
Na1 O2 2.690874 1_555
Na1 O3 2.690874 1_555
Na1 O2 2.690874 1_655
Cu0 O4 1.977105 1_555
Cu0 O6 1.977105 1_454
Cu0 O7 1.977105 1_544
Cu0 O5 1.977105 1_445
Cu0 O0 2.325633 1_555
Cu0 O2 2.325633 1_554
Cu1 O8 1.977105 1_555
Cu1 O10 1.977105 1_555
Cu1 O11 1.977105 1_555
Cu1 O9 1.977105 1_555
Cu1 O3 2.325633 1_555
Cu1 O1 2.325633 1_555
O0 W0 1.960326 1_555
O0 Pr0 2.690874 1_555
O0 Pr0 2.690874 1_455
O1 W1 1.960326 1_555
O1 Pr0 2.690874 1_555
O1 Pr0 2.690874 1_565
O2 W0 1.960326 1_555
O2 Pr1 2.690874 1_555
O2 Pr1 2.690874 1_545
O3 W1 1.960326 1_556
O3 Pr1 2.690874 1_655
O3 Pr1 2.690874 1_555
O4 W1 1.942530 1_555
O4 Pr0 2.522089 1_555
O5 W1 1.942530 1_555
O5 Pr0 2.522089 1_565
O6 W1 1.942530 1_556
O6 Pr1 2.522089 1_655
O7 W1 1.942530 1_556
O7 Pr1 2.522089 1_555
O8 W0 1.942530 1_655
O8 Pr1 2.522089 1_655
O9 W0 1.942530 1_565
O9 Pr1 2.522089 1_555
O10 W0 1.942530 1_555
O10 Pr0 2.522089 1_555
O11 W0 1.942530 1_665
O11 Pr0 2.522089 1_565
