# generated using pymatgen
data_LiMo6(SeS3)2
_symmetry_space_group_name_H-M   'P 1'
_cell_length_a   6.56211334
_cell_length_b   6.56211334
_cell_length_c   6.56211305
_cell_angle_alpha   90.95856363
_cell_angle_beta   90.95856363
_cell_angle_gamma   90.95856807
_symmetry_Int_Tables_number   1
_chemical_formula_structural   LiMo6(SeS3)2
_chemical_formula_sum   'Li1 Mo6 Se2 S6'
_cell_volume   282.45335115
_cell_formula_units_Z   1
loop_
 _symmetry_equiv_pos_site_id
 _symmetry_equiv_pos_as_xyz
  1  'x, y, z'
loop_
 _atom_site_type_symbol
 _atom_site_label
 _atom_site_symmetry_multiplicity
 _atom_site_fract_x
 _atom_site_fract_y
 _atom_site_fract_z
 _atom_site_occupancy
  Li  Li0  1  0.00000000  0.00000000  0.00000000  1
  Mo  Mo0  1  0.78276200  0.58920000  0.44387900  1
  Mo  Mo1  1  0.44387900  0.78276200  0.58920000  1
  Mo  Mo2  1  0.58920000  0.44387900  0.78276200  1
  Mo  Mo3  1  0.21723800  0.41080000  0.55612100  1
  Mo  Mo4  1  0.55612100  0.21723800  0.41080000  1
  Mo  Mo5  1  0.41080000  0.55612100  0.21723800  1
  Se  Se0  1  0.78282100  0.78282100  0.78282100  1
  Se  Se1  1  0.21717900  0.21717900  0.21717900  1
  S  S0  1  0.26874300  0.61613600  0.86829800  1
  S  S1  1  0.86829800  0.26874300  0.61613600  1
  S  S2  1  0.61613600  0.86829800  0.26874300  1
  S  S3  1  0.73125700  0.38386400  0.13170200  1
  S  S4  1  0.13170200  0.73125700  0.38386400  1
  S  S5  1  0.38386400  0.13170200  0.73125700  1
loop_
_geom_bond_atom_site_label_1
_geom_bond_atom_site_label_2
_geom_bond_distance
_geom_bond_site_symmetry_2
Li0 Se0 2.426791 1_444
Li0 Se1 2.426791 1_555
Mo0 S2 2.442549 1_555
Mo0 S3 2.448588 1_555
Mo0 S1 2.472382 1_555
Mo0 S4 2.497645 1_655
Mo0 Se0 2.542969 1_555
Mo1 S0 2.442549 1_555
Mo1 S4 2.448588 1_555
Mo1 S2 2.472381 1_555
Mo1 S5 2.497645 1_565
Mo1 Se0 2.542969 1_555
Mo2 S1 2.442549 1_555
Mo2 S5 2.448588 1_555
Mo2 S0 2.472382 1_555
Mo2 S3 2.497645 1_556
Mo2 Se0 2.542969 1_555
Mo3 S5 2.442549 1_555
Mo3 S0 2.448588 1_555
Mo3 S4 2.472382 1_555
Mo3 S1 2.497645 1_455
Mo3 Se1 2.542969 1_555
Mo4 S3 2.442549 1_555
Mo4 S1 2.448588 1_555
Mo4 S5 2.472381 1_555
Mo4 S2 2.497645 1_545
Mo4 Se1 2.542969 1_555
Mo5 S4 2.442549 1_555
Mo5 S2 2.448588 1_555
Mo5 S3 2.472382 1_555
Mo5 S0 2.497645 1_554
Mo5 Se1 2.542969 1_555
