# generated using pymatgen
data_LiLa2Co2Sb2(PbO6)2
_symmetry_space_group_name_H-M   'P 1'
_cell_length_a   5.71152542
_cell_length_b   6.07485093
_cell_length_c   8.21595541
_cell_angle_alpha   92.41584980
_cell_angle_beta   90.41185152
_cell_angle_gamma   88.55205953
_symmetry_Int_Tables_number   1
_chemical_formula_structural   LiLa2Co2Sb2(PbO6)2
_chemical_formula_sum   'Li1 La2 Co2 Sb2 Pb2 O12'
_cell_volume   284.71660057
_cell_formula_units_Z   1
loop_
 _symmetry_equiv_pos_site_id
 _symmetry_equiv_pos_as_xyz
  1  'x, y, z'
loop_
 _atom_site_type_symbol
 _atom_site_label
 _atom_site_symmetry_multiplicity
 _atom_site_fract_x
 _atom_site_fract_y
 _atom_site_fract_z
 _atom_site_occupancy
  Li  Li0  1  0.09813300  0.21569300  0.61615900  1
  La  La0  1  0.52853600  0.43558100  0.73972200  1
  La  La1  1  0.01542000  0.05719200  0.24642300  1
  Co  Co0  1  0.00231000  0.56891000  0.48300900  1
  Co  Co1  1  0.48715000  0.98520300  0.00134700  1
  Sb  Sb0  1  0.99942400  0.48040900  0.00293100  1
  Sb  Sb1  1  0.51058600  0.98813900  0.49059600  1
  Pb  Pb0  1  0.49273500  0.52259600  0.24918000  1
  Pb  Pb1  1  0.96583000  0.90437200  0.79424500  1
  O  O0  1  0.60898600  0.95833200  0.25536600  1
  O  O1  1  0.09999100  0.49971500  0.72340800  1
  O  O2  1  0.40276700  0.04804300  0.72287400  1
  O  O3  1  0.92764000  0.46632700  0.24989700  1
  O  O4  1  0.21756000  0.81578600  0.43196800  1
  O  O5  1  0.69184800  0.69570500  0.94120800  1
  O  O6  1  0.78198700  0.18867400  0.53577900  1
  O  O7  1  0.27531100  0.26276500  0.04313200  1
  O  O8  1  0.30639500  0.26095700  0.44108200  1
  O  O9  1  0.77274100  0.21296700  0.96170300  1
  O  O10  1  0.67963700  0.70165100  0.54343700  1
  O  O11  1  0.18263100  0.79348400  0.03486700  1
loop_
_geom_bond_atom_site_label_1
_geom_bond_atom_site_label_2
_geom_bond_distance
_geom_bond_site_symmetry_2
Li0 O1 1.904242 1_555
Li0 O8 1.906317 1_555
Li0 O6 1.926715 1_455
Li0 O2 2.190226 1_555
Li0 Pb1 2.570983 1_445
La0 O5 2.437054 1_555
La0 O1 2.472290 1_555
La0 O2 2.476722 1_555
La0 O10 2.503656 1_555
La0 O6 2.620333 1_555
La0 O9 2.678897 1_555
La0 O8 2.925601 1_555
La0 O7 3.123650 1_556
La1 O0 2.414829 1_445
La1 O4 2.425914 1_545
La1 O11 2.492260 1_545
La1 O3 2.522064 1_455
La1 O8 2.598240 1_555
La1 O7 2.618734 1_555
La1 O6 2.810507 1_455
La1 O9 2.891795 1_454
Co0 O4 2.022402 1_555
Co0 O3 2.034561 1_455
Co0 O10 2.048785 1_455
Co0 O1 2.105066 1_555
Co0 O8 2.534747 1_555
Co1 O7 2.068559 1_565
Co1 O5 2.129561 1_554
Co1 O11 2.143278 1_555
Co1 O9 2.200205 1_564
Co1 O0 2.206488 1_555
Co1 O2 2.379302 1_564
O0 Sb1 2.016113 1_555
O0 Pb0 2.743576 1_555
O1 Sb0 2.379683 1_456
O1 Pb1 2.599881 1_455
O2 Sb1 2.024996 1_545
O2 Pb1 2.740027 1_445
O3 Sb0 2.078671 1_555
O3 Pb0 2.498808 1_555
O4 Sb1 2.040525 1_555
O4 Pb0 2.750403 1_555
O5 Sb0 2.231777 1_556
O5 Pb1 2.402081 1_555
O6 Sb1 2.018354 1_545
O7 Sb0 2.064987 1_455
O7 Pb0 2.596728 1_555
O8 Sb1 2.055404 1_545
O8 Pb0 2.542770 1_555
O9 Sb0 2.117583 1_556
O9 Pb1 2.514640 1_545
O10 Sb1 2.030366 1_555
O10 Pb0 2.822657 1_555
O11 Sb0 2.198977 1_455
O11 Pb1 2.435218 1_454
