# generated using pymatgen
data_Ca3Fe4(WO4)6
_symmetry_space_group_name_H-M   'P 1'
_cell_length_a   7.36493700
_cell_length_b   8.73102362
_cell_length_c   10.59044599
_cell_angle_alpha   105.03885409
_cell_angle_beta   106.04623211
_cell_angle_gamma   103.56810513
_symmetry_Int_Tables_number   1
_chemical_formula_structural   Ca3Fe4(WO4)6
_chemical_formula_sum   'Ca3 Fe4 W6 O24'
_cell_volume   596.63689773
_cell_formula_units_Z   1
loop_
 _symmetry_equiv_pos_site_id
 _symmetry_equiv_pos_as_xyz
  1  'x, y, z'
loop_
 _atom_site_type_symbol
 _atom_site_label
 _atom_site_symmetry_multiplicity
 _atom_site_fract_x
 _atom_site_fract_y
 _atom_site_fract_z
 _atom_site_occupancy
  Ca  Ca0  1  0.00000000  0.50000000  0.50000000  1
  Ca  Ca1  1  0.29165000  0.29915100  0.79319900  1
  Ca  Ca2  1  0.70835000  0.70084900  0.20680100  1
  Fe  Fe0  1  0.37622800  0.96036200  0.60090800  1
  Fe  Fe1  1  0.62377200  0.03963800  0.39909200  1
  Fe  Fe2  1  0.04527300  0.21580800  0.01738700  1
  Fe  Fe3  1  0.95472700  0.78419200  0.98261300  1
  W  W0  1  0.78174200  0.33231600  0.72978600  1
  W  W1  1  0.21825800  0.66768400  0.27021400  1
  W  W2  1  0.89393000  0.91326100  0.67372200  1
  W  W3  1  0.39195200  0.74111200  0.86682800  1
  W  W4  1  0.10607000  0.08673900  0.32627800  1
  W  W5  1  0.60804800  0.25888800  0.13317200  1
  O  O0  1  0.85612700  0.69695200  0.58548800  1
  O  O1  1  0.14387300  0.30304800  0.41451200  1
  O  O2  1  0.24616900  0.53093800  0.73453300  1
  O  O3  1  0.75383100  0.46906200  0.26546700  1
  O  O4  1  0.78666700  0.28260200  0.54416300  1
  O  O5  1  0.21333300  0.71739800  0.45583700  1
  O  O6  1  0.67568200  0.96595000  0.58728500  1
  O  O7  1  0.32431800  0.03405000  0.41271500  1
  O  O8  1  0.62106900  0.73293900  0.98795900  1
  O  O9  1  0.37893100  0.26706100  0.01204100  1
  O  O10  1  0.48513900  0.77943900  0.29172000  1
  O  O11  1  0.51486100  0.22056100  0.70828000  1
  O  O12  1  0.12167700  0.02441000  0.65298600  1
  O  O13  1  0.07039100  0.05693100  0.14257200  1
  O  O14  1  0.92960900  0.94306900  0.85742800  1
  O  O15  1  0.55965900  0.12058400  0.22760800  1
  O  O16  1  0.44034100  0.87941600  0.77239200  1
  O  O17  1  0.17283000  0.45075800  0.15894600  1
  O  O18  1  0.82717000  0.54924200  0.84105400  1
  O  O19  1  0.99211600  0.26489800  0.82647700  1
  O  O20  1  0.00788400  0.73510200  0.17352300  1
  O  O21  1  0.23951700  0.79928600  0.96379300  1
  O  O22  1  0.76048300  0.20071400  0.03620700  1
  O  O23  1  0.87832300  0.97559000  0.34701400  1
loop_
_geom_bond_atom_site_label_1
_geom_bond_atom_site_label_2
_geom_bond_distance
_geom_bond_site_symmetry_2
Ca0 O1 2.340259 1_555
Ca0 O0 2.340259 1_455
Ca0 O4 2.399549 1_455
Ca0 O5 2.399549 1_555
Ca0 O3 2.542021 1_455
Ca0 O2 2.542021 1_555
Ca1 O11 2.237967 1_555
Ca1 O12 2.289347 1_555
Ca1 O19 2.292433 1_455
Ca1 O2 2.334360 1_555
Ca1 O9 2.336882 1_556
Ca2 O10 2.237967 1_555
Ca2 O23 2.289347 1_555
Ca2 O20 2.292433 1_655
Ca2 O3 2.334360 1_555
Ca2 O8 2.336882 1_554
Fe0 O16 2.090268 1_555
Fe0 O5 2.096509 1_555
Fe0 O11 2.103765 1_565
Fe0 O7 2.211772 1_565
Fe0 O6 2.239714 1_555
Fe0 O12 2.243891 1_565
Fe1 O15 2.090268 1_555
Fe1 O4 2.096509 1_555
Fe1 O10 2.103765 1_545
Fe1 O6 2.211772 1_545
Fe1 O7 2.239714 1_555
Fe1 O23 2.243891 1_545
Fe2 O17 2.014791 1_555
Fe2 O19 2.124991 1_454
Fe2 O22 2.138101 1_455
Fe2 O13 2.157608 1_555
Fe2 O14 2.328729 1_444
Fe2 O9 2.411685 1_555
Fe3 O18 2.014791 1_555
Fe3 O20 2.124991 1_656
Fe3 O21 2.138101 1_655
Fe3 O14 2.157608 1_555
Fe3 O13 2.328729 1_666
Fe3 O8 2.411685 1_555
O0 W2 1.791962 1_555
O1 W4 1.791962 1_555
O2 W3 1.841969 1_555
O3 W5 1.841969 1_555
O4 W0 1.912644 1_555
O5 W1 1.912644 1_555
O6 W2 1.839926 1_555
O7 W4 1.839926 1_555
O8 W3 1.845395 1_555
O9 W5 1.845395 1_555
O10 W1 1.898601 1_555
O11 W0 1.898601 1_555
O12 W2 1.831377 1_445
O13 W4 1.828768 1_555
O14 W2 1.828768 1_555
O15 W5 1.790875 1_555
O16 W3 1.790875 1_555
O17 W1 1.847759 1_555
O18 W0 1.847759 1_555
O19 W0 1.912927 1_555
O20 W1 1.912927 1_555
O21 W3 1.790845 1_555
O22 W5 1.790845 1_555
O23 W4 1.831377 1_665
