# generated using pymatgen
data_MnInCu
_symmetry_space_group_name_H-M   'P 1'
_cell_length_a   5.51849588
_cell_length_b   5.46516861
_cell_length_c   7.90605200
_cell_angle_alpha   90.00000000
_cell_angle_beta   90.00000000
_cell_angle_gamma   119.66382550
_symmetry_Int_Tables_number   1
_chemical_formula_structural   MnInCu
_chemical_formula_sum   'Mn4 In4 Cu4'
_cell_volume   207.19335448
_cell_formula_units_Z   4
loop_
 _symmetry_equiv_pos_site_id
 _symmetry_equiv_pos_as_xyz
  1  'x, y, z'
loop_
 _atom_site_type_symbol
 _atom_site_label
 _atom_site_symmetry_multiplicity
 _atom_site_fract_x
 _atom_site_fract_y
 _atom_site_fract_z
 _atom_site_occupancy
  Mn  Mn0  1  0.66731100  0.33368500  0.57593900  1
  Mn  Mn1  1  0.30009500  0.65008300  0.45132400  1
  Mn  Mn2  1  0.30009500  0.65008300  0.04867600  1
  Mn  Mn3  1  0.66731100  0.33368500  0.92406100  1
  In  In0  1  0.65224300  0.82593500  0.75000000  1
  In  In1  1  0.83031200  0.66377600  0.25000000  1
  In  In2  1  0.83078000  0.16710800  0.25000000  1
  In  In3  1  0.34492300  0.17216000  0.25000000  1
  Cu  Cu0  1  0.03718300  0.01860900  0.51612400  1
  Cu  Cu1  1  0.03718300  0.01860900  0.98387600  1
  Cu  Cu2  1  0.16625300  0.35284100  0.75000000  1
  Cu  Cu3  1  0.16631100  0.81342800  0.75000000  1
loop_
_geom_bond_atom_site_label_1
_geom_bond_atom_site_label_2
_geom_bond_distance
_geom_bond_site_symmetry_2
Mn0 Mn3 2.752271 1_555
Mn0 Mn1 3.190302 1_655
Mn0 Mn1 3.396431 1_555
Mn0 Mn1 3.397220 1_545
Mn2 Mn3 3.190302 1_454
Mn2 Mn3 3.396431 1_554
Mn2 Mn3 3.397220 1_564
In0 Mn2 2.903012 1_556
In0 Mn1 2.903012 1_555
In0 Mn0 3.059317 1_555
In0 Mn3 3.059317 1_555
In0 Mn0 3.061463 1_565
In0 Mn3 3.061463 1_565
In1 In3 2.696320 1_555
In1 In2 2.715653 1_555
In1 In2 2.749517 1_565
In1 In3 2.823904 1_665
In1 Mn3 3.016241 1_554
In1 Mn0 3.016241 1_555
In1 Mn1 3.074428 1_655
In1 Mn2 3.074428 1_655
In1 Mn1 3.299057 1_555
In1 Mn2 3.299057 1_555
In2 In3 2.694971 1_555
In2 In3 2.823733 1_655
In2 Mn3 3.015928 1_554
In2 Mn0 3.015928 1_555
In2 Mn2 3.072730 1_655
In2 Mn1 3.072730 1_655
In2 Mn2 3.302024 1_545
In2 Mn1 3.302024 1_545
In3 Mn0 3.005044 1_555
In3 Mn3 3.005044 1_554
In3 Mn1 3.168115 1_545
In3 Mn2 3.168115 1_545
In3 Mn2 3.171180 1_555
In3 Mn1 3.171180 1_555
Cu0 Cu2 2.444390 1_555
Cu0 Cu3 2.444397 1_545
Cu0 In3 2.569913 1_555
Cu0 In0 2.612708 1_445
Cu0 In2 2.701448 1_455
Cu0 In1 2.701728 1_445
Cu0 Mn1 3.052269 1_545
Cu0 Mn1 3.053115 1_555
Cu0 Mn0 3.058413 1_555
Cu0 Mn0 3.291490 1_455
Cu0 Mn0 3.292256 1_445
Cu1 Cu2 2.444390 1_555
Cu1 Cu3 2.444397 1_545
Cu1 In3 2.569913 1_556
Cu1 In0 2.612708 1_445
Cu1 In2 2.701448 1_456
Cu1 In1 2.701728 1_446
Cu1 Mn2 3.052269 1_546
Cu1 Mn2 3.053115 1_556
Cu1 Mn3 3.058413 1_555
Cu1 Mn3 3.291490 1_455
Cu1 Mn3 3.292256 1_445
Cu2 Cu3 2.517027 1_555
Cu2 In0 2.648419 1_555
Cu2 Mn2 2.751871 1_556
Cu2 Mn1 2.751871 1_555
Cu2 In0 2.872848 1_445
Cu2 Mn0 3.033257 1_455
Cu2 Mn3 3.033257 1_455
Cu2 Mn0 3.136390 1_555
Cu2 Mn3 3.136390 1_555
Cu3 In0 2.648451 1_555
Cu3 Mn2 2.751422 1_556
Cu3 Mn1 2.751422 1_555
Cu3 In0 2.871325 1_455
Cu3 Mn0 3.033903 1_455
Cu3 Mn3 3.033903 1_455
Cu3 Mn0 3.137033 1_565
Cu3 Mn3 3.137033 1_565
