# generated using pymatgen
data_Nb4CoPt3
_symmetry_space_group_name_H-M   'P 1'
_cell_length_a   5.64583000
_cell_length_b   9.23861200
_cell_length_c   19.92135600
_cell_angle_alpha   90.00000000
_cell_angle_beta   90.00000000
_cell_angle_gamma   90.00000000
_symmetry_Int_Tables_number   1
_chemical_formula_structural   Nb4CoPt3
_chemical_formula_sum   'Nb32 Co8 Pt24'
_cell_volume   1039.09061360
_cell_formula_units_Z   8
loop_
 _symmetry_equiv_pos_site_id
 _symmetry_equiv_pos_as_xyz
  1  'x, y, z'
loop_
 _atom_site_type_symbol
 _atom_site_label
 _atom_site_symmetry_multiplicity
 _atom_site_fract_x
 _atom_site_fract_y
 _atom_site_fract_z
 _atom_site_occupancy
  Nb  Nb0_0  1  0.00000000  0.25000000  0.20007250  1
  Nb  Nb0_1  1  0.00000000  0.25000000  0.70007250  1
  Nb  Nb0_2  1  0.00000000  0.75000000  0.20007250  1
  Nb  Nb0_3  1  0.00000000  0.75000000  0.70007250  1
  Nb  Nb0_4  1  0.50000000  0.25000000  0.20007250  1
  Nb  Nb0_5  1  0.50000000  0.25000000  0.70007250  1
  Nb  Nb0_6  1  0.50000000  0.75000000  0.20007250  1
  Nb  Nb0_7  1  0.50000000  0.75000000  0.70007250  1
  Nb  Nb1_0  1  0.00000000  0.25000000  0.45928150  1
  Nb  Nb1_1  1  0.00000000  0.25000000  0.95928150  1
  Nb  Nb1_2  1  0.00000000  0.75000000  0.45928150  1
  Nb  Nb1_3  1  0.00000000  0.75000000  0.95928150  1
  Nb  Nb1_4  1  0.50000000  0.25000000  0.45928150  1
  Nb  Nb1_5  1  0.50000000  0.25000000  0.95928150  1
  Nb  Nb1_6  1  0.50000000  0.75000000  0.45928150  1
  Nb  Nb1_7  1  0.50000000  0.75000000  0.95928150  1
  Nb  Nb2_0  1  0.00000000  0.00000000  0.04873650  1
  Nb  Nb2_1  1  0.00000000  0.00000000  0.54873650  1
  Nb  Nb2_2  1  0.00000000  0.50000000  0.04873650  1
  Nb  Nb2_3  1  0.00000000  0.50000000  0.54873650  1
  Nb  Nb2_4  1  0.50000000  0.00000000  0.04873650  1
  Nb  Nb2_5  1  0.50000000  0.00000000  0.54873650  1
  Nb  Nb2_6  1  0.50000000  0.50000000  0.04873650  1
  Nb  Nb2_7  1  0.50000000  0.50000000  0.54873650  1
  Nb  Nb3_0  1  0.00000000  0.00000000  0.29425700  1
  Nb  Nb3_1  1  0.00000000  0.00000000  0.79425700  1
  Nb  Nb3_2  1  0.00000000  0.50000000  0.29425700  1
  Nb  Nb3_3  1  0.00000000  0.50000000  0.79425700  1
  Nb  Nb3_4  1  0.50000000  0.00000000  0.29425700  1
  Nb  Nb3_5  1  0.50000000  0.00000000  0.79425700  1
  Nb  Nb3_6  1  0.50000000  0.50000000  0.29425700  1
  Nb  Nb3_7  1  0.50000000  0.50000000  0.79425700  1
  Co  Co0_0  1  0.25000000  0.25000000  0.07960450  1
  Co  Co0_1  1  0.25000000  0.25000000  0.57960450  1
  Co  Co0_2  1  0.25000000  0.75000000  0.07960450  1
  Co  Co0_3  1  0.25000000  0.75000000  0.57960450  1
  Co  Co0_4  1  0.75000000  0.25000000  0.07960450  1
  Co  Co0_5  1  0.75000000  0.25000000  0.57960450  1
  Co  Co0_6  1  0.75000000  0.75000000  0.07960450  1
  Co  Co0_7  1  0.75000000  0.75000000  0.57960450  1
  Pt  Pt0_0  1  0.25000000  0.25000000  0.33123700  1
  Pt  Pt0_1  1  0.25000000  0.25000000  0.83123700  1
  Pt  Pt0_2  1  0.25000000  0.75000000  0.33123700  1
  Pt  Pt0_3  1  0.25000000  0.75000000  0.83123700  1
  Pt  Pt0_4  1  0.75000000  0.25000000  0.33123700  1
  Pt  Pt0_5  1  0.75000000  0.25000000  0.83123700  1
  Pt  Pt0_6  1  0.75000000  0.75000000  0.33123700  1
  Pt  Pt0_7  1  0.75000000  0.75000000  0.83123700  1
  Pt  Pt1_0  1  0.25000000  0.00000000  0.16745900  1
  Pt  Pt1_1  1  0.25000000  0.00000000  0.66745900  1
  Pt  Pt1_2  1  0.25000000  0.50000000  0.16745900  1
  Pt  Pt1_3  1  0.25000000  0.50000000  0.66745900  1
  Pt  Pt1_4  1  0.75000000  0.00000000  0.16745900  1
  Pt  Pt1_5  1  0.75000000  0.00000000  0.66745900  1
  Pt  Pt1_6  1  0.75000000  0.50000000  0.16745900  1
  Pt  Pt1_7  1  0.75000000  0.50000000  0.66745900  1
  Pt  Pt2_0  1  0.25000000  0.00000000  0.41935250  1
  Pt  Pt2_1  1  0.25000000  0.00000000  0.91935250  1
  Pt  Pt2_2  1  0.25000000  0.50000000  0.41935250  1
  Pt  Pt2_3  1  0.25000000  0.50000000  0.91935250  1
  Pt  Pt2_4  1  0.75000000  0.00000000  0.41935250  1
  Pt  Pt2_5  1  0.75000000  0.00000000  0.91935250  1
  Pt  Pt2_6  1  0.75000000  0.50000000  0.41935250  1
  Pt  Pt2_7  1  0.75000000  0.50000000  0.91935250  1
loop_
_geom_bond_atom_site_label_1
_geom_bond_atom_site_label_2
_geom_bond_distance
_geom_bond_site_symmetry_2
Nb0_0 Pt1_0 2.783671 1_555
Nb0_0 Pt1_2 2.783671 1_555
Nb0_0 Pt1_6 2.783671 1_455
Nb0_0 Pt1_4 2.783671 1_455
Nb0_0 Nb0_4 2.822915 1_555
Nb0_0 Nb0_4 2.822915 1_455
Nb0_0 Pt0_0 2.969823 1_555
Nb0_0 Pt0_4 2.969823 1_455
Nb0_0 Nb3_2 2.975724 1_555
Nb0_0 Nb3_0 2.975724 1_555
Nb0_1 Pt1_3 2.783671 1_555
Nb0_1 Pt1_7 2.783671 1_455
Nb0_1 Pt1_1 2.783671 1_555
Nb0_1 Pt1_5 2.783671 1_455
Nb0_1 Nb0_5 2.822915 1_555
Nb0_1 Nb0_5 2.822915 1_455
Nb0_1 Pt0_5 2.969823 1_455
Nb0_1 Pt0_1 2.969823 1_555
Nb0_1 Nb3_1 2.975724 1_555
Nb0_1 Nb3_3 2.975724 1_555
Nb0_2 Pt1_0 2.783671 1_565
Nb0_2 Pt1_2 2.783671 1_555
Nb0_2 Pt1_4 2.783671 1_465
Nb0_2 Pt1_6 2.783671 1_455
Nb0_2 Nb0_6 2.822915 1_555
Nb0_2 Nb0_6 2.822915 1_455
Nb0_2 Pt0_2 2.969823 1_555
Nb0_2 Pt0_6 2.969823 1_455
Nb0_2 Nb3_0 2.975724 1_565
Nb0_2 Nb3_2 2.975724 1_555
Nb0_3 Pt1_1 2.783671 1_565
Nb0_3 Pt1_3 2.783671 1_555
Nb0_3 Pt1_7 2.783671 1_455
Nb0_3 Pt1_5 2.783671 1_465
Nb0_3 Nb0_7 2.822915 1_555
Nb0_3 Nb0_7 2.822915 1_455
Nb0_3 Pt0_3 2.969823 1_555
Nb0_3 Pt0_7 2.969823 1_455
Nb0_3 Nb3_3 2.975724 1_555
Nb0_3 Nb3_1 2.975724 1_565
Nb0_4 Pt1_0 2.783671 1_555
Nb0_4 Pt1_2 2.783671 1_555
Nb0_4 Pt1_4 2.783671 1_555
Nb0_4 Pt1_6 2.783671 1_555
Nb0_4 Pt0_0 2.969823 1_555
Nb0_4 Pt0_4 2.969823 1_555
Nb0_4 Nb3_6 2.975724 1_555
Nb0_4 Nb3_4 2.975724 1_555
Nb0_5 Pt1_3 2.783671 1_555
Nb0_5 Pt1_1 2.783671 1_555
Nb0_5 Pt1_7 2.783671 1_555
Nb0_5 Pt1_5 2.783671 1_555
Nb0_5 Pt0_5 2.969823 1_555
Nb0_5 Pt0_1 2.969823 1_555
Nb0_5 Nb3_7 2.975724 1_555
Nb0_5 Nb3_5 2.975724 1_555
Nb0_6 Pt1_0 2.783671 1_565
Nb0_6 Pt1_2 2.783671 1_555
Nb0_6 Pt1_4 2.783671 1_565
Nb0_6 Pt1_6 2.783671 1_555
Nb0_6 Pt0_2 2.969823 1_555
Nb0_6 Pt0_6 2.969823 1_555
Nb0_6 Nb3_4 2.975724 1_565
Nb0_6 Nb3_6 2.975724 1_555
Nb0_7 Pt1_1 2.783671 1_565
Nb0_7 Pt1_3 2.783671 1_555
Nb0_7 Pt1_7 2.783671 1_555
Nb0_7 Pt1_5 2.783671 1_565
Nb0_7 Pt0_7 2.969823 1_555
Nb0_7 Pt0_3 2.969823 1_555
Nb0_7 Nb3_7 2.975724 1_555
Nb0_7 Nb3_5 2.975724 1_565
Nb1_0 Pt2_0 2.821247 1_555
Nb1_0 Pt2_4 2.821247 1_455
Nb1_0 Pt2_2 2.821247 1_555
Nb1_0 Pt2_6 2.821247 1_455
Nb1_0 Nb1_4 2.822915 1_555
Nb1_0 Nb1_4 2.822915 1_455
Nb1_0 Pt0_0 2.915286 1_555
Nb1_0 Pt0_4 2.915286 1_455
Nb1_0 Nb2_3 2.917234 1_555
Nb1_0 Nb2_1 2.917234 1_555
Nb1_1 Pt2_1 2.821247 1_555
Nb1_1 Pt2_7 2.821247 1_455
Nb1_1 Pt2_3 2.821247 1_555
Nb1_1 Pt2_5 2.821247 1_455
Nb1_1 Nb1_5 2.822915 1_555
Nb1_1 Nb1_5 2.822915 1_455
Nb1_1 Pt0_1 2.915286 1_555
Nb1_1 Pt0_5 2.915286 1_455
Nb1_1 Nb2_0 2.917234 1_556
Nb1_1 Nb2_2 2.917234 1_556
Nb1_2 Pt2_0 2.821247 1_565
Nb1_2 Pt2_4 2.821247 1_465
Nb1_2 Pt2_2 2.821247 1_555
Nb1_2 Pt2_6 2.821247 1_455
Nb1_2 Nb1_6 2.822915 1_555
Nb1_2 Nb1_6 2.822915 1_455
Nb1_2 Pt0_6 2.915286 1_455
Nb1_2 Pt0_2 2.915286 1_555
Nb1_2 Nb2_3 2.917234 1_555
Nb1_2 Nb2_1 2.917234 1_565
Nb1_3 Pt2_1 2.821247 1_565
Nb1_3 Pt2_7 2.821247 1_455
Nb1_3 Pt2_5 2.821247 1_465
Nb1_3 Pt2_3 2.821247 1_555
Nb1_3 Nb1_7 2.822915 1_555
Nb1_3 Nb1_7 2.822915 1_455
Nb1_3 Pt0_7 2.915286 1_455
Nb1_3 Pt0_3 2.915286 1_555
Nb1_3 Nb2_0 2.917234 1_566
Nb1_3 Nb2_2 2.917234 1_556
Nb1_4 Pt2_0 2.821247 1_555
Nb1_4 Pt2_6 2.821247 1_555
Nb1_4 Pt2_4 2.821247 1_555
Nb1_4 Pt2_2 2.821247 1_555
Nb1_4 Pt0_0 2.915286 1_555
Nb1_4 Pt0_4 2.915286 1_555
Nb1_4 Nb2_5 2.917234 1_555
Nb1_4 Nb2_7 2.917234 1_555
Nb1_5 Pt2_1 2.821247 1_555
Nb1_5 Pt2_3 2.821247 1_555
Nb1_5 Pt2_7 2.821247 1_555
Nb1_5 Pt2_5 2.821247 1_555
Nb1_5 Pt0_1 2.915286 1_555
Nb1_5 Pt0_5 2.915286 1_555
Nb1_5 Nb2_4 2.917234 1_556
Nb1_5 Nb2_6 2.917234 1_556
Nb1_6 Pt2_4 2.821247 1_565
Nb1_6 Pt2_6 2.821247 1_555
Nb1_6 Pt2_0 2.821247 1_565
Nb1_6 Pt2_2 2.821247 1_555
Nb1_6 Pt0_2 2.915286 1_555
Nb1_6 Pt0_6 2.915286 1_555
Nb1_6 Nb2_5 2.917234 1_565
Nb1_6 Nb2_7 2.917234 1_555
Nb1_7 Pt2_1 2.821247 1_565
Nb1_7 Pt2_3 2.821247 1_555
Nb1_7 Pt2_5 2.821247 1_565
Nb1_7 Pt2_7 2.821247 1_555
Nb1_7 Pt0_3 2.915286 1_555
Nb1_7 Pt0_7 2.915286 1_555
Nb1_7 Nb2_4 2.917234 1_566
Nb1_7 Nb2_6 2.917234 1_556
Nb2_0 Pt1_4 2.754264 1_455
Nb2_0 Pt1_0 2.754264 1_555
Nb2_0 Nb2_4 2.822915 1_555
Nb2_0 Nb2_4 2.822915 1_455
Nb2_0 Pt2_1 2.938663 1_554
Nb2_0 Pt2_5 2.938663 1_454
Nb2_1 Pt1_5 2.754264 1_455
Nb2_1 Pt1_1 2.754264 1_555
Nb2_1 Nb2_5 2.822915 1_555
Nb2_1 Nb2_5 2.822915 1_455
Nb2_1 Pt2_0 2.938663 1_555
Nb2_1 Pt2_4 2.938663 1_455
Nb2_2 Pt1_2 2.754264 1_555
Nb2_2 Pt1_6 2.754264 1_455
Nb2_2 Nb2_6 2.822915 1_555
Nb2_2 Nb2_6 2.822915 1_455
Nb2_2 Pt2_7 2.938663 1_454
Nb2_2 Pt2_3 2.938663 1_554
Nb2_3 Pt1_3 2.754264 1_555
Nb2_3 Pt1_7 2.754264 1_455
Nb2_3 Nb2_7 2.822915 1_555
Nb2_3 Nb2_7 2.822915 1_455
Nb2_3 Pt2_2 2.938663 1_555
Nb2_3 Pt2_6 2.938663 1_455
Nb2_4 Pt1_0 2.754264 1_555
Nb2_4 Pt1_4 2.754264 1_555
Nb2_4 Pt2_5 2.938663 1_554
Nb2_4 Pt2_1 2.938663 1_554
Nb2_5 Pt1_5 2.754264 1_555
Nb2_5 Pt1_1 2.754264 1_555
Nb2_5 Pt2_0 2.938663 1_555
Nb2_5 Pt2_4 2.938663 1_555
Nb2_6 Pt1_2 2.754264 1_555
Nb2_6 Pt1_6 2.754264 1_555
Nb2_6 Pt2_3 2.938663 1_554
Nb2_6 Pt2_7 2.938663 1_554
Nb2_7 Pt1_3 2.754264 1_555
Nb2_7 Pt1_7 2.754264 1_555
Nb2_7 Pt2_6 2.938663 1_555
Nb2_7 Pt2_2 2.938663 1_555
Nb3_0 Pt0_2 2.805249 1_545
Nb3_0 Pt0_0 2.805249 1_555
Nb3_0 Pt0_6 2.805249 1_445
Nb3_0 Pt0_4 2.805249 1_455
Nb3_0 Nb3_4 2.822915 1_555
Nb3_0 Nb3_4 2.822915 1_455
Nb3_0 Pt2_0 2.864024 1_555
Nb3_0 Pt2_4 2.864024 1_455
Nb3_0 Pt1_0 2.893584 1_555
Nb3_0 Pt1_4 2.893584 1_455
Nb3_1 Pt0_3 2.805249 1_545
Nb3_1 Pt0_1 2.805249 1_555
Nb3_1 Pt0_7 2.805249 1_445
Nb3_1 Pt0_5 2.805249 1_455
Nb3_1 Nb3_5 2.822915 1_555
Nb3_1 Nb3_5 2.822915 1_455
Nb3_1 Pt2_1 2.864024 1_555
Nb3_1 Pt2_5 2.864024 1_455
Nb3_1 Pt1_1 2.893584 1_555
Nb3_1 Pt1_5 2.893584 1_455
Nb3_2 Pt0_2 2.805249 1_555
Nb3_2 Pt0_0 2.805249 1_555
Nb3_2 Pt0_6 2.805249 1_455
Nb3_2 Pt0_4 2.805249 1_455
Nb3_2 Nb3_6 2.822915 1_555
Nb3_2 Nb3_6 2.822915 1_455
Nb3_2 Pt2_2 2.864024 1_555
Nb3_2 Pt2_6 2.864024 1_455
Nb3_2 Pt1_2 2.893584 1_555
Nb3_2 Pt1_6 2.893584 1_455
Nb3_3 Pt0_3 2.805249 1_555
Nb3_3 Pt0_1 2.805249 1_555
Nb3_3 Pt0_7 2.805249 1_455
Nb3_3 Pt0_5 2.805249 1_455
Nb3_3 Nb3_7 2.822915 1_555
Nb3_3 Nb3_7 2.822915 1_455
Nb3_3 Pt2_3 2.864024 1_555
Nb3_3 Pt2_7 2.864024 1_455
Nb3_3 Pt1_3 2.893584 1_555
Nb3_3 Pt1_7 2.893584 1_455
Nb3_4 Pt0_2 2.805249 1_545
Nb3_4 Pt0_0 2.805249 1_555
Nb3_4 Pt0_4 2.805249 1_555
Nb3_4 Pt0_6 2.805249 1_545
Nb3_4 Pt2_0 2.864024 1_555
Nb3_4 Pt2_4 2.864024 1_555
Nb3_4 Pt1_0 2.893584 1_555
Nb3_4 Pt1_4 2.893584 1_555
Nb3_5 Pt0_3 2.805249 1_545
Nb3_5 Pt0_1 2.805249 1_555
Nb3_5 Pt0_5 2.805249 1_555
Nb3_5 Pt0_7 2.805249 1_545
Nb3_5 Pt2_1 2.864024 1_555
Nb3_5 Pt2_5 2.864024 1_555
Nb3_5 Pt1_1 2.893584 1_555
Nb3_5 Pt1_5 2.893584 1_555
Nb3_6 Pt0_2 2.805249 1_555
Nb3_6 Pt0_0 2.805249 1_555
Nb3_6 Pt0_4 2.805249 1_555
Nb3_6 Pt0_6 2.805249 1_555
Nb3_6 Pt2_6 2.864024 1_555
Nb3_6 Pt2_2 2.864024 1_555
Nb3_6 Pt1_6 2.893584 1_555
Nb3_6 Pt1_2 2.893584 1_555
Nb3_7 Pt0_3 2.805249 1_555
Nb3_7 Pt0_1 2.805249 1_555
Nb3_7 Pt0_7 2.805249 1_555
Nb3_7 Pt0_5 2.805249 1_555
Nb3_7 Pt2_3 2.864024 1_555
Nb3_7 Pt2_7 2.864024 1_555
Nb3_7 Pt1_7 2.893584 1_555
Nb3_7 Pt1_3 2.893584 1_555
Co0_0 Nb2_0 2.775761 1_555
Co0_0 Nb2_6 2.775761 1_555
Co0_0 Nb2_4 2.775761 1_555
Co0_0 Nb2_2 2.775761 1_555
Co0_0 Nb1_5 2.781692 1_554
Co0_0 Nb1_1 2.781692 1_554
Co0_0 Nb0_0 2.784181 1_555
Co0_0 Nb0_4 2.784181 1_555
Co0_0 Co0_4 2.822915 1_555
Co0_0 Co0_4 2.822915 1_455
Co0_0 Pt1_2 2.897866 1_555
Co0_0 Pt1_0 2.897866 1_555
Co0_1 Nb2_1 2.775761 1_555
Co0_1 Nb2_3 2.775761 1_555
Co0_1 Nb2_5 2.775761 1_555
Co0_1 Nb2_7 2.775761 1_555
Co0_1 Nb1_0 2.781692 1_555
Co0_1 Nb1_4 2.781692 1_555
Co0_1 Nb0_1 2.784181 1_555
Co0_1 Nb0_5 2.784181 1_555
Co0_1 Co0_5 2.822915 1_555
Co0_1 Co0_5 2.822915 1_455
Co0_1 Pt1_3 2.897866 1_555
Co0_1 Pt1_1 2.897866 1_555
Co0_2 Nb2_4 2.775761 1_565
Co0_2 Nb2_6 2.775761 1_555
Co0_2 Nb2_0 2.775761 1_565
Co0_2 Nb2_2 2.775761 1_555
Co0_2 Nb1_3 2.781692 1_554
Co0_2 Nb1_7 2.781692 1_554
Co0_2 Nb0_2 2.784181 1_555
Co0_2 Nb0_6 2.784181 1_555
Co0_2 Co0_6 2.822915 1_455
Co0_2 Co0_6 2.822915 1_555
Co0_2 Pt1_0 2.897866 1_565
Co0_2 Pt1_2 2.897866 1_555
Co0_3 Nb2_1 2.775761 1_565
Co0_3 Nb2_5 2.775761 1_565
Co0_3 Nb2_3 2.775761 1_555
Co0_3 Nb2_7 2.775761 1_555
Co0_3 Nb1_2 2.781692 1_555
Co0_3 Nb1_6 2.781692 1_555
Co0_3 Nb0_3 2.784181 1_555
Co0_3 Nb0_7 2.784181 1_555
Co0_3 Co0_7 2.822915 1_555
Co0_3 Co0_7 2.822915 1_455
Co0_3 Pt1_1 2.897866 1_565
Co0_3 Pt1_3 2.897866 1_555
Co0_4 Nb2_2 2.775761 1_655
Co0_4 Nb2_0 2.775761 1_655
Co0_4 Nb2_4 2.775761 1_555
Co0_4 Nb2_6 2.775761 1_555
Co0_4 Nb1_1 2.781692 1_654
Co0_4 Nb1_5 2.781692 1_554
Co0_4 Nb0_4 2.784181 1_555
Co0_4 Nb0_0 2.784181 1_655
Co0_4 Pt1_4 2.897866 1_555
Co0_4 Pt1_6 2.897866 1_555
Co0_5 Nb2_3 2.775761 1_655
Co0_5 Nb2_1 2.775761 1_655
Co0_5 Nb2_5 2.775761 1_555
Co0_5 Nb2_7 2.775761 1_555
Co0_5 Nb1_0 2.781692 1_655
Co0_5 Nb1_4 2.781692 1_555
Co0_5 Nb0_1 2.784181 1_655
Co0_5 Nb0_5 2.784181 1_555
Co0_5 Pt1_7 2.897866 1_555
Co0_5 Pt1_5 2.897866 1_555
Co0_6 Nb2_2 2.775761 1_655
Co0_6 Nb2_0 2.775761 1_665
Co0_6 Nb2_4 2.775761 1_565
Co0_6 Nb2_6 2.775761 1_555
Co0_6 Nb1_3 2.781692 1_654
Co0_6 Nb1_7 2.781692 1_554
Co0_6 Nb0_2 2.784181 1_655
Co0_6 Nb0_6 2.784181 1_555
Co0_6 Pt1_4 2.897866 1_565
Co0_6 Pt1_6 2.897866 1_555
Co0_7 Nb2_3 2.775761 1_655
Co0_7 Nb2_1 2.775761 1_665
Co0_7 Nb2_5 2.775761 1_565
Co0_7 Nb2_7 2.775761 1_555
Co0_7 Nb1_2 2.781692 1_655
Co0_7 Nb1_6 2.781692 1_555
Co0_7 Nb0_3 2.784181 1_655
Co0_7 Nb0_7 2.784181 1_555
Co0_7 Pt1_5 2.897866 1_565
Co0_7 Pt1_7 2.897866 1_555
Pt0_0 Pt0_4 2.822915 1_455
Pt0_0 Pt0_4 2.822915 1_555
Pt0_0 Pt2_2 2.901010 1_555
Pt0_0 Pt2_0 2.901010 1_555
Pt0_1 Pt0_5 2.822915 1_555
Pt0_1 Pt0_5 2.822915 1_455
Pt0_1 Pt2_3 2.901010 1_555
Pt0_1 Pt2_1 2.901010 1_555
Pt0_2 Pt0_6 2.822915 1_455
Pt0_2 Pt0_6 2.822915 1_555
Pt0_2 Pt2_0 2.901010 1_565
Pt0_2 Pt2_2 2.901010 1_555
Pt0_3 Pt0_7 2.822915 1_555
Pt0_3 Pt0_7 2.822915 1_455
Pt0_3 Pt2_3 2.901010 1_555
Pt0_3 Pt2_1 2.901010 1_565
Pt0_4 Pt2_6 2.901010 1_555
Pt0_4 Pt2_4 2.901010 1_555
Pt0_5 Pt2_5 2.901010 1_555
Pt0_5 Pt2_7 2.901010 1_555
Pt0_6 Pt2_6 2.901010 1_555
Pt0_6 Pt2_4 2.901010 1_565
Pt0_7 Pt2_5 2.901010 1_565
Pt0_7 Pt2_7 2.901010 1_555
Pt1_0 Pt1_4 2.822915 1_455
Pt1_0 Pt1_4 2.822915 1_555
Pt1_1 Pt1_5 2.822915 1_455
Pt1_1 Pt1_5 2.822915 1_555
Pt1_2 Pt1_6 2.822915 1_455
Pt1_2 Pt1_6 2.822915 1_555
Pt1_3 Pt1_7 2.822915 1_455
Pt1_3 Pt1_7 2.822915 1_555
Pt2_0 Pt2_4 2.822915 1_555
Pt2_0 Pt2_4 2.822915 1_455
Pt2_1 Pt2_5 2.822915 1_455
Pt2_1 Pt2_5 2.822915 1_555
Pt2_2 Pt2_6 2.822915 1_455
Pt2_2 Pt2_6 2.822915 1_555
Pt2_3 Pt2_7 2.822915 1_555
Pt2_3 Pt2_7 2.822915 1_455
