# generated using pymatgen
data_Li3(VS2)4
_symmetry_space_group_name_H-M   'P 1'
_cell_length_a   6.65413800
_cell_length_b   7.62994490
_cell_length_c   6.66262010
_cell_angle_alpha   64.03176905
_cell_angle_beta   60.04210450
_cell_angle_gamma   64.14761108
_symmetry_Int_Tables_number   1
_chemical_formula_structural   Li3(VS2)4
_chemical_formula_sum   'Li3 V4 S8'
_cell_volume   253.01150539
_cell_formula_units_Z   1
loop_
 _symmetry_equiv_pos_site_id
 _symmetry_equiv_pos_as_xyz
  1  'x, y, z'
loop_
 _atom_site_type_symbol
 _atom_site_label
 _atom_site_symmetry_multiplicity
 _atom_site_fract_x
 _atom_site_fract_y
 _atom_site_fract_z
 _atom_site_occupancy
  Li  Li0  1  0.34303800  0.43279900  0.34543300  1
  Li  Li1  1  0.87873100  0.43279900  0.34543300  1
  Li  Li2  1  0.34329900  0.43163800  0.88176500  1
  V  V0  1  0.00392800  0.98607500  0.00607000  1
  V  V1  1  0.94700500  0.99246800  0.53393000  1
  V  V2  1  0.52659700  0.99246800  0.53393000  1
  V  V3  1  0.52778100  0.99277500  0.95166200  1
  S  S0  1  0.27101000  0.18285100  0.27512800  1
  S  S1  1  0.76014900  0.21921800  0.26048400  1
  S  S2  1  0.72840300  0.79473600  0.24105500  1
  S  S3  1  0.23580600  0.79473600  0.24105500  1
  S  S4  1  0.25560700  0.22134700  0.76312000  1
  S  S5  1  0.75992600  0.22134700  0.76312000  1
  S  S6  1  0.23631900  0.79342100  0.73394100  1
  S  S7  1  0.74985200  0.74457100  0.75572500  1
loop_
_geom_bond_atom_site_label_1
_geom_bond_atom_site_label_2
_geom_bond_distance
_geom_bond_site_symmetry_2
Li0 S3 2.390448 1_555
Li0 S0 2.426888 1_555
Li0 S4 2.440404 1_555
Li0 S1 2.444121 1_555
Li1 S2 2.390448 1_555
Li1 S0 2.426880 1_655
Li1 S5 2.440404 1_555
Li1 S1 2.444126 1_555
Li2 S6 2.387911 1_555
Li2 S0 2.425669 1_556
Li2 S5 2.434691 1_555
Li2 S4 2.434695 1_555
S0 V1 2.560557 1_445
S0 V2 2.560562 1_545
S0 V3 2.562373 1_544
S1 V2 2.341872 1_545
S1 V1 2.341872 1_545
S1 V0 2.459049 1_645
S2 V0 2.325866 1_655
S2 V3 2.458260 1_554
S2 V2 2.466030 1_555
S3 V0 2.325861 1_555
S3 V3 2.458256 1_554
S3 V1 2.466030 1_455
S4 V2 2.339237 1_545
S4 V3 2.344900 1_545
S4 V0 2.452953 1_546
S5 V1 2.339237 1_545
S5 V3 2.344905 1_545
S5 V0 2.452957 1_646
S6 V0 2.321801 1_556
S6 V1 2.455289 1_455
S6 V2 2.455289 1_555
S7 V2 2.293990 1_555
S7 V1 2.293990 1_555
S7 V3 2.296110 1_555
