# generated using pymatgen
data_Yb2S3
_symmetry_space_group_name_H-M   'P 1'
_cell_length_a   6.70171952
_cell_length_b   6.70171952
_cell_length_c   7.92540470
_cell_angle_alpha   64.98852360
_cell_angle_beta   64.98852360
_cell_angle_gamma   60.00000478
_symmetry_Int_Tables_number   1
_chemical_formula_structural   Yb2S3
_chemical_formula_sum   'Yb4 S6'
_cell_volume   269.03166230
_cell_formula_units_Z   2
loop_
 _symmetry_equiv_pos_site_id
 _symmetry_equiv_pos_as_xyz
  1  'x, y, z'
loop_
 _atom_site_type_symbol
 _atom_site_label
 _atom_site_symmetry_multiplicity
 _atom_site_fract_x
 _atom_site_fract_y
 _atom_site_fract_z
 _atom_site_occupancy
  Yb  Yb0  1  0.34860800  0.34860800  0.95417600  1
  Yb  Yb1  1  0.15139200  0.15139200  0.54582400  1
  Yb  Yb2  1  0.65139200  0.65139200  0.04582400  1
  Yb  Yb3  1  0.84860800  0.84860800  0.45417600  1
  S  S0  1  0.53610900  0.96389100  0.25000000  1
  S  S1  1  0.25000000  0.53610900  0.25000000  1
  S  S2  1  0.96389100  0.25000000  0.25000000  1
  S  S3  1  0.46389100  0.03610900  0.75000000  1
  S  S4  1  0.75000000  0.46389100  0.75000000  1
  S  S5  1  0.03610900  0.75000000  0.75000000  1
loop_
_geom_bond_atom_site_label_1
_geom_bond_atom_site_label_2
_geom_bond_distance
_geom_bond_site_symmetry_2
S0 Yb2 2.791395 1_555
S0 Yb3 2.791395 1_555
S0 Yb0 2.804134 1_564
S0 Yb1 2.804134 1_565
S1 Yb2 2.791395 1_555
S1 Yb3 2.791395 1_455
S1 Yb0 2.804133 1_554
S1 Yb1 2.804133 1_555
S2 Yb3 2.791395 1_545
S2 Yb2 2.791395 1_555
S2 Yb1 2.804133 1_655
S2 Yb0 2.804133 1_654
S3 Yb0 2.791395 1_555
S3 Yb1 2.791395 1_555
S3 Yb3 2.804134 1_545
S3 Yb2 2.804134 1_546
S4 Yb0 2.791395 1_555
S4 Yb1 2.791395 1_655
S4 Yb2 2.804133 1_556
S4 Yb3 2.804133 1_555
S5 Yb1 2.791395 1_565
S5 Yb0 2.791395 1_555
S5 Yb3 2.804133 1_455
S5 Yb2 2.804133 1_456
