# generated using pymatgen
data_CsMg14Cd
_symmetry_space_group_name_H-M   'P 1'
_cell_length_a   6.62529841
_cell_length_b   6.55199138
_cell_length_c   10.84197964
_cell_angle_alpha   90.00000000
_cell_angle_beta   90.00000000
_cell_angle_gamma   119.63465795
_symmetry_Int_Tables_number   1
_chemical_formula_structural   CsMg14Cd
_chemical_formula_sum   'Cs1 Mg14 Cd1'
_cell_volume   409.07699910
_cell_formula_units_Z   1
loop_
 _symmetry_equiv_pos_site_id
 _symmetry_equiv_pos_as_xyz
  1  'x, y, z'
loop_
 _atom_site_type_symbol
 _atom_site_label
 _atom_site_symmetry_multiplicity
 _atom_site_fract_x
 _atom_site_fract_y
 _atom_site_fract_z
 _atom_site_occupancy
  Cs  Cs0  1  0.16620258  0.33310079  0.12500000  1
  Mg  Mg0  1  0.16663015  0.33331458  0.62500000  1
  Mg  Mg1  1  0.16113936  0.83056918  0.62500000  1
  Mg  Mg2  1  0.66202495  0.32290984  0.12500000  1
  Mg  Mg3  1  0.66852961  0.33820113  0.62500000  1
  Mg  Mg4  1  0.66202495  0.83911410  0.12500000  1
  Mg  Mg5  1  0.66852961  0.83032748  0.62500000  1
  Mg  Mg6  1  0.34053762  0.16122144  0.39588748  1
  Mg  Mg7  1  0.34053762  0.16122144  0.85411252  1
  Mg  Mg8  1  0.34053762  0.67931719  0.39588748  1
  Mg  Mg9  1  0.34053762  0.67931719  0.85411252  1
  Mg  Mg10  1  0.82021349  0.16010724  0.39487873  1
  Mg  Mg11  1  0.82021349  0.16010724  0.85512127  1
  Mg  Mg12  1  0.83375141  0.66687621  0.37164377  1
  Mg  Mg13  1  0.83375141  0.66687621  0.87835623  1
  Cd  Cd0  1  0.17483849  0.83741874  0.12500000  1
loop_
_geom_bond_atom_site_label_1
_geom_bond_atom_site_label_2
_geom_bond_distance
_geom_bond_site_symmetry_2
Cs0 Mg4 3.307820 1_445
Cs0 Mg2 3.307820 1_455
Cs0 Mg4 3.318494 1_555
Cs0 Mg2 3.318495 1_555
Cs0 Mg7 3.537562 1_554
Cs0 Mg6 3.537562 1_555
Cs0 Mg9 3.537568 1_554
Cs0 Mg8 3.537568 1_555
Cs0 Mg11 3.539974 1_454
Cs0 Mg10 3.539974 1_455
Mg0 Mg6 3.170822 1_555
Mg0 Mg7 3.170822 1_555
Mg0 Mg8 3.170829 1_555
Mg0 Mg9 3.170829 1_555
Mg0 Mg10 3.194451 1_455
Mg0 Mg11 3.194451 1_455
Mg0 Mg1 3.276148 1_555
Mg0 Mg1 3.276148 1_545
Mg0 Mg5 3.309519 1_555
Mg0 Mg3 3.309520 1_555
Mg0 Mg5 3.316012 1_445
Mg0 Mg3 3.316013 1_455
Mg1 Mg8 3.119301 1_555
Mg1 Mg9 3.119301 1_555
Mg1 Mg6 3.119307 1_565
Mg1 Mg7 3.119307 1_565
Mg1 Mg3 3.262904 1_455
Mg1 Mg5 3.262904 1_455
Mg1 Mg12 3.331638 1_455
Mg1 Mg13 3.331638 1_455
Mg1 Mg3 3.362395 1_565
Mg1 Mg5 3.362395 1_555
Mg2 Mg4 3.169826 1_545
Mg2 Mg4 3.382166 1_555
Mg2 Mg7 3.471775 1_554
Mg2 Mg6 3.471775 1_555
Mg3 Mg6 3.121735 1_555
Mg3 Mg7 3.121735 1_555
Mg3 Mg5 3.224408 1_555
Mg3 Mg5 3.327584 1_545
Mg4 Mg9 3.471776 1_554
Mg4 Mg8 3.471776 1_555
Mg5 Mg9 3.121736 1_555
Mg5 Mg8 3.121736 1_555
Mg6 Mg8 3.157432 1_545
Mg6 Mg8 3.394559 1_555
Mg7 Mg9 3.157432 1_545
Mg7 Mg9 3.394559 1_555
Mg10 Mg3 3.123469 1_555
Mg10 Mg5 3.123476 1_545
Mg10 Mg8 3.181630 1_545
Mg10 Mg6 3.181631 1_555
Mg10 Mg12 3.286592 1_545
Mg10 Mg12 3.286592 1_555
Mg10 Mg8 3.443716 1_655
Mg10 Mg6 3.443716 1_655
Mg10 Mg2 3.450125 1_555
Mg10 Mg4 3.450131 1_545
Mg11 Mg3 3.123469 1_555
Mg11 Mg5 3.123476 1_545
Mg11 Mg9 3.181630 1_545
Mg11 Mg7 3.181631 1_555
Mg11 Mg13 3.286592 1_545
Mg11 Mg13 3.286592 1_555
Mg11 Mg9 3.443716 1_655
Mg11 Mg7 3.443716 1_655
Mg11 Mg2 3.450125 1_556
Mg11 Mg4 3.450131 1_546
Mg12 Mg4 3.314898 1_555
Mg12 Mg2 3.314904 1_555
Mg12 Mg6 3.319177 1_555
Mg12 Mg8 3.319177 1_555
Mg12 Mg5 3.324127 1_555
Mg12 Mg3 3.324134 1_555
Mg12 Mg6 3.328455 1_665
Mg12 Mg8 3.328456 1_655
Mg13 Mg4 3.314898 1_556
Mg13 Mg2 3.314904 1_556
Mg13 Mg7 3.319177 1_555
Mg13 Mg9 3.319177 1_555
Mg13 Mg5 3.324127 1_555
Mg13 Mg3 3.324134 1_555
Mg13 Mg7 3.328455 1_665
Mg13 Mg9 3.328456 1_655
Cd0 Mg2 3.222277 1_565
Cd0 Mg4 3.222278 1_555
Cd0 Cs0 3.276373 1_555
Cd0 Cs0 3.276373 1_565
Cd0 Mg13 3.317978 1_454
Cd0 Mg12 3.317978 1_455
Cd0 Mg2 3.403049 1_455
Cd0 Mg4 3.403049 1_455
Cd0 Mg9 3.468220 1_554
Cd0 Mg8 3.468220 1_555
Cd0 Mg7 3.468226 1_564
Cd0 Mg6 3.468226 1_565
