# generated using pymatgen
data_GaN
_symmetry_space_group_name_H-M   'P 1'
_cell_length_a   12.03843916
_cell_length_b   11.76560095
_cell_length_c   10.86906260
_cell_angle_alpha   89.27943249
_cell_angle_beta   87.74179565
_cell_angle_gamma   90.14505440
_symmetry_Int_Tables_number   1
_chemical_formula_structural   GaN
_chemical_formula_sum   'Ga50 N50'
_cell_volume   1538.16401043
_cell_formula_units_Z   50
loop_
 _symmetry_equiv_pos_site_id
 _symmetry_equiv_pos_as_xyz
  1  'x, y, z'
loop_
 _atom_site_type_symbol
 _atom_site_label
 _atom_site_symmetry_multiplicity
 _atom_site_fract_x
 _atom_site_fract_y
 _atom_site_fract_z
 _atom_site_occupancy
  Ga  Ga0  1  0.26061807  0.65006139  0.37956248  1
  Ga  Ga1  1  0.20161528  0.46102939  0.66315081  1
  Ga  Ga2  1  0.87080762  0.78063948  0.01982186  1
  Ga  Ga3  1  0.04690305  0.37314997  0.97130590  1
  Ga  Ga4  1  0.51966060  0.38489429  0.37372148  1
  Ga  Ga5  1  0.57110124  0.09802802  0.73650873  1
  Ga  Ga6  1  0.69368771  0.87830653  0.67033897  1
  Ga  Ga7  1  0.97930513  0.20556872  0.53344375  1
  Ga  Ga8  1  0.42850849  0.30307628  0.65500405  1
  Ga  Ga9  1  0.69882685  0.90286909  0.14845307  1
  Ga  Ga10  1  0.21421469  0.71970720  0.12056628  1
  Ga  Ga11  1  0.22947185  0.86307195  0.30483434  1
  Ga  Ga12  1  0.44457448  0.55361656  0.26714712  1
  Ga  Ga13  1  0.73344138  0.30137579  0.54247387  1
  Ga  Ga14  1  0.11495354  0.25291256  0.72362239  1
  Ga  Ga15  1  0.82887694  0.00617394  0.87469385  1
  Ga  Ga16  1  0.26006156  0.40173271  0.44797613  1
  Ga  Ga17  1  0.22593519  0.51216158  0.13554796  1
  Ga  Ga18  1  0.99455641  0.47991971  0.69957219  1
  Ga  Ga19  1  0.36012027  0.68586530  0.86599936  1
  Ga  Ga20  1  0.70977978  0.15577290  0.30629965  1
  Ga  Ga21  1  0.30434235  0.44960114  0.86374912  1
  Ga  Ga22  1  0.11377947  0.65829555  0.55904747  1
  Ga  Ga23  1  0.00368918  0.16823554  0.91634422  1
  Ga  Ga24  1  0.39161021  0.56128814  0.58119472  1
  Ga  Ga25  1  0.12913716  0.87342222  0.74286169  1
  Ga  Ga26  1  0.81612934  0.56767197  0.94868621  1
  Ga  Ga27  1  0.34300180  0.90976479  0.01863408  1
  Ga  Ga28  1  0.65173475  0.76698894  0.87411004  1
  Ga  Ga29  1  0.89081630  0.03460737  0.16055743  1
  Ga  Ga30  1  0.84357690  0.31922742  0.77912336  1
  Ga  Ga31  1  0.98438083  0.98493512  0.59992045  1
  Ga  Ga32  1  0.88238408  0.63116227  0.53509028  1
  Ga  Ga33  1  0.48026623  0.79236236  0.65431685  1
  Ga  Ga34  1  0.95685431  0.81414277  0.29976659  1
  Ga  Ga35  1  0.95638441  0.27850210  0.18335582  1
  Ga  Ga36  1  0.52360334  0.54417617  0.81807660  1
  Ga  Ga37  1  0.57721929  0.91188786  0.37084279  1
  Ga  Ga38  1  0.71382094  0.55235084  0.67484882  1
  Ga  Ga39  1  0.72149159  0.67065593  0.31019837  1
  Ga  Ga40  1  0.57672954  0.66591697  0.47311845  1
  Ga  Ga41  1  0.74289270  0.43316171  0.27934383  1
  Ga  Ga42  1  0.05695264  0.89098712  0.03289506  1
  Ga  Ga43  1  0.42605459  0.03901832  0.51629076  1
  Ga  Ga44  1  0.60409562  0.29625795  0.82539156  1
  Ga  Ga45  1  0.25120424  0.91047199  0.52843527  1
  Ga  Ga46  1  0.47813962  0.92290136  0.84578967  1
  Ga  Ga47  1  0.48358574  0.73454726  0.14102343  1
  Ga  Ga48  1  0.76054245  0.09833195  0.60175827  1
  Ga  Ga49  1  0.74543296  0.24342123  0.01300218  1
  N  N0  1  0.06199781  0.63011286  0.94124548  1
  N  N1  1  0.17227099  0.86760273  0.91034746  1
  N  N2  1  0.61408470  0.78411708  0.23467150  1
  N  N3  1  0.95088695  0.94614884  0.42215002  1
  N  N4  1  0.60159238  0.83020991  0.52378146  1
  N  N5  1  0.53548791  0.61365229  0.64996427  1
  N  N6  1  0.41465705  0.39241922  0.51218028  1
  N  N7  1  0.34300265  0.82791080  0.17702972  1
  N  N8  1  0.86661438  0.69431599  0.37540928  1
  N  N9  1  0.56699051  0.11948168  0.03682725  1
  N  N10  1  0.81572802  0.18625887  0.16572891  1
  N  N11  1  0.70829512  0.38221292  0.69777057  1
  N  N12  1  0.32903355  0.71933561  0.67826552  1
  N  N13  1  0.86210415  0.36589060  0.40711169  1
  N  N14  1  0.32378665  0.18441952  0.89083324  1
  N  N15  1  0.82088454  0.08909680  0.42433284  1
  N  N16  1  0.10032341  0.83057008  0.19615246  1
  N  N17  1  0.19674987  0.20743264  0.45417420  1
  N  N18  1  0.41937572  0.64617388  0.42354430  1
  N  N19  1  0.67994459  0.59641478  0.85321311  1
  N  N20  1  0.95793508  0.51761335  0.16417189  1
  N  N21  1  0.01729672  0.56246638  0.22534280  1
  N  N22  1  0.24956241  0.78185618  0.95125402  1
  N  N23  1  0.49911766  0.76833789  0.95262584  1
  N  N24  1  0.46203062  0.35409462  0.10675177  1
  N  N25  1  0.19980346  0.41617453  0.00075118  1
  N  N26  1  0.96607335  0.32109174  0.65759885  1
  N  N27  1  0.74122832  0.88303718  0.96597755  1
  N  N28  1  0.52592741  0.40134173  0.04805166  1
  N  N29  1  0.26169263  0.20720657  0.18696783  1
  N  N30  1  0.26147229  0.13667028  0.44302901  1
  N  N31  1  0.46278677  0.38711482  0.80595673  1
  N  N32  1  0.94890085  0.31471254  0.38117662  1
  N  N33  1  0.23098205  0.77042504  0.64391541  1
  N  N34  1  0.45039093  0.14836943  0.63669580  1
  N  N35  1  0.85837353  0.87195770  0.17625919  1
  N  N36  1  0.48127007  0.12280372  0.08104023  1
  N  N37  1  0.20347308  0.13645599  0.16710669  1
  N  N38  1  0.94148230  0.79093838  0.79062526  1
  N  N39  1  0.91581282  0.44646685  0.87634830  1
  N  N40  1  0.65528364  0.29984919  0.38231296  1
  N  N41  1  0.09300697  0.64583633  0.84334256  1
  N  N42  1  0.63953623  0.01970493  0.26057981  1
  N  N43  1  0.25283642  0.12333315  0.90429108  1
  N  N44  1  0.88894255  0.02077837  0.36632000  1
  N  N45  1  0.97183396  0.02584639  -0.00150659  1
  N  N46  1  0.83601219  0.97894963  0.69300136  1
  N  N47  1  0.88164918  0.73868293  0.73375306  1
  N  N48  1  0.27738617  0.49256853  0.29828707  1
  N  N49  1  0.84041769  0.17799180  0.87958291  1
loop_
_geom_bond_atom_site_label_1
_geom_bond_atom_site_label_2
_geom_bond_distance
_geom_bond_site_symmetry_2
Ga0 N18 1.988761 1_555
Ga0 N48 2.069719 1_555
Ga1 Ga18 2.519275 1_455
Ga1 Ga16 2.522969 1_555
Ga1 Ga21 2.550916 1_555
Ga1 Ga24 2.686223 1_555
Ga1 Ga14 2.721894 1_555
Ga1 Ga22 2.797482 1_555
Ga2 N35 2.023509 1_555
Ga2 N27 2.071495 1_554
Ga2 N38 2.601780 1_554
Ga3 N25 1.947452 1_556
Ga3 N39 2.100634 1_455
Ga4 N40 1.921860 1_555
Ga4 N6 1.929900 1_555
Ga5 N34 1.936978 1_555
Ga6 N4 2.060472 1_555
Ga6 N46 2.104464 1_555
Ga7 N26 1.929792 1_555
Ga7 N32 2.125720 1_555
Ga8 N34 1.851918 1_555
Ga8 N6 1.876922 1_555
Ga8 N31 1.982921 1_555
Ga9 N2 1.937928 1_555
Ga9 N42 1.965432 1_565
Ga9 N35 1.989772 1_555
Ga9 N27 2.044772 1_554
Ga10 N22 2.001301 1_554
Ga10 N16 2.050221 1_555
Ga10 N7 2.117963 1_555
Ga11 N7 1.958685 1_555
Ga11 N16 2.027794 1_555
Ga12 N18 2.043319 1_555
Ga12 N48 2.148081 1_555
Ga13 N11 1.961352 1_555
Ga13 N40 2.011410 1_555
Ga13 N13 2.219512 1_555
Ga14 N26 2.113029 1_455
Ga15 N46 2.003148 1_545
Ga15 N27 2.017500 1_545
Ga15 N49 2.027465 1_555
Ga15 N45 2.239252 1_556
Ga16 N48 1.939371 1_555
Ga16 N6 2.015960 1_555
Ga16 N17 2.407231 1_555
Ga17 N25 1.896598 1_555
Ga17 N48 1.908486 1_555
Ga18 N26 1.961707 1_555
Ga18 N39 2.140285 1_555
Ga19 N22 1.960188 1_555
Ga19 N12 2.121190 1_555
Ga19 N23 2.183337 1_555
Ga20 N42 1.889772 1_555
Ga20 N10 1.979938 1_555
Ga20 N40 1.996159 1_555
Ga20 N15 2.040951 1_555
Ga21 N25 1.947026 1_556
Ga21 N31 2.120763 1_555
Ga22 N33 2.169297 1_555
Ga23 N45 1.919129 1_456
Ga23 N49 2.024359 1_455
Ga24 N18 1.988830 1_555
Ga24 N5 2.011596 1_555
Ga24 N6 2.147344 1_555
Ga24 N12 2.265458 1_555
Ga25 N1 1.913051 1_555
Ga25 N33 2.016114 1_555
Ga25 N38 2.489686 1_455
Ga26 N19 2.001760 1_555
Ga26 N39 2.013553 1_555
Ga27 N7 1.962074 1_555
Ga27 N22 2.037284 1_554
Ga27 N1 2.460873 1_554
Ga28 N23 1.995251 1_555
Ga28 N27 2.033129 1_555
Ga28 N19 2.050228 1_555
Ga29 N35 1.956157 1_545
Ga29 N45 1.983532 1_555
Ga29 N10 2.002645 1_555
Ga29 N44 2.239537 1_555
Ga30 N26 1.940462 1_555
Ga30 N49 1.976306 1_555
Ga30 N11 2.021491 1_555
Ga30 N39 2.054190 1_555
Ga31 N46 2.018395 1_555
Ga31 N3 2.046183 1_555
Ga32 N8 1.895954 1_555
Ga32 N47 2.515980 1_555
Ga33 N12 2.017349 1_555
Ga33 N4 2.040116 1_555
Ga33 N5 2.207336 1_555
Ga34 N8 1.932989 1_555
Ga34 N35 1.943412 1_555
Ga34 N16 2.031806 1_655
Ga34 N3 2.057131 1_555
Ga35 N10 2.025654 1_555
Ga35 N32 2.195595 1_555
Ga36 N5 1.992145 1_555
Ga36 N31 1.993756 1_555
Ga36 N19 2.030422 1_555
Ga37 N42 1.869320 1_565
Ga37 N4 1.942298 1_555
Ga37 N2 2.157547 1_555
Ga38 N11 2.014714 1_555
Ga38 N19 2.038998 1_555
Ga38 N5 2.291510 1_555
Ga39 N8 1.931874 1_555
Ga39 N2 2.047596 1_555
Ga40 N18 2.003496 1_555
Ga40 N4 2.041116 1_555
Ga40 N5 2.052512 1_555
Ga41 N40 2.163227 1_555
Ga41 N13 2.179384 1_555
Ga42 N1 1.908543 1_554
Ga42 N45 1.931563 1_465
Ga42 N16 1.992425 1_555
Ga43 N34 1.877352 1_555
Ga43 N30 2.447973 1_555
Ga44 N31 2.028070 1_555
Ga44 N11 2.083637 1_555
Ga45 N33 2.066785 1_555
Ga46 N23 2.166002 1_555
Ga47 N2 1.995134 1_555
Ga47 N7 2.047453 1_555
Ga47 N23 2.082088 1_554
Ga48 N46 1.955584 1_545
Ga48 N15 2.038059 1_555
Ga49 N49 1.976084 1_554
Ga49 N10 2.002384 1_555
Ga49 N9 2.595940 1_555
N0 N41 1.126636 1_555
N1 N22 1.451663 1_555
N3 N44 1.311825 1_565
N12 N33 1.388057 1_555
N13 N32 1.232107 1_555
N14 N43 1.118879 1_555
N15 N44 1.300129 1_555
N17 N30 1.145994 1_555
N20 N21 1.129419 1_655
N24 N28 1.121611 1_555
N29 N37 1.115455 1_555
N36 N9 1.122033 1_555
N38 N47 1.149495 1_555
