# generated using pymatgen
data_Er6H40N8O49
_symmetry_space_group_name_H-M   'P 1'
_cell_length_a   10.19935100
_cell_length_b   10.25572548
_cell_length_c   11.40722859
_cell_angle_alpha   95.42321724
_cell_angle_beta   108.84264066
_cell_angle_gamma   111.33017715
_symmetry_Int_Tables_number   1
_chemical_formula_structural   Er6H40N8O49
_chemical_formula_sum   'Er6 H40 N8 O49'
_cell_volume   1021.04966506
_cell_formula_units_Z   1
loop_
 _symmetry_equiv_pos_site_id
 _symmetry_equiv_pos_as_xyz
  1  'x, y, z'
loop_
 _atom_site_type_symbol
 _atom_site_label
 _atom_site_symmetry_multiplicity
 _atom_site_fract_x
 _atom_site_fract_y
 _atom_site_fract_z
 _atom_site_occupancy
  Er  Er0  1  0.73588800  0.47635100  0.61587600  1
  Er  Er1  1  0.26411200  0.52364900  0.38412400  1
  Er  Er2  1  0.65168500  0.75870900  0.52179500  1
  Er  Er3  1  0.34831500  0.24129100  0.47820500  1
  Er  Er4  1  0.48138400  0.56622700  0.70687400  1
  Er  Er5  1  0.51861600  0.43377300  0.29312600  1
  H  H0  1  0.80672100  0.73915900  0.78819200  1
  H  H1  1  0.19327900  0.26084100  0.21180800  1
  H  H2  1  0.84254100  0.64605400  0.44677100  1
  H  H3  1  0.15745900  0.35394600  0.55322900  1
  H  H4  1  0.40995500  0.78755200  0.59072000  1
  H  H5  1  0.59004500  0.21244800  0.40928000  1
  H  H6  1  0.55408500  0.32348900  0.75365600  1
  H  H7  1  0.44591500  0.67651100  0.24634400  1
  H  H8  1  0.96576900  0.54328000  0.86967700  1
  H  H9  1  0.03423100  0.45672000  0.13032300  1
  H  H10  1  0.83469100  0.40044900  0.87331400  1
  H  H11  1  0.16530900  0.59955100  0.12668600  1
  H  H12  1  0.00872400  0.75784200  0.70036300  1
  H  H13  1  0.99127600  0.24215800  0.29963700  1
  H  H14  1  0.08718200  0.64783100  0.70548800  1
  H  H15  1  0.91281800  0.35216900  0.29451200  1
  H  H16  1  0.95535100  0.98279700  0.69133000  1
  H  H17  1  0.04464900  0.01720300  0.30867000  1
  H  H18  1  0.01695500  0.93916700  0.59339400  1
  H  H19  1  0.98304500  0.06083300  0.40660600  1
  H  H20  1  0.73773500  0.06141300  0.68742400  1
  H  H21  1  0.26226500  0.93858700  0.31257600  1
  H  H22  1  0.68187100  0.93740200  0.75881000  1
  H  H23  1  0.31812900  0.06259800  0.24119000  1
  H  H24  1  0.48787400  0.83969700  0.85801700  1
  H  H25  1  0.51212600  0.16030300  0.14198300  1
  H  H26  1  0.64528400  0.83887100  0.93338500  1
  H  H27  1  0.35471600  0.16112900  0.06661500  1
  H  H28  1  0.64375200  0.57904100  0.99533100  1
  H  H29  1  0.35624800  0.42095900  0.00466900  1
  H  H30  1  0.74835700  0.58114900  0.91918700  1
  H  H31  1  0.25164300  0.41885100  0.08081300  1
  H  H32  1  0.73034900  0.99416300  0.11080200  1
  H  H33  1  0.26965100  0.00583700  0.88919800  1
  H  H34  1  0.74175000  0.85630200  0.14972400  1
  H  H35  1  0.25825000  0.14369800  0.85027600  1
  H  H36  1  0.02712600  0.80151600  0.98694300  1
  H  H37  1  0.97287400  0.19848400  0.01305700  1
  H  H38  1  0.03829000  0.93042100  0.92601000  1
  H  H39  1  0.96171000  0.06957900  0.07399000  1
  N  N0  1  0.88921200  0.27945200  0.60165400  1
  N  N1  1  0.11078800  0.72054800  0.39834600  1
  N  N2  1  0.67945300  0.97836500  0.37187700  1
  N  N3  1  0.32054700  0.02163500  0.62812300  1
  N  N4  1  0.24446100  0.50422800  0.81545400  1
  N  N5  1  0.75553900  0.49577200  0.18454600  1
  N  N6  1  0.67678100  0.21556000  0.95888500  1
  N  N7  1  0.32321900  0.78444000  0.04111500  1
  O  O0  1  0.50000000  0.50000000  0.50000000  1
  O  O1  1  0.72031500  0.67881400  0.70618400  1
  O  O2  1  0.27968500  0.32118600  0.29381600  1
  O  O3  1  0.74548000  0.60470200  0.45735700  1
  O  O4  1  0.25452000  0.39529800  0.54264300  1
  O  O5  1  0.43350000  0.70773200  0.56560600  1
  O  O6  1  0.56650000  0.29226800  0.43439400  1
  O  O7  1  0.53607300  0.36691100  0.67977000  1
  O  O8  1  0.46392700  0.63308900  0.32023000  1
  O  O9  1  0.85533900  0.49345800  0.84533900  1
  O  O10  1  0.14466100  0.50654200  0.15466100  1
  O  O11  1  0.99558400  0.65916100  0.70595100  1
  O  O12  1  0.00441600  0.34083900  0.29404900  1
  O  O13  1  0.94175500  0.89946100  0.63138300  1
  O  O14  1  0.05824500  0.10053900  0.36861700  1
  O  O15  1  0.73146400  0.96498100  0.69803300  1
  O  O16  1  0.26853600  0.03501900  0.30196700  1
  O  O17  1  0.56807500  0.81637900  0.84460600  1
  O  O18  1  0.43192500  0.18362100  0.15539400  1
  O  O19  1  0.65758000  0.59628600  0.91583000  1
  O  O20  1  0.34242000  0.40371400  0.08417000  1
  O  O21  1  0.76753100  0.92103100  0.09509000  1
  O  O22  1  0.23246900  0.07896900  0.90491000  1
  O  O23  1  0.96325700  0.84324900  0.93455400  1
  O  O24  1  0.03674300  0.15675100  0.06544600  1
  O  O25  1  0.90896400  0.39110400  0.55646200  1
  O  O26  1  0.09103600  0.60889600  0.44353800  1
  O  O27  1  0.78847600  0.24459500  0.65097800  1
  O  O28  1  0.21152400  0.75540500  0.34902200  1
  O  O29  1  0.96548200  0.20854000  0.59816300  1
  O  O30  1  0.03451800  0.79146000  0.40183700  1
  O  O31  1  0.58862200  0.94931400  0.43019600  1
  O  O32  1  0.41137800  0.05068600  0.56980400  1
  O  O33  1  0.75839100  0.90327500  0.37859000  1
  O  O34  1  0.24160900  0.09672500  0.62141000  1
  O  O35  1  0.69292700  0.07510200  0.31254600  1
  O  O36  1  0.30707300  0.92489800  0.68745400  1
  O  O37  1  0.34437000  0.45087000  0.84139900  1
  O  O38  1  0.65563000  0.54913000  0.15860100  1
  O  O39  1  0.25551700  0.59075800  0.74202400  1
  O  O40  1  0.74448300  0.40924200  0.25797600  1
  O  O41  1  0.14406600  0.47206000  0.86013300  1
  O  O42  1  0.85593400  0.52794000  0.13986700  1
  O  O43  1  0.57331100  0.25425200  0.90249200  1
  O  O44  1  0.42668900  0.74574800  0.09750800  1
  O  O45  1  0.66508500  0.14567800  0.04277900  1
  O  O46  1  0.33491500  0.85432200  0.95722100  1
  O  O47  1  0.79542500  0.24909700  0.93040700  1
  O  O48  1  0.20457500  0.75090300  0.06959300  1
loop_
_geom_bond_atom_site_label_1
_geom_bond_atom_site_label_2
_geom_bond_distance
_geom_bond_site_symmetry_2
Er0 O1 2.310674 1_555
Er0 O7 2.322587 1_555
Er0 O6 2.326561 1_555
Er0 O3 2.341502 1_555
Er0 O11 2.419053 1_555
Er0 O0 2.454652 1_555
Er0 O9 2.462596 1_555
Er0 O25 2.474547 1_555
Er0 O27 2.658179 1_555
Er1 O2 2.310674 1_555
Er1 O8 2.322587 1_555
Er1 O5 2.326561 1_555
Er1 O4 2.341502 1_555
Er1 O12 2.419053 1_555
Er1 O0 2.454652 1_555
Er1 O10 2.462596 1_555
Er1 O26 2.474547 1_555
Er1 O28 2.658179 1_555
Er2 O3 2.298726 1_555
Er2 O1 2.318946 1_555
Er2 O5 2.323068 1_555
Er2 O8 2.326989 1_555
Er2 O15 2.462957 1_555
Er2 O0 2.477034 1_555
Er2 O31 2.488649 1_555
Er2 O33 2.546283 1_555
Er2 O13 2.561724 1_555
Er3 O4 2.298726 1_555
Er3 O2 2.318946 1_555
Er3 O6 2.323068 1_555
Er3 O7 2.326989 1_555
Er3 O16 2.462957 1_555
Er3 O0 2.477034 1_555
Er3 O32 2.488649 1_555
Er3 O34 2.546283 1_555
Er3 O14 2.561724 1_555
Er4 O1 2.288902 1_555
Er4 O5 2.321802 1_555
Er4 O7 2.325211 1_555
Er4 O4 2.359034 1_555
Er4 O19 2.386902 1_555
Er4 O0 2.479229 1_555
Er4 O37 2.496604 1_555
Er4 O17 2.553931 1_555
Er4 O39 2.555445 1_555
Er5 O2 2.288902 1_555
Er5 O6 2.321802 1_555
Er5 O8 2.325211 1_555
Er5 O3 2.359034 1_555
Er5 O20 2.386902 1_555
Er5 O0 2.479229 1_555
Er5 O38 2.496604 1_555
Er5 O18 2.553931 1_555
Er5 O40 2.555445 1_555
H0 O1 0.998030 1_555
H1 O2 0.998030 1_555
H2 O3 0.977718 1_555
H3 O4 0.977718 1_555
H4 O5 0.976211 1_555
H5 O6 0.976211 1_555
H6 O7 0.986347 1_555
H7 O8 0.986347 1_555
H8 O9 0.979426 1_555
H9 O10 0.979426 1_555
H10 O9 1.005422 1_555
H10 O47 1.703313 1_555
H11 O10 1.005422 1_555
H11 O48 1.703313 1_555
H12 O11 0.982497 1_455
H13 O12 0.982497 1_655
H14 O11 0.984062 1_455
H15 O12 0.984062 1_655
H16 O13 0.979473 1_555
H17 O14 0.979473 1_555
H18 O13 0.981186 1_455
H19 O14 0.981186 1_655
H20 O15 0.989153 1_545
H21 O16 0.989153 1_565
H22 O15 0.987936 1_555
H23 O16 0.987936 1_555
H24 O17 0.982823 1_555
H25 O18 0.982823 1_555
H26 O17 1.003744 1_555
H27 O18 1.003744 1_555
H28 O19 0.984075 1_555
H29 O20 0.984075 1_555
H30 O19 0.982639 1_555
H31 O20 0.982639 1_555
H32 O21 0.981778 1_555
H33 O22 0.981778 1_555
H34 O21 0.977397 1_555
H35 O22 0.977397 1_555
H36 O23 0.982035 1_455
H37 O24 0.982035 1_655
H38 O23 0.980482 1_455
H39 O24 0.980482 1_655
N0 O29 1.249687 1_555
N0 O25 1.276079 1_555
N0 O27 1.282278 1_555
N1 O30 1.249687 1_555
N1 O26 1.276079 1_555
N1 O28 1.282278 1_555
N2 O35 1.244605 1_565
N2 O31 1.274500 1_555
N2 O33 1.292096 1_555
N3 O36 1.244605 1_545
N3 O32 1.274500 1_555
N3 O34 1.292096 1_555
N4 O41 1.241059 1_555
N4 O39 1.276947 1_555
N4 O37 1.291083 1_555
N5 O42 1.241059 1_555
N5 O40 1.276947 1_555
N5 O38 1.291083 1_555
N6 O45 1.258933 1_556
N6 O43 1.264666 1_555
N6 O47 1.288569 1_555
N7 O46 1.258933 1_554
N7 O44 1.264666 1_555
N7 O48 1.288569 1_555
