# generated using pymatgen
data_Te2Mo3(SeS)2
_symmetry_space_group_name_H-M   'P 1'
_cell_length_a   3.35049853
_cell_length_b   3.35049853
_cell_length_c   30.94868400
_cell_angle_alpha   90.00000000
_cell_angle_beta   90.00000000
_cell_angle_gamma   120.00001055
_symmetry_Int_Tables_number   1
_chemical_formula_structural   Te2Mo3(SeS)2
_chemical_formula_sum   'Te2 Mo3 Se2 S2'
_cell_volume   300.87883355
_cell_formula_units_Z   1
loop_
 _symmetry_equiv_pos_site_id
 _symmetry_equiv_pos_as_xyz
  1  'x, y, z'
loop_
 _atom_site_type_symbol
 _atom_site_label
 _atom_site_symmetry_multiplicity
 _atom_site_fract_x
 _atom_site_fract_y
 _atom_site_fract_z
 _atom_site_occupancy
  Te  Te0  1  0.33333300  0.66666700  0.51715500  1
  Te  Te1  1  0.33333300  0.66666700  0.63952100  1
  Mo  Mo0  1  0.00000000  0.00000000  0.11565600  1
  Mo  Mo1  1  0.00000000  0.00000000  0.57835900  1
  Mo  Mo2  1  0.33333300  0.66666700  0.34694100  1
  Se  Se0  1  0.00000000  0.00000000  0.40071300  1
  Se  Se1  1  0.00000000  0.00000000  0.29317700  1
  S  S0  1  0.33333300  0.66666700  0.06661700  1
  S  S1  1  0.33333300  0.66666700  0.16470200  1
loop_
_geom_bond_atom_site_label_1
_geom_bond_atom_site_label_2
_geom_bond_distance
_geom_bond_site_symmetry_2
Mo0 S0 2.458725 1_545
Mo0 S0 2.458727 1_555
Mo0 S0 2.458727 1_445
Mo0 S1 2.458859 1_545
Mo0 S1 2.458861 1_555
Mo0 S1 2.458861 1_445
Mo1 Te1 2.706464 1_545
Mo1 Te1 2.706466 1_445
Mo1 Te1 2.706466 1_555
Mo1 Te0 2.707373 1_545
Mo1 Te0 2.707375 1_555
Mo1 Te0 2.707375 1_445
Mo2 Se1 2.551585 1_565
Mo2 Se1 2.551587 1_665
Mo2 Se1 2.551587 1_555
Mo2 Se0 2.551747 1_565
Mo2 Se0 2.551748 1_555
Mo2 Se0 2.551748 1_665
