# generated using pymatgen
data_Ca8Mn7CrO20
_symmetry_space_group_name_H-M   'P 1'
_cell_length_a   7.84582694
_cell_length_b   7.84582694
_cell_length_c   7.64820445
_cell_angle_alpha   88.50413189
_cell_angle_beta   88.50413189
_cell_angle_gamma   90.72663593
_symmetry_Int_Tables_number   1
_chemical_formula_structural   Ca8Mn7CrO20
_chemical_formula_sum   'Ca8 Mn7 Cr1 O20'
_cell_volume   470.43762297
_cell_formula_units_Z   1
loop_
 _symmetry_equiv_pos_site_id
 _symmetry_equiv_pos_as_xyz
  1  'x, y, z'
loop_
 _atom_site_type_symbol
 _atom_site_label
 _atom_site_symmetry_multiplicity
 _atom_site_fract_x
 _atom_site_fract_y
 _atom_site_fract_z
 _atom_site_occupancy
  Ca  Ca0  1  0.25497200  0.25497200  0.25690400  1
  Ca  Ca1  1  0.26986200  0.26986200  0.69127500  1
  Ca  Ca2  1  0.25002300  0.73192100  0.25907700  1
  Ca  Ca3  1  0.25566200  0.72201900  0.70697800  1
  Ca  Ca4  1  0.73192100  0.25002300  0.25907700  1
  Ca  Ca5  1  0.72201900  0.25566200  0.70697800  1
  Ca  Ca6  1  0.74530600  0.74530600  0.27304400  1
  Ca  Ca7  1  0.72686200  0.72686200  0.73867300  1
  Mn  Mn0  1  0.00277600  0.00277600  0.52317700  1
  Mn  Mn1  1  0.00090400  0.48901400  0.00383400  1
  Mn  Mn2  1  0.00120400  0.50826900  0.49015300  1
  Mn  Mn3  1  0.48901400  0.00090400  0.00383400  1
  Mn  Mn4  1  0.50826900  0.00120400  0.49015300  1
  Mn  Mn5  1  0.50067200  0.50067200  0.99612100  1
  Mn  Mn6  1  0.50263900  0.50263900  0.48851600  1
  Cr  Cr0  1  0.01949900  0.01949900  0.99120700  1
  O  O0  1  0.93443800  0.93443800  0.79721600  1
  O  O1  1  0.98825400  0.56502800  0.23699100  1
  O  O2  1  0.03200400  0.50835500  0.75028000  1
  O  O3  1  0.56502800  0.98825400  0.23699100  1
  O  O4  1  0.50835500  0.03200400  0.75028000  1
  O  O5  1  0.48323100  0.48323100  0.74265500  1
  O  O6  1  0.22543700  0.96311500  0.06809000  1
  O  O7  1  0.25268000  0.00951300  0.50243500  1
  O  O8  1  0.25467000  0.50202100  0.04177700  1
  O  O9  1  0.26146100  0.49810400  0.46057200  1
  O  O10  1  0.76085500  0.01422700  0.48908300  1
  O  O11  1  0.75086300  0.51789300  0.00019600  1
  O  O12  1  0.74498100  0.50126700  0.49113900  1
  O  O13  1  0.96311500  0.22543700  0.06809000  1
  O  O14  1  0.00951300  0.25268000  0.50243500  1
  O  O15  1  0.01422700  0.76085500  0.48908300  1
  O  O16  1  0.50202100  0.25467000  0.04177700  1
  O  O17  1  0.49810400  0.26146100  0.46057200  1
  O  O18  1  0.51789300  0.75086300  0.00019600  1
  O  O19  1  0.50126700  0.74498100  0.49113900  1
loop_
_geom_bond_atom_site_label_1
_geom_bond_atom_site_label_2
_geom_bond_distance
_geom_bond_site_symmetry_2
Ca0 O9 2.494924 1_555
Ca0 O17 2.494924 1_555
Ca0 O8 2.509576 1_555
Ca0 O16 2.509576 1_555
Ca0 O14 2.654070 1_555
Ca0 O7 2.654070 1_555
Ca0 O13 2.749400 1_455
Ca0 O6 2.749400 1_545
Ca1 O5 2.399367 1_555
Ca1 O9 2.483657 1_555
Ca1 O17 2.483657 1_555
Ca1 O7 2.536489 1_555
Ca1 O14 2.536489 1_555
Ca1 O2 2.697464 1_555
Ca1 O4 2.697464 1_555
Ca2 O6 2.312226 1_555
Ca2 O9 2.368988 1_555
Ca2 O1 2.433643 1_455
Ca2 O8 2.484346 1_555
Ca2 O15 2.535789 1_555
Ca2 O19 2.689489 1_555
Ca2 O18 2.849355 1_555
Ca2 O7 2.901832 1_565
Ca3 O2 2.421822 1_555
Ca3 O19 2.506063 1_555
Ca3 O15 2.571233 1_555
Ca3 O9 2.609674 1_555
Ca3 O5 2.618377 1_555
Ca3 O7 2.711961 1_565
Ca4 O13 2.312226 1_555
Ca4 O17 2.368988 1_555
Ca4 O3 2.433643 1_545
Ca4 O16 2.484346 1_555
Ca4 O10 2.535789 1_555
Ca4 O12 2.689489 1_555
Ca4 O11 2.849355 1_555
Ca4 O14 2.901832 1_655
Ca5 O4 2.421822 1_555
Ca5 O12 2.506063 1_555
Ca5 O10 2.571233 1_555
Ca5 O17 2.609674 1_555
Ca5 O5 2.618377 1_555
Ca5 O14 2.711961 1_655
Ca6 O3 2.402347 1_555
Ca6 O1 2.402347 1_555
Ca6 O12 2.506249 1_555
Ca6 O19 2.506249 1_555
Ca6 O15 2.717118 1_655
Ca6 O10 2.717118 1_565
Ca6 O11 2.780605 1_555
Ca6 O18 2.780605 1_555
Ca7 O0 2.348204 1_555
Ca7 O11 2.565256 1_556
Ca7 O18 2.565256 1_556
Ca7 O12 2.627639 1_555
Ca7 O19 2.627639 1_555
Ca7 O5 2.685096 1_555
Ca7 O10 2.920932 1_565
Ca7 O15 2.920932 1_655
Ca7 O4 2.964096 1_565
Ca7 O2 2.964096 1_655
Mn0 O15 1.925534 1_545
Mn0 O10 1.925534 1_455
Mn0 O14 1.962909 1_555
Mn0 O7 1.962909 1_555
Mn0 O0 2.200714 1_445
Mn1 O1 1.895584 1_455
Mn1 O2 1.949918 1_554
Mn1 O11 1.978505 1_455
Mn1 O8 2.021209 1_555
Mn1 O13 2.128319 1_455
Mn2 O1 1.980919 1_455
Mn2 O15 1.982876 1_555
Mn2 O14 2.007020 1_555
Mn2 O12 2.010147 1_455
Mn2 O2 2.010396 1_555
Mn2 O9 2.051337 1_555
Mn3 O3 1.895584 1_545
Mn3 O4 1.949918 1_554
Mn3 O18 1.978505 1_545
Mn3 O16 2.021209 1_555
Mn3 O6 2.128319 1_545
Mn4 O3 1.980919 1_545
Mn4 O10 1.982876 1_555
Mn4 O7 2.007020 1_555
Mn4 O19 2.010147 1_545
Mn4 O4 2.010396 1_555
Mn4 O17 2.051337 1_555
Mn5 O16 1.952642 1_556
Mn5 O8 1.952642 1_556
Mn5 O5 1.955170 1_555
Mn5 O18 1.967005 1_556
Mn5 O11 1.967005 1_556
Mn6 O12 1.902167 1_555
Mn6 O19 1.902167 1_555
Mn6 O17 1.909796 1_555
Mn6 O9 1.909796 1_555
Mn6 O5 1.947531 1_555
Cr0 O0 1.784429 1_445
Cr0 O6 1.790608 1_546
Cr0 O13 1.790608 1_456
