# generated using pymatgen
data_Sr2GdBiO6
_symmetry_space_group_name_H-M   'P 1'
_cell_length_a   5.97954128
_cell_length_b   6.14159700
_cell_length_c   8.55320450
_cell_angle_alpha   90.00000000
_cell_angle_beta   90.00835820
_cell_angle_gamma   90.00000000
_symmetry_Int_Tables_number   1
_chemical_formula_structural   Sr2GdBiO6
_chemical_formula_sum   'Sr4 Gd2 Bi2 O12'
_cell_volume   314.10730344
_cell_formula_units_Z   2
loop_
 _symmetry_equiv_pos_site_id
 _symmetry_equiv_pos_as_xyz
  1  'x, y, z'
loop_
 _atom_site_type_symbol
 _atom_site_label
 _atom_site_symmetry_multiplicity
 _atom_site_fract_x
 _atom_site_fract_y
 _atom_site_fract_z
 _atom_site_occupancy
  Sr  Sr0  1  0.01252000  0.45332300  0.25213500  1
  Sr  Sr1  1  0.98748000  0.54667700  0.74786500  1
  Sr  Sr2  1  0.48748000  0.95332300  0.24786500  1
  Sr  Sr3  1  0.51252000  0.04667700  0.75213500  1
  Gd  Gd0  1  0.00000000  0.00000000  0.50000000  1
  Gd  Gd1  1  0.50000000  0.50000000  0.00000000  1
  Bi  Bi0  1  0.00000000  0.00000000  0.00000000  1
  Bi  Bi1  1  0.50000000  0.50000000  0.50000000  1
  O  O0  1  0.90320400  0.03884100  0.24120100  1
  O  O1  1  0.09679600  0.96115900  0.75879900  1
  O  O2  1  0.59679600  0.53884100  0.25879900  1
  O  O3  1  0.40320400  0.46115900  0.74120100  1
  O  O4  1  0.19513700  0.71424700  0.05514300  1
  O  O5  1  0.80486300  0.28575300  0.94485700  1
  O  O6  1  0.30486300  0.21424700  0.44485700  1
  O  O7  1  0.69513700  0.78575300  0.55514300  1
  O  O8  1  0.28916300  0.19709100  0.04787200  1
  O  O9  1  0.71083700  0.80290900  0.95212800  1
  O  O10  1  0.21083700  0.69709100  0.45212800  1
  O  O11  1  0.78916300  0.30290900  0.54787200  1
loop_
_geom_bond_atom_site_label_1
_geom_bond_atom_site_label_2
_geom_bond_distance
_geom_bond_site_symmetry_2
Gd0 O10 2.284311 1_545
Gd0 O11 2.284311 1_455
Gd0 O6 2.297215 1_555
Gd0 O7 2.297215 1_445
Gd0 O1 2.300301 1_545
Gd0 O0 2.300301 1_455
Gd1 O9 2.284311 1_554
Gd1 O8 2.284311 1_555
Gd1 O4 2.297215 1_555
Gd1 O5 2.297215 1_554
Gd1 O2 2.300301 1_555
Gd1 O3 2.300301 1_554
Bi0 O9 2.149954 1_444
Bi0 O8 2.149954 1_555
Bi0 O0 2.156014 1_455
Bi0 O1 2.156014 1_544
Bi0 O4 2.159569 1_545
Bi0 O5 2.159569 1_454
Bi1 O11 2.149954 1_555
Bi1 O10 2.149954 1_555
Bi1 O2 2.156014 1_555
Bi1 O3 2.156014 1_555
Bi1 O6 2.159569 1_555
Bi1 O7 2.159569 1_555
O0 Sr2 2.541365 1_545
O0 Sr0 2.629826 1_655
O1 Sr3 2.541365 1_565
O1 Sr1 2.629826 1_455
O2 Sr0 2.541365 1_655
O2 Sr2 2.629826 1_555
O3 Sr1 2.541365 1_455
O3 Sr3 2.629826 1_555
O4 Sr0 2.569014 1_555
O4 Sr2 2.815680 1_555
O4 Sr1 3.083422 1_454
O5 Sr1 2.569014 1_555
O5 Sr3 2.815680 1_555
O5 Sr0 3.083422 1_656
O6 Sr2 2.569014 1_545
O6 Sr0 2.815680 1_555
O6 Sr3 3.083422 1_555
O7 Sr3 2.569014 1_565
O7 Sr1 2.815680 1_555
O7 Sr2 3.083422 1_555
O8 Sr2 2.563807 1_545
O8 Sr0 2.875071 1_555
O8 Sr3 3.006074 1_554
O9 Sr3 2.563807 1_565
O9 Sr1 2.875071 1_555
O9 Sr2 3.006074 1_556
O10 Sr0 2.563807 1_555
O10 Sr2 2.875071 1_555
O10 Sr1 3.006074 1_455
O11 Sr1 2.563807 1_555
O11 Sr3 2.875071 1_555
O11 Sr0 3.006074 1_655
