# generated using pymatgen
data_Mg14TiAl
_symmetry_space_group_name_H-M   'P 1'
_cell_length_a   6.30971330
_cell_length_b   6.20294870
_cell_length_c   10.19035446
_cell_angle_alpha   90.00000000
_cell_angle_beta   90.00000000
_cell_angle_gamma   119.44183466
_symmetry_Int_Tables_number   1
_chemical_formula_structural   Mg14TiAl
_chemical_formula_sum   'Mg14 Ti1 Al1'
_cell_volume   347.33058508
_cell_formula_units_Z   1
loop_
 _symmetry_equiv_pos_site_id
 _symmetry_equiv_pos_as_xyz
  1  'x, y, z'
loop_
 _atom_site_type_symbol
 _atom_site_label
 _atom_site_symmetry_multiplicity
 _atom_site_fract_x
 _atom_site_fract_y
 _atom_site_fract_z
 _atom_site_occupancy
  Mg  Mg0  1  0.16625695  0.33312797  0.62500000  1
  Mg  Mg1  1  0.16708922  0.83354411  0.62500000  1
  Mg  Mg2  1  0.66476371  0.33444898  0.12500000  1
  Mg  Mg3  1  0.66491009  0.33123170  0.62500000  1
  Mg  Mg4  1  0.66476371  0.83031372  0.12500000  1
  Mg  Mg5  1  0.66491009  0.83367739  0.62500000  1
  Mg  Mg6  1  0.33142876  0.16318131  0.36772676  1
  Mg  Mg7  1  0.33142876  0.16318131  0.88227324  1
  Mg  Mg8  1  0.33142876  0.66824845  0.36772676  1
  Mg  Mg9  1  0.33142876  0.66824845  0.88227324  1
  Mg  Mg10  1  0.83631956  0.16816028  0.37022611  1
  Mg  Mg11  1  0.83631956  0.16816028  0.87977389  1
  Mg  Mg12  1  0.83974991  0.66987545  0.37201122  1
  Mg  Mg13  1  0.83974991  0.66987545  0.87798878  1
  Ti  Ti0  1  0.16025223  0.83012562  0.12500000  1
  Al  Al0  1  0.16920004  0.33459952  0.12500000  1
loop_
_geom_bond_atom_site_label_1
_geom_bond_atom_site_label_2
_geom_bond_distance
_geom_bond_site_symmetry_2
Mg0 Mg1 3.101478 1_545
Mg0 Mg1 3.101478 1_555
Mg0 Mg5 3.152156 1_555
Mg0 Mg3 3.152157 1_555
Mg0 Mg5 3.157590 1_445
Mg0 Mg3 3.157590 1_455
Mg0 Mg10 3.166583 1_455
Mg0 Mg11 3.166583 1_455
Mg0 Mg6 3.186035 1_555
Mg0 Mg7 3.186035 1_555
Mg0 Mg8 3.186041 1_555
Mg0 Mg9 3.186041 1_555
Mg1 Mg3 3.140700 1_565
Mg1 Mg5 3.140701 1_555
Mg1 Mg12 3.143496 1_455
Mg1 Mg13 3.143496 1_455
Mg1 Mg3 3.169013 1_455
Mg1 Mg5 3.169013 1_455
Mg1 Mg8 3.169394 1_555
Mg1 Mg9 3.169394 1_555
Mg1 Mg6 3.169400 1_565
Mg1 Mg7 3.169400 1_565
Mg2 Mg4 3.075824 1_555
Mg2 Mg6 3.077942 1_555
Mg2 Mg7 3.077942 1_554
Mg2 Ti0 3.126964 1_655
Mg2 Mg4 3.127125 1_545
Mg2 Ti0 3.182749 1_545
Mg3 Mg5 3.086304 1_545
Mg3 Mg5 3.116645 1_555
Mg3 Mg6 3.198625 1_555
Mg3 Mg7 3.198625 1_555
Mg4 Mg9 3.077942 1_554
Mg4 Mg8 3.077942 1_555
Mg4 Ti0 3.126964 1_655
Mg4 Ti0 3.182749 1_555
Mg5 Mg8 3.198625 1_555
Mg5 Mg9 3.198625 1_555
Mg6 Ti0 3.059261 1_545
Mg6 Mg8 3.070043 1_545
Mg6 Mg8 3.132906 1_555
Mg7 Ti0 3.059261 1_546
Mg7 Mg9 3.070043 1_545
Mg7 Mg9 3.132906 1_555
Mg8 Ti0 3.059255 1_555
Mg9 Ti0 3.059255 1_556
Mg10 Mg2 3.094842 1_555
Mg10 Mg4 3.094848 1_545
Mg10 Mg12 3.101585 1_555
Mg10 Mg12 3.101585 1_545
Mg10 Mg8 3.139396 1_655
Mg10 Mg6 3.139396 1_655
Mg10 Mg3 3.163678 1_555
Mg10 Mg5 3.163684 1_545
Mg10 Mg8 3.170751 1_545
Mg10 Mg6 3.170752 1_555
Mg11 Mg2 3.094842 1_556
Mg11 Mg4 3.094848 1_546
Mg11 Mg13 3.101585 1_555
Mg11 Mg13 3.101585 1_545
Mg11 Mg9 3.139396 1_655
Mg11 Mg7 3.139396 1_655
Mg11 Mg3 3.163678 1_555
Mg11 Mg5 3.163684 1_545
Mg11 Mg9 3.170751 1_545
Mg11 Mg7 3.170752 1_555
Mg12 Ti0 3.072046 1_655
Mg12 Mg4 3.102520 1_555
Mg12 Mg2 3.102526 1_555
Mg12 Mg6 3.107632 1_665
Mg12 Mg8 3.107632 1_655
Mg12 Mg5 3.161906 1_555
Mg12 Mg3 3.161912 1_555
Mg12 Mg6 3.202709 1_555
Mg12 Mg8 3.202710 1_555
Mg13 Ti0 3.072046 1_656
Mg13 Mg4 3.102520 1_556
Mg13 Mg2 3.102526 1_556
Mg13 Mg7 3.107632 1_665
Mg13 Mg9 3.107632 1_655
Mg13 Mg5 3.161906 1_555
Mg13 Mg3 3.161912 1_555
Mg13 Mg7 3.202709 1_555
Mg13 Mg9 3.202710 1_555
Al0 Mg7 3.060466 1_554
Al0 Mg6 3.060466 1_555
Al0 Mg9 3.060472 1_554
Al0 Mg8 3.060472 1_555
Al0 Mg11 3.096839 1_454
Al0 Mg10 3.096839 1_455
Al0 Ti0 3.101864 1_545
Al0 Ti0 3.101864 1_555
Al0 Mg4 3.127324 1_555
Al0 Mg2 3.127324 1_555
Al0 Mg4 3.182390 1_445
Al0 Mg2 3.182390 1_455
