# generated using pymatgen
data_BaZnCoF7
_symmetry_space_group_name_H-M   'P 1'
_cell_length_a   10.01192400
_cell_length_b   5.67169900
_cell_length_c   9.61559678
_cell_angle_alpha   86.92767065
_cell_angle_beta   90.00000000
_cell_angle_gamma   90.00000000
_symmetry_Int_Tables_number   1
_chemical_formula_structural   BaZnCoF7
_chemical_formula_sum   'Ba4 Zn4 Co4 F28'
_cell_volume   545.23319514
_cell_formula_units_Z   4
loop_
 _symmetry_equiv_pos_site_id
 _symmetry_equiv_pos_as_xyz
  1  'x, y, z'
loop_
 _atom_site_type_symbol
 _atom_site_label
 _atom_site_symmetry_multiplicity
 _atom_site_fract_x
 _atom_site_fract_y
 _atom_site_fract_z
 _atom_site_occupancy
  Ba  Ba0  1  0.31292800  0.73575900  0.49994300  1
  Ba  Ba1  1  0.81292800  0.26424100  0.00005700  1
  Ba  Ba2  1  0.68707200  0.26424100  0.50005700  1
  Ba  Ba3  1  0.18707200  0.73575900  0.99994300  1
  Zn  Zn0  1  0.39973200  0.30176600  0.80953000  1
  Zn  Zn1  1  0.89973200  0.69823400  0.69047000  1
  Zn  Zn2  1  0.10026800  0.30176600  0.30953000  1
  Zn  Zn3  1  0.60026800  0.69823400  0.19047000  1
  Co  Co0  1  0.61171700  0.80502100  0.81010900  1
  Co  Co1  1  0.38828300  0.19497900  0.18989100  1
  Co  Co2  1  0.88828300  0.80502100  0.31010900  1
  Co  Co3  1  0.11171700  0.19497900  0.68989100  1
  F  F0  1  0.44248300  0.88856400  0.12074400  1
  F  F1  1  0.05044600  0.63587000  0.37108400  1
  F  F2  1  0.70914500  0.52172100  0.75087600  1
  F  F3  1  0.29085500  0.47827900  0.24912400  1
  F  F4  1  0.45618700  0.11409600  0.36396400  1
  F  F5  1  0.80857000  0.74226700  0.49155100  1
  F  F6  1  0.77900200  0.97943700  0.75025200  1
  F  F7  1  0.95618700  0.88590400  0.13603600  1
  F  F8  1  0.44955400  0.63587000  0.87108400  1
  F  F9  1  0.20914500  0.47827900  0.74912400  1
  F  F10  1  0.05751700  0.88856400  0.62074400  1
  F  F11  1  0.55751700  0.11143600  0.87925600  1
  F  F12  1  0.27900200  0.02056300  0.74974800  1
  F  F13  1  0.95869300  0.61626900  0.88000900  1
  F  F14  1  0.54381300  0.88590400  0.63603600  1
  F  F15  1  0.04381300  0.11409600  0.86396400  1
  F  F16  1  0.22099800  0.02056300  0.24974800  1
  F  F17  1  0.94248300  0.11143600  0.37925600  1
  F  F18  1  0.45869300  0.38373100  0.61999100  1
  F  F19  1  0.94955400  0.36413000  0.62891600  1
  F  F20  1  0.04130700  0.38373100  0.11999100  1
  F  F21  1  0.72099800  0.97943700  0.25025200  1
  F  F22  1  0.54130700  0.61626900  0.38000900  1
  F  F23  1  0.30857000  0.25773300  0.00844900  1
  F  F24  1  0.19143000  0.25773300  0.50844900  1
  F  F25  1  0.69143000  0.74226700  0.99155100  1
  F  F26  1  0.55044600  0.36413000  0.12891600  1
  F  F27  1  0.79085500  0.52172100  0.25087600  1
loop_
_geom_bond_atom_site_label_1
_geom_bond_atom_site_label_2
_geom_bond_distance
_geom_bond_site_symmetry_2
Ba0 F22 2.664802 1_555
Ba0 F18 2.683588 1_555
Ba0 F14 2.810804 1_555
Ba0 F4 2.840877 1_565
Ba0 F3 2.894072 1_555
Ba0 F9 2.928846 1_555
Ba0 F10 2.957586 1_555
Ba0 F24 2.968725 1_555
Ba0 F16 2.971125 1_565
Ba0 F1 2.972809 1_555
Ba0 F12 2.985008 1_565
Ba0 F24 3.205742 1_565
Ba1 F20 2.664802 1_655
Ba1 F13 2.683588 1_554
Ba1 F15 2.810804 1_654
Ba1 F7 2.840877 1_545
Ba1 F27 2.894072 1_555
Ba1 F2 2.928846 1_554
Ba1 F11 2.957586 1_554
Ba1 F25 2.968725 1_554
Ba1 F21 2.971125 1_545
Ba1 F26 2.972809 1_555
Ba1 F6 2.985008 1_544
Ba1 F25 3.205742 1_544
Ba2 F18 2.664802 1_555
Ba2 F22 2.683588 1_555
Ba2 F4 2.810804 1_555
Ba2 F14 2.840877 1_545
Ba2 F2 2.894072 1_555
Ba2 F27 2.928846 1_555
Ba2 F17 2.957586 1_555
Ba2 F5 2.968725 1_555
Ba2 F6 2.971125 1_545
Ba2 F19 2.972809 1_555
Ba2 F21 2.985008 1_545
Ba2 F5 3.205742 1_545
Ba3 F13 2.664802 1_455
Ba3 F20 2.683588 1_556
Ba3 F7 2.810804 1_456
Ba3 F15 2.840877 1_565
Ba3 F9 2.894072 1_555
Ba3 F3 2.928846 1_556
Ba3 F0 2.957586 1_556
Ba3 F23 2.968725 1_556
Ba3 F12 2.971125 1_565
Ba3 F8 2.972809 1_555
Ba3 F16 2.985008 1_566
Ba3 F23 3.205742 1_566
Co0 F14 1.841736 1_555
Co0 F25 1.934149 1_555
Co0 F8 1.959546 1_555
Co0 F11 1.969944 1_565
Co0 F2 1.988911 1_555
Co0 F6 2.013437 1_555
Co1 F4 1.841736 1_555
Co1 F23 1.934149 1_555
Co1 F26 1.959546 1_555
Co1 F0 1.969944 1_545
Co1 F3 1.988911 1_555
Co1 F16 2.013437 1_555
Co2 F7 1.841736 1_555
Co2 F5 1.934149 1_555
Co2 F1 1.959546 1_655
Co2 F17 1.969944 1_565
Co2 F27 1.988911 1_555
Co2 F21 2.013437 1_555
Co3 F15 1.841736 1_555
Co3 F24 1.934149 1_555
Co3 F19 1.959546 1_455
Co3 F10 1.969944 1_545
Co3 F9 1.988911 1_555
Co3 F12 2.013437 1_555
F0 Zn3 2.008181 1_555
F1 Zn2 2.076090 1_555
F2 Zn1 2.217726 1_555
F3 Zn2 2.217726 1_555
F5 Zn1 2.121961 1_555
F6 Zn1 2.105581 1_555
F8 Zn0 2.076090 1_555
F9 Zn0 2.217726 1_555
F10 Zn1 2.008181 1_455
F11 Zn0 2.008181 1_555
F12 Zn0 2.105581 1_555
F13 Zn1 1.948174 1_555
F16 Zn2 2.105581 1_555
F17 Zn2 2.008181 1_655
F18 Zn0 1.948174 1_555
F19 Zn1 2.076090 1_555
F20 Zn2 1.948174 1_555
F21 Zn3 2.105581 1_555
F22 Zn3 1.948174 1_555
F23 Zn0 2.121961 1_554
F24 Zn2 2.121961 1_555
F25 Zn3 2.121961 1_556
F26 Zn3 2.076090 1_555
F27 Zn3 2.217726 1_555
