# generated using pymatgen
data_Ti2Bi2O7
_symmetry_space_group_name_H-M   'P 1'
_cell_length_a   7.35982027
_cell_length_b   7.41662354
_cell_length_c   10.39652115
_cell_angle_alpha   90.00000000
_cell_angle_beta   90.00000000
_cell_angle_gamma   90.00000000
_symmetry_Int_Tables_number   1
_chemical_formula_structural   Ti2Bi2O7
_chemical_formula_sum   'Ti8 Bi8 O28'
_cell_volume   567.49427607
_cell_formula_units_Z   4
loop_
 _symmetry_equiv_pos_site_id
 _symmetry_equiv_pos_as_xyz
  1  'x, y, z'
loop_
 _atom_site_type_symbol
 _atom_site_label
 _atom_site_symmetry_multiplicity
 _atom_site_fract_x
 _atom_site_fract_y
 _atom_site_fract_z
 _atom_site_occupancy
  Ti  Ti0  1  0.00478884  0.00497990  0.00871874  1
  Ti  Ti1  1  0.99521116  0.50497990  0.99128126  1
  Ti  Ti2  1  0.49521116  0.50497990  0.50871874  1
  Ti  Ti3  1  0.50478884  0.00497990  0.49128126  1
  Ti  Ti4  1  0.24424671  0.24602696  0.74047920  1
  Ti  Ti5  1  0.75575329  0.74602696  0.25952080  1
  Ti  Ti6  1  0.25575329  0.74602696  0.24047920  1
  Ti  Ti7  1  0.74424671  0.24602696  0.75952080  1
  Bi  Bi0  1  0.02691105  0.97561210  0.46853006  1
  Bi  Bi1  1  0.97308895  0.47561210  0.53146994  1
  Bi  Bi2  1  0.47308895  0.47561210  0.96853006  1
  Bi  Bi3  1  0.52691105  0.97561210  0.03146994  1
  Bi  Bi4  1  0.27517180  0.29549506  0.26201363  1
  Bi  Bi5  1  0.72482820  0.79549506  0.73798637  1
  Bi  Bi6  1  0.22482820  0.79549506  0.76201363  1
  Bi  Bi7  1  0.77517180  0.29549506  0.23798637  1
  O  O0  1  0.19337965  0.43146469  0.87859711  1
  O  O1  1  0.80662035  0.93146469  0.12140289  1
  O  O2  1  0.30662035  0.93146469  0.37859711  1
  O  O3  1  0.69337965  0.43146469  0.62140289  1
  O  O4  1  0.70300542  0.93051690  0.38435435  1
  O  O5  1  0.29699458  0.43051690  0.61564565  1
  O  O6  1  0.79699458  0.43051690  0.88435435  1
  O  O7  1  0.20300542  0.93051690  0.11564565  1
  O  O8  1  0.79429802  0.04467600  0.87456277  1
  O  O9  1  0.20570198  0.54467600  0.12543723  1
  O  O10  1  0.70570198  0.54467600  0.37456277  1
  O  O11  1  0.29429802  0.04467600  0.62543723  1
  O  O12  1  0.32511849  0.55072292  0.36498963  1
  O  O13  1  0.67488151  0.05072292  0.63501037  1
  O  O14  1  0.17488151  0.05072292  0.86498963  1
  O  O15  1  0.82511849  0.55072292  0.13501037  1
  O  O16  1  0.99105359  0.26094959  0.68366898  1
  O  O17  1  0.00894641  0.76094959  0.31633102  1
  O  O18  1  0.50894641  0.76094959  0.18366898  1
  O  O19  1  0.49105359  0.26094959  0.81633102  1
  O  O20  1  0.50535115  0.74212581  0.57305420  1
  O  O21  1  0.49464885  0.24212581  0.42694580  1
  O  O22  1  0.99464885  0.24212581  0.07305420  1
  O  O23  1  0.00535115  0.74212581  0.92694580  1
  O  O24  1  0.98611934  0.76731007  0.62129819  1
  O  O25  1  0.01388066  0.26731007  0.37870181  1
  O  O26  1  0.51388066  0.26731007  0.12129819  1
  O  O27  1  0.48611934  0.76731007  0.87870181  1
loop_
_geom_bond_atom_site_label_1
_geom_bond_atom_site_label_2
_geom_bond_distance
_geom_bond_site_symmetry_2
Bi0 O24 2.235934 1_455
Bi0 O17 2.248549 1_555
Bi0 O2 2.284576 1_555
Bi0 O25 2.358332 1_565
Bi0 O4 2.561374 1_455
Bi0 O11 2.606949 1_565
Bi1 O25 2.235934 1_655
Bi1 O16 2.248549 1_555
Bi1 O3 2.284576 1_555
Bi1 O24 2.358332 1_555
Bi1 O5 2.561374 1_655
Bi1 O10 2.606949 1_555
Bi2 O26 2.235934 1_556
Bi2 O19 2.248549 1_555
Bi2 O0 2.284576 1_555
Bi2 O27 2.358332 1_555
Bi2 O6 2.561374 1_555
Bi2 O9 2.606949 1_556
Bi3 O27 2.235934 1_554
Bi3 O18 2.248549 1_555
Bi3 O1 2.284576 1_555
Bi3 O26 2.358332 1_565
Bi3 O7 2.561374 1_555
Bi3 O8 2.606949 1_564
Bi4 O12 2.205556 1_555
Bi4 O25 2.283326 1_555
Bi4 O26 2.295748 1_555
Bi4 O9 2.385998 1_555
Bi4 O21 2.388760 1_555
Bi5 O13 2.205556 1_565
Bi5 O24 2.283326 1_555
Bi5 O27 2.295748 1_555
Bi5 O8 2.385998 1_565
Bi5 O20 2.388760 1_555
Bi6 O14 2.205556 1_565
Bi6 O27 2.283326 1_555
Bi6 O24 2.295748 1_455
Bi6 O11 2.385998 1_565
Bi6 O23 2.388760 1_555
Bi7 O15 2.205556 1_555
Bi7 O26 2.283326 1_555
Bi7 O25 2.295748 1_655
Bi7 O10 2.385998 1_555
Bi7 O22 2.388760 1_555
O0 Ti1 1.948570 1_455
O0 Ti4 2.023266 1_555
O1 Ti0 1.948570 1_665
O1 Ti5 2.023266 1_555
O2 Ti3 1.948570 1_565
O2 Ti6 2.023266 1_555
O3 Ti2 1.948570 1_555
O3 Ti7 2.023266 1_555
O4 Ti3 1.915466 1_565
O4 Ti5 1.925438 1_555
O5 Ti2 1.915466 1_555
O5 Ti4 1.925438 1_555
O6 Ti1 1.915466 1_555
O6 Ti7 1.925438 1_555
O7 Ti0 1.915466 1_565
O7 Ti6 1.925438 1_555
O8 Ti7 1.948403 1_555
O8 Ti0 2.105223 1_656
O9 Ti6 1.948403 1_555
O9 Ti1 2.105223 1_454
O10 Ti5 1.948403 1_555
O10 Ti2 2.105223 1_555
O11 Ti4 1.948403 1_555
O11 Ti3 2.105223 1_555
O12 Ti2 1.978664 1_555
O12 Ti6 2.008590 1_555
O13 Ti3 1.978664 1_555
O13 Ti7 2.008590 1_555
O14 Ti0 1.978664 1_556
O14 Ti4 2.008590 1_555
O15 Ti1 1.978664 1_554
O15 Ti5 2.008590 1_555
O16 Ti4 1.957948 1_655
O16 Ti7 1.983340 1_555
O17 Ti5 1.957948 1_455
O17 Ti6 1.983340 1_555
O18 Ti6 1.957948 1_555
O18 Ti5 1.983340 1_555
O19 Ti7 1.957948 1_555
O19 Ti4 1.983340 1_555
O20 Ti2 1.883190 1_555
O20 Ti3 2.126803 1_565
O21 Ti3 1.883190 1_555
O21 Ti2 2.126803 1_555
O22 Ti0 1.883190 1_655
O22 Ti1 2.126803 1_554
O23 Ti1 1.883190 1_455
O23 Ti0 2.126803 1_566
