# generated using pymatgen
data_KCr(MoO4)2
_symmetry_space_group_name_H-M   'P 1'
_cell_length_a   5.67126109
_cell_length_b   8.99683044
_cell_length_c   9.19459394
_cell_angle_alpha   118.04476561
_cell_angle_beta   72.02976935
_cell_angle_gamma   89.99323987
_symmetry_Int_Tables_number   1
_chemical_formula_structural   KCr(MoO4)2
_chemical_formula_sum   'K2 Cr2 Mo4 O16'
_cell_volume   387.92105648
_cell_formula_units_Z   2
loop_
 _symmetry_equiv_pos_site_id
 _symmetry_equiv_pos_as_xyz
  1  'x, y, z'
loop_
 _atom_site_type_symbol
 _atom_site_label
 _atom_site_symmetry_multiplicity
 _atom_site_fract_x
 _atom_site_fract_y
 _atom_site_fract_z
 _atom_site_occupancy
  K  K0  1  0.82145308  0.24984122  0.99976863  1
  K  K1  1  0.17862587  0.75020427  0.00023353  1
  Cr  Cr0  1  -0.00000037  0.00000799  0.50000425  1
  Cr  Cr1  1  0.50000412  0.49997987  0.49998436  1
  Mo  Mo0  1  0.87626250  0.73420923  0.70084435  1
  Mo  Mo1  1  0.57720922  0.76561581  0.29939397  1
  Mo  Mo2  1  0.12370644  0.26576216  0.29914723  1
  Mo  Mo3  1  0.42280750  0.23440536  0.70062080  1
  O  O0  1  0.86270125  0.42081659  0.35718098  1
  O  O1  1  0.13730197  0.57917254  0.64277103  1
  O  O2  1  0.21959177  0.07942625  0.64287828  1
  O  O3  1  0.78038923  0.92060545  0.35717668  1
  O  O4  1  0.17302512  0.10443994  0.08929171  1
  O  O5  1  0.82687259  0.89550424  0.91071814  1
  O  O6  1  0.26229338  0.39608656  0.91032715  1
  O  O7  1  0.73773801  0.60397210  0.08967740  1
  O  O8  1  0.05711573  0.18261860  0.44392402  1
  O  O9  1  0.94285925  0.81739650  0.55610984  1
  O  O10  1  0.50149044  0.31690160  0.55525393  1
  O  O11  1  0.49855568  0.68305438  0.44469577  1
  O  O12  1  0.70214434  0.14631469  0.70643729  1
  O  O13  1  0.29785494  0.85371819  0.29361640  1
  O  O14  1  0.40869941  0.35390038  0.29345323  1
  O  O15  1  0.59129854  0.64604307  0.70649202  1
loop_
_geom_bond_atom_site_label_1
_geom_bond_atom_site_label_2
_geom_bond_distance
_geom_bond_site_symmetry_2
K0 O12 2.713586 1_555
K0 O14 2.714707 1_556
K0 O7 2.888003 1_556
K0 O5 2.892081 1_545
K0 O4 2.896353 1_656
K0 O6 2.899597 1_655
K0 O2 2.985531 1_655
K0 O0 2.990230 1_556
K1 O13 2.713780 1_555
K1 O15 2.714636 1_554
K1 O6 2.887874 1_554
K1 O4 2.891102 1_565
K1 O5 2.896567 1_454
K1 O7 2.899741 1_455
K1 O3 2.986066 1_455
K1 O1 2.990814 1_554
Cr0 O8 1.940008 1_555
Cr0 O9 1.940171 1_445
Cr0 O13 1.964623 1_545
Cr0 O12 1.964816 1_455
Cr0 O3 1.978235 1_445
Cr0 O2 1.978450 1_555
Cr1 O10 1.939346 1_555
Cr1 O11 1.939411 1_555
Cr1 O15 1.964872 1_555
Cr1 O14 1.965095 1_555
Cr1 O0 1.978913 1_555
Cr1 O1 1.978923 1_555
Mo0 O5 1.715008 1_555
Mo0 O9 1.760743 1_555
Mo0 O15 1.797480 1_555
Mo0 O1 1.798262 1_655
Mo1 O7 1.715090 1_555
Mo1 O11 1.760989 1_555
Mo1 O13 1.797863 1_555
Mo1 O3 1.798870 1_555
Mo2 O4 1.715046 1_555
Mo2 O8 1.760783 1_555
Mo2 O14 1.797495 1_555
Mo2 O0 1.798338 1_455
Mo3 O6 1.715130 1_555
Mo3 O10 1.761061 1_555
Mo3 O12 1.797909 1_555
Mo3 O2 1.798911 1_555
