# generated using pymatgen
data_HfWC2
_symmetry_space_group_name_H-M   'P 1'
_cell_length_a   5.52618996
_cell_length_b   5.52618996
_cell_length_c   5.52619049
_cell_angle_alpha   33.40151892
_cell_angle_beta   33.40151892
_cell_angle_gamma   33.40151934
_symmetry_Int_Tables_number   1
_chemical_formula_structural   HfWC2
_chemical_formula_sum   'Hf1 W1 C2'
_cell_volume   45.54372561
_cell_formula_units_Z   1
loop_
 _symmetry_equiv_pos_site_id
 _symmetry_equiv_pos_as_xyz
  1  'x, y, z'
loop_
 _atom_site_type_symbol
 _atom_site_label
 _atom_site_symmetry_multiplicity
 _atom_site_fract_x
 _atom_site_fract_y
 _atom_site_fract_z
 _atom_site_occupancy
  Hf  Hf0  1  0.00000000  0.00000000  0.00000000  1
  W  W0  1  0.50000000  0.50000000  0.50000000  1
  C  C0  1  0.75424800  0.75424800  0.75424800  1
  C  C1  1  0.24575200  0.24575200  0.24575200  1
loop_
_geom_bond_atom_site_label_1
_geom_bond_atom_site_label_2
_geom_bond_distance
_geom_bond_site_symmetry_2
C0 W0 2.211880 1_655
C0 W0 2.211880 1_565
C0 W0 2.211881 1_556
C0 Hf0 2.288831 1_566
C0 Hf0 2.288831 1_656
C0 Hf0 2.288831 1_665
C1 W0 2.211880 1_455
C1 W0 2.211880 1_545
C1 W0 2.211881 1_554
C1 Hf0 2.288831 1_655
C1 Hf0 2.288831 1_565
C1 Hf0 2.288831 1_556
