# generated using pymatgen
data_NbPb2Se2ClO8
_symmetry_space_group_name_H-M   'P 1'
_cell_length_a   5.50400100
_cell_length_b   8.75776000
_cell_length_c   10.99775775
_cell_angle_alpha   67.72292107
_cell_angle_beta   90.00000000
_cell_angle_gamma   90.00000000
_symmetry_Int_Tables_number   1
_chemical_formula_structural   NbPb2Se2ClO8
_chemical_formula_sum   'Nb2 Pb4 Se4 Cl2 O16'
_cell_volume   490.55430731
_cell_formula_units_Z   2
loop_
 _symmetry_equiv_pos_site_id
 _symmetry_equiv_pos_as_xyz
  1  'x, y, z'
loop_
 _atom_site_type_symbol
 _atom_site_label
 _atom_site_symmetry_multiplicity
 _atom_site_fract_x
 _atom_site_fract_y
 _atom_site_fract_z
 _atom_site_occupancy
  Nb  Nb0  1  0.48303900  0.34116800  0.06761500  1
  Nb  Nb1  1  0.98303900  0.65883200  0.93238500  1
  Pb  Pb0  1  0.93336300  0.18532200  0.79618100  1
  Pb  Pb1  1  0.43336300  0.81467800  0.20381900  1
  Pb  Pb2  1  0.97748200  0.69153200  0.51727400  1
  Pb  Pb3  1  0.47748200  0.30846800  0.48272600  1
  Se  Se0  1  0.48448400  0.88306400  0.79844400  1
  Se  Se1  1  0.98448400  0.11693600  0.20155600  1
  Se  Se2  1  0.48905800  0.48405900  0.72672100  1
  Se  Se3  1  0.98905800  0.51594100  0.27327900  1
  Cl  Cl0  1  0.00452500  0.13886100  0.54776400  1
  Cl  Cl1  1  0.50452500  0.86113900  0.45223600  1
  O  O0  1  0.69776900  0.82531800  0.92873600  1
  O  O1  1  0.19776900  0.17468200  0.07126400  1
  O  O2  1  0.21290900  0.87616200  0.88414800  1
  O  O3  1  0.71290900  0.12383800  0.11585200  1
  O  O4  1  0.53604500  0.08942500  0.73418800  1
  O  O5  1  0.03604500  0.91057500  0.26581200  1
  O  O6  1  0.71423300  0.43943800  0.63084300  1
  O  O7  1  0.21423300  0.56056200  0.36915700  1
  O  O8  1  0.23650500  0.42097200  0.66447900  1
  O  O9  1  0.73650500  0.57902800  0.33552100  1
  O  O10  1  0.55379000  0.31920300  0.87111800  1
  O  O11  1  0.05379000  0.68079700  0.12888200  1
  O  O12  1  0.28904000  0.53108600  0.96350600  1
  O  O13  1  0.78904000  0.46891400  0.03649400  1
  O  O14  1  0.42313700  0.32685200  0.23312500  1
  O  O15  1  0.92313700  0.67314800  0.76687500  1
loop_
_geom_bond_atom_site_label_1
_geom_bond_atom_site_label_2
_geom_bond_distance
_geom_bond_site_symmetry_2
Nb0 O14 1.806839 1_555
Nb0 O12 1.942591 1_554
Nb0 O13 1.978662 1_555
Nb0 O1 2.132707 1_555
Nb0 O3 2.176989 1_555
Nb0 O10 2.274611 1_554
Nb1 O15 1.806839 1_555
Nb1 O13 1.942591 1_556
Nb1 O12 1.978662 1_655
Nb1 O0 2.132707 1_555
Nb1 O2 2.176989 1_655
Nb1 O11 2.274611 1_656
Cl0 Pb0 2.936968 1_455
Cl0 Pb3 2.947687 1_555
Cl0 Pb3 3.213619 1_455
Cl1 Pb1 2.936968 1_555
Cl1 Pb2 2.947687 1_555
Cl1 Pb2 3.213619 1_455
O0 Se0 1.771352 1_555
O1 Se1 1.771352 1_455
O2 Se0 1.755886 1_555
O3 Se1 1.755886 1_555
O4 Se0 1.696414 1_545
O4 Pb0 2.527163 1_555
O4 Pb3 2.722083 1_555
O5 Se1 1.696414 1_465
O5 Pb1 2.527163 1_555
O5 Pb2 2.722083 1_455
O6 Se2 1.764367 1_555
O6 Pb2 2.538306 1_555
O6 Pb0 2.577932 1_555
O6 Pb3 2.661523 1_555
O7 Se3 1.764367 1_455
O7 Pb3 2.538306 1_555
O7 Pb1 2.577932 1_555
O7 Pb2 2.661523 1_455
O8 Se2 1.729975 1_555
O8 Pb0 2.621947 1_455
O8 Pb2 2.712855 1_455
O9 Se3 1.729975 1_555
O9 Pb1 2.621947 1_555
O9 Pb3 2.712855 1_555
O10 Se2 1.730600 1_555
O10 Pb0 2.674175 1_555
O11 Se3 1.730600 1_455
O11 Pb1 2.674175 1_555
O14 Pb3 2.704740 1_555
O15 Pb2 2.704740 1_555
