# generated using pymatgen
data_Li2MnCoO4
_symmetry_space_group_name_H-M   'P 1'
_cell_length_a   5.05992900
_cell_length_b   5.13350690
_cell_length_c   5.95264078
_cell_angle_alpha   107.12827519
_cell_angle_beta   89.93189157
_cell_angle_gamma   99.37728467
_symmetry_Int_Tables_number   1
_chemical_formula_structural   Li2MnCoO4
_chemical_formula_sum   'Li4 Mn2 Co2 O8'
_cell_volume   145.60887712
_cell_formula_units_Z   2
loop_
 _symmetry_equiv_pos_site_id
 _symmetry_equiv_pos_as_xyz
  1  'x, y, z'
loop_
 _atom_site_type_symbol
 _atom_site_label
 _atom_site_symmetry_multiplicity
 _atom_site_fract_x
 _atom_site_fract_y
 _atom_site_fract_z
 _atom_site_occupancy
  Li  Li0  1  0.49634100  0.49804200  0.74601300  1
  Li  Li1  1  0.00000000  0.50000000  0.00000000  1
  Li  Li2  1  0.50365900  0.50195800  0.25398700  1
  Li  Li3  1  0.00000000  0.50000000  0.50000000  1
  Mn  Mn0  1  0.24944500  0.99920800  0.87366300  1
  Mn  Mn1  1  0.75055500  0.00079200  0.12633700  1
  Co  Co0  1  0.25017900  0.00055400  0.38045500  1
  Co  Co1  1  0.74982100  0.99944500  0.61954500  1
  O  O0  1  0.60580000  0.22141100  0.94526500  1
  O  O1  1  0.10823200  0.22479200  0.16528900  1
  O  O2  1  0.63674100  0.23618200  0.41393800  1
  O  O3  1  0.13510800  0.23123300  0.70505300  1
  O  O4  1  0.36325900  0.76381800  0.58606200  1
  O  O5  1  0.89176800  0.77520800  0.83471100  1
  O  O6  1  0.39420000  0.77858900  0.05473500  1
  O  O7  1  0.86489200  0.76876700  0.29494700  1
loop_
_geom_bond_atom_site_label_1
_geom_bond_atom_site_label_2
_geom_bond_distance
_geom_bond_site_symmetry_2
Li0 O3 2.065158 1_555
Li0 O4 2.070646 1_555
Li0 O6 2.097568 1_556
Li0 O5 2.222357 1_555
Li0 O2 2.227520 1_555
Li0 O0 2.231626 1_555
Li1 O7 2.081149 1_455
Li1 O3 2.081149 1_554
Li1 O1 2.082335 1_555
Li1 O5 2.082335 1_454
Li1 O0 2.219794 1_454
Li1 O6 2.219794 1_555
Li2 O7 2.065158 1_555
Li2 O2 2.070646 1_555
Li2 O0 2.097568 1_554
Li2 O1 2.222357 1_555
Li2 O4 2.227520 1_555
Li2 O6 2.231626 1_555
Li3 O4 2.063363 1_555
Li3 O2 2.063363 1_455
Li3 O5 2.203884 1_455
Li3 O1 2.203884 1_555
Li3 O3 2.272044 1_555
Li3 O7 2.272044 1_455
Mn0 O3 1.921170 1_565
Mn0 O4 1.930963 1_555
Mn0 O0 1.944043 1_565
Mn0 O5 1.953783 1_455
Mn0 O1 1.986879 1_566
Mn0 O6 1.993028 1_556
Mn1 O7 1.921170 1_545
Mn1 O2 1.930963 1_555
Mn1 O6 1.944043 1_545
Mn1 O1 1.953783 1_655
Mn1 O5 1.986879 1_544
Mn1 O0 1.993028 1_554
Co0 O3 2.085435 1_555
Co0 O7 2.089316 1_445
Co0 O4 2.099195 1_545
Co0 O2 2.101577 1_555
Co0 O6 2.134160 1_545
Co0 O1 2.149763 1_555
Co1 O7 2.085434 1_555
Co1 O3 2.089317 1_665
Co1 O2 2.099199 1_565
Co1 O4 2.101575 1_555
Co1 O0 2.134162 1_565
Co1 O5 2.149759 1_555
