# generated using pymatgen
data_Yb2ZnGe
_symmetry_space_group_name_H-M   'P 1'
_cell_length_a   4.89652680
_cell_length_b   4.89652680
_cell_length_c   4.89652680
_cell_angle_alpha   60.00000000
_cell_angle_beta   60.00000000
_cell_angle_gamma   60.00000000
_symmetry_Int_Tables_number   1
_chemical_formula_structural   Yb2ZnGe
_chemical_formula_sum   'Yb2 Zn1 Ge1'
_cell_volume   83.01363089
_cell_formula_units_Z   1
loop_
 _symmetry_equiv_pos_site_id
 _symmetry_equiv_pos_as_xyz
  1  'x, y, z'
loop_
 _atom_site_type_symbol
 _atom_site_label
 _atom_site_symmetry_multiplicity
 _atom_site_fract_x
 _atom_site_fract_y
 _atom_site_fract_z
 _atom_site_occupancy
  Yb  Yb0  1  0.75000000  0.75000000  0.75000000  1
  Yb  Yb1  1  0.25000000  0.25000000  0.25000000  1
  Zn  Zn0  1  0.50000000  0.50000000  0.50000000  1
  Ge  Ge0  1  0.00000000  0.00000000  0.00000000  1
loop_
_geom_bond_atom_site_label_1
_geom_bond_atom_site_label_2
_geom_bond_distance
_geom_bond_site_symmetry_2
Yb0 Zn0 2.998498 1_556
Yb0 Zn0 2.998498 1_565
Yb0 Zn0 2.998498 1_655
Yb0 Zn0 2.998498 1_555
Yb1 Zn0 2.998498 1_545
Yb1 Zn0 2.998498 1_554
Yb1 Zn0 2.998498 1_455
Yb1 Zn0 2.998498 1_555
Ge0 Yb0 2.998498 1_454
Ge0 Yb1 2.998498 1_455
Ge0 Yb0 2.998498 1_444
Ge0 Yb0 2.998498 1_445
Ge0 Yb1 2.998498 1_545
Ge0 Yb1 2.998498 1_555
Ge0 Yb1 2.998498 1_554
Ge0 Yb0 2.998498 1_544
