# generated using pymatgen
data_Ba(MgIn)2
_symmetry_space_group_name_H-M   'P 1'
_cell_length_a   7.12228640
_cell_length_b   7.12228640
_cell_length_c   7.12228640
_cell_angle_alpha   139.70334488
_cell_angle_beta   139.70334488
_cell_angle_gamma   58.30400520
_symmetry_Int_Tables_number   1
_chemical_formula_structural   Ba(MgIn)2
_chemical_formula_sum   'Ba1 Mg2 In2'
_cell_volume   149.74540337
_cell_formula_units_Z   1
loop_
 _symmetry_equiv_pos_site_id
 _symmetry_equiv_pos_as_xyz
  1  'x, y, z'
loop_
 _atom_site_type_symbol
 _atom_site_label
 _atom_site_symmetry_multiplicity
 _atom_site_fract_x
 _atom_site_fract_y
 _atom_site_fract_z
 _atom_site_occupancy
  Ba  Ba0  1  0.00000000  0.00000000  0.00000000  1
  Mg  Mg0  1  0.75000000  0.25000000  0.50000000  1
  Mg  Mg1  1  0.25000000  0.75000000  0.50000000  1
  In  In0  1  0.38447579  0.38447579  0.00000000  1
  In  In1  1  0.61552421  0.61552421  -0.00000000  1
loop_
_geom_bond_atom_site_label_1
_geom_bond_atom_site_label_2
_geom_bond_distance
_geom_bond_site_symmetry_2
Ba0 In0 3.755341 1_444
Ba0 In0 3.755341 1_455
Ba0 In0 3.755341 1_545
Ba0 In0 3.755341 1_556
Ba0 In1 3.755341 1_455
Ba0 In1 3.755341 1_444
Ba0 In1 3.755341 1_545
Ba0 In1 3.755341 1_556
Ba0 Mg0 3.961192 1_444
Ba0 Mg0 3.961192 1_455
Ba0 Mg0 3.961192 1_454
Ba0 Mg1 3.961192 1_544
Ba0 Mg1 3.961192 1_555
Ba0 Mg1 3.961192 1_545
Ba0 Mg0 3.961192 1_555
Ba0 Mg1 3.961192 1_444
In0 In1 2.874293 1_555
In0 Mg0 2.969381 1_454
In0 Mg1 2.969381 1_555
In0 Mg0 2.969381 1_555
In0 Mg1 2.969381 1_544
In1 Mg0 2.969381 1_565
In1 Mg0 2.969381 1_554
In1 Mg1 2.969381 1_554
In1 Mg1 2.969381 1_655
