# generated using pymatgen
data_Gd2Al3Ge4
_symmetry_space_group_name_H-M   'P 1'
_cell_length_a   8.06321682
_cell_length_b   8.06321682
_cell_length_c   7.97584000
_cell_angle_alpha   90.00000000
_cell_angle_beta   90.00000000
_cell_angle_gamma   137.21301419
_symmetry_Int_Tables_number   1
_chemical_formula_structural   Gd2Al3Ge4
_chemical_formula_sum   'Gd4 Al6 Ge8'
_cell_volume   352.23986197
_cell_formula_units_Z   2
loop_
 _symmetry_equiv_pos_site_id
 _symmetry_equiv_pos_as_xyz
  1  'x, y, z'
loop_
 _atom_site_type_symbol
 _atom_site_label
 _atom_site_symmetry_multiplicity
 _atom_site_fract_x
 _atom_site_fract_y
 _atom_site_fract_z
 _atom_site_occupancy
  Gd  Gd0  1  0.11481700  0.88518300  0.41869000  1
  Gd  Gd1  1  0.88518300  0.11481700  0.58131000  1
  Gd  Gd2  1  0.38518300  0.61481700  0.91869000  1
  Gd  Gd3  1  0.61481700  0.38518300  0.08131000  1
  Al  Al0  1  0.00000000  0.00000000  0.00000000  1
  Al  Al1  1  0.50000000  0.50000000  0.50000000  1
  Al  Al2  1  0.03171100  0.46828900  0.25000000  1
  Al  Al3  1  0.46828900  0.03171100  0.75000000  1
  Al  Al4  1  0.96828900  0.53171100  0.75000000  1
  Al  Al5  1  0.53171100  0.96828900  0.25000000  1
  Ge  Ge0  1  0.20137600  0.29862400  0.25000000  1
  Ge  Ge1  1  0.29862400  0.20137600  0.75000000  1
  Ge  Ge2  1  0.79862400  0.70137600  0.75000000  1
  Ge  Ge3  1  0.70137600  0.79862400  0.25000000  1
  Ge  Ge4  1  0.18463700  0.81536300  0.05082600  1
  Ge  Ge5  1  0.81536300  0.18463700  0.94917400  1
  Ge  Ge6  1  0.31536300  0.68463700  0.55082600  1
  Ge  Ge7  1  0.68463700  0.31536300  0.44917400  1
loop_
_geom_bond_atom_site_label_1
_geom_bond_atom_site_label_2
_geom_bond_distance
_geom_bond_site_symmetry_2
Gd0 Ge4 3.115698 1_555
Gd0 Ge7 3.131934 1_565
Gd0 Ge7 3.131934 1_455
Gd0 Ge0 3.161581 1_565
Gd0 Ge3 3.161581 1_455
Gd0 Ge2 3.183274 1_455
Gd0 Ge1 3.183274 1_565
Gd0 Ge6 3.190352 1_555
Gd1 Ge5 3.115698 1_555
Gd1 Ge6 3.131934 1_655
Gd1 Ge6 3.131934 1_545
Gd1 Ge1 3.161581 1_655
Gd1 Ge2 3.161581 1_545
Gd1 Ge0 3.183274 1_655
Gd1 Ge3 3.183274 1_545
Gd1 Ge7 3.190352 1_555
Gd2 Ge6 3.115698 1_555
Gd2 Ge5 3.131934 1_565
Gd2 Ge5 3.131934 1_455
Gd2 Ge1 3.161581 1_555
Gd2 Ge2 3.161581 1_555
Gd2 Ge3 3.183274 1_556
Gd2 Ge0 3.183274 1_556
Gd2 Ge4 3.190352 1_556
Gd3 Ge7 3.115698 1_555
Gd3 Ge4 3.131934 1_655
Gd3 Ge4 3.131934 1_545
Gd3 Ge0 3.161581 1_555
Gd3 Ge3 3.161581 1_555
Gd3 Ge1 3.183274 1_554
Gd3 Ge2 3.183274 1_554
Gd3 Ge5 3.190352 1_554
Al0 Ge3 2.582950 1_445
Al0 Ge2 2.582950 1_444
Al0 Ge0 2.582950 1_555
Al0 Ge1 2.582950 1_554
Al0 Ge5 2.801857 1_454
Al0 Ge4 2.801857 1_545
Al0 Gd2 3.470389 1_444
Al0 Gd2 3.470389 1_554
Al0 Gd3 3.470389 1_555
Al0 Gd3 3.470389 1_445
Al1 Ge3 2.582950 1_555
Al1 Ge2 2.582950 1_555
Al1 Ge0 2.582950 1_555
Al1 Ge1 2.582950 1_555
Al1 Ge7 2.801857 1_555
Al1 Ge6 2.801857 1_555
Al1 Gd0 3.470389 1_545
Al1 Gd0 3.470389 1_655
Al1 Gd1 3.470389 1_565
Al1 Gd1 3.470389 1_455
Al2 Ge0 2.547567 1_555
Al2 Ge4 2.609764 1_555
Al2 Ge7 2.609764 1_455
Al2 Ge5 2.859171 1_454
Al2 Ge6 2.859171 1_555
Al2 Gd3 3.201993 1_455
Al2 Gd0 3.201993 1_555
Al2 Gd1 3.399889 1_455
Al2 Gd2 3.399889 1_554
Al3 Ge1 2.547567 1_555
Al3 Ge5 2.609764 1_555
Al3 Ge6 2.609764 1_545
Al3 Ge7 2.859171 1_555
Al3 Ge4 2.859171 1_546
Al3 Gd2 3.201993 1_545
Al3 Gd1 3.201993 1_555
Al3 Gd3 3.399889 1_556
Al3 Gd0 3.399889 1_545
Al4 Ge2 2.547567 1_555
Al4 Ge5 2.609764 1_555
Al4 Ge6 2.609764 1_655
Al4 Ge7 2.859171 1_555
Al4 Ge4 2.859171 1_656
Al4 Gd1 3.201993 1_555
Al4 Gd2 3.201993 1_655
Al4 Gd3 3.399889 1_556
Al4 Gd0 3.399889 1_655
Al5 Ge3 2.547567 1_555
Al5 Ge4 2.609764 1_555
Al5 Ge7 2.609764 1_565
Al5 Ge6 2.859171 1_555
Al5 Ge5 2.859171 1_564
Al5 Gd0 3.201993 1_555
Al5 Gd3 3.201993 1_565
Al5 Gd1 3.399889 1_565
Al5 Gd2 3.399889 1_554
Ge0 Ge3 2.941228 1_445
Ge0 Ge3 2.941228 1_555
Ge1 Ge2 2.941228 1_445
Ge1 Ge2 2.941228 1_555
