# generated using pymatgen
data_ZnC2(Br2N3)2
_symmetry_space_group_name_H-M   'P 1'
_cell_length_a   7.01934300
_cell_length_b   7.94023457
_cell_length_c   12.67589966
_cell_angle_alpha   74.19860219
_cell_angle_beta   86.37910446
_cell_angle_gamma   85.93600824
_symmetry_Int_Tables_number   1
_chemical_formula_structural   ZnC2(Br2N3)2
_chemical_formula_sum   'Zn2 C4 Br8 N12'
_cell_volume   677.37912999
_cell_formula_units_Z   2
loop_
 _symmetry_equiv_pos_site_id
 _symmetry_equiv_pos_as_xyz
  1  'x, y, z'
loop_
 _atom_site_type_symbol
 _atom_site_label
 _atom_site_symmetry_multiplicity
 _atom_site_fract_x
 _atom_site_fract_y
 _atom_site_fract_z
 _atom_site_occupancy
  Zn  Zn0  1  0.01687900  0.62476500  0.73834000  1
  Zn  Zn1  1  0.98312100  0.37523500  0.26166000  1
  C  C0  1  0.65423800  0.33621700  0.61693000  1
  C  C1  1  0.34576200  0.66378300  0.38307000  1
  C  C2  1  0.75555500  0.27406300  0.96203300  1
  C  C3  1  0.24444500  0.72593700  0.03796700  1
  Br  Br0  1  0.70792200  0.62624400  0.87470700  1
  Br  Br1  1  0.29207800  0.37375600  0.12529300  1
  Br  Br2  1  0.76983500  0.66602800  0.55895700  1
  Br  Br3  1  0.23016500  0.33397200  0.44104300  1
  Br  Br4  1  0.10610900  0.33076200  0.76816300  1
  Br  Br5  1  0.89389100  0.66923800  0.23183700  1
  Br  Br6  1  0.11654700  0.90459100  0.69844800  1
  Br  Br7  1  0.88345300  0.09540900  0.30155200  1
  N  N0  1  0.77785300  0.21396300  0.58082800  1
  N  N1  1  0.22214700  0.78603700  0.41917200  1
  N  N2  1  0.59198300  0.48209700  0.62967800  1
  N  N3  1  0.40801700  0.51790300  0.37032200  1
  N  N4  1  0.62496400  0.15734500  0.63754600  1
  N  N5  1  0.37503600  0.84265500  0.36245400  1
  N  N6  1  0.74992500  0.16641400  0.89090900  1
  N  N7  1  0.25007500  0.83358600  0.10909100  1
  N  N8  1  0.74942500  0.41024200  0.99462800  1
  N  N9  1  0.25057500  0.58975800  0.00537200  1
  N  N10  1  0.77602200  0.09060400  0.99361500  1
  N  N11  1  0.22397800  0.90939600  0.00638500  1
loop_
_geom_bond_atom_site_label_1
_geom_bond_atom_site_label_2
_geom_bond_distance
_geom_bond_site_symmetry_2
C0 N2 1.257001 1_555
C0 N4 1.400063 1_555
C0 N0 1.406063 1_555
C1 N3 1.257001 1_555
C1 N5 1.400063 1_555
C1 N1 1.406063 1_555
C2 N8 1.255478 1_555
C2 N10 1.401038 1_555
C2 N6 1.404976 1_555
C3 N9 1.255478 1_555
C3 N11 1.401038 1_555
C3 N7 1.404976 1_555
Br0 N8 1.975456 1_555
Br0 Zn0 2.687975 1_655
Br1 N9 1.975456 1_555
Br1 Zn1 2.687975 1_455
Br2 N2 1.974620 1_555
Br2 Zn0 2.880371 1_655
Br3 N3 1.974620 1_555
Br3 Zn1 2.880371 1_455
Br4 Zn0 2.308012 1_555
Br5 Zn1 2.308012 1_555
Br6 Zn0 2.290343 1_555
Br7 Zn1 2.290343 1_555
N0 N4 1.290588 1_555
N1 N5 1.290588 1_555
N10 N6 1.295577 1_555
N11 N7 1.295577 1_555
