# generated using pymatgen
data_Mg14AlCd
_symmetry_space_group_name_H-M   'P 1'
_cell_length_a   6.29077356
_cell_length_b   6.34943224
_cell_length_c   10.37999841
_cell_angle_alpha   90.00000000
_cell_angle_beta   90.00000000
_cell_angle_gamma   120.30894155
_symmetry_Int_Tables_number   1
_chemical_formula_structural   Mg14AlCd
_chemical_formula_sum   'Mg14 Al1 Cd1'
_cell_volume   357.93686249
_cell_formula_units_Z   1
loop_
 _symmetry_equiv_pos_site_id
 _symmetry_equiv_pos_as_xyz
  1  'x, y, z'
loop_
 _atom_site_type_symbol
 _atom_site_label
 _atom_site_symmetry_multiplicity
 _atom_site_fract_x
 _atom_site_fract_y
 _atom_site_fract_z
 _atom_site_occupancy
  Mg  Mg0  1  0.16762457  0.33381179  0.62500000  1
  Mg  Mg1  1  0.16817061  0.83408481  0.62500000  1
  Mg  Mg2  1  0.66772621  0.33352778  0.12500000  1
  Mg  Mg3  1  0.66558754  0.33239978  0.62500000  1
  Mg  Mg4  1  0.66772621  0.83419743  0.12500000  1
  Mg  Mg5  1  0.66558754  0.83318676  0.62500000  1
  Mg  Mg6  1  0.33080472  0.16698077  0.37188597  1
  Mg  Mg7  1  0.33080472  0.16698077  0.87811403  1
  Mg  Mg8  1  0.33080472  0.66382495  0.37188597  1
  Mg  Mg9  1  0.33080472  0.66382495  0.87811403  1
  Mg  Mg10  1  0.83668732  0.16834416  0.37388741  1
  Mg  Mg11  1  0.83668732  0.16834416  0.87611259  1
  Mg  Mg12  1  0.83446748  0.66723424  0.37562841  1
  Mg  Mg13  1  0.83446748  0.66723424  0.87437159  1
  Al  Al0  1  0.16545841  0.33272871  0.12500000  1
  Cd  Cd0  1  0.16659043  0.83329472  0.12500000  1
loop_
_geom_bond_atom_site_label_1
_geom_bond_atom_site_label_2
_geom_bond_distance
_geom_bond_site_symmetry_2
Mg0 Mg5 3.137106 1_555
Mg0 Mg3 3.137106 1_555
Mg0 Mg5 3.153686 1_445
Mg0 Mg3 3.153686 1_455
Mg0 Mg11 3.166129 1_455
Mg0 Mg10 3.166129 1_455
Mg0 Mg1 3.174718 1_555
Mg0 Mg1 3.174718 1_545
Mg0 Mg6 3.190015 1_555
Mg0 Mg7 3.190015 1_555
Mg0 Mg9 3.190021 1_555
Mg0 Mg8 3.190021 1_555
Mg1 Mg3 3.132018 1_565
Mg1 Mg5 3.132019 1_555
Mg1 Mg3 3.158762 1_455
Mg1 Mg5 3.158762 1_455
Mg1 Mg12 3.159859 1_455
Mg1 Mg13 3.159859 1_455
Mg1 Mg8 3.199150 1_555
Mg1 Mg9 3.199150 1_555
Mg1 Mg7 3.199156 1_565
Mg1 Mg6 3.199156 1_565
Mg2 Mg7 3.148907 1_554
Mg2 Mg6 3.148907 1_555
Mg2 Mg4 3.170464 1_545
Mg2 Mg4 3.178968 1_555
Mg3 Mg5 3.169719 1_545
Mg3 Mg5 3.179713 1_555
Mg3 Mg7 3.195117 1_555
Mg3 Mg6 3.195117 1_555
Mg4 Mg8 3.148907 1_555
Mg4 Mg9 3.148907 1_554
Mg5 Mg9 3.195117 1_555
Mg5 Mg8 3.195117 1_555
Mg6 Mg8 3.154678 1_555
Mg6 Mg8 3.194754 1_545
Mg7 Mg9 3.154678 1_555
Mg7 Mg9 3.194754 1_545
Mg10 Mg8 3.112827 1_655
Mg10 Mg6 3.112828 1_655
Mg10 Mg2 3.166888 1_555
Mg10 Mg4 3.166894 1_545
Mg10 Mg12 3.174790 1_545
Mg10 Mg12 3.174790 1_555
Mg10 Mg8 3.178101 1_545
Mg10 Mg6 3.178101 1_555
Mg10 Mg3 3.188938 1_555
Mg10 Mg5 3.188944 1_545
Mg11 Mg9 3.112827 1_655
Mg11 Mg7 3.112828 1_655
Mg11 Mg2 3.166888 1_556
Mg11 Mg4 3.166894 1_546
Mg11 Mg13 3.174790 1_545
Mg11 Mg13 3.174790 1_555
Mg11 Mg9 3.178101 1_545
Mg11 Mg7 3.178101 1_555
Mg11 Mg3 3.188938 1_555
Mg11 Mg5 3.188944 1_545
Mg12 Mg6 3.133566 1_665
Mg12 Mg8 3.133566 1_655
Mg12 Mg6 3.157798 1_555
Mg12 Mg8 3.157798 1_555
Mg12 Mg5 3.173176 1_555
Mg12 Mg3 3.173182 1_555
Mg12 Mg4 3.180314 1_555
Mg12 Mg2 3.180320 1_555
Mg13 Mg7 3.133566 1_665
Mg13 Mg9 3.133566 1_655
Mg13 Mg7 3.157798 1_555
Mg13 Mg9 3.157798 1_555
Mg13 Mg5 3.173176 1_555
Mg13 Mg3 3.173182 1_555
Mg13 Mg4 3.180314 1_556
Mg13 Mg2 3.180320 1_556
Al0 Mg4 3.133684 1_445
Al0 Mg2 3.133684 1_455
Al0 Mg7 3.140329 1_554
Al0 Mg6 3.140329 1_555
Al0 Mg8 3.140335 1_555
Al0 Mg9 3.140335 1_554
Al0 Mg11 3.140437 1_454
Al0 Mg10 3.140437 1_455
Al0 Mg4 3.157095 1_555
Al0 Mg2 3.157096 1_555
Al0 Cd0 3.174722 1_555
Al0 Cd0 3.174722 1_545
Cd0 Mg2 3.141138 1_455
Cd0 Mg4 3.141138 1_455
Cd0 Mg9 3.148694 1_554
Cd0 Mg8 3.148694 1_555
Cd0 Mg7 3.148700 1_564
Cd0 Mg6 3.148700 1_565
Cd0 Mg2 3.149643 1_565
Cd0 Mg4 3.149643 1_555
Cd0 Mg12 3.165657 1_455
Cd0 Mg13 3.165657 1_454
