# generated using pymatgen
data_KGdTi4O12
_symmetry_space_group_name_H-M   'P 1'
_cell_length_a   5.48372622
_cell_length_b   5.48372622
_cell_length_c   7.78635124
_cell_angle_alpha   90.00000000
_cell_angle_beta   90.00000000
_cell_angle_gamma   89.76363387
_symmetry_Int_Tables_number   1
_chemical_formula_structural   KGdTi4O12
_chemical_formula_sum   'K1 Gd1 Ti4 O12'
_cell_volume   234.14334737
_cell_formula_units_Z   1
loop_
 _symmetry_equiv_pos_site_id
 _symmetry_equiv_pos_as_xyz
  1  'x, y, z'
loop_
 _atom_site_type_symbol
 _atom_site_label
 _atom_site_symmetry_multiplicity
 _atom_site_fract_x
 _atom_site_fract_y
 _atom_site_fract_z
 _atom_site_occupancy
  K  K0  1  0.99072009  0.00927991  0.00000000  1
  Gd  Gd0  1  0.51887521  0.48112479  0.50000000  1
  Ti  Ti0  1  0.49591603  0.99087443  0.24349824  1
  Ti  Ti1  1  0.49591603  0.99087443  0.75650176  1
  Ti  Ti2  1  0.00912557  0.50408397  0.75650176  1
  Ti  Ti3  1  0.00912557  0.50408397  0.24349824  1
  O  O0  1  0.24928495  0.25093389  0.26999324  1
  O  O1  1  0.74906611  0.75071505  0.26999324  1
  O  O2  1  0.74906611  0.75071505  0.73000676  1
  O  O3  1  0.24928495  0.25093389  0.73000676  1
  O  O4  1  0.26982081  0.73017919  0.28787463  1
  O  O5  1  0.73246420  0.26753580  0.25465156  1
  O  O6  1  0.73246420  0.26753580  0.74534844  1
  O  O7  1  0.26982081  0.73017919  0.71212537  1
  O  O8  1  0.48640257  0.99044253  0.00000000  1
  O  O9  1  0.51535639  0.03836707  0.50000000  1
  O  O10  1  0.00955747  0.51359743  0.00000000  1
  O  O11  1  0.96163293  0.48464361  0.50000000  1
loop_
_geom_bond_atom_site_label_1
_geom_bond_atom_site_label_2
_geom_bond_distance
_geom_bond_site_symmetry_2
K0 O10 2.719723 1_645
K0 O8 2.719723 1_645
K0 O8 2.767894 1_545
K0 O10 2.767894 1_655
K0 O5 2.815359 1_555
K0 O6 2.815359 1_554
K0 O1 2.863827 1_545
K0 O0 2.863827 1_655
K0 O2 2.863827 1_544
K0 O3 2.863827 1_654
K0 O7 3.112860 1_644
K0 O4 3.112860 1_645
Gd0 O9 2.428118 1_555
Gd0 O11 2.428118 1_555
Gd0 O5 2.526244 1_555
Gd0 O6 2.526244 1_555
Gd0 O7 2.538344 1_555
Gd0 O4 2.538344 1_555
Gd0 O2 2.646077 1_555
Gd0 O3 2.646077 1_555
Gd0 O1 2.646077 1_555
Gd0 O0 2.646077 1_555
O0 Ti3 1.920676 1_555
O0 Ti0 1.972190 1_545
O1 Ti0 1.920676 1_555
O1 Ti3 1.972190 1_655
O2 Ti1 1.920676 1_555
O2 Ti2 1.972190 1_655
O3 Ti2 1.920676 1_555
O3 Ti1 1.972190 1_545
O4 Ti3 1.927416 1_555
O4 Ti0 1.927416 1_555
O5 Ti3 2.002028 1_655
O5 Ti0 2.002028 1_545
O6 Ti2 2.002028 1_655
O6 Ti1 2.002028 1_545
O7 Ti2 1.927416 1_555
O7 Ti1 1.927416 1_555
O8 Ti1 1.896682 1_554
O8 Ti0 1.896682 1_555
O9 Ti1 2.016998 1_545
O9 Ti0 2.016998 1_545
O10 Ti2 1.896682 1_554
O10 Ti3 1.896682 1_555
O11 Ti2 2.016998 1_655
O11 Ti3 2.016998 1_655
