# generated using pymatgen
data_Te4Mo3WSe4
_symmetry_space_group_name_H-M   'P 1'
_cell_length_a   3.43860724
_cell_length_b   3.43860724
_cell_length_c   39.13641200
_cell_angle_alpha   90.00000000
_cell_angle_beta   90.00000000
_cell_angle_gamma   119.99998531
_symmetry_Int_Tables_number   1
_chemical_formula_structural   Te4Mo3WSe4
_chemical_formula_sum   'Te4 Mo3 W1 Se4'
_cell_volume   400.75306163
_cell_formula_units_Z   1
loop_
 _symmetry_equiv_pos_site_id
 _symmetry_equiv_pos_as_xyz
  1  'x, y, z'
loop_
 _atom_site_type_symbol
 _atom_site_label
 _atom_site_symmetry_multiplicity
 _atom_site_fract_x
 _atom_site_fract_y
 _atom_site_fract_z
 _atom_site_occupancy
  Te  Te0  1  0.33333300  0.66666700  0.32933700  1
  Te  Te1  1  0.66666700  0.33333300  0.04641000  1
  Te  Te2  1  0.66666700  0.33333300  0.14131800  1
  Te  Te3  1  0.33333300  0.66666700  0.23442000  1
  Mo  Mo0  1  0.33333300  0.66666700  0.09382100  1
  Mo  Mo1  1  0.33333300  0.66666700  0.46964900  1
  Mo  Mo2  1  0.66666700  0.33333300  0.28189400  1
  W  W0  1  0.66666700  0.33333300  0.65755600  1
  Se  Se0  1  0.33333300  0.66666700  0.69953900  1
  Se  Se1  1  0.66666700  0.33333300  0.42787800  1
  Se  Se2  1  0.66666700  0.33333300  0.51139200  1
  Se  Se3  1  0.33333300  0.66666700  0.61553600  1
loop_
_geom_bond_atom_site_label_1
_geom_bond_atom_site_label_2
_geom_bond_distance
_geom_bond_site_symmetry_2
Mo0 Te1 2.717388 1_455
Mo0 Te1 2.717388 1_565
Mo0 Te1 2.717393 1_555
Mo0 Te2 2.719688 1_455
Mo0 Te2 2.719688 1_565
Mo0 Te2 2.719692 1_555
Mo1 Se2 2.571034 1_455
Mo1 Se2 2.571034 1_565
Mo1 Se2 2.571038 1_555
Mo1 Se1 2.571730 1_455
Mo1 Se1 2.571730 1_565
Mo1 Se1 2.571735 1_555
Mo2 Te0 2.718244 1_545
Mo2 Te0 2.718244 1_655
Mo2 Te0 2.718248 1_555
Mo2 Te3 2.719073 1_545
Mo2 Te3 2.719073 1_655
Mo2 Te3 2.719077 1_555
Se0 W0 2.577012 1_455
Se0 W0 2.577012 1_565
Se0 W0 2.577017 1_555
Se3 W0 2.577936 1_455
Se3 W0 2.577936 1_565
Se3 W0 2.577940 1_555
