# generated using pymatgen
data_Sr3Li4(SiN3)2
_symmetry_space_group_name_H-M   'P 1'
_cell_length_a   5.76864255
_cell_length_b   5.76864255
_cell_length_c   6.25520486
_cell_angle_alpha   89.98647222
_cell_angle_beta   89.98647222
_cell_angle_gamma   115.37229597
_symmetry_Int_Tables_number   1
_chemical_formula_structural   Sr3Li4(SiN3)2
_chemical_formula_sum   'Sr3 Li4 Si2 N6'
_cell_volume   188.07773269
_cell_formula_units_Z   1
loop_
 _symmetry_equiv_pos_site_id
 _symmetry_equiv_pos_as_xyz
  1  'x, y, z'
loop_
 _atom_site_type_symbol
 _atom_site_label
 _atom_site_symmetry_multiplicity
 _atom_site_fract_x
 _atom_site_fract_y
 _atom_site_fract_z
 _atom_site_occupancy
  Sr  Sr0  1  0.69139600  0.30860400  0.50000000  1
  Sr  Sr1  1  0.30860400  0.69139600  0.50000000  1
  Sr  Sr2  1  0.50000000  0.50000000  0.00000000  1
  Li  Li0  1  0.03804200  0.68607700  0.12190100  1
  Li  Li1  1  0.68607700  0.03804200  0.12190100  1
  Li  Li2  1  0.96195800  0.31392300  0.87809900  1
  Li  Li3  1  0.31392300  0.96195800  0.87809900  1
  Si  Si0  1  0.11131000  0.11131000  0.32807200  1
  Si  Si1  1  0.88869000  0.88869000  0.67192800  1
  N  N0  1  0.05140800  0.35088400  0.20508000  1
  N  N1  1  0.35088400  0.05140800  0.20508000  1
  N  N2  1  0.94859200  0.64911600  0.79492000  1
  N  N3  1  0.64911600  0.94859200  0.79492000  1
  N  N4  1  0.81906200  0.81906200  0.37884500  1
  N  N5  1  0.18093800  0.18093800  0.62115500  1
loop_
_geom_bond_atom_site_label_1
_geom_bond_atom_site_label_2
_geom_bond_distance
_geom_bond_site_symmetry_2
Li0 N0 2.035390 1_555
Li0 N2 2.097982 1_454
Li0 N1 2.170374 1_565
Li0 N4 2.365914 1_455
Li1 N1 2.035390 1_555
Li1 N3 2.097982 1_544
Li1 N0 2.170374 1_655
Li1 N4 2.365914 1_545
Li2 N2 2.035390 1_555
Li2 N0 2.097982 1_656
Li2 N3 2.170374 1_545
Li2 N5 2.365914 1_655
Li3 N3 2.035390 1_555
Li3 N1 2.097982 1_566
Li3 N2 2.170374 1_455
Li3 N5 2.365914 1_565
N0 Si0 1.740733 1_555
N0 Sr1 2.639765 1_555
N0 Sr2 2.678123 1_555
N0 Sr0 2.709174 1_455
N1 Si0 1.740733 1_555
N1 Sr0 2.639765 1_555
N1 Sr2 2.678123 1_555
N1 Sr1 2.709174 1_545
N2 Si1 1.740733 1_555
N2 Sr0 2.639765 1_555
N2 Sr2 2.678123 1_556
N2 Sr1 2.709174 1_655
N3 Si1 1.740733 1_555
N3 Sr1 2.639765 1_555
N3 Sr2 2.678123 1_556
N3 Sr0 2.709174 1_565
N4 Si0 1.830020 1_665
N4 Si1 1.883100 1_555
N4 Sr0 2.815645 1_555
N4 Sr1 2.815645 1_555
N5 Si1 1.830020 1_445
N5 Si0 1.883100 1_555
N5 Sr0 2.815645 1_555
N5 Sr1 2.815645 1_555
