# generated using pymatgen
data_BaGa2GeSe6
_symmetry_space_group_name_H-M   'P 1'
_cell_length_a   6.63780300
_cell_length_b   6.67983054
_cell_length_c   6.68090444
_cell_angle_alpha   100.30294078
_cell_angle_beta   100.65863378
_cell_angle_gamma   99.85431488
_symmetry_Int_Tables_number   1
_chemical_formula_structural   BaGa2GeSe6
_chemical_formula_sum   'Ba1 Ga2 Ge1 Se6'
_cell_volume   279.96057804
_cell_formula_units_Z   1
loop_
 _symmetry_equiv_pos_site_id
 _symmetry_equiv_pos_as_xyz
  1  'x, y, z'
loop_
 _atom_site_type_symbol
 _atom_site_label
 _atom_site_symmetry_multiplicity
 _atom_site_fract_x
 _atom_site_fract_y
 _atom_site_fract_z
 _atom_site_occupancy
  Ba  Ba0  1  0.99780100  0.99779800  0.99653800  1
  Ga  Ga0  1  0.81686000  0.54026100  0.40075800  1
  Ga  Ga1  1  0.54688700  0.39812700  0.82064600  1
  Ge  Ge0  1  0.39945400  0.82018900  0.54359900  1
  Se  Se0  1  0.25917900  0.12992500  0.58065900  1
  Se  Se1  1  0.13846700  0.58781900  0.26297100  1
  Se  Se2  1  0.58429900  0.26166400  0.13472400  1
  Se  Se3  1  0.73443100  0.88651500  0.45432300  1
  Se  Se4  1  0.88728100  0.45382400  0.73964000  1
  Se  Se5  1  0.45097000  0.73950900  0.88177100  1
loop_
_geom_bond_atom_site_label_1
_geom_bond_atom_site_label_2
_geom_bond_distance
_geom_bond_site_symmetry_2
Ba0 Se3 3.602852 1_555
Ba0 Se4 3.616398 1_555
Ba0 Se5 3.618493 1_555
Ba0 Se2 3.674757 1_566
Ba0 Se1 3.680259 1_656
Ba0 Se0 3.693927 1_665
Ba0 Se0 3.841554 1_666
Ba0 Se5 3.843097 1_655
Ba0 Se2 3.854168 1_666
Ba0 Se4 3.864246 1_565
Ba0 Se1 3.897404 1_666
Ba0 Se3 3.912664 1_556
Ga0 Se2 2.413257 1_555
Ga0 Se4 2.417900 1_555
Ga0 Se3 2.446742 1_555
Ga0 Se1 2.470819 1_655
Ga1 Se4 2.402733 1_555
Ga1 Se2 2.421669 1_556
Ga1 Se5 2.456065 1_555
Ga1 Se0 2.469046 1_555
Ge0 Se5 2.392619 1_555
Ge0 Se3 2.396654 1_555
Ge0 Se1 2.400555 1_555
Ge0 Se0 2.402170 1_565
