# generated using pymatgen
data_TiCo2
_symmetry_space_group_name_H-M   'P 1'
_cell_length_a   4.73368741
_cell_length_b   4.73368886
_cell_length_c   15.39209669
_cell_angle_alpha   90.00000000
_cell_angle_beta   90.00000000
_cell_angle_gamma   120.00011509
_symmetry_Int_Tables_number   1
_chemical_formula_structural   TiCo2
_chemical_formula_sum   'Ti8 Co16'
_cell_volume   298.69447912
_cell_formula_units_Z   8
loop_
 _symmetry_equiv_pos_site_id
 _symmetry_equiv_pos_as_xyz
  1  'x, y, z'
loop_
 _atom_site_type_symbol
 _atom_site_label
 _atom_site_symmetry_multiplicity
 _atom_site_fract_x
 _atom_site_fract_y
 _atom_site_fract_z
 _atom_site_occupancy
  Ti  Ti0  1  0.00000000  0.00000000  0.40569103  1
  Ti  Ti1  1  0.00000000  0.00000000  0.59428439  1
  Ti  Ti2  1  0.00000000  0.00000000  0.90571561  1
  Ti  Ti3  1  0.00000000  0.00000000  0.09430897  1
  Ti  Ti4  1  0.33333300  0.66666700  0.65527376  1
  Ti  Ti5  1  0.66666700  0.33333300  0.34470603  1
  Ti  Ti6  1  0.66666700  0.33333300  0.15529397  1
  Ti  Ti7  1  0.33333300  0.66666700  0.84472624  1
  Co  Co0  1  0.33333300  0.66666800  0.37454755  1
  Co  Co1  1  0.66666700  0.33333300  0.62542595  1
  Co  Co2  1  0.66666700  0.33333300  0.87457405  1
  Co  Co3  1  0.33333300  0.66666800  0.12545245  1
  Co  Co4  1  0.50000951  0.49999049  0.49997752  1
  Co  Co5  1  0.50000951  0.00001901  0.49997752  1
  Co  Co6  1  -0.00001901  0.49999049  0.49997752  1
  Co  Co7  1  0.50000951  0.49999049  0.00002248  1
  Co  Co8  1  0.50000951  0.00001901  0.00002248  1
  Co  Co9  1  -0.00001901  0.49999049  0.00002248  1
  Co  Co10  1  0.16399636  0.83600364  0.25000000  1
  Co  Co11  1  0.16399636  0.32799171  0.25000000  1
  Co  Co12  1  0.67200829  0.83600364  0.25000000  1
  Co  Co13  1  0.83596147  0.16403853  0.75000000  1
  Co  Co14  1  0.83596147  0.67192393  0.75000000  1
  Co  Co15  1  0.32807607  0.16403853  0.75000000  1
loop_
_geom_bond_atom_site_label_1
_geom_bond_atom_site_label_2
_geom_bond_distance
_geom_bond_site_symmetry_2
Ti0 Ti5 2.889704 1_555
Ti0 Ti5 2.889705 1_445
Ti0 Ti5 2.889705 1_455
Ti0 Ti1 2.902847 1_555
Ti1 Ti4 2.889726 1_445
Ti1 Ti4 2.889727 1_555
Ti1 Ti4 2.889727 1_545
Ti2 Ti7 2.889726 1_445
Ti2 Ti7 2.889727 1_555
Ti2 Ti7 2.889727 1_545
Ti2 Ti3 2.902847 1_556
Ti3 Ti6 2.889704 1_555
Ti3 Ti6 2.889705 1_445
Ti3 Ti6 2.889705 1_455
Ti4 Ti7 2.916071 1_555
Ti5 Ti6 2.915449 1_555
Co0 Co5 2.365342 1_565
Co0 Co6 2.365344 1_555
Co0 Co4 2.365351 1_555
Co0 Co10 2.367000 1_555
Co0 Co12 2.367005 1_555
Co0 Co11 2.367008 1_555
Co0 Ti5 2.771316 1_565
Co0 Ti5 2.771319 1_455
Co0 Ti5 2.771337 1_555
Co0 Ti0 2.774712 1_565
Co0 Ti0 2.774715 1_665
Co0 Ti0 2.774720 1_555
Co1 Co6 2.365486 1_655
Co1 Co5 2.365487 1_555
Co1 Co4 2.365490 1_555
Co1 Co13 2.367130 1_555
Co1 Co15 2.367133 1_555
Co1 Co14 2.367133 1_555
Co1 Ti4 2.771335 1_655
Co1 Ti4 2.771336 1_545
Co1 Ti4 2.771349 1_555
Co1 Ti1 2.774710 1_555
Co1 Ti1 2.774711 1_665
Co1 Ti1 2.774711 1_655
Co2 Co9 2.365486 1_656
Co2 Co8 2.365487 1_556
Co2 Co7 2.365490 1_556
Co2 Ti7 2.771335 1_655
Co2 Ti7 2.771336 1_545
Co2 Ti7 2.771349 1_555
Co2 Ti2 2.774710 1_555
Co2 Ti2 2.774711 1_665
Co2 Ti2 2.774711 1_655
Co3 Co8 2.365342 1_565
Co3 Co9 2.365344 1_555
Co3 Co7 2.365351 1_555
Co3 Ti6 2.771316 1_565
Co3 Ti6 2.771319 1_455
Co3 Ti6 2.771337 1_555
Co3 Ti3 2.774712 1_565
Co3 Ti3 2.774715 1_665
Co3 Ti3 2.774720 1_555
Co4 Co6 2.366709 1_655
Co4 Co5 2.366709 1_555
Co4 Co6 2.366979 1_555
Co4 Co5 2.366979 1_565
Co4 Ti5 2.752997 1_555
Co4 Ti4 2.753405 1_555
Co4 Ti0 2.776348 1_555
Co4 Ti0 2.776348 1_665
Co4 Ti1 2.776512 1_555
Co4 Ti1 2.776512 1_665
Co5 Co6 2.366705 1_655
Co5 Co6 2.366975 1_545
Co5 Ti5 2.752994 1_555
Co5 Ti4 2.753402 1_545
Co5 Ti0 2.776351 1_655
Co5 Ti0 2.776351 1_555
Co5 Ti1 2.776515 1_655
Co5 Ti1 2.776515 1_555
Co6 Ti5 2.752994 1_455
Co6 Ti4 2.753402 1_555
Co6 Ti0 2.776352 1_555
Co6 Ti0 2.776352 1_565
Co6 Ti1 2.776515 1_555
Co6 Ti1 2.776516 1_565
Co7 Co9 2.366709 1_655
Co7 Co8 2.366709 1_555
Co7 Co9 2.366979 1_555
Co7 Co8 2.366979 1_565
Co7 Ti6 2.752997 1_555
Co7 Ti7 2.753405 1_554
Co7 Ti3 2.776348 1_555
Co7 Ti3 2.776348 1_665
Co7 Ti2 2.776512 1_554
Co7 Ti2 2.776512 1_664
Co8 Co9 2.366705 1_655
Co8 Co9 2.366975 1_545
Co8 Ti6 2.752994 1_555
Co8 Ti7 2.753402 1_544
Co8 Ti3 2.776351 1_655
Co8 Ti3 2.776351 1_555
Co8 Ti2 2.776515 1_654
Co8 Ti2 2.776515 1_554
Co9 Ti6 2.752994 1_455
Co9 Ti7 2.753402 1_554
Co9 Ti3 2.776352 1_555
Co9 Ti3 2.776352 1_565
Co9 Ti2 2.776515 1_554
Co9 Ti2 2.776516 1_564
Co10 Co12 2.328918 1_455
Co10 Co11 2.328918 1_565
Co10 Co3 2.367000 1_555
Co10 Co12 2.404770 1_555
Co10 Co11 2.404770 1_555
Co10 Ti0 2.747863 1_565
Co10 Ti3 2.747863 1_565
Co10 Ti5 2.779815 1_565
Co10 Ti6 2.779815 1_565
Co10 Ti6 2.779815 1_455
Co10 Ti5 2.779815 1_455
Co11 Co12 2.328914 1_445
Co11 Co3 2.367008 1_555
Co11 Co12 2.404766 1_555
Co11 Ti0 2.747860 1_555
Co11 Ti3 2.747860 1_555
Co11 Ti6 2.779818 1_555
Co11 Ti5 2.779818 1_555
Co11 Ti6 2.779818 1_455
Co11 Ti5 2.779818 1_455
Co12 Co3 2.367005 1_555
Co12 Ti0 2.747860 1_665
Co12 Ti3 2.747860 1_665
Co12 Ti6 2.779819 1_555
Co12 Ti5 2.779819 1_555
Co12 Ti5 2.779819 1_565
Co12 Ti6 2.779819 1_565
Co13 Co15 2.329517 1_655
Co13 Co14 2.329517 1_545
Co13 Co2 2.367130 1_555
Co13 Co15 2.404171 1_555
Co13 Co14 2.404171 1_555
Co13 Ti2 2.748362 1_655
Co13 Ti1 2.748362 1_655
Co13 Ti4 2.779975 1_545
Co13 Ti7 2.779975 1_545
Co13 Ti4 2.779975 1_655
Co13 Ti7 2.779975 1_655
Co14 Co15 2.329513 1_665
Co14 Co2 2.367133 1_555
Co14 Co15 2.404167 1_555
Co14 Ti2 2.748359 1_665
Co14 Ti1 2.748359 1_665
Co14 Ti4 2.779979 1_555
Co14 Ti7 2.779979 1_555
Co14 Ti4 2.779979 1_655
Co14 Ti7 2.779979 1_655
Co15 Co2 2.367133 1_555
Co15 Ti2 2.748359 1_555
Co15 Ti1 2.748359 1_555
Co15 Ti4 2.779979 1_555
Co15 Ti7 2.779979 1_555
Co15 Ti4 2.779979 1_545
Co15 Ti7 2.779979 1_545
