# generated using pymatgen
data_Dy3MnB7
_symmetry_space_group_name_H-M   'P 1'
_cell_length_a   8.05940845
_cell_length_b   8.05940830
_cell_length_c   9.33812000
_cell_angle_alpha   90.00030351
_cell_angle_beta   89.99969649
_cell_angle_gamma   155.54318043
_symmetry_Int_Tables_number   1
_chemical_formula_structural   Dy3MnB7
_chemical_formula_sum   'Dy6 Mn2 B14'
_cell_volume   251.11567156
_cell_formula_units_Z   2
loop_
 _symmetry_equiv_pos_site_id
 _symmetry_equiv_pos_as_xyz
  1  'x, y, z'
loop_
 _atom_site_type_symbol
 _atom_site_label
 _atom_site_symmetry_multiplicity
 _atom_site_fract_x
 _atom_site_fract_y
 _atom_site_fract_z
 _atom_site_occupancy
  Dy  Dy0  1  0.75682989  0.24317076  0.25000469  1
  Dy  Dy1  1  0.24316652  0.75683405  0.74999521  1
  Dy  Dy2  1  0.89471874  0.10528142  0.56013090  1
  Dy  Dy3  1  0.10529009  0.89470995  0.43980162  1
  Dy  Dy4  1  0.10528740  0.89471243  0.06019702  1
  Dy  Dy5  1  0.89472125  0.10527881  0.93987030  1
  Mn  Mn0  1  0.94578808  0.05420962  0.25000712  1
  Mn  Mn1  1  0.05422509  0.94577231  0.74999126  1
  B  B0  1  0.54036199  0.45963935  0.25000859  1
  B  B1  1  0.45963167  0.54036942  0.74999154  1
  B  B2  1  0.52143698  0.47856181  0.90262994  1
  B  B3  1  0.47856410  0.52143492  0.09736845  1
  B  B4  1  0.47856839  0.52143068  0.40265486  1
  B  B5  1  0.52143316  0.47856568  0.59734638  1
  B  B6  1  0.63084904  0.36915161  0.84805956  1
  B  B7  1  0.36916305  0.63083777  0.15197104  1
  B  B8  1  0.72763508  0.27236552  0.96639390  1
  B  B9  1  0.27234189  0.72765870  0.03361943  1
  B  B10  1  0.27234449  0.72765608  0.46638655  1
  B  B11  1  0.72763244  0.27236820  0.53360054  1
  B  B12  1  0.63085030  0.36915035  0.65192287  1
  B  B13  1  0.36916136  0.63083957  0.34804622  1
loop_
_geom_bond_atom_site_label_1
_geom_bond_atom_site_label_2
_geom_bond_distance
_geom_bond_site_symmetry_2
B0 B3 1.726089 1_555
B0 B4 1.726090 1_555
B0 Mn0 2.265732 1_565
B0 Mn0 2.265741 1_455
B0 Dy3 2.664831 1_655
B0 Dy3 2.664834 1_545
B0 Dy4 2.664923 1_655
B0 Dy4 2.664926 1_545
B1 B2 1.726162 1_555
B1 B5 1.726171 1_555
B1 Mn1 2.265972 1_655
B1 Mn1 2.265981 1_545
B1 Dy2 2.665153 1_565
B1 Dy2 2.665155 1_455
B1 Dy5 2.665242 1_565
B1 Dy5 2.665245 1_455
B2 B6 1.797315 1_555
B2 B3 1.939856 1_556
B2 Mn1 2.283085 1_655
B2 Mn1 2.283089 1_545
B2 Dy4 2.612238 1_546
B2 Dy4 2.612241 1_656
B2 Dy5 2.649468 1_455
B2 Dy5 2.649471 1_565
B3 B7 1.797261 1_555
B3 Mn0 2.283037 1_565
B3 Mn0 2.283041 1_455
B3 Dy5 2.611824 1_454
B3 Dy5 2.611826 1_564
B3 Dy4 2.649462 1_545
B3 Dy4 2.649464 1_655
B4 B5 1.939407 1_555
B4 Mn0 2.283109 1_565
B4 Mn0 2.283112 1_455
B4 Dy2 2.611754 1_455
B4 Dy2 2.611756 1_565
B4 Dy3 2.649415 1_545
B4 Dy3 2.649417 1_655
B5 Mn1 2.283138 1_655
B5 Mn1 2.283142 1_545
B5 Dy3 2.612164 1_545
B5 Dy3 2.612167 1_655
B5 Dy2 2.649426 1_455
B5 Dy2 2.649428 1_565
B6 B8 1.883013 1_555
B6 Mn1 2.282461 1_655
B6 Mn1 2.282469 1_545
B6 Dy1 2.623585 1_655
B6 Dy1 2.623585 1_545
B6 Dy4 2.645827 1_656
B6 Dy4 2.645829 1_546
B7 B9 1.883554 1_555
B7 Mn0 2.282376 1_565
B7 Mn0 2.282383 1_455
B7 Dy0 2.623650 1_565
B7 Dy0 2.623651 1_455
B7 Dy5 2.645564 1_564
B7 Dy5 2.645566 1_454
B8 B9 1.950419 1_546
B8 B9 1.950419 1_656
B8 Dy5 2.643755 1_555
B8 Dy1 2.656570 1_655
B8 Dy1 2.656570 1_545
B8 Dy0 2.688030 1_556
B8 Dy4 2.719555 1_656
B8 Dy4 2.719557 1_546
B9 Dy4 2.643295 1_555
B9 Dy0 2.656447 1_455
B9 Dy0 2.656447 1_565
B9 Dy1 2.688102 1_554
B9 Dy5 2.719754 1_564
B9 Dy5 2.719755 1_454
B10 B13 1.883427 1_555
B10 B11 1.950412 1_455
B10 B11 1.950412 1_565
B10 Dy3 2.643305 1_555
B10 Dy0 2.656428 1_455
B10 Dy0 2.656428 1_565
B10 Dy1 2.687960 1_555
B10 Dy2 2.719689 1_565
B10 Dy2 2.719689 1_455
B11 B12 1.882887 1_555
B11 Dy2 2.643765 1_555
B11 Dy1 2.656547 1_655
B11 Dy1 2.656548 1_545
B11 Dy0 2.687895 1_555
B11 Dy3 2.719491 1_655
B11 Dy3 2.719492 1_545
B12 B5 1.797413 1_555
B12 B6 1.831548 1_555
B12 Mn1 2.282466 1_655
B12 Mn1 2.282474 1_545
B12 Dy1 2.623605 1_655
B12 Dy1 2.623605 1_545
B12 Dy3 2.645714 1_655
B12 Dy3 2.645715 1_545
B13 B4 1.797374 1_555
B13 B7 1.830974 1_555
B13 Mn0 2.282396 1_565
B13 Mn0 2.282404 1_455
B13 Dy0 2.623664 1_565
B13 Dy0 2.623665 1_455
B13 Dy2 2.645453 1_565
B13 Dy2 2.645455 1_455
