# generated using pymatgen
data_Zr3Se4
_symmetry_space_group_name_H-M   'P 1'
_cell_length_a   6.65062667
_cell_length_b   6.65062667
_cell_length_c   3.76506000
_cell_angle_alpha   90.00000000
_cell_angle_beta   90.00000000
_cell_angle_gamma   107.26657100
_symmetry_Int_Tables_number   1
_chemical_formula_structural   Zr3Se4
_chemical_formula_sum   'Zr3 Se4'
_cell_volume   159.02685145
_cell_formula_units_Z   1
loop_
 _symmetry_equiv_pos_site_id
 _symmetry_equiv_pos_as_xyz
  1  'x, y, z'
loop_
 _atom_site_type_symbol
 _atom_site_label
 _atom_site_symmetry_multiplicity
 _atom_site_fract_x
 _atom_site_fract_y
 _atom_site_fract_z
 _atom_site_occupancy
  Zr  Zr0  1  0.00000000  0.50000000  0.00000000  1
  Zr  Zr1  1  0.00000000  0.00000000  0.50000000  1
  Zr  Zr2  1  0.50000000  0.00000000  0.00000000  1
  Se  Se0  1  0.73585100  0.26414900  0.50000000  1
  Se  Se1  1  0.74247900  0.74247900  0.00000000  1
  Se  Se2  1  0.26414900  0.73585100  0.50000000  1
  Se  Se3  1  0.25752100  0.25752100  0.00000000  1
loop_
_geom_bond_atom_site_label_1
_geom_bond_atom_site_label_2
_geom_bond_distance
_geom_bond_site_symmetry_2
Se0 Zr2 2.730326 1_556
Se0 Zr2 2.730326 1_555
Se0 Zr0 2.730326 1_655
Se0 Zr0 2.730326 1_656
Se0 Zr1 2.829215 1_655
Se1 Zr0 2.678327 1_655
Se1 Zr2 2.678327 1_565
Se1 Zr1 2.769323 1_664
Se1 Zr1 2.769323 1_665
Se2 Zr0 2.730326 1_555
Se2 Zr0 2.730326 1_556
Se2 Zr2 2.730326 1_565
Se2 Zr2 2.730326 1_566
Se2 Zr1 2.829215 1_565
Se3 Zr2 2.678327 1_555
Se3 Zr0 2.678327 1_555
Se3 Zr1 2.769323 1_555
Se3 Zr1 2.769323 1_554
