# generated using pymatgen
data_Tb3BCl3
_symmetry_space_group_name_H-M   'P 1'
_cell_length_a   9.44299822
_cell_length_b   9.44296637
_cell_length_c   9.44299879
_cell_angle_alpha   109.47124820
_cell_angle_beta   109.47128031
_cell_angle_gamma   109.47111848
_symmetry_Int_Tables_number   1
_chemical_formula_structural   Tb3BCl3
_chemical_formula_sum   'Tb12 B4 Cl12'
_cell_volume   648.19619047
_cell_formula_units_Z   4
loop_
 _symmetry_equiv_pos_site_id
 _symmetry_equiv_pos_as_xyz
  1  'x, y, z'
loop_
 _atom_site_type_symbol
 _atom_site_label
 _atom_site_symmetry_multiplicity
 _atom_site_fract_x
 _atom_site_fract_y
 _atom_site_fract_z
 _atom_site_occupancy
  Tb  Tb0  1  0.47077686  0.48538745  0.23538936  1
  Tb  Tb1  1  0.75001750  0.23538661  0.26462732  1
  Tb  Tb2  1  0.75001603  0.01463091  0.48538998  1
  Tb  Tb3  1  0.23537317  0.47075701  0.48538784  1
  Tb  Tb4  1  0.26461035  0.75000014  0.23539004  1
  Tb  Tb5  1  0.02921989  0.26460844  0.01461190  1
  Tb  Tb6  1  0.01461138  0.02924294  0.26462767  1
  Tb  Tb7  1  0.48539180  0.75000159  0.01461020  1
  Tb  Tb8  1  0.48538885  0.23539006  0.47077892  1
  Tb  Tb9  1  0.01460830  0.48536778  0.74998139  1
  Tb  Tb10  1  0.26461186  0.01461287  0.02922420  1
  Tb  Tb11  1  0.23537296  0.26461271  0.74998159  1
  B  B0  1  0.24999408  0.25000010  0.25000594  1
  B  B1  1  0.50001133  0.00000717  0.25000638  1
  B  B2  1  0.00000002  0.24999955  0.49999890  1
  B  B3  1  0.24999429  0.49999351  0.99998976  1
  Cl  Cl0  1  0.24999039  0.75614492  0.74381923  1
  Cl  Cl1  1  0.51231495  0.50615709  0.75615546  1
  Cl  Cl2  1  0.98765727  0.74383069  0.99382995  1
  Cl  Cl3  1  0.74384058  0.24999975  0.75615765  1
  Cl  Cl4  1  0.99382999  0.98767556  0.74382120  1
  Cl  Cl5  1  0.24998995  0.99384741  0.50616997  1
  Cl  Cl6  1  0.75617849  0.51232326  0.50616946  1
  Cl  Cl7  1  0.50617115  0.24999982  0.99382988  1
  Cl  Cl8  1  0.75618120  0.74385559  0.25000970  1
  Cl  Cl9  1  0.74384418  0.99384336  0.98768559  1
  Cl  Cl10  1  0.99382994  0.50615300  0.25001072  1
  Cl  Cl11  1  0.50617024  0.75616971  0.51234279  1
loop_
_geom_bond_atom_site_label_1
_geom_bond_atom_site_label_2
_geom_bond_distance
_geom_bond_site_symmetry_2
B0 Tb3 2.571487 1_555
B0 Tb6 2.571501 1_555
B0 Tb5 2.571575 1_555
B0 Tb8 2.571583 1_555
B0 Tb10 2.571625 1_555
B0 Tb0 2.571628 1_555
B1 Tb2 2.571516 1_555
B1 Tb1 2.571518 1_555
B1 Tb8 2.571580 1_555
B1 Tb7 2.571602 1_545
B1 Tb10 2.571632 1_555
B1 Tb4 2.571655 1_545
B2 Tb6 2.571368 1_555
B2 Tb1 2.571381 1_455
B2 Tb9 2.571384 1_555
B2 Tb3 2.571386 1_555
B2 Tb11 2.571388 1_555
B2 Tb2 2.571396 1_455
B3 Tb11 2.571530 1_555
B3 Tb9 2.571539 1_555
B3 Tb5 2.571605 1_556
B3 Tb7 2.571623 1_556
B3 Tb0 2.571637 1_556
B3 Tb4 2.571647 1_556
Cl0 Tb9 2.806834 1_555
Cl0 Tb7 2.806905 1_556
Cl0 Tb3 2.894831 1_555
Cl0 Tb10 2.895091 1_566
Cl1 Tb3 2.806775 1_555
Cl1 Tb11 2.806791 1_555
Cl1 Tb8 2.894896 1_555
Cl1 Tb7 2.894922 1_556
Cl2 Tb10 2.806950 1_666
Cl2 Tb4 2.806955 1_656
Cl2 Tb6 2.895121 1_666
Cl2 Tb9 2.895156 1_655
Cl3 Tb2 2.806785 1_555
Cl3 Tb9 2.806791 1_655
Cl3 Tb8 2.894918 1_555
Cl3 Tb5 2.894939 1_656
Cl4 Tb11 2.806824 1_665
Cl4 Tb5 2.806891 1_666
Cl4 Tb2 2.894826 1_565
Cl4 Tb10 2.895073 1_666
Cl5 Tb6 2.806807 1_565
Cl5 Tb8 2.806891 1_565
Cl5 Tb11 2.894785 1_565
Cl5 Tb4 2.895067 1_555
Cl6 Tb1 2.806810 1_555
Cl6 Tb8 2.806888 1_555
Cl6 Tb9 2.894808 1_655
Cl6 Tb0 2.895064 1_555
Cl7 Tb10 2.806940 1_556
Cl7 Tb0 2.806940 1_556
Cl7 Tb1 2.895129 1_556
Cl7 Tb11 2.895141 1_555
Cl8 Tb2 2.806827 1_565
Cl8 Tb7 2.806902 1_555
Cl8 Tb6 2.894822 1_665
Cl8 Tb0 2.895098 1_555
Cl9 Tb6 2.806777 1_666
Cl9 Tb1 2.806783 1_566
Cl9 Tb5 2.894885 1_666
Cl9 Tb7 2.894908 1_556
Cl10 Tb3 2.806807 1_655
Cl10 Tb5 2.806890 1_655
Cl10 Tb1 2.894798 1_555
Cl10 Tb4 2.895076 1_655
Cl11 Tb0 2.806944 1_555
Cl11 Tb4 2.806951 1_555
Cl11 Tb3 2.895121 1_555
Cl11 Tb2 2.895147 1_565
