# generated using pymatgen
data_K2InAsF6
_symmetry_space_group_name_H-M   'P 1'
_cell_length_a   6.56123251
_cell_length_b   6.56123251
_cell_length_c   6.56123251
_cell_angle_alpha   60.00000000
_cell_angle_beta   60.00000000
_cell_angle_gamma   60.00000000
_symmetry_Int_Tables_number   1
_chemical_formula_structural   K2InAsF6
_chemical_formula_sum   'K2 In1 As1 F6'
_cell_volume   199.72907296
_cell_formula_units_Z   1
loop_
 _symmetry_equiv_pos_site_id
 _symmetry_equiv_pos_as_xyz
  1  'x, y, z'
loop_
 _atom_site_type_symbol
 _atom_site_label
 _atom_site_symmetry_multiplicity
 _atom_site_fract_x
 _atom_site_fract_y
 _atom_site_fract_z
 _atom_site_occupancy
  K  K0  1  0.75000000  0.75000000  0.75000000  1
  K  K1  1  0.25000000  0.25000000  0.25000000  1
  In  In0  1  0.50000000  0.50000000  0.50000000  1
  As  As0  1  0.00000000  0.00000000  0.00000000  1
  F  F0  1  0.77644200  0.22355800  0.22355800  1
  F  F1  1  0.22355800  0.22355800  0.77644200  1
  F  F2  1  0.22355800  0.77644200  0.77644200  1
  F  F3  1  0.22355800  0.77644200  0.22355800  1
  F  F4  1  0.77644200  0.22355800  0.77644200  1
  F  F5  1  0.77644200  0.77644200  0.22355800  1
loop_
_geom_bond_atom_site_label_1
_geom_bond_atom_site_label_2
_geom_bond_distance
_geom_bond_site_symmetry_2
As0 F3 2.074391 1_545
As0 F0 2.074391 1_455
As0 F1 2.074391 1_554
As0 F4 2.074391 1_454
As0 F2 2.074391 1_544
As0 F5 2.074391 1_445
F0 In0 2.565101 1_555
F0 K1 3.289778 1_555
F0 K0 3.289778 1_545
F0 K1 3.289778 1_655
F0 K0 3.289778 1_554
F1 In0 2.565101 1_555
F1 K0 3.289778 1_455
F1 K1 3.289778 1_555
F1 K1 3.289778 1_556
F1 K0 3.289778 1_545
F2 In0 2.565101 1_555
F2 K1 3.289778 1_565
F2 K0 3.289778 1_455
F2 K0 3.289778 1_555
F2 K1 3.289778 1_556
F3 In0 2.565101 1_555
F3 K1 3.289778 1_565
F3 K0 3.289778 1_455
F3 K1 3.289778 1_555
F3 K0 3.289778 1_554
F4 In0 2.565101 1_555
F4 K0 3.289778 1_555
F4 K1 3.289778 1_556
F4 K0 3.289778 1_545
F4 K1 3.289778 1_655
F5 In0 2.565101 1_555
F5 K1 3.289778 1_565
F5 K0 3.289778 1_555
F5 K1 3.289778 1_655
F5 K0 3.289778 1_554
