# generated using pymatgen
data_BaMg14Cr
_symmetry_space_group_name_H-M   'P 1'
_cell_length_a   6.60463237
_cell_length_b   6.46200288
_cell_length_c   10.56759442
_cell_angle_alpha   90.00000000
_cell_angle_beta   90.00000000
_cell_angle_gamma   119.28817114
_symmetry_Int_Tables_number   1
_chemical_formula_structural   BaMg14Cr
_chemical_formula_sum   'Ba1 Mg14 Cr1'
_cell_volume   393.36273993
_cell_formula_units_Z   1
loop_
 _symmetry_equiv_pos_site_id
 _symmetry_equiv_pos_as_xyz
  1  'x, y, z'
loop_
 _atom_site_type_symbol
 _atom_site_label
 _atom_site_symmetry_multiplicity
 _atom_site_fract_x
 _atom_site_fract_y
 _atom_site_fract_z
 _atom_site_occupancy
  Ba  Ba0  1  0.15702109  0.32851005  0.12500000  1
  Mg  Mg0  1  0.16742697  0.33371299  0.62500000  1
  Mg  Mg1  1  0.16151259  0.83075580  0.62500000  1
  Mg  Mg2  1  0.65416150  0.31840879  0.12500000  1
  Mg  Mg3  1  0.66646035  0.33754281  0.62500000  1
  Mg  Mg4  1  0.65416150  0.83575172  0.12500000  1
  Mg  Mg5  1  0.66646035  0.82891655  0.62500000  1
  Mg  Mg6  1  0.34007629  0.16057324  0.38666404  1
  Mg  Mg7  1  0.34007629  0.16057324  0.86333596  1
  Mg  Mg8  1  0.34007629  0.67950405  0.38666404  1
  Mg  Mg9  1  0.34007629  0.67950405  0.86333596  1
  Mg  Mg10  1  0.82520348  0.16260224  0.39246535  1
  Mg  Mg11  1  0.82520348  0.16260224  0.85753465  1
  Mg  Mg12  1  0.84238856  0.67119478  0.36348183  1
  Mg  Mg13  1  0.84238856  0.67119478  0.88651817  1
  Cr  Cr0  1  0.17730640  0.83865270  0.12500000  1
loop_
_geom_bond_atom_site_label_1
_geom_bond_atom_site_label_2
_geom_bond_distance
_geom_bond_site_symmetry_2
Ba0 Cr0 3.233114 1_555
Ba0 Cr0 3.233114 1_545
Ba0 Mg4 3.289763 1_445
Ba0 Mg2 3.289763 1_455
Ba0 Mg4 3.315850 1_555
Ba0 Mg2 3.315851 1_555
Ba0 Mg7 3.401351 1_554
Ba0 Mg6 3.401351 1_555
Ba0 Mg8 3.401358 1_555
Ba0 Mg9 3.401358 1_554
Ba0 Mg11 3.412084 1_454
Ba0 Mg10 3.412084 1_455
Mg0 Mg11 3.150338 1_455
Mg0 Mg10 3.150338 1_455
Mg0 Mg6 3.184933 1_555
Mg0 Mg7 3.184933 1_555
Mg0 Mg8 3.184940 1_555
Mg0 Mg9 3.184940 1_555
Mg0 Mg1 3.231181 1_545
Mg0 Mg1 3.231181 1_555
Mg0 Mg5 3.283896 1_555
Mg0 Mg3 3.283896 1_555
Mg0 Mg5 3.320877 1_445
Mg0 Mg3 3.320877 1_455
Mg1 Mg8 3.133285 1_555
Mg1 Mg9 3.133285 1_555
Mg1 Mg7 3.133291 1_565
Mg1 Mg6 3.133291 1_565
Mg1 Mg3 3.263840 1_455
Mg1 Mg5 3.263840 1_455
Mg1 Mg12 3.319160 1_455
Mg1 Mg13 3.319160 1_455
Mg1 Mg3 3.340824 1_565
Mg1 Mg5 3.340825 1_555
Mg2 Mg4 3.118931 1_545
Mg2 Mg7 3.304467 1_554
Mg2 Mg6 3.304467 1_555
Mg2 Mg4 3.343072 1_555
Mg3 Mg6 3.144234 1_555
Mg3 Mg7 3.144234 1_555
Mg3 Mg5 3.175259 1_555
Mg3 Mg5 3.286744 1_545
Mg4 Mg9 3.304467 1_554
Mg4 Mg8 3.304467 1_555
Mg5 Mg9 3.144234 1_555
Mg5 Mg8 3.144234 1_555
Mg6 Mg8 3.108670 1_545
Mg6 Mg8 3.353332 1_555
Mg7 Mg9 3.108670 1_545
Mg7 Mg9 3.353332 1_555
Mg10 Mg3 3.094397 1_555
Mg10 Mg5 3.094404 1_545
Mg10 Mg8 3.198280 1_545
Mg10 Mg6 3.198281 1_555
Mg10 Mg12 3.246996 1_555
Mg10 Mg12 3.246996 1_545
Mg10 Mg2 3.375139 1_555
Mg10 Mg4 3.375145 1_545
Mg10 Mg8 3.407530 1_655
Mg10 Mg6 3.407530 1_655
Mg11 Mg3 3.094397 1_555
Mg11 Mg5 3.094404 1_545
Mg11 Mg9 3.198280 1_545
Mg11 Mg7 3.198281 1_555
Mg11 Mg13 3.246996 1_555
Mg11 Mg13 3.246996 1_545
Mg11 Mg2 3.375139 1_556
Mg11 Mg4 3.375145 1_546
Mg11 Mg9 3.407530 1_655
Mg11 Mg7 3.407530 1_655
Mg12 Mg4 3.212620 1_555
Mg12 Mg2 3.212626 1_555
Mg12 Mg6 3.270302 1_665
Mg12 Mg8 3.270302 1_655
Mg12 Mg5 3.344418 1_555
Mg12 Mg3 3.344424 1_555
Mg12 Mg6 3.353144 1_555
Mg12 Mg8 3.353144 1_555
Mg13 Mg4 3.212620 1_556
Mg13 Mg2 3.212626 1_556
Mg13 Mg7 3.270302 1_665
Mg13 Mg9 3.270302 1_655
Mg13 Mg5 3.344418 1_555
Mg13 Mg3 3.344424 1_555
Mg13 Mg7 3.353144 1_555
Mg13 Mg9 3.353144 1_555
Cr0 Mg2 3.158665 1_565
Cr0 Mg4 3.158666 1_555
Cr0 Mg12 3.173847 1_455
Cr0 Mg13 3.173847 1_454
Cr0 Mg8 3.307743 1_555
Cr0 Mg9 3.307743 1_554
Cr0 Mg7 3.307749 1_564
Cr0 Mg6 3.307749 1_565
Cr0 Mg2 3.446048 1_455
Cr0 Mg4 3.446048 1_455
