# generated using pymatgen
data_Tm5Bi3
_symmetry_space_group_name_H-M   'P 1'
_cell_length_a   8.24982000
_cell_length_b   9.39478600
_cell_length_c   11.84523500
_cell_angle_alpha   90.00000000
_cell_angle_beta   90.00000000
_cell_angle_gamma   90.00000000
_symmetry_Int_Tables_number   1
_chemical_formula_structural   Tm5Bi3
_chemical_formula_sum   'Tm20 Bi12'
_cell_volume   918.06841452
_cell_formula_units_Z   4
loop_
 _symmetry_equiv_pos_site_id
 _symmetry_equiv_pos_as_xyz
  1  'x, y, z'
loop_
 _atom_site_type_symbol
 _atom_site_label
 _atom_site_symmetry_multiplicity
 _atom_site_fract_x
 _atom_site_fract_y
 _atom_site_fract_z
 _atom_site_occupancy
  Tm  Tm0  1  0.69590900  0.93884300  0.43247400  1
  Tm  Tm1  1  0.80409100  0.56115700  0.93247400  1
  Tm  Tm2  1  0.30409100  0.43884300  0.56752600  1
  Tm  Tm3  1  0.19590900  0.06115700  0.06752600  1
  Tm  Tm4  1  0.30409100  0.06115700  0.56752600  1
  Tm  Tm5  1  0.19590900  0.43884300  0.06752600  1
  Tm  Tm6  1  0.69590900  0.56115700  0.43247400  1
  Tm  Tm7  1  0.80409100  0.93884300  0.93247400  1
  Tm  Tm8  1  0.32746300  0.75000000  0.26682400  1
  Tm  Tm9  1  0.17253700  0.75000000  0.76682400  1
  Tm  Tm10  1  0.67253700  0.25000000  0.73317600  1
  Tm  Tm11  1  0.82746300  0.25000000  0.23317600  1
  Tm  Tm12  1  0.02605000  0.75000000  0.49061800  1
  Tm  Tm13  1  0.47395000  0.75000000  0.99061800  1
  Tm  Tm14  1  0.97395000  0.25000000  0.50938200  1
  Tm  Tm15  1  0.52605000  0.25000000  0.00938200  1
  Tm  Tm16  1  0.84645200  0.75000000  0.21193600  1
  Tm  Tm17  1  0.65354800  0.75000000  0.71193600  1
  Tm  Tm18  1  0.15354800  0.25000000  0.78806400  1
  Tm  Tm19  1  0.34645200  0.25000000  0.28806400  1
  Bi  Bi0  1  0.09280400  0.75000000  0.02134300  1
  Bi  Bi1  1  0.40719600  0.75000000  0.52134300  1
  Bi  Bi2  1  0.90719600  0.25000000  0.97865700  1
  Bi  Bi3  1  0.59280400  0.25000000  0.47865700  1
  Bi  Bi4  1  0.56880500  0.98881600  0.17433000  1
  Bi  Bi5  1  0.93119500  0.51118400  0.67433100  1
  Bi  Bi6  1  0.43119500  0.48881600  0.82566900  1
  Bi  Bi7  1  0.06880500  0.01118400  0.32567000  1
  Bi  Bi8  1  0.43119500  0.01118400  0.82566900  1
  Bi  Bi9  1  0.06880500  0.48881600  0.32567000  1
  Bi  Bi10  1  0.56880500  0.51118400  0.17433000  1
  Bi  Bi11  1  0.93119500  0.98881600  0.67433100  1
loop_
_geom_bond_atom_site_label_1
_geom_bond_atom_site_label_2
_geom_bond_distance
_geom_bond_site_symmetry_2
Bi0 Tm16 3.037652 1_455
Bi0 Tm9 3.085761 1_554
Bi0 Tm3 3.093249 1_565
Bi0 Tm5 3.093249 1_555
Bi0 Tm7 3.151001 1_454
Bi0 Tm1 3.151001 1_454
Bi0 Tm13 3.165378 1_554
Bi0 Tm8 3.493261 1_555
Bi1 Tm17 3.037652 1_555
Bi1 Tm8 3.085761 1_555
Bi1 Tm4 3.093249 1_565
Bi1 Tm2 3.093249 1_555
Bi1 Tm6 3.151001 1_555
Bi1 Tm0 3.151001 1_555
Bi1 Tm12 3.165378 1_555
Bi1 Tm9 3.493261 1_555
Bi2 Tm18 3.037652 1_655
Bi2 Tm11 3.085761 1_556
Bi2 Tm1 3.093249 1_555
Bi2 Tm7 3.093249 1_545
Bi2 Tm5 3.151001 1_656
Bi2 Tm3 3.151001 1_656
Bi2 Tm15 3.165378 1_556
Bi2 Tm10 3.493261 1_555
Bi3 Tm19 3.037652 1_555
Bi3 Tm10 3.085761 1_555
Bi3 Tm6 3.093249 1_555
Bi3 Tm0 3.093249 1_545
Bi3 Tm2 3.151001 1_555
Bi3 Tm4 3.151001 1_555
Bi3 Tm14 3.165378 1_555
Bi3 Tm11 3.493261 1_555
Bi4 Tm15 3.156408 1_565
Bi4 Tm8 3.193496 1_555
Bi4 Tm13 3.222062 1_554
Bi4 Tm16 3.237104 1_555
Bi4 Tm0 3.266488 1_555
Bi4 Tm11 3.325703 1_565
Bi4 Tm19 3.346769 1_565
Bi4 Tm3 3.395025 1_565
Bi4 Tm7 3.492202 1_554
Bi5 Tm14 3.156415 1_555
Bi5 Tm9 3.193492 1_655
Bi5 Tm12 3.222070 1_655
Bi5 Tm17 3.237103 1_555
Bi5 Tm1 3.266477 1_555
Bi5 Tm10 3.325700 1_555
Bi5 Tm18 3.346764 1_655
Bi5 Tm2 3.395029 1_655
Bi5 Tm6 3.492212 1_555
Bi6 Tm13 3.156415 1_555
Bi6 Tm10 3.193492 1_555
Bi6 Tm15 3.222070 1_556
Bi6 Tm18 3.237103 1_555
Bi6 Tm2 3.266477 1_555
Bi6 Tm9 3.325700 1_555
Bi6 Tm17 3.346764 1_555
Bi6 Tm1 3.395029 1_555
Bi6 Tm5 3.492212 1_556
Bi7 Tm12 3.156408 1_545
Bi7 Tm11 3.193496 1_455
Bi7 Tm14 3.222062 1_455
Bi7 Tm19 3.237104 1_555
Bi7 Tm3 3.266488 1_555
Bi7 Tm8 3.325703 1_545
Bi7 Tm16 3.346769 1_445
Bi7 Tm0 3.395025 1_445
Bi7 Tm4 3.492202 1_555
Bi8 Tm13 3.156415 1_545
Bi8 Tm10 3.193492 1_555
Bi8 Tm15 3.222070 1_556
Bi8 Tm18 3.237103 1_555
Bi8 Tm4 3.266477 1_555
Bi8 Tm9 3.325700 1_545
Bi8 Tm17 3.346764 1_545
Bi8 Tm7 3.395029 1_545
Bi8 Tm3 3.492212 1_556
Bi9 Tm12 3.156408 1_555
Bi9 Tm11 3.193496 1_455
Bi9 Tm14 3.222062 1_455
Bi9 Tm19 3.237104 1_555
Bi9 Tm5 3.266488 1_555
Bi9 Tm8 3.325703 1_555
Bi9 Tm16 3.346769 1_455
Bi9 Tm6 3.395025 1_455
Bi9 Tm2 3.492202 1_555
Bi10 Tm15 3.156408 1_555
Bi10 Tm8 3.193496 1_555
Bi10 Tm13 3.222062 1_554
Bi10 Tm16 3.237104 1_555
Bi10 Tm6 3.266488 1_555
Bi10 Tm11 3.325703 1_555
Bi10 Tm19 3.346769 1_555
Bi10 Tm5 3.395025 1_555
Bi10 Tm1 3.492202 1_554
Bi11 Tm14 3.156415 1_565
Bi11 Tm9 3.193492 1_655
Bi11 Tm12 3.222070 1_655
Bi11 Tm17 3.237103 1_555
Bi11 Tm7 3.266477 1_555
Bi11 Tm10 3.325700 1_565
Bi11 Tm18 3.346764 1_665
Bi11 Tm4 3.395029 1_665
Bi11 Tm0 3.492212 1_555
