# generated using pymatgen
data_Nd2FeGe4
_symmetry_space_group_name_H-M   'P 1'
_cell_length_a   4.25973900
_cell_length_b   4.31707300
_cell_length_c   8.34803766
_cell_angle_alpha   75.01487935
_cell_angle_beta   90.00000000
_cell_angle_gamma   90.00000000
_symmetry_Int_Tables_number   1
_chemical_formula_structural   Nd2FeGe4
_chemical_formula_sum   'Nd2 Fe1 Ge4'
_cell_volume   148.29645334
_cell_formula_units_Z   1
loop_
 _symmetry_equiv_pos_site_id
 _symmetry_equiv_pos_as_xyz
  1  'x, y, z'
loop_
 _atom_site_type_symbol
 _atom_site_label
 _atom_site_symmetry_multiplicity
 _atom_site_fract_x
 _atom_site_fract_y
 _atom_site_fract_z
 _atom_site_occupancy
  Nd  Nd0  1  0.25000000  0.89623000  0.20754000  1
  Nd  Nd1  1  0.75000000  0.10153600  0.79692800  1
  Fe  Fe0  1  0.25000000  0.69546700  0.60906600  1
  Ge  Ge0  1  0.25000000  0.54946700  0.90106500  1
  Ge  Ge1  1  0.75000000  0.44640100  0.10719800  1
  Ge  Ge2  1  0.25000000  0.25435400  0.49129100  1
  Ge  Ge3  1  0.75000000  0.75154400  0.49691200  1
loop_
_geom_bond_atom_site_label_1
_geom_bond_atom_site_label_2
_geom_bond_distance
_geom_bond_site_symmetry_2
Fe0 Ge3 2.313943 1_455
Fe0 Ge3 2.313943 1_555
Fe0 Ge0 2.354723 1_555
Fe0 Ge2 2.358242 1_565
Fe0 Ge2 2.358246 1_555
Fe0 Nd0 3.237964 1_555
Ge0 Ge1 2.701766 1_456
Ge0 Ge1 2.701766 1_556
Ge0 Nd1 3.146560 1_555
Ge0 Nd1 3.146560 1_455
Ge0 Nd1 3.146563 1_465
Ge0 Nd1 3.146563 1_565
Ge0 Nd0 3.281369 1_546
Ge0 Nd0 3.281372 1_556
Ge1 Nd0 3.138532 1_645
Ge1 Nd0 3.138532 1_545
Ge1 Nd0 3.138532 1_655
Ge1 Nd0 3.138532 1_555
Ge1 Nd1 3.304481 1_564
Ge1 Nd1 3.304481 1_554
Ge2 Nd0 3.145660 1_545
Ge2 Nd0 3.145662 1_555
Ge2 Nd1 3.257468 1_455
Ge2 Nd1 3.257468 1_555
Ge3 Nd0 3.159390 1_655
Ge3 Nd0 3.159390 1_555
Ge3 Nd1 3.242321 1_555
Ge3 Nd1 3.242321 1_565
