# generated using pymatgen
data_Nd6Mn16Ni7
_symmetry_space_group_name_H-M   'P 1'
_cell_length_a   8.75796862
_cell_length_b   8.75796862
_cell_length_c   8.75796862
_cell_angle_alpha   60.00000000
_cell_angle_beta   60.00000000
_cell_angle_gamma   60.00000000
_symmetry_Int_Tables_number   1
_chemical_formula_structural   Nd6Mn16Ni7
_chemical_formula_sum   'Nd6 Mn16 Ni7'
_cell_volume   475.00169170
_cell_formula_units_Z   1
loop_
 _symmetry_equiv_pos_site_id
 _symmetry_equiv_pos_as_xyz
  1  'x, y, z'
loop_
 _atom_site_type_symbol
 _atom_site_label
 _atom_site_symmetry_multiplicity
 _atom_site_fract_x
 _atom_site_fract_y
 _atom_site_fract_z
 _atom_site_occupancy
  Nd  Nd0  1  0.70481600  0.70481600  0.29518400  1
  Nd  Nd1  1  0.29518400  0.70481600  0.29518400  1
  Nd  Nd2  1  0.70481600  0.29518400  0.29518400  1
  Nd  Nd3  1  0.29518400  0.29518400  0.70481600  1
  Nd  Nd4  1  0.70481600  0.29518400  0.70481600  1
  Nd  Nd5  1  0.29518400  0.70481600  0.70481600  1
  Mn  Mn0  1  0.87973300  0.87973300  0.36080100  1
  Mn  Mn1  1  0.87973300  0.36080100  0.87973300  1
  Mn  Mn2  1  0.36080100  0.87973300  0.87973300  1
  Mn  Mn3  1  0.87973300  0.87973300  0.87973300  1
  Mn  Mn4  1  0.12026700  0.12026700  0.63919900  1
  Mn  Mn5  1  0.12026700  0.63919900  0.12026700  1
  Mn  Mn6  1  0.63919900  0.12026700  0.12026700  1
  Mn  Mn7  1  0.12026700  0.12026700  0.12026700  1
  Mn  Mn8  1  0.67753600  0.67753600  0.96739200  1
  Mn  Mn9  1  0.67753600  0.96739200  0.67753600  1
  Mn  Mn10  1  0.96739200  0.67753600  0.67753600  1
  Mn  Mn11  1  0.67753600  0.67753600  0.67753600  1
  Mn  Mn12  1  0.32246400  0.32246400  0.03260800  1
  Mn  Mn13  1  0.32246400  0.03260800  0.32246400  1
  Mn  Mn14  1  0.03260800  0.32246400  0.32246400  1
  Mn  Mn15  1  0.32246400  0.32246400  0.32246400  1
  Ni  Ni0  1  0.00000000  0.00000000  0.00000000  1
  Ni  Ni1  1  0.00000000  0.00000000  0.50000000  1
  Ni  Ni2  1  0.50000000  0.00000000  0.50000000  1
  Ni  Ni3  1  0.00000000  0.50000000  0.50000000  1
  Ni  Ni4  1  0.50000000  0.50000000  0.00000000  1
  Ni  Ni5  1  0.00000000  0.50000000  0.00000000  1
  Ni  Ni6  1  0.50000000  0.00000000  0.00000000  1
loop_
_geom_bond_atom_site_label_1
_geom_bond_atom_site_label_2
_geom_bond_distance
_geom_bond_site_symmetry_2
Nd0 Ni3 3.146576 1_655
Nd0 Ni2 3.146576 1_565
Nd0 Ni6 3.146576 1_565
Nd0 Ni5 3.146576 1_655
Nd0 Nd5 3.587544 1_555
Nd0 Nd2 3.587544 1_555
Nd0 Nd4 3.587544 1_555
Nd0 Nd1 3.587544 1_555
Nd1 Ni6 3.146576 1_565
Nd1 Ni1 3.146576 1_565
Nd1 Ni3 3.146576 1_555
Nd1 Ni4 3.146576 1_555
Nd1 Nd5 3.587544 1_555
Nd1 Nd2 3.587544 1_555
Nd1 Nd3 3.587544 1_555
Nd2 Ni2 3.146576 1_555
Nd2 Ni5 3.146576 1_655
Nd2 Ni4 3.146576 1_555
Nd2 Ni1 3.146576 1_655
Nd2 Nd4 3.587544 1_555
Nd2 Nd3 3.587544 1_555
Nd3 Ni6 3.146576 1_556
Nd3 Ni2 3.146576 1_555
Nd3 Ni5 3.146576 1_556
Nd3 Ni3 3.146576 1_555
Nd3 Nd5 3.587544 1_555
Nd3 Nd4 3.587544 1_555
Nd4 Ni3 3.146576 1_655
Nd4 Ni6 3.146576 1_556
Nd4 Ni4 3.146576 1_556
Nd4 Ni1 3.146576 1_655
Nd4 Nd5 3.587544 1_555
Nd5 Ni2 3.146576 1_565
Nd5 Ni4 3.146576 1_556
Nd5 Ni5 3.146576 1_556
Nd5 Ni1 3.146576 1_565
Mn0 Ni0 2.580034 1_665
Mn0 Mn10 2.697770 1_555
Mn0 Mn9 2.697770 1_555
Mn0 Mn11 2.697770 1_555
Mn0 Ni3 2.717101 1_655
Mn0 Ni2 2.717101 1_565
Mn0 Ni1 2.717101 1_665
Mn0 Mn7 2.979167 1_665
Mn0 Mn5 2.979167 1_655
Mn0 Mn6 2.979167 1_565
Mn0 Nd2 3.021798 1_565
Mn0 Nd1 3.021798 1_655
Mn0 Nd0 3.021798 1_555
Mn1 Ni0 2.580034 1_656
Mn1 Mn10 2.697770 1_555
Mn1 Mn8 2.697770 1_555
Mn1 Mn11 2.697770 1_555
Mn1 Ni3 2.717101 1_655
Mn1 Ni4 2.717101 1_556
Mn1 Ni5 2.717101 1_656
Mn1 Mn7 2.979167 1_656
Mn1 Mn6 2.979167 1_556
Mn1 Mn4 2.979167 1_655
Mn1 Nd2 3.021798 1_556
Mn1 Nd3 3.021798 1_655
Mn1 Nd4 3.021798 1_555
Mn2 Ni0 2.580034 1_566
Mn2 Mn8 2.697770 1_555
Mn2 Mn9 2.697770 1_555
Mn2 Ni2 2.717101 1_565
Mn2 Ni4 2.717101 1_556
Mn2 Ni6 2.717101 1_566
Mn2 Mn7 2.979167 1_566
Mn2 Mn5 2.979167 1_556
Mn2 Mn4 2.979167 1_565
Mn2 Nd1 3.021798 1_556
Mn2 Nd3 3.021798 1_565
Mn2 Nd5 3.021798 1_555
Mn3 Ni0 2.580034 1_666
Mn3 Mn8 2.697770 1_555
Mn3 Mn9 2.697770 1_555
Mn3 Ni6 2.717101 1_566
Mn3 Ni1 2.717101 1_665
Mn3 Ni5 2.717101 1_656
Mn3 Mn6 2.979167 1_566
Mn3 Mn4 2.979167 1_665
Mn3 Mn5 2.979167 1_656
Mn3 Nd0 3.021798 1_556
Mn3 Nd4 3.021798 1_565
Mn3 Nd5 3.021798 1_655
Mn4 Ni0 2.580034 1_556
Mn4 Ni1 2.717101 1_555
Mn4 Ni2 2.717101 1_555
Mn4 Ni3 2.717101 1_555
Mn4 Nd3 3.021798 1_555
Mn4 Nd5 3.021798 1_545
Mn4 Nd4 3.021798 1_455
Mn5 Ni0 2.580034 1_565
Mn5 Ni5 2.717101 1_555
Mn5 Ni4 2.717101 1_555
Mn5 Ni3 2.717101 1_555
Mn5 Nd1 3.021798 1_555
Mn5 Nd0 3.021798 1_455
Mn5 Nd5 3.021798 1_554
Mn6 Ni0 2.580034 1_655
Mn6 Ni6 2.717101 1_555
Mn6 Ni4 2.717101 1_555
Mn6 Ni2 2.717101 1_555
Mn6 Nd0 3.021798 1_545
Mn6 Nd2 3.021798 1_555
Mn6 Nd4 3.021798 1_554
Mn7 Ni0 2.580034 1_555
Mn7 Ni1 2.717101 1_555
Mn7 Ni5 2.717101 1_555
Mn7 Ni6 2.717101 1_555
Mn7 Nd2 3.021798 1_455
Mn7 Nd1 3.021798 1_545
Mn7 Nd3 3.021798 1_554
Mn8 Mn9 2.538550 1_555
Mn8 Ni4 2.538938 1_556
Mn8 Ni6 2.538938 1_566
Mn8 Ni5 2.538938 1_656
Mn8 Nd2 3.128011 1_556
Mn8 Nd1 3.128011 1_556
Mn8 Nd0 3.128011 1_556
Mn9 Ni2 2.538938 1_565
Mn9 Ni6 2.538938 1_566
Mn9 Ni1 2.538938 1_665
Mn9 Nd2 3.128011 1_565
Mn9 Nd3 3.128011 1_565
Mn9 Nd4 3.128011 1_565
Mn10 Mn8 2.538550 1_555
Mn10 Mn11 2.538550 1_555
Mn10 Mn9 2.538550 1_555
Mn10 Ni3 2.538938 1_655
Mn10 Ni1 2.538938 1_665
Mn10 Ni5 2.538938 1_656
Mn10 Mn3 2.697770 1_555
Mn10 Nd1 3.128011 1_655
Mn10 Nd3 3.128011 1_655
Mn10 Nd5 3.128011 1_655
Mn11 Mn8 2.538550 1_555
Mn11 Mn9 2.538550 1_555
Mn11 Ni4 2.538938 1_556
Mn11 Ni3 2.538938 1_655
Mn11 Ni2 2.538938 1_565
Mn11 Mn2 2.697770 1_555
Mn11 Nd0 3.128011 1_555
Mn11 Nd4 3.128011 1_555
Mn11 Nd5 3.128011 1_555
Mn12 Mn14 2.538550 1_555
Mn12 Mn15 2.538550 1_555
Mn12 Mn13 2.538550 1_555
Mn12 Ni6 2.538938 1_555
Mn12 Ni5 2.538938 1_555
Mn12 Ni4 2.538938 1_555
Mn12 Mn7 2.697770 1_555
Mn12 Mn5 2.697770 1_555
Mn12 Mn6 2.697770 1_555
Mn12 Nd3 3.128011 1_554
Mn12 Nd5 3.128011 1_554
Mn12 Nd4 3.128011 1_554
Mn13 Mn14 2.538550 1_555
Mn13 Mn15 2.538550 1_555
Mn13 Ni6 2.538938 1_555
Mn13 Ni1 2.538938 1_555
Mn13 Ni2 2.538938 1_555
Mn13 Mn7 2.697770 1_555
Mn13 Mn6 2.697770 1_555
Mn13 Mn4 2.697770 1_555
Mn13 Nd1 3.128011 1_545
Mn13 Nd5 3.128011 1_545
Mn13 Nd0 3.128011 1_545
Mn14 Mn15 2.538550 1_555
Mn14 Ni1 2.538938 1_555
Mn14 Ni5 2.538938 1_555
Mn14 Ni3 2.538938 1_555
Mn14 Mn7 2.697770 1_555
Mn14 Mn5 2.697770 1_555
Mn14 Mn4 2.697770 1_555
Mn14 Nd2 3.128011 1_455
Mn14 Nd4 3.128011 1_455
Mn14 Nd0 3.128011 1_455
Mn15 Ni4 2.538938 1_555
Mn15 Ni2 2.538938 1_555
Mn15 Ni3 2.538938 1_555
Mn15 Mn6 2.697770 1_555
Mn15 Mn5 2.697770 1_555
Mn15 Mn4 2.697770 1_555
Mn15 Nd3 3.128011 1_555
Mn15 Nd1 3.128011 1_555
Mn15 Nd2 3.128011 1_555
