# generated using pymatgen
data_Rb2Mo(OF2)2
_symmetry_space_group_name_H-M   'P 1'
_cell_length_a   7.83395929
_cell_length_b   7.83395929
_cell_length_c   7.19505100
_cell_angle_alpha   90.00000000
_cell_angle_beta   90.00000000
_cell_angle_gamma   134.38685083
_symmetry_Int_Tables_number   1
_chemical_formula_structural   Rb2Mo(OF2)2
_chemical_formula_sum   'Rb4 Mo2 O4 F8'
_cell_volume   315.55837024
_cell_formula_units_Z   2
loop_
 _symmetry_equiv_pos_site_id
 _symmetry_equiv_pos_as_xyz
  1  'x, y, z'
loop_
 _atom_site_type_symbol
 _atom_site_label
 _atom_site_symmetry_multiplicity
 _atom_site_fract_x
 _atom_site_fract_y
 _atom_site_fract_z
 _atom_site_occupancy
  Rb  Rb0  1  0.77210100  0.22789900  0.49591900  1
  Rb  Rb1  1  0.22789900  0.77210100  0.99591900  1
  Rb  Rb2  1  0.54862500  0.45137500  0.00768500  1
  Rb  Rb3  1  0.45137500  0.54862500  0.50768500  1
  Mo  Mo0  1  0.88566400  0.11433600  0.98350900  1
  Mo  Mo1  1  0.11433600  0.88566400  0.48350900  1
  O  O0  1  0.89625500  0.65490300  0.33075100  1
  O  O1  1  0.10374500  0.34509700  0.83075100  1
  O  O2  1  0.65490300  0.89625500  0.83075100  1
  O  O3  1  0.34509700  0.10374500  0.33075100  1
  F  F0  1  0.74991600  0.25008400  0.03417000  1
  F  F1  1  0.25008400  0.74991600  0.53417000  1
  F  F2  1  0.10824900  0.33685800  0.20454400  1
  F  F3  1  0.89175100  0.66314200  0.70454400  1
  F  F4  1  0.33685800  0.10824900  0.70454400  1
  F  F5  1  0.66314200  0.89175100  0.20454400  1
  F  F6  1  0.98071100  0.01928900  0.51412800  1
  F  F7  1  0.01928900  0.98071100  0.01412800  1
loop_
_geom_bond_atom_site_label_1
_geom_bond_atom_site_label_2
_geom_bond_distance
_geom_bond_site_symmetry_2
Mo0 O2 1.753301 1_545
Mo0 O1 1.753301 1_655
Mo1 O0 1.753301 1_455
Mo1 O3 1.753301 1_565
O0 Rb0 2.999413 1_555
O0 Rb2 3.047493 1_555
O0 Rb1 3.171719 1_654
O0 Rb3 3.225030 1_555
O1 Rb1 2.999413 1_555
O1 Rb3 3.047493 1_555
O1 Rb0 3.171719 1_455
O1 Rb2 3.225030 1_556
O2 Rb1 2.999413 1_555
O2 Rb3 3.047493 1_555
O2 Rb0 3.171719 1_565
O2 Rb2 3.225030 1_556
O3 Rb0 2.999413 1_555
O3 Rb2 3.047493 1_555
O3 Rb1 3.171719 1_544
O3 Rb3 3.225030 1_555
F0 Mo0 1.994202 1_554
F0 Rb2 2.913481 1_555
F0 Rb1 3.065594 1_544
F0 Rb1 3.065594 1_654
F0 Rb0 3.337723 1_555
F1 Mo1 1.994202 1_555
F1 Rb3 2.913481 1_555
F1 Rb0 3.065594 1_455
F1 Rb0 3.065594 1_565
F1 Rb1 3.337723 1_555
F2 Mo0 2.087129 1_454
F2 Rb3 2.914845 1_555
F2 Rb0 2.985584 1_455
F2 Rb1 3.207255 1_554
F2 Rb2 3.222253 1_555
F3 Mo1 2.087129 1_655
F3 Rb2 2.914845 1_556
F3 Rb1 2.985584 1_655
F3 Rb0 3.207255 1_555
F3 Rb3 3.222253 1_555
F4 Mo1 2.087129 1_545
F4 Rb2 2.914845 1_556
F4 Rb1 2.985584 1_545
F4 Rb0 3.207255 1_555
F4 Rb3 3.222253 1_555
F5 Mo0 2.087129 1_564
F5 Rb3 2.914845 1_555
F5 Rb0 2.985584 1_565
F5 Rb1 3.207255 1_554
F5 Rb2 3.222253 1_555
F6 Mo1 1.942477 1_645
F6 Rb0 3.015797 1_555
F6 Rb3 3.066377 1_545
F6 Rb3 3.066377 1_655
F7 Mo0 1.942477 1_464
F7 Rb1 3.015797 1_554
F7 Rb2 3.066377 1_455
F7 Rb2 3.066377 1_565
