# generated using pymatgen
data_Pr5Mg
_symmetry_space_group_name_H-M   'P 1'
_cell_length_a   18.88199320
_cell_length_b   18.88199320
_cell_length_c   11.85378200
_cell_angle_alpha   90.00000000
_cell_angle_beta   90.00000000
_cell_angle_gamma   157.07037453
_symmetry_Int_Tables_number   1
_chemical_formula_structural   Pr5Mg
_chemical_formula_sum   'Pr40 Mg8'
_cell_volume   1646.53812003
_cell_formula_units_Z   8
loop_
 _symmetry_equiv_pos_site_id
 _symmetry_equiv_pos_as_xyz
  1  'x, y, z'
loop_
 _atom_site_type_symbol
 _atom_site_label
 _atom_site_symmetry_multiplicity
 _atom_site_fract_x
 _atom_site_fract_y
 _atom_site_fract_z
 _atom_site_occupancy
  Pr  Pr0_0  1  0.00391650  0.49608350  0.00000000  1
  Pr  Pr0_1  1  0.00391650  0.49608350  0.50000000  1
  Pr  Pr0_2  1  0.00391650  0.99608350  0.00000000  1
  Pr  Pr0_3  1  0.00391650  0.99608350  0.50000000  1
  Pr  Pr0_4  1  0.50391650  0.49608350  0.00000000  1
  Pr  Pr0_5  1  0.50391650  0.49608350  0.50000000  1
  Pr  Pr0_6  1  0.50391650  0.99608350  0.00000000  1
  Pr  Pr0_7  1  0.50391650  0.99608350  0.50000000  1
  Pr  Pr1_0  1  0.33845250  0.16154750  0.00000000  1
  Pr  Pr1_1  1  0.33845250  0.16154750  0.50000000  1
  Pr  Pr1_2  1  0.33845250  0.66154750  0.00000000  1
  Pr  Pr1_3  1  0.33845250  0.66154750  0.50000000  1
  Pr  Pr1_4  1  0.83845250  0.16154750  0.00000000  1
  Pr  Pr1_5  1  0.83845250  0.16154750  0.50000000  1
  Pr  Pr1_6  1  0.83845250  0.66154750  0.00000000  1
  Pr  Pr1_7  1  0.83845250  0.66154750  0.50000000  1
  Pr  Pr2_0  1  0.16812400  0.33187600  0.00000000  1
  Pr  Pr2_1  1  0.16812400  0.33187600  0.50000000  1
  Pr  Pr2_2  1  0.16812400  0.83187600  0.00000000  1
  Pr  Pr2_3  1  0.16812400  0.83187600  0.50000000  1
  Pr  Pr2_4  1  0.66812400  0.33187600  0.00000000  1
  Pr  Pr2_5  1  0.66812400  0.33187600  0.50000000  1
  Pr  Pr2_6  1  0.66812400  0.83187600  0.00000000  1
  Pr  Pr2_7  1  0.66812400  0.83187600  0.50000000  1
  Pr  Pr3_0  1  0.27685450  0.22314550  0.25000000  1
  Pr  Pr3_1  1  0.27685450  0.22314550  0.75000000  1
  Pr  Pr3_2  1  0.27685450  0.72314550  0.25000000  1
  Pr  Pr3_3  1  0.27685450  0.72314550  0.75000000  1
  Pr  Pr3_4  1  0.77685450  0.22314550  0.25000000  1
  Pr  Pr3_5  1  0.77685450  0.22314550  0.75000000  1
  Pr  Pr3_6  1  0.77685450  0.72314550  0.25000000  1
  Pr  Pr3_7  1  0.77685450  0.72314550  0.75000000  1
  Pr  Pr4_0  1  0.43772700  0.06227300  0.25000000  1
  Pr  Pr4_1  1  0.43772700  0.06227300  0.75000000  1
  Pr  Pr4_2  1  0.43772700  0.56227300  0.25000000  1
  Pr  Pr4_3  1  0.43772700  0.56227300  0.75000000  1
  Pr  Pr4_4  1  0.93772700  0.06227300  0.25000000  1
  Pr  Pr4_5  1  0.93772700  0.06227300  0.75000000  1
  Pr  Pr4_6  1  0.93772700  0.56227300  0.25000000  1
  Pr  Pr4_7  1  0.93772700  0.56227300  0.75000000  1
  Mg  Mg0_0  1  0.10825450  0.39174550  0.25000000  1
  Mg  Mg0_1  1  0.10825450  0.39174550  0.75000000  1
  Mg  Mg0_2  1  0.10825450  0.89174550  0.25000000  1
  Mg  Mg0_3  1  0.10825450  0.89174550  0.75000000  1
  Mg  Mg0_4  1  0.60825450  0.39174550  0.25000000  1
  Mg  Mg0_5  1  0.60825450  0.39174550  0.75000000  1
  Mg  Mg0_6  1  0.60825450  0.89174550  0.25000000  1
  Mg  Mg0_7  1  0.60825450  0.89174550  0.75000000  1
loop_
_geom_bond_atom_site_label_1
_geom_bond_atom_site_label_2
_geom_bond_distance
_geom_bond_site_symmetry_2
Pr0_0 Pr3_3 3.608900 1_554
Pr0_0 Pr3_2 3.608900 1_555
Pr0_0 Pr3_4 3.608900 1_455
Pr0_0 Pr3_5 3.608900 1_454
Pr0_0 Pr1_2 3.648331 1_555
Pr0_0 Pr1_4 3.648331 1_455
Pr0_0 Pr2_2 3.688289 1_555
Pr0_0 Pr2_4 3.688289 1_455
Pr0_0 Pr0_6 3.753100 1_555
Pr0_0 Pr0_6 3.753100 1_445
Pr0_0 Pr4_6 3.844875 1_455
Pr0_0 Pr4_7 3.844875 1_454
Pr0_1 Pr3_3 3.608900 1_555
Pr0_1 Pr3_2 3.608900 1_555
Pr0_1 Pr3_4 3.608900 1_455
Pr0_1 Pr3_5 3.608900 1_455
Pr0_1 Pr1_3 3.648331 1_555
Pr0_1 Pr1_5 3.648331 1_455
Pr0_1 Pr2_3 3.688289 1_555
Pr0_1 Pr2_5 3.688289 1_455
Pr0_1 Pr0_7 3.753100 1_555
Pr0_1 Pr0_7 3.753100 1_445
Pr0_1 Pr4_6 3.844875 1_455
Pr0_1 Pr4_7 3.844875 1_455
Pr0_2 Pr3_1 3.608900 1_564
Pr0_2 Pr3_0 3.608900 1_565
Pr0_2 Pr3_6 3.608900 1_455
Pr0_2 Pr3_7 3.608900 1_454
Pr0_2 Pr1_6 3.648331 1_455
Pr0_2 Pr1_0 3.648331 1_565
Pr0_2 Pr2_6 3.688289 1_455
Pr0_2 Pr2_0 3.688289 1_565
Pr0_2 Pr0_4 3.753100 1_565
Pr0_2 Pr0_4 3.753100 1_455
Pr0_2 Pr4_5 3.844875 1_464
Pr0_2 Pr4_4 3.844875 1_465
Pr0_3 Pr3_1 3.608900 1_565
Pr0_3 Pr3_0 3.608900 1_565
Pr0_3 Pr3_6 3.608900 1_455
Pr0_3 Pr3_7 3.608900 1_455
Pr0_3 Pr1_7 3.648331 1_455
Pr0_3 Pr1_1 3.648331 1_565
Pr0_3 Pr2_7 3.688289 1_455
Pr0_3 Pr2_1 3.688289 1_565
Pr0_3 Pr0_5 3.753100 1_565
Pr0_3 Pr0_5 3.753100 1_455
Pr0_3 Pr4_4 3.844875 1_465
Pr0_3 Pr4_5 3.844875 1_465
Pr0_4 Pr3_1 3.608900 1_554
Pr0_4 Pr3_0 3.608900 1_555
Pr0_4 Pr3_7 3.608900 1_554
Pr0_4 Pr3_6 3.608900 1_555
Pr0_4 Pr1_6 3.648331 1_555
Pr0_4 Pr1_0 3.648331 1_555
Pr0_4 Pr2_0 3.688289 1_555
Pr0_4 Pr2_6 3.688289 1_555
Pr0_4 Pr4_2 3.844875 1_555
Pr0_4 Pr4_3 3.844875 1_554
Pr0_5 Pr3_0 3.608900 1_555
Pr0_5 Pr3_6 3.608900 1_555
Pr0_5 Pr3_1 3.608900 1_555
Pr0_5 Pr3_7 3.608900 1_555
Pr0_5 Pr1_7 3.648331 1_555
Pr0_5 Pr1_1 3.648331 1_555
Pr0_5 Pr2_7 3.688289 1_555
Pr0_5 Pr2_1 3.688289 1_555
Pr0_5 Pr4_3 3.844875 1_555
Pr0_5 Pr4_2 3.844875 1_555
Pr0_6 Pr3_3 3.608900 1_554
Pr0_6 Pr3_2 3.608900 1_555
Pr0_6 Pr3_5 3.608900 1_564
Pr0_6 Pr3_4 3.608900 1_565
Pr0_6 Pr1_2 3.648331 1_555
Pr0_6 Pr1_4 3.648331 1_565
Pr0_6 Pr2_4 3.688289 1_565
Pr0_6 Pr2_2 3.688289 1_555
Pr0_6 Pr4_1 3.844875 1_564
Pr0_6 Pr4_0 3.844875 1_565
Pr0_7 Pr3_2 3.608900 1_555
Pr0_7 Pr3_3 3.608900 1_555
Pr0_7 Pr3_4 3.608900 1_565
Pr0_7 Pr3_5 3.608900 1_565
Pr0_7 Pr1_3 3.648331 1_555
Pr0_7 Pr1_5 3.648331 1_565
Pr0_7 Pr2_5 3.688289 1_565
Pr0_7 Pr2_3 3.688289 1_555
Pr0_7 Pr4_1 3.844875 1_565
Pr0_7 Pr4_0 3.844875 1_565
Pr1_0 Pr2_4 3.495162 1_555
Pr1_0 Pr2_2 3.495162 1_545
Pr1_0 Pr3_0 3.738899 1_555
Pr1_0 Pr3_1 3.738899 1_554
Pr1_0 Pr1_6 3.753100 1_555
Pr1_0 Pr1_6 3.753100 1_445
Pr1_1 Pr2_5 3.495162 1_555
Pr1_1 Pr2_3 3.495162 1_545
Pr1_1 Pr3_0 3.738899 1_555
Pr1_1 Pr3_1 3.738899 1_555
Pr1_1 Pr1_7 3.753100 1_555
Pr1_1 Pr1_7 3.753100 1_445
Pr1_2 Pr2_0 3.495162 1_555
Pr1_2 Pr2_6 3.495162 1_555
Pr1_2 Pr3_2 3.738899 1_555
Pr1_2 Pr3_3 3.738899 1_554
Pr1_2 Pr1_4 3.753100 1_565
Pr1_2 Pr1_4 3.753100 1_455
Pr1_3 Pr2_1 3.495162 1_555
Pr1_3 Pr2_7 3.495162 1_555
Pr1_3 Pr3_2 3.738899 1_555
Pr1_3 Pr3_3 3.738899 1_555
Pr1_3 Pr1_5 3.753100 1_455
Pr1_3 Pr1_5 3.753100 1_565
Pr1_4 Pr2_0 3.495162 1_655
Pr1_4 Pr2_6 3.495162 1_545
Pr1_4 Pr3_5 3.738899 1_554
Pr1_4 Pr3_4 3.738899 1_555
Pr1_5 Pr2_1 3.495162 1_655
Pr1_5 Pr2_7 3.495162 1_545
Pr1_5 Pr3_5 3.738899 1_555
Pr1_5 Pr3_4 3.738899 1_555
Pr1_6 Pr2_2 3.495162 1_655
Pr1_6 Pr2_4 3.495162 1_555
Pr1_6 Pr3_6 3.738899 1_555
Pr1_6 Pr3_7 3.738899 1_554
Pr1_7 Pr2_3 3.495162 1_655
Pr1_7 Pr2_5 3.495162 1_555
Pr1_7 Pr3_7 3.738899 1_555
Pr1_7 Pr3_6 3.738899 1_555
Pr2_0 Pr4_2 3.581874 1_555
Pr2_0 Pr4_3 3.581874 1_554
Pr2_0 Pr4_4 3.581874 1_455
Pr2_0 Pr4_5 3.581874 1_454
Pr2_0 Pr2_6 3.753100 1_445
Pr2_0 Pr2_6 3.753100 1_555
Pr2_1 Pr4_2 3.581874 1_555
Pr2_1 Pr4_3 3.581874 1_555
Pr2_1 Pr4_5 3.581874 1_455
Pr2_1 Pr4_4 3.581874 1_455
Pr2_1 Pr2_7 3.753100 1_445
Pr2_1 Pr2_7 3.753100 1_555
Pr2_2 Pr4_0 3.581874 1_565
Pr2_2 Pr4_6 3.581874 1_455
Pr2_2 Pr4_1 3.581874 1_564
Pr2_2 Pr4_7 3.581874 1_454
Pr2_2 Pr2_4 3.753100 1_565
Pr2_2 Pr2_4 3.753100 1_455
Pr2_3 Pr4_0 3.581874 1_565
Pr2_3 Pr4_6 3.581874 1_455
Pr2_3 Pr4_1 3.581874 1_565
Pr2_3 Pr4_7 3.581874 1_455
Pr2_3 Pr2_5 3.753100 1_565
Pr2_3 Pr2_5 3.753100 1_455
Pr2_4 Pr4_7 3.581874 1_554
Pr2_4 Pr4_1 3.581874 1_554
Pr2_4 Pr4_0 3.581874 1_555
Pr2_4 Pr4_6 3.581874 1_555
Pr2_5 Pr4_7 3.581874 1_555
Pr2_5 Pr4_1 3.581874 1_555
Pr2_5 Pr4_0 3.581874 1_555
Pr2_5 Pr4_6 3.581874 1_555
Pr2_6 Pr4_4 3.581874 1_565
Pr2_6 Pr4_5 3.581874 1_564
Pr2_6 Pr4_2 3.581874 1_555
Pr2_6 Pr4_3 3.581874 1_554
Pr2_7 Pr4_4 3.581874 1_565
Pr2_7 Pr4_5 3.581874 1_565
Pr2_7 Pr4_2 3.581874 1_555
Pr2_7 Pr4_3 3.581874 1_555
Pr3_0 Pr3_6 3.753100 1_555
Pr3_0 Pr3_6 3.753100 1_445
Pr3_0 Pr4_2 3.795068 1_555
Pr3_0 Pr4_4 3.795068 1_455
Pr3_1 Pr3_7 3.753100 1_555
Pr3_1 Pr3_7 3.753100 1_445
Pr3_1 Pr4_3 3.795068 1_555
Pr3_1 Pr4_5 3.795068 1_455
Pr3_2 Pr3_4 3.753100 1_565
Pr3_2 Pr3_4 3.753100 1_455
Pr3_2 Pr4_6 3.795068 1_455
Pr3_2 Pr4_0 3.795068 1_565
Pr3_3 Pr3_5 3.753100 1_455
Pr3_3 Pr3_5 3.753100 1_565
Pr3_3 Pr4_1 3.795068 1_565
Pr3_3 Pr4_7 3.795068 1_455
Pr3_4 Pr4_0 3.795068 1_555
Pr3_4 Pr4_6 3.795068 1_555
Pr3_5 Pr4_1 3.795068 1_555
Pr3_5 Pr4_7 3.795068 1_555
Pr3_6 Pr4_2 3.795068 1_555
Pr3_6 Pr4_4 3.795068 1_565
Pr3_7 Pr4_3 3.795068 1_555
Pr3_7 Pr4_5 3.795068 1_565
Pr4_0 Pr4_6 3.753100 1_555
Pr4_0 Pr4_6 3.753100 1_445
Pr4_1 Pr4_7 3.753100 1_555
Pr4_1 Pr4_7 3.753100 1_445
Pr4_2 Pr4_4 3.753100 1_565
Pr4_2 Pr4_4 3.753100 1_455
Pr4_3 Pr4_5 3.753100 1_565
Pr4_3 Pr4_5 3.753100 1_455
Mg0_0 Pr4_4 3.488951 1_455
Mg0_0 Pr4_2 3.488951 1_555
Mg0_0 Pr3_2 3.549298 1_555
Mg0_0 Pr3_4 3.549298 1_455
Mg0_0 Pr1_2 3.583373 1_555
Mg0_0 Pr1_3 3.583373 1_555
Mg0_0 Pr1_4 3.583373 1_455
Mg0_0 Pr1_5 3.583373 1_455
Mg0_0 Pr2_1 3.700240 1_555
Mg0_0 Pr2_0 3.700240 1_555
Mg0_1 Pr4_5 3.488951 1_455
Mg0_1 Pr4_3 3.488951 1_555
Mg0_1 Pr3_3 3.549298 1_555
Mg0_1 Pr3_5 3.549298 1_455
Mg0_1 Pr1_3 3.583373 1_555
Mg0_1 Pr1_2 3.583373 1_556
Mg0_1 Pr1_4 3.583373 1_456
Mg0_1 Pr1_5 3.583373 1_455
Mg0_1 Pr2_1 3.700240 1_555
Mg0_1 Pr2_0 3.700240 1_556
Mg0_2 Pr4_6 3.488951 1_455
Mg0_2 Pr4_0 3.488951 1_565
Mg0_2 Pr3_6 3.549298 1_455
Mg0_2 Pr3_0 3.549298 1_565
Mg0_2 Pr1_1 3.583373 1_565
Mg0_2 Pr1_0 3.583373 1_565
Mg0_2 Pr1_6 3.583373 1_455
Mg0_2 Pr1_7 3.583373 1_455
Mg0_2 Pr2_2 3.700240 1_555
Mg0_2 Pr2_3 3.700240 1_555
Mg0_3 Pr4_7 3.488951 1_455
Mg0_3 Pr4_1 3.488951 1_565
Mg0_3 Pr3_7 3.549298 1_455
Mg0_3 Pr3_1 3.549298 1_565
Mg0_3 Pr1_1 3.583373 1_565
Mg0_3 Pr1_0 3.583373 1_566
Mg0_3 Pr1_6 3.583373 1_456
Mg0_3 Pr1_7 3.583373 1_455
Mg0_3 Pr2_2 3.700240 1_556
Mg0_3 Pr2_3 3.700240 1_555
Mg0_4 Pr4_6 3.488951 1_555
Mg0_4 Pr4_0 3.488951 1_555
Mg0_4 Pr3_6 3.549298 1_555
Mg0_4 Pr3_0 3.549298 1_555
Mg0_4 Pr1_1 3.583373 1_555
Mg0_4 Pr1_0 3.583373 1_555
Mg0_4 Pr1_7 3.583373 1_555
Mg0_4 Pr1_6 3.583373 1_555
Mg0_4 Pr2_5 3.700240 1_555
Mg0_4 Pr2_4 3.700240 1_555
Mg0_5 Pr4_7 3.488951 1_555
Mg0_5 Pr4_1 3.488951 1_555
Mg0_5 Pr3_7 3.549298 1_555
Mg0_5 Pr3_1 3.549298 1_555
Mg0_5 Pr1_1 3.583373 1_555
Mg0_5 Pr1_0 3.583373 1_556
Mg0_5 Pr1_7 3.583373 1_555
Mg0_5 Pr1_6 3.583373 1_556
Mg0_5 Pr2_5 3.700240 1_555
Mg0_5 Pr2_4 3.700240 1_556
Mg0_6 Pr4_4 3.488951 1_565
Mg0_6 Pr4_2 3.488951 1_555
Mg0_6 Pr3_2 3.549298 1_555
Mg0_6 Pr3_4 3.549298 1_565
Mg0_6 Pr1_2 3.583373 1_555
Mg0_6 Pr1_3 3.583373 1_555
Mg0_6 Pr1_4 3.583373 1_565
Mg0_6 Pr1_5 3.583373 1_565
Mg0_6 Pr2_7 3.700240 1_555
Mg0_6 Pr2_6 3.700240 1_555
Mg0_7 Pr4_5 3.488951 1_565
Mg0_7 Pr4_3 3.488951 1_555
Mg0_7 Pr3_3 3.549298 1_555
Mg0_7 Pr3_5 3.549298 1_565
Mg0_7 Pr1_3 3.583373 1_555
Mg0_7 Pr1_2 3.583373 1_556
Mg0_7 Pr1_5 3.583373 1_565
Mg0_7 Pr1_4 3.583373 1_566
Mg0_7 Pr2_7 3.700240 1_555
Mg0_7 Pr2_6 3.700240 1_556
