# generated using pymatgen
data_Li7Mn2(CoO4)3
_symmetry_space_group_name_H-M   'P 1'
_cell_length_a   2.90303900
_cell_length_b   5.13078266
_cell_length_c   14.46852091
_cell_angle_alpha   90.00504855
_cell_angle_beta   91.81161965
_cell_angle_gamma   90.54914879
_symmetry_Int_Tables_number   1
_chemical_formula_structural   Li7Mn2(CoO4)3
_chemical_formula_sum   'Li7 Mn2 Co3 O12'
_cell_volume   215.38899805
_cell_formula_units_Z   1
loop_
 _symmetry_equiv_pos_site_id
 _symmetry_equiv_pos_as_xyz
  1  'x, y, z'
loop_
 _atom_site_type_symbol
 _atom_site_label
 _atom_site_symmetry_multiplicity
 _atom_site_fract_x
 _atom_site_fract_y
 _atom_site_fract_z
 _atom_site_occupancy
  Li  Li0  1  0.00000000  0.50000000  0.50000000  1
  Li  Li1  1  0.49452100  0.67218200  0.33857700  1
  Li  Li2  1  0.99825100  0.82944500  0.16625700  1
  Li  Li3  1  0.50000000  0.00000000  0.00000000  1
  Li  Li4  1  0.00174900  0.17055500  0.83374300  1
  Li  Li5  1  0.50547900  0.32781800  0.66142300  1
  Li  Li6  1  0.50000000  0.00000000  0.50000000  1
  Mn  Mn0  1  0.00558800  0.84667600  0.66093900  1
  Mn  Mn1  1  0.99441200  0.15332400  0.33906100  1
  Co  Co0  1  0.49212400  0.33290700  0.16764700  1
  Co  Co1  1  0.00000000  0.50000000  0.00000000  1
  Co  Co2  1  0.50787600  0.66709300  0.83235300  1
  O  O0  1  0.49337500  0.68466800  0.59363800  1
  O  O1  1  0.00264100  0.85740700  0.40854700  1
  O  O2  1  0.48196600  0.02065000  0.25819600  1
  O  O3  1  0.00959400  0.18009100  0.08782100  1
  O  O4  1  0.51719300  0.34866500  0.92042100  1
  O  O5  1  0.02576300  0.52858600  0.75271600  1
  O  O6  1  0.50662500  0.31533200  0.40636200  1
  O  O7  1  0.97423700  0.47141400  0.24728400  1
  O  O8  1  0.48280700  0.65133500  0.07957900  1
  O  O9  1  0.99040600  0.81990900  0.91217900  1
  O  O10  1  0.51803400  0.97935000  0.74180400  1
  O  O11  1  0.99735900  0.14259300  0.59145300  1
loop_
_geom_bond_atom_site_label_1
_geom_bond_atom_site_label_2
_geom_bond_distance
_geom_bond_site_symmetry_2
Li0 O0 2.153079 1_555
Li0 O6 2.153079 1_455
Li0 O6 2.246957 1_555
Li0 O0 2.246957 1_455
Li0 O1 2.261510 1_555
Li0 O11 2.261510 1_455
Li1 O1 1.995615 1_655
Li1 O1 2.020969 1_555
Li1 O6 2.077195 1_555
Li1 O2 2.132945 1_565
Li1 O7 2.211064 1_555
Li1 O7 2.220569 1_455
Li2 O8 2.121767 1_555
Li2 O8 2.126646 1_655
Li2 O3 2.127741 1_665
Li2 O2 2.135198 1_665
Li2 O7 2.181015 1_555
Li2 O2 2.265461 1_565
Li3 O3 2.124052 1_655
Li3 O9 2.124052 1_444
Li3 O4 2.128550 1_554
Li3 O8 2.128550 1_545
Li3 O3 2.152796 1_555
Li3 O9 2.152796 1_544
Li4 O4 2.121767 1_555
Li4 O4 2.126646 1_455
Li4 O9 2.127741 1_445
Li4 O10 2.135198 1_445
Li4 O5 2.181015 1_555
Li4 O10 2.265461 1_545
Li5 O11 1.995615 1_455
Li5 O11 2.020969 1_555
Li5 O0 2.077195 1_555
Li5 O10 2.132945 1_545
Li5 O5 2.211064 1_555
Li5 O5 2.220569 1_655
Li6 O1 2.056596 1_545
Li6 O11 2.056596 1_555
Li6 O6 2.110663 1_555
Li6 O0 2.110663 1_545
Li6 O1 2.134873 1_645
Li6 O11 2.134873 1_455
Mn0 O11 1.820977 1_465
Mn0 O0 1.932571 1_455
Mn0 O0 1.937515 1_555
Mn0 O10 1.978832 1_555
Mn0 O10 1.989631 1_455
Mn0 O5 2.104180 1_555
Mn1 O1 1.820977 1_645
Mn1 O6 1.932571 1_655
Mn1 O6 1.937515 1_555
Mn1 O2 1.978832 1_555
Mn1 O2 1.989631 1_655
Mn1 O7 2.104180 1_555
Co0 O7 1.915814 1_555
Co0 O3 1.946136 1_555
Co0 O7 2.054962 1_455
Co0 O2 2.070257 1_555
Co0 O8 2.071869 1_555
Co0 O3 2.082674 1_655
Co1 O4 1.941662 1_454
Co1 O8 1.941662 1_555
Co1 O3 2.075680 1_555
Co1 O9 2.075680 1_454
Co1 O4 2.077111 1_554
Co1 O8 2.077111 1_455
Co2 O5 1.915814 1_555
Co2 O9 1.946136 1_555
Co2 O5 2.054962 1_655
Co2 O10 2.070257 1_555
Co2 O4 2.071869 1_555
Co2 O9 2.082674 1_455
