# generated using pymatgen
data_Cu3H10(C4O7)2
_symmetry_space_group_name_H-M   'P 1'
_cell_length_a   12.96748200
_cell_length_b   5.68607100
_cell_length_c   9.41024988
_cell_angle_alpha   83.72485293
_cell_angle_beta   90.00000000
_cell_angle_gamma   90.00000000
_symmetry_Int_Tables_number   1
_chemical_formula_structural   Cu3H10(C4O7)2
_chemical_formula_sum   'Cu6 H20 C16 O28'
_cell_volume   689.69832146
_cell_formula_units_Z   2
loop_
 _symmetry_equiv_pos_site_id
 _symmetry_equiv_pos_as_xyz
  1  'x, y, z'
loop_
 _atom_site_type_symbol
 _atom_site_label
 _atom_site_symmetry_multiplicity
 _atom_site_fract_x
 _atom_site_fract_y
 _atom_site_fract_z
 _atom_site_occupancy
  Cu  Cu0  1  0.61264800  0.01191900  0.95878900  1
  Cu  Cu1  1  0.11264800  0.98808100  0.54121100  1
  Cu  Cu2  1  0.38735200  0.98808100  0.04121100  1
  Cu  Cu3  1  0.88735200  0.01191900  0.45878900  1
  Cu  Cu4  1  0.50000000  0.50000000  0.00000000  1
  Cu  Cu5  1  0.00000000  0.50000000  0.50000000  1
  H  H0  1  0.58452000  0.56384900  0.38231600  1
  H  H1  1  0.08452000  0.43615100  0.11768400  1
  H  H2  1  0.41548000  0.43615100  0.61768400  1
  H  H3  1  0.91548000  0.56384900  0.88231600  1
  H  H4  1  0.51082600  0.75530600  0.43423200  1
  H  H5  1  0.01082600  0.24469400  0.06576800  1
  H  H6  1  0.48917400  0.24469400  0.56576800  1
  H  H7  1  0.98917400  0.75530600  0.93423200  1
  H  H8  1  0.94344800  0.17667900  0.84974700  1
  H  H9  1  0.44344800  0.82332100  0.65025300  1
  H  H10  1  0.05655200  0.82332100  0.15025300  1
  H  H11  1  0.55655200  0.17667900  0.34974700  1
  H  H12  1  0.85958500  0.11723700  0.96697300  1
  H  H13  1  0.35958500  0.88276300  0.53302700  1
  H  H14  1  0.14041500  0.88276300  0.03302700  1
  H  H15  1  0.64041500  0.11723700  0.46697300  1
  H  H16  1  0.53653100  0.78868100  0.19216100  1
  H  H17  1  0.03653100  0.21131900  0.30783900  1
  H  H18  1  0.46346900  0.21131900  0.80784000  1
  H  H19  1  0.96346900  0.78868100  0.69216000  1
  C  C0  1  0.71290100  0.36810500  0.74064200  1
  C  C1  1  0.21290100  0.63189500  0.75935800  1
  C  C2  1  0.28709900  0.63189500  0.25935800  1
  C  C3  1  0.78709900  0.36810500  0.24064200  1
  C  C4  1  0.70780900  0.46291300  0.13940300  1
  C  C5  1  0.20780900  0.53708700  0.36059700  1
  C  C6  1  0.29219100  0.53708700  0.86059700  1
  C  C7  1  0.79219100  0.46291300  0.63940300  1
  C  C8  1  0.75836000  0.69546300  0.12459600  1
  C  C9  1  0.25836000  0.30453700  0.37540400  1
  C  C10  1  0.24164000  0.30453700  0.87540400  1
  C  C11  1  0.74164000  0.69546300  0.62459600  1
  C  C12  1  0.83764600  0.60431500  0.23082000  1
  C  C13  1  0.33764600  0.39568500  0.26918000  1
  C  C14  1  0.16235400  0.39568500  0.76918000  1
  C  C15  1  0.66235400  0.60431500  0.73082000  1
  O  O0  1  0.70138600  0.16473100  0.80561900  1
  O  O1  1  0.20138600  0.83526900  0.69438100  1
  O  O2  1  0.29861400  0.83526900  0.19438100  1
  O  O3  1  0.79861400  0.16473100  0.30561900  1
  O  O4  1  0.62835900  0.36613900  0.09230600  1
  O  O5  1  0.12835900  0.63386100  0.40769400  1
  O  O6  1  0.37164100  0.63386100  0.90769400  1
  O  O7  1  0.87164100  0.36613900  0.59230600  1
  O  O8  1  0.74386000  0.89411900  0.05325800  1
  O  O9  1  0.24386000  0.10588100  0.44674200  1
  O  O10  1  0.25614000  0.10588100  0.94674200  1
  O  O11  1  0.75614000  0.89411900  0.55325800  1
  O  O12  1  0.58710100  0.69183000  0.78968000  1
  O  O13  1  0.08710100  0.30817000  0.71032000  1
  O  O14  1  0.41289900  0.30817000  0.21032000  1
  O  O15  1  0.91289900  0.69183000  0.28968000  1
  O  O16  1  0.56608400  0.73253800  0.36342400  1
  O  O17  1  0.06608400  0.26746200  0.13657600  1
  O  O18  1  0.43391600  0.26746200  0.63657600  1
  O  O19  1  0.93391600  0.73253800  0.86342400  1
  O  O20  1  0.91521600  0.23009300  0.93713900  1
  O  O21  1  0.41521600  0.76990700  0.56286100  1
  O  O22  1  0.08478400  0.76990700  0.06286100  1
  O  O23  1  0.58478400  0.23009300  0.43713900  1
  O  O24  1  0.51845800  0.80908600  0.08648500  1
  O  O25  1  0.01845800  0.19091400  0.41351500  1
  O  O26  1  0.48154200  0.19091400  0.91351500  1
  O  O27  1  0.98154200  0.80908600  0.58648500  1
loop_
_geom_bond_atom_site_label_1
_geom_bond_atom_site_label_2
_geom_bond_distance
_geom_bond_site_symmetry_2
Cu0 O0 1.970501 1_555
Cu0 O24 1.990726 1_546
Cu0 O8 2.000958 1_546
Cu0 O26 2.003243 1_555
Cu0 O4 2.495997 1_556
Cu0 O12 2.566691 1_545
Cu1 O1 1.970501 1_555
Cu1 O25 1.990726 1_565
Cu1 O9 2.000958 1_565
Cu1 O27 2.003243 1_455
Cu1 O5 2.495997 1_555
Cu1 O13 2.566691 1_565
Cu2 O2 1.970501 1_555
Cu2 O26 1.990726 1_564
Cu2 O10 2.000958 1_564
Cu2 O24 2.003243 1_555
Cu2 O6 2.495997 1_554
Cu2 O14 2.566691 1_565
Cu3 O3 1.970501 1_555
Cu3 O27 1.990726 1_545
Cu3 O11 2.000958 1_545
Cu3 O25 2.003243 1_655
Cu3 O7 2.495997 1_555
Cu3 O15 2.566691 1_545
Cu4 O4 1.989937 1_555
Cu4 O6 1.989937 1_554
Cu4 O24 2.030041 1_555
Cu4 O26 2.030041 1_554
Cu4 O12 2.431182 1_554
Cu4 O14 2.431182 1_555
Cu5 O7 1.989937 1_455
Cu5 O5 1.989937 1_555
Cu5 O27 2.030041 1_455
Cu5 O25 2.030041 1_555
Cu5 O13 2.431182 1_555
Cu5 O15 2.431182 1_455
H0 O16 0.985649 1_555
H1 O17 0.985649 1_555
H2 O18 0.985649 1_555
H3 O19 0.985649 1_555
H4 O16 0.996522 1_555
H5 O17 0.996522 1_555
H6 O18 0.996522 1_555
H7 O19 0.996522 1_555
H8 O20 0.978357 1_555
H9 O21 0.978357 1_555
H10 O22 0.978357 1_555
H11 O23 0.978357 1_555
H12 O20 0.985714 1_555
H13 O21 0.985714 1_555
H14 O22 0.985714 1_555
H15 O23 0.985714 1_555
H16 O24 1.015909 1_555
H17 O25 1.015909 1_555
H18 O26 1.015900 1_555
H19 O27 1.015900 1_555
C0 O0 1.256525 1_555
C1 O1 1.256525 1_555
C2 O2 1.256525 1_555
C3 O3 1.256525 1_555
C4 O4 1.270422 1_555
C5 O5 1.270422 1_555
C6 O6 1.270422 1_555
C7 O7 1.270422 1_555
C8 O8 1.263398 1_555
C9 O9 1.263398 1_555
C10 O10 1.263398 1_555
C11 O11 1.263398 1_555
C12 O15 1.251772 1_555
C13 O14 1.251772 1_555
C14 O13 1.251772 1_555
C15 O12 1.251772 1_555
