# generated using pymatgen
data_CsMg30SbO32
_symmetry_space_group_name_H-M   'P 1'
_cell_length_a   8.72390100
_cell_length_b   8.72390100
_cell_length_c   8.79970000
_cell_angle_alpha   90.00000000
_cell_angle_beta   90.00000000
_cell_angle_gamma   90.00000000
_symmetry_Int_Tables_number   1
_chemical_formula_structural   CsMg30SbO32
_chemical_formula_sum   'Cs1 Mg30 Sb1 O32'
_cell_volume   669.71391625
_cell_formula_units_Z   1
loop_
 _symmetry_equiv_pos_site_id
 _symmetry_equiv_pos_as_xyz
  1  'x, y, z'
loop_
 _atom_site_type_symbol
 _atom_site_label
 _atom_site_symmetry_multiplicity
 _atom_site_fract_x
 _atom_site_fract_y
 _atom_site_fract_z
 _atom_site_occupancy
  Cs  Cs0  1  0.00000000  0.00000000  0.00000000  1
  Mg  Mg0  1  0.00000000  0.50000000  0.00000000  1
  Mg  Mg1  1  0.00000000  0.50000000  0.50000000  1
  Mg  Mg2  1  0.50000000  0.00000000  0.00000000  1
  Mg  Mg3  1  0.50000000  0.00000000  0.50000000  1
  Mg  Mg4  1  0.50000000  0.50000000  0.00000000  1
  Mg  Mg5  1  0.50000000  0.50000000  0.50000000  1
  Mg  Mg6  1  0.00000000  0.26223100  0.24702700  1
  Mg  Mg7  1  0.00000000  0.26223100  0.75297300  1
  Mg  Mg8  1  0.00000000  0.73776900  0.24702700  1
  Mg  Mg9  1  0.00000000  0.73776900  0.75297300  1
  Mg  Mg10  1  0.50000000  0.25186300  0.24915600  1
  Mg  Mg11  1  0.50000000  0.25186300  0.75084400  1
  Mg  Mg12  1  0.50000000  0.74813700  0.24915600  1
  Mg  Mg13  1  0.50000000  0.74813700  0.75084400  1
  Mg  Mg14  1  0.26223100  0.00000000  0.24702700  1
  Mg  Mg15  1  0.26223100  0.00000000  0.75297300  1
  Mg  Mg16  1  0.25186300  0.50000000  0.24915600  1
  Mg  Mg17  1  0.25186300  0.50000000  0.75084400  1
  Mg  Mg18  1  0.73776900  0.00000000  0.24702700  1
  Mg  Mg19  1  0.73776900  0.00000000  0.75297300  1
  Mg  Mg20  1  0.74813700  0.50000000  0.24915600  1
  Mg  Mg21  1  0.74813700  0.50000000  0.75084400  1
  Mg  Mg22  1  0.25588700  0.25588700  0.00000000  1
  Mg  Mg23  1  0.25620200  0.25620200  0.50000000  1
  Mg  Mg24  1  0.25588700  0.74411300  0.00000000  1
  Mg  Mg25  1  0.25620200  0.74379800  0.50000000  1
  Mg  Mg26  1  0.74411300  0.25588700  0.00000000  1
  Mg  Mg27  1  0.74379800  0.25620200  0.50000000  1
  Mg  Mg28  1  0.74411300  0.74411300  0.00000000  1
  Mg  Mg29  1  0.74379800  0.74379800  0.50000000  1
  Sb  Sb0  1  0.00000000  0.00000000  0.50000000  1
  O  O0  1  0.28587400  0.00000000  0.00000000  1
  O  O1  1  0.26601200  0.00000000  0.50000000  1
  O  O2  1  0.25763500  0.50000000  0.00000000  1
  O  O3  1  0.25375600  0.50000000  0.50000000  1
  O  O4  1  0.71412600  0.00000000  0.00000000  1
  O  O5  1  0.73398800  0.00000000  0.50000000  1
  O  O6  1  0.74236500  0.50000000  0.00000000  1
  O  O7  1  0.74624400  0.50000000  0.50000000  1
  O  O8  1  0.24952700  0.24952700  0.25013900  1
  O  O9  1  0.24952700  0.24952700  0.74986100  1
  O  O10  1  0.24952700  0.75047300  0.25013900  1
  O  O11  1  0.24952700  0.75047300  0.74986100  1
  O  O12  1  0.75047300  0.24952700  0.25013900  1
  O  O13  1  0.75047300  0.24952700  0.74986100  1
  O  O14  1  0.75047300  0.75047300  0.25013900  1
  O  O15  1  0.75047300  0.75047300  0.74986100  1
  O  O16  1  0.00000000  0.00000000  0.26978300  1
  O  O17  1  0.00000000  0.00000000  0.73021700  1
  O  O18  1  0.00000000  0.50000000  0.25629100  1
  O  O19  1  0.00000000  0.50000000  0.74370900  1
  O  O20  1  0.50000000  0.00000000  0.25629100  1
  O  O21  1  0.50000000  0.00000000  0.74370900  1
  O  O22  1  0.50000000  0.50000000  0.25226700  1
  O  O23  1  0.50000000  0.50000000  0.74773300  1
  O  O24  1  0.00000000  0.28587400  0.00000000  1
  O  O25  1  0.00000000  0.26601200  0.50000000  1
  O  O26  1  0.00000000  0.71412600  0.00000000  1
  O  O27  1  0.00000000  0.73398800  0.50000000  1
  O  O28  1  0.50000000  0.25763500  0.00000000  1
  O  O29  1  0.50000000  0.25375600  0.50000000  1
  O  O30  1  0.50000000  0.74236500  0.00000000  1
  O  O31  1  0.50000000  0.74624400  0.50000000  1
loop_
_geom_bond_atom_site_label_1
_geom_bond_atom_site_label_2
_geom_bond_distance
_geom_bond_site_symmetry_2
Cs0 O17 2.374009 1_554
Cs0 O16 2.374009 1_555
Cs0 O0 2.493936 1_555
Cs0 O24 2.493936 1_555
Cs0 O26 2.493936 1_545
Cs0 O4 2.493936 1_455
Mg0 O26 1.868014 1_555
Mg0 O24 1.868014 1_555
Mg0 O2 2.247582 1_555
Mg0 O6 2.247582 1_455
Mg0 O18 2.255284 1_555
Mg0 O19 2.255284 1_554
Mg1 O27 2.041288 1_555
Mg1 O25 2.041288 1_555
Mg1 O19 2.144566 1_555
Mg1 O18 2.144566 1_555
Mg1 O3 2.213742 1_555
Mg1 O7 2.213742 1_455
Mg2 O4 1.868014 1_555
Mg2 O0 1.868014 1_555
Mg2 O28 2.247582 1_555
Mg2 O30 2.247582 1_545
Mg2 O20 2.255284 1_555
Mg2 O21 2.255284 1_554
Mg3 O5 2.041288 1_555
Mg3 O1 2.041288 1_555
Mg3 O21 2.144566 1_555
Mg3 O20 2.144566 1_555
Mg3 O31 2.213742 1_545
Mg3 O29 2.213742 1_555
Mg4 O30 2.114368 1_555
Mg4 O6 2.114368 1_555
Mg4 O2 2.114368 1_555
Mg4 O28 2.114368 1_555
Mg4 O22 2.219874 1_555
Mg4 O23 2.219874 1_554
Mg5 O7 2.148208 1_555
Mg5 O31 2.148208 1_555
Mg5 O3 2.148208 1_555
Mg5 O29 2.148208 1_555
Mg5 O23 2.179976 1_555
Mg5 O22 2.179976 1_555
Mg6 O18 2.075875 1_555
Mg6 O8 2.179840 1_555
Mg6 O12 2.179840 1_455
Mg6 O24 2.183527 1_555
Mg6 O25 2.226331 1_555
Mg6 O16 2.296425 1_555
Mg7 O19 2.075875 1_555
Mg7 O9 2.179840 1_555
Mg7 O13 2.179840 1_455
Mg7 O24 2.183527 1_556
Mg7 O25 2.226331 1_555
Mg7 O17 2.296425 1_555
Mg8 O18 2.075875 1_555
Mg8 O10 2.179840 1_555
Mg8 O14 2.179840 1_455
Mg8 O26 2.183527 1_555
Mg8 O27 2.226331 1_555
Mg8 O16 2.296425 1_565
Mg9 O19 2.075875 1_555
Mg9 O11 2.179840 1_555
Mg9 O15 2.179840 1_455
Mg9 O26 2.183527 1_556
Mg9 O27 2.226331 1_555
Mg9 O17 2.296425 1_565
Mg10 O22 2.164896 1_555
Mg10 O12 2.185214 1_555
Mg10 O8 2.185214 1_555
Mg10 O28 2.193076 1_555
Mg10 O20 2.198125 1_555
Mg10 O29 2.207414 1_555
Mg11 O23 2.164896 1_555
Mg11 O13 2.185214 1_555
Mg11 O9 2.185214 1_555
Mg11 O28 2.193076 1_556
Mg11 O21 2.198125 1_555
Mg11 O29 2.207414 1_555
Mg12 O22 2.164896 1_555
Mg12 O14 2.185214 1_555
Mg12 O10 2.185214 1_555
Mg12 O30 2.193076 1_555
Mg12 O20 2.198125 1_565
Mg12 O31 2.207414 1_555
Mg13 O23 2.164896 1_555
Mg13 O15 2.185214 1_555
Mg13 O11 2.185214 1_555
Mg13 O30 2.193076 1_556
Mg13 O21 2.198125 1_565
Mg13 O31 2.207414 1_555
Mg14 O20 2.075875 1_555
Mg14 O8 2.179840 1_555
Mg14 O10 2.179840 1_545
Mg14 O0 2.183527 1_555
Mg14 O1 2.226331 1_555
Mg14 O16 2.296425 1_555
Mg15 O21 2.075875 1_555
Mg15 O9 2.179840 1_555
Mg15 O11 2.179840 1_545
Mg15 O0 2.183527 1_556
Mg15 O1 2.226331 1_555
Mg15 O17 2.296425 1_555
Mg16 O22 2.164896 1_555
Mg16 O10 2.185214 1_555
Mg16 O8 2.185214 1_555
Mg16 O2 2.193076 1_555
Mg16 O18 2.198125 1_555
Mg16 O3 2.207414 1_555
Mg17 O23 2.164896 1_555
Mg17 O11 2.185214 1_555
Mg17 O9 2.185214 1_555
Mg17 O2 2.193076 1_556
Mg17 O19 2.198125 1_555
Mg17 O3 2.207414 1_555
Mg18 O20 2.075875 1_555
Mg18 O12 2.179840 1_555
Mg18 O14 2.179840 1_545
Mg18 O4 2.183527 1_555
Mg18 O5 2.226331 1_555
Mg18 O16 2.296425 1_655
Mg19 O21 2.075875 1_555
Mg19 O13 2.179840 1_555
Mg19 O15 2.179840 1_545
Mg19 O4 2.183527 1_556
Mg19 O5 2.226331 1_555
Mg19 O17 2.296425 1_655
Mg20 O22 2.164896 1_555
Mg20 O14 2.185214 1_555
Mg20 O12 2.185214 1_555
Mg20 O6 2.193076 1_555
Mg20 O18 2.198125 1_655
Mg20 O7 2.207414 1_555
Mg21 O23 2.164896 1_555
Mg21 O15 2.185214 1_555
Mg21 O13 2.185214 1_555
Mg21 O6 2.193076 1_556
Mg21 O19 2.198125 1_655
Mg21 O7 2.207414 1_555
Mg22 O2 2.129672 1_555
Mg22 O28 2.129672 1_555
Mg22 O9 2.202546 1_554
Mg22 O8 2.202546 1_555
Mg22 O24 2.247609 1_555
Mg22 O0 2.247609 1_555
Mg23 O3 2.126977 1_555
Mg23 O29 2.126977 1_555
Mg23 O8 2.200244 1_555
Mg23 O9 2.200244 1_555
Mg23 O25 2.236719 1_555
Mg23 O1 2.236719 1_555
Mg24 O2 2.129672 1_555
Mg24 O30 2.129672 1_555
Mg24 O10 2.202546 1_555
Mg24 O11 2.202546 1_554
Mg24 O26 2.247609 1_555
Mg24 O0 2.247609 1_565
Mg25 O3 2.126977 1_555
Mg25 O31 2.126977 1_555
Mg25 O10 2.200244 1_555
Mg25 O11 2.200244 1_555
Mg25 O27 2.236719 1_555
Mg25 O1 2.236719 1_565
Mg26 O28 2.129672 1_555
Mg26 O6 2.129672 1_555
Mg26 O13 2.202546 1_554
Mg26 O12 2.202546 1_555
Mg26 O4 2.247609 1_555
Mg26 O24 2.247609 1_655
Mg27 O29 2.126977 1_555
Mg27 O7 2.126977 1_555
Mg27 O13 2.200244 1_555
Mg27 O12 2.200244 1_555
Mg27 O25 2.236719 1_655
Mg27 O5 2.236719 1_555
Mg28 O30 2.129672 1_555
Mg28 O6 2.129672 1_555
Mg28 O14 2.202546 1_555
Mg28 O15 2.202546 1_554
Mg28 O4 2.247609 1_565
Mg28 O26 2.247609 1_655
Mg29 O7 2.126977 1_555
Mg29 O31 2.126977 1_555
Mg29 O15 2.200244 1_555
Mg29 O14 2.200244 1_555
Mg29 O27 2.236719 1_655
Mg29 O5 2.236719 1_565
O1 Sb0 2.320662 1_555
O5 Sb0 2.320662 1_655
O16 Sb0 2.025841 1_555
O17 Sb0 2.025841 1_555
O25 Sb0 2.320662 1_555
O27 Sb0 2.320662 1_565
