# generated using pymatgen
data_ErTlRh2
_symmetry_space_group_name_H-M   'P 1'
_cell_length_a   4.66910031
_cell_length_b   4.66910031
_cell_length_c   4.66910031
_cell_angle_alpha   60.00000000
_cell_angle_beta   60.00000000
_cell_angle_gamma   60.00000000
_symmetry_Int_Tables_number   1
_chemical_formula_structural   ErTlRh2
_chemical_formula_sum   'Er1 Tl1 Rh2'
_cell_volume   71.97548743
_cell_formula_units_Z   1
loop_
 _symmetry_equiv_pos_site_id
 _symmetry_equiv_pos_as_xyz
  1  'x, y, z'
loop_
 _atom_site_type_symbol
 _atom_site_label
 _atom_site_symmetry_multiplicity
 _atom_site_fract_x
 _atom_site_fract_y
 _atom_site_fract_z
 _atom_site_occupancy
  Er  Er0  1  0.50000000  0.50000000  0.50000000  1
  Tl  Tl0  1  -0.00000000  -0.00000000  -0.00000000  1
  Rh  Rh0  1  0.25000000  0.25000000  0.25000000  1
  Rh  Rh1  1  0.75000000  0.75000000  0.75000000  1
loop_
_geom_bond_atom_site_label_1
_geom_bond_atom_site_label_2
_geom_bond_distance
_geom_bond_site_symmetry_2
Er0 Rh1 2.859228 1_455
Er0 Rh0 2.859228 1_655
Er0 Rh0 2.859228 1_565
Er0 Rh1 2.859228 1_554
Er0 Rh1 2.859228 1_555
Er0 Rh1 2.859228 1_545
Er0 Rh0 2.859228 1_555
Er0 Rh0 2.859228 1_556
Rh0 Tl0 2.859228 1_655
Rh0 Tl0 2.859228 1_555
Rh0 Tl0 2.859228 1_556
Rh0 Tl0 2.859228 1_565
Rh1 Tl0 2.859228 1_566
Rh1 Tl0 2.859228 1_656
Rh1 Tl0 2.859228 1_665
Rh1 Tl0 2.859228 1_666
