# generated using pymatgen
data_Ac3Eu
_symmetry_space_group_name_H-M   'P 1'
_cell_length_a   8.06944849
_cell_length_b   8.06941030
_cell_length_c   6.60535341
_cell_angle_alpha   90.00000000
_cell_angle_beta   90.00000000
_cell_angle_gamma   120.00001063
_symmetry_Int_Tables_number   1
_chemical_formula_structural   Ac3Eu
_chemical_formula_sum   'Ac6 Eu2'
_cell_volume   372.48800859
_cell_formula_units_Z   2
loop_
 _symmetry_equiv_pos_site_id
 _symmetry_equiv_pos_as_xyz
  1  'x, y, z'
loop_
 _atom_site_type_symbol
 _atom_site_label
 _atom_site_symmetry_multiplicity
 _atom_site_fract_x
 _atom_site_fract_y
 _atom_site_fract_z
 _atom_site_occupancy
  Ac  Ac0  1  0.16763470  0.33527520  0.25000000  1
  Ac  Ac1  1  0.66471950  0.83235484  0.25000000  1
  Ac  Ac2  1  0.16763901  0.83235862  0.25000000  1
  Ac  Ac3  1  0.83235564  0.66471837  0.75000000  1
  Ac  Ac4  1  0.33528168  0.16763785  0.75000000  1
  Ac  Ac5  1  0.83236127  0.16764915  0.75000000  1
  Eu  Eu0  1  0.33334256  0.66668069  0.75000000  1
  Eu  Eu1  1  0.66666566  0.33332629  0.25000000  1
loop_
_geom_bond_atom_site_label_1
_geom_bond_atom_site_label_2
_geom_bond_distance
_geom_bond_site_symmetry_2
Ac0 Ac2 4.011153 1_555
Ac0 Ac1 4.011169 1_555
Ac0 Eu0 4.033779 1_555
Ac0 Eu0 4.033779 1_554
Ac0 Eu1 4.034704 1_455
Ac0 Eu1 4.034791 1_555
Ac0 Ac5 4.049365 1_454
Ac0 Ac5 4.049365 1_455
Ac0 Ac4 4.049406 1_555
Ac0 Ac4 4.049406 1_554
Ac0 Ac2 4.058258 1_545
Ac0 Ac1 4.058259 1_445
Ac1 Ac2 4.011181 1_555
Ac1 Eu0 4.033670 1_554
Ac1 Eu0 4.033670 1_555
Ac1 Eu1 4.034715 1_565
Ac1 Eu1 4.034741 1_555
Ac1 Ac3 4.049358 1_555
Ac1 Ac3 4.049358 1_554
Ac1 Ac5 4.049443 1_565
Ac1 Ac5 4.049443 1_564
Ac1 Ac2 4.058268 1_655
Ac2 Eu0 4.033686 1_554
Ac2 Eu0 4.033686 1_555
Ac2 Eu1 4.034714 1_565
Ac2 Eu1 4.034760 1_455
Ac2 Ac4 4.049382 1_565
Ac2 Ac4 4.049382 1_564
Ac2 Ac3 4.049405 1_455
Ac2 Ac3 4.049405 1_454
Ac3 Ac5 4.011078 1_555
Ac3 Ac4 4.011129 1_555
Ac3 Eu1 4.033725 1_556
Ac3 Eu1 4.033725 1_555
Ac3 Eu0 4.034701 1_555
Ac3 Eu0 4.034794 1_655
Ac3 Ac4 4.058299 1_665
Ac3 Ac5 4.058332 1_565
Ac4 Ac5 4.011113 1_555
Ac4 Eu1 4.033699 1_555
Ac4 Eu1 4.033699 1_556
Ac4 Eu0 4.034628 1_545
Ac4 Eu0 4.034828 1_555
Ac4 Ac5 4.058336 1_455
Ac5 Eu1 4.033651 1_555
Ac5 Eu1 4.033651 1_556
Ac5 Eu0 4.034685 1_545
Ac5 Eu0 4.034789 1_655
