# generated using pymatgen
data_Rb2PtI5O2
_symmetry_space_group_name_H-M   'P 1'
_cell_length_a   8.00177837
_cell_length_b   8.00177837
_cell_length_c   12.14590600
_cell_angle_alpha   90.00000000
_cell_angle_beta   90.00000000
_cell_angle_gamma   113.90850002
_symmetry_Int_Tables_number   1
_chemical_formula_structural   Rb2PtI5O2
_chemical_formula_sum   'Rb4 Pt2 I10 O4'
_cell_volume   710.95357746
_cell_formula_units_Z   2
loop_
 _symmetry_equiv_pos_site_id
 _symmetry_equiv_pos_as_xyz
  1  'x, y, z'
loop_
 _atom_site_type_symbol
 _atom_site_label
 _atom_site_symmetry_multiplicity
 _atom_site_fract_x
 _atom_site_fract_y
 _atom_site_fract_z
 _atom_site_occupancy
  Rb  Rb0  1  0.46664500  0.91154700  0.26014100  1
  Rb  Rb1  1  0.08845300  0.53335500  0.76014100  1
  Rb  Rb2  1  0.53335500  0.08845300  0.76014100  1
  Rb  Rb3  1  0.91154700  0.46664500  0.26014100  1
  Pt  Pt0  1  0.97074500  0.97074500  0.53133100  1
  Pt  Pt1  1  0.02925500  0.02925500  0.03133100  1
  I  I0  1  0.27540800  0.27540800  0.48296600  1
  I  I1  1  0.67321800  0.67321800  0.59191900  1
  I  I2  1  0.32678200  0.32678200  0.09191900  1
  I  I3  1  0.72459200  0.72459200  0.98296600  1
  I  I4  1  0.15560700  0.76037400  0.50724200  1
  I  I5  1  0.23962600  0.84439300  0.00724200  1
  I  I6  1  0.76037400  0.15560700  0.50724200  1
  I  I7  1  0.84439300  0.23962600  0.00724200  1
  I  I8  1  0.94476200  0.94476200  0.26587900  1
  I  I9  1  0.05523800  0.05523800  0.76587900  1
  O  O0  1  0.46576000  0.25124100  0.18331900  1
  O  O1  1  0.74875900  0.53424000  0.68331900  1
  O  O2  1  0.53424000  0.74875900  0.68331900  1
  O  O3  1  0.25124100  0.46576000  0.18331900  1
loop_
_geom_bond_atom_site_label_1
_geom_bond_atom_site_label_2
_geom_bond_distance
_geom_bond_site_symmetry_2
I0 Pt0 2.722878 1_445
I1 O2 1.838297 1_555
I1 O1 1.838297 1_555
I1 Pt0 2.698751 1_555
I2 O0 1.838297 1_555
I2 O3 1.838297 1_555
I2 Pt1 2.698751 1_555
I3 Pt1 2.722878 1_666
I4 Pt0 2.669394 1_455
I4 Rb1 3.497525 1_555
I4 Rb0 3.771600 1_555
I4 Rb3 3.824285 1_455
I5 Pt1 2.669394 1_565
I5 Rb0 3.497525 1_555
I5 Rb1 3.771600 1_554
I5 Rb2 3.824285 1_564
I6 Pt0 2.669394 1_545
I6 Rb2 3.497525 1_555
I6 Rb3 3.771600 1_555
I6 Rb0 3.824285 1_545
I7 Pt1 2.669394 1_655
I7 Rb3 3.497525 1_555
I7 Rb2 3.771600 1_554
I7 Rb1 3.824285 1_654
I8 Pt1 2.942677 1_665
I8 Pt0 3.232119 1_555
I8 Rb3 3.726654 1_555
I8 Rb0 3.726654 1_555
I9 Pt0 2.942677 1_445
I9 Pt1 3.232119 1_556
I9 Rb1 3.726654 1_555
I9 Rb2 3.726654 1_555
O0 Rb0 2.876569 1_545
O0 Rb3 3.403245 1_555
O1 Rb1 2.876569 1_655
O1 Rb2 3.403245 1_555
O2 Rb2 2.876569 1_565
O2 Rb1 3.403245 1_555
O3 Rb3 2.876569 1_455
O3 Rb0 3.403245 1_555
