# generated using pymatgen
data_Sr2YCu2PbO7
_symmetry_space_group_name_H-M   'P 1'
_cell_length_a   3.82078000
_cell_length_b   3.82078000
_cell_length_c   12.28713400
_cell_angle_alpha   90.00000000
_cell_angle_beta   90.00000000
_cell_angle_gamma   90.00000000
_symmetry_Int_Tables_number   1
_chemical_formula_structural   Sr2YCu2PbO7
_chemical_formula_sum   'Sr2 Y1 Cu2 Pb1 O7'
_cell_volume   179.37200315
_cell_formula_units_Z   1
loop_
 _symmetry_equiv_pos_site_id
 _symmetry_equiv_pos_as_xyz
  1  'x, y, z'
loop_
 _atom_site_type_symbol
 _atom_site_label
 _atom_site_symmetry_multiplicity
 _atom_site_fract_x
 _atom_site_fract_y
 _atom_site_fract_z
 _atom_site_occupancy
  Sr  Sr0  1  0.50000000  0.50000000  0.21319100  1
  Sr  Sr1  1  0.50000000  0.50000000  0.78680900  1
  Y  Y0  1  0.50000000  0.50000000  0.50000000  1
  Cu  Cu0  1  0.00000000  0.00000000  0.36125000  1
  Cu  Cu1  1  0.00000000  0.00000000  0.63875000  1
  Pb  Pb0  1  0.00000000  0.00000000  0.00000000  1
  O  O0  1  0.00000000  0.50000000  0.38106500  1
  O  O1  1  0.00000000  0.50000000  0.61893500  1
  O  O2  1  0.50000000  0.00000000  0.38106500  1
  O  O3  1  0.50000000  0.00000000  0.61893500  1
  O  O4  1  0.00000000  0.00000000  0.18549200  1
  O  O5  1  0.00000000  0.00000000  0.81450800  1
  O  O6  1  0.50000000  0.50000000  0.00000000  1
loop_
_geom_bond_atom_site_label_1
_geom_bond_atom_site_label_2
_geom_bond_distance
_geom_bond_site_symmetry_2
Cu0 O0 1.925842 1_545
Cu0 O0 1.925842 1_555
Cu0 O2 1.925842 1_455
Cu0 O2 1.925842 1_555
Cu0 O4 2.159562 1_555
Cu1 O1 1.925842 1_545
Cu1 O3 1.925842 1_555
Cu1 O1 1.925842 1_555
Cu1 O3 1.925842 1_455
Cu1 O5 2.159562 1_555
O0 Y0 2.405243 1_555
O0 Y0 2.405243 1_455
O0 Sr0 2.811455 1_455
O0 Sr0 2.811455 1_555
O1 Y0 2.405243 1_555
O1 Y0 2.405243 1_455
O1 Sr1 2.811455 1_455
O1 Sr1 2.811455 1_555
O2 Y0 2.405243 1_555
O2 Y0 2.405243 1_545
O2 Sr0 2.811455 1_555
O2 Sr0 2.811455 1_545
O3 Y0 2.405243 1_555
O3 Y0 2.405243 1_545
O3 Sr1 2.811455 1_555
O3 Sr1 2.811455 1_545
O4 Pb0 2.279165 1_555
O4 Sr0 2.723052 1_445
O4 Sr0 2.723052 1_545
O4 Sr0 2.723052 1_455
O4 Sr0 2.723052 1_555
O5 Pb0 2.279165 1_556
O5 Sr1 2.723052 1_555
O5 Sr1 2.723052 1_445
O5 Sr1 2.723052 1_545
O5 Sr1 2.723052 1_455
O6 Sr0 2.619506 1_555
O6 Sr1 2.619506 1_554
O6 Pb0 2.701699 1_555
O6 Pb0 2.701699 1_565
O6 Pb0 2.701699 1_655
O6 Pb0 2.701699 1_665
