# generated using pymatgen
data_CaRhO3
_symmetry_space_group_name_H-M   'P 1'
_cell_length_a   3.11314182
_cell_length_b   5.14215449
_cell_length_c   7.29758608
_cell_angle_alpha   90.00054491
_cell_angle_beta   90.00018984
_cell_angle_gamma   107.61814837
_symmetry_Int_Tables_number   1
_chemical_formula_structural   CaRhO3
_chemical_formula_sum   'Ca2 Rh2 O6'
_cell_volume   111.34209089
_cell_formula_units_Z   2
loop_
 _symmetry_equiv_pos_site_id
 _symmetry_equiv_pos_as_xyz
  1  'x, y, z'
loop_
 _atom_site_type_symbol
 _atom_site_label
 _atom_site_symmetry_multiplicity
 _atom_site_fract_x
 _atom_site_fract_y
 _atom_site_fract_z
 _atom_site_occupancy
  Ca  Ca0  1  0.25012671  0.50028968  0.24998309  1
  Ca  Ca1  1  0.74987329  0.49971032  0.75001691  1
  Rh  Rh0  1  -0.00000000  -0.00000000  0.50000000  1
  Rh  Rh1  1  -0.00000000  -0.00000000  0.00000000  1
  O  O0  1  0.92437053  0.84894583  0.24999634  1
  O  O1  1  0.07562947  0.15105417  0.75000366  1
  O  O2  1  0.62654811  0.25314107  0.44780441  1
  O  O3  1  0.37345189  0.74685893  0.55219559  1
  O  O4  1  0.62655003  0.25314180  0.05219228  1
  O  O5  1  0.37344997  0.74685820  0.94780772  1
loop_
_geom_bond_atom_site_label_1
_geom_bond_atom_site_label_2
_geom_bond_distance
_geom_bond_site_symmetry_2
Ca0 O0 2.311304 1_555
Ca0 O0 2.311570 1_455
Ca0 O4 2.444027 1_555
Ca0 O4 2.444090 1_455
Ca0 O2 2.444167 1_555
Ca0 O2 2.444248 1_455
Ca0 O5 2.514564 1_554
Ca0 O3 2.514780 1_555
Ca1 O1 2.311304 1_555
Ca1 O1 2.311570 1_655
Ca1 O5 2.444027 1_555
Ca1 O5 2.444090 1_655
Ca1 O3 2.444167 1_555
Ca1 O3 2.444248 1_655
Ca1 O4 2.514564 1_556
Ca1 O2 2.514780 1_555
O0 Rh1 1.968861 1_665
O0 Rh0 1.968896 1_665
O1 Rh1 1.968861 1_556
O1 Rh0 1.968896 1_555
O2 Rh0 2.026602 1_555
O2 Rh0 2.026635 1_655
O3 Rh0 2.026602 1_665
O3 Rh0 2.026635 1_565
O4 Rh1 2.026597 1_555
O4 Rh1 2.026626 1_655
O5 Rh1 2.026597 1_666
O5 Rh1 2.026626 1_566
