# generated using pymatgen
data_VTe
_symmetry_space_group_name_H-M   'P 1'
_cell_length_a   4.11593365
_cell_length_b   4.11593365
_cell_length_c   6.04917300
_cell_angle_alpha   90.00000000
_cell_angle_beta   90.00000000
_cell_angle_gamma   119.99999437
_symmetry_Int_Tables_number   1
_chemical_formula_structural   VTe
_chemical_formula_sum   'V2 Te2'
_cell_volume   88.74898437
_cell_formula_units_Z   2
loop_
 _symmetry_equiv_pos_site_id
 _symmetry_equiv_pos_as_xyz
  1  'x, y, z'
loop_
 _atom_site_type_symbol
 _atom_site_label
 _atom_site_symmetry_multiplicity
 _atom_site_fract_x
 _atom_site_fract_y
 _atom_site_fract_z
 _atom_site_occupancy
  V  V0  1  0.00000000  0.00000000  0.00000000  1
  V  V1  1  0.00000000  0.00000000  0.50000000  1
  Te  Te0  1  0.33333300  0.66666700  0.25000000  1
  Te  Te1  1  0.66666700  0.33333300  0.75000000  1
loop_
_geom_bond_atom_site_label_1
_geom_bond_atom_site_label_2
_geom_bond_distance
_geom_bond_site_symmetry_2
Te0 V0 2.816734 1_565
Te0 V1 2.816734 1_565
Te0 V0 2.816737 1_665
Te0 V0 2.816737 1_555
Te0 V1 2.816737 1_665
Te0 V1 2.816737 1_555
Te1 V0 2.816734 1_656
Te1 V1 2.816734 1_655
Te1 V0 2.816737 1_666
Te1 V1 2.816737 1_665
Te1 V0 2.816737 1_556
Te1 V1 2.816737 1_555
