# generated using pymatgen
data_Ho(MoO3)2
_symmetry_space_group_name_H-M   'P 1'
_cell_length_a   7.83367600
_cell_length_b   5.37988100
_cell_length_c   5.63408302
_cell_angle_alpha   89.85112859
_cell_angle_beta   90.00000000
_cell_angle_gamma   90.00000000
_symmetry_Int_Tables_number   1
_chemical_formula_structural   Ho(MoO3)2
_chemical_formula_sum   'Ho2 Mo4 O12'
_cell_volume   237.44337172
_cell_formula_units_Z   2
loop_
 _symmetry_equiv_pos_site_id
 _symmetry_equiv_pos_as_xyz
  1  'x, y, z'
loop_
 _atom_site_type_symbol
 _atom_site_label
 _atom_site_symmetry_multiplicity
 _atom_site_fract_x
 _atom_site_fract_y
 _atom_site_fract_z
 _atom_site_occupancy
  Ho  Ho0  1  0.50000000  0.98266100  0.07568100  1
  Ho  Ho1  1  0.00000000  0.47550300  0.42880500  1
  Mo  Mo0  1  0.24901500  0.99262100  0.50950000  1
  Mo  Mo1  1  0.75098500  0.99262100  0.50950000  1
  Mo  Mo2  1  0.75055800  0.49649900  0.98585000  1
  Mo  Mo3  1  0.24944200  0.49649900  0.98585000  1
  O  O0  1  0.00000000  0.87518300  0.52588800  1
  O  O1  1  0.30700400  0.83184700  0.80159500  1
  O  O2  1  0.69299600  0.83184700  0.80159500  1
  O  O3  1  0.29338000  0.71227100  0.28236300  1
  O  O4  1  0.70662000  0.71227100  0.28236300  1
  O  O5  1  0.00000000  0.57339200  0.03848000  1
  O  O6  1  0.50000000  0.38307200  0.97757400  1
  O  O7  1  0.80785500  0.31722300  0.68707500  1
  O  O8  1  0.19214500  0.31722300  0.68707500  1
  O  O9  1  0.20722700  0.20222300  0.22958500  1
  O  O10  1  0.79277300  0.20222300  0.22958500  1
  O  O11  1  0.50000000  0.07927300  0.46239200  1
loop_
_geom_bond_atom_site_label_1
_geom_bond_atom_site_label_2
_geom_bond_distance
_geom_bond_site_symmetry_2
Ho0 O6 2.222557 1_564
Ho0 O11 2.241214 1_565
Ho0 O2 2.309803 1_554
Ho0 O1 2.309803 1_554
Ho0 O3 2.466389 1_555
Ho0 O4 2.466389 1_555
Ho0 O10 2.722602 1_565
Ho0 O9 2.722602 1_565
Ho1 O0 2.220087 1_555
Ho1 O8 2.258683 1_555
Ho1 O7 2.258683 1_455
Ho1 O5 2.259970 1_555
Ho1 O9 2.462762 1_555
Ho1 O10 2.462762 1_455
Ho1 O4 2.753130 1_455
Ho1 O3 2.753130 1_555
Mo0 O1 1.911904 1_555
Mo0 O9 1.963825 1_565
Mo0 O3 2.010792 1_555
Mo0 O11 2.037844 1_565
Mo0 O0 2.052471 1_555
Mo0 O8 2.063524 1_565
Mo1 O2 1.911904 1_555
Mo1 O10 1.963825 1_565
Mo1 O4 2.010792 1_555
Mo1 O11 2.037844 1_565
Mo1 O0 2.052471 1_655
Mo1 O7 2.063524 1_565
Mo2 O7 1.993415 1_555
Mo2 O5 2.019404 1_656
Mo2 O6 2.056025 1_555
Mo2 O4 2.065648 1_556
Mo2 O10 2.119017 1_556
Mo2 O2 2.127477 1_555
Mo3 O8 1.993415 1_555
Mo3 O5 2.019404 1_556
Mo3 O6 2.056025 1_555
Mo3 O3 2.065648 1_556
Mo3 O9 2.119017 1_556
Mo3 O1 2.127477 1_555
