# generated using pymatgen
data_Ca(CuAs)2
_symmetry_space_group_name_H-M   'P 1'
_cell_length_a   6.09910428
_cell_length_b   6.09910428
_cell_length_c   6.09910428
_cell_angle_alpha   141.01884096
_cell_angle_beta   141.01884096
_cell_angle_gamma   56.30955167
_symmetry_Int_Tables_number   1
_chemical_formula_structural   Ca(CuAs)2
_chemical_formula_sum   'Ca1 Cu2 As2'
_cell_volume   89.07470393
_cell_formula_units_Z   1
loop_
 _symmetry_equiv_pos_site_id
 _symmetry_equiv_pos_as_xyz
  1  'x, y, z'
loop_
 _atom_site_type_symbol
 _atom_site_label
 _atom_site_symmetry_multiplicity
 _atom_site_fract_x
 _atom_site_fract_y
 _atom_site_fract_z
 _atom_site_occupancy
  Ca  Ca0  1  -0.00000000  -0.00000000  0.00000000  1
  Cu  Cu0  1  0.25000000  0.75000000  0.50000000  1
  Cu  Cu1  1  0.75000000  0.25000000  0.50000000  1
  As  As0  1  0.62403432  0.62403432  0.00000000  1
  As  As1  1  0.37596568  0.37596568  -0.00000000  1
loop_
_geom_bond_atom_site_label_1
_geom_bond_atom_site_label_2
_geom_bond_distance
_geom_bond_site_symmetry_2
Ca0 Cu1 3.371993 1_444
Ca0 Cu1 3.371993 1_555
Ca0 Cu0 3.371993 1_545
Ca0 Cu1 3.371993 1_455
Ca0 Cu1 3.371993 1_454
Ca0 Cu0 3.371993 1_544
Ca0 Cu0 3.371993 1_444
Ca0 Cu0 3.371993 1_555
As0 Cu1 2.444681 1_565
As0 Cu0 2.444681 1_554
As0 Cu1 2.444681 1_554
As0 Cu0 2.444681 1_655
As0 As1 2.667946 1_555
As0 Ca0 3.172026 1_565
As0 Ca0 3.172026 1_554
As0 Ca0 3.172026 1_666
As0 Ca0 3.172026 1_655
As1 Cu1 2.444681 1_454
As1 Cu0 2.444681 1_555
As1 Cu0 2.444681 1_544
As1 Cu1 2.444681 1_555
As1 Ca0 3.172026 1_554
As1 Ca0 3.172026 1_565
As1 Ca0 3.172026 1_666
As1 Ca0 3.172026 1_655
