# generated using pymatgen
data_Eu5Si3
_symmetry_space_group_name_H-M   'P 1'
_cell_length_a   7.82552156
_cell_length_b   7.82551404
_cell_length_c   9.27899399
_cell_angle_alpha   114.93048641
_cell_angle_beta   114.93050785
_cell_angle_gamma   89.99684435
_symmetry_Int_Tables_number   1
_chemical_formula_structural   Eu5Si3
_chemical_formula_sum   'Eu10 Si6'
_cell_volume   456.24035895
_cell_formula_units_Z   2
loop_
 _symmetry_equiv_pos_site_id
 _symmetry_equiv_pos_as_xyz
  1  'x, y, z'
loop_
 _atom_site_type_symbol
 _atom_site_label
 _atom_site_symmetry_multiplicity
 _atom_site_fract_x
 _atom_site_fract_y
 _atom_site_fract_z
 _atom_site_occupancy
  Eu  Eu0  1  0.03172615  0.53172775  0.70819483  1
  Eu  Eu1  1  0.67664186  0.17663730  0.70816206  1
  Eu  Eu2  1  0.17663928  0.03166869  0.70817211  1
  Eu  Eu3  1  0.53167103  0.67664464  0.70817337  1
  Eu  Eu4  1  0.96827385  0.46827225  0.29180517  1
  Eu  Eu5  1  0.32335814  0.82336270  0.29183794  1
  Eu  Eu6  1  0.82336072  0.96833131  0.29182789  1
  Eu  Eu7  1  0.46832897  0.32335536  0.29182663  1
  Eu  Eu8  1  0.50000000  0.50000000  0.00000000  1
  Eu  Eu9  1  0.00000000  0.00000000  0.00000000  1
  Si  Si0  1  0.39113723  0.89113805  -0.00000177  1
  Si  Si1  1  0.60886277  0.10886195  0.00000177  1
  Si  Si2  1  0.10884905  0.39115034  0.00000001  1
  Si  Si3  1  0.89115095  0.60884966  -0.00000001  1
  Si  Si4  1  0.25001216  0.24998776  0.50000061  1
  Si  Si5  1  0.74998784  0.75001224  0.49999939  1
loop_
_geom_bond_atom_site_label_1
_geom_bond_atom_site_label_2
_geom_bond_distance
_geom_bond_site_symmetry_2
Eu0 Si3 3.168471 1_456
Eu0 Si2 3.168480 1_556
Eu0 Si0 3.211408 1_556
Eu0 Si5 3.271349 1_455
Eu0 Si4 3.271359 1_555
Eu1 Si2 3.168215 1_656
Eu1 Si3 3.168236 1_556
Eu1 Si1 3.212087 1_556
Eu1 Si5 3.271746 1_545
Eu1 Si4 3.271787 1_555
Eu2 Si1 3.168244 1_556
Eu2 Si0 3.168255 1_546
Eu2 Si2 3.211952 1_556
Eu2 Si4 3.270612 1_555
Eu2 Si5 3.272805 1_445
Eu3 Si1 3.168206 1_566
Eu3 Si0 3.168259 1_556
Eu3 Si3 3.211958 1_556
Eu3 Si5 3.270603 1_555
Eu3 Si4 3.272845 1_555
Eu4 Si2 3.168471 1_655
Eu4 Si3 3.168480 1_555
Eu4 Si1 3.211408 1_555
Eu4 Si4 3.271349 1_655
Eu4 Si5 3.271359 1_555
Eu5 Si3 3.168215 1_455
Eu5 Si2 3.168236 1_555
Eu5 Si0 3.212087 1_555
Eu5 Si4 3.271746 1_565
Eu5 Si5 3.271787 1_555
Eu6 Si0 3.168244 1_555
Eu6 Si1 3.168255 1_565
Eu6 Si3 3.211952 1_555
Eu6 Si5 3.270612 1_555
Eu6 Si4 3.272805 1_665
Eu7 Si0 3.168206 1_545
Eu7 Si1 3.168259 1_555
Eu7 Si2 3.211958 1_555
Eu7 Si4 3.270603 1_555
Eu7 Si5 3.272845 1_555
Eu8 Si1 3.177158 1_555
Eu8 Si0 3.177158 1_555
Eu8 Si3 3.177316 1_555
Eu8 Si2 3.177316 1_555
Eu9 Si0 3.177153 1_545
Eu9 Si1 3.177153 1_455
Eu9 Si2 3.177307 1_555
Eu9 Si3 3.177307 1_445
Si0 Si1 2.409596 1_565
Si2 Si3 2.409195 1_455
