# generated using pymatgen
data_SrMg14Ga
_symmetry_space_group_name_H-M   'P 1'
_cell_length_a   6.50683776
_cell_length_b   6.50683722
_cell_length_c   10.55758487
_cell_angle_alpha   90.00000000
_cell_angle_beta   90.00000000
_cell_angle_gamma   120.00000277
_symmetry_Int_Tables_number   1
_chemical_formula_structural   SrMg14Ga
_chemical_formula_sum   'Sr1 Mg14 Ga1'
_cell_volume   387.11065136
_cell_formula_units_Z   1
loop_
 _symmetry_equiv_pos_site_id
 _symmetry_equiv_pos_as_xyz
  1  'x, y, z'
loop_
 _atom_site_type_symbol
 _atom_site_label
 _atom_site_symmetry_multiplicity
 _atom_site_fract_x
 _atom_site_fract_y
 _atom_site_fract_z
 _atom_site_occupancy
  Sr  Sr0  1  0.16666700  0.33333300  0.12500000  1
  Mg  Mg0  1  0.17972339  0.83986119  0.12500000  1
  Mg  Mg1  1  0.16125195  0.83062547  0.62500000  1
  Mg  Mg2  1  0.66013881  0.32027661  0.12500000  1
  Mg  Mg3  1  0.66937453  0.33874805  0.62500000  1
  Mg  Mg4  1  0.66013881  0.83986119  0.12500000  1
  Mg  Mg5  1  0.66937453  0.83062547  0.62500000  1
  Mg  Mg6  1  0.33486178  0.16513822  0.39029697  1
  Mg  Mg7  1  0.33486178  0.16513822  0.85970303  1
  Mg  Mg8  1  0.33486178  0.66972455  0.39029697  1
  Mg  Mg9  1  0.33486178  0.66972455  0.85970303  1
  Mg  Mg10  1  0.83027545  0.16513822  0.39029697  1
  Mg  Mg11  1  0.83027545  0.16513822  0.85970303  1
  Mg  Mg12  1  0.83333300  0.66666700  0.36816581  1
  Mg  Mg13  1  0.83333300  0.66666700  0.88183419  1
  Ga  Ga0  1  0.16666700  0.33333300  0.62500000  1
loop_
_geom_bond_atom_site_label_1
_geom_bond_atom_site_label_2
_geom_bond_distance
_geom_bond_site_symmetry_2
Mg0 Mg2 3.125985 1_565
Mg0 Mg4 3.125985 1_555
Mg0 Mg12 3.225029 1_455
Mg0 Mg13 3.225029 1_454
Mg0 Sr0 3.254250 1_555
Mg0 Sr0 3.254250 1_565
Mg0 Mg9 3.347702 1_554
Mg0 Mg8 3.347702 1_555
Mg0 Mg7 3.347709 1_564
Mg0 Mg6 3.347709 1_565
Mg0 Mg2 3.380852 1_455
Mg0 Mg4 3.380853 1_455
Mg1 Mg9 3.113663 1_555
Mg1 Mg8 3.113663 1_555
Mg1 Mg6 3.113670 1_565
Mg1 Mg7 3.113670 1_565
Mg1 Mg3 3.200566 1_455
Mg1 Mg5 3.200567 1_455
Mg1 Mg13 3.281319 1_455
Mg1 Mg12 3.281319 1_455
Mg1 Mg3 3.306271 1_565
Mg1 Mg5 3.306271 1_555
Mg2 Mg4 3.125985 1_545
Mg2 Sr0 3.254251 1_655
Mg2 Sr0 3.254251 1_555
Mg2 Mg7 3.347709 1_554
Mg2 Mg6 3.347709 1_555
Mg2 Mg4 3.380852 1_555
Mg3 Mg6 3.113670 1_555
Mg3 Mg7 3.113670 1_555
Mg3 Mg5 3.200566 1_555
Mg3 Mg5 3.306271 1_545
Mg4 Sr0 3.254250 1_555
Mg4 Sr0 3.254250 1_665
Mg4 Mg9 3.347709 1_554
Mg4 Mg8 3.347709 1_555
Mg5 Mg8 3.113670 1_555
Mg5 Mg9 3.113670 1_555
Mg6 Mg8 3.223576 1_545
Mg6 Mg8 3.283261 1_555
Mg6 Sr0 3.382049 1_555
Mg7 Mg9 3.223576 1_545
Mg7 Mg9 3.283261 1_555
Mg7 Sr0 3.382049 1_556
Mg8 Sr0 3.382055 1_555
Mg9 Sr0 3.382055 1_556
Mg10 Mg3 3.113663 1_555
Mg10 Mg5 3.113670 1_545
Mg10 Mg8 3.223576 1_545
Mg10 Mg6 3.223576 1_555
Mg10 Mg12 3.261843 1_545
Mg10 Mg12 3.261843 1_555
Mg10 Mg8 3.283261 1_655
Mg10 Mg6 3.283261 1_655
Mg10 Mg2 3.347702 1_555
Mg10 Mg4 3.347708 1_545
Mg10 Sr0 3.382055 1_655
Mg11 Mg3 3.113663 1_555
Mg11 Mg5 3.113670 1_545
Mg11 Mg9 3.223576 1_545
Mg11 Mg7 3.223576 1_555
Mg11 Mg13 3.261843 1_545
Mg11 Mg13 3.261843 1_555
Mg11 Mg9 3.283261 1_655
Mg11 Mg7 3.283261 1_655
Mg11 Mg2 3.347702 1_556
Mg11 Mg4 3.347708 1_546
Mg11 Sr0 3.382055 1_656
Mg12 Mg4 3.225022 1_555
Mg12 Mg2 3.225028 1_555
Mg12 Mg6 3.261843 1_555
Mg12 Mg6 3.261843 1_665
Mg12 Mg8 3.261844 1_555
Mg12 Mg8 3.261844 1_655
Mg12 Mg5 3.281312 1_555
Mg12 Mg3 3.281319 1_555
Mg13 Mg4 3.225022 1_556
Mg13 Mg2 3.225028 1_556
Mg13 Mg7 3.261843 1_555
Mg13 Mg7 3.261843 1_665
Mg13 Mg9 3.261844 1_555
Mg13 Mg9 3.261844 1_655
Mg13 Mg5 3.281312 1_555
Mg13 Mg3 3.281319 1_555
Ga0 Mg6 3.119810 1_555
Ga0 Mg7 3.119810 1_555
Ga0 Mg8 3.119817 1_555
Ga0 Mg9 3.119817 1_555
Ga0 Mg10 3.119817 1_455
Ga0 Mg11 3.119817 1_455
Ga0 Mg1 3.253562 1_555
Ga0 Mg5 3.253562 1_445
Ga0 Mg5 3.253562 1_555
Ga0 Mg1 3.253562 1_545
Ga0 Mg3 3.253562 1_455
Ga0 Mg3 3.253562 1_555
