# generated using pymatgen
data_KHg3
_symmetry_space_group_name_H-M   'P 1'
_cell_length_a   7.11381718
_cell_length_b   7.11381750
_cell_length_c   5.45666280
_cell_angle_alpha   90.00000000
_cell_angle_beta   90.00000000
_cell_angle_gamma   119.99999849
_symmetry_Int_Tables_number   1
_chemical_formula_structural   KHg3
_chemical_formula_sum   'K2 Hg6'
_cell_volume   239.14602958
_cell_formula_units_Z   2
loop_
 _symmetry_equiv_pos_site_id
 _symmetry_equiv_pos_as_xyz
  1  'x, y, z'
loop_
 _atom_site_type_symbol
 _atom_site_label
 _atom_site_symmetry_multiplicity
 _atom_site_fract_x
 _atom_site_fract_y
 _atom_site_fract_z
 _atom_site_occupancy
  K  K0  1  0.66666700  0.33333300  0.24999900  1
  K  K1  1  0.33333400  0.66666700  0.75000000  1
  Hg  Hg0  1  0.30688443  0.15344222  0.75000000  1
  Hg  Hg1  1  0.84655878  0.69311657  0.75000000  1
  Hg  Hg2  1  0.15344222  0.84655878  0.24999900  1
  Hg  Hg3  1  0.69311657  0.84655878  0.24999900  1
  Hg  Hg4  1  0.15344222  0.30688343  0.24999900  1
  Hg  Hg5  1  0.84655978  0.15344222  0.75000000  1
loop_
_geom_bond_atom_site_label_1
_geom_bond_atom_site_label_2
_geom_bond_distance
_geom_bond_site_symmetry_2
Hg0 Hg5 3.274665 1_455
Hg0 Hg1 3.274673 1_445
Hg0 Hg4 3.319375 1_556
Hg0 Hg2 3.319375 1_546
Hg0 Hg4 3.319384 1_555
Hg0 Hg2 3.319384 1_545
Hg0 K0 3.515219 1_556
Hg0 K0 3.515227 1_555
Hg0 K1 3.560639 1_555
Hg0 K1 3.560639 1_545
Hg1 Hg5 3.274669 1_565
Hg1 Hg2 3.319375 1_656
Hg1 Hg3 3.319378 1_556
Hg1 Hg2 3.319384 1_655
Hg1 Hg3 3.319387 1_555
Hg1 K0 3.515223 1_556
Hg1 K0 3.515231 1_555
Hg1 K1 3.560639 1_555
Hg1 K1 3.560639 1_655
Hg2 Hg4 3.274666 1_565
Hg2 Hg3 3.274673 1_455
Hg2 K1 3.515223 1_554
Hg2 K1 3.515231 1_555
Hg2 K0 3.560636 1_565
Hg2 K0 3.560643 1_455
Hg3 Hg4 3.274669 1_665
Hg3 Hg5 3.319375 1_564
Hg3 Hg5 3.319384 1_565
Hg3 K1 3.515219 1_554
Hg3 K1 3.515227 1_555
Hg3 K0 3.560632 1_565
Hg3 K0 3.560646 1_555
Hg4 Hg5 3.319371 1_454
Hg4 Hg5 3.319380 1_455
Hg4 K1 3.515223 1_554
Hg4 K1 3.515231 1_555
Hg4 K0 3.560639 1_555
Hg4 K0 3.560639 1_455
Hg5 K0 3.515223 1_556
Hg5 K0 3.515231 1_555
Hg5 K1 3.560636 1_655
Hg5 K1 3.560643 1_545
