# generated using pymatgen
data_In2O3
_symmetry_space_group_name_H-M   'P 1'
_cell_length_a   5.52743787
_cell_length_b   5.62034609
_cell_length_c   7.98776810
_cell_angle_alpha   90.00000000
_cell_angle_beta   90.00000000
_cell_angle_gamma   90.00000000
_symmetry_Int_Tables_number   1
_chemical_formula_structural   In2O3
_chemical_formula_sum   'In8 O12'
_cell_volume   248.14891297
_cell_formula_units_Z   4
loop_
 _symmetry_equiv_pos_site_id
 _symmetry_equiv_pos_as_xyz
  1  'x, y, z'
loop_
 _atom_site_type_symbol
 _atom_site_label
 _atom_site_symmetry_multiplicity
 _atom_site_fract_x
 _atom_site_fract_y
 _atom_site_fract_z
 _atom_site_occupancy
  In  In0  1  0.24753148  0.52860933  0.11473048  1
  In  In1  1  0.25246852  0.02860933  0.38526952  1
  In  In2  1  0.25246852  0.47139067  0.61473048  1
  In  In3  1  0.24753148  0.97139067  0.88526952  1
  In  In4  1  0.75246852  0.47139067  0.88526952  1
  In  In5  1  0.74753148  0.97139067  0.61473048  1
  In  In6  1  0.74753148  0.52860933  0.38526952  1
  In  In7  1  0.75246852  0.02860933  0.11473048  1
  O  O0  1  0.39015222  0.60452195  0.84939410  1
  O  O1  1  0.10984778  0.10452195  0.65060590  1
  O  O2  1  0.10984778  0.39547805  0.34939410  1
  O  O3  1  0.39015222  0.89547805  0.15060590  1
  O  O4  1  0.60984778  0.39547805  0.15060590  1
  O  O5  1  0.89015222  0.89547805  0.34939410  1
  O  O6  1  0.89015222  0.60452195  0.65060590  1
  O  O7  1  0.60984778  0.10452195  0.84939410  1
  O  O8  1  0.95736921  0.75000000  -0.00000000  1
  O  O9  1  0.54263079  0.25000000  0.50000000  1
  O  O10  1  0.04263079  0.25000000  -0.00000000  1
  O  O11  1  0.45736921  0.75000000  0.50000000  1
loop_
_geom_bond_atom_site_label_1
_geom_bond_atom_site_label_2
_geom_bond_distance
_geom_bond_site_symmetry_2
In0 O10 2.138825 1_555
In0 O2 2.156981 1_555
In0 O4 2.157016 1_555
In0 O3 2.226012 1_555
In0 O8 2.227212 1_455
In0 O0 2.301205 1_554
In1 O11 2.138825 1_545
In1 O3 2.156981 1_545
In1 O5 2.157016 1_445
In1 O2 2.226012 1_555
In1 O9 2.227212 1_555
In1 O1 2.301205 1_555
In2 O11 2.138825 1_555
In2 O0 2.156981 1_555
In2 O6 2.157016 1_455
In2 O1 2.226012 1_555
In2 O9 2.227212 1_555
In2 O2 2.301205 1_555
In3 O10 2.138825 1_566
In3 O1 2.156981 1_565
In3 O7 2.157016 1_565
In3 O0 2.226012 1_555
In3 O8 2.227212 1_456
In3 O3 2.301205 1_556
In4 O8 2.138825 1_556
In4 O6 2.156981 1_555
In4 O0 2.157016 1_555
In4 O7 2.226012 1_555
In4 O10 2.227212 1_656
In4 O4 2.301205 1_556
In5 O9 2.138825 1_565
In5 O7 2.156981 1_565
In5 O1 2.157016 1_665
In5 O6 2.226012 1_555
In5 O11 2.227212 1_555
In5 O5 2.301205 1_555
In6 O9 2.138825 1_555
In6 O4 2.156981 1_555
In6 O2 2.157016 1_655
In6 O5 2.226012 1_555
In6 O11 2.227212 1_555
In6 O6 2.301205 1_555
In7 O8 2.138825 1_545
In7 O5 2.156981 1_545
In7 O3 2.157016 1_545
In7 O4 2.226012 1_555
In7 O10 2.227212 1_655
In7 O7 2.301205 1_554
