# generated using pymatgen
data_Mg15Mo
_symmetry_space_group_name_H-M   'P 1'
_cell_length_a   6.31275594
_cell_length_b   6.31275594
_cell_length_c   10.08324400
_cell_angle_alpha   90.00000000
_cell_angle_beta   90.00000000
_cell_angle_gamma   119.99999942
_symmetry_Int_Tables_number   1
_chemical_formula_structural   Mg15Mo
_chemical_formula_sum   'Mg15 Mo1'
_cell_volume   347.99171945
_cell_formula_units_Z   1
loop_
 _symmetry_equiv_pos_site_id
 _symmetry_equiv_pos_as_xyz
  1  'x, y, z'
loop_
 _atom_site_type_symbol
 _atom_site_label
 _atom_site_symmetry_multiplicity
 _atom_site_fract_x
 _atom_site_fract_y
 _atom_site_fract_z
 _atom_site_occupancy
  Mg  Mg0  1  0.00000000  0.00000000  0.00000000  1
  Mg  Mg1  1  0.99978800  0.49989400  0.50000000  1
  Mg  Mg2  1  0.00176900  0.50088400  0.00000000  1
  Mg  Mg3  1  0.50010600  0.49989400  0.50000000  1
  Mg  Mg4  1  0.49911600  0.50088400  0.00000000  1
  Mg  Mg5  1  0.50010600  0.00021200  0.50000000  1
  Mg  Mg6  1  0.49911600  0.99823100  0.00000000  1
  Mg  Mg7  1  0.16047900  0.32095700  0.26018400  1
  Mg  Mg8  1  0.16047900  0.32095700  0.73981600  1
  Mg  Mg9  1  0.16047900  0.83952100  0.26018400  1
  Mg  Mg10  1  0.16047900  0.83952100  0.73981600  1
  Mg  Mg11  1  0.67904300  0.83952100  0.26018400  1
  Mg  Mg12  1  0.67904300  0.83952100  0.73981600  1
  Mg  Mg13  1  0.66666700  0.33333300  0.24907800  1
  Mg  Mg14  1  0.66666700  0.33333300  0.75092200  1
  Mo  Mo0  1  0.00000000  0.00000000  0.50000000  1
loop_
_geom_bond_atom_site_label_1
_geom_bond_atom_site_label_2
_geom_bond_distance
_geom_bond_site_symmetry_2
Mg0 Mg7 3.156205 1_555
Mg0 Mg11 3.156205 1_445
Mg0 Mg8 3.156205 1_554
Mg0 Mg12 3.156205 1_444
Mg0 Mg9 3.156208 1_545
Mg0 Mg10 3.156208 1_544
Mg0 Mg2 3.156390 1_555
Mg0 Mg6 3.156390 1_445
Mg0 Mg4 3.156393 1_555
Mg0 Mg4 3.156393 1_445
Mg0 Mg2 3.156396 1_545
Mg0 Mg6 3.156396 1_545
Mg1 Mg10 3.049284 1_655
Mg1 Mg9 3.049284 1_655
Mg1 Mg8 3.049287 1_655
Mg1 Mg7 3.049287 1_655
Mg1 Mg13 3.117390 1_555
Mg1 Mg14 3.117390 1_555
Mg1 Mg3 3.154371 1_555
Mg1 Mg5 3.154371 1_555
Mg1 Mo0 3.156378 1_655
Mg1 Mo0 3.156378 1_665
Mg1 Mg3 3.158385 1_655
Mg1 Mg5 3.158385 1_665
Mg2 Mg4 3.139630 1_555
Mg2 Mg6 3.139630 1_555
Mg2 Mg4 3.173126 1_455
Mg2 Mg6 3.173126 1_445
Mg2 Mg7 3.211644 1_555
Mg2 Mg8 3.211644 1_554
Mg2 Mg9 3.211644 1_555
Mg3 Mg8 3.049284 1_555
Mg3 Mg7 3.049284 1_555
Mg3 Mg5 3.154371 1_555
Mg3 Mo0 3.156378 1_555
Mg3 Mo0 3.156378 1_665
Mg3 Mg5 3.158385 1_565
Mg4 Mg6 3.139630 1_555
Mg4 Mg6 3.173126 1_545
Mg4 Mg7 3.211644 1_555
Mg4 Mg8 3.211644 1_554
Mg5 Mg9 3.049284 1_545
Mg5 Mo0 3.156378 1_655
Mg5 Mo0 3.156378 1_555
Mg6 Mg9 3.211644 1_555
Mg7 Mo0 2.987675 1_555
Mg8 Mo0 2.987675 1_555
Mg9 Mo0 2.987678 1_565
Mg10 Mo0 2.987678 1_565
Mg10 Mg5 3.049284 1_565
Mg10 Mg14 3.159089 1_455
Mg10 Mg14 3.159089 1_565
Mg10 Mg2 3.211644 1_556
Mg10 Mg6 3.211644 1_556
Mg11 Mo0 2.987675 1_665
Mg11 Mg3 3.049284 1_555
Mg11 Mg5 3.049287 1_565
Mg11 Mg13 3.159089 1_565
Mg11 Mg13 3.159089 1_555
Mg11 Mg6 3.211644 1_555
Mg11 Mg4 3.211644 1_555
Mg12 Mo0 2.987675 1_665
Mg12 Mg3 3.049284 1_555
Mg12 Mg5 3.049287 1_565
Mg12 Mg14 3.159089 1_565
Mg12 Mg14 3.159089 1_555
Mg12 Mg6 3.211644 1_556
Mg12 Mg4 3.211644 1_556
Mg13 Mg4 3.108689 1_555
Mg13 Mg2 3.108689 1_655
Mg13 Mg6 3.108689 1_545
Mg13 Mg5 3.117390 1_555
Mg13 Mg3 3.117394 1_555
Mg13 Mg7 3.159089 1_655
Mg13 Mg7 3.159089 1_555
Mg13 Mg9 3.159089 1_655
Mg13 Mg9 3.159089 1_545
Mg14 Mg4 3.108689 1_556
Mg14 Mg2 3.108689 1_656
Mg14 Mg6 3.108689 1_546
Mg14 Mg5 3.117390 1_555
Mg14 Mg3 3.117394 1_555
Mg14 Mg8 3.159089 1_655
Mg14 Mg8 3.159089 1_555
