# generated using pymatgen
data_NaInH6(SeO4)2
_symmetry_space_group_name_H-M   'P 1'
_cell_length_a   7.16557287
_cell_length_b   7.16822540
_cell_length_c   11.95825899
_cell_angle_alpha   85.90340743
_cell_angle_beta   87.84734493
_cell_angle_gamma   111.85856221
_symmetry_Int_Tables_number   1
_chemical_formula_structural   NaInH6(SeO4)2
_chemical_formula_sum   'Na2 In2 H12 Se4 O16'
_cell_volume   567.24594856
_cell_formula_units_Z   2
loop_
 _symmetry_equiv_pos_site_id
 _symmetry_equiv_pos_as_xyz
  1  'x, y, z'
loop_
 _atom_site_type_symbol
 _atom_site_label
 _atom_site_symmetry_multiplicity
 _atom_site_fract_x
 _atom_site_fract_y
 _atom_site_fract_z
 _atom_site_occupancy
  Na  Na0  1  0.41089500  0.08771700  0.25301200  1
  Na  Na1  1  0.58910500  0.91228300  0.74698800  1
  In  In0  1  0.00000000  0.50000000  0.00000000  1
  In  In1  1  0.00000000  0.50000000  0.50000000  1
  H  H0  1  0.33123000  0.30528800  0.97791900  1
  H  H1  1  0.66877000  0.69471200  0.02208100  1
  H  H2  1  0.84980600  0.28364100  0.07950200  1
  H  H3  1  0.15019400  0.71635900  0.92049800  1
  H  H4  1  0.14335200  0.46348900  0.60385800  1
  H  H5  1  0.85664800  0.53651100  0.39614200  1
  H  H6  1  0.19694200  0.17007100  0.51395500  1
  H  H7  1  0.80305800  0.82992900  0.48604500  1
  H  H8  1  0.03418500  0.35630500  0.89987000  1
  H  H9  1  0.96581500  0.64369500  0.10013000  1
  H  H10  1  0.21695100  0.65229900  0.42392700  1
  H  H11  1  0.78304900  0.34770100  0.57607300  1
  Se  Se0  1  0.43129500  0.59123000  0.16869600  1
  Se  Se1  1  0.56870500  0.40877000  0.83130400  1
  Se  Se2  1  0.90800900  0.06841900  0.33688300  1
  Se  Se3  1  0.09199100  0.93158100  0.66311700  1
  O  O0  1  0.51706500  0.45132600  0.25065800  1
  O  O1  1  0.48293500  0.54867400  0.74934200  1
  O  O2  1  0.32827800  0.73182900  0.22895300  1
  O  O3  1  0.67172200  0.26817100  0.77104700  1
  O  O4  1  0.76974600  0.17204100  0.26895800  1
  O  O5  1  0.23025400  0.82795900  0.73104200  1
  O  O6  1  0.27978900  0.44505100  0.07776700  1
  O  O7  1  0.72021100  0.55494900  0.92223300  1
  O  O8  1  0.04783600  0.97858600  0.26312700  1
  O  O9  1  0.95216400  0.02141400  0.73687300  1
  O  O10  1  0.05603700  0.22650700  0.42419400  1
  O  O11  1  0.94396300  0.77349300  0.57580600  1
  O  O12  1  0.63281600  0.77172300  0.08097400  1
  O  O13  1  0.36718400  0.22827700  0.91902600  1
  O  O14  1  0.27428300  0.12739700  0.57386700  1
  O  O15  1  0.72571700  0.87260300  0.42613300  1
loop_
_geom_bond_atom_site_label_1
_geom_bond_atom_site_label_2
_geom_bond_distance
_geom_bond_site_symmetry_2
Na0 O8 2.417013 1_545
Na0 O0 2.425784 1_555
Na0 O4 2.430972 1_555
Na0 O2 2.436054 1_545
Na1 O9 2.417013 1_565
Na1 O1 2.425784 1_555
Na1 O5 2.430972 1_555
Na1 O3 2.436054 1_565
In0 O6 2.390636 1_555
In0 O7 2.390636 1_454
In1 O11 2.374686 1_455
In1 O10 2.374686 1_555
H0 O13 1.007428 1_555
H0 O6 1.725707 1_556
H1 O12 1.007428 1_555
H1 O7 1.725707 1_554
H2 In0 1.713769 1_655
H3 In0 1.713769 1_556
H4 In1 1.707538 1_555
H5 In1 1.707538 1_655
H6 O14 1.019187 1_555
H6 O10 1.630571 1_555
H7 O15 1.019187 1_555
H7 O11 1.630571 1_555
H8 In0 1.701988 1_556
H9 In0 1.701988 1_655
H10 In1 1.710033 1_555
H11 In1 1.710033 1_655
O0 Se0 1.645560 1_555
O1 Se1 1.645560 1_555
O2 Se0 1.642455 1_555
O3 Se1 1.642455 1_555
O4 Se2 1.647813 1_555
O5 Se3 1.647813 1_555
O6 Se0 1.692129 1_555
O7 Se1 1.692129 1_555
O8 Se2 1.640625 1_465
O9 Se3 1.640625 1_645
O10 Se2 1.690140 1_455
O11 Se3 1.690140 1_655
O12 Se0 1.777819 1_555
O13 Se1 1.777819 1_555
O14 Se3 1.769604 1_545
O15 Se2 1.769604 1_565
