# generated using pymatgen
data_EuO3
_symmetry_space_group_name_H-M   'P 1'
_cell_length_a   3.53725000
_cell_length_b   7.11652884
_cell_length_c   7.11652884
_cell_angle_alpha   120.00000777
_cell_angle_beta   90.00000000
_cell_angle_gamma   90.00000000
_symmetry_Int_Tables_number   1
_chemical_formula_structural   EuO3
_chemical_formula_sum   'Eu2 O6'
_cell_volume   155.14321244
_cell_formula_units_Z   2
loop_
 _symmetry_equiv_pos_site_id
 _symmetry_equiv_pos_as_xyz
  1  'x, y, z'
loop_
 _atom_site_type_symbol
 _atom_site_label
 _atom_site_symmetry_multiplicity
 _atom_site_fract_x
 _atom_site_fract_y
 _atom_site_fract_z
 _atom_site_occupancy
  Eu  Eu0  1  0.75000000  0.33333300  0.66666700  1
  Eu  Eu1  1  0.25000000  0.66666700  0.33333300  1
  O  O0  1  0.75000000  0.96556900  0.51590600  1
  O  O1  1  0.25000000  0.03443100  0.48409400  1
  O  O2  1  0.75000000  0.55033700  0.03443100  1
  O  O3  1  0.25000000  0.44966300  0.96556900  1
  O  O4  1  0.75000000  0.48409400  0.44966300  1
  O  O5  1  0.25000000  0.51590600  0.55033700  1
loop_
_geom_bond_atom_site_label_1
_geom_bond_atom_site_label_2
_geom_bond_distance
_geom_bond_site_symmetry_2
Eu0 O0 2.278787 1_545
Eu0 O2 2.278788 1_556
Eu0 O4 2.278794 1_555
Eu0 O3 2.564595 1_655
Eu0 O3 2.564595 1_555
Eu0 O1 2.564596 1_555
Eu0 O1 2.564596 1_655
Eu0 O5 2.564600 1_555
Eu0 O5 2.564600 1_655
Eu1 O1 2.278787 1_565
Eu1 O3 2.278788 1_554
Eu1 O5 2.278794 1_555
Eu1 O2 2.564595 1_455
Eu1 O2 2.564595 1_555
Eu1 O0 2.564596 1_455
Eu1 O0 2.564596 1_555
Eu1 O4 2.564600 1_555
Eu1 O4 2.564600 1_455
O0 O1 1.878933 1_565
O0 O1 1.878933 1_665
O2 O3 1.878933 1_554
O2 O3 1.878933 1_654
O4 O5 1.878933 1_555
O4 O5 1.878933 1_655
