# generated using pymatgen
data_Y3TaO7
_symmetry_space_group_name_H-M   'P 1'
_cell_length_a   8.16658381
_cell_length_b   8.16658381
_cell_length_c   5.37517900
_cell_angle_alpha   90.00000000
_cell_angle_beta   90.00000000
_cell_angle_gamma   125.50806050
_symmetry_Int_Tables_number   1
_chemical_formula_structural   Y3TaO7
_chemical_formula_sum   'Y6 Ta2 O14'
_cell_volume   291.82078700
_cell_formula_units_Z   2
loop_
 _symmetry_equiv_pos_site_id
 _symmetry_equiv_pos_as_xyz
  1  'x, y, z'
loop_
 _atom_site_type_symbol
 _atom_site_label
 _atom_site_symmetry_multiplicity
 _atom_site_fract_x
 _atom_site_fract_y
 _atom_site_fract_z
 _atom_site_occupancy
  Y  Y0  1  0.38073500  0.61926500  0.97158900  1
  Y  Y1  1  0.88073500  0.11926500  0.02841100  1
  Y  Y2  1  0.00000000  0.50000000  0.50000000  1
  Y  Y3  1  0.11926500  0.88073500  0.97158900  1
  Y  Y4  1  0.50000000  0.00000000  0.50000000  1
  Y  Y5  1  0.61926500  0.38073500  0.02841100  1
  Ta  Ta0  1  0.25000000  0.25000000  0.50000000  1
  Ta  Ta1  1  0.75000000  0.75000000  0.50000000  1
  O  O0  1  0.59971700  0.83836600  0.26443100  1
  O  O1  1  0.16163400  0.40028300  0.26443100  1
  O  O2  1  0.09971700  0.33836600  0.73556900  1
  O  O3  1  0.25000000  0.75000000  0.74344000  1
  O  O4  1  0.66163400  0.90028300  0.73556900  1
  O  O5  1  0.33836600  0.09971700  0.26443100  1
  O  O6  1  0.75000000  0.25000000  0.25656000  1
  O  O7  1  0.48824000  0.51176000  0.71158100  1
  O  O8  1  0.83836600  0.59971700  0.73556900  1
  O  O9  1  0.90028300  0.66163400  0.26443100  1
  O  O10  1  0.98824000  0.01176000  0.28841900  1
  O  O11  1  0.01176000  0.98824000  0.71158100  1
  O  O12  1  0.40028300  0.16163400  0.73556900  1
  O  O13  1  0.51176000  0.48824000  0.28841900  1
loop_
_geom_bond_atom_site_label_1
_geom_bond_atom_site_label_2
_geom_bond_distance
_geom_bond_site_symmetry_2
O0 Ta1 2.158518 1_555
O0 Y0 2.271649 1_554
O0 Y4 2.292938 1_565
O0 Y1 2.454206 1_565
O1 Ta0 2.158518 1_555
O1 Y0 2.271649 1_554
O1 Y2 2.292938 1_555
O1 Y1 2.454206 1_455
O2 Ta0 2.158518 1_555
O2 Y1 2.271649 1_456
O2 Y2 2.292938 1_555
O2 Y0 2.454206 1_555
O3 Y0 2.260054 1_555
O3 Y3 2.260054 1_555
O3 Y4 2.281848 1_565
O3 Y2 2.281848 1_555
O4 Ta1 2.158518 1_555
O4 Y1 2.271649 1_566
O4 Y4 2.292938 1_565
O4 Y0 2.454206 1_555
O5 Ta0 2.158518 1_555
O5 Y3 2.271649 1_544
O5 Y4 2.292938 1_555
O5 Y5 2.454206 1_555
O6 Y1 2.260054 1_555
O6 Y5 2.260054 1_555
O6 Y4 2.281848 1_555
O6 Y2 2.281848 1_655
O7 Y0 2.095286 1_555
O7 Ta1 2.194801 1_555
O7 Ta0 2.194801 1_555
O7 Y5 2.553469 1_556
O8 Ta1 2.158518 1_555
O8 Y5 2.271649 1_556
O8 Y2 2.292938 1_655
O8 Y3 2.454206 1_655
O9 Ta1 2.158518 1_555
O9 Y3 2.271649 1_654
O9 Y2 2.292938 1_655
O9 Y5 2.454206 1_555
O10 Y1 2.095286 1_555
O10 Ta1 2.194801 1_545
O10 Ta0 2.194801 1_655
O10 Y3 2.553469 1_644
O11 Y3 2.095286 1_555
O11 Ta0 2.194801 1_565
O11 Ta1 2.194801 1_455
O11 Y1 2.553469 1_466
O12 Ta0 2.158518 1_555
O12 Y5 2.271649 1_556
O12 Y4 2.292938 1_555
O12 Y3 2.454206 1_545
O13 Y5 2.095286 1_555
O13 Ta1 2.194801 1_555
O13 Ta0 2.194801 1_555
O13 Y0 2.553469 1_554
