# generated using pymatgen
data_Dy3B7Mo
_symmetry_space_group_name_H-M   'P 1'
_cell_length_a   8.17218177
_cell_length_b   8.17218177
_cell_length_c   9.46247596
_cell_angle_alpha   90.00000000
_cell_angle_beta   90.00000000
_cell_angle_gamma   155.48278243
_symmetry_Int_Tables_number   1
_chemical_formula_structural   Dy3B7Mo
_chemical_formula_sum   'Dy6 B14 Mo2'
_cell_volume   262.23704381
_cell_formula_units_Z   2
loop_
 _symmetry_equiv_pos_site_id
 _symmetry_equiv_pos_as_xyz
  1  'x, y, z'
loop_
 _atom_site_type_symbol
 _atom_site_label
 _atom_site_symmetry_multiplicity
 _atom_site_fract_x
 _atom_site_fract_y
 _atom_site_fract_z
 _atom_site_occupancy
  Dy  Dy0  1  0.25677309  0.74322691  0.25000000  1
  Dy  Dy1  1  0.74322691  0.25677309  0.75000000  1
  Dy  Dy2  1  0.60650645  0.39349355  0.06025978  1
  Dy  Dy3  1  0.39349355  0.60650645  0.93974022  1
  Dy  Dy4  1  0.39349355  0.60650645  0.56025978  1
  Dy  Dy5  1  0.60650645  0.39349355  0.43974022  1
  B  B0  1  0.98023396  0.01976604  0.09233169  1
  B  B1  1  0.01976604  0.98023396  0.90766831  1
  B  B2  1  0.01976604  0.98023396  0.59233169  1
  B  B3  1  0.98023396  0.01976604  0.40766831  1
  B  B4  1  0.77255990  0.22744010  0.03335144  1
  B  B5  1  0.22744010  0.77255990  0.96664856  1
  B  B6  1  0.22744010  0.77255990  0.53335144  1
  B  B7  1  0.77255990  0.22744010  0.46664856  1
  B  B8  1  0.86541093  0.13458907  0.14737006  1
  B  B9  1  0.13458907  0.86541093  0.85262994  1
  B  B10  1  0.13458907  0.86541093  0.64737006  1
  B  B11  1  0.86541093  0.13458907  0.35262994  1
  B  B12  1  0.04364070  0.95635930  0.25000000  1
  B  B13  1  0.95635930  0.04364070  0.75000000  1
  Mo  Mo0  1  0.44630404  0.55369596  0.25000000  1
  Mo  Mo1  1  0.55369596  0.44630404  0.75000000  1
loop_
_geom_bond_atom_site_label_1
_geom_bond_atom_site_label_2
_geom_bond_distance
_geom_bond_site_symmetry_2
B0 B12 1.803178 1_645
B0 B1 1.857948 1_644
B0 B8 1.906434 1_555
B0 Mo0 2.351659 1_545
B0 Mo0 2.351659 1_655
B0 Dy3 2.648565 1_654
B0 Dy3 2.648565 1_544
B0 Dy2 2.677739 1_655
B0 Dy2 2.677739 1_545
B1 B13 1.803178 1_465
B1 B9 1.906434 1_555
B1 Mo1 2.351659 1_565
B1 Mo1 2.351659 1_455
B1 Dy2 2.648565 1_566
B1 Dy2 2.648565 1_456
B1 Dy3 2.677739 1_565
B1 Dy3 2.677739 1_455
B2 B3 1.857948 1_465
B2 Mo1 2.351659 1_565
B2 Mo1 2.351659 1_455
B2 Dy5 2.648565 1_565
B2 Dy5 2.648565 1_455
B2 Dy4 2.677739 1_565
B2 Dy4 2.677739 1_455
B3 Mo0 2.351659 1_545
B3 Mo0 2.351659 1_655
B3 Dy4 2.648565 1_655
B3 Dy4 2.648565 1_545
B3 Dy5 2.677739 1_655
B3 Dy5 2.677739 1_545
B4 B8 1.833924 1_555
B4 B5 1.982035 1_544
B4 B5 1.982035 1_654
B4 Dy2 2.664350 1_555
B4 Dy0 2.697585 1_655
B4 Dy0 2.697585 1_545
B4 Dy1 2.721830 1_554
B4 Dy3 2.743382 1_544
B4 Dy3 2.743382 1_654
B5 B9 1.833924 1_555
B5 Dy3 2.664350 1_555
B5 Dy1 2.697585 1_565
B5 Dy1 2.697585 1_455
B5 Dy0 2.721830 1_556
B5 Dy2 2.743382 1_456
B5 Dy2 2.743382 1_566
B6 B7 1.982035 1_455
B6 B7 1.982035 1_565
B6 Dy4 2.664350 1_555
B6 Dy1 2.697585 1_565
B6 Dy1 2.697585 1_455
B6 Dy0 2.721830 1_555
B6 Dy5 2.743382 1_455
B6 Dy5 2.743382 1_565
B7 Dy5 2.664350 1_555
B7 Dy0 2.697585 1_655
B7 Dy0 2.697585 1_545
B7 Dy1 2.721830 1_555
B7 Dy4 2.743382 1_545
B7 Dy4 2.743382 1_655
B8 Mo0 2.371313 1_545
B8 Mo0 2.371313 1_655
B8 Dy0 2.639042 1_655
B8 Dy0 2.639042 1_545
B8 Dy3 2.659314 1_544
B8 Dy3 2.659314 1_654
B9 Mo1 2.371313 1_455
B9 Mo1 2.371313 1_565
B9 Dy1 2.639042 1_565
B9 Dy1 2.639042 1_455
B9 Dy2 2.659314 1_456
B9 Dy2 2.659314 1_566
B10 B6 1.833924 1_555
B10 B2 1.906434 1_555
B10 B9 1.942267 1_555
B10 Mo1 2.371313 1_455
B10 Mo1 2.371313 1_565
B10 Dy1 2.639042 1_565
B10 Dy1 2.639042 1_455
B10 Dy5 2.659314 1_455
B10 Dy5 2.659314 1_565
B11 B7 1.833924 1_555
B11 B3 1.906434 1_555
B11 B8 1.942267 1_555
B11 Mo0 2.371313 1_545
B11 Mo0 2.371313 1_655
B11 Dy0 2.639042 1_655
B11 Dy0 2.639042 1_545
B11 Dy4 2.659314 1_655
B11 Dy4 2.659314 1_545
B12 B3 1.803178 1_465
B12 Mo0 2.329730 1_565
B12 Mo0 2.329730 1_455
B12 Dy5 2.691176 1_455
B12 Dy2 2.691176 1_455
B12 Dy2 2.691176 1_565
B12 Dy5 2.691176 1_565
B13 B2 1.803178 1_645
B13 Mo1 2.329730 1_655
B13 Mo1 2.329730 1_545
B13 Dy3 2.691176 1_655
B13 Dy4 2.691176 1_655
B13 Dy3 2.691176 1_545
B13 Dy4 2.691176 1_545
