# generated using pymatgen
data_Mn3(Co2Ge3)2
_symmetry_space_group_name_H-M   'P 1'
_cell_length_a   5.05611704
_cell_length_b   5.05611704
_cell_length_c   7.85442100
_cell_angle_alpha   90.00000000
_cell_angle_beta   90.00000000
_cell_angle_gamma   119.52463941
_symmetry_Int_Tables_number   1
_chemical_formula_structural   Mn3(Co2Ge3)2
_chemical_formula_sum   'Mn3 Co4 Ge6'
_cell_volume   174.71873228
_cell_formula_units_Z   1
loop_
 _symmetry_equiv_pos_site_id
 _symmetry_equiv_pos_as_xyz
  1  'x, y, z'
loop_
 _atom_site_type_symbol
 _atom_site_label
 _atom_site_symmetry_multiplicity
 _atom_site_fract_x
 _atom_site_fract_y
 _atom_site_fract_z
 _atom_site_occupancy
  Mn  Mn0  1  0.00000000  0.00000000  0.00131200  1
  Mn  Mn1  1  0.00000000  0.50000000  0.24884300  1
  Mn  Mn2  1  0.50000000  0.00000000  0.24884300  1
  Co  Co0  1  0.50000000  0.50000000  0.24883600  1
  Co  Co1  1  0.00000000  0.50000000  0.74991300  1
  Co  Co2  1  0.50000000  0.00000000  0.74991300  1
  Co  Co3  1  0.50000000  0.50000000  0.74954300  1
  Ge  Ge0  1  0.33456200  0.66543800  0.99261100  1
  Ge  Ge1  1  0.66543800  0.33456200  0.99261100  1
  Ge  Ge2  1  0.00000000  0.00000000  0.33314500  1
  Ge  Ge3  1  0.00000000  0.00000000  0.66969300  1
  Ge  Ge4  1  0.33454500  0.66545500  0.50733000  1
  Ge  Ge5  1  0.66545500  0.33454500  0.50733000  1
loop_
_geom_bond_atom_site_label_1
_geom_bond_atom_site_label_2
_geom_bond_distance
_geom_bond_site_symmetry_2
Co0 Ge1 2.477729 1_554
Co0 Ge0 2.477729 1_554
Co0 Ge4 2.492312 1_555
Co0 Ge5 2.492312 1_555
Co0 Mn2 2.528059 1_565
Co0 Mn1 2.528059 1_655
Co0 Mn1 2.528059 1_555
Co0 Mn2 2.528059 1_555
Co0 Ge2 2.630902 1_555
Co0 Ge2 2.630902 1_665
Co1 Ge5 2.407633 1_455
Co1 Ge4 2.407633 1_555
Co1 Ge0 2.408394 1_555
Co1 Ge1 2.408394 1_455
Co1 Ge3 2.605395 1_555
Co1 Ge3 2.605395 1_565
Co2 Ge4 2.407633 1_545
Co2 Ge5 2.407633 1_555
Co2 Ge1 2.408394 1_555
Co2 Ge0 2.408394 1_545
Co2 Ge3 2.605395 1_555
Co2 Ge3 2.605395 1_655
Co3 Ge5 2.389290 1_555
Co3 Ge4 2.389290 1_555
Co3 Ge1 2.394551 1_555
Co3 Ge0 2.394551 1_555
Co3 Ge3 2.622306 1_665
Co3 Ge3 2.622306 1_555
Ge0 Mn1 2.493378 1_556
Ge0 Mn2 2.493378 1_566
Ge0 Mn0 2.923667 1_566
Ge0 Mn0 2.928617 1_556
Ge0 Mn0 2.928617 1_666
Ge1 Mn2 2.493378 1_556
Ge1 Mn1 2.493378 1_656
Ge1 Mn0 2.923667 1_656
Ge1 Mn0 2.928617 1_556
Ge1 Mn0 2.928617 1_666
Ge2 Mn0 2.606356 1_555
Ge2 Mn2 2.613334 1_455
Ge2 Mn1 2.613334 1_545
Ge2 Mn2 2.613334 1_555
Ge2 Mn1 2.613334 1_555
Ge2 Ge3 2.643390 1_555
Ge3 Mn0 2.604675 1_556
Ge4 Mn1 2.507653 1_555
Ge4 Mn2 2.507653 1_565
Ge5 Mn2 2.507653 1_555
Ge5 Mn1 2.507653 1_655
