# generated using pymatgen
data_Yb(Ga2Cu)4
_symmetry_space_group_name_H-M   'P 1'
_cell_length_a   10.01036174
_cell_length_b   10.01036174
_cell_length_c   10.01036174
_cell_angle_alpha   126.42774212
_cell_angle_beta   126.42774212
_cell_angle_gamma   79.18624778
_symmetry_Int_Tables_number   1
_chemical_formula_structural   Yb(Ga2Cu)4
_chemical_formula_sum   'Yb3 Ga24 Cu12'
_cell_volume   627.96193479
_cell_formula_units_Z   3
loop_
 _symmetry_equiv_pos_site_id
 _symmetry_equiv_pos_as_xyz
  1  'x, y, z'
loop_
 _atom_site_type_symbol
 _atom_site_label
 _atom_site_symmetry_multiplicity
 _atom_site_fract_x
 _atom_site_fract_y
 _atom_site_fract_z
 _atom_site_occupancy
  Yb  Yb0  1  0.00000000  0.00000000  0.00000000  1
  Yb  Yb1  1  0.34085400  0.34085400  0.00000000  1
  Yb  Yb2  1  0.65914600  0.65914600  0.00000000  1
  Ga  Ga0  1  0.34361700  0.99671600  0.65309900  1
  Ga  Ga1  1  0.34361700  0.69051800  0.34690100  1
  Ga  Ga2  1  0.99671600  0.34361700  0.65309900  1
  Ga  Ga3  1  0.69051800  0.34361700  0.34690100  1
  Ga  Ga4  1  0.65638300  0.00328400  0.34690100  1
  Ga  Ga5  1  0.65638300  0.30948200  0.65309900  1
  Ga  Ga6  1  0.00328400  0.65638300  0.34690100  1
  Ga  Ga7  1  0.30948200  0.65638300  0.65309900  1
  Ga  Ga8  1  0.05284100  0.84013300  0.21270800  1
  Ga  Ga9  1  0.62742500  0.84013300  0.78729200  1
  Ga  Ga10  1  0.84013300  0.62742500  0.78729200  1
  Ga  Ga11  1  0.84013300  0.05284100  0.21270800  1
  Ga  Ga12  1  0.94715900  0.15986700  0.78729200  1
  Ga  Ga13  1  0.37257500  0.15986700  0.21270800  1
  Ga  Ga14  1  0.15986700  0.37257500  0.21270800  1
  Ga  Ga15  1  0.15986700  0.94715900  0.78729200  1
  Ga  Ga16  1  0.00000000  0.00000000  0.50000000  1
  Ga  Ga17  1  0.50000000  0.50000000  0.50000000  1
  Ga  Ga18  1  0.00000000  0.50000000  0.00000000  1
  Ga  Ga19  1  0.50000000  0.00000000  0.00000000  1
  Ga  Ga20  1  0.00000000  0.34949400  0.34949400  1
  Ga  Ga21  1  0.00000000  0.65050600  0.65050600  1
  Ga  Ga22  1  0.34949400  0.00000000  0.34949400  1
  Ga  Ga23  1  0.65050600  0.00000000  0.65050600  1
  Cu  Cu0  1  0.28701900  0.50000000  0.78701900  1
  Cu  Cu1  1  0.71298100  0.50000000  0.21298100  1
  Cu  Cu2  1  0.50000000  0.71298100  0.21298100  1
  Cu  Cu3  1  0.50000000  0.28701900  0.78701900  1
  Cu  Cu4  1  0.17302600  0.17302600  0.50690900  1
  Cu  Cu5  1  0.66611700  0.66611700  0.49309100  1
  Cu  Cu6  1  0.17302600  0.66611700  0.00000000  1
  Cu  Cu7  1  0.66611700  0.17302600  0.00000000  1
  Cu  Cu8  1  0.82697400  0.82697400  0.49309100  1
  Cu  Cu9  1  0.33388300  0.33388300  0.50690900  1
  Cu  Cu10  1  0.82697400  0.33388300  0.00000000  1
  Cu  Cu11  1  0.33388300  0.82697400  0.00000000  1
loop_
_geom_bond_atom_site_label_1
_geom_bond_atom_site_label_2
_geom_bond_distance
_geom_bond_site_symmetry_2
Ga0 Ga1 2.762692 1_555
Ga0 Ga16 2.817502 1_565
Ga0 Ga19 2.817502 1_566
Ga0 Ga8 2.937694 1_555
Ga0 Ga9 2.937694 1_555
Ga0 Ga15 3.082586 1_555
Ga0 Ga22 3.094023 1_565
Ga0 Ga23 3.094023 1_565
Ga0 Yb1 3.130228 1_566
Ga1 Ga17 2.817502 1_555
Ga1 Ga18 2.817502 1_555
Ga1 Ga9 2.937694 1_555
Ga1 Ga8 2.937694 1_555
Ga1 Ga14 3.082586 1_555
Ga1 Ga23 3.094023 1_565
Ga1 Ga22 3.094023 1_565
Ga1 Yb1 3.130228 1_555
Ga2 Ga3 2.762692 1_555
Ga2 Ga20 3.094023 1_655
Ga2 Ga21 3.094023 1_655
Ga2 Yb1 3.130228 1_656
Ga3 Yb1 3.130228 1_555
Ga4 Ga5 2.762692 1_555
Ga4 Yb2 3.130228 1_545
Ga5 Yb2 3.130228 1_556
Ga6 Ga7 2.762692 1_555
Ga6 Ga8 3.082586 1_555
Ga6 Yb2 3.130228 1_455
Ga7 Ga9 3.082586 1_555
Ga7 Yb2 3.130228 1_556
Ga8 Yb0 3.125109 1_565
Ga8 Yb2 3.388177 1_455
Ga9 Yb0 3.125109 1_666
Ga9 Yb2 3.388177 1_556
Ga10 Ga17 2.671098 1_555
Ga10 Ga18 2.671098 1_656
Ga10 Ga9 2.714120 1_555
Ga10 Ga8 2.714120 1_656
Ga10 Ga21 2.757940 1_655
Ga10 Ga3 2.937694 1_555
Ga10 Ga2 2.937694 1_555
Ga10 Ga5 3.082586 1_555
Ga10 Yb0 3.125109 1_666
Ga10 Yb2 3.388177 1_556
Ga11 Ga16 2.671098 1_655
Ga11 Ga19 2.671098 1_555
Ga11 Ga8 2.714120 1_645
Ga11 Ga9 2.714120 1_544
Ga11 Ga20 2.757940 1_655
Ga11 Ga2 2.937694 1_555
Ga11 Ga3 2.937694 1_555
Ga11 Ga4 3.082586 1_555
Ga11 Yb0 3.125109 1_655
Ga11 Yb2 3.388177 1_545
Ga12 Ga18 2.671098 1_656
Ga12 Ga16 2.671098 1_655
Ga12 Ga15 2.714120 1_645
Ga12 Ga14 2.714120 1_656
Ga12 Ga23 2.757940 1_555
Ga12 Ga4 2.937694 1_555
Ga12 Ga5 2.937694 1_555
Ga12 Ga2 3.082586 1_555
Ga12 Yb0 3.125109 1_656
Ga12 Yb1 3.388177 1_656
Ga13 Ga17 2.671098 1_555
Ga13 Ga19 2.671098 1_555
Ga13 Ga14 2.714120 1_555
Ga13 Ga15 2.714120 1_544
Ga13 Ga22 2.757940 1_555
Ga13 Ga5 2.937694 1_555
Ga13 Ga4 2.937694 1_555
Ga13 Ga3 3.082586 1_555
Ga13 Yb0 3.125109 1_555
Ga13 Yb1 3.388177 1_555
Ga14 Ga18 2.671098 1_555
Ga14 Ga17 2.671098 1_555
Ga14 Ga20 2.757940 1_555
Ga14 Ga7 2.937694 1_555
Ga14 Ga6 2.937694 1_555
Ga14 Yb0 3.125109 1_555
Ga14 Yb1 3.388177 1_555
Ga15 Ga16 2.671098 1_565
Ga15 Ga19 2.671098 1_566
Ga15 Ga21 2.757940 1_555
Ga15 Ga6 2.937694 1_555
Ga15 Ga7 2.937694 1_555
Ga15 Yb0 3.125109 1_566
Ga15 Yb1 3.388177 1_566
Ga16 Ga8 2.671098 1_545
Ga16 Ga4 2.817502 1_455
Ga16 Ga6 2.817502 1_545
Ga16 Ga2 2.817502 1_455
Ga16 Yb1 3.484327 1_556
Ga16 Yb2 3.484327 1_445
Ga17 Ga9 2.671098 1_555
Ga17 Ga3 2.817502 1_555
Ga17 Ga7 2.817502 1_555
Ga17 Ga5 2.817502 1_555
Ga17 Yb1 3.484327 1_555
Ga17 Yb2 3.484327 1_556
Ga18 Ga8 2.671098 1_555
Ga18 Ga5 2.817502 1_454
Ga18 Ga2 2.817502 1_454
Ga18 Ga6 2.817502 1_555
Ga18 Yb1 3.484327 1_555
Ga18 Yb2 3.484327 1_455
Ga19 Ga9 2.671098 1_544
Ga19 Ga4 2.817502 1_555
Ga19 Ga3 2.817502 1_555
Ga19 Ga7 2.817502 1_544
Ga19 Yb1 3.484327 1_555
Ga19 Yb2 3.484327 1_545
Ga20 Ga21 2.715901 1_555
Ga20 Ga6 3.094023 1_555
Ga20 Ga7 3.094023 1_555
Ga20 Ga3 3.094023 1_455
Ga20 Yb0 3.153333 1_555
Ga21 Ga3 3.094023 1_455
Ga21 Ga7 3.094023 1_555
Ga21 Ga6 3.094023 1_555
Ga21 Yb0 3.153333 1_566
Ga22 Ga23 2.715901 1_555
Ga22 Ga8 2.757940 1_545
Ga22 Ga5 3.094023 1_555
Ga22 Ga4 3.094023 1_555
Ga22 Yb0 3.153333 1_555
Ga23 Ga9 2.757940 1_545
Ga23 Ga4 3.094023 1_555
Ga23 Ga5 3.094023 1_555
Ga23 Yb0 3.153333 1_656
Cu0 Cu9 2.565084 1_555
Cu0 Cu11 2.565084 1_556
Cu0 Cu4 2.565084 1_555
Cu0 Cu6 2.565084 1_556
Cu0 Ga2 2.698301 1_455
Cu0 Ga7 2.698301 1_555
Cu0 Cu3 2.717603 1_555
Cu0 Cu2 2.717603 1_556
Cu0 Ga21 2.924091 1_555
Cu0 Ga20 2.924091 1_555
Cu0 Yb1 3.117855 1_556
Cu0 Yb2 3.117855 1_556
Cu1 Cu7 2.565084 1_555
Cu1 Cu8 2.565084 1_555
Cu1 Cu10 2.565084 1_555
Cu1 Cu5 2.565084 1_555
Cu1 Ga3 2.698301 1_555
Cu1 Ga6 2.698301 1_655
Cu1 Cu3 2.717603 1_554
Cu1 Cu2 2.717603 1_555
Cu1 Ga21 2.924091 1_655
Cu1 Ga20 2.924091 1_655
Cu1 Yb1 3.117855 1_555
Cu1 Yb2 3.117855 1_555
Cu2 Cu8 2.565084 1_555
Cu2 Cu6 2.565084 1_555
Cu2 Cu5 2.565084 1_555
Cu2 Ga1 2.698301 1_555
Cu2 Ga4 2.698301 1_565
Cu2 Ga22 2.924091 1_565
Cu2 Ga23 2.924091 1_565
Cu2 Yb1 3.117855 1_555
Cu2 Yb2 3.117855 1_555
Cu3 Cu9 2.565084 1_555
Cu3 Cu4 2.565084 1_555
Cu3 Cu7 2.565084 1_556
Cu3 Ga0 2.698301 1_545
Cu3 Ga5 2.698301 1_555
Cu3 Ga23 2.924091 1_555
Cu3 Ga22 2.924091 1_555
Cu3 Yb1 3.117855 1_556
Cu3 Yb2 3.117855 1_556
Cu4 Cu9 2.481664 1_555
Cu4 Ga16 2.616480 1_555
Cu4 Ga8 2.620430 1_545
Cu4 Ga11 2.620430 1_455
Cu4 Ga2 2.672318 1_455
Cu4 Ga0 2.672318 1_545
Cu4 Ga20 2.742267 1_555
Cu4 Ga22 2.742267 1_555
Cu4 Yb1 3.372153 1_556
Cu4 Yb0 3.463909 1_555
Cu5 Cu8 2.481664 1_555
Cu5 Ga17 2.616480 1_555
Cu5 Ga9 2.620430 1_555
Cu5 Ga10 2.620430 1_555
Cu5 Ga3 2.672318 1_555
Cu5 Ga1 2.672318 1_555
Cu5 Ga23 2.742267 1_565
Cu5 Ga21 2.742267 1_655
Cu5 Yb1 3.372153 1_555
Cu5 Yb0 3.463909 1_666
Cu6 Ga18 2.616480 1_555
Cu6 Ga10 2.620430 1_454
Cu6 Ga8 2.620430 1_555
Cu6 Ga2 2.672318 1_454
Cu6 Ga1 2.672318 1_555
Cu6 Ga21 2.742267 1_554
Cu6 Ga22 2.742267 1_565
Cu6 Yb1 3.372153 1_555
Cu6 Yb0 3.463909 1_565
Cu7 Ga19 2.616480 1_555
Cu7 Ga9 2.620430 1_544
Cu7 Ga11 2.620430 1_555
Cu7 Ga0 2.672318 1_544
Cu7 Ga3 2.672318 1_555
Cu7 Ga23 2.742267 1_554
Cu7 Ga20 2.742267 1_655
Cu7 Yb1 3.372153 1_555
Cu7 Yb0 3.463909 1_655
Cu8 Ga16 2.616480 1_665
Cu8 Ga15 2.620430 1_655
Cu8 Ga12 2.620430 1_565
Cu8 Ga6 2.672318 1_655
Cu8 Ga4 2.672318 1_565
Cu8 Ga21 2.742267 1_655
Cu8 Ga23 2.742267 1_565
Cu8 Yb2 3.372153 1_555
Cu8 Yb0 3.463909 1_666
Cu9 Ga17 2.616480 1_555
Cu9 Ga14 2.620430 1_555
Cu9 Ga13 2.620430 1_555
Cu9 Ga5 2.672318 1_555
Cu9 Ga7 2.672318 1_555
Cu9 Ga22 2.742267 1_555
Cu9 Ga20 2.742267 1_555
Cu9 Yb2 3.372153 1_556
Cu9 Yb0 3.463909 1_555
Cu10 Cu7 2.481664 1_555
Cu10 Cu3 2.565084 1_554
Cu10 Ga18 2.616480 1_655
Cu10 Ga12 2.620430 1_554
Cu10 Ga14 2.620430 1_655
Cu10 Ga5 2.672318 1_554
Cu10 Ga6 2.672318 1_655
Cu10 Ga20 2.742267 1_655
Cu10 Ga23 2.742267 1_554
Cu10 Yb2 3.372153 1_555
Cu10 Yb0 3.463909 1_655
Cu11 Cu6 2.481664 1_555
Cu11 Cu2 2.565084 1_555
Cu11 Ga19 2.616480 1_565
Cu11 Ga15 2.620430 1_554
Cu11 Ga13 2.620430 1_565
Cu11 Ga4 2.672318 1_565
Cu11 Ga7 2.672318 1_554
Cu11 Ga21 2.742267 1_554
Cu11 Ga22 2.742267 1_565
Cu11 Yb2 3.372153 1_555
Cu11 Yb0 3.463909 1_565
