# generated using pymatgen
data_Ba2CoO4
_symmetry_space_group_name_H-M   'P 1'
_cell_length_a   7.66566952
_cell_length_b   5.99310287
_cell_length_c   11.81548141
_cell_angle_alpha   61.96993419
_cell_angle_beta   90.00000000
_cell_angle_gamma   90.00000000
_symmetry_Int_Tables_number   1
_chemical_formula_structural   Ba2CoO4
_chemical_formula_sum   'Ba8 Co4 O16'
_cell_volume   479.14495708
_cell_formula_units_Z   4
loop_
 _symmetry_equiv_pos_site_id
 _symmetry_equiv_pos_as_xyz
  1  'x, y, z'
loop_
 _atom_site_type_symbol
 _atom_site_label
 _atom_site_symmetry_multiplicity
 _atom_site_fract_x
 _atom_site_fract_y
 _atom_site_fract_z
 _atom_site_occupancy
  Ba  Ba0  1  0.00457334  0.95651934  0.31023906  1
  Ba  Ba1  1  0.50457334  0.04348066  0.18976094  1
  Ba  Ba2  1  0.99542666  0.04348066  0.68976094  1
  Ba  Ba3  1  0.49542666  0.95651934  0.81023906  1
  Ba  Ba4  1  0.64963727  0.32164215  0.41871441  1
  Ba  Ba5  1  0.14963727  0.67835785  0.08128559  1
  Ba  Ba6  1  0.35036273  0.67835785  0.58128559  1
  Ba  Ba7  1  0.85036273  0.32164215  0.91871441  1
  Co  Co0  1  0.22442520  0.33610735  0.41840400  1
  Co  Co1  1  0.72442520  0.66389265  0.08159600  1
  Co  Co2  1  0.77557480  0.66389265  0.58159600  1
  Co  Co3  1  0.27557480  0.33610735  0.91840400  1
  O  O0  1  0.31805003  0.22950667  0.57627092  1
  O  O1  1  0.81805003  0.77049333  0.92372908  1
  O  O2  1  0.68194997  0.77049333  0.42372908  1
  O  O3  1  0.18194997  0.22950667  0.07627092  1
  O  O4  1  0.32599115  0.13825849  0.36072575  1
  O  O5  1  0.82599115  0.86174151  0.13927425  1
  O  O6  1  0.67400885  0.86174151  0.63927425  1
  O  O7  1  0.17400885  0.13825849  0.86072575  1
  O  O8  1  0.28452180  0.65889317  0.32210012  1
  O  O9  1  0.78452180  0.34110683  0.17789988  1
  O  O10  1  0.71547820  0.34110683  0.67789988  1
  O  O11  1  0.21547820  0.65889317  0.82210012  1
  O  O12  1  0.50602472  0.30151600  0.92249950  1
  O  O13  1  0.00602472  0.69848400  0.57750050  1
  O  O14  1  0.49397528  0.69848400  0.07750050  1
  O  O15  1  0.99397528  0.30151600  0.42249950  1
loop_
_geom_bond_atom_site_label_1
_geom_bond_atom_site_label_2
_geom_bond_distance
_geom_bond_site_symmetry_2
Ba0 O9 2.686182 1_465
Ba0 O5 2.712122 1_455
Ba0 O8 2.751650 1_555
Ba0 O2 2.784299 1_455
Ba0 O13 2.788135 1_555
Ba0 O3 2.813683 1_565
Ba0 O4 2.867670 1_565
Ba0 O15 2.935732 1_465
Ba1 O8 2.686182 1_545
Ba1 O4 2.712122 1_555
Ba1 O9 2.751650 1_555
Ba1 O3 2.784299 1_555
Ba1 O12 2.788135 1_554
Ba1 O2 2.813683 1_545
Ba1 O5 2.867670 1_545
Ba1 O14 2.935732 1_545
Ba2 O11 2.686182 1_645
Ba2 O7 2.712122 1_655
Ba2 O10 2.751650 1_555
Ba2 O0 2.784299 1_655
Ba2 O15 2.788135 1_555
Ba2 O1 2.813683 1_545
Ba2 O6 2.867670 1_545
Ba2 O13 2.935732 1_645
Ba3 O10 2.686182 1_565
Ba3 O6 2.712122 1_555
Ba3 O11 2.751650 1_555
Ba3 O1 2.784299 1_555
Ba3 O14 2.788135 1_556
Ba3 O0 2.813683 1_565
Ba3 O7 2.867670 1_565
Ba3 O12 2.935732 1_565
Ba4 O15 2.641755 1_555
Ba4 O2 2.729620 1_555
Ba4 O6 2.769868 1_545
Ba4 O4 2.922372 1_555
Ba4 O9 2.977704 1_555
Ba4 O0 3.043894 1_555
Ba4 O10 3.159494 1_555
Ba4 O2 3.285017 1_545
Ba4 O8 3.324658 1_555
Ba5 O14 2.641755 1_555
Ba5 O3 2.729620 1_555
Ba5 O7 2.769868 1_564
Ba5 O5 2.922372 1_455
Ba5 O8 2.977704 1_555
Ba5 O1 3.043894 1_454
Ba5 O11 3.159494 1_554
Ba5 O3 3.285017 1_565
Ba5 O9 3.324658 1_455
Ba6 O13 2.641755 1_555
Ba6 O0 2.729620 1_555
Ba6 O4 2.769868 1_565
Ba6 O6 2.922372 1_555
Ba6 O11 2.977704 1_555
Ba6 O2 3.043894 1_555
Ba6 O8 3.159494 1_555
Ba6 O0 3.285017 1_565
Ba6 O10 3.324658 1_555
Ba7 O12 2.641755 1_555
Ba7 O1 2.729620 1_555
Ba7 O5 2.769868 1_546
Ba7 O7 2.922372 1_655
Ba7 O10 2.977704 1_555
Ba7 O3 3.043894 1_656
Ba7 O9 3.159494 1_556
Ba7 O1 3.285017 1_545
Ba7 O11 3.324658 1_655
Co0 O15 1.776682 1_455
Co0 O8 1.783364 1_555
Co0 O4 1.798900 1_555
Co0 O0 1.811761 1_555
Co1 O14 1.776682 1_555
Co1 O9 1.783364 1_555
Co1 O5 1.798900 1_555
Co1 O1 1.811761 1_554
Co2 O13 1.776682 1_655
Co2 O10 1.783364 1_555
Co2 O6 1.798900 1_555
Co2 O2 1.811761 1_555
Co3 O12 1.776682 1_555
Co3 O11 1.783364 1_555
Co3 O7 1.798900 1_555
Co3 O3 1.811761 1_556
