# generated using pymatgen
data_CeZnPd
_symmetry_space_group_name_H-M   'P 1'
_cell_length_a   7.38708372
_cell_length_b   7.38716190
_cell_length_c   3.99348703
_cell_angle_alpha   89.99203849
_cell_angle_beta   89.99564787
_cell_angle_gamma   119.99583884
_symmetry_Int_Tables_number   1
_chemical_formula_structural   CeZnPd
_chemical_formula_sum   'Ce3 Zn3 Pd3'
_cell_volume   188.73469641
_cell_formula_units_Z   3
loop_
 _symmetry_equiv_pos_site_id
 _symmetry_equiv_pos_as_xyz
  1  'x, y, z'
loop_
 _atom_site_type_symbol
 _atom_site_label
 _atom_site_symmetry_multiplicity
 _atom_site_fract_x
 _atom_site_fract_y
 _atom_site_fract_z
 _atom_site_occupancy
  Ce  Ce0  1  -0.00048048  0.41125988  -0.00006298  1
  Ce  Ce1  1  0.58871862  0.58820195  0.00008246  1
  Ce  Ce2  1  0.41183247  0.00046312  -0.00000844  1
  Zn  Zn0  1  -0.00010868  0.76225002  0.50002966  1
  Zn  Zn1  1  0.23763204  0.23780429  0.49998476  1
  Zn  Zn2  1  0.76235127  -0.00008681  0.50000702  1
  Pd  Pd0  1  -0.00010685  0.00011642  0.00000192  1
  Pd  Pd1  1  0.66695147  0.33360121  0.49997420  1
  Pd  Pd2  1  0.33320914  0.66639092  0.49999141  1
loop_
_geom_bond_atom_site_label_1
_geom_bond_atom_site_label_2
_geom_bond_distance
_geom_bond_site_symmetry_2
Ce0 Pd1 2.990293 1_455
Ce0 Pd1 2.990451 1_454
Ce0 Pd2 2.994564 1_554
Ce0 Pd2 2.995452 1_555
Ce0 Pd0 3.038564 1_555
Ce0 Zn0 3.271036 1_554
Ce0 Zn0 3.271928 1_555
Ce0 Zn2 3.311477 1_455
Ce0 Zn2 3.311809 1_454
Ce0 Zn1 3.312963 1_554
Ce0 Zn1 3.313139 1_555
Ce1 Pd1 2.990398 1_555
Ce1 Pd1 2.991266 1_554
Ce1 Pd2 2.995245 1_555
Ce1 Pd2 2.995814 1_554
Ce1 Pd0 3.040325 1_665
Ce1 Zn1 3.270660 1_555
Ce1 Zn1 3.271816 1_554
Ce1 Zn0 3.310612 1_654
Ce1 Zn0 3.310852 1_655
Ce1 Zn2 3.313722 1_564
Ce1 Zn2 3.313985 1_565
Ce2 Pd1 2.992651 1_554
Ce2 Pd1 2.993206 1_555
Ce2 Pd2 2.996646 1_545
Ce2 Pd2 2.997162 1_544
Ce2 Pd0 3.041751 1_555
Ce2 Zn2 3.271242 1_554
Ce2 Zn2 3.271557 1_555
Ce2 Zn1 3.312450 1_554
Ce2 Zn1 3.312593 1_555
Ce2 Zn0 3.314844 1_545
Ce2 Zn0 3.315234 1_544
Pd0 Zn2 2.657634 1_455
Pd0 Zn2 2.657804 1_454
Pd0 Zn1 2.658898 1_554
Pd0 Zn1 2.659362 1_555
Pd0 Zn0 2.659705 1_545
Pd0 Zn0 2.659905 1_544
Pd1 Zn0 2.879019 1_655
Pd1 Zn2 2.882679 1_555
Pd1 Zn1 2.883516 1_555
Pd2 Zn1 2.878755 1_555
Pd2 Zn0 2.882267 1_555
Pd2 Zn2 2.882766 1_565
