# generated using pymatgen
data_Y3Mg(PO4)3
_symmetry_space_group_name_H-M   'P 1'
_cell_length_a   6.29530200
_cell_length_b   7.02893762
_cell_length_c   7.02893762
_cell_angle_alpha   119.48033109
_cell_angle_beta   90.00000000
_cell_angle_gamma   90.00000000
_symmetry_Int_Tables_number   1
_chemical_formula_structural   Y3Mg(PO4)3
_chemical_formula_sum   'Y3 Mg1 P3 O12'
_cell_volume   270.75534505
_cell_formula_units_Z   1
loop_
 _symmetry_equiv_pos_site_id
 _symmetry_equiv_pos_as_xyz
  1  'x, y, z'
loop_
 _atom_site_type_symbol
 _atom_site_label
 _atom_site_symmetry_multiplicity
 _atom_site_fract_x
 _atom_site_fract_y
 _atom_site_fract_z
 _atom_site_occupancy
  Y  Y0  1  0.33144800  0.00000000  0.50000000  1
  Y  Y1  1  0.66855200  0.50000000  0.00000000  1
  Y  Y2  1  0.00000000  0.50000000  0.50000000  1
  Mg  Mg0  1  0.50000000  0.00000000  0.00000000  1
  P  P0  1  0.83485700  0.00000000  0.50000000  1
  P  P1  1  0.16514200  0.50000000  0.00000000  1
  P  P2  1  0.50000000  0.50000000  0.50000000  1
  O  O0  1  0.68244700  0.85612800  0.30978500  1
  O  O1  1  0.01248500  0.44316900  0.13851500  1
  O  O2  1  0.34661600  0.69163300  0.55119700  1
  O  O3  1  0.68244700  0.14387200  0.69021500  1
  O  O4  1  0.01248500  0.55683100  0.86148600  1
  O  O5  1  0.34661600  0.30836700  0.44880300  1
  O  O6  1  0.65338400  0.55119700  0.69163300  1
  O  O7  1  0.31755300  0.30978500  0.85612800  1
  O  O8  1  0.98751500  0.13851500  0.44316900  1
  O  O9  1  0.65338400  0.44880300  0.30836700  1
  O  O10  1  0.31755300  0.69021500  0.14387200  1
  O  O11  1  0.98751500  0.86148600  0.55683100  1
loop_
_geom_bond_atom_site_label_1
_geom_bond_atom_site_label_2
_geom_bond_distance
_geom_bond_site_symmetry_2
O0 P0 1.549211 1_565
O0 Y1 2.377021 1_555
O0 Y0 2.522302 1_565
O1 P1 1.553657 1_555
O1 Y2 2.371225 1_555
O1 Y1 2.485601 1_455
O2 P2 1.548915 1_555
O2 Y0 2.367351 1_565
O2 Y2 2.495618 1_555
O3 P0 1.549211 1_555
O3 Y1 2.377021 1_556
O3 Y0 2.522302 1_555
O4 P1 1.553652 1_556
O4 Y2 2.371232 1_555
O4 Y1 2.485598 1_456
O5 P2 1.548915 1_555
O5 Y0 2.367351 1_555
O5 Y2 2.495618 1_555
O6 P2 1.548915 1_555
O6 Y1 2.367351 1_556
O6 Y2 2.495618 1_655
O7 P1 1.549215 1_556
O7 Y0 2.377021 1_555
O7 Y1 2.522302 1_556
O8 P0 1.553661 1_555
O8 Y2 2.371225 1_655
O8 Y0 2.485601 1_655
O9 P2 1.548915 1_555
O9 Y1 2.367351 1_555
O9 Y2 2.495618 1_655
O10 P1 1.549215 1_555
O10 Y0 2.377021 1_565
O10 Y1 2.522302 1_555
O11 P0 1.553656 1_565
O11 Y2 2.371232 1_655
O11 Y0 2.485598 1_665
