# generated using pymatgen
data_ErB2
_symmetry_space_group_name_H-M   'P 1'
_cell_length_a   3.27024362
_cell_length_b   3.27024319
_cell_length_c   3.79096629
_cell_angle_alpha   90.00000000
_cell_angle_beta   90.00000000
_cell_angle_gamma   120.00000439
_symmetry_Int_Tables_number   1
_chemical_formula_structural   ErB2
_chemical_formula_sum   'Er1 B2'
_cell_volume   35.11079730
_cell_formula_units_Z   1
loop_
 _symmetry_equiv_pos_site_id
 _symmetry_equiv_pos_as_xyz
  1  'x, y, z'
loop_
 _atom_site_type_symbol
 _atom_site_label
 _atom_site_symmetry_multiplicity
 _atom_site_fract_x
 _atom_site_fract_y
 _atom_site_fract_z
 _atom_site_occupancy
  Er  Er0  1  0.00000000  -0.00000000  -0.00000000  1
  B  B0  1  0.33333300  0.66666700  0.50000000  1
  B  B1  1  0.66666700  0.33333300  0.50000000  1
loop_
_geom_bond_atom_site_label_1
_geom_bond_atom_site_label_2
_geom_bond_distance
_geom_bond_site_symmetry_2
B0 B1 1.888074 1_565
B0 B1 1.888074 1_455
B0 B1 1.888080 1_555
B0 Er0 2.675384 1_565
B0 Er0 2.675384 1_566
B0 Er0 2.675386 1_556
B0 Er0 2.675386 1_555
B0 Er0 2.675386 1_665
B0 Er0 2.675386 1_666
B1 Er0 2.675384 1_656
B1 Er0 2.675384 1_655
B1 Er0 2.675386 1_665
B1 Er0 2.675386 1_666
B1 Er0 2.675386 1_556
B1 Er0 2.675386 1_555
