# generated using pymatgen
data_Mg(AlB14)2
_symmetry_space_group_name_H-M   'P 1'
_cell_length_a   7.10921889
_cell_length_b   7.10921889
_cell_length_c   5.88898695
_cell_angle_alpha   65.77602726
_cell_angle_beta   65.77602726
_cell_angle_gamma   91.46156173
_symmetry_Int_Tables_number   1
_chemical_formula_structural   Mg(AlB14)2
_chemical_formula_sum   'Mg1 Al2 B28'
_cell_volume   240.70976965
_cell_formula_units_Z   1
loop_
 _symmetry_equiv_pos_site_id
 _symmetry_equiv_pos_as_xyz
  1  'x, y, z'
loop_
 _atom_site_type_symbol
 _atom_site_label
 _atom_site_symmetry_multiplicity
 _atom_site_fract_x
 _atom_site_fract_y
 _atom_site_fract_z
 _atom_site_occupancy
  Mg  Mg0  1  0.88740900  0.88740900  0.36467700  1
  Al  Al0  1  0.50170000  0.50170000  0.50090100  1
  Al  Al1  1  0.13268900  0.13268900  0.61266100  1
  B  B0  1  0.40952100  0.73473100  0.17308800  1
  B  B1  1  0.59050400  0.26373400  0.82677000  1
  B  B2  1  0.26373400  0.59050400  0.82677000  1
  B  B3  1  0.73473100  0.40952100  0.17308800  1
  B  B4  1  0.68864500  0.85428700  0.97554600  1
  B  B5  1  0.30971000  0.14221200  0.02681300  1
  B  B6  1  0.14221200  0.30971000  0.02681300  1
  B  B7  1  0.85428700  0.68864500  0.97554600  1
  B  B8  1  0.53484400  0.87354500  0.29412700  1
  B  B9  1  0.46690400  0.12752900  0.20082200  1
  B  B10  1  0.12752900  0.46690400  0.20082200  1
  B  B11  1  0.87354500  0.53484400  0.29412700  1
  B  B12  1  0.46467200  0.12296700  0.70982800  1
  B  B13  1  0.53357700  0.86894400  0.79830900  1
  B  B14  1  0.86894400  0.53357700  0.79830900  1
  B  B15  1  0.12296700  0.46467200  0.70982800  1
  B  B16  1  0.73019400  0.09752900  0.99043000  1
  B  B17  1  0.27383700  0.90004100  0.31999800  1
  B  B18  1  0.90004100  0.27383700  0.31999800  1
  B  B19  1  0.09752900  0.73019400  0.99043000  1
  B  B20  1  0.27223300  0.90059300  0.00719100  1
  B  B21  1  0.72876000  0.09824800  0.68107500  1
  B  B22  1  0.09824800  0.72876000  0.68107500  1
  B  B23  1  0.90059300  0.27223300  0.00719100  1
  B  B24  1  0.26813200  0.46555100  0.38171300  1
  B  B25  1  0.72538600  0.53137100  0.62517000  1
  B  B26  1  0.53137100  0.72538600  0.62517000  1
  B  B27  1  0.46555100  0.26813200  0.38171300  1
loop_
_geom_bond_atom_site_label_1
_geom_bond_atom_site_label_2
_geom_bond_distance
_geom_bond_site_symmetry_2
Al0 B25 2.042903 1_555
Al0 B26 2.042903 1_555
Al0 B24 2.097280 1_555
Al0 B27 2.097280 1_555
Al0 B1 2.308215 1_555
Al0 B2 2.308215 1_555
Al0 B3 2.317293 1_555
Al0 B0 2.317293 1_555
Al0 B11 2.370182 1_555
Al0 B8 2.370182 1_555
Al0 B15 2.410854 1_555
Al0 B12 2.410854 1_555
Al1 B24 2.131842 1_555
Al1 B27 2.131842 1_555
Al1 B9 2.622508 1_555
Al1 B10 2.622508 1_555
Al1 B15 2.643213 1_555
Al1 B12 2.643213 1_555
Al1 B22 2.720708 1_545
Al1 B21 2.720708 1_455
Al1 B16 2.735474 1_455
Al1 B19 2.735474 1_545
B0 B24 1.772293 1_555
B0 B13 1.786345 1_554
B0 B20 1.786981 1_555
B0 B4 1.794891 1_554
B0 B17 1.807613 1_555
B0 B8 1.824634 1_555
B1 B25 1.751644 1_555
B1 B9 1.783227 1_556
B1 B16 1.795004 1_555
B1 B5 1.807249 1_556
B1 B21 1.811523 1_555
B1 B12 1.816984 1_555
B2 B26 1.751644 1_555
B2 B6 1.807249 1_556
B2 B22 1.811523 1_555
B3 B7 1.794891 1_554
B4 B7 1.686462 1_555
B4 B8 1.808081 1_556
B5 B6 1.705358 1_555
B5 B9 1.779820 1_555
B8 B9 1.801004 1_565
B8 Mg0 2.709285 1_555
B10 B24 1.732026 1_555
B10 B18 1.776755 1_455
B10 B6 1.779820 1_555
B10 B2 1.783227 1_554
B10 B11 1.801004 1_455
B10 B19 1.848861 1_554
B11 B19 1.781825 1_654
B11 B25 1.784587 1_555
B11 B7 1.808081 1_554
B11 B18 1.819663 1_555
B11 B3 1.824634 1_555
B11 Mg0 2.709285 1_555
B12 B20 1.757672 1_546
B12 B27 1.775416 1_555
B12 B5 1.801864 1_556
B12 B13 1.804208 1_545
B12 B21 1.834334 1_555
B13 B26 1.716882 1_555
B13 B4 1.782250 1_555
B13 B21 1.798458 1_565
B13 B20 1.840851 1_556
B13 Mg0 2.702357 1_555
B14 B25 1.716882 1_555
B14 B7 1.782250 1_555
B14 B3 1.786345 1_556
B14 B22 1.798458 1_655
B14 B15 1.804208 1_655
B14 B23 1.840851 1_556
B14 Mg0 2.702357 1_555
B15 B23 1.757672 1_456
B15 B24 1.775416 1_555
B15 B6 1.801864 1_556
B15 B2 1.816984 1_555
B15 B22 1.834334 1_555
B16 B23 1.772512 1_556
B16 B8 1.781825 1_546
B16 B4 1.790208 1_545
B16 B21 1.823908 1_555
B16 B9 1.848861 1_556
B16 Mg0 2.782603 1_546
B17 B9 1.776755 1_565
B17 B22 1.783812 1_555
B17 B5 1.785247 1_565
B17 B8 1.819663 1_555
B17 B20 1.845222 1_555
B17 Mg0 2.645614 1_455
B18 B21 1.783812 1_555
B18 B6 1.785247 1_655
B18 B3 1.807613 1_555
B18 B23 1.845222 1_555
B18 Mg0 2.645614 1_545
B19 B20 1.772512 1_556
B19 B7 1.790208 1_455
B19 B2 1.795004 1_555
B19 B22 1.823908 1_555
B19 Mg0 2.782603 1_456
B20 B5 1.788773 1_565
B20 Mg0 2.650298 1_455
B21 B4 1.788140 1_545
B21 Mg0 2.764796 1_545
B22 B7 1.788140 1_455
B22 Mg0 2.764796 1_455
B23 B3 1.786981 1_555
B23 B6 1.788773 1_655
B23 Mg0 2.650298 1_545
B24 B27 2.009995 1_555
B25 B26 1.975338 1_555
B25 Mg0 2.302544 1_555
B26 B8 1.784587 1_555
B26 Mg0 2.302544 1_555
B27 B9 1.732026 1_555
B27 B3 1.772293 1_555
