# generated using pymatgen
data_PH12C3N6O5F
_symmetry_space_group_name_H-M   'P 1'
_cell_length_a   6.81914183
_cell_length_b   8.39417680
_cell_length_c   10.28655111
_cell_angle_alpha   101.11418024
_cell_angle_beta   92.60631376
_cell_angle_gamma   99.02107306
_symmetry_Int_Tables_number   1
_chemical_formula_structural   PH12C3N6O5F
_chemical_formula_sum   'P2 H24 C6 N12 O10 F2'
_cell_volume   568.88007297
_cell_formula_units_Z   2
loop_
 _symmetry_equiv_pos_site_id
 _symmetry_equiv_pos_as_xyz
  1  'x, y, z'
loop_
 _atom_site_type_symbol
 _atom_site_label
 _atom_site_symmetry_multiplicity
 _atom_site_fract_x
 _atom_site_fract_y
 _atom_site_fract_z
 _atom_site_occupancy
  P  P0  1  0.46062400  0.87305600  0.26985200  1
  P  P1  1  0.59141400  0.87095100  0.70620500  1
  H  H0  1  0.38653300  0.82624700  0.47286500  1
  H  H1  1  0.68772400  0.46837700  0.96810000  1
  H  H2  1  0.61505000  0.25284500  0.93780700  1
  H  H3  1  0.19928000  0.46007300  0.99575300  1
  H  H4  1  0.00954700  0.58963900  0.00204300  1
  H  H5  1  0.84661700  0.09307500  0.91865000  1
  H  H6  1  0.31726900  0.97087400  0.92908400  1
  H  H7  1  0.06092700  0.90949500  0.94672700  1
  H  H8  1  0.99588900  0.56141600  0.32766000  1
  H  H9  1  0.79918400  0.68062200  0.31428300  1
  H  H10  1  0.46961100  0.54887100  0.32762800  1
  H  H11  1  0.42022900  0.33637700  0.30451400  1
  H  H12  1  0.65769600  0.18899000  0.30471800  1
  H  H13  1  0.13453900  0.07715100  0.29490700  1
  H  H14  1  0.87263800  0.00551600  0.27832800  1
  H  H15  1  0.05206900  0.18101800  0.62782200  1
  H  H16  1  0.24978700  0.05932700  0.62418700  1
  H  H17  1  0.57143300  0.18964700  0.62842200  1
  H  H18  1  0.63123200  0.40184700  0.64949900  1
  H  H19  1  0.39594700  0.55593900  0.66445200  1
  H  H20  1  0.17833000  0.73538800  0.65579000  1
  H  H21  1  0.91991300  0.67053800  0.66598700  1
  H  H22  1  0.74214700  0.77151100  0.06998100  1
  H  H23  1  0.72358600  0.74784100  0.91252600  1
  C  C0  1  0.91640500  0.34317100  0.96867500  1
  C  C1  1  0.16198300  0.15826300  0.95251900  1
  C  C2  1  0.71747700  0.43744900  0.31622700  1
  C  C3  1  0.97182100  0.25953800  0.30804500  1
  C  C4  1  0.33072100  0.30546600  0.63792400  1
  C  C5  1  0.08029900  0.48660500  0.65299700  1
  N  N0  1  0.72432000  0.35403900  0.96133800  1
  N  N1  1  0.05458100  0.47794700  0.99391100  1
  N  N2  1  0.96603000  0.18945900  0.95241200  1
  N  N3  1  0.17721100  0.99803200  0.93744100  1
  N  N4  1  0.84902200  0.57470200  0.32632500  1
  N  N5  1  0.52272400  0.44041000  0.31309500  1
  N  N6  1  0.77436900  0.28735600  0.30863400  1
  N  N7  1  0.99200800  0.10061400  0.29245000  1
  N  N8  1  0.19840500  0.16832300  0.62575500  1
  N  N9  1  0.52445700  0.29968300  0.63810600  1
  N  N10  1  0.27649300  0.45694700  0.65049500  1
  N  N11  1  0.06216300  0.64622200  0.66668400  1
  O  O0  1  0.36192000  0.77158500  0.37169100  1
  O  O1  1  0.43837300  0.05170300  0.29990800  1
  O  O2  1  0.66548500  0.83332100  0.24016500  1
  O  O3  1  0.40681200  0.89013400  0.62108500  1
  O  O4  1  0.61667900  0.69244600  0.69957100  1
  O  O5  1  0.61610300  0.97674200  0.84555300  1
  O  O6  1  0.30951300  0.27029000  0.96355600  1
  O  O7  1  0.11589900  0.37498800  0.32108700  1
  O  O8  1  0.93489800  0.37329500  0.64567200  1
  O  O9  1  0.79910800  0.72278600  0.98759300  1
  F  F0  1  0.31750000  0.78387900  0.13973100  1
  F  F1  1  0.77682000  0.94762500  0.62969500  1
loop_
_geom_bond_atom_site_label_1
_geom_bond_atom_site_label_2
_geom_bond_distance
_geom_bond_site_symmetry_2
H0 O0 1.047707 1_555
H0 O3 1.507874 1_555
H1 N0 1.019427 1_555
H2 N0 1.020389 1_555
H3 N1 1.020938 1_555
H4 N1 1.021135 1_554
H5 N2 1.047676 1_555
H6 N3 1.019666 1_555
H7 N3 1.019654 1_555
H8 N4 1.024699 1_555
H9 N4 1.027011 1_555
H10 N5 1.018964 1_555
H11 N5 1.015954 1_555
H12 N6 1.046256 1_555
H13 N7 1.021670 1_455
H14 N7 1.030389 1_555
H15 N8 1.020778 1_555
H16 N8 1.027367 1_555
H17 N9 1.012870 1_555
H18 N9 1.018337 1_555
H19 N10 1.051540 1_555
H20 N11 1.027017 1_555
H21 N11 1.022096 1_655
H22 O9 0.991221 1_554
H23 O9 0.982917 1_555
C0 N0 1.326980 1_555
C0 N1 1.328670 1_655
C0 N2 1.366087 1_555
C1 O6 1.249425 1_555
C1 N3 1.344887 1_545
C1 N2 1.401355 1_455
C2 N4 1.328205 1_555
C2 N5 1.331216 1_555
C2 N6 1.364578 1_555
C3 O7 1.249702 1_655
C3 N7 1.342173 1_555
C3 N6 1.402246 1_555
C4 N8 1.327963 1_555
C4 N9 1.329519 1_555
C4 N10 1.363355 1_555
C5 O8 1.250311 1_455
C5 N11 1.345788 1_555
C5 N10 1.399164 1_555
O0 P0 1.582494 1_555
O1 P0 1.504749 1_545
O2 P0 1.517135 1_555
O3 P1 1.547552 1_555
O4 P1 1.523861 1_555
O5 P1 1.520535 1_555
F0 P0 1.603206 1_555
F1 P1 1.631786 1_555
