# generated using pymatgen
data_K4P3NO13
_symmetry_space_group_name_H-M   'P 1'
_cell_length_a   6.16683900
_cell_length_b   10.11467107
_cell_length_c   12.80150788
_cell_angle_alpha   96.06300228
_cell_angle_beta   91.25076811
_cell_angle_gamma   104.73204727
_symmetry_Int_Tables_number   1
_chemical_formula_structural   K4P3NO13
_chemical_formula_sum   'K8 P6 N2 O26'
_cell_volume   766.94644936
_cell_formula_units_Z   2
loop_
 _symmetry_equiv_pos_site_id
 _symmetry_equiv_pos_as_xyz
  1  'x, y, z'
loop_
 _atom_site_type_symbol
 _atom_site_label
 _atom_site_symmetry_multiplicity
 _atom_site_fract_x
 _atom_site_fract_y
 _atom_site_fract_z
 _atom_site_occupancy
  K  K0  1  0.62902100  0.81058400  0.68094500  1
  K  K1  1  0.37097900  0.18941600  0.31905500  1
  K  K2  1  0.13488700  0.74341700  0.89148100  1
  K  K3  1  0.86511300  0.25658300  0.10851900  1
  K  K4  1  0.88159700  0.28273100  0.78917200  1
  K  K5  1  0.11840300  0.71726900  0.21082800  1
  K  K6  1  0.86358400  0.15108600  0.51852600  1
  K  K7  1  0.13641600  0.84891400  0.48147400  1
  P  P0  1  0.32569700  0.17640100  0.95891200  1
  P  P1  1  0.67430300  0.82359900  0.04108800  1
  P  P2  1  0.20378200  0.02127200  0.74486500  1
  P  P3  1  0.79621800  0.97872800  0.25513500  1
  P  P4  1  0.39926900  0.25092600  0.61743700  1
  P  P5  1  0.60073100  0.74907400  0.38256300  1
  N  N0  1  0.69431100  0.88223200  0.92168700  1
  N  N1  1  0.30568900  0.11776800  0.07831300  1
  O  O0  1  0.57383600  0.24221300  0.95244700  1
  O  O1  1  0.42616400  0.75778700  0.04755300  1
  O  O2  1  0.15915400  0.26303900  0.95669800  1
  O  O3  1  0.84084600  0.73696100  0.04330200  1
  O  O4  1  0.24533500  0.03924400  0.87550700  1
  O  O5  1  0.75466500  0.96075600  0.12449300  1
  O  O6  1  0.23839800  0.87974100  0.71233500  1
  O  O7  1  0.76160200  0.12025900  0.28766500  1
  O  O8  1  0.40514500  0.13993100  0.71324800  1
  O  O9  1  0.59485500  0.86006900  0.28675200  1
  O  O10  1  0.97684000  0.04133100  0.71678700  1
  O  O11  1  0.02316000  0.95866900  0.28321300  1
  O  O12  1  0.23902500  0.33485900  0.65609200  1
  O  O13  1  0.76097500  0.66514100  0.34390800  1
  O  O14  1  0.64787500  0.32311900  0.61965800  1
  O  O15  1  0.35212500  0.67688100  0.38034200  1
  O  O16  1  0.31220200  0.15190400  0.51719500  1
  O  O17  1  0.68779800  0.84809600  0.48280500  1
  O  O18  1  0.59436200  0.51749300  0.86790900  1
  O  O19  1  0.40563800  0.48250700  0.13209100  1
  O  O20  1  0.43849900  0.54787600  0.82120100  1
  O  O21  1  0.56150100  0.45212400  0.17879900  1
  O  O22  1  0.96339200  0.57890300  0.68146100  1
  O  O23  1  0.03660800  0.42109700  0.31853900  1
  O  O24  1  0.08931100  0.57494200  0.60801200  1
  O  O25  1  0.91068900  0.42505800  0.39198800  1
loop_
_geom_bond_atom_site_label_1
_geom_bond_atom_site_label_2
_geom_bond_distance
_geom_bond_site_symmetry_2
K0 O17 2.623475 1_555
K0 O6 2.700649 1_555
K0 O10 2.728230 1_565
K0 N0 3.083958 1_555
K0 O20 3.343209 1_555
K1 O16 2.623475 1_555
K1 O7 2.700649 1_555
K1 O11 2.728230 1_545
K1 N1 3.083958 1_555
K1 O21 3.343209 1_555
K2 O1 2.624632 1_556
K2 O3 2.681439 1_456
K2 O6 2.802216 1_555
K2 O4 2.925364 1_565
K2 O22 3.025158 1_455
K2 O20 3.131761 1_555
K3 O0 2.624632 1_554
K3 O2 2.681439 1_654
K3 O7 2.802216 1_555
K3 O5 2.925364 1_545
K3 O23 3.025158 1_655
K3 O21 3.131761 1_555
K4 O14 2.702505 1_555
K4 O10 2.727754 1_555
K4 O2 2.769844 1_655
K4 O12 2.793106 1_655
K4 O0 2.845587 1_555
K4 O8 3.014013 1_555
K5 O15 2.702505 1_555
K5 O11 2.727754 1_555
K5 O3 2.769844 1_455
K5 O13 2.793106 1_455
K5 O1 2.845587 1_555
K5 O9 3.014013 1_555
K6 O14 2.692582 1_555
K6 O16 2.764893 1_655
K6 O17 2.961242 1_545
K6 O7 2.975133 1_555
K6 O12 2.976351 1_655
K6 O10 3.012309 1_555
K6 O25 3.308620 1_555
K7 O15 2.692582 1_555
K7 O17 2.764893 1_455
K7 O16 2.961242 1_565
K7 O6 2.975133 1_555
K7 O13 2.976351 1_455
K7 O11 3.012309 1_555
K7 O24 3.308620 1_555
N0 P1 1.692866 1_556
N1 P0 1.692866 1_554
O0 P0 1.513496 1_555
O1 P1 1.513496 1_555
O2 P0 1.511711 1_555
O3 P1 1.511711 1_555
O4 P0 1.620039 1_555
O4 P2 1.670047 1_555
O5 P1 1.620039 1_555
O5 P3 1.670047 1_555
O6 P2 1.517124 1_565
O7 P3 1.517124 1_545
O8 P2 1.585197 1_555
O8 P4 1.753772 1_555
O9 P3 1.585197 1_555
O9 P5 1.753772 1_555
O10 P2 1.505611 1_655
O11 P3 1.505611 1_455
O12 P4 1.517042 1_555
O13 P5 1.517042 1_555
O14 P4 1.519470 1_555
O15 P5 1.519470 1_555
O16 P4 1.537230 1_555
O17 P5 1.537230 1_555
O18 O20 1.240885 1_555
O19 O21 1.240885 1_555
O22 O24 1.236292 1_655
O23 O25 1.236292 1_455
