# generated using pymatgen
data_Ba3Fe4P8PbO28
_symmetry_space_group_name_H-M   'P 1'
_cell_length_a   5.59076900
_cell_length_b   8.53485878
_cell_length_c   13.01129478
_cell_angle_alpha   89.55065815
_cell_angle_beta   89.06745602
_cell_angle_gamma   89.93938697
_symmetry_Int_Tables_number   1
_chemical_formula_structural   Ba3Fe4P8PbO28
_chemical_formula_sum   'Ba3 Fe4 P8 Pb1 O28'
_cell_volume   620.75086563
_cell_formula_units_Z   1
loop_
 _symmetry_equiv_pos_site_id
 _symmetry_equiv_pos_as_xyz
  1  'x, y, z'
loop_
 _atom_site_type_symbol
 _atom_site_label
 _atom_site_symmetry_multiplicity
 _atom_site_fract_x
 _atom_site_fract_y
 _atom_site_fract_z
 _atom_site_occupancy
  Ba  Ba0  1  0.21969500  0.35661900  0.21758900  1
  Ba  Ba1  1  0.28063500  0.85708300  0.28188600  1
  Ba  Ba2  1  0.77991200  0.64440800  0.78189800  1
  Fe  Fe0  1  0.18518500  0.34243600  0.89141700  1
  Fe  Fe1  1  0.68505800  0.15664300  0.39218500  1
  Fe  Fe2  1  0.81293300  0.65616400  0.10920100  1
  Fe  Fe3  1  0.31569300  0.84391100  0.60918200  1
  P  P0  1  0.24300800  0.95562500  0.83797300  1
  P  P1  1  0.74332100  0.54767400  0.34021300  1
  P  P2  1  0.75652900  0.04805100  0.16007700  1
  P  P3  1  0.25670200  0.44752300  0.66025500  1
  P  P4  1  0.68773900  0.30855200  0.01544500  1
  P  P5  1  0.18784800  0.19038100  0.51780800  1
  P  P6  1  0.31127700  0.69186000  0.98330900  1
  P  P7  1  0.81252500  0.80856700  0.48427200  1
  Pb  Pb0  1  0.71335900  0.15101700  0.71804200  1
  O  O0  1  0.80367000  0.32501300  0.90768600  1
  O  O1  1  0.29988400  0.17492200  0.40939700  1
  O  O2  1  0.19457300  0.67618000  0.09089500  1
  O  O3  1  0.69590800  0.82248600  0.59139100  1
  O  O4  1  0.41594800  0.33242800  0.01838500  1
  O  O5  1  0.91514300  0.16676700  0.52305300  1
  O  O6  1  0.58356000  0.66903400  0.98175500  1
  O  O7  1  0.08455900  0.83149700  0.48184200  1
  O  O8  1  0.50991400  0.41424300  0.69820100  1
  O  O9  1  0.00875400  0.07683500  0.19773500  1
  O  O10  1  0.49145300  0.57644100  0.30182000  1
  O  O11  1  0.98864600  0.93217900  0.79995000  1
  O  O12  1  0.31123200  0.12752900  0.85365300  1
  O  O13  1  0.80343900  0.37388600  0.35545000  1
  O  O14  1  0.69558600  0.87511500  0.14534600  1
  O  O15  1  0.20293700  0.62228800  0.64717400  1
  O  O16  1  0.25910000  0.87299400  0.95095000  1
  O  O17  1  0.76294600  0.62722600  0.45255300  1
  O  O18  1  0.73738200  0.12715100  0.04678800  1
  O  O19  1  0.23702200  0.37241100  0.54697800  1
  O  O20  1  0.43367700  0.87747200  0.76781400  1
  O  O21  1  0.93463200  0.62299700  0.26844600  1
  O  O22  1  0.56618800  0.12464000  0.23125600  1
  O  O23  1  0.06241300  0.37166900  0.73069700  1
  O  O24  1  0.81093100  0.41074800  0.09681900  1
  O  O25  1  0.31869000  0.08865900  0.59814300  1
  O  O26  1  0.19052700  0.58785800  0.90238000  1
  O  O27  1  0.68986400  0.91281700  0.40269000  1
loop_
_geom_bond_atom_site_label_1
_geom_bond_atom_site_label_2
_geom_bond_distance
_geom_bond_site_symmetry_2
Ba0 O10 2.668692 1_555
Ba0 O9 2.680528 1_555
Ba0 O22 2.775217 1_555
Ba0 O4 2.807096 1_555
Ba0 O24 2.829936 1_455
Ba0 O21 2.851002 1_455
Ba0 O13 2.919352 1_455
Ba0 O1 2.967904 1_555
Ba0 O2 3.179950 1_555
Ba1 O9 2.653853 1_565
Ba1 O10 2.681018 1_555
Ba1 O21 2.790844 1_455
Ba1 O7 2.813700 1_555
Ba1 O27 2.839450 1_555
Ba1 O22 2.854329 1_565
Ba1 O14 2.902427 1_555
Ba1 O2 2.981859 1_555
Ba1 O1 3.193738 1_565
Ba2 O8 2.723384 1_555
Ba2 O11 2.733753 1_555
Ba2 O20 2.781199 1_555
Ba2 O6 2.815402 1_555
Ba2 O26 2.839605 1_655
Ba2 O23 2.887768 1_655
Ba2 O15 2.927646 1_655
Ba2 O3 2.941434 1_555
Ba2 O0 3.172329 1_555
Fe0 O12 2.025453 1_555
Fe0 O26 2.100886 1_555
Fe0 O4 2.113731 1_556
Fe0 O0 2.145211 1_455
Fe0 O23 2.223639 1_555
Fe1 O13 2.020573 1_555
Fe1 O27 2.084608 1_545
Fe1 O5 2.152999 1_555
Fe1 O1 2.166990 1_555
Fe1 O22 2.226053 1_555
Fe2 O14 2.035887 1_555
Fe2 O24 2.102092 1_555
Fe2 O6 2.114795 1_554
Fe2 O2 2.149888 1_655
Fe2 O21 2.207365 1_555
Fe3 O15 2.048736 1_555
Fe3 O25 2.092764 1_565
Fe3 O7 2.121076 1_555
Fe3 O3 2.142294 1_555
Fe3 O20 2.198014 1_555
O0 P4 1.540516 1_556
O1 P5 1.540594 1_555
O2 P6 1.539698 1_554
O3 P7 1.534471 1_555
O4 P4 1.532810 1_555
O5 P5 1.538448 1_655
O5 Pb0 2.762104 1_555
O6 P6 1.534309 1_555
O7 P7 1.533408 1_455
O8 P3 1.532387 1_555
O8 Pb0 2.530337 1_555
O9 P2 1.521189 1_455
O10 P1 1.520826 1_555
O11 P0 1.527143 1_655
O11 Pb0 2.647468 1_565
O12 P0 1.532360 1_545
O13 P1 1.532587 1_555
O14 P2 1.529373 1_565
O15 P3 1.530003 1_555
O16 P6 1.626397 1_555
O16 P0 1.629173 1_555
O17 P1 1.621885 1_555
O17 P7 1.630105 1_555
O18 P2 1.621539 1_555
O18 P4 1.622725 1_555
O19 P3 1.617297 1_555
O19 P5 1.626916 1_555
O20 P0 1.546264 1_555
O21 P1 1.545559 1_555
O22 P2 1.547054 1_555
O23 P3 1.548818 1_555
O23 Pb0 2.721223 1_455
O24 P4 1.547790 1_555
O25 P5 1.546198 1_555
O25 Pb0 2.777264 1_555
O26 P6 1.546450 1_555
O27 P7 1.547997 1_555
