# generated using pymatgen
data_BaSi3Pt
_symmetry_space_group_name_H-M   'P 1'
_cell_length_a   5.94931894
_cell_length_b   5.94931894
_cell_length_c   5.94931894
_cell_angle_alpha   136.22566387
_cell_angle_beta   136.22566387
_cell_angle_gamma   63.63164767
_symmetry_Int_Tables_number   1
_chemical_formula_structural   BaSi3Pt
_chemical_formula_sum   'Ba1 Si3 Pt1'
_cell_volume   99.46186617
_cell_formula_units_Z   1
loop_
 _symmetry_equiv_pos_site_id
 _symmetry_equiv_pos_as_xyz
  1  'x, y, z'
loop_
 _atom_site_type_symbol
 _atom_site_label
 _atom_site_symmetry_multiplicity
 _atom_site_fract_x
 _atom_site_fract_y
 _atom_site_fract_z
 _atom_site_occupancy
  Ba  Ba0  1  0.60143502  0.60143502  -0.00000000  1
  Si  Si0  1  0.99399067  0.99399067  0.00000000  1
  Si  Si1  1  0.35630810  0.85630810  0.50000000  1
  Si  Si2  1  0.85630810  0.35630810  0.50000000  1
  Pt  Pt0  1  0.25075712  0.25075712  -0.00000000  1
loop_
_geom_bond_atom_site_label_1
_geom_bond_atom_site_label_2
_geom_bond_distance
_geom_bond_site_symmetry_2
Ba0 Si0 3.319235 1_455
Ba0 Si0 3.319235 1_545
Ba0 Si0 3.319235 1_556
Ba0 Si0 3.319235 1_444
Ba0 Si1 3.325843 1_544
Ba0 Si2 3.325843 1_454
Ba0 Si1 3.325843 1_555
Ba0 Si2 3.325843 1_555
Ba0 Si1 3.399912 1_655
Ba0 Si2 3.399912 1_565
Ba0 Si1 3.399912 1_554
Ba0 Si2 3.399912 1_554
Ba0 Pt0 3.480886 1_666
Ba0 Pt0 3.480886 1_655
Ba0 Pt0 3.480886 1_554
Ba0 Pt0 3.480886 1_565
Ba0 Pt0 3.545646 1_555
Si0 Si1 2.618488 1_655
Si0 Si2 2.618488 1_565
Si0 Si2 2.618488 1_554
Si0 Si1 2.618488 1_554
Pt0 Si2 2.461201 1_454
Pt0 Si1 2.461201 1_544
Pt0 Si1 2.461201 1_555
Pt0 Si2 2.461201 1_555
Pt0 Si0 2.596123 1_445
