# generated using pymatgen
data_CuSiN2
_symmetry_space_group_name_H-M   'P 1'
_cell_length_a   5.08418300
_cell_length_b   10.16423300
_cell_length_c   12.85703900
_cell_angle_alpha   90.00000000
_cell_angle_beta   90.00000000
_cell_angle_gamma   90.00000000
_symmetry_Int_Tables_number   1
_chemical_formula_structural   CuSiN2
_chemical_formula_sum   'Cu16 Si16 N32'
_cell_volume   664.41089819
_cell_formula_units_Z   16
loop_
 _symmetry_equiv_pos_site_id
 _symmetry_equiv_pos_as_xyz
  1  'x, y, z'
loop_
 _atom_site_type_symbol
 _atom_site_label
 _atom_site_symmetry_multiplicity
 _atom_site_fract_x
 _atom_site_fract_y
 _atom_site_fract_z
 _atom_site_occupancy
  Cu  Cu0  1  0.69626900  0.96964800  0.43820400  1
  Cu  Cu1  1  0.19626900  0.53035200  0.56179600  1
  Cu  Cu2  1  0.30373100  0.46964800  0.06179600  1
  Cu  Cu3  1  0.80373100  0.03035200  0.93820400  1
  Cu  Cu4  1  0.30373100  0.03035200  0.56179600  1
  Cu  Cu5  1  0.80373100  0.46964800  0.43820400  1
  Cu  Cu6  1  0.69626900  0.53035200  0.93820400  1
  Cu  Cu7  1  0.19626900  0.96964800  0.06179600  1
  Cu  Cu8  1  0.77684600  0.27807200  0.30773700  1
  Cu  Cu9  1  0.27684600  0.22192800  0.69226300  1
  Cu  Cu10  1  0.22315400  0.77807200  0.19226300  1
  Cu  Cu11  1  0.72315400  0.72192800  0.80773700  1
  Cu  Cu12  1  0.22315400  0.72192800  0.69226300  1
  Cu  Cu13  1  0.72315400  0.77807200  0.30773700  1
  Cu  Cu14  1  0.77684600  0.22192800  0.80773700  1
  Cu  Cu15  1  0.27684600  0.27807200  0.19226300  1
  Si  Si0  1  0.65622300  0.03426200  0.18621000  1
  Si  Si1  1  0.15622300  0.46573800  0.81379000  1
  Si  Si2  1  0.34377700  0.53426200  0.31379000  1
  Si  Si3  1  0.84377700  0.96573800  0.68621000  1
  Si  Si4  1  0.34377700  0.96573800  0.81379000  1
  Si  Si5  1  0.84377700  0.53426200  0.18621000  1
  Si  Si6  1  0.65622300  0.46573800  0.68621000  1
  Si  Si7  1  0.15622300  0.03426200  0.31379000  1
  Si  Si8  1  0.78588200  0.28769200  0.06098100  1
  Si  Si9  1  0.28588200  0.21230800  0.93901900  1
  Si  Si10  1  0.21411800  0.78769200  0.43901900  1
  Si  Si11  1  0.71411800  0.71230800  0.56098100  1
  Si  Si12  1  0.21411800  0.71230800  0.93901900  1
  Si  Si13  1  0.71411800  0.78769200  0.06098100  1
  Si  Si14  1  0.78588200  0.21230800  0.56098100  1
  Si  Si15  1  0.28588200  0.28769200  0.43901900  1
  N  N0  1  0.67009000  0.48560200  0.29638000  1
  N  N1  1  0.17009000  0.01439800  0.70362000  1
  N  N2  1  0.32991000  0.98560200  0.20362000  1
  N  N3  1  0.82991000  0.51439800  0.79638000  1
  N  N4  1  0.32991000  0.51439800  0.70362000  1
  N  N5  1  0.82991000  0.98560200  0.29638000  1
  N  N6  1  0.67009000  0.01439800  0.79638000  1
  N  N7  1  0.17009000  0.48560200  0.20362000  1
  N  N8  1  0.62685800  0.27225000  0.45148300  1
  N  N9  1  0.12685800  0.22775000  0.54851700  1
  N  N10  1  0.37314200  0.77225000  0.04851700  1
  N  N11  1  0.87314200  0.72775000  0.95148300  1
  N  N12  1  0.37314200  0.72775000  0.54851700  1
  N  N13  1  0.87314200  0.77225000  0.45148300  1
  N  N14  1  0.62685800  0.22775000  0.95148300  1
  N  N15  1  0.12685800  0.27225000  0.04851700  1
  N  N16  1  0.71702700  0.45492700  0.07689600  1
  N  N17  1  0.21702700  0.04507300  0.92310400  1
  N  N18  1  0.28297300  0.95492700  0.42310400  1
  N  N19  1  0.78297300  0.54507300  0.57689600  1
  N  N20  1  0.28297300  0.54507300  0.92310400  1
  N  N21  1  0.78297300  0.95492700  0.07689600  1
  N  N22  1  0.71702700  0.04507300  0.57689600  1
  N  N23  1  0.21702700  0.45492700  0.42310400  1
  N  N24  1  0.66727600  0.20562500  0.17147000  1
  N  N25  1  0.16727600  0.29437500  0.82853000  1
  N  N26  1  0.33272400  0.70562500  0.32853000  1
  N  N27  1  0.83272400  0.79437500  0.67147000  1
  N  N28  1  0.33272400  0.79437500  0.82853000  1
  N  N29  1  0.83272400  0.70562500  0.17147000  1
  N  N30  1  0.66727600  0.29437500  0.67147000  1
  N  N31  1  0.16727600  0.20562500  0.32853000  1
loop_
_geom_bond_atom_site_label_1
_geom_bond_atom_site_label_2
_geom_bond_distance
_geom_bond_site_symmetry_2
Cu0 N22 1.943852 1_565
Cu0 N5 1.952659 1_555
Cu0 N18 2.115520 1_555
Cu0 N13 2.205322 1_555
Cu1 N23 1.943852 1_555
Cu1 N4 1.952659 1_555
Cu1 N19 2.115520 1_455
Cu1 N12 2.205322 1_555
Cu2 N20 1.943852 1_554
Cu2 N7 1.952659 1_555
Cu2 N16 2.115520 1_555
Cu2 N15 2.205322 1_555
Cu3 N21 1.943852 1_546
Cu3 N6 1.952659 1_555
Cu3 N17 2.115520 1_655
Cu3 N14 2.205322 1_555
Cu4 N18 1.943852 1_545
Cu4 N1 1.952659 1_555
Cu4 N22 2.115520 1_555
Cu4 N9 2.205322 1_555
Cu5 N19 1.943852 1_555
Cu5 N0 1.952659 1_555
Cu5 N23 2.115520 1_655
Cu5 N8 2.205322 1_555
Cu6 N16 1.943852 1_556
Cu6 N3 1.952659 1_555
Cu6 N20 2.115520 1_555
Cu6 N11 2.205322 1_555
Cu7 N17 1.943852 1_564
Cu7 N2 1.952659 1_555
Cu7 N21 2.115520 1_455
Cu7 N10 2.205322 1_555
Cu8 N24 1.980414 1_555
Cu8 N8 2.000165 1_555
Cu8 N31 2.134011 1_655
Cu8 N0 2.182983 1_555
Cu9 N25 1.980414 1_555
Cu9 N9 2.000165 1_555
Cu9 N30 2.134011 1_555
Cu9 N1 2.182983 1_555
Cu10 N26 1.980414 1_555
Cu10 N10 2.000165 1_555
Cu10 N29 2.134011 1_455
Cu10 N2 2.182983 1_555
Cu11 N27 1.980414 1_555
Cu11 N11 2.000165 1_555
Cu11 N28 2.134011 1_555
Cu11 N3 2.182983 1_555
Cu12 N28 1.980414 1_555
Cu12 N12 2.000165 1_555
Cu12 N27 2.134011 1_455
Cu12 N4 2.182983 1_555
Cu13 N29 1.980414 1_555
Cu13 N13 2.000165 1_555
Cu13 N26 2.134011 1_555
Cu13 N5 2.182983 1_555
Cu14 N30 1.980414 1_555
Cu14 N14 2.000165 1_555
Cu14 N25 2.134011 1_655
Cu14 N6 2.182983 1_555
Cu15 N31 1.980414 1_555
Cu15 N15 2.000165 1_555
Cu15 N24 2.134011 1_555
Cu15 N7 2.182983 1_555
N0 Si5 1.740910 1_555
N0 Si2 1.745601 1_555
N1 Si4 1.740910 1_545
N1 Si3 1.745601 1_445
N2 Si7 1.740910 1_565
N2 Si0 1.745601 1_565
N3 Si6 1.740910 1_555
N3 Si1 1.745601 1_655
N4 Si1 1.740910 1_555
N4 Si6 1.745601 1_555
N5 Si0 1.740910 1_565
N5 Si7 1.745601 1_665
N6 Si3 1.740910 1_545
N6 Si4 1.745601 1_545
N7 Si2 1.740910 1_555
N7 Si5 1.745601 1_455
N8 Si14 1.734025 1_555
N8 Si15 1.748036 1_555
N9 Si15 1.734025 1_555
N9 Si14 1.748036 1_455
N10 Si12 1.734025 1_554
N10 Si13 1.748036 1_555
N11 Si13 1.734025 1_556
N11 Si12 1.748036 1_655
N12 Si10 1.734025 1_555
N12 Si11 1.748036 1_555
N13 Si11 1.734025 1_555
N13 Si10 1.748036 1_655
N14 Si8 1.734025 1_556
N14 Si9 1.748036 1_555
N15 Si9 1.734025 1_554
N15 Si8 1.748036 1_455
N16 Si5 1.743797 1_555
N16 Si8 1.747510 1_555
N17 Si4 1.743797 1_545
N17 Si9 1.747510 1_555
N18 Si7 1.743797 1_565
N18 Si10 1.747510 1_555
N19 Si6 1.743797 1_555
N19 Si11 1.747510 1_555
N20 Si1 1.743797 1_555
N20 Si12 1.747510 1_555
N21 Si0 1.743797 1_565
N21 Si13 1.747510 1_555
N22 Si3 1.743797 1_545
N22 Si14 1.747510 1_555
N23 Si2 1.743797 1_555
N23 Si15 1.747510 1_555
N24 Si0 1.752954 1_555
N24 Si8 1.754259 1_555
N25 Si1 1.752954 1_555
N25 Si9 1.754259 1_555
N26 Si2 1.752954 1_555
N26 Si10 1.754259 1_555
N27 Si3 1.752954 1_555
N27 Si11 1.754259 1_555
N28 Si4 1.752954 1_555
N28 Si12 1.754259 1_555
N29 Si5 1.752954 1_555
N29 Si13 1.754259 1_555
N30 Si6 1.752954 1_555
N30 Si14 1.754259 1_555
N31 Si7 1.752954 1_555
N31 Si15 1.754259 1_555
