# generated using pymatgen
data_AlCr4(CuO4)3
_symmetry_space_group_name_H-M   'P 1'
_cell_length_a   6.34671913
_cell_length_b   6.34671913
_cell_length_c   6.34671913
_cell_angle_alpha   109.47122063
_cell_angle_beta   109.47122063
_cell_angle_gamma   109.47122063
_symmetry_Int_Tables_number   1
_chemical_formula_structural   AlCr4(CuO4)3
_chemical_formula_sum   'Al1 Cr4 Cu3 O12'
_cell_volume   196.80038687
_cell_formula_units_Z   1
loop_
 _symmetry_equiv_pos_site_id
 _symmetry_equiv_pos_as_xyz
  1  'x, y, z'
loop_
 _atom_site_type_symbol
 _atom_site_label
 _atom_site_symmetry_multiplicity
 _atom_site_fract_x
 _atom_site_fract_y
 _atom_site_fract_z
 _atom_site_occupancy
  Al  Al0  1  0.00000000  0.00000000  0.00000000  1
  Cr  Cr0  1  0.00000000  0.00000000  0.50000000  1
  Cr  Cr1  1  0.00000000  0.50000000  0.00000000  1
  Cr  Cr2  1  0.50000000  0.00000000  0.00000000  1
  Cr  Cr3  1  0.50000000  0.50000000  0.50000000  1
  Cu  Cu0  1  0.00000000  0.50000000  0.50000000  1
  Cu  Cu1  1  0.50000000  0.00000000  0.50000000  1
  Cu  Cu2  1  0.50000000  0.50000000  0.00000000  1
  O  O0  1  0.30295900  0.13877300  0.83581400  1
  O  O1  1  0.69704100  0.86122700  0.16418600  1
  O  O2  1  0.69704100  0.53285500  0.83581400  1
  O  O3  1  0.46714500  0.16418600  0.30295900  1
  O  O4  1  0.16418600  0.30295900  0.46714500  1
  O  O5  1  0.83581400  0.30295900  0.13877300  1
  O  O6  1  0.86122700  0.16418600  0.69704100  1
  O  O7  1  0.83581400  0.69704100  0.53285500  1
  O  O8  1  0.30295900  0.46714500  0.16418600  1
  O  O9  1  0.53285500  0.83581400  0.69704100  1
  O  O10  1  0.16418600  0.69704100  0.86122700  1
  O  O11  1  0.13877300  0.83581400  0.30295900  1
loop_
_geom_bond_atom_site_label_1
_geom_bond_atom_site_label_2
_geom_bond_distance
_geom_bond_site_symmetry_2
Al0 O9 2.525337 1_444
Al0 O10 2.525337 1_544
Al0 O1 2.525337 1_445
Al0 O8 2.525337 1_555
Al0 O0 2.525337 1_554
Al0 O3 2.525337 1_555
Al0 O11 2.525337 1_545
Al0 O2 2.525337 1_444
Al0 O5 2.525337 1_455
Al0 O6 2.525337 1_454
Al0 O4 2.525337 1_555
Al0 O7 2.525337 1_444
Cr0 O4 1.975570 1_555
Cr0 O7 1.975570 1_445
Cr0 O1 1.975570 1_445
Cr0 O0 1.975570 1_555
Cr0 O6 1.975570 1_455
Cr0 O11 1.975570 1_545
Cr1 O6 1.975570 1_454
Cr1 O11 1.975570 1_555
Cr1 O2 1.975570 1_454
Cr1 O8 1.975570 1_555
Cr1 O10 1.975570 1_554
Cr1 O5 1.975570 1_455
Cr2 O5 1.975570 1_555
Cr2 O9 1.975570 1_544
Cr2 O10 1.975570 1_544
Cr2 O3 1.975570 1_555
Cr2 O1 1.975570 1_545
Cr2 O0 1.975570 1_554
Cr3 O7 1.975570 1_555
Cr3 O9 1.975570 1_555
Cr3 O2 1.975570 1_555
Cr3 O8 1.975570 1_555
Cr3 O3 1.975570 1_555
Cr3 O4 1.975570 1_555
Cu0 O5 1.879632 1_455
Cu0 O10 1.879632 1_555
Cu0 O4 1.879632 1_555
Cu0 O7 1.879632 1_455
Cu1 O3 1.879632 1_555
Cu1 O6 1.879632 1_555
Cu1 O11 1.879632 1_545
Cu1 O9 1.879632 1_545
Cu2 O0 1.879632 1_554
Cu2 O1 1.879632 1_555
Cu2 O8 1.879632 1_555
Cu2 O2 1.879632 1_554
