# generated using pymatgen
data_NaSi2BO7
_symmetry_space_group_name_H-M   'P 1'
_cell_length_a   4.95336198
_cell_length_b   7.22164700
_cell_length_c   8.17830028
_cell_angle_alpha   90.00000000
_cell_angle_beta   93.35210048
_cell_angle_gamma   90.00000000
_symmetry_Int_Tables_number   1
_chemical_formula_structural   NaSi2BO7
_chemical_formula_sum   'Na2 Si4 B2 O14'
_cell_volume   292.04897492
_cell_formula_units_Z   2
loop_
 _symmetry_equiv_pos_site_id
 _symmetry_equiv_pos_as_xyz
  1  'x, y, z'
loop_
 _atom_site_type_symbol
 _atom_site_label
 _atom_site_symmetry_multiplicity
 _atom_site_fract_x
 _atom_site_fract_y
 _atom_site_fract_z
 _atom_site_occupancy
  Na  Na0  1  0.98600300  0.49578000  0.44206100  1
  Na  Na1  1  0.01399700  0.99578000  0.55793900  1
  Si  Si0  1  0.21266200  0.90803100  0.13262400  1
  Si  Si1  1  0.78733800  0.40803100  0.86737600  1
  Si  Si2  1  0.30518700  0.48462400  0.08085600  1
  Si  Si3  1  0.69481300  0.98462400  0.91914400  1
  B  B0  1  0.38297800  0.20277900  0.33909600  1
  B  B1  1  0.61702200  0.70277900  0.66090400  1
  O  O0  1  0.24695500  0.68568700  0.16429500  1
  O  O1  1  0.75304500  0.18568700  0.83570500  1
  O  O2  1  0.89581800  0.95164200  0.08149900  1
  O  O3  1  0.10418200  0.45164200  0.91850100  1
  O  O4  1  0.25678600  0.33224700  0.22014900  1
  O  O5  1  0.74321400  0.83224700  0.77985100  1
  O  O6  1  0.30078100  0.01191200  0.30331400  1
  O  O7  1  0.69921900  0.51191200  0.69668600  1
  O  O8  1  0.61317500  0.47901800  0.01948700  1
  O  O9  1  0.38682500  0.97901800  0.98051300  1
  O  O10  1  0.67094200  0.22383200  0.37977800  1
  O  O11  1  0.32905800  0.72383200  0.62022200  1
  O  O12  1  0.67631600  0.74955000  0.49387400  1
  O  O13  1  0.32368400  0.24955000  0.50612600  1
loop_
_geom_bond_atom_site_label_1
_geom_bond_atom_site_label_2
_geom_bond_distance
_geom_bond_site_symmetry_2
Na0 O12 2.442798 1_555
Na0 O13 2.476238 1_655
Na0 O10 2.541447 1_555
Na0 O7 2.591109 1_555
Na0 O4 2.602336 1_655
Na0 O11 2.726411 1_655
Na0 O0 3.009225 1_655
Na1 O13 2.442798 1_565
Na1 O12 2.476238 1_455
Na1 O11 2.541447 1_555
Na1 O6 2.591109 1_565
Na1 O5 2.602336 1_455
Na1 O10 2.726411 1_465
Na1 O1 3.009225 1_465
B0 O10 1.453582 1_555
B0 O13 1.453712 1_555
B0 O6 1.461981 1_555
B0 O4 1.462905 1_555
B1 O11 1.453582 1_555
B1 O12 1.453712 1_555
B1 O7 1.461981 1_555
B1 O5 1.462905 1_555
O0 Si0 1.633719 1_555
O0 Si2 1.637130 1_555
O1 Si1 1.633719 1_555
O1 Si3 1.637130 1_545
O2 Si3 1.629869 1_554
O2 Si0 1.631080 1_655
O3 Si2 1.629869 1_556
O3 Si1 1.631080 1_455
O4 Si2 1.611849 1_555
O5 Si3 1.611849 1_555
O6 Si0 1.621956 1_545
O7 Si1 1.621956 1_555
O8 Si2 1.634154 1_555
O8 Si1 1.637102 1_554
O9 Si3 1.634154 1_555
O9 Si0 1.637102 1_556
