# generated using pymatgen
data_SrLaCuSe3
_symmetry_space_group_name_H-M   'P 1'
_cell_length_a   4.29568800
_cell_length_b   8.56572500
_cell_length_c   16.61380800
_cell_angle_alpha   90.00000000
_cell_angle_beta   90.00000000
_cell_angle_gamma   90.00000000
_symmetry_Int_Tables_number   1
_chemical_formula_structural   SrLaCuSe3
_chemical_formula_sum   'Sr4 La4 Cu4 Se12'
_cell_volume   611.31639754
_cell_formula_units_Z   4
loop_
 _symmetry_equiv_pos_site_id
 _symmetry_equiv_pos_as_xyz
  1  'x, y, z'
loop_
 _atom_site_type_symbol
 _atom_site_label
 _atom_site_symmetry_multiplicity
 _atom_site_fract_x
 _atom_site_fract_y
 _atom_site_fract_z
 _atom_site_occupancy
  Sr  Sr0  1  0.25000000  0.09068100  0.21555100  1
  Sr  Sr1  1  0.25000000  0.59068100  0.28444900  1
  Sr  Sr2  1  0.75000000  0.90931900  0.78444900  1
  Sr  Sr3  1  0.75000000  0.40931900  0.71555100  1
  La  La0  1  0.25000000  0.25836700  0.95979200  1
  La  La1  1  0.25000000  0.75836700  0.54020800  1
  La  La2  1  0.75000000  0.74163300  0.04020800  1
  La  La3  1  0.75000000  0.24163300  0.45979200  1
  Cu  Cu0  1  0.25000000  0.12197600  0.63420200  1
  Cu  Cu1  1  0.25000000  0.62197600  0.86579800  1
  Cu  Cu2  1  0.75000000  0.87802400  0.36579800  1
  Cu  Cu3  1  0.75000000  0.37802400  0.13420200  1
  Se  Se0  1  0.25000000  0.37724700  0.56383900  1
  Se  Se1  1  0.25000000  0.87724700  0.93616100  1
  Se  Se2  1  0.75000000  0.62275300  0.43616100  1
  Se  Se3  1  0.75000000  0.12275300  0.06383900  1
  Se  Se4  1  0.25000000  0.17812100  0.78123700  1
  Se  Se5  1  0.25000000  0.67812100  0.71876300  1
  Se  Se6  1  0.75000000  0.82187900  0.21876300  1
  Se  Se7  1  0.75000000  0.32187900  0.28123700  1
  Se  Se8  1  0.25000000  0.00834800  0.40318500  1
  Se  Se9  1  0.25000000  0.50834800  0.09681500  1
  Se  Se10  1  0.75000000  0.99165200  0.59681500  1
  Se  Se11  1  0.75000000  0.49165200  0.90318500  1
loop_
_geom_bond_atom_site_label_1
_geom_bond_atom_site_label_2
_geom_bond_distance
_geom_bond_site_symmetry_2
La0 Se3 2.991779 1_556
La0 Se3 2.991779 1_456
La0 Se4 3.045072 1_555
La0 Se11 3.080701 1_555
La0 Se11 3.080701 1_455
La0 Se9 3.125278 1_556
La0 Se1 3.288092 1_545
La1 Se2 2.991779 1_555
La1 Se2 2.991779 1_455
La1 Se5 3.045072 1_555
La1 Se10 3.080701 1_555
La1 Se10 3.080701 1_455
La1 Se8 3.125278 1_565
La1 Se0 3.288092 1_555
La2 Se1 2.991779 1_654
La2 Se1 2.991779 1_554
La2 Se6 3.045072 1_555
La2 Se9 3.080701 1_555
La2 Se9 3.080701 1_655
La2 Se11 3.125278 1_554
La2 Se3 3.288092 1_565
La3 Se0 2.991779 1_555
La3 Se0 2.991779 1_655
La3 Se7 3.045072 1_555
La3 Se8 3.080701 1_655
La3 Se8 3.080701 1_555
La3 Se10 3.125278 1_545
La3 Se2 3.288092 1_555
Cu0 Se0 2.479454 1_555
Cu0 Se4 2.489701 1_555
Cu0 Se10 2.499044 1_445
Cu0 Se10 2.499044 1_545
Cu1 Se1 2.479454 1_555
Cu1 Se5 2.489701 1_555
Cu1 Se11 2.499044 1_555
Cu1 Se11 2.499044 1_455
Cu2 Se2 2.479454 1_555
Cu2 Se6 2.489701 1_555
Cu2 Se8 2.499044 1_565
Cu2 Se8 2.499044 1_665
Cu3 Se3 2.479454 1_555
Cu3 Se7 2.489701 1_555
Cu3 Se9 2.499044 1_655
Cu3 Se9 2.499044 1_555
Se0 Sr3 3.322905 1_555
Se0 Sr3 3.322905 1_455
Se1 Sr2 3.322905 1_455
Se1 Sr2 3.322905 1_555
Se2 Sr1 3.322905 1_555
Se2 Sr1 3.322905 1_655
Se3 Sr0 3.322905 1_655
Se3 Sr0 3.322905 1_555
Se4 Sr3 3.118663 1_455
Se4 Sr3 3.118663 1_555
Se4 Sr2 3.149208 1_545
Se4 Sr2 3.149208 1_445
Se5 Sr2 3.118663 1_555
Se5 Sr2 3.118663 1_455
Se5 Sr3 3.149208 1_455
Se5 Sr3 3.149208 1_555
Se6 Sr1 3.118663 1_555
Se6 Sr1 3.118663 1_655
Se6 Sr0 3.149208 1_565
Se6 Sr0 3.149208 1_665
Se7 Sr0 3.118663 1_555
Se7 Sr0 3.118663 1_655
Se7 Sr1 3.149208 1_555
Se7 Sr1 3.149208 1_655
Se8 Sr0 3.196095 1_555
Se9 Sr1 3.196095 1_555
Se10 Sr2 3.196095 1_555
Se11 Sr3 3.196095 1_555
