# generated using pymatgen
data_BaCaFe4O7
_symmetry_space_group_name_H-M   'P 1'
_cell_length_a   6.59081992
_cell_length_b   6.45646073
_cell_length_c   10.49199085
_cell_angle_alpha   89.59599097
_cell_angle_beta   90.79156536
_cell_angle_gamma   120.69081107
_symmetry_Int_Tables_number   1
_chemical_formula_structural   BaCaFe4O7
_chemical_formula_sum   'Ba2 Ca2 Fe8 O14'
_cell_volume   383.89778542
_cell_formula_units_Z   2
loop_
 _symmetry_equiv_pos_site_id
 _symmetry_equiv_pos_as_xyz
  1  'x, y, z'
loop_
 _atom_site_type_symbol
 _atom_site_label
 _atom_site_symmetry_multiplicity
 _atom_site_fract_x
 _atom_site_fract_y
 _atom_site_fract_z
 _atom_site_occupancy
  Ba  Ba0  1  0.67233900  0.33525600  0.99691900  1
  Ba  Ba1  1  0.33708300  0.66474400  0.49691900  1
  Ca  Ca0  1  0.66835100  0.33173500  0.62108400  1
  Ca  Ca1  1  0.33661600  0.66826500  0.12108400  1
  Fe  Fe0  1  0.99826100  0.99735300  0.05626600  1
  Fe  Fe1  1  0.00090700  0.00264700  0.55626600  1
  Fe  Fe2  1  0.14529700  0.80546600  0.81454800  1
  Fe  Fe3  1  0.63000300  0.84235600  0.82467800  1
  Fe  Fe4  1  0.20085900  0.33873700  0.81372500  1
  Fe  Fe5  1  0.33983100  0.19453400  0.31454800  1
  Fe  Fe6  1  0.78764800  0.15764400  0.32467800  1
  Fe  Fe7  1  0.86212300  0.66126300  0.31372500  1
  O  O0  1  0.51038400  0.51853000  0.74558700  1
  O  O1  1  0.01067200  0.47576800  0.75940000  1
  O  O2  1  0.46082400  0.99906900  0.76043300  1
  O  O3  1  0.99185300  0.48147000  0.24558700  1
  O  O4  1  0.53490400  0.52423200  0.25940000  1
  O  O5  1  0.46175500  0.00093100  0.26043300  1
  O  O6  1  0.09761700  0.76881800  0.99275800  1
  O  O7  1  0.67901100  0.92659100  0.00610300  1
  O  O8  1  0.25292700  0.32848600  0.99167700  1
  O  O9  1  0.32880000  0.23118200  0.49275800  1
  O  O10  1  0.75242000  0.07340900  0.50610300  1
  O  O11  1  0.92444100  0.67151400  0.49167700  1
  O  O12  1  0.00930700  0.00334400  0.25882100  1
  O  O13  1  0.00596400  0.99665600  0.75882100  1
loop_
_geom_bond_atom_site_label_1
_geom_bond_atom_site_label_2
_geom_bond_distance
_geom_bond_site_symmetry_2
Ba0 O7 2.662291 1_546
Ba0 O8 2.742008 1_555
Ba0 O6 2.772449 1_655
Ba0 O2 3.114916 1_545
Ba0 O3 3.160126 1_556
Ba0 O1 3.172117 1_655
Ba0 O0 3.265087 1_555
Ba0 O4 3.337350 1_556
Ba0 O5 3.345646 1_556
Ba1 O10 2.662291 1_565
Ba1 O11 2.742008 1_455
Ba1 O9 2.772452 1_555
Ba1 O5 3.114916 1_565
Ba1 O0 3.160130 1_555
Ba1 O4 3.172117 1_555
Ba1 O3 3.265090 1_455
Ba1 O1 3.337350 1_555
Ba1 O2 3.345646 1_555
Ca0 O10 2.352525 1_555
Ca0 O0 2.363561 1_555
Ca0 O2 2.373541 1_545
Ca0 O9 2.385056 1_555
Ca0 O11 2.397167 1_555
Ca0 O1 2.418248 1_655
Ca1 O7 2.352525 1_555
Ca1 O3 2.363566 1_455
Ca1 O5 2.373541 1_565
Ca1 O6 2.385061 1_554
Ca1 O8 2.397167 1_554
Ca1 O4 2.418248 1_555
Fe0 O7 1.975988 1_555
Fe0 O6 2.015500 1_654
Fe0 O8 2.048203 1_664
Fe0 O12 2.125395 1_665
Fe1 O10 1.975981 1_455
Fe1 O9 2.015510 1_555
Fe1 O11 2.048205 1_445
Fe1 O13 2.125395 1_545
Fe2 O2 1.891710 1_555
Fe2 O6 1.893383 1_555
Fe2 O1 1.930929 1_555
Fe2 O13 1.959872 1_555
Fe3 O7 1.960038 1_556
Fe3 O2 1.960280 1_555
Fe3 O0 2.001307 1_555
Fe3 O13 2.264407 1_655
Fe4 O8 1.900484 1_555
Fe4 O0 1.905649 1_555
Fe4 O1 1.945275 1_555
Fe4 O13 1.990304 1_545
Fe5 O5 1.891710 1_555
Fe5 O9 1.893383 1_555
Fe5 O4 1.930929 1_555
Fe5 O12 1.959877 1_555
Fe6 O10 1.960038 1_555
Fe6 O5 1.960285 1_555
Fe6 O3 2.001305 1_555
Fe6 O12 2.264395 1_655
Fe7 O11 1.900483 1_555
Fe7 O3 1.905639 1_555
Fe7 O4 1.945281 1_555
Fe7 O12 1.990305 1_665
