# generated using pymatgen
data_Sm(Al3Fe)3
_symmetry_space_group_name_H-M   'P 1'
_cell_length_a   6.76972904
_cell_length_b   6.76973290
_cell_length_c   6.68995233
_cell_angle_alpha   82.28354510
_cell_angle_beta   82.28340346
_cell_angle_gamma   136.31332982
_symmetry_Int_Tables_number   1
_chemical_formula_structural   Sm(Al3Fe)3
_chemical_formula_sum   'Sm1 Al9 Fe3'
_cell_volume   197.49933522
_cell_formula_units_Z   1
loop_
 _symmetry_equiv_pos_site_id
 _symmetry_equiv_pos_as_xyz
  1  'x, y, z'
loop_
 _atom_site_type_symbol
 _atom_site_label
 _atom_site_symmetry_multiplicity
 _atom_site_fract_x
 _atom_site_fract_y
 _atom_site_fract_z
 _atom_site_occupancy
  Sm  Sm0  1  -0.00000000  -0.00000000  0.00000000  1
  Al  Al0  1  0.28901112  0.51517965  0.21631021  1
  Al  Al1  1  0.71098888  0.48482035  0.78368979  1
  Al  Al2  1  0.48480821  0.71097682  0.78368982  1
  Al  Al3  1  0.51519179  0.28902318  0.21631018  1
  Al  Al4  1  0.35450150  0.99937394  0.66058378  1
  Al  Al5  1  0.64549850  0.00062606  0.33941622  1
  Al  Al6  1  0.00062109  0.64549040  0.33941776  1
  Al  Al7  1  0.99937891  0.35450960  0.66058224  1
  Al  Al8  1  -0.00000000  -0.00000000  0.50000000  1
  Fe  Fe0  1  0.50000000  0.50000000  0.50000000  1
  Fe  Fe1  1  -0.00000000  0.50000000  0.00000000  1
  Fe  Fe2  1  0.50000000  -0.00000000  0.00000000  1
loop_
_geom_bond_atom_site_label_1
_geom_bond_atom_site_label_2
_geom_bond_distance
_geom_bond_site_symmetry_2
Al0 Fe2 2.509176 1_565
Al0 Fe1 2.538141 1_555
Al0 Fe0 2.557441 1_555
Al0 Al8 2.636298 1_555
Al0 Al5 2.663222 1_565
Al0 Al2 2.699803 1_554
Al0 Al6 2.742670 1_555
Al0 Al3 2.842349 1_555
Al0 Al5 2.847743 1_455
Al0 Al7 2.888556 1_455
Al0 Sm0 3.168624 1_665
Al0 Sm0 3.214435 1_555
Al1 Fe2 2.509176 1_556
Al1 Fe1 2.538141 1_656
Al1 Fe0 2.557441 1_555
Al1 Al8 2.636298 1_665
Al1 Al4 2.663222 1_545
Al1 Al3 2.699803 1_556
Al1 Al7 2.742670 1_555
Al1 Al2 2.842349 1_555
Al1 Al4 2.847743 1_655
Al1 Al6 2.888556 1_655
Al1 Sm0 3.168624 1_556
Al1 Sm0 3.214435 1_666
Al2 Fe1 2.509142 1_556
Al2 Fe2 2.538170 1_566
Al2 Fe0 2.557411 1_555
Al2 Al8 2.636325 1_665
Al2 Al7 2.663149 1_455
Al2 Al4 2.742690 1_555
Al2 Al7 2.847836 1_565
Al2 Al5 2.888564 1_565
Al2 Sm0 3.168580 1_556
Al2 Sm0 3.214483 1_666
Al3 Fe1 2.509142 1_655
Al3 Fe2 2.538170 1_555
Al3 Fe0 2.557411 1_555
Al3 Al8 2.636325 1_555
Al3 Al6 2.663149 1_655
Al3 Al5 2.742690 1_555
Al3 Al6 2.847836 1_545
Al3 Al4 2.888564 1_545
Al3 Sm0 3.168580 1_665
Al3 Sm0 3.214483 1_555
Al4 Fe2 2.592946 1_566
Al4 Fe1 2.661882 1_556
Al4 Al5 2.707695 1_565
Al4 Fe0 2.742357 1_565
Al4 Al8 2.760327 1_565
Al4 Sm0 3.077224 1_566
Al5 Fe2 2.592946 1_555
Al5 Fe1 2.661882 1_655
Al5 Fe0 2.742357 1_545
Al5 Al8 2.760327 1_655
Al5 Sm0 3.077224 1_655
Al6 Fe1 2.592932 1_555
Al6 Fe2 2.661894 1_565
Al6 Al7 2.707659 1_455
Al6 Fe0 2.742352 1_455
Al6 Al8 2.760352 1_565
Al6 Sm0 3.077251 1_565
Al7 Fe1 2.592932 1_656
Al7 Fe2 2.661894 1_556
Al7 Fe0 2.742352 1_655
Al7 Al8 2.760352 1_655
Al7 Sm0 3.077251 1_656
Al8 Fe0 2.518814 1_555
Al8 Fe0 2.518814 1_445
Al8 Sm0 3.344976 1_556
Al8 Sm0 3.344976 1_555
Fe0 Sm0 3.384113 1_556
Fe0 Sm0 3.384113 1_665
Fe1 Fe2 2.518814 1_565
Fe1 Fe2 2.518814 1_455
Fe1 Sm0 3.384866 1_555
Fe1 Sm0 3.384866 1_565
Fe2 Sm0 3.384865 1_555
Fe2 Sm0 3.384865 1_655
