# generated using pymatgen
data_NdCu4Pd
_symmetry_space_group_name_H-M   'P 1'
_cell_length_a   5.23124199
_cell_length_b   5.23124199
_cell_length_c   5.23124187
_cell_angle_alpha   56.59432339
_cell_angle_beta   56.59432339
_cell_angle_gamma   56.59433031
_symmetry_Int_Tables_number   1
_chemical_formula_structural   NdCu4Pd
_chemical_formula_sum   'Nd1 Cu4 Pd1'
_cell_volume   93.26291285
_cell_formula_units_Z   1
loop_
 _symmetry_equiv_pos_site_id
 _symmetry_equiv_pos_as_xyz
  1  'x, y, z'
loop_
 _atom_site_type_symbol
 _atom_site_label
 _atom_site_symmetry_multiplicity
 _atom_site_fract_x
 _atom_site_fract_y
 _atom_site_fract_z
 _atom_site_occupancy
  Nd  Nd0  1  0.99975255  0.99975255  0.99975255  1
  Cu  Cu0  1  0.63161955  0.13345070  0.63161955  1
  Cu  Cu1  1  0.13345070  0.63161955  0.63161955  1
  Cu  Cu2  1  0.63161955  0.63161955  0.13345070  1
  Cu  Cu3  1  0.22493459  0.22493459  0.22493459  1
  Pd  Pd0  1  0.62862206  0.62862206  0.62862206  1
loop_
_geom_bond_atom_site_label_1
_geom_bond_atom_site_label_2
_geom_bond_distance
_geom_bond_site_symmetry_2
Nd0 Pd0 2.906187 1_556
Nd0 Pd0 2.906187 1_655
Nd0 Pd0 2.906187 1_565
Cu0 Cu2 2.470760 1_555
Cu0 Cu1 2.470760 1_555
Cu0 Cu2 2.488924 1_546
Cu0 Cu1 2.488924 1_645
Cu0 Pd0 2.573185 1_555
Cu0 Pd0 2.658234 1_545
Cu0 Cu3 2.762628 1_655
Cu0 Cu3 2.762628 1_556
Cu0 Nd0 3.003998 1_545
Cu0 Nd0 3.029360 1_445
Cu0 Nd0 3.029360 1_544
Cu1 Cu2 2.470760 1_555
Cu1 Cu2 2.488924 1_456
Cu1 Pd0 2.573185 1_555
Cu1 Pd0 2.658234 1_455
Cu1 Cu3 2.762628 1_565
Cu1 Cu3 2.762628 1_556
Cu1 Nd0 3.003998 1_455
Cu1 Nd0 3.029360 1_445
Cu1 Nd0 3.029360 1_454
Cu2 Pd0 2.573185 1_555
Cu2 Pd0 2.658234 1_554
Cu2 Cu3 2.762628 1_655
Cu2 Cu3 2.762628 1_565
Cu2 Nd0 3.003998 1_554
Cu2 Nd0 3.029360 1_454
Cu2 Nd0 3.029360 1_544
Cu3 Nd0 2.957504 1_444
Cu3 Pd0 3.008870 1_554
Cu3 Pd0 3.008871 1_545
Cu3 Pd0 3.008871 1_455
Cu3 Nd0 3.196426 1_445
Cu3 Nd0 3.196427 1_454
Cu3 Nd0 3.196427 1_544
