# generated using pymatgen
data_Li9Mn2Co5O16
_symmetry_space_group_name_H-M   'P 1'
_cell_length_a   5.86906600
_cell_length_b   5.87822514
_cell_length_c   9.73201792
_cell_angle_alpha   91.98808591
_cell_angle_beta   98.28127604
_cell_angle_gamma   119.23559345
_symmetry_Int_Tables_number   1
_chemical_formula_structural   Li9Mn2Co5O16
_chemical_formula_sum   'Li9 Mn2 Co5 O16'
_cell_volume   287.77533844
_cell_formula_units_Z   1
loop_
 _symmetry_equiv_pos_site_id
 _symmetry_equiv_pos_as_xyz
  1  'x, y, z'
loop_
 _atom_site_type_symbol
 _atom_site_label
 _atom_site_symmetry_multiplicity
 _atom_site_fract_x
 _atom_site_fract_y
 _atom_site_fract_z
 _atom_site_occupancy
  Li  Li0  1  0.25177200  0.13585100  0.74196500  1
  Li  Li1  1  0.99567600  0.24362500  0.50216800  1
  Li  Li2  1  0.74907400  0.37528600  0.25138400  1
  Li  Li3  1  0.50429000  0.50307200  0.99809000  1
  Li  Li4  1  0.25202100  0.62570700  0.74757500  1
  Li  Li5  1  0.99737400  0.74745300  0.50135900  1
  Li  Li6  1  0.74696800  0.86778900  0.25867000  1
  Li  Li7  1  0.50145000  0.00304100  0.99625600  1
  Li  Li8  1  0.74887600  0.62238200  0.74909700  1
  Mn  Mn0  1  0.99566600  0.99817400  0.99579100  1
  Mn  Mn1  1  0.99770400  0.50374400  0.99514400  1
  Co  Co0  1  0.50640600  0.25502400  0.50792600  1
  Co  Co1  1  0.24948200  0.87932800  0.25375000  1
  Co  Co2  1  0.75241000  0.12987100  0.75045500  1
  Co  Co3  1  0.50906400  0.74753800  0.50799000  1
  Co  Co4  1  0.25474600  0.38018300  0.25228300  1
  O  O0  1  0.11183100  0.79972300  0.89042000  1
  O  O1  1  0.84854800  0.94058900  0.62919600  1
  O  O2  1  0.60514500  0.05311700  0.37865400  1
  O  O3  1  0.35009700  0.18378500  0.12646400  1
  O  O4  1  0.10741800  0.32556200  0.86912600  1
  O  O5  1  0.85363400  0.39912500  0.63427900  1
  O  O6  1  0.61674900  0.55159600  0.38061700  1
  O  O7  1  0.34724700  0.67958900  0.12303600  1
  O  O8  1  0.37742300  0.42872600  0.61286000  1
  O  O9  1  0.15042500  0.56928700  0.37342600  1
  O  O10  1  0.87898700  0.66819800  0.11926700  1
  O  O11  1  0.65567500  0.85096800  0.86823000  1
  O  O12  1  0.40096300  0.95116600  0.63382900  1
  O  O13  1  0.13174900  0.05977600  0.36512700  1
  O  O14  1  0.89602900  0.20765800  0.11148700  1
  O  O15  1  0.65509800  0.31307200  0.87407400  1
loop_
_geom_bond_atom_site_label_1
_geom_bond_atom_site_label_2
_geom_bond_distance
_geom_bond_site_symmetry_2
Li0 O12 2.041441 1_545
Li0 O8 2.064757 1_555
Li0 O4 2.149888 1_555
Li0 O1 2.152569 1_445
Li0 O15 2.227827 1_555
Li0 O0 2.370777 1_545
Li1 O5 2.038403 1_555
Li1 O8 2.050937 1_655
Li1 O1 2.098765 1_545
Li1 O2 2.134993 1_555
Li1 O13 2.152745 1_655
Li1 O9 2.203451 1_655
Li2 O6 2.058203 1_555
Li2 O10 2.086336 1_555
Li2 O14 2.154940 1_555
Li2 O2 2.176146 1_555
Li2 O9 2.176224 1_655
Li2 O3 2.176822 1_555
Li3 O10 2.063366 1_556
Li3 O7 2.138746 1_556
Li3 O15 2.160386 1_555
Li3 O3 2.175234 1_556
Li3 O4 2.186871 1_555
Li3 O11 2.301441 1_555
Li4 O4 2.050322 1_555
Li4 O12 2.107534 1_555
Li4 O5 2.137796 1_455
Li4 O8 2.146237 1_555
Li4 O0 2.169981 1_555
Li4 O11 2.184306 1_555
Li5 O6 2.081911 1_555
Li5 O9 2.145807 1_655
Li5 O1 2.187086 1_555
Li5 O13 2.192277 1_665
Li5 O12 2.224689 1_655
Li5 O5 2.321283 1_555
Li6 O13 2.049962 1_665
Li6 O2 2.078603 1_565
Li6 O6 2.115170 1_555
Li6 O10 2.213088 1_555
Li6 O7 2.222929 1_555
Li6 O14 2.379219 1_565
Li7 O11 2.051526 1_545
Li7 O0 2.069983 1_545
Li7 O15 2.098166 1_555
Li7 O14 2.122443 1_556
Li7 O3 2.162494 1_556
Li7 O7 2.181749 1_546
Li8 O5 2.057479 1_555
Li8 O11 2.059479 1_555
Li8 O0 2.098456 1_655
Li8 O8 2.108318 1_555
Li8 O15 2.111129 1_555
Li8 O1 2.117027 1_555
Mn0 O0 1.942294 1_655
Mn0 O11 1.948564 1_555
Mn0 O14 1.980638 1_566
Mn0 O3 2.014830 1_666
Mn0 O10 2.185542 1_556
Mn0 O4 2.194961 1_665
Mn1 O0 1.922429 1_655
Mn1 O10 1.923154 1_556
Mn1 O15 1.926704 1_555
Mn1 O4 1.952665 1_655
Mn1 O7 1.982436 1_656
Mn1 O14 1.996033 1_556
Co0 O8 1.887826 1_555
Co0 O5 1.975429 1_555
Co0 O2 2.026194 1_555
Co0 O6 2.066835 1_555
Co0 O12 2.089304 1_545
Co0 O13 2.151180 1_555
Co1 O13 1.905092 1_565
Co1 O2 1.994599 1_565
Co1 O7 2.022557 1_555
Co1 O9 2.079262 1_555
Co1 O10 2.100689 1_455
Co1 O3 2.101986 1_565
Co2 O5 1.880289 1_555
Co2 O15 1.908423 1_555
Co2 O1 1.913872 1_545
Co2 O11 1.931975 1_545
Co2 O12 1.942339 1_545
Co2 O4 1.967680 1_655
Co3 O1 1.915870 1_555
Co3 O8 2.023890 1_555
Co3 O6 2.024929 1_555
Co3 O12 2.049146 1_555
Co3 O9 2.049340 1_555
Co3 O2 2.121506 1_565
Co4 O9 1.944811 1_555
Co4 O3 1.968682 1_555
Co4 O6 2.036252 1_555
Co4 O13 2.078041 1_555
Co4 O14 2.079769 1_455
Co4 O7 2.095564 1_555
