# generated using pymatgen
data_Ba3Sr(CO2)8
_symmetry_space_group_name_H-M   'P 1'
_cell_length_a   6.08613805
_cell_length_b   10.44104325
_cell_length_c   7.93326758
_cell_angle_alpha   103.48129443
_cell_angle_beta   110.16730650
_cell_angle_gamma   90.99689632
_symmetry_Int_Tables_number   1
_chemical_formula_structural   Ba3Sr(CO2)8
_chemical_formula_sum   'Ba3 Sr1 C8 O16'
_cell_volume   457.53031509
_cell_formula_units_Z   1
loop_
 _symmetry_equiv_pos_site_id
 _symmetry_equiv_pos_as_xyz
  1  'x, y, z'
loop_
 _atom_site_type_symbol
 _atom_site_label
 _atom_site_symmetry_multiplicity
 _atom_site_fract_x
 _atom_site_fract_y
 _atom_site_fract_z
 _atom_site_occupancy
  Ba  Ba0  1  0.08246500  0.33026500  0.75006500  1
  Ba  Ba1  1  0.91949300  0.67056100  0.25009000  1
  Ba  Ba2  1  0.41849800  0.16728800  0.24994800  1
  Sr  Sr0  1  0.55770400  0.80975600  0.74978500  1
  C  C0  1  0.36354300  0.50293500  0.46977600  1
  C  C1  1  0.86569200  0.00005900  0.46814300  1
  C  C2  1  0.83560300  0.19814800  0.03199100  1
  C  C3  1  0.33531100  0.69905600  0.03005200  1
  C  C4  1  0.14033100  0.99826600  0.53536900  1
  C  C5  1  0.63661900  0.50262700  0.53403500  1
  C  C6  1  0.66441500  0.30180800  0.96818300  1
  C  C7  1  0.16363000  0.80236800  0.96244100  1
  O  O0  1  0.23486600  0.39688500  0.37182800  1
  O  O1  1  0.73653600  0.89383200  0.36873100  1
  O  O2  1  0.29043000  0.63064700  0.12851500  1
  O  O3  1  0.78971100  0.13020100  0.13088200  1
  O  O4  1  0.26546400  0.10660800  0.62829900  1
  O  O5  1  0.76148100  0.61074500  0.63207600  1
  O  O6  1  0.22079600  0.87081600  0.86871800  1
  O  O7  1  0.71113200  0.37105400  0.87074700  1
  O  O8  1  0.28838200  0.61276000  0.52269700  1
  O  O9  1  0.79104600  0.10991600  0.51881500  1
  O  O10  1  0.51154000  0.69004800  0.97760400  1
  O  O11  1  0.01222300  0.19039100  0.98085600  1
  O  O12  1  0.21920200  0.88813400  0.49082900  1
  O  O13  1  0.71371500  0.39403800  0.48258600  1
  O  O14  1  0.98089900  0.81001700  0.00586800  1
  O  O15  1  0.48927600  0.31077100  0.02107100  1
loop_
_geom_bond_atom_site_label_1
_geom_bond_atom_site_label_2
_geom_bond_distance
_geom_bond_site_symmetry_2
Ba0 O15 2.710173 1_556
Ba0 O4 2.721654 1_555
Ba0 O13 2.722125 1_455
Ba0 O11 2.726286 1_555
Ba0 O9 2.729639 1_455
Ba0 O7 2.746058 1_455
Ba1 O1 2.711110 1_555
Ba1 O8 2.718383 1_655
Ba1 O10 2.720437 1_554
Ba1 O2 2.747226 1_655
Ba1 O12 2.750663 1_655
Ba1 O14 2.794515 1_555
Ba2 O11 2.711199 1_554
Ba2 O9 2.712516 1_555
Ba2 O3 2.734555 1_555
Ba2 O15 2.740800 1_555
Ba2 O0 2.772777 1_555
Ba2 O13 2.787066 1_555
C0 O0 1.261835 1_555
C0 O8 1.275389 1_555
C1 O1 1.266644 1_545
C1 O9 1.269930 1_555
C2 O3 1.265109 1_555
C2 O11 1.270825 1_654
C3 O2 1.263101 1_555
C3 O10 1.274882 1_554
C4 O4 1.263795 1_565
C4 O12 1.274457 1_555
C5 O13 1.267683 1_555
C5 O5 1.268856 1_555
C6 O7 1.267298 1_555
C6 O15 1.270641 1_556
C7 O6 1.265746 1_555
C7 O14 1.271356 1_456
O5 Sr0 2.590612 1_555
O6 Sr0 2.569073 1_555
O8 Sr0 2.506344 1_555
O10 Sr0 2.509743 1_555
O12 Sr0 2.656810 1_555
O14 Sr0 2.674009 1_554
