# generated using pymatgen
data_Mg2MnCr3S8
_symmetry_space_group_name_H-M   'P 1'
_cell_length_a   7.23641786
_cell_length_b   7.23755473
_cell_length_c   7.23318869
_cell_angle_alpha   60.14825993
_cell_angle_beta   60.18084682
_cell_angle_gamma   60.14080522
_symmetry_Int_Tables_number   1
_chemical_formula_structural   Mg2MnCr3S8
_chemical_formula_sum   'Mg2 Mn1 Cr3 S8'
_cell_volume   268.82413321
_cell_formula_units_Z   1
loop_
 _symmetry_equiv_pos_site_id
 _symmetry_equiv_pos_as_xyz
  1  'x, y, z'
loop_
 _atom_site_type_symbol
 _atom_site_label
 _atom_site_symmetry_multiplicity
 _atom_site_fract_x
 _atom_site_fract_y
 _atom_site_fract_z
 _atom_site_occupancy
  Mg  Mg0  1  0.87572043  0.87592330  0.87573359  1
  Mg  Mg1  1  0.12424955  0.12413684  0.12425984  1
  Mn  Mn0  1  0.49992537  0.50017202  0.49987052  1
  Cr  Cr0  1  0.50006113  0.49990662  0.00001578  1
  Cr  Cr1  1  0.00006165  0.49996576  0.49996955  1
  Cr  Cr2  1  0.49999017  0.99987611  0.50015112  1
  S  S0  1  0.73663350  0.73666497  0.73666281  1
  S  S1  1  0.26030277  0.26036372  0.71153620  1
  S  S2  1  0.26049833  0.71134882  0.26061293  1
  S  S3  1  0.71126431  0.26047402  0.26058035  1
  S  S4  1  0.73947189  0.28873686  0.73931098  1
  S  S5  1  0.28868932  0.73949351  0.73947360  1
  S  S6  1  0.26340090  0.26328771  0.26336921  1
  S  S7  1  0.73973470  0.73964475  0.28845453  1
loop_
_geom_bond_atom_site_label_1
_geom_bond_atom_site_label_2
_geom_bond_distance
_geom_bond_site_symmetry_2
Mg0 S7 2.442691 1_556
Mg0 S4 2.443740 1_565
Mg0 S5 2.445067 1_655
Mg0 S0 2.463147 1_555
Mg1 S1 2.442707 1_554
Mg1 S2 2.443590 1_545
Mg1 S3 2.445165 1_455
Mg1 S6 2.463120 1_555
Mn0 S2 2.458631 1_555
Mn0 S4 2.460112 1_555
Mn0 S5 2.461244 1_555
Mn0 S3 2.461529 1_555
Mn0 S7 2.463960 1_555
Mn0 S1 2.464618 1_555
Cr0 S3 2.422215 1_555
Cr0 S5 2.422919 1_554
Cr0 S4 2.424206 1_554
Cr0 S2 2.424954 1_555
Cr0 S6 2.433657 1_555
Cr0 S0 2.433904 1_554
Cr1 S1 2.422390 1_555
Cr1 S7 2.422607 1_455
Cr1 S2 2.424661 1_555
Cr1 S4 2.424736 1_455
Cr1 S6 2.432920 1_555
Cr1 S0 2.433521 1_455
Cr2 S5 2.423909 1_555
Cr2 S1 2.424182 1_565
Cr2 S7 2.424316 1_555
Cr2 S3 2.424952 1_565
Cr2 S0 2.430840 1_555
Cr2 S6 2.431999 1_565
