# generated using pymatgen
data_KTeIO9
_symmetry_space_group_name_H-M   'P 1'
_cell_length_a   7.01042000
_cell_length_b   8.64164300
_cell_length_c   14.10497500
_cell_angle_alpha   90.00000000
_cell_angle_beta   90.00000000
_cell_angle_gamma   90.00000000
_symmetry_Int_Tables_number   1
_chemical_formula_structural   KTeIO9
_chemical_formula_sum   'K4 Te4 I4 O36'
_cell_volume   854.50120477
_cell_formula_units_Z   4
loop_
 _symmetry_equiv_pos_site_id
 _symmetry_equiv_pos_as_xyz
  1  'x, y, z'
loop_
 _atom_site_type_symbol
 _atom_site_label
 _atom_site_symmetry_multiplicity
 _atom_site_fract_x
 _atom_site_fract_y
 _atom_site_fract_z
 _atom_site_occupancy
  K  K0  1  0.00632800  0.21197800  0.41125300  1
  K  K1  1  0.50632800  0.78802200  0.58874700  1
  K  K2  1  0.50632800  0.28802200  0.91125300  1
  K  K3  1  0.00632800  0.71197800  0.08874700  1
  Te  Te0  1  0.98680200  0.71522600  0.41484900  1
  Te  Te1  1  0.48680200  0.28477400  0.58515100  1
  Te  Te2  1  0.48680200  0.78477400  0.91484900  1
  Te  Te3  1  0.98680200  0.21522600  0.08515100  1
  I  I0  1  0.01001900  0.86717200  0.74574500  1
  I  I1  1  0.51001900  0.13282800  0.25425500  1
  I  I2  1  0.51001900  0.63282800  0.24574500  1
  I  I3  1  0.01001900  0.36717200  0.75425500  1
  O  O0  1  0.93580200  0.51237300  0.36747900  1
  O  O1  1  0.43580200  0.48762700  0.63252100  1
  O  O2  1  0.43580200  0.98762700  0.86747900  1
  O  O3  1  0.93580200  0.01237300  0.13252100  1
  O  O4  1  0.05852100  0.91025900  0.46903800  1
  O  O5  1  0.55852100  0.08974100  0.53096200  1
  O  O6  1  0.55852100  0.58974100  0.96903800  1
  O  O7  1  0.05852100  0.41025900  0.03096200  1
  O  O8  1  0.35108600  0.86883600  0.02349700  1
  O  O9  1  0.85108600  0.13116400  0.97650300  1
  O  O10  1  0.85108600  0.63116400  0.52349700  1
  O  O11  1  0.35108600  0.36883600  0.47650300  1
  O  O12  1  0.15357900  0.77771300  0.30840000  1
  O  O13  1  0.65357900  0.22228700  0.69160000  1
  O  O14  1  0.65357900  0.72228700  0.80840000  1
  O  O15  1  0.15357900  0.27771300  0.19160000  1
  O  O16  1  0.25473700  0.68710500  0.45257600  1
  O  O17  1  0.75473700  0.31289500  0.54742400  1
  O  O18  1  0.75473700  0.81289500  0.95257600  1
  O  O19  1  0.25473700  0.18710500  0.04742400  1
  O  O20  1  0.23361900  0.71968600  0.87334900  1
  O  O21  1  0.73361900  0.28031400  0.12665100  1
  O  O22  1  0.73361900  0.78031400  0.37334900  1
  O  O23  1  0.23361900  0.21968600  0.62665100  1
  O  O24  1  0.52901600  0.83026900  0.19485500  1
  O  O25  1  0.02901600  0.16973100  0.80514500  1
  O  O26  1  0.02901600  0.66973100  0.69485500  1
  O  O27  1  0.52901600  0.33026900  0.30514500  1
  O  O28  1  0.27645300  0.57962300  0.19684100  1
  O  O29  1  0.77645300  0.42037700  0.80315900  1
  O  O30  1  0.77645300  0.92037700  0.69684100  1
  O  O31  1  0.27645300  0.07962300  0.30315900  1
  O  O32  1  0.67863700  0.55054000  0.15850300  1
  O  O33  1  0.17863700  0.44946000  0.84149700  1
  O  O34  1  0.17863700  0.94946000  0.65850300  1
  O  O35  1  0.67863700  0.05054000  0.34149700  1
loop_
_geom_bond_atom_site_label_1
_geom_bond_atom_site_label_2
_geom_bond_distance
_geom_bond_site_symmetry_2
K0 O31 2.686793 1_555
K0 O0 2.713743 1_455
K0 O17 2.749623 1_455
K0 O4 2.756167 1_545
K0 O35 2.862117 1_455
K0 O11 2.919906 1_555
K1 O30 2.686793 1_555
K1 O1 2.713743 1_555
K1 O16 2.749623 1_555
K1 O5 2.756167 1_565
K1 O34 2.862117 1_555
K1 O10 2.919906 1_555
K2 O29 2.686793 1_555
K2 O2 2.713743 1_545
K2 O19 2.749623 1_556
K2 O6 2.756167 1_555
K2 O33 2.862117 1_555
K2 O9 2.919906 1_555
K3 O28 2.686793 1_555
K3 O3 2.713743 1_465
K3 O18 2.749623 1_454
K3 O7 2.756167 1_555
K3 O32 2.862117 1_455
K3 O8 2.919906 1_555
I0 O30 1.835285 1_455
I0 O34 1.848576 1_555
I0 O26 1.855841 1_555
I1 O31 1.835285 1_555
I1 O35 1.848576 1_555
I1 O27 1.855841 1_555
I2 O28 1.835285 1_555
I2 O32 1.848576 1_555
I2 O24 1.855841 1_555
I3 O29 1.835285 1_455
I3 O33 1.848576 1_555
I3 O25 1.855841 1_555
O0 Te0 1.909766 1_555
O1 Te1 1.909766 1_555
O2 Te2 1.909766 1_555
O3 Te3 1.909766 1_555
O4 Te0 1.917704 1_455
O5 Te1 1.917704 1_555
O6 Te2 1.917704 1_555
O7 Te3 1.917704 1_455
O8 Te2 1.944583 1_554
O9 Te3 1.944583 1_556
O10 Te0 1.944583 1_555
O11 Te1 1.944583 1_555
O12 Te0 1.978117 1_455
O13 Te1 1.978117 1_555
O14 Te2 1.978117 1_555
O15 Te3 1.978117 1_455
O16 Te0 1.967327 1_455
O17 Te1 1.967327 1_555
O18 Te2 1.967327 1_555
O19 Te3 1.967327 1_455
O20 Te2 1.951756 1_555
O21 Te3 1.951756 1_555
O22 Te0 1.951756 1_555
O23 Te1 1.951756 1_555
