# generated using pymatgen
data_Zr5Ge4
_symmetry_space_group_name_H-M   'P 1'
_cell_length_a   7.25376080
_cell_length_b   7.25376080
_cell_length_c   13.21204157
_cell_angle_alpha   90.00000000
_cell_angle_beta   90.00000000
_cell_angle_gamma   90.00000000
_symmetry_Int_Tables_number   1
_chemical_formula_structural   Zr5Ge4
_chemical_formula_sum   'Zr20 Ge16'
_cell_volume   695.17859566
_cell_formula_units_Z   4
loop_
 _symmetry_equiv_pos_site_id
 _symmetry_equiv_pos_as_xyz
  1  'x, y, z'
loop_
 _atom_site_type_symbol
 _atom_site_label
 _atom_site_symmetry_multiplicity
 _atom_site_fract_x
 _atom_site_fract_y
 _atom_site_fract_z
 _atom_site_occupancy
  Zr  Zr0  1  0.82870581  0.17129319  0.75000000  1
  Zr  Zr1  1  0.17129319  0.82870581  0.25000000  1
  Zr  Zr2  1  0.67129419  0.67129419  0.50000000  1
  Zr  Zr3  1  0.32870681  0.32870681  0.00000000  1
  Zr  Zr4  1  0.99957432  0.34452410  0.53106406  1
  Zr  Zr5  1  0.00042568  0.65547590  0.03106406  1
  Zr  Zr6  1  0.84452410  0.50042568  0.28106406  1
  Zr  Zr7  1  0.15547590  0.49957432  0.78106406  1
  Zr  Zr8  1  0.65547590  0.00042568  0.96893594  1
  Zr  Zr9  1  0.34452410  0.99957432  0.46893594  1
  Zr  Zr10  1  0.50042568  0.84452410  0.71893594  1
  Zr  Zr11  1  0.49957432  0.15547590  0.21893594  1
  Zr  Zr12  1  0.50175109  0.34656056  0.62342545  1
  Zr  Zr13  1  0.49824891  0.65343944  0.12342545  1
  Zr  Zr14  1  0.84656056  0.99824891  0.37342545  1
  Zr  Zr15  1  0.15343944  0.00175109  0.87342545  1
  Zr  Zr16  1  0.65343944  0.49824891  0.87657455  1
  Zr  Zr17  1  0.34656056  0.50175109  0.37657455  1
  Zr  Zr18  1  0.99824891  0.84656056  0.62657455  1
  Zr  Zr19  1  0.00175109  0.15343944  0.12657455  1
  Ge  Ge0  1  0.64098258  0.29897665  0.42237949  1
  Ge  Ge1  1  0.35901742  0.70102335  0.92237949  1
  Ge  Ge2  1  0.79897665  0.85901742  0.17237949  1
  Ge  Ge3  1  0.20102335  0.14098258  0.67237949  1
  Ge  Ge4  1  0.70102335  0.35901742  0.07762051  1
  Ge  Ge5  1  0.29897665  0.64098258  0.57762051  1
  Ge  Ge6  1  0.85901742  0.79897665  0.82762051  1
  Ge  Ge7  1  0.14098258  0.20102335  0.32762051  1
  Ge  Ge8  1  0.69718138  0.03909506  0.56621981  1
  Ge  Ge9  1  0.30281862  0.96090494  0.06621981  1
  Ge  Ge10  1  0.53909506  0.80281862  0.31621981  1
  Ge  Ge11  1  0.46090494  0.19718138  0.81621981  1
  Ge  Ge12  1  0.96090494  0.30281862  0.93378019  1
  Ge  Ge13  1  0.03909506  0.69718138  0.43378019  1
  Ge  Ge14  1  0.80281862  0.53909506  0.68378019  1
  Ge  Ge15  1  0.19718138  0.46090494  0.18378019  1
loop_
_geom_bond_atom_site_label_1
_geom_bond_atom_site_label_2
_geom_bond_distance
_geom_bond_site_symmetry_2
Ge0 Zr17 2.662854 1_555
Ge0 Ge8 2.707668 1_555
Ge0 Zr14 2.720401 1_545
Ge0 Zr6 2.793045 1_555
Ge0 Zr12 2.862636 1_555
Ge0 Zr2 2.897212 1_555
Ge0 Zr4 2.989485 1_555
Ge0 Zr11 3.059492 1_555
Ge0 Zr9 3.117600 1_545
Ge1 Zr16 2.662854 1_555
Ge1 Ge9 2.707668 1_556
Ge1 Zr15 2.720401 1_565
Ge1 Zr7 2.793045 1_555
Ge1 Zr13 2.862636 1_556
Ge1 Zr3 2.897205 1_556
Ge1 Zr5 2.989485 1_556
Ge1 Zr10 3.059492 1_555
Ge1 Zr8 3.117600 1_565
Ge2 Zr19 2.662854 1_665
Ge2 Zr13 2.720401 1_555
Ge2 Zr5 2.793045 1_655
Ge2 Zr14 2.862636 1_555
Ge2 Zr1 2.897206 1_655
Ge2 Zr6 2.989485 1_555
Ge2 Zr8 3.059492 1_564
Ge2 Zr11 3.117600 1_565
Ge3 Zr18 2.662854 1_445
Ge3 Zr12 2.720401 1_555
Ge3 Zr4 2.793045 1_455
Ge3 Zr15 2.862636 1_555
Ge3 Zr0 2.897212 1_455
Ge3 Zr7 2.989485 1_555
Ge3 Zr9 3.059492 1_545
Ge3 Zr10 3.117600 1_545
Ge4 Zr13 2.662854 1_555
Ge4 Zr19 2.720401 1_655
Ge4 Zr11 2.793045 1_555
Ge4 Zr16 2.862636 1_554
Ge4 Zr3 2.897205 1_555
Ge4 Zr8 2.989485 1_554
Ge4 Zr6 3.059492 1_555
Ge4 Zr5 3.117600 1_655
Ge5 Zr12 2.662854 1_555
Ge5 Zr18 2.720401 1_455
Ge5 Zr10 2.793045 1_555
Ge5 Zr17 2.862636 1_555
Ge5 Zr2 2.897212 1_555
Ge5 Zr9 2.989485 1_555
Ge5 Zr7 3.059492 1_555
Ge5 Zr4 3.117600 1_455
Ge6 Zr15 2.662854 1_665
Ge6 Zr16 2.720401 1_555
Ge6 Zr8 2.793045 1_565
Ge6 Zr18 2.862636 1_555
Ge6 Zr0 2.897206 1_565
Ge6 Zr10 2.989485 1_555
Ge6 Zr5 3.059492 1_656
Ge6 Zr7 3.117600 1_655
Ge7 Zr14 2.662854 1_445
Ge7 Zr17 2.720401 1_555
Ge7 Zr9 2.793045 1_545
Ge7 Zr19 2.862636 1_555
Ge7 Zr1 2.897212 1_545
Ge7 Zr11 2.989485 1_555
Ge7 Zr4 3.059492 1_455
Ge7 Zr6 3.117600 1_455
Ge8 Zr18 2.712130 1_545
Ge8 Zr12 2.748635 1_555
Ge8 Zr0 2.779476 1_555
Ge8 Zr14 2.783910 1_545
Ge8 Zr2 2.814003 1_545
Ge8 Zr10 2.846050 1_545
Ge8 Zr9 2.877161 1_545
Ge8 Zr4 3.152079 1_555
Ge9 Zr19 2.712130 1_565
Ge9 Zr13 2.748635 1_555
Ge9 Zr1 2.779481 1_555
Ge9 Zr15 2.783910 1_564
Ge9 Zr3 2.814010 1_565
Ge9 Zr11 2.846050 1_565
Ge9 Zr8 2.877161 1_564
Ge9 Zr5 3.152079 1_555
Ge10 Ge2 2.707668 1_555
Ge10 Zr17 2.712130 1_555
Ge10 Zr14 2.748635 1_555
Ge10 Zr2 2.779478 1_555
Ge10 Zr13 2.783910 1_555
Ge10 Zr1 2.814009 1_555
Ge10 Zr9 2.846050 1_555
Ge10 Zr11 2.877161 1_565
Ge10 Zr6 3.152079 1_555
Ge11 Ge3 2.707668 1_555
Ge11 Zr16 2.712130 1_555
Ge11 Zr15 2.748635 1_555
Ge11 Zr3 2.779478 1_556
Ge11 Zr12 2.783910 1_555
Ge11 Zr0 2.814003 1_555
Ge11 Zr8 2.846050 1_555
Ge11 Zr10 2.877161 1_545
Ge11 Zr7 3.152079 1_555
Ge12 Ge4 2.707668 1_556
Ge12 Zr15 2.712130 1_655
Ge12 Zr16 2.748635 1_555
Ge12 Zr0 2.779481 1_555
Ge12 Zr19 2.783910 1_656
Ge12 Zr3 2.814010 1_656
Ge12 Zr7 2.846050 1_655
Ge12 Zr5 2.877161 1_656
Ge12 Zr8 3.152079 1_555
Ge13 Ge5 2.707668 1_555
Ge13 Zr14 2.712130 1_455
Ge13 Zr17 2.748635 1_555
Ge13 Zr1 2.779476 1_555
Ge13 Zr18 2.783910 1_455
Ge13 Zr2 2.814003 1_455
Ge13 Zr6 2.846050 1_455
Ge13 Zr4 2.877161 1_455
Ge13 Zr9 3.152079 1_555
Ge14 Ge6 2.707668 1_555
Ge14 Zr12 2.712130 1_555
Ge14 Zr18 2.748635 1_555
Ge14 Zr2 2.779478 1_555
Ge14 Zr16 2.783910 1_555
Ge14 Zr0 2.814009 1_555
Ge14 Zr4 2.846050 1_555
Ge14 Zr7 2.877161 1_655
Ge14 Zr10 3.152079 1_555
Ge15 Ge7 2.707668 1_555
Ge15 Zr13 2.712130 1_555
Ge15 Zr19 2.748635 1_555
Ge15 Zr3 2.779478 1_555
Ge15 Zr17 2.783910 1_555
Ge15 Zr1 2.814003 1_555
Ge15 Zr5 2.846050 1_555
Ge15 Zr6 2.877161 1_455
Ge15 Zr11 3.152079 1_555
