# generated using pymatgen
data_Li7Mn4CoO12
_symmetry_space_group_name_H-M   'P 1'
_cell_length_a   5.01227800
_cell_length_b   5.01941778
_cell_length_c   9.84656688
_cell_angle_alpha   100.57416578
_cell_angle_beta   86.29787570
_cell_angle_gamma   118.42925828
_symmetry_Int_Tables_number   1
_chemical_formula_structural   Li7Mn4CoO12
_chemical_formula_sum   'Li7 Mn4 Co1 O12'
_cell_volume   214.07851221
_cell_formula_units_Z   1
loop_
 _symmetry_equiv_pos_site_id
 _symmetry_equiv_pos_as_xyz
  1  'x, y, z'
loop_
 _atom_site_type_symbol
 _atom_site_label
 _atom_site_symmetry_multiplicity
 _atom_site_fract_x
 _atom_site_fract_y
 _atom_site_fract_z
 _atom_site_occupancy
  Li  Li0  1  0.99647900  0.24782600  0.75424700  1
  Li  Li1  1  0.34062600  0.42857200  0.24783300  1
  Li  Li2  1  0.66505400  0.58967700  0.75158600  1
  Li  Li3  1  0.33927500  0.91580700  0.75160700  1
  Li  Li4  1  0.66110200  0.07409000  0.24565300  1
  Li  Li5  1  0.00003700  0.74595400  0.24874400  1
  Li  Li6  1  0.33323400  0.66667600  0.00008000  1
  Mn  Mn0  1  0.00100100  0.99894700  0.99968300  1
  Mn  Mn1  1  0.66591800  0.33420000  0.99990200  1
  Mn  Mn2  1  0.33589300  0.16306800  0.49993100  1
  Mn  Mn3  1  0.99715500  0.50329500  0.50030100  1
  Co  Co0  1  0.66645000  0.83325500  0.49998000  1
  O  O0  1  0.68793500  0.98439700  0.88768000  1
  O  O1  1  0.99162900  0.12216100  0.39421600  1
  O  O2  1  0.32457900  0.26604300  0.88881900  1
  O  O3  1  0.96986800  0.62062100  0.88892500  1
  O  O4  1  0.35884300  0.81379000  0.37940500  1
  O  O5  1  0.68805100  0.48714000  0.38232200  1
  O  O6  1  0.34238200  0.54620900  0.60869900  1
  O  O7  1  0.69745600  0.71191500  0.11023500  1
  O  O8  1  0.97437100  0.85054200  0.61779200  1
  O  O9  1  0.64315200  0.17953200  0.61724700  1
  O  O10  1  0.97823300  0.34783400  0.11356900  1
  O  O11  1  0.34127800  0.06844900  0.11154200  1
loop_
_geom_bond_atom_site_label_1
_geom_bond_atom_site_label_2
_geom_bond_distance
_geom_bond_site_symmetry_2
Li0 O0 2.072307 1_545
Li0 O2 2.135981 1_655
Li0 O3 2.140534 1_555
Li0 O8 2.149328 1_545
Li0 O9 2.152758 1_555
Li0 O6 2.301623 1_655
Li1 O11 2.045278 1_555
Li1 O4 2.086440 1_555
Li1 O5 2.130728 1_555
Li1 O10 2.150341 1_455
Li1 O7 2.242662 1_555
Li1 O1 2.330090 1_455
Li2 O3 2.037370 1_555
Li2 O8 2.071278 1_555
Li2 O6 2.118498 1_555
Li2 O0 2.136208 1_555
Li2 O9 2.191827 1_555
Li2 O2 2.290283 1_555
Li3 O2 2.039615 1_565
Li3 O9 2.070089 1_565
Li3 O6 2.118619 1_555
Li3 O0 2.127905 1_555
Li3 O8 2.184257 1_455
Li3 O3 2.291656 1_455
Li4 O4 2.055716 1_545
Li4 O10 2.101297 1_555
Li4 O7 2.123754 1_545
Li4 O11 2.128567 1_555
Li4 O1 2.178428 1_555
Li4 O5 2.204653 1_555
Li5 O7 2.030825 1_455
Li5 O5 2.071282 1_455
Li5 O4 2.135536 1_555
Li5 O10 2.147443 1_455
Li5 O1 2.166708 1_465
Li5 O11 2.288865 1_565
Li6 O7 2.081198 1_555
Li6 O3 2.081381 1_454
Li6 O2 2.088180 1_554
Li6 O11 2.095014 1_565
Li6 O0 2.150135 1_554
Li6 O10 2.159710 1_455
Mn0 O0 1.941317 1_455
Mn0 O11 1.943921 1_566
Mn0 O10 1.946865 1_466
Mn0 O3 1.949250 1_455
Mn0 O7 1.962166 1_456
Mn0 O2 1.964090 1_565
Mn1 O0 1.942353 1_545
Mn1 O7 1.944376 1_556
Mn1 O2 1.946167 1_555
Mn1 O10 1.950387 1_556
Mn1 O3 1.964209 1_555
Mn1 O11 1.968750 1_556
Mn2 O9 1.945907 1_555
Mn2 O4 1.976369 1_545
Mn2 O1 1.979739 1_455
Mn2 O6 2.008874 1_555
Mn2 O8 2.186599 1_445
Mn2 O5 2.190036 1_555
Mn3 O8 1.954941 1_555
Mn3 O5 1.958240 1_555
Mn3 O1 1.992887 1_555
Mn3 O6 1.994758 1_655
Mn3 O9 2.189229 1_555
Mn3 O4 2.201043 1_655
Co0 O5 1.948411 1_555
Co0 O8 1.949878 1_555
Co0 O9 1.951204 1_565
Co0 O4 1.961295 1_555
Co0 O1 1.982066 1_565
Co0 O6 1.993368 1_555
