# generated using pymatgen
data_Ag2C4I3N
_symmetry_space_group_name_H-M   'P 1'
_cell_length_a   7.45925400
_cell_length_b   9.24827600
_cell_length_c   17.11885000
_cell_angle_alpha   90.00000000
_cell_angle_beta   90.00000000
_cell_angle_gamma   90.00000000
_symmetry_Int_Tables_number   1
_chemical_formula_structural   Ag2C4I3N
_chemical_formula_sum   'Ag8 C16 I12 N4'
_cell_volume   1180.94797143
_cell_formula_units_Z   4
loop_
 _symmetry_equiv_pos_site_id
 _symmetry_equiv_pos_as_xyz
  1  'x, y, z'
loop_
 _atom_site_type_symbol
 _atom_site_label
 _atom_site_symmetry_multiplicity
 _atom_site_fract_x
 _atom_site_fract_y
 _atom_site_fract_z
 _atom_site_occupancy
  Ag  Ag0  1  0.54480400  0.53122200  0.41797600  1
  Ag  Ag1  1  0.95519600  0.96877800  0.91797600  1
  Ag  Ag2  1  0.04480400  0.46877800  0.58202400  1
  Ag  Ag3  1  0.45519600  0.03122200  0.08202400  1
  Ag  Ag4  1  0.45519600  0.46877800  0.58202400  1
  Ag  Ag5  1  0.04480400  0.03122200  0.08202400  1
  Ag  Ag6  1  0.95519600  0.53122200  0.41797600  1
  Ag  Ag7  1  0.54480400  0.96877800  0.91797600  1
  C  C0  1  0.25000000  0.90130200  0.54311500  1
  C  C1  1  0.25000000  0.59869800  0.04311500  1
  C  C2  1  0.75000000  0.09869800  0.45688500  1
  C  C3  1  0.75000000  0.40130200  0.95688500  1
  C  C4  1  0.25000000  0.03212500  0.72373000  1
  C  C5  1  0.25000000  0.46787500  0.22373000  1
  C  C6  1  0.75000000  0.96787500  0.27627000  1
  C  C7  1  0.75000000  0.53212500  0.77627000  1
  C  C8  1  0.37838600  0.89083600  0.60237200  1
  C  C9  1  0.12161400  0.60916400  0.10237200  1
  C  C10  1  0.87838600  0.10916400  0.39762800  1
  C  C11  1  0.62161400  0.39083600  0.89762800  1
  C  C12  1  0.62161400  0.10916400  0.39762800  1
  C  C13  1  0.87838600  0.39083600  0.89762800  1
  C  C14  1  0.12161400  0.89083600  0.60237200  1
  C  C15  1  0.37838600  0.60916400  0.10237200  1
  I  I0  1  0.75000000  0.54222600  0.28450900  1
  I  I1  1  0.75000000  0.95777400  0.78450900  1
  I  I2  1  0.25000000  0.45777400  0.71549100  1
  I  I3  1  0.25000000  0.04222600  0.21549100  1
  I  I4  1  0.75000000  0.64985700  0.55346300  1
  I  I5  1  0.75000000  0.85014300  0.05346300  1
  I  I6  1  0.25000000  0.35014300  0.44653700  1
  I  I7  1  0.25000000  0.14985700  0.94653700  1
  I  I8  1  0.25000000  0.86019100  0.42550100  1
  I  I9  1  0.25000000  0.63980900  0.92550100  1
  I  I10  1  0.75000000  0.13980900  0.57449900  1
  I  I11  1  0.75000000  0.36019100  0.07449900  1
  N  N0  1  0.25000000  0.95195900  0.66682600  1
  N  N1  1  0.25000000  0.54804100  0.16682600  1
  N  N2  1  0.75000000  0.04804100  0.33317400  1
  N  N3  1  0.75000000  0.45195900  0.83317400  1
loop_
_geom_bond_atom_site_label_1
_geom_bond_atom_site_label_2
_geom_bond_distance
_geom_bond_site_symmetry_2
Ag0 I0 2.751988 1_555
Ag0 I6 2.807000 1_555
Ag0 I4 2.987654 1_555
Ag1 I1 2.751988 1_555
Ag1 I7 2.807000 1_665
Ag1 I5 2.987654 1_556
Ag2 I2 2.751988 1_555
Ag2 I4 2.807000 1_455
Ag2 I6 2.987654 1_555
Ag3 I3 2.751988 1_555
Ag3 I5 2.807000 1_545
Ag3 I7 2.987654 1_554
Ag4 I2 2.751988 1_555
Ag4 I4 2.807000 1_555
Ag4 I6 2.987654 1_555
Ag5 I3 2.751988 1_555
Ag5 I5 2.807000 1_445
Ag5 I7 2.987654 1_554
Ag6 I0 2.751988 1_555
Ag6 I6 2.807000 1_655
Ag6 I4 2.987654 1_555
Ag7 I1 2.751988 1_555
Ag7 I7 2.807000 1_565
Ag7 I5 2.987654 1_556
C0 C14 1.398399 1_555
C0 C8 1.398399 1_555
C0 I8 2.049000 1_555
C1 C15 1.398399 1_555
C1 C9 1.398399 1_555
C1 I9 2.049000 1_554
C2 I10 2.049000 1_555
C3 I11 2.049000 1_556
C4 N0 1.224174 1_545
C5 N1 1.224174 1_555
C6 N2 1.224174 1_565
C7 N3 1.224174 1_555
C8 N0 1.566559 1_555
C9 N1 1.566559 1_555
C10 C2 1.398399 1_555
C10 N2 1.566559 1_555
C11 C3 1.398399 1_555
C11 N3 1.566559 1_555
C12 C2 1.398399 1_555
C12 N2 1.566559 1_555
C13 C3 1.398399 1_555
C13 N3 1.566559 1_555
C14 N0 1.566559 1_555
C15 N1 1.566559 1_555
