# generated using pymatgen
data_BaV4O9
_symmetry_space_group_name_H-M   'P 1'
_cell_length_a   4.90648692
_cell_length_b   7.86737790
_cell_length_c   9.40848390
_cell_angle_alpha   68.01130200
_cell_angle_beta   90.00000000
_cell_angle_gamma   90.00000000
_symmetry_Int_Tables_number   1
_chemical_formula_structural   BaV4O9
_chemical_formula_sum   'Ba2 V8 O18'
_cell_volume   336.76020507
_cell_formula_units_Z   2
loop_
 _symmetry_equiv_pos_site_id
 _symmetry_equiv_pos_as_xyz
  1  'x, y, z'
loop_
 _atom_site_type_symbol
 _atom_site_label
 _atom_site_symmetry_multiplicity
 _atom_site_fract_x
 _atom_site_fract_y
 _atom_site_fract_z
 _atom_site_occupancy
  Ba  Ba0  1  0.34463286  0.00000000  0.25000000  1
  Ba  Ba1  1  0.65536714  0.00000000  0.75000000  1
  V  V0  1  0.75356701  0.69626075  0.15124547  1
  V  V1  1  0.75356701  0.30373925  0.34875453  1
  V  V2  1  0.24643299  0.30373925  0.84875453  1
  V  V3  1  0.24643299  0.69626075  0.65124547  1
  V  V4  1  0.24551985  0.55181876  0.05068235  1
  V  V5  1  0.24551985  0.44818124  0.44931765  1
  V  V6  1  0.75448015  0.44818124  0.94931765  1
  V  V7  1  0.75448015  0.55181876  0.55068235  1
  O  O0  1  0.03800480  0.50000000  0.25000000  1
  O  O1  1  0.96199520  0.50000000  0.75000000  1
  O  O2  1  0.90719069  0.67620144  0.96938305  1
  O  O3  1  0.90719069  0.32379856  0.53061695  1
  O  O4  1  0.09280931  0.32379856  0.03061695  1
  O  O5  1  0.09280931  0.67620144  0.46938305  1
  O  O6  1  0.41790004  0.58936572  0.85064481  1
  O  O7  1  0.41790004  0.41063428  0.64935519  1
  O  O8  1  0.58209996  0.41063428  0.14935519  1
  O  O9  1  0.58209996  0.58936572  0.35064481  1
  O  O10  1  0.12906402  0.88916298  0.65495734  1
  O  O11  1  0.12906402  0.11083702  0.84504266  1
  O  O12  1  0.87093598  0.11083702  0.34504266  1
  O  O13  1  0.87093598  0.88916298  0.15495734  1
  O  O14  1  0.57215206  0.75934425  0.56219104  1
  O  O15  1  0.57215206  0.24065575  0.93780896  1
  O  O16  1  0.42784794  0.24065575  0.43780896  1
  O  O17  1  0.42784794  0.75934425  0.06219104  1
loop_
_geom_bond_atom_site_label_1
_geom_bond_atom_site_label_2
_geom_bond_distance
_geom_bond_site_symmetry_2
Ba0 O12 2.746952 1_455
Ba0 O13 2.746952 1_445
Ba0 O5 2.887725 1_545
Ba0 O4 2.887725 1_555
Ba0 O13 2.968529 1_545
Ba0 O12 2.968529 1_555
Ba0 O15 3.048574 1_554
Ba0 O14 3.048574 1_545
Ba0 O17 3.062508 1_545
Ba0 O16 3.062508 1_555
Ba0 O9 3.224940 1_545
Ba0 O8 3.224940 1_555
Ba1 O11 2.746952 1_655
Ba1 O10 2.746952 1_645
Ba1 O2 2.887725 1_545
Ba1 O3 2.887725 1_555
Ba1 O10 2.968529 1_545
Ba1 O11 2.968529 1_555
Ba1 O16 3.048574 1_555
Ba1 O17 3.048574 1_546
Ba1 O14 3.062508 1_545
Ba1 O15 3.062508 1_555
Ba1 O7 3.224940 1_555
Ba1 O6 3.224940 1_545
O0 V1 2.029963 1_455
O0 V0 2.029963 1_455
O0 V4 2.036427 1_555
O0 V5 2.036427 1_555
O1 V3 2.029963 1_655
O1 V2 2.029963 1_655
O1 V7 2.036427 1_555
O1 V6 2.036427 1_555
O2 V0 1.929494 1_556
O2 V4 1.933332 1_656
O2 V6 2.017129 1_555
O3 V1 1.929494 1_555
O3 V5 1.933332 1_655
O3 V7 2.017129 1_555
O4 V2 1.929494 1_554
O4 V6 1.933332 1_454
O4 V4 2.017129 1_555
O5 V3 1.929494 1_555
O5 V7 1.933332 1_455
O5 V5 2.017129 1_555
O6 V3 1.937295 1_555
O6 V4 1.982018 1_556
O6 V6 2.012619 1_555
O6 V2 2.405749 1_555
O7 V2 1.937295 1_555
O7 V5 1.982018 1_555
O7 V7 2.012619 1_555
O7 V3 2.405749 1_555
O8 V1 1.937295 1_555
O8 V6 1.982018 1_554
O8 V4 2.012619 1_555
O8 V0 2.405749 1_555
O9 V0 1.937295 1_555
O9 V7 1.982018 1_555
O9 V5 2.012619 1_555
O9 V1 2.405749 1_555
O10 V3 1.635772 1_555
O11 V2 1.635772 1_555
O12 V1 1.635772 1_555
O13 V0 1.635772 1_555
O14 V3 1.786331 1_555
O14 V7 1.900013 1_555
O15 V2 1.786331 1_555
O15 V6 1.900013 1_555
O16 V1 1.786331 1_555
O16 V5 1.900013 1_555
O17 V0 1.786331 1_555
O17 V4 1.900013 1_555
