# generated using pymatgen
data_LiIrO2
_symmetry_space_group_name_H-M   'P 1'
_cell_length_a   5.54626410
_cell_length_b   5.54626410
_cell_length_c   9.41359807
_cell_angle_alpha   83.95519040
_cell_angle_beta   83.95519040
_cell_angle_gamma   120.26699988
_symmetry_Int_Tables_number   1
_chemical_formula_structural   LiIrO2
_chemical_formula_sum   'Li6 Ir6 O12'
_cell_volume   244.44345100
_cell_formula_units_Z   6
loop_
 _symmetry_equiv_pos_site_id
 _symmetry_equiv_pos_as_xyz
  1  'x, y, z'
loop_
 _atom_site_type_symbol
 _atom_site_label
 _atom_site_symmetry_multiplicity
 _atom_site_fract_x
 _atom_site_fract_y
 _atom_site_fract_z
 _atom_site_occupancy
  Li  Li0  1  0.59118900  0.40881100  0.25000000  1
  Li  Li1  1  0.40881100  0.59118900  0.75000000  1
  Li  Li2  1  0.91688300  0.08311700  0.25000000  1
  Li  Li3  1  0.08311700  0.91688300  0.75000000  1
  Li  Li4  1  0.27136500  0.72863500  0.25000000  1
  Li  Li5  1  0.72863500  0.27136500  0.75000000  1
  Ir  Ir0  1  0.50000000  0.00000000  0.50000000  1
  Ir  Ir1  1  0.00000000  0.50000000  0.00000000  1
  Ir  Ir2  1  0.66777500  0.83441100  0.99821200  1
  Ir  Ir3  1  0.33222500  0.16558900  0.00178800  1
  Ir  Ir4  1  0.16558900  0.33222500  0.50178800  1
  Ir  Ir5  1  0.83441100  0.66777500  0.49821200  1
  O  O0  1  0.79246600  0.95724800  0.60709000  1
  O  O1  1  0.20753400  0.04275200  0.39291000  1
  O  O2  1  0.04275200  0.20753400  0.89291000  1
  O  O3  1  0.95724800  0.79246600  0.10709000  1
  O  O4  1  0.62858600  0.12557500  0.10807500  1
  O  O5  1  0.37141400  0.87442500  0.89192500  1
  O  O6  1  0.87442500  0.37141400  0.39192500  1
  O  O7  1  0.12557500  0.62858600  0.60807500  1
  O  O8  1  0.53806300  0.70590500  0.39208800  1
  O  O9  1  0.46193700  0.29409500  0.60791200  1
  O  O10  1  0.29409500  0.46193700  0.10791200  1
  O  O11  1  0.70590500  0.53806300  0.89208800  1
loop_
_geom_bond_atom_site_label_1
_geom_bond_atom_site_label_2
_geom_bond_distance
_geom_bond_site_symmetry_2
Li0 O1 2.219566 1_555
Li0 O3 2.219566 1_555
Li0 O6 2.237818 1_555
Li0 O4 2.237818 1_555
Li0 O8 2.337009 1_555
Li0 O10 2.337009 1_555
Li1 O2 2.219566 1_555
Li1 O0 2.219566 1_555
Li1 O5 2.237818 1_555
Li1 O7 2.237818 1_555
Li1 O11 2.337009 1_555
Li1 O9 2.337009 1_555
Li2 O8 2.228921 1_545
Li2 O10 2.228921 1_655
Li2 O6 2.271641 1_555
Li2 O4 2.271641 1_555
Li2 O1 2.283789 1_655
Li2 O3 2.283789 1_545
Li3 O9 2.228921 1_565
Li3 O11 2.228921 1_455
Li3 O5 2.271641 1_555
Li3 O7 2.271641 1_555
Li3 O0 2.283789 1_455
Li3 O2 2.283789 1_565
Li4 O10 2.135903 1_555
Li4 O8 2.135903 1_555
Li4 O6 2.232295 1_455
Li4 O4 2.232295 1_565
Li4 O3 2.446506 1_455
Li4 O1 2.446506 1_565
Li5 O9 2.135903 1_555
Li5 O11 2.135903 1_555
Li5 O5 2.232295 1_545
Li5 O7 2.232295 1_655
Li5 O0 2.446506 1_545
Li5 O2 2.446506 1_655
Ir0 O1 2.094149 1_555
Ir0 O0 2.094149 1_545
Ir0 O9 2.094757 1_555
Ir0 O8 2.094757 1_545
Ir0 O7 2.095787 1_545
Ir0 O6 2.095787 1_555
Ir1 O2 2.094149 1_554
Ir1 O3 2.094149 1_455
Ir1 O10 2.094757 1_555
Ir1 O11 2.094757 1_454
Ir1 O4 2.095787 1_455
Ir1 O5 2.095787 1_554
Ir2 O3 2.086883 1_556
Ir2 O4 2.093530 1_566
Ir2 O2 2.094195 1_665
Ir2 O11 2.096656 1_555
Ir2 O10 2.100806 1_556
Ir2 O5 2.102238 1_555
Ir3 O2 2.086883 1_554
Ir3 O5 2.093530 1_544
Ir3 O3 2.094195 1_445
Ir3 O10 2.096656 1_555
Ir3 O11 2.100806 1_554
Ir3 O4 2.102238 1_555
Ir4 O1 2.086883 1_555
Ir4 O6 2.093530 1_455
Ir4 O0 2.094195 1_445
Ir4 O9 2.096656 1_555
Ir4 O8 2.100806 1_555
Ir4 O7 2.102238 1_555
Ir5 O0 2.086883 1_555
Ir5 O7 2.093530 1_655
Ir5 O1 2.094195 1_665
Ir5 O8 2.096656 1_555
Ir5 O9 2.100806 1_555
Ir5 O6 2.102238 1_555
