# generated using pymatgen
data_MgZn3Cu2H14(SO9)2
_symmetry_space_group_name_H-M   'P 1'
_cell_length_a   5.55378514
_cell_length_b   6.79003977
_cell_length_c   10.72971321
_cell_angle_alpha   94.78692756
_cell_angle_beta   82.64069210
_cell_angle_gamma   86.26941791
_symmetry_Int_Tables_number   1
_chemical_formula_structural   MgZn3Cu2H14(SO9)2
_chemical_formula_sum   'Mg1 Zn3 Cu2 H14 S2 O18'
_cell_volume   398.71269281
_cell_formula_units_Z   1
loop_
 _symmetry_equiv_pos_site_id
 _symmetry_equiv_pos_as_xyz
  1  'x, y, z'
loop_
 _atom_site_type_symbol
 _atom_site_label
 _atom_site_symmetry_multiplicity
 _atom_site_fract_x
 _atom_site_fract_y
 _atom_site_fract_z
 _atom_site_occupancy
  Mg  Mg0  1  0.87497302  0.75212673  0.68235733  1
  Zn  Zn0  1  0.02436688  0.02708422  0.01285258  1
  Zn  Zn1  1  0.45749630  0.73393573  0.52674336  1
  Zn  Zn2  1  0.40482053  0.23212035  0.46089887  1
  Cu  Cu0  1  0.98155861  0.01887709  0.48847057  1
  Cu  Cu1  1  0.98155806  0.39006910  0.41408911  1
  H  H0  1  0.76016458  0.35859422  0.05708949  1
  H  H1  1  0.24964682  0.66577245  0.94099100  1
  H  H2  1  0.66274172  0.25338910  0.93423416  1
  H  H3  1  0.35153768  0.75265029  0.06866944  1
  H  H4  1  0.84919860  0.65584636  0.90368726  1
  H  H5  1  0.14130580  0.34577776  0.13523762  1
  H  H6  1  0.59703254  0.79020048  0.91306220  1
  H  H7  1  0.39525122  0.21539609  0.09233362  1
  H  H8  1  0.77692506  0.12078718  0.30125826  1
  H  H9  1  0.23598368  0.90481174  0.72643547  1
  H  H10  1  0.34290369  0.90291448  0.33289901  1
  H  H11  1  0.65119682  0.08760680  0.66766825  1
  H  H12  1  0.35177436  0.53144783  0.33637110  1
  H  H13  1  0.64404374  0.45800543  0.64193832  1
  S  S0  1  0.27270984  0.29905838  0.79035386  1
  S  S1  1  0.75126747  0.71353939  0.20511786  1
  O  O0  1  0.24607600  0.29822048  0.65401118  1
  O  O1  1  0.79024540  0.70097421  0.33765403  1
  O  O2  1  0.53898971  0.29406393  0.80246616  1
  O  O3  1  0.48348851  0.70647254  0.19505006  1
  O  O4  1  0.13858752  0.47433654  0.86498648  1
  O  O5  1  0.89022686  0.54854471  0.11935701  1
  O  O6  1  0.16941862  0.11498305  0.83835518  1
  O  O7  1  0.83302118  0.90877956  0.16366113  1
  O  O8  1  0.31769928  0.95207734  0.42302624  1
  O  O9  1  0.70460870  0.97175007  0.60698749  1
  O  O10  1  0.28678269  0.50908161  0.42318872  1
  O  O11  1  0.71848962  0.55096272  0.58659832  1
  O  O12  1  0.73518561  0.22701065  0.37003048  1
  O  O13  1  0.21734662  0.77854543  0.67843196  1
  O  O14  1  0.30380650  0.78883934  0.98516065  1
  O  O15  1  0.70840994  0.22907968  0.01975641  1
  O  O16  1  0.77342407  0.77710221  0.87552288  1
  O  O17  1  0.21906911  0.20916471  0.12299587  1
loop_
_geom_bond_atom_site_label_1
_geom_bond_atom_site_label_2
_geom_bond_distance
_geom_bond_site_symmetry_2
Mg0 O13 1.916943 1_655
Mg0 O11 1.955938 1_555
Mg0 O9 1.996683 1_555
Mg0 O16 2.066878 1_555
Cu0 O8 1.919577 1_645
Cu0 O9 1.927743 1_545
Cu1 O12 1.896589 1_555
Cu1 O10 1.934836 1_655
Cu1 O11 2.348659 1_555
Cu1 O1 2.545273 1_555
H0 O15 1.009967 1_555
H0 O5 1.653090 1_555
H1 O14 1.008211 1_555
H1 O4 1.670746 1_555
H2 O15 1.006516 1_556
H2 O2 1.684333 1_555
H3 O14 1.011254 1_554
H3 O3 1.664271 1_555
H4 O16 0.987582 1_555
H5 O17 0.988550 1_555
H6 O16 1.005704 1_555
H7 O17 0.996338 1_555
H8 O12 0.981862 1_555
H9 O13 0.981103 1_555
H10 O8 0.985676 1_555
H11 O9 0.982563 1_545
H12 O10 0.982700 1_555
H13 O11 0.977515 1_555
O0 S0 1.488690 1_555
O0 Zn2 2.144148 1_555
O1 S1 1.474160 1_555
O1 Zn1 2.547832 1_555
O2 S0 1.499506 1_555
O3 S1 1.508401 1_555
O4 S0 1.478283 1_555
O5 S1 1.493641 1_555
O6 S0 1.510496 1_555
O6 Zn0 2.091265 1_556
O7 S1 1.512110 1_555
O7 Zn0 2.068926 1_665
O8 Zn2 2.013974 1_565
O8 Zn1 2.093318 1_555
O9 Zn1 2.364605 1_555
O10 Zn2 2.040727 1_555
O10 Zn1 2.153975 1_555
O11 Zn1 2.048013 1_555
O12 Zn2 1.961124 1_555
O13 Zn1 1.956693 1_555
O14 Zn0 2.142125 1_566
O15 Zn0 2.145316 1_655
O17 Zn0 2.086136 1_555
