# generated using pymatgen
data_MnCd2TeO6
_symmetry_space_group_name_H-M   'P 1'
_cell_length_a   6.49680595
_cell_length_b   13.00810111
_cell_length_c   6.47878141
_cell_angle_alpha   90.23968821
_cell_angle_beta   90.78760363
_cell_angle_gamma   90.13322011
_symmetry_Int_Tables_number   1
_chemical_formula_structural   MnCd2TeO6
_chemical_formula_sum   'Mn4 Cd8 Te4 O24'
_cell_volume   547.47092482
_cell_formula_units_Z   4
loop_
 _symmetry_equiv_pos_site_id
 _symmetry_equiv_pos_as_xyz
  1  'x, y, z'
loop_
 _atom_site_type_symbol
 _atom_site_label
 _atom_site_symmetry_multiplicity
 _atom_site_fract_x
 _atom_site_fract_y
 _atom_site_fract_z
 _atom_site_occupancy
  Mn  Mn0  1  0.56442500  0.52595200  0.74658500  1
  Mn  Mn1  1  0.04861300  0.87471800  0.56222400  1
  Mn  Mn2  1  0.56444200  0.02605600  0.74647700  1
  Mn  Mn3  1  0.04873800  0.37463600  0.56223900  1
  Cd  Cd0  1  0.74909100  0.28285800  0.05201300  1
  Cd  Cd1  1  0.74909700  0.78285700  0.05200800  1
  Cd  Cd2  1  0.43794600  0.47531300  0.25373500  1
  Cd  Cd3  1  0.43793500  0.97530000  0.25371200  1
  Cd  Cd4  1  0.95140100  0.12584100  0.43797300  1
  Cd  Cd5  1  0.95137300  0.62583400  0.43799900  1
  Cd  Cd6  1  0.25275400  0.21780000  0.95064500  1
  Cd  Cd7  1  0.25274400  0.71780900  0.95062100  1
  Te  Te0  1  0.50191300  0.25259000  0.50681300  1
  Te  Te1  1  0.50191100  0.75259800  0.50683100  1
  Te  Te2  1  0.00043200  0.49807100  0.99458300  1
  Te  Te3  1  0.00042100  0.99809100  0.99457700  1
  O  O0  1  0.91578000  0.01777700  0.70431600  1
  O  O1  1  0.91576700  0.51769900  0.70422400  1
  O  O2  1  0.04168500  0.35476200  0.90826200  1
  O  O3  1  0.04167200  0.85477300  0.90825900  1
  O  O4  1  0.70835600  0.46429300  0.03275900  1
  O  O5  1  0.70835600  0.96431600  0.03274100  1
  O  O6  1  0.07458300  0.47004000  0.28484900  1
  O  O7  1  0.07457800  0.97005700  0.28483600  1
  O  O8  1  0.95801500  0.14200400  0.07785300  1
  O  O9  1  0.95799600  0.64198300  0.07785500  1
  O  O10  1  0.28854200  0.03550900  0.94445300  1
  O  O11  1  0.28854400  0.53550400  0.94445600  1
  O  O12  1  0.43742500  0.39624000  0.57836200  1
  O  O13  1  0.43739500  0.89626900  0.57852000  1
  O  O14  1  0.79096100  0.28562800  0.44455300  1
  O  O15  1  0.79092200  0.78562300  0.44446400  1
  O  O16  1  0.56524300  0.20999600  0.79207400  1
  O  O17  1  0.56524100  0.70999900  0.79208200  1
  O  O18  1  0.56410100  0.10739800  0.44504300  1
  O  O19  1  0.56411200  0.60739600  0.44504900  1
  O  O20  1  0.21004200  0.22628600  0.56583100  1
  O  O21  1  0.21003900  0.72629200  0.56583700  1
  O  O22  1  0.43868100  0.28691500  0.21718200  1
  O  O23  1  0.43872700  0.78691500  0.21710600  1
loop_
_geom_bond_atom_site_label_1
_geom_bond_atom_site_label_2
_geom_bond_distance
_geom_bond_site_symmetry_2
Mn0 O12 2.160796 1_555
Mn0 O4 2.218898 1_556
Mn0 O11 2.221315 1_555
Mn0 O19 2.226233 1_555
Mn0 O1 2.305478 1_555
Mn0 O17 2.410940 1_555
Mn1 O15 2.162537 1_455
Mn1 O7 2.195953 1_555
Mn1 O21 2.199388 1_555
Mn1 O0 2.251721 1_465
Mn1 O3 2.258979 1_555
Mn1 O13 2.541405 1_555
Mn2 O13 2.160816 1_545
Mn2 O5 2.219723 1_546
Mn2 O10 2.221745 1_555
Mn2 O18 2.225014 1_555
Mn2 O0 2.305297 1_555
Mn2 O16 2.409636 1_555
Mn3 O14 2.162200 1_455
Mn3 O6 2.196376 1_555
Mn3 O20 2.198139 1_555
Mn3 O1 2.251830 1_455
Mn3 O2 2.258817 1_555
Mn3 O12 2.540836 1_555
Cd0 O16 2.255483 1_554
Cd0 O8 2.288098 1_555
Cd0 O22 2.296564 1_555
Cd0 O2 2.324530 1_654
Cd0 O4 2.379128 1_555
Cd0 O14 2.554062 1_555
Cd1 O17 2.255426 1_554
Cd1 O9 2.288214 1_555
Cd1 O23 2.296115 1_555
Cd1 O3 2.324486 1_654
Cd1 O5 2.379447 1_555
Cd1 O15 2.553493 1_555
Cd2 O19 2.260071 1_555
Cd2 O4 2.285856 1_555
Cd2 O12 2.345141 1_555
Cd2 O11 2.352315 1_554
Cd2 O6 2.372906 1_555
Cd2 O22 2.461152 1_555
Cd3 O18 2.260278 1_565
Cd3 O5 2.285862 1_555
Cd3 O13 2.345955 1_555
Cd3 O10 2.352261 1_564
Cd3 O7 2.372863 1_555
Cd3 O23 2.461017 1_555
Cd4 O0 2.244315 1_555
Cd4 O20 2.271431 1_655
Cd4 O14 2.327902 1_555
Cd4 O8 2.344442 1_555
Cd4 O7 2.396627 1_645
Cd4 O18 2.528129 1_555
Cd5 O1 2.244295 1_555
Cd5 O21 2.271601 1_655
Cd5 O15 2.327942 1_555
Cd5 O9 2.344581 1_555
Cd5 O6 2.396845 1_655
Cd5 O19 2.527866 1_555
Cd6 O2 2.266065 1_555
Cd6 O22 2.274637 1_556
Cd6 O16 2.290154 1_555
Cd6 O8 2.315049 1_456
Cd6 O10 2.383394 1_555
Cd6 O20 2.507646 1_555
Cd7 O3 2.266081 1_555
Cd7 O23 2.274528 1_556
Cd7 O17 2.290108 1_555
Cd7 O9 2.315326 1_456
Cd7 O11 2.383580 1_555
Cd7 O21 2.507447 1_555
O0 Te3 1.969933 1_645
O1 Te2 1.970478 1_655
O2 Te2 1.964046 1_555
O3 Te3 1.964150 1_555
O4 Te2 1.965937 1_654
O5 Te3 1.965848 1_654
O6 Te2 1.970590 1_554
O7 Te3 1.970563 1_554
O8 Te3 1.967115 1_644
O9 Te2 1.967124 1_654
O10 Te3 1.964701 1_545
O11 Te2 1.964697 1_555
O12 Te0 1.970751 1_555
O13 Te1 1.971263 1_555
O14 Te0 1.972914 1_555
O15 Te1 1.972800 1_555
O16 Te0 1.969932 1_555
O17 Te1 1.969890 1_555
O18 Te0 1.972851 1_555
O19 Te1 1.973009 1_555
O20 Te0 1.969004 1_555
O21 Te1 1.968998 1_555
O22 Te0 1.968727 1_555
O23 Te1 1.969221 1_555
