# generated using pymatgen
data_Cu2ClO3
_symmetry_space_group_name_H-M   'P 1'
_cell_length_a   5.79980906
_cell_length_b   5.79980906
_cell_length_c   5.79980986
_cell_angle_alpha   65.97685459
_cell_angle_beta   65.97685459
_cell_angle_gamma   65.97685744
_symmetry_Int_Tables_number   1
_chemical_formula_structural   Cu2ClO3
_chemical_formula_sum   'Cu4 Cl2 O6'
_cell_volume   155.79818780
_cell_formula_units_Z   2
loop_
 _symmetry_equiv_pos_site_id
 _symmetry_equiv_pos_as_xyz
  1  'x, y, z'
loop_
 _atom_site_type_symbol
 _atom_site_label
 _atom_site_symmetry_multiplicity
 _atom_site_fract_x
 _atom_site_fract_y
 _atom_site_fract_z
 _atom_site_occupancy
  Cu  Cu0  1  0.50000000  0.50000000  0.50000000  1
  Cu  Cu1  1  0.50000000  0.00000000  0.50000000  1
  Cu  Cu2  1  0.50000000  0.50000000  0.00000000  1
  Cu  Cu3  1  0.00000000  0.50000000  0.50000000  1
  Cl  Cl0  1  0.80655800  0.80655800  0.80655800  1
  Cl  Cl1  1  0.19344200  0.19344200  0.19344200  1
  O  O0  1  0.73328100  0.33379600  0.73328100  1
  O  O1  1  0.73328100  0.73328100  0.33379600  1
  O  O2  1  0.33379600  0.73328100  0.73328100  1
  O  O3  1  0.26671900  0.66620400  0.26671900  1
  O  O4  1  0.26671900  0.26671900  0.66620400  1
  O  O5  1  0.66620400  0.26671900  0.26671900  1
loop_
_geom_bond_atom_site_label_1
_geom_bond_atom_site_label_2
_geom_bond_distance
_geom_bond_site_symmetry_2
Cu0 O1 1.989221 1_555
Cu0 O4 1.989221 1_555
Cu0 O2 1.989222 1_555
Cu0 O0 1.989222 1_555
Cu0 O3 1.989222 1_555
Cu0 O5 1.989222 1_555
Cu1 O5 1.897586 1_555
Cu1 O2 1.897586 1_545
Cu1 O4 1.897586 1_555
Cu1 O1 1.897586 1_545
Cu2 O5 1.897586 1_555
Cu2 O2 1.897586 1_554
Cu2 O3 1.897586 1_555
Cu2 O0 1.897586 1_554
Cu3 O3 1.897586 1_555
Cu3 O0 1.897586 1_455
Cu3 O4 1.897586 1_555
Cu3 O1 1.897586 1_455
Cl0 Cu2 2.628061 1_556
Cl0 Cu3 2.628061 1_655
Cl0 Cu1 2.628061 1_565
Cl1 Cu2 2.628061 1_555
Cl1 Cu3 2.628061 1_555
Cl1 Cu1 2.628061 1_555
