# generated using pymatgen
data_Ho2Co12Ni5
_symmetry_space_group_name_H-M   'P 1'
_cell_length_a   8.29344024
_cell_length_b   8.29344024
_cell_length_c   8.01834700
_cell_angle_alpha   90.00000000
_cell_angle_beta   90.00000000
_cell_angle_gamma   120.00000190
_symmetry_Int_Tables_number   1
_chemical_formula_structural   Ho2Co12Ni5
_chemical_formula_sum   'Ho4 Co24 Ni10'
_cell_volume   477.62264481
_cell_formula_units_Z   2
loop_
 _symmetry_equiv_pos_site_id
 _symmetry_equiv_pos_as_xyz
  1  'x, y, z'
loop_
 _atom_site_type_symbol
 _atom_site_label
 _atom_site_symmetry_multiplicity
 _atom_site_fract_x
 _atom_site_fract_y
 _atom_site_fract_z
 _atom_site_occupancy
  Ho  Ho0  1  0.00000000  0.00000000  0.25000000  1
  Ho  Ho1  1  0.00000000  0.00000000  0.75000000  1
  Ho  Ho2  1  0.33333300  0.66666700  0.75000000  1
  Ho  Ho3  1  0.66666700  0.33333300  0.25000000  1
  Co  Co0  1  0.32696400  0.37660700  0.25000000  1
  Co  Co1  1  0.62339300  0.95035700  0.25000000  1
  Co  Co2  1  0.04964300  0.67303600  0.25000000  1
  Co  Co3  1  0.62339300  0.67303600  0.25000000  1
  Co  Co4  1  0.04964300  0.37660700  0.25000000  1
  Co  Co5  1  0.32696400  0.95035700  0.25000000  1
  Co  Co6  1  0.67303600  0.62339300  0.75000000  1
  Co  Co7  1  0.37660700  0.04964300  0.75000000  1
  Co  Co8  1  0.95035700  0.32696400  0.75000000  1
  Co  Co9  1  0.37660700  0.32696400  0.75000000  1
  Co  Co10  1  0.95035700  0.62339300  0.75000000  1
  Co  Co11  1  0.67303600  0.04964300  0.75000000  1
  Co  Co12  1  0.16221100  0.83778900  0.52376900  1
  Co  Co13  1  0.16221100  0.32442300  0.52376900  1
  Co  Co14  1  0.67557700  0.83778900  0.52376900  1
  Co  Co15  1  0.83778900  0.16221100  0.47623100  1
  Co  Co16  1  0.83778900  0.67557700  0.47623100  1
  Co  Co17  1  0.32442300  0.16221100  0.47623100  1
  Co  Co18  1  0.83778900  0.16221100  0.02376900  1
  Co  Co19  1  0.83778900  0.67557700  0.02376900  1
  Co  Co20  1  0.32442300  0.16221100  0.02376900  1
  Co  Co21  1  0.16221100  0.83778900  0.97623100  1
  Co  Co22  1  0.16221100  0.32442300  0.97623100  1
  Co  Co23  1  0.67557700  0.83778900  0.97623100  1
  Ni  Ni0  1  0.33333300  0.66666700  0.40090600  1
  Ni  Ni1  1  0.66666700  0.33333300  0.59909400  1
  Ni  Ni2  1  0.66666700  0.33333300  0.90090600  1
  Ni  Ni3  1  0.33333300  0.66666700  0.09909400  1
  Ni  Ni4  1  0.50000000  0.50000000  0.50000000  1
  Ni  Ni5  1  0.50000000  0.00000000  0.50000000  1
  Ni  Ni6  1  0.00000000  0.50000000  0.50000000  1
  Ni  Ni7  1  0.50000000  0.50000000  0.00000000  1
  Ni  Ni8  1  0.50000000  0.00000000  0.00000000  1
  Ni  Ni9  1  0.00000000  0.50000000  0.00000000  1
loop_
_geom_bond_atom_site_label_1
_geom_bond_atom_site_label_2
_geom_bond_distance
_geom_bond_site_symmetry_2
Ho2 Ni0 2.799157 1_555
Ho2 Ni3 2.799157 1_556
Ho2 Ni5 3.122518 1_565
Ho2 Ni6 3.122518 1_555
Ho2 Ni9 3.122518 1_556
Ho2 Ni8 3.122518 1_566
Ho2 Ni7 3.122524 1_556
Ho2 Ni4 3.122524 1_555
Ho3 Ni1 2.799157 1_555
Ho3 Ni2 2.799157 1_554
Ho3 Ni9 3.122518 1_655
Ho3 Ni8 3.122518 1_555
Ho3 Ni6 3.122518 1_655
Ho3 Ni5 3.122518 1_555
Ho3 Ni7 3.122524 1_555
Ho3 Ni4 3.122524 1_555
Co0 Co4 2.299945 1_555
Co0 Ni7 2.378329 1_555
Co0 Ni4 2.378329 1_555
Co0 Co3 2.458416 1_555
Co0 Co22 2.506335 1_554
Co0 Co13 2.506335 1_555
Co0 Co17 2.532812 1_555
Co0 Co20 2.532812 1_555
Co0 Ni3 2.669598 1_555
Co0 Ni0 2.669598 1_555
Co0 Ho0 2.939219 1_555
Co0 Ho3 3.012826 1_555
Co1 Co3 2.299945 1_555
Co1 Ni5 2.378329 1_565
Co1 Ni8 2.378329 1_565
Co1 Co5 2.458416 1_555
Co1 Co14 2.506331 1_555
Co1 Co23 2.506331 1_554
Co1 Co18 2.532809 1_565
Co1 Co15 2.532809 1_565
Co1 Ni0 2.669594 1_555
Co1 Ni3 2.669594 1_555
Co1 Ho0 2.939219 1_665
Co1 Ho3 3.012818 1_565
Co2 Co5 2.299945 1_555
Co2 Ni9 2.378329 1_555
Co2 Ni6 2.378329 1_555
Co2 Co4 2.458416 1_555
Co2 Co21 2.506334 1_554
Co2 Ni3 2.669591 1_555
Co2 Ni0 2.669591 1_555
Co2 Ho0 2.939219 1_565
Co2 Ho3 3.012821 1_455
Co3 Ni7 2.378329 1_555
Co3 Ni4 2.378329 1_555
Co3 Ni0 2.669598 1_555
Co3 Ni3 2.669598 1_555
Co3 Ho0 2.939219 1_665
Co3 Ho3 3.012826 1_555
Co4 Ni9 2.378329 1_555
Co4 Ni6 2.378329 1_555
Co4 Ni0 2.669594 1_555
Co4 Ni3 2.669594 1_555
Co4 Ho0 2.939219 1_555
Co4 Ho3 3.012818 1_455
Co5 Ni8 2.378329 1_565
Co5 Ni5 2.378329 1_565
Co5 Ni0 2.669591 1_555
Co5 Ni3 2.669591 1_555
Co5 Ho0 2.939219 1_565
Co5 Ho3 3.012821 1_565
Co6 Ni4 2.378329 1_555
Co6 Ni7 2.378329 1_556
Co6 Co9 2.458416 1_555
Co6 Ni1 2.669598 1_555
Co6 Ni2 2.669598 1_555
Co6 Ho1 2.939219 1_665
Co6 Ho2 3.012826 1_555
Co7 Co9 2.299945 1_555
Co7 Ni8 2.378329 1_556
Co7 Ni5 2.378329 1_555
Co7 Ni1 2.669594 1_555
Co7 Ni2 2.669594 1_555
Co7 Ho1 2.939219 1_555
Co7 Ho2 3.012818 1_545
Co8 Ni6 2.378329 1_655
Co8 Ni9 2.378329 1_656
Co8 Ni2 2.669591 1_555
Co8 Ni1 2.669591 1_555
Co8 Ho1 2.939219 1_655
Co8 Ho2 3.012821 1_655
Co9 Ni4 2.378329 1_555
Co9 Ni7 2.378329 1_556
Co9 Ni1 2.669598 1_555
Co9 Ni2 2.669598 1_555
Co9 Ho1 2.939219 1_555
Co9 Ho2 3.012826 1_555
Co10 Co6 2.299945 1_555
Co10 Ni6 2.378329 1_655
Co10 Ni9 2.378329 1_656
Co10 Co8 2.458416 1_555
Co10 Co19 2.506331 1_556
Co10 Co16 2.506331 1_555
Co10 Co21 2.532809 1_655
Co10 Co12 2.532809 1_655
Co10 Ni1 2.669594 1_555
Co10 Ni2 2.669594 1_555
Co10 Ho1 2.939219 1_665
Co10 Ho2 3.012818 1_655
Co11 Co8 2.299945 1_555
Co11 Ni5 2.378329 1_555
Co11 Ni8 2.378329 1_556
Co11 Co7 2.458416 1_555
Co11 Co18 2.506334 1_556
Co11 Co15 2.506334 1_555
Co11 Co14 2.532806 1_545
Co11 Co23 2.532806 1_545
Co11 Ni2 2.669591 1_555
Co11 Ni1 2.669591 1_555
Co11 Ho1 2.939219 1_655
Co11 Ho2 3.012821 1_545
Co12 Co16 2.361078 1_455
Co12 Co17 2.361078 1_565
Co12 Ni6 2.434218 1_555
Co12 Ni5 2.434218 1_565
Co12 Co5 2.506334 1_555
Co12 Co2 2.506334 1_555
Co12 Co7 2.532809 1_565
Co12 Ni0 2.648176 1_555
Co12 Ho1 2.952962 1_565
Co12 Ho2 3.054978 1_555
Co12 Ho0 3.201279 1_565
Co13 Co15 2.361078 1_455
Co13 Co17 2.361092 1_555
Co13 Ni6 2.434210 1_555
Co13 Ni4 2.434217 1_555
Co13 Co4 2.506331 1_555
Co13 Co8 2.532806 1_455
Co13 Co9 2.532812 1_555
Co13 Ni0 2.648176 1_555
Co13 Ho1 2.952968 1_555
Co13 Ho2 3.054978 1_555
Co13 Ho0 3.201284 1_555
Co14 Co15 2.361078 1_565
Co14 Co16 2.361092 1_555
Co14 Ni5 2.434210 1_565
Co14 Ni4 2.434217 1_555
Co14 Co3 2.506335 1_555
Co14 Co6 2.532812 1_555
Co14 Ni0 2.648176 1_555
Co14 Ho1 2.952968 1_665
Co14 Ho2 3.054978 1_555
Co14 Ho0 3.201284 1_665
Co15 Ni6 2.434218 1_655
Co15 Ni5 2.434218 1_555
Co15 Co8 2.506334 1_555
Co15 Co4 2.532809 1_655
Co15 Ni1 2.648176 1_555
Co15 Ho0 2.952962 1_655
Co15 Ho3 3.054978 1_555
Co15 Ho1 3.201279 1_655
Co16 Ni6 2.434210 1_655
Co16 Ni4 2.434217 1_555
Co16 Co6 2.506335 1_555
Co16 Co2 2.532806 1_655
Co16 Co3 2.532812 1_555
Co16 Ni1 2.648176 1_555
Co16 Ho0 2.952968 1_665
Co16 Ho3 3.054978 1_555
Co16 Ho1 3.201284 1_665
Co17 Ni5 2.434210 1_555
Co17 Ni4 2.434217 1_555
Co17 Co7 2.506331 1_555
Co17 Co9 2.506335 1_555
Co17 Co5 2.532806 1_545
Co17 Ni1 2.648176 1_555
Co17 Ho0 2.952968 1_555
Co17 Ho3 3.054978 1_555
Co17 Ho1 3.201284 1_555
Co18 Co23 2.361078 1_544
Co18 Co22 2.361078 1_654
Co18 Ni8 2.434218 1_555
Co18 Ni9 2.434218 1_655
Co18 Co8 2.506334 1_554
Co18 Co4 2.532809 1_655
Co18 Ni2 2.648176 1_554
Co18 Ho0 2.952962 1_655
Co18 Ho3 3.054978 1_555
Co18 Ho1 3.201279 1_654
Co19 Co21 2.361078 1_654
Co19 Co23 2.361092 1_554
Co19 Ni9 2.434210 1_655
Co19 Ni7 2.434217 1_555
Co19 Co6 2.506335 1_554
Co19 Co2 2.532806 1_655
Co19 Co3 2.532812 1_555
Co19 Ni2 2.648176 1_554
Co19 Ho0 2.952968 1_665
Co19 Ho3 3.054978 1_555
Co19 Ho1 3.201284 1_664
Co20 Co21 2.361078 1_544
Co20 Co22 2.361092 1_554
Co20 Ni8 2.434210 1_555
Co20 Ni7 2.434217 1_555
Co20 Co7 2.506331 1_554
Co20 Co9 2.506335 1_554
Co20 Co5 2.532806 1_545
Co20 Ni2 2.648176 1_554
Co20 Ho0 2.952968 1_555
Co20 Ho3 3.054978 1_555
Co20 Ho1 3.201284 1_554
Co21 Ni8 2.434218 1_566
Co21 Ni9 2.434218 1_556
Co21 Co5 2.506334 1_556
Co21 Co7 2.532809 1_565
Co21 Ni3 2.648176 1_556
Co21 Ho1 2.952962 1_565
Co21 Ho2 3.054978 1_555
Co21 Ho0 3.201279 1_566
Co22 Ni9 2.434210 1_556
Co22 Ni7 2.434217 1_556
Co22 Co4 2.506331 1_556
Co22 Co8 2.532806 1_455
Co22 Co9 2.532812 1_555
Co22 Ni3 2.648176 1_556
Co22 Ho1 2.952968 1_555
Co22 Ho2 3.054978 1_555
Co22 Ho0 3.201284 1_556
Co23 Ni8 2.434210 1_566
Co23 Ni7 2.434217 1_556
Co23 Co3 2.506335 1_556
Co23 Co6 2.532812 1_555
Co23 Ni3 2.648176 1_556
Co23 Ho1 2.952968 1_665
Co23 Ho2 3.054978 1_555
Co23 Ho0 3.201284 1_666
Ni0 Ni3 2.420033 1_555
Ni0 Ni5 2.522517 1_565
Ni0 Ni6 2.522517 1_555
Ni0 Ni4 2.522524 1_555
Ni1 Ni2 2.420033 1_555
Ni1 Ni6 2.522517 1_655
Ni1 Ni5 2.522517 1_555
Ni1 Ni4 2.522524 1_555
Ni2 Ni9 2.522517 1_656
Ni2 Ni8 2.522517 1_556
Ni2 Ni7 2.522524 1_556
Ni3 Ni8 2.522517 1_565
Ni3 Ni9 2.522517 1_555
Ni3 Ni7 2.522524 1_555
