# generated using pymatgen
data_Li2MnCoO4
_symmetry_space_group_name_H-M   'P 1'
_cell_length_a   2.87632300
_cell_length_b   5.27429800
_cell_length_c   9.86935651
_cell_angle_alpha   82.02872482
_cell_angle_beta   90.00000000
_cell_angle_gamma   90.00000000
_symmetry_Int_Tables_number   1
_chemical_formula_structural   Li2MnCoO4
_chemical_formula_sum   'Li4 Mn2 Co2 O8'
_cell_volume   148.27723365
_cell_formula_units_Z   2
loop_
 _symmetry_equiv_pos_site_id
 _symmetry_equiv_pos_as_xyz
  1  'x, y, z'
loop_
 _atom_site_type_symbol
 _atom_site_label
 _atom_site_symmetry_multiplicity
 _atom_site_fract_x
 _atom_site_fract_y
 _atom_site_fract_z
 _atom_site_occupancy
  Li  Li0  1  0.75000000  0.62595000  0.87782600  1
  Li  Li1  1  0.25000000  0.87365900  0.62869000  1
  Li  Li2  1  0.75000000  0.12634100  0.37131000  1
  Li  Li3  1  0.25000000  0.37405000  0.12217400  1
  Mn  Mn0  1  0.75000000  0.36282600  0.62968400  1
  Mn  Mn1  1  0.25000000  0.63717400  0.37031600  1
  Co  Co0  1  0.25000000  0.11334000  0.87903900  1
  Co  Co1  1  0.75000000  0.88666000  0.12096100  1
  O  O0  1  0.75000000  0.23638800  0.99764100  1
  O  O1  1  0.25000000  0.47750000  0.74191800  1
  O  O2  1  0.75000000  0.73632500  0.48807500  1
  O  O3  1  0.25000000  0.99821100  0.24544100  1
  O  O4  1  0.75000000  0.00178900  0.75455900  1
  O  O5  1  0.25000000  0.26367500  0.51192500  1
  O  O6  1  0.75000000  0.52250000  0.25808200  1
  O  O7  1  0.25000000  0.76361200  0.00235900  1
loop_
_geom_bond_atom_site_label_1
_geom_bond_atom_site_label_2
_geom_bond_distance
_geom_bond_site_symmetry_2
Li0 O7 2.086524 1_556
Li0 O7 2.086524 1_656
Li0 O4 2.177300 1_565
Li0 O1 2.184441 1_555
Li0 O1 2.184441 1_655
Li0 O0 2.223979 1_555
Li1 O4 2.073891 1_465
Li1 O4 2.073891 1_565
Li1 O2 2.190368 1_455
Li1 O2 2.190368 1_555
Li1 O5 2.214054 1_565
Li1 O1 2.228681 1_555
Li2 O3 2.073891 1_645
Li2 O3 2.073891 1_545
Li2 O5 2.190368 1_555
Li2 O5 2.190368 1_655
Li2 O2 2.214054 1_545
Li2 O6 2.228681 1_555
Li3 O0 2.086524 1_454
Li3 O0 2.086524 1_554
Li3 O3 2.177300 1_545
Li3 O6 2.184441 1_455
Li3 O6 2.184441 1_555
Li3 O7 2.223979 1_555
Mn0 O1 1.961347 1_555
Mn0 O1 1.961347 1_655
Mn0 O5 1.964963 1_655
Mn0 O5 1.964963 1_555
Mn0 O4 2.119915 1_555
Mn0 O2 2.251741 1_555
Mn1 O6 1.961347 1_555
Mn1 O6 1.961347 1_455
Mn1 O2 1.964963 1_555
Mn1 O2 1.964963 1_455
Mn1 O3 2.119915 1_555
Mn1 O5 2.251741 1_555
Co0 O0 2.017504 1_455
Co0 O0 2.017504 1_555
Co0 O4 2.030824 1_555
Co0 O4 2.030824 1_455
Co0 O7 2.064239 1_546
Co0 O1 2.190785 1_555
Co1 O7 2.017504 1_555
Co1 O7 2.017504 1_655
Co1 O3 2.030824 1_555
Co1 O3 2.030824 1_655
Co1 O0 2.064239 1_564
Co1 O6 2.190785 1_555
