# generated using pymatgen
data_Mg18Al11
_symmetry_space_group_name_H-M   'P 1'
_cell_length_a   9.12930314
_cell_length_b   9.12930314
_cell_length_c   9.17363339
_cell_angle_alpha   71.08817774
_cell_angle_beta   71.08817774
_cell_angle_gamma   110.21877946
_symmetry_Int_Tables_number   1
_chemical_formula_structural   Mg18Al11
_chemical_formula_sum   'Mg18 Al11'
_cell_volume   591.16930063
_cell_formula_units_Z   1
loop_
 _symmetry_equiv_pos_site_id
 _symmetry_equiv_pos_as_xyz
  1  'x, y, z'
loop_
 _atom_site_type_symbol
 _atom_site_label
 _atom_site_symmetry_multiplicity
 _atom_site_fract_x
 _atom_site_fract_y
 _atom_site_fract_z
 _atom_site_occupancy
  Mg  Mg0  1  0.99827300  0.99827300  0.00152800  1
  Mg  Mg1  1  0.31627600  0.60331100  0.99967900  1
  Mg  Mg2  1  0.99770700  0.34587800  0.00049000  1
  Mg  Mg3  1  0.34587800  0.99770700  0.00049000  1
  Mg  Mg4  1  0.60331100  0.31627600  0.99967900  1
  Mg  Mg5  1  0.36742700  0.36742700  0.81967400  1
  Mg  Mg6  1  0.68996400  0.68996400  0.71104800  1
  Mg  Mg7  1  0.60254800  0.00002600  0.68340400  1
  Mg  Mg8  1  0.00002600  0.60254800  0.68340400  1
  Mg  Mg9  1  0.99890600  0.99890600  0.65422800  1
  Mg  Mg10  1  0.39858500  0.71756600  0.60066600  1
  Mg  Mg11  1  0.71756600  0.39858500  0.60066600  1
  Mg  Mg12  1  0.00024000  0.31665800  0.39842500  1
  Mg  Mg13  1  0.31665800  0.00024000  0.39842500  1
  Mg  Mg14  1  0.65403900  0.65403900  0.34536700  1
  Mg  Mg15  1  0.28675800  0.68380000  0.31611300  1
  Mg  Mg16  1  0.68380000  0.28675800  0.31611300  1
  Mg  Mg17  1  0.39781500  0.39781500  0.28633200  1
  Al  Al0  1  0.63397300  0.81528100  0.00133300  1
  Al  Al1  1  0.81528100  0.63397300  0.00133300  1
  Al  Al2  1  0.81774400  0.18448400  0.81536900  1
  Al  Al3  1  0.18448400  0.81774400  0.81536900  1
  Al  Al4  1  0.18024200  0.36757600  0.62585600  1
  Al  Al5  1  0.36757600  0.18024200  0.62585600  1
  Al  Al6  1  0.81221500  0.99776800  0.37072300  1
  Al  Al7  1  0.99776800  0.81221500  0.37072300  1
  Al  Al8  1  0.63446300  0.99902500  0.18494000  1
  Al  Al9  1  0.99902500  0.63446300  0.18494000  1
  Al  Al10  1  0.18145200  0.18145200  0.18782800  1
loop_
_geom_bond_atom_site_label_1
_geom_bond_atom_site_label_2
_geom_bond_distance
_geom_bond_site_symmetry_2
Mg0 Mg14 3.166031 1_555
Mg0 Mg3 3.172114 1_655
Mg0 Mg2 3.172114 1_565
Mg0 Mg9 3.182262 1_554
Mg0 Mg5 3.218535 1_664
Mg1 Mg2 3.038398 1_456
Mg1 Mg17 3.166223 1_556
Mg1 Mg15 3.170423 1_556
Mg1 Mg5 3.175304 1_555
Mg1 Mg7 3.177393 1_565
Mg1 Mg6 3.193182 1_555
Mg1 Mg10 3.201794 1_555
Mg1 Mg12 3.207472 1_556
Mg2 Mg8 3.075693 1_654
Mg2 Mg5 3.143715 1_654
Mg3 Mg4 3.038398 1_564
Mg3 Mg7 3.075693 1_564
Mg3 Mg5 3.143715 1_564
Mg4 Mg5 3.175304 1_555
Mg4 Mg8 3.177393 1_655
Mg4 Mg6 3.193182 1_555
Mg5 Mg6 2.921734 1_555
Mg6 Mg9 2.962581 1_555
Mg6 Mg8 3.152947 1_655
Mg6 Mg7 3.152947 1_565
Mg10 Mg5 3.028734 1_555
Mg10 Mg14 3.087881 1_555
Mg10 Mg7 3.091723 1_565
Mg10 Mg13 3.129081 1_565
Mg10 Mg8 3.157553 1_555
Mg10 Mg15 3.159580 1_555
Mg10 Mg6 3.195140 1_555
Mg11 Mg5 3.028734 1_555
Mg11 Mg14 3.087881 1_555
Mg11 Mg8 3.091723 1_655
Mg11 Mg12 3.129081 1_655
Mg11 Mg7 3.157553 1_555
Mg11 Mg16 3.159580 1_555
Mg11 Mg6 3.195140 1_555
Mg11 Mg4 3.201794 1_555
Mg12 Mg9 3.076727 1_445
Mg12 Mg15 3.108927 1_555
Mg12 Mg16 3.161150 1_455
Mg12 Mg17 3.163571 1_555
Mg12 Mg7 3.172763 1_455
Mg13 Mg9 3.076727 1_445
Mg13 Mg16 3.108927 1_555
Mg13 Mg15 3.161150 1_545
Mg13 Mg17 3.163571 1_555
Mg13 Mg8 3.172763 1_545
Mg13 Mg4 3.207472 1_554
Mg14 Mg17 3.016092 1_555
Mg15 Mg3 3.070255 1_555
Mg15 Mg17 3.167267 1_555
Mg15 Mg8 3.174213 1_555
Mg16 Mg2 3.070255 1_555
Mg16 Mg17 3.167267 1_555
Mg16 Mg4 3.170423 1_554
Mg16 Mg7 3.174213 1_555
Mg17 Mg4 3.166223 1_554
Al0 Al1 2.715367 1_555
Al0 Al8 2.735340 1_555
Al0 Al2 2.755798 1_564
Al0 Mg1 2.885327 1_554
Al0 Mg15 3.002831 1_555
Al0 Mg7 3.020171 1_564
Al0 Mg14 3.116195 1_555
Al0 Mg9 3.138732 1_554
Al0 Mg0 3.165002 1_555
Al0 Mg6 3.187205 1_554
Al0 Mg17 3.196291 1_555
Al1 Al9 2.735340 1_555
Al1 Al3 2.755798 1_654
Al1 Mg4 2.885327 1_554
Al1 Mg16 3.002831 1_555
Al1 Mg8 3.020171 1_654
Al1 Mg14 3.116195 1_555
Al1 Mg9 3.138732 1_554
Al1 Mg0 3.165002 1_555
Al1 Mg6 3.187205 1_554
Al1 Mg17 3.196291 1_555
Al2 Al4 2.707676 1_655
Al2 Al8 2.793598 1_546
Al2 Mg11 2.905844 1_555
Al2 Mg7 2.955902 1_555
Al2 Mg4 2.989956 1_555
Al2 Mg2 3.084079 1_556
Al2 Mg9 3.125102 1_545
Al2 Mg8 3.179693 1_655
Al2 Mg12 3.217048 1_655
Al2 Mg0 3.225176 1_546
Al3 Al5 2.707676 1_565
Al3 Al9 2.793598 1_456
Al3 Mg10 2.905844 1_555
Al3 Mg8 2.955902 1_555
Al3 Mg1 2.989956 1_555
Al3 Mg3 3.084079 1_556
Al3 Mg9 3.125102 1_455
Al3 Mg7 3.179693 1_565
Al3 Mg13 3.217048 1_565
Al3 Mg0 3.225176 1_456
Al4 Al5 2.805616 1_555
Al4 Mg5 2.837459 1_555
Al4 Mg15 2.881806 1_555
Al4 Mg17 2.962431 1_555
Al4 Mg10 3.009365 1_555
Al4 Mg9 3.072101 1_445
Al4 Mg12 3.097184 1_555
Al4 Mg8 3.193378 1_555
Al4 Mg2 3.200871 1_456
Al4 Mg0 3.299868 1_446
Al5 Mg5 2.837459 1_555
Al5 Mg16 2.881806 1_555
Al5 Mg17 2.962431 1_555
Al5 Mg11 3.009365 1_555
Al5 Mg9 3.072101 1_445
Al5 Mg13 3.097184 1_555
Al5 Mg7 3.193378 1_555
Al5 Mg3 3.200871 1_546
Al5 Mg0 3.299868 1_446
Al6 Al8 2.707596 1_555
Al6 Al7 2.778942 1_555
Al6 Mg7 2.898038 1_565
Al6 Mg6 2.962364 1_555
Al6 Mg12 2.965569 1_665
Al6 Mg14 3.089525 1_555
Al6 Mg10 3.148734 1_555
Al6 Mg2 3.171415 1_565
Al6 Mg16 3.201202 1_565
Al6 Mg0 3.257504 1_555
Al7 Al9 2.707596 1_555
Al7 Mg8 2.898038 1_655
Al7 Mg6 2.962364 1_555
Al7 Mg13 2.965569 1_665
Al7 Mg14 3.089525 1_555
Al7 Mg11 3.148734 1_555
Al7 Mg3 3.171415 1_655
Al7 Mg15 3.201202 1_655
Al7 Mg0 3.257504 1_555
Al8 Mg13 2.933668 1_565
Al8 Mg15 2.961563 1_555
Al8 Mg4 3.008254 1_564
Al8 Mg2 3.085161 1_565
Al8 Mg14 3.109990 1_555
Al8 Mg16 3.183314 1_565
Al8 Mg0 3.203598 1_555
Al8 Mg10 3.206812 1_555
Al9 Mg12 2.933668 1_655
Al9 Mg16 2.961563 1_555
Al9 Mg1 3.008254 1_654
Al9 Mg3 3.085161 1_655
Al9 Mg14 3.109990 1_555
Al9 Mg15 3.183314 1_655
Al9 Mg0 3.203598 1_555
Al9 Mg11 3.206812 1_555
Al10 Al7 2.755492 1_445
Al10 Al6 2.755492 1_445
Al10 Mg5 2.782983 1_554
Al10 Mg17 2.870011 1_555
Al10 Mg12 2.979647 1_555
Al10 Mg13 2.979647 1_555
Al10 Mg3 3.155571 1_545
Al10 Mg2 3.155571 1_455
Al10 Mg0 3.207222 1_445
Al10 Mg4 3.219280 1_554
Al10 Mg1 3.219280 1_554
