# generated using pymatgen
data_ZrNbFe4
_symmetry_space_group_name_H-M   'P 1'
_cell_length_a   4.95090466
_cell_length_b   4.95096089
_cell_length_c   4.95096089
_cell_angle_alpha   60.00085722
_cell_angle_beta   60.00050855
_cell_angle_gamma   60.00050855
_symmetry_Int_Tables_number   1
_chemical_formula_structural   ZrNbFe4
_chemical_formula_sum   'Zr1 Nb1 Fe4'
_cell_volume   85.81332087
_cell_formula_units_Z   1
loop_
 _symmetry_equiv_pos_site_id
 _symmetry_equiv_pos_as_xyz
  1  'x, y, z'
loop_
 _atom_site_type_symbol
 _atom_site_label
 _atom_site_symmetry_multiplicity
 _atom_site_fract_x
 _atom_site_fract_y
 _atom_site_fract_z
 _atom_site_occupancy
  Zr  Zr0  1  0.00000493  0.99999607  0.99999607  1
  Nb  Nb0  1  0.24999325  0.25000575  0.25000575  1
  Fe  Fe0  1  0.62494297  0.62494139  0.12517367  1
  Fe  Fe1  1  0.62494297  0.12517367  0.62494139  1
  Fe  Fe2  1  0.12517402  0.62494206  0.62494206  1
  Fe  Fe3  1  0.62494286  0.62494106  0.62494106  1
loop_
_geom_bond_atom_site_label_1
_geom_bond_atom_site_label_2
_geom_bond_distance
_geom_bond_site_symmetry_2
Nb0 Zr0 3.031820 1_554
Nb0 Zr0 3.031820 1_545
Nb0 Zr0 3.031837 1_544
Nb0 Zr0 3.031862 1_644
Fe0 Fe3 2.474328 1_555
Fe0 Fe2 2.474340 1_555
Fe0 Fe1 2.474362 1_555
Fe0 Fe2 2.476631 1_654
Fe0 Fe3 2.476633 1_554
Fe0 Fe1 2.476663 1_564
Fe0 Nb0 2.902601 1_655
Fe0 Nb0 2.902610 1_555
Fe0 Nb0 2.902685 1_565
Fe0 Zr0 2.902857 1_654
Fe0 Zr0 2.902857 1_554
Fe0 Zr0 2.902912 1_644
Fe1 Fe3 2.474328 1_555
Fe1 Fe2 2.474340 1_555
Fe1 Fe2 2.476631 1_645
Fe1 Fe3 2.476633 1_545
Fe1 Nb0 2.902601 1_655
Fe1 Nb0 2.902610 1_555
Fe1 Nb0 2.902685 1_556
Fe1 Zr0 2.902857 1_645
Fe1 Zr0 2.902857 1_545
Fe1 Zr0 2.902912 1_644
Fe2 Fe3 2.474303 1_555
Fe2 Fe3 2.476602 1_455
Fe2 Nb0 2.902596 1_555
Fe2 Nb0 2.902666 1_556
Fe2 Nb0 2.902666 1_565
Fe2 Zr0 2.902851 1_555
Fe2 Zr0 2.902908 1_554
Fe2 Zr0 2.902908 1_545
Fe3 Nb0 2.902592 1_655
Fe3 Nb0 2.902675 1_556
Fe3 Nb0 2.902675 1_565
Fe3 Zr0 2.902859 1_555
Fe3 Zr0 2.902912 1_654
Fe3 Zr0 2.902912 1_645
