# generated using pymatgen
data_Sc6Al16Ni7
_symmetry_space_group_name_H-M   'P 1'
_cell_length_a   8.53691573
_cell_length_b   8.53691573
_cell_length_c   8.53691573
_cell_angle_alpha   60.00000000
_cell_angle_beta   60.00000000
_cell_angle_gamma   60.00000000
_symmetry_Int_Tables_number   1
_chemical_formula_structural   Sc6Al16Ni7
_chemical_formula_sum   'Sc6 Al16 Ni7'
_cell_volume   439.93446325
_cell_formula_units_Z   1
loop_
 _symmetry_equiv_pos_site_id
 _symmetry_equiv_pos_as_xyz
  1  'x, y, z'
loop_
 _atom_site_type_symbol
 _atom_site_label
 _atom_site_symmetry_multiplicity
 _atom_site_fract_x
 _atom_site_fract_y
 _atom_site_fract_z
 _atom_site_occupancy
  Sc  Sc0  1  0.69585900  0.69585900  0.30414100  1
  Sc  Sc1  1  0.30414100  0.69585900  0.30414100  1
  Sc  Sc2  1  0.69585900  0.30414100  0.30414100  1
  Sc  Sc3  1  0.30414100  0.30414100  0.69585900  1
  Sc  Sc4  1  0.69585900  0.30414100  0.69585900  1
  Sc  Sc5  1  0.30414100  0.69585900  0.69585900  1
  Al  Al0  1  0.88059500  0.88059500  0.35821600  1
  Al  Al1  1  0.88059500  0.35821600  0.88059500  1
  Al  Al2  1  0.35821600  0.88059500  0.88059500  1
  Al  Al3  1  0.88059500  0.88059500  0.88059500  1
  Al  Al4  1  0.11940500  0.11940500  0.64178400  1
  Al  Al5  1  0.11940500  0.64178400  0.11940500  1
  Al  Al6  1  0.64178400  0.11940500  0.11940500  1
  Al  Al7  1  0.11940500  0.11940500  0.11940500  1
  Al  Al8  1  0.66636100  0.66636100  0.00091700  1
  Al  Al9  1  0.66636100  0.00091700  0.66636100  1
  Al  Al10  1  0.00091700  0.66636100  0.66636100  1
  Al  Al11  1  0.66636100  0.66636100  0.66636100  1
  Al  Al12  1  0.33363900  0.33363900  0.99908300  1
  Al  Al13  1  0.33363900  0.99908300  0.33363900  1
  Al  Al14  1  0.99908300  0.33363900  0.33363900  1
  Al  Al15  1  0.33363900  0.33363900  0.33363900  1
  Ni  Ni0  1  0.00000000  0.00000000  0.00000000  1
  Ni  Ni1  1  0.00000000  0.00000000  0.50000000  1
  Ni  Ni2  1  0.50000000  0.00000000  0.50000000  1
  Ni  Ni3  1  0.00000000  0.50000000  0.50000000  1
  Ni  Ni4  1  0.50000000  0.50000000  0.00000000  1
  Ni  Ni5  1  0.00000000  0.50000000  0.00000000  1
  Ni  Ni6  1  0.50000000  0.00000000  0.00000000  1
loop_
_geom_bond_atom_site_label_1
_geom_bond_atom_site_label_2
_geom_bond_distance
_geom_bond_site_symmetry_2
Al0 Ni0 2.496895 1_665
Al0 Ni1 2.655170 1_665
Al0 Ni3 2.655177 1_655
Al0 Ni2 2.655177 1_565
Al0 Al10 2.707849 1_655
Al0 Al9 2.707849 1_565
Al0 Al11 2.707854 1_555
Al0 Al7 2.883158 1_665
Al0 Al6 2.883170 1_565
Al0 Al5 2.883170 1_655
Al0 Sc2 3.021693 1_565
Al0 Sc1 3.021693 1_655
Al0 Sc0 3.021700 1_555
Al1 Ni0 2.496895 1_656
Al1 Ni5 2.655170 1_656
Al1 Ni3 2.655177 1_655
Al1 Ni4 2.655177 1_556
Al1 Al10 2.707849 1_655
Al1 Al8 2.707849 1_556
Al1 Al11 2.707854 1_555
Al1 Al7 2.883158 1_656
Al1 Al4 2.883170 1_655
Al1 Al6 2.883170 1_556
Al1 Sc2 3.021693 1_556
Al1 Sc3 3.021693 1_655
Al1 Sc4 3.021700 1_555
Al2 Ni0 2.496895 1_566
Al2 Ni6 2.655170 1_566
Al2 Ni2 2.655177 1_565
Al2 Ni4 2.655177 1_556
Al2 Al8 2.707849 1_556
Al2 Al9 2.707849 1_565
Al2 Al7 2.883158 1_566
Al2 Al4 2.883170 1_565
Al2 Al5 2.883170 1_556
Al2 Sc1 3.021693 1_556
Al2 Sc3 3.021693 1_565
Al2 Sc5 3.021700 1_555
Al3 Ni0 2.496888 1_666
Al3 Ni6 2.655177 1_566
Al3 Ni5 2.655177 1_656
Al3 Ni1 2.655177 1_665
Al3 Al8 2.707856 1_556
Al3 Al9 2.707856 1_565
Al3 Al5 2.883158 1_656
Al3 Al4 2.883158 1_665
Al3 Al6 2.883158 1_566
Al3 Sc0 3.021694 1_556
Al3 Sc4 3.021694 1_565
Al3 Sc5 3.021694 1_655
Al4 Ni0 2.496895 1_556
Al4 Ni1 2.655170 1_555
Al4 Ni2 2.655177 1_555
Al4 Ni3 2.655177 1_555
Al4 Sc4 3.021693 1_455
Al4 Sc5 3.021693 1_545
Al4 Sc3 3.021700 1_555
Al5 Ni0 2.496895 1_565
Al5 Ni5 2.655170 1_555
Al5 Ni4 2.655177 1_555
Al5 Ni3 2.655177 1_555
Al5 Sc0 3.021693 1_455
Al5 Sc5 3.021693 1_554
Al5 Sc1 3.021700 1_555
Al6 Ni0 2.496895 1_655
Al6 Ni6 2.655170 1_555
Al6 Ni2 2.655177 1_555
Al6 Ni4 2.655177 1_555
Al6 Sc4 3.021693 1_554
Al6 Sc0 3.021693 1_545
Al6 Sc2 3.021700 1_555
Al7 Ni0 2.496888 1_555
Al7 Ni1 2.655177 1_555
Al7 Ni5 2.655177 1_555
Al7 Ni6 2.655177 1_555
Al7 Sc3 3.021694 1_554
Al7 Sc1 3.021694 1_545
Al7 Sc2 3.021694 1_455
Al8 Ni6 2.464404 1_565
Al8 Ni5 2.464404 1_655
Al8 Ni4 2.464404 1_555
Al8 Al9 2.856076 1_564
Al8 Sc0 2.862658 1_555
Al8 Sc2 2.862658 1_555
Al8 Sc1 2.862658 1_555
Al9 Ni2 2.464404 1_555
Al9 Ni1 2.464404 1_655
Al9 Ni6 2.464404 1_556
Al9 Sc2 2.862658 1_555
Al9 Sc4 2.862658 1_555
Al9 Sc3 2.862658 1_555
Al10 Ni5 2.464404 1_556
Al10 Ni1 2.464404 1_565
Al10 Ni3 2.464404 1_555
Al10 Al3 2.707856 1_455
Al10 Al11 2.856076 1_455
Al10 Al9 2.856076 1_465
Al10 Al8 2.856076 1_456
Al10 Sc1 2.862658 1_555
Al10 Sc3 2.862658 1_555
Al10 Sc5 2.862658 1_555
Al11 Ni4 2.464404 1_556
Al11 Ni2 2.464404 1_565
Al11 Ni3 2.464404 1_655
Al11 Al2 2.707854 1_555
Al11 Al8 2.856076 1_556
Al11 Al9 2.856076 1_565
Al11 Sc0 2.862658 1_555
Al11 Sc4 2.862658 1_555
Al11 Sc5 2.862658 1_555
Al12 Ni5 2.464404 1_556
Al12 Ni6 2.464404 1_556
Al12 Ni4 2.464404 1_556
Al12 Al5 2.707849 1_556
Al12 Al6 2.707849 1_556
Al12 Al7 2.707856 1_556
Al12 Al15 2.856076 1_556
Al12 Al14 2.856076 1_456
Al12 Al13 2.856076 1_546
Al12 Sc3 2.862658 1_555
Al12 Sc4 2.862658 1_555
Al12 Sc5 2.862658 1_555
Al13 Ni6 2.464404 1_565
Al13 Ni1 2.464404 1_565
Al13 Ni2 2.464404 1_565
Al13 Al6 2.707849 1_565
Al13 Al4 2.707849 1_565
Al13 Al7 2.707856 1_565
Al13 Al15 2.856076 1_565
Al13 Al14 2.856076 1_465
Al13 Sc1 2.862658 1_555
Al13 Sc0 2.862658 1_555
Al13 Sc5 2.862658 1_555
Al14 Ni5 2.464404 1_655
Al14 Ni1 2.464404 1_655
Al14 Ni3 2.464404 1_655
Al14 Al4 2.707849 1_655
Al14 Al5 2.707849 1_655
Al14 Al7 2.707856 1_655
Al14 Al15 2.856076 1_655
Al14 Sc2 2.862658 1_555
Al14 Sc0 2.862658 1_555
Al14 Sc4 2.862658 1_555
Al15 Ni2 2.464404 1_555
Al15 Ni4 2.464404 1_555
Al15 Ni3 2.464404 1_555
Al15 Al4 2.707854 1_555
Al15 Al5 2.707854 1_555
Al15 Al6 2.707854 1_555
Al15 Sc2 2.862658 1_555
Al15 Sc1 2.862658 1_555
Al15 Sc3 2.862658 1_555
Ni1 Sc1 3.088223 1_545
Ni1 Sc4 3.088223 1_455
Ni1 Sc2 3.088223 1_455
Ni1 Sc5 3.088223 1_545
Ni2 Sc0 3.088223 1_545
Ni2 Sc3 3.088223 1_555
Ni2 Sc2 3.088223 1_555
Ni2 Sc5 3.088223 1_545
Ni3 Sc0 3.088223 1_455
Ni3 Sc3 3.088223 1_555
Ni3 Sc4 3.088223 1_455
Ni3 Sc1 3.088223 1_555
Ni4 Sc4 3.088223 1_554
Ni4 Sc1 3.088223 1_555
Ni4 Sc5 3.088223 1_554
Ni4 Sc2 3.088223 1_555
Ni5 Sc0 3.088223 1_455
Ni5 Sc3 3.088223 1_554
Ni5 Sc5 3.088223 1_554
Ni5 Sc2 3.088223 1_455
Ni6 Sc3 3.088223 1_554
Ni6 Sc0 3.088223 1_545
Ni6 Sc4 3.088223 1_554
Ni6 Sc1 3.088223 1_545
