# generated using pymatgen
data_Ba4PrY(Cu3O7)2
_symmetry_space_group_name_H-M   'P 1'
_cell_length_a   12.49432076
_cell_length_b   12.49432076
_cell_length_c   3.94992900
_cell_angle_alpha   90.00000000
_cell_angle_beta   90.00000000
_cell_angle_gamma   143.90158855
_symmetry_Int_Tables_number   1
_chemical_formula_structural   Ba4PrY(Cu3O7)2
_chemical_formula_sum   'Ba4 Pr1 Y1 Cu6 O14'
_cell_volume   363.29392214
_cell_formula_units_Z   1
loop_
 _symmetry_equiv_pos_site_id
 _symmetry_equiv_pos_as_xyz
  1  'x, y, z'
loop_
 _atom_site_type_symbol
 _atom_site_label
 _atom_site_symmetry_multiplicity
 _atom_site_fract_x
 _atom_site_fract_y
 _atom_site_fract_z
 _atom_site_occupancy
  Ba  Ba0  1  0.33984000  0.66016000  0.50000000  1
  Ba  Ba1  1  0.84042500  0.15957500  0.50000000  1
  Ba  Ba2  1  0.66016000  0.33984000  0.50000000  1
  Ba  Ba3  1  0.15957500  0.84042500  0.50000000  1
  Pr  Pr0  1  0.50000000  0.50000000  0.50000000  1
  Y  Y0  1  0.00000000  0.00000000  0.50000000  1
  Cu  Cu0  1  0.67783500  0.82797900  0.00000000  1
  Cu  Cu1  1  0.17202100  0.32216500  0.00000000  1
  Cu  Cu2  1  0.82797900  0.67783500  0.00000000  1
  Cu  Cu3  1  0.32216500  0.17202100  0.00000000  1
  Cu  Cu4  1  0.50000000  0.00000000  0.00000000  1
  Cu  Cu5  1  0.00000000  0.50000000  0.00000000  1
  O  O0  1  0.57949000  0.92107000  0.00000000  1
  O  O1  1  0.07893000  0.42051000  0.00000000  1
  O  O2  1  0.92107000  0.57949000  0.00000000  1
  O  O3  1  0.42051000  0.07893000  0.00000000  1
  O  O4  1  0.69569400  0.82170100  0.50000000  1
  O  O5  1  0.17829900  0.30430600  0.50000000  1
  O  O6  1  0.82170100  0.69569400  0.50000000  1
  O  O7  1  0.30430600  0.17829900  0.50000000  1
  O  O8  1  0.50000000  0.00000000  0.50000000  1
  O  O9  1  0.00000000  0.50000000  0.50000000  1
  O  O10  1  0.94016700  0.05983300  0.00000000  1
  O  O11  1  0.43511400  0.56488600  0.00000000  1
  O  O12  1  0.05983300  0.94016700  0.00000000  1
  O  O13  1  0.56488600  0.43511400  0.00000000  1
loop_
_geom_bond_atom_site_label_1
_geom_bond_atom_site_label_2
_geom_bond_distance
_geom_bond_site_symmetry_2
Ba0 O1 2.778334 1_556
Ba0 O1 2.778334 1_555
Ba0 O0 2.778334 1_555
Ba0 O0 2.778334 1_556
Ba0 O8 2.881421 1_565
Ba0 O9 2.881421 1_555
Ba0 O11 3.004068 1_556
Ba0 O11 3.004068 1_555
Ba0 O5 3.056160 1_555
Ba0 O4 3.056160 1_555
Ba1 O0 2.776611 1_546
Ba1 O1 2.776611 1_655
Ba1 O1 2.776611 1_656
Ba1 O0 2.776611 1_545
Ba1 O9 2.891732 1_655
Ba1 O8 2.891732 1_555
Ba1 O5 2.958848 1_655
Ba1 O4 2.958848 1_545
Ba1 O10 3.084847 1_555
Ba1 O10 3.084847 1_556
Ba2 O3 2.778334 1_555
Ba2 O3 2.778334 1_556
Ba2 O2 2.778334 1_555
Ba2 O2 2.778334 1_556
Ba2 O9 2.881421 1_655
Ba2 O8 2.881421 1_555
Ba2 O13 3.004068 1_556
Ba2 O13 3.004068 1_555
Ba2 O7 3.056160 1_555
Ba2 O6 3.056160 1_555
Ba3 O2 2.776611 1_455
Ba3 O3 2.776611 1_566
Ba3 O3 2.776611 1_565
Ba3 O2 2.776611 1_456
Ba3 O9 2.891732 1_555
Ba3 O8 2.891732 1_565
Ba3 O7 2.958848 1_565
Ba3 O6 2.958848 1_455
Ba3 O12 3.084847 1_556
Ba3 O12 3.084847 1_555
Cu0 O10 1.947034 1_565
Cu0 O11 1.972986 1_555
Cu0 O4 1.996174 1_555
Cu0 O4 1.996174 1_554
Cu0 O0 2.274252 1_555
Cu1 O10 1.947034 1_455
Cu1 O11 1.972986 1_555
Cu1 O5 1.996174 1_554
Cu1 O5 1.996174 1_555
Cu1 O1 2.274252 1_555
Cu2 O12 1.947034 1_655
Cu2 O13 1.972986 1_555
Cu2 O6 1.996174 1_554
Cu2 O6 1.996174 1_555
Cu2 O2 2.274252 1_555
Cu3 O12 1.947034 1_545
Cu3 O13 1.972986 1_555
Cu3 O7 1.996174 1_555
Cu3 O7 1.996174 1_554
Cu3 O3 2.274252 1_555
Cu4 O0 1.881949 1_545
Cu4 O3 1.881949 1_555
Cu4 O8 1.974965 1_554
Cu4 O8 1.974965 1_555
Cu5 O2 1.881949 1_455
Cu5 O1 1.881949 1_555
Cu5 O9 1.974965 1_554
Cu5 O9 1.974965 1_555
O4 Y0 2.393957 1_665
O4 Pr0 2.500478 1_555
O5 Y0 2.393957 1_555
O5 Pr0 2.500478 1_555
O6 Y0 2.393957 1_665
O6 Pr0 2.500478 1_555
O7 Y0 2.393957 1_555
O7 Pr0 2.500478 1_555
O10 Y0 2.433382 1_655
O10 Y0 2.433382 1_654
O11 Pr0 2.505412 1_555
O11 Pr0 2.505412 1_554
O12 Y0 2.433382 1_564
O12 Y0 2.433382 1_565
O13 Pr0 2.505412 1_555
O13 Pr0 2.505412 1_554
