# generated using pymatgen
data_Li8Ce7Ge10
_symmetry_space_group_name_H-M   'P 1'
_cell_length_a   16.95155776
_cell_length_b   16.95155776
_cell_length_c   4.45918100
_cell_angle_alpha   90.00000000
_cell_angle_beta   90.00000000
_cell_angle_gamma   156.91639209
_symmetry_Int_Tables_number   1
_chemical_formula_structural   Li8Ce7Ge10
_chemical_formula_sum   'Li8 Ce7 Ge10'
_cell_volume   502.39153036
_cell_formula_units_Z   1
loop_
 _symmetry_equiv_pos_site_id
 _symmetry_equiv_pos_as_xyz
  1  'x, y, z'
loop_
 _atom_site_type_symbol
 _atom_site_label
 _atom_site_symmetry_multiplicity
 _atom_site_fract_x
 _atom_site_fract_y
 _atom_site_fract_z
 _atom_site_occupancy
  Li  Li0  1  0.26418400  0.11348100  0.50000000  1
  Li  Li1  1  0.73581600  0.88651900  0.50000000  1
  Li  Li2  1  0.11348100  0.26418400  0.50000000  1
  Li  Li3  1  0.88651900  0.73581600  0.50000000  1
  Li  Li4  1  0.45580100  0.16985500  0.00000000  1
  Li  Li5  1  0.54419900  0.83014500  0.00000000  1
  Li  Li6  1  0.16985500  0.45580100  0.00000000  1
  Li  Li7  1  0.83014500  0.54419900  0.00000000  1
  Ce  Ce0  1  0.16266600  0.83733400  0.50000000  1
  Ce  Ce1  1  0.83733400  0.16266600  0.50000000  1
  Ce  Ce2  1  0.27851800  0.72148200  0.50000000  1
  Ce  Ce3  1  0.72148200  0.27851800  0.50000000  1
  Ce  Ce4  1  0.44357800  0.55642200  0.00000000  1
  Ce  Ce5  1  0.55642200  0.44357800  0.00000000  1
  Ce  Ce6  1  0.00000000  0.00000000  0.00000000  1
  Ge  Ge0  1  0.40137700  0.97211800  0.00000000  1
  Ge  Ge1  1  0.59862300  0.02788200  0.00000000  1
  Ge  Ge2  1  0.97211800  0.40137700  0.00000000  1
  Ge  Ge3  1  0.02788200  0.59862300  0.00000000  1
  Ge  Ge4  1  0.37433500  0.62566500  0.50000000  1
  Ge  Ge5  1  0.62566500  0.37433500  0.50000000  1
  Ge  Ge6  1  0.09407000  0.90593000  0.00000000  1
  Ge  Ge7  1  0.90593000  0.09407000  0.00000000  1
  Ge  Ge8  1  0.31072100  0.31072100  0.50000000  1
  Ge  Ge9  1  0.68927900  0.68927900  0.50000000  1
loop_
_geom_bond_atom_site_label_1
_geom_bond_atom_site_label_2
_geom_bond_distance
_geom_bond_site_symmetry_2
Ce0 Ge3 3.091157 1_555
Ce0 Ge3 3.091157 1_556
Ce0 Ge0 3.091157 1_555
Ce0 Ge0 3.091157 1_556
Ce0 Li7 3.146756 1_455
Ce0 Li7 3.146756 1_456
Ce0 Li4 3.146756 1_566
Ce0 Li4 3.146756 1_565
Ce0 Li3 3.170640 1_455
Ce0 Li0 3.170640 1_565
Ce0 Ge6 3.187955 1_556
Ce0 Ge6 3.187955 1_555
Ce1 Ge1 3.091157 1_556
Ce1 Ge1 3.091157 1_555
Ce1 Ge2 3.091157 1_556
Ce1 Ge2 3.091157 1_555
Ce1 Li5 3.146756 1_546
Ce1 Li5 3.146756 1_545
Ce1 Li6 3.146756 1_655
Ce1 Li6 3.146756 1_656
Ce1 Li1 3.170640 1_545
Ce1 Li2 3.170640 1_655
Ce1 Ge7 3.187955 1_556
Ce1 Ge7 3.187955 1_555
Ce2 Ge1 3.088398 1_566
Ce2 Ge1 3.088398 1_565
Ce2 Ge2 3.088398 1_455
Ce2 Ge2 3.088398 1_456
Ce2 Ge4 3.182807 1_555
Ce2 Ge0 3.328610 1_556
Ce2 Ge0 3.328610 1_555
Ce2 Ge3 3.328610 1_556
Ce2 Ge3 3.328610 1_555
Ce3 Ge3 3.088398 1_655
Ce3 Ge3 3.088398 1_656
Ce3 Ge0 3.088398 1_546
Ce3 Ge0 3.088398 1_545
Ce3 Ge5 3.182807 1_555
Ce3 Ge2 3.328610 1_556
Ce3 Ge2 3.328610 1_555
Ce3 Ge1 3.328610 1_556
Ce3 Ge1 3.328610 1_555
Ce4 Li2 3.133985 1_554
Ce4 Li2 3.133985 1_555
Ce4 Li1 3.133985 1_555
Ce4 Li1 3.133985 1_554
Ce4 Li5 3.142890 1_555
Ce4 Li6 3.142890 1_555
Ce4 Ge9 3.183121 1_554
Ce4 Ge9 3.183121 1_555
Ce4 Ge8 3.183121 1_554
Ce4 Ge8 3.183121 1_555
Ce4 Ge4 3.203351 1_555
Ce4 Ge4 3.203351 1_554
Ce5 Li0 3.133985 1_555
Ce5 Li0 3.133985 1_554
Ce5 Li3 3.133985 1_555
Ce5 Li3 3.133985 1_554
Ce5 Li7 3.142890 1_555
Ce5 Li4 3.142890 1_555
Ce5 Ge9 3.183121 1_555
Ce5 Ge9 3.183121 1_554
Ce5 Ge8 3.183121 1_554
Ce5 Ge8 3.183121 1_555
Ce5 Ge5 3.203351 1_554
Ce5 Ge5 3.203351 1_555
Ce6 Ge8 3.068176 1_554
Ce6 Ge8 3.068176 1_555
Ce6 Ge9 3.068176 1_445
Ce6 Ge9 3.068176 1_444
Ce6 Ge6 3.124776 1_545
Ce6 Ge7 3.124776 1_455
Ge0 Ge1 2.501632 1_565
Ge0 Li4 2.529244 1_565
Ge0 Ge3 2.533578 1_555
Ge1 Li5 2.529244 1_545
Ge1 Ge2 2.533578 1_555
Ge2 Ge3 2.501632 1_655
Ge2 Li6 2.529244 1_655
Ge3 Li7 2.529244 1_455
Ge4 Li5 2.629387 1_555
Ge4 Li5 2.629387 1_556
Ge4 Li6 2.629387 1_556
Ge4 Li6 2.629387 1_555
Ge4 Li1 2.692327 1_555
Ge4 Li2 2.692327 1_555
Ge5 Li7 2.629387 1_556
Ge5 Li7 2.629387 1_555
Ge5 Li4 2.629387 1_556
Ge5 Li4 2.629387 1_555
Ge5 Li3 2.692327 1_555
Ge5 Li0 2.692327 1_555
Ge6 Li3 2.645463 1_455
Ge6 Li3 2.645463 1_454
Ge6 Li0 2.645463 1_564
Ge6 Li0 2.645463 1_565
Ge6 Li4 2.672431 1_565
Ge6 Li7 2.672431 1_455
Ge7 Li1 2.645463 1_545
Ge7 Li1 2.645463 1_544
Ge7 Li2 2.645463 1_654
Ge7 Li2 2.645463 1_655
Ge7 Li6 2.672431 1_655
Ge7 Li5 2.672431 1_545
Ge8 Ge9 2.567922 1_555
Ge8 Li2 2.636021 1_555
Ge8 Li0 2.636021 1_555
Ge9 Li3 2.636021 1_555
Ge9 Li1 2.636021 1_555
