# generated using pymatgen
data_Zn2BiO6
_symmetry_space_group_name_H-M   'P 1'
_cell_length_a   4.83690400
_cell_length_b   4.83690400
_cell_length_c   9.62771300
_cell_angle_alpha   90.00000000
_cell_angle_beta   90.00000000
_cell_angle_gamma   90.00000000
_symmetry_Int_Tables_number   1
_chemical_formula_structural   Zn2BiO6
_chemical_formula_sum   'Zn4 Bi2 O12'
_cell_volume   225.24651031
_cell_formula_units_Z   2
loop_
 _symmetry_equiv_pos_site_id
 _symmetry_equiv_pos_as_xyz
  1  'x, y, z'
loop_
 _atom_site_type_symbol
 _atom_site_label
 _atom_site_symmetry_multiplicity
 _atom_site_fract_x
 _atom_site_fract_y
 _atom_site_fract_z
 _atom_site_occupancy
  Zn  Zn0  1  0.00000000  0.00000000  0.33501000  1
  Zn  Zn1  1  0.00000000  0.00000000  0.66499000  1
  Zn  Zn2  1  0.50000000  0.50000000  0.83501000  1
  Zn  Zn3  1  0.50000000  0.50000000  0.16499000  1
  Bi  Bi0  1  0.00000000  0.00000000  0.00000000  1
  Bi  Bi1  1  0.50000000  0.50000000  0.50000000  1
  O  O0  1  0.31405300  0.31405300  0.00000000  1
  O  O1  1  0.68594700  0.68594700  0.00000000  1
  O  O2  1  0.18594700  0.81405300  0.50000000  1
  O  O3  1  0.81405300  0.18594700  0.50000000  1
  O  O4  1  0.30301800  0.30301800  0.32520400  1
  O  O5  1  0.69698200  0.69698200  0.67479600  1
  O  O6  1  0.69698200  0.69698200  0.32520400  1
  O  O7  1  0.19698200  0.80301800  0.82520400  1
  O  O8  1  0.19698200  0.80301800  0.17479600  1
  O  O9  1  0.30301800  0.30301800  0.67479600  1
  O  O10  1  0.80301800  0.19698200  0.17479600  1
  O  O11  1  0.80301800  0.19698200  0.82520400  1
loop_
_geom_bond_atom_site_label_1
_geom_bond_atom_site_label_2
_geom_bond_distance
_geom_bond_site_symmetry_2
Bi0 O0 2.148253 1_555
Bi0 O1 2.148253 1_445
Bi0 O8 2.155851 1_545
Bi0 O10 2.155851 1_455
Bi0 O11 2.155851 1_454
Bi0 O7 2.155851 1_544
Bi1 O2 2.148253 1_555
Bi1 O3 2.148253 1_555
Bi1 O6 2.155851 1_555
Bi1 O4 2.155851 1_555
Bi1 O5 2.155851 1_555
Bi1 O9 2.155851 1_555
O0 Zn2 2.034976 1_554
O0 Zn3 2.034976 1_555
O1 Zn2 2.034976 1_554
O1 Zn3 2.034976 1_555
O2 Zn0 2.034976 1_565
O2 Zn1 2.034976 1_565
O3 Zn0 2.034976 1_655
O3 Zn1 2.034976 1_655
O4 Zn3 2.048141 1_555
O4 Zn0 2.074918 1_555
O5 Zn2 2.048141 1_555
O5 Zn1 2.074918 1_665
O6 Zn3 2.048141 1_555
O6 Zn0 2.074918 1_665
O7 Zn1 2.048141 1_565
O7 Zn2 2.074918 1_555
O8 Zn0 2.048141 1_565
O8 Zn3 2.074918 1_555
O9 Zn2 2.048141 1_555
O9 Zn1 2.074918 1_555
O10 Zn0 2.048141 1_655
O10 Zn3 2.074918 1_555
O11 Zn1 2.048141 1_655
O11 Zn2 2.074918 1_555
