# generated using pymatgen
data_Li9Mn2Co5O16
_symmetry_space_group_name_H-M   'P 1'
_cell_length_a   5.88566700
_cell_length_b   6.65755353
_cell_length_c   7.69522873
_cell_angle_alpha   90.65028282
_cell_angle_beta   101.37104415
_cell_angle_gamma   103.25336092
_symmetry_Int_Tables_number   1
_chemical_formula_structural   Li9Mn2Co5O16
_chemical_formula_sum   'Li9 Mn2 Co5 O16'
_cell_volume   287.23309411
_cell_formula_units_Z   1
loop_
 _symmetry_equiv_pos_site_id
 _symmetry_equiv_pos_as_xyz
  1  'x, y, z'
loop_
 _atom_site_type_symbol
 _atom_site_label
 _atom_site_symmetry_multiplicity
 _atom_site_fract_x
 _atom_site_fract_y
 _atom_site_fract_z
 _atom_site_occupancy
  Li  Li0  1  0.87051600  0.37697400  0.12390700  1
  Li  Li1  1  0.49958400  0.99383600  0.00045300  1
  Li  Li2  1  0.25077900  0.74954800  0.24805200  1
  Li  Li3  1  0.62223800  0.12533000  0.37466200  1
  Li  Li4  1  0.00051100  0.50560400  0.49774800  1
  Li  Li5  1  0.37569600  0.86872000  0.62708100  1
  Li  Li6  1  0.74618200  0.25149100  0.75171600  1
  Li  Li7  1  0.13063400  0.62631600  0.87561700  1
  Li  Li8  1  0.62464600  0.62706300  0.87535700  1
  Mn  Mn0  1  0.99901600  0.99571400  0.00001500  1
  Mn  Mn1  1  0.87303000  0.87081500  0.62717400  1
  Co  Co0  1  0.26334100  0.25975300  0.75630400  1
  Co  Co1  1  0.50024400  0.50466700  0.50748000  1
  Co  Co2  1  0.13071900  0.12568700  0.37763300  1
  Co  Co3  1  0.73625800  0.74499200  0.23505300  1
  Co  Co4  1  0.37364000  0.37463300  0.12418400  1
  O  O0  1  0.83358200  0.05724000  0.18053300  1
  O  O1  1  0.45135000  0.69257400  0.07252000  1
  O  O2  1  0.20288300  0.42439000  0.30223500  1
  O  O3  1  0.58168100  0.81243700  0.45223400  1
  O  O4  1  0.95252300  0.16630100  0.57138000  1
  O  O5  1  0.31437000  0.54625400  0.67580300  1
  O  O6  1  0.71920000  0.94306500  0.81234600  1
  O  O7  1  0.07540100  0.29560800  0.94930600  1
  O  O8  1  0.94313300  0.71557200  0.06242600  1
  O  O9  1  0.53475300  0.30943800  0.94039400  1
  O  O10  1  0.28826600  0.05884600  0.18048000  1
  O  O11  1  0.66346700  0.44150400  0.30606500  1
  O  O12  1  0.03829100  0.81991900  0.44223900  1
  O  O13  1  0.42846900  0.19386800  0.55858900  1
  O  O14  1  0.81375900  0.58445300  0.67722100  1
  O  O15  1  0.16183400  0.93739600  0.81378600  1
loop_
_geom_bond_atom_site_label_1
_geom_bond_atom_site_label_2
_geom_bond_distance
_geom_bond_site_symmetry_2
Li0 O2 2.111397 1_655
Li0 O7 2.115355 1_654
Li0 O11 2.129428 1_555
Li0 O9 2.139965 1_554
Li0 O0 2.148140 1_555
Li0 O8 2.269418 1_555
Li1 O1 2.058422 1_555
Li1 O0 2.120127 1_565
Li1 O9 2.128749 1_564
Li1 O10 2.136834 1_565
Li1 O15 2.162295 1_554
Li1 O6 2.192576 1_554
Li2 O8 2.038429 1_455
Li2 O1 2.045591 1_555
Li2 O10 2.102490 1_565
Li2 O2 2.174055 1_555
Li2 O3 2.200371 1_555
Li2 O12 2.237462 1_555
Li3 O13 2.091064 1_555
Li3 O3 2.146868 1_545
Li3 O11 2.147057 1_555
Li3 O10 2.172646 1_555
Li3 O4 2.175318 1_555
Li3 O0 2.227181 1_555
Li4 O5 2.031580 1_555
Li4 O14 2.058596 1_455
Li4 O12 2.110721 1_555
Li4 O11 2.176414 1_455
Li4 O2 2.226674 1_555
Li4 O4 2.302868 1_455
Li5 O3 2.064130 1_555
Li5 O5 2.143848 1_555
Li5 O12 2.156904 1_555
Li5 O6 2.180262 1_555
Li5 O15 2.195386 1_555
Li5 O13 2.200526 1_565
Li6 O6 2.088215 1_545
Li6 O13 2.101154 1_555
Li6 O4 2.164456 1_555
Li6 O7 2.172535 1_655
Li6 O9 2.173774 1_555
Li6 O14 2.261664 1_555
Li7 O15 2.105166 1_555
Li7 O14 2.125097 1_455
Li7 O1 2.128099 1_556
Li7 O8 2.131745 1_456
Li7 O5 2.172367 1_555
Li7 O7 2.246685 1_555
Li8 O1 2.081262 1_556
Li8 O8 2.084108 1_556
Li8 O5 2.099392 1_555
Li8 O14 2.109085 1_555
Li8 O6 2.136242 1_555
Li8 O9 2.148815 1_555
Mn0 O8 1.902272 1_555
Mn0 O6 1.925282 1_554
Mn0 O10 1.931287 1_665
Mn0 O0 1.936192 1_565
Mn0 O15 1.955061 1_654
Mn0 O7 2.003980 1_664
Mn1 O14 1.915553 1_555
Mn1 O3 1.917307 1_555
Mn1 O12 1.942208 1_655
Mn1 O6 1.942785 1_555
Mn1 O15 1.955896 1_655
Mn1 O4 1.987344 1_565
Co0 O9 1.876906 1_555
Co0 O5 1.987367 1_555
Co0 O4 2.047002 1_455
Co0 O13 2.053099 1_555
Co0 O7 2.060872 1_555
Co0 O15 2.167081 1_545
Co1 O5 1.908074 1_555
Co1 O14 1.994403 1_555
Co1 O3 2.063655 1_555
Co1 O11 2.063880 1_555
Co1 O13 2.073105 1_555
Co1 O2 2.074899 1_555
Co2 O13 1.968464 1_555
Co2 O10 2.021921 1_555
Co2 O4 2.033086 1_455
Co2 O0 2.034587 1_455
Co2 O2 2.051286 1_555
Co2 O12 2.075789 1_545
Co3 O1 1.841946 1_555
Co3 O8 2.006692 1_555
Co3 O11 2.070025 1_555
Co3 O0 2.096223 1_565
Co3 O12 2.099671 1_655
Co3 O3 2.142960 1_555
Co4 O2 1.918965 1_555
Co4 O11 1.939888 1_555
Co4 O9 1.947168 1_554
Co4 O7 1.948844 1_554
Co4 O10 2.117132 1_555
Co4 O1 2.120050 1_555
