# generated using pymatgen
data_Be3N2
_symmetry_space_group_name_H-M   'P 1'
_cell_length_a   2.81777771
_cell_length_b   2.81777771
_cell_length_c   4.66702200
_cell_angle_alpha   90.00000000
_cell_angle_beta   90.00000000
_cell_angle_gamma   119.99999329
_symmetry_Int_Tables_number   1
_chemical_formula_structural   Be3N2
_chemical_formula_sum   'Be3 N2'
_cell_volume   32.09105310
_cell_formula_units_Z   1
loop_
 _symmetry_equiv_pos_site_id
 _symmetry_equiv_pos_as_xyz
  1  'x, y, z'
loop_
 _atom_site_type_symbol
 _atom_site_label
 _atom_site_symmetry_multiplicity
 _atom_site_fract_x
 _atom_site_fract_y
 _atom_site_fract_z
 _atom_site_occupancy
  Be  Be0  1  0.00000000  0.00000000  0.00000000  1
  Be  Be1  1  0.66666700  0.33333300  0.64963300  1
  Be  Be2  1  0.33333300  0.66666700  0.35036700  1
  N  N0  1  0.33333300  0.66666700  0.74705800  1
  N  N1  1  0.66666700  0.33333300  0.25294200  1
loop_
_geom_bond_atom_site_label_1
_geom_bond_atom_site_label_2
_geom_bond_distance
_geom_bond_site_symmetry_2
Be0 N1 2.010016 1_455
Be0 N0 2.010016 1_544
Be0 N1 2.010018 1_445
Be0 N0 2.010018 1_554
Be0 N1 2.010018 1_555
Be0 N0 2.010018 1_444
Be1 N0 1.689188 1_545
Be1 N0 1.689188 1_655
Be1 N0 1.689193 1_555
Be1 N1 1.851366 1_555
Be2 N1 1.689188 1_455
Be2 N1 1.689188 1_565
Be2 N1 1.689193 1_555
Be2 N0 1.851366 1_555
