# generated using pymatgen
data_Cd(FeN)2
_symmetry_space_group_name_H-M   'P 1'
_cell_length_a   6.20308247
_cell_length_b   6.34644597
_cell_length_c   15.98553300
_cell_angle_alpha   89.99999625
_cell_angle_beta   73.83910853
_cell_angle_gamma   120.76751769
_symmetry_Int_Tables_number   1
_chemical_formula_structural   Cd(FeN)2
_chemical_formula_sum   'Cd8 Fe16 N16'
_cell_volume   511.57981909
_cell_formula_units_Z   8
loop_
 _symmetry_equiv_pos_site_id
 _symmetry_equiv_pos_as_xyz
  1  'x, y, z'
loop_
 _atom_site_type_symbol
 _atom_site_label
 _atom_site_symmetry_multiplicity
 _atom_site_fract_x
 _atom_site_fract_y
 _atom_site_fract_z
 _atom_site_occupancy
  Cd  Cd0_0  1  0.00000000  0.00000000  0.25000000  1
  Cd  Cd0_1  1  0.00000000  0.00000000  0.75000000  1
  Cd  Cd0_2  1  0.00000000  0.50000000  0.25000000  1
  Cd  Cd0_3  1  0.00000000  0.50000000  0.75000000  1
  Cd  Cd0_4  1  0.50000000  0.00000000  0.25000000  1
  Cd  Cd0_5  1  0.50000000  0.00000000  0.75000000  1
  Cd  Cd0_6  1  0.50000000  0.50000000  0.25000000  1
  Cd  Cd0_7  1  0.50000000  0.50000000  0.75000000  1
  Fe  Fe0_0  1  0.27623400  0.13811700  0.05597200  1
  Fe  Fe0_1  1  0.27623400  0.13811700  0.55597200  1
  Fe  Fe0_2  1  0.27623400  0.63811700  0.05597200  1
  Fe  Fe0_3  1  0.27623400  0.63811700  0.55597200  1
  Fe  Fe0_4  1  0.77623400  0.13811700  0.05597200  1
  Fe  Fe0_5  1  0.77623400  0.13811700  0.55597200  1
  Fe  Fe0_6  1  0.77623400  0.63811700  0.05597200  1
  Fe  Fe0_7  1  0.77623400  0.63811700  0.55597200  1
  Fe  Fe1_0  1  0.22376600  0.36188300  0.44402800  1
  Fe  Fe1_1  1  0.22376600  0.36188300  0.94402800  1
  Fe  Fe1_2  1  0.22376600  0.86188300  0.44402800  1
  Fe  Fe1_3  1  0.22376600  0.86188300  0.94402800  1
  Fe  Fe1_4  1  0.72376600  0.36188300  0.44402800  1
  Fe  Fe1_5  1  0.72376600  0.36188300  0.94402800  1
  Fe  Fe1_6  1  0.72376600  0.86188300  0.44402800  1
  Fe  Fe1_7  1  0.72376600  0.86188300  0.94402800  1
  N  N0_0  1  0.40692800  0.20346450  0.42238900  1
  N  N0_1  1  0.40692800  0.20346450  0.92238900  1
  N  N0_2  1  0.40692800  0.70346450  0.42238900  1
  N  N0_3  1  0.40692800  0.70346450  0.92238900  1
  N  N0_4  1  0.90692800  0.20346450  0.42238900  1
  N  N0_5  1  0.90692800  0.20346450  0.92238900  1
  N  N0_6  1  0.90692800  0.70346450  0.42238900  1
  N  N0_7  1  0.90692800  0.70346450  0.92238900  1
  N  N1_0  1  0.09307200  0.29653550  0.07761100  1
  N  N1_1  1  0.09307200  0.29653550  0.57761100  1
  N  N1_2  1  0.09307200  0.79653550  0.07761100  1
  N  N1_3  1  0.09307200  0.79653550  0.57761100  1
  N  N1_4  1  0.59307200  0.29653550  0.07761100  1
  N  N1_5  1  0.59307200  0.29653550  0.57761100  1
  N  N1_6  1  0.59307200  0.79653550  0.07761100  1
  N  N1_7  1  0.59307200  0.79653550  0.57761100  1
loop_
_geom_bond_atom_site_label_1
_geom_bond_atom_site_label_2
_geom_bond_distance
_geom_bond_site_symmetry_2
Cd0_0 Fe0_0 2.971431 1_555
Cd0_0 Fe1_6 2.971431 1_445
Cd0_0 Cd0_4 3.101541 1_455
Cd0_0 Cd0_4 3.101541 1_555
Cd0_0 Cd0_6 3.101541 1_555
Cd0_0 Cd0_6 3.101541 1_445
Cd0_0 Cd0_2 3.173223 1_545
Cd0_0 Cd0_2 3.173223 1_555
Cd0_1 Fe1_7 2.971431 1_445
Cd0_1 Fe0_1 2.971431 1_555
Cd0_1 Cd0_5 3.101541 1_455
Cd0_1 Cd0_5 3.101541 1_555
Cd0_1 Cd0_7 3.101541 1_445
Cd0_1 Cd0_7 3.101541 1_555
Cd0_1 Cd0_3 3.173223 1_555
Cd0_1 Cd0_3 3.173223 1_545
Cd0_2 Fe1_4 2.971431 1_455
Cd0_2 Fe0_2 2.971431 1_555
Cd0_2 Cd0_6 3.101541 1_555
Cd0_2 Cd0_6 3.101541 1_455
Cd0_2 Cd0_4 3.101541 1_565
Cd0_2 Cd0_4 3.101541 1_455
Cd0_3 Fe1_5 2.971431 1_455
Cd0_3 Fe0_3 2.971431 1_555
Cd0_3 Cd0_7 3.101541 1_455
Cd0_3 Cd0_7 3.101541 1_555
Cd0_3 Cd0_5 3.101541 1_455
Cd0_3 Cd0_5 3.101541 1_565
Cd0_4 Fe1_2 2.971431 1_545
Cd0_4 Fe0_4 2.971431 1_555
Cd0_4 Cd0_6 3.173223 1_545
Cd0_4 Cd0_6 3.173223 1_555
Cd0_5 Fe1_3 2.971431 1_545
Cd0_5 Fe0_5 2.971431 1_555
Cd0_5 Cd0_7 3.173223 1_545
Cd0_5 Cd0_7 3.173223 1_555
Cd0_6 Fe0_6 2.971431 1_555
Cd0_6 Fe1_0 2.971431 1_555
Cd0_7 Fe1_1 2.971431 1_555
Cd0_7 Fe0_7 2.971431 1_555
Fe0_0 N1_4 1.830292 1_555
Fe0_0 N1_0 1.836102 1_555
Fe0_0 N1_2 1.836108 1_545
Fe0_0 N0_1 2.020264 1_554
Fe0_1 N1_5 1.830292 1_555
Fe0_1 N1_1 1.836102 1_555
Fe0_1 N1_3 1.836108 1_545
Fe0_1 N0_0 2.020264 1_555
Fe0_2 N1_6 1.830292 1_555
Fe0_2 N1_2 1.836102 1_555
Fe0_2 N1_0 1.836108 1_555
Fe0_2 N0_3 2.020264 1_554
Fe0_3 N1_7 1.830292 1_555
Fe0_3 N1_3 1.836102 1_555
Fe0_3 N1_1 1.836108 1_555
Fe0_3 N0_2 2.020264 1_555
Fe0_4 N1_0 1.830292 1_655
Fe0_4 N1_4 1.836102 1_555
Fe0_4 N1_6 1.836108 1_545
Fe0_4 N0_5 2.020264 1_554
Fe0_5 N1_1 1.830292 1_655
Fe0_5 N1_5 1.836102 1_555
Fe0_5 N1_7 1.836108 1_545
Fe0_5 N0_4 2.020264 1_555
Fe0_6 N1_2 1.830292 1_655
Fe0_6 N1_6 1.836102 1_555
Fe0_6 N1_4 1.836108 1_555
Fe0_6 N0_7 2.020264 1_554
Fe0_7 N1_3 1.830292 1_655
Fe0_7 N1_7 1.836102 1_555
Fe0_7 N1_5 1.836108 1_555
Fe0_7 N0_6 2.020264 1_555
Fe1_0 N0_4 1.830292 1_455
Fe1_0 N0_0 1.836102 1_555
Fe1_0 N0_2 1.836108 1_555
Fe1_0 N1_1 2.020264 1_555
Fe1_1 N0_5 1.830292 1_455
Fe1_1 N0_1 1.836102 1_555
Fe1_1 N0_3 1.836108 1_555
Fe1_1 N1_0 2.020264 1_556
Fe1_2 N0_6 1.830292 1_455
Fe1_2 N0_2 1.836102 1_555
Fe1_2 N0_0 1.836108 1_565
Fe1_2 N1_3 2.020264 1_555
Fe1_3 N0_7 1.830292 1_455
Fe1_3 N0_3 1.836102 1_555
Fe1_3 N0_1 1.836108 1_565
Fe1_3 N1_2 2.020264 1_556
Fe1_4 N0_0 1.830292 1_555
Fe1_4 N0_4 1.836102 1_555
Fe1_4 N0_6 1.836108 1_555
Fe1_4 N1_5 2.020264 1_555
Fe1_5 N0_1 1.830292 1_555
Fe1_5 N0_5 1.836102 1_555
Fe1_5 N0_7 1.836108 1_555
Fe1_5 N1_4 2.020264 1_556
Fe1_6 N0_2 1.830292 1_555
Fe1_6 N0_6 1.836102 1_555
Fe1_6 N0_4 1.836108 1_565
Fe1_6 N1_7 2.020264 1_555
Fe1_7 N0_3 1.830292 1_555
Fe1_7 N0_7 1.836102 1_555
Fe1_7 N0_5 1.836108 1_565
Fe1_7 N1_6 2.020264 1_556
