# generated using pymatgen
data_B2AsP
_symmetry_space_group_name_H-M   'P 1'
_cell_length_a   3.30868100
_cell_length_b   3.30868100
_cell_length_c   4.68460200
_cell_angle_alpha   90.00000000
_cell_angle_beta   90.00000000
_cell_angle_gamma   90.00000000
_symmetry_Int_Tables_number   1
_chemical_formula_structural   B2AsP
_chemical_formula_sum   'B2 As1 P1'
_cell_volume   51.28407121
_cell_formula_units_Z   1
loop_
 _symmetry_equiv_pos_site_id
 _symmetry_equiv_pos_as_xyz
  1  'x, y, z'
loop_
 _atom_site_type_symbol
 _atom_site_label
 _atom_site_symmetry_multiplicity
 _atom_site_fract_x
 _atom_site_fract_y
 _atom_site_fract_z
 _atom_site_occupancy
  B  B0  1  0.50000000  0.00000000  0.76380200  1
  B  B1  1  0.00000000  0.50000000  0.23619800  1
  As  As0  1  0.50000000  0.50000000  0.50000000  1
  P  P0  1  0.00000000  0.00000000  0.00000000  1
loop_
_geom_bond_atom_site_label_1
_geom_bond_atom_site_label_2
_geom_bond_distance
_geom_bond_site_symmetry_2
B0 P0 1.990269 1_556
B0 P0 1.990269 1_656
B1 P0 1.990269 1_565
B1 P0 1.990269 1_555
As0 B0 2.064961 1_565
As0 B1 2.064961 1_655
As0 B1 2.064961 1_555
As0 B0 2.064961 1_555
