# generated using pymatgen
data_SrZnF2
_symmetry_space_group_name_H-M   'P 1'
_cell_length_a   7.88888900
_cell_length_b   7.88888900
_cell_length_c   7.93381408
_cell_angle_alpha   119.81286687
_cell_angle_beta   119.81286687
_cell_angle_gamma   90.00000000
_symmetry_Int_Tables_number   1
_chemical_formula_structural   SrZnF2
_chemical_formula_sum   'Sr4 Zn4 F8'
_cell_volume   351.10509978
_cell_formula_units_Z   4
loop_
 _symmetry_equiv_pos_site_id
 _symmetry_equiv_pos_as_xyz
  1  'x, y, z'
loop_
 _atom_site_type_symbol
 _atom_site_label
 _atom_site_symmetry_multiplicity
 _atom_site_fract_x
 _atom_site_fract_y
 _atom_site_fract_z
 _atom_site_occupancy
  Sr  Sr0  1  0.62500000  0.87500000  0.25000000  1
  Sr  Sr1  1  0.62500000  0.37500000  0.25000000  1
  Sr  Sr2  1  0.62500000  0.37500000  0.75000000  1
  Sr  Sr3  1  0.12500000  0.37500000  0.75000000  1
  Zn  Zn0  1  0.12500000  0.37500000  0.25000000  1
  Zn  Zn1  1  0.12500000  0.87500000  0.25000000  1
  Zn  Zn2  1  0.12500000  0.87500000  0.75000000  1
  Zn  Zn3  1  0.62500000  0.87500000  0.75000000  1
  F  F0  1  0.47269300  0.15904600  0.31819100  1
  F  F1  1  0.84549800  0.15914500  0.31819100  1
  F  F2  1  0.40914500  0.22269300  0.81819100  1
  F  F3  1  0.77730700  0.59095400  0.18180900  1
  F  F4  1  0.40904600  0.59549800  0.81819100  1
  F  F5  1  0.40450200  0.59085500  0.18180900  1
  F  F6  1  0.84085500  0.52730700  0.68180900  1
  F  F7  1  0.84095400  0.15450200  0.68180900  1
loop_
_geom_bond_atom_site_label_1
_geom_bond_atom_site_label_2
_geom_bond_distance
_geom_bond_site_symmetry_2
F0 Sr2 2.487239 1_555
F0 Sr0 2.489682 1_545
F0 Sr1 2.490301 1_555
F1 Sr3 2.487238 1_655
F1 Sr1 2.489682 1_555
F1 Sr0 2.490301 1_545
F2 Sr1 2.487239 1_556
F2 Sr2 2.489682 1_555
F2 Sr3 2.490301 1_555
F3 Sr2 2.487239 1_554
F3 Sr0 2.489682 1_555
F3 Sr1 2.490301 1_555
F4 Sr0 2.487238 1_556
F4 Sr3 2.489682 1_555
F4 Sr2 2.490301 1_555
F5 Sr3 2.487238 1_554
F5 Sr1 2.489682 1_555
F5 Sr0 2.490301 1_555
F6 Sr1 2.487239 1_555
F6 Sr2 2.489682 1_555
F6 Sr3 2.490301 1_655
F7 Sr0 2.487238 1_545
F7 Sr3 2.489682 1_655
F7 Sr2 2.490301 1_555
