# generated using pymatgen
data_Li9Mn2Co5O16
_symmetry_space_group_name_H-M   'P 1'
_cell_length_a   7.75845188
_cell_length_b   7.75845188
_cell_length_c   5.91018488
_cell_angle_alpha   67.88495779
_cell_angle_beta   67.88495779
_cell_angle_gamma   97.23201809
_symmetry_Int_Tables_number   1
_chemical_formula_structural   Li9Mn2Co5O16
_chemical_formula_sum   'Li9 Mn2 Co5 O16'
_cell_volume   290.11243420
_cell_formula_units_Z   1
loop_
 _symmetry_equiv_pos_site_id
 _symmetry_equiv_pos_as_xyz
  1  'x, y, z'
loop_
 _atom_site_type_symbol
 _atom_site_label
 _atom_site_symmetry_multiplicity
 _atom_site_fract_x
 _atom_site_fract_y
 _atom_site_fract_z
 _atom_site_occupancy
  Li  Li0  1  0.86914000  0.62154600  0.50628000  1
  Li  Li1  1  0.37845400  0.13086000  0.49372000  1
  Li  Li2  1  0.74874700  0.25125300  0.50000000  1
  Li  Li3  1  0.24981000  0.75019000  0.50000000  1
  Li  Li4  1  0.61960000  0.86736600  0.51338000  1
  Li  Li5  1  0.13263400  0.38040000  0.48662000  1
  Li  Li6  1  0.49858900  0.50141100  0.50000000  1
  Li  Li7  1  0.00115800  0.99884200  0.50000000  1
  Li  Li8  1  0.49914300  0.50085700  0.00000000  1
  Mn  Mn0  1  0.00057600  0.99942400  0.00000000  1
  Mn  Mn1  1  0.74831300  0.25168700  0.00000000  1
  Co  Co0  1  0.86759000  0.61884800  0.00756200  1
  Co  Co1  1  0.38115200  0.13241000  0.99243800  1
  Co  Co2  1  0.25541800  0.74458200  0.00000000  1
  Co  Co3  1  0.62110200  0.86449900  0.00256700  1
  Co  Co4  1  0.13550100  0.37889800  0.99743300  1
  O  O0  1  0.12198200  0.88339900  0.22403900  1
  O  O1  1  0.63892800  0.37105600  0.22901100  1
  O  O2  1  0.00270200  0.50844400  0.22594100  1
  O  O3  1  0.52162300  0.01722000  0.21919600  1
  O  O4  1  0.87681600  0.12542000  0.22024300  1
  O  O5  1  0.37761700  0.64060600  0.23637100  1
  O  O6  1  0.76775700  0.76714500  0.22859900  1
  O  O7  1  0.24419700  0.24525900  0.22587000  1
  O  O8  1  0.62894400  0.36107200  0.77098900  1
  O  O9  1  0.11660100  0.87801800  0.77596100  1
  O  O10  1  0.49155600  0.99729800  0.77405900  1
  O  O11  1  0.98278000  0.47837700  0.78080400  1
  O  O12  1  0.35939400  0.62238300  0.76362900  1
  O  O13  1  0.87458000  0.12318400  0.77975700  1
  O  O14  1  0.23285500  0.23224300  0.77140100  1
  O  O15  1  0.75474100  0.75580300  0.77413000  1
loop_
_geom_bond_atom_site_label_1
_geom_bond_atom_site_label_2
_geom_bond_distance
_geom_bond_site_symmetry_2
Li0 O6 2.094737 1_555
Li0 O8 2.116719 1_555
Li0 O11 2.147165 1_555
Li0 O2 2.149386 1_655
Li0 O0 2.176968 1_655
Li0 O15 2.189789 1_555
Li1 O14 2.094737 1_555
Li1 O1 2.116719 1_555
Li1 O3 2.147165 1_555
Li1 O10 2.149386 1_545
Li1 O9 2.176968 1_545
Li1 O7 2.189789 1_555
Li2 O8 2.064214 1_555
Li2 O1 2.064214 1_555
Li2 O10 2.158934 1_545
Li2 O2 2.158934 1_655
Li2 O4 2.212870 1_555
Li2 O13 2.212870 1_555
Li3 O12 2.044540 1_555
Li3 O5 2.044540 1_555
Li3 O0 2.217784 1_555
Li3 O9 2.217784 1_555
Li3 O11 2.273692 1_455
Li3 O3 2.273692 1_565
Li4 O6 2.124254 1_555
Li4 O12 2.131855 1_555
Li4 O10 2.155427 1_555
Li4 O3 2.155963 1_565
Li4 O15 2.159673 1_555
Li4 O4 2.184397 1_565
Li5 O14 2.124254 1_555
Li5 O5 2.131855 1_555
Li5 O2 2.155427 1_555
Li5 O11 2.155963 1_455
Li5 O7 2.159673 1_555
Li5 O13 2.184397 1_455
Li6 O5 2.136387 1_555
Li6 O12 2.136387 1_555
Li6 O1 2.226499 1_555
Li6 O8 2.226499 1_555
Li6 O6 2.255761 1_555
Li6 O14 2.255761 1_555
Li7 O7 2.072547 1_565
Li7 O15 2.072547 1_455
Li7 O9 2.121593 1_555
Li7 O0 2.121593 1_555
Li7 O13 2.201314 1_465
Li7 O4 2.201314 1_465
Li8 O1 2.091939 1_555
Li8 O8 2.091939 1_554
Li8 O5 2.102911 1_555
Li8 O12 2.102911 1_554
Li8 O15 2.158256 1_554
Li8 O7 2.158256 1_555
Mn0 O9 1.925073 1_554
Mn0 O0 1.925073 1_555
Mn0 O13 1.955816 1_464
Mn0 O4 1.955816 1_465
Mn0 O14 1.960992 1_564
Mn0 O6 1.960992 1_455
Mn1 O1 1.920077 1_555
Mn1 O8 1.920077 1_554
Mn1 O3 1.945567 1_555
Mn1 O11 1.945567 1_554
Mn1 O4 1.977608 1_555
Mn1 O13 1.977608 1_554
Co0 O15 1.959314 1_554
Co0 O2 1.977552 1_655
Co0 O1 2.013644 1_555
Co0 O6 2.055364 1_555
Co0 O11 2.055644 1_554
Co0 O9 2.146550 1_654
Co1 O7 1.959314 1_556
Co1 O10 1.977552 1_545
Co1 O8 2.013644 1_555
Co1 O14 2.055364 1_555
Co1 O3 2.055644 1_556
Co1 O0 2.146550 1_546
Co2 O12 1.960222 1_554
Co2 O5 1.960222 1_555
Co2 O10 2.065467 1_554
Co2 O2 2.065467 1_555
Co2 O0 2.075407 1_555
Co2 O9 2.075407 1_554
Co3 O15 1.905887 1_554
Co3 O5 1.973957 1_555
Co3 O10 2.032413 1_554
Co3 O6 2.061757 1_555
Co3 O3 2.065739 1_565
Co3 O13 2.167039 1_564
Co4 O7 1.905887 1_556
Co4 O12 1.973957 1_555
Co4 O2 2.032413 1_556
Co4 O14 2.061757 1_555
Co4 O11 2.065739 1_455
Co4 O4 2.167039 1_456
