# generated using pymatgen
data_IrPt
_symmetry_space_group_name_H-M   'P 1'
_cell_length_a   9.55665294
_cell_length_b   9.55665294
_cell_length_c   9.55665162
_cell_angle_alpha   33.88409675
_cell_angle_beta   33.88409675
_cell_angle_gamma   33.88409926
_symmetry_Int_Tables_number   1
_chemical_formula_structural   IrPt
_chemical_formula_sum   'Ir8 Pt8'
_cell_volume   241.77278622
_cell_formula_units_Z   8
loop_
 _symmetry_equiv_pos_site_id
 _symmetry_equiv_pos_as_xyz
  1  'x, y, z'
loop_
 _atom_site_type_symbol
 _atom_site_label
 _atom_site_symmetry_multiplicity
 _atom_site_fract_x
 _atom_site_fract_y
 _atom_site_fract_z
 _atom_site_occupancy
  Ir  Ir0_0  1  0.00000000  0.00000000  0.00000000  1
  Ir  Ir0_1  1  0.00000000  0.00000000  0.50000000  1
  Ir  Ir0_2  1  0.00000000  0.50000000  0.00000000  1
  Ir  Ir0_3  1  0.00000000  0.50000000  0.50000000  1
  Ir  Ir0_4  1  0.50000000  0.00000000  0.00000000  1
  Ir  Ir0_5  1  0.50000000  0.00000000  0.50000000  1
  Ir  Ir0_6  1  0.50000000  0.50000000  0.00000000  1
  Ir  Ir0_7  1  0.50000000  0.50000000  0.50000000  1
  Pt  Pt0_0  1  0.25000000  0.25000000  0.25000000  1
  Pt  Pt0_1  1  0.25000000  0.25000000  0.75000000  1
  Pt  Pt0_2  1  0.25000000  0.75000000  0.25000000  1
  Pt  Pt0_3  1  0.25000000  0.75000000  0.75000000  1
  Pt  Pt0_4  1  0.75000000  0.25000000  0.25000000  1
  Pt  Pt0_5  1  0.75000000  0.25000000  0.75000000  1
  Pt  Pt0_6  1  0.75000000  0.75000000  0.25000000  1
  Pt  Pt0_7  1  0.75000000  0.75000000  0.75000000  1
loop_
_geom_bond_atom_site_label_1
_geom_bond_atom_site_label_2
_geom_bond_distance
_geom_bond_site_symmetry_2
Ir0_0 Pt0_4 2.765311 1_455
Ir0_0 Pt0_2 2.765311 1_545
Ir0_0 Pt0_3 2.765311 1_544
Ir0_0 Pt0_5 2.765311 1_454
Ir0_0 Pt0_1 2.765312 1_554
Ir0_0 Pt0_6 2.765312 1_445
Ir0_0 Ir0_3 2.784850 1_545
Ir0_0 Ir0_3 2.784850 1_554
Ir0_0 Ir0_5 2.784850 1_554
Ir0_0 Ir0_5 2.784850 1_455
Ir0_0 Ir0_6 2.784850 1_545
Ir0_0 Ir0_6 2.784850 1_455
Ir0_1 Pt0_2 2.765311 1_545
Ir0_1 Pt0_4 2.765311 1_455
Ir0_1 Pt0_5 2.765311 1_455
Ir0_1 Pt0_3 2.765311 1_545
Ir0_1 Pt0_7 2.765312 1_445
Ir0_1 Pt0_0 2.765312 1_555
Ir0_1 Ir0_4 2.784850 1_555
Ir0_1 Ir0_2 2.784850 1_555
Ir0_1 Ir0_2 2.784850 1_546
Ir0_1 Ir0_4 2.784850 1_456
Ir0_1 Ir0_7 2.784850 1_545
Ir0_1 Ir0_7 2.784850 1_455
Ir0_2 Pt0_0 2.765311 1_555
Ir0_2 Pt0_7 2.765311 1_454
Ir0_2 Pt0_6 2.765311 1_455
Ir0_2 Pt0_1 2.765311 1_554
Ir0_2 Pt0_3 2.765312 1_554
Ir0_2 Pt0_4 2.765312 1_455
Ir0_2 Ir0_7 2.784850 1_554
Ir0_2 Ir0_7 2.784850 1_455
Ir0_2 Ir0_4 2.784850 1_555
Ir0_2 Ir0_4 2.784850 1_465
Ir0_3 Pt0_6 2.765311 1_455
Ir0_3 Pt0_1 2.765311 1_555
Ir0_3 Pt0_0 2.765311 1_555
Ir0_3 Pt0_7 2.765311 1_455
Ir0_3 Pt0_5 2.765312 1_455
Ir0_3 Pt0_2 2.765312 1_555
Ir0_3 Ir0_6 2.784850 1_555
Ir0_3 Ir0_6 2.784850 1_456
Ir0_3 Ir0_5 2.784850 1_555
Ir0_3 Ir0_5 2.784850 1_465
Ir0_4 Pt0_7 2.765311 1_544
Ir0_4 Pt0_0 2.765311 1_555
Ir0_4 Pt0_6 2.765311 1_545
Ir0_4 Pt0_1 2.765311 1_554
Ir0_4 Pt0_5 2.765312 1_554
Ir0_4 Pt0_2 2.765312 1_545
Ir0_4 Ir0_7 2.784850 1_545
Ir0_4 Ir0_7 2.784850 1_554
Ir0_5 Pt0_6 2.765311 1_545
Ir0_5 Pt0_1 2.765311 1_555
Ir0_5 Pt0_0 2.765311 1_555
Ir0_5 Pt0_7 2.765311 1_545
Ir0_5 Pt0_3 2.765312 1_545
Ir0_5 Pt0_4 2.765312 1_555
Ir0_5 Ir0_6 2.784850 1_555
Ir0_5 Ir0_6 2.784850 1_546
Ir0_6 Pt0_4 2.765311 1_555
Ir0_6 Pt0_2 2.765311 1_555
Ir0_6 Pt0_3 2.765311 1_554
Ir0_6 Pt0_5 2.765311 1_554
Ir0_6 Pt0_0 2.765312 1_555
Ir0_6 Pt0_7 2.765312 1_554
Ir0_7 Pt0_4 2.765311 1_555
Ir0_7 Pt0_2 2.765311 1_555
Ir0_7 Pt0_5 2.765311 1_555
Ir0_7 Pt0_3 2.765311 1_555
Ir0_7 Pt0_1 2.765312 1_555
Ir0_7 Pt0_6 2.765312 1_555
Pt0_0 Pt0_3 2.784850 1_554
Pt0_0 Pt0_5 2.784850 1_554
Pt0_0 Pt0_3 2.784850 1_545
Pt0_0 Pt0_5 2.784850 1_455
Pt0_0 Pt0_6 2.784850 1_455
Pt0_0 Pt0_6 2.784850 1_545
Pt0_1 Pt0_4 2.784850 1_456
Pt0_1 Pt0_2 2.784850 1_546
Pt0_1 Pt0_4 2.784850 1_555
Pt0_1 Pt0_2 2.784850 1_555
Pt0_1 Pt0_7 2.784850 1_455
Pt0_1 Pt0_7 2.784850 1_545
Pt0_2 Pt0_7 2.784850 1_455
Pt0_2 Pt0_7 2.784850 1_554
Pt0_2 Pt0_4 2.784850 1_465
Pt0_2 Pt0_4 2.784850 1_555
Pt0_3 Pt0_6 2.784850 1_456
Pt0_3 Pt0_6 2.784850 1_555
Pt0_3 Pt0_5 2.784850 1_555
Pt0_3 Pt0_5 2.784850 1_465
Pt0_4 Pt0_7 2.784850 1_545
Pt0_4 Pt0_7 2.784850 1_554
Pt0_5 Pt0_6 2.784850 1_546
Pt0_5 Pt0_6 2.784850 1_555
