# generated using pymatgen
data_As
_symmetry_space_group_name_H-M   'P 1'
_cell_length_a   6.03393450
_cell_length_b   6.03393450
_cell_length_c   6.03393450
_cell_angle_alpha   60.00000000
_cell_angle_beta   60.00000000
_cell_angle_gamma   60.00000000
_symmetry_Int_Tables_number   1
_chemical_formula_structural   As
_chemical_formula_sum   As8
_cell_volume   155.34124300
_cell_formula_units_Z   8
loop_
 _symmetry_equiv_pos_site_id
 _symmetry_equiv_pos_as_xyz
  1  'x, y, z'
loop_
 _atom_site_type_symbol
 _atom_site_label
 _atom_site_symmetry_multiplicity
 _atom_site_fract_x
 _atom_site_fract_y
 _atom_site_fract_z
 _atom_site_occupancy
  As  As0_0  1  0.25000000  0.25000000  0.25000000  1
  As  As0_1  1  0.25000000  0.25000000  0.75000000  1
  As  As0_2  1  0.25000000  0.75000000  0.25000000  1
  As  As0_3  1  0.25000000  0.75000000  0.75000000  1
  As  As0_4  1  0.75000000  0.25000000  0.25000000  1
  As  As0_5  1  0.75000000  0.25000000  0.75000000  1
  As  As0_6  1  0.75000000  0.75000000  0.25000000  1
  As  As0_7  1  0.75000000  0.75000000  0.75000000  1
loop_
_geom_bond_atom_site_label_1
_geom_bond_atom_site_label_2
_geom_bond_distance
_geom_bond_site_symmetry_2
As0_0 As0_6 3.016967 1_545
As0_0 As0_2 3.016967 1_545
As0_0 As0_3 3.016967 1_545
As0_0 As0_4 3.016967 1_455
As0_0 As0_1 3.016967 1_554
As0_0 As0_5 3.016967 1_554
As0_0 As0_5 3.016967 1_455
As0_0 As0_3 3.016967 1_554
As0_0 As0_1 3.016967 1_555
As0_0 As0_2 3.016967 1_555
As0_0 As0_4 3.016967 1_555
As0_0 As0_6 3.016967 1_455
As0_1 As0_7 3.016967 1_545
As0_1 As0_3 3.016967 1_555
As0_1 As0_2 3.016967 1_546
As0_1 As0_3 3.016967 1_545
As0_1 As0_5 3.016967 1_455
As0_1 As0_2 3.016967 1_555
As0_1 As0_5 3.016967 1_555
As0_1 As0_4 3.016967 1_456
As0_1 As0_4 3.016967 1_555
As0_1 As0_7 3.016967 1_455
As0_2 As0_7 3.016967 1_554
As0_2 As0_6 3.016967 1_555
As0_2 As0_3 3.016967 1_555
As0_2 As0_3 3.016967 1_554
As0_2 As0_4 3.016967 1_465
As0_2 As0_4 3.016967 1_555
As0_2 As0_6 3.016967 1_455
As0_2 As0_7 3.016967 1_455
As0_3 As0_7 3.016967 1_555
As0_3 As0_6 3.016967 1_555
As0_3 As0_5 3.016967 1_465
As0_3 As0_5 3.016967 1_555
As0_3 As0_6 3.016967 1_456
As0_3 As0_7 3.016967 1_455
As0_4 As0_6 3.016967 1_545
As0_4 As0_5 3.016967 1_554
As0_4 As0_7 3.016967 1_545
As0_4 As0_5 3.016967 1_555
As0_4 As0_7 3.016967 1_554
As0_4 As0_6 3.016967 1_555
As0_5 As0_7 3.016967 1_555
As0_5 As0_6 3.016967 1_546
As0_5 As0_7 3.016967 1_545
As0_5 As0_6 3.016967 1_555
As0_6 As0_7 3.016967 1_555
As0_6 As0_7 3.016967 1_554
