# generated using pymatgen
data_KF3
_symmetry_space_group_name_H-M   'P 1'
_cell_length_a   7.26090553
_cell_length_b   7.37097815
_cell_length_c   9.45218696
_cell_angle_alpha   90.18057613
_cell_angle_beta   89.99124989
_cell_angle_gamma   90.00478391
_symmetry_Int_Tables_number   1
_chemical_formula_structural   KF3
_chemical_formula_sum   'K8 F24'
_cell_volume   505.87829982
_cell_formula_units_Z   8
loop_
 _symmetry_equiv_pos_site_id
 _symmetry_equiv_pos_as_xyz
  1  'x, y, z'
loop_
 _atom_site_type_symbol
 _atom_site_label
 _atom_site_symmetry_multiplicity
 _atom_site_fract_x
 _atom_site_fract_y
 _atom_site_fract_z
 _atom_site_occupancy
  K  K0  1  0.41671860  0.79791407  0.62928137  1
  K  K1  1  0.91638063  0.70193010  0.37079363  1
  K  K2  1  0.58389563  0.29790052  0.87145925  1
  K  K3  1  0.08384819  0.20204275  0.12817276  1
  K  K4  1  0.45160835  0.82621893  0.10765614  1
  K  K5  1  0.95156922  0.67362728  0.89254676  1
  K  K6  1  0.54794162  0.32580945  0.39346341  1
  K  K7  1  0.04795791  0.17422338  0.60648517  1
  F  F0  1  0.78176726  0.70991201  0.63620717  1
  F  F1  1  0.28168028  0.79025131  0.36410296  1
  F  F2  1  0.21832719  0.20972600  0.86224906  1
  F  F3  1  0.71834554  0.29029014  0.13749677  1
  F  F4  1  0.03449789  0.79480971  0.63111809  1
  F  F5  1  0.53436372  0.70515538  0.36897548  1
  F  F6  1  0.96540953  0.29368666  0.86912034  1
  F  F7  1  0.46537904  0.20652821  0.13073627  1
  F  F8  1  0.23361721  0.94699424  0.87017401  1
  F  F9  1  0.73372074  0.55299569  0.12979046  1
  F  F10  1  0.76678095  0.44699939  0.63135916  1
  F  F11  1  0.26684252  0.05319545  0.36849991  1
  F  F12  1  0.80848695  0.94198237  0.15191248  1
  F  F13  1  0.30854924  0.55795208  0.84820746  1
  F  F14  1  0.19167201  0.44144694  0.34848498  1
  F  F15  1  0.69169772  0.05871872  0.65152463  1
  F  F16  1  0.25717900  0.46528475  0.54789327  1
  F  F17  1  0.75699615  0.03474793  0.45209607  1
  F  F18  1  0.74267448  0.96475096  0.95262691  1
  F  F19  1  0.24240343  0.53525348  0.04746858  1
  F  F20  1  0.55151611  0.66306718  0.86778669  1
  F  F21  1  0.05139123  0.83674043  0.13241632  1
  F  F22  1  0.44835143  0.16287016  0.63245127  1
  F  F23  1  0.94842722  0.33697232  0.36744316  1
loop_
_geom_bond_atom_site_label_1
_geom_bond_atom_site_label_2
_geom_bond_distance
_geom_bond_site_symmetry_2
F0 K1 2.692750 1_555
F0 K0 2.729698 1_555
F0 K5 2.732663 1_555
F1 K0 2.692033 1_555
F1 K1 2.731849 1_455
F1 K4 2.733387 1_555
F2 K3 2.697177 1_556
F2 K7 2.727646 1_555
F2 K2 2.734051 1_555
F3 K2 2.698372 1_554
F3 K6 2.729154 1_555
F3 K3 2.733828 1_655
F4 K1 2.692377 1_455
F4 K5 2.698148 1_455
F4 K0 2.775413 1_555
F4 K7 2.808748 1_565
F5 K0 2.690700 1_555
F5 K4 2.696829 1_555
F5 K1 2.773949 1_555
F5 K6 2.808182 1_555
F6 K3 2.683789 1_656
F6 K7 2.698738 1_655
F6 K2 2.770397 1_555
F6 K5 2.810383 1_555
F7 K2 2.685125 1_554
F7 K6 2.699262 1_555
F7 K3 2.770563 1_555
F7 K4 2.812812 1_545
F8 K0 2.853618 1_555
F8 K5 2.881099 1_455
F8 K4 2.889727 1_556
F9 K1 2.852786 1_555
F9 K4 2.880805 1_555
F9 K5 2.886620 1_554
F10 K2 2.852406 1_555
F10 K7 2.874645 1_655
F10 K6 2.892637 1_555
F11 K3 2.854175 1_555
F11 K6 2.873288 1_555
F11 K7 2.892813 1_555
F12 K4 2.759609 1_555
F12 K3 2.779258 1_665
F12 K1 2.837031 1_555
F13 K5 2.760232 1_455
F13 K2 2.779037 1_555
F13 K0 2.837222 1_555
F14 K6 2.757172 1_555
F14 K1 2.779271 1_455
F14 K3 2.835582 1_555
F15 K7 2.756639 1_655
F15 K0 2.779048 1_545
F15 K2 2.831814 1_555
F16 K7 2.687740 1_555
F16 K6 2.763110 1_555
F16 K0 2.816551 1_555
F17 K6 2.687436 1_555
F17 K7 2.764222 1_655
F17 K1 2.817150 1_545
F18 K5 2.687083 1_555
F18 K4 2.768497 1_556
F18 K2 2.821439 1_565
F19 K4 2.687533 1_555
F19 K5 2.766713 1_454
F19 K3 2.819706 1_555
F20 K0 2.653896 1_555
F20 K4 2.663741 1_556
F20 K2 2.702236 1_555
F20 K5 2.915210 1_555
F21 K1 2.653021 1_455
F21 K5 2.663579 1_454
F21 K3 2.703332 1_565
F21 K4 2.916330 1_555
F22 K2 2.655056 1_555
F22 K6 2.661709 1_555
F22 K0 2.699924 1_545
F22 K7 2.918828 1_555
F23 K3 2.656363 1_655
F23 K7 2.661633 1_655
F23 K1 2.700246 1_555
F23 K6 2.919408 1_555
