# generated using pymatgen
data_Y4Mg(AgO3)4
_symmetry_space_group_name_H-M   'P 1'
_cell_length_a   6.20325815
_cell_length_b   6.96414090
_cell_length_c   7.08000200
_cell_angle_alpha   90.00000000
_cell_angle_beta   90.00000000
_cell_angle_gamma   72.93049757
_symmetry_Int_Tables_number   1
_chemical_formula_structural   Y4Mg(AgO3)4
_chemical_formula_sum   'Y4 Mg1 Ag4 O12'
_cell_volume   292.38540249
_cell_formula_units_Z   1
loop_
 _symmetry_equiv_pos_site_id
 _symmetry_equiv_pos_as_xyz
  1  'x, y, z'
loop_
 _atom_site_type_symbol
 _atom_site_label
 _atom_site_symmetry_multiplicity
 _atom_site_fract_x
 _atom_site_fract_y
 _atom_site_fract_z
 _atom_site_occupancy
  Y  Y0  1  0.03832800  0.88348100  0.75000000  1
  Y  Y1  1  0.42850300  0.54198200  0.25000000  1
  Y  Y2  1  0.56637300  0.46008600  0.75000000  1
  Y  Y3  1  0.96616900  0.14582900  0.25000000  1
  Mg  Mg0  1  0.85243500  0.71932000  0.25000000  1
  Ag  Ag0  1  0.03102000  0.45941300  0.54658000  1
  Ag  Ag1  1  0.51990600  0.99734500  0.50266200  1
  Ag  Ag2  1  0.51990600  0.99734500  0.99733800  1
  Ag  Ag3  1  0.03102000  0.45941300  0.95342000  1
  O  O0  1  0.72241600  0.38134100  0.44536900  1
  O  O1  1  0.18134400  0.08244800  0.53215400  1
  O  O2  1  0.85894000  0.91848400  0.05051500  1
  O  O3  1  0.28124800  0.62381400  0.94620900  1
  O  O4  1  0.28124800  0.62381400  0.55379100  1
  O  O5  1  0.85894000  0.91848400  0.44948500  1
  O  O6  1  0.18134400  0.08244800  0.96784600  1
  O  O7  1  0.72241600  0.38134100  0.05463100  1
  O  O8  1  0.11419300  0.43978100  0.25000000  1
  O  O9  1  0.59705000  0.12107900  0.75000000  1
  O  O10  1  0.50328800  0.84053400  0.25000000  1
  O  O11  1  0.80343800  0.65221800  0.75000000  1
loop_
_geom_bond_atom_site_label_1
_geom_bond_atom_site_label_2
_geom_bond_distance
_geom_bond_site_symmetry_2
Mg0 O5 1.988219 1_555
Mg0 O2 1.988219 1_555
Mg0 O10 2.080904 1_555
Mg0 O8 2.137914 1_655
Ag0 O8 2.156985 1_555
Ag0 O11 2.181129 1_455
Ag0 O4 2.183152 1_555
Ag0 O0 2.254965 1_455
Ag0 O1 2.516885 1_555
Ag1 O1 2.018642 1_565
Ag1 O5 2.046555 1_555
Ag1 O9 2.068853 1_565
Ag1 O10 2.114065 1_555
Ag2 O6 2.018642 1_565
Ag2 O2 2.046555 1_556
Ag2 O9 2.068853 1_565
Ag2 O10 2.114065 1_556
Ag3 O8 2.156985 1_556
Ag3 O11 2.181129 1_455
Ag3 O3 2.183152 1_555
Ag3 O7 2.254965 1_456
Ag3 O6 2.516885 1_555
O0 Y1 2.300332 1_555
O0 Y3 2.331042 1_555
O0 Y2 2.361739 1_555
O1 Y3 2.370910 1_455
O1 Y0 2.409887 1_545
O2 Y3 2.358426 1_565
O2 Y0 2.380201 1_654
O3 Y2 2.274698 1_555
O3 Y1 2.340874 1_556
O3 Y0 2.422995 1_555
O4 Y2 2.274698 1_555
O4 Y1 2.340874 1_555
O4 Y0 2.422995 1_555
O5 Y3 2.358426 1_565
O5 Y0 2.380201 1_655
O6 Y3 2.370910 1_456
O6 Y0 2.409887 1_545
O7 Y1 2.300332 1_555
O7 Y3 2.331042 1_555
O7 Y2 2.361739 1_554
O8 Y1 2.263352 1_555
O8 Y3 2.477374 1_455
O9 Y2 2.312202 1_555
O9 Y0 2.751729 1_645
O10 Y1 2.259283 1_555
O11 Y2 2.260106 1_555
O11 Y0 2.468728 1_655
