# generated using pymatgen
data_CsLa(WO4)2
_symmetry_space_group_name_H-M   'P 1'
_cell_length_a   7.84262508
_cell_length_b   7.84262508
_cell_length_c   7.69993744
_cell_angle_alpha   63.08029857
_cell_angle_beta   63.08029857
_cell_angle_gamma   90.08083604
_symmetry_Int_Tables_number   1
_chemical_formula_structural   CsLa(WO4)2
_chemical_formula_sum   'Cs2 La2 W4 O16'
_cell_volume   363.61436638
_cell_formula_units_Z   2
loop_
 _symmetry_equiv_pos_site_id
 _symmetry_equiv_pos_as_xyz
  1  'x, y, z'
loop_
 _atom_site_type_symbol
 _atom_site_label
 _atom_site_symmetry_multiplicity
 _atom_site_fract_x
 _atom_site_fract_y
 _atom_site_fract_z
 _atom_site_occupancy
  Cs  Cs0  1  0.19828900  0.80171100  0.25000000  1
  Cs  Cs1  1  0.80171100  0.19828900  0.75000000  1
  La  La0  1  0.77544200  0.22455800  0.25000000  1
  La  La1  1  0.22455800  0.77544200  0.75000000  1
  W  W0  1  0.69416500  0.68527700  0.27777400  1
  W  W1  1  0.30583500  0.31472300  0.72222600  1
  W  W2  1  0.31472300  0.30583500  0.22222600  1
  W  W3  1  0.68527700  0.69416500  0.77777400  1
  O  O0  1  0.62018900  0.74764800  0.06443600  1
  O  O1  1  0.37981100  0.25235200  0.93556400  1
  O  O2  1  0.25235200  0.37981100  0.43556400  1
  O  O3  1  0.74764800  0.62018900  0.56443600  1
  O  O4  1  0.38173000  0.07476200  0.36448200  1
  O  O5  1  0.61827000  0.92523800  0.63551800  1
  O  O6  1  0.92523800  0.61827000  0.13551800  1
  O  O7  1  0.07476200  0.38173000  0.86448200  1
  O  O8  1  0.58223700  0.37347100  0.47124600  1
  O  O9  1  0.41776300  0.62652900  0.52875400  1
  O  O10  1  0.62652900  0.41776300  0.02875400  1
  O  O11  1  0.37347100  0.58223700  0.97124600  1
  O  O12  1  0.78479400  0.93957000  0.19821600  1
  O  O13  1  0.21520600  0.06043000  0.80178400  1
  O  O14  1  0.06043000  0.21520600  0.30178400  1
  O  O15  1  0.93957000  0.78479400  0.69821600  1
loop_
_geom_bond_atom_site_label_1
_geom_bond_atom_site_label_2
_geom_bond_distance
_geom_bond_site_symmetry_2
Cs0 O15 3.047858 1_455
Cs0 O13 3.047858 1_564
Cs0 O2 3.072647 1_555
Cs0 O0 3.072647 1_555
Cs0 O3 3.081556 1_455
Cs0 O1 3.081556 1_564
Cs0 O11 3.184186 1_554
Cs0 O9 3.184186 1_555
Cs0 O6 3.206467 1_455
Cs0 O4 3.206467 1_565
Cs0 O12 3.554520 1_455
Cs0 O14 3.554520 1_565
Cs1 O12 3.047858 1_546
Cs1 O14 3.047858 1_655
Cs1 O1 3.072647 1_555
Cs1 O3 3.072647 1_555
Cs1 O0 3.081556 1_546
Cs1 O2 3.081556 1_655
Cs1 O10 3.184186 1_556
Cs1 O8 3.184186 1_555
Cs1 O5 3.206467 1_545
Cs1 O7 3.206467 1_655
Cs1 O13 3.554520 1_655
Cs1 O15 3.554520 1_545
La0 O14 2.437370 1_655
La0 O12 2.437370 1_545
La0 O10 2.455850 1_555
La0 O8 2.455850 1_555
La0 O7 2.492117 1_654
La0 O5 2.492117 1_545
La0 O6 2.877285 1_555
La0 O4 2.877285 1_555
La1 O15 2.437370 1_455
La1 O13 2.437370 1_565
La1 O9 2.455850 1_555
La1 O11 2.455850 1_555
La1 O4 2.492117 1_565
La1 O6 2.492117 1_456
La1 O7 2.877285 1_555
La1 O5 2.877285 1_555
O0 W0 1.846745 1_555
O0 W3 2.264352 1_554
O1 W1 1.846745 1_555
O1 W2 2.264352 1_556
O2 W2 1.846745 1_555
O2 W1 2.264352 1_555
O3 W3 1.846745 1_555
O3 W0 2.264352 1_555
O4 W2 1.867246 1_555
O5 W3 1.867246 1_555
O6 W0 1.867246 1_555
O7 W1 1.867246 1_555
O8 W1 2.010888 1_555
O8 W0 2.116821 1_555
O9 W0 2.010888 1_555
O9 W1 2.116821 1_555
O10 W3 2.010888 1_554
O10 W2 2.116821 1_555
O11 W2 2.010888 1_556
O11 W3 2.116821 1_555
O12 W0 1.831202 1_555
O13 W1 1.831202 1_555
O14 W2 1.831202 1_555
O15 W3 1.831202 1_555
