# generated using pymatgen
data_Mn3V2O8
_symmetry_space_group_name_H-M   'P 1'
_cell_length_a   6.15387484
_cell_length_b   6.62051190
_cell_length_c   8.40920563
_cell_angle_alpha   89.99971852
_cell_angle_beta   90.00001027
_cell_angle_gamma   117.68299913
_symmetry_Int_Tables_number   1
_chemical_formula_structural   Mn3V2O8
_chemical_formula_sum   'Mn6 V4 O16'
_cell_volume   303.38857643
_cell_formula_units_Z   2
loop_
 _symmetry_equiv_pos_site_id
 _symmetry_equiv_pos_as_xyz
  1  'x, y, z'
loop_
 _atom_site_type_symbol
 _atom_site_label
 _atom_site_symmetry_multiplicity
 _atom_site_fract_x
 _atom_site_fract_y
 _atom_site_fract_z
 _atom_site_occupancy
  Mn  Mn0  1  0.11172995  0.72417583  0.24999080  1
  Mn  Mn1  1  0.38827289  0.27582385  0.74998586  1
  Mn  Mn2  1  0.61172407  0.72417575  0.25001525  1
  Mn  Mn3  1  0.88827422  0.27582501  0.75000863  1
  Mn  Mn4  1  0.49999670  0.00000520  0.50000019  1
  Mn  Mn5  1  -0.00000500  -0.00000017  0.00000020  1
  V  V0  1  0.87962644  0.75915672  0.61826644  1
  V  V1  1  0.12037449  0.24084465  0.38173608  1
  V  V2  1  0.62036734  0.24083514  0.11826874  1
  V  V3  1  0.37963062  0.75916215  0.88173211  1
  O  O0  1  0.11185667  0.76580198  0.49923501  1
  O  O1  1  0.34596812  0.23423765  0.50081415  1
  O  O2  1  0.38815063  0.23419364  0.99923882  1
  O  O3  1  0.15404468  0.76576392  0.00080664  1
  O  O4  1  0.88813684  0.23419889  0.50077019  1
  O  O5  1  0.65404058  0.76576276  0.49919103  1
  O  O6  1  0.61185205  0.76580364  0.00076288  1
  O  O7  1  0.84595182  0.23423623  0.99919650  1
  O  O8  1  0.50019567  0.00034031  0.74878003  1
  O  O9  1  0.49981059  -0.00033279  0.25121291  1
  O  O10  1  0.25330493  0.50623264  0.77437627  1
  O  O11  1  0.74669509  0.49376462  0.22561892  1
  O  O12  1  0.24670394  0.49377901  0.27437041  1
  O  O13  1  -0.00020028  -0.00035002  0.24877696  1
  O  O14  1  0.00019804  0.00034208  0.75121614  1
  O  O15  1  0.75330290  0.50622832  0.72562585  1
loop_
_geom_bond_atom_site_label_1
_geom_bond_atom_site_label_2
_geom_bond_distance
_geom_bond_site_symmetry_2
Mn0 O11 2.056995 1_455
Mn0 O12 2.058116 1_555
Mn0 O3 2.113733 1_555
Mn0 O0 2.113940 1_555
Mn0 O13 2.228893 1_565
Mn0 O9 2.232250 1_565
Mn1 O15 2.056951 1_555
Mn1 O10 2.058172 1_555
Mn1 O1 2.113627 1_555
Mn1 O2 2.114016 1_555
Mn1 O8 2.228921 1_555
Mn1 O14 2.232206 1_555
Mn2 O12 2.056890 1_555
Mn2 O11 2.058205 1_555
Mn2 O5 2.113666 1_555
Mn2 O6 2.114007 1_555
Mn2 O9 2.228932 1_565
Mn2 O13 2.232194 1_665
Mn3 O10 2.056967 1_655
Mn3 O15 2.058146 1_555
Mn3 O7 2.113767 1_555
Mn3 O4 2.113888 1_555
Mn3 O14 2.228921 1_655
Mn3 O8 2.232228 1_555
Mn4 O8 2.092042 1_555
Mn4 O9 2.092104 1_555
Mn4 O4 2.160604 1_555
Mn4 O0 2.160617 1_545
Mn4 O1 2.160804 1_555
Mn4 O5 2.160937 1_545
Mn5 O13 2.092016 1_555
Mn5 O14 2.092077 1_554
Mn5 O6 2.160621 1_445
Mn5 O2 2.160678 1_554
Mn5 O7 2.160897 1_454
Mn5 O3 2.160925 1_545
O0 V0 1.728528 1_455
O1 V1 1.728684 1_555
O2 V2 1.728461 1_556
O3 V3 1.728615 1_554
O4 V1 1.728577 1_655
O5 V0 1.728630 1_555
O6 V3 1.728489 1_554
O7 V2 1.728589 1_556
O8 V3 1.802555 1_545
O9 V2 1.802467 1_555
O10 V3 1.736043 1_555
O11 V2 1.736018 1_555
O12 V1 1.736102 1_555
O13 V1 1.802677 1_555
O14 V0 1.802585 1_445
O15 V0 1.736044 1_555
