# generated using pymatgen
data_CeSe2
_symmetry_space_group_name_H-M   'P 1'
_cell_length_a   7.76439032
_cell_length_b   15.78171796
_cell_length_c   15.78171786
_cell_angle_alpha   117.36505539
_cell_angle_beta   99.43888474
_cell_angle_gamma   99.43888467
_symmetry_Int_Tables_number   1
_chemical_formula_structural   CeSe2
_chemical_formula_sum   'Ce6 Se12'
_cell_volume   1629.69549361
_cell_formula_units_Z   6
loop_
 _symmetry_equiv_pos_site_id
 _symmetry_equiv_pos_as_xyz
  1  'x, y, z'
loop_
 _atom_site_type_symbol
 _atom_site_label
 _atom_site_symmetry_multiplicity
 _atom_site_fract_x
 _atom_site_fract_y
 _atom_site_fract_z
 _atom_site_occupancy
  Ce  Ce0  1  0.25006362  0.57012079  0.42990726  1
  Ce  Ce1  1  0.82015637  0.57009274  0.14021353  1
  Ce  Ce2  1  0.67994283  0.85978647  0.42987921  1
  Ce  Ce3  1  0.75006362  0.42990726  0.57012079  1
  Ce  Ce4  1  0.17994283  0.42987921  0.85978647  1
  Ce  Ce5  1  0.32015637  0.14021353  0.57009274  1
  Se  Se0  1  0.49988839  0.99994023  0.49991537  1
  Se  Se1  1  0.99997301  0.50008463  0.50002486  1
  Se  Se2  1  0.49994815  0.49997514  0.00005977  1
  Se  Se3  1  0.99988839  0.49991537  0.99994023  1
  Se  Se4  1  0.99994815  0.00005977  0.49997514  1
  Se  Se5  1  0.49997301  0.50002486  0.50008463  1
  Se  Se6  1  0.49640406  0.74640555  0.49277901  1
  Se  Se7  1  0.00362505  0.50722099  0.25362654  1
  Se  Se8  1  0.74999851  0.74637346  0.25359445  1
  Se  Se9  1  0.99640406  0.49277901  0.74640555  1
  Se  Se10  1  0.24999851  0.25359445  0.74637346  1
  Se  Se11  1  0.50362505  0.25362654  0.50722099  1
loop_
_geom_bond_atom_site_label_1
_geom_bond_atom_site_label_2
_geom_bond_distance
_geom_bond_site_symmetry_2
Ce0 Se5 2.709426 1_555
Ce0 Se1 2.709611 1_455
Ce0 Se6 2.734468 1_555
Ce0 Se7 2.734684 1_555
Ce1 Se3 2.709426 1_554
Ce1 Se2 2.709612 1_555
Ce1 Se7 2.734468 1_655
Ce1 Se8 2.734684 1_555
Ce2 Se4 2.709426 1_565
Ce2 Se0 2.709611 1_555
Ce2 Se8 2.734468 1_555
Ce2 Se6 2.734684 1_555
Ce3 Se1 2.709426 1_555
Ce3 Se5 2.709611 1_555
Ce3 Se9 2.734468 1_555
Ce3 Se11 2.734684 1_555
Ce4 Se2 2.709426 1_556
Ce4 Se3 2.709611 1_455
Ce4 Se10 2.734468 1_555
Ce4 Se9 2.734684 1_455
Ce5 Se0 2.709426 1_545
Ce5 Se4 2.709612 1_455
Ce5 Se11 2.734468 1_555
Ce5 Se10 2.734684 1_555
