# generated using pymatgen
data_Sr2Pr2Tl2Cu3O10
_symmetry_space_group_name_H-M   'P 1'
_cell_length_a   18.01152433
_cell_length_b   18.01152433
_cell_length_c   18.01152433
_cell_angle_alpha   167.39831156
_cell_angle_beta   167.39831156
_cell_angle_gamma   17.85777321
_symmetry_Int_Tables_number   1
_chemical_formula_structural   Sr2Pr2Tl2Cu3O10
_chemical_formula_sum   'Sr2 Pr2 Tl2 Cu3 O10'
_cell_volume   278.11035271
_cell_formula_units_Z   1
loop_
 _symmetry_equiv_pos_site_id
 _symmetry_equiv_pos_as_xyz
  1  'x, y, z'
loop_
 _atom_site_type_symbol
 _atom_site_label
 _atom_site_symmetry_multiplicity
 _atom_site_fract_x
 _atom_site_fract_y
 _atom_site_fract_z
 _atom_site_occupancy
  Sr  Sr0  1  0.35344200  0.35344200  0.00000000  1
  Sr  Sr1  1  0.64655800  0.64655800  0.00000000  1
  Pr  Pr0  1  0.45077900  0.45077900  0.00000000  1
  Pr  Pr1  1  0.54922100  0.54922100  0.00000000  1
  Tl  Tl0  1  0.21854900  0.21854900  0.00000000  1
  Tl  Tl1  1  0.78145100  0.78145100  0.00000000  1
  Cu  Cu0  1  0.09404700  0.09404700  0.00000000  1
  Cu  Cu1  1  0.90595300  0.90595300  0.00000000  1
  Cu  Cu2  1  0.00000000  0.00000000  0.00000000  1
  O  O0  1  0.58995400  0.08995400  0.50000000  1
  O  O1  1  0.41004600  0.91004600  0.50000000  1
  O  O2  1  0.08995400  0.58995400  0.50000000  1
  O  O3  1  0.91004600  0.41004600  0.50000000  1
  O  O4  1  0.50000000  0.00000000  0.50000000  1
  O  O5  1  0.00000000  0.50000000  0.50000000  1
  O  O6  1  0.28010800  0.28010800  0.00000000  1
  O  O7  1  0.71989200  0.71989200  0.00000000  1
  O  O8  1  0.15787700  0.15787700  0.00000000  1
  O  O9  1  0.84212300  0.84212300  0.00000000  1
loop_
_geom_bond_atom_site_label_1
_geom_bond_atom_site_label_2
_geom_bond_distance
_geom_bond_site_symmetry_2
Cu0 O0 1.982105 1_454
Cu0 O2 1.982105 1_544
Cu0 O0 1.982105 1_555
Cu0 O2 1.982105 1_555
Cu0 O8 2.271487 1_555
Cu1 O1 1.982105 1_655
Cu1 O1 1.982105 1_554
Cu1 O3 1.982105 1_565
Cu1 O3 1.982105 1_554
Cu1 O9 2.271487 1_555
Cu2 O4 1.976746 1_555
Cu2 O5 1.976746 1_555
Cu2 O4 1.976746 1_454
Cu2 O5 1.976746 1_544
O0 Pr1 2.451266 1_545
O0 Pr1 2.451266 1_556
O0 Sr1 2.822248 1_545
O0 Sr1 2.822248 1_556
O1 Pr0 2.451266 1_555
O1 Pr0 2.451266 1_566
O1 Sr0 2.822248 1_555
O1 Sr0 2.822248 1_566
O2 Pr1 2.451266 1_455
O2 Pr1 2.451266 1_556
O2 Sr1 2.822248 1_455
O2 Sr1 2.822248 1_556
O3 Pr0 2.451266 1_656
O3 Pr0 2.451266 1_555
O3 Sr0 2.822248 1_555
O3 Sr0 2.822248 1_656
O4 Pr1 2.641144 1_545
O4 Pr1 2.641144 1_556
O4 Pr0 2.641144 1_545
O4 Pr0 2.641144 1_556
O5 Pr1 2.641144 1_556
O5 Pr1 2.641144 1_455
O5 Pr0 2.641144 1_455
O5 Pr0 2.641144 1_556
O6 Tl0 2.190670 1_555
O6 Sr0 2.609701 1_555
O6 Tl1 2.795950 1_444
O6 Tl1 2.795950 1_455
O6 Tl1 2.795950 1_545
O6 Tl1 2.795950 1_556
O7 Tl1 2.190670 1_555
O7 Sr1 2.609701 1_555
O7 Tl0 2.795950 1_565
O7 Tl0 2.795950 1_666
O7 Tl0 2.795950 1_655
O7 Tl0 2.795950 1_554
O8 Tl0 2.159105 1_555
O8 Sr1 2.824412 1_556
O8 Sr1 2.824412 1_444
O8 Sr1 2.824412 1_545
O8 Sr1 2.824412 1_455
O9 Tl1 2.159105 1_555
O9 Sr0 2.824412 1_554
O9 Sr0 2.824412 1_565
O9 Sr0 2.824412 1_666
O9 Sr0 2.824412 1_655
