# generated using pymatgen
data_NaIn3S5
_symmetry_space_group_name_H-M   'P 1'
_cell_length_a   3.85191700
_cell_length_b   12.66737000
_cell_length_c   16.32018200
_cell_angle_alpha   90.00000000
_cell_angle_beta   90.00000000
_cell_angle_gamma   90.00000000
_symmetry_Int_Tables_number   1
_chemical_formula_structural   NaIn3S5
_chemical_formula_sum   'Na4 In12 S20'
_cell_volume   796.32137653
_cell_formula_units_Z   4
loop_
 _symmetry_equiv_pos_site_id
 _symmetry_equiv_pos_as_xyz
  1  'x, y, z'
loop_
 _atom_site_type_symbol
 _atom_site_label
 _atom_site_symmetry_multiplicity
 _atom_site_fract_x
 _atom_site_fract_y
 _atom_site_fract_z
 _atom_site_occupancy
  Na  Na0  1  0.00000000  0.74981600  0.37422000  1
  Na  Na1  1  0.00000000  0.25018400  0.62578000  1
  Na  Na2  1  0.00000000  0.24981600  0.12578000  1
  Na  Na3  1  0.00000000  0.75018400  0.87422000  1
  In  In0  1  0.50000000  0.79261400  0.12274500  1
  In  In1  1  0.50000000  0.20738600  0.87725500  1
  In  In2  1  0.50000000  0.29261400  0.37725500  1
  In  In3  1  0.50000000  0.70738600  0.62274500  1
  In  In4  1  0.00000000  0.53971800  0.19792300  1
  In  In5  1  0.00000000  0.46028200  0.80207700  1
  In  In6  1  0.00000000  0.03971800  0.30207700  1
  In  In7  1  0.00000000  0.96028200  0.69792300  1
  In  In8  1  0.50000000  0.50000000  0.00000000  1
  In  In9  1  0.50000000  0.00000000  0.50000000  1
  In  In10  1  0.00000000  0.50000000  0.50000000  1
  In  In11  1  0.00000000  0.00000000  0.00000000  1
  S  S0  1  0.50000000  0.63860000  0.47515500  1
  S  S1  1  0.50000000  0.36140000  0.52484500  1
  S  S2  1  0.50000000  0.13860000  0.02484500  1
  S  S3  1  0.50000000  0.86140000  0.97515500  1
  S  S4  1  0.50000000  0.66981700  0.24649200  1
  S  S5  1  0.50000000  0.33018300  0.75350800  1
  S  S6  1  0.50000000  0.16981700  0.25350800  1
  S  S7  1  0.50000000  0.83018300  0.74649200  1
  S  S8  1  0.50000000  0.91716100  0.35837500  1
  S  S9  1  0.50000000  0.08283900  0.64162500  1
  S  S10  1  0.50000000  0.41716100  0.14162500  1
  S  S11  1  0.50000000  0.58283900  0.85837500  1
  S  S12  1  0.00000000  0.63762200  0.05504200  1
  S  S13  1  0.00000000  0.36237800  0.94495800  1
  S  S14  1  0.00000000  0.13762200  0.44495800  1
  S  S15  1  0.00000000  0.86237800  0.55504200  1
  S  S16  1  0.00000000  0.92498800  0.15753400  1
  S  S17  1  0.00000000  0.07501200  0.84246600  1
  S  S18  1  0.00000000  0.42498800  0.34246600  1
  S  S19  1  0.00000000  0.57501200  0.65753400  1
loop_
_geom_bond_atom_site_label_1
_geom_bond_atom_site_label_2
_geom_bond_distance
_geom_bond_site_symmetry_2
Na0 S8 2.875731 1_455
Na0 S8 2.875731 1_555
Na0 S0 2.899586 1_455
Na0 S0 2.899586 1_555
Na0 S4 3.013565 1_455
Na0 S4 3.013565 1_555
Na0 S15 3.277465 1_555
Na1 S9 2.875731 1_455
Na1 S9 2.875731 1_555
Na1 S1 2.899586 1_455
Na1 S1 2.899586 1_555
Na1 S5 3.013565 1_455
Na1 S5 3.013565 1_555
Na1 S14 3.277465 1_555
Na2 S10 2.875731 1_455
Na2 S10 2.875731 1_555
Na2 S2 2.899586 1_555
Na2 S2 2.899586 1_455
Na2 S6 3.013565 1_555
Na2 S6 3.013565 1_455
Na2 S13 3.277465 1_554
Na3 S11 2.875731 1_455
Na3 S11 2.875731 1_555
Na3 S3 2.899586 1_555
Na3 S3 2.899586 1_455
Na3 S7 3.013565 1_555
Na3 S7 3.013565 1_455
Na3 S12 3.277465 1_556
In0 S4 2.549177 1_555
In0 S3 2.561454 1_554
In0 S16 2.615995 1_655
In0 S16 2.615995 1_555
In0 S12 2.963930 1_555
In0 S12 2.963930 1_655
In1 S5 2.549177 1_555
In1 S2 2.561454 1_556
In1 S17 2.615995 1_555
In1 S17 2.615995 1_655
In1 S13 2.963930 1_555
In1 S13 2.963930 1_655
In2 S6 2.549177 1_555
In2 S1 2.561454 1_555
In2 S18 2.615995 1_555
In2 S18 2.615995 1_655
In2 S14 2.963930 1_555
In2 S14 2.963930 1_655
In3 S7 2.549177 1_555
In3 S0 2.561454 1_555
In3 S19 2.615995 1_655
In3 S19 2.615995 1_555
In3 S15 2.963930 1_655
In3 S15 2.963930 1_555
In4 S10 2.638878 1_455
In4 S10 2.638878 1_555
In4 S12 2.641128 1_555
In4 S4 2.655854 1_455
In4 S4 2.655854 1_555
In4 S18 2.770720 1_555
In5 S11 2.638878 1_455
In5 S11 2.638878 1_555
In5 S13 2.641128 1_555
In5 S5 2.655854 1_455
In5 S5 2.655854 1_555
In5 S19 2.770720 1_555
In6 S8 2.638878 1_545
In6 S8 2.638878 1_445
In6 S14 2.641128 1_555
In6 S6 2.655854 1_455
In6 S6 2.655854 1_555
In6 S16 2.770720 1_545
In7 S9 2.638878 1_565
In7 S9 2.638878 1_465
In7 S15 2.641128 1_555
In7 S7 2.655854 1_455
In7 S7 2.655854 1_555
In7 S17 2.770720 1_565
In8 S10 2.538397 1_555
In8 S11 2.538397 1_554
In8 S12 2.748704 1_555
In8 S12 2.748704 1_655
In8 S13 2.748704 1_654
In8 S13 2.748704 1_554
In9 S9 2.538397 1_555
In9 S8 2.538397 1_545
In9 S14 2.748704 1_655
In9 S14 2.748704 1_555
In9 S15 2.748704 1_645
In9 S15 2.748704 1_545
In10 S0 2.637461 1_555
In10 S0 2.637461 1_455
In10 S1 2.637461 1_455
In10 S1 2.637461 1_555
In10 S19 2.740957 1_555
In10 S18 2.740957 1_555
In11 S3 2.637461 1_444
In11 S3 2.637461 1_544
In11 S2 2.637461 1_455
In11 S2 2.637461 1_555
In11 S17 2.740957 1_554
In11 S16 2.740957 1_545
