# generated using pymatgen
data_NaVF3
_symmetry_space_group_name_H-M   'P 1'
_cell_length_a   5.42093668
_cell_length_b   5.67689025
_cell_length_c   7.79968438
_cell_angle_alpha   90.00000000
_cell_angle_beta   90.00000000
_cell_angle_gamma   90.00000000
_symmetry_Int_Tables_number   1
_chemical_formula_structural   NaVF3
_chemical_formula_sum   'Na4 V4 F12'
_cell_volume   240.02797525
_cell_formula_units_Z   4
loop_
 _symmetry_equiv_pos_site_id
 _symmetry_equiv_pos_as_xyz
  1  'x, y, z'
loop_
 _atom_site_type_symbol
 _atom_site_label
 _atom_site_symmetry_multiplicity
 _atom_site_fract_x
 _atom_site_fract_y
 _atom_site_fract_z
 _atom_site_occupancy
  Na  Na0  1  0.48126824  0.06234851  0.25000000  1
  Na  Na1  1  0.01873176  0.56234851  0.25000000  1
  Na  Na2  1  0.51873176  0.93765149  0.75000000  1
  Na  Na3  1  0.98126824  0.43765149  0.75000000  1
  V  V0  1  0.50000000  0.50000000  0.00000000  1
  V  V1  1  0.00000000  0.00000000  0.50000000  1
  V  V2  1  0.50000000  0.50000000  0.50000000  1
  V  V3  1  0.00000000  0.00000000  0.00000000  1
  F  F0  1  0.62122774  0.44613376  0.25000000  1
  F  F1  1  0.87877226  0.94613376  0.25000000  1
  F  F2  1  0.37877226  0.55386624  0.75000000  1
  F  F3  1  0.12122774  0.05386624  0.75000000  1
  F  F4  1  0.19011311  0.30496430  0.06342020  1
  F  F5  1  0.30988689  0.80496530  0.43657980  1
  F  F6  1  0.80988689  0.69503570  0.56342020  1
  F  F7  1  0.69011311  0.19503470  0.93657980  1
  F  F8  1  0.80988689  0.69503570  0.93657980  1
  F  F9  1  0.69011311  0.19503470  0.56342020  1
  F  F10  1  0.19011311  0.30496430  0.43657980  1
  F  F11  1  0.30988689  0.80496530  0.06342020  1
loop_
_geom_bond_atom_site_label_1
_geom_bond_atom_site_label_2
_geom_bond_distance
_geom_bond_site_symmetry_2
F0 V0 2.080282 1_555
F0 V2 2.080282 1_555
F0 Na1 2.253577 1_655
F0 Na0 2.307034 1_555
F1 V1 2.080282 1_665
F1 V3 2.080282 1_665
F1 Na0 2.253577 1_565
F1 Na1 2.307034 1_655
F2 V2 2.080282 1_555
F2 V0 2.080282 1_556
F2 Na3 2.253577 1_455
F2 Na2 2.307034 1_555
F3 V3 2.080282 1_556
F3 V1 2.080282 1_555
F3 Na2 2.253577 1_545
F3 Na3 2.307034 1_455
F4 V0 2.071849 1_555
F4 V3 2.074615 1_555
F4 Na1 2.261826 1_555
F4 Na0 2.550665 1_555
F4 Na3 2.797335 1_454
F5 V1 2.071846 1_565
F5 V2 2.074620 1_555
F5 Na0 2.261822 1_565
F5 Na1 2.550668 1_555
F5 Na2 2.797333 1_555
F6 V2 2.071849 1_555
F6 V1 2.074615 1_665
F6 Na3 2.261826 1_555
F6 Na2 2.550665 1_555
F6 Na1 2.797335 1_655
F7 V3 2.071846 1_656
F7 V0 2.074620 1_556
F7 Na2 2.261822 1_545
F7 Na3 2.550668 1_555
F7 Na0 2.797333 1_556
F8 V0 2.071849 1_556
F8 V3 2.074615 1_666
F8 Na3 2.261826 1_555
F8 Na2 2.550665 1_555
F8 Na1 2.797335 1_656
F9 V1 2.071846 1_655
F9 V2 2.074620 1_555
F9 Na2 2.261822 1_545
F9 Na3 2.550668 1_555
F9 Na0 2.797333 1_555
F10 V2 2.071849 1_555
F10 V1 2.074615 1_555
F10 Na1 2.261826 1_555
F10 Na0 2.550665 1_555
F10 Na3 2.797335 1_455
F11 V3 2.071846 1_565
F11 V0 2.074620 1_555
F11 Na0 2.261822 1_565
F11 Na1 2.550668 1_555
F11 Na2 2.797333 1_554
