# generated using pymatgen
data_Re2NiO6
_symmetry_space_group_name_H-M   'P 1'
_cell_length_a   5.55625800
_cell_length_b   7.25166488
_cell_length_c   11.05427592
_cell_angle_alpha   107.61290659
_cell_angle_beta   91.58020578
_cell_angle_gamma   109.48470828
_symmetry_Int_Tables_number   1
_chemical_formula_structural   Re2NiO6
_chemical_formula_sum   'Re8 Ni4 O24'
_cell_volume   396.09492476
_cell_formula_units_Z   4
loop_
 _symmetry_equiv_pos_site_id
 _symmetry_equiv_pos_as_xyz
  1  'x, y, z'
loop_
 _atom_site_type_symbol
 _atom_site_label
 _atom_site_symmetry_multiplicity
 _atom_site_fract_x
 _atom_site_fract_y
 _atom_site_fract_z
 _atom_site_occupancy
  Re  Re0  1  0.01709700  0.01732800  0.24225000  1
  Re  Re1  1  0.98290300  0.98267200  0.75775000  1
  Re  Re2  1  0.35134400  0.34363100  0.57463500  1
  Re  Re3  1  0.01841500  0.49340700  0.75530000  1
  Re  Re4  1  0.31261000  0.30609600  0.09354500  1
  Re  Re5  1  0.68739000  0.69390400  0.90645500  1
  Re  Re6  1  0.98158500  0.50659300  0.24470000  1
  Re  Re7  1  0.64865600  0.65636900  0.42536500  1
  Ni  Ni0  1  0.68505500  0.15864200  0.42656800  1
  Ni  Ni1  1  0.31494500  0.84135800  0.57343200  1
  Ni  Ni2  1  0.64135200  0.16919200  0.91037400  1
  Ni  Ni3  1  0.35864800  0.83080800  0.08962600  1
  O  O0  1  0.58270100  0.86339200  0.96192100  1
  O  O1  1  0.39040200  0.15464200  0.27604200  1
  O  O2  1  0.01434400  0.83300000  0.42396600  1
  O  O3  1  0.92441300  0.21234500  0.28900800  1
  O  O4  1  0.56870100  0.85088200  0.46995100  1
  O  O5  1  0.43129900  0.14911800  0.53004900  1
  O  O6  1  0.98565600  0.16700000  0.57603400  1
  O  O7  1  0.60959800  0.84535800  0.72395800  1
  O  O8  1  0.72817500  0.49325300  0.61004800  1
  O  O9  1  0.35054600  0.16509000  0.75598700  1
  O  O10  1  0.90999000  0.19526000  0.80271800  1
  O  O11  1  0.24140900  0.52296900  0.63647800  1
  O  O12  1  0.41729900  0.13660800  0.03807900  1
  O  O13  1  0.78052000  0.49519500  0.85933100  1
  O  O14  1  0.31081300  0.49949900  0.90404900  1
  O  O15  1  0.94170200  0.17067600  0.05897100  1
  O  O16  1  0.05829800  0.82932400  0.94102900  1
  O  O17  1  0.68918700  0.50050100  0.09595100  1
  O  O18  1  0.21948000  0.50480500  0.14066900  1
  O  O19  1  0.09001000  0.80474000  0.19728200  1
  O  O20  1  0.75859100  0.47703100  0.36352200  1
  O  O21  1  0.64945400  0.83491000  0.24401300  1
  O  O22  1  0.27182500  0.50674700  0.38995200  1
  O  O23  1  0.07558700  0.78765500  0.71099200  1
loop_
_geom_bond_atom_site_label_1
_geom_bond_atom_site_label_2
_geom_bond_distance
_geom_bond_site_symmetry_2
Ni0 O5 1.836575 1_555
Ni0 O3 2.087364 1_555
Ni0 O1 2.288837 1_555
Ni0 O6 2.289728 1_555
Ni0 O4 2.308901 1_545
Ni0 O20 2.518650 1_555
Ni0 O21 2.534548 1_545
Ni0 O8 2.581865 1_555
Ni1 O4 1.836575 1_555
Ni1 O23 2.087364 1_555
Ni1 O7 2.288837 1_555
Ni1 O2 2.289728 1_555
Ni1 O5 2.308901 1_565
Ni1 O11 2.518650 1_555
Ni1 O9 2.534548 1_565
Ni1 O22 2.581865 1_555
Ni2 O12 1.923801 1_556
Ni2 O10 1.930226 1_555
Ni2 O9 2.304215 1_555
Ni2 O15 2.304226 1_556
Ni2 O0 2.375141 1_545
Ni2 O13 2.473237 1_555
Ni2 O7 2.562671 1_545
Ni2 O17 2.571471 1_556
Ni3 O0 1.923801 1_554
Ni3 O19 1.930226 1_555
Ni3 O21 2.304215 1_555
Ni3 O16 2.304226 1_554
Ni3 O12 2.375141 1_565
Ni3 O18 2.473237 1_555
Ni3 O1 2.562671 1_565
Ni3 O14 2.571471 1_554
O0 Re5 1.505143 1_555
O1 Re0 1.946181 1_555
O1 Re4 2.659383 1_555
O2 Re7 2.011677 1_455
O2 Re6 2.533152 1_455
O2 Re0 2.726712 1_565
O3 Re0 1.609497 1_655
O3 Re6 2.254490 1_555
O4 Re7 1.561826 1_555
O5 Re2 1.561826 1_555
O6 Re2 2.011677 1_655
O6 Re3 2.533152 1_655
O6 Re1 2.726712 1_545
O7 Re1 1.946181 1_555
O7 Re5 2.659383 1_555
O8 Re2 1.973981 1_555
O8 Re3 2.243584 1_655
O9 Re1 2.034236 1_445
O9 Re2 2.694922 1_555
O10 Re1 1.658855 1_545
O10 Re3 2.268597 1_655
O11 Re2 1.595837 1_555
O11 Re3 1.841014 1_555
O12 Re4 1.505143 1_555
O13 Re5 1.635098 1_555
O13 Re3 1.776529 1_655
O14 Re5 2.091063 1_555
O14 Re3 2.259644 1_555
O15 Re4 1.933108 1_655
O15 Re6 2.605072 1_555
O15 Re0 2.672871 1_655
O16 Re5 1.933108 1_455
O16 Re3 2.605072 1_555
O16 Re1 2.672871 1_455
O17 Re4 2.091063 1_555
O17 Re6 2.259644 1_555
O18 Re4 1.635098 1_555
O18 Re6 1.776529 1_455
O19 Re0 1.658855 1_565
O19 Re6 2.268597 1_455
O20 Re7 1.595837 1_555
O20 Re6 1.841014 1_555
O21 Re0 2.034236 1_665
O21 Re7 2.694922 1_555
O22 Re7 1.973981 1_555
O22 Re6 2.243584 1_455
O23 Re1 1.609497 1_455
O23 Re3 2.254490 1_555
