# generated using pymatgen
data_Lu(CuS)3
_symmetry_space_group_name_H-M   'P 1'
_cell_length_a   3.82759431
_cell_length_b   3.82759431
_cell_length_c   19.65244200
_cell_angle_alpha   90.00000000
_cell_angle_beta   90.00000000
_cell_angle_gamma   120.00000540
_symmetry_Int_Tables_number   1
_chemical_formula_structural   Lu(CuS)3
_chemical_formula_sum   'Lu2 Cu6 S6'
_cell_volume   249.34400587
_cell_formula_units_Z   2
loop_
 _symmetry_equiv_pos_site_id
 _symmetry_equiv_pos_as_xyz
  1  'x, y, z'
loop_
 _atom_site_type_symbol
 _atom_site_label
 _atom_site_symmetry_multiplicity
 _atom_site_fract_x
 _atom_site_fract_y
 _atom_site_fract_z
 _atom_site_occupancy
  Lu  Lu0  1  0.00000000  0.00000000  0.16635800  1
  Lu  Lu1  1  0.00000000  0.00000000  0.83364200  1
  Cu  Cu0  1  0.66666700  0.33333300  0.95583400  1
  Cu  Cu1  1  0.66666700  0.33333300  0.59836500  1
  Cu  Cu2  1  0.66666700  0.33333300  0.29180600  1
  Cu  Cu3  1  0.33333300  0.66666700  0.04416600  1
  Cu  Cu4  1  0.33333300  0.66666700  0.70819400  1
  Cu  Cu5  1  0.33333300  0.66666700  0.40163500  1
  S  S0  1  0.66666700  0.33333300  0.08109400  1
  S  S1  1  0.66666700  0.33333300  0.75972200  1
  S  S2  1  0.66666700  0.33333300  0.40475100  1
  S  S3  1  0.33333300  0.66666700  0.91890600  1
  S  S4  1  0.33333300  0.66666700  0.59524900  1
  S  S5  1  0.33333300  0.66666700  0.24027800  1
loop_
_geom_bond_atom_site_label_1
_geom_bond_atom_site_label_2
_geom_bond_distance
_geom_bond_site_symmetry_2
Lu0 S5 2.644588 1_545
Lu0 S5 2.644591 1_555
Lu0 S5 2.644591 1_445
Lu0 S0 2.773314 1_455
Lu0 S0 2.773317 1_445
Lu0 S0 2.773317 1_555
Lu1 S1 2.644588 1_455
Lu1 S1 2.644591 1_445
Lu1 S1 2.644591 1_555
Lu1 S3 2.773314 1_545
Lu1 S3 2.773317 1_555
Lu1 S3 2.773317 1_445
Cu0 S3 2.325975 1_655
Cu0 S3 2.325975 1_545
Cu0 S3 2.325981 1_555
Cu0 S0 2.461665 1_556
Cu1 S4 2.210709 1_545
Cu1 S4 2.210709 1_655
Cu1 S4 2.210715 1_555
Cu2 S2 2.219645 1_555
Cu2 S5 2.430832 1_655
Cu2 S5 2.430832 1_545
Cu2 S5 2.430838 1_555
Cu3 S0 2.325975 1_455
Cu3 S0 2.325975 1_565
Cu3 S0 2.325981 1_555
Cu3 S3 2.461665 1_554
Cu4 S4 2.219645 1_555
Cu4 S1 2.430832 1_565
Cu4 S1 2.430832 1_455
Cu4 S1 2.430838 1_555
Cu5 S2 2.210709 1_455
Cu5 S2 2.210709 1_565
Cu5 S2 2.210715 1_555
