# generated using pymatgen
data_Y2(MgZn)3
_symmetry_space_group_name_H-M   'P 1'
_cell_length_a   8.52789367
_cell_length_b   8.52789367
_cell_length_c   8.52789346
_cell_angle_alpha   33.51471662
_cell_angle_beta   33.51471662
_cell_angle_gamma   33.51471870
_symmetry_Int_Tables_number   1
_chemical_formula_structural   Y2(MgZn)3
_chemical_formula_sum   'Y2 Mg3 Zn3'
_cell_volume   168.40455455
_cell_formula_units_Z   1
loop_
 _symmetry_equiv_pos_site_id
 _symmetry_equiv_pos_as_xyz
  1  'x, y, z'
loop_
 _atom_site_type_symbol
 _atom_site_label
 _atom_site_symmetry_multiplicity
 _atom_site_fract_x
 _atom_site_fract_y
 _atom_site_fract_z
 _atom_site_occupancy
  Y  Y0  1  0.99360200  0.99360200  0.99360200  1
  Y  Y1  1  0.50555500  0.50555500  0.50555500  1
  Mg  Mg0  1  0.75348700  0.75348700  0.75348700  1
  Mg  Mg1  1  0.24749100  0.24749100  0.24749100  1
  Mg  Mg2  1  0.37658500  0.37658500  0.37658500  1
  Zn  Zn0  1  0.87386800  0.87386800  0.87386800  1
  Zn  Zn1  1  0.12000000  0.12000000  0.12000000  1
  Zn  Zn2  1  0.62941300  0.62941300  0.62941300  1
loop_
_geom_bond_atom_site_label_1
_geom_bond_atom_site_label_2
_geom_bond_distance
_geom_bond_site_symmetry_2
Y0 Zn0 2.888492 1_555
Y0 Zn2 2.935085 1_556
Y0 Zn2 2.935086 1_565
Y0 Zn2 2.935086 1_655
Y0 Zn1 3.049256 1_666
Y1 Zn0 2.961881 1_554
Y1 Zn0 2.961881 1_545
Y1 Zn0 2.961881 1_455
Y1 Zn2 2.987980 1_555
Y1 Zn1 3.106084 1_556
Y1 Zn1 3.106084 1_565
Y1 Zn1 3.106084 1_655
Mg0 Zn0 2.904100 1_555
Mg0 Zn1 2.949803 1_665
Mg0 Zn1 2.949803 1_656
Mg0 Zn1 2.949803 1_566
Mg0 Zn2 2.993191 1_555
Mg0 Mg2 3.027436 1_556
Mg0 Mg2 3.027436 1_655
Mg0 Mg2 3.027436 1_565
Mg1 Zn0 3.000890 1_445
Mg1 Zn0 3.000890 1_544
Mg1 Zn0 3.000890 1_454
Mg1 Zn2 3.071581 1_554
Mg1 Zn2 3.071581 1_545
Mg1 Zn2 3.071581 1_455
Mg1 Zn1 3.075623 1_555
Mg1 Mg2 3.114295 1_555
Mg1 Y1 3.370137 1_554
Mg1 Y1 3.370138 1_545
Mg1 Y1 3.370138 1_455
Mg1 Y0 3.425455 1_445
Mg1 Y0 3.425455 1_454
Mg1 Y0 3.425455 1_544
Mg2 Y0 3.081440 1_445
Mg2 Y0 3.081440 1_544
Mg2 Y0 3.081440 1_454
Mg2 Y1 3.111303 1_555
