# generated using pymatgen
data_Ba2MgMo4(P2O7)4
_symmetry_space_group_name_H-M   'P 1'
_cell_length_a   7.81441626
_cell_length_b   8.03606686
_cell_length_c   10.28033051
_cell_angle_alpha   79.21020070
_cell_angle_beta   80.52248692
_cell_angle_gamma   88.81365098
_symmetry_Int_Tables_number   1
_chemical_formula_structural   Ba2MgMo4(P2O7)4
_chemical_formula_sum   'Ba2 Mg1 Mo4 P8 O28'
_cell_volume   625.47203332
_cell_formula_units_Z   1
loop_
 _symmetry_equiv_pos_site_id
 _symmetry_equiv_pos_as_xyz
  1  'x, y, z'
loop_
 _atom_site_type_symbol
 _atom_site_label
 _atom_site_symmetry_multiplicity
 _atom_site_fract_x
 _atom_site_fract_y
 _atom_site_fract_z
 _atom_site_occupancy
  Ba  Ba0  1  0.99458566  0.52335418  0.97964397  1
  Ba  Ba1  1  0.55077278  0.94945753  0.46458741  1
  Mg  Mg0  1  0.26426900  0.33362859  0.42342464  1
  Mo  Mo0  1  0.00277175  0.00371336  0.49882496  1
  Mo  Mo1  1  0.99828180  0.98820475  0.00344223  1
  Mo  Mo2  1  0.47381179  0.56986110  0.21825980  1
  Mo  Mo3  1  0.55198537  0.46247583  0.75564229  1
  P  P0  1  0.82340337  0.71224261  0.29073382  1
  P  P1  1  0.26827420  0.19193487  0.19691163  1
  P  P2  1  0.18085528  0.28851667  0.72876829  1
  P  P3  1  0.73404025  0.82292541  0.79234303  1
  P  P4  1  0.71962804  0.35988587  0.44025410  1
  P  P5  1  0.64553165  0.23353202  0.04790918  1
  P  P6  1  0.24358216  0.63207500  0.58153014  1
  P  P7  1  0.37325413  0.76224301  0.93415155  1
  O  O0  1  0.94775314  0.75174447  0.15499103  1
  O  O1  1  0.25120852  0.10264291  0.34866586  1
  O  O2  1  0.05095189  0.22114753  0.85528797  1
  O  O3  1  0.77392910  0.93316855  0.65328578  1
  O  O4  1  0.63169772  0.75000979  0.27703104  1
  O  O5  1  0.25711184  0.38320970  0.20725345  1
  O  O6  1  0.37020673  0.27401193  0.74642169  1
  O  O7  1  0.74467908  0.63103827  0.79224273  1
  O  O8  1  0.86639411  0.79553712  0.40083443  1
  O  O9  1  0.13704642  0.13580353  0.12094258  1
  O  O10  1  0.15351981  0.22346698  0.60335583  1
  O  O11  1  0.84224054  0.85831843  0.89529202  1
  O  O12  1  0.83624460  0.50504320  0.33030182  1
  O  O13  1  0.45918736  0.15004285  0.13148258  1
  O  O14  1  0.39778694  0.77122944  0.07570400  1
  O  O15  1  0.22889798  0.56638002  0.45416947  1
  O  O16  1  0.63776275  0.26313985  0.89852710  1
  O  O17  1  0.71391518  0.39758440  0.57960031  1
  O  O18  1  0.37500574  0.57964459  0.90458788  1
  O  O19  1  0.43359696  0.63623015  0.60755506  1
  O  O20  1  0.67966756  0.39583999  0.09623439  1
  O  O21  1  0.13666416  0.49476580  0.70666236  1
  O  O22  1  0.20445078  0.84982688  0.90220258  1
  O  O23  1  0.16965284  0.80666757  0.58745838  1
  O  O24  1  0.77079874  0.09388215  0.09234692  1
  O  O25  1  0.81308382  0.19558827  0.41828522  1
  O  O26  1  0.53002192  0.86841932  0.83179375  1
  O  O27  1  0.53647657  0.35656650  0.39605577  1
loop_
_geom_bond_atom_site_label_1
_geom_bond_atom_site_label_2
_geom_bond_distance
_geom_bond_site_symmetry_2
Ba0 O20 2.686239 1_556
Ba0 O0 2.783092 1_556
Ba0 O21 2.892361 1_655
Ba0 O2 2.942609 1_655
Ba0 O11 2.957755 1_555
Ba0 O18 2.967643 1_655
Ba0 O7 2.969675 1_555
Ba0 O22 3.028620 1_655
Ba0 O5 3.383873 1_656
Ba0 O9 3.426937 1_656
Ba1 O4 2.720309 1_555
Ba1 O19 2.757095 1_555
Ba1 O8 2.772631 1_555
Ba1 O3 2.798348 1_555
Ba1 O25 2.799022 1_565
Ba1 O1 2.943735 1_565
Ba1 O23 3.184655 1_555
Ba1 O27 3.218651 1_565
Mg0 O10 1.961042 1_555
Mg0 O15 1.961092 1_555
Mg0 O27 2.106561 1_555
Mg0 O1 2.148121 1_555
Mg0 O5 2.192951 1_555
Mo0 O23 2.191769 1_545
Mo0 O3 2.193294 1_445
Mo0 O25 2.256503 1_455
Mo0 O1 2.324105 1_555
Mo0 O8 2.451032 1_445
Mo0 O10 2.621955 1_555
Mo1 O24 2.099906 1_565
Mo1 O22 2.173096 1_654
Mo1 O11 2.178566 1_554
Mo1 O2 2.179748 1_664
Mo1 O0 2.216760 1_555
Mo1 O9 2.250089 1_665
Mo2 O14 2.116195 1_555
Mo2 O4 2.151745 1_555
Mo2 O5 2.315599 1_555
Mo2 O27 2.367617 1_555
Mo2 O20 2.452788 1_555
Mo3 O6 2.123135 1_555
Mo3 O16 2.138173 1_555
Mo3 O7 2.169271 1_555
Mo3 O17 2.172617 1_555
Mo3 O19 2.176610 1_555
Mo3 O18 2.220887 1_555
O0 P0 1.546844 1_555
O1 P1 1.575704 1_555
O2 P2 1.529571 1_555
O3 P3 1.521890 1_555
O4 P0 1.546230 1_555
O5 P1 1.560180 1_555
O6 P2 1.519645 1_555
O7 P3 1.542722 1_555
O8 P0 1.503408 1_555
O9 P1 1.509899 1_555
O10 P2 1.526040 1_555
O11 P3 1.527503 1_555
O12 P4 1.637057 1_555
O12 P0 1.643447 1_555
O13 P1 1.589016 1_555
O13 P5 1.649654 1_555
O14 P7 1.513732 1_554
O15 P6 1.522155 1_555
O16 P5 1.520513 1_556
O17 P4 1.512206 1_555
O18 P7 1.552584 1_555
O19 P6 1.553613 1_555
O20 P5 1.523113 1_555
O21 P6 1.650213 1_555
O21 P2 1.667061 1_555
O22 P7 1.536541 1_555
O23 P6 1.514212 1_555
O24 P5 1.528451 1_555
O25 P4 1.531326 1_555
O26 P7 1.618220 1_555
O26 P3 1.630438 1_555
O27 P4 1.573481 1_555
