# generated using pymatgen
data_Y2(NiO3)3
_symmetry_space_group_name_H-M   'P 1'
_cell_length_a   5.17362100
_cell_length_b   7.48197800
_cell_length_c   15.98554500
_cell_angle_alpha   90.00000000
_cell_angle_beta   90.00000000
_cell_angle_gamma   90.00000000
_symmetry_Int_Tables_number   1
_chemical_formula_structural   Y2(NiO3)3
_chemical_formula_sum   'Y8 Ni12 O36'
_cell_volume   618.78315862
_cell_formula_units_Z   4
loop_
 _symmetry_equiv_pos_site_id
 _symmetry_equiv_pos_as_xyz
  1  'x, y, z'
loop_
 _atom_site_type_symbol
 _atom_site_label
 _atom_site_symmetry_multiplicity
 _atom_site_fract_x
 _atom_site_fract_y
 _atom_site_fract_z
 _atom_site_occupancy
  Y  Y0  1  0.51583500  0.25000000  0.48551500  1
  Y  Y1  1  0.51928200  0.25000000  0.81149200  1
  Y  Y2  1  0.98071800  0.25000000  0.31149200  1
  Y  Y3  1  0.98416500  0.25000000  0.98551500  1
  Y  Y4  1  0.48071800  0.75000000  0.18850800  1
  Y  Y5  1  0.48416500  0.75000000  0.51448500  1
  Y  Y6  1  0.01583500  0.75000000  0.01448500  1
  Y  Y7  1  0.01928200  0.75000000  0.68850800  1
  Ni  Ni0  1  0.99763500  0.00208000  0.16559600  1
  Ni  Ni1  1  0.00000000  0.00000000  0.50000000  1
  Ni  Ni2  1  0.00236500  0.99792000  0.83440400  1
  Ni  Ni3  1  0.50000000  0.50000000  0.00000000  1
  Ni  Ni4  1  0.49763500  0.50208000  0.33440400  1
  Ni  Ni5  1  0.50236500  0.49792000  0.66559600  1
  Ni  Ni6  1  0.99763500  0.49792000  0.16559600  1
  Ni  Ni7  1  0.00000000  0.50000000  0.50000000  1
  Ni  Ni8  1  0.00236500  0.50208000  0.83440400  1
  Ni  Ni9  1  0.50000000  0.00000000  0.00000000  1
  Ni  Ni10  1  0.49763500  0.99792000  0.33440400  1
  Ni  Ni11  1  0.50236500  0.00208000  0.66559600  1
  O  O0  1  0.28997700  0.56240800  0.09520300  1
  O  O1  1  0.31369300  0.52584500  0.43711100  1
  O  O2  1  0.30340700  0.54695300  0.76540800  1
  O  O3  1  0.19659300  0.95304700  0.26540800  1
  O  O4  1  0.21002300  0.93759200  0.59520300  1
  O  O5  1  0.18630700  0.97415500  0.93711100  1
  O  O6  1  0.69659300  0.45304700  0.23459200  1
  O  O7  1  0.68630700  0.47415500  0.56288900  1
  O  O8  1  0.71002300  0.43759200  0.90479700  1
  O  O9  1  0.81369300  0.02584500  0.06288900  1
  O  O10  1  0.78997700  0.06240800  0.40479700  1
  O  O11  1  0.80340700  0.04695300  0.73459200  1
  O  O12  1  0.81369300  0.47415500  0.06288900  1
  O  O13  1  0.78997700  0.43759200  0.40479700  1
  O  O14  1  0.80340700  0.45304700  0.73459200  1
  O  O15  1  0.69659300  0.04695300  0.23459200  1
  O  O16  1  0.68630700  0.02584500  0.56288900  1
  O  O17  1  0.71002300  0.06240800  0.90479700  1
  O  O18  1  0.19659300  0.54695300  0.26540800  1
  O  O19  1  0.21002300  0.56240800  0.59520300  1
  O  O20  1  0.18630700  0.52584500  0.93711100  1
  O  O21  1  0.28997700  0.93759200  0.09520300  1
  O  O22  1  0.31369300  0.97415500  0.43711100  1
  O  O23  1  0.30340700  0.95304700  0.76540800  1
  O  O24  1  0.90474300  0.75000000  0.15779100  1
  O  O25  1  0.92343100  0.75000000  0.49621200  1
  O  O26  1  0.90266000  0.75000000  0.82909600  1
  O  O27  1  0.59734000  0.75000000  0.32909600  1
  O  O28  1  0.59525700  0.75000000  0.65779100  1
  O  O29  1  0.57656900  0.75000000  0.99621200  1
  O  O30  1  0.09734000  0.25000000  0.17090400  1
  O  O31  1  0.07656900  0.25000000  0.50378800  1
  O  O32  1  0.09525700  0.25000000  0.84220900  1
  O  O33  1  0.42343100  0.25000000  0.00378800  1
  O  O34  1  0.40474300  0.25000000  0.34220900  1
  O  O35  1  0.40266000  0.25000000  0.67090400  1
loop_
_geom_bond_atom_site_label_1
_geom_bond_atom_site_label_2
_geom_bond_distance
_geom_bond_site_symmetry_2
Ni0 O9 1.906002 1_555
Ni0 O30 1.927189 1_655
Ni0 O3 1.933880 1_645
Ni0 O15 1.937764 1_555
Ni0 O21 1.945917 1_645
Ni0 O24 1.950319 1_545
Ni1 O31 1.912941 1_555
Ni1 O25 1.912941 1_445
Ni1 O16 1.918840 1_455
Ni1 O22 1.918840 1_545
Ni1 O4 1.927376 1_545
Ni1 O10 1.927376 1_455
Ni2 O5 1.906002 1_555
Ni2 O26 1.927189 1_455
Ni2 O11 1.933880 1_465
Ni2 O23 1.937764 1_555
Ni2 O17 1.945917 1_465
Ni2 O32 1.950319 1_565
Ni3 O33 1.912941 1_555
Ni3 O29 1.912941 1_554
Ni3 O12 1.918840 1_555
Ni3 O20 1.918840 1_554
Ni3 O0 1.927376 1_555
Ni3 O8 1.927376 1_554
Ni4 O1 1.906002 1_555
Ni4 O27 1.927189 1_555
Ni4 O6 1.933880 1_555
Ni4 O18 1.937764 1_555
Ni4 O13 1.945917 1_555
Ni4 O34 1.950319 1_555
Ni5 O7 1.906002 1_555
Ni5 O35 1.927189 1_555
Ni5 O2 1.933880 1_555
Ni5 O14 1.937764 1_555
Ni5 O19 1.945917 1_555
Ni5 O28 1.950319 1_555
Ni6 O12 1.906002 1_555
Ni6 O30 1.927189 1_655
Ni6 O18 1.933880 1_655
Ni6 O6 1.937764 1_555
Ni6 O0 1.945917 1_655
Ni6 O24 1.950319 1_555
Ni7 O25 1.912941 1_455
Ni7 O31 1.912941 1_555
Ni7 O7 1.918840 1_455
Ni7 O1 1.918840 1_555
Ni7 O19 1.927376 1_555
Ni7 O13 1.927376 1_455
Ni8 O20 1.906002 1_555
Ni8 O26 1.927189 1_455
Ni8 O14 1.933880 1_455
Ni8 O2 1.937764 1_555
Ni8 O8 1.945917 1_455
Ni8 O32 1.950319 1_555
Ni9 O33 1.912941 1_555
Ni9 O29 1.912941 1_544
Ni9 O9 1.918840 1_555
Ni9 O5 1.918840 1_544
Ni9 O21 1.927376 1_545
Ni9 O17 1.927376 1_554
Ni10 O22 1.906002 1_555
Ni10 O27 1.927189 1_555
Ni10 O15 1.933880 1_565
Ni10 O3 1.937764 1_555
Ni10 O10 1.945917 1_565
Ni10 O34 1.950319 1_565
Ni11 O16 1.906002 1_555
Ni11 O35 1.927189 1_555
Ni11 O23 1.933880 1_545
Ni11 O11 1.937764 1_555
Ni11 O4 1.945917 1_545
Ni11 O28 1.950319 1_545
O0 Y4 2.273425 1_555
O0 Y6 2.376237 1_555
O1 Y5 2.262836 1_555
O1 Y0 2.439665 1_555
O2 Y7 2.445376 1_555
O2 Y1 2.593538 1_555
O3 Y4 2.445376 1_555
O3 Y2 2.593538 1_465
O4 Y7 2.273425 1_555
O4 Y5 2.376237 1_555
O5 Y6 2.262836 1_556
O5 Y3 2.439665 1_465
O6 Y2 2.445376 1_555
O6 Y4 2.593538 1_555
O7 Y0 2.262836 1_555
O7 Y5 2.439665 1_555
O8 Y1 2.273425 1_555
O8 Y3 2.376237 1_555
O9 Y3 2.262836 1_554
O9 Y6 2.439665 1_645
O10 Y2 2.273425 1_555
O10 Y0 2.376237 1_555
O11 Y1 2.445376 1_555
O11 Y7 2.593538 1_645
O12 Y3 2.262836 1_554
O12 Y6 2.439665 1_655
O13 Y2 2.273425 1_555
O13 Y0 2.376237 1_555
O14 Y1 2.445376 1_555
O14 Y7 2.593538 1_655
O15 Y2 2.445376 1_555
O15 Y4 2.593538 1_545
O16 Y0 2.262836 1_555
O16 Y5 2.439665 1_545
O17 Y1 2.273425 1_555
O17 Y3 2.376237 1_555
O18 Y4 2.445376 1_555
O18 Y2 2.593538 1_455
O19 Y7 2.273425 1_555
O19 Y5 2.376237 1_555
O20 Y6 2.262836 1_556
O20 Y3 2.439665 1_455
O21 Y4 2.273425 1_555
O21 Y6 2.376237 1_555
O22 Y5 2.262836 1_555
O22 Y0 2.439665 1_565
O23 Y7 2.445376 1_555
O23 Y1 2.593538 1_565
O24 Y4 2.248027 1_555
O24 Y6 2.361824 1_655
O25 Y5 2.291291 1_555
O26 Y7 2.326959 1_655
O27 Y4 2.326959 1_555
O28 Y7 2.248027 1_655
O28 Y5 2.361824 1_555
O29 Y6 2.291291 1_656
O30 Y2 2.326959 1_455
O31 Y0 2.291291 1_555
O32 Y1 2.248027 1_555
O32 Y3 2.361824 1_455
O33 Y3 2.291291 1_454
O34 Y2 2.248027 1_455
O34 Y0 2.361824 1_555
O35 Y1 2.326959 1_555
