# generated using pymatgen
data_KAl2Si4(HO6)2
_symmetry_space_group_name_H-M   'P 1'
_cell_length_a   5.28205773
_cell_length_b   5.28205773
_cell_length_c   20.75477193
_cell_angle_alpha   86.98563958
_cell_angle_beta   86.98563958
_cell_angle_gamma   120.31976136
_symmetry_Int_Tables_number   1
_chemical_formula_structural   KAl2Si4(HO6)2
_chemical_formula_sum   'K2 Al4 Si8 H4 O24'
_cell_volume   497.05851858
_cell_formula_units_Z   2
loop_
 _symmetry_equiv_pos_site_id
 _symmetry_equiv_pos_as_xyz
  1  'x, y, z'
loop_
 _atom_site_type_symbol
 _atom_site_label
 _atom_site_symmetry_multiplicity
 _atom_site_fract_x
 _atom_site_fract_y
 _atom_site_fract_z
 _atom_site_occupancy
  K  K0  1  0.90333000  0.09667000  0.25000000  1
  K  K1  1  0.09667000  0.90333000  0.75000000  1
  Al  Al0  1  0.67087500  0.83605400  0.99963100  1
  Al  Al1  1  0.32912500  0.16394600  0.00036900  1
  Al  Al2  1  0.16394600  0.32912500  0.50036900  1
  Al  Al3  1  0.83605400  0.67087500  0.49963100  1
  Si  Si0  1  0.53108500  0.39458300  0.36823500  1
  Si  Si1  1  0.46891500  0.60541700  0.63176500  1
  Si  Si2  1  0.60541700  0.46891500  0.13176500  1
  Si  Si3  1  0.39458300  0.53108500  0.86823500  1
  Si  Si4  1  0.29257200  0.81184100  0.13221400  1
  Si  Si5  1  0.70742800  0.18815900  0.86778600  1
  Si  Si6  1  0.18815900  0.70742800  0.36778600  1
  Si  Si7  1  0.81184100  0.29257200  0.63221400  1
  H  H0  1  0.72861600  0.02318100  0.43699200  1
  H  H1  1  0.27138400  0.97681900  0.56300800  1
  H  H2  1  0.97681900  0.27138400  0.06300800  1
  H  H3  1  0.02318100  0.72861600  0.93699200  1
  O  O0  1  0.40184300  0.12507400  0.16566200  1
  O  O1  1  0.59815700  0.87492600  0.83433800  1
  O  O2  1  0.87492600  0.59815700  0.33433800  1
  O  O3  1  0.12507400  0.40184300  0.66566200  1
  O  O4  1  0.90079100  0.01908800  0.45102400  1
  O  O5  1  0.09920900  0.98091200  0.54897600  1
  O  O6  1  0.98091200  0.09920900  0.04897600  1
  O  O7  1  0.01908800  0.90079100  0.95102400  1
  O  O8  1  0.46772900  0.65760600  0.16514400  1
  O  O9  1  0.53227100  0.34239400  0.83485600  1
  O  O10  1  0.34239400  0.53227100  0.33485600  1
  O  O11  1  0.65760600  0.46772900  0.66514400  1
  O  O12  1  0.51711500  0.41174700  0.44727700  1
  O  O13  1  0.48288500  0.58825300  0.55272300  1
  O  O14  1  0.58825300  0.48288500  0.05272300  1
  O  O15  1  0.41174700  0.51711500  0.94727700  1
  O  O16  1  0.36970800  0.87365800  0.05300100  1
  O  O17  1  0.63029200  0.12634200  0.94699900  1
  O  O18  1  0.12634200  0.63029200  0.44699900  1
  O  O19  1  0.87365800  0.36970800  0.55300100  1
  O  O20  1  0.40847000  0.06134100  0.34466100  1
  O  O21  1  0.59153000  0.93865900  0.65533900  1
  O  O22  1  0.93865900  0.59153000  0.15533900  1
  O  O23  1  0.06134100  0.40847000  0.84466100  1
loop_
_geom_bond_atom_site_label_1
_geom_bond_atom_site_label_2
_geom_bond_distance
_geom_bond_site_symmetry_2
K0 O2 3.018083 1_545
K0 O0 3.018083 1_655
K0 O10 3.040129 1_655
K0 O8 3.040129 1_545
K0 O20 3.107404 1_555
K0 O22 3.107404 1_555
K0 O10 3.278529 1_545
K0 O8 3.278529 1_655
K0 O2 3.311243 1_555
K0 O0 3.311243 1_555
K1 O1 3.018083 1_455
K1 O3 3.018083 1_565
K1 O9 3.040129 1_565
K1 O11 3.040129 1_455
K1 O23 3.107404 1_555
K1 O21 3.107404 1_555
K1 O9 3.278529 1_455
K1 O11 3.278529 1_565
K1 O1 3.311243 1_555
K1 O3 3.311243 1_555
Al0 O7 1.910807 1_655
Al0 O6 1.921106 1_566
Al0 O17 1.941804 1_565
Al0 O14 1.948299 1_556
Al0 O15 1.978136 1_555
Al0 O16 1.988425 1_556
Al1 O6 1.910807 1_455
Al1 O7 1.921106 1_544
Al1 O16 1.941804 1_545
Al1 O15 1.948299 1_554
Al1 O14 1.978136 1_555
Al1 O17 1.988425 1_554
Al2 O5 1.910807 1_545
Al2 O4 1.921106 1_455
Al2 O19 1.941804 1_455
Al2 O12 1.948299 1_555
Al2 O13 1.978136 1_555
Al2 O18 1.988425 1_555
Al3 O4 1.910807 1_565
Al3 O5 1.921106 1_655
Al3 O18 1.941804 1_655
Al3 O13 1.948299 1_555
Al3 O12 1.978136 1_555
Al3 O19 1.988425 1_555
H0 O4 0.979493 1_555
H1 O5 0.979493 1_555
H2 O6 0.979493 1_555
H3 O7 0.979493 1_555
O0 Si4 1.658689 1_545
O0 Si2 1.662532 1_555
O1 Si5 1.658689 1_565
O1 Si3 1.662532 1_555
O2 Si6 1.658689 1_655
O2 Si0 1.662532 1_555
O3 Si7 1.658689 1_455
O3 Si1 1.662532 1_555
O8 Si2 1.659432 1_555
O8 Si4 1.660041 1_555
O9 Si3 1.659432 1_555
O9 Si5 1.660041 1_555
O10 Si0 1.659432 1_555
O10 Si6 1.660041 1_555
O11 Si1 1.659432 1_555
O11 Si7 1.660041 1_555
O12 Si0 1.647594 1_555
O13 Si1 1.647594 1_555
O14 Si2 1.647594 1_555
O15 Si3 1.647594 1_555
O16 Si4 1.647509 1_555
O17 Si5 1.647509 1_555
O18 Si6 1.647509 1_555
O19 Si7 1.647509 1_555
O20 Si6 1.652168 1_545
O20 Si0 1.652288 1_555
O21 Si7 1.652168 1_565
O21 Si1 1.652288 1_555
O22 Si4 1.652168 1_655
O22 Si2 1.652288 1_555
O23 Si5 1.652168 1_455
O23 Si3 1.652288 1_555
