# generated using pymatgen
data_Co3Cu3(TeO6)2
_symmetry_space_group_name_H-M   'P 1'
_cell_length_a   8.40660905
_cell_length_b   8.40660905
_cell_length_c   8.40660905
_cell_angle_alpha   70.52877937
_cell_angle_beta   70.52877937
_cell_angle_gamma   109.47122063
_symmetry_Int_Tables_number   1
_chemical_formula_structural   Co3Cu3(TeO6)2
_chemical_formula_sum   'Co6 Cu6 Te4 O24'
_cell_volume   457.34155362
_cell_formula_units_Z   2
loop_
 _symmetry_equiv_pos_site_id
 _symmetry_equiv_pos_as_xyz
  1  'x, y, z'
loop_
 _atom_site_type_symbol
 _atom_site_label
 _atom_site_symmetry_multiplicity
 _atom_site_fract_x
 _atom_site_fract_y
 _atom_site_fract_z
 _atom_site_occupancy
  Co  Co0  1  0.53671800  0.75000000  0.71328200  1
  Co  Co1  1  0.96328200  0.25000000  0.78671800  1
  Co  Co2  1  0.21328200  0.46328200  0.25000000  1
  Co  Co3  1  0.28671800  0.03671800  0.75000000  1
  Co  Co4  1  0.25000000  0.78671800  0.46328200  1
  Co  Co5  1  0.75000000  0.71328200  0.03671800  1
  Cu  Cu0  1  0.47055600  0.25000000  0.27944400  1
  Cu  Cu1  1  0.02944400  0.75000000  0.22055600  1
  Cu  Cu2  1  0.77944400  0.52944400  0.75000000  1
  Cu  Cu3  1  0.72055600  0.97055600  0.25000000  1
  Cu  Cu4  1  0.75000000  0.22055600  0.52944400  1
  Cu  Cu5  1  0.25000000  0.27944400  0.97055600  1
  Te  Te0  1  0.50000000  0.00634200  0.00000000  1
  Te  Te1  1  0.99365800  0.49365800  0.00634200  1
  Te  Te2  1  0.50634200  0.50000000  0.50000000  1
  Te  Te3  1  0.00000000  0.00000000  0.49365800  1
  O  O0  1  0.70487100  0.94435900  0.01692800  1
  O  O1  1  0.03871200  0.55564100  0.73948900  1
  O  O2  1  0.46128800  0.72179900  0.48307200  1
  O  O3  1  0.79512900  0.77820100  0.76051100  1
  O  O4  1  0.23948900  0.29512900  0.72179900  1
  O  O5  1  0.51692800  0.96128800  0.77820100  1
  O  O6  1  0.26051100  0.53871200  0.94435900  1
  O  O7  1  0.98307200  0.20487100  0.55564100  1
  O  O8  1  0.05564100  0.76051100  0.96128800  1
  O  O9  1  0.44435900  0.48307200  0.29512900  1
  O  O10  1  0.27820100  0.73948900  0.20487100  1
  O  O11  1  0.22179900  0.01692800  0.53871200  1
  O  O12  1  0.29738500  0.06633900  0.98089700  1
  O  O13  1  0.95276400  0.43366100  0.26895300  1
  O  O14  1  0.54723600  0.27828200  0.51910300  1
  O  O15  1  0.20261500  0.22171800  0.23104700  1
  O  O16  1  0.76895300  0.70261500  0.27828200  1
  O  O17  1  0.48089700  0.04723600  0.22171800  1
  O  O18  1  0.73104700  0.45276400  0.06633900  1
  O  O19  1  0.01910300  0.79738500  0.43366100  1
  O  O20  1  0.93366100  0.23104700  0.04723600  1
  O  O21  1  0.56633900  0.51910300  0.70261500  1
  O  O22  1  0.72171800  0.26895300  0.79738500  1
  O  O23  1  0.77828200  0.98089700  0.45276400  1
loop_
_geom_bond_atom_site_label_1
_geom_bond_atom_site_label_2
_geom_bond_distance
_geom_bond_site_symmetry_2
Co0 O23 2.064256 1_555
Co0 O21 2.064256 1_555
Co0 O6 2.064744 1_555
Co0 O5 2.064747 1_555
Co0 O3 2.286352 1_555
Co0 O2 2.286352 1_555
Co1 O22 2.064252 1_555
Co1 O20 2.064258 1_556
Co1 O7 2.064738 1_555
Co1 O4 2.064747 1_655
Co1 O0 2.286356 1_546
Co1 O1 2.286360 1_655
Co2 O15 2.064252 1_555
Co2 O13 2.064258 1_455
Co2 O9 2.064738 1_555
Co2 O10 2.064747 1_555
Co2 O7 2.286356 1_455
Co2 O6 2.286360 1_554
Co3 O14 2.064256 1_555
Co3 O12 2.064256 1_555
Co3 O8 2.064744 1_545
Co3 O11 2.064747 1_555
Co3 O4 2.286352 1_555
Co3 O5 2.286352 1_545
Co4 O19 2.064256 1_555
Co4 O17 2.064256 1_565
Co4 O1 2.064744 1_555
Co4 O2 2.064747 1_555
Co4 O11 2.286352 1_565
Co4 O10 2.286352 1_555
Co5 O16 2.064252 1_555
Co5 O18 2.064258 1_555
Co5 O0 2.064738 1_555
Co5 O3 2.064747 1_554
Co5 O9 2.286356 1_555
Co5 O8 2.286360 1_654
Cu0 O17 1.941827 1_555
Cu0 O18 1.941832 1_555
Cu0 O11 2.084575 1_555
Cu0 O9 2.084578 1_555
Cu0 O15 2.369413 1_555
Cu0 O14 2.369418 1_555
Cu1 O19 1.941827 1_555
Cu1 O16 1.941835 1_455
Cu1 O8 2.084573 1_554
Cu1 O10 2.084575 1_555
Cu1 O12 2.369418 1_564
Cu1 O13 2.369420 1_455
Cu2 O21 1.941827 1_555
Cu2 O22 1.941835 1_555
Cu2 O1 2.084573 1_655
Cu2 O3 2.084575 1_555
Cu2 O19 2.369418 1_655
Cu2 O18 2.369420 1_556
Cu3 O23 1.941827 1_555
Cu3 O20 1.941832 1_565
Cu3 O2 2.084575 1_555
Cu3 O0 2.084578 1_555
Cu3 O16 2.369413 1_555
Cu3 O17 2.369418 1_565
Cu4 O14 1.941827 1_555
Cu4 O13 1.941832 1_555
Cu4 O5 2.084575 1_545
Cu4 O7 2.084578 1_555
Cu4 O22 2.369413 1_555
Cu4 O23 2.369418 1_545
Cu5 O12 1.941827 1_555
Cu5 O15 1.941835 1_556
Cu5 O6 2.084573 1_555
Cu5 O4 2.084575 1_555
Cu5 O21 2.369418 1_555
Cu5 O20 2.369420 1_456
O0 Te0 1.992540 1_565
O1 Te1 1.992534 1_456
O2 Te2 1.992536 1_555
O3 Te3 1.992536 1_665
O4 Te2 1.992536 1_555
O5 Te0 1.992536 1_566
O6 Te1 1.992534 1_456
O7 Te3 1.992540 1_655
O8 Te1 1.992534 1_456
O9 Te2 1.992540 1_555
O10 Te0 1.992536 1_565
O11 Te3 1.992536 1_555
O12 Te0 1.970411 1_556
O13 Te1 1.970403 1_555
O14 Te2 1.970411 1_555
O15 Te3 1.970407 1_555
O16 Te2 1.970407 1_555
O17 Te0 1.970411 1_555
O18 Te1 1.970403 1_555
O19 Te3 1.970411 1_565
O20 Te1 1.970403 1_555
O21 Te2 1.970411 1_555
O22 Te0 1.970407 1_556
O23 Te3 1.970411 1_665
