# generated using pymatgen
data_CaSn5O7
_symmetry_space_group_name_H-M   'P 1'
_cell_length_a   5.61305406
_cell_length_b   5.61305406
_cell_length_c   23.04869100
_cell_angle_alpha   90.00000000
_cell_angle_beta   90.00000000
_cell_angle_gamma   146.55048679
_symmetry_Int_Tables_number   1
_chemical_formula_structural   CaSn5O7
_chemical_formula_sum   'Ca2 Sn10 O14'
_cell_volume   400.27225423
_cell_formula_units_Z   2
loop_
 _symmetry_equiv_pos_site_id
 _symmetry_equiv_pos_as_xyz
  1  'x, y, z'
loop_
 _atom_site_type_symbol
 _atom_site_label
 _atom_site_symmetry_multiplicity
 _atom_site_fract_x
 _atom_site_fract_y
 _atom_site_fract_z
 _atom_site_occupancy
  Ca  Ca0  1  0.18594300  0.81405700  0.75000000  1
  Ca  Ca1  1  0.81405700  0.18594300  0.25000000  1
  Sn  Sn0  1  0.72553000  0.27447100  0.58435000  1
  Sn  Sn1  1  0.54895000  0.45105000  0.16680000  1
  Sn  Sn2  1  0.00000000  0.00000000  0.50000000  1
  Sn  Sn3  1  0.00000000  0.00000000  0.00000000  1
  Sn  Sn4  1  0.45105000  0.54895000  0.83320100  1
  Sn  Sn5  1  0.27447000  0.72552900  0.41565000  1
  Sn  Sn6  1  0.27447000  0.72552900  0.08435000  1
  Sn  Sn7  1  0.72553000  0.27447100  0.91565000  1
  Sn  Sn8  1  0.45105000  0.54895000  0.66679900  1
  Sn  Sn9  1  0.54895000  0.45105000  0.33320100  1
  O  O0  1  0.37331300  0.62668700  0.91668900  1
  O  O1  1  0.62668700  0.37331300  0.08331100  1
  O  O2  1  0.62668700  0.37331300  0.41668900  1
  O  O3  1  0.37331300  0.62668700  0.58331100  1
  O  O4  1  0.81627700  0.18372300  0.81661700  1
  O  O5  1  0.18372300  0.81627700  0.18338300  1
  O  O6  1  0.18372300  0.81627700  0.31661700  1
  O  O7  1  0.81627700  0.18372300  0.68338300  1
  O  O8  1  0.07213400  0.92786600  0.84974500  1
  O  O9  1  0.92786600  0.07213400  0.15025500  1
  O  O10  1  0.92786600  0.07213400  0.34974500  1
  O  O11  1  0.07213400  0.92786600  0.65025500  1
  O  O12  1  0.52779100  0.47220900  0.75000000  1
  O  O13  1  0.47220900  0.52779100  0.25000000  1
loop_
_geom_bond_atom_site_label_1
_geom_bond_atom_site_label_2
_geom_bond_distance
_geom_bond_site_symmetry_2
Ca0 O12 2.345269 1_565
Ca0 O12 2.345269 1_455
Ca0 O8 2.604328 1_555
Ca0 O11 2.604328 1_555
Ca0 O7 2.632534 1_565
Ca0 O4 2.632534 1_565
Ca0 O7 2.632534 1_455
Ca0 O4 2.632534 1_455
Ca1 O13 2.345269 1_655
Ca1 O13 2.345269 1_545
Ca1 O9 2.604328 1_555
Ca1 O10 2.604328 1_555
Ca1 O6 2.632534 1_655
Ca1 O6 2.632534 1_545
Ca1 O5 2.632534 1_655
Ca1 O5 2.632534 1_545
O0 Sn4 2.097951 1_555
O0 Sn7 2.265876 1_455
O0 Sn7 2.265879 1_565
O1 Sn1 2.097972 1_555
O1 Sn6 2.265876 1_655
O1 Sn6 2.265879 1_545
O2 Sn9 2.097951 1_555
O2 Sn5 2.265876 1_655
O2 Sn5 2.265879 1_545
O3 Sn8 2.097951 1_555
O3 Sn0 2.265876 1_455
O3 Sn0 2.265879 1_565
O4 Sn4 2.203362 1_545
O4 Sn4 2.203362 1_655
O4 Sn7 2.482350 1_555
O5 Sn1 2.203358 1_565
O5 Sn1 2.203358 1_455
O5 Sn6 2.482350 1_555
O6 Sn9 2.203362 1_455
O6 Sn9 2.203362 1_565
O6 Sn5 2.482350 1_555
O7 Sn8 2.203362 1_655
O7 Sn8 2.203362 1_545
O7 Sn0 2.482350 1_555
O8 Sn4 2.109327 1_565
O8 Sn4 2.109327 1_455
O8 Sn7 2.763408 1_455
O8 Sn7 2.763410 1_565
O9 Sn1 2.109331 1_655
O9 Sn1 2.109331 1_545
O9 Sn6 2.763408 1_655
O9 Sn6 2.763410 1_545
O10 Sn9 2.109327 1_545
O10 Sn9 2.109327 1_655
O10 Sn5 2.763408 1_655
O10 Sn5 2.763410 1_545
O11 Sn8 2.109327 1_455
O11 Sn8 2.109327 1_565
O11 Sn0 2.763408 1_455
O11 Sn0 2.763410 1_565
O12 Sn4 2.087630 1_555
O12 Sn8 2.087630 1_555
O13 Sn1 2.087608 1_555
O13 Sn9 2.087630 1_555
