# generated using pymatgen
data_Mg4Si3
_symmetry_space_group_name_H-M   'P 1'
_cell_length_a   5.85530396
_cell_length_b   7.35210397
_cell_length_c   7.62699489
_cell_angle_alpha   116.80102571
_cell_angle_beta   67.36967213
_cell_angle_gamma   90.25514878
_symmetry_Int_Tables_number   1
_chemical_formula_structural   Mg4Si3
_chemical_formula_sum   'Mg8 Si6'
_cell_volume   264.74346270
_cell_formula_units_Z   2
loop_
 _symmetry_equiv_pos_site_id
 _symmetry_equiv_pos_as_xyz
  1  'x, y, z'
loop_
 _atom_site_type_symbol
 _atom_site_label
 _atom_site_symmetry_multiplicity
 _atom_site_fract_x
 _atom_site_fract_y
 _atom_site_fract_z
 _atom_site_occupancy
  Mg  Mg0  1  0.92278100  0.42914600  0.09263700  1
  Mg  Mg1  1  0.30173300  0.96915100  0.82900300  1
  Mg  Mg2  1  0.39623900  0.34070500  0.64154100  1
  Mg  Mg3  1  0.87907000  0.35724100  0.67191900  1
  Mg  Mg4  1  0.24847900  0.59146000  0.44275700  1
  Mg  Mg5  1  0.42578500  0.72887300  0.05691700  1
  Mg  Mg6  1  0.75142800  0.89234900  0.40640600  1
  Mg  Mg7  1  0.78811700  0.97671800  0.85721200  1
  Si  Si0  1  0.69243500  0.60395800  0.54914300  1
  Si  Si1  1  0.46974000  0.33225500  0.99029200  1
  Si  Si2  1  0.30118300  0.16091800  0.25094000  1
  Si  Si3  1  0.20356500  0.98846400  0.50979600  1
  Si  Si4  1  0.99352100  0.71813700  0.95139400  1
  Si  Si5  1  0.87594500  0.16065700  0.25005100  1
loop_
_geom_bond_atom_site_label_1
_geom_bond_atom_site_label_2
_geom_bond_distance
_geom_bond_site_symmetry_2
Mg0 Si5 2.700392 1_555
Mg0 Si4 2.749399 1_554
Mg0 Si0 2.821310 1_555
Mg0 Si1 2.994746 1_654
Mg0 Si1 3.037890 1_554
Mg1 Si1 2.748470 1_565
Mg1 Si3 2.768970 1_555
Mg1 Si4 2.785939 1_455
Mg1 Si0 2.850820 1_555
Mg1 Si2 2.871329 1_566
Mg1 Si5 2.881527 1_466
Mg2 Si3 2.736561 1_545
Mg2 Si0 2.740445 1_555
Mg2 Si1 2.880015 1_555
Mg2 Si5 2.927772 1_555
Mg2 Si2 2.941170 1_555
Mg2 Si4 2.949823 1_455
Mg3 Si1 2.755724 1_555
Mg3 Si0 2.774559 1_555
Mg3 Si3 2.775732 1_645
Mg3 Si4 2.831260 1_555
Mg3 Si2 2.871721 1_655
Mg3 Si5 2.879845 1_555
Mg4 Si3 2.721690 1_555
Mg4 Si2 2.782159 1_555
Mg4 Si1 2.805344 1_554
Mg4 Si0 2.996340 1_555
Mg4 Si0 3.028118 1_455
Mg5 Si1 2.719778 1_554
Mg5 Si2 2.786181 1_565
Mg5 Si3 2.808016 1_555
Mg5 Si4 2.927233 1_454
Mg5 Si4 3.096907 1_554
Mg6 Si5 2.698959 1_565
Mg6 Si0 2.754217 1_555
Mg6 Si4 2.813432 1_554
Mg6 Si3 2.997132 1_555
Mg6 Si3 3.036000 1_655
Mg7 Si4 2.737415 1_555
Mg7 Si1 2.744600 1_565
Mg7 Si3 2.861832 1_655
Mg7 Si0 2.921961 1_555
Mg7 Si5 2.931901 1_566
Mg7 Si2 2.959543 1_566
Si1 Si2 2.692612 1_556
Si2 Si5 2.492504 1_455
Si2 Si3 2.685997 1_545
