# generated using pymatgen
data_TmAlZn
_symmetry_space_group_name_H-M   'P 1'
_cell_length_a   4.41176644
_cell_length_b   4.41176644
_cell_length_c   7.00781841
_cell_angle_alpha   90.00000000
_cell_angle_beta   90.00000000
_cell_angle_gamma   120.00001440
_symmetry_Int_Tables_number   1
_chemical_formula_structural   TmAlZn
_chemical_formula_sum   'Tm2 Al2 Zn2'
_cell_volume   118.12407857
_cell_formula_units_Z   2
loop_
 _symmetry_equiv_pos_site_id
 _symmetry_equiv_pos_as_xyz
  1  'x, y, z'
loop_
 _atom_site_type_symbol
 _atom_site_label
 _atom_site_symmetry_multiplicity
 _atom_site_fract_x
 _atom_site_fract_y
 _atom_site_fract_z
 _atom_site_occupancy
  Tm  Tm0  1  0.00000000  0.00000000  0.50000000  1
  Tm  Tm1  1  0.00000000  0.00000000  -0.00000000  1
  Al  Al0  1  0.33333300  0.66666700  0.25000000  1
  Al  Al1  1  0.66666700  0.33333300  0.75000000  1
  Zn  Zn0  1  0.33333300  0.66666700  0.75000000  1
  Zn  Zn1  1  0.66666700  0.33333300  0.25000000  1
loop_
_geom_bond_atom_site_label_1
_geom_bond_atom_site_label_2
_geom_bond_distance
_geom_bond_site_symmetry_2
Tm0 Zn0 3.091477 1_545
Tm0 Zn1 3.091477 1_455
Tm0 Zn1 3.091479 1_555
Tm0 Zn0 3.091479 1_445
Tm0 Zn0 3.091479 1_555
Tm0 Zn1 3.091479 1_445
Tm0 Tm1 3.503909 1_555
Tm0 Tm1 3.503909 1_556
Tm1 Zn0 3.091477 1_544
Tm1 Zn1 3.091477 1_455
Tm1 Zn0 3.091479 1_444
Tm1 Zn1 3.091479 1_445
Tm1 Zn0 3.091479 1_554
Tm1 Zn1 3.091479 1_555
Al0 Zn1 2.547132 1_455
Al0 Zn1 2.547132 1_565
Al0 Zn1 2.547140 1_555
Al0 Tm1 3.091477 1_565
Al0 Tm0 3.091477 1_565
Al0 Tm1 3.091479 1_665
Al0 Tm1 3.091479 1_555
Al0 Tm0 3.091479 1_665
Al0 Tm0 3.091479 1_555
Al1 Zn0 2.547132 1_545
Al1 Zn0 2.547132 1_655
Al1 Zn0 2.547140 1_555
Al1 Tm1 3.091477 1_656
Al1 Tm0 3.091477 1_655
Al1 Tm1 3.091479 1_556
Al1 Tm0 3.091479 1_665
Al1 Tm0 3.091479 1_555
Al1 Tm1 3.091479 1_666
