# generated using pymatgen
data_K2HfO3
_symmetry_space_group_name_H-M   'P 1'
_cell_length_a   5.80882499
_cell_length_b   5.80882008
_cell_length_c   12.33531846
_cell_angle_alpha   90.00004878
_cell_angle_beta   90.00001927
_cell_angle_gamma   119.99998620
_symmetry_Int_Tables_number   1
_chemical_formula_structural   K2HfO3
_chemical_formula_sum   'K8 Hf4 O12'
_cell_volume   360.46016395
_cell_formula_units_Z   4
loop_
 _symmetry_equiv_pos_site_id
 _symmetry_equiv_pos_as_xyz
  1  'x, y, z'
loop_
 _atom_site_type_symbol
 _atom_site_label
 _atom_site_symmetry_multiplicity
 _atom_site_fract_x
 _atom_site_fract_y
 _atom_site_fract_z
 _atom_site_occupancy
  K  K0  1  0.68894242  0.68894182  0.74999999  1
  K  K1  1  0.31106983  0.31107047  0.24999999  1
  K  K2  1  0.00000175  0.31105739  0.75000031  1
  K  K3  1  0.00000007  0.68892969  0.25000011  1
  K  K4  1  0.31105724  0.00000114  0.74999987  1
  K  K5  1  0.68892896  -0.00000023  0.25000024  1
  K  K6  1  -0.00000004  -0.00000006  0.00002812  1
  K  K7  1  0.00000054  -0.00000017  0.49997208  1
  Hf  Hf0  1  0.66666485  0.33333372  0.00003483  1
  Hf  Hf1  1  0.33333474  0.66666580  0.00003491  1
  Hf  Hf2  1  0.33333439  0.66666605  0.49996382  1
  Hf  Hf3  1  0.66666608  0.33333393  0.49996367  1
  O  O0  1  0.39959617  0.39959664  0.90592842  1
  O  O1  1  0.60039839  0.60039791  0.09410486  1
  O  O2  1  -0.00000004  0.60040383  0.90592797  1
  O  O3  1  0.60039837  0.60039809  0.40589518  1
  O  O4  1  0.00000017  0.60040385  0.59407194  1
  O  O5  1  0.00000002  0.39960150  0.09410526  1
  O  O6  1  0.39959646  0.39959603  0.59407194  1
  O  O7  1  0.00000001  0.39960160  0.40589506  1
  O  O8  1  0.60040435  0.00000050  0.90592807  1
  O  O9  1  0.39960114  0.99999925  0.09410526  1
  O  O10  1  0.39960204  0.00000019  0.40589513  1
  O  O11  1  0.60040407  0.00000007  0.59407196  1
loop_
_geom_bond_atom_site_label_1
_geom_bond_atom_site_label_2
_geom_bond_distance
_geom_bond_site_symmetry_2
K0 O6 2.554309 1_555
K0 O0 2.554315 1_555
K0 O2 2.856247 1_655
K0 O4 2.856248 1_655
K0 O8 2.856251 1_565
K0 O11 2.856251 1_565
K1 O3 2.553936 1_555
K1 O1 2.553938 1_555
K1 O5 2.856002 1_555
K1 O7 2.856005 1_555
K1 O9 2.856007 1_545
K1 O10 2.856011 1_555
K2 O2 2.554311 1_555
K2 O4 2.554320 1_555
K2 O0 2.856241 1_555
K2 O6 2.856247 1_555
K2 O8 2.856251 1_455
K2 O11 2.856254 1_455
K3 O5 2.553933 1_555
K3 O7 2.553936 1_555
K3 O9 2.856005 1_555
K3 O10 2.856007 1_565
K3 O1 2.856009 1_455
K3 O3 2.856009 1_455
K4 O11 2.554316 1_555
K4 O8 2.554318 1_555
K4 O6 2.856243 1_555
K4 O0 2.856248 1_555
K4 O4 2.856249 1_545
K4 O2 2.856254 1_545
K5 O10 2.553932 1_555
K5 O9 2.553934 1_545
K5 O7 2.856005 1_655
K5 O3 2.856008 1_545
K5 O5 2.856010 1_655
K5 O1 2.856010 1_545
K6 O5 2.595134 1_555
K6 O9 2.595136 1_545
K6 O1 2.595137 1_445
K6 O2 2.595233 1_544
K6 O8 2.595233 1_454
K6 O0 2.595236 1_554
K7 O10 2.595135 1_555
K7 O3 2.595136 1_445
K7 O7 2.595138 1_555
K7 O4 2.595231 1_545
K7 O6 2.595232 1_555
K7 O11 2.595237 1_455
Hf0 O1 2.120950 1_555
Hf0 O9 2.120967 1_545
Hf0 O5 2.120974 1_655
Hf0 O0 2.121207 1_554
Hf0 O8 2.121219 1_554
Hf0 O2 2.121225 1_654
Hf1 O1 2.120953 1_555
Hf1 O9 2.120965 1_555
Hf1 O5 2.120968 1_555
Hf1 O0 2.121204 1_554
Hf1 O8 2.121223 1_564
Hf1 O2 2.121228 1_554
Hf2 O3 2.120946 1_555
Hf2 O7 2.120955 1_555
Hf2 O10 2.120957 1_565
Hf2 O6 2.121223 1_555
Hf2 O11 2.121227 1_565
Hf2 O4 2.121234 1_555
Hf3 O3 2.120945 1_555
Hf3 O10 2.120950 1_555
Hf3 O7 2.120957 1_655
Hf3 O6 2.121222 1_555
Hf3 O4 2.121229 1_655
Hf3 O11 2.121232 1_555
