# generated using pymatgen
data_BiRh7Pb2O15
_symmetry_space_group_name_H-M   'P 1'
_cell_length_a   10.60076368
_cell_length_b   10.60076368
_cell_length_c   13.40915200
_cell_angle_alpha   90.00000000
_cell_angle_beta   90.00000000
_cell_angle_gamma   120.09537516
_symmetry_Int_Tables_number   1
_chemical_formula_structural   BiRh7Pb2O15
_chemical_formula_sum   'Bi4 Rh28 Pb8 O60'
_cell_volume   1303.73121542
_cell_formula_units_Z   4
loop_
 _symmetry_equiv_pos_site_id
 _symmetry_equiv_pos_as_xyz
  1  'x, y, z'
loop_
 _atom_site_type_symbol
 _atom_site_label
 _atom_site_symmetry_multiplicity
 _atom_site_fract_x
 _atom_site_fract_y
 _atom_site_fract_z
 _atom_site_occupancy
  Bi  Bi0  1  0.00123800  0.28883300  0.75000000  1
  Bi  Bi1  1  0.28883300  0.00123800  0.75000000  1
  Bi  Bi2  1  0.99876200  0.71116700  0.25000000  1
  Bi  Bi3  1  0.71116700  0.99876200  0.25000000  1
  Rh  Rh0  1  0.00000000  0.00000000  0.00000000  1
  Rh  Rh1  1  0.00000000  0.00000000  0.50000000  1
  Rh  Rh2  1  0.83140100  0.16859900  0.00000000  1
  Rh  Rh3  1  0.33766900  0.16937600  0.99919800  1
  Rh  Rh4  1  0.83062400  0.66233100  0.00080200  1
  Rh  Rh5  1  0.16937600  0.33766900  0.99919800  1
  Rh  Rh6  1  0.66233100  0.83062400  0.00080200  1
  Rh  Rh7  1  0.16859900  0.83140100  0.00000000  1
  Rh  Rh8  1  0.16859900  0.83140100  0.50000000  1
  Rh  Rh9  1  0.66233100  0.83062400  0.49919800  1
  Rh  Rh10  1  0.16937600  0.33766900  0.50080200  1
  Rh  Rh11  1  0.83062400  0.66233100  0.49919800  1
  Rh  Rh12  1  0.33766900  0.16937600  0.50080200  1
  Rh  Rh13  1  0.83140100  0.16859900  0.50000000  1
  Rh  Rh14  1  0.00000000  0.50000000  0.00000000  1
  Rh  Rh15  1  0.50000000  0.00000000  0.00000000  1
  Rh  Rh16  1  0.50000000  0.50000000  0.00000000  1
  Rh  Rh17  1  0.00000000  0.50000000  0.50000000  1
  Rh  Rh18  1  0.50000000  0.00000000  0.50000000  1
  Rh  Rh19  1  0.50000000  0.50000000  0.50000000  1
  Rh  Rh20  1  0.33365800  0.66701300  0.85395200  1
  Rh  Rh21  1  0.66701300  0.33365800  0.85395200  1
  Rh  Rh22  1  0.66634200  0.33298700  0.14604800  1
  Rh  Rh23  1  0.33298700  0.66634200  0.14604800  1
  Rh  Rh24  1  0.66634200  0.33298700  0.35395200  1
  Rh  Rh25  1  0.33298700  0.66634200  0.35395200  1
  Rh  Rh26  1  0.33365800  0.66701300  0.64604800  1
  Rh  Rh27  1  0.66701300  0.33365800  0.64604800  1
  Pb  Pb0  1  0.73102200  0.73102200  0.75000000  1
  Pb  Pb1  1  0.26897800  0.26897800  0.25000000  1
  Pb  Pb2  1  0.39837000  0.39837000  0.75000000  1
  Pb  Pb3  1  0.99610200  0.61391200  0.75000000  1
  Pb  Pb4  1  0.61391200  0.99610200  0.75000000  1
  Pb  Pb5  1  0.60163000  0.60163000  0.25000000  1
  Pb  Pb6  1  0.00389800  0.38608800  0.25000000  1
  Pb  Pb7  1  0.38608800  0.00389800  0.25000000  1
  O  O0  1  0.99931200  0.83083700  0.92531100  1
  O  O1  1  0.83083700  0.99931200  0.92531100  1
  O  O2  1  0.16853500  0.16853500  0.92394000  1
  O  O3  1  0.00068800  0.16916300  0.07468900  1
  O  O4  1  0.16916300  0.00068800  0.07468900  1
  O  O5  1  0.83146500  0.83146500  0.07606000  1
  O  O6  1  0.00068800  0.16916300  0.42531100  1
  O  O7  1  0.16916300  0.00068800  0.42531100  1
  O  O8  1  0.83146500  0.83146500  0.42394000  1
  O  O9  1  0.99931200  0.83083700  0.57468900  1
  O  O10  1  0.83083700  0.99931200  0.57468900  1
  O  O11  1  0.16853500  0.16853500  0.57606000  1
  O  O12  1  0.15800400  0.66639700  0.91771400  1
  O  O13  1  0.50889600  0.84221000  0.91682200  1
  O  O14  1  0.33502700  0.49323300  0.91681000  1
  O  O15  1  0.84221000  0.50889600  0.91682200  1
  O  O16  1  0.49323300  0.33502700  0.91681000  1
  O  O17  1  0.66639700  0.15800400  0.91771400  1
  O  O18  1  0.84199600  0.33360300  0.08228600  1
  O  O19  1  0.49110400  0.15779000  0.08317800  1
  O  O20  1  0.66497300  0.50676700  0.08319000  1
  O  O21  1  0.15779000  0.49110400  0.08317800  1
  O  O22  1  0.50676700  0.66497300  0.08319000  1
  O  O23  1  0.33360300  0.84199600  0.08228600  1
  O  O24  1  0.84199600  0.33360300  0.41771400  1
  O  O25  1  0.49110400  0.15779000  0.41682200  1
  O  O26  1  0.66497300  0.50676700  0.41681000  1
  O  O27  1  0.15779000  0.49110400  0.41682200  1
  O  O28  1  0.50676700  0.66497300  0.41681000  1
  O  O29  1  0.33360300  0.84199600  0.41771400  1
  O  O30  1  0.15800400  0.66639700  0.58228600  1
  O  O31  1  0.50889600  0.84221000  0.58317800  1
  O  O32  1  0.33502700  0.49323300  0.58319000  1
  O  O33  1  0.84221000  0.50889600  0.58317800  1
  O  O34  1  0.49323300  0.33502700  0.58319000  1
  O  O35  1  0.66639700  0.15800400  0.58228600  1
  O  O36  1  0.99941200  0.33349300  0.92033100  1
  O  O37  1  0.33349300  0.99941200  0.92033100  1
  O  O38  1  0.66706200  0.66706200  0.92423000  1
  O  O39  1  0.00058800  0.66650700  0.07966900  1
  O  O40  1  0.66650700  0.00058800  0.07966900  1
  O  O41  1  0.33293800  0.33293800  0.07577000  1
  O  O42  1  0.00058800  0.66650700  0.42033100  1
  O  O43  1  0.66650700  0.00058800  0.42033100  1
  O  O44  1  0.33293800  0.33293800  0.42423000  1
  O  O45  1  0.99941200  0.33349300  0.57966900  1
  O  O46  1  0.33349300  0.99941200  0.57966900  1
  O  O47  1  0.66706200  0.66706200  0.57577000  1
  O  O48  1  0.47854500  0.65800000  0.75000000  1
  O  O49  1  0.17042900  0.51864400  0.75000000  1
  O  O50  1  0.34669900  0.82922500  0.75000000  1
  O  O51  1  0.51864400  0.17042900  0.75000000  1
  O  O52  1  0.82922500  0.34669900  0.75000000  1
  O  O53  1  0.65800000  0.47854500  0.75000000  1
  O  O54  1  0.52145500  0.34200000  0.25000000  1
  O  O55  1  0.82957100  0.48135600  0.25000000  1
  O  O56  1  0.65330100  0.17077500  0.25000000  1
  O  O57  1  0.48135600  0.82957100  0.25000000  1
  O  O58  1  0.17077500  0.65330100  0.25000000  1
  O  O59  1  0.34200000  0.52145500  0.25000000  1
loop_
_geom_bond_atom_site_label_1
_geom_bond_atom_site_label_2
_geom_bond_distance
_geom_bond_site_symmetry_2
Bi0 O49 2.183981 1_555
Bi0 O52 2.196158 1_455
Bi0 O45 2.334594 1_455
Bi0 O36 2.334594 1_455
Bi1 O51 2.183981 1_555
Bi1 O50 2.196158 1_545
Bi1 O46 2.334594 1_545
Bi1 O37 2.334594 1_545
Bi2 O55 2.183981 1_555
Bi2 O58 2.196158 1_655
Bi2 O39 2.334594 1_655
Bi2 O42 2.334594 1_655
Bi3 O57 2.183981 1_555
Bi3 O56 2.196158 1_565
Bi3 O43 2.334594 1_565
Bi3 O40 2.334594 1_565
O0 Rh0 2.050791 1_666
O0 Rh4 2.051774 1_556
O0 Rh7 2.052510 1_656
O1 Rh0 2.050791 1_666
O1 Rh6 2.051774 1_556
O1 Rh2 2.052510 1_566
O2 Rh3 2.053556 1_555
O2 Rh5 2.053556 1_555
O2 Rh0 2.054978 1_556
O3 Rh0 2.050791 1_555
O3 Rh5 2.051774 1_554
O3 Rh2 2.052510 1_455
O4 Rh0 2.050791 1_555
O4 Rh3 2.051774 1_554
O4 Rh7 2.052510 1_545
O5 Rh4 2.053556 1_555
O5 Rh6 2.053556 1_555
O5 Rh0 2.054978 1_665
O6 Rh1 2.050791 1_555
O6 Rh10 2.051774 1_555
O6 Rh13 2.052510 1_455
O7 Rh1 2.050791 1_555
O7 Rh12 2.051774 1_555
O7 Rh8 2.052510 1_545
O8 Rh11 2.053556 1_555
O8 Rh9 2.053556 1_555
O8 Rh1 2.054978 1_665
O9 Rh1 2.050791 1_665
O9 Rh11 2.051774 1_555
O9 Rh8 2.052510 1_655
O10 Rh1 2.050791 1_665
O10 Rh9 2.051774 1_555
O10 Rh13 2.052510 1_565
O11 Rh12 2.053556 1_555
O11 Rh10 2.053556 1_555
O11 Rh1 2.054978 1_555
O12 Rh7 2.023027 1_556
O12 Rh14 2.042398 1_556
O12 Rh20 2.046010 1_555
O12 Pb3 2.712028 1_455
O13 Rh6 2.032026 1_556
O13 Rh20 2.037362 1_555
O13 Rh15 2.051584 1_566
O13 Pb4 2.661438 1_555
O14 Rh5 2.029637 1_555
O14 Rh20 2.032526 1_555
O14 Rh16 2.045025 1_556
O14 Pb2 2.672556 1_555
O15 Rh4 2.032026 1_556
O15 Rh21 2.037362 1_555
O15 Rh14 2.051584 1_656
O15 Pb3 2.661438 1_555
O16 Rh3 2.029637 1_555
O16 Rh21 2.032526 1_555
O16 Rh16 2.045025 1_556
O16 Pb2 2.672556 1_555
O17 Rh2 2.023027 1_556
O17 Rh15 2.042398 1_556
O17 Rh21 2.046010 1_555
O17 Pb4 2.712028 1_545
O18 Rh2 2.023027 1_555
O18 Rh14 2.042398 1_655
O18 Rh22 2.046010 1_555
O18 Pb6 2.712028 1_655
O19 Rh3 2.032026 1_554
O19 Rh22 2.037362 1_555
O19 Rh15 2.051584 1_555
O19 Pb7 2.661438 1_555
O20 Rh4 2.029637 1_555
O20 Rh22 2.032526 1_555
O20 Rh16 2.045025 1_555
O20 Pb5 2.672556 1_555
O21 Rh5 2.032026 1_554
O21 Rh23 2.037362 1_555
O21 Rh14 2.051584 1_555
O21 Pb6 2.661438 1_555
O22 Rh6 2.029637 1_555
O22 Rh23 2.032526 1_555
O22 Rh16 2.045025 1_555
O22 Pb5 2.672556 1_555
O23 Rh7 2.023027 1_555
O23 Rh15 2.042398 1_565
O23 Rh23 2.046010 1_555
O23 Pb7 2.712028 1_565
O24 Rh13 2.023027 1_555
O24 Rh17 2.042398 1_655
O24 Rh24 2.046010 1_555
O24 Pb6 2.712028 1_655
O25 Rh12 2.032026 1_555
O25 Rh24 2.037362 1_555
O25 Rh18 2.051584 1_555
O25 Pb7 2.661438 1_555
O26 Rh11 2.029637 1_555
O26 Rh24 2.032526 1_555
O26 Rh19 2.045025 1_555
O26 Pb5 2.672556 1_555
O27 Rh10 2.032026 1_555
O27 Rh25 2.037362 1_555
O27 Rh17 2.051584 1_555
O27 Pb6 2.661438 1_555
O28 Rh9 2.029637 1_555
O28 Rh25 2.032526 1_555
O28 Rh19 2.045025 1_555
O28 Pb5 2.672556 1_555
O29 Rh8 2.023027 1_555
O29 Rh18 2.042398 1_565
O29 Rh25 2.046010 1_555
O29 Pb7 2.712028 1_565
O30 Rh8 2.023027 1_555
O30 Rh17 2.042398 1_555
O30 Rh26 2.046010 1_555
O30 Pb3 2.712028 1_455
O31 Rh9 2.032026 1_555
O31 Rh26 2.037362 1_555
O31 Rh18 2.051584 1_565
O31 Pb4 2.661438 1_555
O32 Rh10 2.029637 1_555
O32 Rh26 2.032526 1_555
O32 Rh19 2.045025 1_555
O32 Pb2 2.672556 1_555
O33 Rh11 2.032026 1_555
O33 Rh27 2.037362 1_555
O33 Rh17 2.051584 1_655
O33 Pb3 2.661438 1_555
O34 Rh12 2.029637 1_555
O34 Rh27 2.032526 1_555
O34 Rh19 2.045025 1_555
O34 Pb2 2.672556 1_555
O35 Rh13 2.023027 1_555
O35 Rh18 2.042398 1_555
O35 Rh27 2.046010 1_555
O35 Pb4 2.712028 1_545
O36 Rh14 2.060543 1_656
O36 Rh2 2.060738 1_556
O36 Rh5 2.070424 1_655
O37 Rh15 2.060543 1_566
O37 Rh7 2.060738 1_556
O37 Rh3 2.070424 1_565
O38 Rh6 2.037233 1_556
O38 Rh4 2.037233 1_556
O38 Rh16 2.039517 1_556
O38 Pb0 2.432402 1_555
O39 Rh14 2.060543 1_555
O39 Rh7 2.060738 1_555
O39 Rh4 2.070424 1_455
O40 Rh15 2.060543 1_555
O40 Rh2 2.060738 1_555
O40 Rh6 2.070424 1_545
O41 Rh3 2.037233 1_554
O41 Rh5 2.037233 1_554
O41 Rh16 2.039517 1_555
O41 Pb1 2.432402 1_555
O42 Rh17 2.060543 1_555
O42 Rh8 2.060738 1_555
O42 Rh11 2.070424 1_455
O43 Rh18 2.060543 1_555
O43 Rh13 2.060738 1_555
O43 Rh9 2.070424 1_545
O44 Rh12 2.037233 1_555
O44 Rh10 2.037233 1_555
O44 Rh19 2.039517 1_555
O44 Pb1 2.432402 1_555
O45 Rh17 2.060543 1_655
O45 Rh13 2.060738 1_555
O45 Rh10 2.070424 1_655
O46 Rh18 2.060543 1_565
O46 Rh8 2.060738 1_555
O46 Rh12 2.070424 1_565
O47 Rh11 2.037233 1_555
O47 Rh9 2.037233 1_555
O47 Rh19 2.039517 1_555
O47 Pb0 2.432402 1_555
O48 Rh26 2.111471 1_555
O48 Rh20 2.111471 1_555
O48 Pb0 2.384285 1_555
O48 Pb2 2.439557 1_555
O49 Rh26 2.163676 1_555
O49 Rh20 2.163676 1_555
O49 Pb3 2.511319 1_455
O50 Rh26 2.163472 1_555
O50 Rh20 2.163472 1_555
O50 Pb4 2.475466 1_555
O51 Rh21 2.163676 1_555
O51 Rh27 2.163676 1_555
O51 Pb4 2.511319 1_545
O52 Rh27 2.163472 1_555
O52 Rh21 2.163472 1_555
O52 Pb3 2.475466 1_555
O53 Rh27 2.111471 1_555
O53 Rh21 2.111471 1_555
O53 Pb0 2.384285 1_555
O53 Pb2 2.439557 1_555
O54 Rh24 2.111471 1_555
O54 Rh22 2.111471 1_555
O54 Pb1 2.384285 1_555
O54 Pb5 2.439557 1_555
O55 Rh24 2.163676 1_555
O55 Rh22 2.163676 1_555
O55 Pb6 2.511319 1_655
O56 Rh24 2.163472 1_555
O56 Rh22 2.163472 1_555
O56 Pb7 2.475466 1_555
O57 Rh25 2.163676 1_555
O57 Rh23 2.163676 1_555
O57 Pb7 2.511319 1_565
O58 Rh25 2.163472 1_555
O58 Rh23 2.163472 1_555
O58 Pb6 2.475466 1_555
O59 Rh23 2.111471 1_555
O59 Rh25 2.111471 1_555
O59 Pb1 2.384285 1_555
O59 Pb5 2.439557 1_555
