# generated using pymatgen
data_Na(CrS2)2
_symmetry_space_group_name_H-M   'P 1'
_cell_length_a   3.44519032
_cell_length_b   5.88767316
_cell_length_c   6.81520711
_cell_angle_alpha   90.18045224
_cell_angle_beta   90.00000000
_cell_angle_gamma   90.00000000
_symmetry_Int_Tables_number   1
_chemical_formula_structural   Na(CrS2)2
_chemical_formula_sum   'Na1 Cr2 S4'
_cell_volume   138.24002892
_cell_formula_units_Z   1
loop_
 _symmetry_equiv_pos_site_id
 _symmetry_equiv_pos_as_xyz
  1  'x, y, z'
loop_
 _atom_site_type_symbol
 _atom_site_label
 _atom_site_symmetry_multiplicity
 _atom_site_fract_x
 _atom_site_fract_y
 _atom_site_fract_z
 _atom_site_occupancy
  Na  Na0  1  -0.00000000  -0.00000000  0.50000000  1
  Cr  Cr0  1  0.50000000  0.50000000  0.00000000  1
  Cr  Cr1  1  -0.00000000  -0.00000000  0.00000000  1
  S  S0  1  -0.00000000  0.33568426  0.19624439  1
  S  S1  1  0.50000000  0.83577294  0.19789377  1
  S  S2  1  0.50000000  0.16422706  0.80210623  1
  S  S3  1  -0.00000000  0.66431574  0.80375561  1
loop_
_geom_bond_atom_site_label_1
_geom_bond_atom_site_label_2
_geom_bond_distance
_geom_bond_site_symmetry_2
Na0 S1 2.851115 1_445
Na0 S1 2.851115 1_545
Na0 S2 2.851115 1_455
Na0 S2 2.851115 1_555
Na0 S0 2.866614 1_555
Na0 S3 2.866614 1_545
Cr0 S0 2.387505 1_655
Cr0 S3 2.387505 1_654
Cr0 S3 2.387505 1_554
Cr0 S0 2.387505 1_555
Cr0 S2 2.389640 1_554
Cr0 S1 2.389640 1_555
Cr1 S3 2.382911 1_544
Cr1 S0 2.382911 1_555
Cr1 S2 2.393623 1_454
Cr1 S1 2.393623 1_445
Cr1 S2 2.393623 1_554
Cr1 S1 2.393623 1_545
