# generated using pymatgen
data_LaMnCuGe2
_symmetry_space_group_name_H-M   'P 1'
_cell_length_a   6.09064608
_cell_length_b   6.09064608
_cell_length_c   6.09064608
_cell_angle_alpha   139.47570377
_cell_angle_beta   139.47570377
_cell_angle_gamma   58.65023960
_symmetry_Int_Tables_number   1
_chemical_formula_structural   LaMnCuGe2
_chemical_formula_sum   'La1 Mn1 Cu1 Ge2'
_cell_volume   94.50160804
_cell_formula_units_Z   1
loop_
 _symmetry_equiv_pos_site_id
 _symmetry_equiv_pos_as_xyz
  1  'x, y, z'
loop_
 _atom_site_type_symbol
 _atom_site_label
 _atom_site_symmetry_multiplicity
 _atom_site_fract_x
 _atom_site_fract_y
 _atom_site_fract_z
 _atom_site_occupancy
  La  La0  1  0.00000000  0.00000000  0.00000000  1
  Mn  Mn0  1  0.25000000  0.75000000  0.50000000  1
  Cu  Cu0  1  0.75000000  0.25000000  0.50000000  1
  Ge  Ge0  1  0.62293600  0.62293600  0.00000000  1
  Ge  Ge1  1  0.37706400  0.37706400  0.00000000  1
loop_
_geom_bond_atom_site_label_1
_geom_bond_atom_site_label_2
_geom_bond_distance
_geom_bond_site_symmetry_2
La0 Mn0 3.390950 1_545
La0 Mn0 3.390950 1_544
La0 Mn0 3.390950 1_555
La0 Mn0 3.390950 1_444
Cu0 Ge0 2.504024 1_556
Cu0 Ge0 2.504024 1_545
Cu0 Ge1 2.504024 1_656
Cu0 Ge1 2.504024 1_555
Cu0 Mn0 2.982984 1_656
Cu0 Mn0 2.982984 1_645
Cu0 Mn0 2.982984 1_544
Cu0 Mn0 2.982984 1_555
Cu0 La0 3.390950 1_655
Cu0 La0 3.390950 1_666
Cu0 La0 3.390950 1_656
Cu0 La0 3.390950 1_555
Ge0 Mn0 2.504024 1_554
Ge0 Mn0 2.504024 1_655
Ge0 Ge1 2.611238 1_555
Ge0 La0 3.256199 1_554
Ge0 La0 3.256199 1_565
Ge0 La0 3.256199 1_655
Ge0 La0 3.256199 1_666
Ge1 Mn0 2.504024 1_555
Ge1 Mn0 2.504024 1_544
Ge1 La0 3.256199 1_655
Ge1 La0 3.256199 1_666
Ge1 La0 3.256199 1_554
Ge1 La0 3.256199 1_565
