# generated using pymatgen
data_Ba8Eu7Cl34
_symmetry_space_group_name_H-M   'P 1'
_cell_length_a   11.37051402
_cell_length_b   11.37051402
_cell_length_c   13.58310883
_cell_angle_alpha   114.74329413
_cell_angle_beta   114.74329413
_cell_angle_gamma   90.00000000
_symmetry_Int_Tables_number   1
_chemical_formula_structural   Ba8Eu7Cl34
_chemical_formula_sum   'Ba8 Eu7 Cl34'
_cell_volume   1415.43876029
_cell_formula_units_Z   1
loop_
 _symmetry_equiv_pos_site_id
 _symmetry_equiv_pos_as_xyz
  1  'x, y, z'
loop_
 _atom_site_type_symbol
 _atom_site_label
 _atom_site_symmetry_multiplicity
 _atom_site_fract_x
 _atom_site_fract_y
 _atom_site_fract_z
 _atom_site_occupancy
  Ba  Ba0  1  0.52418950  0.70326304  0.68240279  1
  Ba  Ba1  1  0.15821329  0.97913975  0.68240279  1
  Ba  Ba2  1  0.70326304  0.15821329  0.68240279  1
  Ba  Ba3  1  0.97913975  0.52418950  0.68240279  1
  Ba  Ba4  1  0.47581050  0.29673696  0.31759721  1
  Ba  Ba5  1  0.84178671  0.02086025  0.31759721  1
  Ba  Ba6  1  0.29673696  0.84178671  0.31759721  1
  Ba  Ba7  1  0.02086025  0.47581050  0.31759721  1
  Eu  Eu0  1  -0.00000000  -0.00000000  -0.00000000  1
  Eu  Eu1  1  0.68844727  0.68844727  0.37689455  1
  Eu  Eu2  1  0.31155273  0.31155273  0.62310545  1
  Eu  Eu3  1  0.60831026  0.18004119  -0.00000000  1
  Eu  Eu4  1  0.39168974  0.81995881  -0.00000000  1
  Eu  Eu5  1  0.18004119  0.39168974  -0.00000000  1
  Eu  Eu6  1  0.81995881  0.60831026  -0.00000000  1
  Cl  Cl0  1  0.42299399  0.92299399  0.84598797  1
  Cl  Cl1  1  0.92299399  0.42299399  0.84598797  1
  Cl  Cl2  1  0.57700601  0.07700601  0.15401203  1
  Cl  Cl3  1  0.07700601  0.57700601  0.15401203  1
  Cl  Cl4  1  0.72253914  0.00404743  0.84809427  1
  Cl  Cl5  1  0.12555513  0.84404684  0.84809427  1
  Cl  Cl6  1  0.00404743  0.12555513  0.84809427  1
  Cl  Cl7  1  0.84404684  0.72253914  0.84809427  1
  Cl  Cl8  1  0.27746086  0.99595257  0.15190573  1
  Cl  Cl9  1  0.87444487  0.15595316  0.15190573  1
  Cl  Cl10  1  0.99595257  0.87444487  0.15190573  1
  Cl  Cl11  1  0.15595316  0.27746086  0.15190573  1
  Cl  Cl12  1  0.25000000  0.75000000  0.50000000  1
  Cl  Cl13  1  0.75000000  0.25000000  0.50000000  1
  Cl  Cl14  1  0.56629620  0.85153108  0.52206414  1
  Cl  Cl15  1  0.95576794  0.67053306  0.52206414  1
  Cl  Cl16  1  0.85153108  0.95576794  0.52206414  1
  Cl  Cl17  1  0.67053306  0.56629620  0.52206414  1
  Cl  Cl18  1  0.43370380  0.14846892  0.47793586  1
  Cl  Cl19  1  0.04423206  0.32946694  0.47793586  1
  Cl  Cl20  1  0.14846892  0.04423206  0.47793586  1
  Cl  Cl21  1  0.32946694  0.43370380  0.47793586  1
  Cl  Cl22  1  0.40956238  0.54783532  0.24096615  1
  Cl  Cl23  1  0.83140377  0.69313082  0.24096615  1
  Cl  Cl24  1  0.54783532  0.83140377  0.24096615  1
  Cl  Cl25  1  0.69313082  0.40956238  0.24096615  1
  Cl  Cl26  1  0.59043762  0.45216468  0.75903385  1
  Cl  Cl27  1  0.16859623  0.30686918  0.75903385  1
  Cl  Cl28  1  0.45216468  0.16859623  0.75903385  1
  Cl  Cl29  1  0.30686918  0.59043762  0.75903385  1
  Cl  Cl30  1  0.77331099  0.36148937  -0.00000000  1
  Cl  Cl31  1  0.22668901  0.63851063  -0.00000000  1
  Cl  Cl32  1  0.36148937  0.22668901  -0.00000000  1
  Cl  Cl33  1  0.63851063  0.77331099  -0.00000000  1
loop_
_geom_bond_atom_site_label_1
_geom_bond_atom_site_label_2
_geom_bond_distance
_geom_bond_site_symmetry_2
Ba0 Cl21 3.120350 1_555
Ba0 Cl0 3.161729 1_555
Ba0 Cl17 3.183074 1_555
Ba0 Cl12 3.282815 1_555
Ba0 Cl7 3.328016 1_555
Ba0 Cl4 3.340092 1_565
Ba0 Cl26 3.410861 1_555
Ba0 Cl14 3.429450 1_555
Ba0 Cl29 3.479399 1_555
Ba0 Cl33 3.655656 1_556
Ba1 Cl20 3.120350 1_565
Ba1 Cl0 3.161729 1_555
Ba1 Cl16 3.183074 1_455
Ba1 Cl12 3.282815 1_555
Ba1 Cl6 3.328016 1_565
Ba1 Cl5 3.340092 1_555
Ba1 Cl27 3.410861 1_565
Ba1 Cl15 3.429450 1_455
Ba1 Cl28 3.479399 1_565
Ba1 Cl32 3.655656 1_566
Ba2 Cl18 3.120350 1_555
Ba2 Cl1 3.161729 1_555
Ba2 Cl14 3.183074 1_545
Ba2 Cl13 3.282815 1_555
Ba2 Cl4 3.328016 1_555
Ba2 Cl6 3.340092 1_655
Ba2 Cl28 3.410861 1_555
Ba2 Cl16 3.429450 1_545
Ba2 Cl26 3.479399 1_555
Ba2 Cl30 3.655656 1_556
Ba3 Cl19 3.120350 1_655
Ba3 Cl1 3.161729 1_555
Ba3 Cl15 3.183074 1_555
Ba3 Cl13 3.282815 1_555
Ba3 Cl5 3.328016 1_655
Ba3 Cl7 3.340092 1_555
Ba3 Cl29 3.410861 1_655
Ba3 Cl17 3.429450 1_555
Ba3 Cl27 3.479399 1_655
Ba3 Cl31 3.655656 1_656
Ba4 Cl17 3.120350 1_555
Ba4 Cl2 3.161729 1_555
Ba4 Cl21 3.183074 1_555
Ba4 Cl13 3.282815 1_555
Ba4 Cl11 3.328016 1_555
Ba4 Cl8 3.340092 1_545
Ba4 Cl22 3.410861 1_555
Ba4 Cl18 3.429450 1_555
Ba4 Cl25 3.479399 1_555
Ba4 Cl32 3.655656 1_555
Ba5 Cl16 3.120350 1_545
Ba5 Cl2 3.161729 1_555
Ba5 Cl20 3.183074 1_655
Ba5 Cl13 3.282815 1_555
Ba5 Cl10 3.328016 1_545
Ba5 Cl9 3.340092 1_555
Ba5 Cl23 3.410861 1_545
Ba5 Cl19 3.429450 1_655
Ba5 Cl24 3.479399 1_545
Ba5 Cl33 3.655656 1_545
Ba6 Cl14 3.120350 1_555
Ba6 Cl3 3.161729 1_555
Ba6 Cl18 3.183074 1_565
Ba6 Cl12 3.282815 1_555
Ba6 Cl8 3.328016 1_555
Ba6 Cl10 3.340092 1_455
Ba6 Cl24 3.410861 1_555
Ba6 Cl20 3.429450 1_565
Ba6 Cl22 3.479399 1_555
Ba6 Cl31 3.655656 1_555
Ba7 Cl15 3.120350 1_455
Ba7 Cl3 3.161729 1_555
Ba7 Cl19 3.183074 1_555
Ba7 Cl12 3.282815 1_555
Ba7 Cl9 3.328016 1_455
Ba7 Cl11 3.340092 1_555
Ba7 Cl25 3.410861 1_455
Ba7 Cl21 3.429450 1_555
Ba7 Cl23 3.479399 1_455
Ba7 Cl30 3.655656 1_455
Cl0 Eu3 2.924129 1_566
Cl0 Eu4 2.924129 1_556
Cl1 Eu5 2.924129 1_656
Cl1 Eu6 2.924129 1_556
Cl2 Eu4 2.924129 1_545
Cl2 Eu3 2.924129 1_555
Cl3 Eu6 2.924129 1_455
Cl3 Eu5 2.924129 1_555
Cl4 Eu3 2.955660 1_556
Cl4 Eu0 2.973720 1_656
Cl5 Eu4 2.955660 1_556
Cl5 Eu0 2.973720 1_566
Cl6 Eu5 2.955660 1_556
Cl6 Eu0 2.973720 1_556
Cl7 Eu6 2.955660 1_556
Cl7 Eu0 2.973720 1_666
Cl8 Eu4 2.955660 1_555
Cl8 Eu0 2.973720 1_565
Cl9 Eu3 2.955660 1_555
Cl9 Eu0 2.973720 1_655
Cl10 Eu6 2.955660 1_555
Cl10 Eu0 2.973720 1_665
Cl11 Eu5 2.955660 1_555
Cl11 Eu0 2.973720 1_555
Cl14 Eu1 2.913358 1_555
Cl15 Eu1 2.913358 1_555
Cl16 Eu1 2.913358 1_555
Cl17 Eu1 2.913358 1_555
Cl18 Eu2 2.913358 1_555
Cl19 Eu2 2.913358 1_555
Cl20 Eu2 2.913358 1_555
Cl21 Eu2 2.913358 1_555
Cl22 Eu1 2.940852 1_555
Cl22 Eu5 2.942960 1_555
Cl23 Eu1 2.940852 1_555
Cl23 Eu6 2.942960 1_555
Cl24 Eu1 2.940852 1_555
Cl24 Eu4 2.942960 1_555
Cl25 Eu1 2.940852 1_555
Cl25 Eu3 2.942960 1_555
Cl26 Eu2 2.940852 1_555
Cl26 Eu6 2.942960 1_556
Cl27 Eu2 2.940852 1_555
Cl27 Eu5 2.942960 1_556
Cl28 Eu2 2.940852 1_555
Cl28 Eu3 2.942960 1_556
Cl29 Eu2 2.940852 1_555
Cl29 Eu4 2.942960 1_556
Cl30 Eu3 2.788645 1_555
Cl30 Eu6 2.856163 1_555
Cl31 Eu4 2.788645 1_555
Cl31 Eu5 2.856163 1_555
Cl32 Eu5 2.788645 1_555
Cl32 Eu3 2.856163 1_555
Cl33 Eu6 2.788645 1_555
Cl33 Eu4 2.856163 1_555
