# generated using pymatgen
data_K5Bi4
_symmetry_space_group_name_H-M   'P 1'
_cell_length_a   6.92982531
_cell_length_b   6.92982531
_cell_length_c   11.66582801
_cell_angle_alpha   70.72295438
_cell_angle_beta   70.72295438
_cell_angle_gamma   47.62562022
_symmetry_Int_Tables_number   1
_chemical_formula_structural   K5Bi4
_chemical_formula_sum   'K5 Bi4'
_cell_volume   385.98199301
_cell_formula_units_Z   1
loop_
 _symmetry_equiv_pos_site_id
 _symmetry_equiv_pos_as_xyz
  1  'x, y, z'
loop_
 _atom_site_type_symbol
 _atom_site_label
 _atom_site_symmetry_multiplicity
 _atom_site_fract_x
 _atom_site_fract_y
 _atom_site_fract_z
 _atom_site_occupancy
  K  K0  1  0.74579228  0.74579228  0.66742152  1
  K  K1  1  0.25795644  0.25795644  0.33553474  1
  K  K2  1  0.40549097  0.40549097  0.88848623  1
  K  K3  1  0.59507074  0.59507074  0.11429847  1
  K  K4  1  0.50617300  0.50617300  0.49806878  1
  Bi  Bi0  1  0.04426519  0.04426519  0.67245731  1
  Bi  Bi1  1  0.95636220  0.95636220  0.33137681  1
  Bi  Bi2  1  0.11006807  0.11006807  0.89352891  1
  Bi  Bi3  1  0.89081811  0.89081811  0.10982822  1
loop_
_geom_bond_atom_site_label_1
_geom_bond_atom_site_label_2
_geom_bond_distance
_geom_bond_site_symmetry_2
Bi0 Bi2 2.983339 1_555
Bi0 K4 3.592981 1_455
Bi0 K4 3.592981 1_545
Bi0 K2 3.751713 1_545
Bi0 K2 3.751713 1_455
Bi0 K0 3.775327 1_455
Bi0 K0 3.775327 1_545
Bi0 K0 3.806161 1_445
Bi0 K1 3.886417 1_555
Bi1 Bi3 2.986772 1_555
Bi1 K4 3.590976 1_655
Bi1 K4 3.590976 1_565
Bi1 K1 3.751208 1_565
Bi1 K1 3.751208 1_655
Bi1 K3 3.757692 1_655
Bi1 K3 3.757692 1_565
Bi1 K1 3.841916 1_665
Bi1 K0 3.865609 1_555
Bi2 Bi3 3.005490 1_446
Bi2 K2 3.725071 1_555
Bi2 K3 3.760854 1_546
Bi2 K3 3.760854 1_456
Bi2 K0 3.804140 1_455
Bi2 K0 3.804140 1_545
Bi2 K2 3.830237 1_545
Bi2 K2 3.830237 1_455
Bi3 K3 3.731507 1_555
Bi3 K2 3.766121 1_564
Bi3 K2 3.766121 1_654
Bi3 K1 3.794470 1_655
Bi3 K1 3.794470 1_565
Bi3 K3 3.825701 1_565
Bi3 K3 3.825701 1_655
