# generated using pymatgen
data_K4Sn20Hg3
_symmetry_space_group_name_H-M   'P 1'
_cell_length_a   12.43859900
_cell_length_b   12.43859900
_cell_length_c   12.43859900
_cell_angle_alpha   90.00000000
_cell_angle_beta   90.00000000
_cell_angle_gamma   90.00000000
_symmetry_Int_Tables_number   1
_chemical_formula_structural   K4Sn20Hg3
_chemical_formula_sum   'K8 Sn40 Hg6'
_cell_volume   1924.48442787
_cell_formula_units_Z   2
loop_
 _symmetry_equiv_pos_site_id
 _symmetry_equiv_pos_as_xyz
  1  'x, y, z'
loop_
 _atom_site_type_symbol
 _atom_site_label
 _atom_site_symmetry_multiplicity
 _atom_site_fract_x
 _atom_site_fract_y
 _atom_site_fract_z
 _atom_site_occupancy
  K  K0  1  0.00000000  0.00000000  0.00000000  1
  K  K1  1  0.50000000  0.50000000  0.50000000  1
  K  K2  1  0.25000000  0.00000000  0.50000000  1
  K  K3  1  0.75000000  0.00000000  0.50000000  1
  K  K4  1  0.50000000  0.25000000  0.00000000  1
  K  K5  1  0.50000000  0.75000000  0.00000000  1
  K  K6  1  0.00000000  0.50000000  0.25000000  1
  K  K7  1  0.00000000  0.50000000  0.75000000  1
  Sn  Sn0  1  0.18277300  0.18277300  0.18277300  1
  Sn  Sn1  1  0.81722700  0.81722700  0.81722700  1
  Sn  Sn2  1  0.81722700  0.81722700  0.18277300  1
  Sn  Sn3  1  0.81722700  0.18277300  0.81722700  1
  Sn  Sn4  1  0.68277300  0.68277300  0.31722700  1
  Sn  Sn5  1  0.18277300  0.18277300  0.81722700  1
  Sn  Sn6  1  0.18277300  0.81722700  0.18277300  1
  Sn  Sn7  1  0.31722700  0.31722700  0.68277300  1
  Sn  Sn8  1  0.18277300  0.81722700  0.81722700  1
  Sn  Sn9  1  0.31722700  0.31722700  0.31722700  1
  Sn  Sn10  1  0.81722700  0.18277300  0.18277300  1
  Sn  Sn11  1  0.68277300  0.68277300  0.68277300  1
  Sn  Sn12  1  0.68277300  0.31722700  0.68277300  1
  Sn  Sn13  1  0.31722700  0.68277300  0.31722700  1
  Sn  Sn14  1  0.31722700  0.68277300  0.68277300  1
  Sn  Sn15  1  0.68277300  0.31722700  0.31722700  1
  Sn  Sn16  1  0.00000000  0.11667300  0.31230600  1
  Sn  Sn17  1  0.00000000  0.88332700  0.68769400  1
  Sn  Sn18  1  0.00000000  0.88332700  0.31230600  1
  Sn  Sn19  1  0.00000000  0.11667300  0.68769400  1
  Sn  Sn20  1  0.31230600  0.00000000  0.11667300  1
  Sn  Sn21  1  0.61667300  0.50000000  0.18769400  1
  Sn  Sn22  1  0.68769400  0.00000000  0.88332700  1
  Sn  Sn23  1  0.38332700  0.50000000  0.81230600  1
  Sn  Sn24  1  0.31230600  0.00000000  0.88332700  1
  Sn  Sn25  1  0.38332700  0.50000000  0.18769400  1
  Sn  Sn26  1  0.68769400  0.00000000  0.11667300  1
  Sn  Sn27  1  0.61667300  0.50000000  0.81230600  1
  Sn  Sn28  1  0.11667300  0.31230600  0.00000000  1
  Sn  Sn29  1  0.50000000  0.81230600  0.38332700  1
  Sn  Sn30  1  0.88332700  0.68769400  0.00000000  1
  Sn  Sn31  1  0.50000000  0.18769400  0.61667300  1
  Sn  Sn32  1  0.11667300  0.68769400  0.00000000  1
  Sn  Sn33  1  0.50000000  0.18769400  0.38332700  1
  Sn  Sn34  1  0.88332700  0.31230600  0.00000000  1
  Sn  Sn35  1  0.50000000  0.81230600  0.61667300  1
  Sn  Sn36  1  0.18769400  0.61667300  0.50000000  1
  Sn  Sn37  1  0.81230600  0.38332700  0.50000000  1
  Sn  Sn38  1  0.18769400  0.38332700  0.50000000  1
  Sn  Sn39  1  0.81230600  0.61667300  0.50000000  1
  Hg  Hg0  1  0.25000000  0.50000000  0.00000000  1
  Hg  Hg1  1  0.75000000  0.50000000  0.00000000  1
  Hg  Hg2  1  0.00000000  0.25000000  0.50000000  1
  Hg  Hg3  1  0.00000000  0.75000000  0.50000000  1
  Hg  Hg4  1  0.50000000  0.00000000  0.25000000  1
  Hg  Hg5  1  0.50000000  0.00000000  0.75000000  1
loop_
_geom_bond_atom_site_label_1
_geom_bond_atom_site_label_2
_geom_bond_distance
_geom_bond_site_symmetry_2
K0 Sn3 3.937714 1_454
K0 Sn2 3.937714 1_445
K0 Sn10 3.937714 1_455
K0 Sn0 3.937714 1_555
K0 Sn5 3.937714 1_554
K0 Sn6 3.937714 1_545
K0 Sn1 3.937714 1_444
K0 Sn8 3.937714 1_544
K1 Sn12 3.937714 1_555
K1 Sn4 3.937714 1_555
K1 Sn11 3.937714 1_555
K1 Sn14 3.937714 1_555
K1 Sn7 3.937714 1_555
K1 Sn15 3.937714 1_555
K1 Sn9 3.937714 1_555
K1 Sn13 3.937714 1_555
K2 Sn33 4.150498 1_555
K2 Sn35 4.150498 1_545
K2 Sn17 4.150498 1_545
K2 Sn18 4.150498 1_545
K2 Sn19 4.150498 1_555
K2 Sn31 4.150498 1_555
K2 Sn16 4.150498 1_555
K2 Sn29 4.150498 1_545
K3 Sn33 4.150498 1_555
K3 Sn18 4.150498 1_645
K3 Sn35 4.150498 1_545
K3 Sn19 4.150498 1_655
K3 Sn16 4.150498 1_655
K3 Sn31 4.150498 1_555
K3 Sn29 4.150498 1_545
K3 Sn17 4.150498 1_645
K4 Sn20 4.150498 1_555
K4 Sn23 4.150498 1_554
K4 Sn22 4.150498 1_554
K4 Sn21 4.150498 1_555
K4 Sn27 4.150498 1_554
K4 Sn25 4.150498 1_555
K4 Sn24 4.150498 1_554
K4 Sn26 4.150498 1_555
K5 Sn26 4.150498 1_565
K5 Sn23 4.150498 1_554
K5 Sn21 4.150498 1_555
K5 Sn27 4.150498 1_554
K5 Sn24 4.150498 1_564
K5 Sn25 4.150498 1_555
K5 Sn20 4.150498 1_565
K5 Sn22 4.150498 1_564
K6 Sn38 4.150498 1_555
K6 Sn32 4.150498 1_555
K6 Sn34 4.150498 1_455
K6 Sn36 4.150498 1_555
K6 Sn39 4.150498 1_455
K6 Sn30 4.150498 1_455
K6 Sn37 4.150498 1_455
K6 Sn28 4.150498 1_555
K7 Sn38 4.150498 1_555
K7 Sn28 4.150498 1_556
K7 Sn36 4.150498 1_555
K7 Sn32 4.150498 1_556
K7 Sn39 4.150498 1_455
K7 Sn30 4.150498 1_456
K7 Sn37 4.150498 1_455
K7 Sn34 4.150498 1_456
Sn0 Sn9 2.896715 1_555
Sn0 Sn28 2.905258 1_555
Sn0 Sn20 2.905258 1_555
Sn0 Sn16 2.905258 1_555
Sn1 Sn11 2.896715 1_555
Sn1 Sn17 2.905258 1_655
Sn1 Sn30 2.905258 1_556
Sn1 Sn22 2.905258 1_565
Sn2 Sn4 2.896715 1_555
Sn2 Sn26 2.905258 1_565
Sn2 Sn30 2.905258 1_555
Sn3 Sn34 2.905258 1_556
Sn5 Sn7 2.896715 1_555
Sn10 Sn15 2.896715 1_555
Sn10 Sn34 2.905258 1_555
Sn10 Sn26 2.905258 1_555
Sn10 Sn16 2.905258 1_655
Sn11 Sn27 2.905258 1_555
Sn11 Sn35 2.905258 1_555
Sn11 Sn39 2.905258 1_555
Sn12 Sn3 2.896715 1_555
Sn12 Sn31 2.905258 1_555
Sn12 Sn37 2.905258 1_555
Sn12 Sn27 2.905258 1_555
Sn13 Sn6 2.896715 1_555
Sn13 Sn25 2.905258 1_555
Sn13 Sn36 2.905258 1_555
Sn13 Sn29 2.905258 1_555
Sn14 Sn8 2.896715 1_555
Sn14 Sn36 2.905258 1_555
Sn14 Sn23 2.905258 1_555
Sn14 Sn35 2.905258 1_555
Sn15 Sn33 2.905258 1_555
Sn15 Sn21 2.905258 1_555
Sn15 Sn37 2.905258 1_555
Sn16 Sn18 2.902497 1_545
Sn17 Sn19 2.902497 1_565
Sn17 Sn8 2.905258 1_555
Sn18 Sn6 2.905258 1_555
Sn18 Sn2 2.905258 1_455
Sn19 Sn5 2.905258 1_555
Sn19 Sn3 2.905258 1_455
Sn20 Sn24 2.902497 1_554
Sn20 Sn6 2.905258 1_545
Sn21 Sn25 2.902497 1_555
Sn21 Sn4 2.905258 1_555
Sn22 Sn26 2.902497 1_556
Sn22 Sn3 2.905258 1_555
Sn23 Sn27 2.902497 1_555
Sn23 Sn7 2.905258 1_555
Sn24 Sn8 2.905258 1_545
Sn24 Sn5 2.905258 1_555
Sn25 Sn9 2.905258 1_555
Sn28 Sn34 2.902497 1_455
Sn28 Sn5 2.905258 1_554
Sn29 Sn35 2.902497 1_555
Sn29 Sn4 2.905258 1_555
Sn30 Sn32 2.902497 1_655
Sn31 Sn33 2.902497 1_555
Sn31 Sn7 2.905258 1_555
Sn32 Sn6 2.905258 1_555
Sn32 Sn8 2.905258 1_554
Sn33 Sn9 2.905258 1_555
Sn36 Sn38 2.902497 1_555
Sn37 Sn39 2.902497 1_555
Sn38 Sn7 2.905258 1_555
Sn38 Sn9 2.905258 1_555
Sn39 Sn4 2.905258 1_555
Hg0 Sn25 2.863719 1_555
Hg0 Sn32 2.863719 1_555
Hg0 Sn28 2.863719 1_555
Hg0 Sn23 2.863719 1_554
Hg1 Sn21 2.863719 1_555
Hg1 Sn27 2.863719 1_554
Hg1 Sn34 2.863719 1_555
Hg1 Sn30 2.863719 1_555
Hg2 Sn38 2.863719 1_555
Hg2 Sn19 2.863719 1_555
Hg2 Sn37 2.863719 1_455
Hg2 Sn16 2.863719 1_555
Hg3 Sn36 2.863719 1_555
Hg3 Sn39 2.863719 1_455
Hg3 Sn17 2.863719 1_555
Hg3 Sn18 2.863719 1_555
Hg4 Sn33 2.863719 1_555
Hg4 Sn20 2.863719 1_555
Hg4 Sn26 2.863719 1_555
Hg4 Sn29 2.863719 1_545
Hg5 Sn31 2.863719 1_555
Hg5 Sn22 2.863719 1_555
Hg5 Sn35 2.863719 1_545
Hg5 Sn24 2.863719 1_555
