# generated using pymatgen
data_LuAsPt
_symmetry_space_group_name_H-M   'P 1'
_cell_length_a   4.24254634
_cell_length_b   4.24254634
_cell_length_c   15.28763000
_cell_angle_alpha   90.00000000
_cell_angle_beta   90.00000000
_cell_angle_gamma   120.00000523
_symmetry_Int_Tables_number   1
_chemical_formula_structural   LuAsPt
_chemical_formula_sum   'Lu4 As4 Pt4'
_cell_volume   238.29995501
_cell_formula_units_Z   4
loop_
 _symmetry_equiv_pos_site_id
 _symmetry_equiv_pos_as_xyz
  1  'x, y, z'
loop_
 _atom_site_type_symbol
 _atom_site_label
 _atom_site_symmetry_multiplicity
 _atom_site_fract_x
 _atom_site_fract_y
 _atom_site_fract_z
 _atom_site_occupancy
  Lu  Lu0  1  0.00000000  0.00000000  0.50000000  1
  Lu  Lu1  1  0.00000000  0.00000000  0.00000000  1
  Lu  Lu2  1  0.00000000  0.00000000  0.25000000  1
  Lu  Lu3  1  0.00000000  0.00000000  0.75000000  1
  As  As0  1  0.33333300  0.66666700  0.88637600  1
  As  As1  1  0.66666700  0.33333300  0.11362400  1
  As  As2  1  0.66666700  0.33333300  0.38637600  1
  As  As3  1  0.33333300  0.66666700  0.61362400  1
  Pt  Pt0  1  0.33333300  0.66666700  0.36350400  1
  Pt  Pt1  1  0.66666700  0.33333300  0.63649600  1
  Pt  Pt2  1  0.66666700  0.33333300  0.86350400  1
  Pt  Pt3  1  0.33333300  0.66666700  0.13649600  1
loop_
_geom_bond_atom_site_label_1
_geom_bond_atom_site_label_2
_geom_bond_distance
_geom_bond_site_symmetry_2
Lu0 Pt1 3.217769 1_455
Lu0 Pt0 3.217769 1_545
Lu0 Pt1 3.217772 1_445
Lu0 Pt1 3.217772 1_555
Lu0 Pt0 3.217772 1_555
Lu0 Pt0 3.217772 1_445
Lu1 Pt2 3.217769 1_454
Lu1 Pt3 3.217769 1_545
Lu1 Pt2 3.217772 1_444
Lu1 Pt2 3.217772 1_554
Lu1 Pt3 3.217772 1_445
Lu1 Pt3 3.217772 1_555
Lu2 Pt0 3.001777 1_545
Lu2 Pt3 3.001777 1_545
Lu2 Pt3 3.001780 1_445
Lu2 Pt0 3.001780 1_555
Lu2 Pt0 3.001780 1_445
Lu2 Pt3 3.001780 1_555
Lu3 Pt1 3.001777 1_455
Lu3 Pt2 3.001777 1_455
Lu3 Pt2 3.001780 1_445
Lu3 Pt1 3.001780 1_555
Lu3 Pt2 3.001780 1_555
Lu3 Pt1 3.001780 1_445
As0 Pt2 2.474264 1_455
As0 Pt2 2.474264 1_565
As0 Pt2 2.474271 1_555
As0 Lu1 3.002838 1_566
As0 Lu1 3.002841 1_666
As0 Lu1 3.002841 1_556
As0 Lu3 3.216580 1_565
As0 Lu3 3.216583 1_665
As0 Lu3 3.216583 1_555
As1 Pt3 2.474264 1_655
As1 Pt3 2.474264 1_545
As1 Pt3 2.474271 1_555
As1 Lu1 3.002838 1_655
As1 Lu1 3.002841 1_665
As1 Lu1 3.002841 1_555
As1 Lu2 3.216580 1_655
As1 Lu2 3.216583 1_555
As1 Lu2 3.216583 1_665
As2 Pt0 2.474264 1_545
As2 Pt0 2.474264 1_655
As2 Pt0 2.474271 1_555
As2 Lu0 3.002838 1_655
As2 Lu0 3.002841 1_555
As2 Lu0 3.002841 1_665
As2 Lu2 3.216580 1_655
As2 Lu2 3.216583 1_555
As2 Lu2 3.216583 1_665
As3 Pt1 2.474264 1_455
As3 Pt1 2.474264 1_565
As3 Pt1 2.474271 1_555
As3 Lu0 3.002838 1_565
As3 Lu0 3.002841 1_555
As3 Lu0 3.002841 1_665
As3 Lu3 3.216580 1_565
As3 Lu3 3.216583 1_665
As3 Lu3 3.216583 1_555
