# generated using pymatgen
data_ZrSn
_symmetry_space_group_name_H-M   'P 1'
_cell_length_a   6.33275200
_cell_length_b   10.60563200
_cell_length_c   10.94430800
_cell_angle_alpha   90.00000000
_cell_angle_beta   90.00000000
_cell_angle_gamma   90.00000000
_symmetry_Int_Tables_number   1
_chemical_formula_structural   ZrSn
_chemical_formula_sum   'Zr16 Sn16'
_cell_volume   735.05077712
_cell_formula_units_Z   16
loop_
 _symmetry_equiv_pos_site_id
 _symmetry_equiv_pos_as_xyz
  1  'x, y, z'
loop_
 _atom_site_type_symbol
 _atom_site_label
 _atom_site_symmetry_multiplicity
 _atom_site_fract_x
 _atom_site_fract_y
 _atom_site_fract_z
 _atom_site_occupancy
  Zr  Zr0_0  1  0.00000000  0.09490100  0.12500000  1
  Zr  Zr0_1  1  0.00000000  0.09490100  0.62500000  1
  Zr  Zr0_2  1  0.00000000  0.59490100  0.12500000  1
  Zr  Zr0_3  1  0.00000000  0.59490100  0.62500000  1
  Zr  Zr0_4  1  0.50000000  0.09490100  0.12500000  1
  Zr  Zr0_5  1  0.50000000  0.09490100  0.62500000  1
  Zr  Zr0_6  1  0.50000000  0.59490100  0.12500000  1
  Zr  Zr0_7  1  0.50000000  0.59490100  0.62500000  1
  Zr  Zr1_0  1  0.00000000  0.40509900  0.37500000  1
  Zr  Zr1_1  1  0.00000000  0.40509900  0.87500000  1
  Zr  Zr1_2  1  0.00000000  0.90509900  0.37500000  1
  Zr  Zr1_3  1  0.00000000  0.90509900  0.87500000  1
  Zr  Zr1_4  1  0.50000000  0.40509900  0.37500000  1
  Zr  Zr1_5  1  0.50000000  0.40509900  0.87500000  1
  Zr  Zr1_6  1  0.50000000  0.90509900  0.37500000  1
  Zr  Zr1_7  1  0.50000000  0.90509900  0.87500000  1
  Sn  Sn0_0  1  0.25000000  0.34626450  0.12500000  1
  Sn  Sn0_1  1  0.25000000  0.34626450  0.62500000  1
  Sn  Sn0_2  1  0.25000000  0.84626450  0.12500000  1
  Sn  Sn0_3  1  0.25000000  0.84626450  0.62500000  1
  Sn  Sn0_4  1  0.75000000  0.34626450  0.12500000  1
  Sn  Sn0_5  1  0.75000000  0.34626450  0.62500000  1
  Sn  Sn0_6  1  0.75000000  0.84626450  0.12500000  1
  Sn  Sn0_7  1  0.75000000  0.84626450  0.62500000  1
  Sn  Sn1_0  1  0.25000000  0.15373550  0.37500000  1
  Sn  Sn1_1  1  0.25000000  0.15373550  0.87500000  1
  Sn  Sn1_2  1  0.25000000  0.65373550  0.37500000  1
  Sn  Sn1_3  1  0.25000000  0.65373550  0.87500000  1
  Sn  Sn1_4  1  0.75000000  0.15373550  0.37500000  1
  Sn  Sn1_5  1  0.75000000  0.15373550  0.87500000  1
  Sn  Sn1_6  1  0.75000000  0.65373550  0.37500000  1
  Sn  Sn1_7  1  0.75000000  0.65373550  0.87500000  1
loop_
_geom_bond_atom_site_label_1
_geom_bond_atom_site_label_2
_geom_bond_distance
_geom_bond_site_symmetry_2
Zr0_0 Zr0_4 3.166376 1_455
Zr0_0 Zr0_4 3.166376 1_555
Zr0_0 Zr1_2 3.396788 1_545
Zr0_0 Zr1_3 3.396788 1_544
Zr0_1 Zr0_5 3.166376 1_455
Zr0_1 Zr0_5 3.166376 1_555
Zr0_1 Zr1_3 3.396788 1_545
Zr0_1 Zr1_2 3.396788 1_545
Zr0_2 Zr0_6 3.166376 1_555
Zr0_2 Zr0_6 3.166376 1_455
Zr0_2 Zr1_0 3.396788 1_555
Zr0_2 Zr1_1 3.396788 1_554
Zr0_3 Zr0_7 3.166376 1_455
Zr0_3 Zr0_7 3.166376 1_555
Zr0_3 Zr1_1 3.396788 1_555
Zr0_3 Zr1_0 3.396788 1_555
Zr0_4 Zr1_6 3.396788 1_545
Zr0_4 Zr1_7 3.396788 1_544
Zr0_5 Zr1_7 3.396788 1_545
Zr0_5 Zr1_6 3.396788 1_545
Zr0_6 Zr1_4 3.396788 1_555
Zr0_6 Zr1_5 3.396788 1_554
Zr0_7 Zr1_5 3.396788 1_555
Zr0_7 Zr1_4 3.396788 1_555
Zr1_0 Zr1_4 3.166376 1_455
Zr1_0 Zr1_4 3.166376 1_555
Zr1_1 Zr1_5 3.166376 1_555
Zr1_1 Zr1_5 3.166376 1_455
Zr1_2 Zr1_6 3.166376 1_455
Zr1_2 Zr1_6 3.166376 1_555
Zr1_3 Zr1_7 3.166376 1_455
Zr1_3 Zr1_7 3.166376 1_555
Sn0_0 Zr0_2 3.075707 1_555
Sn0_0 Zr0_6 3.075707 1_555
Sn0_0 Zr0_0 3.100539 1_555
Sn0_0 Zr0_4 3.100539 1_555
Sn0_0 Sn0_4 3.166376 1_555
Sn0_0 Sn0_4 3.166376 1_455
Sn0_0 Zr1_0 3.222103 1_555
Sn0_0 Zr1_4 3.222103 1_555
Sn0_0 Zr1_5 3.222103 1_554
Sn0_0 Zr1_1 3.222103 1_554
Sn0_0 Sn1_0 3.414006 1_555
Sn0_0 Sn1_1 3.414006 1_554
Sn0_1 Zr0_7 3.075707 1_555
Sn0_1 Zr0_3 3.075707 1_555
Sn0_1 Zr0_1 3.100539 1_555
Sn0_1 Zr0_5 3.100539 1_555
Sn0_1 Sn0_5 3.166376 1_455
Sn0_1 Sn0_5 3.166376 1_555
Sn0_1 Zr1_1 3.222103 1_555
Sn0_1 Zr1_5 3.222103 1_555
Sn0_1 Zr1_4 3.222103 1_555
Sn0_1 Zr1_0 3.222103 1_555
Sn0_1 Sn1_1 3.414006 1_555
Sn0_1 Sn1_0 3.414006 1_555
Sn0_2 Zr0_0 3.075707 1_565
Sn0_2 Zr0_4 3.075707 1_565
Sn0_2 Zr0_2 3.100539 1_555
Sn0_2 Zr0_6 3.100539 1_555
Sn0_2 Sn0_6 3.166376 1_555
Sn0_2 Sn0_6 3.166376 1_455
Sn0_2 Zr1_2 3.222103 1_555
Sn0_2 Zr1_6 3.222103 1_555
Sn0_2 Zr1_3 3.222103 1_554
Sn0_2 Zr1_7 3.222103 1_554
Sn0_2 Sn1_2 3.414006 1_555
Sn0_2 Sn1_3 3.414006 1_554
Sn0_3 Zr0_1 3.075707 1_565
Sn0_3 Zr0_5 3.075707 1_565
Sn0_3 Zr0_3 3.100539 1_555
Sn0_3 Zr0_7 3.100539 1_555
Sn0_3 Sn0_7 3.166376 1_555
Sn0_3 Sn0_7 3.166376 1_455
Sn0_3 Zr1_3 3.222103 1_555
Sn0_3 Zr1_7 3.222103 1_555
Sn0_3 Zr1_2 3.222103 1_555
Sn0_3 Zr1_6 3.222103 1_555
Sn0_3 Sn1_3 3.414006 1_555
Sn0_3 Sn1_2 3.414006 1_555
Sn0_4 Zr0_6 3.075707 1_555
Sn0_4 Zr0_2 3.075707 1_655
Sn0_4 Zr0_0 3.100539 1_655
Sn0_4 Zr0_4 3.100539 1_555
Sn0_4 Zr1_0 3.222103 1_655
Sn0_4 Zr1_4 3.222103 1_555
Sn0_4 Zr1_5 3.222103 1_554
Sn0_4 Zr1_1 3.222103 1_654
Sn0_4 Sn1_4 3.414006 1_555
Sn0_4 Sn1_5 3.414006 1_554
Sn0_5 Zr0_7 3.075707 1_555
Sn0_5 Zr0_3 3.075707 1_655
Sn0_5 Zr0_5 3.100539 1_555
Sn0_5 Zr0_1 3.100539 1_655
Sn0_5 Zr1_1 3.222103 1_655
Sn0_5 Zr1_5 3.222103 1_555
Sn0_5 Zr1_0 3.222103 1_655
Sn0_5 Zr1_4 3.222103 1_555
Sn0_5 Sn1_5 3.414006 1_555
Sn0_5 Sn1_4 3.414006 1_555
Sn0_6 Zr0_4 3.075707 1_565
Sn0_6 Zr0_0 3.075707 1_665
Sn0_6 Zr0_2 3.100539 1_655
Sn0_6 Zr0_6 3.100539 1_555
Sn0_6 Zr1_6 3.222103 1_555
Sn0_6 Zr1_2 3.222103 1_655
Sn0_6 Zr1_3 3.222103 1_654
Sn0_6 Zr1_7 3.222103 1_554
Sn0_6 Sn1_6 3.414006 1_555
Sn0_6 Sn1_7 3.414006 1_554
Sn0_7 Zr0_1 3.075707 1_665
Sn0_7 Zr0_5 3.075707 1_565
Sn0_7 Zr0_7 3.100539 1_555
Sn0_7 Zr0_3 3.100539 1_655
Sn0_7 Zr1_3 3.222103 1_655
Sn0_7 Zr1_7 3.222103 1_555
Sn0_7 Zr1_2 3.222103 1_655
Sn0_7 Zr1_6 3.222103 1_555
Sn0_7 Sn1_7 3.414006 1_555
Sn0_7 Sn1_6 3.414006 1_555
Sn1_0 Zr1_2 3.075707 1_545
Sn1_0 Zr1_6 3.075707 1_545
Sn1_0 Zr1_0 3.100539 1_555
Sn1_0 Zr1_4 3.100539 1_555
Sn1_0 Sn1_4 3.166376 1_455
Sn1_0 Sn1_4 3.166376 1_555
Sn1_0 Zr0_1 3.222103 1_555
Sn1_0 Zr0_4 3.222103 1_555
Sn1_0 Zr0_5 3.222103 1_555
Sn1_0 Zr0_0 3.222103 1_555
Sn1_1 Zr1_3 3.075707 1_545
Sn1_1 Zr1_7 3.075707 1_545
Sn1_1 Zr1_1 3.100539 1_555
Sn1_1 Zr1_5 3.100539 1_555
Sn1_1 Sn1_5 3.166376 1_555
Sn1_1 Sn1_5 3.166376 1_455
Sn1_1 Zr0_5 3.222103 1_555
Sn1_1 Zr0_1 3.222103 1_555
Sn1_1 Zr0_4 3.222103 1_556
Sn1_1 Zr0_0 3.222103 1_556
Sn1_2 Zr1_4 3.075707 1_555
Sn1_2 Zr1_0 3.075707 1_555
Sn1_2 Zr1_6 3.100539 1_555
Sn1_2 Zr1_2 3.100539 1_555
Sn1_2 Sn1_6 3.166376 1_455
Sn1_2 Sn1_6 3.166376 1_555
Sn1_2 Zr0_6 3.222103 1_555
Sn1_2 Zr0_7 3.222103 1_555
Sn1_2 Zr0_2 3.222103 1_555
Sn1_2 Zr0_3 3.222103 1_555
Sn1_3 Zr1_5 3.075707 1_555
Sn1_3 Zr1_1 3.075707 1_555
Sn1_3 Zr1_7 3.100539 1_555
Sn1_3 Zr1_3 3.100539 1_555
Sn1_3 Sn1_7 3.166376 1_455
Sn1_3 Sn1_7 3.166376 1_555
Sn1_3 Zr0_7 3.222103 1_555
Sn1_3 Zr0_3 3.222103 1_555
Sn1_3 Zr0_2 3.222103 1_556
Sn1_3 Zr0_6 3.222103 1_556
Sn1_4 Zr1_6 3.075707 1_545
Sn1_4 Zr1_2 3.075707 1_645
Sn1_4 Zr1_4 3.100539 1_555
Sn1_4 Zr1_0 3.100539 1_655
Sn1_4 Zr0_0 3.222103 1_655
Sn1_4 Zr0_4 3.222103 1_555
Sn1_4 Zr0_5 3.222103 1_555
Sn1_4 Zr0_1 3.222103 1_655
Sn1_5 Zr1_7 3.075707 1_545
Sn1_5 Zr1_3 3.075707 1_645
Sn1_5 Zr1_5 3.100539 1_555
Sn1_5 Zr1_1 3.100539 1_655
Sn1_5 Zr0_5 3.222103 1_555
Sn1_5 Zr0_1 3.222103 1_655
Sn1_5 Zr0_4 3.222103 1_556
Sn1_5 Zr0_0 3.222103 1_656
Sn1_6 Zr1_0 3.075707 1_655
Sn1_6 Zr1_4 3.075707 1_555
Sn1_6 Zr1_6 3.100539 1_555
Sn1_6 Zr1_2 3.100539 1_655
Sn1_6 Zr0_2 3.222103 1_655
Sn1_6 Zr0_6 3.222103 1_555
Sn1_6 Zr0_7 3.222103 1_555
Sn1_6 Zr0_3 3.222103 1_655
Sn1_7 Zr1_1 3.075707 1_655
Sn1_7 Zr1_5 3.075707 1_555
Sn1_7 Zr1_7 3.100539 1_555
Sn1_7 Zr1_3 3.100539 1_655
Sn1_7 Zr0_7 3.222103 1_555
Sn1_7 Zr0_3 3.222103 1_655
Sn1_7 Zr0_6 3.222103 1_556
Sn1_7 Zr0_2 3.222103 1_656
