# generated using pymatgen
data_Mg2MnIrO6
_symmetry_space_group_name_H-M   'P 1'
_cell_length_a   5.09779231
_cell_length_b   5.28203500
_cell_length_c   7.67970233
_cell_angle_alpha   90.00000000
_cell_angle_beta   90.77732334
_cell_angle_gamma   90.00000000
_symmetry_Int_Tables_number   1
_chemical_formula_structural   Mg2MnIrO6
_chemical_formula_sum   'Mg4 Mn2 Ir2 O12'
_cell_volume   206.77014388
_cell_formula_units_Z   2
loop_
 _symmetry_equiv_pos_site_id
 _symmetry_equiv_pos_as_xyz
  1  'x, y, z'
loop_
 _atom_site_type_symbol
 _atom_site_label
 _atom_site_symmetry_multiplicity
 _atom_site_fract_x
 _atom_site_fract_y
 _atom_site_fract_z
 _atom_site_occupancy
  Mg  Mg0  1  0.01335400  0.94116600  0.24920400  1
  Mg  Mg1  1  0.48664600  0.44116600  0.25079600  1
  Mg  Mg2  1  0.51335400  0.55883400  0.74920400  1
  Mg  Mg3  1  0.98664600  0.05883400  0.75079600  1
  Mn  Mn0  1  0.00000000  0.50000000  0.00000000  1
  Mn  Mn1  1  0.50000000  0.00000000  0.50000000  1
  Ir  Ir0  1  0.00000000  0.50000000  0.50000000  1
  Ir  Ir1  1  0.50000000  0.00000000  0.00000000  1
  O  O0  1  0.13682600  0.42600100  0.73963300  1
  O  O1  1  0.18188300  0.18775900  0.07114700  1
  O  O2  1  0.18047800  0.18577900  0.42661700  1
  O  O3  1  0.31952200  0.68577900  0.07338300  1
  O  O4  1  0.31811700  0.68775900  0.42885300  1
  O  O5  1  0.36317400  0.92600100  0.76036700  1
  O  O6  1  0.63682600  0.07399900  0.23963300  1
  O  O7  1  0.68188300  0.31224100  0.57114700  1
  O  O8  1  0.68047800  0.31422100  0.92661700  1
  O  O9  1  0.81811700  0.81224100  0.92885300  1
  O  O10  1  0.81952200  0.81422100  0.57338300  1
  O  O11  1  0.86317400  0.57399900  0.26036700  1
loop_
_geom_bond_atom_site_label_1
_geom_bond_atom_site_label_2
_geom_bond_distance
_geom_bond_site_symmetry_2
Mg0 O6 2.044062 1_465
Mg0 O2 2.054288 1_565
Mg0 O1 2.082394 1_565
Mg0 O11 2.087219 1_455
Mg0 O4 2.459797 1_555
Mg0 O3 2.477116 1_555
Mg1 O11 2.044062 1_555
Mg1 O3 2.054288 1_555
Mg1 O4 2.082394 1_555
Mg1 O6 2.087219 1_555
Mg1 O1 2.459797 1_555
Mg1 O2 2.477116 1_555
Mg2 O0 2.044062 1_555
Mg2 O8 2.054288 1_555
Mg2 O7 2.082394 1_555
Mg2 O5 2.087219 1_555
Mg2 O9 2.459797 1_555
Mg2 O10 2.477116 1_555
Mg3 O5 2.044062 1_645
Mg3 O10 2.054288 1_545
Mg3 O9 2.082394 1_545
Mg3 O0 2.087219 1_655
Mg3 O7 2.459797 1_555
Mg3 O8 2.477116 1_555
Mn0 O9 1.965854 1_454
Mn0 O1 1.965854 1_555
Mn0 O8 1.977068 1_454
Mn0 O3 1.977068 1_555
Mn0 O0 2.162245 1_554
Mn0 O11 2.162245 1_455
Mn1 O7 1.965854 1_555
Mn1 O4 1.965854 1_545
Mn1 O10 1.977068 1_545
Mn1 O2 1.977068 1_555
Mn1 O6 2.162245 1_555
Mn1 O5 2.162245 1_545
Ir0 O2 1.983137 1_555
Ir0 O10 1.983137 1_455
Ir0 O7 1.983946 1_455
Ir0 O4 1.983946 1_555
Ir0 O0 1.997801 1_555
Ir0 O11 1.997801 1_455
Ir1 O3 1.983137 1_545
Ir1 O8 1.983137 1_554
Ir1 O1 1.983946 1_555
Ir1 O9 1.983946 1_544
Ir1 O5 1.997801 1_544
Ir1 O6 1.997801 1_555
