# generated using pymatgen
data_K2CeAgF6
_symmetry_space_group_name_H-M   'P 1'
_cell_length_a   6.67766721
_cell_length_b   6.67766738
_cell_length_c   6.67766737
_cell_angle_alpha   59.99999931
_cell_angle_beta   59.99999908
_cell_angle_gamma   59.99999912
_symmetry_Int_Tables_number   1
_chemical_formula_structural   K2CeAgF6
_chemical_formula_sum   'K2 Ce1 Ag1 F6'
_cell_volume   210.55198023
_cell_formula_units_Z   1
loop_
 _symmetry_equiv_pos_site_id
 _symmetry_equiv_pos_as_xyz
  1  'x, y, z'
loop_
 _atom_site_type_symbol
 _atom_site_label
 _atom_site_symmetry_multiplicity
 _atom_site_fract_x
 _atom_site_fract_y
 _atom_site_fract_z
 _atom_site_occupancy
  K  K0  1  0.25000000  0.25000000  0.25000000  1
  K  K1  1  0.75000000  0.75000000  0.75000000  1
  Ce  Ce0  1  0.50000000  0.50000000  0.50000000  1
  Ag  Ag0  1  0.00000000  0.00000000  0.00000000  1
  F  F0  1  0.25926409  0.74073591  0.25926409  1
  F  F1  1  0.74073591  0.74073591  0.25926409  1
  F  F2  1  0.74073591  0.25926409  0.74073591  1
  F  F3  1  0.74073591  0.25926409  0.25926409  1
  F  F4  1  0.25926409  0.74073591  0.74073591  1
  F  F5  1  0.25926409  0.25926409  0.74073591  1
loop_
_geom_bond_atom_site_label_1
_geom_bond_atom_site_label_2
_geom_bond_distance
_geom_bond_site_symmetry_2
Ce0 F5 2.273425 1_555
Ce0 F1 2.273425 1_555
Ce0 F0 2.273425 1_555
Ce0 F2 2.273425 1_555
Ce0 F3 2.273425 1_555
Ce0 F4 2.273425 1_555
Ag0 F1 2.448399 1_445
Ag0 F5 2.448399 1_554
Ag0 F2 2.448399 1_454
Ag0 F0 2.448399 1_545
Ag0 F4 2.448399 1_544
Ag0 F3 2.448399 1_455
F0 K1 3.339980 1_455
F0 K1 3.339980 1_554
F0 K0 3.339980 1_565
F0 K0 3.339980 1_555
F1 K0 3.339980 1_655
F1 K0 3.339980 1_565
F1 K1 3.339980 1_554
F1 K1 3.339980 1_555
F2 K0 3.339980 1_655
F2 K0 3.339980 1_556
F2 K1 3.339980 1_545
F2 K1 3.339980 1_555
F3 K0 3.339980 1_655
F3 K0 3.339980 1_555
F3 K1 3.339980 1_554
F3 K1 3.339980 1_545
F4 K1 3.339980 1_455
F4 K1 3.339980 1_555
F4 K0 3.339980 1_556
F4 K0 3.339980 1_565
F5 K1 3.339980 1_455
F5 K1 3.339980 1_545
F5 K0 3.339980 1_556
F5 K0 3.339980 1_555
