# generated using pymatgen
data_Mg2Co12P7
_symmetry_space_group_name_H-M   'P 1'
_cell_length_a   8.96811353
_cell_length_b   8.96811353
_cell_length_c   3.46778600
_cell_angle_alpha   90.00000000
_cell_angle_beta   90.00000000
_cell_angle_gamma   119.99999650
_symmetry_Int_Tables_number   1
_chemical_formula_structural   Mg2Co12P7
_chemical_formula_sum   'Mg2 Co12 P7'
_cell_volume   241.53781346
_cell_formula_units_Z   1
loop_
 _symmetry_equiv_pos_site_id
 _symmetry_equiv_pos_as_xyz
  1  'x, y, z'
loop_
 _atom_site_type_symbol
 _atom_site_label
 _atom_site_symmetry_multiplicity
 _atom_site_fract_x
 _atom_site_fract_y
 _atom_site_fract_z
 _atom_site_occupancy
  Mg  Mg0  1  0.00000000  0.00000000  0.00000000  1
  Mg  Mg1  1  0.33333300  0.66666700  0.50000000  1
  Co  Co0  1  0.04862800  0.77548000  0.50000000  1
  Co  Co1  1  0.72685300  0.95137200  0.50000000  1
  Co  Co2  1  0.90599300  0.43881800  0.50000000  1
  Co  Co3  1  0.53282500  0.09400700  0.50000000  1
  Co  Co4  1  0.56118200  0.46717500  0.50000000  1
  Co  Co5  1  0.39221800  0.21196000  0.00000000  1
  Co  Co6  1  0.78804000  0.18025800  0.00000000  1
  Co  Co7  1  0.81974200  0.60778200  0.00000000  1
  Co  Co8  1  0.60032600  0.71008400  0.00000000  1
  Co  Co9  1  0.28991600  0.89024100  0.00000000  1
  Co  Co10  1  0.10975900  0.39967400  0.00000000  1
  Co  Co11  1  0.22452000  0.27314700  0.50000000  1
  P  P0  1  0.26121600  0.04100900  0.50000000  1
  P  P1  1  0.95899100  0.22020700  0.50000000  1
  P  P2  1  0.77979300  0.73878400  0.50000000  1
  P  P3  1  0.37632600  0.44894800  0.00000000  1
  P  P4  1  0.55105200  0.92737800  0.00000000  1
  P  P5  1  0.07262200  0.62367400  0.00000000  1
  P  P6  1  0.66666700  0.33333300  0.00000000  1
loop_
_geom_bond_atom_site_label_1
_geom_bond_atom_site_label_2
_geom_bond_distance
_geom_bond_site_symmetry_2
Mg0 P1 2.787101 1_454
Mg0 P1 2.787101 1_455
Mg0 P0 2.787102 1_554
Mg0 P0 2.787102 1_555
Mg0 P2 2.787102 1_444
Mg0 P2 2.787102 1_445
Mg1 P5 2.778526 1_555
Mg1 P5 2.778526 1_556
Mg1 P4 2.778528 1_556
Mg1 P4 2.778528 1_555
Mg1 P3 2.778533 1_556
Mg1 P3 2.778533 1_555
Co0 P0 2.182977 1_565
Co0 P2 2.264403 1_455
Co0 P5 2.280150 1_556
Co0 P5 2.280150 1_555
Co0 Mg0 2.851129 1_565
Co0 Mg0 2.851129 1_566
Co1 P2 2.182971 1_555
Co1 P1 2.264400 1_565
Co1 P4 2.280156 1_556
Co1 P4 2.280156 1_555
Co1 Mg0 2.851122 1_666
Co1 Mg0 2.851122 1_665
Co2 P1 2.236380 1_555
Co2 P5 2.347435 1_656
Co2 P5 2.347435 1_655
Co2 P6 2.545096 1_556
Co2 P6 2.545096 1_555
Co3 P0 2.236380 1_555
Co3 P4 2.347435 1_546
Co3 P4 2.347435 1_545
Co3 P6 2.545096 1_555
Co3 P6 2.545096 1_556
Co4 P2 2.236380 1_555
Co4 P3 2.347435 1_555
Co4 P3 2.347435 1_556
Co4 P6 2.545102 1_556
Co4 P6 2.545102 1_555
Co5 P6 2.136275 1_555
Co5 P3 2.200061 1_555
Co5 P0 2.221688 1_554
Co5 P0 2.221688 1_555
Co6 P6 2.136267 1_555
Co6 P4 2.200061 1_545
Co6 P1 2.221688 1_555
Co6 P1 2.221688 1_554
Co7 P6 2.136274 1_555
Co7 P5 2.200061 1_655
Co7 P2 2.221688 1_554
Co7 P2 2.221688 1_555
Co8 P3 2.194414 1_555
Co8 P4 2.203156 1_555
Co8 P2 2.291027 1_555
Co8 P2 2.291027 1_554
Co8 Mg1 2.821160 1_554
Co8 Mg1 2.821160 1_555
Co9 P4 2.194411 1_555
Co9 P5 2.203151 1_555
Co9 P0 2.291032 1_564
Co9 P0 2.291032 1_565
Co9 Mg1 2.821146 1_554
Co9 Mg1 2.821146 1_555
Co10 P5 2.194420 1_555
Co10 P3 2.203148 1_555
Co10 P1 2.291029 1_454
Co10 P1 2.291029 1_455
Co10 Mg1 2.821155 1_555
Co10 Mg1 2.821155 1_554
Co11 P1 2.182979 1_455
Co11 P0 2.264394 1_555
Co11 P3 2.280154 1_556
Co11 P3 2.280154 1_555
Co11 Mg0 2.851124 1_555
Co11 Mg0 2.851124 1_556
