# generated using pymatgen
data_CeIn2Rh
_symmetry_space_group_name_H-M   'P 1'
_cell_length_a   5.49536674
_cell_length_b   5.49536674
_cell_length_c   8.21318700
_cell_angle_alpha   90.00000000
_cell_angle_beta   90.00000000
_cell_angle_gamma   132.55184068
_symmetry_Int_Tables_number   1
_chemical_formula_structural   CeIn2Rh
_chemical_formula_sum   'Ce2 In4 Rh2'
_cell_volume   182.71557164
_cell_formula_units_Z   2
loop_
 _symmetry_equiv_pos_site_id
 _symmetry_equiv_pos_as_xyz
  1  'x, y, z'
loop_
 _atom_site_type_symbol
 _atom_site_label
 _atom_site_symmetry_multiplicity
 _atom_site_fract_x
 _atom_site_fract_y
 _atom_site_fract_z
 _atom_site_occupancy
  Ce  Ce0  1  0.06584000  0.93416000  0.25000000  1
  Ce  Ce1  1  0.93416000  0.06584000  0.75000000  1
  In  In0  1  0.35663200  0.64336800  0.05026200  1
  In  In1  1  0.64336800  0.35663200  0.94973800  1
  In  In2  1  0.64336800  0.35663200  0.55026200  1
  In  In3  1  0.35663200  0.64336800  0.44973800  1
  Rh  Rh0  1  0.78614700  0.21385300  0.25000000  1
  Rh  Rh1  1  0.21385300  0.78614700  0.75000000  1
loop_
_geom_bond_atom_site_label_1
_geom_bond_atom_site_label_2
_geom_bond_distance
_geom_bond_site_symmetry_2
Ce0 Rh0 2.814256 1_465
Ce0 Rh0 3.130847 1_565
Ce0 Rh0 3.130847 1_455
Ce0 In3 3.354442 1_555
Ce0 In0 3.354442 1_555
Ce0 In2 3.402732 1_565
Ce0 In1 3.402732 1_564
Ce0 In1 3.402732 1_454
Ce0 In2 3.402732 1_455
Ce0 In3 3.465653 1_565
Ce0 In3 3.465653 1_455
Ce0 In0 3.465653 1_565
Ce0 In0 3.465653 1_455
Ce1 Rh1 2.814256 1_645
Ce1 Rh1 3.130847 1_655
Ce1 Rh1 3.130847 1_545
Ce1 In1 3.354442 1_555
Ce1 In2 3.354442 1_555
Ce1 In0 3.402732 1_656
Ce1 In0 3.402732 1_546
Ce1 In3 3.402732 1_655
Ce1 In3 3.402732 1_545
Ce1 In2 3.465653 1_655
Ce1 In1 3.465653 1_655
Ce1 In1 3.465653 1_545
Ce1 In2 3.465653 1_545
In0 Rh0 2.842982 1_455
In0 Rh0 2.842982 1_565
In0 Rh1 2.854051 1_554
In1 Rh1 2.842982 1_655
In1 Rh1 2.842982 1_545
In1 Rh0 2.854051 1_556
In2 Rh1 2.842982 1_655
In2 Rh1 2.842982 1_545
In2 Rh0 2.854051 1_555
In3 Rh0 2.842982 1_455
In3 Rh0 2.842982 1_565
In3 Rh1 2.854051 1_555
