# generated using pymatgen
data_RbZnP2O9
_symmetry_space_group_name_H-M   'P 1'
_cell_length_a   7.23189800
_cell_length_b   7.71111829
_cell_length_c   7.95900186
_cell_angle_alpha   86.94312324
_cell_angle_beta   113.25013251
_cell_angle_gamma   100.96135543
_symmetry_Int_Tables_number   1
_chemical_formula_structural   RbZnP2O9
_chemical_formula_sum   'Rb2 Zn2 P4 O18'
_cell_volume   400.24138505
_cell_formula_units_Z   2
loop_
 _symmetry_equiv_pos_site_id
 _symmetry_equiv_pos_as_xyz
  1  'x, y, z'
loop_
 _atom_site_type_symbol
 _atom_site_label
 _atom_site_symmetry_multiplicity
 _atom_site_fract_x
 _atom_site_fract_y
 _atom_site_fract_z
 _atom_site_occupancy
  Rb  Rb0  1  0.77985500  0.16171500  0.28625600  1
  Rb  Rb1  1  0.22014500  0.83828500  0.71374400  1
  Zn  Zn0  1  0.24660300  0.26605600  0.03862100  1
  Zn  Zn1  1  0.75339700  0.73394400  0.96137900  1
  P  P0  1  0.54632500  0.61414000  0.24700300  1
  P  P1  1  0.45367500  0.38586000  0.75299700  1
  P  P2  1  0.18037900  0.89989200  0.21339700  1
  P  P3  1  0.81962100  0.10010800  0.78660300  1
  O  O0  1  0.35728100  0.46904900  0.21794200  1
  O  O1  1  0.64271900  0.53095100  0.78205800  1
  O  O2  1  0.95072200  0.23611300  0.94348500  1
  O  O3  1  0.04927800  0.76388700  0.05651500  1
  O  O4  1  0.45535000  0.30040700  0.93137600  1
  O  O5  1  0.54465000  0.69959300  0.06862400  1
  O  O6  1  0.32358900  0.04094900  0.15707500  1
  O  O7  1  0.67641100  0.95905100  0.84292500  1
  O  O8  1  0.75441100  0.56231400  0.35815100  1
  O  O9  1  0.24558900  0.43768600  0.64184900  1
  O  O10  1  0.54065400  0.77028200  0.38098000  1
  O  O11  1  0.45934600  0.22971800  0.61902000  1
  O  O12  1  0.34363800  0.78613000  0.38392600  1
  O  O13  1  0.65636200  0.21387000  0.61607400  1
  O  O14  1  0.07166500  0.95431300  0.32207400  1
  O  O15  1  0.92833500  0.04568700  0.67792600  1
  O  O16  1  0.16514000  0.51110400  0.36141900  1
  O  O17  1  0.83486000  0.48889600  0.63858100  1
loop_
_geom_bond_atom_site_label_1
_geom_bond_atom_site_label_2
_geom_bond_distance
_geom_bond_site_symmetry_2
O0 P0 1.539673 1_555
O0 Zn0 1.996922 1_555
O1 P1 1.539673 1_555
O1 Zn1 1.996922 1_555
O2 P3 1.544264 1_555
O2 Zn0 1.938277 1_656
O2 Rb0 3.394646 1_556
O3 P2 1.544264 1_555
O3 Zn1 1.938277 1_454
O3 Rb1 3.394646 1_554
O4 P1 1.529585 1_555
O4 Zn0 1.979613 1_556
O4 Rb0 3.166716 1_556
O5 P0 1.529585 1_555
O5 Zn1 1.979613 1_554
O5 Rb1 3.166716 1_554
O6 P2 1.530622 1_545
O6 Zn0 1.997619 1_555
O6 Rb0 3.011192 1_555
O7 P3 1.530622 1_565
O7 Zn1 1.997619 1_555
O7 Rb1 3.011192 1_555
O8 P0 1.531949 1_555
O8 Rb0 3.223574 1_555
O9 P1 1.531949 1_555
O9 Rb1 3.223574 1_555
O10 P0 1.666929 1_555
O10 Rb0 3.387146 1_565
O11 P1 1.666929 1_555
O11 Rb1 3.387146 1_545
O12 P2 1.734184 1_555
O12 Rb1 3.154386 1_555
O13 P3 1.734184 1_555
O13 Rb0 3.154386 1_555
O14 P2 1.497816 1_555
O14 Rb0 2.802231 1_465
O14 Rb1 3.016007 1_555
O15 P3 1.497816 1_555
O15 Rb1 2.802231 1_645
O15 Rb0 3.016007 1_555
O16 Rb0 3.373615 1_455
O17 Rb1 3.373615 1_655
