# generated using pymatgen
data_GdSi3Ni8
_symmetry_space_group_name_H-M   'P 1'
_cell_length_a   7.47269419
_cell_length_b   7.47268952
_cell_length_c   7.42912477
_cell_angle_alpha   80.32998824
_cell_angle_beta   80.33008624
_cell_angle_gamma   130.47294209
_symmetry_Int_Tables_number   1
_chemical_formula_structural   GdSi3Ni8
_chemical_formula_sum   'Gd2 Si6 Ni16'
_cell_volume   289.09652096
_cell_formula_units_Z   2
loop_
 _symmetry_equiv_pos_site_id
 _symmetry_equiv_pos_as_xyz
  1  'x, y, z'
loop_
 _atom_site_type_symbol
 _atom_site_label
 _atom_site_symmetry_multiplicity
 _atom_site_fract_x
 _atom_site_fract_y
 _atom_site_fract_z
 _atom_site_occupancy
  Gd  Gd0  1  0.36793728  0.63205971  0.74999874  1
  Gd  Gd1  1  0.63206623  0.36793714  0.24999814  1
  Si  Si0  1  0.81639611  0.72401574  0.82492368  1
  Si  Si1  1  0.27598629  0.18360512  0.67507609  1
  Si  Si2  1  0.18362485  0.27599222  0.17507396  1
  Si  Si3  1  0.72400733  0.81637206  0.32492513  1
  Si  Si4  1  0.00001385  0.50002057  0.49999760  1
  Si  Si5  1  0.49997774  -0.00001607  0.00000294  1
  Ni  Ni0  1  0.13950153  0.80379481  0.92068411  1
  Ni  Ni1  1  0.19620435  0.86049786  0.57931496  1
  Ni  Ni2  1  0.86048138  0.19617646  0.07934051  1
  Ni  Ni3  1  0.80382120  0.13951484  0.42066070  1
  Ni  Ni4  1  0.85000511  0.43150094  0.82899084  1
  Ni  Ni5  1  0.56850048  0.14999537  0.67100922  1
  Ni  Ni6  1  0.14999259  0.56845805  0.17103458  1
  Ni  Ni7  1  0.43154185  0.85000615  0.32896762  1
  Ni  Ni8  1  0.71233725  0.56158309  0.56985990  1
  Ni  Ni9  1  0.43841886  0.28766549  0.93014034  1
  Ni  Ni10  1  0.28761020  0.43841451  0.43013640  1
  Ni  Ni11  1  0.56158795  0.71238854  0.06986410  1
  Ni  Ni12  1  0.87773160  0.12227090  0.74999965  1
  Ni  Ni13  1  0.12226461  0.87773611  0.25000018  1
  Ni  Ni14  1  0.99999037  -0.00000008  0.50000005  1
  Ni  Ni15  1  0.00000097  0.00001048  0.00000056  1
loop_
_geom_bond_atom_site_label_1
_geom_bond_atom_site_label_2
_geom_bond_distance
_geom_bond_site_symmetry_2
Gd0 Ni10 2.933911 1_555
Gd0 Ni11 2.933951 1_556
Gd0 Ni1 2.971894 1_555
Gd0 Ni0 2.971901 1_555
Gd0 Ni4 2.996915 1_455
Gd0 Ni5 2.996925 1_565
Gd0 Ni3 3.024363 1_565
Gd0 Ni2 3.024378 1_456
Gd0 Ni7 3.073495 1_555
Gd0 Ni6 3.073533 1_556
Gd0 Ni9 3.087225 1_555
Gd0 Ni8 3.087230 1_555
Gd0 Si1 3.126996 1_555
Gd0 Si0 3.127018 1_555
Gd0 Ni12 3.132917 1_455
Gd0 Ni12 3.132957 1_565
Gd0 Si2 3.147674 1_556
Gd0 Si3 3.147676 1_555
Gd0 Si4 3.285057 1_555
Gd0 Si5 3.285077 1_566
Gd0 Ni15 3.434554 1_556
Gd0 Ni14 3.434571 1_565
Gd1 Ni9 2.933878 1_554
Gd1 Ni8 2.933901 1_555
Gd1 Ni2 2.971865 1_555
Gd1 Ni3 2.971882 1_555
Gd1 Ni6 2.997001 1_655
Gd1 Ni7 2.997016 1_545
Gd1 Ni0 3.024203 1_654
Gd1 Ni1 3.024227 1_545
Gd1 Ni4 3.073432 1_554
Gd1 Ni5 3.073456 1_555
Gd1 Ni11 3.087560 1_555
Gd1 Ni10 3.087598 1_555
Gd1 Si3 3.126901 1_555
Gd1 Si2 3.126927 1_555
Gd1 Ni13 3.132940 1_655
Gd1 Ni13 3.132944 1_545
Gd1 Si0 3.147666 1_554
Gd1 Si1 3.147689 1_555
Gd1 Si4 3.285132 1_655
Gd1 Si5 3.285133 1_555
Gd1 Ni15 3.434688 1_665
Gd1 Ni14 3.434709 1_455
Si0 Si1 2.635984 1_665
Si2 Si3 2.636152 1_445
Ni0 Si5 2.334417 1_566
Ni0 Si0 2.354164 1_455
Ni0 Ni15 2.377389 1_566
Ni0 Ni6 2.384771 1_556
Ni0 Ni1 2.415713 1_555
Ni0 Ni5 2.456464 1_565
Ni0 Ni4 2.490470 1_455
Ni0 Si1 2.510411 1_565
Ni0 Ni13 2.597704 1_556
Ni0 Ni9 2.778776 1_565
Ni1 Si4 2.334415 1_555
Ni1 Si1 2.354171 1_565
Ni1 Ni14 2.377383 1_465
Ni1 Ni7 2.384766 1_555
Ni1 Ni4 2.456457 1_455
Ni1 Ni5 2.490487 1_565
Ni1 Si0 2.510415 1_455
Ni1 Ni13 2.597689 1_555
Ni1 Ni8 2.778754 1_455
Ni2 Si5 2.334653 1_555
Ni2 Si2 2.354220 1_655
Ni2 Ni4 2.384639 1_554
Ni2 Ni3 2.415424 1_555
Ni2 Ni7 2.456100 1_545
Ni2 Ni6 2.490440 1_655
Ni2 Si3 2.510333 1_545
Ni3 Si4 2.334662 1_655
Ni3 Si3 2.354228 1_545
Ni3 Ni5 2.384639 1_555
Ni3 Ni6 2.456109 1_655
Ni3 Ni7 2.490422 1_545
Ni3 Si2 2.510328 1_655
Ni4 Si4 2.325204 1_655
Ni4 Si5 2.326304 1_556
Ni4 Si0 2.352672 1_555
Ni4 Ni9 2.416670 1_555
Ni4 Ni5 2.478305 1_555
Ni4 Ni8 2.654082 1_555
Ni5 Si5 2.325203 1_556
Ni5 Si4 2.326288 1_655
Ni5 Si1 2.352673 1_555
Ni5 Ni8 2.416673 1_555
Ni5 Ni9 2.654096 1_555
Ni6 Si4 2.325123 1_555
Ni6 Si5 2.326318 1_565
Ni6 Si2 2.352457 1_555
Ni6 Ni7 2.478277 1_555
Ni7 Si5 2.325136 1_565
Ni7 Si4 2.326327 1_555
Ni7 Si3 2.352462 1_555
Ni8 Si3 2.347559 1_555
Ni8 Si1 2.380557 1_555
Ni8 Si0 2.389779 1_555
Ni8 Si4 2.468102 1_655
Ni8 Ni9 2.534453 1_555
Ni9 Si2 2.347567 1_556
Ni9 Si0 2.380552 1_555
Ni9 Si1 2.389783 1_555
Ni9 Si5 2.468114 1_556
Ni10 Si1 2.347897 1_555
Ni10 Ni14 2.352649 1_455
Ni10 Si3 2.380712 1_555
Ni10 Si2 2.389666 1_555
Ni10 Ni7 2.416396 1_555
Ni10 Si4 2.467784 1_555
Ni10 Ni11 2.534498 1_555
Ni10 Ni12 2.623871 1_455
Ni10 Ni6 2.653501 1_555
Ni10 Ni3 2.778359 1_455
Ni11 Si0 2.347882 1_554
Ni11 Ni15 2.352641 1_665
Ni11 Si2 2.380719 1_555
Ni11 Si3 2.389645 1_555
Ni11 Ni6 2.416429 1_555
Ni11 Si5 2.467799 1_565
Ni11 Ni12 2.623886 1_564
Ni11 Ni7 2.653522 1_555
Ni11 Ni2 2.778355 1_565
Ni12 Ni14 2.490523 1_555
Ni12 Ni15 2.490525 1_656
Ni12 Si4 2.563744 1_655
Ni12 Si5 2.563759 1_556
Ni12 Ni3 2.597776 1_555
Ni12 Ni2 2.597777 1_556
Ni12 Ni5 2.600623 1_555
Ni12 Ni4 2.600626 1_555
Ni12 Si0 2.638887 1_545
Ni12 Si1 2.638892 1_655
Ni13 Ni15 2.490537 1_565
Ni13 Ni14 2.490541 1_465
Ni13 Si4 2.563650 1_555
Ni13 Si5 2.563650 1_565
Ni13 Ni6 2.600915 1_555
Ni13 Ni7 2.600924 1_555
Ni13 Ni8 2.624012 1_455
Ni13 Ni9 2.624017 1_564
Ni13 Si3 2.638778 1_455
Ni13 Si2 2.638784 1_565
Ni14 Si2 2.346113 1_655
Ni14 Si0 2.346127 1_545
Ni14 Ni8 2.352659 1_545
Ni14 Ni3 2.377194 1_555
Ni14 Si3 2.377985 1_545
Ni14 Si1 2.378030 1_655
Ni15 Si3 2.346105 1_445
Ni15 Si1 2.346136 1_554
Ni15 Ni9 2.352667 1_554
Ni15 Ni2 2.377201 1_455
Ni15 Si2 2.377967 1_555
Ni15 Si0 2.378029 1_444
