# generated using pymatgen
data_ZnNi4O5
_symmetry_space_group_name_H-M   'P 1'
_cell_length_a   12.37434083
_cell_length_b   12.37434083
_cell_length_c   12.37434099
_cell_angle_alpha   13.93826728
_cell_angle_beta   13.93826728
_cell_angle_gamma   13.93826763
_symmetry_Int_Tables_number   1
_chemical_formula_structural   ZnNi4O5
_chemical_formula_sum   'Zn1 Ni4 O5'
_cell_volume   95.68006569
_cell_formula_units_Z   1
loop_
 _symmetry_equiv_pos_site_id
 _symmetry_equiv_pos_as_xyz
  1  'x, y, z'
loop_
 _atom_site_type_symbol
 _atom_site_label
 _atom_site_symmetry_multiplicity
 _atom_site_fract_x
 _atom_site_fract_y
 _atom_site_fract_z
 _atom_site_occupancy
  Zn  Zn0  1  0.00000000  0.00000000  0.00000000  1
  Ni  Ni0  1  0.59977600  0.59977600  0.59977600  1
  Ni  Ni1  1  0.20000100  0.20000100  0.20000100  1
  Ni  Ni2  1  0.79999900  0.79999900  0.79999900  1
  Ni  Ni3  1  0.40022400  0.40022400  0.40022400  1
  O  O0  1  0.70075100  0.70075100  0.70075100  1
  O  O1  1  0.10002100  0.10002100  0.10002100  1
  O  O2  1  0.50000000  0.50000000  0.50000000  1
  O  O3  1  0.29924900  0.29924900  0.29924900  1
  O  O4  1  0.89997900  0.89997900  0.89997900  1
loop_
_geom_bond_atom_site_label_1
_geom_bond_atom_site_label_2
_geom_bond_distance
_geom_bond_site_symmetry_2
Ni0 O3 2.111833 1_655
Ni0 O3 2.111833 1_565
Ni0 O3 2.111833 1_556
Ni0 O4 2.118656 1_545
Ni0 O4 2.118656 1_455
Ni0 O4 2.118656 1_554
Ni1 O4 2.122487 1_454
Ni1 O4 2.122487 1_544
Ni1 O4 2.122487 1_445
Ni1 O2 2.122975 1_455
Ni1 O2 2.122975 1_545
Ni1 O2 2.122975 1_554
Ni2 O1 2.122487 1_656
Ni2 O1 2.122487 1_566
Ni2 O1 2.122487 1_665
Ni2 O2 2.122975 1_565
Ni2 O2 2.122975 1_655
Ni2 O2 2.122975 1_556
Ni3 O0 2.111833 1_545
Ni3 O0 2.111833 1_455
Ni3 O0 2.111833 1_554
Ni3 O1 2.118656 1_565
Ni3 O1 2.118656 1_655
Ni3 O1 2.118656 1_556
O0 Zn0 2.139004 1_656
O0 Zn0 2.139004 1_566
O0 Zn0 2.139004 1_665
O3 Zn0 2.139004 1_565
O3 Zn0 2.139004 1_655
O3 Zn0 2.139004 1_556
