# generated using pymatgen
data_CeMgSe3
_symmetry_space_group_name_H-M   'P 1'
_cell_length_a   7.13036800
_cell_length_b   7.13036765
_cell_length_c   18.92745600
_cell_angle_alpha   90.00000000
_cell_angle_beta   90.00000000
_cell_angle_gamma   120.00000038
_symmetry_Int_Tables_number   1
_chemical_formula_structural   CeMgSe3
_chemical_formula_sum   'Ce6 Mg6 Se18'
_cell_volume   833.38704095
_cell_formula_units_Z   6
loop_
 _symmetry_equiv_pos_site_id
 _symmetry_equiv_pos_as_xyz
  1  'x, y, z'
loop_
 _atom_site_type_symbol
 _atom_site_label
 _atom_site_symmetry_multiplicity
 _atom_site_fract_x
 _atom_site_fract_y
 _atom_site_fract_z
 _atom_site_occupancy
  Ce  Ce0  1  0.00000000  0.00000000  0.34424100  1
  Ce  Ce1  1  0.00000000  0.00000000  0.65575900  1
  Ce  Ce2  1  0.66666700  0.33333300  0.67757400  1
  Ce  Ce3  1  0.66666700  0.33333300  0.98909200  1
  Ce  Ce4  1  0.33333300  0.66666700  0.01090800  1
  Ce  Ce5  1  0.33333300  0.66666700  0.32242600  1
  Mg  Mg0  1  0.00000000  0.00000000  0.15340600  1
  Mg  Mg1  1  0.00000000  0.00000000  0.84659400  1
  Mg  Mg2  1  0.66666700  0.33333300  0.48673900  1
  Mg  Mg3  1  0.66666700  0.33333300  0.17992700  1
  Mg  Mg4  1  0.33333300  0.66666700  0.82007300  1
  Mg  Mg5  1  0.33333300  0.66666700  0.51326100  1
  Se  Se0  1  0.97881900  0.33717300  0.58024900  1
  Se  Se1  1  0.02118100  0.66282700  0.41975100  1
  Se  Se2  1  0.66282700  0.64164600  0.58024900  1
  Se  Se3  1  0.33717300  0.35835400  0.41975100  1
  Se  Se4  1  0.35835400  0.02118100  0.58024900  1
  Se  Se5  1  0.64164600  0.97881900  0.41975100  1
  Se  Se6  1  0.64548600  0.67050600  0.91358200  1
  Se  Se7  1  0.68784800  0.99616000  0.75308400  1
  Se  Se8  1  0.32949400  0.97497900  0.91358200  1
  Se  Se9  1  0.00384000  0.69168700  0.75308400  1
  Se  Se10  1  0.02502100  0.35451400  0.91358200  1
  Se  Se11  1  0.30831300  0.31215200  0.75308400  1
  Se  Se12  1  0.31215200  0.00384000  0.24691600  1
  Se  Se13  1  0.35451400  0.32949400  0.08641800  1
  Se  Se14  1  0.99616000  0.30831300  0.24691600  1
  Se  Se15  1  0.67050600  0.02502100  0.08641800  1
  Se  Se16  1  0.69168700  0.68784800  0.24691600  1
  Se  Se17  1  0.97497900  0.64548600  0.08641800  1
loop_
_geom_bond_atom_site_label_1
_geom_bond_atom_site_label_2
_geom_bond_distance
_geom_bond_site_symmetry_2
Ce0 Se1 2.865061 1_545
Ce0 Se3 2.865061 1_555
Ce0 Se5 2.865061 1_445
Ce0 Se12 2.878749 1_555
Ce0 Se16 2.878751 1_445
Ce0 Se14 2.878754 1_455
Ce1 Se0 2.865061 1_455
Ce1 Se2 2.865061 1_445
Ce1 Se4 2.865061 1_555
Ce1 Se7 2.878749 1_445
Ce1 Se11 2.878751 1_555
Ce1 Se9 2.878754 1_545
Ce2 Se7 2.865061 1_545
Ce2 Se9 2.865061 1_655
Ce2 Se11 2.865061 1_555
Ce2 Se0 2.878749 1_555
Ce2 Se4 2.878751 1_555
Ce2 Se2 2.878754 1_555
Ce3 Se6 2.865061 1_555
Ce3 Se8 2.865061 1_545
Ce3 Se10 2.865061 1_655
Ce3 Se15 2.878758 1_556
Ce3 Se17 2.878764 1_556
Ce3 Se13 2.878769 1_556
Ce4 Se13 2.865061 1_555
Ce4 Se15 2.865061 1_565
Ce4 Se17 2.865061 1_455
Ce4 Se8 2.878758 1_554
Ce4 Se10 2.878764 1_554
Ce4 Se6 2.878769 1_554
Ce5 Se12 2.865061 1_565
Ce5 Se14 2.865061 1_455
Ce5 Se16 2.865061 1_555
Ce5 Se1 2.878749 1_555
Ce5 Se5 2.878751 1_555
Ce5 Se3 2.878754 1_555
Mg0 Se17 2.752871 1_445
Mg0 Se13 2.752873 1_555
Mg0 Se15 2.752877 1_455
Mg0 Se12 2.833086 1_555
Mg0 Se16 2.833089 1_445
Mg0 Se14 2.833092 1_455
Mg1 Se10 2.752871 1_555
Mg1 Se6 2.752873 1_445
Mg1 Se8 2.752877 1_545
Mg1 Se7 2.833086 1_445
Mg1 Se11 2.833089 1_555
Mg1 Se9 2.833092 1_545
Mg2 Se5 2.752871 1_545
Mg2 Se1 2.752873 1_655
Mg2 Se3 2.752877 1_555
Mg2 Se0 2.833086 1_555
Mg2 Se4 2.833089 1_555
Mg2 Se2 2.833092 1_555
Mg3 Se14 2.752876 1_555
Mg3 Se12 2.752883 1_555
Mg3 Se16 2.752888 1_555
Mg3 Se15 2.833071 1_555
Mg3 Se17 2.833077 1_555
Mg3 Se13 2.833083 1_555
Mg4 Se9 2.752876 1_555
Mg4 Se7 2.752883 1_555
Mg4 Se11 2.752888 1_555
Mg4 Se8 2.833071 1_555
Mg4 Se10 2.833077 1_555
Mg4 Se6 2.833083 1_555
Mg5 Se4 2.752871 1_565
Mg5 Se0 2.752873 1_455
Mg5 Se2 2.752877 1_555
Mg5 Se1 2.833086 1_555
Mg5 Se5 2.833089 1_555
Mg5 Se3 2.833092 1_555
