# generated using pymatgen
data_UB2C
_symmetry_space_group_name_H-M   'P 1'
_cell_length_a   5.19551882
_cell_length_b   5.19551882
_cell_length_c   5.19551857
_cell_angle_alpha   78.11206152
_cell_angle_beta   78.11206152
_cell_angle_gamma   78.11206436
_symmetry_Int_Tables_number   1
_chemical_formula_structural   UB2C
_chemical_formula_sum   'U3 B6 C3'
_cell_volume   132.31986025
_cell_formula_units_Z   3
loop_
 _symmetry_equiv_pos_site_id
 _symmetry_equiv_pos_as_xyz
  1  'x, y, z'
loop_
 _atom_site_type_symbol
 _atom_site_label
 _atom_site_symmetry_multiplicity
 _atom_site_fract_x
 _atom_site_fract_y
 _atom_site_fract_z
 _atom_site_occupancy
  U  U0  1  0.68975400  0.68975400  0.68975400  1
  U  U1  1  0.31024600  0.31024600  0.31024600  1
  U  U2  1  0.00000000  0.00000000  0.00000000  1
  B  B0  1  0.77105300  0.22894700  0.50000000  1
  B  B1  1  0.22894700  0.50000000  0.77105300  1
  B  B2  1  0.50000000  0.77105300  0.22894700  1
  B  B3  1  0.22894700  0.77105300  0.50000000  1
  B  B4  1  0.77105300  0.50000000  0.22894700  1
  B  B5  1  0.50000000  0.22894700  0.77105300  1
  C  C0  1  0.50000000  0.00000000  0.00000000  1
  C  C1  1  0.00000000  0.50000000  0.00000000  1
  C  C2  1  0.00000000  0.00000000  0.50000000  1
loop_
_geom_bond_atom_site_label_1
_geom_bond_atom_site_label_2
_geom_bond_distance
_geom_bond_site_symmetry_2
B0 C2 1.498959 1_655
B1 C1 1.498959 1_556
B2 C0 1.498959 1_565
B3 C2 1.498959 1_565
B4 C1 1.498959 1_655
B5 C0 1.498959 1_556
C0 U0 2.435023 1_544
C0 U1 2.435023 1_555
C0 U2 2.597759 1_555
C0 U2 2.597759 1_655
C1 U1 2.435023 1_555
C1 U0 2.435023 1_454
C1 U2 2.597759 1_555
C1 U2 2.597759 1_565
C2 U1 2.435023 1_555
C2 U0 2.435023 1_445
C2 U2 2.597759 1_555
C2 U2 2.597759 1_556
