# generated using pymatgen
data_TiCrCuS4
_symmetry_space_group_name_H-M   'P 1'
_cell_length_a   7.05786064
_cell_length_b   7.05786064
_cell_length_c   7.05786064
_cell_angle_alpha   120.92741854
_cell_angle_beta   119.37821631
_cell_angle_gamma   89.74077582
_symmetry_Int_Tables_number   1
_chemical_formula_structural   TiCrCuS4
_chemical_formula_sum   'Ti2 Cr2 Cu2 S8'
_cell_volume   247.96781719
_cell_formula_units_Z   2
loop_
 _symmetry_equiv_pos_site_id
 _symmetry_equiv_pos_as_xyz
  1  'x, y, z'
loop_
 _atom_site_type_symbol
 _atom_site_label
 _atom_site_symmetry_multiplicity
 _atom_site_fract_x
 _atom_site_fract_y
 _atom_site_fract_z
 _atom_site_occupancy
  Ti  Ti0  1  0.26279400  0.25000000  0.51279400  1
  Ti  Ti1  1  0.23720600  0.75000000  0.98720600  1
  Cr  Cr0  1  0.75000000  0.74439200  0.99439200  1
  Cr  Cr1  1  0.25000000  0.75560800  0.50560800  1
  Cu  Cu0  1  0.87468100  0.12468100  0.75000000  1
  Cu  Cu1  1  0.62531900  0.37531900  0.25000000  1
  S  S0  1  0.50044900  0.51089100  0.99467500  1
  S  S1  1  0.48906900  0.50841000  0.51102600  1
  S  S2  1  0.01621600  0.50577400  0.50532500  1
  S  S3  1  0.49738400  0.97804200  0.98897400  1
  S  S4  1  0.99955100  0.99422600  0.01044200  1
  S  S5  1  0.01093100  0.52195800  0.01934200  1
  S  S6  1  0.48378400  0.98910900  0.48955800  1
  S  S7  1  0.00261600  0.99159000  0.48065800  1
loop_
_geom_bond_atom_site_label_1
_geom_bond_atom_site_label_2
_geom_bond_distance
_geom_bond_site_symmetry_2
Cr0 S5 2.413915 1_656
Cr0 S1 2.413920 1_555
Cr0 S4 2.418932 1_556
Cr0 S0 2.418932 1_555
Cr0 S3 2.423024 1_555
Cr0 S7 2.423024 1_656
Cr1 S7 2.413920 1_555
Cr1 S3 2.413920 1_555
Cr1 S6 2.418932 1_555
Cr1 S2 2.418932 1_555
Cr1 S5 2.423024 1_555
Cr1 S1 2.423029 1_555
Cu0 S6 2.268523 1_545
Cu0 S4 2.268523 1_546
Cu0 S5 2.269878 1_656
Cu0 S7 2.269878 1_645
Cu1 S0 2.268523 1_554
Cu1 S2 2.268523 1_655
Cu1 S1 2.269872 1_555
Cu1 S3 2.269878 1_544
S0 Ti0 2.400978 1_555
S0 Ti1 2.503928 1_555
S1 Ti0 2.438493 1_555
S2 Ti1 2.400978 1_555
S2 Ti0 2.503928 1_555
S3 Ti1 2.438488 1_555
S4 Ti1 2.400978 1_654
S4 Ti0 2.503928 1_665
S5 Ti1 2.438493 1_554
S6 Ti0 2.400978 1_565
S6 Ti1 2.503928 1_554
S7 Ti0 2.438488 1_565
