# generated using pymatgen
data_NaZn2(PO4)2
_symmetry_space_group_name_H-M   'P 1'
_cell_length_a   5.14004892
_cell_length_b   8.85495146
_cell_length_c   8.94756010
_cell_angle_alpha   97.76452346
_cell_angle_beta   100.23704288
_cell_angle_gamma   105.83973263
_symmetry_Int_Tables_number   1
_chemical_formula_structural   NaZn2(PO4)2
_chemical_formula_sum   'Na2 Zn4 P4 O16'
_cell_volume   378.22610523
_cell_formula_units_Z   2
loop_
 _symmetry_equiv_pos_site_id
 _symmetry_equiv_pos_as_xyz
  1  'x, y, z'
loop_
 _atom_site_type_symbol
 _atom_site_label
 _atom_site_symmetry_multiplicity
 _atom_site_fract_x
 _atom_site_fract_y
 _atom_site_fract_z
 _atom_site_occupancy
  Na  Na0  1  0.41032600  0.69847000  0.18771200  1
  Na  Na1  1  0.58967400  0.30153000  0.81228800  1
  Zn  Zn0  1  0.77990800  0.38656500  0.24417000  1
  Zn  Zn1  1  0.22009200  0.61343500  0.75583000  1
  Zn  Zn2  1  0.31901100  0.10917700  0.38775500  1
  Zn  Zn3  1  0.68098900  0.89082300  0.61224500  1
  P  P0  1  0.16358900  0.25861000  0.07975100  1
  P  P1  1  0.83641100  0.74139000  0.92024900  1
  P  P2  1  0.09317800  0.74963000  0.43994800  1
  P  P3  1  0.90682200  0.25037000  0.56005200  1
  O  O0  1  0.14609400  0.13194600  0.18182900  1
  O  O1  1  0.85390600  0.86805400  0.81817100  1
  O  O2  1  0.71810400  0.11732700  0.62414000  1
  O  O3  1  0.28189600  0.88267300  0.37586000  1
  O  O4  1  0.22099600  0.20004100  0.92263900  1
  O  O5  1  0.77900400  0.79995900  0.07736100  1
  O  O6  1  0.72346200  0.24310900  0.39481800  1
  O  O7  1  0.27653800  0.75689100  0.60518200  1
  O  O8  1  0.18925400  0.22664600  0.54759100  1
  O  O9  1  0.81074600  0.77335400  0.45240900  1
  O  O10  1  0.05801300  0.59031300  0.33336700  1
  O  O11  1  0.94198700  0.40968700  0.66663300  1
  O  O12  1  0.41605000  0.41219100  0.15621900  1
  O  O13  1  0.58395000  0.58780900  0.84378100  1
  O  O14  1  0.89314100  0.30730300  0.05726500  1
  O  O15  1  0.10685900  0.69269700  0.94273500  1
loop_
_geom_bond_atom_site_label_1
_geom_bond_atom_site_label_2
_geom_bond_distance
_geom_bond_site_symmetry_2
Na0 O5 2.312747 1_555
Na0 O15 2.439516 1_554
Na0 O10 2.474763 1_555
Na0 O3 2.484189 1_555
Na0 O12 2.521324 1_555
Na0 O9 2.717182 1_555
Na1 O4 2.312747 1_555
Na1 O14 2.439516 1_556
Na1 O11 2.474763 1_555
Na1 O2 2.484189 1_555
Na1 O13 2.521324 1_555
Na1 O8 2.717182 1_555
O0 P0 1.533370 1_555
O0 Zn2 1.960017 1_555
O1 P1 1.533370 1_555
O1 Zn3 1.960017 1_555
O2 P3 1.553728 1_555
O2 Zn3 1.948515 1_545
O3 P2 1.553728 1_555
O3 Zn2 1.948515 1_565
O4 P0 1.538249 1_556
O5 P1 1.538249 1_554
O6 P3 1.588758 1_555
O6 Zn0 1.978693 1_555
O6 Zn2 2.078332 1_555
O7 P2 1.588758 1_555
O7 Zn1 1.978693 1_555
O7 Zn3 2.078332 1_555
O8 P3 1.543282 1_455
O8 Zn2 1.971780 1_555
O9 P2 1.543282 1_655
O9 Zn3 1.971780 1_555
O10 P2 1.538933 1_555
O10 Zn0 1.932086 1_455
O11 P3 1.538933 1_555
O11 Zn1 1.932086 1_655
O12 P0 1.571990 1_555
O12 Zn0 1.981260 1_555
O13 P1 1.571990 1_555
O13 Zn1 1.981260 1_555
O14 P0 1.552431 1_655
O14 Zn0 1.969748 1_555
O15 P1 1.552431 1_455
O15 Zn1 1.969748 1_555
