# generated using pymatgen
data_Ga2Cu
_symmetry_space_group_name_H-M   'P 1'
_cell_length_a   5.59887144
_cell_length_b   5.59887144
_cell_length_c   11.60668128
_cell_angle_alpha   90.00000000
_cell_angle_beta   90.00000000
_cell_angle_gamma   90.00000000
_symmetry_Int_Tables_number   1
_chemical_formula_structural   Ga2Cu
_chemical_formula_sum   'Ga16 Cu8'
_cell_volume   363.83883276
_cell_formula_units_Z   8
loop_
 _symmetry_equiv_pos_site_id
 _symmetry_equiv_pos_as_xyz
  1  'x, y, z'
loop_
 _atom_site_type_symbol
 _atom_site_label
 _atom_site_symmetry_multiplicity
 _atom_site_fract_x
 _atom_site_fract_y
 _atom_site_fract_z
 _atom_site_occupancy
  Ga  Ga0_0  1  0.25000000  0.25000000  0.14216135  1
  Ga  Ga0_1  1  0.25000000  0.25000000  0.64216136  1
  Ga  Ga0_2  1  0.25000000  0.75000000  0.14216135  1
  Ga  Ga0_3  1  0.25000000  0.75000000  0.64216136  1
  Ga  Ga0_4  1  0.75000000  0.25000000  0.14216135  1
  Ga  Ga0_5  1  0.75000000  0.25000000  0.64216136  1
  Ga  Ga0_6  1  0.75000000  0.75000000  0.14216135  1
  Ga  Ga0_7  1  0.75000000  0.75000000  0.64216136  1
  Ga  Ga1_0  1  0.25000000  0.25000000  0.35783865  1
  Ga  Ga1_1  1  0.25000000  0.25000000  0.85783864  1
  Ga  Ga1_2  1  0.25000000  0.75000000  0.35783865  1
  Ga  Ga1_3  1  0.25000000  0.75000000  0.85783864  1
  Ga  Ga1_4  1  0.75000000  0.25000000  0.35783865  1
  Ga  Ga1_5  1  0.75000000  0.25000000  0.85783864  1
  Ga  Ga1_6  1  0.75000000  0.75000000  0.35783865  1
  Ga  Ga1_7  1  0.75000000  0.75000000  0.85783864  1
  Cu  Cu0_0  1  0.00000000  0.00000000  0.00000000  1
  Cu  Cu0_1  1  0.00000000  0.00000000  0.50000000  1
  Cu  Cu0_2  1  0.00000000  0.50000000  0.00000000  1
  Cu  Cu0_3  1  0.00000000  0.50000000  0.50000000  1
  Cu  Cu0_4  1  0.50000000  0.00000000  0.00000000  1
  Cu  Cu0_5  1  0.50000000  0.00000000  0.50000000  1
  Cu  Cu0_6  1  0.50000000  0.50000000  0.00000000  1
  Cu  Cu0_7  1  0.50000000  0.50000000  0.50000000  1
loop_
_geom_bond_atom_site_label_1
_geom_bond_atom_site_label_2
_geom_bond_distance
_geom_bond_site_symmetry_2
Ga0_0 Ga1_0 2.503298 1_555
Ga0_0 Ga0_2 2.799436 1_555
Ga0_0 Ga0_4 2.799436 1_455
Ga0_0 Ga0_4 2.799436 1_555
Ga0_0 Ga0_2 2.799436 1_545
Ga0_1 Ga1_1 2.503298 1_555
Ga0_1 Ga0_5 2.799436 1_455
Ga0_1 Ga0_5 2.799436 1_555
Ga0_1 Ga0_3 2.799436 1_555
Ga0_1 Ga0_3 2.799436 1_545
Ga0_2 Ga1_2 2.503298 1_555
Ga0_2 Ga0_6 2.799436 1_555
Ga0_2 Ga0_6 2.799436 1_455
Ga0_3 Ga1_3 2.503298 1_555
Ga0_3 Ga0_7 2.799436 1_455
Ga0_3 Ga0_7 2.799436 1_555
Ga0_4 Ga1_4 2.503298 1_555
Ga0_4 Ga0_6 2.799436 1_555
Ga0_4 Ga0_6 2.799436 1_545
Ga0_5 Ga1_5 2.503298 1_555
Ga0_5 Ga0_7 2.799436 1_545
Ga0_5 Ga0_7 2.799436 1_555
Ga0_6 Ga1_6 2.503298 1_555
Ga0_7 Ga1_7 2.503298 1_555
Ga1_0 Ga1_4 2.799436 1_555
Ga1_0 Ga1_2 2.799436 1_555
Ga1_0 Ga1_4 2.799436 1_455
Ga1_0 Ga1_2 2.799436 1_545
Ga1_1 Ga1_3 2.799436 1_545
Ga1_1 Ga1_5 2.799436 1_555
Ga1_1 Ga1_5 2.799436 1_455
Ga1_1 Ga1_3 2.799436 1_555
Ga1_2 Ga1_6 2.799436 1_555
Ga1_2 Ga1_6 2.799436 1_455
Ga1_3 Ga1_7 2.799436 1_555
Ga1_3 Ga1_7 2.799436 1_455
Ga1_4 Ga1_6 2.799436 1_555
Ga1_4 Ga1_6 2.799436 1_545
Ga1_5 Ga1_7 2.799436 1_555
Ga1_5 Ga1_7 2.799436 1_545
Cu0_0 Ga0_6 2.577012 1_445
Cu0_0 Ga0_0 2.577012 1_555
Cu0_0 Ga0_2 2.577012 1_545
Cu0_0 Ga0_4 2.577012 1_455
Cu0_0 Ga1_7 2.577012 1_444
Cu0_0 Ga1_5 2.577012 1_454
Cu0_0 Ga1_3 2.577012 1_544
Cu0_0 Ga1_1 2.577012 1_554
Cu0_0 Cu0_2 2.799436 1_545
Cu0_0 Cu0_2 2.799436 1_555
Cu0_0 Cu0_4 2.799436 1_555
Cu0_0 Cu0_4 2.799436 1_455
Cu0_1 Ga1_2 2.577012 1_545
Cu0_1 Ga1_4 2.577012 1_455
Cu0_1 Ga1_6 2.577012 1_445
Cu0_1 Ga1_0 2.577012 1_555
Cu0_1 Ga0_5 2.577012 1_455
Cu0_1 Ga0_1 2.577012 1_555
Cu0_1 Ga0_3 2.577012 1_545
Cu0_1 Ga0_7 2.577012 1_445
Cu0_1 Cu0_3 2.799436 1_545
Cu0_1 Cu0_5 2.799436 1_455
Cu0_1 Cu0_3 2.799436 1_555
Cu0_1 Cu0_5 2.799436 1_555
Cu0_2 Ga0_0 2.577012 1_555
Cu0_2 Ga0_6 2.577012 1_455
Cu0_2 Ga0_2 2.577012 1_555
Cu0_2 Ga0_4 2.577012 1_455
Cu0_2 Ga1_7 2.577012 1_454
Cu0_2 Ga1_3 2.577012 1_554
Cu0_2 Ga1_5 2.577012 1_454
Cu0_2 Ga1_1 2.577012 1_554
Cu0_2 Cu0_6 2.799436 1_555
Cu0_2 Cu0_6 2.799436 1_455
Cu0_3 Ga1_2 2.577012 1_555
Cu0_3 Ga1_4 2.577012 1_455
Cu0_3 Ga1_0 2.577012 1_555
Cu0_3 Ga1_6 2.577012 1_455
Cu0_3 Ga0_3 2.577012 1_555
Cu0_3 Ga0_5 2.577012 1_455
Cu0_3 Ga0_7 2.577012 1_455
Cu0_3 Ga0_1 2.577012 1_555
Cu0_3 Cu0_7 2.799436 1_555
Cu0_3 Cu0_7 2.799436 1_455
Cu0_4 Ga0_0 2.577012 1_555
Cu0_4 Ga0_4 2.577012 1_555
Cu0_4 Ga0_2 2.577012 1_545
Cu0_4 Ga0_6 2.577012 1_545
Cu0_4 Ga1_5 2.577012 1_554
Cu0_4 Ga1_7 2.577012 1_544
Cu0_4 Ga1_3 2.577012 1_544
Cu0_4 Ga1_1 2.577012 1_554
Cu0_4 Cu0_6 2.799436 1_545
Cu0_4 Cu0_6 2.799436 1_555
Cu0_5 Ga1_2 2.577012 1_545
Cu0_5 Ga1_0 2.577012 1_555
Cu0_5 Ga1_6 2.577012 1_545
Cu0_5 Ga1_4 2.577012 1_555
Cu0_5 Ga0_5 2.577012 1_555
Cu0_5 Ga0_1 2.577012 1_555
Cu0_5 Ga0_3 2.577012 1_545
Cu0_5 Ga0_7 2.577012 1_545
Cu0_5 Cu0_7 2.799436 1_545
Cu0_5 Cu0_7 2.799436 1_555
Cu0_6 Ga0_0 2.577012 1_555
Cu0_6 Ga0_4 2.577012 1_555
Cu0_6 Ga0_6 2.577012 1_555
Cu0_6 Ga0_2 2.577012 1_555
Cu0_6 Ga1_5 2.577012 1_554
Cu0_6 Ga1_3 2.577012 1_554
Cu0_6 Ga1_7 2.577012 1_554
Cu0_6 Ga1_1 2.577012 1_554
Cu0_7 Ga1_2 2.577012 1_555
Cu0_7 Ga1_0 2.577012 1_555
Cu0_7 Ga1_6 2.577012 1_555
Cu0_7 Ga1_4 2.577012 1_555
Cu0_7 Ga0_5 2.577012 1_555
Cu0_7 Ga0_1 2.577012 1_555
Cu0_7 Ga0_3 2.577012 1_555
Cu0_7 Ga0_7 2.577012 1_555
