# generated using pymatgen
data_AlP3H10O11
_symmetry_space_group_name_H-M   'P 1'
_cell_length_a   8.42349700
_cell_length_b   19.74156100
_cell_length_c   6.51036500
_cell_angle_alpha   90.00000000
_cell_angle_beta   90.00000000
_cell_angle_gamma   90.00000000
_symmetry_Int_Tables_number   1
_chemical_formula_structural   AlP3H10O11
_chemical_formula_sum   'Al4 P12 H40 O44'
_cell_volume   1082.62799582
_cell_formula_units_Z   4
loop_
 _symmetry_equiv_pos_site_id
 _symmetry_equiv_pos_as_xyz
  1  'x, y, z'
loop_
 _atom_site_type_symbol
 _atom_site_label
 _atom_site_symmetry_multiplicity
 _atom_site_fract_x
 _atom_site_fract_y
 _atom_site_fract_z
 _atom_site_occupancy
  Al  Al0  1  0.73947100  0.94153300  0.19132700  1
  Al  Al1  1  0.26052900  0.05846700  0.69132700  1
  Al  Al2  1  0.76052900  0.44153300  0.69132700  1
  Al  Al3  1  0.23947100  0.55846700  0.19132700  1
  P  P0  1  0.94523700  0.06731200  0.99523200  1
  P  P1  1  0.05476300  0.93268800  0.49523200  1
  P  P2  1  0.55476300  0.56731200  0.49523200  1
  P  P3  1  0.44523700  0.43268800  0.99523200  1
  P  P4  1  0.38351600  0.95323800  0.02573500  1
  P  P5  1  0.61648400  0.04676200  0.52573500  1
  P  P6  1  0.11648400  0.45323800  0.52573500  1
  P  P7  1  0.88351600  0.54676200  0.02573500  1
  P  P8  1  0.64120600  0.81952000  0.49927700  1
  P  P9  1  0.35879400  0.18048000  0.99927700  1
  P  P10  1  0.85879400  0.31952000  0.99927700  1
  P  P11  1  0.14120600  0.68048000  0.49927700  1
  H  H0  1  0.82529900  0.11601800  0.98156900  1
  H  H1  1  0.17470100  0.88398200  0.48156900  1
  H  H2  1  0.67470100  0.61601800  0.48156900  1
  H  H3  1  0.32529900  0.38398200  0.98156900  1
  H  H4  1  0.33168200  0.99222600  0.19173900  1
  H  H5  1  0.66831800  0.00777400  0.69173900  1
  H  H6  1  0.16831800  0.49222600  0.69173900  1
  H  H7  1  0.83168200  0.50777400  0.19173900  1
  H  H8  1  0.79762800  0.79491100  0.47857300  1
  H  H9  1  0.20237200  0.20508900  0.97857300  1
  H  H10  1  0.70237200  0.29491100  0.97857300  1
  H  H11  1  0.29762800  0.70508900  0.47857300  1
  H  H12  1  0.04513800  0.04277400  0.31020100  1
  H  H13  1  0.95486200  0.95722600  0.81020100  1
  H  H14  1  0.45486200  0.54277400  0.81020100  1
  H  H15  1  0.54513800  0.45722600  0.31020100  1
  H  H16  1  0.23857700  0.85584600  0.02329100  1
  H  H17  1  0.76142300  0.14415400  0.52329100  1
  H  H18  1  0.26142300  0.35584600  0.52329100  1
  H  H19  1  0.73857700  0.64415400  0.02329100  1
  H  H20  1  0.55078500  0.75271200  0.25134600  1
  H  H21  1  0.44921500  0.24728800  0.75134600  1
  H  H22  1  0.94921500  0.25271200  0.75134600  1
  H  H23  1  0.05078500  0.74728800  0.25134600  1
  H  H24  1  0.85310700  0.88055100  0.88482100  1
  H  H25  1  0.14689300  0.11944900  0.38482100  1
  H  H26  1  0.64689300  0.38055100  0.38482100  1
  H  H27  1  0.35310700  0.61944900  0.88482100  1
  H  H28  1  0.68854600  0.85019200  0.91220000  1
  H  H29  1  0.31145400  0.14980800  0.41220000  1
  H  H30  1  0.81145400  0.35019200  0.41220000  1
  H  H31  1  0.18854600  0.64980800  0.91220000  1
  H  H32  1  0.06979700  0.75270500  0.90027100  1
  H  H33  1  0.93020300  0.24729500  0.40027100  1
  H  H34  1  0.43020300  0.25270500  0.40027100  1
  H  H35  1  0.56979700  0.74729500  0.90027100  1
  H  H36  1  0.96870200  0.80646900  0.02370600  1
  H  H37  1  0.03129800  0.19353100  0.52370600  1
  H  H38  1  0.53129800  0.30646900  0.52370600  1
  H  H39  1  0.46870200  0.69353100  0.02370600  1
  O  O0  1  0.87372000  0.99559800  0.99347900  1
  O  O1  1  0.12628000  0.00440200  0.49347900  1
  O  O2  1  0.62628000  0.49559800  0.49347900  1
  O  O3  1  0.37372000  0.50440200  0.99347900  1
  O  O4  1  0.02550100  0.08179600  0.21043200  1
  O  O5  1  0.97449900  0.91820400  0.71043200  1
  O  O6  1  0.47449900  0.58179600  0.71043200  1
  O  O7  1  0.52550100  0.41820400  0.21043200  1
  O  O8  1  0.06106200  0.07916900  0.82161400  1
  O  O9  1  0.93893800  0.92083100  0.32161400  1
  O  O10  1  0.43893800  0.57916900  0.32161400  1
  O  O11  1  0.56106200  0.42083100  0.82161400  1
  O  O12  1  0.56338900  0.95679300  0.01982900  1
  O  O13  1  0.43661100  0.04320700  0.51982900  1
  O  O14  1  0.93661100  0.45679300  0.51982900  1
  O  O15  1  0.06338900  0.54320700  0.01982900  1
  O  O16  1  0.29671900  0.97770200  0.83418300  1
  O  O17  1  0.70328100  0.02229800  0.33418300  1
  O  O18  1  0.20328100  0.47770200  0.33418300  1
  O  O19  1  0.79671900  0.52229800  0.83418300  1
  O  O20  1  0.33497000  0.87756300  0.07805500  1
  O  O21  1  0.66503000  0.12243700  0.57805500  1
  O  O22  1  0.16503000  0.37756300  0.57805500  1
  O  O23  1  0.83497000  0.62243700  0.07805500  1
  O  O24  1  0.63082500  0.88528400  0.37343200  1
  O  O25  1  0.36917500  0.11471600  0.87343200  1
  O  O26  1  0.86917500  0.38528400  0.87343200  1
  O  O27  1  0.13082500  0.61471600  0.37343200  1
  O  O28  1  0.59320800  0.82309400  0.72310300  1
  O  O29  1  0.40679200  0.17690600  0.22310300  1
  O  O30  1  0.90679200  0.32309400  0.22310300  1
  O  O31  1  0.09320800  0.67690600  0.72310300  1
  O  O32  1  0.53194300  0.76266900  0.40064100  1
  O  O33  1  0.46805700  0.23733100  0.90064100  1
  O  O34  1  0.96805700  0.26266900  0.90064100  1
  O  O35  1  0.03194300  0.73733100  0.40064100  1
  O  O36  1  0.78442500  0.86549000  0.99922700  1
  O  O37  1  0.21557500  0.13451000  0.49922700  1
  O  O38  1  0.71557500  0.36549000  0.49922700  1
  O  O39  1  0.28442500  0.63451000  0.99922700  1
  O  O40  1  0.07339800  0.78436400  0.01901600  1
  O  O41  1  0.92660200  0.21563600  0.51901600  1
  O  O42  1  0.42660200  0.28436400  0.51901600  1
  O  O43  1  0.57339800  0.71563600  0.01901600  1
loop_
_geom_bond_atom_site_label_1
_geom_bond_atom_site_label_2
_geom_bond_distance
_geom_bond_site_symmetry_2
Al0 O24 1.864461 1_555
Al0 O17 1.870859 1_565
Al0 O12 1.880776 1_555
Al0 O9 1.926033 1_555
Al0 O36 1.990256 1_554
Al0 O0 2.019185 1_554
Al1 O25 1.864461 1_555
Al1 O16 1.870859 1_545
Al1 O13 1.880776 1_555
Al1 O8 1.926033 1_555
Al1 O37 1.990256 1_555
Al1 O1 2.019185 1_555
Al2 O26 1.864461 1_555
Al2 O19 1.870859 1_555
Al2 O14 1.880776 1_555
Al2 O11 1.926033 1_555
Al2 O38 1.990256 1_555
Al2 O2 2.019185 1_555
Al3 O27 1.864461 1_555
Al3 O18 1.870859 1_555
Al3 O15 1.880776 1_555
Al3 O10 1.926033 1_555
Al3 O39 1.990256 1_554
Al3 O3 2.019185 1_554
H0 P0 1.397554 1_555
H1 P1 1.397554 1_555
H2 P2 1.397554 1_555
H3 P3 1.397554 1_555
H4 P4 1.396806 1_555
H5 P5 1.396806 1_555
H6 P6 1.396806 1_555
H7 P7 1.396806 1_555
H8 P8 1.410784 1_555
H9 P9 1.410784 1_555
H10 P10 1.410784 1_555
H11 P11 1.410784 1_555
H12 O4 1.021127 1_555
H12 O1 1.569954 1_555
H13 O5 1.021127 1_555
H13 O0 1.569954 1_555
H14 O6 1.021127 1_555
H14 O3 1.569954 1_555
H15 O7 1.021127 1_555
H15 O2 1.569954 1_555
H16 O20 0.984994 1_555
H17 O21 0.984994 1_555
H18 O22 0.984994 1_555
H19 O23 0.984994 1_555
H20 O32 1.004263 1_555
H21 O33 1.004263 1_555
H22 O34 1.004263 1_555
H23 O35 1.004263 1_555
H24 O36 0.988878 1_555
H25 O37 0.988878 1_555
H26 O38 0.988878 1_555
H27 O39 0.988878 1_555
H28 O36 1.031743 1_555
H28 O28 1.564193 1_555
H29 O37 1.031743 1_555
H29 O29 1.564193 1_555
H30 O38 1.031743 1_555
H30 O30 1.564193 1_555
H31 O39 1.031743 1_555
H31 O31 1.564193 1_555
H32 O40 0.994578 1_556
H33 O41 0.994578 1_555
H34 O42 0.994578 1_555
H35 O43 0.994578 1_556
H36 O40 0.984442 1_655
H37 O41 0.984442 1_455
H38 O42 0.984442 1_555
H39 O43 0.984442 1_555
O0 P0 1.538630 1_565
O1 P1 1.538630 1_545
O2 P2 1.538630 1_555
O3 P3 1.538630 1_555
O4 P0 1.581696 1_454
O5 P1 1.581696 1_655
O6 P2 1.581696 1_555
O7 P3 1.581696 1_554
O8 P0 1.511391 1_455
O9 P1 1.511391 1_655
O10 P2 1.511391 1_555
O11 P3 1.511391 1_555
O12 P4 1.517271 1_555
O13 P5 1.517271 1_555
O14 P6 1.517271 1_655
O15 P7 1.517271 1_455
O16 P4 1.524138 1_556
O17 P5 1.524138 1_555
O18 P6 1.524138 1_555
O19 P7 1.524138 1_556
O20 P4 1.585910 1_555
O21 P5 1.585910 1_555
O22 P6 1.585910 1_555
O23 P7 1.585910 1_555
O24 P8 1.537672 1_555
O25 P9 1.537672 1_555
O26 P10 1.537672 1_555
O27 P11 1.537672 1_555
O28 P8 1.513884 1_555
O29 P9 1.513884 1_554
O30 P10 1.513884 1_554
O31 P11 1.513884 1_555
O32 P8 1.587160 1_555
O33 P9 1.587160 1_555
O34 P10 1.587160 1_555
O35 P11 1.587160 1_555
