# generated using pymatgen
data_Na3Pd5F12
_symmetry_space_group_name_H-M   'P 1'
_cell_length_a   7.49536954
_cell_length_b   7.49536954
_cell_length_c   6.88956599
_cell_angle_alpha   73.77648551
_cell_angle_beta   73.77648551
_cell_angle_gamma   55.22132401
_symmetry_Int_Tables_number   1
_chemical_formula_structural   Na3Pd5F12
_chemical_formula_sum   'Na3 Pd5 F12'
_cell_volume   301.70062872
_cell_formula_units_Z   1
loop_
 _symmetry_equiv_pos_site_id
 _symmetry_equiv_pos_as_xyz
  1  'x, y, z'
loop_
 _atom_site_type_symbol
 _atom_site_label
 _atom_site_symmetry_multiplicity
 _atom_site_fract_x
 _atom_site_fract_y
 _atom_site_fract_z
 _atom_site_occupancy
  Na  Na0  1  0.00000000  0.00000000  0.00000000  1
  Na  Na1  1  0.73987700  0.26012300  0.50000000  1
  Na  Na2  1  0.26012300  0.73987700  0.50000000  1
  Pd  Pd0  1  0.76557600  0.76557600  0.47640800  1
  Pd  Pd1  1  0.23442400  0.23442400  0.52359200  1
  Pd  Pd2  1  0.50000000  0.50000000  0.00000000  1
  Pd  Pd3  1  0.50000000  0.00000000  0.00000000  1
  Pd  Pd4  1  0.00000000  0.50000000  0.00000000  1
  F  F0  1  0.60806000  0.60806000  0.54016900  1
  F  F1  1  0.39194000  0.39194000  0.45983100  1
  F  F2  1  0.78633900  0.78633900  0.16986700  1
  F  F3  1  0.21366100  0.21366100  0.83013300  1
  F  F4  1  0.92357600  0.92357600  0.39689500  1
  F  F5  1  0.07642400  0.07642400  0.60310500  1
  F  F6  1  0.36287700  0.78464500  0.11110100  1
  F  F7  1  0.63712300  0.21535500  0.88889900  1
  F  F8  1  0.21535500  0.63712300  0.88889900  1
  F  F9  1  0.78464500  0.36287700  0.11110100  1
  F  F10  1  0.24513200  0.24513200  0.22390500  1
  F  F11  1  0.75486800  0.75486800  0.77609500  1
loop_
_geom_bond_atom_site_label_1
_geom_bond_atom_site_label_2
_geom_bond_distance
_geom_bond_site_symmetry_2
F0 Pd0 1.997847 1_555
F0 Na2 2.272662 1_555
F0 Na1 2.272662 1_555
F1 Pd1 1.997847 1_555
F1 Na2 2.272662 1_555
F1 Na1 2.272662 1_555
F2 Pd0 2.041821 1_555
F2 Pd4 2.230629 1_655
F2 Pd3 2.230629 1_565
F2 Na0 2.707465 1_665
F3 Pd1 2.041821 1_555
F3 Pd4 2.230629 1_556
F3 Pd3 2.230629 1_556
F3 Na0 2.707465 1_556
F4 Pd0 1.995007 1_555
F4 Na1 2.292603 1_565
F4 Na2 2.292603 1_655
F4 Na0 2.599473 1_665
F5 Pd1 1.995007 1_555
F5 Na1 2.292603 1_455
F5 Na2 2.292603 1_545
F5 Na0 2.599473 1_556
F6 Pd2 2.040952 1_555
F6 Pd3 2.238400 1_565
F6 Na0 2.460405 1_565
F6 Na2 2.554223 1_555
F7 Pd2 2.040952 1_556
F7 Pd3 2.238400 1_556
F7 Na0 2.460405 1_656
F7 Na1 2.554223 1_555
F8 Pd2 2.040952 1_556
F8 Pd4 2.238400 1_556
F8 Na0 2.460405 1_566
F8 Na2 2.554223 1_555
F9 Pd2 2.040952 1_555
F9 Pd4 2.238400 1_655
F9 Na0 2.460405 1_655
F9 Na1 2.554223 1_555
F10 Pd1 2.024372 1_555
F10 Pd3 2.310359 1_555
F10 Pd4 2.310359 1_555
F11 Pd0 2.024372 1_555
F11 Pd4 2.310359 1_656
F11 Pd3 2.310359 1_566
