# generated using pymatgen
data_PrB4ClO8
_symmetry_space_group_name_H-M   'P 1'
_cell_length_a   6.56486052
_cell_length_b   6.56486052
_cell_length_c   9.74109150
_cell_angle_alpha   82.03164751
_cell_angle_beta   82.03164751
_cell_angle_gamma   119.63903166
_symmetry_Int_Tables_number   1
_chemical_formula_structural   PrB4ClO8
_chemical_formula_sum   'Pr2 B8 Cl2 O16'
_cell_volume   350.73946987
_cell_formula_units_Z   2
loop_
 _symmetry_equiv_pos_site_id
 _symmetry_equiv_pos_as_xyz
  1  'x, y, z'
loop_
 _atom_site_type_symbol
 _atom_site_label
 _atom_site_symmetry_multiplicity
 _atom_site_fract_x
 _atom_site_fract_y
 _atom_site_fract_z
 _atom_site_occupancy
  Pr  Pr0  1  0.79973000  0.21433900  0.50237400  1
  Pr  Pr1  1  0.21433900  0.79973000  0.00237400  1
  B  B0  1  0.86539900  0.76088600  0.57768400  1
  B  B1  1  0.76088600  0.86539900  0.07768400  1
  B  B2  1  0.63963300  0.14798600  0.15076700  1
  B  B3  1  0.14798600  0.63963300  0.65076700  1
  B  B4  1  0.24150700  0.05749000  0.62714500  1
  B  B5  1  0.05749000  0.24150700  0.12714500  1
  B  B6  1  0.50406200  0.43394700  0.06418900  1
  B  B7  1  0.43394700  0.50406200  0.56418900  1
  Cl  Cl0  1  0.04479200  0.68718500  0.30625200  1
  Cl  Cl1  1  0.68718500  0.04479200  0.80625200  1
  O  O0  1  0.33226000  0.89925800  0.59444600  1
  O  O1  1  0.89925800  0.33226000  0.09444600  1
  O  O2  1  0.44597100  0.30330900  0.55946700  1
  O  O3  1  0.30330900  0.44597100  0.05946700  1
  O  O4  1  0.02727400  0.99991300  0.56922400  1
  O  O5  1  0.99991300  0.02727400  0.06922400  1
  O  O6  1  0.72256500  0.64722600  0.04988700  1
  O  O7  1  0.64722600  0.72256500  0.54988700  1
  O  O8  1  0.48825400  0.21472400  0.08236400  1
  O  O9  1  0.21472400  0.48825400  0.58236400  1
  O  O10  1  0.91005800  0.58146700  0.61920100  1
  O  O11  1  0.58146700  0.91005800  0.11920100  1
  O  O12  1  0.18650100  0.00078000  0.78230600  1
  O  O13  1  0.00078000  0.18650100  0.28230600  1
  O  O14  1  0.60727800  0.14020500  0.30149400  1
  O  O15  1  0.14020500  0.60727800  0.80149400  1
loop_
_geom_bond_atom_site_label_1
_geom_bond_atom_site_label_2
_geom_bond_distance
_geom_bond_site_symmetry_2
B0 O10 1.370847 1_555
B0 O4 1.374397 1_655
B0 O7 1.399303 1_555
B1 O11 1.370847 1_555
B1 O5 1.374397 1_565
B1 O6 1.399303 1_555
B2 O14 1.444119 1_555
B2 O8 1.468616 1_555
B2 O1 1.478796 1_555
B2 O11 1.501961 1_545
B3 O15 1.444119 1_555
B3 O9 1.468616 1_555
B3 O0 1.478796 1_555
B3 O10 1.501961 1_455
B4 O12 1.453666 1_555
B4 O2 1.468953 1_555
B4 O0 1.478747 1_545
B4 O4 1.480723 1_545
B5 O13 1.453666 1_555
B5 O3 1.468953 1_555
B5 O1 1.478747 1_455
B5 O5 1.480723 1_455
B6 O3 1.365263 1_555
B6 O8 1.374723 1_555
B6 O6 1.393371 1_555
B7 O2 1.365263 1_555
B7 O9 1.374723 1_555
B7 O7 1.393371 1_555
Cl0 Pr1 2.865967 1_555
Cl0 Pr0 2.904851 1_455
Cl1 Pr0 2.865967 1_555
Cl1 Pr1 2.904851 1_546
O0 Pr0 2.635338 1_565
O1 Pr1 2.635338 1_655
O2 Pr0 2.667858 1_555
O3 Pr1 2.667858 1_555
O4 Pr0 2.594681 1_465
O5 Pr1 2.594681 1_645
O6 Pr1 2.810638 1_655
O7 Pr0 2.810638 1_565
O8 Pr1 2.719285 1_545
O9 Pr0 2.719285 1_455
O10 Pr0 2.625053 1_555
O11 Pr1 2.625053 1_555
O12 Pr1 2.435906 1_546
O13 Pr0 2.435906 1_455
O14 Pr0 2.450190 1_555
O15 Pr1 2.450190 1_556
