# generated using pymatgen
data_PrMg3Ni8
_symmetry_space_group_name_H-M   'P 1'
_cell_length_a   4.92232728
_cell_length_b   4.92232728
_cell_length_c   8.51882761
_cell_angle_alpha   73.20736065
_cell_angle_beta   90.00000000
_cell_angle_gamma   120.00000000
_symmetry_Int_Tables_number   1
_chemical_formula_structural   PrMg3Ni8
_chemical_formula_sum   'Pr1 Mg3 Ni8'
_cell_volume   168.51214496
_cell_formula_units_Z   1
loop_
 _symmetry_equiv_pos_site_id
 _symmetry_equiv_pos_as_xyz
  1  'x, y, z'
loop_
 _atom_site_type_symbol
 _atom_site_label
 _atom_site_symmetry_multiplicity
 _atom_site_fract_x
 _atom_site_fract_y
 _atom_site_fract_z
 _atom_site_occupancy
  Pr  Pr0  1  0.99954800  0.99909600  0.00135700  1
  Mg  Mg0  1  0.50060400  0.00120700  0.49818900  1
  Mg  Mg1  1  0.87084200  0.74168400  0.38747300  1
  Mg  Mg2  1  0.38053700  0.76107300  0.85839000  1
  Ni  Ni0  1  0.43561200  0.36797400  0.19641400  1
  Ni  Ni1  1  0.93779100  0.38187300  0.68033500  1
  Ni  Ni2  1  0.43561200  0.87122300  0.19641400  1
  Ni  Ni3  1  0.93779100  0.87558300  0.68033500  1
  Ni  Ni4  1  0.18712700  0.37425400  0.43862000  1
  Ni  Ni5  1  0.68809300  0.37618500  0.93572200  1
  Ni  Ni6  1  0.93236200  0.36797400  0.19641400  1
  Ni  Ni7  1  0.44408200  0.38187300  0.68033500  1
loop_
_geom_bond_atom_site_label_1
_geom_bond_atom_site_label_2
_geom_bond_distance
_geom_bond_site_symmetry_2
Mg0 Ni6 2.804691 1_555
Mg0 Ni0 2.804693 1_555
Mg0 Ni2 2.804693 1_545
Mg0 Ni3 2.863101 1_545
Mg0 Ni1 2.863104 1_555
Mg0 Ni7 2.863105 1_545
Mg0 Ni7 2.863106 1_555
Mg0 Ni1 2.863108 1_445
Mg0 Ni3 2.863110 1_445
Mg0 Ni4 2.881886 1_545
Mg0 Ni4 2.881890 1_655
Mg0 Ni4 2.881894 1_555
Mg0 Mg2 2.892707 1_545
Mg0 Mg1 2.977750 1_555
Mg0 Mg1 2.977750 1_545
Mg0 Mg1 2.977754 1_445
Mg1 Ni7 2.738640 1_555
Mg1 Ni1 2.738640 1_555
Mg1 Ni3 2.738642 1_555
Mg1 Ni4 2.871435 1_555
Mg1 Ni4 2.871435 1_655
Mg1 Ni4 2.871443 1_665
Mg1 Ni2 2.900286 1_555
Mg1 Ni0 2.900286 1_555
Mg1 Ni6 2.900286 1_555
Mg1 Ni6 2.900290 1_565
Mg1 Ni0 2.900290 1_665
Mg1 Ni2 2.900290 1_655
Mg1 Pr0 3.100826 1_555
Mg2 Ni3 2.846456 1_555
Mg2 Ni1 2.846458 1_565
Mg2 Ni7 2.846460 1_565
Mg2 Ni7 2.846460 1_555
Mg2 Ni1 2.846463 1_455
Mg2 Ni3 2.846465 1_455
Mg2 Ni5 2.908973 1_455
Mg2 Ni5 2.908973 1_555
Mg2 Ni5 2.908973 1_565
Mg2 Pr0 3.065068 1_446
Mg2 Pr0 3.065072 1_556
Mg2 Pr0 3.065076 1_456
Mg2 Ni0 3.068311 1_556
Mg2 Ni2 3.068311 1_556
Mg2 Ni6 3.068313 1_456
Ni0 Ni4 2.414313 1_555
Ni0 Ni6 2.445166 1_555
Ni0 Ni2 2.445171 1_545
Ni0 Ni2 2.477156 1_555
Ni0 Ni6 2.477161 1_455
Ni0 Ni5 2.525071 1_554
Ni0 Pr0 2.917399 1_445
Ni0 Pr0 2.917403 1_555
Ni1 Ni4 2.416271 1_655
Ni1 Ni7 2.430197 1_555
Ni1 Ni3 2.430202 1_555
Ni1 Ni5 2.484970 1_555
Ni1 Ni3 2.492125 1_545
Ni1 Ni7 2.492130 1_655
Ni1 Pr0 2.952400 1_546
Ni2 Ni4 2.414307 1_555
Ni2 Ni6 2.445169 1_565
Ni2 Ni6 2.477159 1_455
Ni2 Ni5 2.525071 1_564
Ni2 Pr0 2.917399 1_555
Ni2 Pr0 2.917403 1_455
Ni3 Ni4 2.416273 1_665
Ni3 Ni7 2.430200 1_555
Ni3 Ni5 2.484972 1_555
Ni3 Ni7 2.492128 1_665
Ni3 Pr0 2.952402 1_556
Ni4 Ni6 2.414313 1_455
Ni4 Ni7 2.416271 1_555
Ni5 Ni7 2.484972 1_555
Ni5 Ni6 2.525069 1_556
Ni5 Pr0 2.890372 1_546
Ni5 Pr0 2.890376 1_446
Ni5 Pr0 2.890380 1_556
Ni6 Pr0 2.917399 1_545
Ni6 Pr0 2.917403 1_555
Ni7 Pr0 2.952400 1_446
