# generated using pymatgen
data_Ca2Pr4(Mo2O7)3
_symmetry_space_group_name_H-M   'P 1'
_cell_length_a   16.78914493
_cell_length_b   16.78552055
_cell_length_c   7.49269736
_cell_angle_alpha   77.13200827
_cell_angle_beta   77.07797568
_cell_angle_gamma   25.79001605
_symmetry_Int_Tables_number   1
_chemical_formula_structural   Ca2Pr4(Mo2O7)3
_chemical_formula_sum   'Ca4 Pr8 Mo12 O42'
_cell_volume   894.27995961
_cell_formula_units_Z   2
loop_
 _symmetry_equiv_pos_site_id
 _symmetry_equiv_pos_as_xyz
  1  'x, y, z'
loop_
 _atom_site_type_symbol
 _atom_site_label
 _atom_site_symmetry_multiplicity
 _atom_site_fract_x
 _atom_site_fract_y
 _atom_site_fract_z
 _atom_site_occupancy
  Ca  Ca0  1  0.17289700  0.74629700  0.58193000  1
  Ca  Ca1  1  0.50370200  0.07710300  0.75112400  1
  Ca  Ca2  1  0.49887600  0.58193000  0.74629700  1
  Ca  Ca3  1  0.66807000  0.75112400  0.07710300  1
  Pr  Pr0  1  0.50485300  0.07707300  0.24902000  1
  Pr  Pr1  1  0.82434800  0.42456600  0.91811200  1
  Pr  Pr2  1  0.82543400  0.42565200  0.41702700  1
  Pr  Pr3  1  0.17292700  0.74514700  0.08094500  1
  Pr  Pr4  1  0.83297300  0.91811200  0.42456600  1
  Pr  Pr5  1  0.16905400  0.24902000  0.07707300  1
  Pr  Pr6  1  0.00098000  0.08094600  0.74514700  1
  Pr  Pr7  1  0.33188800  0.41702700  0.42565200  1
  Mo  Mo0  1  0.66673800  0.25115700  0.08127200  1
  Mo  Mo1  1  0.99762300  0.58540000  0.74986100  1
  Mo  Mo2  1  0.33409000  0.91657200  0.41699400  1
  Mo  Mo3  1  0.66460000  0.25237700  0.58288400  1
  Mo  Mo4  1  0.99884300  0.58326200  0.24916700  1
  Mo  Mo5  1  0.33342800  0.91591000  0.91765500  1
  Mo  Mo6  1  0.33234500  0.41699400  0.91657200  1
  Mo  Mo7  1  0.66711600  0.74986100  0.58540000  1
  Mo  Mo8  1  0.00083300  0.08127200  0.25115700  1
  Mo  Mo9  1  0.83300600  0.91765500  0.91591000  1
  Mo  Mo10  1  0.16872800  0.24916700  0.58326200  1
  Mo  Mo11  1  0.50013900  0.58288400  0.25237700  1
  O  O0  1  0.21232000  0.78768000  0.78768000  1
  O  O1  1  0.54107300  0.12350700  0.46483600  1
  O  O2  1  0.87058400  0.46483600  0.12350700  1
  O  O3  1  0.46232000  0.03768000  0.03768000  1
  O  O4  1  0.78516400  0.37941600  0.70892700  1
  O  O5  1  0.12649300  0.70892700  0.37941600  1
  O  O6  1  0.98098000  0.54970100  0.03249800  1
  O  O7  1  0.30718100  0.89349900  0.69174900  1
  O  O8  1  0.63703900  0.22422700  0.35409200  1
  O  O9  1  0.10757100  0.69174900  0.89349900  1
  O  O10  1  0.43682100  0.03249800  0.54970100  1
  O  O11  1  0.78464200  0.35409200  0.22422700  1
  O  O12  1  0.24240700  0.42469400  0.75458300  1
  O  O13  1  0.57831600  0.75458300  0.42469400  1
  O  O14  1  0.90987100  0.09012900  0.09012900  1
  O  O15  1  0.83449500  0.83248700  0.15924300  1
  O  O16  1  0.17377400  0.15924300  0.83248700  1
  O  O17  1  0.50769900  0.49230100  0.49230100  1
  O  O18  1  0.24657500  0.41895300  0.16021600  1
  O  O19  1  0.57740600  0.75353500  0.82721600  1
  O  O20  1  0.90728100  0.09654000  0.49506800  1
  O  O21  1  0.84184300  0.82721600  0.75353500  1
  O  O22  1  0.17425700  0.16021600  0.41895300  1
  O  O23  1  0.50111000  0.49506800  0.09654000  1
  O  O24  1  0.70029900  0.26902000  0.81317900  1
  O  O25  1  0.02577300  0.61296100  0.46535800  1
  O  O26  1  0.35650100  0.94281900  0.14242900  1
  O  O27  1  0.55825100  0.14242900  0.94281900  1
  O  O28  1  0.89590800  0.46535800  0.61296100  1
  O  O29  1  0.21750200  0.81317900  0.26902000  1
  O  O30  1  0.41751300  0.41550500  0.07622600  1
  O  O31  1  0.75769900  0.74230100  0.74230100  1
  O  O32  1  0.09075700  0.07622600  0.41550500  1
  O  O33  1  0.82530600  0.00759300  0.67168400  1
  O  O34  1  0.15987100  0.34012900  0.34012900  1
  O  O35  1  0.49541700  0.67168400  0.00759300  1
  O  O36  1  0.42278400  0.40815700  0.67259400  1
  O  O37  1  0.75493200  0.74889000  0.34271900  1
  O  O38  1  0.08978400  0.07574300  0.00342500  1
  O  O39  1  0.83104700  0.00342500  0.07574300  1
  O  O40  1  0.15346000  0.34271900  0.74889000  1
  O  O41  1  0.49646500  0.67259400  0.40815700  1
loop_
_geom_bond_atom_site_label_1
_geom_bond_atom_site_label_2
_geom_bond_distance
_geom_bond_site_symmetry_2
Ca0 O0 2.249105 1_555
Ca0 O5 2.266184 1_555
Ca0 O17 2.579749 1_555
Ca0 O29 2.621902 1_555
Ca0 O36 2.637088 1_555
Ca0 O9 2.683708 1_555
Ca0 O33 2.685426 1_465
Ca0 O20 2.693562 1_465
Ca1 O3 2.249099 1_556
Ca1 O1 2.266190 1_555
Ca1 O31 2.579744 1_545
Ca1 O10 2.621888 1_555
Ca1 O21 2.637100 1_545
Ca1 O27 2.683722 1_555
Ca1 O12 2.685432 1_555
Ca1 O40 2.693550 1_555
Ca2 O0 2.249105 1_555
Ca2 O4 2.266184 1_555
Ca2 O17 2.579749 1_555
Ca2 O24 2.621902 1_555
Ca2 O41 2.637088 1_555
Ca2 O7 2.683708 1_555
Ca2 O35 2.685426 1_556
Ca2 O23 2.693566 1_556
Ca3 O3 2.249105 1_565
Ca3 O2 2.266184 1_555
Ca3 O31 2.579749 1_554
Ca3 O6 2.621902 1_555
Ca3 O19 2.637088 1_554
Ca3 O26 2.683708 1_555
Ca3 O13 2.685426 1_555
Ca3 O37 2.693573 1_555
Mo0 O24 1.993032 1_554
Mo0 O23 2.018042 1_555
Mo0 O14 2.036033 1_555
Mo0 O8 2.042055 1_555
Mo0 O39 2.066804 1_555
Mo0 O30 2.087482 1_555
Mo1 O31 2.024026 1_555
Mo1 O21 2.053560 1_555
Mo1 O12 2.055844 1_655
Mo1 O40 2.061845 1_655
Mo1 O6 2.096068 1_556
Mo1 O25 2.117875 1_655
Mo2 O26 2.028916 1_555
Mo2 O7 2.033754 1_555
Mo2 O41 2.035458 1_555
Mo2 O32 2.040482 1_565
Mo2 O13 2.041619 1_555
Mo2 O22 2.042809 1_565
Mo3 O17 2.024026 1_555
Mo3 O36 2.053560 1_555
Mo3 O33 2.055844 1_555
Mo3 O20 2.061846 1_555
Mo3 O24 2.096068 1_555
Mo3 O8 2.117875 1_555
Mo4 O6 1.993032 1_555
Mo4 O37 2.018043 1_555
Mo4 O34 2.036033 1_655
Mo4 O25 2.042055 1_655
Mo4 O18 2.066803 1_655
Mo4 O15 2.087483 1_555
Mo5 O7 2.028909 1_555
Mo5 O26 2.033761 1_556
Mo5 O19 2.035457 1_555
Mo5 O16 2.040482 1_565
Mo5 O35 2.041620 1_556
Mo5 O38 2.042809 1_566
Mo6 O27 2.028918 1_555
Mo6 O9 2.033751 1_555
Mo6 O36 2.035450 1_555
Mo6 O30 2.040482 1_556
Mo6 O12 2.041633 1_555
Mo6 O18 2.042809 1_556
Mo7 O31 2.024026 1_555
Mo7 O19 2.053560 1_555
Mo7 O13 2.055844 1_555
Mo7 O37 2.061854 1_555
Mo7 O10 2.096068 1_565
Mo7 O28 2.117875 1_555
Mo8 O29 1.993032 1_545
Mo8 O20 2.018049 1_455
Mo8 O14 2.036033 1_455
Mo8 O11 2.042055 1_455
Mo8 O38 2.066796 1_555
Mo8 O32 2.087495 1_555
Mo9 O9 2.028918 1_655
Mo9 O27 2.033751 1_565
Mo9 O21 2.035444 1_555
Mo9 O15 2.040482 1_556
Mo9 O33 2.041627 1_565
Mo9 O39 2.042809 1_566
Mo10 O10 1.993032 1_555
Mo10 O40 2.018055 1_555
Mo10 O34 2.036033 1_555
Mo10 O28 2.042055 1_455
Mo10 O22 2.066790 1_555
Mo10 O16 2.087490 1_555
Mo11 O17 2.024026 1_555
Mo11 O41 2.053560 1_555
Mo11 O35 2.055844 1_555
Mo11 O23 2.061859 1_555
Mo11 O29 2.096068 1_555
Mo11 O11 2.117875 1_555
O0 Pr3 2.297179 1_556
O0 Pr6 2.297185 1_565
O1 Pr7 2.313417 1_555
O1 Pr4 2.317412 1_545
O1 Pr0 2.333838 1_555
O2 Pr2 2.313410 1_555
O2 Pr1 2.317424 1_554
O2 Pr5 2.333838 1_655
O3 Pr0 2.297185 1_555
O3 Pr5 2.297185 1_555
O4 Pr1 2.313404 1_555
O4 Pr2 2.317418 1_555
O4 Pr6 2.333838 1_655
O5 Pr4 2.313416 1_455
O5 Pr7 2.317412 1_555
O5 Pr3 2.333844 1_555
O6 Pr5 2.564629 1_655
O7 Pr6 2.645939 1_565
O8 Pr4 2.575314 1_545
O8 Pr7 2.587545 1_555
O9 Pr3 2.645934 1_556
O10 Pr0 2.564629 1_555
O11 Pr1 2.575306 1_554
O11 Pr2 2.587558 1_555
O12 Pr7 2.546526 1_555
O13 Pr2 2.546521 1_555
O14 Pr6 2.651319 1_654
O14 Pr3 2.651320 1_645
O15 Pr0 2.566254 1_565
O15 Pr4 2.683701 1_555
O16 Pr5 2.566265 1_556
O16 Pr1 2.683701 1_455
O18 Pr0 2.637473 1_555
O18 Pr7 2.677707 1_555
O19 Pr1 2.550602 1_555
O20 Pr6 2.532314 1_655
O21 Pr4 2.550597 1_555
O22 Pr5 2.637469 1_555
O22 Pr2 2.677707 1_455
O23 Pr3 2.532303 1_555
O24 Pr6 2.564629 1_655
O25 Pr7 2.575314 1_555
O25 Pr4 2.587545 1_455
O26 Pr5 2.645939 1_565
O27 Pr0 2.645939 1_556
O28 Pr2 2.575301 1_555
O28 Pr1 2.587553 1_555
O29 Pr3 2.564634 1_555
O30 Pr3 2.566252 1_555
O30 Pr7 2.683701 1_555
O32 Pr6 2.566259 1_555
O32 Pr2 2.683701 1_455
O33 Pr4 2.546532 1_545
O34 Pr5 2.651319 1_555
O34 Pr0 2.651319 1_555
O35 Pr1 2.546522 1_554
O36 Pr7 2.550591 1_555
O37 Pr0 2.532303 1_565
O38 Pr6 2.637462 1_554
O38 Pr1 2.677707 1_454
O39 Pr3 2.637473 1_645
O39 Pr4 2.677707 1_545
O40 Pr5 2.532307 1_556
O41 Pr2 2.550603 1_555
