# generated using pymatgen
data_SmS2
_symmetry_space_group_name_H-M   'P 1'
_cell_length_a   3.99468526
_cell_length_b   7.98039330
_cell_length_c   8.03646364
_cell_angle_alpha   89.89146805
_cell_angle_beta   90.00008139
_cell_angle_gamma   89.99972038
_symmetry_Int_Tables_number   1
_chemical_formula_structural   SmS2
_chemical_formula_sum   'Sm4 S8'
_cell_volume   256.19524661
_cell_formula_units_Z   4
loop_
 _symmetry_equiv_pos_site_id
 _symmetry_equiv_pos_as_xyz
  1  'x, y, z'
loop_
 _atom_site_type_symbol
 _atom_site_label
 _atom_site_symmetry_multiplicity
 _atom_site_fract_x
 _atom_site_fract_y
 _atom_site_fract_z
 _atom_site_occupancy
  Sm  Sm0  1  0.28898781  0.37071053  0.27565374  1
  Sm  Sm1  1  0.78898738  0.12928869  0.72434568  1
  Sm  Sm2  1  0.71101162  0.62928869  0.72434668  1
  Sm  Sm3  1  0.21101319  0.87071153  0.27565474  1
  S  S0  1  0.84386066  0.39179464  0.00297812  1
  S  S1  1  0.34386273  0.10820446  0.99702201  1
  S  S2  1  0.15613827  0.60820546  0.99702201  1
  S  S3  1  0.65613834  0.89179564  0.00297812  1
  S  S4  1  0.26131247  0.37440315  0.63233640  1
  S  S5  1  0.76131255  0.12559654  0.36766406  1
  S  S6  1  0.73868745  0.62559654  0.36766406  1
  S  S7  1  0.23868753  0.87440315  0.63233640  1
loop_
_geom_bond_atom_site_label_1
_geom_bond_atom_site_label_2
_geom_bond_distance
_geom_bond_site_symmetry_2
S0 S2 2.130918 1_654
S0 Sm0 2.826782 1_655
S0 Sm2 2.978549 1_554
S0 Sm1 3.077099 1_554
S0 Sm0 3.121217 1_555
S1 S3 2.130890 1_546
S1 Sm1 2.826785 1_555
S1 Sm3 2.978556 1_546
S1 Sm0 3.077095 1_556
S1 Sm1 3.121223 1_455
S2 Sm2 2.826779 1_455
S2 Sm0 2.978556 1_556
S2 Sm3 3.077102 1_556
S2 Sm2 3.121217 1_555
S3 Sm3 2.826788 1_555
S3 Sm1 2.978555 1_564
S3 Sm2 3.077097 1_554
S3 Sm3 3.121223 1_655
S4 Sm2 2.813731 1_555
S4 Sm1 2.815610 1_455
S4 Sm0 2.868806 1_555
S4 Sm1 2.968302 1_555
S4 Sm2 3.085833 1_455
S5 Sm3 2.813719 1_645
S5 Sm0 2.815594 1_555
S5 Sm1 2.868797 1_555
S5 Sm0 2.968318 1_655
S5 Sm3 3.085837 1_545
S6 Sm0 2.813735 1_555
S6 Sm3 2.815615 1_655
S6 Sm2 2.868805 1_555
S6 Sm3 2.968303 1_555
S6 Sm0 3.085834 1_655
S7 Sm1 2.813720 1_465
S7 Sm2 2.815595 1_555
S7 Sm3 2.868797 1_555
S7 Sm2 2.968322 1_455
S7 Sm1 3.085841 1_565
