# generated using pymatgen
data_SrLa2(CoO3)3
_symmetry_space_group_name_H-M   'P 1'
_cell_length_a   5.50086074
_cell_length_b   8.69820666
_cell_length_c   8.63579601
_cell_angle_alpha   78.49032388
_cell_angle_beta   71.52580596
_cell_angle_gamma   108.57751239
_symmetry_Int_Tables_number   1
_chemical_formula_structural   SrLa2(CoO3)3
_chemical_formula_sum   'Sr2 La4 Co6 O18'
_cell_volume   350.12408586
_cell_formula_units_Z   2
loop_
 _symmetry_equiv_pos_site_id
 _symmetry_equiv_pos_as_xyz
  1  'x, y, z'
loop_
 _atom_site_type_symbol
 _atom_site_label
 _atom_site_symmetry_multiplicity
 _atom_site_fract_x
 _atom_site_fract_y
 _atom_site_fract_z
 _atom_site_occupancy
  Sr  Sr0  1  0.66632800  0.58176200  0.24794800  1
  Sr  Sr1  1  0.66675200  0.08207600  0.75100100  1
  La  La0  1  0.32715800  0.41251000  0.75515500  1
  La  La1  1  0.33595700  0.92278500  0.24732400  1
  La  La2  1  0.00304600  0.24981400  0.25082600  1
  La  La3  1  0.99671800  0.74794300  0.75428400  1
  Co  Co0  1  0.66456300  0.83143700  0.50087500  1
  Co  Co1  1  0.66733100  0.33326500  0.99994000  1
  Co  Co2  1  0.33171000  0.66576000  0.00170600  1
  Co  Co3  1  0.33386500  0.16655200  0.50116700  1
  Co  Co4  1  0.99810600  0.49822000  0.50061400  1
  Co  Co5  1  0.00001200  0.99954500  0.99952300  1
  O  O0  1  0.66903900  0.83454500  0.99675000  1
  O  O1  1  0.66663400  0.33367500  0.50038700  1
  O  O2  1  0.16687900  0.57954900  0.24627000  1
  O  O3  1  0.16789700  0.08525600  0.75192100  1
  O  O4  1  0.16744200  0.83490900  0.99706900  1
  O  O5  1  0.17314300  0.33124900  0.50083400  1
  O  O6  1  0.33216700  0.17055000  0.00540200  1
  O  O7  1  0.32114000  0.66972500  0.50156800  1
  O  O8  1  0.00044300  0.49441200  0.99516100  1
  O  O9  1  0.01311200  0.00182600  0.49520100  1
  O  O10  1  0.48800600  0.73712700  0.75597300  1
  O  O11  1  0.49524900  0.24348800  0.24834300  1
  O  O12  1  0.83757900  0.42238300  0.75269500  1
  O  O13  1  0.84083600  0.93045300  0.24373300  1
  O  O14  1  0.49855000  0.49378300  0.99498200  1
  O  O15  1  0.49492700  0.00025800  0.49569400  1
  O  O16  1  0.83649000  0.17208600  0.00395100  1
  O  O17  1  0.83892400  0.67305900  0.50370200  1
loop_
_geom_bond_atom_site_label_1
_geom_bond_atom_site_label_2
_geom_bond_distance
_geom_bond_site_symmetry_2
La0 O14 2.659920 1_555
La0 O8 2.660386 1_555
La0 O10 2.678735 1_555
La0 O16 2.685126 1_456
La0 O3 2.707258 1_555
La0 O6 2.712947 1_556
La0 O12 2.728285 1_455
La0 O5 2.730957 1_555
La0 O1 2.759015 1_555
La0 O12 2.774733 1_555
La0 O17 2.805947 1_555
La0 O7 2.817856 1_555
La1 O11 2.647007 1_565
La1 O9 2.676722 1_565
La1 O15 2.685015 1_565
La1 O6 2.696129 1_565
La1 O16 2.722136 1_565
La1 O7 2.741545 1_555
La1 O13 2.746852 1_555
La1 O17 2.748794 1_455
La1 O4 2.755266 1_554
La1 O13 2.755324 1_455
La1 O0 2.770349 1_554
La1 O2 2.832927 1_555
La2 O13 2.653240 1_445
La2 O6 2.681742 1_555
La2 O16 2.694483 1_455
La2 O2 2.706528 1_555
La2 O11 2.718982 1_555
La2 O14 2.727826 1_554
La2 O9 2.728213 1_555
La2 O5 2.739867 1_555
La2 O15 2.748184 1_455
La2 O1 2.749770 1_455
La2 O8 2.750691 1_554
La2 O11 2.783276 1_455
La3 O12 2.688705 1_555
La3 O17 2.693164 1_555
La3 O4 2.697819 1_655
La3 O0 2.702499 1_555
La3 O7 2.703414 1_655
La3 O14 2.722798 1_555
La3 O8 2.723207 1_655
La3 O10 2.738438 1_655
La3 O10 2.765083 1_555
La3 O15 2.765396 1_665
La3 O9 2.768436 1_665
La3 O3 2.774728 1_665
Co0 O17 1.913545 1_555
Co0 O7 1.960535 1_555
Co0 O10 1.970916 1_555
Co0 O15 1.975453 1_565
Co0 O13 1.988266 1_555
Co0 O9 1.993977 1_665
Co1 O8 1.901727 1_655
Co1 O14 1.908028 1_555
Co1 O12 1.909587 1_555
Co1 O6 1.913154 1_556
Co1 O16 1.914383 1_556
Co1 O11 1.918633 1_556
Co2 O2 1.888420 1_555
Co2 O10 1.898893 1_554
Co2 O0 1.946598 1_554
Co2 O4 1.956875 1_554
Co2 O8 1.978264 1_554
Co2 O14 1.989725 1_554
Co3 O5 1.908111 1_555
Co3 O9 1.909197 1_555
Co3 O15 1.922692 1_555
Co3 O3 1.935821 1_555
Co3 O1 1.938239 1_555
Co3 O11 1.952665 1_555
Co4 O7 1.925675 1_655
Co4 O1 1.927105 1_555
Co4 O12 1.947150 1_555
Co4 O2 1.963648 1_655
Co4 O5 1.981790 1_655
Co4 O17 1.982455 1_555
Co5 O13 1.887893 1_456
Co5 O3 1.911657 1_565
Co5 O4 1.933795 1_555
Co5 O0 1.936884 1_455
Co5 O6 1.977555 1_566
Co5 O16 1.980973 1_466
O0 Sr1 2.711180 1_565
O0 Sr0 2.756040 1_556
O1 Sr0 2.745243 1_555
O1 Sr1 2.754089 1_555
O2 Sr0 2.745984 1_555
O2 Sr0 2.755127 1_455
O3 Sr1 2.750586 1_555
O3 Sr1 2.750594 1_455
O4 Sr1 2.719755 1_565
O4 Sr0 2.754056 1_456
O5 Sr0 2.730736 1_555
O5 Sr1 2.755883 1_455
O6 Sr1 2.796587 1_554
O7 Sr0 2.819000 1_555
O8 Sr0 2.780235 1_456
O9 Sr1 2.791517 1_455
O10 Sr1 2.830778 1_565
O11 Sr0 2.787982 1_555
O12 Sr1 2.810490 1_555
O13 Sr0 2.863650 1_555
O14 Sr0 2.775718 1_556
O15 Sr1 2.789115 1_555
O16 Sr1 2.786721 1_554
O17 Sr0 2.821099 1_555
