# generated using pymatgen
data_NaCd2In
_symmetry_space_group_name_H-M   'P 1'
_cell_length_a   11.95523521
_cell_length_b   12.47777988
_cell_length_c   12.47778002
_cell_angle_alpha   60.58731784
_cell_angle_beta   61.37590844
_cell_angle_gamma   61.37590800
_symmetry_Int_Tables_number   1
_chemical_formula_structural   NaCd2In
_chemical_formula_sum   'Na1 Cd2 In1'
_cell_volume   1348.99662303
_cell_formula_units_Z   1
loop_
 _symmetry_equiv_pos_site_id
 _symmetry_equiv_pos_as_xyz
  1  'x, y, z'
loop_
 _atom_site_type_symbol
 _atom_site_label
 _atom_site_symmetry_multiplicity
 _atom_site_fract_x
 _atom_site_fract_y
 _atom_site_fract_z
 _atom_site_occupancy
  Na  Na0  1  -0.00000000  -0.00000000  0.00000000  1
  Cd  Cd0  1  0.74728464  0.00000000  -0.00000000  1
  Cd  Cd1  1  0.25271536  1.00000000  0.00000000  1
  In  In0  1  0.50000000  -0.00000000  0.00000000  1
loop_
_geom_bond_atom_site_label_1
_geom_bond_atom_site_label_2
_geom_bond_distance
_geom_bond_site_symmetry_2
Cd0 In0 2.956346 1_555
Cd0 Na0 3.021272 1_655
Cd1 In0 2.956346 1_565
Cd1 Na0 3.021272 1_565
