# generated using pymatgen
data_Nb2GaNi3
_symmetry_space_group_name_H-M   'P 1'
_cell_length_a   4.92160255
_cell_length_b   4.92160255
_cell_length_c   7.77771300
_cell_angle_alpha   90.00000000
_cell_angle_beta   90.00000000
_cell_angle_gamma   120.00000746
_symmetry_Int_Tables_number   1
_chemical_formula_structural   Nb2GaNi3
_chemical_formula_sum   'Nb4 Ga2 Ni6'
_cell_volume   163.15319805
_cell_formula_units_Z   2
loop_
 _symmetry_equiv_pos_site_id
 _symmetry_equiv_pos_as_xyz
  1  'x, y, z'
loop_
 _atom_site_type_symbol
 _atom_site_label
 _atom_site_symmetry_multiplicity
 _atom_site_fract_x
 _atom_site_fract_y
 _atom_site_fract_z
 _atom_site_occupancy
  Nb  Nb0  1  0.33333300  0.66666700  0.44033400  1
  Nb  Nb1  1  0.66666700  0.33333300  0.55966600  1
  Nb  Nb2  1  0.66666700  0.33333300  0.94033400  1
  Nb  Nb3  1  0.33333300  0.66666700  0.05966600  1
  Ga  Ga0  1  0.00000000  0.00000000  0.50000000  1
  Ga  Ga1  1  0.00000000  0.00000000  0.00000000  1
  Ni  Ni0  1  0.82808400  0.17191600  0.25000000  1
  Ni  Ni1  1  0.82808400  0.65616900  0.25000000  1
  Ni  Ni2  1  0.34383100  0.17191600  0.25000000  1
  Ni  Ni3  1  0.17191600  0.82808400  0.75000000  1
  Ni  Ni4  1  0.17191600  0.34383100  0.75000000  1
  Ni  Ni5  1  0.65616900  0.82808400  0.75000000  1
loop_
_geom_bond_atom_site_label_1
_geom_bond_atom_site_label_2
_geom_bond_distance
_geom_bond_site_symmetry_2
Nb0 Ni3 2.773842 1_555
Nb0 Ni4 2.773846 1_555
Nb0 Ni5 2.773846 1_555
Nb0 Ni0 2.872111 1_565
Nb0 Ni0 2.872111 1_455
Nb0 Ni2 2.872111 1_565
Nb0 Ni1 2.872111 1_455
Nb0 Ni1 2.872111 1_555
Nb0 Ni2 2.872111 1_555
Nb0 Nb3 2.960726 1_555
Nb0 Nb1 2.989225 1_565
Nb0 Nb1 2.989225 1_455
Nb0 Nb1 2.989233 1_555
Nb1 Ni0 2.773842 1_555
Nb1 Ni2 2.773846 1_555
Nb1 Ni1 2.773846 1_555
Nb1 Ni3 2.872111 1_655
Nb1 Ni3 2.872111 1_545
Nb1 Ni4 2.872111 1_655
Nb1 Ni5 2.872111 1_545
Nb1 Ni5 2.872111 1_555
Nb1 Ni4 2.872111 1_555
Nb1 Nb2 2.960726 1_555
Nb2 Ni0 2.773842 1_556
Nb2 Ni1 2.773846 1_556
Nb2 Ni2 2.773846 1_556
Nb2 Ni3 2.872111 1_655
Nb2 Ni3 2.872111 1_545
Nb2 Ni4 2.872111 1_655
Nb2 Ni5 2.872111 1_545
Nb2 Ni5 2.872111 1_555
Nb2 Ni4 2.872111 1_555
Nb2 Nb3 2.989225 1_546
Nb2 Nb3 2.989225 1_656
Nb2 Nb3 2.989233 1_556
Nb3 Ni3 2.773842 1_554
Nb3 Ni4 2.773846 1_554
Nb3 Ni5 2.773846 1_554
Nb3 Ni0 2.872111 1_565
Nb3 Ni0 2.872111 1_455
Nb3 Ni2 2.872111 1_565
Nb3 Ni1 2.872111 1_455
Nb3 Ni1 2.872111 1_555
Nb3 Ni2 2.872111 1_555
Ga0 Ni1 2.434842 1_445
Ga0 Ni5 2.434842 1_445
Ga0 Ni4 2.434842 1_555
Ga0 Ni2 2.434842 1_555
Ga0 Ni3 2.434845 1_545
Ga0 Ni0 2.434845 1_455
Ga0 Nb0 2.879131 1_545
Ga0 Nb1 2.879131 1_455
Ga0 Nb1 2.879135 1_445
Ga0 Nb1 2.879135 1_555
Ga0 Nb0 2.879135 1_445
Ga0 Nb0 2.879135 1_555
Ga1 Ni1 2.434842 1_445
Ga1 Ni5 2.434842 1_444
Ga1 Ni4 2.434842 1_554
Ga1 Ni2 2.434842 1_555
Ga1 Ni0 2.434845 1_455
Ga1 Ni3 2.434845 1_544
Ga1 Nb3 2.879131 1_545
Ga1 Nb2 2.879131 1_454
Ga1 Nb3 2.879135 1_445
Ga1 Nb2 2.879135 1_554
Ga1 Nb2 2.879135 1_444
Ga1 Nb3 2.879135 1_555
Ni0 Ni2 2.383301 1_555
Ni0 Ni1 2.383301 1_555
Ni0 Ni1 2.538302 1_545
Ni0 Ni2 2.538302 1_655
Ni1 Ni2 2.383301 1_555
Ni1 Ni2 2.538301 1_665
Ni3 Ni4 2.383301 1_555
Ni3 Ni5 2.383301 1_555
Ni3 Ni5 2.538302 1_455
Ni3 Ni4 2.538302 1_565
Ni4 Ni5 2.383301 1_555
Ni4 Ni5 2.538301 1_445
