# generated using pymatgen
data_Rb2LiPu(Cl2O)2
_symmetry_space_group_name_H-M   'P 1'
_cell_length_a   6.40406156
_cell_length_b   6.89903192
_cell_length_c   6.97809500
_cell_angle_alpha   69.05510347
_cell_angle_beta   105.75227474
_cell_angle_gamma   93.76457914
_symmetry_Int_Tables_number   1
_chemical_formula_structural   Rb2LiPu(Cl2O)2
_chemical_formula_sum   'Rb2 Li1 Pu1 Cl4 O2'
_cell_volume   276.95109319
_cell_formula_units_Z   1
loop_
 _symmetry_equiv_pos_site_id
 _symmetry_equiv_pos_as_xyz
  1  'x, y, z'
loop_
 _atom_site_type_symbol
 _atom_site_label
 _atom_site_symmetry_multiplicity
 _atom_site_fract_x
 _atom_site_fract_y
 _atom_site_fract_z
 _atom_site_occupancy
  Rb  Rb0  1  0.68456600  0.78118700  0.93052300  1
  Rb  Rb1  1  0.30929300  0.19621000  0.06836000  1
  Li  Li0  1  0.88432900  0.19138200  0.41092500  1
  Pu  Pu0  1  0.51502300  0.49803600  0.50174000  1
  Cl  Cl0  1  0.74037800  0.86668000  0.41121400  1
  Cl  Cl1  1  0.78618700  0.28043800  0.89855800  1
  Cl  Cl2  1  0.25791200  0.14998000  0.57383400  1
  Cl  Cl3  1  0.22210400  0.68529600  0.11667200  1
  O  O0  1  0.66125700  0.39330900  0.36100900  1
  O  O1  1  0.37645200  0.59637100  0.64383100  1
loop_
_geom_bond_atom_site_label_1
_geom_bond_atom_site_label_2
_geom_bond_distance
_geom_bond_site_symmetry_2
Li0 O0 1.935742 1_555
Cl0 Li0 2.365297 1_565
Cl0 Pu0 2.795449 1_555
Cl0 Rb1 3.444301 1_565
Cl0 Rb0 3.530275 1_554
Cl0 Rb0 3.571407 1_555
Cl1 Pu0 2.774228 1_555
Cl1 Rb1 3.251509 1_656
Cl1 Rb0 3.401766 1_545
Cl1 Rb1 3.508338 1_556
Cl1 Rb0 3.651449 1_555
Cl2 Li0 2.340640 1_455
Cl2 Pu0 2.792336 1_555
Cl2 Rb1 3.503560 1_556
Cl2 Rb1 3.530375 1_555
Cl2 Rb0 3.581485 1_545
Cl3 Pu0 2.740018 1_555
Cl3 Rb0 3.351426 1_454
Cl3 Rb1 3.441500 1_565
Cl3 Rb0 3.480429 1_554
Cl3 Rb1 3.601897 1_555
O0 Pu0 1.859812 1_555
O0 Rb1 3.191154 1_555
O0 Rb0 3.263576 1_554
O1 Pu0 1.807926 1_555
O1 Rb0 2.978499 1_555
O1 Rb1 3.357265 1_556
