# generated using pymatgen
data_Mg6NiSn
_symmetry_space_group_name_H-M   'P 1'
_cell_length_a   6.90493624
_cell_length_b   9.95414006
_cell_length_c   9.95414006
_cell_angle_alpha   90.00000000
_cell_angle_beta   90.00000000
_cell_angle_gamma   90.00000000
_symmetry_Int_Tables_number   1
_chemical_formula_structural   Mg6NiSn
_chemical_formula_sum   'Mg24 Ni4 Sn4'
_cell_volume   684.17494677
_cell_formula_units_Z   4
loop_
 _symmetry_equiv_pos_site_id
 _symmetry_equiv_pos_as_xyz
  1  'x, y, z'
loop_
 _atom_site_type_symbol
 _atom_site_label
 _atom_site_symmetry_multiplicity
 _atom_site_fract_x
 _atom_site_fract_y
 _atom_site_fract_z
 _atom_site_occupancy
  Mg  Mg0  1  0.22595952  0.23917021  0.52320389  1
  Mg  Mg1  1  0.22595952  0.76082979  0.47679611  1
  Mg  Mg2  1  0.72595952  0.47679611  0.23917021  1
  Mg  Mg3  1  0.72595952  0.23917021  0.47679611  1
  Mg  Mg4  1  0.72595952  0.52320389  0.76082979  1
  Mg  Mg5  1  0.72595952  0.76082979  0.52320389  1
  Mg  Mg6  1  0.22595952  0.47679611  0.76082979  1
  Mg  Mg7  1  0.22595952  0.52320389  0.23917021  1
  Mg  Mg8  1  0.02896040  0.03607906  0.34645053  1
  Mg  Mg9  1  0.02896040  0.96392094  0.65354947  1
  Mg  Mg10  1  0.52896040  0.65354947  0.03607906  1
  Mg  Mg11  1  0.52896040  0.03607906  0.65354947  1
  Mg  Mg12  1  0.52896040  0.34645053  0.96392094  1
  Mg  Mg13  1  0.52896040  0.96392094  0.34645053  1
  Mg  Mg14  1  0.02896040  0.65354947  0.96392094  1
  Mg  Mg15  1  0.02896040  0.34645053  0.03607906  1
  Mg  Mg16  1  0.46948133  0.50000000  0.50000000  1
  Mg  Mg17  1  0.96948133  0.50000000  0.50000000  1
  Mg  Mg18  1  0.99912995  0.00000000  0.00000000  1
  Mg  Mg19  1  0.49912995  -0.00000000  0.00000000  1
  Mg  Mg20  1  0.33675232  0.22572895  0.22572895  1
  Mg  Mg21  1  0.33675232  0.77427105  0.77427105  1
  Mg  Mg22  1  0.83675232  0.77427105  0.22572895  1
  Mg  Mg23  1  0.83675232  0.22572895  0.77427105  1
  Ni  Ni0  1  0.00878215  0.30947046  0.30947046  1
  Ni  Ni1  1  0.00878215  0.69052954  0.69052954  1
  Ni  Ni2  1  0.50878215  0.69052954  0.30947046  1
  Ni  Ni3  1  0.50878215  0.30947046  0.69052954  1
  Sn  Sn0  1  0.74117003  0.17146115  0.17146115  1
  Sn  Sn1  1  0.74117003  0.82853885  0.82853885  1
  Sn  Sn2  1  0.24117003  0.82853885  0.17146115  1
  Sn  Sn3  1  0.24117003  0.17146115  0.82853885  1
loop_
_geom_bond_atom_site_label_1
_geom_bond_atom_site_label_2
_geom_bond_distance
_geom_bond_site_symmetry_2
Mg0 Ni3 2.660370 1_555
Mg0 Ni0 2.695343 1_555
Mg0 Mg8 3.005456 1_555
Mg0 Mg20 3.061259 1_555
Mg0 Mg16 3.101897 1_555
Mg0 Sn3 3.114951 1_555
Mg0 Mg17 3.151290 1_455
Mg0 Mg11 3.185532 1_555
Mg0 Mg9 3.322749 1_545
Mg1 Ni2 2.660370 1_555
Mg1 Ni1 2.695343 1_555
Mg1 Mg9 3.005456 1_555
Mg1 Mg21 3.061259 1_555
Mg1 Mg16 3.101897 1_555
Mg1 Sn2 3.114951 1_555
Mg1 Mg17 3.151290 1_455
Mg1 Mg13 3.185532 1_555
Mg1 Mg8 3.322749 1_565
Mg2 Ni0 2.660370 1_655
Mg2 Ni2 2.695343 1_555
Mg2 Mg22 3.061259 1_555
Mg2 Sn0 3.114951 1_555
Mg3 Ni0 2.660370 1_655
Mg3 Ni3 2.695343 1_555
Mg3 Sn0 3.114951 1_555
Mg3 Mg8 3.185532 1_655
Mg4 Ni1 2.660370 1_655
Mg4 Ni3 2.695343 1_555
Mg4 Sn1 3.114951 1_555
Mg5 Ni1 2.660370 1_655
Mg5 Ni2 2.695343 1_555
Mg5 Sn1 3.114951 1_555
Mg5 Mg9 3.185532 1_655
Mg6 Ni3 2.660370 1_555
Mg6 Ni1 2.695343 1_555
Mg6 Sn3 3.114951 1_555
Mg7 Ni2 2.660370 1_555
Mg7 Ni0 2.695343 1_555
Mg7 Sn2 3.114951 1_555
Mg8 Ni0 2.749691 1_555
Mg8 Sn0 2.966315 1_455
Mg8 Sn2 3.073934 1_545
Mg8 Mg9 3.140157 1_545
Mg9 Ni1 2.749691 1_555
Mg9 Sn1 2.966315 1_455
Mg9 Sn3 3.073934 1_565
Mg10 Ni2 2.749691 1_555
Mg10 Sn2 2.966315 1_555
Mg10 Mg2 3.005456 1_555
Mg10 Sn1 3.073934 1_554
Mg10 Mg22 3.086205 1_555
Mg10 Mg12 3.140157 1_554
Mg10 Mg21 3.161815 1_554
Mg10 Mg7 3.185532 1_555
Mg10 Mg4 3.322749 1_554
Mg10 Mg19 3.473380 1_565
Mg10 Mg14 3.526393 1_654
Mg10 Mg14 3.526393 1_554
Mg11 Ni3 2.749691 1_555
Mg11 Sn3 2.966315 1_555
Mg11 Mg3 3.005456 1_555
Mg11 Sn1 3.073934 1_545
Mg11 Mg23 3.086205 1_555
Mg11 Mg13 3.140157 1_545
Mg11 Mg21 3.161815 1_545
Mg11 Mg5 3.322749 1_545
Mg11 Mg19 3.473380 1_556
Mg11 Mg9 3.526393 1_645
Mg11 Mg9 3.526393 1_545
Mg12 Ni3 2.749691 1_555
Mg12 Sn3 2.966315 1_555
Mg12 Mg4 3.005456 1_555
Mg12 Sn0 3.073934 1_556
Mg12 Mg23 3.086205 1_555
Mg12 Mg20 3.161815 1_556
Mg12 Mg6 3.185532 1_555
Mg12 Mg2 3.322749 1_556
Mg12 Mg19 3.473380 1_556
Mg12 Mg15 3.526393 1_656
Mg12 Mg15 3.526393 1_556
Mg13 Ni2 2.749691 1_555
Mg13 Sn2 2.966315 1_555
Mg13 Mg5 3.005456 1_555
Mg13 Sn0 3.073934 1_565
Mg13 Mg22 3.086205 1_555
Mg13 Mg20 3.161815 1_565
Mg13 Mg3 3.322749 1_565
Mg13 Mg19 3.473380 1_565
Mg13 Mg8 3.526393 1_665
Mg13 Mg8 3.526393 1_565
Mg14 Ni1 2.749691 1_555
Mg14 Sn1 2.966315 1_455
Mg14 Mg6 3.005456 1_555
Mg14 Sn2 3.073934 1_556
Mg14 Mg21 3.086205 1_555
Mg14 Mg15 3.140157 1_556
Mg14 Mg22 3.161815 1_456
Mg14 Mg4 3.185532 1_455
Mg14 Mg7 3.322749 1_556
Mg14 Mg18 3.473380 1_466
Mg15 Ni0 2.749691 1_555
Mg15 Sn0 2.966315 1_455
Mg15 Mg7 3.005456 1_555
Mg15 Sn3 3.073934 1_554
Mg15 Mg20 3.086205 1_555
Mg15 Mg23 3.161815 1_454
Mg15 Mg2 3.185532 1_455
Mg15 Mg6 3.322749 1_554
Mg15 Mg18 3.473380 1_455
Mg16 Ni3 2.695831 1_555
Mg16 Ni2 2.695831 1_555
Mg16 Mg7 3.101897 1_555
Mg16 Mg6 3.101897 1_555
Mg16 Mg3 3.151290 1_555
Mg16 Mg2 3.151290 1_555
Mg16 Mg5 3.151290 1_555
Mg16 Mg4 3.151290 1_555
Mg16 Mg17 3.452468 1_555
Mg16 Mg17 3.452468 1_455
Mg17 Ni0 2.695831 1_655
Mg17 Ni1 2.695831 1_655
Mg17 Mg3 3.101897 1_555
Mg17 Mg2 3.101897 1_555
Mg17 Mg5 3.101897 1_555
Mg17 Mg4 3.101897 1_555
Mg17 Mg7 3.151290 1_655
Mg17 Mg6 3.151290 1_655
Mg18 Sn3 2.935835 1_654
Mg18 Sn2 2.935835 1_645
Mg18 Sn1 2.999774 1_544
Mg18 Sn0 2.999774 1_555
Mg18 Mg22 3.369653 1_545
Mg18 Mg23 3.369653 1_554
Mg18 Mg19 3.452468 1_655
Mg18 Mg19 3.452468 1_555
Mg18 Mg9 3.473380 1_644
Mg18 Mg8 3.473380 1_655
Mg19 Sn1 2.935835 1_544
Mg19 Sn0 2.935835 1_555
Mg19 Sn2 2.999774 1_545
Mg19 Sn3 2.999774 1_554
Mg19 Mg20 3.369653 1_555
Mg19 Mg21 3.369653 1_544
Mg20 Ni0 2.553070 1_555
Mg20 Sn0 2.895090 1_555
Mg20 Mg7 3.061259 1_555
Mg20 Mg8 3.086205 1_555
Mg21 Ni1 2.553070 1_555
Mg21 Sn1 2.895090 1_555
Mg21 Mg6 3.061259 1_555
Mg21 Mg9 3.086205 1_555
Mg22 Ni2 2.553070 1_555
Mg22 Sn2 2.895090 1_655
Mg22 Mg5 3.061259 1_555
Mg22 Mg8 3.161815 1_665
Mg23 Ni3 2.553070 1_555
Mg23 Sn3 2.895090 1_655
Mg23 Mg3 3.061259 1_555
Mg23 Mg4 3.061259 1_555
Mg23 Mg9 3.161815 1_645
Ni0 Sn0 2.681228 1_455
Ni1 Sn1 2.681228 1_455
Ni2 Sn2 2.681228 1_555
Ni3 Sn3 2.681228 1_555
