# generated using pymatgen
data_YTaBi2O7
_symmetry_space_group_name_H-M   'P 1'
_cell_length_a   7.70475266
_cell_length_b   7.70475266
_cell_length_c   7.70475266
_cell_angle_alpha   120.32677548
_cell_angle_beta   119.89815684
_cell_angle_gamma   89.80571519
_symmetry_Int_Tables_number   1
_chemical_formula_structural   YTaBi2O7
_chemical_formula_sum   'Y2 Ta2 Bi4 O14'
_cell_volume   322.85824263
_cell_formula_units_Z   2
loop_
 _symmetry_equiv_pos_site_id
 _symmetry_equiv_pos_as_xyz
  1  'x, y, z'
loop_
 _atom_site_type_symbol
 _atom_site_label
 _atom_site_symmetry_multiplicity
 _atom_site_fract_x
 _atom_site_fract_y
 _atom_site_fract_z
 _atom_site_occupancy
  Y  Y0  1  0.00000000  0.50000000  0.00000000  1
  Y  Y1  1  0.00000000  0.00000000  0.50000000  1
  Ta  Ta0  1  0.00000000  0.50000000  0.50000000  1
  Ta  Ta1  1  0.50000000  0.50000000  0.00000000  1
  Bi  Bi0  1  0.50000000  0.00000000  0.00000000  1
  Bi  Bi1  1  0.50000000  0.50000000  0.50000000  1
  Bi  Bi2  1  0.50000000  0.00000000  0.50000000  1
  Bi  Bi3  1  0.00000000  0.00000000  0.00000000  1
  O  O0  1  0.61907400  0.86907400  0.75000000  1
  O  O1  1  0.38092600  0.13092600  0.25000000  1
  O  O2  1  0.26657100  0.51657100  0.75000000  1
  O  O3  1  0.89076200  0.14076200  0.75000000  1
  O  O4  1  0.36243400  0.18171100  0.79729400  1
  O  O5  1  0.88441700  0.56514000  0.70270600  1
  O  O6  1  0.36243400  0.56514000  0.18072300  1
  O  O7  1  0.88441700  0.18171100  0.31927700  1
  O  O8  1  0.73342900  0.48342900  0.25000000  1
  O  O9  1  0.10923800  0.85923800  0.25000000  1
  O  O10  1  0.63756600  0.81828900  0.20270600  1
  O  O11  1  0.11558300  0.43486000  0.29729400  1
  O  O12  1  0.63756600  0.43486000  0.81927700  1
  O  O13  1  0.11558300  0.81828900  0.68072300  1
loop_
_geom_bond_atom_site_label_1
_geom_bond_atom_site_label_2
_geom_bond_distance
_geom_bond_site_symmetry_2
Bi0 O1 2.315749 1_555
Bi0 O0 2.315749 1_544
Bi0 O10 2.463848 1_545
Bi0 O7 2.463848 1_555
Bi0 O4 2.463848 1_554
Bi0 O13 2.463848 1_544
Bi1 O0 2.315749 1_555
Bi1 O1 2.315749 1_555
Bi1 O11 2.463848 1_555
Bi1 O5 2.463848 1_555
Bi1 O6 2.463848 1_555
Bi1 O12 2.463848 1_555
Bi2 O1 2.400769 1_555
Bi2 O0 2.400769 1_545
Bi2 O9 2.466180 1_545
Bi2 O3 2.466180 1_555
Bi2 O10 2.738979 1_545
Bi2 O4 2.738979 1_555
Bi2 O6 2.738979 1_545
Bi2 O12 2.738979 1_555
Bi3 O0 2.400769 1_444
Bi3 O1 2.400769 1_555
Bi3 O3 2.466180 1_454
Bi3 O9 2.466180 1_545
Bi3 O7 2.738979 1_455
Bi3 O5 2.738979 1_444
Bi3 O11 2.738979 1_555
Bi3 O13 2.738979 1_544
O2 Ta1 1.937612 1_556
O2 Ta0 1.937612 1_555
O3 Y1 2.257248 1_655
O3 Y0 2.257248 1_656
O4 Ta1 2.018940 1_556
O4 Y1 2.327240 1_555
O5 Ta0 2.018940 1_655
O5 Y0 2.327240 1_656
O6 Ta1 2.018940 1_555
O6 Y0 2.327240 1_555
O7 Ta0 2.018940 1_655
O7 Y1 2.327240 1_655
O8 Ta0 1.937612 1_655
O8 Ta1 1.937612 1_555
O9 Y0 2.257248 1_555
O9 Y1 2.257248 1_565
O10 Ta1 2.018940 1_555
O10 Y1 2.327240 1_665
O11 Ta0 2.018940 1_555
O11 Y0 2.327240 1_555
O12 Ta1 2.018940 1_556
O12 Y0 2.327240 1_656
O13 Ta0 2.018940 1_555
O13 Y1 2.327240 1_565
