# generated using pymatgen
data_La2Cu(NF)2
_symmetry_space_group_name_H-M   'P 1'
_cell_length_a   7.12875676
_cell_length_b   7.12875676
_cell_length_c   7.12875676
_cell_angle_alpha   147.05683415
_cell_angle_beta   147.05683415
_cell_angle_gamma   47.27963735
_symmetry_Int_Tables_number   1
_chemical_formula_structural   La2Cu(NF)2
_chemical_formula_sum   'La2 Cu1 N2 F2'
_cell_volume   106.72465366
_cell_formula_units_Z   1
loop_
 _symmetry_equiv_pos_site_id
 _symmetry_equiv_pos_as_xyz
  1  'x, y, z'
loop_
 _atom_site_type_symbol
 _atom_site_label
 _atom_site_symmetry_multiplicity
 _atom_site_fract_x
 _atom_site_fract_y
 _atom_site_fract_z
 _atom_site_occupancy
  La  La0  1  0.37718000  0.37718000  0.00000000  1
  La  La1  1  0.62282000  0.62282000  0.00000000  1
  Cu  Cu0  1  0.00000000  0.00000000  0.00000000  1
  N  N0  1  0.50000000  0.00000000  0.50000000  1
  N  N1  1  0.00000000  0.50000000  0.50000000  1
  F  F0  1  0.75000000  0.25000000  0.50000000  1
  F  F1  1  0.25000000  0.75000000  0.50000000  1
loop_
_geom_bond_atom_site_label_1
_geom_bond_atom_site_label_2
_geom_bond_distance
_geom_bond_site_symmetry_2
La0 N0 2.580491 1_565
La0 N1 2.580491 1_554
La0 N0 2.580491 1_554
La0 N1 2.580491 1_655
La1 N0 2.580491 1_565
La1 N1 2.580491 1_554
La1 N0 2.580491 1_554
La1 N1 2.580491 1_655
Cu0 N1 2.021286 1_544
Cu0 N0 2.021286 1_454
Cu0 N0 2.021286 1_555
Cu0 N1 2.021286 1_555
F0 La1 2.616272 1_545
F0 La1 2.616272 1_556
F0 La0 2.616272 1_555
F0 La0 2.616272 1_656
F1 La1 2.616272 1_455
F1 La1 2.616272 1_556
F1 La0 2.616272 1_555
F1 La0 2.616272 1_566
