# generated using pymatgen
data_Dy6Mn(SiS7)2
_symmetry_space_group_name_H-M   'P 1'
_cell_length_a   9.92247439
_cell_length_b   9.92247439
_cell_length_c   5.61516900
_cell_angle_alpha   90.00000000
_cell_angle_beta   90.00000000
_cell_angle_gamma   120.00000258
_symmetry_Int_Tables_number   1
_chemical_formula_structural   Dy6Mn(SiS7)2
_chemical_formula_sum   'Dy6 Mn1 Si2 S14'
_cell_volume   478.77716111
_cell_formula_units_Z   1
loop_
 _symmetry_equiv_pos_site_id
 _symmetry_equiv_pos_as_xyz
  1  'x, y, z'
loop_
 _atom_site_type_symbol
 _atom_site_label
 _atom_site_symmetry_multiplicity
 _atom_site_fract_x
 _atom_site_fract_y
 _atom_site_fract_z
 _atom_site_occupancy
  Dy  Dy0  1  0.97729700  0.43320000  0.75053400  1
  Dy  Dy1  1  0.45590300  0.02270300  0.75053400  1
  Dy  Dy2  1  0.56680000  0.54409700  0.75053400  1
  Dy  Dy3  1  0.68907700  0.89990100  0.25001200  1
  Dy  Dy4  1  0.21082500  0.31092300  0.25001200  1
  Dy  Dy5  1  0.10009900  0.78917500  0.25001200  1
  Mn  Mn0  1  0.33333300  0.66666700  0.51188800  1
  Si  Si0  1  0.66666700  0.33333300  0.16509400  1
  Si  Si1  1  0.00000000  0.00000000  0.66289600  1
  S  S0  1  0.66666700  0.33333300  0.54062600  1
  S  S1  1  0.00000000  0.00000000  0.03866100  1
  S  S2  1  0.08456800  0.50449900  0.27246100  1
  S  S3  1  0.41993100  0.91543200  0.27246100  1
  S  S4  1  0.49550100  0.58006900  0.27246100  1
  S  S5  1  0.58199400  0.83076200  0.75610100  1
  S  S6  1  0.24876800  0.41800600  0.75610100  1
  S  S7  1  0.16923800  0.75123200  0.75610100  1
  S  S8  1  0.81423500  0.55896700  0.01390700  1
  S  S9  1  0.74473200  0.18576500  0.01390700  1
  S  S10  1  0.44103300  0.25526800  0.01390700  1
  S  S11  1  0.85285600  0.77434100  0.51194200  1
  S  S12  1  0.92148600  0.14714400  0.51194200  1
  S  S13  1  0.22565900  0.07851400  0.51194200  1
loop_
_geom_bond_atom_site_label_1
_geom_bond_atom_site_label_2
_geom_bond_distance
_geom_bond_site_symmetry_2
Dy0 S7 2.752521 1_655
Dy0 S6 2.772298 1_655
Dy0 S9 2.806147 1_556
Dy0 S2 2.843721 1_655
Dy0 S8 2.895058 1_556
Dy0 S12 2.930211 1_555
Dy0 S0 2.969345 1_555
Dy0 S2 3.077250 1_656
Dy1 S5 2.752521 1_545
Dy1 S7 2.772298 1_545
Dy1 S10 2.806147 1_556
Dy1 S3 2.843721 1_545
Dy1 S9 2.895058 1_556
Dy1 S13 2.930202 1_555
Dy1 S0 2.969347 1_555
Dy1 S3 3.077250 1_546
Dy2 S6 2.752521 1_555
Dy2 S5 2.772298 1_555
Dy2 S8 2.806147 1_556
Dy2 S4 2.843721 1_555
Dy2 S10 2.895058 1_556
Dy2 S11 2.930208 1_555
Dy2 S0 2.969354 1_555
Dy2 S4 3.077250 1_556
Dy3 S3 2.753773 1_555
Dy3 S4 2.771441 1_555
Dy3 S12 2.800404 1_565
Dy3 S11 2.894988 1_555
Dy3 S9 2.922642 1_565
Dy3 S5 2.926156 1_554
Dy3 S1 2.974675 1_665
Dy3 S5 2.991047 1_555
Dy4 S4 2.753768 1_555
Dy4 S2 2.771449 1_555
Dy4 S13 2.800404 1_555
Dy4 S12 2.894988 1_455
Dy4 S10 2.922633 1_555
Dy4 S6 2.926157 1_554
Dy4 S1 2.974677 1_555
Dy4 S6 2.991048 1_555
Dy5 S2 2.753763 1_555
Dy5 S3 2.771440 1_555
Dy5 S11 2.800404 1_455
Dy5 S13 2.894988 1_565
Dy5 S8 2.922639 1_455
Dy5 S7 2.926154 1_554
Dy5 S1 2.974684 1_565
Dy5 S7 2.991045 1_555
Mn0 S3 2.552969 1_555
Mn0 S2 2.552971 1_555
Mn0 S4 2.552977 1_555
Mn0 S7 2.569416 1_555
Mn0 S5 2.569423 1_555
Mn0 S6 2.569424 1_555
S0 Si0 2.108676 1_555
S1 Si1 2.109984 1_554
S8 Si0 2.144511 1_555
S9 Si0 2.144504 1_555
S10 Si0 2.144512 1_555
S11 Si1 2.143495 1_665
S12 Si1 2.143488 1_655
S13 Si1 2.143497 1_555
