# generated using pymatgen
data_NaAlTe2
_symmetry_space_group_name_H-M   'P 1'
_cell_length_a   6.85056373
_cell_length_b   6.77366944
_cell_length_c   6.77366986
_cell_angle_alpha   75.18445409
_cell_angle_beta   59.62376943
_cell_angle_gamma   59.62377639
_symmetry_Int_Tables_number   1
_chemical_formula_structural   NaAlTe2
_chemical_formula_sum   'Na2 Al2 Te4'
_cell_volume   233.94709066
_cell_formula_units_Z   2
loop_
 _symmetry_equiv_pos_site_id
 _symmetry_equiv_pos_as_xyz
  1  'x, y, z'
loop_
 _atom_site_type_symbol
 _atom_site_label
 _atom_site_symmetry_multiplicity
 _atom_site_fract_x
 _atom_site_fract_y
 _atom_site_fract_z
 _atom_site_occupancy
  Na  Na0  1  0.25000000  0.00000000  -0.00000000  1
  Na  Na1  1  0.75000000  0.00000000  -0.00000000  1
  Al  Al0  1  0.25000000  0.50000000  0.50000000  1
  Al  Al1  1  0.75000000  0.50000000  0.50000000  1
  Te  Te0  1  0.17225884  0.50000000  0.15548232  1
  Te  Te1  1  0.32774116  0.84451768  0.50000000  1
  Te  Te2  1  0.67225884  0.15548232  0.50000000  1
  Te  Te3  1  0.82774116  0.50000000  0.84451768  1
loop_
_geom_bond_atom_site_label_1
_geom_bond_atom_site_label_2
_geom_bond_distance
_geom_bond_site_symmetry_2
Na0 Te0 3.506596 1_555
Na0 Te0 3.506596 1_545
Na0 Te1 3.506597 1_544
Na0 Te2 3.506597 1_554
Na0 Te1 3.506597 1_545
Na0 Te2 3.506597 1_455
Na0 Te3 3.506597 1_454
Na0 Te3 3.506597 1_544
Na1 Te3 3.506596 1_544
Na1 Te3 3.506596 1_554
Na1 Te2 3.506597 1_555
Na1 Te1 3.506597 1_545
Na1 Te2 3.506597 1_554
Na1 Te1 3.506597 1_644
Na1 Te0 3.506597 1_645
Na1 Te0 3.506597 1_555
Al0 Te1 2.643197 1_555
Al0 Te0 2.643197 1_555
Al0 Te3 2.643197 1_455
Al0 Te2 2.643197 1_555
Al1 Te2 2.643197 1_555
Al1 Te3 2.643197 1_555
Al1 Te0 2.643197 1_655
Al1 Te1 2.643197 1_555
