# generated using pymatgen
data_Nb(C2N3)3
_symmetry_space_group_name_H-M   'P 1'
_cell_length_a   7.01285897
_cell_length_b   11.98754942
_cell_length_c   12.35578800
_cell_angle_alpha   90.00000000
_cell_angle_beta   90.00000000
_cell_angle_gamma   31.27522043
_symmetry_Int_Tables_number   1
_chemical_formula_structural   Nb(C2N3)3
_chemical_formula_sum   'Nb2 C12 N18'
_cell_volume   539.24785115
_cell_formula_units_Z   2
loop_
 _symmetry_equiv_pos_site_id
 _symmetry_equiv_pos_as_xyz
  1  'x, y, z'
loop_
 _atom_site_type_symbol
 _atom_site_label
 _atom_site_symmetry_multiplicity
 _atom_site_fract_x
 _atom_site_fract_y
 _atom_site_fract_z
 _atom_site_occupancy
  Nb  Nb0  1  0.00000000  0.27426900  0.25000000  1
  Nb  Nb1  1  0.00000000  0.72573100  0.75000000  1
  C  C0  1  0.68622600  0.75447200  0.25000000  1
  C  C1  1  0.68622600  0.55930100  0.75000000  1
  C  C2  1  0.31377400  0.24552800  0.75000000  1
  C  C3  1  0.31377400  0.44069900  0.25000000  1
  C  C4  1  0.68859800  0.30373100  0.90244500  1
  C  C5  1  0.68859800  0.00767100  0.09755500  1
  C  C6  1  0.68859800  0.30373100  0.59755500  1
  C  C7  1  0.68859800  0.00767100  0.40244500  1
  C  C8  1  0.31140200  0.69626900  0.09755500  1
  C  C9  1  0.31140200  0.99232900  0.90244500  1
  C  C10  1  0.31140200  0.69626900  0.40244500  1
  C  C11  1  0.31140200  0.99232900  0.59755500  1
  N  N0  1  0.00000000  0.54723000  0.25000000  1
  N  N1  1  0.00000000  0.45277000  0.75000000  1
  N  N2  1  0.38844700  0.94265500  0.25000000  1
  N  N3  1  0.38844700  0.66889800  0.75000000  1
  N  N4  1  0.61155300  0.05734500  0.75000000  1
  N  N5  1  0.61155300  0.33110200  0.25000000  1
  N  N6  1  0.00000000  0.12142500  0.94372200  1
  N  N7  1  0.00000000  0.87857500  0.05627800  1
  N  N8  1  0.00000000  0.12142500  0.55627800  1
  N  N9  1  0.00000000  0.87857500  0.44372200  1
  N  N10  1  0.39247300  0.47320300  0.86907700  1
  N  N11  1  0.39247300  0.13432400  0.13092300  1
  N  N12  1  0.39247300  0.47320300  0.63092300  1
  N  N13  1  0.39247300  0.13432400  0.36907700  1
  N  N14  1  0.60752700  0.52679700  0.13092300  1
  N  N15  1  0.60752700  0.86567600  0.86907700  1
  N  N16  1  0.60752700  0.52679700  0.36907700  1
  N  N17  1  0.60752700  0.86567600  0.63092300  1
loop_
_geom_bond_atom_site_label_1
_geom_bond_atom_site_label_2
_geom_bond_distance
_geom_bond_site_symmetry_2
C0 N2 1.182037 1_555
C0 N0 1.292040 1_655
C1 N3 1.182032 1_555
C1 N1 1.292046 1_655
C2 N4 1.182037 1_555
C2 N1 1.292040 1_555
C3 N5 1.182032 1_555
C3 N0 1.292046 1_555
C4 N10 1.182442 1_555
C4 N6 1.283419 1_655
C5 N11 1.182442 1_555
C5 N7 1.283419 1_645
C6 N12 1.182442 1_555
C6 N8 1.283419 1_655
C7 N13 1.182442 1_555
C7 N9 1.283419 1_645
C8 N14 1.182442 1_555
C8 N7 1.283419 1_555
C9 N15 1.182442 1_555
C9 N6 1.283419 1_565
C10 N16 1.182442 1_555
C10 N9 1.283419 1_555
C11 N17 1.182442 1_555
C11 N8 1.283419 1_565
N2 Nb0 2.170845 1_565
N3 Nb1 2.170845 1_555
N4 Nb1 2.170845 1_645
N5 Nb0 2.170845 1_655
N10 Nb1 2.159111 1_555
N11 Nb0 2.159111 1_555
N12 Nb1 2.159111 1_555
N13 Nb0 2.159111 1_555
N14 Nb0 2.159111 1_655
N15 Nb1 2.159111 1_655
N16 Nb0 2.159111 1_655
N17 Nb1 2.159111 1_655
