# generated using pymatgen
data_Mg30AlNiO32
_symmetry_space_group_name_H-M   'P 1'
_cell_length_a   8.52351300
_cell_length_b   8.52351300
_cell_length_c   8.47225400
_cell_angle_alpha   90.00000000
_cell_angle_beta   90.00000000
_cell_angle_gamma   90.00000000
_symmetry_Int_Tables_number   1
_chemical_formula_structural   Mg30AlNiO32
_chemical_formula_sum   'Mg30 Al1 Ni1 O32'
_cell_volume   615.51157332
_cell_formula_units_Z   1
loop_
 _symmetry_equiv_pos_site_id
 _symmetry_equiv_pos_as_xyz
  1  'x, y, z'
loop_
 _atom_site_type_symbol
 _atom_site_label
 _atom_site_symmetry_multiplicity
 _atom_site_fract_x
 _atom_site_fract_y
 _atom_site_fract_z
 _atom_site_occupancy
  Mg  Mg0  1  0.50000000  0.00000000  0.00000000  1
  Mg  Mg1  1  0.00000000  0.50000000  0.00000000  1
  Mg  Mg2  1  0.00000000  0.00000000  0.50000000  1
  Mg  Mg3  1  0.50000000  0.00000000  0.50000000  1
  Mg  Mg4  1  0.00000000  0.50000000  0.50000000  1
  Mg  Mg5  1  0.50000000  0.50000000  0.50000000  1
  Mg  Mg6  1  0.25396700  0.25396700  0.00000000  1
  Mg  Mg7  1  0.74603300  0.25396700  0.00000000  1
  Mg  Mg8  1  0.25396700  0.74603300  0.00000000  1
  Mg  Mg9  1  0.74603300  0.74603300  0.00000000  1
  Mg  Mg10  1  0.25121900  0.25121900  0.50000000  1
  Mg  Mg11  1  0.74878100  0.25121900  0.50000000  1
  Mg  Mg12  1  0.25121900  0.74878100  0.50000000  1
  Mg  Mg13  1  0.74878100  0.74878100  0.50000000  1
  Mg  Mg14  1  0.25144800  0.00000000  0.24985200  1
  Mg  Mg15  1  0.74855200  0.00000000  0.24985200  1
  Mg  Mg16  1  0.25246700  0.50000000  0.24730500  1
  Mg  Mg17  1  0.74753300  0.50000000  0.24730500  1
  Mg  Mg18  1  0.25144800  0.00000000  0.75014800  1
  Mg  Mg19  1  0.74855200  0.00000000  0.75014800  1
  Mg  Mg20  1  0.25246700  0.50000000  0.75269500  1
  Mg  Mg21  1  0.74753300  0.50000000  0.75269500  1
  Mg  Mg22  1  0.00000000  0.25144800  0.24985200  1
  Mg  Mg23  1  0.50000000  0.25246700  0.24730500  1
  Mg  Mg24  1  0.00000000  0.74855200  0.24985200  1
  Mg  Mg25  1  0.50000000  0.74753300  0.24730500  1
  Mg  Mg26  1  0.00000000  0.25144800  0.75014800  1
  Mg  Mg27  1  0.50000000  0.25246700  0.75269500  1
  Mg  Mg28  1  0.00000000  0.74855200  0.75014800  1
  Mg  Mg29  1  0.50000000  0.74753300  0.75269500  1
  Al  Al0  1  0.00000000  0.00000000  0.00000000  1
  Ni  Ni0  1  0.50000000  0.50000000  0.00000000  1
  O  O0  1  0.00000000  0.00000000  0.23615100  1
  O  O1  1  0.50000000  0.00000000  0.25025000  1
  O  O2  1  0.00000000  0.50000000  0.25025000  1
  O  O3  1  0.50000000  0.50000000  0.25716800  1
  O  O4  1  0.00000000  0.00000000  0.76384900  1
  O  O5  1  0.50000000  0.00000000  0.74975000  1
  O  O6  1  0.00000000  0.50000000  0.74975000  1
  O  O7  1  0.50000000  0.50000000  0.74283200  1
  O  O8  1  0.24959900  0.24959900  0.24950100  1
  O  O9  1  0.75040100  0.24959900  0.24950100  1
  O  O10  1  0.24959900  0.75040100  0.24950100  1
  O  O11  1  0.75040100  0.75040100  0.24950100  1
  O  O12  1  0.24959900  0.24959900  0.75049900  1
  O  O13  1  0.75040100  0.24959900  0.75049900  1
  O  O14  1  0.24959900  0.75040100  0.75049900  1
  O  O15  1  0.75040100  0.75040100  0.75049900  1
  O  O16  1  0.23206700  0.00000000  0.00000000  1
  O  O17  1  0.76793300  0.00000000  0.00000000  1
  O  O18  1  0.23264200  0.50000000  0.00000000  1
  O  O19  1  0.76735800  0.50000000  0.00000000  1
  O  O20  1  0.24670700  0.00000000  0.50000000  1
  O  O21  1  0.75329300  0.00000000  0.50000000  1
  O  O22  1  0.24815000  0.50000000  0.50000000  1
  O  O23  1  0.75185000  0.50000000  0.50000000  1
  O  O24  1  0.00000000  0.23206700  0.00000000  1
  O  O25  1  0.50000000  0.23264200  0.00000000  1
  O  O26  1  0.00000000  0.76793300  0.00000000  1
  O  O27  1  0.50000000  0.76735800  0.00000000  1
  O  O28  1  0.00000000  0.24670700  0.50000000  1
  O  O29  1  0.50000000  0.24815000  0.50000000  1
  O  O30  1  0.00000000  0.75329300  0.50000000  1
  O  O31  1  0.50000000  0.75185000  0.50000000  1
loop_
_geom_bond_atom_site_label_1
_geom_bond_atom_site_label_2
_geom_bond_distance
_geom_bond_site_symmetry_2
Mg0 O25 1.982927 1_555
Mg0 O27 1.982927 1_545
Mg0 O5 2.120182 1_554
Mg0 O1 2.120182 1_555
Mg0 O16 2.283730 1_555
Mg0 O17 2.283730 1_555
Mg1 O18 1.982927 1_555
Mg1 O19 1.982927 1_455
Mg1 O6 2.120182 1_554
Mg1 O2 2.120182 1_555
Mg1 O26 2.283730 1_555
Mg1 O24 2.283730 1_555
Mg2 O28 2.102810 1_555
Mg2 O20 2.102810 1_555
Mg2 O30 2.102810 1_545
Mg2 O21 2.102810 1_455
Mg2 O0 2.235396 1_555
Mg2 O4 2.235396 1_555
Mg3 O31 2.115110 1_545
Mg3 O29 2.115110 1_555
Mg3 O1 2.115945 1_555
Mg3 O5 2.115945 1_555
Mg3 O21 2.158946 1_555
Mg3 O20 2.158946 1_555
Mg4 O23 2.115110 1_455
Mg4 O22 2.115110 1_555
Mg4 O2 2.115945 1_555
Mg4 O6 2.115945 1_555
Mg4 O30 2.158946 1_555
Mg4 O28 2.158946 1_555
Mg5 O7 2.057334 1_555
Mg5 O3 2.057334 1_555
Mg5 O23 2.146647 1_555
Mg5 O22 2.146647 1_555
Mg5 O29 2.146647 1_555
Mg5 O31 2.146647 1_555
Mg6 O18 2.104928 1_555
Mg6 O25 2.104928 1_555
Mg6 O8 2.114491 1_555
Mg6 O12 2.114491 1_554
Mg6 O24 2.172724 1_555
Mg6 O16 2.172724 1_555
Mg7 O25 2.104928 1_555
Mg7 O19 2.104928 1_555
Mg7 O9 2.114491 1_555
Mg7 O13 2.114491 1_554
Mg7 O17 2.172724 1_555
Mg7 O24 2.172724 1_655
Mg8 O18 2.104928 1_555
Mg8 O27 2.104928 1_555
Mg8 O10 2.114491 1_555
Mg8 O14 2.114491 1_554
Mg8 O26 2.172724 1_555
Mg8 O16 2.172724 1_565
Mg9 O19 2.104928 1_555
Mg9 O27 2.104928 1_555
Mg9 O11 2.114491 1_555
Mg9 O15 2.114491 1_554
Mg9 O17 2.172724 1_565
Mg9 O26 2.172724 1_655
Mg10 O22 2.120649 1_555
Mg10 O29 2.120649 1_555
Mg10 O12 2.122381 1_555
Mg10 O8 2.122381 1_555
Mg10 O20 2.141614 1_555
Mg10 O28 2.141614 1_555
Mg11 O29 2.120649 1_555
Mg11 O23 2.120649 1_555
Mg11 O13 2.122381 1_555
Mg11 O9 2.122381 1_555
Mg11 O21 2.141614 1_555
Mg11 O28 2.141614 1_655
Mg12 O22 2.120649 1_555
Mg12 O31 2.120649 1_555
Mg12 O14 2.122381 1_555
Mg12 O10 2.122381 1_555
Mg12 O30 2.141614 1_555
Mg12 O20 2.141614 1_565
Mg13 O23 2.120649 1_555
Mg13 O31 2.120649 1_555
Mg13 O15 2.122381 1_555
Mg13 O11 2.122381 1_555
Mg13 O21 2.141614 1_565
Mg13 O30 2.141614 1_655
Mg14 O1 2.118539 1_555
Mg14 O20 2.119703 1_555
Mg14 O16 2.123246 1_555
Mg14 O8 2.127521 1_555
Mg14 O10 2.127521 1_545
Mg14 O0 2.146361 1_555
Mg15 O1 2.118539 1_555
Mg15 O21 2.119703 1_555
Mg15 O17 2.123246 1_555
Mg15 O9 2.127521 1_555
Mg15 O11 2.127521 1_545
Mg15 O0 2.146361 1_655
Mg16 O18 2.102034 1_555
Mg16 O3 2.111505 1_555
Mg16 O10 2.134517 1_555
Mg16 O8 2.134517 1_555
Mg16 O22 2.141212 1_555
Mg16 O2 2.152050 1_555
Mg17 O19 2.102034 1_555
Mg17 O3 2.111505 1_555
Mg17 O9 2.134517 1_555
Mg17 O11 2.134517 1_555
Mg17 O23 2.141212 1_555
Mg17 O2 2.152050 1_655
Mg18 O5 2.118539 1_555
Mg18 O20 2.119703 1_555
Mg18 O16 2.123246 1_556
Mg18 O12 2.127521 1_555
Mg18 O14 2.127521 1_545
Mg18 O4 2.146361 1_555
Mg19 O5 2.118539 1_555
Mg19 O21 2.119703 1_555
Mg19 O17 2.123246 1_556
Mg19 O15 2.127521 1_545
Mg19 O13 2.127521 1_555
Mg19 O4 2.146361 1_655
Mg20 O18 2.102034 1_556
Mg20 O7 2.111505 1_555
Mg20 O12 2.134517 1_555
Mg20 O14 2.134517 1_555
Mg20 O22 2.141212 1_555
Mg20 O6 2.152050 1_555
Mg21 O19 2.102034 1_556
Mg21 O7 2.111505 1_555
Mg21 O15 2.134517 1_555
Mg21 O13 2.134517 1_555
Mg21 O23 2.141212 1_555
Mg21 O6 2.152050 1_655
Mg22 O2 2.118539 1_555
Mg22 O28 2.119703 1_555
Mg22 O24 2.123246 1_555
Mg22 O9 2.127521 1_455
Mg22 O8 2.127521 1_555
Mg22 O0 2.146361 1_555
Mg23 O25 2.102034 1_555
Mg23 O3 2.111505 1_555
Mg23 O8 2.134517 1_555
Mg23 O9 2.134517 1_555
Mg23 O29 2.141212 1_555
Mg23 O1 2.152050 1_555
Mg24 O2 2.118539 1_555
Mg24 O30 2.119703 1_555
Mg24 O26 2.123246 1_555
Mg24 O10 2.127521 1_555
Mg24 O11 2.127521 1_455
Mg24 O0 2.146361 1_565
Mg25 O27 2.102034 1_555
Mg25 O3 2.111505 1_555
Mg25 O10 2.134517 1_555
Mg25 O11 2.134517 1_555
Mg25 O31 2.141212 1_555
Mg25 O1 2.152050 1_565
Mg26 O6 2.118539 1_555
Mg26 O28 2.119703 1_555
Mg26 O24 2.123246 1_556
Mg26 O13 2.127521 1_455
Mg26 O12 2.127521 1_555
Mg26 O4 2.146361 1_555
Mg27 O25 2.102034 1_556
Mg27 O7 2.111505 1_555
Mg27 O13 2.134517 1_555
Mg27 O12 2.134517 1_555
Mg27 O29 2.141212 1_555
Mg27 O5 2.152050 1_555
Mg28 O6 2.118539 1_555
Mg28 O30 2.119703 1_555
Mg28 O26 2.123246 1_556
Mg28 O15 2.127521 1_455
Mg28 O14 2.127521 1_555
Mg28 O4 2.146361 1_565
Mg29 O27 2.102034 1_556
Mg29 O7 2.111505 1_555
Mg29 O15 2.134517 1_555
Mg29 O14 2.134517 1_555
Mg29 O31 2.141212 1_555
Mg29 O5 2.152050 1_565
Al0 O24 1.978026 1_555
Al0 O16 1.978026 1_555
Al0 O17 1.978026 1_455
Al0 O26 1.978026 1_545
Al0 O0 2.000731 1_555
Al0 O4 2.000731 1_554
Ni0 O3 2.178793 1_555
Ni0 O7 2.178793 1_554
Ni0 O27 2.278829 1_555
Ni0 O25 2.278829 1_555
Ni0 O18 2.278829 1_555
Ni0 O19 2.278829 1_555
