# generated using pymatgen
data_Ti3P4(NO9)2
_symmetry_space_group_name_H-M   'P 1'
_cell_length_a   17.01315900
_cell_length_b   5.41498200
_cell_length_c   8.51957551
_cell_angle_alpha   89.02460504
_cell_angle_beta   90.00000000
_cell_angle_gamma   90.00000000
_symmetry_Int_Tables_number   1
_chemical_formula_structural   Ti3P4(NO9)2
_chemical_formula_sum   'Ti6 P8 N4 O36'
_cell_volume   784.76025490
_cell_formula_units_Z   2
loop_
 _symmetry_equiv_pos_site_id
 _symmetry_equiv_pos_as_xyz
  1  'x, y, z'
loop_
 _atom_site_type_symbol
 _atom_site_label
 _atom_site_symmetry_multiplicity
 _atom_site_fract_x
 _atom_site_fract_y
 _atom_site_fract_z
 _atom_site_occupancy
  Ti  Ti0  1  0.11597800  0.46857600  0.09836200  1
  Ti  Ti1  1  0.61597800  0.53142400  0.90163800  1
  Ti  Ti2  1  0.28276600  0.76055600  0.25066400  1
  Ti  Ti3  1  0.78276600  0.23944400  0.74933600  1
  Ti  Ti4  1  0.95016500  0.94789200  0.60248900  1
  Ti  Ti5  1  0.45016500  0.05210800  0.39751100  1
  P  P0  1  0.19578100  0.96342700  0.92436000  1
  P  P1  1  0.69578100  0.03657300  0.07564000  1
  P  P2  1  0.37102600  0.55627500  0.57421000  1
  P  P3  1  0.87102600  0.44372500  0.42579000  1
  P  P4  1  0.10089900  0.94613100  0.32564800  1
  P  P5  1  0.60089900  0.05386900  0.67435200  1
  P  P6  1  0.46341200  0.57454900  0.17181000  1
  P  P7  1  0.96341200  0.42545100  0.82819000  1
  N  N0  1  0.15537800  0.42997400  0.57691300  1
  N  N1  1  0.65537800  0.57002600  0.42308700  1
  N  N2  1  0.91105500  0.96894200  0.13039900  1
  N  N3  1  0.41105500  0.03105800  0.86960100  1
  O  O0  1  0.91190200  0.69518400  0.44016200  1
  O  O1  1  0.41190200  0.30481600  0.55983800  1
  O  O2  1  0.26032200  0.94609900  0.05219500  1
  O  O3  1  0.76032200  0.05390100  0.94780500  1
  O  O4  1  0.19133900  0.92518900  0.34647900  1
  O  O5  1  0.69133900  0.07481100  0.65352100  1
  O  O6  1  0.85462600  0.99090700  0.68059200  1
  O  O7  1  0.35462600  0.00909300  0.31940800  1
  O  O8  1  0.43152700  0.76584000  0.54957300  1
  O  O9  1  0.93152700  0.23416000  0.45042700  1
  O  O10  1  0.64992100  0.79470300  0.05323700  1
  O  O11  1  0.14992100  0.20529700  0.94676300  1
  O  O12  1  0.30433200  0.57385100  0.45072800  1
  O  O13  1  0.80433200  0.42614900  0.54927200  1
  O  O14  1  0.21006400  0.51194200  0.18115000  1
  O  O15  1  0.71006400  0.48805800  0.81885000  1
  O  O16  1  0.49517800  0.80465500  0.25943200  1
  O  O17  1  0.99517800  0.19534500  0.74056800  1
  O  O18  1  0.23275600  0.97669800  0.75934200  1
  O  O19  1  0.73275600  0.02330200  0.24065800  1
  O  O20  1  0.33792000  0.58095400  0.74195900  1
  O  O21  1  0.83792000  0.41904600  0.25804100  1
  O  O22  1  0.37311200  0.59680200  0.15217700  1
  O  O23  1  0.87311200  0.40319800  0.84782300  1
  O  O24  1  0.48021200  0.34349200  0.27609500  1
  O  O25  1  0.98021200  0.65650800  0.72390500  1
  O  O26  1  0.05878700  0.93728800  0.48253800  1
  O  O27  1  0.55878700  0.06271200  0.51746200  1
  O  O28  1  0.08374600  0.18959500  0.23365300  1
  O  O29  1  0.58374600  0.81040500  0.76634700  1
  O  O30  1  0.50531100  0.54884900  0.01493800  1
  O  O31  1  0.00531100  0.45115100  0.98506200  1
  O  O32  1  0.13862200  0.74232200  0.93557700  1
  O  O33  1  0.63862200  0.25767800  0.06442300  1
  O  O34  1  0.07026100  0.73023100  0.22311800  1
  O  O35  1  0.57026100  0.26976900  0.77688200  1
loop_
_geom_bond_atom_site_label_1
_geom_bond_atom_site_label_2
_geom_bond_distance
_geom_bond_site_symmetry_2
O0 P3 1.535699 1_555
O0 Ti4 2.067199 1_555
O1 P2 1.535699 1_555
O1 Ti5 2.067199 1_555
O2 P0 1.548279 1_554
O2 Ti2 1.989085 1_555
O3 P1 1.548279 1_556
O3 Ti3 1.989085 1_555
O4 P4 1.552796 1_555
O4 Ti2 1.976192 1_555
O5 P5 1.552796 1_555
O5 Ti3 1.976192 1_555
O6 Ti4 1.773213 1_555
O6 Ti3 1.917225 1_565
O7 Ti5 1.773213 1_555
O7 Ti2 1.917225 1_545
O8 P2 1.543756 1_555
O8 Ti5 2.028159 1_565
O9 P3 1.543756 1_555
O9 Ti4 2.028159 1_545
O10 P1 1.539175 1_565
O10 Ti1 2.024049 1_554
O11 P0 1.539175 1_545
O11 Ti0 2.024049 1_556
O12 P2 1.549152 1_555
O12 Ti2 2.000816 1_555
O13 P3 1.549152 1_555
O13 Ti3 2.000816 1_555
O14 Ti0 1.766493 1_555
O14 Ti2 1.928767 1_555
O15 Ti1 1.766493 1_555
O15 Ti3 1.928767 1_555
O16 P6 1.559992 1_555
O16 Ti5 1.954346 1_565
O17 P7 1.559992 1_555
O17 Ti4 1.954346 1_545
O18 P0 1.540763 1_555
O19 P1 1.540763 1_555
O20 P2 1.544043 1_555
O21 P3 1.544043 1_555
O22 P6 1.549836 1_555
O22 Ti2 1.969323 1_555
O23 P7 1.549836 1_555
O23 Ti3 1.969323 1_555
O24 P6 1.548755 1_555
O24 Ti5 1.940448 1_555
O25 P7 1.548755 1_555
O25 Ti4 1.940448 1_555
O26 P4 1.516582 1_555
O26 Ti4 2.112997 1_455
O27 P5 1.516582 1_555
O27 Ti5 2.112997 1_555
O28 P4 1.549941 1_545
O28 Ti0 1.962679 1_555
O29 P5 1.549941 1_565
O29 Ti1 1.962679 1_555
O30 P6 1.523161 1_555
O30 Ti1 2.118647 1_554
O31 P7 1.523161 1_455
O31 Ti0 2.118647 1_556
O32 P0 1.544145 1_555
O32 Ti0 2.049171 1_556
O33 P1 1.544145 1_555
O33 Ti1 2.049171 1_554
O34 P4 1.560857 1_555
O34 Ti0 1.947666 1_555
O35 P5 1.560857 1_555
O35 Ti1 1.947666 1_555
