# generated using pymatgen
data_Ca8Mn8O23
_symmetry_space_group_name_H-M   'P 1'
_cell_length_a   10.91000646
_cell_length_b   15.26700602
_cell_length_c   10.71823972
_cell_angle_alpha   90.10839871
_cell_angle_beta   90.28794877
_cell_angle_gamma   90.06162650
_symmetry_Int_Tables_number   1
_chemical_formula_structural   Ca8Mn8O23
_chemical_formula_sum   'Ca32 Mn32 O92'
_cell_volume   1785.23681007
_cell_formula_units_Z   4
loop_
 _symmetry_equiv_pos_site_id
 _symmetry_equiv_pos_as_xyz
  1  'x, y, z'
loop_
 _atom_site_type_symbol
 _atom_site_label
 _atom_site_symmetry_multiplicity
 _atom_site_fract_x
 _atom_site_fract_y
 _atom_site_fract_z
 _atom_site_occupancy
  Ca  Ca0  1  0.02127654  0.12336126  0.50081731  1
  Ca  Ca1  1  0.01961503  0.11754885  0.98959356  1
  Ca  Ca2  1  0.02300809  0.62560791  0.49530274  1
  Ca  Ca3  1  0.02341320  0.62635611  0.99445446  1
  Ca  Ca4  1  0.52729138  0.12994581  0.50752491  1
  Ca  Ca5  1  0.53248814  0.12209438  0.97680376  1
  Ca  Ca6  1  0.52422376  0.62479988  0.49617421  1
  Ca  Ca7  1  0.52280023  0.62591699  0.99414150  1
  Ca  Ca8  1  0.48597615  0.38306024  0.99703503  1
  Ca  Ca9  1  0.47696843  0.38128332  0.51019617  1
  Ca  Ca10  1  0.47880281  0.87098172  0.99748980  1
  Ca  Ca11  1  0.47915301  0.86637173  0.51401879  1
  Ca  Ca12  1  0.96857207  0.38227643  0.99958293  1
  Ca  Ca13  1  0.97560723  0.37684647  0.50357351  1
  Ca  Ca14  1  0.97628021  0.87316943  0.00470511  1
  Ca  Ca15  1  0.97362551  0.87305647  0.50542921  1
  Ca  Ca16  1  0.22884885  0.39015319  0.25661754  1
  Ca  Ca17  1  0.22530575  0.37876139  0.74333918  1
  Ca  Ca18  1  0.22467902  0.87290049  0.24275842  1
  Ca  Ca19  1  0.22745712  0.87407634  0.74816174  1
  Ca  Ca20  1  0.73214343  0.38104985  0.24450786  1
  Ca  Ca21  1  0.72644679  0.37762395  0.74532906  1
  Ca  Ca22  1  0.73274441  0.86823377  0.24451227  1
  Ca  Ca23  1  0.72698608  0.87320244  0.74630155  1
  Ca  Ca24  1  0.24558414  0.11996122  0.25683577  1
  Ca  Ca25  1  0.27270444  0.12201623  0.74522022  1
  Ca  Ca26  1  0.27227497  0.62670638  0.25585867  1
  Ca  Ca27  1  0.27271462  0.62544768  0.75562011  1
  Ca  Ca28  1  0.78122030  0.12099763  0.25641845  1
  Ca  Ca29  1  0.77534487  0.12370465  0.75540983  1
  Ca  Ca30  1  0.77320097  0.62536037  0.25542665  1
  Ca  Ca31  1  0.77319760  0.62541181  0.75462980  1
  Mn  Mn0  1  0.99949448  0.99796094  0.24917564  1
  Mn  Mn1  1  0.99667595  0.99770228  0.75074620  1
  Mn  Mn2  1  0.99930220  0.50112833  0.24882633  1
  Mn  Mn3  1  0.99982963  0.50051381  0.74949302  1
  Mn  Mn4  1  0.51011171  0.98668040  0.24139889  1
  Mn  Mn5  1  0.50070011  0.99891708  0.74872272  1
  Mn  Mn6  1  0.49959062  0.50305829  0.25051129  1
  Mn  Mn7  1  0.50030531  0.50149602  0.74955371  1
  Mn  Mn8  1  0.25145694  0.00190918  0.00067631  1
  Mn  Mn9  1  0.24013495  0.99510192  0.50631784  1
  Mn  Mn10  1  0.24962515  0.50176714  0.00193799  1
  Mn  Mn11  1  0.25012811  0.50171937  0.50221213  1
  Mn  Mn12  1  0.75178628  0.00003314  0.99768420  1
  Mn  Mn13  1  0.74861049  0.00001611  0.50053231  1
  Mn  Mn14  1  0.74879394  0.50192069  0.99986698  1
  Mn  Mn15  1  0.75047861  0.49985691  0.49949192  1
  Mn  Mn16  1  0.25748723  0.24673932  0.97357204  1
  Mn  Mn17  1  0.24985881  0.25001013  0.49716205  1
  Mn  Mn18  1  0.24990461  0.75006591  0.00046592  1
  Mn  Mn19  1  0.25014406  0.75011333  0.49955668  1
  Mn  Mn20  1  0.75073571  0.24926808  0.99912925  1
  Mn  Mn21  1  0.75276277  0.24891147  0.50530567  1
  Mn  Mn22  1  0.74966924  0.74992170  0.99965458  1
  Mn  Mn23  1  0.75031234  0.74910437  0.50027247  1
  Mn  Mn24  1  0.99355390  0.25051636  0.25766775  1
  Mn  Mn25  1  0.99695742  0.24986934  0.74767177  1
  Mn  Mn26  1  0.99986164  0.74944394  0.24972927  1
  Mn  Mn27  1  0.00024683  0.74978573  0.74971327  1
  Mn  Mn28  1  0.51716999  0.25672958  0.26364781  1
  Mn  Mn29  1  0.50289853  0.25151135  0.74713049  1
  Mn  Mn30  1  0.49893664  0.74810290  0.25092655  1
  Mn  Mn31  1  0.50026558  0.74868720  0.75089894  1
  O  O0  1  0.10362789  0.26822646  0.59903653  1
  O  O1  1  0.10382294  0.77054331  0.10417363  1
  O  O2  1  0.10533617  0.77199814  0.60272964  1
  O  O3  1  0.58715687  0.26014560  0.10470941  1
  O  O4  1  0.59836824  0.26891031  0.60002711  1
  O  O5  1  0.60512365  0.77279793  0.10537087  1
  O  O6  1  0.60746292  0.76777198  0.60588175  1
  O  O7  1  0.39439671  0.21292774  0.36764813  1
  O  O8  1  0.40731469  0.23113272  0.89894488  1
  O  O9  1  0.39624857  0.72728445  0.39771644  1
  O  O10  1  0.39649288  0.73012851  0.89644361  1
  O  O11  1  0.89309105  0.22809661  0.40528423  1
  O  O12  1  0.89647780  0.22996589  0.90080400  1
  O  O13  1  0.89566332  0.72986460  0.39713258  1
  O  O14  1  0.89557053  0.72939902  0.89672365  1
  O  O15  1  0.15091601  0.23795131  0.34017946  1
  O  O16  1  0.13615987  0.22767320  0.85434021  1
  O  O17  1  0.14613022  0.73028943  0.35227143  1
  O  O18  1  0.14610919  0.72987509  0.85276308  1
  O  O19  1  0.65182181  0.22153751  0.35532669  1
  O  O20  1  0.64823679  0.22840669  0.85242330  1
  O  O21  1  0.64679250  0.72911322  0.35307048  1
  O  O22  1  0.64588102  0.72918165  0.85439243  1
  O  O23  1  0.35298717  0.26898520  0.64542859  1
  O  O24  1  0.35565967  0.77194290  0.14677522  1
  O  O25  1  0.35475115  0.77095163  0.64650684  1
  O  O26  1  0.85882690  0.27351189  0.14342507  1
  O  O27  1  0.84973318  0.27211810  0.64924253  1
  O  O28  1  0.85523745  0.76984869  0.14629688  1
  O  O29  1  0.85493707  0.77109433  0.64605917  1
  O  O30  1  0.35698226  0.48066867  0.14480864  1
  O  O31  1  0.35479884  0.47945614  0.64666902  1
  O  O32  1  0.35601369  0.99661965  0.16383333  1
  O  O33  1  0.35781999  0.97973737  0.63995029  1
  O  O34  1  0.85486789  0.47975519  0.14546656  1
  O  O35  1  0.85465571  0.47906079  0.64601817  1
  O  O36  1  0.85257917  0.98060412  0.14944430  1
  O  O37  1  0.84935339  0.97859901  0.64757244  1
  O  O38  1  0.14382872  0.01509243  0.35629245  1
  O  O39  1  0.14649090  0.02385497  0.85713884  1
  O  O40  1  0.14735328  0.51937770  0.35218539  1
  O  O41  1  0.14772740  0.51766618  0.85297296  1
  O  O42  1  0.62595494  0.03021894  0.35555275  1
  O  O43  1  0.64687869  0.02139592  0.85078060  1
  O  O44  1  0.64665155  0.51950333  0.35220808  1
  O  O45  1  0.64592271  0.52058320  0.85342083  1
  O  O46  1  0.39444283  0.02107297  0.89614881  1
  O  O47  1  0.39507682  0.52120220  0.39684383  1
  O  O48  1  0.39639256  0.51706198  0.89735938  1
  O  O49  1  0.89236072  0.02265927  0.39489947  1
  O  O50  1  0.89346367  0.01913338  0.89619662  1
  O  O51  1  0.89723856  0.51850520  0.39673804  1
  O  O52  1  0.89680390  0.51878552  0.89839344  1
  O  O53  1  0.10417401  0.47843541  0.10426236  1
  O  O54  1  0.10518450  0.47872100  0.60374662  1
  O  O55  1  0.10510689  0.98101496  0.10467654  1
  O  O56  1  0.09666945  0.97924001  0.60962207  1
  O  O57  1  0.60684430  0.47992674  0.10566522  1
  O  O58  1  0.60586587  0.48057401  0.60335577  1
  O  O59  1  0.60440266  0.98516178  0.09442959  1
  O  O60  1  0.60014680  0.98088061  0.59898415  1
  O  O61  1  0.01459873  0.37527545  0.28165728  1
  O  O62  1  0.01101817  0.37540169  0.78783315  1
  O  O63  1  0.00962600  0.87459482  0.29023213  1
  O  O64  1  0.01032284  0.87422742  0.79151355  1
  O  O65  1  0.49789548  0.37780555  0.28600915  1
  O  O66  1  0.50999487  0.37562031  0.78505211  1
  O  O67  1  0.50762868  0.87161220  0.29923216  1
  O  O68  1  0.51070757  0.87469710  0.78665532  1
  O  O69  1  0.48898751  0.12527492  0.71696748  1
  O  O70  1  0.48895860  0.62654679  0.20853692  1
  O  O71  1  0.48875764  0.62470787  0.71114024  1
  O  O72  1  0.00030811  0.12681064  0.20863487  1
  O  O73  1  0.98812400  0.12446148  0.71178315  1
  O  O74  1  0.98915612  0.62476737  0.20962152  1
  O  O75  1  0.98939655  0.62496440  0.71051378  1
  O  O76  1  0.24164699  0.13737297  0.04755434  1
  O  O77  1  0.24861122  0.12233436  0.52704642  1
  O  O78  1  0.23944065  0.62409975  0.03982315  1
  O  O79  1  0.23852467  0.62548505  0.54022560  1
  O  O80  1  0.74075242  0.12567964  0.04191529  1
  O  O81  1  0.73987621  0.12449241  0.54392844  1
  O  O82  1  0.73902811  0.62552744  0.04014551  1
  O  O83  1  0.74025232  0.62475254  0.53927671  1
  O  O84  1  0.26536767  0.37442374  0.46387216  1
  O  O85  1  0.25771198  0.36706090  0.98812549  1
  O  O86  1  0.26690085  0.87577215  0.45732812  1
  O  O87  1  0.26311338  0.87753606  0.96621053  1
  O  O88  1  0.75748873  0.37429545  0.45934723  1
  O  O89  1  0.75317287  0.37489160  0.96223966  1
  O  O90  1  0.75810069  0.87618813  0.45806373  1
  O  O91  1  0.75961454  0.87507236  0.96119532  1
loop_
_geom_bond_atom_site_label_1
_geom_bond_atom_site_label_2
_geom_bond_distance
_geom_bond_site_symmetry_2
Ca0 O73 2.291755 1_455
Ca0 O11 2.357473 1_455
Ca0 O49 2.367132 1_455
Ca0 O77 2.494770 1_555
Ca0 O0 2.604672 1_555
Ca0 O56 2.623330 1_545
Ca0 O38 2.633505 1_555
Ca0 O15 2.838308 1_555
Ca1 O50 2.264925 1_455
Ca1 O72 2.362205 1_556
Ca1 O12 2.377887 1_455
Ca1 O39 2.448264 1_555
Ca1 O76 2.515551 1_556
Ca1 O16 2.562832 1_555
Ca1 O55 2.595917 1_546
Ca2 O75 2.337506 1_455
Ca2 O13 2.359505 1_455
Ca2 O51 2.376256 1_455
Ca2 O79 2.397713 1_555
Ca2 O17 2.595012 1_555
Ca2 O40 2.615332 1_555
Ca2 O2 2.665156 1_555
Ca2 O54 2.680937 1_555
Ca3 O74 2.338321 1_456
Ca3 O14 2.348131 1_455
Ca3 O52 2.374787 1_455
Ca3 O78 2.404404 1_556
Ca3 O18 2.573129 1_555
Ca3 O41 2.628409 1_555
Ca3 O1 2.640834 1_556
Ca3 O53 2.695442 1_556
Ca4 O69 2.286716 1_555
Ca4 O81 2.351548 1_555
Ca4 O7 2.438062 1_555
Ca4 O4 2.462957 1_555
Ca4 O42 2.478261 1_555
Ca4 O19 2.547381 1_555
Ca4 O60 2.603155 1_545
Ca5 O8 2.308954 1_555
Ca5 O46 2.317570 1_555
Ca5 O80 2.374114 1_556
Ca5 O43 2.399735 1_555
Ca5 O20 2.455001 1_555
Ca5 O59 2.564958 1_546
Ca5 O3 2.579808 1_556
Ca5 O69 2.823301 1_555
Ca6 O71 2.338242 1_555
Ca6 O9 2.346755 1_555
Ca6 O47 2.365171 1_555
Ca6 O83 2.399446 1_555
Ca6 O21 2.588876 1_555
Ca6 O44 2.601022 1_555
Ca6 O6 2.635736 1_555
Ca6 O58 2.639123 1_555
Ca7 O70 2.329248 1_556
Ca7 O10 2.350156 1_555
Ca7 O48 2.390407 1_555
Ca7 O82 2.407617 1_556
Ca7 O22 2.560630 1_555
Ca7 O45 2.584800 1_555
Ca7 O5 2.689101 1_556
Ca7 O57 2.690862 1_556
Ca8 O66 2.291071 1_555
Ca8 O57 2.292474 1_556
Ca8 O3 2.464082 1_556
Ca8 O85 2.503379 1_555
Ca8 O48 2.506789 1_555
Ca8 O30 2.593812 1_556
Ca8 O8 2.683142 1_555
Ca9 O58 2.290864 1_555
Ca9 O84 2.361086 1_555
Ca9 O4 2.371259 1_555
Ca9 O65 2.415344 1_555
Ca9 O31 2.485597 1_555
Ca9 O47 2.615420 1_555
Ca9 O23 2.625647 1_555
Ca10 O68 2.288953 1_555
Ca10 O5 2.340566 1_556
Ca10 O87 2.377507 1_555
Ca10 O59 2.443293 1_556
Ca10 O10 2.565323 1_555
Ca10 O24 2.584150 1_556
Ca10 O46 2.698430 1_565
Ca11 O6 2.278454 1_555
Ca11 O67 2.326064 1_555
Ca11 O60 2.367490 1_555
Ca11 O86 2.395630 1_555
Ca11 O25 2.450249 1_555
Ca11 O33 2.565876 1_555
Ca11 O9 2.618310 1_555
Ca12 O62 2.320829 1_655
Ca12 O53 2.361170 1_656
Ca12 O89 2.384376 1_555
Ca12 O52 2.477158 1_555
Ca12 O34 2.492628 1_556
Ca12 O26 2.567445 1_556
Ca12 O12 2.669289 1_555
Ca13 O54 2.354573 1_655
Ca13 O0 2.396815 1_655
Ca13 O61 2.418475 1_655
Ca13 O88 2.424348 1_555
Ca13 O35 2.554041 1_555
Ca13 O51 2.592886 1_555
Ca13 O27 2.627992 1_555
Ca13 O11 2.656048 1_555
Ca14 O64 2.316950 1_654
Ca14 O1 2.350281 1_655
Ca14 O91 2.407303 1_554
Ca14 O55 2.409913 1_655
Ca14 O28 2.561247 1_555
Ca14 O14 2.628427 1_554
Ca14 O36 2.633344 1_555
Ca14 O50 2.671791 1_564
Ca15 O63 2.341838 1_655
Ca15 O2 2.351317 1_655
Ca15 O56 2.377101 1_655
Ca15 O90 2.403608 1_555
Ca15 O29 2.529042 1_555
Ca15 O37 2.602282 1_555
Ca15 O13 2.612731 1_555
Ca15 O49 2.722162 1_565
Ca16 O84 2.268121 1_555
Ca16 O30 2.306290 1_555
Ca16 O61 2.364906 1_555
Ca16 O40 2.395258 1_555
Ca16 O53 2.514617 1_555
Ca16 O15 2.633590 1_555
Ca16 O85 2.917272 1_554
Ca16 O65 2.956837 1_555
Ca17 O31 2.334283 1_555
Ca17 O62 2.388887 1_555
Ca17 O23 2.421497 1_555
Ca17 O54 2.505636 1_555
Ca17 O41 2.568814 1_555
Ca17 O0 2.639491 1_555
Ca17 O85 2.652015 1_555
Ca17 O16 2.774757 1_555
Ca18 O24 2.342988 1_555
Ca18 O86 2.343536 1_555
Ca18 O63 2.403426 1_555
Ca18 O32 2.519674 1_555
Ca18 O1 2.520716 1_555
Ca18 O55 2.571204 1_555
Ca18 O17 2.620749 1_555
Ca18 O38 2.641278 1_565
Ca19 O87 2.367805 1_555
Ca19 O25 2.368127 1_555
Ca19 O64 2.416369 1_555
Ca19 O33 2.447233 1_555
Ca19 O2 2.568867 1_555
Ca19 O56 2.609857 1_555
Ca19 O18 2.628015 1_555
Ca19 O39 2.716264 1_565
Ca20 O34 2.281766 1_555
Ca20 O88 2.320362 1_555
Ca20 O26 2.406807 1_555
Ca20 O57 2.520825 1_555
Ca20 O44 2.583864 1_555
Ca20 O65 2.596707 1_555
Ca20 O3 2.848485 1_555
Ca20 O19 2.850637 1_555
Ca21 O27 2.340229 1_555
Ca21 O89 2.342114 1_555
Ca21 O35 2.346141 1_555
Ca21 O66 2.401843 1_555
Ca21 O58 2.551463 1_555
Ca21 O45 2.623432 1_555
Ca21 O4 2.663842 1_555
Ca21 O20 2.692761 1_555
Ca22 O28 2.272169 1_555
Ca22 O90 2.307126 1_555
Ca22 O36 2.388701 1_555
Ca22 O5 2.500439 1_555
Ca22 O67 2.528495 1_555
Ca22 O21 2.600081 1_555
Ca22 O59 2.780033 1_555
Ca23 O91 2.328977 1_555
Ca23 O37 2.346760 1_555
Ca23 O29 2.355120 1_555
Ca23 O68 2.401176 1_555
Ca23 O6 2.554021 1_555
Ca23 O22 2.641122 1_555
Ca23 O60 2.665216 1_555
Ca23 O43 2.672289 1_565
Ca24 O38 2.224102 1_555
Ca24 O76 2.259523 1_555
Ca24 O15 2.262032 1_555
Ca24 O32 2.449677 1_545
Ca24 O7 2.455671 1_555
Ca24 O72 2.724982 1_555
Ca25 O77 2.351868 1_555
Ca25 O39 2.366416 1_555
Ca25 O69 2.380989 1_555
Ca25 O16 2.490911 1_555
Ca25 O46 2.597725 1_555
Ca25 O33 2.619032 1_545
Ca25 O23 2.638181 1_555
Ca25 O8 2.758034 1_555
Ca26 O17 2.339985 1_555
Ca26 O78 2.341543 1_555
Ca26 O40 2.371530 1_555
Ca26 O70 2.420313 1_555
Ca26 O9 2.542653 1_555
Ca26 O47 2.581938 1_555
Ca26 O24 2.669699 1_555
Ca26 O30 2.692056 1_555
Ca27 O79 2.336740 1_555
Ca27 O18 2.355139 1_555
Ca27 O41 2.381569 1_555
Ca27 O71 2.407143 1_555
Ca27 O10 2.573273 1_555
Ca27 O48 2.619249 1_555
Ca27 O25 2.668245 1_555
Ca27 O31 2.671780 1_555
Ca28 O80 2.340164 1_555
Ca28 O19 2.342320 1_555
Ca28 O49 2.433430 1_555
Ca28 O42 2.436768 1_555
Ca28 O72 2.448569 1_655
Ca28 O36 2.553060 1_545
Ca28 O11 2.583654 1_555
Ca28 O26 2.760792 1_555
Ca29 O81 2.297640 1_555
Ca29 O43 2.337672 1_555
Ca29 O20 2.360597 1_555
Ca29 O73 2.370371 1_555
Ca29 O50 2.545684 1_555
Ca29 O12 2.602305 1_555
Ca29 O37 2.626615 1_545
Ca29 O27 2.665070 1_555
Ca30 O82 2.335517 1_555
Ca30 O21 2.349308 1_555
Ca30 O44 2.368552 1_555
Ca30 O74 2.409117 1_555
Ca30 O13 2.569689 1_555
Ca30 O51 2.603873 1_555
Ca30 O28 2.655421 1_555
Ca30 O34 2.670082 1_555
Ca31 O83 2.334239 1_555
Ca31 O22 2.365558 1_555
Ca31 O45 2.372146 1_555
Ca31 O75 2.408003 1_555
Ca31 O14 2.566754 1_555
Ca31 O52 2.614612 1_555
Ca31 O29 2.666865 1_555
Ca31 O35 2.672471 1_555
Mn0 O63 1.938111 1_655
Mn0 O36 1.939787 1_555
Mn0 O55 1.952009 1_655
Mn0 O38 1.961121 1_665
Mn0 O49 1.991219 1_565
Mn0 O72 2.015391 1_665
Mn1 O56 1.890284 1_655
Mn1 O64 1.941580 1_655
Mn1 O50 1.954977 1_565
Mn1 O37 1.967545 1_555
Mn1 O73 1.982748 1_565
Mn1 O39 2.027183 1_665
Mn2 O74 1.937740 1_555
Mn2 O34 1.948546 1_555
Mn2 O51 1.959701 1_555
Mn2 O61 1.961148 1_655
Mn2 O53 1.961279 1_655
Mn2 O40 1.973266 1_655
Mn3 O75 1.949474 1_555
Mn3 O35 1.955948 1_555
Mn3 O62 1.958360 1_655
Mn3 O41 1.970362 1_655
Mn3 O54 1.972072 1_655
Mn3 O52 1.976182 1_555
Mn4 O67 1.864221 1_555
Mn4 O42 1.875031 1_565
Mn4 O32 1.878202 1_555
Mn4 O59 1.885845 1_555
Mn5 O68 1.943380 1_555
Mn5 O43 1.958988 1_565
Mn5 O60 1.960933 1_555
Mn5 O33 1.963246 1_555
Mn5 O69 1.963721 1_565
Mn5 O46 1.993093 1_565
Mn6 O70 1.942516 1_555
Mn6 O30 1.949558 1_555
Mn6 O65 1.950510 1_555
Mn6 O44 1.950869 1_555
Mn6 O47 1.963127 1_555
Mn6 O57 1.980215 1_555
Mn7 O71 1.930481 1_555
Mn7 O45 1.956583 1_555
Mn7 O31 1.956833 1_555
Mn7 O66 1.962612 1_555
Mn7 O48 1.966895 1_555
Mn7 O58 1.975054 1_555
Mn8 O87 1.938153 1_544
Mn8 O39 1.943103 1_554
Mn8 O46 1.947341 1_554
Mn8 O55 1.977836 1_545
Mn8 O32 2.084846 1_545
Mn8 O76 2.130292 1_555
Mn9 O86 1.918082 1_555
Mn9 O33 1.933512 1_555
Mn9 O56 1.937040 1_555
Mn9 O38 1.941230 1_565
Mn9 O77 1.956740 1_565
Mn10 O78 1.913998 1_555
Mn10 O30 1.950697 1_555
Mn10 O41 1.956599 1_554
Mn10 O53 1.966122 1_555
Mn10 O48 1.973097 1_554
Mn10 O85 2.063617 1_554
Mn11 O79 1.936616 1_555
Mn11 O31 1.949861 1_555
Mn11 O54 1.955962 1_555
Mn11 O47 1.970518 1_555
Mn11 O40 1.974801 1_555
Mn11 O84 1.992929 1_555
Mn12 O50 1.916923 1_555
Mn12 O59 1.931109 1_546
Mn12 O91 1.948776 1_545
Mn12 O43 1.969818 1_555
Mn12 O80 1.979025 1_556
Mn12 O36 1.981817 1_546
Mn13 O37 1.945269 1_545
Mn13 O90 1.946659 1_545
Mn13 O81 1.958153 1_555
Mn13 O60 1.959526 1_545
Mn13 O49 1.969557 1_555
Mn13 O42 2.097892 1_555
Mn14 O82 1.938223 1_556
Mn14 O45 1.946600 1_555
Mn14 O57 1.953202 1_556
Mn14 O34 1.968211 1_556
Mn14 O52 1.968393 1_555
Mn14 O89 1.980772 1_555
Mn15 O83 1.956518 1_555
Mn15 O58 1.957825 1_555
Mn15 O35 1.960562 1_555
Mn15 O44 1.962065 1_555
Mn15 O88 1.965503 1_555
Mn15 O51 1.968661 1_555
Mn16 O8 1.838968 1_555
Mn16 O85 1.843265 1_555
Mn16 O16 1.857631 1_555
Mn16 O76 1.858038 1_556
Mn17 O84 1.940678 1_555
Mn17 O0 1.957595 1_555
Mn17 O23 1.963376 1_555
Mn17 O77 1.976010 1_555
Mn17 O15 2.002586 1_555
Mn17 O7 2.180618 1_555
Mn18 O18 1.965453 1_554
Mn18 O24 1.970017 1_555
Mn18 O1 1.972542 1_555
Mn18 O78 1.972936 1_555
Mn18 O10 1.977653 1_554
Mn18 O87 1.986318 1_554
Mn19 O79 1.956917 1_555
Mn19 O2 1.961565 1_555
Mn19 O17 1.962370 1_555
Mn19 O25 1.965636 1_555
Mn19 O9 1.967494 1_555
Mn19 O86 1.980413 1_555
Mn20 O12 1.934532 1_555
Mn20 O80 1.945665 1_556
Mn20 O20 1.950423 1_555
Mn20 O89 1.959140 1_555
Mn20 O26 1.974389 1_556
Mn20 O3 2.124467 1_556
Mn21 O27 1.898835 1_555
Mn21 O11 1.900117 1_555
Mn21 O81 1.949935 1_555
Mn21 O88 1.978187 1_555
Mn21 O19 1.987513 1_555
Mn21 O4 1.994599 1_555
Mn22 O22 1.945811 1_555
Mn22 O82 1.952348 1_556
Mn22 O91 1.958408 1_555
Mn22 O14 1.966341 1_555
Mn22 O28 1.966904 1_556
Mn22 O5 1.977481 1_556
Mn23 O83 1.947835 1_555
Mn23 O6 1.951634 1_555
Mn23 O29 1.958709 1_555
Mn23 O21 1.958956 1_555
Mn23 O13 1.959708 1_555
Mn23 O90 1.994887 1_555
Mn24 O61 1.934765 1_655
Mn24 O15 1.937135 1_655
Mn24 O26 1.941076 1_555
Mn24 O11 1.959714 1_555
Mn24 O72 1.960977 1_655
Mn25 O16 1.927053 1_655
Mn25 O27 1.947770 1_555
Mn25 O73 1.954329 1_555
Mn25 O62 1.969110 1_655
Mn25 O0 1.997632 1_655
Mn25 O12 2.001801 1_555
Mn26 O28 1.949478 1_555
Mn26 O74 1.953827 1_555
Mn26 O17 1.955662 1_655
Mn26 O1 1.960365 1_655
Mn26 O63 1.961240 1_655
Mn26 O13 1.974052 1_555
Mn27 O75 1.953975 1_455
Mn27 O64 1.953992 1_555
Mn27 O18 1.956890 1_555
Mn27 O29 1.959126 1_455
Mn27 O14 1.975618 1_455
Mn27 O2 1.982616 1_555
Mn28 O19 1.844327 1_555
Mn28 O7 1.870774 1_555
Mn28 O3 1.871126 1_555
Mn28 O65 1.875676 1_555
Mn29 O4 1.912821 1_555
Mn29 O66 1.938508 1_555
Mn29 O69 1.959177 1_555
Mn29 O8 1.962210 1_555
Mn29 O20 1.974092 1_555
Mn29 O23 1.979520 1_555
Mn30 O70 1.912627 1_555
Mn30 O24 1.951232 1_555
Mn30 O67 1.956538 1_555
Mn30 O9 1.962234 1_555
Mn30 O21 1.967033 1_555
Mn30 O5 1.984347 1_555
Mn31 O71 1.943174 1_555
Mn31 O10 1.953035 1_555
Mn31 O22 1.956417 1_555
Mn31 O68 1.963960 1_555
Mn31 O25 1.967887 1_555
Mn31 O6 1.971769 1_555
