# generated using pymatgen
data_NaDy3Ti2(SbO7)2
_symmetry_space_group_name_H-M   'P 1'
_cell_length_a   7.26054329
_cell_length_b   7.26054329
_cell_length_c   7.21034199
_cell_angle_alpha   60.67994720
_cell_angle_beta   60.67994720
_cell_angle_gamma   60.88331198
_symmetry_Int_Tables_number   1
_chemical_formula_structural   NaDy3Ti2(SbO7)2
_chemical_formula_sum   'Na1 Dy3 Ti2 Sb2 O14'
_cell_volume   273.30115658
_cell_formula_units_Z   1
loop_
 _symmetry_equiv_pos_site_id
 _symmetry_equiv_pos_as_xyz
  1  'x, y, z'
loop_
 _atom_site_type_symbol
 _atom_site_label
 _atom_site_symmetry_multiplicity
 _atom_site_fract_x
 _atom_site_fract_y
 _atom_site_fract_z
 _atom_site_occupancy
  Na  Na0  1  0.00000000  0.00000000  0.00000000  1
  Dy  Dy0  1  0.00000000  0.00000000  0.50000000  1
  Dy  Dy1  1  0.50000000  0.00000000  0.00000000  1
  Dy  Dy2  1  0.00000000  0.50000000  0.00000000  1
  Ti  Ti0  1  0.50000000  0.50000000  0.50000000  1
  Ti  Ti1  1  0.50000000  0.50000000  0.00000000  1
  Sb  Sb0  1  0.00000000  0.50000000  0.50000000  1
  Sb  Sb1  1  0.50000000  0.00000000  0.50000000  1
  O  O0  1  0.57206200  0.57206200  0.18016600  1
  O  O1  1  0.16935500  0.16935500  0.57293000  1
  O  O2  1  0.17404800  0.57865800  0.57906400  1
  O  O3  1  0.56343300  0.17651800  0.17526200  1
  O  O4  1  0.17651800  0.56343300  0.17526200  1
  O  O5  1  0.57865800  0.17404800  0.57906400  1
  O  O6  1  0.42793800  0.42793800  0.81983400  1
  O  O7  1  0.83064500  0.83064500  0.42707000  1
  O  O8  1  0.82595200  0.42134200  0.42093600  1
  O  O9  1  0.43656700  0.82348200  0.82473800  1
  O  O10  1  0.82348200  0.43656700  0.82473800  1
  O  O11  1  0.42134200  0.82595200  0.42093600  1
  O  O12  1  0.86682200  0.86682200  0.86933700  1
  O  O13  1  0.13317800  0.13317800  0.13066300  1
loop_
_geom_bond_atom_site_label_1
_geom_bond_atom_site_label_2
_geom_bond_distance
_geom_bond_site_symmetry_2
Na0 O12 2.334921 1_444
Na0 O13 2.334921 1_555
Na0 O1 2.561434 1_554
Na0 O7 2.561434 1_445
Na0 O9 2.645067 1_544
Na0 O10 2.645067 1_454
Na0 O3 2.645067 1_455
Na0 O4 2.645067 1_545
Dy0 O13 2.197240 1_555
Dy0 O12 2.197240 1_445
Dy0 O1 2.457294 1_555
Dy0 O7 2.457294 1_445
Dy0 O5 2.552610 1_455
Dy0 O2 2.552610 1_545
Dy0 O11 2.552610 1_545
Dy0 O8 2.552610 1_455
Dy1 O13 2.201007 1_555
Dy1 O12 2.201007 1_544
Dy1 O3 2.486402 1_555
Dy1 O9 2.486402 1_544
Dy1 O11 2.526517 1_545
Dy1 O5 2.526517 1_554
Dy1 O6 2.597257 1_554
Dy1 O0 2.597257 1_545
Dy2 O12 2.201007 1_454
Dy2 O13 2.201007 1_555
Dy2 O4 2.486402 1_555
Dy2 O10 2.486402 1_454
Dy2 O2 2.526517 1_554
Dy2 O8 2.526517 1_455
Dy2 O6 2.597257 1_554
Dy2 O0 2.597257 1_455
O0 Ti0 1.941306 1_555
O0 Ti1 1.957748 1_555
O1 Sb0 2.018869 1_555
O1 Sb1 2.018869 1_555
O2 Ti0 1.983461 1_555
O2 Sb0 1.993682 1_555
O3 Sb1 1.979003 1_555
O3 Ti1 1.983878 1_555
O4 Sb0 1.979003 1_555
O4 Ti1 1.983878 1_555
O5 Ti0 1.983461 1_555
O5 Sb1 1.993682 1_555
O6 Ti0 1.941306 1_555
O6 Ti1 1.957748 1_556
O7 Sb0 2.018869 1_655
O7 Sb1 2.018869 1_565
O8 Ti0 1.983461 1_555
O8 Sb0 1.993682 1_655
O9 Sb1 1.979003 1_565
O9 Ti1 1.983878 1_556
O10 Sb0 1.979003 1_655
O10 Ti1 1.983878 1_556
O11 Ti0 1.983461 1_555
O11 Sb1 1.993682 1_565
