# generated using pymatgen
data_Sr2CuC(NO)2
_symmetry_space_group_name_H-M   'P 1'
_cell_length_a   3.83744900
_cell_length_b   3.83744900
_cell_length_c   8.17844800
_cell_angle_alpha   90.00000000
_cell_angle_beta   90.00000000
_cell_angle_gamma   90.00000000
_symmetry_Int_Tables_number   1
_chemical_formula_structural   Sr2CuC(NO)2
_chemical_formula_sum   'Sr2 Cu1 C1 N2 O2'
_cell_volume   120.43594651
_cell_formula_units_Z   1
loop_
 _symmetry_equiv_pos_site_id
 _symmetry_equiv_pos_as_xyz
  1  'x, y, z'
loop_
 _atom_site_type_symbol
 _atom_site_label
 _atom_site_symmetry_multiplicity
 _atom_site_fract_x
 _atom_site_fract_y
 _atom_site_fract_z
 _atom_site_occupancy
  Sr  Sr0  1  0.50000000  0.50000000  0.71237900  1
  Sr  Sr1  1  0.50000000  0.50000000  0.28762100  1
  Cu  Cu0  1  0.00000000  0.00000000  0.50000000  1
  C  C0  1  0.00000000  0.00000000  0.00000000  1
  N  N0  1  0.00000000  0.00000000  0.84776700  1
  N  N1  1  0.00000000  0.00000000  0.15223300  1
  O  O0  1  0.00000000  0.50000000  0.50000000  1
  O  O1  1  0.50000000  0.00000000  0.50000000  1
loop_
_geom_bond_atom_site_label_1
_geom_bond_atom_site_label_2
_geom_bond_distance
_geom_bond_site_symmetry_2
Cu0 O0 1.918724 1_545
Cu0 O1 1.918724 1_555
Cu0 O1 1.918724 1_455
Cu0 O0 1.918724 1_555
C0 N1 1.245030 1_555
C0 N0 1.245030 1_554
N0 Sr0 2.930706 1_555
N0 Sr0 2.930706 1_445
N0 Sr0 2.930706 1_545
N0 Sr0 2.930706 1_455
N1 Sr1 2.930706 1_545
N1 Sr1 2.930706 1_455
N1 Sr1 2.930706 1_555
N1 Sr1 2.930706 1_445
O0 Sr0 2.588133 1_455
O0 Sr0 2.588133 1_555
O0 Sr1 2.588133 1_555
O0 Sr1 2.588133 1_455
O1 Sr0 2.588133 1_555
O1 Sr0 2.588133 1_545
O1 Sr1 2.588133 1_545
O1 Sr1 2.588133 1_555
