# generated using pymatgen
data_Hf3(Ni10B3)2
_symmetry_space_group_name_H-M   'P 1'
_cell_length_a   7.53328230
_cell_length_b   7.53328230
_cell_length_c   7.53328230
_cell_angle_alpha   60.00000000
_cell_angle_beta   60.00000000
_cell_angle_gamma   60.00000000
_symmetry_Int_Tables_number   1
_chemical_formula_structural   Hf3(Ni10B3)2
_chemical_formula_sum   'Hf3 Ni20 B6'
_cell_volume   302.29970928
_cell_formula_units_Z   1
loop_
 _symmetry_equiv_pos_site_id
 _symmetry_equiv_pos_as_xyz
  1  'x, y, z'
loop_
 _atom_site_type_symbol
 _atom_site_label
 _atom_site_symmetry_multiplicity
 _atom_site_fract_x
 _atom_site_fract_y
 _atom_site_fract_z
 _atom_site_occupancy
  Hf  Hf0  1  0.00000000  0.00000000  0.00000000  1
  Hf  Hf1  1  0.75000000  0.75000000  0.75000000  1
  Hf  Hf2  1  0.25000000  0.25000000  0.25000000  1
  Ni  Ni0  1  0.61406800  0.61406800  0.15779700  1
  Ni  Ni1  1  0.61406800  0.15779700  0.61406800  1
  Ni  Ni2  1  0.15779700  0.61406800  0.61406800  1
  Ni  Ni3  1  0.61406800  0.61406800  0.61406800  1
  Ni  Ni4  1  0.38593200  0.38593200  0.84220300  1
  Ni  Ni5  1  0.38593200  0.84220300  0.38593200  1
  Ni  Ni6  1  0.84220300  0.38593200  0.38593200  1
  Ni  Ni7  1  0.38593200  0.38593200  0.38593200  1
  Ni  Ni8  1  0.00000000  0.00000000  0.34393100  1
  Ni  Ni9  1  0.65606900  0.00000000  0.34393100  1
  Ni  Ni10  1  0.00000000  0.65606900  0.34393100  1
  Ni  Ni11  1  0.65606900  0.34393100  0.00000000  1
  Ni  Ni12  1  0.00000000  0.34393100  0.00000000  1
  Ni  Ni13  1  0.00000000  0.34393100  0.65606900  1
  Ni  Ni14  1  0.34393100  0.65606900  0.00000000  1
  Ni  Ni15  1  0.34393100  0.00000000  0.65606900  1
  Ni  Ni16  1  0.34393100  0.00000000  0.00000000  1
  Ni  Ni17  1  0.00000000  0.00000000  0.65606900  1
  Ni  Ni18  1  0.00000000  0.65606900  0.00000000  1
  Ni  Ni19  1  0.65606900  0.00000000  0.00000000  1
  B  B0  1  0.73348400  0.73348400  0.26651600  1
  B  B1  1  0.26651600  0.73348400  0.26651600  1
  B  B2  1  0.73348400  0.26651600  0.26651600  1
  B  B3  1  0.26651600  0.26651600  0.73348400  1
  B  B4  1  0.73348400  0.26651600  0.73348400  1
  B  B5  1  0.26651600  0.73348400  0.73348400  1
loop_
_geom_bond_atom_site_label_1
_geom_bond_atom_site_label_2
_geom_bond_distance
_geom_bond_site_symmetry_2
Hf0 Ni8 2.590929 1_555
Hf0 Ni14 2.590929 1_545
Hf0 Ni13 2.590929 1_554
Hf0 Ni9 2.590929 1_455
Hf0 Ni18 2.590929 1_545
Hf0 Ni11 2.590929 1_455
Hf0 Ni12 2.590929 1_555
Hf0 Ni16 2.590929 1_555
Hf0 Ni19 2.590929 1_455
Hf0 Ni17 2.590929 1_554
Hf0 Ni10 2.590929 1_545
Hf0 Ni15 2.590929 1_554
Hf1 Ni3 2.508312 1_555
Hf1 Ni0 2.508318 1_556
Hf1 Ni2 2.508318 1_655
Hf1 Ni1 2.508318 1_565
Hf1 Ni12 2.911373 1_656
Hf1 Ni15 2.911373 1_565
Hf1 Ni17 2.911373 1_665
Hf1 Ni9 2.911373 1_565
Hf1 Ni14 2.911373 1_556
Hf1 Ni11 2.911373 1_556
Hf1 Ni16 2.911373 1_566
Hf1 Ni18 2.911373 1_656
Hf1 Ni8 2.911373 1_665
Hf1 Ni19 2.911373 1_566
Hf1 Ni13 2.911373 1_655
Hf1 Ni10 2.911373 1_655
Hf2 Ni7 2.508312 1_555
Hf2 Ni5 2.508318 1_545
Hf2 Ni6 2.508318 1_455
Hf2 Ni4 2.508318 1_554
Hf2 Ni11 2.911373 1_555
Hf2 Ni15 2.911373 1_555
Hf2 Ni19 2.911373 1_555
Hf2 Ni12 2.911373 1_555
Hf2 Ni9 2.911373 1_555
Hf2 Ni18 2.911373 1_555
Hf2 Ni8 2.911373 1_555
Hf2 Ni17 2.911373 1_555
Hf2 Ni14 2.911373 1_555
Hf2 Ni16 2.911373 1_555
Hf2 Ni13 2.911373 1_555
Hf2 Ni10 2.911373 1_555
Ni0 Ni18 2.655848 1_655
Ni0 Ni19 2.655848 1_565
Ni0 Ni16 2.655851 1_565
Ni0 Ni12 2.655851 1_655
Ni0 Ni14 2.655855 1_555
Ni0 Ni11 2.655855 1_555
Ni1 Ni19 2.655848 1_556
Ni1 Ni17 2.655848 1_655
Ni1 Ni8 2.655851 1_655
Ni1 Ni16 2.655851 1_556
Ni1 Ni15 2.655855 1_555
Ni1 Ni9 2.655855 1_555
Ni2 Ni8 2.655851 1_565
Ni3 Ni9 2.655849 1_565
Ni5 Ni8 2.655848 1_565
Ni5 Ni9 2.655855 1_565
Ni6 Ni8 2.655848 1_655
Ni7 Ni9 2.655849 1_555
Ni8 Ni9 2.590929 1_455
Ni10 Ni13 2.351424 1_555
Ni10 Ni18 2.590929 1_555
Ni10 Ni9 2.590929 1_465
Ni10 Ni8 2.590929 1_565
Ni10 Ni14 2.590929 1_555
Ni10 Ni7 2.655849 1_555
Ni10 Ni3 2.655849 1_455
Ni10 Ni2 2.655855 1_555
Ni10 Ni6 2.655855 1_455
Ni11 Ni14 2.351424 1_555
Ni11 Ni9 2.590929 1_555
Ni11 Ni19 2.590929 1_555
Ni11 Ni13 2.590929 1_654
Ni11 Ni12 2.590929 1_655
Ni11 Ni7 2.655849 1_555
Ni11 Ni3 2.655849 1_554
Ni11 Ni4 2.655855 1_554
Ni12 Ni18 2.351424 1_555
Ni12 Ni13 2.590929 1_554
Ni12 Ni16 2.590929 1_555
Ni12 Ni8 2.590929 1_555
Ni12 Ni6 2.655848 1_455
Ni12 Ni4 2.655848 1_554
Ni12 Ni2 2.655851 1_554
Ni13 Ni15 2.590929 1_555
Ni13 Ni17 2.590929 1_555
Ni13 Ni7 2.655849 1_555
Ni13 Ni3 2.655849 1_455
Ni13 Ni2 2.655855 1_555
Ni13 Ni6 2.655855 1_455
Ni14 Ni18 2.590929 1_555
Ni14 Ni15 2.590929 1_564
Ni14 Ni16 2.590929 1_565
Ni14 Ni7 2.655849 1_555
Ni14 Ni3 2.655849 1_554
Ni14 Ni4 2.655855 1_554
Ni15 Ni9 2.351424 1_555
Ni15 Ni16 2.590929 1_556
Ni15 Ni17 2.590929 1_555
Ni15 Ni7 2.655849 1_555
Ni15 Ni3 2.655849 1_545
Ni15 Ni5 2.655855 1_545
Ni16 Ni19 2.351424 1_555
Ni16 Ni8 2.590929 1_555
Ni16 Ni5 2.655848 1_545
Ni16 Ni4 2.655848 1_554
Ni17 Ni8 2.351424 1_555
Ni17 Ni18 2.590929 1_546
Ni17 Ni19 2.590929 1_456
Ni17 Ni2 2.655848 1_545
Ni17 Ni5 2.655851 1_545
Ni17 Ni6 2.655851 1_455
Ni18 Ni19 2.590929 1_465
Ni18 Ni2 2.655848 1_554
Ni18 Ni4 2.655851 1_554
Ni18 Ni6 2.655851 1_455
Ni19 Ni9 2.590929 1_555
Ni19 Ni4 2.655851 1_554
Ni19 Ni5 2.655851 1_545
B0 Ni18 2.090725 1_655
B0 Ni19 2.090725 1_565
B0 Ni10 2.090725 1_655
B0 Ni9 2.090725 1_565
B0 Ni0 2.138257 1_555
B0 Ni3 2.138263 1_555
B0 Ni6 2.138264 1_555
B0 Ni5 2.138264 1_555
B1 Ni10 2.090725 1_555
B1 Ni8 2.090725 1_565
B1 Ni16 2.090725 1_565
B1 Ni14 2.090725 1_555
B1 Ni5 2.138257 1_555
B1 Ni7 2.138263 1_555
B1 Ni2 2.138264 1_555
B1 Ni0 2.138264 1_555
B2 Ni12 2.090725 1_655
B2 Ni8 2.090725 1_655
B2 Ni11 2.090725 1_555
B2 Ni9 2.090725 1_555
B2 Ni6 2.138257 1_555
B2 Ni7 2.138263 1_555
B2 Ni0 2.138264 1_555
B2 Ni1 2.138264 1_555
B3 Ni13 2.090725 1_555
B3 Ni12 2.090725 1_556
B3 Ni16 2.090725 1_556
B3 Ni15 2.090725 1_555
B3 Ni4 2.138257 1_555
B3 Ni7 2.138263 1_555
B3 Ni2 2.138264 1_555
B3 Ni1 2.138264 1_555
B4 Ni11 2.090725 1_556
B4 Ni13 2.090725 1_655
B4 Ni19 2.090725 1_556
B4 Ni17 2.090725 1_655
B4 Ni1 2.138257 1_555
B4 Ni3 2.138263 1_555
B4 Ni6 2.138264 1_555
B4 Ni4 2.138264 1_555
B5 Ni18 2.090725 1_556
B5 Ni17 2.090725 1_565
B5 Ni15 2.090725 1_565
B5 Ni14 2.090725 1_556
B5 Ni2 2.138257 1_555
B5 Ni3 2.138263 1_555
B5 Ni5 2.138264 1_555
B5 Ni4 2.138264 1_555
