# generated using pymatgen
data_MoW3(SeS)4
_symmetry_space_group_name_H-M   'P 1'
_cell_length_a   3.25503029
_cell_length_b   3.25503029
_cell_length_c   36.91939800
_cell_angle_alpha   90.00000000
_cell_angle_beta   90.00000000
_cell_angle_gamma   120.00000581
_symmetry_Int_Tables_number   1
_chemical_formula_structural   MoW3(SeS)4
_chemical_formula_sum   'Mo1 W3 Se4 S4'
_cell_volume   338.76246522
_cell_formula_units_Z   1
loop_
 _symmetry_equiv_pos_site_id
 _symmetry_equiv_pos_as_xyz
  1  'x, y, z'
loop_
 _atom_site_type_symbol
 _atom_site_label
 _atom_site_symmetry_multiplicity
 _atom_site_fract_x
 _atom_site_fract_y
 _atom_site_fract_z
 _atom_site_occupancy
  Mo  Mo0  1  0.66666700  0.33333300  0.28180400  1
  W  W0  1  0.33333300  0.66666700  0.09391400  1
  W  W1  1  0.33333300  0.66666700  0.46965000  1
  W  W2  1  0.66666700  0.33333300  0.65755900  1
  Se  Se0  1  0.33333300  0.66666700  0.70382700  1
  Se  Se1  1  0.66666700  0.33333300  0.04763400  1
  Se  Se2  1  0.66666700  0.33333300  0.14020800  1
  Se  Se3  1  0.33333300  0.66666700  0.61125900  1
  S  S0  1  0.33333300  0.66666700  0.32360600  1
  S  S1  1  0.66666700  0.33333300  0.42770800  1
  S  S2  1  0.66666700  0.33333300  0.51158500  1
  S  S3  1  0.33333300  0.66666700  0.23999400  1
loop_
_geom_bond_atom_site_label_1
_geom_bond_atom_site_label_2
_geom_bond_distance
_geom_bond_site_symmetry_2
Mo0 S0 2.431774 1_545
Mo0 S0 2.431774 1_655
Mo0 S0 2.431778 1_555
Mo0 S3 2.431961 1_545
Mo0 S3 2.431961 1_655
Mo0 S3 2.431965 1_555
Se0 W2 2.539613 1_455
Se0 W2 2.539613 1_565
Se0 W2 2.539617 1_555
Se1 W0 2.539911 1_655
Se1 W0 2.539911 1_545
Se1 W0 2.539915 1_555
Se2 W0 2.540259 1_545
Se2 W0 2.540259 1_655
Se2 W0 2.540263 1_555
Se3 W2 2.540408 1_455
Se3 W2 2.540408 1_565
Se3 W2 2.540412 1_555
S1 W1 2.435057 1_545
S1 W1 2.435057 1_655
S1 W1 2.435062 1_555
S2 W1 2.434893 1_655
S2 W1 2.434893 1_545
S2 W1 2.434897 1_555
