# generated using pymatgen
data_Eu(Ga4Co)2
_symmetry_space_group_name_H-M   'P 1'
_cell_length_a   4.05055200
_cell_length_b   12.54747800
_cell_length_c   14.32146200
_cell_angle_alpha   90.00000000
_cell_angle_beta   90.00000000
_cell_angle_gamma   90.00000000
_symmetry_Int_Tables_number   1
_chemical_formula_structural   Eu(Ga4Co)2
_chemical_formula_sum   'Eu4 Ga32 Co8'
_cell_volume   727.87702238
_cell_formula_units_Z   4
loop_
 _symmetry_equiv_pos_site_id
 _symmetry_equiv_pos_as_xyz
  1  'x, y, z'
loop_
 _atom_site_type_symbol
 _atom_site_label
 _atom_site_symmetry_multiplicity
 _atom_site_fract_x
 _atom_site_fract_y
 _atom_site_fract_z
 _atom_site_occupancy
  Eu  Eu0  1  0.50000000  0.15741300  0.31937500  1
  Eu  Eu1  1  0.50000000  0.84258700  0.68062500  1
  Eu  Eu2  1  0.50000000  0.65741300  0.18062500  1
  Eu  Eu3  1  0.50000000  0.34258700  0.81937500  1
  Ga  Ga0  1  0.00000000  0.50000000  0.50000000  1
  Ga  Ga1  1  0.00000000  0.00000000  0.00000000  1
  Ga  Ga2  1  0.50000000  0.50000000  0.00000000  1
  Ga  Ga3  1  0.50000000  0.00000000  0.50000000  1
  Ga  Ga4  1  0.50000000  0.66197100  0.45474400  1
  Ga  Ga5  1  0.50000000  0.33802900  0.54525600  1
  Ga  Ga6  1  0.50000000  0.16197100  0.04525600  1
  Ga  Ga7  1  0.50000000  0.83802900  0.95474400  1
  Ga  Ga8  1  0.50000000  0.40224000  0.25500500  1
  Ga  Ga9  1  0.50000000  0.59776000  0.74499500  1
  Ga  Ga10  1  0.50000000  0.90224000  0.24499500  1
  Ga  Ga11  1  0.50000000  0.09776000  0.75500500  1
  Ga  Ga12  1  0.00000000  0.55002400  0.31879500  1
  Ga  Ga13  1  0.00000000  0.44997600  0.68120500  1
  Ga  Ga14  1  0.00000000  0.05002400  0.18120500  1
  Ga  Ga15  1  0.00000000  0.94997600  0.81879500  1
  Ga  Ga16  1  0.00000000  0.33669700  0.37968400  1
  Ga  Ga17  1  0.00000000  0.66330300  0.62031600  1
  Ga  Ga18  1  0.00000000  0.83669700  0.12031600  1
  Ga  Ga19  1  0.00000000  0.16330300  0.87968400  1
  Ga  Ga20  1  0.00000000  0.17012800  0.49040600  1
  Ga  Ga21  1  0.00000000  0.82987200  0.50959400  1
  Ga  Ga22  1  0.00000000  0.67012800  0.00959400  1
  Ga  Ga23  1  0.00000000  0.32987200  0.99040600  1
  Ga  Ga24  1  0.00000000  0.76116000  0.32567400  1
  Ga  Ga25  1  0.00000000  0.23884000  0.67432600  1
  Ga  Ga26  1  0.00000000  0.26116000  0.17432600  1
  Ga  Ga27  1  0.00000000  0.73884000  0.82567400  1
  Ga  Ga28  1  0.00000000  0.97672800  0.36653200  1
  Ga  Ga29  1  0.00000000  0.02327200  0.63346800  1
  Ga  Ga30  1  0.00000000  0.47672800  0.13346800  1
  Ga  Ga31  1  0.00000000  0.52327200  0.86653200  1
  Co  Co0  1  0.50000000  0.84804900  0.40277700  1
  Co  Co1  1  0.50000000  0.15195100  0.59722300  1
  Co  Co2  1  0.50000000  0.34804900  0.09722300  1
  Co  Co3  1  0.50000000  0.65195100  0.90277700  1
  Co  Co4  1  0.50000000  0.46639800  0.40700000  1
  Co  Co5  1  0.50000000  0.53360200  0.59300000  1
  Co  Co6  1  0.50000000  0.96639800  0.09300000  1
  Co  Co7  1  0.50000000  0.03360200  0.90700000  1
loop_
_geom_bond_atom_site_label_1
_geom_bond_atom_site_label_2
_geom_bond_distance
_geom_bond_site_symmetry_2
Eu0 Ga28 3.114126 1_545
Eu0 Ga28 3.114126 1_645
Eu0 Ga14 3.135766 1_555
Eu0 Ga14 3.135766 1_655
Eu0 Ga16 3.147741 1_555
Eu0 Ga16 3.147741 1_655
Eu0 Ga26 3.179868 1_555
Eu0 Ga26 3.179868 1_655
Eu0 Ga20 3.182267 1_555
Eu0 Ga20 3.182267 1_655
Eu0 Ga8 3.207304 1_555
Eu0 Ga3 3.254654 1_555
Eu0 Ga10 3.374329 1_545
Eu1 Ga29 3.114126 1_565
Eu1 Ga29 3.114126 1_665
Eu1 Ga15 3.135766 1_655
Eu1 Ga15 3.135766 1_555
Eu1 Ga17 3.147741 1_655
Eu1 Ga17 3.147741 1_555
Eu1 Ga27 3.179868 1_555
Eu1 Ga27 3.179868 1_655
Eu1 Ga21 3.182267 1_655
Eu1 Ga21 3.182267 1_555
Eu1 Ga9 3.207304 1_555
Eu1 Ga3 3.254654 1_565
Eu1 Ga11 3.374329 1_565
Eu2 Ga30 3.114126 1_655
Eu2 Ga30 3.114126 1_555
Eu2 Ga12 3.135766 1_655
Eu2 Ga12 3.135766 1_555
Eu2 Ga18 3.147741 1_555
Eu2 Ga18 3.147741 1_655
Eu2 Ga24 3.179868 1_655
Eu2 Ga24 3.179868 1_555
Eu2 Ga22 3.182267 1_555
Eu2 Ga22 3.182267 1_655
Eu2 Ga10 3.207304 1_555
Eu2 Ga2 3.254654 1_555
Eu2 Ga8 3.374329 1_555
Eu3 Ga31 3.114126 1_555
Eu3 Ga31 3.114126 1_655
Eu3 Ga13 3.135766 1_655
Eu3 Ga13 3.135766 1_555
Eu3 Ga19 3.147741 1_555
Eu3 Ga19 3.147741 1_655
Eu3 Ga25 3.179868 1_555
Eu3 Ga25 3.179868 1_655
Eu3 Ga23 3.182267 1_555
Eu3 Ga23 3.182267 1_655
Eu3 Ga11 3.207304 1_555
Eu3 Ga2 3.254654 1_556
Eu3 Ga9 3.374329 1_555
Ga0 Ga13 2.669949 1_555
Ga0 Ga12 2.669949 1_555
Ga0 Ga17 2.677246 1_555
Ga0 Ga16 2.677246 1_555
Ga0 Ga4 2.941458 1_455
Ga0 Ga4 2.941458 1_555
Ga0 Ga5 2.941458 1_555
Ga0 Ga5 2.941458 1_455
Ga1 Ga14 2.669949 1_555
Ga1 Ga15 2.669949 1_544
Ga1 Ga18 2.677246 1_545
Ga1 Ga19 2.677246 1_554
Ga1 Ga6 2.941458 1_455
Ga1 Ga6 2.941458 1_555
Ga1 Ga7 2.941458 1_544
Ga1 Ga7 2.941458 1_444
Ga2 Ga31 2.800121 1_654
Ga2 Ga31 2.800121 1_554
Ga2 Ga30 2.800121 1_655
Ga2 Ga30 2.800121 1_555
Ga2 Ga22 2.945754 1_655
Ga2 Ga22 2.945754 1_555
Ga2 Ga23 2.945754 1_654
Ga2 Ga23 2.945754 1_554
Ga10 Ga18 2.822481 1_655
Ga10 Ga18 2.822481 1_555
Ga10 Ga28 2.829299 1_655
Ga10 Ga28 2.829299 1_555
Ga10 Ga14 2.893931 1_565
Ga10 Ga14 2.893931 1_665
Ga10 Ga24 2.927523 1_655
Ga10 Ga24 2.927523 1_555
Ga11 Ga19 2.822481 1_555
Ga11 Ga19 2.822481 1_655
Ga11 Ga29 2.829299 1_655
Ga11 Ga29 2.829299 1_555
Ga11 Ga15 2.893931 1_545
Ga11 Ga15 2.893931 1_645
Ga11 Ga25 2.927523 1_655
Ga11 Ga25 2.927523 1_555
Ga12 Ga24 2.651055 1_555
Ga12 Ga30 2.808975 1_555
Ga12 Ga16 2.815178 1_555
Ga12 Ga8 2.893931 1_555
Ga12 Ga8 2.893931 1_455
Ga13 Ga25 2.651055 1_555
Ga13 Ga31 2.808975 1_555
Ga13 Ga17 2.815178 1_555
Ga13 Ga9 2.893931 1_555
Ga13 Ga9 2.893931 1_455
Ga14 Ga26 2.651055 1_555
Ga14 Ga28 2.808975 1_545
Ga14 Ga18 2.815178 1_545
Ga15 Ga27 2.651055 1_555
Ga15 Ga29 2.808975 1_565
Ga15 Ga19 2.815178 1_565
Ga16 Ga20 2.623478 1_555
Ga16 Ga8 2.822481 1_555
Ga16 Ga8 2.822481 1_455
Ga16 Ga26 3.089978 1_555
Ga16 Ga5 3.118456 1_555
Ga16 Ga5 3.118456 1_455
Ga17 Ga21 2.623478 1_555
Ga17 Ga9 2.822481 1_555
Ga17 Ga9 2.822481 1_455
Ga17 Ga27 3.089978 1_555
Ga17 Ga4 3.118456 1_455
Ga17 Ga4 3.118456 1_555
Ga18 Ga22 2.623478 1_555
Ga18 Ga24 3.089978 1_555
Ga18 Ga7 3.118456 1_554
Ga18 Ga7 3.118456 1_454
Ga19 Ga23 2.623478 1_555
Ga19 Ga25 3.089978 1_555
Ga19 Ga6 3.118456 1_456
Ga19 Ga6 3.118456 1_556
Ga20 Ga29 2.755586 1_555
Ga20 Ga25 2.771515 1_555
Ga20 Ga3 2.945754 1_555
Ga20 Ga3 2.945754 1_455
Ga20 Ga28 3.006005 1_545
Ga20 Ga5 3.026075 1_555
Ga20 Ga5 3.026075 1_455
Ga21 Ga28 2.755586 1_555
Ga21 Ga24 2.771515 1_555
Ga21 Ga3 2.945754 1_565
Ga21 Ga3 2.945754 1_465
Ga21 Ga29 3.006005 1_565
Ga21 Ga4 3.026075 1_455
Ga21 Ga4 3.026075 1_555
Ga22 Ga31 2.755586 1_554
Ga22 Ga27 2.771515 1_554
Ga22 Ga30 3.006005 1_555
Ga22 Ga7 3.026075 1_554
Ga22 Ga7 3.026075 1_454
Ga23 Ga30 2.755586 1_556
Ga23 Ga26 2.771515 1_556
Ga23 Ga31 3.006005 1_555
Ga23 Ga6 3.026075 1_456
Ga23 Ga6 3.026075 1_556
Ga24 Ga28 2.767404 1_555
Ga24 Ga4 3.011237 1_555
Ga24 Ga4 3.011237 1_455
Ga25 Ga29 2.767404 1_555
Ga25 Ga5 3.011237 1_555
Ga25 Ga5 3.011237 1_455
Ga26 Ga30 2.767404 1_555
Ga26 Ga8 2.927523 1_455
Ga26 Ga8 2.927523 1_555
Ga26 Ga6 3.011237 1_555
Ga26 Ga6 3.011237 1_455
Ga27 Ga31 2.767404 1_555
Ga27 Ga9 2.927523 1_555
Ga27 Ga9 2.927523 1_455
Ga27 Ga7 3.011237 1_555
Ga27 Ga7 3.011237 1_455
Ga28 Ga3 2.800121 1_565
Ga28 Ga3 2.800121 1_465
Ga29 Ga3 2.800121 1_455
Ga29 Ga3 2.800121 1_555
Ga30 Ga8 2.829299 1_555
Ga30 Ga8 2.829299 1_455
Ga31 Ga9 2.829299 1_455
Ga31 Ga9 2.829299 1_555
Co0 Ga10 2.359756 1_555
Co0 Ga3 2.360898 1_565
Co0 Ga4 2.450558 1_555
Co0 Ga21 2.548328 1_655
Co0 Ga21 2.548328 1_555
Co0 Ga24 2.551407 1_655
Co0 Ga24 2.551407 1_555
Co0 Ga28 2.641612 1_655
Co0 Ga28 2.641612 1_555
Co1 Ga11 2.359756 1_555
Co1 Ga3 2.360898 1_555
Co1 Ga5 2.450558 1_555
Co1 Ga20 2.548328 1_655
Co1 Ga20 2.548328 1_555
Co1 Ga25 2.551407 1_655
Co1 Ga25 2.551407 1_555
Co1 Ga29 2.641612 1_655
Co1 Ga29 2.641612 1_555
Co2 Ga8 2.359756 1_555
Co2 Ga2 2.360898 1_555
Co2 Ga6 2.450558 1_555
Co2 Ga23 2.548328 1_654
Co2 Ga23 2.548328 1_554
Co2 Ga26 2.551407 1_655
Co2 Ga26 2.551407 1_555
Co2 Ga30 2.641612 1_655
Co2 Ga30 2.641612 1_555
Co3 Ga9 2.359756 1_555
Co3 Ga2 2.360898 1_556
Co3 Ga7 2.450558 1_555
Co3 Ga22 2.548328 1_556
Co3 Ga22 2.548328 1_656
Co3 Ga27 2.551407 1_655
Co3 Ga27 2.551407 1_555
Co3 Ga31 2.641612 1_655
Co3 Ga31 2.641612 1_555
Co4 Ga8 2.320878 1_555
Co4 Ga0 2.460377 1_655
Co4 Ga0 2.460377 1_555
Co4 Ga4 2.547429 1_555
Co4 Ga5 2.552428 1_555
Co4 Ga12 2.607393 1_655
Co4 Ga12 2.607393 1_555
Co4 Ga16 2.627410 1_655
Co4 Ga16 2.627410 1_555
Co4 Co5 2.794073 1_555
Co5 Ga9 2.320878 1_555
Co5 Ga0 2.460377 1_655
Co5 Ga0 2.460377 1_555
Co5 Ga5 2.547429 1_555
Co5 Ga4 2.552428 1_555
Co5 Ga13 2.607393 1_555
Co5 Ga13 2.607393 1_655
Co5 Ga17 2.627410 1_655
Co5 Ga17 2.627410 1_555
Co6 Ga10 2.320878 1_555
Co6 Ga1 2.460377 1_665
Co6 Ga1 2.460377 1_565
Co6 Ga6 2.547429 1_565
Co6 Ga7 2.552428 1_554
Co6 Ga14 2.607393 1_665
Co6 Ga14 2.607393 1_565
Co6 Ga18 2.627410 1_555
Co6 Ga18 2.627410 1_655
Co6 Co7 2.794073 1_564
Co7 Ga11 2.320878 1_555
Co7 Ga1 2.460377 1_656
Co7 Ga1 2.460377 1_556
Co7 Ga7 2.547429 1_545
Co7 Ga6 2.552428 1_556
Co7 Ga15 2.607393 1_545
Co7 Ga15 2.607393 1_645
Co7 Ga19 2.627410 1_555
Co7 Ga19 2.627410 1_655
