# generated using pymatgen
data_Rb6U2(Cu4S5)3
_symmetry_space_group_name_H-M   'P 1'
_cell_length_a   16.40908784
_cell_length_b   16.40908784
_cell_length_c   16.40908784
_cell_angle_alpha   109.47122063
_cell_angle_beta   109.47122063
_cell_angle_gamma   109.47122063
_symmetry_Int_Tables_number   1
_chemical_formula_structural   Rb6U2(Cu4S5)3
_chemical_formula_sum   'Rb24 U8 Cu48 S60'
_cell_volume   3401.19419049
_cell_formula_units_Z   4
loop_
 _symmetry_equiv_pos_site_id
 _symmetry_equiv_pos_as_xyz
  1  'x, y, z'
loop_
 _atom_site_type_symbol
 _atom_site_label
 _atom_site_symmetry_multiplicity
 _atom_site_fract_x
 _atom_site_fract_y
 _atom_site_fract_z
 _atom_site_occupancy
  Rb  Rb0  1  0.09196325  0.84196325  0.18392651  1
  Rb  Rb1  1  0.40803675  0.09196325  0.25000000  1
  Rb  Rb2  1  0.84196325  0.65803675  0.25000000  1
  Rb  Rb3  1  0.65803675  0.40803675  0.31607349  1
  Rb  Rb4  1  0.18392651  0.09196325  0.84196325  1
  Rb  Rb5  1  0.25000000  0.40803675  0.09196325  1
  Rb  Rb6  1  0.25000000  0.84196325  0.65803675  1
  Rb  Rb7  1  0.31607349  0.65803675  0.40803675  1
  Rb  Rb8  1  0.84196325  0.18392651  0.09196325  1
  Rb  Rb9  1  0.09196325  0.25000000  0.40803675  1
  Rb  Rb10  1  0.65803675  0.25000000  0.84196325  1
  Rb  Rb11  1  0.40803675  0.31607349  0.65803675  1
  Rb  Rb12  1  0.90803675  0.15803675  0.81607349  1
  Rb  Rb13  1  0.59196325  0.90803675  0.75000000  1
  Rb  Rb14  1  0.15803675  0.34196325  0.75000000  1
  Rb  Rb15  1  0.34196325  0.59196325  0.68392651  1
  Rb  Rb16  1  0.81607349  0.90803675  0.15803675  1
  Rb  Rb17  1  0.75000000  0.59196325  0.90803675  1
  Rb  Rb18  1  0.75000000  0.15803675  0.34196325  1
  Rb  Rb19  1  0.68392651  0.34196325  0.59196325  1
  Rb  Rb20  1  0.15803675  0.81607349  0.90803675  1
  Rb  Rb21  1  0.90803675  0.75000000  0.59196325  1
  Rb  Rb22  1  0.34196325  0.75000000  0.15803675  1
  Rb  Rb23  1  0.59196325  0.68392651  0.34196325  1
  U  U0  1  -0.00000000  0.50000000  -0.00000000  1
  U  U1  1  0.50000000  -0.00000000  -0.00000000  1
  U  U2  1  -0.00000000  -0.00000000  0.50000000  1
  U  U3  1  0.50000000  0.50000000  0.50000000  1
  U  U4  1  -0.00000000  0.50000000  0.50000000  1
  U  U5  1  0.50000000  -0.00000000  0.50000000  1
  U  U6  1  0.50000000  0.50000000  -0.00000000  1
  U  U7  1  -0.00000000  -0.00000000  -0.00000000  1
  Cu  Cu0  1  0.13503905  0.56688500  0.91595882  1
  Cu  Cu1  1  0.36496095  0.78091977  0.93184595  1
  Cu  Cu2  1  0.84907382  0.93311500  0.56815405  1
  Cu  Cu3  1  0.65092618  0.71908023  0.58404118  1
  Cu  Cu4  1  0.91595882  0.13503905  0.56688500  1
  Cu  Cu5  1  0.93184595  0.36496095  0.78091977  1
  Cu  Cu6  1  0.56815405  0.84907382  0.93311500  1
  Cu  Cu7  1  0.58404118  0.65092618  0.71908023  1
  Cu  Cu8  1  0.56688500  0.91595882  0.13503905  1
  Cu  Cu9  1  0.78091977  0.93184595  0.36496095  1
  Cu  Cu10  1  0.93311500  0.56815405  0.84907382  1
  Cu  Cu11  1  0.71908023  0.58404118  0.65092618  1
  Cu  Cu12  1  0.86496095  0.43311500  0.08404118  1
  Cu  Cu13  1  0.63503905  0.21908023  0.06815405  1
  Cu  Cu14  1  0.15092618  0.06688500  0.43184595  1
  Cu  Cu15  1  0.34907382  0.28091977  0.41595882  1
  Cu  Cu16  1  0.08404118  0.86496095  0.43311500  1
  Cu  Cu17  1  0.06815405  0.63503905  0.21908023  1
  Cu  Cu18  1  0.43184595  0.15092618  0.06688500  1
  Cu  Cu19  1  0.41595882  0.34907382  0.28091977  1
  Cu  Cu20  1  0.43311500  0.08404118  0.86496095  1
  Cu  Cu21  1  0.21908023  0.06815405  0.63503905  1
  Cu  Cu22  1  0.06688500  0.43184595  0.15092618  1
  Cu  Cu23  1  0.28091977  0.41595882  0.34907382  1
  Cu  Cu24  1  0.06688500  0.63503905  0.41595882  1
  Cu  Cu25  1  0.28091977  0.86496095  0.43184595  1
  Cu  Cu26  1  0.43311500  0.34907382  0.06815405  1
  Cu  Cu27  1  0.21908023  0.15092618  0.08404118  1
  Cu  Cu28  1  0.63503905  0.41595882  0.06688500  1
  Cu  Cu29  1  0.86496095  0.43184595  0.28091977  1
  Cu  Cu30  1  0.34907382  0.06815405  0.43311500  1
  Cu  Cu31  1  0.15092618  0.08404118  0.21908023  1
  Cu  Cu32  1  0.41595882  0.06688500  0.63503905  1
  Cu  Cu33  1  0.43184595  0.28091977  0.86496095  1
  Cu  Cu34  1  0.06815405  0.43311500  0.34907382  1
  Cu  Cu35  1  0.08404118  0.21908023  0.15092618  1
  Cu  Cu36  1  0.93311500  0.36496095  0.58404118  1
  Cu  Cu37  1  0.71908023  0.13503905  0.56815405  1
  Cu  Cu38  1  0.56688500  0.65092618  0.93184595  1
  Cu  Cu39  1  0.78091977  0.84907382  0.91595882  1
  Cu  Cu40  1  0.36496095  0.58404118  0.93311500  1
  Cu  Cu41  1  0.13503905  0.56815405  0.71908023  1
  Cu  Cu42  1  0.65092618  0.93184595  0.56688500  1
  Cu  Cu43  1  0.84907382  0.91595882  0.78091977  1
  Cu  Cu44  1  0.58404118  0.93311500  0.36496095  1
  Cu  Cu45  1  0.56815405  0.71908023  0.13503905  1
  Cu  Cu46  1  0.93184595  0.56688500  0.65092618  1
  Cu  Cu47  1  0.91595882  0.78091977  0.84907382  1
  S  S0  1  0.83897397  0.42057731  0.82926382  1
  S  S1  1  0.66102603  0.99028985  0.08160334  1
  S  S2  1  0.90868651  0.07942269  0.41839666  1
  S  S3  1  0.59131349  0.50971015  0.67073618  1
  S  S4  1  0.82926382  0.83897397  0.42057731  1
  S  S5  1  0.08160334  0.66102603  0.99028985  1
  S  S6  1  0.41839666  0.90868651  0.07942269  1
  S  S7  1  0.67073618  0.59131349  0.50971015  1
  S  S8  1  0.42057731  0.82926382  0.83897397  1
  S  S9  1  0.99028985  0.08160334  0.66102603  1
  S  S10  1  0.07942269  0.41839666  0.90868651  1
  S  S11  1  0.50971015  0.67073618  0.59131349  1
  S  S12  1  0.16102603  0.57942269  0.17073618  1
  S  S13  1  0.33897397  0.00971015  0.91839666  1
  S  S14  1  0.09131349  0.92057731  0.58160334  1
  S  S15  1  0.40868651  0.49028985  0.32926382  1
  S  S16  1  0.17073618  0.16102603  0.57942269  1
  S  S17  1  0.91839666  0.33897397  0.00971015  1
  S  S18  1  0.58160334  0.09131349  0.92057731  1
  S  S19  1  0.32926382  0.40868651  0.49028985  1
  S  S20  1  0.57942269  0.17073618  0.16102603  1
  S  S21  1  0.00971015  0.91839666  0.33897397  1
  S  S22  1  0.92057731  0.58160334  0.09131349  1
  S  S23  1  0.49028985  0.32926382  0.40868651  1
  S  S24  1  0.92057731  0.33897397  0.32926382  1
  S  S25  1  0.49028985  0.16102603  0.58160334  1
  S  S26  1  0.57942269  0.40868651  0.91839666  1
  S  S27  1  0.00971015  0.09131349  0.17073618  1
  S  S28  1  0.33897397  0.32926382  0.92057731  1
  S  S29  1  0.16102603  0.58160334  0.49028985  1
  S  S30  1  0.40868651  0.91839666  0.57942269  1
  S  S31  1  0.09131349  0.17073618  0.00971015  1
  S  S32  1  0.32926382  0.92057731  0.33897397  1
  S  S33  1  0.58160334  0.49028985  0.16102603  1
  S  S34  1  0.91839666  0.57942269  0.40868651  1
  S  S35  1  0.17073618  0.00971015  0.09131349  1
  S  S36  1  0.07942269  0.66102603  0.67073618  1
  S  S37  1  0.50971015  0.83897397  0.41839666  1
  S  S38  1  0.42057731  0.59131349  0.08160334  1
  S  S39  1  0.99028985  0.90868651  0.82926382  1
  S  S40  1  0.66102603  0.67073618  0.07942269  1
  S  S41  1  0.83897397  0.41839666  0.50971015  1
  S  S42  1  0.59131349  0.08160334  0.42057731  1
  S  S43  1  0.90868651  0.82926382  0.99028985  1
  S  S44  1  0.67073618  0.07942269  0.66102603  1
  S  S45  1  0.41839666  0.50971015  0.83897397  1
  S  S46  1  0.08160334  0.42057731  0.59131349  1
  S  S47  1  0.82926382  0.99028985  0.90868651  1
  S  S48  1  0.25000000  0.12500000  0.37500000  1
  S  S49  1  0.75000000  0.37500000  0.12500000  1
  S  S50  1  0.37500000  0.25000000  0.12500000  1
  S  S51  1  0.12500000  0.75000000  0.37500000  1
  S  S52  1  0.12500000  0.37500000  0.25000000  1
  S  S53  1  0.37500000  0.12500000  0.75000000  1
  S  S54  1  0.75000000  0.87500000  0.62500000  1
  S  S55  1  0.25000000  0.62500000  0.87500000  1
  S  S56  1  0.62500000  0.75000000  0.87500000  1
  S  S57  1  0.87500000  0.25000000  0.62500000  1
  S  S58  1  0.87500000  0.62500000  0.75000000  1
  S  S59  1  0.62500000  0.87500000  0.25000000  1
loop_
_geom_bond_atom_site_label_1
_geom_bond_atom_site_label_2
_geom_bond_distance
_geom_bond_site_symmetry_2
Rb0 S21 3.340375 1_555
Rb0 S32 3.340375 1_555
Rb0 S43 3.457467 1_454
Rb0 S5 3.457467 1_554
Rb0 S22 3.644618 1_455
Rb0 S35 3.644618 1_565
Rb1 S23 3.340375 1_555
Rb1 S35 3.340375 1_555
Rb1 S6 3.457467 1_545
Rb1 S42 3.457467 1_555
Rb1 S20 3.644618 1_555
Rb1 S32 3.644618 1_545
Rb2 S34 3.340375 1_555
Rb2 S22 3.340375 1_555
Rb2 S4 3.457467 1_555
Rb2 S40 3.457467 1_555
Rb2 S33 3.644618 1_555
Rb2 S21 3.644618 1_655
Rb3 S33 3.340375 1_555
Rb3 S20 3.340375 1_555
Rb3 S7 3.457467 1_555
Rb3 S41 3.457467 1_555
Rb3 S34 3.644618 1_555
Rb3 S23 3.644618 1_555
Rb4 S13 3.340375 1_555
Rb4 S28 3.340375 1_555
Rb4 S39 3.457467 1_445
Rb4 S9 3.457467 1_455
Rb4 S14 3.644618 1_545
Rb4 S31 3.644618 1_556
Rb5 S15 3.340375 1_555
Rb5 S31 3.340375 1_555
Rb5 S10 3.457467 1_554
Rb5 S38 3.457467 1_555
Rb5 S28 3.644618 1_554
Rb5 S12 3.644618 1_555
Rb6 S14 3.340375 1_555
Rb6 S30 3.340375 1_555
Rb6 S8 3.457467 1_555
Rb6 S36 3.457467 1_555
Rb6 S29 3.644618 1_555
Rb6 S13 3.644618 1_565
Rb7 S29 3.340375 1_555
Rb7 S12 3.340375 1_555
Rb7 S11 3.457467 1_555
Rb7 S37 3.457467 1_555
Rb7 S30 3.644618 1_555
Rb7 S15 3.644618 1_555
Rb8 S17 3.340375 1_555
Rb8 S24 3.340375 1_555
Rb8 S47 3.457467 1_544
Rb8 S1 3.457467 1_545
Rb8 S18 3.644618 1_554
Rb8 S27 3.644618 1_655
Rb9 S19 3.340375 1_555
Rb9 S27 3.340375 1_555
Rb9 S2 3.457467 1_455
Rb9 S46 3.457467 1_555
Rb9 S24 3.644618 1_455
Rb9 S16 3.644618 1_555
Rb10 S26 3.340375 1_555
Rb10 S18 3.340375 1_555
Rb10 S44 3.457467 1_555
Rb10 S0 3.457467 1_555
Rb10 S25 3.644618 1_555
Rb10 S17 3.644618 1_556
Rb11 S25 3.340375 1_555
Rb11 S16 3.340375 1_555
Rb11 S3 3.457467 1_555
Rb11 S45 3.457467 1_555
Rb11 S26 3.644618 1_555
Rb11 S19 3.644618 1_555
Rb12 S9 3.340375 1_555
Rb12 S44 3.340375 1_555
Rb12 S31 3.457467 1_656
Rb12 S17 3.457467 1_556
Rb12 S10 3.644618 1_655
Rb12 S47 3.644618 1_545
Rb13 S47 3.340375 1_555
Rb13 S11 3.340375 1_555
Rb13 S30 3.457467 1_555
Rb13 S18 3.457467 1_565
Rb13 S44 3.644618 1_565
Rb13 S8 3.644618 1_555
Rb14 S46 3.340375 1_555
Rb14 S10 3.340375 1_555
Rb14 S16 3.457467 1_555
Rb14 S28 3.457467 1_555
Rb14 S45 3.644618 1_555
Rb14 S9 3.644618 1_455
Rb15 S45 3.340375 1_555
Rb15 S8 3.340375 1_555
Rb15 S19 3.457467 1_555
Rb15 S29 3.457467 1_555
Rb15 S46 3.644618 1_555
Rb15 S11 3.644618 1_555
Rb16 S1 3.340375 1_555
Rb16 S40 3.340375 1_555
Rb16 S27 3.457467 1_665
Rb16 S21 3.457467 1_655
Rb16 S2 3.644618 1_565
Rb16 S43 3.644618 1_554
Rb17 S3 3.340375 1_555
Rb17 S43 3.340375 1_555
Rb17 S26 3.457467 1_555
Rb17 S22 3.457467 1_556
Rb17 S40 3.644618 1_556
Rb17 S0 3.644618 1_555
Rb18 S2 3.340375 1_555
Rb18 S42 3.340375 1_555
Rb18 S20 3.457467 1_555
Rb18 S24 3.457467 1_555
Rb18 S41 3.644618 1_555
Rb18 S1 3.644618 1_545
Rb19 S41 3.340375 1_555
Rb19 S0 3.340375 1_555
Rb19 S23 3.457467 1_555
Rb19 S25 3.457467 1_555
Rb19 S42 3.644618 1_555
Rb19 S3 3.644618 1_555
Rb20 S5 3.340375 1_555
Rb20 S36 3.340375 1_555
Rb20 S35 3.457467 1_566
Rb20 S13 3.457467 1_565
Rb20 S6 3.644618 1_556
Rb20 S39 3.644618 1_455
Rb21 S39 3.340375 1_555
Rb21 S7 3.340375 1_555
Rb21 S34 3.457467 1_555
Rb21 S14 3.457467 1_655
Rb21 S36 3.644618 1_655
Rb21 S4 3.644618 1_555
Rb22 S6 3.340375 1_555
Rb22 S38 3.340375 1_555
Rb22 S32 3.457467 1_555
Rb22 S12 3.457467 1_555
Rb22 S37 3.644618 1_555
Rb22 S5 3.644618 1_554
Rb23 S37 3.340375 1_555
Rb23 S4 3.340375 1_555
Rb23 S15 3.457467 1_555
Rb23 S33 3.457467 1_555
Rb23 S38 3.644618 1_555
Rb23 S7 3.644618 1_555
Cu0 S55 2.234471 1_555
Cu0 S5 2.236671 1_555
Cu0 S10 2.243892 1_555
Cu0 Rb22 3.547675 1_556
Cu1 S55 2.234471 1_555
Cu1 S6 2.236671 1_556
Cu1 S8 2.243892 1_555
Cu1 Rb20 3.547675 1_555
Cu2 S54 2.234471 1_555
Cu2 S4 2.236671 1_555
Cu2 S9 2.243892 1_565
Cu2 Rb21 3.547675 1_555
Cu3 S54 2.234471 1_555
Cu3 S7 2.236671 1_555
Cu3 S11 2.243892 1_555
Cu3 Rb23 3.547675 1_555
Cu4 S57 2.234471 1_555
Cu4 S9 2.236671 1_555
Cu4 S2 2.243892 1_555
Cu4 Rb14 3.547675 1_655
Cu5 S57 2.234471 1_555
Cu5 S10 2.236671 1_655
Cu5 S0 2.243892 1_555
Cu5 Rb12 3.547675 1_555
Cu6 S56 2.234471 1_555
Cu6 S8 2.236671 1_555
Cu6 S1 2.243892 1_556
Cu6 Rb13 3.547675 1_555
Cu7 S56 2.234471 1_555
Cu7 S11 2.236671 1_555
Cu7 S3 2.243892 1_555
Cu7 Rb15 3.547675 1_555
Cu8 S59 2.234471 1_555
Cu8 S1 2.236671 1_555
Cu8 S6 2.243892 1_555
Cu8 Rb18 3.547675 1_565
Cu9 S59 2.234471 1_555
Cu9 S2 2.236671 1_565
Cu9 S4 2.243892 1_555
Cu9 Rb16 3.547675 1_555
Cu10 S58 2.234471 1_555
Cu10 S0 2.236671 1_555
Cu10 S5 2.243892 1_655
Cu10 Rb17 3.547675 1_555
Cu11 S58 2.234471 1_555
Cu11 S3 2.236671 1_555
Cu11 S7 2.243892 1_555
Cu11 Rb19 3.547675 1_555
Cu12 S49 2.234471 1_555
Cu12 S17 2.236671 1_555
Cu12 S22 2.243892 1_555
Cu12 Rb10 3.547675 1_554
Cu13 S49 2.234471 1_555
Cu13 S18 2.236671 1_554
Cu13 S20 2.243892 1_555
Cu13 Rb8 3.547675 1_555
Cu14 S48 2.234471 1_555
Cu14 S16 2.236671 1_555
Cu14 S21 2.243892 1_545
Cu14 Rb9 3.547675 1_555
Cu15 S48 2.234471 1_555
Cu15 S19 2.236671 1_555
Cu15 S23 2.243892 1_555
Cu15 Rb11 3.547675 1_555
Cu16 S51 2.234471 1_555
Cu16 S21 2.236671 1_555
Cu16 S14 2.243892 1_555
Cu16 Rb2 3.547675 1_455
Cu17 S51 2.234471 1_555
Cu17 S22 2.236671 1_455
Cu17 S12 2.243892 1_555
Cu17 Rb0 3.547675 1_555
Cu18 S50 2.234471 1_555
Cu18 S20 2.236671 1_555
Cu18 S13 2.243892 1_554
Cu18 Rb1 3.547675 1_555
Cu19 S50 2.234471 1_555
Cu19 S23 2.236671 1_555
Cu19 S15 2.243892 1_555
Cu19 Rb3 3.547675 1_555
Cu20 S53 2.234471 1_555
Cu20 S13 2.236671 1_555
Cu20 S18 2.243892 1_555
Cu20 Rb6 3.547675 1_545
Cu21 S53 2.234471 1_555
Cu21 S14 2.236671 1_545
Cu21 S16 2.243892 1_555
Cu21 Rb4 3.547675 1_555
Cu22 S52 2.234471 1_555
Cu22 S12 2.236671 1_555
Cu22 S17 2.243892 1_455
Cu22 Rb5 3.547675 1_555
Cu23 S52 2.234471 1_555
Cu23 S15 2.236671 1_555
Cu23 S19 2.243892 1_555
Cu23 Rb7 3.547675 1_555
Cu24 S51 2.234471 1_555
Cu24 S29 2.236671 1_555
Cu24 S34 2.243892 1_455
Cu24 Rb6 3.547675 1_555
Cu25 S51 2.234471 1_555
Cu25 S30 2.236671 1_555
Cu25 S32 2.243892 1_555
Cu25 Rb7 3.547675 1_555
Cu26 S50 2.234471 1_555
Cu26 S28 2.236671 1_554
Cu26 S33 2.243892 1_555
Cu26 Rb5 3.547675 1_555
Cu27 S50 2.234471 1_555
Cu27 S31 2.236671 1_555
Cu27 S35 2.243892 1_555
Cu27 Rb4 3.547675 1_554
Cu28 S49 2.234471 1_555
Cu28 S33 2.236671 1_555
Cu28 S26 2.243892 1_554
Cu28 Rb2 3.547675 1_555
Cu29 S49 2.234471 1_555
Cu29 S34 2.236671 1_555
Cu29 S24 2.243892 1_555
Cu29 Rb3 3.547675 1_555
Cu30 S48 2.234471 1_555
Cu30 S32 2.236671 1_545
Cu30 S25 2.243892 1_555
Cu30 Rb1 3.547675 1_555
Cu31 S48 2.234471 1_555
Cu31 S35 2.236671 1_555
Cu31 S27 2.243892 1_555
Cu31 Rb0 3.547675 1_545
Cu32 S53 2.234471 1_555
Cu32 S25 2.236671 1_555
Cu32 S30 2.243892 1_545
Cu32 Rb10 3.547675 1_555
Cu33 S53 2.234471 1_555
Cu33 S26 2.236671 1_555
Cu33 S28 2.243892 1_555
Cu33 Rb11 3.547675 1_555
Cu34 S52 2.234471 1_555
Cu34 S24 2.236671 1_455
Cu34 S29 2.243892 1_555
Cu34 Rb9 3.547675 1_555
Cu35 S52 2.234471 1_555
Cu35 S27 2.236671 1_555
Cu35 S31 2.243892 1_555
Cu35 Rb8 3.547675 1_455
Cu36 S57 2.234471 1_555
Cu36 S41 2.236671 1_555
Cu36 S46 2.243892 1_655
Cu36 Rb18 3.547675 1_555
Cu37 S57 2.234471 1_555
Cu37 S42 2.236671 1_555
Cu37 S44 2.243892 1_555
Cu37 Rb19 3.547675 1_555
Cu38 S56 2.234471 1_555
Cu38 S40 2.236671 1_556
Cu38 S45 2.243892 1_555
Cu38 Rb17 3.547675 1_555
Cu39 S56 2.234471 1_555
Cu39 S43 2.236671 1_555
Cu39 S47 2.243892 1_555
Cu39 Rb16 3.547675 1_556
Cu40 S55 2.234471 1_555
Cu40 S45 2.236671 1_555
Cu40 S38 2.243892 1_556
Cu40 Rb14 3.547675 1_555
Cu41 S55 2.234471 1_555
Cu41 S46 2.236671 1_555
Cu41 S36 2.243892 1_555
Cu41 Rb15 3.547675 1_555
Cu42 S54 2.234471 1_555
Cu42 S44 2.236671 1_565
Cu42 S37 2.243892 1_555
Cu42 Rb13 3.547675 1_555
Cu43 S54 2.234471 1_555
Cu43 S47 2.236671 1_555
Cu43 S39 2.243892 1_555
Cu43 Rb12 3.547675 1_565
Cu44 S59 2.234471 1_555
Cu44 S37 2.236671 1_555
Cu44 S42 2.243892 1_565
Cu44 Rb22 3.547675 1_555
Cu45 S59 2.234471 1_555
Cu45 S38 2.236671 1_555
Cu45 S40 2.243892 1_555
Cu45 Rb23 3.547675 1_555
Cu46 S58 2.234471 1_555
Cu46 S36 2.236671 1_655
Cu46 S41 2.243892 1_555
Cu46 Rb21 3.547675 1_555
Cu47 S58 2.234471 1_555
Cu47 S39 2.236671 1_555
Cu47 S43 2.243892 1_555
Cu47 Rb20 3.547675 1_655
S0 U0 2.619974 1_656
S1 U1 2.619974 1_565
S2 U2 2.619974 1_655
S3 U3 2.619974 1_555
S4 U2 2.619974 1_665
S5 U0 2.619974 1_556
S6 U1 2.619974 1_565
S7 U3 2.619974 1_555
S8 U1 2.619974 1_566
S9 U2 2.619974 1_655
S10 U0 2.619974 1_556
S11 U3 2.619974 1_555
S12 U0 2.619974 1_555
S13 U1 2.619974 1_556
S14 U2 2.619974 1_565
S15 U3 2.619974 1_555
S16 U2 2.619974 1_555
S17 U0 2.619974 1_655
S18 U1 2.619974 1_556
S19 U3 2.619974 1_555
S20 U1 2.619974 1_555
S21 U2 2.619974 1_565
S22 U0 2.619974 1_655
S23 U3 2.619974 1_555
S24 U4 2.619974 1_655
S25 U5 2.619974 1_555
S26 U6 2.619974 1_556
S27 U7 2.619974 1_555
S28 U6 2.619974 1_556
S29 U4 2.619974 1_555
S30 U5 2.619974 1_565
S31 U7 2.619974 1_555
S32 U5 2.619974 1_565
S33 U6 2.619974 1_555
S34 U4 2.619974 1_655
S35 U7 2.619974 1_555
S36 U4 2.619974 1_555
S37 U5 2.619974 1_565
S38 U6 2.619974 1_555
S39 U7 2.619974 1_666
S40 U6 2.619974 1_555
S41 U4 2.619974 1_655
S42 U5 2.619974 1_555
S43 U7 2.619974 1_666
S44 U5 2.619974 1_555
S45 U6 2.619974 1_556
S46 U4 2.619974 1_555
S47 U7 2.619974 1_666
