# generated using pymatgen
data_Nb4CuSe8
_symmetry_space_group_name_H-M   'P 1'
_cell_length_a   13.40746126
_cell_length_b   13.40746126
_cell_length_c   6.07013219
_cell_angle_alpha   77.35549919
_cell_angle_beta   77.35549919
_cell_angle_gamma   15.05430264
_symmetry_Int_Tables_number   1
_chemical_formula_structural   Nb4CuSe8
_chemical_formula_sum   'Nb4 Cu1 Se8'
_cell_volume   276.41846985
_cell_formula_units_Z   1
loop_
 _symmetry_equiv_pos_site_id
 _symmetry_equiv_pos_as_xyz
  1  'x, y, z'
loop_
 _atom_site_type_symbol
 _atom_site_label
 _atom_site_symmetry_multiplicity
 _atom_site_fract_x
 _atom_site_fract_y
 _atom_site_fract_z
 _atom_site_occupancy
  Nb  Nb0  1  0.37606412  0.37606412  0.63931323  1
  Nb  Nb1  1  0.87620156  0.87620156  0.11140883  1
  Nb  Nb2  1  0.62393588  0.62393588  0.36068677  1
  Nb  Nb3  1  0.12379844  0.12379844  0.88859117  1
  Cu  Cu0  1  0.00000000  0.00000000  -0.00000000  1
  Se  Se0  1  0.94202209  0.94202209  0.72020629  1
  Se  Se1  1  0.43921278  0.43921278  0.23561592  1
  Se  Se2  1  0.56078722  0.56078722  0.76438408  1
  Se  Se3  1  0.05797791  0.05797791  0.27979371  1
  Se  Se4  1  0.68588332  0.68588332  0.64567178  1
  Se  Se5  1  0.18931115  0.18931115  0.14504937  1
  Se  Se6  1  0.81068885  0.81068885  0.85495063  1
  Se  Se7  1  0.31411668  0.31411668  0.35432822  1
loop_
_geom_bond_atom_site_label_1
_geom_bond_atom_site_label_2
_geom_bond_distance
_geom_bond_site_symmetry_2
Nb0 Se0 2.603934 1_545
Nb0 Se0 2.603934 1_455
Nb0 Se6 2.610328 1_455
Nb0 Se6 2.610328 1_545
Nb0 Se7 2.638664 1_555
Nb0 Se1 2.646965 1_555
Nb1 Se6 2.579497 1_554
Nb1 Se0 2.620253 1_554
Nb1 Se7 2.628355 1_655
Nb1 Se7 2.628355 1_565
Nb1 Se1 2.648912 1_565
Nb1 Se1 2.648912 1_655
Nb2 Se3 2.603934 1_565
Nb2 Se3 2.603934 1_655
Nb2 Se5 2.610328 1_655
Nb2 Se5 2.610328 1_565
Nb2 Se4 2.638664 1_555
Nb2 Se2 2.646965 1_555
Nb3 Se5 2.579497 1_556
Nb3 Se3 2.620253 1_556
Nb3 Se4 2.628355 1_545
Nb3 Se4 2.628355 1_455
Nb3 Se2 2.648912 1_455
Nb3 Se2 2.648912 1_545
Cu0 Se0 2.532989 1_444
Cu0 Se3 2.532989 1_555
Cu0 Se1 2.592468 1_455
Cu0 Se1 2.592468 1_545
Cu0 Se2 2.592468 1_454
Cu0 Se2 2.592468 1_544
