# generated using pymatgen
data_Yb4SmS5
_symmetry_space_group_name_H-M   'P 1'
_cell_length_a   10.19589428
_cell_length_b   10.19589428
_cell_length_c   10.19589428
_cell_angle_alpha   158.31374454
_cell_angle_beta   149.00537006
_cell_angle_gamma   38.14623829
_symmetry_Int_Tables_number   1
_chemical_formula_structural   Yb4SmS5
_chemical_formula_sum   'Yb4 Sm1 S5'
_cell_volume   201.40798934
_cell_formula_units_Z   1
loop_
 _symmetry_equiv_pos_site_id
 _symmetry_equiv_pos_as_xyz
  1  'x, y, z'
loop_
 _atom_site_type_symbol
 _atom_site_label
 _atom_site_symmetry_multiplicity
 _atom_site_fract_x
 _atom_site_fract_y
 _atom_site_fract_z
 _atom_site_occupancy
  Yb  Yb0  1  0.09866330  0.59866330  0.50000000  1
  Yb  Yb1  1  0.70227420  0.20227420  0.50000000  1
  Yb  Yb2  1  0.29772580  0.79772580  0.50000000  1
  Yb  Yb3  1  0.90133670  0.40133670  0.50000000  1
  Sm  Sm0  1  0.50000000  0.00000000  0.50000000  1
  S  S0  1  0.80128919  0.80128919  0.00000000  1
  S  S1  1  0.39339411  0.39339411  0.00000000  1
  S  S2  1  0.00000000  0.00000000  0.00000000  1
  S  S3  1  0.60660689  0.60660589  0.00000000  1
  S  S4  1  0.19871081  0.19871081  0.00000000  1
loop_
_geom_bond_atom_site_label_1
_geom_bond_atom_site_label_2
_geom_bond_distance
_geom_bond_site_symmetry_2
S0 Yb1 2.705617 1_565
S0 Yb1 2.705617 1_554
S0 Yb3 2.719688 1_554
S0 Yb3 2.719688 1_565
S0 Yb2 2.725139 1_655
S0 Yb2 2.725139 1_554
S1 Yb2 2.660520 1_544
S1 Yb2 2.660520 1_555
S1 Yb3 2.728571 1_454
S1 Yb3 2.728571 1_555
S1 Sm0 2.810711 1_554
S1 Sm0 2.810711 1_565
S2 Yb0 2.700841 1_544
S2 Yb0 2.700841 1_555
S2 Yb3 2.700841 1_444
S2 Yb3 2.700841 1_455
S2 Sm0 2.724274 1_555
S2 Sm0 2.724274 1_454
S3 Yb1 2.660512 1_554
S3 Yb1 2.660514 1_565
S3 Yb0 2.728569 1_655
S3 Yb0 2.728574 1_554
S3 Sm0 2.810717 1_554
S3 Sm0 2.810719 1_565
S4 Yb2 2.705617 1_544
S4 Yb2 2.705617 1_555
S4 Yb0 2.719688 1_544
S4 Yb0 2.719688 1_555
S4 Yb1 2.725139 1_454
S4 Yb1 2.725139 1_555
