# generated using pymatgen
data_Ag2TeO6
_symmetry_space_group_name_H-M   'P 1'
_cell_length_a   9.03229954
_cell_length_b   6.12470557
_cell_length_c   10.04159777
_cell_angle_alpha   62.18340282
_cell_angle_beta   37.26355638
_cell_angle_gamma   80.47591117
_symmetry_Int_Tables_number   1
_chemical_formula_structural   Ag2TeO6
_chemical_formula_sum   'Ag4 Te2 O12'
_cell_volume   274.60890980
_cell_formula_units_Z   2
loop_
 _symmetry_equiv_pos_site_id
 _symmetry_equiv_pos_as_xyz
  1  'x, y, z'
loop_
 _atom_site_type_symbol
 _atom_site_label
 _atom_site_symmetry_multiplicity
 _atom_site_fract_x
 _atom_site_fract_y
 _atom_site_fract_z
 _atom_site_occupancy
  Ag  Ag0  1  0.85427500  0.59885000  0.80190200  1
  Ag  Ag1  1  0.74433100  0.81329800  0.60002100  1
  Ag  Ag2  1  0.44818300  0.50309200  0.39522400  1
  Ag  Ag3  1  0.65263100  0.40835300  0.50394000  1
  Te  Te0  1  0.23481200  0.26056900  0.26889500  1
  Te  Te1  1  0.97809800  0.01812000  0.01825400  1
  O  O0  1  0.59735500  0.26032800  0.99764700  1
  O  O1  1  0.14342800  0.00066600  0.26090300  1
  O  O2  1  0.25413200  0.10303900  0.65607900  1
  O  O3  1  0.98408300  0.65629700  0.10592900  1
  O  O4  1  0.36076600  0.53168200  0.23889200  1
  O  O5  1  0.86614600  0.22872300  0.53340000  1
  O  O6  1  0.00791100  0.38486100  0.89025200  1
  O  O7  1  0.71756300  0.88038900  0.38486800  1
  O  O8  1  0.13889700  0.95923500  0.54658100  1
  O  O9  1  0.36272600  0.53851700  0.96051000  1
  O  O10  1  0.70716900  0.89146000  0.10873100  1
  O  O11  1  0.29411100  0.10935000  0.87970000  1
loop_
_geom_bond_atom_site_label_1
_geom_bond_atom_site_label_2
_geom_bond_distance
_geom_bond_site_symmetry_2
Ag0 O0 2.018865 1_555
Ag0 O8 2.039446 1_655
Ag0 O6 2.168648 1_655
Ag0 O4 2.661226 1_556
Ag1 O1 2.022455 1_665
Ag1 O9 2.047034 1_555
Ag1 O7 2.205674 1_555
Ag1 O5 2.509606 1_565
Ag2 O2 2.015037 1_555
Ag2 O10 2.037011 1_555
Ag2 O4 2.188393 1_555
Ag2 O6 2.679003 1_555
Ag3 O3 2.009267 1_555
Ag3 O11 2.035208 1_555
Ag3 O5 2.217961 1_555
Ag3 O7 2.520060 1_555
O0 Te0 1.986740 1_556
O1 Te0 1.970057 1_555
O2 Te1 1.985991 1_456
O3 Te1 1.975905 1_565
O4 Te0 1.937763 1_555
O5 Te0 1.958204 1_655
O6 Te1 1.929944 1_456
O7 Te1 1.941968 1_565
O8 Te0 1.952701 1_565
O9 Te0 1.964280 1_556
O10 Te1 1.961423 1_565
O11 Te1 1.968824 1_456
