# generated using pymatgen
data_Fe2Si
_symmetry_space_group_name_H-M   'P 1'
_cell_length_a   4.84322083
_cell_length_b   4.84322083
_cell_length_c   4.84322083
_cell_angle_alpha   147.69192879
_cell_angle_beta   147.69192879
_cell_angle_gamma   46.34034961
_symmetry_Int_Tables_number   1
_chemical_formula_structural   Fe2Si
_chemical_formula_sum   'Fe2 Si1'
_cell_volume   32.33834472
_cell_formula_units_Z   1
loop_
 _symmetry_equiv_pos_site_id
 _symmetry_equiv_pos_as_xyz
  1  'x, y, z'
loop_
 _atom_site_type_symbol
 _atom_site_label
 _atom_site_symmetry_multiplicity
 _atom_site_fract_x
 _atom_site_fract_y
 _atom_site_fract_z
 _atom_site_occupancy
  Fe  Fe0  1  0.33963200  0.33963200  0.00000000  1
  Fe  Fe1  1  0.66036800  0.66036800  0.00000000  1
  Si  Si0  1  0.00000000  0.00000000  0.00000000  1
loop_
_geom_bond_atom_site_label_1
_geom_bond_atom_site_label_2
_geom_bond_distance
_geom_bond_site_symmetry_2
Fe0 Si0 2.381364 1_565
Fe0 Si0 2.381364 1_554
Fe0 Si0 2.381364 1_655
Fe0 Si0 2.381364 1_666
Fe0 Fe1 2.485925 1_444
Fe0 Fe1 2.485925 1_455
Fe0 Fe1 2.485925 1_556
Fe0 Fe1 2.485925 1_545
Fe1 Si0 2.381364 1_554
Fe1 Si0 2.381364 1_655
Fe1 Si0 2.381364 1_666
Fe1 Si0 2.381364 1_565
