# generated using pymatgen
data_CaCu3(NiO3)4
_symmetry_space_group_name_H-M   'P 1'
_cell_length_a   6.29785278
_cell_length_b   6.29785278
_cell_length_c   6.29785278
_cell_angle_alpha   109.47122063
_cell_angle_beta   109.47122063
_cell_angle_gamma   109.47122063
_symmetry_Int_Tables_number   1
_chemical_formula_structural   CaCu3(NiO3)4
_chemical_formula_sum   'Ca1 Cu3 Ni4 O12'
_cell_volume   192.28952330
_cell_formula_units_Z   1
loop_
 _symmetry_equiv_pos_site_id
 _symmetry_equiv_pos_as_xyz
  1  'x, y, z'
loop_
 _atom_site_type_symbol
 _atom_site_label
 _atom_site_symmetry_multiplicity
 _atom_site_fract_x
 _atom_site_fract_y
 _atom_site_fract_z
 _atom_site_occupancy
  Ca  Ca0  1  0.00000000  0.00000000  0.00000000  1
  Cu  Cu0  1  0.50000000  0.00000000  0.50000000  1
  Cu  Cu1  1  0.50000000  0.50000000  0.00000000  1
  Cu  Cu2  1  0.00000000  0.50000000  0.50000000  1
  Ni  Ni0  1  0.00000000  0.50000000  0.00000000  1
  Ni  Ni1  1  0.50000000  0.00000000  0.00000000  1
  Ni  Ni2  1  0.50000000  0.50000000  0.50000000  1
  Ni  Ni3  1  0.00000000  0.00000000  0.50000000  1
  O  O0  1  0.31053400  0.13935500  0.82882100  1
  O  O1  1  0.68946600  0.86064500  0.17117900  1
  O  O2  1  0.68946600  0.51828700  0.82882100  1
  O  O3  1  0.48171300  0.17117900  0.31053400  1
  O  O4  1  0.17117900  0.31053400  0.48171300  1
  O  O5  1  0.82882100  0.31053400  0.13935500  1
  O  O6  1  0.86064500  0.17117900  0.68946600  1
  O  O7  1  0.82882100  0.68946600  0.51828700  1
  O  O8  1  0.31053400  0.48171300  0.17117900  1
  O  O9  1  0.51828700  0.82882100  0.68946600  1
  O  O10  1  0.17117900  0.68946600  0.86064500  1
  O  O11  1  0.13935500  0.82882100  0.31053400  1
loop_
_geom_bond_atom_site_label_1
_geom_bond_atom_site_label_2
_geom_bond_distance
_geom_bond_site_symmetry_2
Ca0 O7 2.578621 1_444
Ca0 O9 2.578621 1_444
Ca0 O5 2.578621 1_455
Ca0 O6 2.578621 1_454
Ca0 O2 2.578621 1_444
Ca0 O10 2.578621 1_544
Ca0 O11 2.578621 1_545
Ca0 O0 2.578621 1_554
Ca0 O3 2.578621 1_555
Ca0 O4 2.578621 1_555
Ca0 O1 2.578621 1_445
Ca0 O8 2.578621 1_555
Cu0 O9 1.856882 1_545
Cu0 O3 1.856882 1_555
Cu0 O11 1.856882 1_545
Cu0 O6 1.856882 1_555
Cu1 O0 1.856882 1_554
Cu1 O2 1.856882 1_554
Cu1 O1 1.856882 1_555
Cu1 O8 1.856882 1_555
Cu2 O7 1.856882 1_455
Cu2 O5 1.856882 1_455
Cu2 O10 1.856882 1_555
Cu2 O4 1.856882 1_555
Ni0 O5 1.956422 1_455
Ni0 O10 1.956422 1_554
Ni0 O6 1.956422 1_454
Ni0 O2 1.956422 1_454
Ni0 O8 1.956422 1_555
Ni0 O11 1.956422 1_555
Ni1 O3 1.956422 1_555
Ni1 O0 1.956422 1_554
Ni1 O9 1.956422 1_544
Ni1 O5 1.956422 1_555
Ni1 O10 1.956422 1_544
Ni1 O1 1.956422 1_545
Ni2 O9 1.956422 1_555
Ni2 O7 1.956422 1_555
Ni2 O2 1.956422 1_555
Ni2 O4 1.956422 1_555
Ni2 O8 1.956422 1_555
Ni2 O3 1.956422 1_555
Ni3 O4 1.956422 1_555
Ni3 O11 1.956422 1_545
Ni3 O0 1.956422 1_555
Ni3 O7 1.956422 1_445
Ni3 O1 1.956422 1_445
Ni3 O6 1.956422 1_455
