# generated using pymatgen
data_SrU(PS4)2
_symmetry_space_group_name_H-M   'P 1'
_cell_length_a   11.26350100
_cell_length_b   11.26350100
_cell_length_c   9.63642400
_cell_angle_alpha   90.00000000
_cell_angle_beta   90.00000000
_cell_angle_gamma   90.00000000
_symmetry_Int_Tables_number   1
_chemical_formula_structural   SrU(PS4)2
_chemical_formula_sum   'Sr4 U4 P8 S32'
_cell_volume   1222.53894961
_cell_formula_units_Z   4
loop_
 _symmetry_equiv_pos_site_id
 _symmetry_equiv_pos_as_xyz
  1  'x, y, z'
loop_
 _atom_site_type_symbol
 _atom_site_label
 _atom_site_symmetry_multiplicity
 _atom_site_fract_x
 _atom_site_fract_y
 _atom_site_fract_z
 _atom_site_occupancy
  Sr  Sr0  1  0.50000000  0.00000000  0.75000000  1
  Sr  Sr1  1  0.00000000  0.50000000  0.25000000  1
  Sr  Sr2  1  0.00000000  0.50000000  0.75000000  1
  Sr  Sr3  1  0.50000000  0.00000000  0.25000000  1
  U  U0  1  0.50000000  0.50000000  0.75000000  1
  U  U1  1  0.50000000  0.50000000  0.25000000  1
  U  U2  1  0.00000000  0.00000000  0.75000000  1
  U  U3  1  0.00000000  0.00000000  0.25000000  1
  P  P0  1  0.46423800  0.26319300  0.50000000  1
  P  P1  1  0.73680700  0.46423800  0.00000000  1
  P  P2  1  0.96423800  0.23680700  0.50000000  1
  P  P3  1  0.76319300  0.96423800  0.00000000  1
  P  P4  1  0.53576200  0.73680700  0.50000000  1
  P  P5  1  0.26319300  0.53576200  0.00000000  1
  P  P6  1  0.03576200  0.76319300  0.50000000  1
  P  P7  1  0.23680700  0.03576200  0.00000000  1
  S  S0  1  0.27236900  0.43248500  0.82367100  1
  S  S1  1  0.56751500  0.27236900  0.32367100  1
  S  S2  1  0.77236900  0.06751500  0.82367100  1
  S  S3  1  0.93248500  0.77236900  0.32367100  1
  S  S4  1  0.27236900  0.43248500  0.17632900  1
  S  S5  1  0.56751500  0.27236900  0.67632900  1
  S  S6  1  0.77236900  0.06751500  0.17632900  1
  S  S7  1  0.93248500  0.77236900  0.67632900  1
  S  S8  1  0.72763100  0.56751500  0.17632900  1
  S  S9  1  0.43248500  0.72763100  0.67632900  1
  S  S10  1  0.22763100  0.93248500  0.17632900  1
  S  S11  1  0.06751500  0.22763100  0.67632900  1
  S  S12  1  0.72763100  0.56751500  0.82367100  1
  S  S13  1  0.43248500  0.72763100  0.32367100  1
  S  S14  1  0.22763100  0.93248500  0.82367100  1
  S  S15  1  0.06751500  0.22763100  0.32367100  1
  S  S16  1  0.36814000  0.42037300  0.50000000  1
  S  S17  1  0.57962700  0.36814000  0.00000000  1
  S  S18  1  0.86814000  0.07962700  0.50000000  1
  S  S19  1  0.92037300  0.86814000  0.00000000  1
  S  S20  1  0.63186000  0.57962700  0.50000000  1
  S  S21  1  0.42037300  0.63186000  0.00000000  1
  S  S22  1  0.13186000  0.92037300  0.50000000  1
  S  S23  1  0.07962700  0.13186000  0.00000000  1
  S  S24  1  0.36745900  0.11266000  0.50000000  1
  S  S25  1  0.88734000  0.36745900  0.00000000  1
  S  S26  1  0.86745900  0.38734000  0.50000000  1
  S  S27  1  0.61266000  0.86745900  0.00000000  1
  S  S28  1  0.63254100  0.88734000  0.50000000  1
  S  S29  1  0.11266000  0.63254100  0.00000000  1
  S  S30  1  0.13254100  0.61266000  0.50000000  1
  S  S31  1  0.38734000  0.13254100  0.00000000  1
loop_
_geom_bond_atom_site_label_1
_geom_bond_atom_site_label_2
_geom_bond_distance
_geom_bond_site_symmetry_2
P0 S24 2.015706 1_555
P0 S5 2.061813 1_555
P0 S1 2.061813 1_555
P0 S16 2.075065 1_555
P1 S25 2.015706 1_555
P1 S8 2.061813 1_555
P1 S12 2.061813 1_554
P1 S17 2.075065 1_555
P2 S26 2.015706 1_555
P2 S11 2.061813 1_655
P2 S15 2.061813 1_655
P2 S18 2.075065 1_555
P3 S27 2.015706 1_555
P3 S6 2.061813 1_565
P3 S2 2.061813 1_564
P3 S19 2.075065 1_555
P4 S28 2.015706 1_555
P4 S9 2.061813 1_555
P4 S13 2.061813 1_555
P4 S20 2.075065 1_555
P5 S29 2.015706 1_555
P5 S4 2.061813 1_555
P5 S0 2.061813 1_554
P5 S21 2.075065 1_555
P6 S30 2.015706 1_555
P6 S7 2.061813 1_455
P6 S3 2.061813 1_455
P6 S22 2.075065 1_555
P7 S31 2.015706 1_555
P7 S10 2.061813 1_545
P7 S14 2.061813 1_544
P7 S23 2.075065 1_555
S0 U0 2.766944 1_555
S0 Sr2 3.239422 1_555
S1 U1 2.766944 1_555
S1 Sr3 3.239422 1_555
S2 U2 2.766944 1_655
S2 Sr0 3.239422 1_555
S3 U3 2.766944 1_665
S3 Sr1 3.239422 1_655
S4 U1 2.766944 1_555
S4 Sr1 3.239422 1_555
S5 U0 2.766944 1_555
S5 Sr0 3.239422 1_555
S6 U3 2.766944 1_655
S6 Sr3 3.239422 1_555
S7 U2 2.766944 1_665
S7 Sr2 3.239422 1_655
S8 U1 2.766944 1_555
S8 Sr1 3.239422 1_655
S9 U0 2.766944 1_555
S9 Sr0 3.239422 1_565
S10 U3 2.766944 1_565
S10 Sr3 3.239422 1_565
S11 U2 2.766944 1_555
S11 Sr2 3.239422 1_555
S12 U0 2.766944 1_555
S12 Sr2 3.239422 1_655
S13 U1 2.766944 1_555
S13 Sr3 3.239422 1_565
S14 U2 2.766944 1_565
S14 Sr0 3.239422 1_565
S15 U3 2.766944 1_555
S15 Sr1 3.239422 1_555
S16 U0 2.968841 1_555
S16 U1 2.968841 1_555
S17 U0 2.968841 1_554
S17 U1 2.968841 1_555
S18 U3 2.968841 1_655
S18 U2 2.968841 1_655
S19 U2 2.968841 1_664
S19 U3 2.968841 1_665
S20 U0 2.968841 1_555
S20 U1 2.968841 1_555
S21 U0 2.968841 1_554
S21 U1 2.968841 1_555
S22 U2 2.968841 1_565
S22 U3 2.968841 1_565
S23 U3 2.968841 1_555
S23 U2 2.968841 1_554
S24 Sr3 3.105269 1_555
S24 Sr0 3.105269 1_555
S25 Sr2 3.105269 1_654
S25 Sr1 3.105269 1_655
S26 Sr1 3.105269 1_655
S26 Sr2 3.105269 1_655
S27 Sr3 3.105269 1_565
S27 Sr0 3.105269 1_564
S28 Sr3 3.105269 1_565
S28 Sr0 3.105269 1_565
S29 Sr2 3.105269 1_554
S29 Sr1 3.105269 1_555
S30 Sr2 3.105269 1_555
S30 Sr1 3.105269 1_555
S31 Sr3 3.105269 1_555
S31 Sr0 3.105269 1_554
