# generated using pymatgen
data_Sr2LiYbUO6
_symmetry_space_group_name_H-M   'P 1'
_cell_length_a   6.28173815
_cell_length_b   6.28173815
_cell_length_c   6.04308303
_cell_angle_alpha   61.24900108
_cell_angle_beta   61.24900108
_cell_angle_gamma   58.22732878
_symmetry_Int_Tables_number   1
_chemical_formula_structural   Sr2LiYbUO6
_chemical_formula_sum   'Sr2 Li1 Yb1 U1 O6'
_cell_volume   169.23465692
_cell_formula_units_Z   1
loop_
 _symmetry_equiv_pos_site_id
 _symmetry_equiv_pos_as_xyz
  1  'x, y, z'
loop_
 _atom_site_type_symbol
 _atom_site_label
 _atom_site_symmetry_multiplicity
 _atom_site_fract_x
 _atom_site_fract_y
 _atom_site_fract_z
 _atom_site_occupancy
  Sr  Sr0  1  0.69299398  0.69299398  0.80700602  1
  Sr  Sr1  1  0.30700602  0.30700602  0.19299398  1
  Li  Li0  1  0.00000000  0.00000000  0.50000000  1
  Yb  Yb0  1  0.50000000  0.50000000  0.50000000  1
  U  U0  1  0.00000000  0.00000000  0.00000000  1
  O  O0  1  0.74654063  0.74654063  0.25345937  1
  O  O1  1  0.25345937  0.25345937  0.74654063  1
  O  O2  1  0.74804683  0.25195317  0.74867158  1
  O  O3  1  0.25195317  0.74804683  0.25132842  1
  O  O4  1  0.25195317  0.74804683  0.74867158  1
  O  O5  1  0.74804683  0.25195317  0.25132842  1
loop_
_geom_bond_atom_site_label_1
_geom_bond_atom_site_label_2
_geom_bond_distance
_geom_bond_site_symmetry_2
Li0 O2 2.151784 1_455
Li0 O4 2.151784 1_545
Li0 O5 2.151784 1_455
Li0 O3 2.151784 1_545
Li0 Sr1 2.813040 1_555
Li0 Sr0 2.813040 1_445
O0 Yb0 2.259007 1_555
O0 U0 2.322402 1_665
O0 Sr0 3.061117 1_554
O0 Sr0 3.061117 1_555
O0 Sr1 3.106150 1_565
O0 Sr1 3.106150 1_655
O1 Yb0 2.259007 1_555
O1 U0 2.322402 1_556
O1 Sr1 3.061117 1_556
O1 Sr1 3.061117 1_555
O1 Sr0 3.106150 1_455
O1 Sr0 3.106150 1_545
O2 Yb0 2.134758 1_555
O2 U0 2.163027 1_656
O2 Sr1 2.780797 1_556
O2 Sr0 2.780797 1_555
O3 Yb0 2.134758 1_555
O3 U0 2.163027 1_565
O3 Sr0 2.780797 1_554
O3 Sr1 2.780797 1_555
O4 Yb0 2.134758 1_555
O4 U0 2.163027 1_566
O4 Sr1 2.780797 1_556
O4 Sr0 2.780797 1_555
O5 Yb0 2.134758 1_555
O5 U0 2.163027 1_655
O5 Sr0 2.780797 1_554
O5 Sr1 2.780797 1_555
