# generated using pymatgen
data_PmTm3
_symmetry_space_group_name_H-M   'P 1'
_cell_length_a   7.16836145
_cell_length_b   7.16836053
_cell_length_c   5.73334725
_cell_angle_alpha   90.00000000
_cell_angle_beta   90.00000000
_cell_angle_gamma   119.99998560
_symmetry_Int_Tables_number   1
_chemical_formula_structural   PmTm3
_chemical_formula_sum   'Pm2 Tm6'
_cell_volume   255.14007363
_cell_formula_units_Z   2
loop_
 _symmetry_equiv_pos_site_id
 _symmetry_equiv_pos_as_xyz
  1  'x, y, z'
loop_
 _atom_site_type_symbol
 _atom_site_label
 _atom_site_symmetry_multiplicity
 _atom_site_fract_x
 _atom_site_fract_y
 _atom_site_fract_z
 _atom_site_occupancy
  Pm  Pm0  1  0.66666700  0.33333300  0.25000000  1
  Pm  Pm1  1  0.33333300  0.66666700  0.75000000  1
  Tm  Tm0  1  0.83528234  0.16471766  0.75000000  1
  Tm  Tm1  1  0.32943631  0.16471766  0.75000000  1
  Tm  Tm2  1  0.83528234  0.67056369  0.75000000  1
  Tm  Tm3  1  0.16471766  0.83528234  0.25000000  1
  Tm  Tm4  1  0.67056369  0.83528234  0.25000000  1
  Tm  Tm5  1  0.16471766  0.32943631  0.25000000  1
loop_
_geom_bond_atom_site_label_1
_geom_bond_atom_site_label_2
_geom_bond_distance
_geom_bond_site_symmetry_2
Pm0 Tm0 3.549740 1_554
Pm0 Tm0 3.549740 1_555
Pm0 Tm2 3.549740 1_554
Pm0 Tm2 3.549740 1_555
Pm0 Tm1 3.549740 1_555
Pm0 Tm1 3.549740 1_554
Pm0 Tm4 3.584255 1_545
Pm0 Tm5 3.584255 1_655
Pm0 Tm3 3.584263 1_655
Pm0 Tm3 3.584263 1_545
Pm0 Tm4 3.584269 1_555
Pm0 Tm5 3.584269 1_555
Pm1 Tm3 3.549740 1_555
Pm1 Tm3 3.549740 1_556
Pm1 Tm5 3.549740 1_556
Pm1 Tm5 3.549740 1_555
Pm1 Tm4 3.549740 1_556
Pm1 Tm4 3.549740 1_555
Pm1 Tm1 3.584255 1_565
Pm1 Tm2 3.584255 1_455
Pm1 Tm0 3.584263 1_455
Pm1 Tm0 3.584263 1_565
Pm1 Tm1 3.584269 1_555
Pm1 Tm2 3.584269 1_555
Tm0 Tm4 3.521416 1_546
Tm0 Tm4 3.521416 1_545
Tm0 Tm5 3.521416 1_655
Tm0 Tm5 3.521416 1_656
Tm0 Tm2 3.542274 1_545
Tm0 Tm1 3.542274 1_655
Tm0 Tm2 3.626087 1_555
Tm0 Tm1 3.626087 1_555
Tm1 Tm3 3.521416 1_545
Tm1 Tm3 3.521416 1_546
Tm1 Tm5 3.521423 1_556
Tm1 Tm5 3.521423 1_555
Tm1 Tm2 3.542275 1_445
Tm1 Tm2 3.626088 1_555
Tm2 Tm3 3.521416 1_656
Tm2 Tm3 3.521416 1_655
Tm2 Tm4 3.521423 1_556
Tm2 Tm4 3.521423 1_555
Tm3 Tm5 3.542274 1_565
Tm3 Tm4 3.542274 1_455
Tm3 Tm5 3.626087 1_555
Tm3 Tm4 3.626087 1_555
Tm4 Tm5 3.542275 1_665
Tm4 Tm5 3.626088 1_555
