# generated using pymatgen
data_Lu10Mn13C18
_symmetry_space_group_name_H-M   'P 1'
_cell_length_a   8.59373636
_cell_length_b   8.59373636
_cell_length_c   8.59373636
_cell_angle_alpha   109.47122063
_cell_angle_beta   109.47122063
_cell_angle_gamma   109.47122063
_symmetry_Int_Tables_number   1
_chemical_formula_structural   Lu10Mn13C18
_chemical_formula_sum   'Lu10 Mn13 C18'
_cell_volume   488.56706547
_cell_formula_units_Z   1
loop_
 _symmetry_equiv_pos_site_id
 _symmetry_equiv_pos_as_xyz
  1  'x, y, z'
loop_
 _atom_site_type_symbol
 _atom_site_label
 _atom_site_symmetry_multiplicity
 _atom_site_fract_x
 _atom_site_fract_y
 _atom_site_fract_z
 _atom_site_occupancy
  Lu  Lu0  1  0.50000000  0.75000000  0.25000000  1
  Lu  Lu1  1  0.75000000  0.50000000  0.25000000  1
  Lu  Lu2  1  0.25000000  0.75000000  0.50000000  1
  Lu  Lu3  1  0.25000000  0.50000000  0.75000000  1
  Lu  Lu4  1  0.50000000  0.25000000  0.75000000  1
  Lu  Lu5  1  0.75000000  0.25000000  0.50000000  1
  Lu  Lu6  1  0.41136700  0.00000000  0.00000000  1
  Lu  Lu7  1  0.00000000  0.41136700  0.00000000  1
  Lu  Lu8  1  0.00000000  0.00000000  0.41136700  1
  Lu  Lu9  1  0.58863300  0.58863300  0.58863300  1
  Mn  Mn0  1  0.00000000  0.00000000  0.00000000  1
  Mn  Mn1  1  0.66548400  0.82002800  0.00000000  1
  Mn  Mn2  1  0.84545600  0.17997200  0.17997200  1
  Mn  Mn3  1  0.66548400  0.00000000  0.82002800  1
  Mn  Mn4  1  0.82002800  0.66548400  0.00000000  1
  Mn  Mn5  1  0.00000000  0.66548400  0.82002800  1
  Mn  Mn6  1  0.17997200  0.84545600  0.17997200  1
  Mn  Mn7  1  0.17997200  0.17997200  0.84545600  1
  Mn  Mn8  1  0.00000000  0.82002800  0.66548400  1
  Mn  Mn9  1  0.82002800  0.00000000  0.66548400  1
  Mn  Mn10  1  0.33451600  0.33451600  0.15454400  1
  Mn  Mn11  1  0.15454400  0.33451600  0.33451600  1
  Mn  Mn12  1  0.33451600  0.15454400  0.33451600  1
  C  C0  1  0.70264000  0.22350900  0.00000000  1
  C  C1  1  0.47913000  0.77649100  0.77649100  1
  C  C2  1  0.70264000  0.00000000  0.22350900  1
  C  C3  1  0.22350900  0.70264000  0.00000000  1
  C  C4  1  0.00000000  0.70264000  0.22350900  1
  C  C5  1  0.77649100  0.47913000  0.77649100  1
  C  C6  1  0.77649100  0.77649100  0.47913000  1
  C  C7  1  0.00000000  0.22350900  0.70264000  1
  C  C8  1  0.22350900  0.00000000  0.70264000  1
  C  C9  1  0.29736000  0.29736000  0.52087000  1
  C  C10  1  0.52087000  0.29736000  0.29736000  1
  C  C11  1  0.29736000  0.52087000  0.29736000  1
  C  C12  1  0.56940100  0.56940100  0.00000000  1
  C  C13  1  0.00000000  0.43059900  0.43059900  1
  C  C14  1  0.56940100  0.00000000  0.56940100  1
  C  C15  1  0.00000000  0.56940100  0.56940100  1
  C  C16  1  0.43059900  0.00000000  0.43059900  1
  C  C17  1  0.43059900  0.43059900  0.00000000  1
loop_
_geom_bond_atom_site_label_1
_geom_bond_atom_site_label_2
_geom_bond_distance
_geom_bond_site_symmetry_2
Lu6 Mn0 3.535180 1_555
Lu7 Mn0 3.535180 1_555
Lu8 Mn0 3.535180 1_555
Lu9 Mn0 3.535180 1_666
Mn0 Mn6 2.773464 1_545
Mn0 Mn10 2.773464 1_555
Mn0 Mn4 2.773464 1_445
Mn0 Mn9 2.773464 1_454
Mn0 Mn11 2.773464 1_555
Mn0 Mn8 2.773464 1_544
Mn0 Mn2 2.773464 1_455
Mn0 Mn12 2.773464 1_555
Mn0 Mn7 2.773464 1_554
Mn0 Mn3 2.773464 1_454
Mn0 Mn5 2.773464 1_544
Mn0 Mn1 2.773464 1_445
C0 Mn3 1.861399 1_554
C0 Mn2 1.861399 1_555
C0 Lu1 2.407555 1_555
C0 Lu4 2.407555 1_554
C0 Lu7 2.527094 1_655
C0 Lu6 2.598022 1_555
C1 Mn3 1.861403 1_565
C1 Mn1 1.861403 1_556
C1 Lu2 2.407551 1_555
C1 Lu3 2.407551 1_555
C1 Lu9 2.527101 1_555
C1 Lu6 2.598016 1_566
C2 Mn2 1.861399 1_555
C2 Mn1 1.861399 1_545
C2 Lu5 2.407555 1_555
C2 Lu0 2.407555 1_545
C2 Lu8 2.527094 1_655
C2 Lu6 2.598022 1_555
C3 Mn6 1.861399 1_555
C3 Mn5 1.861399 1_554
C3 Lu3 2.407555 1_554
C3 Lu0 2.407555 1_555
C3 Lu6 2.527094 1_565
C3 Lu7 2.598022 1_555
C4 Mn4 1.861399 1_455
C4 Mn6 1.861399 1_555
C4 Lu1 2.407555 1_455
C4 Lu2 2.407555 1_555
C4 Lu8 2.527094 1_565
C4 Lu7 2.598022 1_555
C5 Mn5 1.861403 1_655
C5 Mn4 1.861403 1_556
C5 Lu5 2.407551 1_555
C5 Lu4 2.407551 1_555
C5 Lu9 2.527101 1_555
C5 Lu7 2.598016 1_656
C6 Mn8 1.861403 1_655
C6 Mn9 1.861403 1_565
C6 Lu1 2.407551 1_555
C6 Lu0 2.407551 1_555
C6 Lu9 2.527101 1_555
C6 Lu8 2.598016 1_665
C7 Mn7 1.861399 1_555
C7 Mn9 1.861399 1_455
C7 Lu5 2.407555 1_455
C7 Lu3 2.407555 1_555
C7 Lu7 2.527094 1_556
C7 Lu8 2.598022 1_555
C8 Mn8 1.861399 1_545
C8 Mn7 1.861399 1_555
C8 Lu2 2.407555 1_545
C8 Lu4 2.407555 1_555
C8 Lu6 2.527094 1_556
C8 Lu8 2.598022 1_555
C9 Mn11 1.861405 1_555
C9 Mn12 1.861405 1_555
C9 Lu3 2.407550 1_555
C9 Lu4 2.407550 1_555
C9 Lu8 2.527091 1_555
C9 Lu9 2.598025 1_555
C10 Mn12 1.861405 1_555
C10 Mn10 1.861405 1_555
C10 Lu1 2.407550 1_555
C10 Lu5 2.407550 1_555
C10 Lu6 2.527091 1_555
C10 Lu9 2.598025 1_555
C11 Mn11 1.861405 1_555
C11 Mn10 1.861405 1_555
C11 Lu2 2.407550 1_555
C11 Lu0 2.407550 1_555
C11 Lu7 2.527091 1_555
C11 Lu9 2.598025 1_555
C12 C17 1.377359 1_555
C12 Mn4 2.033501 1_555
C12 Mn1 2.033501 1_555
C12 Lu0 2.574614 1_555
C12 Lu3 2.574614 1_554
C12 Lu1 2.574614 1_555
C12 Lu4 2.574614 1_554
C13 C15 1.377359 1_555
C13 Mn11 2.033501 1_555
C13 Mn2 2.033501 1_455
C13 Lu2 2.574614 1_555
C13 Lu3 2.574614 1_555
C13 Lu1 2.574614 1_455
C13 Lu5 2.574614 1_455
C14 C16 1.377359 1_555
C14 Mn9 2.033501 1_555
C14 Mn3 2.033501 1_555
C14 Lu4 2.574614 1_555
C14 Lu0 2.574614 1_545
C14 Lu5 2.574614 1_555
C14 Lu2 2.574614 1_545
C15 Mn8 2.033501 1_555
C15 Mn5 2.033501 1_555
C15 Lu3 2.574614 1_555
C15 Lu1 2.574614 1_455
C15 Lu5 2.574614 1_455
C15 Lu2 2.574614 1_555
C16 Mn12 2.033501 1_555
C16 Mn6 2.033501 1_545
C16 Lu5 2.574614 1_555
C16 Lu2 2.574614 1_545
C16 Lu4 2.574614 1_555
C16 Lu0 2.574614 1_545
C17 Mn10 2.033501 1_555
C17 Mn7 2.033501 1_554
C17 Lu0 2.574614 1_555
C17 Lu3 2.574614 1_554
C17 Lu1 2.574614 1_555
C17 Lu4 2.574614 1_554
