# generated using pymatgen
data_CaAlFe3O7
_symmetry_space_group_name_H-M   'P 1'
_cell_length_a   10.52416900
_cell_length_b   10.71186548
_cell_length_c   11.97805318
_cell_angle_alpha   94.08842380
_cell_angle_beta   111.22119440
_cell_angle_gamma   110.36765264
_symmetry_Int_Tables_number   1
_chemical_formula_structural   CaAlFe3O7
_chemical_formula_sum   'Ca8 Al8 Fe24 O56'
_cell_volume   1149.60188121
_cell_formula_units_Z   8
loop_
 _symmetry_equiv_pos_site_id
 _symmetry_equiv_pos_as_xyz
  1  'x, y, z'
loop_
 _atom_site_type_symbol
 _atom_site_label
 _atom_site_symmetry_multiplicity
 _atom_site_fract_x
 _atom_site_fract_y
 _atom_site_fract_z
 _atom_site_occupancy
  Ca  Ca0  1  0.04549800  0.40050000  0.08457600  1
  Ca  Ca1  1  0.95450200  0.59950000  0.91542400  1
  Ca  Ca2  1  0.59409500  0.15345600  0.16970100  1
  Ca  Ca3  1  0.40590500  0.84654400  0.83029900  1
  Ca  Ca4  1  0.02754600  0.88735700  0.07923800  1
  Ca  Ca5  1  0.97245400  0.11264300  0.92076200  1
  Ca  Ca6  1  0.57891600  0.68138700  0.16714000  1
  Ca  Ca7  1  0.42108400  0.31861300  0.83286000  1
  Al  Al0  1  0.25216400  0.02469700  0.92408200  1
  Al  Al1  1  0.74783600  0.97530300  0.07591800  1
  Al  Al2  1  0.32973300  0.80875700  0.07340200  1
  Al  Al3  1  0.67026700  0.19124300  0.92659800  1
  Al  Al4  1  0.74120800  0.48049000  0.08201800  1
  Al  Al5  1  0.25879200  0.51951000  0.91798200  1
  Al  Al6  1  0.33987300  0.31678200  0.08641400  1
  Al  Al7  1  0.66012700  0.68321800  0.91358600  1
  Fe  Fe0  1  0.67340100  0.46202600  0.34614900  1
  Fe  Fe1  1  0.32659900  0.53797400  0.65385100  1
  Fe  Fe2  1  0.12319100  0.67923500  0.22757500  1
  Fe  Fe3  1  0.87680900  0.32076500  0.77242500  1
  Fe  Fe4  1  0.87305100  0.02089300  0.36509200  1
  Fe  Fe5  1  0.12694900  0.97910700  0.63490800  1
  Fe  Fe6  1  0.50850600  0.08948700  0.63667600  1
  Fe  Fe7  1  0.49149400  0.91051300  0.36332400  1
  Fe  Fe8  1  0.99719400  0.40692900  0.36962900  1
  Fe  Fe9  1  0.00280600  0.59307100  0.63037100  1
  Fe  Fe10  1  0.06957000  0.28740200  0.64481600  1
  Fe  Fe11  1  0.93043000  0.71259800  0.35518400  1
  Fe  Fe12  1  0.42370500  0.21420900  0.35291500  1
  Fe  Fe13  1  0.57629500  0.78579100  0.64708500  1
  Fe  Fe14  1  0.10449200  0.18657300  0.22799400  1
  Fe  Fe15  1  0.89550800  0.81342700  0.77200600  1
  Fe  Fe16  1  0.25703200  0.25569300  0.51308800  1
  Fe  Fe17  1  0.74296800  0.74430700  0.48691200  1
  Fe  Fe18  1  0.81308000  0.03140000  0.62843200  1
  Fe  Fe19  1  0.18692000  0.96860000  0.37156800  1
  Fe  Fe20  1  0.74322800  0.24925200  0.48706300  1
  Fe  Fe21  1  0.25677200  0.75074800  0.51293700  1
  Fe  Fe22  1  0.37303000  0.52874900  0.37043300  1
  Fe  Fe23  1  0.62697000  0.47125100  0.62956700  1
  O  O0  1  0.37525600  0.47603600  0.04495800  1
  O  O1  1  0.62474400  0.52396400  0.95504200  1
  O  O2  1  0.17048700  0.26336500  0.10328500  1
  O  O3  1  0.82951300  0.73663500  0.89671500  1
  O  O4  1  0.23975900  0.56763900  0.24507000  1
  O  O5  1  0.76024100  0.43236100  0.75493000  1
  O  O6  1  0.18798700  0.17381700  0.63807800  1
  O  O7  1  0.81201300  0.82618300  0.36192200  1
  O  O8  1  0.30807400  0.33099800  0.37404200  1
  O  O9  1  0.69192600  0.66900200  0.62595800  1
  O  O10  1  0.79264200  0.34143600  0.35821000  1
  O  O11  1  0.20735800  0.65856400  0.64179000  1
  O  O12  1  0.62069000  0.36690700  0.48103900  1
  O  O13  1  0.37931000  0.63309300  0.51896100  1
  O  O14  1  0.69896500  0.15660900  0.62446400  1
  O  O15  1  0.30103500  0.84339100  0.37553600  1
  O  O16  1  0.13971000  0.37663600  0.51828200  1
  O  O17  1  0.86029000  0.62336400  0.48171800  1
  O  O18  1  0.74391800  0.03119300  0.21747300  1
  O  O19  1  0.25608200  0.96880700  0.78252700  1
  O  O20  1  0.31686700  0.20339200  0.95961300  1
  O  O21  1  0.68313300  0.79660800  0.04038700  1
  O  O22  1  0.06525400  0.60617400  0.37374700  1
  O  O23  1  0.93474600  0.39382600  0.62625300  1
  O  O24  1  0.36956400  0.13191200  0.50029300  1
  O  O25  1  0.63043600  0.86808800  0.49970700  1
  O  O26  1  0.54987600  0.10420500  0.35944500  1
  O  O27  1  0.45012400  0.89579500  0.64055500  1
  O  O28  1  0.07198700  0.45717200  0.90170500  1
  O  O29  1  0.92801300  0.54282800  0.09829500  1
  O  O30  1  0.48210500  0.30925200  0.22526500  1
  O  O31  1  0.51789500  0.69074800  0.77473500  1
  O  O32  1  0.37051400  0.97022200  0.03601000  1
  O  O33  1  0.62948600  0.02977800  0.96399000  1
  O  O34  1  0.86838300  0.13210600  0.49967600  1
  O  O35  1  0.13161700  0.86789400  0.50032400  1
  O  O36  1  0.93211000  0.04521600  0.09024400  1
  O  O37  1  0.06789000  0.95478400  0.90975600  1
  O  O38  1  0.23010800  0.06773800  0.24637800  1
  O  O39  1  0.76989200  0.93226200  0.75362200  1
  O  O40  1  0.00099900  0.30583600  0.24172100  1
  O  O41  1  0.99900100  0.69416400  0.75827900  1
  O  O42  1  0.43467900  0.41248300  0.64118500  1
  O  O43  1  0.56532100  0.58751700  0.35881500  1
  O  O44  1  0.01707500  0.80518400  0.24904900  1
  O  O45  1  0.98292500  0.19481600  0.75095100  1
  O  O46  1  0.07473500  0.09503500  0.37503500  1
  O  O47  1  0.92526500  0.90496500  0.62496500  1
  O  O48  1  0.25799700  0.44505300  0.77568200  1
  O  O49  1  0.74200300  0.55494700  0.22431800  1
  O  O50  1  0.66171300  0.29896600  0.04185900  1
  O  O51  1  0.33828700  0.70103400  0.95814100  1
  O  O52  1  0.53036200  0.18044300  0.78326300  1
  O  O53  1  0.46963800  0.81955700  0.21673700  1
  O  O54  1  0.16009000  0.75260100  0.08970400  1
  O  O55  1  0.83991000  0.24739900  0.91029600  1
loop_
_geom_bond_atom_site_label_1
_geom_bond_atom_site_label_2
_geom_bond_distance
_geom_bond_site_symmetry_2
Ca0 O2 2.262072 1_555
Ca0 O4 2.279667 1_555
Ca0 O29 2.302976 1_455
Ca0 O40 2.317402 1_555
Ca0 O55 2.345380 1_454
Ca0 O28 2.399611 1_554
Ca1 O3 2.262072 1_555
Ca1 O5 2.279667 1_555
Ca1 O28 2.302976 1_655
Ca1 O41 2.317402 1_555
Ca1 O54 2.345380 1_656
Ca1 O29 2.399611 1_556
Ca2 O18 2.328080 1_555
Ca2 O32 2.358531 1_545
Ca2 O50 2.374427 1_555
Ca2 O30 2.528994 1_555
Ca2 O26 2.534979 1_555
Ca2 O10 2.554703 1_555
Ca2 O33 2.916790 1_554
Ca3 O19 2.328080 1_555
Ca3 O33 2.358531 1_565
Ca3 O51 2.374427 1_555
Ca3 O31 2.528994 1_555
Ca3 O27 2.534979 1_555
Ca3 O11 2.554703 1_555
Ca3 O32 2.916790 1_556
Ca4 O36 2.265351 1_465
Ca4 O44 2.296554 1_555
Ca4 O54 2.312135 1_555
Ca4 O37 2.332961 1_554
Ca4 O3 2.363447 1_454
Ca4 O38 2.403654 1_565
Ca5 O37 2.265351 1_645
Ca5 O45 2.296554 1_555
Ca5 O55 2.312135 1_555
Ca5 O36 2.332961 1_556
Ca5 O2 2.363447 1_656
Ca5 O39 2.403654 1_545
Ca6 O53 2.328136 1_555
Ca6 O21 2.358349 1_555
Ca6 O0 2.358539 1_555
Ca6 O49 2.479676 1_555
Ca6 O7 2.561067 1_555
Ca6 O43 2.601830 1_555
Ca7 O52 2.328136 1_555
Ca7 O20 2.358349 1_555
Ca7 O1 2.358539 1_555
Ca7 O48 2.479676 1_555
Ca7 O6 2.561067 1_555
Ca7 O42 2.601830 1_555
Al0 O20 1.753723 1_555
Al0 O37 1.755303 1_545
Al0 O32 1.760079 1_546
Al0 O19 1.777098 1_545
Al1 O21 1.753723 1_555
Al1 O36 1.755303 1_565
Al1 O33 1.760079 1_564
Al1 O18 1.777098 1_565
Al2 O54 1.763241 1_555
Al2 O32 1.763289 1_555
Al2 O53 1.775393 1_555
Al2 O51 1.783482 1_554
Al3 O55 1.763241 1_555
Al3 O33 1.763289 1_555
Al3 O52 1.775393 1_555
Al3 O50 1.783482 1_556
Al4 O29 1.771744 1_555
Al4 O50 1.776277 1_555
Al4 O1 1.783577 1_554
Al4 O49 1.825547 1_555
Al5 O28 1.771744 1_555
Al5 O51 1.776277 1_555
Al5 O0 1.783577 1_556
Al5 O48 1.825547 1_555
Al6 O20 1.762607 1_554
Al6 O0 1.762903 1_555
Al6 O2 1.764464 1_555
Al6 O30 1.820480 1_555
Al7 O21 1.762607 1_556
Al7 O1 1.762903 1_555
Al7 O3 1.764464 1_555
Al7 O31 1.820480 1_555
Fe0 O30 2.021441 1_555
Fe0 O49 2.027600 1_555
Fe0 O43 2.069776 1_555
Fe0 O10 2.070752 1_555
Fe0 O17 2.100887 1_555
Fe0 O12 2.108700 1_555
Fe1 O31 2.021441 1_555
Fe1 O48 2.027600 1_555
Fe1 O42 2.069776 1_555
Fe1 O11 2.070752 1_555
Fe1 O16 2.100887 1_555
Fe1 O13 2.108700 1_555
Fe2 O4 1.961710 1_555
Fe2 O54 1.983057 1_555
Fe2 O29 2.009394 1_455
Fe2 O44 2.083467 1_555
Fe2 O15 2.144631 1_555
Fe2 O22 2.164681 1_555
Fe3 O5 1.961710 1_555
Fe3 O55 1.983057 1_555
Fe3 O28 2.009394 1_655
Fe3 O45 2.083467 1_555
Fe3 O14 2.144631 1_555
Fe3 O23 2.164681 1_555
Fe4 O18 1.837977 1_555
Fe4 O46 1.944293 1_655
Fe4 O7 1.950049 1_545
Fe4 O34 1.960754 1_555
Fe5 O19 1.837977 1_555
Fe5 O47 1.944293 1_455
Fe5 O6 1.950049 1_565
Fe5 O35 1.960754 1_555
Fe6 O52 1.841957 1_555
Fe6 O14 1.944258 1_555
Fe6 O27 1.957427 1_545
Fe6 O24 1.962774 1_555
Fe7 O53 1.841957 1_555
Fe7 O15 1.944258 1_555
Fe7 O26 1.957427 1_565
Fe7 O25 1.962774 1_555
Fe8 O40 1.832918 1_655
Fe8 O10 1.966484 1_555
Fe8 O22 1.991466 1_655
Fe8 O16 2.003281 1_655
Fe9 O41 1.832918 1_455
Fe9 O11 1.966484 1_555
Fe9 O23 1.991466 1_455
Fe9 O17 2.003281 1_455
Fe10 O45 1.954682 1_455
Fe10 O6 2.038210 1_555
Fe10 O16 2.069073 1_555
Fe10 O48 2.069427 1_555
Fe10 O23 2.072691 1_455
Fe10 O34 2.178023 1_455
Fe11 O44 1.954682 1_655
Fe11 O7 2.038210 1_555
Fe11 O17 2.069073 1_555
Fe11 O49 2.069427 1_555
Fe11 O22 2.072691 1_655
Fe11 O35 2.178023 1_655
Fe12 O38 1.961737 1_555
Fe12 O26 2.045700 1_555
Fe12 O30 2.053973 1_555
Fe12 O12 2.075301 1_555
Fe12 O8 2.085072 1_555
Fe12 O24 2.195113 1_555
Fe13 O39 1.961737 1_555
Fe13 O27 2.045700 1_555
Fe13 O31 2.053973 1_555
Fe13 O13 2.075301 1_555
Fe13 O9 2.085072 1_555
Fe13 O25 2.195113 1_555
Fe14 O36 1.967496 1_455
Fe14 O40 1.978305 1_555
Fe14 O2 1.979643 1_555
Fe14 O38 2.101712 1_555
Fe14 O46 2.143222 1_555
Fe14 O8 2.153505 1_555
Fe15 O37 1.967496 1_655
Fe15 O41 1.978305 1_555
Fe15 O3 1.979643 1_555
Fe15 O39 2.101712 1_555
Fe15 O47 2.143222 1_555
Fe15 O9 2.153505 1_555
Fe16 O42 2.010100 1_555
Fe16 O6 2.017377 1_555
Fe16 O8 2.061740 1_555
Fe16 O16 2.089105 1_555
Fe16 O46 2.091910 1_555
Fe16 O24 2.092757 1_555
Fe17 O43 2.010100 1_555
Fe17 O7 2.017377 1_555
Fe17 O9 2.061740 1_555
Fe17 O17 2.089105 1_555
Fe17 O47 2.091910 1_555
Fe17 O25 2.092757 1_555
Fe18 O39 1.991839 1_545
Fe18 O45 1.992385 1_555
Fe18 O25 2.064364 1_545
Fe18 O34 2.081100 1_555
Fe18 O14 2.081453 1_555
Fe18 O47 2.090569 1_545
Fe19 O38 1.991839 1_565
Fe19 O44 1.992385 1_555
Fe19 O24 2.064364 1_565
Fe19 O35 2.081100 1_555
Fe19 O15 2.081453 1_555
Fe19 O46 2.090569 1_565
Fe20 O10 2.017066 1_555
Fe20 O26 2.024884 1_555
Fe20 O23 2.065628 1_555
Fe20 O12 2.081735 1_555
Fe20 O34 2.089463 1_555
Fe20 O14 2.092028 1_555
Fe21 O11 2.017066 1_555
Fe21 O27 2.024884 1_555
Fe21 O22 2.065628 1_555
Fe21 O13 2.081735 1_555
Fe21 O35 2.089463 1_555
Fe21 O15 2.092028 1_555
Fe22 O4 1.834878 1_555
Fe22 O43 1.959749 1_555
Fe22 O8 1.995689 1_555
Fe22 O13 1.999672 1_555
Fe23 O5 1.834878 1_555
Fe23 O42 1.959749 1_555
Fe23 O9 1.995689 1_555
Fe23 O12 1.999672 1_555
