# generated using pymatgen
data_TmWClO4
_symmetry_space_group_name_H-M   'P 1'
_cell_length_a   6.29084082
_cell_length_b   6.29084082
_cell_length_c   6.89967114
_cell_angle_alpha   75.84551884
_cell_angle_beta   75.84551884
_cell_angle_gamma   70.58300857
_symmetry_Int_Tables_number   1
_chemical_formula_structural   TmWClO4
_chemical_formula_sum   'Tm2 W2 Cl2 O8'
_cell_volume   245.69320188
_cell_formula_units_Z   2
loop_
 _symmetry_equiv_pos_site_id
 _symmetry_equiv_pos_as_xyz
  1  'x, y, z'
loop_
 _atom_site_type_symbol
 _atom_site_label
 _atom_site_symmetry_multiplicity
 _atom_site_fract_x
 _atom_site_fract_y
 _atom_site_fract_z
 _atom_site_occupancy
  Tm  Tm0  1  0.27752500  0.27752500  0.61662300  1
  Tm  Tm1  1  0.72247500  0.72247500  0.38337700  1
  W  W0  1  0.13738300  0.13738300  0.23245500  1
  W  W1  1  0.86261700  0.86261700  0.76754500  1
  Cl  Cl0  1  0.51095700  0.51095700  0.73017000  1
  Cl  Cl1  1  0.48904300  0.48904300  0.26983000  1
  O  O0  1  0.04646100  0.04646100  0.70043100  1
  O  O1  1  0.95353900  0.95353900  0.29956900  1
  O  O2  1  0.60666600  0.99270400  0.65073900  1
  O  O3  1  0.39333400  0.00729600  0.34926100  1
  O  O4  1  0.00729600  0.39333400  0.34926100  1
  O  O5  1  0.99270400  0.60666600  0.65073900  1
  O  O6  1  0.20741200  0.20741200  0.96052300  1
  O  O7  1  0.79258800  0.79258800  0.03947700  1
loop_
_geom_bond_atom_site_label_1
_geom_bond_atom_site_label_2
_geom_bond_distance
_geom_bond_site_symmetry_2
Cl0 Tm1 2.707276 1_555
Cl0 Tm0 2.736013 1_555
Cl1 Tm0 2.707276 1_555
Cl1 Tm1 2.736013 1_555
O0 W1 1.804175 1_445
O0 Tm0 2.267790 1_555
O1 W0 1.804175 1_665
O1 Tm1 2.267790 1_555
O2 W1 1.829695 1_555
O2 Tm0 2.262410 1_565
O2 Tm1 2.622325 1_555
O3 W0 1.829695 1_555
O3 Tm1 2.262410 1_545
O3 Tm0 2.622325 1_555
O4 W0 1.829695 1_555
O4 Tm1 2.262410 1_455
O4 Tm0 2.622325 1_555
O5 W1 1.829695 1_555
O5 Tm0 2.262410 1_655
O5 Tm1 2.622325 1_555
O6 W0 1.796934 1_556
O6 Tm0 2.263824 1_555
O7 W1 1.796934 1_554
O7 Tm1 2.263824 1_555
