# generated using pymatgen
data_InCu3PbSe4
_symmetry_space_group_name_H-M   'P 1'
_cell_length_a   6.19013600
_cell_length_b   6.19057900
_cell_length_c   6.19095600
_cell_angle_alpha   90.00009255
_cell_angle_beta   89.99996298
_cell_angle_gamma   89.99990744
_symmetry_Int_Tables_number   1
_chemical_formula_structural   InCu3PbSe4
_chemical_formula_sum   'In1 Cu3 Pb1 Se4'
_cell_volume   237.24068992
_cell_formula_units_Z   1
loop_
 _symmetry_equiv_pos_site_id
 _symmetry_equiv_pos_as_xyz
  1  'x, y, z'
loop_
 _atom_site_type_symbol
 _atom_site_label
 _atom_site_symmetry_multiplicity
 _atom_site_fract_x
 _atom_site_fract_y
 _atom_site_fract_z
 _atom_site_occupancy
  In  In0  1  0.99999900  0.00000100  0.00000000  1
  Cu  Cu0  1  0.00000000  0.49999900  0.00000000  1
  Cu  Cu1  1  0.00000000  0.99999900  0.50000000  1
  Cu  Cu2  1  0.50000100  0.00000100  0.00000000  1
  Pb  Pb0  1  0.50000000  0.50000000  0.50000000  1
  Se  Se0  1  0.23925300  0.23925900  0.23924400  1
  Se  Se1  1  0.76074600  0.76074100  0.23924500  1
  Se  Se2  1  0.23925400  0.76074100  0.76075500  1
  Se  Se3  1  0.76074700  0.23925900  0.76075500  1
loop_
_geom_bond_atom_site_label_1
_geom_bond_atom_site_label_2
_geom_bond_distance
_geom_bond_site_symmetry_2
In0 Se3 2.565343 1_554
In0 Se0 2.565346 1_655
In0 Se1 2.565355 1_545
In0 Se2 2.565357 1_644
Cu0 Se0 2.644355 1_555
Cu0 Se3 2.644358 1_454
Cu0 Se1 2.644365 1_455
Cu0 Se2 2.644371 1_554
Cu1 Se3 2.644473 1_465
Cu1 Se1 2.644473 1_455
Cu1 Se2 2.644473 1_555
Cu1 Se0 2.644482 1_565
Cu2 Se0 2.644387 1_555
Cu2 Se3 2.644389 1_554
Cu2 Se1 2.644390 1_545
Cu2 Se2 2.644398 1_544
Pb0 Se2 2.795823 1_555
Pb0 Se1 2.795829 1_555
Pb0 Se3 2.795831 1_555
Pb0 Se0 2.795834 1_555
