# generated using pymatgen
data_K2(NbSe2)3
_symmetry_space_group_name_H-M   'P 1'
_cell_length_a   6.16948702
_cell_length_b   6.16948702
_cell_length_c   16.50178702
_cell_angle_alpha   90.00000000
_cell_angle_beta   90.00000000
_cell_angle_gamma   119.99862498
_symmetry_Int_Tables_number   1
_chemical_formula_structural   K2(NbSe2)3
_chemical_formula_sum   'K4 Nb6 Se12'
_cell_volume   543.95846037
_cell_formula_units_Z   2
loop_
 _symmetry_equiv_pos_site_id
 _symmetry_equiv_pos_as_xyz
  1  'x, y, z'
loop_
 _atom_site_type_symbol
 _atom_site_label
 _atom_site_symmetry_multiplicity
 _atom_site_fract_x
 _atom_site_fract_y
 _atom_site_fract_z
 _atom_site_occupancy
  K  K0  1  0.00018443  0.66717840  0.50000000  1
  K  K1  1  0.66717840  0.00018443  0.50000000  1
  K  K2  1  0.66689277  0.33339188  0.00000000  1
  K  K3  1  0.33339188  0.66689277  0.00000000  1
  Nb  Nb0  1  0.66762784  0.33329925  0.25004855  1
  Nb  Nb1  1  0.99888266  0.99888266  0.25066688  1
  Nb  Nb2  1  0.33329925  0.66762784  0.25004855  1
  Nb  Nb3  1  0.66762784  0.33329925  0.74995145  1
  Nb  Nb4  1  0.99888266  0.99888266  0.74933312  1
  Nb  Nb5  1  0.33329925  0.66762784  0.74995145  1
  Se  Se0  1  0.00049061  0.33083115  0.15098578  1
  Se  Se1  1  0.33083115  0.00049061  0.15098578  1
  Se  Se2  1  0.66860660  0.66860660  0.15093853  1
  Se  Se3  1  0.00049061  0.33083115  0.84901422  1
  Se  Se4  1  0.33083115  0.00049061  0.84901422  1
  Se  Se5  1  0.66860660  0.66860660  0.84906147  1
  Se  Se6  1  0.00223873  0.33377839  0.34942875  1
  Se  Se7  1  0.33377839  0.00223873  0.34942875  1
  Se  Se8  1  0.66365205  0.66365205  0.34941882  1
  Se  Se9  1  0.00223873  0.33377839  0.65057125  1
  Se  Se10  1  0.33377839  0.00223873  0.65057125  1
  Se  Se11  1  0.66365205  0.66365205  0.65058118  1
loop_
_geom_bond_atom_site_label_1
_geom_bond_atom_site_label_2
_geom_bond_distance
_geom_bond_site_symmetry_2
K0 Se7 3.229300 1_565
K0 Se10 3.229300 1_565
K0 Se6 3.229675 1_555
K0 Se9 3.229675 1_555
K0 Se8 3.231187 1_455
K0 Se11 3.231187 1_455
K1 Se6 3.229300 1_655
K1 Se9 3.229300 1_655
K1 Se7 3.229675 1_555
K1 Se10 3.229675 1_555
K1 Se11 3.231187 1_545
K1 Se8 3.231187 1_545
K2 Se2 3.234062 1_555
K2 Se5 3.234062 1_554
K2 Se4 3.235208 1_554
K2 Se1 3.235208 1_555
K2 Se3 3.236727 1_654
K2 Se0 3.236727 1_655
K3 Se2 3.234062 1_555
K3 Se5 3.234062 1_554
K3 Se3 3.235208 1_554
K3 Se0 3.235208 1_555
K3 Se4 3.236727 1_564
K3 Se1 3.236727 1_565
Nb0 Se8 2.625524 1_555
Nb0 Se7 2.626167 1_555
Nb0 Se0 2.630785 1_655
Nb0 Se1 2.634285 1_555
Nb0 Se2 2.634729 1_555
Nb0 Se6 2.635337 1_655
Nb1 Se2 2.619244 1_555
Nb1 Se1 2.622907 1_665
Nb1 Se0 2.622907 1_665
Nb1 Se7 2.623479 1_665
Nb1 Se6 2.623479 1_665
Nb1 Se8 2.633092 1_555
Nb2 Se8 2.625524 1_555
Nb2 Se6 2.626167 1_555
Nb2 Se1 2.630785 1_565
Nb2 Se0 2.634285 1_555
Nb2 Se2 2.634729 1_555
Nb2 Se7 2.635337 1_565
Nb3 Se11 2.625524 1_555
Nb3 Se10 2.626167 1_555
Nb3 Se3 2.630785 1_655
Nb3 Se4 2.634285 1_555
Nb3 Se5 2.634729 1_555
Nb3 Se9 2.635337 1_655
Nb4 Se5 2.619244 1_555
Nb4 Se4 2.622907 1_665
Nb4 Se3 2.622907 1_665
Nb4 Se9 2.623479 1_665
Nb4 Se10 2.623479 1_665
Nb4 Se11 2.633092 1_555
Nb5 Se11 2.625524 1_555
Nb5 Se9 2.626167 1_555
Nb5 Se4 2.630785 1_565
Nb5 Se3 2.634285 1_555
Nb5 Se5 2.634729 1_555
Nb5 Se10 2.635337 1_565
