# generated using pymatgen
data_ScZnGaS4
_symmetry_space_group_name_H-M   'P 1'
_cell_length_a   3.82359233
_cell_length_b   3.82359300
_cell_length_c   12.50878000
_cell_angle_alpha   90.00057910
_cell_angle_beta   90.00057824
_cell_angle_gamma   60.00059669
_symmetry_Int_Tables_number   1
_chemical_formula_structural   ScZnGaS4
_chemical_formula_sum   'Sc1 Zn1 Ga1 S4'
_cell_volume   158.37675366
_cell_formula_units_Z   1
loop_
 _symmetry_equiv_pos_site_id
 _symmetry_equiv_pos_as_xyz
  1  'x, y, z'
loop_
 _atom_site_type_symbol
 _atom_site_label
 _atom_site_symmetry_multiplicity
 _atom_site_fract_x
 _atom_site_fract_y
 _atom_site_fract_z
 _atom_site_occupancy
  Sc  Sc0  1  0.33333800  0.33333800  0.78769300  1
  Zn  Zn0  1  0.00000100  0.00000100  0.49311100  1
  Ga  Ga0  1  0.66666900  0.66666900  0.21591500  1
  S  S0  1  0.66667500  0.66667500  0.87272000  1
  S  S1  1  0.33333100  0.33333100  0.13821500  1
  S  S2  1  0.66667800  0.66667800  0.39329900  1
  S  S3  1  0.33330900  0.33330900  0.59904600  1
loop_
_geom_bond_atom_site_label_1
_geom_bond_atom_site_label_2
_geom_bond_distance
_geom_bond_site_symmetry_2
Ga0 S2 2.218857 1_555
Ga0 S1 2.412043 1_655
Ga0 S1 2.412044 1_565
Ga0 S1 2.412052 1_555
S0 Sc0 2.450412 1_555
S0 Sc0 2.450414 1_655
S0 Sc0 2.450415 1_565
S2 Zn0 2.536081 1_665
S2 Zn0 2.536207 1_565
S2 Zn0 2.536207 1_655
S3 Sc0 2.359744 1_555
S3 Zn0 2.574565 1_555
S3 Zn0 2.574818 1_655
S3 Zn0 2.574818 1_565
