# generated using pymatgen
data_Ba4ZrNb9O18
_symmetry_space_group_name_H-M   'P 1'
_cell_length_a   13.16942895
_cell_length_b   13.16942895
_cell_length_c   13.16942895
_cell_angle_alpha   153.70795770
_cell_angle_beta   153.70795770
_cell_angle_gamma   37.52422155
_symmetry_Int_Tables_number   1
_chemical_formula_structural   Ba4ZrNb9O18
_chemical_formula_sum   'Ba4 Zr1 Nb9 O18'
_cell_volume   447.46250764
_cell_formula_units_Z   1
loop_
 _symmetry_equiv_pos_site_id
 _symmetry_equiv_pos_as_xyz
  1  'x, y, z'
loop_
 _atom_site_type_symbol
 _atom_site_label
 _atom_site_symmetry_multiplicity
 _atom_site_fract_x
 _atom_site_fract_y
 _atom_site_fract_z
 _atom_site_occupancy
  Ba  Ba0  1  0.58446800  0.08446800  0.50000000  1
  Ba  Ba1  1  0.08446800  0.58446800  0.50000000  1
  Ba  Ba2  1  0.41553200  0.91553200  0.50000000  1
  Ba  Ba3  1  0.91553200  0.41553200  0.50000000  1
  Zr  Zr0  1  0.00000000  0.00000000  0.00000000  1
  Nb  Nb0  1  0.16878700  0.16878700  0.00000000  1
  Nb  Nb1  1  0.66877900  0.66877900  0.00000000  1
  Nb  Nb2  1  0.83121300  0.83121300  0.00000000  1
  Nb  Nb3  1  0.33122100  0.33122100  0.00000000  1
  Nb  Nb4  1  0.50000000  0.50000000  0.50000000  1
  Nb  Nb5  1  0.00000000  0.00000000  0.50000000  1
  Nb  Nb6  1  0.50000000  0.00000000  0.00000000  1
  Nb  Nb7  1  0.00000000  0.50000000  0.00000000  1
  Nb  Nb8  1  0.50000000  0.50000000  0.00000000  1
  O  O0  1  0.74423400  0.74423400  0.48846800  1
  O  O1  1  0.25576600  0.25576600  0.51153200  1
  O  O2  1  0.74423400  0.25576600  0.00000000  1
  O  O3  1  0.25576600  0.74423400  0.00000000  1
  O  O4  1  0.08310200  0.08310200  0.00000000  1
  O  O5  1  0.58042200  0.58042200  0.00000000  1
  O  O6  1  0.91689800  0.91689800  0.00000000  1
  O  O7  1  0.41957800  0.41957800  0.00000000  1
  O  O8  1  0.25000000  0.75000000  0.50000000  1
  O  O9  1  0.75000000  0.25000000  0.50000000  1
  O  O10  1  0.91419000  0.91419000  0.49981600  1
  O  O11  1  0.41437500  0.41437500  0.50018400  1
  O  O12  1  0.91419000  0.41437500  0.00000000  1
  O  O13  1  0.41437500  0.91419000  0.00000000  1
  O  O14  1  0.58562500  0.58562500  0.49981600  1
  O  O15  1  0.08581000  0.08581000  0.50018400  1
  O  O16  1  0.58562500  0.08581000  0.00000000  1
  O  O17  1  0.08581000  0.58562500  0.00000000  1
loop_
_geom_bond_atom_site_label_1
_geom_bond_atom_site_label_2
_geom_bond_distance
_geom_bond_site_symmetry_2
Ba0 O10 2.906480 1_545
Ba0 O12 2.906488 1_556
Ba0 O13 2.906488 1_545
Ba0 O11 2.906497 1_555
Ba0 O1 2.987565 1_555
Ba0 O3 2.987565 1_545
Ba0 O2 2.987565 1_556
Ba0 O0 2.987565 1_545
Ba0 O4 2.995364 1_656
Ba0 O4 2.995364 1_555
Ba0 O5 2.996869 1_556
Ba0 O5 2.996869 1_545
Ba1 O10 2.906480 1_455
Ba1 O12 2.906488 1_455
Ba1 O13 2.906488 1_556
Ba1 O11 2.906497 1_555
Ba1 O1 2.987565 1_555
Ba1 O3 2.987565 1_556
Ba1 O2 2.987565 1_455
Ba1 O0 2.987565 1_455
Ba1 O4 2.995364 1_555
Ba1 O4 2.995364 1_566
Ba1 O5 2.996869 1_556
Ba1 O5 2.996869 1_455
Ba2 O15 2.906480 1_565
Ba2 O17 2.906488 1_555
Ba2 O16 2.906488 1_566
Ba2 O14 2.906497 1_555
Ba2 O0 2.987565 1_555
Ba2 O2 2.987565 1_566
Ba2 O3 2.987565 1_555
Ba2 O1 2.987565 1_565
Ba2 O6 2.995364 1_455
Ba2 O6 2.995364 1_556
Ba2 O7 2.996869 1_555
Ba2 O7 2.996869 1_566
Ba3 O15 2.906480 1_655
Ba3 O16 2.906488 1_555
Ba3 O17 2.906488 1_656
Ba3 O14 2.906497 1_555
Ba3 O0 2.987565 1_555
Ba3 O3 2.987565 1_656
Ba3 O1 2.987565 1_655
Ba3 O2 2.987565 1_555
Ba3 O6 2.995364 1_556
Ba3 O6 2.995364 1_545
Ba3 O7 2.996869 1_555
Ba3 O7 2.996869 1_656
Nb0 O11 2.121660 1_555
Nb0 O10 2.121661 1_444
Nb0 O12 2.121665 1_455
Nb0 O13 2.121665 1_545
Nb0 O4 2.136921 1_555
Nb1 O12 2.120089 1_555
Nb1 O13 2.120089 1_555
Nb1 O11 2.120093 1_554
Nb1 O10 2.120094 1_555
Nb1 O5 2.203559 1_555
Nb2 O14 2.121660 1_554
Nb2 O15 2.121661 1_665
Nb2 O17 2.121665 1_655
Nb2 O16 2.121665 1_565
Nb2 O6 2.136921 1_555
Nb3 O16 2.120089 1_555
Nb3 O17 2.120089 1_555
Nb3 O14 2.120093 1_555
Nb3 O15 2.120094 1_554
Nb3 O7 2.203559 1_555
Nb4 O9 2.117905 1_555
Nb4 O8 2.117905 1_555
Nb4 O14 2.137719 1_555
Nb4 O11 2.137719 1_555
Nb5 O9 2.117905 1_455
Nb5 O8 2.117905 1_545
Nb5 O15 2.137744 1_555
Nb5 O10 2.137744 1_445
Nb6 O9 2.117905 1_555
Nb6 O8 2.117905 1_544
Nb6 O16 2.137732 1_555
Nb6 O13 2.137732 1_545
Nb7 O9 2.117905 1_454
Nb7 O8 2.117905 1_555
Nb7 O17 2.137732 1_555
Nb7 O12 2.137732 1_455
Nb8 O7 2.005666 1_555
Nb8 O5 2.005666 1_555
Nb8 O3 2.069058 1_555
Nb8 O2 2.069058 1_555
Nb8 O0 2.069058 1_555
Nb8 O1 2.069058 1_554
O0 Zr0 2.166752 1_666
O1 Zr0 2.166752 1_555
O2 Zr0 2.166752 1_655
O3 Zr0 2.166752 1_565
O4 Zr0 2.072503 1_555
O6 Zr0 2.072503 1_665
