# generated using pymatgen
data_Mn3(FeN2)2
_symmetry_space_group_name_H-M   'P 1'
_cell_length_a   4.69189900
_cell_length_b   7.14690600
_cell_length_c   10.17283300
_cell_angle_alpha   90.00000000
_cell_angle_beta   90.00000000
_cell_angle_gamma   90.00000000
_symmetry_Int_Tables_number   1
_chemical_formula_structural   Mn3(FeN2)2
_chemical_formula_sum   'Mn12 Fe8 N16'
_cell_volume   341.12114428
_cell_formula_units_Z   4
loop_
 _symmetry_equiv_pos_site_id
 _symmetry_equiv_pos_as_xyz
  1  'x, y, z'
loop_
 _atom_site_type_symbol
 _atom_site_label
 _atom_site_symmetry_multiplicity
 _atom_site_fract_x
 _atom_site_fract_y
 _atom_site_fract_z
 _atom_site_occupancy
  Mn  Mn0  1  0.58493100  0.13984200  0.45236500  1
  Mn  Mn1  1  0.91506900  0.86015800  0.45236500  1
  Mn  Mn2  1  0.58493100  0.36015800  0.04763500  1
  Mn  Mn3  1  0.91506900  0.63984200  0.04763500  1
  Mn  Mn4  1  0.41506900  0.86015800  0.54763500  1
  Mn  Mn5  1  0.08493100  0.13984200  0.54763500  1
  Mn  Mn6  1  0.41506900  0.63984200  0.95236500  1
  Mn  Mn7  1  0.08493100  0.36015800  0.95236500  1
  Mn  Mn8  1  0.75000000  0.50000000  0.49985900  1
  Mn  Mn9  1  0.75000000  0.00000000  0.00014100  1
  Mn  Mn10  1  0.25000000  0.50000000  0.50014100  1
  Mn  Mn11  1  0.25000000  0.00000000  0.99985900  1
  Fe  Fe0  1  0.75000000  0.50000000  0.74718200  1
  Fe  Fe1  1  0.75000000  0.00000000  0.75281800  1
  Fe  Fe2  1  0.25000000  0.50000000  0.25281800  1
  Fe  Fe3  1  0.25000000  0.00000000  0.24718200  1
  Fe  Fe4  1  0.29811700  0.25000000  0.75000000  1
  Fe  Fe5  1  0.20188300  0.75000000  0.75000000  1
  Fe  Fe6  1  0.70188300  0.75000000  0.25000000  1
  Fe  Fe7  1  0.79811700  0.25000000  0.25000000  1
  N  N0  1  0.00556800  0.37960000  0.62188900  1
  N  N1  1  0.49443200  0.62040000  0.62188900  1
  N  N2  1  0.00556800  0.12040000  0.87811100  1
  N  N3  1  0.49443200  0.87960000  0.87811100  1
  N  N4  1  0.99443200  0.62040000  0.37811100  1
  N  N5  1  0.50556800  0.37960000  0.37811100  1
  N  N6  1  0.99443200  0.87960000  0.12188900  1
  N  N7  1  0.50556800  0.12040000  0.12188900  1
  N  N8  1  0.48228500  0.40465700  0.87298100  1
  N  N9  1  0.01771500  0.59534300  0.87298100  1
  N  N10  1  0.48228500  0.09534300  0.62701900  1
  N  N11  1  0.01771500  0.90465700  0.62701900  1
  N  N12  1  0.51771500  0.59534300  0.12701900  1
  N  N13  1  0.98228500  0.40465700  0.12701900  1
  N  N14  1  0.51771500  0.90465700  0.37298100  1
  N  N15  1  0.98228500  0.09534300  0.37298100  1
loop_
_geom_bond_atom_site_label_1
_geom_bond_atom_site_label_2
_geom_bond_distance
_geom_bond_site_symmetry_2
Mn0 N10 1.868112 1_555
Mn0 N14 1.891257 1_545
Mn0 N5 1.909299 1_555
Mn0 N15 2.056472 1_555
Mn1 N11 1.868112 1_655
Mn1 N15 1.891257 1_565
Mn1 N4 1.909299 1_555
Mn1 N14 2.056472 1_555
Mn2 N8 1.868112 1_554
Mn2 N12 1.891257 1_555
Mn2 N7 1.909299 1_555
Mn2 N13 2.056472 1_555
Mn3 N9 1.868112 1_654
Mn3 N13 1.891257 1_555
Mn3 N6 1.909299 1_555
Mn3 N12 2.056472 1_555
Mn4 N14 1.868112 1_555
Mn4 N10 1.891257 1_565
Mn4 N1 1.909299 1_555
Mn4 N11 2.056472 1_555
Mn5 N15 1.868112 1_455
Mn5 N11 1.891257 1_545
Mn5 N0 1.909299 1_555
Mn5 N10 2.056472 1_555
Mn6 N12 1.868112 1_556
Mn6 N8 1.891257 1_555
Mn6 N3 1.909299 1_555
Mn6 N9 2.056472 1_555
Mn7 N13 1.868112 1_456
Mn7 N9 1.891257 1_555
Mn7 N2 1.909299 1_555
Mn7 N8 2.056472 1_555
Mn8 N5 1.894635 1_555
Mn8 N4 1.894635 1_555
Mn8 N0 1.928556 1_655
Mn8 N1 1.928556 1_555
Mn9 N6 1.894635 1_545
Mn9 N7 1.894635 1_555
Mn9 N2 1.928556 1_654
Mn9 N3 1.928556 1_544
Mn10 N0 1.894635 1_555
Mn10 N1 1.894635 1_555
Mn10 N5 1.928556 1_555
Mn10 N4 1.928556 1_455
Mn11 N3 1.894635 1_545
Mn11 N2 1.894635 1_555
Mn11 N6 1.928556 1_446
Mn11 N7 1.928556 1_556
Fe0 N9 1.918280 1_655
Fe0 N8 1.918280 1_555
Fe0 N0 1.950088 1_655
Fe0 N1 1.950088 1_555
Fe1 N11 1.918280 1_645
Fe1 N10 1.918280 1_555
Fe1 N3 1.950088 1_545
Fe1 N2 1.950088 1_655
Fe2 N12 1.918280 1_555
Fe2 N13 1.918280 1_455
Fe2 N5 1.950088 1_555
Fe2 N4 1.950088 1_455
Fe3 N14 1.918280 1_545
Fe3 N15 1.918280 1_455
Fe3 N6 1.950088 1_445
Fe3 N7 1.950088 1_555
Fe4 N8 1.879776 1_555
Fe4 N10 1.879776 1_555
Fe4 N2 2.107236 1_555
Fe4 N0 2.107236 1_555
Fe5 N11 1.879776 1_555
Fe5 N9 1.879776 1_555
Fe5 N1 2.107236 1_555
Fe5 N3 2.107236 1_555
Fe6 N14 1.879776 1_555
Fe6 N12 1.879776 1_555
Fe6 N4 2.107236 1_555
Fe6 N6 2.107236 1_555
Fe7 N13 1.879776 1_555
Fe7 N15 1.879776 1_555
Fe7 N7 2.107236 1_555
Fe7 N5 2.107236 1_555
