# generated using pymatgen
data_LiAu4Se4(ClO3)4
_symmetry_space_group_name_H-M   'P 1'
_cell_length_a   4.47501128
_cell_length_b   9.93399928
_cell_length_c   11.34571283
_cell_angle_alpha   84.48249924
_cell_angle_beta   89.76591348
_cell_angle_gamma   90.02979110
_symmetry_Int_Tables_number   1
_chemical_formula_structural   LiAu4Se4(ClO3)4
_chemical_formula_sum   'Li1 Au4 Se4 Cl4 O12'
_cell_volume   502.02971411
_cell_formula_units_Z   1
loop_
 _symmetry_equiv_pos_site_id
 _symmetry_equiv_pos_as_xyz
  1  'x, y, z'
loop_
 _atom_site_type_symbol
 _atom_site_label
 _atom_site_symmetry_multiplicity
 _atom_site_fract_x
 _atom_site_fract_y
 _atom_site_fract_z
 _atom_site_occupancy
  Li  Li0  1  0.79567000  0.24391800  0.35924000  1
  Au  Au0  1  0.98848700  0.58772200  0.18432800  1
  Au  Au1  1  0.99618700  0.99832000  0.99897100  1
  Au  Au2  1  0.00868100  0.40974000  0.81242000  1
  Au  Au3  1  0.01401000  0.99930000  0.50022000  1
  Se  Se0  1  0.70730200  0.88252000  0.26139300  1
  Se  Se1  1  0.20307800  0.70962500  0.91172700  1
  Se  Se2  1  0.78475700  0.28997300  0.07918800  1
  Se  Se3  1  0.29720700  0.11775700  0.74065500  1
  Cl  Cl0  1  0.35200500  0.48501200  0.67082200  1
  Cl  Cl1  1  0.66888200  0.48751500  0.33314400  1
  Cl  Cl2  1  0.28345700  0.20904800  0.45247700  1
  Cl  Cl3  1  0.71399900  0.80729000  0.53404700  1
  O  O0  1  0.65350700  0.96182200  0.11891800  1
  O  O1  1  0.68360100  0.34643600  0.93649600  1
  O  O2  1  0.01643800  0.77979200  0.24539200  1
  O  O3  1  0.08078300  0.17799300  0.06293100  1
  O  O4  1  0.05481400  0.40053900  0.12711400  1
  O  O5  1  0.90630400  0.82037900  0.93232700  1
  O  O6  1  0.30392800  0.65549100  0.05636300  1
  O  O7  1  0.98392300  0.22157500  0.75416000  1
  O  O8  1  0.89293900  0.02025700  0.32117800  1
  O  O9  1  0.93784400  0.59354400  0.87071100  1
  O  O10  1  0.34546000  0.03800300  0.88278200  1
  O  O11  1  0.10451400  0.98768000  0.68037900  1
loop_
_geom_bond_atom_site_label_1
_geom_bond_atom_site_label_2
_geom_bond_distance
_geom_bond_site_symmetry_2
Li0 O8 2.344471 1_555
Au0 O4 2.048960 1_655
Au0 O6 2.085193 1_655
Au0 O2 2.095436 1_655
Au0 Cl1 2.354328 1_555
Au1 O3 2.026399 1_666
Au1 O5 2.029020 1_555
Au1 O10 2.053957 1_665
Au1 O0 2.054887 1_556
Au2 O9 2.025567 1_455
Au2 O7 2.044799 1_455
Au2 O1 2.074972 1_455
Au2 Cl0 2.290887 1_555
Au3 O11 2.077706 1_555
Au3 O8 2.095492 1_465
Au3 Cl3 2.332461 1_455
Au3 Cl2 2.421542 1_565
Cl1 Li0 2.475981 1_555
Cl2 Li0 2.439888 1_455
Cl2 Li0 2.530199 1_555
O0 Se0 1.746443 1_555
O1 Se2 1.723987 1_556
O2 Se0 1.738729 1_455
O3 Se2 1.750814 1_455
O4 Se2 1.755392 1_455
O5 Se1 1.754231 1_655
O6 Se1 1.738491 1_554
O7 Se3 1.755766 1_655
O8 Se0 1.790053 1_545
O9 Se1 1.749680 1_655
O10 Se3 1.741245 1_555
O11 Se3 1.747737 1_565
