# generated using pymatgen
data_KNa3V2(MoO6)2
_symmetry_space_group_name_H-M   'P 1'
_cell_length_a   7.79587799
_cell_length_b   7.79587799
_cell_length_c   7.84744200
_cell_angle_alpha   90.00000000
_cell_angle_beta   90.00000000
_cell_angle_gamma   90.10225380
_symmetry_Int_Tables_number   1
_chemical_formula_structural   KNa3V2(MoO6)2
_chemical_formula_sum   'K2 Na6 V4 Mo4 O24'
_cell_volume   476.93312869
_cell_formula_units_Z   2
loop_
 _symmetry_equiv_pos_site_id
 _symmetry_equiv_pos_as_xyz
  1  'x, y, z'
loop_
 _atom_site_type_symbol
 _atom_site_label
 _atom_site_symmetry_multiplicity
 _atom_site_fract_x
 _atom_site_fract_y
 _atom_site_fract_z
 _atom_site_occupancy
  K  K0  1  0.25431900  0.25431900  0.25662800  1
  K  K1  1  0.74568100  0.74568100  0.25662800  1
  Na  Na0  1  0.73732600  0.26267400  0.26858600  1
  Na  Na1  1  0.73763200  0.26236800  0.73116900  1
  Na  Na2  1  0.26247100  0.26247100  0.73118600  1
  Na  Na3  1  0.73752900  0.73752900  0.73118600  1
  Na  Na4  1  0.26267400  0.73732600  0.26858600  1
  Na  Na5  1  0.26236800  0.73763200  0.73116900  1
  V  V0  1  0.50000000  0.00000000  0.50213800  1
  V  V1  1  0.00000000  0.50000000  0.50213800  1
  V  V2  1  0.50000000  0.50000000  0.97730100  1
  V  V3  1  0.50000000  0.50000000  0.48469200  1
  Mo  Mo0  1  0.00000000  0.00000000  0.99998700  1
  Mo  Mo1  1  0.00000000  0.00000000  0.50342500  1
  Mo  Mo2  1  0.50000000  0.00000000  0.99905600  1
  Mo  Mo3  1  0.00000000  0.50000000  0.99905600  1
  O  O0  1  0.99973800  0.24627400  0.99829700  1
  O  O1  1  0.99925900  0.24426500  0.50363800  1
  O  O2  1  0.50191400  0.24797600  0.99950700  1
  O  O3  1  0.50276300  0.24017400  0.50731500  1
  O  O4  1  0.00026200  0.75372600  0.99829700  1
  O  O5  1  0.00074100  0.75573500  0.50363800  1
  O  O6  1  0.49808600  0.75202400  0.99950700  1
  O  O7  1  0.49723700  0.75982600  0.50731500  1
  O  O8  1  0.75372600  0.00026200  0.99829700  1
  O  O9  1  0.75573500  0.00074100  0.50363800  1
  O  O10  1  0.24627400  0.99973800  0.99829700  1
  O  O11  1  0.24426500  0.99925900  0.50363800  1
  O  O12  1  0.75202400  0.49808600  0.99950700  1
  O  O13  1  0.75982600  0.49723700  0.50731500  1
  O  O14  1  0.24797600  0.50191400  0.99950700  1
  O  O15  1  0.24017400  0.50276300  0.50731500  1
  O  O16  1  0.00000000  0.00000000  0.24583500  1
  O  O17  1  0.00000000  0.00000000  0.75567700  1
  O  O18  1  0.50000000  0.00000000  0.24320200  1
  O  O19  1  0.50000000  0.00000000  0.75823500  1
  O  O20  1  0.00000000  0.50000000  0.24320200  1
  O  O21  1  0.00000000  0.50000000  0.75823500  1
  O  O22  1  0.50000000  0.50000000  0.26266100  1
  O  O23  1  0.50000000  0.50000000  0.75499200  1
loop_
_geom_bond_atom_site_label_1
_geom_bond_atom_site_label_2
_geom_bond_distance
_geom_bond_site_symmetry_2
K0 O22 2.706638 1_555
K0 O18 2.761139 1_555
K0 O20 2.761139 1_555
K0 O15 2.763032 1_555
K0 O3 2.763032 1_555
K0 O11 2.777907 1_545
K0 O1 2.777907 1_455
K0 O2 2.792816 1_554
K0 O14 2.792816 1_554
K0 O16 2.802653 1_555
K0 O0 2.837630 1_454
K0 O10 2.837630 1_544
K1 O22 2.706638 1_555
K1 O18 2.761139 1_565
K1 O20 2.761139 1_655
K1 O13 2.763032 1_555
K1 O7 2.763032 1_555
K1 O5 2.777907 1_655
K1 O9 2.777907 1_565
K1 O12 2.792816 1_554
K1 O6 2.792816 1_554
K1 O16 2.802653 1_665
K1 O8 2.837630 1_564
K1 O4 2.837630 1_654
Na0 O22 2.619274 1_555
Na0 O3 2.623578 1_555
Na0 O13 2.623578 1_555
Na0 O9 2.755683 1_555
Na0 O1 2.755683 1_555
Na0 O18 2.764534 1_555
Na0 O20 2.764534 1_655
Na0 O2 2.799870 1_554
Na0 O12 2.799870 1_554
Na0 O16 2.904067 1_655
Na0 O8 2.949791 1_554
Na0 O0 2.949791 1_554
Na1 O13 2.543095 1_555
Na1 O3 2.543095 1_555
Na1 O23 2.628894 1_555
Na1 O9 2.714609 1_555
Na1 O1 2.714609 1_555
Na1 O19 2.765347 1_555
Na1 O21 2.765347 1_655
Na1 O12 2.796960 1_555
Na1 O2 2.796960 1_555
Na1 O17 2.901578 1_655
Na1 O0 2.930235 1_555
Na1 O8 2.930235 1_555
Na2 O3 2.574292 1_555
Na2 O15 2.574292 1_555
Na2 O23 2.623089 1_555
Na2 O1 2.723655 1_455
Na2 O11 2.723655 1_545
Na2 O19 2.770280 1_555
Na2 O21 2.770280 1_555
Na2 O14 2.816321 1_555
Na2 O2 2.816321 1_555
Na2 O17 2.897550 1_555
Na2 O0 2.933271 1_455
Na2 O10 2.933271 1_545
Na3 O7 2.574292 1_555
Na3 O13 2.574292 1_555
Na3 O23 2.623089 1_555
Na3 O5 2.723655 1_655
Na3 O9 2.723655 1_565
Na3 O19 2.770280 1_565
Na3 O21 2.770280 1_655
Na3 O6 2.816321 1_555
Na3 O12 2.816321 1_555
Na3 O17 2.897550 1_665
Na3 O8 2.933271 1_565
Na3 O4 2.933271 1_655
Na4 O22 2.619274 1_555
Na4 O15 2.623578 1_555
Na4 O7 2.623578 1_555
Na4 O5 2.755683 1_555
Na4 O11 2.755683 1_555
Na4 O20 2.764534 1_555
Na4 O18 2.764534 1_565
Na4 O14 2.799870 1_554
Na4 O6 2.799870 1_554
Na4 O16 2.904067 1_565
Na4 O10 2.949791 1_554
Na4 O4 2.949791 1_554
Na5 O7 2.543095 1_555
Na5 O15 2.543095 1_555
Na5 O23 2.628894 1_555
Na5 O5 2.714609 1_555
Na5 O11 2.714609 1_555
Na5 O21 2.765347 1_555
Na5 O19 2.765347 1_565
Na5 O6 2.796960 1_555
Na5 O14 2.796960 1_555
Na5 O17 2.901578 1_565
Na5 O10 2.930235 1_555
Na5 O4 2.930235 1_555
Mo0 O17 1.917209 1_555
Mo0 O8 1.919973 1_455
Mo0 O0 1.919973 1_455
Mo0 O10 1.919973 1_545
Mo0 O4 1.919973 1_545
Mo0 O16 1.929278 1_556
Mo1 O11 1.904280 1_545
Mo1 O1 1.904280 1_455
Mo1 O9 1.904280 1_455
Mo1 O5 1.904280 1_545
Mo1 O17 1.979533 1_555
Mo1 O16 2.021423 1_555
Mo2 O19 1.889829 1_555
Mo2 O18 1.915922 1_556
Mo2 O2 1.933225 1_555
Mo2 O6 1.933225 1_545
Mo2 O8 1.978023 1_555
Mo2 O10 1.978023 1_545
Mo3 O21 1.889829 1_555
Mo3 O20 1.915922 1_556
Mo3 O14 1.933225 1_555
Mo3 O12 1.933225 1_455
Mo3 O0 1.978023 1_455
Mo3 O4 1.978023 1_555
O1 V1 1.993712 1_655
O2 V2 1.972544 1_555
O3 V0 1.872893 1_555
O3 V3 2.033489 1_555
O5 V1 1.993712 1_555
O6 V2 1.972544 1_555
O7 V0 1.872893 1_565
O7 V3 2.033489 1_555
O9 V0 1.993712 1_555
O11 V0 1.993712 1_565
O12 V2 1.972544 1_555
O13 V1 1.872893 1_655
O13 V3 2.033489 1_555
O14 V2 1.972544 1_555
O15 V1 1.872893 1_555
O15 V3 2.033489 1_555
O18 V0 2.031985 1_555
O19 V0 2.009706 1_555
O20 V1 2.031985 1_555
O21 V1 2.009706 1_555
O22 V3 1.742375 1_555
O22 V2 2.239346 1_554
O23 V2 1.744557 1_555
O23 V3 2.121164 1_555
