# generated using pymatgen
data_Zr3AlN4
_symmetry_space_group_name_H-M   'P 1'
_cell_length_a   3.21491500
_cell_length_b   3.21491500
_cell_length_c   8.97644500
_cell_angle_alpha   90.00000000
_cell_angle_beta   90.00000000
_cell_angle_gamma   90.00000000
_symmetry_Int_Tables_number   1
_chemical_formula_structural   Zr3AlN4
_chemical_formula_sum   'Zr3 Al1 N4'
_cell_volume   92.77764921
_cell_formula_units_Z   1
loop_
 _symmetry_equiv_pos_site_id
 _symmetry_equiv_pos_as_xyz
  1  'x, y, z'
loop_
 _atom_site_type_symbol
 _atom_site_label
 _atom_site_symmetry_multiplicity
 _atom_site_fract_x
 _atom_site_fract_y
 _atom_site_fract_z
 _atom_site_occupancy
  Zr  Zr0  1  0.50000000  0.50000000  0.75135000  1
  Zr  Zr1  1  0.00000000  0.00000000  0.50000000  1
  Zr  Zr2  1  0.50000000  0.50000000  0.24865000  1
  Al  Al0  1  0.00000000  0.00000000  0.00000000  1
  N  N0  1  0.00000000  0.00000000  0.22513400  1
  N  N1  1  0.50000000  0.50000000  0.00000000  1
  N  N2  1  0.00000000  0.00000000  0.77486600  1
  N  N3  1  0.50000000  0.50000000  0.50000000  1
loop_
_geom_bond_atom_site_label_1
_geom_bond_atom_site_label_2
_geom_bond_distance
_geom_bond_site_symmetry_2
Al0 N0 2.020903 1_555
Al0 N2 2.020903 1_554
Al0 N1 2.273288 1_555
Al0 N1 2.273288 1_545
Al0 N1 2.273288 1_445
Al0 N1 2.273288 1_455
N0 Zr2 2.283068 1_445
N0 Zr2 2.283068 1_555
N0 Zr2 2.283068 1_545
N0 Zr2 2.283068 1_455
N0 Zr1 2.467320 1_555
N1 Zr0 2.231993 1_554
N1 Zr2 2.231993 1_555
N2 Zr0 2.283068 1_445
N2 Zr0 2.283068 1_545
N2 Zr0 2.283068 1_455
N2 Zr0 2.283068 1_555
N2 Zr1 2.467320 1_555
N3 Zr2 2.256229 1_555
N3 Zr0 2.256229 1_555
N3 Zr1 2.273288 1_665
N3 Zr1 2.273288 1_555
N3 Zr1 2.273288 1_565
N3 Zr1 2.273288 1_655
