# generated using pymatgen
data_KZn4P3
_symmetry_space_group_name_H-M   'P 1'
_cell_length_a   11.65414138
_cell_length_b   11.65414138
_cell_length_c   11.65414069
_cell_angle_alpha   19.83921123
_cell_angle_beta   19.83921123
_cell_angle_gamma   19.83920766
_symmetry_Int_Tables_number   1
_chemical_formula_structural   KZn4P3
_chemical_formula_sum   'K1 Zn4 P3'
_cell_volume   159.46480584
_cell_formula_units_Z   1
loop_
 _symmetry_equiv_pos_site_id
 _symmetry_equiv_pos_as_xyz
  1  'x, y, z'
loop_
 _atom_site_type_symbol
 _atom_site_label
 _atom_site_symmetry_multiplicity
 _atom_site_fract_x
 _atom_site_fract_y
 _atom_site_fract_z
 _atom_site_occupancy
  K  K0  1  0.50000000  0.50000000  0.50000000  1
  Zn  Zn0  1  0.69645557  0.69645557  0.69645557  1
  Zn  Zn1  1  0.30354443  0.30354443  0.30354443  1
  Zn  Zn2  1  0.91383365  0.91383365  0.91383365  1
  Zn  Zn3  1  0.08616635  0.08616635  0.08616635  1
  P  P0  1  0.76496950  0.76496950  0.76496950  1
  P  P1  1  0.23503050  0.23503050  0.23503050  1
  P  P2  1  -0.00000000  -0.00000000  0.00000000  1
loop_
_geom_bond_atom_site_label_1
_geom_bond_atom_site_label_2
_geom_bond_distance
_geom_bond_site_symmetry_2
K0 P1 3.295582 1_556
K0 P0 3.295582 1_554
K0 P1 3.295583 1_655
K0 P1 3.295583 1_565
K0 P0 3.295583 1_455
K0 P0 3.295583 1_545
P0 Zn0 2.347544 1_555
P0 Zn3 2.355195 1_656
P0 Zn3 2.355195 1_566
P0 Zn3 2.355195 1_665
P1 Zn1 2.347544 1_555
P1 Zn2 2.355195 1_454
P1 Zn2 2.355195 1_544
P1 Zn2 2.355195 1_445
P2 Zn1 2.532944 1_455
P2 Zn1 2.532944 1_545
P2 Zn0 2.532944 1_454
P2 Zn0 2.532944 1_544
P2 Zn1 2.532944 1_554
P2 Zn0 2.532944 1_445
