# generated using pymatgen
data_LiTiS2
_symmetry_space_group_name_H-M   'P 1'
_cell_length_a   3.51214395
_cell_length_b   3.51214334
_cell_length_c   6.39536064
_cell_angle_alpha   74.06269607
_cell_angle_beta   74.06270495
_cell_angle_gamma   59.99999541
_symmetry_Int_Tables_number   1
_chemical_formula_structural   LiTiS2
_chemical_formula_sum   'Li1 Ti1 S2'
_cell_volume   64.79383337
_cell_formula_units_Z   1
loop_
 _symmetry_equiv_pos_site_id
 _symmetry_equiv_pos_as_xyz
  1  'x, y, z'
loop_
 _atom_site_type_symbol
 _atom_site_label
 _atom_site_symmetry_multiplicity
 _atom_site_fract_x
 _atom_site_fract_y
 _atom_site_fract_z
 _atom_site_occupancy
  Li  Li0  1  0.50000000  0.50000000  0.50000000  1
  Ti  Ti0  1  -0.00000000  0.00000000  0.00000000  1
  S  S0  1  0.74541240  0.74541240  0.76376281  1
  S  S1  1  0.25458760  0.25458760  0.23623719  1
loop_
_geom_bond_atom_site_label_1
_geom_bond_atom_site_label_2
_geom_bond_distance
_geom_bond_site_symmetry_2
Li0 S1 2.582857 1_565
Li0 S0 2.582857 1_545
Li0 S0 2.582858 1_555
Li0 S1 2.582858 1_555
Li0 S1 2.582858 1_655
Li0 S0 2.582858 1_455
S0 Ti0 2.482908 1_656
S0 Ti0 2.482908 1_666
S0 Ti0 2.482909 1_566
S1 Ti0 2.482908 1_565
S1 Ti0 2.482908 1_555
S1 Ti0 2.482909 1_655
