# generated using pymatgen
data_NaBH4
_symmetry_space_group_name_H-M   'P 1'
_cell_length_a   6.07187800
_cell_length_b   6.07187800
_cell_length_c   6.07187800
_cell_angle_alpha   90.00000000
_cell_angle_beta   90.00000000
_cell_angle_gamma   90.00000000
_symmetry_Int_Tables_number   1
_chemical_formula_structural   NaBH4
_chemical_formula_sum   'Na4 B4 H16'
_cell_volume   223.85619140
_cell_formula_units_Z   4
loop_
 _symmetry_equiv_pos_site_id
 _symmetry_equiv_pos_as_xyz
  1  'x, y, z'
loop_
 _atom_site_type_symbol
 _atom_site_label
 _atom_site_symmetry_multiplicity
 _atom_site_fract_x
 _atom_site_fract_y
 _atom_site_fract_z
 _atom_site_occupancy
  Na  Na0  1  0.00000000  0.00000000  0.00000000  1
  Na  Na1  1  0.00000000  0.50000000  0.50000000  1
  Na  Na2  1  0.50000000  0.50000000  0.00000000  1
  Na  Na3  1  0.50000000  0.00000000  0.50000000  1
  B  B0  1  0.50000000  0.50000000  0.50000000  1
  B  B1  1  0.00000000  0.50000000  0.00000000  1
  B  B2  1  0.50000000  0.00000000  0.00000000  1
  B  B3  1  0.00000000  0.00000000  0.50000000  1
  H  H0  1  0.38326100  0.38326100  0.61673900  1
  H  H1  1  0.38326100  0.61673900  0.38326100  1
  H  H2  1  0.61673900  0.38326100  0.38326100  1
  H  H3  1  0.61673900  0.61673900  0.61673900  1
  H  H4  1  0.61642700  0.11640000  0.88360000  1
  H  H5  1  0.11640000  0.11640000  0.38357300  1
  H  H6  1  0.11640000  0.61642700  0.88360000  1
  H  H7  1  0.61642700  0.88360000  0.11640000  1
  H  H8  1  0.11640000  0.88360000  0.61642700  1
  H  H9  1  0.11640000  0.38357300  0.11640000  1
  H  H10  1  0.38357300  0.11640000  0.11640000  1
  H  H11  1  0.88360000  0.11640000  0.61642700  1
  H  H12  1  0.88360000  0.61642700  0.11640000  1
  H  H13  1  0.38357300  0.88360000  0.88360000  1
  H  H14  1  0.88360000  0.88360000  0.38357300  1
  H  H15  1  0.88360000  0.38357300  0.88360000  1
loop_
_geom_bond_atom_site_label_1
_geom_bond_atom_site_label_2
_geom_bond_distance
_geom_bond_site_symmetry_2
B0 H1 1.227721 1_555
B0 H2 1.227721 1_555
B0 H0 1.227721 1_555
B0 H3 1.227721 1_555
B1 H6 1.224250 1_554
B1 H15 1.224250 1_454
B1 H12 1.224250 1_455
B1 H9 1.224250 1_555
B2 H4 1.224250 1_554
B2 H7 1.224250 1_545
B2 H13 1.224250 1_544
B2 H10 1.224250 1_555
B3 H8 1.224250 1_545
B3 H11 1.224250 1_455
B3 H14 1.224250 1_445
B3 H5 1.224250 1_555
H0 Na2 2.533836 1_556
H0 Na1 2.533836 1_555
H0 Na3 2.533836 1_555
H1 Na2 2.533836 1_555
H1 Na1 2.533836 1_555
H1 Na3 2.533836 1_565
H2 Na2 2.533836 1_555
H2 Na3 2.533836 1_555
H2 Na1 2.533836 1_655
H3 Na2 2.533836 1_556
H3 Na1 2.533836 1_655
H3 Na3 2.533836 1_565
H4 Na0 2.534427 1_656
H4 Na2 2.534623 1_556
H4 Na3 2.534623 1_555
H5 Na0 2.534427 1_555
H5 Na1 2.534623 1_555
H5 Na3 2.534623 1_555
H6 Na0 2.534427 1_566
H6 Na2 2.534623 1_556
H6 Na1 2.534623 1_555
H7 Na0 2.534427 1_665
H7 Na3 2.534623 1_565
H7 Na2 2.534623 1_555
H8 Na0 2.534427 1_566
H8 Na3 2.534623 1_565
H8 Na1 2.534623 1_555
H9 Na0 2.534427 1_555
H9 Na2 2.534623 1_555
H9 Na1 2.534623 1_555
H10 Na0 2.534427 1_555
H10 Na2 2.534623 1_555
H10 Na3 2.534623 1_555
H11 Na0 2.534427 1_656
H11 Na1 2.534623 1_655
H11 Na3 2.534623 1_555
H12 Na0 2.534427 1_665
H12 Na1 2.534623 1_655
H12 Na2 2.534623 1_555
H13 Na0 2.534427 1_566
H13 Na2 2.534623 1_556
H13 Na3 2.534623 1_565
H14 Na0 2.534427 1_665
H14 Na1 2.534623 1_655
H14 Na3 2.534623 1_565
H15 Na0 2.534427 1_656
H15 Na2 2.534623 1_556
H15 Na1 2.534623 1_655
