# generated using pymatgen
data_TiCu3O4
_symmetry_space_group_name_H-M   'P 1'
_cell_length_a   3.00987233
_cell_length_b   3.00987233
_cell_length_c   11.60619400
_cell_angle_alpha   90.00000000
_cell_angle_beta   90.00000000
_cell_angle_gamma   120.00000735
_symmetry_Int_Tables_number   1
_chemical_formula_structural   TiCu3O4
_chemical_formula_sum   'Ti1 Cu3 O4'
_cell_volume   91.05767881
_cell_formula_units_Z   1
loop_
 _symmetry_equiv_pos_site_id
 _symmetry_equiv_pos_as_xyz
  1  'x, y, z'
loop_
 _atom_site_type_symbol
 _atom_site_label
 _atom_site_symmetry_multiplicity
 _atom_site_fract_x
 _atom_site_fract_y
 _atom_site_fract_z
 _atom_site_occupancy
  Ti  Ti0  1  0.00000000  0.00000000  0.00000000  1
  Cu  Cu0  1  0.33333300  0.66666700  0.25498700  1
  Cu  Cu1  1  0.66666700  0.33333300  0.74501300  1
  Cu  Cu2  1  0.00000000  0.00000000  0.50000000  1
  O  O0  1  0.33333300  0.66666700  0.41045400  1
  O  O1  1  0.66666700  0.33333300  0.58954600  1
  O  O2  1  0.66666700  0.33333300  0.90782000  1
  O  O3  1  0.33333300  0.66666700  0.09218000  1
loop_
_geom_bond_atom_site_label_1
_geom_bond_atom_site_label_2
_geom_bond_distance
_geom_bond_site_symmetry_2
Cu0 O0 1.804380 1_555
Cu0 O3 1.889570 1_555
Cu1 O1 1.804380 1_555
Cu1 O2 1.889570 1_555
Cu2 O1 2.024819 1_455
Cu2 O0 2.024819 1_545
Cu2 O0 2.024821 1_445
Cu2 O1 2.024821 1_555
Cu2 O1 2.024821 1_445
Cu2 O0 2.024821 1_555
O2 Ti0 2.040679 1_656
O2 Ti0 2.040681 1_556
O2 Ti0 2.040681 1_666
O3 Ti0 2.040679 1_565
O3 Ti0 2.040681 1_665
O3 Ti0 2.040681 1_555
