# generated using pymatgen
data_CaVSi4H8O15
_symmetry_space_group_name_H-M   'P 1'
_cell_length_a   9.76893000
_cell_length_b   9.84425000
_cell_length_c   14.00559500
_cell_angle_alpha   90.00000000
_cell_angle_beta   90.00000000
_cell_angle_gamma   90.00000000
_symmetry_Int_Tables_number   1
_chemical_formula_structural   CaVSi4H8O15
_chemical_formula_sum   'Ca4 V4 Si16 H32 O60'
_cell_volume   1346.88710692
_cell_formula_units_Z   4
loop_
 _symmetry_equiv_pos_site_id
 _symmetry_equiv_pos_as_xyz
  1  'x, y, z'
loop_
 _atom_site_type_symbol
 _atom_site_label
 _atom_site_symmetry_multiplicity
 _atom_site_fract_x
 _atom_site_fract_y
 _atom_site_fract_z
 _atom_site_occupancy
  Ca  Ca0  1  0.88203100  0.41632600  0.75000000  1
  Ca  Ca1  1  0.38203100  0.08367400  0.75000000  1
  Ca  Ca2  1  0.11796900  0.58367400  0.25000000  1
  Ca  Ca3  1  0.61796900  0.91632600  0.25000000  1
  V  V0  1  0.02523600  0.09507400  0.75000000  1
  V  V1  1  0.52523600  0.40492600  0.75000000  1
  V  V2  1  0.97476400  0.90492600  0.25000000  1
  V  V3  1  0.47476400  0.59507400  0.25000000  1
  Si  Si0  1  0.68313000  0.40427200  0.96396400  1
  Si  Si1  1  0.18313000  0.09572800  0.53603600  1
  Si  Si2  1  0.31687000  0.59572800  0.46396400  1
  Si  Si3  1  0.81687000  0.90427200  0.03603600  1
  Si  Si4  1  0.31687000  0.59572800  0.03603600  1
  Si  Si5  1  0.81687000  0.90427200  0.46396400  1
  Si  Si6  1  0.68313000  0.40427200  0.53603600  1
  Si  Si7  1  0.18313000  0.09572800  0.96396400  1
  Si  Si8  1  0.89378600  0.18384700  0.95552300  1
  Si  Si9  1  0.39378600  0.31615300  0.54447700  1
  Si  Si10  1  0.10621400  0.81615300  0.45552300  1
  Si  Si11  1  0.60621400  0.68384700  0.04447700  1
  Si  Si12  1  0.10621400  0.81615300  0.04447700  1
  Si  Si13  1  0.60621400  0.68384700  0.45552300  1
  Si  Si14  1  0.89378600  0.18384700  0.54447700  1
  Si  Si15  1  0.39378600  0.31615300  0.95552300  1
  H  H0  1  0.91492300  0.63078100  0.88718300  1
  H  H1  1  0.41492300  0.86921900  0.61281700  1
  H  H2  1  0.08507700  0.36921900  0.38718300  1
  H  H3  1  0.58507700  0.13078100  0.11281700  1
  H  H4  1  0.08507700  0.36921900  0.11281700  1
  H  H5  1  0.58507700  0.13078100  0.38718300  1
  H  H6  1  0.91492300  0.63078100  0.61281700  1
  H  H7  1  0.41492300  0.86921900  0.88718300  1
  H  H8  1  0.05557300  0.56943500  0.91452900  1
  H  H9  1  0.55557300  0.93056500  0.58547100  1
  H  H10  1  0.94442700  0.43056500  0.41452900  1
  H  H11  1  0.44442700  0.06943500  0.08547100  1
  H  H12  1  0.94442700  0.43056500  0.08547100  1
  H  H13  1  0.44442700  0.06943500  0.41452900  1
  H  H14  1  0.05557300  0.56943500  0.58547100  1
  H  H15  1  0.55557300  0.93056500  0.91452900  1
  H  H16  1  0.19662900  0.36924300  0.69586400  1
  H  H17  1  0.69662900  0.13075700  0.80413600  1
  H  H18  1  0.80337100  0.63075700  0.19586400  1
  H  H19  1  0.30337100  0.86924300  0.30413600  1
  H  H20  1  0.80337100  0.63075700  0.30413600  1
  H  H21  1  0.30337100  0.86924300  0.19586400  1
  H  H22  1  0.19662900  0.36924300  0.80413600  1
  H  H23  1  0.69662900  0.13075700  0.69586400  1
  H  H24  1  0.82791900  0.77905900  0.75000000  1
  H  H25  1  0.32791900  0.72094100  0.75000000  1
  H  H26  1  0.17208100  0.22094100  0.25000000  1
  H  H27  1  0.67208100  0.27905900  0.25000000  1
  H  H28  1  0.68935600  0.69651100  0.75000000  1
  H  H29  1  0.18935600  0.80348900  0.75000000  1
  H  H30  1  0.31064400  0.30348900  0.25000000  1
  H  H31  1  0.81064400  0.19651100  0.25000000  1
  O  O0  1  0.67823900  0.41311900  0.84853400  1
  O  O1  1  0.17823900  0.08688100  0.65146600  1
  O  O2  1  0.32176100  0.58688100  0.34853400  1
  O  O3  1  0.82176100  0.91311900  0.15146600  1
  O  O4  1  0.32176100  0.58688100  0.15146600  1
  O  O5  1  0.82176100  0.91311900  0.34853400  1
  O  O6  1  0.67823900  0.41311900  0.65146600  1
  O  O7  1  0.17823900  0.08688100  0.84853400  1
  O  O8  1  0.90912000  0.20290100  0.84156000  1
  O  O9  1  0.40912000  0.29709900  0.65844000  1
  O  O10  1  0.09088000  0.79709900  0.34156000  1
  O  O11  1  0.59088000  0.70290100  0.15844000  1
  O  O12  1  0.09088000  0.79709900  0.15844000  1
  O  O13  1  0.59088000  0.70290100  0.34156000  1
  O  O14  1  0.90912000  0.20290100  0.65844000  1
  O  O15  1  0.40912000  0.29709900  0.84156000  1
  O  O16  1  0.79921500  0.05102100  0.98179800  1
  O  O17  1  0.29921500  0.44897900  0.51820200  1
  O  O18  1  0.20078500  0.94897900  0.48179800  1
  O  O19  1  0.70078500  0.55102100  0.01820200  1
  O  O20  1  0.20078500  0.94897900  0.01820200  1
  O  O21  1  0.70078500  0.55102100  0.48179800  1
  O  O22  1  0.79921500  0.05102100  0.51820200  1
  O  O23  1  0.29921500  0.44897900  0.98179800  1
  O  O24  1  0.54453800  0.32910400  0.00656000  1
  O  O25  1  0.04453800  0.17089600  0.49344000  1
  O  O26  1  0.45546200  0.67089600  0.50656000  1
  O  O27  1  0.95546200  0.82910400  0.99344000  1
  O  O28  1  0.45546200  0.67089600  0.99344000  1
  O  O29  1  0.95546200  0.82910400  0.50656000  1
  O  O30  1  0.54453800  0.32910400  0.49344000  1
  O  O31  1  0.04453800  0.17089600  0.00656000  1
  O  O32  1  0.81643500  0.31680000  0.00215400  1
  O  O33  1  0.31643500  0.18320000  0.49784600  1
  O  O34  1  0.18356500  0.68320000  0.50215400  1
  O  O35  1  0.68356500  0.81680000  0.99784600  1
  O  O36  1  0.18356500  0.68320000  0.99784600  1
  O  O37  1  0.68356500  0.81680000  0.50215400  1
  O  O38  1  0.81643500  0.31680000  0.49784600  1
  O  O39  1  0.31643500  0.18320000  0.00215400  1
  O  O40  1  0.95790200  0.94163800  0.75000000  1
  O  O41  1  0.45790200  0.55836200  0.75000000  1
  O  O42  1  0.04209800  0.05836200  0.25000000  1
  O  O43  1  0.54209800  0.44163800  0.25000000  1
  O  O44  1  0.97190900  0.55033900  0.87878100  1
  O  O45  1  0.47190900  0.94966100  0.62121900  1
  O  O46  1  0.02809100  0.44966100  0.37878100  1
  O  O47  1  0.52809100  0.05033900  0.12121900  1
  O  O48  1  0.02809100  0.44966100  0.12121900  1
  O  O49  1  0.52809100  0.05033900  0.37878100  1
  O  O50  1  0.97190900  0.55033900  0.62121900  1
  O  O51  1  0.47190900  0.94966100  0.87878100  1
  O  O52  1  0.13385000  0.36456400  0.75000000  1
  O  O53  1  0.63385000  0.13543600  0.75000000  1
  O  O54  1  0.86615000  0.63543600  0.25000000  1
  O  O55  1  0.36615000  0.86456400  0.25000000  1
  O  O56  1  0.78845900  0.68701900  0.75000000  1
  O  O57  1  0.28845900  0.81298100  0.75000000  1
  O  O58  1  0.21154100  0.31298100  0.25000000  1
  O  O59  1  0.71154100  0.18701900  0.25000000  1
loop_
_geom_bond_atom_site_label_1
_geom_bond_atom_site_label_2
_geom_bond_distance
_geom_bond_site_symmetry_2
Ca0 O50 2.400940 1_555
Ca0 O44 2.400940 1_555
Ca0 O0 2.422576 1_555
Ca0 O6 2.422576 1_555
Ca0 O14 2.475620 1_555
Ca0 O8 2.475620 1_555
Ca0 O52 2.512222 1_655
Ca0 O56 2.817192 1_555
Ca1 O51 2.400940 1_545
Ca1 O45 2.400940 1_545
Ca1 O1 2.422576 1_555
Ca1 O7 2.422576 1_555
Ca1 O15 2.475620 1_555
Ca1 O9 2.475620 1_555
Ca1 O53 2.512222 1_555
Ca1 O57 2.817192 1_545
Ca2 O46 2.400940 1_555
Ca2 O48 2.400940 1_555
Ca2 O2 2.422576 1_555
Ca2 O4 2.422576 1_555
Ca2 O10 2.475620 1_555
Ca2 O12 2.475620 1_555
Ca2 O54 2.512222 1_455
Ca2 O58 2.817192 1_555
Ca3 O47 2.400940 1_565
Ca3 O49 2.400940 1_565
Ca3 O3 2.422576 1_555
Ca3 O5 2.422576 1_555
Ca3 O13 2.475620 1_555
Ca3 O11 2.475620 1_555
Ca3 O55 2.512222 1_555
Ca3 O59 2.817192 1_565
H0 O44 0.975113 1_555
H1 O45 0.975113 1_555
H2 O46 0.975113 1_555
H3 O47 0.975113 1_555
H4 O48 0.975113 1_555
H5 O49 0.975113 1_555
H6 O50 0.975113 1_555
H7 O51 0.975113 1_555
H8 O44 0.976731 1_455
H9 O45 0.976731 1_555
H10 O46 0.976731 1_655
H11 O47 0.976731 1_555
H12 O48 0.976731 1_655
H13 O49 0.976731 1_555
H14 O50 0.976731 1_455
H15 O51 0.976731 1_555
H16 O52 0.976277 1_555
H17 O53 0.976277 1_555
H18 O54 0.976277 1_555
H19 O55 0.976277 1_555
H20 O54 0.976277 1_555
H21 O55 0.976277 1_555
H22 O52 0.976277 1_555
H23 O53 0.976277 1_555
H24 O56 0.984657 1_555
H25 O57 0.984657 1_555
H26 O58 0.984657 1_555
H27 O59 0.984657 1_555
H28 O56 0.972629 1_555
H29 O57 0.972629 1_555
H30 O58 0.972629 1_555
H31 O59 0.972629 1_555
O0 Si0 1.619715 1_555
O0 V1 2.035936 1_555
O1 Si1 1.619715 1_555
O1 V0 2.035936 1_555
O2 Si2 1.619715 1_555
O2 V3 2.035936 1_555
O3 Si3 1.619715 1_555
O3 V2 2.035936 1_555
O4 Si4 1.619715 1_555
O4 V3 2.035936 1_555
O5 Si5 1.619715 1_555
O5 V2 2.035936 1_555
O6 Si6 1.619715 1_555
O6 V1 2.035936 1_555
O7 Si7 1.619715 1_555
O7 V0 2.035936 1_555
O8 Si8 1.614069 1_555
O8 V0 2.014413 1_655
O9 Si9 1.614069 1_555
O9 V1 2.014413 1_555
O10 Si10 1.614069 1_555
O10 V2 2.014413 1_455
O11 Si11 1.614069 1_555
O11 V3 2.014413 1_555
O12 Si12 1.614069 1_555
O12 V2 2.014413 1_455
O13 Si13 1.614069 1_555
O13 V3 2.014413 1_555
O14 Si14 1.614069 1_555
O14 V0 2.014413 1_655
O15 Si15 1.614069 1_555
O15 V1 2.014413 1_555
O16 Si3 1.641268 1_546
O16 Si8 1.642766 1_555
O17 Si2 1.641268 1_555
O17 Si9 1.642766 1_555
O18 Si1 1.641268 1_565
O18 Si10 1.642766 1_555
O19 Si0 1.641268 1_554
O19 Si11 1.642766 1_555
O20 Si7 1.641268 1_564
O20 Si12 1.642766 1_555
O21 Si6 1.641268 1_555
O21 Si13 1.642766 1_555
O22 Si5 1.641268 1_545
O22 Si14 1.642766 1_555
O23 Si4 1.641268 1_556
O23 Si15 1.642766 1_555
O24 Si15 1.641951 1_554
O24 Si0 1.654238 1_554
O25 Si14 1.641951 1_455
O25 Si1 1.654238 1_555
O26 Si13 1.641951 1_555
O26 Si2 1.654238 1_555
O27 Si12 1.641951 1_656
O27 Si3 1.654238 1_556
O28 Si11 1.641951 1_556
O28 Si4 1.654238 1_556
O29 Si10 1.641951 1_655
O29 Si5 1.654238 1_555
O30 Si9 1.641951 1_555
O30 Si6 1.654238 1_555
O31 Si8 1.641951 1_454
O31 Si7 1.654238 1_554
O32 Si8 1.646371 1_554
O32 Si0 1.650280 1_554
O33 Si9 1.646371 1_555
O33 Si1 1.650280 1_555
O34 Si10 1.646371 1_555
O34 Si2 1.650280 1_555
O35 Si11 1.646371 1_556
O35 Si3 1.650280 1_556
O36 Si12 1.646371 1_556
O36 Si4 1.650280 1_556
O37 Si13 1.646371 1_555
O37 Si5 1.650280 1_555
O38 Si14 1.646371 1_555
O38 Si6 1.650280 1_555
O39 Si15 1.646371 1_554
O39 Si7 1.650280 1_554
O40 V0 1.647475 1_665
O41 V1 1.647475 1_555
O42 V2 1.647475 1_445
O43 V3 1.647475 1_555
