# generated using pymatgen
data_TeMoWSeS2
_symmetry_space_group_name_H-M   'P 1'
_cell_length_a   3.31099630
_cell_length_b   3.31099630
_cell_length_c   37.74017800
_cell_angle_alpha   90.00000000
_cell_angle_beta   90.00000000
_cell_angle_gamma   120.00000609
_symmetry_Int_Tables_number   1
_chemical_formula_structural   TeMoWSeS2
_chemical_formula_sum   'Te2 Mo2 W2 Se2 S4'
_cell_volume   358.30423500
_cell_formula_units_Z   2
loop_
 _symmetry_equiv_pos_site_id
 _symmetry_equiv_pos_as_xyz
  1  'x, y, z'
loop_
 _atom_site_type_symbol
 _atom_site_label
 _atom_site_symmetry_multiplicity
 _atom_site_fract_x
 _atom_site_fract_y
 _atom_site_fract_z
 _atom_site_occupancy
  Te  Te0  1  0.33333300  0.66666700  0.41863100  1
  Te  Te1  1  0.33333300  0.66666700  0.52048000  1
  Mo  Mo0  1  0.00000000  0.00000000  0.09394600  1
  Mo  Mo1  1  0.33333300  0.66666700  0.28177100  1
  W  W0  1  0.00000000  0.00000000  0.46956000  1
  W  W1  1  0.33333300  0.66666700  0.65765900  1
  Se  Se0  1  0.00000000  0.00000000  0.70237000  1
  Se  Se1  1  0.00000000  0.00000000  0.61293600  1
  S  S0  1  0.00000000  0.00000000  0.32222800  1
  S  S1  1  0.33333300  0.66666700  0.05344700  1
  S  S2  1  0.33333300  0.66666700  0.13441900  1
  S  S3  1  0.00000000  0.00000000  0.24130200  1
loop_
_geom_bond_atom_site_label_1
_geom_bond_atom_site_label_2
_geom_bond_distance
_geom_bond_site_symmetry_2
Te0 W0 2.710826 1_565
Te0 W0 2.710828 1_665
Te0 W0 2.710828 1_555
Te1 W0 2.710585 1_565
Te1 W0 2.710587 1_665
Te1 W0 2.710587 1_555
Mo0 S2 2.446907 1_545
Mo0 S2 2.446909 1_555
Mo0 S2 2.446909 1_445
Mo0 S1 2.447520 1_545
Mo0 S1 2.447522 1_555
Mo0 S1 2.447522 1_445
Mo1 S0 2.446530 1_565
Mo1 S0 2.446532 1_665
Mo1 S0 2.446532 1_555
Mo1 S3 2.446813 1_565
Mo1 S3 2.446815 1_665
Mo1 S3 2.446815 1_555
Se0 W1 2.549813 1_545
Se0 W1 2.549815 1_555
Se0 W1 2.549815 1_445
Se1 W1 2.550113 1_545
Se1 W1 2.550115 1_555
Se1 W1 2.550115 1_445
