# generated using pymatgen
data_LaMg6C
_symmetry_space_group_name_H-M   'P 1'
_cell_length_a   7.40939923
_cell_length_b   7.40939923
_cell_length_c   4.62401148
_cell_angle_alpha   90.00000000
_cell_angle_beta   90.00000000
_cell_angle_gamma   135.72509324
_symmetry_Int_Tables_number   1
_chemical_formula_structural   LaMg6C
_chemical_formula_sum   'La1 Mg6 C1'
_cell_volume   177.21628867
_cell_formula_units_Z   1
loop_
 _symmetry_equiv_pos_site_id
 _symmetry_equiv_pos_as_xyz
  1  'x, y, z'
loop_
 _atom_site_type_symbol
 _atom_site_label
 _atom_site_symmetry_multiplicity
 _atom_site_fract_x
 _atom_site_fract_y
 _atom_site_fract_z
 _atom_site_occupancy
  La  La0  1  0.80255106  0.19744894  0.50000000  1
  Mg  Mg0  1  0.30030342  0.20354725  0.50000000  1
  Mg  Mg1  1  0.79645275  0.69969658  0.50000000  1
  Mg  Mg2  1  0.18447627  0.34287963  0.00000000  1
  Mg  Mg3  1  0.65712037  0.81552373  0.00000000  1
  Mg  Mg4  1  0.64037245  0.35962755  0.00000000  1
  Mg  Mg5  1  0.20496129  0.79503871  0.00000000  1
  C  C0  1  0.41376539  0.58623461  0.50000000  1
loop_
_geom_bond_atom_site_label_1
_geom_bond_atom_site_label_2
_geom_bond_distance
_geom_bond_site_symmetry_2
La0 Mg2 3.185573 1_655
La0 Mg2 3.185573 1_656
La0 Mg3 3.185573 1_545
La0 Mg3 3.185573 1_546
La0 Mg4 3.209519 1_556
La0 Mg4 3.209519 1_555
La0 Mg5 3.864648 1_546
La0 Mg5 3.864648 1_655
La0 Mg5 3.864648 1_656
La0 Mg5 3.864648 1_545
Mg0 Mg4 2.976397 1_555
Mg0 Mg4 2.976397 1_556
Mg0 Mg5 3.456013 1_545
Mg0 Mg5 3.456013 1_546
Mg1 Mg4 2.976397 1_555
Mg1 Mg4 2.976397 1_556
Mg1 Mg5 3.456013 1_655
Mg1 Mg5 3.456013 1_656
Mg2 Mg5 3.243283 1_555
Mg2 Mg4 3.290208 1_555
Mg3 Mg5 3.243283 1_555
Mg3 Mg4 3.290208 1_555
Mg4 Mg5 2.929460 1_545
Mg4 Mg5 2.929460 1_655
C0 Mg0 2.309372 1_555
C0 Mg1 2.309372 1_555
C0 Mg2 2.663869 1_555
C0 Mg3 2.663869 1_555
C0 Mg3 2.663869 1_556
C0 Mg2 2.663869 1_556
C0 La0 3.182161 1_565
C0 La0 3.182161 1_455
