# generated using pymatgen
data_KMg6Si
_symmetry_space_group_name_H-M   'P 1'
_cell_length_a   4.63742400
_cell_length_b   6.29852400
_cell_length_c   14.18307200
_cell_angle_alpha   90.00000000
_cell_angle_beta   90.00000000
_cell_angle_gamma   90.00000000
_symmetry_Int_Tables_number   1
_chemical_formula_structural   KMg6Si
_chemical_formula_sum   'K2 Mg12 Si2'
_cell_volume   414.27230564
_cell_formula_units_Z   2
loop_
 _symmetry_equiv_pos_site_id
 _symmetry_equiv_pos_as_xyz
  1  'x, y, z'
loop_
 _atom_site_type_symbol
 _atom_site_label
 _atom_site_symmetry_multiplicity
 _atom_site_fract_x
 _atom_site_fract_y
 _atom_site_fract_z
 _atom_site_occupancy
  K  K0  1  0.00000000  0.50000000  0.28771200  1
  K  K1  1  0.00000000  0.00000000  0.78771200  1
  Mg  Mg0  1  0.00000000  0.24698600  0.07725600  1
  Mg  Mg1  1  0.00000000  0.75301400  0.07725600  1
  Mg  Mg2  1  0.00000000  0.00000000  0.36040300  1
  Mg  Mg3  1  0.50000000  0.74772000  0.44606000  1
  Mg  Mg4  1  0.50000000  0.25228000  0.44606000  1
  Mg  Mg5  1  0.50000000  0.00000000  0.19274400  1
  Mg  Mg6  1  0.00000000  0.74698600  0.57725600  1
  Mg  Mg7  1  0.00000000  0.25301400  0.57725600  1
  Mg  Mg8  1  0.00000000  0.50000000  0.86040300  1
  Mg  Mg9  1  0.50000000  0.24772000  0.94606000  1
  Mg  Mg10  1  0.50000000  0.75228000  0.94606000  1
  Mg  Mg11  1  0.50000000  0.50000000  0.69274400  1
  Si  Si0  1  0.50000000  0.50000000  0.11250900  1
  Si  Si1  1  0.50000000  0.00000000  0.61250900  1
loop_
_geom_bond_atom_site_label_1
_geom_bond_atom_site_label_2
_geom_bond_distance
_geom_bond_site_symmetry_2
K0 Mg2 3.313725 1_555
K0 Mg2 3.313725 1_565
K0 Mg0 3.383683 1_555
K0 Mg1 3.383683 1_555
K0 Si0 3.398711 1_555
K0 Si0 3.398711 1_455
K0 Mg3 3.585354 1_455
K0 Mg4 3.585354 1_455
K0 Mg3 3.585354 1_555
K0 Mg4 3.585354 1_555
K1 Mg8 3.313725 1_545
K1 Mg8 3.313725 1_555
K1 Mg6 3.383683 1_545
K1 Mg7 3.383683 1_555
K1 Si1 3.398711 1_455
K1 Si1 3.398711 1_555
K1 Mg9 3.585354 1_555
K1 Mg9 3.585354 1_455
K1 Mg10 3.585354 1_445
K1 Mg10 3.585354 1_545
Mg0 Si0 2.857626 1_555
Mg0 Si0 2.857626 1_455
Mg0 Mg5 3.237194 1_555
Mg0 Mg5 3.237194 1_455
Mg1 Si0 2.857626 1_555
Mg1 Si0 2.857626 1_455
Mg1 Mg5 3.237194 1_565
Mg1 Mg5 3.237194 1_465
Mg2 Mg3 3.062230 1_545
Mg2 Mg3 3.062230 1_445
Mg2 Mg4 3.062230 1_455
Mg2 Mg4 3.062230 1_555
Mg2 Mg5 3.321284 1_555
Mg2 Mg5 3.321284 1_455
Mg3 Si1 2.845711 1_565
Mg4 Si1 2.845711 1_555
Mg6 Si1 2.857626 1_465
Mg6 Si1 2.857626 1_565
Mg7 Si1 2.857626 1_455
Mg7 Si1 2.857626 1_555
Mg8 Mg9 3.062230 1_455
Mg8 Mg9 3.062230 1_555
Mg9 Si0 2.845711 1_556
Mg10 Si0 2.845711 1_556
Mg10 Mg8 3.062230 1_555
Mg10 Mg8 3.062230 1_655
Mg11 Mg6 3.237194 1_655
Mg11 Mg7 3.237194 1_555
Mg11 Mg7 3.237194 1_655
Mg11 Mg6 3.237194 1_555
Mg11 Mg8 3.321284 1_555
Mg11 Mg8 3.321284 1_655
