# generated using pymatgen
data_Ca5(RhN3)2
_symmetry_space_group_name_H-M   'P 1'
_cell_length_a   6.03200255
_cell_length_b   6.53416580
_cell_length_c   12.56296782
_cell_angle_alpha   89.99999782
_cell_angle_beta   101.24821938
_cell_angle_gamma   122.79432490
_symmetry_Int_Tables_number   1
_chemical_formula_structural   Ca5(RhN3)2
_chemical_formula_sum   'Ca10 Rh4 N12'
_cell_volume   404.87893091
_cell_formula_units_Z   2
loop_
 _symmetry_equiv_pos_site_id
 _symmetry_equiv_pos_as_xyz
  1  'x, y, z'
loop_
 _atom_site_type_symbol
 _atom_site_label
 _atom_site_symmetry_multiplicity
 _atom_site_fract_x
 _atom_site_fract_y
 _atom_site_fract_z
 _atom_site_occupancy
  Ca  Ca0  1  -0.00000000  0.35917950  0.75000000  1
  Ca  Ca1  1  0.00000000  0.64082050  0.25000000  1
  Ca  Ca2  1  0.10986515  0.79655543  0.00052112  1
  Ca  Ca3  1  0.89013485  0.68669028  0.49947888  1
  Ca  Ca4  1  0.89013485  0.20344457  0.99947888  1
  Ca  Ca5  1  0.10986515  0.31330972  0.50052112  1
  Ca  Ca6  1  0.32086113  0.03558292  0.72628158  1
  Ca  Ca7  1  0.67913887  0.71472179  0.77371842  1
  Ca  Ca8  1  0.67913887  0.96441708  0.27371842  1
  Ca  Ca9  1  0.32086113  0.28527821  0.22628158  1
  Rh  Rh0  1  0.53846767  0.84624859  0.55630486  1
  Rh  Rh1  1  0.46153233  0.30778192  0.94369514  1
  Rh  Rh2  1  0.46153233  0.15375141  0.44369514  1
  Rh  Rh3  1  0.53846767  0.69221808  0.05630486  1
  N  N0  1  0.27394668  0.66550612  0.64474806  1
  N  N1  1  0.72605332  0.39155945  0.85525194  1
  N  N2  1  0.72605332  0.33449388  0.35525194  1
  N  N3  1  0.27394668  0.60844055  0.14474806  1
  N  N4  1  0.58619812  0.25688906  0.59070917  1
  N  N5  1  0.41380188  0.67068994  0.90929083  1
  N  N6  1  0.41380188  0.74311094  0.40929083  1
  N  N7  1  0.58619812  0.32931006  0.09070917  1
  N  N8  1  0.91377672  0.98821093  0.62852472  1
  N  N9  1  0.08622328  0.07443421  0.87147528  1
  N  N10  1  0.08622328  0.01178907  0.37147528  1
  N  N11  1  0.91377672  0.92556579  0.12852472  1
loop_
_geom_bond_atom_site_label_1
_geom_bond_atom_site_label_2
_geom_bond_distance
_geom_bond_site_symmetry_2
Ca0 N0 2.398936 1_555
Ca0 N1 2.398936 1_455
Ca0 N9 2.607639 1_555
Ca0 N8 2.607639 1_445
Ca0 N5 2.631694 1_555
Ca0 N4 2.631696 1_455
Ca1 N2 2.398936 1_455
Ca1 N3 2.398936 1_555
Ca1 N11 2.607639 1_455
Ca1 N10 2.607639 1_565
Ca1 N7 2.631694 1_455
Ca1 N6 2.631696 1_555
Ca2 N9 2.477036 1_564
Ca2 N3 2.528187 1_555
Ca2 N11 2.552990 1_455
Ca2 N1 2.721871 1_454
Ca2 N5 2.793599 1_554
Ca2 N7 3.090732 1_565
Ca3 N8 2.477036 1_555
Ca3 N2 2.528187 1_555
Ca3 N10 2.552990 1_665
Ca3 N0 2.721871 1_655
Ca3 N4 2.793595 1_555
Ca3 N6 3.090728 1_555
Ca4 N11 2.477036 1_546
Ca4 N1 2.528187 1_555
Ca4 N9 2.552990 1_655
Ca4 N3 2.721871 1_656
Ca4 N7 2.793599 1_556
Ca4 N5 3.090732 1_545
Ca5 N10 2.477036 1_555
Ca5 N0 2.528187 1_555
Ca5 N8 2.552990 1_445
Ca5 N2 2.721871 1_455
Ca5 N6 2.793595 1_555
Ca5 N4 3.090728 1_555
Ca6 N8 2.373584 1_445
Ca6 N4 2.471827 1_555
Ca6 N0 2.474336 1_545
Ca6 N1 2.511179 1_555
Ca6 N9 2.605993 1_555
Ca7 N9 2.373584 1_665
Ca7 N5 2.471825 1_555
Ca7 N1 2.474336 1_555
Ca7 N0 2.511179 1_555
Ca7 N8 2.605993 1_555
Ca8 N10 2.373584 1_665
Ca8 N6 2.471827 1_555
Ca8 N2 2.474336 1_565
Ca8 N3 2.511179 1_555
Ca8 N11 2.605993 1_555
Ca9 N11 2.373584 1_445
Ca9 N7 2.471825 1_555
Ca9 N3 2.474336 1_555
Ca9 N2 2.511179 1_555
Ca9 N10 2.605993 1_555
N0 Rh0 1.955915 1_555
N1 Rh1 1.955916 1_555
N2 Rh2 1.955915 1_555
N3 Rh3 1.955916 1_555
N4 Rh2 1.827572 1_555
N4 Rh0 2.565902 1_545
N5 Rh3 1.827572 1_556
N5 Rh1 2.565889 1_555
N6 Rh0 1.827572 1_555
N6 Rh2 2.565902 1_565
N7 Rh1 1.827572 1_554
N7 Rh3 2.565889 1_555
N8 Rh0 1.932000 1_555
N9 Rh1 1.932001 1_555
N10 Rh2 1.932000 1_555
N11 Rh3 1.932001 1_555
