# generated using pymatgen
data_Pr(InPt)2
_symmetry_space_group_name_H-M   'P 1'
_cell_length_a   4.51060303
_cell_length_b   10.30271081
_cell_length_c   10.28997222
_cell_angle_alpha   62.82010358
_cell_angle_beta   90.00000000
_cell_angle_gamma   90.00000000
_symmetry_Int_Tables_number   1
_chemical_formula_structural   Pr(InPt)2
_chemical_formula_sum   'Pr4 In8 Pt8'
_cell_volume   425.38651599
_cell_formula_units_Z   4
loop_
 _symmetry_equiv_pos_site_id
 _symmetry_equiv_pos_as_xyz
  1  'x, y, z'
loop_
 _atom_site_type_symbol
 _atom_site_label
 _atom_site_symmetry_multiplicity
 _atom_site_fract_x
 _atom_site_fract_y
 _atom_site_fract_z
 _atom_site_occupancy
  Pr  Pr0  1  0.25000000  0.95226893  0.79036626  1
  Pr  Pr1  1  0.75000000  0.04773107  0.20963374  1
  Pr  Pr2  1  0.25000000  0.59645284  0.71087514  1
  Pr  Pr3  1  0.75000000  0.40354716  0.28912486  1
  In  In0  1  0.25000000  0.35348891  0.55378585  1
  In  In1  1  0.75000000  0.64651109  0.44621415  1
  In  In2  1  0.25000000  0.11938274  0.42329927  1
  In  In3  1  0.75000000  0.88061726  0.57670073  1
  In  In4  1  0.25000000  0.22613379  0.89794740  1
  In  In5  1  0.75000000  0.77386621  0.10205260  1
  In  In6  1  0.25000000  0.59479802  0.04007055  1
  In  In7  1  0.75000000  0.40520198  0.95992945  1
  Pt  Pt0  1  0.25000000  0.62559516  0.29736495  1
  Pt  Pt1  1  0.75000000  0.37440484  0.70263505  1
  Pt  Pt2  1  0.25000000  0.84362830  0.42038630  1
  Pt  Pt3  1  0.75000000  0.15637170  0.57961370  1
  Pt  Pt4  1  0.25000000  0.29670682  0.12912462  1
  Pt  Pt5  1  0.75000000  0.70329318  0.87087538  1
  Pt  Pt6  1  0.25000000  0.92779814  0.10073429  1
  Pt  Pt7  1  0.75000000  0.07220186  0.89926571  1
loop_
_geom_bond_atom_site_label_1
_geom_bond_atom_site_label_2
_geom_bond_distance
_geom_bond_site_symmetry_2
Pr0 Pt7 3.022219 1_565
Pr0 Pt7 3.022219 1_465
Pr0 Pt6 3.086674 1_556
Pr0 Pt3 3.169399 1_465
Pr0 Pt3 3.169399 1_565
Pr0 Pt5 3.226636 1_455
Pr0 Pt5 3.226636 1_555
Pr1 Pt6 3.022219 1_545
Pr1 Pt6 3.022219 1_645
Pr1 Pt7 3.086674 1_554
Pr1 Pt2 3.169399 1_645
Pr1 Pt2 3.169399 1_545
Pr1 Pt4 3.226636 1_555
Pr1 Pt4 3.226636 1_655
Pr2 Pt2 2.909600 1_555
Pr2 Pt1 3.241040 1_455
Pr2 Pt1 3.241040 1_555
Pr2 Pt5 3.265622 1_455
Pr2 Pt5 3.265622 1_555
Pr3 Pt3 2.909600 1_555
Pr3 Pt0 3.241040 1_655
Pr3 Pt0 3.241040 1_555
Pr3 Pt4 3.265622 1_555
Pr3 Pt4 3.265622 1_655
In0 Pt1 2.789322 1_455
In0 Pt1 2.789322 1_555
In0 Pt0 2.839635 1_555
In0 Pt3 2.964498 1_555
In0 Pt3 2.964498 1_455
In0 Pr3 3.389083 1_455
In0 Pr3 3.389083 1_555
In0 Pr2 3.546180 1_555
In1 Pt0 2.789322 1_655
In1 Pt0 2.789322 1_555
In1 Pt1 2.839635 1_555
In1 Pt2 2.964498 1_555
In1 Pt2 2.964498 1_655
In1 Pr2 3.389083 1_655
In1 Pr2 3.389083 1_555
In1 Pr3 3.546180 1_555
In2 Pt4 2.729185 1_555
In2 Pt2 2.854835 1_545
In2 Pt3 2.894612 1_455
In2 Pt3 2.894612 1_555
In2 Pr3 3.445441 1_455
In2 Pr3 3.445441 1_555
In3 Pt5 2.729185 1_555
In3 Pt3 2.854835 1_565
In3 Pt2 2.894612 1_555
In3 Pt2 2.894612 1_655
In3 Pr2 3.445441 1_655
In3 Pr2 3.445441 1_555
In4 Pt7 2.753551 1_555
In4 Pt7 2.753551 1_455
In4 Pt4 2.787026 1_556
In4 Pt6 2.818194 1_546
In4 Pt1 2.941820 1_455
In4 Pt1 2.941820 1_555
In4 Pr2 3.398880 1_555
In5 Pt6 2.753551 1_655
In5 Pt6 2.753551 1_555
In5 Pt5 2.787026 1_554
In5 Pt7 2.818194 1_564
In5 Pt0 2.941820 1_655
In5 Pt0 2.941820 1_555
In5 Pr3 3.398880 1_555
In6 Pt5 2.754828 1_454
In6 Pt5 2.754828 1_554
In6 Pt4 2.774998 1_555
In6 Pt0 2.806716 1_555
In6 Pr3 3.305054 1_455
In6 Pr3 3.305054 1_555
In6 Pr2 3.379658 1_554
In7 Pt4 2.754828 1_556
In7 Pt4 2.754828 1_656
In7 Pt5 2.774998 1_555
In7 Pt1 2.806716 1_555
In7 Pr2 3.305054 1_555
In7 Pr2 3.305054 1_655
In7 Pr3 3.379658 1_556
Pt0 Pt6 2.834186 1_555
Pt0 Pt2 3.040775 1_555
Pt1 Pt7 2.834186 1_555
Pt1 Pt3 3.040775 1_555
