# generated using pymatgen
data_Hg3Pd
_symmetry_space_group_name_H-M   'P 1'
_cell_length_a   5.94057623
_cell_length_b   5.94057623
_cell_length_c   5.48806200
_cell_angle_alpha   90.00000000
_cell_angle_beta   90.00000000
_cell_angle_gamma   120.00000261
_symmetry_Int_Tables_number   1
_chemical_formula_structural   Hg3Pd
_chemical_formula_sum   'Hg6 Pd2'
_cell_volume   167.72846648
_cell_formula_units_Z   2
loop_
 _symmetry_equiv_pos_site_id
 _symmetry_equiv_pos_as_xyz
  1  'x, y, z'
loop_
 _atom_site_type_symbol
 _atom_site_label
 _atom_site_symmetry_multiplicity
 _atom_site_fract_x
 _atom_site_fract_y
 _atom_site_fract_z
 _atom_site_occupancy
  Hg  Hg0  1  0.83135100  0.16864900  0.75000000  1
  Hg  Hg1  1  0.33729800  0.16864900  0.75000000  1
  Hg  Hg2  1  0.83135100  0.66270200  0.75000000  1
  Hg  Hg3  1  0.16864900  0.83135100  0.25000000  1
  Hg  Hg4  1  0.66270200  0.83135100  0.25000000  1
  Hg  Hg5  1  0.16864900  0.33729800  0.25000000  1
  Pd  Pd0  1  0.66666700  0.33333300  0.25000000  1
  Pd  Pd1  1  0.33333300  0.66666700  0.75000000  1
loop_
_geom_bond_atom_site_label_1
_geom_bond_atom_site_label_2
_geom_bond_distance
_geom_bond_site_symmetry_2
Hg0 Hg1 2.934960 1_555
Hg0 Hg2 2.934960 1_555
Hg0 Pd1 2.970358 1_545
Hg0 Pd1 2.970358 1_655
Hg0 Hg2 3.005617 1_545
Hg0 Hg1 3.005617 1_655
Hg0 Pd0 3.225062 1_555
Hg0 Pd0 3.225062 1_556
Hg0 Hg4 3.246683 1_546
Hg0 Hg4 3.246683 1_545
Hg0 Hg5 3.246683 1_656
Hg0 Hg5 3.246683 1_655
Hg1 Hg2 2.934959 1_555
Hg1 Pd1 2.970355 1_545
Hg1 Pd1 2.970361 1_555
Hg1 Hg2 3.005617 1_445
Hg1 Pd0 3.225064 1_555
Hg1 Pd0 3.225064 1_556
Hg1 Hg3 3.246683 1_546
Hg1 Hg3 3.246683 1_545
Hg1 Hg5 3.246683 1_555
Hg1 Hg5 3.246683 1_556
Hg2 Pd1 2.970355 1_655
Hg2 Pd1 2.970361 1_555
Hg2 Pd0 3.225064 1_555
Hg2 Pd0 3.225064 1_556
Hg2 Hg3 3.246683 1_656
Hg2 Hg3 3.246683 1_655
Hg2 Hg4 3.246683 1_555
Hg2 Hg4 3.246683 1_556
Hg3 Hg5 2.934960 1_555
Hg3 Hg4 2.934960 1_555
Hg3 Pd0 2.970358 1_455
Hg3 Pd0 2.970358 1_565
Hg3 Hg4 3.005617 1_455
Hg3 Hg5 3.005617 1_565
Hg3 Pd1 3.225062 1_555
Hg3 Pd1 3.225062 1_554
Hg4 Hg5 2.934959 1_555
Hg4 Pd0 2.970355 1_565
Hg4 Pd0 2.970361 1_555
Hg4 Hg5 3.005617 1_665
Hg4 Pd1 3.225064 1_555
Hg4 Pd1 3.225064 1_554
Hg5 Pd0 2.970355 1_455
Hg5 Pd0 2.970361 1_555
Hg5 Pd1 3.225064 1_554
Hg5 Pd1 3.225064 1_555
