# generated using pymatgen
data_La5Sm3Cr8O20
_symmetry_space_group_name_H-M   'P 1'
_cell_length_a   11.08379569
_cell_length_b   11.48446294
_cell_length_c   17.76511636
_cell_angle_alpha   108.96054042
_cell_angle_beta   108.52880263
_cell_angle_gamma   89.46717785
_symmetry_Int_Tables_number   1
_chemical_formula_structural   La5Sm3Cr8O20
_chemical_formula_sum   'La20 Sm12 Cr32 O80'
_cell_volume   2016.63230770
_cell_formula_units_Z   4
loop_
 _symmetry_equiv_pos_site_id
 _symmetry_equiv_pos_as_xyz
  1  'x, y, z'
loop_
 _atom_site_type_symbol
 _atom_site_label
 _atom_site_symmetry_multiplicity
 _atom_site_fract_x
 _atom_site_fract_y
 _atom_site_fract_z
 _atom_site_occupancy
  La  La0  1  0.31016792  0.06308546  0.61715033  1
  La  La1  1  0.31070786  0.56427710  0.61754539  1
  La  La2  1  0.80892040  0.06360315  0.61800187  1
  La  La3  1  0.81062965  0.56217103  0.61776400  1
  La  La4  1  0.19234023  0.43548936  0.38231881  1
  La  La5  1  0.18682376  0.43729924  0.88117569  1
  La  La6  1  0.19221517  0.93820867  0.38176111  1
  La  La7  1  0.69159322  0.43530986  0.38068294  1
  La  La8  1  0.69456842  0.93668080  0.38102221  1
  La  La9  1  0.05840412  0.30714388  0.11980486  1
  La  La10  1  0.06121784  0.30307342  0.61780620  1
  La  La11  1  0.05942204  0.80741611  0.61905842  1
  La  La12  1  0.55963456  0.30601031  0.62060985  1
  La  La13  1  0.44189293  0.19530972  0.38025238  1
  La  La14  1  0.44192699  0.19542549  0.88230036  1
  La  La15  1  0.44332087  0.69375770  0.38136237  1
  La  La16  1  0.44029782  0.69290619  0.88114417  1
  La  La17  1  0.94147805  0.19558974  0.38055947  1
  La  La18  1  0.93938385  0.19427630  0.88175132  1
  La  La19  1  0.94351613  0.69532527  0.38269900  1
  Sm  Sm0  1  0.30381081  0.06334832  0.11477611  1
  Sm  Sm1  1  0.30607368  0.56131868  0.11266937  1
  Sm  Sm2  1  0.80220971  0.06232122  0.11490309  1
  Sm  Sm3  1  0.80361835  0.56192649  0.11498524  1
  Sm  Sm4  1  0.18902171  0.93924357  0.88559253  1
  Sm  Sm5  1  0.69296199  0.43747291  0.88569060  1
  Sm  Sm6  1  0.68782176  0.93832738  0.88304902  1
  Sm  Sm7  1  0.05622645  0.80267950  0.11406985  1
  Sm  Sm8  1  0.55592143  0.30286308  0.11657239  1
  Sm  Sm9  1  0.55394473  0.80316356  0.11429886  1
  Sm  Sm10  1  0.55637588  0.80169375  0.61476420  1
  Sm  Sm11  1  0.94080794  0.69776482  0.88593365  1
  Cr  Cr0  1  0.00397686  0.99868323  0.99975332  1
  Cr  Cr1  1  0.00381901  0.99960490  0.49907524  1
  Cr  Cr2  1  0.00553496  0.50291492  0.00193361  1
  Cr  Cr3  1  0.00432811  0.50048379  0.50022591  1
  Cr  Cr4  1  0.50593292  0.99844916  0.00016206  1
  Cr  Cr5  1  0.50505855  0.99933219  0.49955711  1
  Cr  Cr6  1  0.50869281  0.50151622  0.00292037  1
  Cr  Cr7  1  0.50550744  0.50053784  0.50054331  1
  Cr  Cr8  1  0.25683647  0.24956094  0.00090644  1
  Cr  Cr9  1  0.25471582  0.24940774  0.49887986  1
  Cr  Cr10  1  0.25579381  0.75238219  0.00138910  1
  Cr  Cr11  1  0.25587870  0.74990052  0.49989051  1
  Cr  Cr12  1  0.75514919  0.24990597  0.00105364  1
  Cr  Cr13  1  0.75392616  0.24983447  0.49980087  1
  Cr  Cr14  1  0.75714902  0.75103788  0.00113085  1
  Cr  Cr15  1  0.75355779  0.75016441  0.50098940  1
  Cr  Cr16  1  0.11834261  0.11821016  0.24719026  1
  Cr  Cr17  1  0.12147585  0.12112513  0.75141266  1
  Cr  Cr18  1  0.12003788  0.62477030  0.24857113  1
  Cr  Cr19  1  0.11740063  0.62615139  0.75204311  1
  Cr  Cr20  1  0.61870387  0.11974855  0.24747136  1
  Cr  Cr21  1  0.62078418  0.11826063  0.75096639  1
  Cr  Cr22  1  0.61934636  0.62187122  0.24826024  1
  Cr  Cr23  1  0.62628356  0.62712408  0.75213681  1
  Cr  Cr24  1  0.37183222  0.37977001  0.24848249  1
  Cr  Cr25  1  0.37406843  0.37923607  0.75171474  1
  Cr  Cr26  1  0.37002268  0.87750494  0.24786570  1
  Cr  Cr27  1  0.37221188  0.87719714  0.75120614  1
  Cr  Cr28  1  0.86833504  0.37849988  0.24783481  1
  Cr  Cr29  1  0.86969867  0.38019918  0.75182326  1
  Cr  Cr30  1  0.87070214  0.87573435  0.24644942  1
  Cr  Cr31  1  0.86879340  0.87543602  0.75139275  1
  O  O0  1  0.11888722  0.11807036  0.47800380  1
  O  O1  1  0.11441648  0.10838571  0.97529889  1
  O  O2  1  0.11919145  0.61711555  0.48030488  1
  O  O3  1  0.11419543  0.62298973  0.97733961  1
  O  O4  1  0.61721969  0.11395665  0.47693628  1
  O  O5  1  0.61636375  0.11080431  0.97592560  1
  O  O6  1  0.61684764  0.61569161  0.47960439  1
  O  O7  1  0.62176723  0.61588619  0.97713778  1
  O  O8  1  0.14276964  0.39043624  0.02798918  1
  O  O9  1  0.13908750  0.38463334  0.52187361  1
  O  O10  1  0.14120094  0.88497168  0.02777418  1
  O  O11  1  0.13982552  0.88175910  0.52197390  1
  O  O12  1  0.64205551  0.38632448  0.03104994  1
  O  O13  1  0.63985488  0.38574290  0.52460413  1
  O  O14  1  0.64247338  0.88350341  0.02993928  1
  O  O15  1  0.63700353  0.88207679  0.52514479  1
  O  O16  1  0.36703760  0.11018424  0.47604497  1
  O  O17  1  0.36308891  0.10120927  0.97254884  1
  O  O18  1  0.36801334  0.61165272  0.47638697  1
  O  O19  1  0.36713594  0.61236626  0.97861020  1
  O  O20  1  0.86546834  0.11354847  0.47618614  1
  O  O21  1  0.86087602  0.10301449  0.97233841  1
  O  O22  1  0.86620118  0.61248501  0.47738669  1
  O  O23  1  0.86505457  0.61158600  0.97241361  1
  O  O24  1  0.39582583  0.39650261  0.02865248  1
  O  O25  1  0.38988107  0.39023050  0.52099759  1
  O  O26  1  0.39031698  0.89236393  0.02793123  1
  O  O27  1  0.39150842  0.88621932  0.52143898  1
  O  O28  1  0.88734967  0.39788810  0.02581621  1
  O  O29  1  0.88755555  0.38710923  0.52043027  1
  O  O30  1  0.89117110  0.89125850  0.02838118  1
  O  O31  1  0.88437383  0.88416163  0.52016646  1
  O  O32  1  0.08610425  0.10515064  0.12415619  1
  O  O33  1  0.07476098  0.10032347  0.62598357  1
  O  O34  1  0.08494405  0.60897765  0.12602013  1
  O  O35  1  0.07236061  0.60337640  0.62630266  1
  O  O36  1  0.58560330  0.10733347  0.12414720  1
  O  O37  1  0.57556702  0.10260916  0.62486835  1
  O  O38  1  0.58709046  0.61035556  0.12636536  1
  O  O39  1  0.57385282  0.60564567  0.62623912  1
  O  O40  1  0.45139374  0.39923771  0.37505094  1
  O  O41  1  0.46362826  0.39896536  0.87722102  1
  O  O42  1  0.44605972  0.89765520  0.37284673  1
  O  O43  1  0.46412180  0.89315538  0.87577613  1
  O  O44  1  0.94779070  0.40016302  0.37413719  1
  O  O45  1  0.95235005  0.39701101  0.87695098  1
  O  O46  1  0.94344850  0.89791366  0.37150377  1
  O  O47  1  0.95535279  0.89225019  0.87463234  1
  O  O48  1  0.33872110  0.26597353  0.12578679  1
  O  O49  1  0.32655682  0.27362141  0.62540668  1
  O  O50  1  0.33342393  0.76872373  0.12560646  1
  O  O51  1  0.33612120  0.77443725  0.62534969  1
  O  O52  1  0.83037971  0.26521774  0.12498541  1
  O  O53  1  0.82567733  0.27434952  0.62584210  1
  O  O54  1  0.83700766  0.76597779  0.12454030  1
  O  O55  1  0.82322409  0.77453677  0.62691908  1
  O  O56  1  0.19803924  0.22462658  0.37299227  1
  O  O57  1  0.20147334  0.23121394  0.87526056  1
  O  O58  1  0.19457349  0.72623620  0.37374589  1
  O  O59  1  0.20252815  0.73428946  0.87686620  1
  O  O60  1  0.69558202  0.22617097  0.37388415  1
  O  O61  1  0.70102297  0.23329299  0.87579852  1
  O  O62  1  0.69310165  0.72473692  0.37398860  1
  O  O63  1  0.70893114  0.73570303  0.87664987  1
  O  O64  1  0.41425967  0.05955417  0.24491684  1
  O  O65  1  0.42191369  0.06314174  0.75029051  1
  O  O66  1  0.41517399  0.56915208  0.24421523  1
  O  O67  1  0.43143714  0.56603435  0.74991906  1
  O  O68  1  0.91336705  0.06052499  0.24500210  1
  O  O69  1  0.92075521  0.05493445  0.75020503  1
  O  O70  1  0.91653378  0.56797410  0.24560628  1
  O  O71  1  0.91897626  0.57247093  0.75543299  1
  O  O72  1  0.17283671  0.44355258  0.25093383  1
  O  O73  1  0.17387164  0.44327190  0.75047055  1
  O  O74  1  0.16600938  0.92691378  0.24513043  1
  O  O75  1  0.16904842  0.93382632  0.75515254  1
  O  O76  1  0.66618613  0.43472487  0.24565615  1
  O  O77  1  0.67262156  0.43459868  0.75551994  1
  O  O78  1  0.66700002  0.92582414  0.24457108  1
  O  O79  1  0.66604494  0.92110370  0.74941419  1
loop_
_geom_bond_atom_site_label_1
_geom_bond_atom_site_label_2
_geom_bond_distance
_geom_bond_site_symmetry_2
La0 O65 2.294687 1_555
La0 O49 2.379388 1_555
La0 O11 2.552689 1_545
La0 O27 2.554529 1_545
La0 O33 2.685390 1_555
La0 O37 2.933609 1_555
La0 O0 2.943264 1_555
La0 O16 2.977484 1_555
La1 O67 2.300189 1_555
La1 O51 2.386270 1_555
La1 O25 2.530490 1_555
La1 O9 2.550113 1_555
La1 O35 2.720047 1_555
La1 O39 2.906575 1_555
La1 O2 2.909755 1_555
La1 O18 2.982176 1_555
La2 O69 2.315541 1_555
La2 O53 2.384250 1_555
La2 O31 2.555646 1_545
La2 O15 2.557256 1_545
La2 O37 2.654937 1_555
La2 O33 2.932346 1_655
La2 O4 2.943466 1_555
La2 O20 3.003071 1_555
La3 O71 2.320687 1_555
La3 O55 2.393395 1_555
La3 O13 2.515648 1_555
La3 O29 2.530817 1_555
La3 O39 2.708739 1_555
La3 O35 2.891677 1_655
La3 O6 2.936070 1_555
La3 O22 2.975180 1_555
La4 O72 2.307073 1_555
La4 O56 2.374633 1_555
La4 O18 2.546613 1_555
La4 O2 2.558203 1_555
La4 O44 2.695269 1_455
La4 O25 2.918266 1_555
La4 O40 2.934757 1_555
La4 O9 2.951843 1_555
La5 O73 2.304001 1_555
La5 O57 2.341181 1_555
La5 O3 2.566900 1_555
La5 O19 2.578220 1_555
La5 O45 2.617176 1_455
La6 O74 2.311016 1_555
La6 O58 2.392308 1_555
La6 O16 2.513893 1_565
La6 O0 2.531315 1_565
La6 O46 2.738530 1_455
La6 O42 2.892923 1_555
La6 O27 2.974516 1_555
La6 O11 2.989597 1_555
La7 O76 2.322426 1_555
La7 O60 2.366077 1_555
La7 O22 2.554531 1_555
La7 O6 2.567837 1_555
La7 O40 2.663432 1_555
La7 O44 2.897940 1_555
La7 O29 2.937862 1_555
La7 O13 3.012265 1_555
La8 O78 2.306202 1_555
La8 O62 2.396317 1_555
La8 O20 2.525236 1_565
La8 O4 2.534754 1_565
La8 O42 2.745032 1_555
La8 O46 2.839196 1_555
La8 O31 2.922347 1_555
La8 O15 3.073243 1_555
La9 O72 2.297205 1_555
La9 O32 2.360050 1_555
La9 O8 2.539665 1_555
La9 O28 2.559421 1_455
La9 O52 2.612892 1_455
La10 O73 2.325332 1_555
La10 O33 2.380101 1_555
La10 O9 2.552256 1_555
La10 O29 2.561846 1_455
La10 O53 2.688561 1_455
La10 O49 2.922447 1_555
La10 O0 2.940357 1_555
La10 O20 2.972316 1_455
La11 O75 2.305261 1_555
La11 O35 2.388746 1_555
La11 O31 2.536866 1_455
La11 O11 2.538846 1_555
La11 O55 2.702010 1_455
La11 O2 2.966735 1_555
La12 O77 2.306534 1_555
La12 O37 2.364796 1_555
La12 O13 2.555741 1_555
La12 O25 2.563094 1_555
La12 O49 2.645353 1_555
La12 O53 2.943446 1_555
La12 O16 3.010328 1_555
La12 O4 3.022866 1_555
La13 O64 2.325937 1_555
La13 O40 2.378237 1_555
La13 O4 2.546979 1_555
La13 O16 2.556108 1_555
La13 O56 2.687934 1_555
La13 O60 2.879517 1_555
La13 O25 2.974918 1_555
La13 O13 3.007032 1_555
La14 O65 2.284170 1_555
La14 O41 2.385674 1_555
La14 O5 2.533896 1_555
La14 O17 2.557371 1_555
La14 O57 2.662467 1_555
La14 O61 2.952322 1_555
La14 O24 3.045391 1_556
La14 O12 3.051250 1_556
La15 O66 2.311034 1_555
La15 O42 2.396162 1_555
La15 O18 2.525901 1_555
La15 O6 2.529887 1_555
La15 O58 2.745071 1_555
La15 O62 2.843860 1_555
La15 O27 2.952657 1_555
La15 O15 2.970159 1_555
La16 O67 2.284103 1_555
La16 O43 2.353191 1_555
La16 O19 2.541316 1_555
La16 O7 2.550157 1_555
La16 O59 2.655149 1_555
La17 O68 2.325339 1_555
La17 O44 2.391648 1_555
La17 O20 2.539296 1_555
La17 O0 2.541928 1_655
La17 O60 2.714663 1_555
La17 O56 2.916415 1_655
La17 O29 2.955872 1_555
La17 O9 2.977433 1_655
La18 O69 2.309551 1_555
La18 O45 2.364729 1_555
La18 O21 2.539397 1_555
La18 O1 2.545411 1_655
La18 O61 2.650101 1_555
La18 O57 2.983213 1_655
La18 O28 3.061827 1_556
La19 O70 2.321749 1_555
La19 O46 2.398600 1_555
La19 O2 2.537426 1_655
La19 O22 2.537782 1_555
La19 O62 2.754131 1_555
La19 O58 2.868958 1_655
La19 O31 2.940448 1_555
La19 O11 2.943291 1_655
Cr0 O1 1.999189 1_565
Cr0 O21 2.010342 1_465
Cr0 O10 2.042265 1_556
Cr0 O30 2.045619 1_456
Cr0 O32 2.047924 1_566
Cr0 O47 2.051981 1_455
Cr1 O20 2.035033 1_465
Cr1 O11 2.049317 1_555
Cr1 O33 2.057851 1_565
Cr1 O46 2.068486 1_455
Cr1 O0 2.069881 1_565
Cr1 O31 2.078847 1_455
Cr2 O28 2.016431 1_455
Cr2 O8 2.025119 1_555
Cr2 O23 2.031556 1_454
Cr2 O34 2.039539 1_555
Cr2 O45 2.045297 1_454
Cr2 O3 2.073616 1_554
Cr3 O22 2.017602 1_455
Cr3 O9 2.019780 1_555
Cr3 O29 2.032148 1_455
Cr3 O2 2.041160 1_555
Cr3 O44 2.044957 1_455
Cr3 O35 2.050554 1_555
Cr4 O17 1.996974 1_564
Cr4 O5 2.018382 1_564
Cr4 O43 2.045262 1_554
Cr4 O36 2.046821 1_565
Cr4 O26 2.047252 1_555
Cr4 O14 2.054418 1_555
Cr5 O16 2.009648 1_565
Cr5 O27 2.022899 1_555
Cr5 O15 2.024206 1_555
Cr5 O4 2.032634 1_565
Cr5 O37 2.041824 1_565
Cr5 O42 2.056407 1_555
Cr6 O24 1.994552 1_555
Cr6 O12 2.026958 1_555
Cr6 O38 2.038268 1_555
Cr6 O19 2.039208 1_554
Cr6 O41 2.053323 1_554
Cr6 O7 2.071755 1_554
Cr7 O25 2.001156 1_555
Cr7 O18 2.009743 1_555
Cr7 O6 2.012969 1_555
Cr7 O13 2.015759 1_555
Cr7 O40 2.039869 1_555
Cr7 O39 2.051232 1_555
Cr8 O57 2.056580 1_554
Cr8 O48 2.057374 1_555
Cr8 O8 2.071274 1_555
Cr8 O17 2.079771 1_554
Cr8 O1 2.106979 1_554
Cr8 O24 2.118775 1_555
Cr9 O0 2.000753 1_555
Cr9 O9 2.025986 1_555
Cr9 O16 2.033085 1_555
Cr9 O56 2.043028 1_555
Cr9 O49 2.055286 1_555
Cr9 O25 2.066975 1_555
Cr10 O10 2.007534 1_555
Cr10 O3 2.014584 1_554
Cr10 O19 2.032258 1_554
Cr10 O26 2.033489 1_555
Cr10 O59 2.039342 1_554
Cr10 O50 2.042634 1_555
Cr11 O11 2.000031 1_555
Cr11 O18 2.025392 1_555
Cr11 O2 2.026077 1_555
Cr11 O27 2.036158 1_555
Cr11 O51 2.043191 1_555
Cr11 O58 2.048758 1_555
Cr12 O12 2.038447 1_555
Cr12 O52 2.039088 1_555
Cr12 O61 2.055605 1_554
Cr12 O21 2.064772 1_554
Cr12 O5 2.064808 1_554
Cr12 O28 2.092765 1_555
Cr13 O20 2.005287 1_555
Cr13 O13 2.024692 1_555
Cr13 O29 2.033827 1_555
Cr13 O4 2.033941 1_555
Cr13 O60 2.045659 1_555
Cr13 O53 2.046509 1_555
Cr14 O7 2.012303 1_554
Cr14 O14 2.015772 1_555
Cr14 O23 2.019113 1_554
Cr14 O30 2.028567 1_555
Cr14 O54 2.035801 1_555
Cr14 O63 2.050495 1_554
Cr15 O31 1.993343 1_555
Cr15 O15 2.010371 1_555
Cr15 O22 2.024819 1_555
Cr15 O6 2.030213 1_555
Cr15 O55 2.044174 1_555
Cr15 O62 2.058952 1_555
Cr16 O32 2.054048 1_555
Cr16 O56 2.063755 1_555
Cr16 O74 2.246209 1_545
Cr16 O68 2.357347 1_455
Cr17 O57 2.049087 1_555
Cr17 O33 2.052662 1_555
Cr17 O75 2.226851 1_545
Cr17 O69 2.349112 1_455
Cr18 O34 2.032386 1_555
Cr18 O58 2.037601 1_555
Cr18 O72 2.166583 1_555
Cr18 O70 2.333557 1_455
Cr19 O35 2.054622 1_555
Cr19 O59 2.062112 1_555
Cr19 O73 2.179961 1_555
Cr19 O71 2.313894 1_455
Cr20 O36 2.059601 1_555
Cr20 O60 2.069475 1_555
Cr20 O78 2.273774 1_545
Cr20 O64 2.357580 1_555
Cr21 O61 2.078156 1_555
Cr21 O37 2.080433 1_555
Cr21 O65 2.294278 1_555
Cr21 O79 2.307879 1_545
Cr22 O38 2.038952 1_555
Cr22 O62 2.048305 1_555
Cr22 O76 2.195667 1_555
Cr22 O66 2.320944 1_555
Cr23 O39 2.054012 1_555
Cr23 O63 2.056201 1_555
Cr23 O67 2.261404 1_555
Cr23 O77 2.280737 1_555
Cr24 O48 2.059885 1_555
Cr24 O40 2.073687 1_555
Cr24 O66 2.262003 1_555
Cr24 O72 2.326697 1_555
Cr25 O49 2.067786 1_555
Cr25 O41 2.068140 1_555
Cr25 O67 2.256167 1_555
Cr25 O73 2.326814 1_555
Cr26 O50 2.031958 1_555
Cr26 O42 2.043044 1_555
Cr26 O64 2.172763 1_565
Cr26 O74 2.315551 1_555
Cr27 O43 2.067807 1_555
Cr27 O51 2.068204 1_555
Cr27 O65 2.216785 1_565
Cr27 O75 2.354156 1_555
Cr28 O52 2.052834 1_555
Cr28 O44 2.063356 1_555
Cr28 O70 2.261200 1_555
Cr28 O76 2.317940 1_555
Cr29 O45 2.061058 1_555
Cr29 O53 2.067315 1_555
Cr29 O71 2.255317 1_555
Cr29 O77 2.281489 1_555
Cr30 O54 2.034559 1_555
Cr30 O46 2.036701 1_555
Cr30 O68 2.188598 1_565
Cr30 O78 2.317346 1_555
Cr31 O55 2.030659 1_555
Cr31 O47 2.035876 1_555
Cr31 O69 2.154011 1_565
Cr31 O79 2.294813 1_555
O1 Sm4 2.406826 1_545
O3 Sm11 2.441246 1_455
O3 Sm7 2.877758 1_556
O3 Sm1 2.938273 1_556
O5 Sm6 2.439433 1_545
O6 Sm10 2.905320 1_555
O7 Sm5 2.466136 1_555
O7 Sm3 2.875672 1_556
O7 Sm9 2.976047 1_556
O8 Sm1 2.409906 1_555
O10 Sm7 2.450765 1_555
O10 Sm0 2.464658 1_565
O12 Sm3 2.431700 1_555
O12 Sm8 2.454329 1_555
O14 Sm9 2.431072 1_555
O14 Sm2 2.446452 1_565
O15 Sm10 2.461776 1_555
O17 Sm4 2.423603 1_545
O18 Sm10 2.915759 1_555
O19 Sm9 2.894652 1_556
O19 Sm1 2.900479 1_556
O21 Sm6 2.440611 1_545
O23 Sm11 2.422441 1_555
O23 Sm5 2.492306 1_555
O24 Sm1 2.423414 1_555
O24 Sm8 2.457498 1_555
O26 Sm9 2.431273 1_555
O26 Sm0 2.468199 1_565
O27 Sm10 2.473384 1_555
O28 Sm3 2.425342 1_555
O28 Sm5 2.890331 1_554
O30 Sm7 2.429144 1_655
O30 Sm2 2.481793 1_565
O32 Sm0 2.502581 1_555
O34 Sm7 2.312107 1_555
O34 Sm1 2.573551 1_555
O36 Sm8 2.307236 1_555
O36 Sm2 2.496092 1_555
O38 Sm9 2.308094 1_555
O38 Sm3 2.514051 1_555
O39 Sm10 2.326674 1_555
O41 Sm5 2.532587 1_555
O43 Sm6 2.492033 1_555
O45 Sm5 2.952567 1_555
O47 Sm11 2.318137 1_555
O47 Sm4 2.583441 1_655
O48 Sm0 2.296945 1_555
O48 Sm8 2.513240 1_555
O50 Sm1 2.330610 1_555
O50 Sm9 2.559807 1_555
O51 Sm10 2.537190 1_555
O52 Sm2 2.294771 1_555
O54 Sm3 2.318425 1_555
O54 Sm7 2.544272 1_655
O55 Sm10 2.917624 1_555
O59 Sm4 2.314700 1_555
O59 Sm11 2.996728 1_455
O61 Sm5 2.296891 1_555
O63 Sm6 2.305995 1_555
O63 Sm11 2.564916 1_555
O64 Sm0 2.260835 1_555
O66 Sm1 2.236281 1_555
O68 Sm2 2.254072 1_555
O70 Sm3 2.237625 1_555
O71 Sm11 2.232931 1_555
O74 Sm7 2.238360 1_555
O75 Sm4 2.236784 1_555
O76 Sm8 2.245473 1_555
O77 Sm5 2.240255 1_555
O78 Sm9 2.231986 1_555
O79 Sm6 2.250551 1_555
O79 Sm10 2.265277 1_555
