# generated using pymatgen
data_Sr2AlV11O22
_symmetry_space_group_name_H-M   'P 1'
_cell_length_a   5.90142050
_cell_length_b   5.90142050
_cell_length_c   13.37931300
_cell_angle_alpha   90.00000000
_cell_angle_beta   90.00000000
_cell_angle_gamma   120.81937563
_symmetry_Int_Tables_number   1
_chemical_formula_structural   Sr2AlV11O22
_chemical_formula_sum   'Sr2 Al1 V11 O22'
_cell_volume   400.15867917
_cell_formula_units_Z   1
loop_
 _symmetry_equiv_pos_site_id
 _symmetry_equiv_pos_as_xyz
  1  'x, y, z'
loop_
 _atom_site_type_symbol
 _atom_site_label
 _atom_site_symmetry_multiplicity
 _atom_site_fract_x
 _atom_site_fract_y
 _atom_site_fract_z
 _atom_site_occupancy
  Sr  Sr0  1  0.66438300  0.33561700  0.50000000  1
  Sr  Sr1  1  0.33223200  0.66776800  0.00000000  1
  Al  Al0  1  0.66593000  0.33407000  0.00000000  1
  V  V0  1  0.99994700  0.00005300  0.60347700  1
  V  V1  1  0.99927900  0.00072100  0.89885600  1
  V  V2  1  0.99927900  0.00072100  0.10114400  1
  V  V3  1  0.99994700  0.00005300  0.39652300  1
  V  V4  1  0.50683100  0.00816800  0.24802900  1
  V  V5  1  0.49842400  0.50157600  0.25050800  1
  V  V6  1  0.99183200  0.49316900  0.24802900  1
  V  V7  1  0.50683100  0.00816800  0.75197100  1
  V  V8  1  0.49842400  0.50157600  0.74949200  1
  V  V9  1  0.99183200  0.49316900  0.75197100  1
  V  V10  1  0.33290600  0.66709400  0.50000000  1
  O  O0  1  0.65976200  0.34023800  0.16111500  1
  O  O1  1  0.33714400  0.66285600  0.33296500  1
  O  O2  1  0.33714400  0.66285600  0.66703500  1
  O  O3  1  0.65976200  0.34023800  0.83888500  1
  O  O4  1  0.82010500  0.64544300  0.32787600  1
  O  O5  1  0.82541600  0.17458400  0.33210900  1
  O  O6  1  0.35455700  0.17989500  0.32787600  1
  O  O7  1  0.17608600  0.34554300  0.17102200  1
  O  O8  1  0.17973200  0.82026800  0.17172200  1
  O  O9  1  0.65445700  0.82391400  0.17102200  1
  O  O10  1  0.17608600  0.34554300  0.82897800  1
  O  O11  1  0.17973200  0.82026800  0.82827800  1
  O  O12  1  0.65445700  0.82391400  0.82897800  1
  O  O13  1  0.82010500  0.64544300  0.67212400  1
  O  O14  1  0.82541600  0.17458400  0.66789100  1
  O  O15  1  0.35455700  0.17989500  0.67212400  1
  O  O16  1  0.15242600  0.29738400  0.50000000  1
  O  O17  1  0.14698500  0.85301500  0.50000000  1
  O  O18  1  0.70261600  0.84757400  0.50000000  1
  O  O19  1  0.84560100  0.68946400  0.00000000  1
  O  O20  1  0.83924000  0.16076000  0.00000000  1
  O  O21  1  0.31053600  0.15439900  0.00000000  1
loop_
_geom_bond_atom_site_label_1
_geom_bond_atom_site_label_2
_geom_bond_distance
_geom_bond_site_symmetry_2
Al0 O20 1.778766 1_555
Al0 O19 1.801215 1_555
Al0 O21 1.801215 1_555
Al0 O0 2.156537 1_555
Al0 O3 2.156537 1_554
O0 V5 2.042654 1_555
O0 V6 2.048132 1_555
O0 V4 2.048132 1_555
O1 V5 1.989245 1_555
O1 V4 2.087082 1_565
O1 V6 2.087082 1_455
O1 V10 2.235237 1_555
O2 V8 1.989245 1_555
O2 V7 2.087082 1_565
O2 V9 2.087082 1_455
O2 V10 2.235237 1_555
O3 V8 2.042654 1_555
O3 V9 2.048132 1_555
O3 V7 2.048132 1_555
O4 V5 1.935108 1_555
O4 V6 1.977123 1_555
O4 V3 2.018302 1_565
O4 Sr0 2.787338 1_555
O5 V4 1.967940 1_555
O5 V6 1.967940 1_555
O5 V3 1.987832 1_555
O5 Sr0 2.788787 1_555
O6 V5 1.935108 1_555
O6 V4 1.977123 1_555
O6 V3 2.018302 1_455
O6 Sr0 2.787338 1_555
O7 V5 1.950025 1_555
O7 V2 1.981946 1_455
O7 V6 1.993375 1_455
O7 Sr1 2.811640 1_555
O8 V4 1.950601 1_565
O8 V6 1.950601 1_455
O8 V2 2.078911 1_465
O8 Sr1 2.780001 1_555
O9 V5 1.950025 1_555
O9 V2 1.981946 1_565
O9 V4 1.993375 1_565
O9 Sr1 2.811640 1_555
O10 V8 1.950025 1_555
O10 V1 1.981946 1_455
O10 V9 1.993375 1_455
O10 Sr1 2.811640 1_556
O11 V7 1.950601 1_565
O11 V9 1.950601 1_455
O11 V1 2.078911 1_465
O11 Sr1 2.780001 1_556
O12 V8 1.950025 1_555
O12 V1 1.981946 1_565
O12 V7 1.993375 1_565
O12 Sr1 2.811640 1_556
O13 V8 1.935108 1_555
O13 V9 1.977123 1_555
O13 V0 2.018302 1_565
O13 Sr0 2.787338 1_555
O14 V9 1.967940 1_555
O14 V7 1.967940 1_555
O14 V0 1.987832 1_555
O14 Sr0 2.788787 1_555
O15 V8 1.935108 1_555
O15 V7 1.977123 1_555
O15 V0 2.018302 1_455
O15 Sr0 2.787338 1_555
O16 V10 1.874455 1_555
O16 V0 2.046321 1_455
O16 V3 2.046321 1_455
O16 Sr0 2.912130 1_555
O16 Sr0 3.002004 1_455
O17 V10 1.908199 1_555
O17 V0 2.047965 1_465
O17 V3 2.047965 1_465
O17 Sr0 2.919557 1_565
O17 Sr0 2.919557 1_455
O18 V10 1.874455 1_555
O18 V0 2.046321 1_565
O18 V3 2.046321 1_565
O18 Sr0 2.912130 1_555
O18 Sr0 3.002004 1_565
O19 V2 2.078660 1_565
O19 V1 2.078660 1_564
O19 Sr1 2.939469 1_655
O19 Sr1 2.966047 1_555
O20 V2 2.128204 1_555
O20 V1 2.128204 1_554
O20 Sr1 2.914979 1_655
O20 Sr1 2.914979 1_545
O21 V2 2.078660 1_455
O21 V1 2.078660 1_454
O21 Sr1 2.939469 1_545
O21 Sr1 2.966047 1_555
