# generated using pymatgen
data_Ta12Ga3(TeSe2)8
_symmetry_space_group_name_H-M   'P 1'
_cell_length_a   7.62784200
_cell_length_b   7.71515231
_cell_length_c   18.78829990
_cell_angle_alpha   90.62298632
_cell_angle_beta   89.99075683
_cell_angle_gamma   119.56678307
_symmetry_Int_Tables_number   1
_chemical_formula_structural   Ta12Ga3(TeSe2)8
_chemical_formula_sum   'Ta12 Ga3 Te8 Se16'
_cell_volume   961.63490384
_cell_formula_units_Z   1
loop_
 _symmetry_equiv_pos_site_id
 _symmetry_equiv_pos_as_xyz
  1  'x, y, z'
loop_
 _atom_site_type_symbol
 _atom_site_label
 _atom_site_symmetry_multiplicity
 _atom_site_fract_x
 _atom_site_fract_y
 _atom_site_fract_z
 _atom_site_occupancy
  Ta  Ta0  1  0.20857400  0.79824100  0.19701400  1
  Ta  Ta1  1  0.54412300  0.47117200  0.86697900  1
  Ta  Ta2  1  0.87380300  0.13121300  0.53207300  1
  Ta  Ta3  1  0.59327400  0.80571700  0.19828800  1
  Ta  Ta4  1  0.92626400  0.47204000  0.86639100  1
  Ta  Ta5  1  0.25907400  0.13867000  0.53253300  1
  Ta  Ta6  1  0.34042300  0.68146200  0.06593900  1
  Ta  Ta7  1  0.66903700  0.34537100  0.73709000  1
  Ta  Ta8  1  0.00149400  0.01186400  0.40148700  1
  Ta  Ta9  1  0.19110400  0.39693900  0.20251300  1
  Ta  Ta10  1  0.52804600  0.05903600  0.87221200  1
  Ta  Ta11  1  0.85652100  0.72924000  0.53719300  1
  Ga  Ga0  1  0.68106200  0.32781900  0.33008700  1
  Ga  Ga1  1  0.99039700  0.98355000  0.99359600  1
  Ga  Ga2  1  0.34853200  0.66152800  0.66400300  1
  Te  Te0  1  0.97183900  0.48291300  0.62218800  1
  Te  Te1  1  0.30476300  0.14918700  0.28719800  1
  Te  Te2  1  0.33380300  0.66384600  0.80329500  1
  Te  Te3  1  0.66623400  0.33025700  0.46933100  1
  Te  Te4  1  0.99766600  0.99572200  0.13384400  1
  Te  Te5  1  0.18011500  0.36074500  0.95412500  1
  Te  Te6  1  0.51560500  0.03117300  0.62180600  1
  Te  Te7  1  0.84966600  0.69695900  0.28681200  1
  Se  Se0  1  0.49793000  0.49073400  0.12405000  1
  Se  Se1  1  0.83183100  0.15619200  0.79241500  1
  Se  Se2  1  0.16268600  0.82330400  0.45832700  1
  Se  Se3  1  0.98642200  0.48927900  0.12019500  1
  Se  Se4  1  0.31860400  0.15493100  0.79329100  1
  Se  Se5  1  0.64807900  0.82026800  0.45593200  1
  Se  Se6  1  0.33260800  0.66445900  0.29900200  1
  Se  Se7  1  0.66617000  0.33126200  0.96717800  1
  Se  Se8  1  0.99948300  0.99762400  0.63343900  1
  Se  Se9  1  0.51550800  0.03082500  0.12065900  1
  Se  Se10  1  0.84777700  0.69873700  0.78932200  1
  Se  Se11  1  0.17970900  0.36280400  0.45507400  1
  Se  Se12  1  0.18072400  0.81383900  0.95364400  1
  Se  Se13  1  0.51782600  0.48006300  0.62112900  1
  Se  Se14  1  0.85149300  0.14753100  0.28658800  1
  Se  Se15  1  0.63173200  0.81348600  0.95375600  1
loop_
_geom_bond_atom_site_label_1
_geom_bond_atom_site_label_2
_geom_bond_distance
_geom_bond_site_symmetry_2
Ta0 Te1 2.946278 1_565
Ta0 Te4 2.962602 1_455
Ta0 Te7 2.977927 1_455
Ta1 Te2 2.933919 1_555
Ta1 Te5 2.968252 1_555
Ta2 Te0 2.947287 1_555
Ta2 Te3 2.948585 1_555
Ta2 Te6 2.974738 1_555
Ta3 Te4 2.950397 1_555
Ta3 Te7 2.990995 1_555
Ta4 Te2 2.959048 1_655
Ta4 Te5 2.979338 1_655
Ta5 Te3 2.957558 1_555
Ta5 Te6 2.993824 1_555
Ta6 Te5 2.988807 1_554
Ta7 Te0 2.958168 1_555
Ta7 Te6 3.004042 1_555
Ta8 Te1 2.951921 1_555
Ta8 Te7 2.999365 1_445
Ta9 Te1 2.939187 1_555
Ta9 Te4 2.971504 1_445
Ta10 Te2 2.936761 1_545
Ta11 Te0 2.941391 1_555
Ta11 Te3 2.951911 1_555
Ga0 Se14 2.460121 1_555
Ga0 Te3 2.618848 1_555
Ga0 Te1 2.619213 1_555
Ga0 Te7 2.619424 1_555
Ga1 Se15 2.490671 1_555
Ga1 Se12 2.497944 1_655
Ga1 Te4 2.635291 1_556
Ga1 Te5 2.646406 1_665
Ga2 Se13 2.456803 1_555
Ga2 Te0 2.615709 1_455
Ga2 Te6 2.616851 1_565
Ga2 Te2 2.619698 1_555
Se0 Ta9 2.554435 1_555
Se0 Ta3 2.561726 1_555
Se0 Ta6 2.565320 1_555
Se1 Ta10 2.547218 1_555
Se1 Ta7 2.564132 1_555
Se1 Ta4 2.565761 1_555
Se2 Ta11 2.554594 1_455
Se2 Ta5 2.562320 1_565
Se2 Ta8 2.562820 1_565
Se3 Ta9 2.541571 1_655
Se3 Ta0 2.564426 1_655
Se3 Ta6 2.570954 1_655
Se4 Ta10 2.547432 1_555
Se4 Ta7 2.564342 1_555
Se4 Ta1 2.571790 1_555
Se5 Ta11 2.545241 1_555
Se5 Ta8 2.568683 1_665
Se5 Ta2 2.572164 1_565
Se6 Ta9 2.536172 1_555
Se6 Ta3 2.574271 1_555
Se6 Ta0 2.576725 1_555
Se7 Ta10 2.537726 1_555
Se7 Ta1 2.571453 1_555
Se7 Ta4 2.572645 1_555
Se8 Ta11 2.537213 1_555
Se8 Ta5 2.572250 1_665
Se8 Ta2 2.574251 1_565
Se9 Ta6 2.548215 1_545
Se9 Ta3 2.562708 1_545
Se9 Ta0 2.582295 1_545
Se10 Ta7 2.555094 1_555
Se10 Ta4 2.569599 1_555
Se10 Ta1 2.572465 1_555
Se11 Ta8 2.549766 1_555
Se11 Ta5 2.561796 1_555
Se11 Ta2 2.582784 1_455
Se12 Ta10 2.837948 1_565
Se12 Ta6 2.872951 1_556
Se12 Ta4 2.874810 1_455
Se13 Ta11 2.832037 1_555
Se13 Ta5 2.894676 1_555
Se13 Ta7 2.896536 1_555
Se14 Ta9 2.837964 1_655
Se14 Ta8 2.880412 1_655
Se14 Ta3 2.892439 1_545
Se15 Ta10 2.846735 1_565
Se15 Ta6 2.868641 1_556
Se15 Ta1 2.871350 1_555
