# generated using pymatgen
data_Sn7Ir2Os
_symmetry_space_group_name_H-M   'P 1'
_cell_length_a   9.49206720
_cell_length_b   8.23145001
_cell_length_c   8.22687191
_cell_angle_alpha   70.44224911
_cell_angle_beta   54.80145073
_cell_angle_gamma   54.75630016
_symmetry_Int_Tables_number   1
_chemical_formula_structural   Sn7Ir2Os
_chemical_formula_sum   'Sn14 Ir4 Os2'
_cell_volume   428.98461076
_cell_formula_units_Z   2
loop_
 _symmetry_equiv_pos_site_id
 _symmetry_equiv_pos_as_xyz
  1  'x, y, z'
loop_
 _atom_site_type_symbol
 _atom_site_label
 _atom_site_symmetry_multiplicity
 _atom_site_fract_x
 _atom_site_fract_y
 _atom_site_fract_z
 _atom_site_occupancy
  Sn  Sn0  1  0.67437600  0.32562400  0.99790500  1
  Sn  Sn1  1  0.00009600  0.99990400  0.32774800  1
  Sn  Sn2  1  0.32571500  0.00205200  0.67229700  1
  Sn  Sn3  1  0.99794800  0.67428500  0.00006400  1
  Sn  Sn4  1  0.32774800  0.67225200  0.00009600  1
  Sn  Sn5  1  0.99790500  0.00209500  0.67437600  1
  Sn  Sn6  1  0.67229700  0.99993600  0.32571500  1
  Sn  Sn7  1  0.00006400  0.32770300  0.99794800  1
  Sn  Sn8  1  0.24920600  0.49810600  0.50189400  1
  Sn  Sn9  1  0.50173900  0.24918600  0.75081400  1
  Sn  Sn10  1  0.75203300  0.74796700  0.75203300  1
  Sn  Sn11  1  0.50189400  0.75079400  0.24920600  1
  Sn  Sn12  1  0.75081400  0.49826100  0.50173900  1
  Sn  Sn13  1  0.25203300  0.24796700  0.25203300  1
  Ir  Ir0  1  0.65613600  0.34386400  0.34347900  1
  Ir  Ir1  1  0.34158600  0.00012300  0.99987700  1
  Ir  Ir2  1  0.99987700  0.65841400  0.34158600  1
  Ir  Ir3  1  0.34347900  0.65652100  0.65613600  1
  Os  Os0  1  0.65528400  0.00023100  0.99976900  1
  Os  Os1  1  0.99976900  0.34471600  0.65528400  1
loop_
_geom_bond_atom_site_label_1
_geom_bond_atom_site_label_2
_geom_bond_distance
_geom_bond_site_symmetry_2
Sn0 Sn4 2.845765 1_556
Sn0 Sn5 3.080800 1_555
Sn0 Sn6 3.101563 1_546
Sn0 Sn7 3.101563 1_655
Sn1 Sn5 2.845765 1_465
Sn1 Sn4 3.120061 1_555
Sn1 Sn7 3.121009 1_564
Sn1 Sn6 3.121009 1_455
Sn2 Sn6 2.847157 1_545
Sn2 Sn7 3.101006 1_555
Sn2 Sn5 3.101563 1_455
Sn2 Sn4 3.121009 1_546
Sn3 Sn7 2.847157 1_654
Sn3 Sn6 3.101006 1_555
Sn3 Sn5 3.101563 1_564
Sn3 Sn4 3.121009 1_655
Ir0 Sn1 2.789669 1_645
Ir0 Sn7 2.794556 1_654
Ir0 Sn6 2.794556 1_545
Ir0 Sn0 2.797046 1_554
Ir0 Sn8 2.806216 1_555
Ir0 Sn11 2.806216 1_555
Ir0 Sn12 2.809438 1_555
Ir0 Sn9 2.809438 1_555
Ir0 Ir3 2.977271 1_555
Ir1 Sn4 2.776089 1_546
Ir1 Sn1 2.776089 1_546
Ir1 Sn2 2.778916 1_555
Ir1 Sn7 2.778916 1_555
Ir1 Sn9 2.811769 1_555
Ir1 Sn11 2.812549 1_546
Ir1 Sn10 2.826159 1_545
Ir1 Sn13 2.826159 1_556
Ir1 Os0 2.977644 1_555
Ir2 Sn1 2.776089 1_655
Ir2 Sn4 2.776089 1_655
Ir2 Sn3 2.778916 1_555
Ir2 Sn6 2.778916 1_555
Ir2 Sn12 2.811769 1_555
Ir2 Sn8 2.812549 1_655
Ir2 Sn13 2.826159 1_655
Ir2 Sn10 2.826159 1_555
Ir2 Os1 2.977644 1_555
Ir3 Sn4 2.789669 1_556
Ir3 Sn2 2.794556 1_565
Ir3 Sn3 2.794556 1_456
Ir3 Sn5 2.797046 1_465
Ir3 Sn11 2.806216 1_555
Ir3 Sn8 2.806216 1_555
Ir3 Sn12 2.809438 1_555
Ir3 Sn9 2.809438 1_555
Os0 Sn9 2.775366 1_555
Os0 Sn3 2.776871 1_546
Os0 Sn6 2.776871 1_546
Os0 Sn11 2.780565 1_546
Os0 Sn5 2.781493 1_555
Os0 Sn0 2.781493 1_555
Os0 Sn10 2.789970 1_545
Os0 Sn13 2.789970 1_556
Os1 Sn12 2.775366 1_555
Os1 Sn2 2.776871 1_655
Os1 Sn7 2.776871 1_655
Os1 Sn8 2.780565 1_655
Os1 Sn5 2.781493 1_555
Os1 Sn0 2.781493 1_555
Os1 Sn13 2.789970 1_655
Os1 Sn10 2.789970 1_555
