# generated using pymatgen
data_Tb3AlC
_symmetry_space_group_name_H-M   'P 1'
_cell_length_a   5.37410700
_cell_length_b   5.37410700
_cell_length_c   5.37410700
_cell_angle_alpha   90.00000000
_cell_angle_beta   90.00000000
_cell_angle_gamma   90.00000000
_symmetry_Int_Tables_number   1
_chemical_formula_structural   Tb3AlC
_chemical_formula_sum   'Tb3 Al1 C1'
_cell_volume   155.20972425
_cell_formula_units_Z   1
loop_
 _symmetry_equiv_pos_site_id
 _symmetry_equiv_pos_as_xyz
  1  'x, y, z'
loop_
 _atom_site_type_symbol
 _atom_site_label
 _atom_site_symmetry_multiplicity
 _atom_site_fract_x
 _atom_site_fract_y
 _atom_site_fract_z
 _atom_site_occupancy
  Tb  Tb0  1  0.00000000  0.50000000  0.50000000  1
  Tb  Tb1  1  0.50000000  0.50000000  0.00000000  1
  Tb  Tb2  1  0.50000000  0.00000000  0.50000000  1
  Al  Al0  1  0.50000000  0.50000000  0.50000000  1
  C  C0  1  0.00000000  0.00000000  0.00000000  1
loop_
_geom_bond_atom_site_label_1
_geom_bond_atom_site_label_2
_geom_bond_distance
_geom_bond_site_symmetry_2
Al0 Tb0 2.687054 1_555
Al0 Tb2 2.687054 1_565
Al0 Tb1 2.687054 1_555
Al0 Tb1 2.687054 1_556
Al0 Tb0 2.687054 1_655
Al0 Tb2 2.687054 1_555
