# generated using pymatgen
data_Yb2Ge6Pt
_symmetry_space_group_name_H-M   'P 1'
_cell_length_a   3.90768000
_cell_length_b   4.28515600
_cell_length_c   11.40477114
_cell_angle_alpha   90.00000000
_cell_angle_beta   99.86444603
_cell_angle_gamma   90.00000000
_symmetry_Int_Tables_number   1
_chemical_formula_structural   Yb2Ge6Pt
_chemical_formula_sum   'Yb2 Ge6 Pt1'
_cell_volume   188.14972267
_cell_formula_units_Z   1
loop_
 _symmetry_equiv_pos_site_id
 _symmetry_equiv_pos_as_xyz
  1  'x, y, z'
loop_
 _atom_site_type_symbol
 _atom_site_label
 _atom_site_symmetry_multiplicity
 _atom_site_fract_x
 _atom_site_fract_y
 _atom_site_fract_z
 _atom_site_occupancy
  Yb  Yb0  1  0.00042100  0.00000000  0.00084200  1
  Yb  Yb1  1  0.33349500  0.00000000  0.66699000  1
  Ge  Ge0  1  0.71707600  0.00000000  0.43415200  1
  Ge  Ge1  1  0.60660900  0.00000000  0.21321800  1
  Ge  Ge2  1  0.45568300  0.50000000  0.91136600  1
  Ge  Ge3  1  0.88866500  0.50000000  0.77733000  1
  Ge  Ge4  1  0.09968300  0.50000000  0.19936600  1
  Ge  Ge5  1  0.21006300  0.50000000  0.42012600  1
  Pt  Pt0  1  0.78030500  0.50000000  0.56061000  1
loop_
_geom_bond_atom_site_label_1
_geom_bond_atom_site_label_2
_geom_bond_distance
_geom_bond_site_symmetry_2
Ge0 Ge1 2.482450 1_555
Ge0 Pt0 2.570915 1_555
Ge0 Pt0 2.570915 1_545
Ge0 Ge5 2.903957 1_645
Ge0 Ge5 2.903957 1_655
Ge0 Ge5 2.903957 1_555
Ge0 Ge5 2.903957 1_545
Ge0 Yb1 3.265275 1_555
Ge0 Yb1 3.265275 1_655
Ge1 Ge4 2.903852 1_645
Ge1 Ge4 2.903852 1_545
Ge1 Ge4 2.903852 1_555
Ge1 Ge4 2.903852 1_655
Ge1 Yb0 3.084133 1_555
Ge1 Yb0 3.084133 1_655
Ge2 Ge3 2.466917 1_455
Ge2 Ge3 2.466917 1_555
Ge2 Yb0 3.069022 1_656
Ge2 Yb0 3.069022 1_666
Ge2 Yb0 3.069022 1_556
Ge2 Yb0 3.069022 1_566
Ge2 Yb1 3.482861 1_565
Ge2 Yb1 3.482861 1_555
Ge3 Pt0 2.435101 1_555
Ge3 Yb1 3.153606 1_655
Ge3 Yb1 3.153606 1_555
Ge3 Yb1 3.153606 1_665
Ge3 Yb1 3.153606 1_565
Ge3 Yb0 3.301190 1_656
Ge3 Yb0 3.301190 1_666
Ge4 Ge5 2.480495 1_555
Ge4 Yb0 3.092964 1_565
Ge4 Yb0 3.092964 1_555
Ge5 Pt0 2.511803 1_455
Ge5 Pt0 2.511803 1_555
Ge5 Yb1 3.504943 1_565
Ge5 Yb1 3.504943 1_555
Pt0 Yb1 3.136380 1_565
Pt0 Yb1 3.136380 1_555
Pt0 Yb1 3.136380 1_655
Pt0 Yb1 3.136380 1_665
