# generated using pymatgen
data_Zn(FeS2)4
_symmetry_space_group_name_H-M   'P 1'
_cell_length_a   6.76556216
_cell_length_b   6.76556216
_cell_length_c   6.76556225
_cell_angle_alpha   60.29536223
_cell_angle_beta   60.29536223
_cell_angle_gamma   60.29536404
_symmetry_Int_Tables_number   1
_chemical_formula_structural   Zn(FeS2)4
_chemical_formula_sum   'Zn1 Fe4 S8'
_cell_volume   220.43972082
_cell_formula_units_Z   1
loop_
 _symmetry_equiv_pos_site_id
 _symmetry_equiv_pos_as_xyz
  1  'x, y, z'
loop_
 _atom_site_type_symbol
 _atom_site_label
 _atom_site_symmetry_multiplicity
 _atom_site_fract_x
 _atom_site_fract_y
 _atom_site_fract_z
 _atom_site_occupancy
  Zn  Zn0  1  0.00000000  0.00000000  0.00000000  1
  Fe  Fe0  1  0.50000000  0.50000000  0.50000000  1
  Fe  Fe1  1  0.50000000  0.50000000  0.00000000  1
  Fe  Fe2  1  0.50000000  0.00000000  0.50000000  1
  Fe  Fe3  1  0.00000000  0.50000000  0.50000000  1
  S  S0  1  0.74295500  0.27918700  0.74295500  1
  S  S1  1  0.74295500  0.74295500  0.27918700  1
  S  S2  1  0.27918700  0.74295500  0.74295500  1
  S  S3  1  0.74037900  0.74037900  0.74037900  1
  S  S4  1  0.25962100  0.25962100  0.25962100  1
  S  S5  1  0.25704500  0.25704500  0.72081300  1
  S  S6  1  0.72081300  0.25704500  0.25704500  1
  S  S7  1  0.25704500  0.72081300  0.25704500  1
loop_
_geom_bond_atom_site_label_1
_geom_bond_atom_site_label_2
_geom_bond_distance
_geom_bond_site_symmetry_2
Fe0 S5 2.333640 1_555
Fe0 S1 2.333640 1_555
Fe0 S6 2.333640 1_555
Fe0 S7 2.333640 1_555
Fe0 S2 2.333640 1_555
Fe0 S0 2.333640 1_555
Fe1 S2 2.294804 1_554
Fe1 S0 2.294804 1_554
Fe1 S6 2.294804 1_555
Fe1 S7 2.294804 1_555
Fe1 S3 2.309563 1_554
Fe1 S4 2.309563 1_555
Fe2 S2 2.294804 1_545
Fe2 S6 2.294804 1_555
Fe2 S1 2.294804 1_545
Fe2 S5 2.294804 1_555
Fe2 S3 2.309563 1_545
Fe2 S4 2.309563 1_555
Fe3 S0 2.294804 1_455
Fe3 S7 2.294804 1_555
Fe3 S1 2.294804 1_455
Fe3 S5 2.294804 1_555
Fe3 S3 2.309563 1_455
Fe3 S4 2.309563 1_555
S0 Zn0 2.470377 1_656
S1 Zn0 2.470377 1_665
S2 Zn0 2.470377 1_566
S5 Zn0 2.470377 1_556
S6 Zn0 2.470377 1_655
S7 Zn0 2.470377 1_565
