# generated using pymatgen
data_UNbC2
_symmetry_space_group_name_H-M   'P 1'
_cell_length_a   5.89806149
_cell_length_b   5.89806149
_cell_length_c   5.89806285
_cell_angle_alpha   32.24780064
_cell_angle_beta   32.24780064
_cell_angle_gamma   32.24778985
_symmetry_Int_Tables_number   1
_chemical_formula_structural   UNbC2
_chemical_formula_sum   'U1 Nb1 C2'
_cell_volume   51.92240078
_cell_formula_units_Z   1
loop_
 _symmetry_equiv_pos_site_id
 _symmetry_equiv_pos_as_xyz
  1  'x, y, z'
loop_
 _atom_site_type_symbol
 _atom_site_label
 _atom_site_symmetry_multiplicity
 _atom_site_fract_x
 _atom_site_fract_y
 _atom_site_fract_z
 _atom_site_occupancy
  U  U0  1  -0.00000000  -0.00000000  0.00000000  1
  Nb  Nb0  1  0.50000000  0.50000000  0.50000000  1
  C  C0  1  0.24382350  0.24382350  0.24382350  1
  C  C1  1  0.75617650  0.75617650  0.75617650  1
loop_
_geom_bond_atom_site_label_1
_geom_bond_atom_site_label_2
_geom_bond_distance
_geom_bond_site_symmetry_2
C0 Nb0 2.291177 1_455
C0 Nb0 2.291177 1_545
C0 Nb0 2.291178 1_554
C0 U0 2.414082 1_655
C0 U0 2.414082 1_565
C0 U0 2.414084 1_556
C1 Nb0 2.291177 1_655
C1 Nb0 2.291177 1_565
C1 Nb0 2.291178 1_556
C1 U0 2.414082 1_566
C1 U0 2.414082 1_656
C1 U0 2.414084 1_665
