# generated using pymatgen
data_Li4Fe3Cu(PO4)4
_symmetry_space_group_name_H-M   'P 1'
_cell_length_a   6.09773300
_cell_length_b   4.75713500
_cell_length_c   10.33610631
_cell_angle_alpha   88.87389076
_cell_angle_beta   90.00000000
_cell_angle_gamma   90.00000000
_symmetry_Int_Tables_number   1
_chemical_formula_structural   Li4Fe3Cu(PO4)4
_chemical_formula_sum   'Li4 Fe3 Cu1 P4 O16'
_cell_volume   299.76916645
_cell_formula_units_Z   1
loop_
 _symmetry_equiv_pos_site_id
 _symmetry_equiv_pos_as_xyz
  1  'x, y, z'
loop_
 _atom_site_type_symbol
 _atom_site_label
 _atom_site_symmetry_multiplicity
 _atom_site_fract_x
 _atom_site_fract_y
 _atom_site_fract_z
 _atom_site_occupancy
  Li  Li0  1  0.25009600  0.99675500  0.00379500  1
  Li  Li1  1  0.74990400  0.99675500  0.00379500  1
  Li  Li2  1  0.74852700  0.50067000  0.49791400  1
  Li  Li3  1  0.25147300  0.50067000  0.49791400  1
  Fe  Fe0  1  0.00000000  0.47370900  0.78198500  1
  Fe  Fe1  1  0.50000000  0.51915700  0.21986700  1
  Fe  Fe2  1  0.50000000  0.97295200  0.71908400  1
  Cu  Cu0  1  0.00000000  0.04857300  0.28601900  1
  P  P0  1  0.50000000  0.07869500  0.40634000  1
  P  P1  1  0.50000000  0.41346400  0.90537400  1
  P  P2  1  0.00000000  0.58340400  0.09905000  1
  P  P3  1  0.00000000  0.92358400  0.59083000  1
  O  O0  1  0.50000000  0.20536300  0.54373500  1
  O  O1  1  0.29980800  0.21649000  0.33302900  1
  O  O2  1  0.70019200  0.21649000  0.33302900  1
  O  O3  1  0.00000000  0.24598200  0.59433700  1
  O  O4  1  0.00000000  0.25589200  0.10714000  1
  O  O5  1  0.29744700  0.28270400  0.83402300  1
  O  O6  1  0.70255300  0.28270400  0.83402300  1
  O  O7  1  0.50000000  0.28600800  0.04414600  1
  O  O8  1  0.00000000  0.69796000  0.95664700  1
  O  O9  1  0.79434800  0.71401000  0.16436200  1
  O  O10  1  0.20565200  0.71401000  0.16436200  1
  O  O11  1  0.50000000  0.73717000  0.90216900  1
  O  O12  1  0.50000000  0.75732600  0.40620100  1
  O  O13  1  0.79793200  0.78439000  0.66075700  1
  O  O14  1  0.20206800  0.78439000  0.66075700  1
  O  O15  1  0.00000000  0.81072000  0.44931600  1
loop_
_geom_bond_atom_site_label_1
_geom_bond_atom_site_label_2
_geom_bond_distance
_geom_bond_site_symmetry_2
Li0 O7 2.100485 1_565
Li0 O10 2.132903 1_555
Li0 O8 2.147277 1_554
Li0 O5 2.217929 1_564
Li0 O11 2.236382 1_554
Li0 O4 2.244578 1_565
Li1 O7 2.100485 1_565
Li1 O9 2.132903 1_555
Li1 O8 2.147277 1_654
Li1 O6 2.217929 1_564
Li1 O11 2.236382 1_554
Li1 O4 2.244578 1_665
Li2 O0 2.113824 1_555
Li2 O12 2.154166 1_555
Li2 O15 2.179458 1_655
Li2 O3 2.182917 1_655
Li2 O13 2.198809 1_555
Li2 O2 2.215750 1_555
Li3 O0 2.113824 1_555
Li3 O12 2.154166 1_555
Li3 O15 2.179458 1_555
Li3 O3 2.182917 1_555
Li3 O14 2.198809 1_555
Li3 O1 2.215750 1_555
Fe0 O6 2.094138 1_455
Fe0 O5 2.094138 1_555
Fe0 O8 2.114934 1_555
Fe0 O3 2.240099 1_555
Fe0 O14 2.280314 1_555
Fe0 O13 2.280314 1_455
Fe1 O10 2.094985 1_555
Fe1 O9 2.094985 1_555
Fe1 O7 2.146665 1_555
Fe1 O1 2.205709 1_555
Fe1 O2 2.205709 1_555
Fe1 O12 2.253623 1_555
Fe2 O0 2.104400 1_565
Fe2 O13 2.118911 1_555
Fe2 O14 2.118911 1_555
Fe2 O11 2.180776 1_555
Fe2 O6 2.275304 1_565
Fe2 O5 2.275304 1_565
Cu0 O15 2.013474 1_545
Cu0 O2 2.057079 1_455
Cu0 O1 2.057079 1_555
Cu0 O4 2.078336 1_555
Cu0 O9 2.401141 1_445
Cu0 O10 2.401141 1_545
O0 P0 1.553545 1_555
O1 P0 1.573056 1_555
O2 P0 1.573056 1_555
O3 P3 1.534831 1_545
O4 P2 1.558619 1_555
O5 P1 1.573013 1_555
O6 P1 1.573013 1_555
O7 P1 1.546234 1_554
O8 P2 1.559461 1_556
O9 P2 1.559095 1_655
O10 P2 1.559095 1_555
O11 P1 1.539618 1_555
O12 P0 1.528825 1_565
O13 P3 1.568522 1_655
O14 P3 1.568522 1_555
O15 P3 1.568006 1_555
