# generated using pymatgen
data_YbN7O15
_symmetry_space_group_name_H-M   'P 1'
_cell_length_a   11.55216667
_cell_length_b   11.55216667
_cell_length_c   9.69712800
_cell_angle_alpha   90.00000000
_cell_angle_beta   90.00000000
_cell_angle_gamma   120.00000385
_symmetry_Int_Tables_number   1
_chemical_formula_structural   YbN7O15
_chemical_formula_sum   'Yb3 N21 O45'
_cell_volume   1120.72906585
_cell_formula_units_Z   3
loop_
 _symmetry_equiv_pos_site_id
 _symmetry_equiv_pos_as_xyz
  1  'x, y, z'
loop_
 _atom_site_type_symbol
 _atom_site_label
 _atom_site_symmetry_multiplicity
 _atom_site_fract_x
 _atom_site_fract_y
 _atom_site_fract_z
 _atom_site_occupancy
  Yb  Yb0  1  0.66525800  0.66653800  0.91887100  1
  Yb  Yb1  1  0.00128000  0.33474200  0.58553700  1
  Yb  Yb2  1  0.33346200  0.99872000  0.25220400  1
  N  N0  1  0.89784000  0.25942000  0.88336800  1
  N  N1  1  0.36158000  0.10216000  0.55003400  1
  N  N2  1  0.74058000  0.63842000  0.21670100  1
  N  N3  1  0.91704500  0.91794600  0.92407100  1
  N  N4  1  0.00090100  0.08295500  0.59073800  1
  N  N5  1  0.08205400  0.99909900  0.25740500  1
  N  N6  1  0.74825100  0.33155100  0.52782400  1
  N  N7  1  0.58329900  0.25174900  0.19449100  1
  N  N8  1  0.66844900  0.41670100  0.86115800  1
  N  N9  1  0.54673700  0.99863900  0.75930600  1
  N  N10  1  0.45190200  0.45326300  0.42597300  1
  N  N11  1  0.00136100  0.54809800  0.09263900  1
  N  N12  1  0.41620600  0.66823600  0.98600600  1
  N  N13  1  0.25202900  0.58379400  0.65267300  1
  N  N14  1  0.33176400  0.74797100  0.31934000  1
  N  N15  1  0.63843800  0.73861100  0.63078400  1
  N  N16  1  0.10017400  0.36156200  0.29745000  1
  N  N17  1  0.26138900  0.89982600  0.96411700  1
  N  N18  1  0.27056800  0.27429800  0.92559400  1
  N  N19  1  0.00373100  0.72943200  0.59226100  1
  N  N20  1  0.72570200  0.99626900  0.25892700  1
  O  O0  1  0.66392500  0.82109800  0.72894100  1
  O  O1  1  0.15717300  0.33607500  0.39560800  1
  O  O2  1  0.17890200  0.84282700  0.06227500  1
  O  O3  1  0.62749800  0.76705100  0.51030000  1
  O  O4  1  0.13955300  0.37250200  0.17696600  1
  O  O5  1  0.23294900  0.86044700  0.84363300  1
  O  O6  1  0.42313700  0.56695400  0.94694800  1
  O  O7  1  0.14381700  0.57686300  0.61361400  1
  O  O8  1  0.43304600  0.85618300  0.28028100  1
  O  O9  1  0.00131700  0.37573900  0.33007400  1
  O  O10  1  0.37442200  0.99868300  0.99674000  1
  O  O11  1  0.62426100  0.62557800  0.66340700  1
  O  O12  1  0.52525700  0.77655400  0.00113800  1
  O  O13  1  0.25129700  0.47474300  0.66780500  1
  O  O14  1  0.22344600  0.74870300  0.33447200  1
  O  O15  1  0.91469400  0.09592400  0.52189700  1
  O  O16  1  0.18123000  0.08530600  0.18856400  1
  O  O17  1  0.90407600  0.81877000  0.85523000  1
  O  O18  1  0.85872000  0.23256900  0.00427200  1
  O  O19  1  0.37384900  0.14128000  0.67093900  1
  O  O20  1  0.76743100  0.62615100  0.33760600  1
  O  O21  1  0.83965800  0.17619700  0.78681600  1
  O  O22  1  0.33653900  0.16034200  0.45348300  1
  O  O23  1  0.82380300  0.66346100  0.12015000  1
  O  O24  1  0.35404600  0.69308900  0.67418300  1
  O  O25  1  0.33904300  0.64595400  0.34085000  1
  O  O26  1  0.30691100  0.66095700  0.00751700  1
  O  O27  1  0.85550900  0.43219700  0.56987800  1
  O  O28  1  0.57668700  0.14449100  0.23654500  1
  O  O29  1  0.56780300  0.42331300  0.90321200  1
  O  O30  1  0.97378500  0.99714100  0.25697400  1
  O  O31  1  0.02335500  0.02621500  0.92364100  1
  O  O32  1  0.00285900  0.97664500  0.59030800  1
  O  O33  1  0.99696200  0.37104000  0.85022900  1
  O  O34  1  0.37407800  0.00303800  0.51689500  1
  O  O35  1  0.62896000  0.62592200  0.18356200  1
  O  O36  1  0.66103000  0.30746200  0.83843200  1
  O  O37  1  0.64643200  0.33897000  0.50509900  1
  O  O38  1  0.69253800  0.35356800  0.17176500  1
  O  O39  1  0.81702800  0.90232400  0.99335600  1
  O  O40  1  0.08529600  0.18297200  0.66002300  1
  O  O41  1  0.09767600  0.91470400  0.32668900  1
  O  O42  1  0.74977700  0.22378700  0.51085700  1
  O  O43  1  0.47401000  0.25022300  0.17752400  1
  O  O44  1  0.77621300  0.52599000  0.84419100  1
loop_
_geom_bond_atom_site_label_1
_geom_bond_atom_site_label_2
_geom_bond_distance
_geom_bond_site_symmetry_2
N0 O18 1.238887 1_556
N0 O33 1.265161 1_555
N0 O21 1.267472 1_555
N1 O19 1.238896 1_555
N1 O34 1.265161 1_555
N1 O22 1.267465 1_555
N2 O20 1.238896 1_555
N2 O35 1.265161 1_555
N2 O23 1.267465 1_555
N3 O31 1.239588 1_665
N3 O17 1.268486 1_555
N3 O39 1.269030 1_555
N4 O32 1.239582 1_545
N4 O15 1.268486 1_455
N4 O40 1.269030 1_555
N5 O30 1.239594 1_455
N5 O16 1.268486 1_565
N5 O41 1.269025 1_555
N6 O37 1.241062 1_555
N6 O42 1.264564 1_555
N6 O27 1.269949 1_555
N7 O38 1.241069 1_555
N7 O43 1.264553 1_555
N7 O28 1.269949 1_555
N8 O36 1.241075 1_555
N8 O44 1.264558 1_555
N8 O29 1.269949 1_555
N12 O26 1.240386 1_556
N12 O12 1.264108 1_556
N12 O6 1.269845 1_555
N13 O24 1.240389 1_555
N13 O13 1.264114 1_555
N13 O7 1.269837 1_555
N14 O25 1.240396 1_555
N14 O14 1.264103 1_555
N14 O8 1.269842 1_555
N15 O3 1.237123 1_555
N15 O11 1.272044 1_555
N15 O0 1.272852 1_555
N16 O4 1.237119 1_555
N16 O9 1.272058 1_555
N16 O1 1.272852 1_555
N17 O5 1.237120 1_555
N17 O10 1.272049 1_555
N17 O2 1.272858 1_556
O0 Yb0 2.570582 1_555
O1 Yb1 2.570575 1_555
O2 Yb2 2.570575 1_555
O6 Yb0 2.450139 1_555
O7 Yb1 2.450139 1_555
O8 Yb2 2.450139 1_555
O9 Yb1 2.522083 1_555
O10 Yb2 2.522093 1_556
O11 Yb0 2.522093 1_555
O12 Yb0 2.631130 1_554
O13 Yb1 2.631133 1_555
O14 Yb2 2.631133 1_555
O15 Yb1 2.496622 1_655
O16 Yb2 2.496622 1_545
O17 Yb0 2.496624 1_555
O21 Yb1 2.688965 1_655
O22 Yb2 2.688965 1_545
O23 Yb0 2.688965 1_554
O27 Yb1 2.454001 1_655
O28 Yb2 2.453991 1_545
O29 Yb0 2.453990 1_555
O33 Yb1 2.605274 1_655
O34 Yb2 2.605264 1_545
O35 Yb0 2.605264 1_554
O39 Yb0 2.497866 1_555
O40 Yb1 2.497869 1_555
O41 Yb2 2.497866 1_555
O42 Yb1 2.623869 1_655
O43 Yb2 2.623869 1_545
O44 Yb0 2.623869 1_555
