# generated using pymatgen
data_NaLaGdSbO6
_symmetry_space_group_name_H-M   'P 1'
_cell_length_a   5.92814752
_cell_length_b   5.92814752
_cell_length_c   5.92814752
_cell_angle_alpha   60.00000000
_cell_angle_beta   60.00000000
_cell_angle_gamma   60.00000000
_symmetry_Int_Tables_number   1
_chemical_formula_structural   NaLaGdSbO6
_chemical_formula_sum   'Na1 La1 Gd1 Sb1 O6'
_cell_volume   147.31331715
_cell_formula_units_Z   1
loop_
 _symmetry_equiv_pos_site_id
 _symmetry_equiv_pos_as_xyz
  1  'x, y, z'
loop_
 _atom_site_type_symbol
 _atom_site_label
 _atom_site_symmetry_multiplicity
 _atom_site_fract_x
 _atom_site_fract_y
 _atom_site_fract_z
 _atom_site_occupancy
  Na  Na0  1  0.75000000  0.75000000  0.75000000  1
  La  La0  1  0.25000000  0.25000000  0.25000000  1
  Gd  Gd0  1  0.00000000  -0.00000000  -0.00000000  1
  Sb  Sb0  1  0.50000000  0.50000000  0.50000000  1
  O  O0  1  0.73602882  0.26397118  0.26397118  1
  O  O1  1  0.26397118  0.73602882  0.73602882  1
  O  O2  1  0.73602882  0.26397118  0.73602882  1
  O  O3  1  0.26397118  0.73602882  0.26397118  1
  O  O4  1  0.73602882  0.73602882  0.26397118  1
  O  O5  1  0.26397118  0.26397118  0.73602882  1
loop_
_geom_bond_atom_site_label_1
_geom_bond_atom_site_label_2
_geom_bond_distance
_geom_bond_site_symmetry_2
Na0 O4 2.966387 1_555
Na0 O1 2.966387 1_555
Na0 O2 2.966387 1_555
Na0 O5 2.966387 1_565
Na0 O3 2.966387 1_556
Na0 O0 2.966387 1_556
Na0 O3 2.966387 1_655
Na0 O4 2.966387 1_556
Na0 O0 2.966387 1_565
Na0 O5 2.966387 1_655
Na0 O1 2.966387 1_655
Na0 O2 2.966387 1_565
La0 O3 2.966387 1_545
La0 O5 2.966387 1_554
La0 O0 2.966387 1_455
La0 O4 2.966387 1_545
La0 O1 2.966387 1_545
La0 O4 2.966387 1_455
La0 O2 2.966387 1_455
La0 O1 2.966387 1_554
La0 O2 2.966387 1_554
La0 O0 2.966387 1_555
La0 O5 2.966387 1_555
La0 O3 2.966387 1_555
Gd0 O2 2.213046 1_454
Gd0 O4 2.213046 1_445
Gd0 O1 2.213046 1_544
Gd0 O3 2.213046 1_545
Gd0 O5 2.213046 1_554
Gd0 O0 2.213046 1_455
O0 Sb0 1.978787 1_555
O1 Sb0 1.978787 1_555
O2 Sb0 1.978787 1_555
O3 Sb0 1.978787 1_555
O4 Sb0 1.978787 1_555
O5 Sb0 1.978787 1_555
