# generated using pymatgen
data_CoP2H15N5O8
_symmetry_space_group_name_H-M   'P 1'
_cell_length_a   7.46691376
_cell_length_b   7.46691376
_cell_length_c   13.00694372
_cell_angle_alpha   78.00694587
_cell_angle_beta   78.00694587
_cell_angle_gamma   79.98041562
_symmetry_Int_Tables_number   1
_chemical_formula_structural   CoP2H15N5O8
_chemical_formula_sum   'Co2 P4 H30 N10 O16'
_cell_volume   687.37211787
_cell_formula_units_Z   2
loop_
 _symmetry_equiv_pos_site_id
 _symmetry_equiv_pos_as_xyz
  1  'x, y, z'
loop_
 _atom_site_type_symbol
 _atom_site_label
 _atom_site_symmetry_multiplicity
 _atom_site_fract_x
 _atom_site_fract_y
 _atom_site_fract_z
 _atom_site_occupancy
  Co  Co0  1  0.57024800  0.01833500  0.73805200  1
  Co  Co1  1  0.01833500  0.57024800  0.23805200  1
  P  P0  1  0.08735400  0.55518100  0.85429900  1
  P  P1  1  0.55518100  0.08735400  0.35429900  1
  P  P2  1  0.69066500  0.66593800  0.91571800  1
  P  P3  1  0.66593800  0.69066500  0.41571800  1
  H  H0  1  0.92215000  0.88038600  0.89151800  1
  H  H1  1  0.88038600  0.92215000  0.39151800  1
  H  H2  1  0.48027700  0.90647000  0.57404500  1
  H  H3  1  0.90647000  0.48027700  0.07404500  1
  H  H4  1  0.31763900  0.84399100  0.68414200  1
  H  H5  1  0.84399100  0.31763900  0.18414200  1
  H  H6  1  0.55927000  0.31690700  0.59440100  1
  H  H7  1  0.31690700  0.55927000  0.09440100  1
  H  H8  1  0.66264300  0.34479900  0.68891900  1
  H  H9  1  0.34479900  0.66264300  0.18891900  1
  H  H10  1  0.43474000  0.36230300  0.71062500  1
  H  H11  1  0.36230300  0.43474000  0.21062500  1
  H  H12  1  0.70828400  0.12625900  0.92043100  1
  H  H13  1  0.12625900  0.70828400  0.42043100  1
  H  H14  1  0.15371500  0.32714500  0.64319600  1
  H  H15  1  0.32714500  0.15371500  0.14319600  1
  H  H16  1  0.69705600  0.23014100  0.91323300  1
  H  H17  1  0.23014100  0.69705600  0.41323300  1
  H  H18  1  0.40382400  0.01887800  0.92639600  1
  H  H19  1  0.01887800  0.40382400  0.42639600  1
  H  H20  1  0.25406500  0.99537900  0.85278700  1
  H  H21  1  0.99537900  0.25406500  0.35278700  1
  H  H22  1  0.30888400  0.20340100  0.84783100  1
  H  H23  1  0.20340100  0.30888400  0.34783100  1
  H  H24  1  0.78055500  0.93538400  0.57040900  1
  H  H25  1  0.93538400  0.78055500  0.07040900  1
  H  H26  1  0.86974100  0.09749800  0.60945100  1
  H  H27  1  0.09749800  0.86974100  0.10945100  1
  H  H28  1  0.89019700  0.88126400  0.67472900  1
  H  H29  1  0.88126400  0.89019700  0.17472900  1
  N  N0  1  0.43241500  0.91075900  0.65354900  1
  N  N1  1  0.91075900  0.43241500  0.15354900  1
  N  N2  1  0.55524300  0.28771100  0.67647100  1
  N  N3  1  0.28771200  0.55524300  0.17647100  1
  N  N4  1  0.28321900  0.06271200  0.10523000  1
  N  N5  1  0.06271200  0.28321900  0.60523000  1
  N  N6  1  0.36242500  0.06468300  0.85397300  1
  N  N7  1  0.06468300  0.36242500  0.35397300  1
  N  N8  1  0.80379100  0.98214300  0.63519200  1
  N  N9  1  0.98214300  0.80379100  0.13519200  1
  O  O0  1  0.19751600  0.43241500  0.77823300  1
  O  O1  1  0.43241500  0.19751600  0.27823300  1
  O  O2  1  0.13781000  0.55529600  0.95889400  1
  O  O3  1  0.55529600  0.13781000  0.45889400  1
  O  O4  1  0.08961900  0.76500300  0.77595300  1
  O  O5  1  0.76500300  0.08961900  0.27595300  1
  O  O6  1  0.87288200  0.52313800  0.86989600  1
  O  O7  1  0.52313800  0.87288200  0.36989600  1
  O  O8  1  0.63750300  0.77984800  0.80753400  1
  O  O9  1  0.77984800  0.63750300  0.30753400  1
  O  O10  1  0.55019300  0.54848900  0.97930300  1
  O  O11  1  0.54848900  0.55019300  0.47930300  1
  O  O12  1  0.76324200  0.79449100  0.97074600  1
  O  O13  1  0.79449100  0.76324200  0.47074600  1
  O  O14  1  0.92307500  0.03361500  0.33424200  1
  O  O15  1  0.03361500  0.92307500  0.83424200  1
loop_
_geom_bond_atom_site_label_1
_geom_bond_atom_site_label_2
_geom_bond_distance
_geom_bond_site_symmetry_2
Co0 O8 1.857060 1_545
Co0 N6 1.964394 1_555
Co0 N8 1.980067 1_545
Co0 N2 1.997301 1_555
Co0 N0 2.009285 1_545
Co1 O9 1.857060 1_455
Co1 N7 1.964394 1_555
Co1 N9 1.980067 1_455
Co1 N3 1.997307 1_555
Co1 N1 2.009285 1_455
H0 O15 1.041765 1_655
H0 O12 1.537268 1_555
H1 O14 1.041765 1_565
H1 O13 1.537268 1_555
H2 N0 1.026796 1_555
H3 N1 1.026796 1_555
H4 N0 1.032418 1_555
H5 N1 1.032418 1_555
H6 N2 1.039313 1_555
H7 N3 1.039313 1_555
H8 N2 1.025981 1_555
H9 N3 1.025976 1_555
H10 N2 1.038991 1_555
H11 N3 1.038988 1_555
H12 H16 0.753607 1_555
H13 H17 0.753607 1_555
H14 N5 1.047613 1_555
H15 N4 1.047613 1_555
H18 N6 1.024809 1_555
H19 N7 1.024809 1_555
H20 N6 1.037738 1_565
H21 N7 1.037738 1_655
H22 N6 1.036279 1_555
H23 N7 1.036279 1_555
H24 N8 1.032536 1_555
H25 N9 1.032536 1_555
H26 N8 1.027493 1_545
H27 N9 1.027493 1_455
H28 N8 1.027575 1_555
H29 N9 1.027575 1_555
O0 P0 1.507359 1_555
O1 P1 1.507359 1_555
O2 P0 1.485397 1_555
O3 P1 1.485397 1_555
O4 P0 1.682826 1_555
O5 P1 1.682826 1_555
O6 P0 1.625166 1_655
O6 P2 1.663029 1_555
O7 P1 1.625166 1_565
O7 P3 1.663029 1_555
O8 P2 1.574270 1_555
O9 P3 1.574270 1_555
O10 P2 1.487084 1_555
O11 P3 1.487084 1_555
O12 P2 1.534636 1_555
O13 P3 1.534636 1_555
O14 O5 1.487009 1_555
O15 O4 1.487009 1_555
