# generated using pymatgen
data_YbAlCu
_symmetry_space_group_name_H-M   'P 1'
_cell_length_a   5.26934239
_cell_length_b   5.26934239
_cell_length_c   5.26934239
_cell_angle_alpha   118.78347916
_cell_angle_beta   119.32692480
_cell_angle_gamma   91.64500543
_symmetry_Int_Tables_number   1
_chemical_formula_structural   YbAlCu
_chemical_formula_sum   'Yb2 Al2 Cu2'
_cell_volume   104.88344406
_cell_formula_units_Z   2
loop_
 _symmetry_equiv_pos_site_id
 _symmetry_equiv_pos_as_xyz
  1  'x, y, z'
loop_
 _atom_site_type_symbol
 _atom_site_label
 _atom_site_symmetry_multiplicity
 _atom_site_fract_x
 _atom_site_fract_y
 _atom_site_fract_z
 _atom_site_occupancy
  Yb  Yb0  1  0.37765100  0.12765100  0.25000000  1
  Yb  Yb1  1  0.62234900  0.87234900  0.75000000  1
  Al  Al0  1  0.00000000  0.50000000  0.00000000  1
  Al  Al1  1  0.00000000  0.00000000  0.50000000  1
  Cu  Cu0  1  0.50000000  0.50000000  0.00000000  1
  Cu  Cu1  1  0.00000000  0.50000000  0.50000000  1
loop_
_geom_bond_atom_site_label_1
_geom_bond_atom_site_label_2
_geom_bond_distance
_geom_bond_site_symmetry_2
Yb0 Yb1 3.229234 1_544
Yb0 Yb1 3.229234 1_555
Yb0 Yb1 3.255584 1_545
Yb0 Yb1 3.255584 1_444
Al0 Cu0 2.634671 1_455
Al0 Cu1 2.634671 1_554
Al0 Cu0 2.634671 1_555
Al0 Cu1 2.634671 1_555
Al0 Al1 2.682967 1_565
Al0 Al1 2.682967 1_554
Al0 Yb0 3.080942 1_565
Al0 Yb1 3.080942 1_444
Al0 Yb1 3.112908 1_454
Al0 Yb1 3.112908 1_555
Al0 Yb0 3.112908 1_454
Al0 Yb0 3.112908 1_555
Al1 Cu1 2.634671 1_545
Al1 Cu0 2.634671 1_556
Al1 Cu0 2.634671 1_445
Al1 Cu1 2.634671 1_555
Al1 Yb0 3.080942 1_555
Al1 Yb1 3.080942 1_445
Al1 Yb1 3.112908 1_545
Al1 Yb1 3.112908 1_444
Al1 Yb0 3.112908 1_556
Al1 Yb0 3.112908 1_455
Cu0 Cu1 2.661429 1_554
Cu0 Cu1 2.661429 1_655
Cu0 Yb1 3.041207 1_554
Cu0 Yb0 3.041207 1_555
Cu0 Yb0 3.138156 1_554
Cu0 Yb0 3.138156 1_565
Cu0 Yb1 3.138156 1_544
Cu0 Yb1 3.138156 1_555
Cu1 Yb1 3.041207 1_555
Cu1 Yb0 3.041207 1_455
Cu1 Yb0 3.138156 1_566
Cu1 Yb0 3.138156 1_555
Cu1 Yb1 3.138156 1_444
Cu1 Yb1 3.138156 1_455
