# generated using pymatgen
data_Mg2Si3
_symmetry_space_group_name_H-M   'P 1'
_cell_length_a   6.92274508
_cell_length_b   5.60513987
_cell_length_c   14.30873763
_cell_angle_alpha   64.50766229
_cell_angle_beta   93.65895695
_cell_angle_gamma   54.41588633
_symmetry_Int_Tables_number   1
_chemical_formula_structural   Mg2Si3
_chemical_formula_sum   'Mg8 Si12'
_cell_volume   368.34297450
_cell_formula_units_Z   4
loop_
 _symmetry_equiv_pos_site_id
 _symmetry_equiv_pos_as_xyz
  1  'x, y, z'
loop_
 _atom_site_type_symbol
 _atom_site_label
 _atom_site_symmetry_multiplicity
 _atom_site_fract_x
 _atom_site_fract_y
 _atom_site_fract_z
 _atom_site_occupancy
  Mg  Mg0  1  0.84959300  0.23326000  0.21812700  1
  Mg  Mg1  1  0.12301800  0.13333600  0.76465300  1
  Mg  Mg2  1  0.01862000  0.92615500  0.99340800  1
  Mg  Mg3  1  0.91674500  0.51196100  0.98728500  1
  Mg  Mg4  1  0.62861200  0.72048600  0.75016000  1
  Mg  Mg5  1  0.34433400  0.67595000  0.23114800  1
  Mg  Mg6  1  0.61021100  0.56015700  0.52346100  1
  Mg  Mg7  1  0.48224100  0.18862500  0.48865400  1
  Si  Si0  1  0.54118700  0.47418100  0.98255900  1
  Si  Si1  1  0.41128200  0.92702200  0.02115700  1
  Si  Si2  1  0.57537900  0.03340700  0.15211200  1
  Si  Si3  1  0.39190000  0.35443600  0.86163100  1
  Si  Si4  1  0.98127300  0.79831800  0.69660300  1
  Si  Si5  1  0.00855100  0.54528500  0.30832100  1
  Si  Si6  1  0.18417200  0.00236300  0.57916200  1
  Si  Si7  1  0.90487600  0.72991000  0.44708700  1
  Si  Si8  1  0.28529100  0.46647100  0.61568400  1
  Si  Si9  1  0.82452100  0.27038100  0.40130200  1
  Si  Si10  1  0.20473400  0.31373600  0.19129900  1
  Si  Si11  1  0.71343900  0.13437100  0.78610700  1
loop_
_geom_bond_atom_site_label_1
_geom_bond_atom_site_label_2
_geom_bond_distance
_geom_bond_site_symmetry_2
Mg0 Si9 2.725534 1_555
Mg0 Si10 2.767194 1_655
Mg0 Si1 2.830980 1_555
Mg0 Si5 2.888450 1_645
Mg0 Mg5 2.913669 1_645
Mg0 Mg5 2.967585 1_555
Mg0 Si2 2.984538 1_555
Mg0 Si7 3.076777 1_545
Mg0 Si0 3.090536 1_554
Mg0 Si5 3.152259 1_655
Mg0 Mg3 3.188454 1_554
Mg0 Si2 3.290389 1_565
Mg1 Si11 2.868329 1_455
Mg1 Si0 2.870009 1_545
Mg1 Si4 2.881201 1_455
Mg1 Si8 2.934788 1_555
Mg1 Si4 3.005597 1_445
Mg1 Si6 3.036701 1_555
Mg1 Si3 3.073890 1_545
Mg1 Mg6 3.417857 1_455
Mg2 Si1 2.725087 1_556
Mg2 Si10 2.735264 1_556
Mg2 Si11 2.823954 1_465
Mg2 Si0 2.844696 1_465
Mg2 Si0 3.045231 1_555
Mg3 Si0 2.727541 1_555
Mg3 Si11 2.749964 1_565
Mg3 Si10 2.760107 1_656
Mg3 Si1 2.839440 1_646
Mg3 Si1 3.099124 1_556
Mg4 Si11 2.768395 1_555
Mg4 Si8 2.785680 1_565
Mg4 Si4 2.815756 1_555
Mg4 Si6 2.829043 1_565
Mg4 Si11 2.926653 1_565
Mg4 Mg7 3.143790 1_565
Mg5 Si9 2.748468 1_555
Mg5 Si10 2.862382 1_565
Mg5 Si1 2.918993 1_555
Mg5 Si10 2.930976 1_555
Mg5 Si5 2.961767 1_555
Mg5 Mg7 3.130750 1_555
Mg5 Si2 3.140331 1_565
Mg6 Si9 2.804445 1_555
Mg6 Si7 2.812306 1_555
Mg6 Si8 2.869430 1_555
Mg6 Mg7 2.871159 1_565
Mg6 Si4 2.878626 1_545
Mg6 Mg7 2.890184 1_555
Mg6 Si6 2.995041 1_565
Mg6 Si6 3.031718 1_655
Mg6 Si11 3.206551 1_555
Mg7 Si8 2.805341 1_555
Mg7 Si5 2.873741 1_555
Mg7 Si7 2.882445 1_545
Mg7 Si9 2.921562 1_555
Mg7 Si6 2.951171 1_555
Mg7 Si7 3.092688 1_455
Mg7 Si4 3.140591 1_545
Si0 Si3 2.468059 1_555
Si0 Si2 2.476387 1_556
Si0 Si1 2.483940 1_556
Si1 Si3 2.418144 1_564
Si1 Si2 2.575979 1_565
Si2 Si5 2.409593 1_645
Si3 Si4 2.387879 1_455
Si4 Si6 2.573202 1_665
Si4 Si8 2.615112 1_655
Si5 Si9 2.550241 1_455
Si5 Si7 2.571907 1_455
Si6 Si8 2.437349 1_545
Si6 Si9 2.545567 1_455
Si6 Si7 2.768302 1_455
Si7 Si9 2.489962 1_565
Si7 Si8 2.555922 1_655
Si10 Si2 2.370020 1_555
Si10 Si5 2.538152 1_555
Si11 Si3 2.429633 1_555
Si11 Si4 2.634590 1_545
Si11 Si8 2.635478 1_555
