# generated using pymatgen
data_Na2Hf(MoO4)3
_symmetry_space_group_name_H-M   'P 1'
_cell_length_a   5.08720911
_cell_length_b   10.11400288
_cell_length_c   10.11400288
_cell_angle_alpha   68.87004636
_cell_angle_beta   79.84552258
_cell_angle_gamma   79.84552258
_symmetry_Int_Tables_number   1
_chemical_formula_structural   Na2Hf(MoO4)3
_chemical_formula_sum   'Na4 Hf2 Mo6 O24'
_cell_volume   474.17866947
_cell_formula_units_Z   2
loop_
 _symmetry_equiv_pos_site_id
 _symmetry_equiv_pos_as_xyz
  1  'x, y, z'
loop_
 _atom_site_type_symbol
 _atom_site_label
 _atom_site_symmetry_multiplicity
 _atom_site_fract_x
 _atom_site_fract_y
 _atom_site_fract_z
 _atom_site_occupancy
  Na  Na0  1  0.09106200  0.03968600  0.28637700  1
  Na  Na1  1  0.90893800  0.96031400  0.71362300  1
  Na  Na2  1  0.40893800  0.71362300  0.96031400  1
  Na  Na3  1  0.59106200  0.28637700  0.03968600  1
  Hf  Hf0  1  0.25000000  0.62378300  0.37621700  1
  Hf  Hf1  1  0.75000000  0.37621700  0.62378300  1
  Mo  Mo0  1  0.25000000  0.14373800  0.85626200  1
  Mo  Mo1  1  0.75000000  0.85626200  0.14373800  1
  Mo  Mo2  1  0.38020700  0.23425400  0.44586900  1
  Mo  Mo3  1  0.61979300  0.76574600  0.55413100  1
  Mo  Mo4  1  0.11979300  0.55413100  0.76574600  1
  Mo  Mo5  1  0.88020700  0.44586900  0.23425400  1
  O  O0  1  0.11627600  0.39003700  0.47183100  1
  O  O1  1  0.88372400  0.60996300  0.52816900  1
  O  O2  1  0.38372400  0.52816900  0.60996300  1
  O  O3  1  0.61627600  0.47183100  0.39003700  1
  O  O4  1  0.01649100  0.18634400  0.72096900  1
  O  O5  1  0.98350900  0.81365600  0.27903100  1
  O  O6  1  0.48350900  0.27903100  0.81365600  1
  O  O7  1  0.51649100  0.72096900  0.18634400  1
  O  O8  1  0.43876000  0.97797700  0.86439900  1
  O  O9  1  0.56124000  0.02202300  0.13560100  1
  O  O10  1  0.06124000  0.13560100  0.02202300  1
  O  O11  1  0.93876000  0.86439900  0.97797700  1
  O  O12  1  0.40441300  0.78788700  0.41775300  1
  O  O13  1  0.59558700  0.21211300  0.58224700  1
  O  O14  1  0.09558700  0.58224700  0.21211300  1
  O  O15  1  0.90441300  0.41775300  0.78788700  1
  O  O16  1  0.24568900  0.07443300  0.49530800  1
  O  O17  1  0.75431200  0.92556700  0.50469200  1
  O  O18  1  0.25431200  0.50469200  0.92556700  1
  O  O19  1  0.74568800  0.49530800  0.07443300  1
  O  O20  1  0.36904500  0.74761700  0.70736800  1
  O  O21  1  0.63095500  0.25238300  0.29263200  1
  O  O22  1  0.13095500  0.29263200  0.25238300  1
  O  O23  1  0.86904500  0.70736800  0.74761700  1
loop_
_geom_bond_atom_site_label_1
_geom_bond_atom_site_label_2
_geom_bond_distance
_geom_bond_site_symmetry_2
Na0 O5 2.471604 1_445
Na0 O22 2.495715 1_555
Na0 O10 2.516702 1_555
Na0 O16 2.535070 1_555
Na0 O17 2.582326 1_445
Na0 O9 2.614985 1_555
Na0 O12 2.769120 1_545
Na0 O21 2.894974 1_455
Na1 O4 2.471604 1_665
Na1 O23 2.495715 1_555
Na1 O11 2.516702 1_555
Na1 O17 2.535068 1_555
Na1 O16 2.582329 1_665
Na1 O8 2.614985 1_555
Na1 O13 2.769120 1_565
Na1 O20 2.894974 1_655
Na2 O7 2.471604 1_556
Na2 O20 2.495715 1_555
Na2 O8 2.516702 1_555
Na2 O18 2.535068 1_555
Na2 O19 2.582326 1_556
Na2 O11 2.614985 1_455
Na2 O14 2.769120 1_556
Na2 O23 2.894974 1_555
Na3 O6 2.471604 1_554
Na3 O21 2.495715 1_555
Na3 O9 2.516702 1_555
Na3 O19 2.535068 1_555
Na3 O18 2.582326 1_554
Na3 O10 2.614985 1_655
Na3 O15 2.769120 1_554
Na3 O22 2.894974 1_555
Hf0 O12 2.151065 1_555
Hf0 O14 2.151065 1_555
Hf0 O7 2.164000 1_555
Hf0 O5 2.164000 1_455
Hf0 O3 2.186464 1_555
Hf0 O1 2.186464 1_455
Hf0 O0 2.381974 1_555
Hf0 O2 2.381974 1_555
Hf1 O13 2.151065 1_555
Hf1 O15 2.151065 1_555
Hf1 O4 2.164000 1_655
Hf1 O6 2.164000 1_555
Hf1 O2 2.186464 1_555
Hf1 O0 2.186464 1_655
Hf1 O3 2.381974 1_555
Hf1 O1 2.381974 1_555
Mo0 O10 1.760764 1_556
Mo0 O8 1.760764 1_545
Mo0 O4 1.853847 1_555
Mo0 O6 1.853847 1_555
Mo1 O9 1.760764 1_565
Mo1 O11 1.760764 1_554
Mo1 O5 1.853847 1_555
Mo1 O7 1.853847 1_555
Mo2 O16 1.737188 1_555
Mo2 O21 1.800914 1_555
Mo2 O13 1.837634 1_555
Mo2 O0 1.944795 1_555
Mo2 O22 2.358789 1_555
Mo3 O17 1.737191 1_555
Mo3 O20 1.800914 1_555
Mo3 O12 1.837634 1_555
Mo3 O1 1.944795 1_555
Mo3 O23 2.358789 1_555
Mo4 O18 1.737191 1_555
Mo4 O23 1.800914 1_455
Mo4 O15 1.837634 1_455
Mo4 O2 1.944795 1_555
Mo4 O20 2.358789 1_555
Mo5 O19 1.737191 1_555
Mo5 O22 1.800914 1_655
Mo5 O14 1.837634 1_655
Mo5 O3 1.944795 1_555
Mo5 O21 2.358789 1_555
