# generated using pymatgen
data_TbMgAu
_symmetry_space_group_name_H-M   'P 1'
_cell_length_a   7.58929549
_cell_length_b   7.58929549
_cell_length_c   4.08237880
_cell_angle_alpha   90.00000000
_cell_angle_beta   90.00000000
_cell_angle_gamma   119.99998721
_symmetry_Int_Tables_number   1
_chemical_formula_structural   TbMgAu
_chemical_formula_sum   'Tb3 Mg3 Au3'
_cell_volume   203.63241550
_cell_formula_units_Z   3
loop_
 _symmetry_equiv_pos_site_id
 _symmetry_equiv_pos_as_xyz
  1  'x, y, z'
loop_
 _atom_site_type_symbol
 _atom_site_label
 _atom_site_symmetry_multiplicity
 _atom_site_fract_x
 _atom_site_fract_y
 _atom_site_fract_z
 _atom_site_occupancy
  Tb  Tb0  1  0.58653256  0.00000000  -0.00000000  1
  Tb  Tb1  1  0.00000000  0.58653256  0.00000000  1
  Tb  Tb2  1  0.41346744  0.41346744  -0.00000000  1
  Mg  Mg0  1  0.24322225  -0.00000000  0.50000000  1
  Mg  Mg1  1  -0.00000000  0.24322225  0.50000000  1
  Mg  Mg2  1  0.75677775  0.75677775  0.50000000  1
  Au  Au0  1  0.33333300  0.66666700  0.50000000  1
  Au  Au1  1  0.66666700  0.33333300  0.50000000  1
  Au  Au2  1  -0.00000000  -0.00000000  0.00000000  1
loop_
_geom_bond_atom_site_label_1
_geom_bond_atom_site_label_2
_geom_bond_distance
_geom_bond_site_symmetry_2
Mg0 Mg1 3.197167 1_555
Mg0 Mg2 3.197168 1_445
Mg0 Tb0 3.309834 1_555
Mg0 Tb0 3.309834 1_556
Mg0 Tb2 3.409997 1_556
Mg0 Tb2 3.409997 1_555
Mg0 Tb1 3.409997 1_545
Mg0 Tb1 3.409997 1_546
Mg1 Mg2 3.197168 1_445
Mg1 Tb1 3.309834 1_555
Mg1 Tb1 3.309834 1_556
Mg1 Tb2 3.409997 1_556
Mg1 Tb2 3.409997 1_555
Mg1 Tb0 3.409997 1_455
Mg1 Tb0 3.409997 1_456
Mg2 Tb2 3.309834 1_555
Mg2 Tb2 3.309834 1_556
Mg2 Tb0 3.409997 1_565
Mg2 Tb1 3.409997 1_656
Mg2 Tb1 3.409997 1_655
Mg2 Tb0 3.409997 1_566
Au0 Mg0 2.932138 1_565
Au0 Mg1 2.932144 1_555
Au0 Mg2 2.932146 1_555
Au0 Tb1 3.065535 1_555
Au0 Tb1 3.065535 1_556
Au0 Tb0 3.065537 1_566
Au0 Tb0 3.065537 1_565
Au0 Tb2 3.065541 1_555
Au0 Tb2 3.065541 1_556
Au1 Mg1 2.932138 1_655
Au1 Mg0 2.932144 1_555
Au1 Mg2 2.932146 1_555
Au1 Tb0 3.065535 1_555
Au1 Tb0 3.065535 1_556
Au1 Tb1 3.065537 1_656
Au1 Tb1 3.065537 1_655
Au1 Tb2 3.065541 1_555
Au1 Tb2 3.065541 1_556
Au2 Mg1 2.752044 1_554
Au2 Mg1 2.752044 1_555
Au2 Mg0 2.752044 1_555
Au2 Mg0 2.752044 1_554
Au2 Mg2 2.752044 1_444
Au2 Mg2 2.752044 1_445
Au2 Tb1 3.137927 1_545
Au2 Tb0 3.137927 1_455
Au2 Tb2 3.137927 1_555
