# generated using pymatgen
data_Sr2MgZn2Sn2(PO4)4
_symmetry_space_group_name_H-M   'P 1'
_cell_length_a   5.26541473
_cell_length_b   8.38863855
_cell_length_c   9.83111807
_cell_angle_alpha   106.74883096
_cell_angle_beta   99.10417809
_cell_angle_gamma   88.12021501
_symmetry_Int_Tables_number   1
_chemical_formula_structural   Sr2MgZn2Sn2(PO4)4
_chemical_formula_sum   'Sr2 Mg1 Zn2 Sn2 P4 O16'
_cell_volume   410.53968290
_cell_formula_units_Z   1
loop_
 _symmetry_equiv_pos_site_id
 _symmetry_equiv_pos_as_xyz
  1  'x, y, z'
loop_
 _atom_site_type_symbol
 _atom_site_label
 _atom_site_symmetry_multiplicity
 _atom_site_fract_x
 _atom_site_fract_y
 _atom_site_fract_z
 _atom_site_occupancy
  Sr  Sr0  1  0.09579316  0.74164157  0.00383715  1
  Sr  Sr1  1  0.88487117  0.25120114  0.99315083  1
  Mg  Mg0  1  0.26522048  0.83473873  0.37102898  1
  Zn  Zn0  1  0.04775191  0.40424589  0.62973452  1
  Zn  Zn1  1  0.95322795  0.40188802  0.38264300  1
  Sn  Sn0  1  0.74358032  0.85988118  0.65126949  1
  Sn  Sn1  1  0.42048198  0.21264111  0.45149660  1
  P  P0  1  0.40871581  0.46423947  0.23120768  1
  P  P1  1  0.58865391  0.54402073  0.78568718  1
  P  P2  1  0.73288599  0.96824624  0.22687600  1
  P  P3  1  0.24844698  0.05266635  0.73017415  1
  O  O0  1  0.73544127  0.50085740  0.91686194  1
  O  O1  1  0.69554353  0.41803149  0.21742036  1
  O  O2  1  0.71604909  0.71357695  0.79081480  1
  O  O3  1  0.12229282  0.22091413  0.73235438  1
  O  O4  1  0.29643753  0.56739831  0.78605615  1
  O  O5  1  0.22974702  0.92717354  0.57721607  1
  O  O6  1  0.77837577  0.13572741  0.35495105  1
  O  O7  1  0.09205827  0.97420509  0.82031675  1
  O  O8  1  0.27490324  0.31043822  0.26099656  1
  O  O9  1  0.77334811  0.99849789  0.08533285  1
  O  O10  1  0.25642290  0.48422602  0.09136364  1
  O  O11  1  0.39341740  0.61462952  0.36333833  1
  O  O12  1  0.64310496  0.41105593  0.64315828  1
  O  O13  1  0.45416576  0.90552392  0.22613873  1
  O  O14  1  0.93035249  0.83637247  0.25741700  1
  O  O15  1  0.54013919  0.07003430  0.79415754  1
loop_
_geom_bond_atom_site_label_1
_geom_bond_atom_site_label_2
_geom_bond_distance
_geom_bond_site_symmetry_2
Mg0 O11 1.929905 1_555
Mg0 O14 1.934081 1_455
Mg0 O5 1.987330 1_555
Mg0 O13 2.084727 1_555
O0 P1 1.525406 1_555
O0 Sr1 2.485560 1_555
O0 Sr0 2.674631 1_656
O1 P0 1.563849 1_555
O1 Zn1 1.978633 1_555
O1 Sr1 2.576665 1_554
O2 P1 1.576748 1_555
O2 Sn0 2.110534 1_555
O2 Sr0 2.619330 1_656
O3 P3 1.535976 1_555
O3 Zn0 2.065512 1_555
O3 Sr1 2.969696 1_455
O4 P1 1.545136 1_555
O4 Zn0 2.053787 1_555
O4 Sr0 2.578264 1_556
O5 P3 1.557796 1_565
O6 P2 1.588611 1_545
O6 Sn1 2.236441 1_555
O6 Zn1 2.368969 1_555
O7 P3 1.580918 1_565
O7 Sn0 2.297894 1_455
O7 Sr1 2.760652 1_465
O7 Sr0 3.012715 1_556
O8 P0 1.609185 1_555
O8 Zn1 2.216876 1_455
O8 Sn1 2.271136 1_555
O8 Sr1 2.999973 1_454
O9 P2 1.532002 1_555
O9 Sr1 2.648987 1_564
O9 Sr0 2.713410 1_655
O10 P0 1.528535 1_555
O10 Sr0 2.615230 1_555
O10 Sr1 2.673212 1_454
O11 P0 1.538623 1_555
O12 P1 1.579583 1_555
O12 Zn0 2.153354 1_655
O12 Sn1 2.305699 1_555
O13 P2 1.573458 1_555
O13 Sr0 2.713007 1_555
O14 P2 1.553116 1_555
O14 Sr0 2.665572 1_655
O15 P3 1.559473 1_555
O15 Sn0 2.270158 1_545
O15 Sr1 2.602936 1_555
