# generated using pymatgen
data_Y3GaS6
_symmetry_space_group_name_H-M   'P 1'
_cell_length_a   8.52511842
_cell_length_b   8.52511842
_cell_length_c   6.45084557
_cell_angle_alpha   90.00000000
_cell_angle_beta   90.00000000
_cell_angle_gamma   102.39407201
_symmetry_Int_Tables_number   1
_chemical_formula_structural   Y3GaS6
_chemical_formula_sum   'Y6 Ga2 S12'
_cell_volume   457.90588380
_cell_formula_units_Z   2
loop_
 _symmetry_equiv_pos_site_id
 _symmetry_equiv_pos_as_xyz
  1  'x, y, z'
loop_
 _atom_site_type_symbol
 _atom_site_label
 _atom_site_symmetry_multiplicity
 _atom_site_fract_x
 _atom_site_fract_y
 _atom_site_fract_z
 _atom_site_occupancy
  Y  Y0  1  0.28461746  0.08551325  0.22574999  1
  Y  Y1  1  0.91448675  0.71538254  0.22574999  1
  Y  Y2  1  0.71538254  0.91448675  0.72574999  1
  Y  Y3  1  0.08551325  0.28461746  0.72574999  1
  Y  Y4  1  0.40180067  0.59819933  0.13746400  1
  Y  Y5  1  0.59819933  0.40180067  0.63746400  1
  Ga  Ga0  1  0.20057907  0.79942093  0.76290227  1
  Ga  Ga1  1  0.79942093  0.20057907  0.26290227  1
  S  S0  1  0.56805907  0.10203229  0.44057154  1
  S  S1  1  0.89796771  0.43194093  0.44057154  1
  S  S2  1  0.43194093  0.89796771  0.94057154  1
  S  S3  1  0.10203229  0.56805907  0.94057154  1
  S  S4  1  0.63216979  0.69298663  0.43059601  1
  S  S5  1  0.30701337  0.36783021  0.43059601  1
  S  S6  1  0.36783021  0.30701337  0.93059601  1
  S  S7  1  0.69298663  0.63216979  0.93059601  1
  S  S8  1  0.21670956  0.78329044  0.41356525  1
  S  S9  1  0.78329044  0.21670956  0.91356525  1
  S  S10  1  0.95904137  0.04095863  0.40723341  1
  S  S11  1  0.04095863  0.95904137  0.90723341  1
loop_
_geom_bond_atom_site_label_1
_geom_bond_atom_site_label_2
_geom_bond_distance
_geom_bond_site_symmetry_2
Ga0 S8 2.263689 1_555
Ga0 S2 2.279996 1_555
Ga0 S3 2.279996 1_555
Ga0 S11 2.316294 1_555
Ga1 S9 2.263689 1_554
Ga1 S1 2.279996 1_555
Ga1 S0 2.279996 1_555
Ga1 S10 2.316294 1_555
S0 Y0 2.762789 1_555
S0 Y5 2.815714 1_555
S0 Y2 2.894825 1_545
S1 Y1 2.762789 1_555
S1 Y5 2.815714 1_555
S1 Y3 2.894825 1_655
S2 Y2 2.762789 1_555
S2 Y4 2.815714 1_556
S2 Y0 2.894825 1_566
S3 Y3 2.762789 1_555
S3 Y4 2.815714 1_556
S3 Y1 2.894825 1_456
S4 Y2 2.668170 1_555
S4 Y1 2.716245 1_555
S4 Y4 2.721107 1_555
S4 Y5 2.778195 1_555
S5 Y3 2.668170 1_555
S5 Y0 2.716245 1_555
S5 Y4 2.721107 1_555
S5 Y5 2.778195 1_555
S6 Y0 2.668170 1_556
S6 Y3 2.716245 1_555
S6 Y5 2.721107 1_555
S6 Y4 2.778195 1_556
S7 Y1 2.668170 1_556
S7 Y2 2.716245 1_555
S7 Y5 2.721107 1_555
S7 Y4 2.778195 1_556
S8 Y1 2.793033 1_455
S8 Y0 2.793033 1_565
S8 Y4 3.036572 1_555
S9 Y2 2.793033 1_545
S9 Y3 2.793033 1_655
S9 Y5 3.036572 1_555
S10 Y2 2.955965 1_545
S10 Y3 2.955965 1_655
S10 Y0 2.960763 1_655
S10 Y1 2.960763 1_545
S11 Y0 2.955965 1_566
S11 Y1 2.955965 1_456
S11 Y2 2.960763 1_455
S11 Y3 2.960763 1_565
