# generated using pymatgen
data_KB(SO4)2
_symmetry_space_group_name_H-M   'P 1'
_cell_length_a   9.22610600
_cell_length_b   9.22610600
_cell_length_c   7.54276800
_cell_angle_alpha   90.00000000
_cell_angle_beta   90.00000000
_cell_angle_gamma   90.00000000
_symmetry_Int_Tables_number   1
_chemical_formula_structural   KB(SO4)2
_chemical_formula_sum   'K4 B4 S8 O32'
_cell_volume   642.04819572
_cell_formula_units_Z   4
loop_
 _symmetry_equiv_pos_site_id
 _symmetry_equiv_pos_as_xyz
  1  'x, y, z'
loop_
 _atom_site_type_symbol
 _atom_site_label
 _atom_site_symmetry_multiplicity
 _atom_site_fract_x
 _atom_site_fract_y
 _atom_site_fract_z
 _atom_site_occupancy
  K  K0  1  0.50000000  0.00000000  0.43626200  1
  K  K1  1  0.50000000  0.00000000  0.93626200  1
  K  K2  1  0.00000000  0.50000000  0.56373800  1
  K  K3  1  0.00000000  0.50000000  0.06373800  1
  B  B0  1  0.00000000  0.00000000  0.50000000  1
  B  B1  1  0.00000000  0.00000000  0.00000000  1
  B  B2  1  0.50000000  0.50000000  0.00000000  1
  B  B3  1  0.50000000  0.50000000  0.50000000  1
  S  S0  1  0.84611600  0.15388400  0.25000000  1
  S  S1  1  0.84611600  0.84611600  0.75000000  1
  S  S2  1  0.15388400  0.15388400  0.75000000  1
  S  S3  1  0.15388400  0.84611600  0.25000000  1
  S  S4  1  0.65388400  0.34611600  0.75000000  1
  S  S5  1  0.65388400  0.65388400  0.25000000  1
  S  S6  1  0.34611600  0.34611600  0.25000000  1
  S  S7  1  0.34611600  0.65388400  0.75000000  1
  O  O0  1  0.29566000  0.87403900  0.17806200  1
  O  O1  1  0.29566000  0.12596100  0.67806200  1
  O  O2  1  0.70434000  0.87403900  0.67806200  1
  O  O3  1  0.70434000  0.12596100  0.17806200  1
  O  O4  1  0.37403900  0.79566000  0.67806200  1
  O  O5  1  0.37403900  0.20434000  0.17806200  1
  O  O6  1  0.62596100  0.79566000  0.17806200  1
  O  O7  1  0.62596100  0.20434000  0.67806200  1
  O  O8  1  0.20434000  0.62596100  0.82193800  1
  O  O9  1  0.20434000  0.37403900  0.32193800  1
  O  O10  1  0.79566000  0.62596100  0.32193800  1
  O  O11  1  0.79566000  0.37403900  0.82193800  1
  O  O12  1  0.12596100  0.70434000  0.32193800  1
  O  O13  1  0.12596100  0.29566000  0.82193800  1
  O  O14  1  0.87403900  0.70434000  0.82193800  1
  O  O15  1  0.87403900  0.29566000  0.32193800  1
  O  O16  1  0.46700500  0.37076900  0.39153200  1
  O  O17  1  0.46700500  0.62923100  0.89153200  1
  O  O18  1  0.53299500  0.37076900  0.89153200  1
  O  O19  1  0.53299500  0.62923100  0.39153200  1
  O  O20  1  0.87076900  0.96700500  0.89153200  1
  O  O21  1  0.87076900  0.03299500  0.39153200  1
  O  O22  1  0.12923100  0.96700500  0.39153200  1
  O  O23  1  0.12923100  0.03299500  0.89153200  1
  O  O24  1  0.03299500  0.12923100  0.60846800  1
  O  O25  1  0.03299500  0.87076900  0.10846800  1
  O  O26  1  0.96700500  0.12923100  0.10846800  1
  O  O27  1  0.96700500  0.87076900  0.60846800  1
  O  O28  1  0.62923100  0.53299500  0.10846800  1
  O  O29  1  0.62923100  0.46700500  0.60846800  1
  O  O30  1  0.37076900  0.53299500  0.60846800  1
  O  O31  1  0.37076900  0.46700500  0.10846800  1
loop_
_geom_bond_atom_site_label_1
_geom_bond_atom_site_label_2
_geom_bond_distance
_geom_bond_site_symmetry_2
K0 O1 2.868999 1_555
K0 O4 2.868999 1_545
K0 O7 2.868999 1_555
K0 O2 2.868999 1_545
K0 O6 2.949183 1_545
K0 O0 2.949183 1_545
K0 O5 2.949183 1_555
K0 O3 2.949183 1_555
K1 O6 2.868999 1_546
K1 O5 2.868999 1_556
K1 O0 2.868999 1_546
K1 O3 2.868999 1_556
K1 O4 2.949183 1_545
K1 O1 2.949183 1_555
K1 O7 2.949183 1_555
K1 O2 2.949183 1_545
K2 O15 2.868999 1_455
K2 O10 2.868999 1_455
K2 O9 2.868999 1_555
K2 O12 2.868999 1_555
K2 O13 2.949183 1_555
K2 O11 2.949183 1_455
K2 O8 2.949183 1_555
K2 O14 2.949183 1_455
K3 O8 2.868999 1_554
K3 O13 2.868999 1_554
K3 O11 2.868999 1_454
K3 O14 2.868999 1_454
K3 O10 2.949183 1_455
K3 O15 2.949183 1_455
K3 O9 2.949183 1_555
K3 O12 2.949183 1_555
B0 O22 1.477705 1_545
B0 O24 1.477705 1_555
B0 O27 1.477705 1_445
B0 O21 1.477705 1_455
B1 O26 1.477705 1_455
B1 O23 1.477705 1_554
B1 O25 1.477705 1_545
B1 O20 1.477705 1_444
B2 O28 1.477705 1_555
B2 O17 1.477705 1_554
B2 O31 1.477705 1_555
B2 O18 1.477705 1_554
B3 O29 1.477705 1_555
B3 O19 1.477705 1_555
B3 O30 1.477705 1_555
B3 O16 1.477705 1_555
O0 S3 1.439363 1_555
O1 S2 1.439363 1_555
O2 S1 1.439363 1_555
O3 S0 1.439363 1_555
O4 S7 1.439363 1_555
O5 S6 1.439363 1_555
O6 S5 1.439363 1_555
O7 S4 1.439363 1_555
O8 S7 1.439363 1_555
O9 S6 1.439363 1_555
O10 S5 1.439363 1_555
O11 S4 1.439363 1_555
O12 S3 1.439363 1_555
O13 S2 1.439363 1_555
O14 S1 1.439363 1_555
O15 S0 1.439363 1_555
O16 S6 1.560562 1_555
O17 S7 1.560562 1_555
O18 S4 1.560562 1_555
O19 S5 1.560562 1_555
O20 S1 1.560562 1_555
O21 S0 1.560562 1_555
O22 S3 1.560562 1_555
O23 S2 1.560562 1_555
O24 S2 1.560562 1_555
O25 S3 1.560562 1_555
O26 S0 1.560562 1_555
O27 S1 1.560562 1_555
O28 S5 1.560562 1_555
O29 S4 1.560562 1_555
O30 S7 1.560562 1_555
O31 S6 1.560562 1_555
