# generated using pymatgen
data_Ca2Ag7
_symmetry_space_group_name_H-M   'P 1'
_cell_length_a   5.48352900
_cell_length_b   5.48352857
_cell_length_c   14.09003048
_cell_angle_alpha   90.00000000
_cell_angle_beta   90.00000000
_cell_angle_gamma   119.42801779
_symmetry_Int_Tables_number   1
_chemical_formula_structural   Ca2Ag7
_chemical_formula_sum   'Ca4 Ag14'
_cell_volume   369.00921033
_cell_formula_units_Z   2
loop_
 _symmetry_equiv_pos_site_id
 _symmetry_equiv_pos_as_xyz
  1  'x, y, z'
loop_
 _atom_site_type_symbol
 _atom_site_label
 _atom_site_symmetry_multiplicity
 _atom_site_fract_x
 _atom_site_fract_y
 _atom_site_fract_z
 _atom_site_occupancy
  Ca  Ca0  1  0.32255279  0.32255279  0.11423095  1
  Ca  Ca1  1  0.67744721  0.67744721  0.61423095  1
  Ca  Ca2  1  0.32255279  0.32255279  0.38576905  1
  Ca  Ca3  1  0.67744721  0.67744721  0.88576905  1
  Ag  Ag0  1  0.82878602  0.82878602  0.25000000  1
  Ag  Ag1  1  0.17121398  0.17121398  0.75000000  1
  Ag  Ag2  1  0.32910023  0.82669897  0.25000000  1
  Ag  Ag3  1  0.67089977  0.17330103  0.75000000  1
  Ag  Ag4  1  0.82669897  0.32910023  0.25000000  1
  Ag  Ag5  1  0.17330103  0.67089977  0.75000000  1
  Ag  Ag6  1  0.66477546  0.99412290  0.07608910  1
  Ag  Ag7  1  0.33522454  0.00587710  0.57608910  1
  Ag  Ag8  1  0.99412290  0.66477546  0.42391090  1
  Ag  Ag9  1  0.00587710  0.33522454  0.92391090  1
  Ag  Ag10  1  0.33522454  0.00587710  0.92391090  1
  Ag  Ag11  1  0.66477546  0.99412290  0.42391090  1
  Ag  Ag12  1  0.00587710  0.33522454  0.57608910  1
  Ag  Ag13  1  0.99412290  0.66477546  0.07608910  1
loop_
_geom_bond_atom_site_label_1
_geom_bond_atom_site_label_2
_geom_bond_distance
_geom_bond_site_symmetry_2
Ag0 Ag4 2.734437 1_555
Ag0 Ag2 2.734437 1_555
Ag0 Ag4 2.749128 1_565
Ag0 Ag2 2.749129 1_655
Ag0 Ag11 2.904578 1_555
Ag0 Ag6 2.904578 1_555
Ag0 Ag13 2.904578 1_555
Ag0 Ag8 2.904578 1_555
Ag0 Ca2 3.334317 1_665
Ag0 Ca0 3.334317 1_665
Ag0 Ca2 3.391021 1_555
Ag0 Ca0 3.391021 1_555
Ag1 Ag5 2.734437 1_555
Ag1 Ag3 2.734437 1_555
Ag1 Ag5 2.749128 1_545
Ag1 Ag3 2.749129 1_455
Ag1 Ag7 2.904578 1_555
Ag1 Ag10 2.904578 1_555
Ag1 Ag12 2.904578 1_555
Ag1 Ag9 2.904578 1_555
Ag1 Ca3 3.334317 1_445
Ag1 Ca1 3.334317 1_445
Ag1 Ca1 3.391021 1_555
Ag1 Ca3 3.391021 1_555
Ag2 Ag4 2.765528 1_565
Ag2 Ag4 2.765528 1_455
Ag2 Ag8 2.926475 1_455
Ag2 Ag6 2.928294 1_555
Ag2 Ca0 3.339141 1_565
Ag2 Ca2 3.339141 1_565
Ag2 Ca2 3.347499 1_555
Ag2 Ca0 3.347499 1_555
Ag3 Ag5 2.765528 1_545
Ag3 Ag5 2.765528 1_655
Ag3 Ag9 2.926475 1_655
Ag3 Ag7 2.928294 1_555
Ag3 Ca3 3.339141 1_545
Ag3 Ca1 3.339141 1_545
Ag3 Ca3 3.347499 1_555
Ag3 Ca1 3.347499 1_555
Ag4 Ag6 2.926475 1_545
Ag4 Ag8 2.928294 1_555
Ag4 Ca2 3.339142 1_655
Ag4 Ca0 3.339142 1_655
Ag4 Ca2 3.347499 1_555
Ag4 Ca0 3.347499 1_555
Ag5 Ag7 2.926475 1_565
Ag5 Ag9 2.928294 1_555
Ag5 Ca3 3.339142 1_455
Ag5 Ca1 3.339142 1_455
Ag5 Ca1 3.347499 1_555
Ag5 Ca3 3.347499 1_555
Ag6 Ag9 2.856009 1_664
Ag6 Ca0 3.187317 1_665
Ag6 Ca3 3.214015 1_554
Ag6 Ca0 3.221007 1_565
Ag6 Ca0 3.252832 1_555
Ag7 Ag8 2.856009 1_445
Ag7 Ca1 3.187317 1_445
Ag7 Ca2 3.214015 1_555
Ag7 Ca1 3.221007 1_545
Ag7 Ca1 3.252832 1_555
Ag8 Ca2 3.187316 1_665
Ag8 Ca1 3.214015 1_555
Ag8 Ca2 3.221007 1_655
Ag8 Ca2 3.252832 1_555
Ag9 Ca3 3.187316 1_445
Ag9 Ca0 3.214015 1_556
Ag9 Ca3 3.221007 1_455
Ag9 Ca3 3.252832 1_555
Ag10 Ag6 2.825208 1_546
Ag10 Ag13 2.856009 1_446
Ag10 Ag5 2.926475 1_545
Ag10 Ag3 2.928294 1_555
Ag10 Ag9 3.119006 1_555
Ag10 Ca3 3.187317 1_445
Ag10 Ag9 3.203043 1_545
Ag10 Ag9 3.203043 1_655
Ag10 Ca0 3.214015 1_556
Ag10 Ca3 3.221007 1_545
Ag10 Ca3 3.252832 1_555
Ag11 Ag7 2.825208 1_565
Ag11 Ag12 2.856009 1_665
Ag11 Ag4 2.926475 1_565
Ag11 Ag2 2.928294 1_555
Ag11 Ag8 3.119006 1_555
Ag11 Ca2 3.187317 1_665
Ag11 Ag8 3.203043 1_565
Ag11 Ag8 3.203043 1_455
Ag11 Ca1 3.214015 1_555
Ag11 Ca2 3.221007 1_565
Ag11 Ca2 3.252832 1_555
Ag12 Ag8 2.825208 1_455
Ag12 Ag3 2.926475 1_455
Ag12 Ag5 2.928294 1_555
Ag12 Ag7 3.119006 1_555
Ag12 Ca1 3.187316 1_445
Ag12 Ag7 3.203043 1_565
Ag12 Ag7 3.203043 1_455
Ag12 Ca2 3.214015 1_555
Ag12 Ca1 3.221007 1_455
Ag12 Ca1 3.252832 1_555
Ag13 Ag9 2.825208 1_654
Ag13 Ag2 2.926475 1_655
Ag13 Ag4 2.928294 1_555
Ag13 Ag6 3.119006 1_555
Ag13 Ca0 3.187316 1_665
Ag13 Ag6 3.203043 1_545
Ag13 Ag6 3.203043 1_655
Ag13 Ca3 3.214015 1_554
Ag13 Ca0 3.221007 1_655
Ag13 Ca0 3.252832 1_555
