# generated using pymatgen
data_SrGdCuS3
_symmetry_space_group_name_H-M   'P 1'
_cell_length_a   3.96044000
_cell_length_b   10.36220200
_cell_length_c   12.97143300
_cell_angle_alpha   90.00000000
_cell_angle_beta   90.00000000
_cell_angle_gamma   90.00000000
_symmetry_Int_Tables_number   1
_chemical_formula_structural   SrGdCuS3
_chemical_formula_sum   'Sr4 Gd4 Cu4 S12'
_cell_volume   532.33307309
_cell_formula_units_Z   4
loop_
 _symmetry_equiv_pos_site_id
 _symmetry_equiv_pos_as_xyz
  1  'x, y, z'
loop_
 _atom_site_type_symbol
 _atom_site_label
 _atom_site_symmetry_multiplicity
 _atom_site_fract_x
 _atom_site_fract_y
 _atom_site_fract_z
 _atom_site_occupancy
  Sr  Sr0  1  0.25000000  0.77639500  0.50153700  1
  Sr  Sr1  1  0.25000000  0.27639500  0.99846300  1
  Sr  Sr2  1  0.75000000  0.22360500  0.49846300  1
  Sr  Sr3  1  0.75000000  0.72360500  0.00153700  1
  Gd  Gd0  1  0.25000000  0.51393100  0.25988300  1
  Gd  Gd1  1  0.25000000  0.01393100  0.24011700  1
  Gd  Gd2  1  0.75000000  0.48606900  0.74011700  1
  Gd  Gd3  1  0.75000000  0.98606900  0.75988300  1
  Cu  Cu0  1  0.25000000  0.73652400  0.77847200  1
  Cu  Cu1  1  0.25000000  0.23652400  0.72152800  1
  Cu  Cu2  1  0.75000000  0.26347600  0.22152800  1
  Cu  Cu3  1  0.75000000  0.76347600  0.27847200  1
  S  S0  1  0.25000000  0.55315000  0.88169500  1
  S  S1  1  0.25000000  0.05315000  0.61830500  1
  S  S2  1  0.75000000  0.44685000  0.11830500  1
  S  S3  1  0.75000000  0.94685000  0.38169500  1
  S  S4  1  0.25000000  0.75920300  0.17396600  1
  S  S5  1  0.25000000  0.25920300  0.32603400  1
  S  S6  1  0.75000000  0.24079700  0.82603400  1
  S  S7  1  0.75000000  0.74079700  0.67396600  1
  S  S8  1  0.25000000  0.90858300  0.89255300  1
  S  S9  1  0.25000000  0.40858300  0.60744700  1
  S  S10  1  0.75000000  0.09141700  0.10744700  1
  S  S11  1  0.75000000  0.59141700  0.39255300  1
loop_
_geom_bond_atom_site_label_1
_geom_bond_atom_site_label_2
_geom_bond_distance
_geom_bond_site_symmetry_2
Gd0 S11 2.743634 1_455
Gd0 S11 2.743634 1_555
Gd0 S4 2.775167 1_555
Gd0 S5 2.775514 1_555
Gd0 S2 2.788739 1_555
Gd0 S2 2.788739 1_455
Gd1 S10 2.743634 1_555
Gd1 S10 2.743634 1_455
Gd1 S5 2.775167 1_555
Gd1 S4 2.775514 1_545
Gd1 S3 2.788739 1_445
Gd1 S3 2.788739 1_545
Gd2 S9 2.743634 1_555
Gd2 S9 2.743634 1_655
Gd2 S6 2.775167 1_555
Gd2 S7 2.775514 1_555
Gd2 S0 2.788739 1_655
Gd2 S0 2.788739 1_555
Gd3 S8 2.743634 1_555
Gd3 S8 2.743634 1_655
Gd3 S7 2.775167 1_555
Gd3 S6 2.775514 1_565
Gd3 S1 2.788739 1_565
Gd3 S1 2.788739 1_665
Cu0 S8 2.317015 1_555
Cu0 S0 2.324519 1_555
Cu0 S7 2.400180 1_455
Cu0 S7 2.400180 1_555
Cu1 S9 2.317015 1_555
Cu1 S1 2.324519 1_555
Cu1 S6 2.400180 1_555
Cu1 S6 2.400180 1_455
Cu2 S10 2.317015 1_555
Cu2 S2 2.324519 1_555
Cu2 S5 2.400180 1_555
Cu2 S5 2.400180 1_655
Cu3 S11 2.317015 1_555
Cu3 S3 2.324519 1_555
Cu3 S4 2.400180 1_555
Cu3 S4 2.400180 1_655
S0 Sr3 3.075319 1_556
S0 Sr3 3.075319 1_456
S0 Sr1 3.243206 1_555
S1 Sr2 3.075319 1_455
S1 Sr2 3.075319 1_555
S1 Sr0 3.243206 1_545
S2 Sr1 3.075319 1_554
S2 Sr1 3.075319 1_654
S2 Sr3 3.243206 1_555
S3 Sr0 3.075319 1_655
S3 Sr0 3.075319 1_555
S3 Sr2 3.243206 1_565
S4 Sr3 3.009975 1_455
S4 Sr3 3.009975 1_555
S5 Sr2 3.009975 1_455
S5 Sr2 3.009975 1_555
S6 Sr1 3.009975 1_655
S6 Sr1 3.009975 1_555
S7 Sr0 3.009975 1_655
S7 Sr0 3.009975 1_555
S8 Sr3 3.097386 1_456
S8 Sr3 3.097386 1_556
S9 Sr2 3.097386 1_455
S9 Sr2 3.097386 1_555
S10 Sr1 3.097386 1_654
S10 Sr1 3.097386 1_554
S11 Sr0 3.097386 1_655
S11 Sr0 3.097386 1_555
