# generated using pymatgen
data_LiMn8O16
_symmetry_space_group_name_H-M   'P 1'
_cell_length_a   5.86495100
_cell_length_b   5.86495100
_cell_length_c   8.26001300
_cell_angle_alpha   90.00000000
_cell_angle_beta   90.00000000
_cell_angle_gamma   90.00000000
_symmetry_Int_Tables_number   1
_chemical_formula_structural   LiMn8O16
_chemical_formula_sum   'Li1 Mn8 O16'
_cell_volume   284.12503809
_cell_formula_units_Z   1
loop_
 _symmetry_equiv_pos_site_id
 _symmetry_equiv_pos_as_xyz
  1  'x, y, z'
loop_
 _atom_site_type_symbol
 _atom_site_label
 _atom_site_symmetry_multiplicity
 _atom_site_fract_x
 _atom_site_fract_y
 _atom_site_fract_z
 _atom_site_occupancy
  Li  Li0  1  0.50000000  0.50000000  0.50000000  1
  Mn  Mn0  1  0.24747000  0.00000000  0.37408900  1
  Mn  Mn1  1  0.75094200  0.50000000  0.87669100  1
  Mn  Mn2  1  0.75253000  0.00000000  0.37408900  1
  Mn  Mn3  1  0.24905800  0.50000000  0.87669100  1
  Mn  Mn4  1  0.50000000  0.24905800  0.12330900  1
  Mn  Mn5  1  0.00000000  0.75253000  0.62591100  1
  Mn  Mn6  1  0.50000000  0.75094200  0.12330900  1
  Mn  Mn7  1  0.00000000  0.24747000  0.62591100  1
  O  O0  1  0.72013600  0.00000000  0.13896500  1
  O  O1  1  0.22433800  0.50000000  0.63917800  1
  O  O2  1  0.27986400  0.00000000  0.13896500  1
  O  O3  1  0.77566200  0.50000000  0.63917800  1
  O  O4  1  0.50000000  0.77566200  0.36082200  1
  O  O5  1  0.00000000  0.27986400  0.86103500  1
  O  O6  1  0.50000000  0.22433800  0.36082200  1
  O  O7  1  0.00000000  0.72013600  0.86103500  1
  O  O8  1  0.27999300  0.50000000  0.11119200  1
  O  O9  1  0.77658000  0.00000000  0.60975200  1
  O  O10  1  0.72000700  0.50000000  0.11119200  1
  O  O11  1  0.22342000  0.00000000  0.60975200  1
  O  O12  1  0.50000000  0.72000700  0.88880800  1
  O  O13  1  0.00000000  0.22342000  0.39024800  1
  O  O14  1  0.50000000  0.27999300  0.88880800  1
  O  O15  1  0.00000000  0.77658000  0.39024800  1
loop_
_geom_bond_atom_site_label_1
_geom_bond_atom_site_label_2
_geom_bond_distance
_geom_bond_site_symmetry_2
Li0 O6 1.983802 1_555
Li0 O3 1.983802 1_555
Li0 O4 1.983802 1_555
Li0 O1 1.983802 1_555
Mn0 O2 1.951398 1_555
Mn0 O11 1.951683 1_555
Mn0 O15 1.959945 1_545
Mn0 O13 1.959945 1_555
Mn0 O6 1.984123 1_555
Mn0 O4 1.984123 1_545
Mn1 O10 1.945460 1_556
Mn1 O5 1.953794 1_655
Mn1 O7 1.953794 1_655
Mn1 O12 1.959861 1_555
Mn1 O14 1.959861 1_555
Mn1 O3 1.967210 1_555
Mn2 O0 1.951398 1_555
Mn2 O9 1.951683 1_555
Mn2 O15 1.959945 1_645
Mn2 O13 1.959945 1_655
Mn2 O6 1.984123 1_555
Mn2 O4 1.984123 1_545
Mn3 O8 1.945460 1_556
Mn3 O7 1.953794 1_555
Mn3 O5 1.953794 1_555
Mn3 O12 1.959861 1_555
Mn3 O14 1.959861 1_555
Mn3 O1 1.967210 1_555
Mn4 O14 1.945460 1_554
Mn4 O2 1.953794 1_555
Mn4 O0 1.953794 1_555
Mn4 O10 1.959861 1_555
Mn4 O8 1.959861 1_555
Mn4 O6 1.967210 1_555
Mn5 O7 1.951398 1_555
Mn5 O15 1.951683 1_555
Mn5 O9 1.959945 1_465
Mn5 O11 1.959945 1_565
Mn5 O1 1.984123 1_555
Mn5 O3 1.984123 1_455
Mn6 O12 1.945460 1_554
Mn6 O0 1.953794 1_565
Mn6 O2 1.953794 1_565
Mn6 O10 1.959861 1_555
Mn6 O8 1.959861 1_555
Mn6 O4 1.967210 1_555
Mn7 O5 1.951398 1_555
Mn7 O13 1.951683 1_555
Mn7 O9 1.959945 1_455
Mn7 O11 1.959945 1_555
Mn7 O1 1.984123 1_555
Mn7 O3 1.984123 1_455
