# generated using pymatgen
data_Pr5Al4(AgGe2)2
_symmetry_space_group_name_H-M   'P 1'
_cell_length_a   19.18435295
_cell_length_b   19.18435295
_cell_length_c   4.30981400
_cell_angle_alpha   90.00000000
_cell_angle_beta   90.00000000
_cell_angle_gamma   167.03533933
_symmetry_Int_Tables_number   1
_chemical_formula_structural   Pr5Al4(AgGe2)2
_chemical_formula_sum   'Pr5 Al4 Ag2 Ge4'
_cell_volume   355.85983699
_cell_formula_units_Z   1
loop_
 _symmetry_equiv_pos_site_id
 _symmetry_equiv_pos_as_xyz
  1  'x, y, z'
loop_
 _atom_site_type_symbol
 _atom_site_label
 _atom_site_symmetry_multiplicity
 _atom_site_fract_x
 _atom_site_fract_y
 _atom_site_fract_z
 _atom_site_occupancy
  Pr  Pr0  1  0.99380700  0.00619300  0.00000000  1
  Pr  Pr1  1  0.60502700  0.39497300  0.00000000  1
  Pr  Pr2  1  0.20390400  0.79609600  0.00000000  1
  Pr  Pr3  1  0.80081100  0.19918900  0.00000000  1
  Pr  Pr4  1  0.39795500  0.60204500  0.00000000  1
  Al  Al0  1  0.26809300  0.73190700  0.50000000  1
  Al  Al1  1  0.86570700  0.13429300  0.50000000  1
  Al  Al2  1  0.46455200  0.53544800  0.50000000  1
  Al  Al3  1  0.53218800  0.46781200  0.50000000  1
  Ag  Ag0  1  0.06567600  0.93432400  0.50000000  1
  Ag  Ag1  1  0.66892000  0.33108000  0.50000000  1
  Ge  Ge0  1  0.13346700  0.86653300  0.50000000  1
  Ge  Ge1  1  0.73578300  0.26421700  0.50000000  1
  Ge  Ge2  1  0.33363800  0.66636200  0.50000000  1
  Ge  Ge3  1  0.93098500  0.06901500  0.50000000  1
loop_
_geom_bond_atom_site_label_1
_geom_bond_atom_site_label_2
_geom_bond_distance
_geom_bond_site_symmetry_2
Al0 Ge1 2.491619 1_455
Al0 Ge1 2.491619 1_565
Al0 Ge2 2.498799 1_555
Al0 Pr2 3.260665 1_556
Al0 Pr2 3.260665 1_555
Al0 Pr3 3.300053 1_565
Al0 Pr3 3.300053 1_566
Al0 Pr3 3.300053 1_456
Al0 Pr3 3.300053 1_455
Al1 Ge2 2.487090 1_655
Al1 Ge2 2.487090 1_545
Al1 Ge3 2.488620 1_555
Al1 Pr3 3.280942 1_556
Al1 Pr3 3.280942 1_555
Al1 Pr4 3.293322 1_656
Al1 Pr4 3.293322 1_655
Al1 Pr4 3.293322 1_546
Al1 Pr4 3.293322 1_545
Al2 Ge3 2.515654 1_455
Al2 Ge3 2.515654 1_565
Al2 Al3 2.578515 1_555
Al2 Pr0 3.252450 1_456
Al2 Pr0 3.252450 1_455
Al2 Pr0 3.252450 1_566
Al2 Pr0 3.252450 1_565
Al2 Pr4 3.330114 1_555
Al2 Pr4 3.330114 1_556
Al3 Pr0 3.387556 1_566
Al3 Pr0 3.387556 1_565
Al3 Pr0 3.387556 1_456
Al3 Pr0 3.387556 1_455
Al3 Pr1 3.514916 1_556
Al3 Pr1 3.514916 1_555
Ag0 Al3 2.514124 1_455
Ag0 Al3 2.514124 1_565
Ag0 Ge0 2.584424 1_555
Ag0 Pr1 3.403692 1_456
Ag0 Pr1 3.403692 1_455
Ag0 Pr1 3.403692 1_565
Ag0 Pr1 3.403692 1_566
Ag0 Pr0 3.485775 1_465
Ag0 Pr0 3.485775 1_466
Ag1 Ge1 2.549045 1_555
Ag1 Ge0 2.552980 1_655
Ag1 Ge0 2.552980 1_545
Ag1 Pr1 3.252205 1_555
Ag1 Pr1 3.252205 1_556
Ag1 Pr2 3.333665 1_655
Ag1 Pr2 3.333665 1_656
Ag1 Pr2 3.333665 1_546
Ag1 Pr2 3.333665 1_545
Ge0 Pr1 3.241927 1_565
Ge0 Pr1 3.241927 1_566
Ge0 Pr1 3.241927 1_456
Ge0 Pr1 3.241927 1_455
Ge0 Pr2 3.443029 1_555
Ge0 Pr2 3.443029 1_556
Ge1 Pr3 3.284738 1_556
Ge1 Pr3 3.284738 1_555
Ge1 Pr2 3.288097 1_655
Ge1 Pr2 3.288097 1_656
Ge1 Pr2 3.288097 1_545
Ge1 Pr2 3.288097 1_546
Ge2 Pr4 3.264329 1_556
Ge2 Pr4 3.264329 1_555
Ge2 Pr3 3.301626 1_566
Ge2 Pr3 3.301626 1_565
Ge2 Pr3 3.301626 1_456
Ge2 Pr3 3.301626 1_455
Ge3 Pr0 3.221738 1_555
Ge3 Pr0 3.221738 1_556
Ge3 Pr4 3.304567 1_546
Ge3 Pr4 3.304567 1_656
Ge3 Pr4 3.304567 1_655
Ge3 Pr4 3.304567 1_545
