# generated using pymatgen
data_ErBi3
_symmetry_space_group_name_H-M   'P 1'
_cell_length_a   6.82324295
_cell_length_b   6.82324295
_cell_length_c   6.00464500
_cell_angle_alpha   90.00000000
_cell_angle_beta   90.00000000
_cell_angle_gamma   120.00000917
_symmetry_Int_Tables_number   1
_chemical_formula_structural   ErBi3
_chemical_formula_sum   'Er2 Bi6'
_cell_volume   242.10268053
_cell_formula_units_Z   2
loop_
 _symmetry_equiv_pos_site_id
 _symmetry_equiv_pos_as_xyz
  1  'x, y, z'
loop_
 _atom_site_type_symbol
 _atom_site_label
 _atom_site_symmetry_multiplicity
 _atom_site_fract_x
 _atom_site_fract_y
 _atom_site_fract_z
 _atom_site_occupancy
  Er  Er0  1  0.33333300  0.66666700  0.75000000  1
  Er  Er1  1  0.66666700  0.33333300  0.25000000  1
  Bi  Bi0  1  0.17255400  0.34510800  0.25000000  1
  Bi  Bi1  1  0.65489200  0.82744600  0.25000000  1
  Bi  Bi2  1  0.17255400  0.82744600  0.25000000  1
  Bi  Bi3  1  0.82744600  0.65489200  0.75000000  1
  Bi  Bi4  1  0.34510800  0.17255400  0.75000000  1
  Bi  Bi5  1  0.82744600  0.17255400  0.75000000  1
loop_
_geom_bond_atom_site_label_1
_geom_bond_atom_site_label_2
_geom_bond_distance
_geom_bond_site_symmetry_2
Bi0 Er1 3.412328 1_455
Bi0 Er1 3.412334 1_555
Bi0 Er0 3.553085 1_554
Bi0 Er0 3.553085 1_555
Bi1 Er1 3.412328 1_565
Bi1 Er1 3.412334 1_555
Bi1 Er0 3.553085 1_555
Bi1 Er0 3.553085 1_554
Bi2 Er1 3.412330 1_455
Bi2 Er1 3.412330 1_565
Bi2 Er0 3.553082 1_554
Bi2 Er0 3.553082 1_555
Bi3 Er0 3.412328 1_655
Bi3 Er0 3.412334 1_555
Bi3 Er1 3.553085 1_556
Bi3 Er1 3.553085 1_555
Bi4 Er0 3.412328 1_545
Bi4 Er0 3.412334 1_555
Bi4 Er1 3.553085 1_555
Bi4 Er1 3.553085 1_556
Bi5 Er0 3.412330 1_545
Bi5 Er0 3.412330 1_655
Bi5 Er1 3.553082 1_556
Bi5 Er1 3.553082 1_555
