# generated using pymatgen
data_K2Gd2Sb2Se9
_symmetry_space_group_name_H-M   'P 1'
_cell_length_a   8.46970366
_cell_length_b   12.31315854
_cell_length_c   18.34449629
_cell_angle_alpha   85.36898298
_cell_angle_beta   76.65280024
_cell_angle_gamma   69.88357069
_symmetry_Int_Tables_number   1
_chemical_formula_structural   K2Gd2Sb2Se9
_chemical_formula_sum   'K8 Gd8 Sb8 Se36'
_cell_volume   1747.89179182
_cell_formula_units_Z   4
loop_
 _symmetry_equiv_pos_site_id
 _symmetry_equiv_pos_as_xyz
  1  'x, y, z'
loop_
 _atom_site_type_symbol
 _atom_site_label
 _atom_site_symmetry_multiplicity
 _atom_site_fract_x
 _atom_site_fract_y
 _atom_site_fract_z
 _atom_site_occupancy
  K  K0  1  0.63699918  0.28234465  0.94368212  1
  K  K1  1  0.13697404  0.28234465  0.94368212  1
  K  K2  1  0.36300082  0.71765535  0.05631788  1
  K  K3  1  0.86302596  0.71765535  0.05631788  1
  K  K4  1  0.08197953  0.78256428  0.55665355  1
  K  K5  1  0.57880263  0.78256428  0.55665355  1
  K  K6  1  0.91802047  0.21743572  0.44334645  1
  K  K7  1  0.42119737  0.21743572  0.44334645  1
  Gd  Gd0  1  0.04284747  0.61641393  0.79679440  1
  Gd  Gd1  1  0.54394420  0.61641393  0.79679440  1
  Gd  Gd2  1  0.95715253  0.38358607  0.20320560  1
  Gd  Gd3  1  0.45605580  0.38358607  0.20320560  1
  Gd  Gd4  1  0.84102614  0.11641529  0.70351337  1
  Gd  Gd5  1  0.33904521  0.11641529  0.70351337  1
  Gd  Gd6  1  0.15897386  0.88358471  0.29648663  1
  Gd  Gd7  1  0.66095479  0.88358471  0.29648663  1
  Sb  Sb0  1  0.96150532  0.44183926  0.63515009  1
  Sb  Sb1  1  0.03849468  0.55816074  0.36484991  1
  Sb  Sb2  1  0.09750414  0.93907040  0.86592131  1
  Sb  Sb3  1  0.90249586  0.06092960  0.13407869  1
  Sb  Sb4  1  0.46884130  0.45414811  0.60816929  1
  Sb  Sb5  1  0.53115870  0.54585189  0.39183071  1
  Sb  Sb6  1  0.57590164  0.95706864  0.89112807  1
  Sb  Sb7  1  0.42409836  0.04293136  0.10887193  1
  Se  Se0  1  0.82012274  0.48602367  0.87373084  1
  Se  Se1  1  0.17987726  0.51397633  0.12626916  1
  Se  Se2  1  0.60959532  0.18554213  0.59526723  1
  Se  Se3  1  0.39040468  0.81445787  0.40473277  1
  Se  Se4  1  0.32512746  0.47990936  0.86983572  1
  Se  Se5  1  0.67487254  0.52009064  0.13016428  1
  Se  Se6  1  0.19337353  0.98536136  0.62789158  1
  Se  Se7  1  0.80662647  0.01463864  0.37210842  1
  Se  Se8  1  0.70176003  0.68937059  0.90710935  1
  Se  Se9  1  0.29823997  0.31062941  0.09289065  1
  Se  Se10  1  0.69467585  0.98162743  0.62902086  1
  Se  Se11  1  0.30532415  0.01837257  0.37097914  1
  Se  Se12  1  0.20518693  0.67986882  0.90975731  1
  Se  Se13  1  0.79481307  0.32013118  0.09024269  1
  Se  Se14  1  0.11323198  0.18565385  0.58788218  1
  Se  Se15  1  0.88676802  0.81434615  0.41211782  1
  Se  Se16  1  0.82949706  0.65902471  0.68198117  1
  Se  Se17  1  0.17050294  0.34097529  0.31801883  1
  Se  Se18  1  0.50992064  0.15971881  0.82043992  1
  Se  Se19  1  0.49007936  0.84028119  0.17956008  1
  Se  Se20  1  0.33305912  0.65559452  0.67828725  1
  Se  Se21  1  0.66694088  0.34440548  0.32171275  1
  Se  Se22  1  0.01237861  0.15555625  0.81968653  1
  Se  Se23  1  0.98762139  0.84444375  0.18031347  1
  Se  Se24  1  0.70543879  0.38301181  0.71984104  1
  Se  Se25  1  0.19170836  0.38301181  0.71984104  1
  Se  Se26  1  0.29456121  0.61698819  0.28015896  1
  Se  Se27  1  0.80829164  0.61698819  0.28015896  1
  Se  Se28  1  0.92499024  0.88283515  0.78058225  1
  Se  Se29  1  0.41159235  0.88283515  0.78058225  1
  Se  Se30  1  0.07500976  0.11716485  0.21941775  1
  Se  Se31  1  0.58840765  0.11716485  0.21941775  1
  Se  Se32  1  0.27215491  0.50000000  0.50000000  1
  Se  Se33  1  0.72784509  0.50000000  0.50000000  1
  Se  Se34  1  0.72734079  0.00000000  -0.00000000  1
  Se  Se35  1  0.27265921  0.00000000  -0.00000000  1
loop_
_geom_bond_atom_site_label_1
_geom_bond_atom_site_label_2
_geom_bond_distance
_geom_bond_site_symmetry_2
K0 Se18 3.367812 1_555
K0 Se4 3.380860 1_555
K0 Se13 3.394188 1_556
K0 Se22 3.397022 1_655
K0 Se0 3.402798 1_555
K0 Se9 3.418509 1_556
K0 Se34 3.419716 1_556
K1 Se18 3.367812 1_555
K1 Se4 3.380860 1_555
K1 Se13 3.394188 1_456
K1 Se22 3.397022 1_555
K1 Se0 3.402798 1_455
K1 Se9 3.418509 1_556
K1 Se35 3.419716 1_556
K2 Se19 3.367812 1_555
K2 Se5 3.380860 1_555
K2 Se12 3.394188 1_554
K2 Se23 3.397022 1_455
K2 Se1 3.402798 1_555
K2 Se8 3.418509 1_554
K2 Se35 3.419716 1_565
K3 Se19 3.367812 1_555
K3 Se5 3.380860 1_555
K3 Se12 3.394188 1_654
K3 Se23 3.397022 1_555
K3 Se1 3.402798 1_655
K3 Se8 3.418509 1_554
K3 Se34 3.419716 1_565
K4 Se20 3.359441 1_555
K4 Se15 3.365761 1_455
K4 Se10 3.393383 1_455
K4 Se6 3.398536 1_555
K4 Se16 3.402283 1_455
K4 Se32 3.425776 1_555
K4 Se3 3.451477 1_555
K5 Se20 3.359441 1_555
K5 Se15 3.365761 1_555
K5 Se10 3.393383 1_555
K5 Se6 3.398536 1_555
K5 Se16 3.402283 1_555
K5 Se33 3.425776 1_555
K5 Se3 3.451477 1_555
K6 Se21 3.359441 1_555
K6 Se14 3.365761 1_655
K6 Se11 3.393383 1_655
K6 Se7 3.398536 1_555
K6 Se17 3.402283 1_655
K6 Se33 3.425776 1_555
K6 Se2 3.451477 1_555
K7 Se21 3.359441 1_555
K7 Se14 3.365761 1_555
K7 Se11 3.393383 1_555
K7 Se7 3.398536 1_555
K7 Se17 3.402283 1_555
K7 Se32 3.425776 1_555
K7 Se2 3.451477 1_555
Gd0 Se0 2.935357 1_455
Gd0 Se4 2.947496 1_555
Gd0 Se16 2.983828 1_455
Gd0 Se8 3.009529 1_455
Gd0 Se12 3.018469 1_555
Gd0 Se20 3.029818 1_555
Gd0 Se25 3.030311 1_555
Gd0 Se28 3.094110 1_455
Gd1 Se0 2.935357 1_555
Gd1 Se4 2.947496 1_555
Gd1 Se16 2.983828 1_555
Gd1 Se8 3.009529 1_555
Gd1 Se12 3.018469 1_555
Gd1 Se20 3.029818 1_555
Gd1 Se24 3.030311 1_555
Gd1 Se29 3.094110 1_555
Gd2 Se1 2.935357 1_655
Gd2 Se5 2.947496 1_555
Gd2 Se17 2.983828 1_655
Gd2 Se9 3.009529 1_655
Gd2 Se13 3.018469 1_555
Gd2 Se21 3.029818 1_555
Gd2 Se27 3.030311 1_555
Gd2 Se30 3.094110 1_655
Gd3 Se1 2.935357 1_555
Gd3 Se5 2.947496 1_555
Gd3 Se17 2.983828 1_555
Gd3 Se9 3.009529 1_555
Gd3 Se13 3.018469 1_555
Gd3 Se21 3.029818 1_555
Gd3 Se26 3.030311 1_555
Gd3 Se31 3.094110 1_555
Gd4 Se6 2.927781 1_645
Gd4 Se10 2.953256 1_545
Gd4 Se2 2.980989 1_555
Gd4 Se22 2.992541 1_655
Gd4 Se18 3.021339 1_555
Gd4 Se28 3.029396 1_545
Gd4 Se14 3.056751 1_655
Gd4 Se24 3.096962 1_555
Gd5 Se6 2.927781 1_545
Gd5 Se10 2.953256 1_545
Gd5 Se2 2.980989 1_555
Gd5 Se22 2.992541 1_555
Gd5 Se18 3.021339 1_555
Gd5 Se29 3.029396 1_545
Gd5 Se14 3.056751 1_555
Gd5 Se25 3.096962 1_555
Gd6 Se7 2.927781 1_465
Gd6 Se11 2.953256 1_565
Gd6 Se3 2.980989 1_555
Gd6 Se23 2.992541 1_455
Gd6 Se19 3.021339 1_555
Gd6 Se30 3.029396 1_565
Gd6 Se15 3.056751 1_455
Gd6 Se26 3.096962 1_555
Gd7 Se7 2.927781 1_565
Gd7 Se11 2.953256 1_565
Gd7 Se3 2.980989 1_555
Gd7 Se23 2.992541 1_555
Gd7 Se19 3.021339 1_555
Gd7 Se31 3.029396 1_565
Gd7 Se15 3.056751 1_555
Gd7 Se27 3.096962 1_555
Sb0 Se24 2.642974 1_555
Sb0 Se25 2.642975 1_655
Sb0 Se16 2.647733 1_555
Sb0 Se14 3.081020 1_655
Sb1 Se26 2.642974 1_555
Sb1 Se27 2.642975 1_455
Sb1 Se17 2.647733 1_555
Sb1 Se15 3.081020 1_455
Sb2 Se22 2.634392 1_565
Sb2 Se29 2.644292 1_555
Sb2 Se28 2.644292 1_455
Sb2 Se12 3.096232 1_555
Sb3 Se23 2.634392 1_545
Sb3 Se30 2.644292 1_655
Sb3 Se31 2.644292 1_555
Sb3 Se13 3.096232 1_555
Sb4 Se20 2.645699 1_555
Sb4 Se32 2.780242 1_555
Sb4 Se33 2.780242 1_555
Sb4 Se25 3.062308 1_555
Sb4 Se24 3.062308 1_555
Sb4 Se2 3.114487 1_555
Sb5 Se21 2.645699 1_555
Sb5 Se33 2.780242 1_555
Sb5 Se32 2.780242 1_555
Sb5 Se26 3.062308 1_555
Sb5 Se27 3.062308 1_555
Sb5 Se3 3.114487 1_555
Sb6 Se18 2.659526 1_565
Sb6 Se35 2.780835 1_566
Sb6 Se34 2.780835 1_566
Sb6 Se28 3.059717 1_555
Sb6 Se29 3.059717 1_555
Sb6 Se8 3.107825 1_555
Sb7 Se19 2.659526 1_545
Sb7 Se34 2.780835 1_555
Sb7 Se35 2.780835 1_555
Sb7 Se30 3.059717 1_555
Sb7 Se31 3.059717 1_555
Sb7 Se9 3.107825 1_555
Se0 Se8 2.426256 1_555
Se1 Se9 2.426256 1_555
Se10 Se2 2.432564 1_565
Se11 Se3 2.432564 1_545
Se12 Se4 2.420250 1_555
Se13 Se5 2.420250 1_555
Se14 Se6 2.422389 1_545
Se15 Se7 2.422389 1_565
