# generated using pymatgen
data_La2Mn2O5
_symmetry_space_group_name_H-M   'P 1'
_cell_length_a   5.76917728
_cell_length_b   5.93765931
_cell_length_c   8.88987203
_cell_angle_alpha   109.48095319
_cell_angle_beta   71.06235755
_cell_angle_gamma   89.96787378
_symmetry_Int_Tables_number   1
_chemical_formula_structural   La2Mn2O5
_chemical_formula_sum   'La4 Mn4 O10'
_cell_volume   269.52459928
_cell_formula_units_Z   2
loop_
 _symmetry_equiv_pos_site_id
 _symmetry_equiv_pos_as_xyz
  1  'x, y, z'
loop_
 _atom_site_type_symbol
 _atom_site_label
 _atom_site_symmetry_multiplicity
 _atom_site_fract_x
 _atom_site_fract_y
 _atom_site_fract_z
 _atom_site_occupancy
  La  La0  1  0.36941300  0.12689400  0.22473000  1
  La  La1  1  0.59503400  0.87268000  0.77540000  1
  La  La2  1  0.87028700  0.59742100  0.22457700  1
  La  La3  1  0.09408100  0.40231100  0.77536500  1
  Mn  Mn0  1  0.21728500  0.79630700  0.50025100  1
  Mn  Mn1  1  0.00023400  0.99923600  0.99895000  1
  Mn  Mn2  1  0.49943200  0.50020300  0.00094700  1
  Mn  Mn3  1  0.71628100  0.20197900  0.49987200  1
  O  O0  1  0.35473500  0.13011100  0.50001400  1
  O  O1  1  0.85499400  0.86982500  0.49993600  1
  O  O2  1  0.26822900  0.23447600  0.94489100  1
  O  O3  1  0.21289200  0.76631300  0.05560800  1
  O  O4  1  0.76856300  0.21060400  0.94422200  1
  O  O5  1  0.71316800  0.78946300  0.05511100  1
  O  O6  1  0.93226800  0.24850600  0.28309100  1
  O  O7  1  0.21406300  0.75294500  0.71767300  1
  O  O8  1  0.43156500  0.53514100  0.28240600  1
  O  O9  1  0.71547200  0.46558600  0.71695700  1
loop_
_geom_bond_atom_site_label_1
_geom_bond_atom_site_label_2
_geom_bond_distance
_geom_bond_site_symmetry_2
La0 O8 2.357693 1_555
La0 O0 2.414710 1_555
La0 O6 2.459614 1_455
La0 O5 2.502086 1_545
La0 O3 2.529057 1_545
La0 O4 2.978082 1_554
La0 O2 2.989938 1_554
La1 O9 2.349823 1_555
La1 O1 2.415535 1_555
La1 O7 2.467800 1_555
La1 O4 2.499915 1_565
La1 O2 2.536235 1_565
La1 O5 2.968318 1_556
La1 O3 2.991786 1_556
La2 O6 2.351436 1_555
La2 O1 2.415569 1_555
La2 O8 2.467914 1_555
La2 O3 2.499714 1_655
La2 O5 2.534271 1_555
La2 O2 2.968578 1_654
La2 O4 2.994017 1_554
La3 O7 2.357977 1_555
La3 O0 2.415504 1_555
La3 O9 2.459089 1_455
La3 O2 2.501428 1_555
La3 O4 2.527475 1_455
La3 O3 2.977662 1_556
La3 O5 2.988698 1_456
Mn0 O7 2.027602 1_555
Mn0 O8 2.030833 1_555
Mn0 O0 2.135569 1_565
Mn0 O1 2.136062 1_455
Mn1 O5 2.103299 1_456
Mn1 O4 2.103719 1_465
Mn1 O3 2.129657 1_556
Mn1 O2 2.130787 1_565
Mn1 O7 2.338754 1_555
Mn1 O6 2.363849 1_466
Mn2 O2 2.103879 1_554
Mn2 O3 2.104531 1_555
Mn2 O4 2.128923 1_554
Mn2 O5 2.130351 1_555
Mn2 O8 2.339834 1_555
Mn2 O9 2.362342 1_554
Mn3 O6 2.034637 1_555
Mn3 O9 2.038057 1_555
Mn3 O1 2.128223 1_545
Mn3 O0 2.128944 1_555
