# generated using pymatgen
data_GaAuO2
_symmetry_space_group_name_H-M   'P 1'
_cell_length_a   3.00643404
_cell_length_b   3.00643380
_cell_length_c   12.33482165
_cell_angle_alpha   90.00000000
_cell_angle_beta   90.00000000
_cell_angle_gamma   119.99999169
_symmetry_Int_Tables_number   1
_chemical_formula_structural   GaAuO2
_chemical_formula_sum   'Ga2 Au2 O4'
_cell_volume   96.55324343
_cell_formula_units_Z   2
loop_
 _symmetry_equiv_pos_site_id
 _symmetry_equiv_pos_as_xyz
  1  'x, y, z'
loop_
 _atom_site_type_symbol
 _atom_site_label
 _atom_site_symmetry_multiplicity
 _atom_site_fract_x
 _atom_site_fract_y
 _atom_site_fract_z
 _atom_site_occupancy
  Ga  Ga0  1  0.00000000  -0.00000000  -0.00000000  1
  Ga  Ga1  1  0.00000000  -0.00000000  0.50000000  1
  Au  Au0  1  0.66666700  0.33333300  0.75000000  1
  Au  Au1  1  0.33333300  0.66666700  0.25000000  1
  O  O0  1  0.33333300  0.66666700  0.41958220  1
  O  O1  1  0.66666700  0.33333300  0.91958220  1
  O  O2  1  0.33333300  0.66666700  0.08041780  1
  O  O3  1  0.66666700  0.33333300  0.58041780  1
loop_
_geom_bond_atom_site_label_1
_geom_bond_atom_site_label_2
_geom_bond_distance
_geom_bond_site_symmetry_2
Ga0 O1 1.999205 1_454
Ga0 O2 1.999205 1_545
Ga0 O1 1.999207 1_444
Ga0 O2 1.999207 1_555
Ga0 O1 1.999207 1_554
Ga0 O2 1.999207 1_445
Ga1 O3 1.999205 1_455
Ga1 O0 1.999205 1_545
Ga1 O0 1.999207 1_555
Ga1 O3 1.999207 1_445
Ga1 O0 1.999207 1_445
Ga1 O3 1.999207 1_555
Au0 O1 2.091766 1_555
Au0 O3 2.091766 1_555
Au1 O2 2.091766 1_555
Au1 O0 2.091766 1_555
