# generated using pymatgen
data_Te8MoW3
_symmetry_space_group_name_H-M   'P 1'
_cell_length_a   3.56202431
_cell_length_b   3.56202431
_cell_length_c   39.19310511
_cell_angle_alpha   90.00000000
_cell_angle_beta   90.00000000
_cell_angle_gamma   120.00000718
_symmetry_Int_Tables_number   1
_chemical_formula_structural   Te8MoW3
_chemical_formula_sum   'Te8 Mo1 W3'
_cell_volume   430.65949803
_cell_formula_units_Z   1
loop_
 _symmetry_equiv_pos_site_id
 _symmetry_equiv_pos_as_xyz
  1  'x, y, z'
loop_
 _atom_site_type_symbol
 _atom_site_label
 _atom_site_symmetry_multiplicity
 _atom_site_fract_x
 _atom_site_fract_y
 _atom_site_fract_z
 _atom_site_occupancy
  Te  Te0  1  -0.00000000  0.00000000  0.32769256  1
  Te  Te1  1  -0.00000000  0.00000000  0.70339702  1
  Te  Te2  1  0.33333300  0.66666700  0.04743773  1
  Te  Te3  1  0.33333300  0.66666700  0.42443749  1
  Te  Te4  1  0.33333300  0.66666700  0.13886321  1
  Te  Te5  1  0.33333300  0.66666700  0.51603169  1
  Te  Te6  1  -0.00000000  0.00000000  0.23606545  1
  Te  Te7  1  -0.00000000  0.00000000  0.61189895  1
  Mo  Mo0  1  -0.00000000  0.00000000  0.09312345  1
  W  W0  1  -0.00000000  0.00000000  0.47023725  1
  W  W1  1  0.33333300  0.66666700  0.28189882  1
  W  W2  1  0.33333300  0.66666700  0.65766338  1
loop_
_geom_bond_atom_site_label_1
_geom_bond_atom_site_label_2
_geom_bond_distance
_geom_bond_site_symmetry_2
Te0 W1 2.729585 1_545
Te0 W1 2.729587 1_555
Te0 W1 2.729587 1_445
Te1 W2 2.728037 1_545
Te1 W2 2.728039 1_555
Te1 W2 2.728039 1_445
Te3 W0 2.729740 1_565
Te3 W0 2.729742 1_665
Te3 W0 2.729742 1_555
Te5 W0 2.729603 1_565
Te5 W0 2.729605 1_665
Te5 W0 2.729605 1_555
Te6 W1 2.730606 1_545
Te6 W1 2.730609 1_555
Te6 W1 2.730609 1_445
Te7 W2 2.728830 1_545
Te7 W2 2.728832 1_445
Te7 W2 2.728832 1_555
Mo0 Te2 2.726803 1_545
Mo0 Te2 2.726805 1_555
Mo0 Te2 2.726805 1_445
Mo0 Te4 2.728194 1_545
Mo0 Te4 2.728196 1_445
Mo0 Te4 2.728196 1_555
