# generated using pymatgen
data_LiMg6BiO8
_symmetry_space_group_name_H-M   'P 1'
_cell_length_a   8.84572009
_cell_length_b   4.43043222
_cell_length_c   4.43043222
_cell_angle_alpha   90.00000000
_cell_angle_beta   90.00000000
_cell_angle_gamma   90.00000000
_symmetry_Int_Tables_number   1
_chemical_formula_structural   LiMg6BiO8
_chemical_formula_sum   'Li1 Mg6 Bi1 O8'
_cell_volume   173.63024826
_cell_formula_units_Z   1
loop_
 _symmetry_equiv_pos_site_id
 _symmetry_equiv_pos_as_xyz
  1  'x, y, z'
loop_
 _atom_site_type_symbol
 _atom_site_label
 _atom_site_symmetry_multiplicity
 _atom_site_fract_x
 _atom_site_fract_y
 _atom_site_fract_z
 _atom_site_occupancy
  Li  Li0  1  0.00000000  0.00000000  0.00000000  1
  Mg  Mg0  1  0.50000000  0.00000000  0.00000000  1
  Mg  Mg1  1  0.50000000  0.50000000  0.50000000  1
  Mg  Mg2  1  0.26233881  0.00000000  0.50000000  1
  Mg  Mg3  1  0.73766119  0.00000000  0.50000000  1
  Mg  Mg4  1  0.26233881  0.50000000  0.00000000  1
  Mg  Mg5  1  0.73766119  0.50000000  0.00000000  1
  Bi  Bi0  1  0.00000000  0.50000000  0.50000000  1
  O  O0  1  0.26236310  0.00000000  0.00000000  1
  O  O1  1  0.73763690  0.00000000  0.00000000  1
  O  O2  1  0.26912884  0.50000000  0.50000000  1
  O  O3  1  0.73087116  0.50000000  0.50000000  1
  O  O4  1  0.00000000  0.00000000  0.50000000  1
  O  O5  1  0.50000000  0.00000000  0.50000000  1
  O  O6  1  0.00000000  0.50000000  0.00000000  1
  O  O7  1  0.50000000  0.50000000  0.00000000  1
loop_
_geom_bond_atom_site_label_1
_geom_bond_atom_site_label_2
_geom_bond_distance
_geom_bond_site_symmetry_2
Li0 O6 2.215216 1_545
Li0 O6 2.215216 1_555
Li0 O4 2.215216 1_555
Li0 O4 2.215216 1_554
Li0 O0 2.320791 1_555
Li0 O1 2.320791 1_455
Mg0 O1 2.102070 1_555
Mg0 O0 2.102070 1_555
Mg0 O7 2.215216 1_555
Mg0 O5 2.215216 1_554
Mg0 O5 2.215216 1_555
Mg0 O7 2.215216 1_545
Mg1 O3 2.042222 1_555
Mg1 O2 2.042222 1_555
Mg1 O7 2.215216 1_555
Mg1 O7 2.215216 1_556
Mg1 O5 2.215216 1_555
Mg1 O5 2.215216 1_565
Mg2 O5 2.102284 1_555
Mg2 O0 2.215216 1_555
Mg2 O0 2.215216 1_556
Mg2 O2 2.216030 1_555
Mg2 O2 2.216030 1_545
Mg2 O4 2.320576 1_555
Mg3 O5 2.102284 1_555
Mg3 O1 2.215216 1_555
Mg3 O1 2.215216 1_556
Mg3 O3 2.216030 1_555
Mg3 O3 2.216030 1_545
Mg3 O4 2.320576 1_655
Mg4 O7 2.102284 1_555
Mg4 O0 2.215216 1_555
Mg4 O0 2.215216 1_565
Mg4 O2 2.216030 1_555
Mg4 O2 2.216030 1_554
Mg4 O6 2.320576 1_555
Mg5 O7 2.102284 1_555
Mg5 O1 2.215216 1_555
Mg5 O1 2.215216 1_565
Mg5 O3 2.216030 1_555
Mg5 O3 2.216030 1_554
Mg5 O6 2.320576 1_655
Bi0 O4 2.215216 1_565
Bi0 O6 2.215216 1_556
Bi0 O6 2.215216 1_555
Bi0 O4 2.215216 1_555
Bi0 O2 2.380638 1_555
Bi0 O3 2.380638 1_455
