# generated using pymatgen
data_Tb(NiSb)2
_symmetry_space_group_name_H-M   'P 1'
_cell_length_a   4.43862000
_cell_length_b   4.43862000
_cell_length_c   9.94358400
_cell_angle_alpha   90.00000000
_cell_angle_beta   90.00000000
_cell_angle_gamma   90.00000000
_symmetry_Int_Tables_number   1
_chemical_formula_structural   Tb(NiSb)2
_chemical_formula_sum   'Tb2 Ni4 Sb4'
_cell_volume   195.90200382
_cell_formula_units_Z   2
loop_
 _symmetry_equiv_pos_site_id
 _symmetry_equiv_pos_as_xyz
  1  'x, y, z'
loop_
 _atom_site_type_symbol
 _atom_site_label
 _atom_site_symmetry_multiplicity
 _atom_site_fract_x
 _atom_site_fract_y
 _atom_site_fract_z
 _atom_site_occupancy
  Tb  Tb0  1  0.00000000  0.50000000  0.23877900  1
  Tb  Tb1  1  0.50000000  0.00000000  0.76122100  1
  Ni  Ni0  1  0.00000000  0.00000000  0.00000000  1
  Ni  Ni1  1  0.50000000  0.50000000  0.00000000  1
  Ni  Ni2  1  0.00000000  0.50000000  0.62364800  1
  Ni  Ni3  1  0.50000000  0.00000000  0.37635200  1
  Sb  Sb0  1  0.00000000  0.00000000  0.50000000  1
  Sb  Sb1  1  0.50000000  0.50000000  0.50000000  1
  Sb  Sb2  1  0.00000000  0.50000000  0.87177600  1
  Sb  Sb3  1  0.50000000  0.00000000  0.12822400  1
loop_
_geom_bond_atom_site_label_1
_geom_bond_atom_site_label_2
_geom_bond_distance
_geom_bond_site_symmetry_2
Ni0 Sb3 2.559488 1_455
Ni0 Sb3 2.559488 1_555
Ni0 Sb2 2.559488 1_544
Ni0 Sb2 2.559488 1_554
Ni0 Tb1 3.250035 1_554
Ni0 Tb1 3.250035 1_454
Ni0 Tb0 3.250035 1_555
Ni0 Tb0 3.250035 1_545
Ni1 Sb2 2.559488 1_654
Ni1 Sb3 2.559488 1_555
Ni1 Sb3 2.559488 1_565
Ni1 Sb2 2.559488 1_554
Ni1 Tb1 3.250035 1_554
Ni1 Tb1 3.250035 1_564
Ni1 Tb0 3.250035 1_555
Ni1 Tb0 3.250035 1_655
Ni2 Sb2 2.467282 1_555
Ni2 Sb0 2.537128 1_555
Ni2 Sb0 2.537128 1_565
Ni2 Sb1 2.537128 1_555
Ni2 Sb1 2.537128 1_455
Ni2 Tb1 3.423742 1_455
Ni2 Tb1 3.423742 1_565
Ni2 Tb1 3.423742 1_555
Ni2 Tb1 3.423742 1_465
Ni3 Sb3 2.467282 1_555
Ni3 Sb0 2.537128 1_555
Ni3 Sb1 2.537128 1_545
Ni3 Sb1 2.537128 1_555
Ni3 Sb0 2.537128 1_655
Ni3 Tb0 3.423742 1_655
Ni3 Tb0 3.423742 1_645
Ni3 Tb0 3.423742 1_555
Ni3 Tb0 3.423742 1_545
Sb0 Tb0 3.416461 1_555
Sb0 Tb0 3.416461 1_545
Sb0 Tb1 3.416461 1_455
Sb0 Tb1 3.416461 1_555
Sb1 Tb0 3.416461 1_555
Sb1 Tb1 3.416461 1_555
Sb1 Tb0 3.416461 1_655
Sb1 Tb1 3.416461 1_565
Sb2 Tb1 3.325532 1_565
Sb2 Tb1 3.325532 1_465
Sb2 Tb1 3.325532 1_455
Sb2 Tb1 3.325532 1_555
Sb3 Tb0 3.325532 1_655
Sb3 Tb0 3.325532 1_555
Sb3 Tb0 3.325532 1_545
Sb3 Tb0 3.325532 1_645
