# generated using pymatgen
data_MgAlAg
_symmetry_space_group_name_H-M   'P 1'
_cell_length_a   5.39379237
_cell_length_b   5.39547386
_cell_length_c   8.73601800
_cell_angle_alpha   90.00000000
_cell_angle_beta   90.00000000
_cell_angle_gamma   61.83564826
_symmetry_Int_Tables_number   1
_chemical_formula_structural   MgAlAg
_chemical_formula_sum   'Mg4 Al4 Ag4'
_cell_volume   224.13391921
_cell_formula_units_Z   4
loop_
 _symmetry_equiv_pos_site_id
 _symmetry_equiv_pos_as_xyz
  1  'x, y, z'
loop_
 _atom_site_type_symbol
 _atom_site_label
 _atom_site_symmetry_multiplicity
 _atom_site_fract_x
 _atom_site_fract_y
 _atom_site_fract_z
 _atom_site_occupancy
  Mg  Mg0  1  0.33145900  0.33150300  0.56463500  1
  Mg  Mg1  1  0.66608800  0.66609100  0.43554800  1
  Mg  Mg2  1  0.66608800  0.66609100  0.06445200  1
  Mg  Mg3  1  0.33145900  0.33150300  0.93536500  1
  Al  Al0  1  0.83695900  0.83703600  0.75000000  1
  Al  Al1  1  0.17944700  0.65284100  0.25000000  1
  Al  Al2  1  0.65294000  0.17937600  0.25000000  1
  Al  Al3  1  0.17021800  0.17012800  0.25000000  1
  Ag  Ag0  1  0.98923800  0.98915900  0.48833900  1
  Ag  Ag1  1  0.98923800  0.98915900  0.01166100  1
  Ag  Ag2  1  0.83926600  0.34761200  0.75000000  1
  Ag  Ag3  1  0.34760100  0.83950400  0.75000000  1
loop_
_geom_bond_atom_site_label_1
_geom_bond_atom_site_label_2
_geom_bond_distance
_geom_bond_site_symmetry_2
Mg0 Mg3 3.238704 1_555
Mg0 Mg1 3.296107 1_555
Mg0 Mg1 3.360749 1_455
Mg0 Mg1 3.361829 1_545
Mg1 Mg2 3.241901 1_555
Mg2 Mg3 3.296107 1_554
Mg2 Mg3 3.360749 1_654
Mg2 Mg3 3.361829 1_564
Al0 Mg2 3.170001 1_556
Al0 Mg1 3.170001 1_555
Al0 Mg0 3.210485 1_565
Al0 Mg3 3.210485 1_565
Al0 Mg3 3.210674 1_655
Al0 Mg0 3.210674 1_655
Al1 Al2 2.624784 1_555
Al1 Al3 2.628328 1_555
Al1 Al3 2.767860 1_565
Al1 Al2 2.918829 1_465
Al1 Mg2 3.114406 1_555
Al1 Mg1 3.114406 1_555
Al1 Mg0 3.145058 1_555
Al1 Mg3 3.145058 1_554
Al1 Mg1 3.180066 1_455
Al1 Mg2 3.180066 1_455
Al2 Al3 2.627622 1_555
Al2 Al3 2.766888 1_655
Al2 Mg1 3.115204 1_555
Al2 Mg2 3.115204 1_555
Al2 Mg0 3.145158 1_555
Al2 Mg3 3.145158 1_554
Al2 Mg2 3.180687 1_545
Al2 Mg1 3.180687 1_545
Al3 Mg3 3.128010 1_554
Al3 Mg0 3.128010 1_555
Al3 Mg2 3.210992 1_545
Al3 Mg1 3.210992 1_545
Al3 Mg2 3.211413 1_455
Al3 Mg1 3.211413 1_455
Ag0 Al2 2.630875 1_565
Ag0 Al1 2.631192 1_655
Ag0 Al3 2.672329 1_665
Ag0 Al0 2.685132 1_555
Ag0 Ag3 2.853083 1_655
Ag0 Ag2 2.853622 1_565
Ag0 Mg1 3.026100 1_555
Ag0 Mg0 3.202715 1_565
Ag0 Mg0 3.203018 1_655
Ag0 Mg0 3.237576 1_665
Ag0 Mg1 3.251460 1_655
Ag0 Mg1 3.252834 1_565
Ag1 Al2 2.630875 1_565
Ag1 Al1 2.631192 1_655
Ag1 Al3 2.672329 1_665
Ag1 Al0 2.685132 1_554
Ag1 Ag3 2.853083 1_654
Ag1 Ag2 2.853622 1_564
Ag1 Mg2 3.026100 1_555
Ag1 Mg3 3.202715 1_564
Ag1 Mg3 3.203018 1_654
Ag1 Mg3 3.237576 1_664
Ag1 Mg2 3.251460 1_655
Ag1 Mg2 3.252834 1_565
Ag2 Al0 2.634824 1_555
Ag2 Ag3 2.726230 1_555
Ag2 Al0 2.760695 1_545
Ag2 Ag3 2.817383 1_645
Ag2 Mg0 3.075699 1_655
Ag2 Mg3 3.075699 1_655
Ag2 Mg2 3.139483 1_556
Ag2 Mg1 3.139483 1_555
Ag2 Mg3 3.218189 1_555
Ag2 Mg0 3.218189 1_555
Ag3 Al0 2.633236 1_555
Ag3 Al0 2.760607 1_455
Ag3 Mg0 3.075456 1_565
Ag3 Mg3 3.075456 1_565
Ag3 Mg2 3.139344 1_556
Ag3 Mg1 3.139344 1_555
Ag3 Mg0 3.219895 1_555
Ag3 Mg3 3.219895 1_555
