# generated using pymatgen
data_Eu2SnSe5
_symmetry_space_group_name_H-M   'P 1'
_cell_length_a   4.08915494
_cell_length_b   8.22490700
_cell_length_c   11.99694445
_cell_angle_alpha   90.00000000
_cell_angle_beta   90.00000000
_cell_angle_gamma   90.00000000
_symmetry_Int_Tables_number   1
_chemical_formula_structural   Eu2SnSe5
_chemical_formula_sum   'Eu4 Sn2 Se10'
_cell_volume   403.49226202
_cell_formula_units_Z   2
loop_
 _symmetry_equiv_pos_site_id
 _symmetry_equiv_pos_as_xyz
  1  'x, y, z'
loop_
 _atom_site_type_symbol
 _atom_site_label
 _atom_site_symmetry_multiplicity
 _atom_site_fract_x
 _atom_site_fract_y
 _atom_site_fract_z
 _atom_site_occupancy
  Eu  Eu0  1  0.50000000  0.59494681  0.17332927  1
  Eu  Eu1  1  0.50000000  0.40505319  0.82667073  1
  Eu  Eu2  1  0.50000000  0.90505319  0.67332927  1
  Eu  Eu3  1  0.50000000  0.09494681  0.32667073  1
  Sn  Sn0  1  -0.00000000  0.50000000  0.50000000  1
  Sn  Sn1  1  0.00000000  -0.00000000  -0.00000000  1
  Se  Se0  1  0.00000000  -0.00000000  0.50000000  1
  Se  Se1  1  -0.00000000  0.50000000  -0.00000000  1
  Se  Se2  1  -0.00000000  0.87312041  0.20539240  1
  Se  Se3  1  0.00000000  0.12687959  0.79460760  1
  Se  Se4  1  0.00000000  0.62687959  0.70539240  1
  Se  Se5  1  0.00000000  0.37312041  0.29460760  1
  Se  Se6  1  0.50000000  0.70462612  0.43760665  1
  Se  Se7  1  0.50000000  0.29537388  0.56239335  1
  Se  Se8  1  0.50000000  0.79537388  0.93760665  1
  Se  Se9  1  0.50000000  0.20462612  0.06239335  1
loop_
_geom_bond_atom_site_label_1
_geom_bond_atom_site_label_2
_geom_bond_distance
_geom_bond_site_symmetry_2
Eu0 Se1 3.018964 1_555
Eu0 Se1 3.018964 1_655
Eu0 Se2 3.092408 1_555
Eu0 Se2 3.092408 1_655
Eu0 Se5 3.102586 1_555
Eu0 Se5 3.102586 1_655
Eu0 Se8 3.273353 1_554
Eu0 Se6 3.296360 1_555
Eu0 Se9 3.475288 1_555
Eu1 Se1 3.018964 1_656
Eu1 Se1 3.018964 1_556
Eu1 Se3 3.092408 1_555
Eu1 Se3 3.092408 1_655
Eu1 Se4 3.102586 1_655
Eu1 Se4 3.102586 1_555
Eu1 Se9 3.273353 1_556
Eu1 Se7 3.296360 1_555
Eu1 Se8 3.475288 1_555
Eu2 Se0 3.018964 1_665
Eu2 Se0 3.018964 1_565
Eu2 Se4 3.092408 1_555
Eu2 Se4 3.092408 1_655
Eu2 Se3 3.102586 1_565
Eu2 Se3 3.102586 1_665
Eu2 Se6 3.273353 1_555
Eu2 Se8 3.296360 1_555
Eu2 Se7 3.475288 1_565
Eu3 Se0 3.018964 1_655
Eu3 Se0 3.018964 1_555
Eu3 Se5 3.092408 1_555
Eu3 Se5 3.092408 1_655
Eu3 Se2 3.102586 1_545
Eu3 Se2 3.102586 1_645
Eu3 Se7 3.273353 1_555
Eu3 Se9 3.296360 1_555
Eu3 Se6 3.475288 1_545
Se2 Sn1 2.675956 1_565
Se3 Sn1 2.675956 1_556
Se4 Sn0 2.675956 1_555
Se5 Sn0 2.675956 1_555
Se6 Sn0 2.751942 1_555
Se6 Sn0 2.751942 1_655
Se7 Sn0 2.751942 1_555
Se7 Sn0 2.751942 1_655
Se8 Sn1 2.751942 1_566
Se8 Sn1 2.751942 1_666
Se9 Sn1 2.751942 1_555
Se9 Sn1 2.751942 1_655
