# generated using pymatgen
data_Dy4Fe28BC
_symmetry_space_group_name_H-M   'P 1'
_cell_length_a   8.73397328
_cell_length_b   8.73397328
_cell_length_c   11.85904200
_cell_angle_alpha   90.00000000
_cell_angle_beta   90.00000000
_cell_angle_gamma   90.02924495
_symmetry_Int_Tables_number   1
_chemical_formula_structural   Dy4Fe28BC
_chemical_formula_sum   'Dy8 Fe56 B2 C2'
_cell_volume   904.63475522
_cell_formula_units_Z   2
loop_
 _symmetry_equiv_pos_site_id
 _symmetry_equiv_pos_as_xyz
  1  'x, y, z'
loop_
 _atom_site_type_symbol
 _atom_site_label
 _atom_site_symmetry_multiplicity
 _atom_site_fract_x
 _atom_site_fract_y
 _atom_site_fract_z
 _atom_site_occupancy
  Dy  Dy0  1  0.23307300  0.76692700  0.50000000  1
  Dy  Dy1  1  0.76692700  0.23307300  0.50000000  1
  Dy  Dy2  1  0.26168500  0.26168500  0.00000000  1
  Dy  Dy3  1  0.73831500  0.73831500  0.00000000  1
  Dy  Dy4  1  0.64337000  0.64337000  0.50000000  1
  Dy  Dy5  1  0.35663000  0.35663000  0.50000000  1
  Dy  Dy6  1  0.85637900  0.14362100  0.00000000  1
  Dy  Dy7  1  0.14362100  0.85637900  0.00000000  1
  Fe  Fe0  1  0.18383200  0.81616800  0.25286000  1
  Fe  Fe1  1  0.81616800  0.18383200  0.25286000  1
  Fe  Fe2  1  0.31745000  0.31745000  0.75514100  1
  Fe  Fe3  1  0.68255000  0.68255000  0.75514100  1
  Fe  Fe4  1  0.81616800  0.18383200  0.74714000  1
  Fe  Fe5  1  0.18383200  0.81616800  0.74714000  1
  Fe  Fe6  1  0.68255000  0.68255000  0.24485900  1
  Fe  Fe7  1  0.31745000  0.31745000  0.24485900  1
  Fe  Fe8  1  0.93426100  0.72436100  0.37321900  1
  Fe  Fe9  1  0.06573900  0.27563900  0.37321900  1
  Fe  Fe10  1  0.56568700  0.22590200  0.87923700  1
  Fe  Fe11  1  0.43431300  0.77409800  0.87923700  1
  Fe  Fe12  1  0.06573900  0.27563900  0.62678100  1
  Fe  Fe13  1  0.93426100  0.72436100  0.62678100  1
  Fe  Fe14  1  0.43431300  0.77409800  0.12076300  1
  Fe  Fe15  1  0.56568700  0.22590200  0.12076300  1
  Fe  Fe16  1  0.72436100  0.93426100  0.37321900  1
  Fe  Fe17  1  0.27563900  0.06573900  0.37321900  1
  Fe  Fe18  1  0.22590200  0.56568700  0.87923700  1
  Fe  Fe19  1  0.77409800  0.43431300  0.87923700  1
  Fe  Fe20  1  0.27563900  0.06573900  0.62678100  1
  Fe  Fe21  1  0.72436100  0.93426100  0.62678100  1
  Fe  Fe22  1  0.77409800  0.43431300  0.12076300  1
  Fe  Fe23  1  0.22590200  0.56568700  0.12076300  1
  Fe  Fe24  1  0.50000000  0.50000000  0.10823500  1
  Fe  Fe25  1  0.00000000  0.00000000  0.61608900  1
  Fe  Fe26  1  0.50000000  0.50000000  0.89176500  1
  Fe  Fe27  1  0.00000000  0.00000000  0.38391100  1
  Fe  Fe28  1  0.14190000  0.53720100  0.32440000  1
  Fe  Fe29  1  0.85810000  0.46279900  0.32440000  1
  Fe  Fe30  1  0.35913000  0.03673600  0.82575900  1
  Fe  Fe31  1  0.64087000  0.96326400  0.82575900  1
  Fe  Fe32  1  0.85810000  0.46279900  0.67560000  1
  Fe  Fe33  1  0.14190000  0.53720100  0.67560000  1
  Fe  Fe34  1  0.64087000  0.96326400  0.17424100  1
  Fe  Fe35  1  0.35913000  0.03673600  0.17424100  1
  Fe  Fe36  1  0.53720100  0.14190000  0.32440000  1
  Fe  Fe37  1  0.46279900  0.85810000  0.32440000  1
  Fe  Fe38  1  0.03673600  0.35913000  0.82575900  1
  Fe  Fe39  1  0.96326400  0.64087000  0.82575900  1
  Fe  Fe40  1  0.46279900  0.85810000  0.67560000  1
  Fe  Fe41  1  0.53720100  0.14190000  0.67560000  1
  Fe  Fe42  1  0.96326400  0.64087000  0.17424100  1
  Fe  Fe43  1  0.03673600  0.35913000  0.17424100  1
  Fe  Fe44  1  0.00000000  0.50000000  0.50000000  1
  Fe  Fe45  1  0.50000000  0.00000000  0.00000000  1
  Fe  Fe46  1  0.50000000  0.00000000  0.50000000  1
  Fe  Fe47  1  0.00000000  0.50000000  0.00000000  1
  Fe  Fe48  1  0.40254700  0.59745300  0.29614500  1
  Fe  Fe49  1  0.59745300  0.40254700  0.29614500  1
  Fe  Fe50  1  0.09712800  0.09712800  0.80044600  1
  Fe  Fe51  1  0.90287200  0.90287200  0.80044600  1
  Fe  Fe52  1  0.59745300  0.40254700  0.70385500  1
  Fe  Fe53  1  0.40254700  0.59745300  0.70385500  1
  Fe  Fe54  1  0.90287200  0.90287200  0.19955400  1
  Fe  Fe55  1  0.09712800  0.09712800  0.19955400  1
  B  B0  1  0.87440100  0.87440100  0.50000000  1
  B  B1  1  0.12559900  0.12559900  0.50000000  1
  C  C0  1  0.62612200  0.37387800  0.00000000  1
  C  C1  1  0.37387800  0.62612200  0.00000000  1
loop_
_geom_bond_atom_site_label_1
_geom_bond_atom_site_label_2
_geom_bond_distance
_geom_bond_site_symmetry_2
Dy0 Fe5 2.993318 1_555
Dy0 Fe0 2.993318 1_555
Dy0 Fe37 2.999130 1_555
Dy0 Fe40 2.999130 1_555
Dy0 Fe33 2.999130 1_555
Dy0 Fe28 2.999130 1_555
Dy0 Fe20 3.034613 1_565
Dy0 Fe13 3.034613 1_455
Dy0 Fe17 3.034613 1_565
Dy0 Fe8 3.034613 1_455
Dy0 Fe44 3.094213 1_555
Dy0 Fe46 3.094213 1_565
Dy0 Fe25 3.191757 1_565
Dy0 Fe27 3.191757 1_565
Dy0 Fe53 3.198209 1_555
Dy0 Fe48 3.198209 1_555
Dy1 Fe4 2.993318 1_555
Dy1 Fe1 2.993318 1_555
Dy1 Fe32 2.999130 1_555
Dy1 Fe29 2.999130 1_555
Dy1 Fe36 2.999130 1_555
Dy1 Fe41 2.999130 1_555
Dy1 Fe12 3.034613 1_655
Dy1 Fe21 3.034613 1_545
Dy1 Fe9 3.034613 1_655
Dy1 Fe16 3.034613 1_545
Dy1 Fe46 3.094213 1_555
Dy1 Fe44 3.094213 1_655
Dy1 Fe25 3.191757 1_655
Dy1 Fe27 3.191757 1_655
Dy1 Fe52 3.198209 1_555
Dy1 Fe49 3.198209 1_555
Dy2 Fe43 2.975872 1_555
Dy2 Fe35 2.975872 1_555
Dy2 Fe38 2.975872 1_554
Dy2 Fe30 2.975872 1_554
Dy2 Fe7 2.984327 1_555
Dy2 Fe2 2.984327 1_554
Dy2 Fe23 3.033039 1_555
Dy2 Fe15 3.033039 1_555
Dy2 Fe18 3.033039 1_554
Dy2 Fe10 3.033039 1_554
Dy2 Fe45 3.092082 1_555
Dy2 Fe47 3.092082 1_555
Dy2 Fe55 3.119231 1_555
Dy2 Fe50 3.119231 1_554
Dy2 Fe24 3.210587 1_555
Dy2 Fe26 3.210587 1_554
Dy3 Fe34 2.975872 1_555
Dy3 Fe42 2.975872 1_555
Dy3 Fe31 2.975872 1_554
Dy3 Fe39 2.975872 1_554
Dy3 Fe6 2.984327 1_555
Dy3 Fe3 2.984327 1_554
Dy3 Fe22 3.033039 1_555
Dy3 Fe14 3.033039 1_555
Dy3 Fe19 3.033039 1_554
Dy3 Fe11 3.033039 1_554
Dy3 Fe45 3.092082 1_565
Dy3 Fe47 3.092082 1_655
Dy3 Fe54 3.119231 1_555
Dy3 Fe51 3.119231 1_554
Dy3 Fe24 3.210587 1_555
Dy3 Fe26 3.210587 1_554
Dy4 Fe21 3.035437 1_555
Dy4 Fe13 3.035437 1_555
Dy4 Fe8 3.035437 1_555
Dy4 Fe16 3.035437 1_555
Dy4 Fe3 3.064165 1_555
Dy4 Fe6 3.064165 1_555
Dy4 Fe32 3.216233 1_555
Dy4 Fe29 3.216233 1_555
Dy4 Fe37 3.216233 1_555
Dy4 Fe40 3.216233 1_555
Dy4 Fe53 3.229310 1_555
Dy4 Fe48 3.229310 1_555
Dy4 Fe52 3.229310 1_555
Dy4 Fe49 3.229310 1_555
Dy4 Fe44 3.357666 1_655
Dy4 Fe46 3.357666 1_565
Dy5 Fe20 3.035437 1_555
Dy5 Fe12 3.035437 1_555
Dy5 Fe17 3.035437 1_555
Dy5 Fe9 3.035437 1_555
Dy5 Fe2 3.064165 1_555
Dy5 Fe7 3.064165 1_555
Dy5 Fe41 3.216233 1_555
Dy5 Fe36 3.216233 1_555
Dy5 Fe28 3.216233 1_555
Dy5 Fe33 3.216233 1_555
Dy5 Fe53 3.229310 1_555
Dy5 Fe48 3.229310 1_555
Dy5 Fe52 3.229310 1_555
Dy5 Fe49 3.229310 1_555
Dy5 Fe44 3.357666 1_555
Dy5 Fe46 3.357666 1_555
Dy6 Fe22 3.002550 1_555
Dy6 Fe19 3.002550 1_554
Dy6 Fe15 3.002550 1_555
Dy6 Fe10 3.002550 1_554
Dy6 Fe4 3.039552 1_554
Dy6 Fe1 3.039552 1_555
Dy6 Fe55 3.191787 1_655
Dy6 Fe54 3.191787 1_545
Dy6 Fe50 3.191787 1_654
Dy6 Fe51 3.191787 1_544
Dy6 Fe34 3.207947 1_545
Dy6 Fe43 3.207947 1_655
Dy6 Fe31 3.207947 1_544
Dy6 Fe38 3.207947 1_654
Dy6 Fe45 3.355264 1_555
Dy6 Fe47 3.355264 1_655
Dy7 Fe14 3.002550 1_555
Dy7 Fe11 3.002550 1_554
Dy7 Fe23 3.002550 1_555
Dy7 Fe18 3.002550 1_554
Dy7 Fe5 3.039552 1_554
Dy7 Fe0 3.039552 1_555
Dy7 Fe55 3.191787 1_565
Dy7 Fe54 3.191787 1_455
Dy7 Fe50 3.191787 1_564
Dy7 Fe51 3.191787 1_454
Dy7 Fe42 3.207947 1_455
Dy7 Fe35 3.207947 1_565
Dy7 Fe39 3.207947 1_454
Dy7 Fe30 3.207947 1_564
Dy7 Fe45 3.355264 1_565
Dy7 Fe47 3.355264 1_555
Fe0 Fe37 2.605662 1_555
Fe0 Fe28 2.605662 1_555
Fe0 Fe42 2.630878 1_455
Fe0 Fe35 2.630878 1_565
Fe0 Fe55 2.645107 1_565
Fe0 Fe54 2.645107 1_455
Fe0 Fe14 2.715860 1_555
Fe0 Fe23 2.715860 1_555
Fe0 Fe17 2.725759 1_565
Fe0 Fe8 2.725759 1_455
Fe0 Fe48 2.750516 1_555
Fe0 Fe27 2.752050 1_565
Fe1 Fe29 2.605662 1_555
Fe1 Fe36 2.605662 1_555
Fe1 Fe34 2.630878 1_545
Fe1 Fe43 2.630878 1_655
Fe1 Fe55 2.645107 1_655
Fe1 Fe54 2.645107 1_545
Fe1 Fe22 2.715860 1_555
Fe1 Fe15 2.715860 1_555
Fe1 Fe9 2.725759 1_655
Fe1 Fe16 2.725759 1_545
Fe1 Fe49 2.750516 1_555
Fe1 Fe27 2.752050 1_655
Fe2 Fe38 2.616456 1_555
Fe2 Fe30 2.616456 1_555
Fe2 Fe52 2.626997 1_555
Fe2 Fe53 2.626997 1_555
Fe2 Fe33 2.631985 1_555
Fe2 Fe41 2.631985 1_555
Fe2 Fe20 2.698673 1_555
Fe2 Fe50 2.773200 1_555
Fe2 Fe26 2.776092 1_555
Fe3 Fe39 2.616456 1_555
Fe3 Fe31 2.616456 1_555
Fe3 Fe52 2.626997 1_555
Fe3 Fe53 2.626997 1_555
Fe3 Fe32 2.631985 1_555
Fe3 Fe40 2.631985 1_555
Fe3 Fe51 2.773200 1_555
Fe4 Fe41 2.605662 1_555
Fe4 Fe50 2.645107 1_655
Fe4 Fe51 2.645107 1_545
Fe4 Fe52 2.750516 1_555
Fe5 Fe50 2.645107 1_565
Fe5 Fe51 2.645107 1_455
Fe5 Fe53 2.750516 1_555
Fe6 Fe8 2.698673 1_555
Fe7 Fe9 2.698673 1_555
Fe10 Fe31 2.469167 1_545
Fe10 Fe45 2.504358 1_556
Fe10 Fe30 2.526554 1_555
Fe10 Fe41 2.536123 1_555
Fe10 Fe52 2.604350 1_555
Fe10 Fe4 2.715860 1_555
Fe10 Fe2 2.739984 1_555
Fe11 Fe30 2.469167 1_565
Fe11 Fe45 2.504358 1_566
Fe11 Fe31 2.526554 1_555
Fe11 Fe40 2.536123 1_555
Fe11 Fe53 2.604350 1_555
Fe11 Fe5 2.715860 1_555
Fe11 Fe3 2.739984 1_555
Fe12 Fe33 2.448455 1_555
Fe12 Fe38 2.482787 1_555
Fe12 Fe32 2.509804 1_455
Fe12 Fe44 2.535984 1_555
Fe12 Fe50 2.597684 1_555
Fe12 Fe2 2.698673 1_555
Fe12 Fe4 2.725759 1_455
Fe13 Fe32 2.448455 1_555
Fe13 Fe39 2.482787 1_555
Fe13 Fe33 2.509804 1_655
Fe13 Fe44 2.535984 1_655
Fe13 Fe51 2.597684 1_555
Fe13 Fe3 2.698673 1_555
Fe13 Fe5 2.725759 1_655
Fe14 Fe35 2.469167 1_565
Fe14 Fe45 2.504358 1_565
Fe14 Fe34 2.526554 1_555
Fe14 Fe37 2.536123 1_555
Fe14 Fe48 2.604350 1_555
Fe14 Fe6 2.739984 1_555
Fe15 Fe34 2.469167 1_545
Fe15 Fe45 2.504358 1_555
Fe15 Fe35 2.526554 1_555
Fe15 Fe36 2.536123 1_555
Fe15 Fe49 2.604350 1_555
Fe15 Fe7 2.739984 1_555
Fe16 Fe37 2.448455 1_555
Fe16 Fe34 2.482787 1_555
Fe16 Fe36 2.509804 1_565
Fe16 Fe46 2.535984 1_565
Fe16 Fe54 2.597684 1_555
Fe16 Fe6 2.698673 1_555
Fe17 Fe36 2.448455 1_555
Fe17 Fe35 2.482787 1_555
Fe17 Fe37 2.509804 1_545
Fe17 Fe46 2.535984 1_555
Fe17 Fe55 2.597684 1_555
Fe17 Fe7 2.698673 1_555
Fe18 Fe39 2.469167 1_455
Fe18 Fe47 2.504358 1_556
Fe18 Fe38 2.526554 1_555
Fe18 Fe33 2.536123 1_555
Fe18 Fe53 2.604350 1_555
Fe18 Fe5 2.715860 1_555
Fe18 Fe2 2.739984 1_555
Fe19 Fe38 2.469167 1_655
Fe19 Fe47 2.504358 1_656
Fe19 Fe39 2.526554 1_555
Fe19 Fe32 2.536123 1_555
Fe19 Fe52 2.604350 1_555
Fe19 Fe4 2.715860 1_555
Fe19 Fe3 2.739984 1_555
Fe20 Fe41 2.448455 1_555
Fe20 Fe30 2.482787 1_555
Fe20 Fe40 2.509804 1_545
Fe20 Fe46 2.535984 1_555
Fe20 Fe50 2.597684 1_555
Fe20 Fe5 2.725759 1_545
Fe21 Fe40 2.448455 1_555
Fe21 Fe31 2.482787 1_555
Fe21 Fe41 2.509804 1_565
Fe21 Fe46 2.535984 1_565
Fe21 Fe51 2.597684 1_555
Fe21 Fe3 2.698673 1_555
Fe21 Fe4 2.725759 1_565
Fe22 Fe43 2.469167 1_655
Fe22 Fe47 2.504358 1_655
Fe22 Fe42 2.526554 1_555
Fe22 Fe29 2.536123 1_555
Fe22 Fe49 2.604350 1_555
Fe22 Fe6 2.739984 1_555
Fe23 Fe42 2.469167 1_455
Fe23 Fe47 2.504358 1_555
Fe23 Fe43 2.526554 1_555
Fe23 Fe28 2.536123 1_555
Fe23 Fe48 2.604350 1_555
Fe23 Fe7 2.739984 1_555
Fe24 Fe48 2.532898 1_555
Fe24 Fe49 2.532898 1_555
Fe24 Fe7 2.776092 1_555
Fe24 Fe6 2.776092 1_555
Fe25 Fe50 2.493679 1_555
Fe25 Fe51 2.493679 1_445
Fe25 Fe4 2.752050 1_455
Fe25 Fe5 2.752050 1_545
Fe26 Fe53 2.532898 1_555
Fe26 Fe52 2.532898 1_555
Fe26 Fe3 2.776092 1_555
Fe27 Fe55 2.493679 1_555
Fe27 Fe54 2.493679 1_445
Fe28 Fe48 2.360161 1_555
Fe28 Fe44 2.444941 1_555
Fe28 Fe9 2.448455 1_555
Fe28 Fe8 2.509804 1_455
Fe28 Fe42 2.535062 1_455
Fe28 Fe43 2.536155 1_555
Fe28 Fe29 2.562146 1_455
Fe28 Fe7 2.631985 1_555
Fe29 Fe49 2.360161 1_555
Fe29 Fe44 2.444941 1_655
Fe29 Fe8 2.448455 1_555
Fe29 Fe9 2.509804 1_655
Fe29 Fe43 2.535062 1_655
Fe29 Fe42 2.536155 1_555
Fe29 Fe6 2.631985 1_555
Fe30 Fe50 2.367691 1_555
Fe30 Fe45 2.426282 1_556
Fe30 Fe40 2.535062 1_545
Fe30 Fe41 2.536155 1_555
Fe30 Fe31 2.543322 1_545
Fe30 Fe5 2.630878 1_545
Fe31 Fe51 2.367691 1_555
Fe31 Fe45 2.426282 1_566
Fe31 Fe41 2.535062 1_565
Fe31 Fe40 2.536155 1_555
Fe31 Fe4 2.630878 1_565
Fe32 Fe52 2.360161 1_555
Fe32 Fe44 2.444941 1_655
Fe32 Fe38 2.535062 1_655
Fe32 Fe39 2.536155 1_555
Fe32 Fe33 2.562146 1_655
Fe32 Fe4 2.605662 1_555
Fe33 Fe53 2.360161 1_555
Fe33 Fe44 2.444941 1_555
Fe33 Fe39 2.535062 1_455
Fe33 Fe38 2.536155 1_555
Fe33 Fe5 2.605662 1_555
Fe34 Fe54 2.367691 1_555
Fe34 Fe45 2.426282 1_565
Fe34 Fe36 2.535062 1_565
Fe34 Fe37 2.536155 1_555
Fe34 Fe35 2.543322 1_565
Fe34 Fe6 2.616456 1_555
Fe35 Fe55 2.367691 1_555
Fe35 Fe45 2.426282 1_555
Fe35 Fe37 2.535062 1_545
Fe35 Fe36 2.536155 1_555
Fe35 Fe7 2.616456 1_555
Fe36 Fe49 2.360161 1_555
Fe36 Fe46 2.444941 1_555
Fe36 Fe37 2.562146 1_545
Fe36 Fe7 2.631985 1_555
Fe37 Fe48 2.360161 1_555
Fe37 Fe46 2.444941 1_565
Fe37 Fe6 2.631985 1_555
Fe38 Fe50 2.367691 1_555
Fe38 Fe47 2.426282 1_556
Fe38 Fe39 2.543322 1_455
Fe38 Fe4 2.630878 1_455
Fe39 Fe51 2.367691 1_555
Fe39 Fe47 2.426282 1_656
Fe39 Fe5 2.630878 1_655
Fe40 Fe53 2.360161 1_555
Fe40 Fe46 2.444941 1_565
Fe40 Fe41 2.562146 1_565
Fe40 Fe5 2.605662 1_555
Fe41 Fe52 2.360161 1_555
Fe41 Fe46 2.444941 1_555
Fe42 Fe54 2.367691 1_555
Fe42 Fe47 2.426282 1_655
Fe42 Fe8 2.482787 1_555
Fe42 Fe43 2.543322 1_655
Fe42 Fe6 2.616456 1_555
Fe43 Fe55 2.367691 1_555
Fe43 Fe47 2.426282 1_555
Fe43 Fe9 2.482787 1_555
Fe43 Fe7 2.616456 1_555
Fe44 Fe8 2.535984 1_455
Fe44 Fe9 2.535984 1_555
Fe48 Fe49 2.408035 1_555
Fe48 Fe7 2.626997 1_555
Fe48 Fe6 2.626997 1_555
Fe49 Fe7 2.626997 1_555
Fe49 Fe6 2.626997 1_555
Fe50 Fe51 2.398780 1_445
Fe52 Fe53 2.408035 1_555
Fe54 Fe55 2.398780 1_665
Fe54 Fe8 2.597684 1_555
Fe54 Fe6 2.773200 1_555
Fe55 Fe9 2.597684 1_555
Fe55 Fe7 2.773200 1_555
B0 Fe21 2.061994 1_555
B0 Fe13 2.061994 1_555
B0 Fe8 2.061994 1_555
B0 Fe16 2.061994 1_555
B0 Fe25 2.073839 1_665
B0 Fe27 2.073839 1_665
B0 Dy4 2.852898 1_555
B1 Fe12 2.061994 1_555
B1 Fe20 2.061994 1_555
B1 Fe9 2.061994 1_555
B1 Fe17 2.061994 1_555
B1 Fe25 2.073839 1_555
B1 Fe27 2.073839 1_555
B1 Dy5 2.852898 1_555
C0 Fe22 1.999817 1_555
C0 Fe15 1.999817 1_555
C0 Fe19 1.999817 1_554
C0 Fe10 1.999817 1_554
C0 Fe24 2.018807 1_555
C0 Fe26 2.018807 1_554
C0 Dy6 2.844792 1_555
C1 Fe14 1.999817 1_555
C1 Fe23 1.999817 1_555
C1 Fe11 1.999817 1_554
C1 Fe18 1.999817 1_554
C1 Fe24 2.018807 1_555
C1 Fe26 2.018807 1_554
C1 Dy7 2.844792 1_555
