# generated using pymatgen
data_SmTiFe11C
_symmetry_space_group_name_H-M   'P 1'
_cell_length_a   4.89482100
_cell_length_b   6.51559400
_cell_length_c   6.51559400
_cell_angle_alpha   97.73667129
_cell_angle_beta   112.06285208
_cell_angle_gamma   67.93714792
_symmetry_Int_Tables_number   1
_chemical_formula_structural   SmTiFe11C
_chemical_formula_sum   'Sm1 Ti1 Fe11 C1'
_cell_volume   178.47552155
_cell_formula_units_Z   1
loop_
 _symmetry_equiv_pos_site_id
 _symmetry_equiv_pos_as_xyz
  1  'x, y, z'
loop_
 _atom_site_type_symbol
 _atom_site_label
 _atom_site_symmetry_multiplicity
 _atom_site_fract_x
 _atom_site_fract_y
 _atom_site_fract_z
 _atom_site_occupancy
  Sm  Sm0  1  0.00745800  0.99254200  0.00745800  1
  Ti  Ti0  1  0.63339100  0.36660900  0.63339100  1
  Fe  Fe0  1  0.72526400  0.77473600  0.22526400  1
  Fe  Fe1  1  0.27669300  0.22330700  0.77669300  1
  Fe  Fe2  1  0.49789800  0.78156500  0.77736100  1
  Fe  Fe3  1  0.49789800  0.22263900  0.21843500  1
  Fe  Fe4  1  0.49999700  0.99784600  0.49895900  1
  Fe  Fe5  1  0.00111600  0.99784600  0.49895900  1
  Fe  Fe6  1  0.49999700  0.50104100  0.00215400  1
  Fe  Fe7  1  0.00111600  0.50104100  0.00215400  1
  Fe  Fe8  1  0.35738600  0.64261400  0.35738600  1
  Fe  Fe9  1  0.00020500  0.35909700  0.35950700  1
  Fe  Fe10  1  0.00020500  0.64049300  0.64090300  1
  C  C0  1  0.50137600  0.99862400  0.00137600  1
loop_
_geom_bond_atom_site_label_1
_geom_bond_atom_site_label_2
_geom_bond_distance
_geom_bond_site_symmetry_2
Sm0 Ti0 3.182357 1_464
Fe0 Fe4 2.466618 1_555
Fe0 Fe6 2.466618 1_555
Fe0 Fe5 2.466618 1_655
Fe0 Fe7 2.466618 1_655
Fe0 Fe9 2.631666 1_655
Fe0 Fe10 2.631666 1_655
Fe1 Fe4 2.488236 1_545
Fe1 Fe6 2.488236 1_556
Fe1 Fe5 2.488236 1_545
Fe1 Fe7 2.488236 1_556
Fe1 Fe10 2.643370 1_555
Fe1 Fe9 2.643370 1_555
Fe1 Ti0 2.734247 1_555
Fe1 Ti0 2.734247 1_455
Fe2 Fe4 2.447345 1_555
Fe2 Fe5 2.447345 1_555
Fe2 Fe6 2.486259 1_556
Fe2 Fe7 2.486259 1_656
Fe2 Ti0 2.658411 1_555
Fe3 Fe6 2.447345 1_555
Fe3 Fe7 2.447345 1_555
Fe3 Fe4 2.486259 1_545
Fe3 Fe5 2.486259 1_645
Fe3 Ti0 2.658411 1_555
Fe3 Fe9 2.721219 1_555
Fe3 Fe9 2.721219 1_655
Fe4 Fe5 2.441933 1_555
Fe4 Fe5 2.452888 1_655
Fe4 Fe8 2.617346 1_555
Fe4 Fe9 2.632621 1_565
Fe4 Ti0 2.673734 1_565
Fe4 Sm0 3.209632 1_555
Fe4 Sm0 3.306362 1_656
Fe5 Fe8 2.617346 1_555
Fe5 Fe9 2.632621 1_565
Fe5 Ti0 2.673734 1_465
Fe5 Sm0 3.209632 1_555
Fe5 Sm0 3.306362 1_556
Fe6 Fe7 2.441933 1_555
Fe6 Fe7 2.452888 1_655
Fe6 Fe8 2.617346 1_555
Fe6 Fe9 2.620561 1_655
Fe6 Ti0 2.673734 1_554
Fe6 Sm0 3.209632 1_555
Fe6 Sm0 3.306362 1_645
Fe7 Fe8 2.617346 1_555
Fe7 Fe9 2.620561 1_555
Fe7 Ti0 2.673734 1_454
Fe7 Sm0 3.209632 1_555
Fe7 Sm0 3.306362 1_545
Fe8 Ti0 2.348099 1_555
Fe8 Fe9 2.986742 1_555
Fe8 Fe9 2.986742 1_655
Fe9 Ti0 2.954352 1_455
Fe9 Ti0 2.954352 1_555
Fe9 Sm0 3.080485 1_545
Fe10 Fe9 2.412072 1_555
Fe10 Fe5 2.620561 1_555
Fe10 Fe4 2.620561 1_455
Fe10 Fe7 2.632621 1_556
Fe10 Fe6 2.632621 1_556
Fe10 Fe2 2.721219 1_555
Fe10 Fe2 2.721219 1_455
Fe10 Ti0 2.954352 1_455
Fe10 Ti0 2.954352 1_555
Fe10 Fe8 2.986742 1_555
Fe10 Fe8 2.986742 1_455
Fe10 Sm0 3.080485 1_556
C0 Fe2 1.890632 1_554
C0 Fe3 1.890632 1_565
C0 Fe0 1.904716 1_555
C0 Fe1 1.911480 1_564
C0 Sm0 2.447957 1_555
C0 Sm0 2.447957 1_655
