# generated using pymatgen
data_Mg17Al11Pb
_symmetry_space_group_name_H-M   'P 1'
_cell_length_a   9.23554619
_cell_length_b   9.23554619
_cell_length_c   9.21504439
_cell_angle_alpha   70.50334348
_cell_angle_beta   70.50334348
_cell_angle_gamma   109.31515739
_symmetry_Int_Tables_number   1
_chemical_formula_structural   Mg17Al11Pb
_chemical_formula_sum   'Mg17 Al11 Pb1'
_cell_volume   605.84586122
_cell_formula_units_Z   1
loop_
 _symmetry_equiv_pos_site_id
 _symmetry_equiv_pos_as_xyz
  1  'x, y, z'
loop_
 _atom_site_type_symbol
 _atom_site_label
 _atom_site_symmetry_multiplicity
 _atom_site_fract_x
 _atom_site_fract_y
 _atom_site_fract_z
 _atom_site_occupancy
  Mg  Mg0  1  0.00723000  0.00723000  0.65357400  1
  Mg  Mg1  1  0.65825100  0.65825100  0.33752100  1
  Mg  Mg2  1  0.99348000  0.99348000  0.00364600  1
  Mg  Mg3  1  0.39923600  0.39923600  0.28210600  1
  Mg  Mg4  1  0.69871300  0.69871300  0.71264800  1
  Mg  Mg5  1  0.61278100  0.31347100  0.00200600  1
  Mg  Mg6  1  0.31673400  0.99899300  0.39433000  1
  Mg  Mg7  1  0.72565500  0.40161800  0.59319500  1
  Mg  Mg8  1  0.34065200  0.98968700  0.00733400  1
  Mg  Mg9  1  0.68219100  0.28690100  0.31728300  1
  Mg  Mg10  1  0.00311400  0.60200200  0.68338800  1
  Mg  Mg11  1  0.60200200  0.00311400  0.68338800  1
  Mg  Mg12  1  0.28690100  0.68219100  0.31728300  1
  Mg  Mg13  1  0.98968700  0.34065200  0.00733400  1
  Mg  Mg14  1  0.40161800  0.72565500  0.59319500  1
  Mg  Mg15  1  0.99899300  0.31673400  0.39433000  1
  Mg  Mg16  1  0.31347100  0.61278100  0.00200600  1
  Al  Al0  1  0.16914300  0.16914300  0.20966600  1
  Al  Al1  1  0.81538100  0.63436600  0.99835800  1
  Al  Al2  1  0.99747800  0.81033100  0.36587500  1
  Al  Al3  1  0.36362900  0.17488700  0.62697100  1
  Al  Al4  1  0.18268600  0.81883900  0.81564500  1
  Al  Al5  1  0.99671300  0.63317200  0.18381000  1
  Al  Al6  1  0.63317200  0.99671300  0.18381000  1
  Al  Al7  1  0.81883900  0.18268600  0.81564500  1
  Al  Al8  1  0.17488700  0.36362900  0.62697100  1
  Al  Al9  1  0.81033100  0.99747800  0.36587500  1
  Al  Al10  1  0.63436600  0.81538100  0.99835800  1
  Pb  Pb0  1  0.37266700  0.37266700  0.82444400  1
loop_
_geom_bond_atom_site_label_1
_geom_bond_atom_site_label_2
_geom_bond_distance
_geom_bond_site_symmetry_2
Mg0 Mg4 3.015328 1_445
Mg0 Mg6 3.096857 1_545
Mg0 Mg15 3.096857 1_455
Mg0 Mg2 3.143455 1_446
Mg1 Mg3 3.090431 1_555
Mg1 Mg2 3.095012 1_555
Mg1 Mg14 3.127886 1_555
Mg1 Mg7 3.127886 1_555
Mg2 Mg8 3.229417 1_655
Mg2 Pb0 3.379583 1_664
Mg3 Mg9 3.185115 1_555
Mg3 Mg5 3.190519 1_555
Mg3 Mg6 3.220718 1_545
Mg4 Pb0 3.009380 1_555
Mg4 Mg5 3.284126 1_556
Mg4 Mg7 3.329732 1_555
Mg5 Mg9 3.127812 1_555
Mg5 Mg8 3.179443 1_545
Mg5 Mg6 3.181365 1_545
Mg5 Pb0 3.243578 1_554
Mg5 Mg7 3.272831 1_554
Mg6 Mg9 3.188975 1_565
Mg6 Mg8 3.530606 1_555
Mg7 Pb0 3.105838 1_555
Mg7 Mg9 3.153752 1_555
Mg8 Pb0 3.230303 1_564
Mg10 Mg13 3.081875 1_456
Mg10 Mg12 3.153638 1_555
Mg10 Mg7 3.161207 1_455
Mg10 Mg5 3.174052 1_456
Mg10 Mg14 3.175610 1_555
Mg10 Mg4 3.176445 1_455
Mg10 Mg6 3.198942 1_555
Mg11 Mg8 3.081875 1_546
Mg11 Mg9 3.153638 1_555
Mg11 Mg14 3.161207 1_545
Mg11 Mg16 3.174052 1_546
Mg11 Mg7 3.175610 1_555
Mg11 Mg4 3.176445 1_545
Mg11 Mg15 3.198942 1_555
Mg12 Mg8 3.029177 1_555
Mg12 Mg16 3.127812 1_555
Mg12 Mg14 3.153752 1_555
Mg12 Mg6 3.181894 1_555
Mg12 Mg3 3.185115 1_555
Mg12 Mg15 3.188975 1_455
Mg13 Mg9 3.029177 1_555
Mg13 Mg16 3.179443 1_655
Mg13 Mg2 3.229417 1_545
Mg13 Pb0 3.230303 1_654
Mg13 Mg5 3.424408 1_555
Mg13 Mg15 3.530606 1_555
Mg14 Mg6 3.086375 1_555
Mg14 Pb0 3.105838 1_555
Mg14 Mg16 3.272831 1_556
Mg14 Mg4 3.329732 1_555
Mg15 Mg7 3.086375 1_555
Mg15 Mg16 3.181365 1_655
Mg15 Mg9 3.181894 1_555
Mg15 Mg3 3.220718 1_655
Mg16 Mg3 3.190519 1_555
Mg16 Pb0 3.243578 1_554
Mg16 Mg4 3.284126 1_554
Mg16 Mg8 3.424408 1_555
Al0 Al9 2.717366 1_445
Al0 Al2 2.717366 1_445
Al0 Mg3 2.895445 1_555
Al0 Mg15 2.898871 1_455
Al0 Mg6 2.898871 1_545
Al0 Pb0 2.902156 1_554
Al0 Mg8 3.249654 1_545
Al0 Mg13 3.249654 1_455
Al0 Mg2 3.352448 1_445
Al1 Al10 2.727361 1_555
Al1 Al5 2.763198 1_556
Al1 Al4 2.773882 1_655
Al1 Mg5 2.916935 1_556
Al1 Mg10 3.013729 1_655
Al1 Mg9 3.021342 1_556
Al1 Mg1 3.093091 1_556
Al1 Mg4 3.117493 1_555
Al1 Mg0 3.161523 1_665
Al1 Mg2 3.203178 1_556
Al1 Mg3 3.210064 1_556
Al2 Al5 2.706375 1_555
Al2 Al9 2.819752 1_555
Al2 Mg10 2.945448 1_655
Al2 Mg4 2.986890 1_555
Al2 Mg6 3.036584 1_655
Al2 Mg8 3.096637 1_655
Al2 Mg1 3.120381 1_555
Al2 Mg7 3.143505 1_555
Al2 Mg2 3.218575 1_555
Al2 Mg12 3.223860 1_655
Al3 Al4 2.690275 1_545
Al3 Al8 2.843784 1_555
Al3 Mg9 2.877795 1_555
Al3 Pb0 2.978943 1_555
Al3 Mg3 2.992823 1_555
Al3 Mg0 3.021312 1_555
Al3 Mg7 3.146344 1_555
Al3 Mg6 3.146636 1_545
Al3 Mg11 3.187078 1_555
Al3 Mg8 3.243095 1_546
Al3 Mg2 3.309144 1_446
Al4 Al5 2.771160 1_456
Al4 Mg14 2.931387 1_555
Al4 Mg16 2.958632 1_556
Al4 Mg10 3.004582 1_555
Al4 Mg0 3.103152 1_565
Al4 Mg8 3.129882 1_556
Al4 Mg2 3.219502 1_456
Al4 Mg11 3.237894 1_565
Al4 Mg6 3.239049 1_555
Al5 Mg15 2.930583 1_555
Al5 Mg16 2.950242 1_655
Al5 Mg9 3.003683 1_555
Al5 Mg1 3.094121 1_555
Al5 Mg8 3.103985 1_655
Al5 Mg7 3.137098 1_555
Al5 Mg2 3.200239 1_555
Al5 Mg12 3.266461 1_655
Al6 Al9 2.706375 1_555
Al6 Al7 2.771160 1_564
Al6 Mg6 2.930583 1_555
Al6 Mg5 2.950242 1_565
Al6 Mg12 3.003683 1_555
Al6 Mg1 3.094121 1_555
Al6 Mg13 3.103985 1_565
Al6 Mg14 3.137098 1_555
Al6 Mg2 3.200239 1_555
Al6 Mg9 3.266461 1_565
Al7 Al8 2.690275 1_655
Al7 Mg7 2.931387 1_555
Al7 Mg5 2.958632 1_556
Al7 Mg11 3.004582 1_555
Al7 Mg0 3.103152 1_655
Al7 Mg13 3.129882 1_556
Al7 Mg2 3.219502 1_546
Al7 Mg10 3.237894 1_655
Al7 Mg15 3.239049 1_555
Al8 Mg12 2.877795 1_555
Al8 Pb0 2.978943 1_555
Al8 Mg3 2.992823 1_555
Al8 Mg0 3.021312 1_555
Al8 Mg14 3.146344 1_555
Al8 Mg15 3.146636 1_455
Al8 Mg10 3.187078 1_555
Al8 Mg13 3.243095 1_456
Al8 Mg2 3.309144 1_446
Al9 Mg11 2.945448 1_565
Al9 Mg4 2.986890 1_555
Al9 Mg15 3.036584 1_565
Al9 Mg13 3.096637 1_565
Al9 Mg1 3.120381 1_555
Al9 Mg14 3.143505 1_555
Al9 Mg2 3.218575 1_555
Al9 Mg9 3.223860 1_565
Al10 Al6 2.763198 1_556
Al10 Al7 2.773882 1_565
Al10 Mg16 2.916935 1_556
Al10 Mg11 3.013729 1_565
Al10 Mg12 3.021342 1_556
Al10 Mg1 3.093091 1_556
Al10 Mg4 3.117493 1_555
Al10 Mg0 3.161523 1_665
Al10 Mg2 3.203178 1_556
Al10 Mg3 3.210064 1_556
