# generated using pymatgen
data_K2(TaS2)3
_symmetry_space_group_name_H-M   'P 1'
_cell_length_a   16.14856632
_cell_length_b   16.14856632
_cell_length_c   16.14856585
_cell_angle_alpha   20.97428313
_cell_angle_beta   20.97428313
_cell_angle_gamma   20.97428207
_symmetry_Int_Tables_number   1
_chemical_formula_structural   K2(TaS2)3
_chemical_formula_sum   'K4 Ta6 S12'
_cell_volume   472.49360829
_cell_formula_units_Z   2
loop_
 _symmetry_equiv_pos_site_id
 _symmetry_equiv_pos_as_xyz
  1  'x, y, z'
loop_
 _atom_site_type_symbol
 _atom_site_label
 _atom_site_symmetry_multiplicity
 _atom_site_fract_x
 _atom_site_fract_y
 _atom_site_fract_z
 _atom_site_occupancy
  K  K0  1  0.91628230  0.91628230  0.91628230  1
  K  K1  1  0.58284830  0.58284830  0.58284830  1
  K  K2  1  0.41715170  0.41715170  0.41715170  1
  K  K3  1  0.08371770  0.08371770  0.08371770  1
  Ta  Ta0  1  0.00000000  -0.00000000  -0.00000000  1
  Ta  Ta1  1  0.33341107  0.33341107  0.33341107  1
  Ta  Ta2  1  0.66658893  0.66658893  0.66658893  1
  Ta  Ta3  1  0.83095227  0.16904773  0.50000000  1
  Ta  Ta4  1  0.50000000  0.83095227  0.16904773  1
  Ta  Ta5  1  0.16904773  0.50000000  0.83095227  1
  S  S0  1  0.86896760  0.53032661  0.19768968  1
  S  S1  1  0.19768968  0.86896760  0.53032661  1
  S  S2  1  0.53032661  0.19768968  0.86896760  1
  S  S3  1  0.80231032  0.46967339  0.13103240  1
  S  S4  1  0.13103240  0.80231032  0.46967339  1
  S  S5  1  0.46967339  0.13103240  0.80231032  1
  S  S6  1  0.96948036  0.63257823  0.30074332  1
  S  S7  1  0.30074332  0.96948036  0.63257823  1
  S  S8  1  0.63257823  0.30074332  0.96948036  1
  S  S9  1  0.69925668  0.36742177  0.03051964  1
  S  S10  1  0.03051964  0.69925668  0.36742177  1
  S  S11  1  0.36742177  0.03051964  0.69925668  1
loop_
_geom_bond_atom_site_label_1
_geom_bond_atom_site_label_2
_geom_bond_distance
_geom_bond_site_symmetry_2
K0 S1 3.097819 1_655
K0 S2 3.097819 1_565
K0 S0 3.097819 1_556
K0 S6 3.124902 1_556
K0 S8 3.124902 1_565
K0 S7 3.124902 1_655
K1 S0 3.101409 1_555
K1 S1 3.101409 1_555
K1 S2 3.101409 1_555
K1 S8 3.129665 1_555
K1 S7 3.129665 1_555
K1 S6 3.129665 1_555
K2 S5 3.101409 1_555
K2 S4 3.101409 1_555
K2 S3 3.101409 1_555
K2 S9 3.129665 1_555
K2 S10 3.129665 1_555
K2 S11 3.129665 1_555
K3 S4 3.097819 1_545
K3 S3 3.097819 1_455
K3 S5 3.097819 1_554
K3 S11 3.124902 1_554
K3 S9 3.124902 1_455
K3 S10 3.124902 1_545
S0 Ta3 2.479852 1_555
S0 Ta5 2.487175 1_654
S0 Ta4 2.493659 1_555
S1 Ta4 2.479852 1_555
S1 Ta3 2.487175 1_465
S1 Ta5 2.493659 1_555
S2 Ta5 2.479852 1_555
S2 Ta4 2.487175 1_546
S2 Ta3 2.493659 1_555
S3 Ta4 2.479852 1_555
S3 Ta5 2.487175 1_654
S3 Ta3 2.493659 1_555
S4 Ta5 2.479852 1_555
S4 Ta3 2.487175 1_465
S4 Ta4 2.493659 1_555
S5 Ta3 2.479852 1_555
S5 Ta4 2.487175 1_546
S5 Ta5 2.493659 1_555
S6 Ta1 2.482917 1_655
S6 Ta2 2.491433 1_555
S6 Ta0 2.492376 1_665
S7 Ta1 2.482918 1_565
S7 Ta2 2.491433 1_555
S7 Ta0 2.492375 1_566
S8 Ta1 2.482917 1_556
S8 Ta2 2.491433 1_555
S8 Ta0 2.492375 1_656
S9 Ta2 2.482917 1_554
S9 Ta1 2.491433 1_555
S9 Ta0 2.492375 1_655
S10 Ta2 2.482918 1_455
S10 Ta1 2.491433 1_555
S10 Ta0 2.492375 1_565
S11 Ta2 2.482917 1_545
S11 Ta1 2.491433 1_555
S11 Ta0 2.492376 1_556
