# generated using pymatgen
data_NiGe7N10
_symmetry_space_group_name_H-M   'P 1'
_cell_length_a   6.91798083
_cell_length_b   7.42150000
_cell_length_c   10.23227719
_cell_angle_alpha   90.00000000
_cell_angle_beta   101.94686724
_cell_angle_gamma   90.00000000
_symmetry_Int_Tables_number   1
_chemical_formula_structural   NiGe7N10
_chemical_formula_sum   'Ni2 Ge14 N20'
_cell_volume   513.96452786
_cell_formula_units_Z   2
loop_
 _symmetry_equiv_pos_site_id
 _symmetry_equiv_pos_as_xyz
  1  'x, y, z'
loop_
 _atom_site_type_symbol
 _atom_site_label
 _atom_site_symmetry_multiplicity
 _atom_site_fract_x
 _atom_site_fract_y
 _atom_site_fract_z
 _atom_site_occupancy
  Ni  Ni0  1  0.95141300  0.87889700  0.67849500  1
  Ni  Ni1  1  0.95141300  0.12110300  0.17849500  1
  Ge  Ge0  1  0.54784900  0.98168100  0.82132400  1
  Ge  Ge1  1  0.54784900  0.01831900  0.32132400  1
  Ge  Ge2  1  0.33718300  0.01580500  0.02420100  1
  Ge  Ge3  1  0.33718300  0.98419500  0.52420100  1
  Ge  Ge4  1  0.12032200  0.39499900  0.07346900  1
  Ge  Ge5  1  0.12032200  0.60500100  0.57346900  1
  Ge  Ge6  1  0.65528000  0.35387200  0.98910000  1
  Ge  Ge7  1  0.65528000  0.64612800  0.48910000  1
  Ge  Ge8  1  0.84662700  0.61840000  0.81766200  1
  Ge  Ge9  1  0.84662700  0.38160000  0.31766200  1
  Ge  Ge10  1  0.30571100  0.62908500  0.88137900  1
  Ge  Ge11  1  0.30571100  0.37091500  0.38137900  1
  Ge  Ge12  1  0.49149200  0.36373000  0.68479900  1
  Ge  Ge13  1  0.49149200  0.63627000  0.18479900  1
  N  N0  1  0.77391100  0.85821700  0.80369500  1
  N  N1  1  0.77391100  0.14178300  0.30369500  1
  N  N2  1  0.54456600  0.13450000  0.96741400  1
  N  N3  1  0.54456600  0.86550000  0.46741400  1
  N  N4  1  0.32125300  0.87312900  0.86828300  1
  N  N5  1  0.32125300  0.12687100  0.36828300  1
  N  N6  1  0.12599100  0.14845000  0.05129800  1
  N  N7  1  0.12599100  0.85155000  0.55129800  1
  N  N8  1  0.29531500  0.51378300  0.72125700  1
  N  N9  1  0.29531500  0.48621700  0.22125700  1
  N  N10  1  0.44811100  0.12157100  0.67266600  1
  N  N11  1  0.44811100  0.87842900  0.17266600  1
  N  N12  1  0.87900100  0.36274900  0.13192000  1
  N  N13  1  0.87900100  0.63725100  0.63192000  1
  N  N14  1  0.07900100  0.57448100  0.94278300  1
  N  N15  1  0.07900100  0.42551900  0.44278300  1
  N  N16  1  0.70985700  0.40593400  0.82178000  1
  N  N17  1  0.70985700  0.59406600  0.32178000  1
  N  N18  1  0.50941400  0.55026800  0.01777500  1
  N  N19  1  0.50941400  0.44973200  0.51777500  1
loop_
_geom_bond_atom_site_label_1
_geom_bond_atom_site_label_2
_geom_bond_distance
_geom_bond_site_symmetry_2
Ge0 N10 1.852884 1_565
Ge0 N0 1.853288 1_555
Ge0 N2 1.880262 1_565
Ge0 N4 1.910253 1_555
Ge1 N11 1.852884 1_545
Ge1 N1 1.853288 1_555
Ge1 N3 1.880262 1_545
Ge1 N5 1.910253 1_555
Ge2 N6 1.829826 1_555
Ge2 N11 1.858354 1_545
Ge2 N2 1.875372 1_554
Ge2 N4 1.898907 1_544
Ge3 N7 1.829826 1_555
Ge3 N10 1.858354 1_565
Ge3 N3 1.875372 1_555
Ge3 N5 1.898907 1_565
Ge4 N6 1.845189 1_555
Ge4 N9 1.858144 1_555
Ge4 N14 1.867055 1_554
Ge4 N12 1.901433 1_455
Ge5 N7 1.845189 1_555
Ge5 N8 1.858144 1_555
Ge5 N15 1.867055 1_555
Ge5 N13 1.901433 1_455
Ge6 N2 1.793353 1_555
Ge6 N18 1.830685 1_556
Ge6 N16 1.868322 1_555
Ge6 N12 1.897085 1_556
Ge7 N3 1.793353 1_555
Ge7 N19 1.830685 1_555
Ge7 N17 1.868322 1_555
Ge7 N13 1.897085 1_555
Ge8 N16 1.843875 1_555
Ge8 N0 1.847001 1_555
Ge8 N14 1.864807 1_655
Ge8 N13 1.964205 1_555
Ge9 N17 1.843875 1_555
Ge9 N1 1.847001 1_555
Ge9 N15 1.864807 1_655
Ge9 N12 1.964205 1_555
Ge10 N4 1.820941 1_555
Ge10 N8 1.836581 1_555
Ge10 N14 1.851151 1_555
Ge10 N18 1.860537 1_556
Ge11 N5 1.820941 1_555
Ge11 N9 1.836581 1_555
Ge11 N15 1.851151 1_555
Ge11 N19 1.860537 1_555
Ge12 N10 1.822065 1_555
Ge12 N8 1.852233 1_555
Ge12 N19 1.852372 1_555
Ge12 N16 1.862285 1_555
Ge13 N11 1.822065 1_555
Ge13 N9 1.852233 1_555
Ge13 N18 1.852372 1_555
Ge13 N17 1.862285 1_555
N0 Ni0 1.955474 1_555
N1 Ni1 1.955474 1_555
N6 Ni1 1.960742 1_455
N7 Ni0 1.960742 1_455
N12 Ni1 1.896160 1_555
N13 Ni0 1.896160 1_555
