# generated using pymatgen
data_KLiNi2H3(SeO5)2
_symmetry_space_group_name_H-M   'P 1'
_cell_length_a   5.85756585
_cell_length_b   5.85716109
_cell_length_c   8.03396416
_cell_angle_alpha   69.50717351
_cell_angle_beta   69.50356177
_cell_angle_gamma   66.86513999
_symmetry_Int_Tables_number   1
_chemical_formula_structural   KLiNi2H3(SeO5)2
_chemical_formula_sum   'K1 Li1 Ni2 H3 Se2 O10'
_cell_volume   230.08338091
_cell_formula_units_Z   1
loop_
 _symmetry_equiv_pos_site_id
 _symmetry_equiv_pos_as_xyz
  1  'x, y, z'
loop_
 _atom_site_type_symbol
 _atom_site_label
 _atom_site_symmetry_multiplicity
 _atom_site_fract_x
 _atom_site_fract_y
 _atom_site_fract_z
 _atom_site_occupancy
  K  K0  1  0.50601300  0.50603300  0.48925800  1
  Li  Li0  1  0.84968800  0.84965900  0.66763600  1
  Ni  Ni0  1  0.01277400  0.50622600  0.98456100  1
  Ni  Ni1  1  0.50621500  0.01276400  0.98456400  1
  H  H0  1  0.59583500  0.59572200  0.86783800  1
  H  H1  1  0.26316900  0.26318300  0.27393200  1
  H  H2  1  0.42826600  0.42832000  0.12013100  1
  Se  Se0  1  0.93150100  0.93148300  0.24317600  1
  Se  Se1  1  0.08934500  0.08941300  0.73254900  1
  O  O0  1  0.80882200  0.80879200  0.46048000  1
  O  O1  1  0.20811300  0.20815800  0.50856800  1
  O  O2  1  0.25302600  0.82354800  0.19851800  1
  O  O3  1  0.82357700  0.25301300  0.19853500  1
  O  O4  1  0.75661900  0.17621300  0.75182200  1
  O  O5  1  0.17619500  0.75666200  0.75182000  1
  O  O6  1  0.68313500  0.68310600  0.89633000  1
  O  O7  1  0.32265400  0.32265500  0.13658300  1
  O  O8  1  0.82538000  0.82537300  0.12006400  1
  O  O9  1  0.24791200  0.24791800  0.84463300  1
loop_
_geom_bond_atom_site_label_1
_geom_bond_atom_site_label_2
_geom_bond_distance
_geom_bond_site_symmetry_2
K0 O5 2.724458 1_555
K0 O4 2.724580 1_555
K0 O1 2.850647 1_555
K0 O0 2.870805 1_555
K0 O3 2.885577 1_555
K0 O2 2.885725 1_555
K0 O9 2.910967 1_555
K0 O8 3.282534 1_555
Li0 O0 1.867454 1_555
Li0 O6 1.875312 1_555
Li0 O4 2.059416 1_565
Li0 O5 2.059419 1_655
Ni0 O9 1.979632 1_555
Ni0 O6 2.043643 1_455
Ni0 O5 2.119837 1_555
Ni0 O3 2.134295 1_456
Ni0 O8 2.204524 1_456
Ni0 O7 2.245420 1_556
Ni1 O9 1.979795 1_555
Ni1 O6 2.043579 1_545
Ni1 O4 2.119807 1_555
Ni1 O2 2.134211 1_546
Ni1 O8 2.204790 1_546
Ni1 O7 2.245261 1_556
H0 O6 0.972379 1_555
H1 O7 1.008639 1_555
H1 O1 1.729704 1_555
H2 O7 0.984643 1_555
O0 Se0 1.652109 1_555
O1 Se1 1.683149 1_555
O2 Se0 1.680901 1_455
O3 Se0 1.680848 1_545
O4 Se1 1.773721 1_655
O5 Se1 1.773711 1_565
O8 Se0 1.707480 1_555
O9 Se1 2.093830 1_555
