# generated using pymatgen
data_CuSi2N3
_symmetry_space_group_name_H-M   'P 1'
_cell_length_a   5.35373658
_cell_length_b   5.33917512
_cell_length_c   4.90758800
_cell_angle_alpha   90.00000000
_cell_angle_beta   90.00000000
_cell_angle_gamma   119.91006736
_symmetry_Int_Tables_number   1
_chemical_formula_structural   CuSi2N3
_chemical_formula_sum   'Cu2 Si4 N6'
_cell_volume   121.59696785
_cell_formula_units_Z   2
loop_
 _symmetry_equiv_pos_site_id
 _symmetry_equiv_pos_as_xyz
  1  'x, y, z'
loop_
 _atom_site_type_symbol
 _atom_site_label
 _atom_site_symmetry_multiplicity
 _atom_site_fract_x
 _atom_site_fract_y
 _atom_site_fract_z
 _atom_site_occupancy
  Cu  Cu0  1  0.00000000  0.63031200  0.51033100  1
  Cu  Cu1  1  0.00000000  0.36968800  0.01033100  1
  Si  Si0  1  0.33636400  0.32744400  0.48983300  1
  Si  Si1  1  0.66363600  0.99108000  0.48983300  1
  Si  Si2  1  0.66363600  0.67255600  0.98983300  1
  Si  Si3  1  0.33636400  0.00892000  0.98983300  1
  N  N0  1  0.39824100  0.33965500  0.84586900  1
  N  N1  1  0.60175900  0.94141400  0.84586900  1
  N  N2  1  0.60175900  0.66034500  0.34586900  1
  N  N3  1  0.39824100  0.05858600  0.34586900  1
  N  N4  1  0.00000000  0.73820600  0.90626600  1
  N  N5  1  0.00000000  0.26179400  0.40626600  1
loop_
_geom_bond_atom_site_label_1
_geom_bond_atom_site_label_2
_geom_bond_distance
_geom_bond_site_symmetry_2
Cu0 N4 2.026680 1_555
Cu0 N5 2.032782 1_555
Cu0 N2 2.358781 1_455
Cu0 N3 2.358781 1_565
Cu1 N5 2.026680 1_555
Cu1 N4 2.032782 1_554
Cu1 N0 2.358781 1_554
Cu1 N1 2.358781 1_444
N0 Si3 1.773063 1_555
N0 Si0 1.773537 1_555
N0 Si2 1.777251 1_555
N1 Si2 1.773063 1_555
N1 Si1 1.773537 1_555
N1 Si3 1.777251 1_565
N2 Si1 1.773063 1_555
N2 Si2 1.773537 1_554
N2 Si0 1.777251 1_555
N3 Si0 1.773063 1_555
N3 Si3 1.773537 1_554
N3 Si1 1.777251 1_545
N4 Si2 1.704246 1_455
N4 Si3 1.704246 1_565
N5 Si0 1.704246 1_555
N5 Si1 1.704246 1_445
