# generated using pymatgen
data_Eu3TaO7
_symmetry_space_group_name_H-M   'P 1'
_cell_length_a   6.61622924
_cell_length_b   6.61622924
_cell_length_c   7.71782000
_cell_angle_alpha   90.00000000
_cell_angle_beta   90.00000000
_cell_angle_gamma   110.09687611
_symmetry_Int_Tables_number   1
_chemical_formula_structural   Eu3TaO7
_chemical_formula_sum   'Eu6 Ta2 O14'
_cell_volume   317.27333985
_cell_formula_units_Z   2
loop_
 _symmetry_equiv_pos_site_id
 _symmetry_equiv_pos_as_xyz
  1  'x, y, z'
loop_
 _atom_site_type_symbol
 _atom_site_label
 _atom_site_symmetry_multiplicity
 _atom_site_fract_x
 _atom_site_fract_y
 _atom_site_fract_z
 _atom_site_occupancy
  Eu  Eu0  1  0.00272400  0.46961000  0.74830300  1
  Eu  Eu1  1  0.99727600  0.53039000  0.24830300  1
  Eu  Eu2  1  0.53039000  0.99727600  0.75169700  1
  Eu  Eu3  1  0.46961000  0.00272400  0.25169700  1
  Eu  Eu4  1  0.50823900  0.50823900  0.50000000  1
  Eu  Eu5  1  0.49176100  0.49176100  0.00000000  1
  Ta  Ta0  1  0.99998800  0.99998800  0.50000000  1
  Ta  Ta1  1  0.00001200  0.00001200  0.00000000  1
  O  O0  1  0.63792900  0.36207100  0.75000000  1
  O  O1  1  0.36207100  0.63792900  0.25000000  1
  O  O2  1  0.94533200  0.05466800  0.75000000  1
  O  O3  1  0.05466800  0.94533200  0.25000000  1
  O  O4  1  0.92317100  0.67850300  0.52673500  1
  O  O5  1  0.07682900  0.32149700  0.02673500  1
  O  O6  1  0.32149700  0.07682900  0.97326500  1
  O  O7  1  0.67850300  0.92317100  0.47326500  1
  O  O8  1  0.37215900  0.62784100  0.75000000  1
  O  O9  1  0.62784100  0.37215900  0.25000000  1
  O  O10  1  0.93605400  0.68695000  0.96736000  1
  O  O11  1  0.06394600  0.31305000  0.46736000  1
  O  O12  1  0.31305000  0.06394600  0.53264000  1
  O  O13  1  0.68695000  0.93605400  0.03264000  1
loop_
_geom_bond_atom_site_label_1
_geom_bond_atom_site_label_2
_geom_bond_distance
_geom_bond_site_symmetry_2
Eu0 O0 2.269710 1_455
Eu0 O8 2.304796 1_555
Eu0 O10 2.357224 1_455
Eu0 O4 2.368814 1_455
Eu0 O5 2.479636 1_556
Eu0 O11 2.495346 1_555
Eu0 O2 2.639113 1_455
Eu1 O1 2.269710 1_655
Eu1 O9 2.304796 1_555
Eu1 O11 2.357224 1_655
Eu1 O5 2.368814 1_655
Eu1 O4 2.479636 1_555
Eu1 O10 2.495346 1_554
Eu1 O3 2.639113 1_655
Eu2 O0 2.269710 1_565
Eu2 O8 2.304796 1_555
Eu2 O12 2.357224 1_565
Eu2 O6 2.368814 1_565
Eu2 O7 2.479636 1_555
Eu2 O13 2.495346 1_556
Eu2 O2 2.639113 1_565
Eu3 O1 2.269710 1_545
Eu3 O9 2.304796 1_555
Eu3 O13 2.357224 1_545
Eu3 O7 2.368814 1_545
Eu3 O6 2.479636 1_554
Eu3 O12 2.495346 1_555
Eu3 O3 2.639113 1_545
Eu4 O9 2.376802 1_555
Eu4 O8 2.376802 1_555
Eu4 O0 2.442247 1_555
Eu4 O1 2.442247 1_555
Eu4 O7 2.592857 1_555
Eu4 O4 2.592857 1_555
Eu4 O12 2.786277 1_555
Eu4 O11 2.786277 1_555
Eu5 O9 2.376802 1_555
Eu5 O8 2.376802 1_554
Eu5 O1 2.442247 1_555
Eu5 O0 2.442247 1_554
Eu5 O5 2.592857 1_555
Eu5 O6 2.592857 1_554
Eu5 O13 2.786277 1_555
Eu5 O10 2.786277 1_554
O2 Ta0 2.018502 1_545
O2 Ta1 2.018502 1_656
O3 Ta1 2.018502 1_565
O3 Ta0 2.018502 1_455
O4 Ta0 2.020442 1_555
O5 Ta1 2.020442 1_555
O6 Ta1 2.020442 1_556
O7 Ta0 2.020442 1_555
O10 Ta1 1.982531 1_666
O11 Ta0 1.982531 1_445
O12 Ta0 1.982531 1_445
O13 Ta1 1.982531 1_665
