# generated using pymatgen
data_Th(CoSn)2
_symmetry_space_group_name_H-M   'P 1'
_cell_length_a   4.46007000
_cell_length_b   4.46007000
_cell_length_c   9.98227000
_cell_angle_alpha   90.00000000
_cell_angle_beta   90.00000000
_cell_angle_gamma   90.00000000
_symmetry_Int_Tables_number   1
_chemical_formula_structural   Th(CoSn)2
_chemical_formula_sum   'Th2 Co4 Sn4'
_cell_volume   198.56955491
_cell_formula_units_Z   2
loop_
 _symmetry_equiv_pos_site_id
 _symmetry_equiv_pos_as_xyz
  1  'x, y, z'
loop_
 _atom_site_type_symbol
 _atom_site_label
 _atom_site_symmetry_multiplicity
 _atom_site_fract_x
 _atom_site_fract_y
 _atom_site_fract_z
 _atom_site_occupancy
  Th  Th0  1  0.00000000  0.50000000  0.23290900  1
  Th  Th1  1  0.50000000  0.00000000  0.76709100  1
  Co  Co0  1  0.00000000  0.00000000  0.00000000  1
  Co  Co1  1  0.50000000  0.50000000  0.00000000  1
  Co  Co2  1  0.00000000  0.50000000  0.62696500  1
  Co  Co3  1  0.50000000  0.00000000  0.37303500  1
  Sn  Sn0  1  0.00000000  0.00000000  0.50000000  1
  Sn  Sn1  1  0.50000000  0.50000000  0.50000000  1
  Sn  Sn2  1  0.00000000  0.50000000  0.87409100  1
  Sn  Sn3  1  0.50000000  0.00000000  0.12590900  1
loop_
_geom_bond_atom_site_label_1
_geom_bond_atom_site_label_2
_geom_bond_distance
_geom_bond_site_symmetry_2
Co0 Sn3 2.559833 1_455
Co0 Sn3 2.559833 1_555
Co0 Sn2 2.559833 1_554
Co0 Sn2 2.559833 1_544
Co0 Th0 3.221568 1_555
Co0 Th0 3.221568 1_545
Co0 Th1 3.221568 1_454
Co0 Th1 3.221568 1_554
Co1 Sn3 2.559833 1_565
Co1 Sn3 2.559833 1_555
Co1 Sn2 2.559833 1_654
Co1 Sn2 2.559833 1_554
Co1 Th0 3.221568 1_555
Co1 Th0 3.221568 1_655
Co1 Th1 3.221568 1_564
Co1 Th1 3.221568 1_554
Co2 Sn2 2.466878 1_555
Co2 Sn1 2.565026 1_555
Co2 Sn1 2.565026 1_455
Co2 Sn0 2.565026 1_565
Co2 Sn0 2.565026 1_555
Co2 Th1 3.450027 1_555
Co2 Th1 3.450027 1_565
Co2 Th1 3.450027 1_465
Co2 Th1 3.450027 1_455
Co3 Sn3 2.466878 1_555
Co3 Sn0 2.565026 1_655
Co3 Sn1 2.565026 1_545
Co3 Sn1 2.565026 1_555
Co3 Sn0 2.565026 1_555
Co3 Th0 3.450027 1_555
Co3 Th0 3.450027 1_545
Co3 Th0 3.450027 1_655
Co3 Th0 3.450027 1_645
Sn0 Th1 3.475851 1_455
Sn0 Th1 3.475851 1_555
Sn0 Th0 3.475851 1_555
Sn0 Th0 3.475851 1_545
Sn1 Th1 3.475851 1_565
Sn1 Th1 3.475851 1_555
Sn1 Th0 3.475851 1_555
Sn1 Th0 3.475851 1_655
Sn2 Th1 3.329708 1_465
Sn2 Th1 3.329708 1_455
Sn2 Th1 3.329708 1_565
Sn2 Th1 3.329708 1_555
Sn3 Th0 3.329708 1_645
Sn3 Th0 3.329708 1_555
Sn3 Th0 3.329708 1_545
Sn3 Th0 3.329708 1_655
