# generated using pymatgen
data_BaCe2EuO6
_symmetry_space_group_name_H-M   'P 1'
_cell_length_a   4.44892315
_cell_length_b   4.44892315
_cell_length_c   8.88815854
_cell_angle_alpha   90.00000000
_cell_angle_beta   90.00000000
_cell_angle_gamma   90.00000000
_symmetry_Int_Tables_number   1
_chemical_formula_structural   BaCe2EuO6
_chemical_formula_sum   'Ba1 Ce2 Eu1 O6'
_cell_volume   175.92258599
_cell_formula_units_Z   1
loop_
 _symmetry_equiv_pos_site_id
 _symmetry_equiv_pos_as_xyz
  1  'x, y, z'
loop_
 _atom_site_type_symbol
 _atom_site_label
 _atom_site_symmetry_multiplicity
 _atom_site_fract_x
 _atom_site_fract_y
 _atom_site_fract_z
 _atom_site_occupancy
  Ba  Ba0  1  0.50000000  0.50000000  -0.00000000  1
  Ce  Ce0  1  -0.00000000  -0.00000000  0.74754991  1
  Ce  Ce1  1  0.00000000  0.00000000  0.25245009  1
  Eu  Eu0  1  0.50000000  0.50000000  0.50000000  1
  O  O0  1  0.50000000  0.00000000  0.74529456  1
  O  O1  1  0.50000000  -0.00000000  0.25470544  1
  O  O2  1  0.00000000  -0.00000000  0.50000000  1
  O  O3  1  0.00000000  -0.00000000  -0.00000000  1
  O  O4  1  -0.00000000  0.50000000  0.74529456  1
  O  O5  1  0.00000000  0.50000000  0.25470544  1
loop_
_geom_bond_atom_site_label_1
_geom_bond_atom_site_label_2
_geom_bond_distance
_geom_bond_site_symmetry_2
Ba0 O3 3.145864 1_555
Ba0 O3 3.145864 1_565
Ba0 O3 3.145864 1_665
Ba0 O3 3.145864 1_655
Ba0 O0 3.173847 1_564
Ba0 O4 3.173847 1_654
Ba0 O0 3.173847 1_554
Ba0 O4 3.173847 1_554
Ba0 O1 3.173847 1_555
Ba0 O5 3.173847 1_555
Ba0 O5 3.173847 1_655
Ba0 O1 3.173847 1_565
Ce0 O2 2.200263 1_555
Ce0 O0 2.224552 1_455
Ce0 O4 2.224552 1_545
Ce0 O0 2.224552 1_555
Ce0 O4 2.224552 1_555
Ce0 O3 2.243816 1_556
Ce1 O2 2.200263 1_555
Ce1 O5 2.224552 1_555
Ce1 O1 2.224552 1_455
Ce1 O5 2.224552 1_545
Ce1 O1 2.224552 1_555
Ce1 O3 2.243816 1_555
Eu0 O1 3.114735 1_565
Eu0 O0 3.114735 1_555
Eu0 O4 3.114735 1_555
Eu0 O1 3.114735 1_555
Eu0 O4 3.114735 1_655
Eu0 O0 3.114735 1_565
Eu0 O5 3.114735 1_555
Eu0 O5 3.114735 1_655
Eu0 O2 3.145864 1_655
Eu0 O2 3.145864 1_555
Eu0 O2 3.145864 1_565
Eu0 O2 3.145864 1_665
