# generated using pymatgen
data_Ba2YV3O8
_symmetry_space_group_name_H-M   'P 1'
_cell_length_a   3.95462460
_cell_length_b   12.65036603
_cell_length_c   8.08487879
_cell_angle_alpha   108.64056634
_cell_angle_beta   90.05666231
_cell_angle_gamma   89.98657443
_symmetry_Int_Tables_number   1
_chemical_formula_structural   Ba2YV3O8
_chemical_formula_sum   'Ba4 Y2 V6 O16'
_cell_volume   383.24833913
_cell_formula_units_Z   2
loop_
 _symmetry_equiv_pos_site_id
 _symmetry_equiv_pos_as_xyz
  1  'x, y, z'
loop_
 _atom_site_type_symbol
 _atom_site_label
 _atom_site_symmetry_multiplicity
 _atom_site_fract_x
 _atom_site_fract_y
 _atom_site_fract_z
 _atom_site_occupancy
  Ba  Ba0  1  0.49914000  0.16400200  0.33181700  1
  Ba  Ba1  1  0.50085800  0.16386900  0.83202900  1
  Ba  Ba2  1  0.49886500  0.83611100  0.67044700  1
  Ba  Ba3  1  0.50115000  0.83615000  0.16564200  1
  Y  Y0  1  0.49869900  0.49984200  0.50441800  1
  Y  Y1  1  0.50128100  0.49992800  0.99544400  1
  V  V0  1  0.99999500  0.00085800  0.00047000  1
  V  V1  1  0.00010700  0.66087900  0.83044100  1
  V  V2  1  0.99999400  0.65821500  0.32912300  1
  V  V3  1  0.00004900  0.99903200  0.49949000  1
  V  V4  1  0.99994200  0.34130500  0.17038500  1
  V  V5  1  0.99998400  0.34010000  0.66999300  1
  O  O0  1  0.49998400  0.99906500  0.49952300  1
  O  O1  1  0.50000200  0.00137200  0.00069000  1
  O  O2  1  0.99999300  0.99968300  0.74986600  1
  O  O3  1  0.99999900  0.99967900  0.24982200  1
  O  O4  1  0.99997600  0.18342100  0.59176100  1
  O  O5  1  0.00006100  0.18412700  0.09220700  1
  O  O6  1  0.99998100  0.81444000  0.40719500  1
  O  O7  1  0.00000000  0.81840700  0.90918200  1
  O  O8  1  0.99929400  0.38172700  0.44132500  1
  O  O9  1  0.00067300  0.38184600  0.94077100  1
  O  O10  1  0.49998300  0.38343000  0.69179100  1
  O  O11  1  0.50001200  0.38507100  0.19247100  1
  O  O12  1  0.99942700  0.61894300  0.56552000  1
  O  O13  1  0.00058700  0.61895500  0.05343000  1
  O  O14  1  0.49998100  0.61526100  0.30761900  1
  O  O15  1  0.49998500  0.61428800  0.80713300  1
loop_
_geom_bond_atom_site_label_1
_geom_bond_atom_site_label_2
_geom_bond_distance
_geom_bond_site_symmetry_2
Ba0 O3 2.788440 1_445
Ba0 O3 2.793492 1_545
Ba0 O1 2.806910 1_555
Ba0 O0 2.828510 1_545
Ba0 O5 2.832046 1_555
Ba0 O4 2.837566 1_455
Ba0 O4 2.839356 1_555
Ba0 O5 2.839879 1_655
Ba0 O8 3.274055 1_455
Ba0 O8 3.274512 1_555
Ba0 O10 3.318290 1_555
Ba0 O11 3.332314 1_555
Ba1 O2 2.787503 1_545
Ba1 O2 2.792110 1_445
Ba1 O1 2.806604 1_556
Ba1 O0 2.826751 1_545
Ba1 O5 2.834634 1_656
Ba1 O4 2.836471 1_555
Ba1 O4 2.838574 1_455
Ba1 O5 2.841840 1_556
Ba1 O9 3.276112 1_655
Ba1 O9 3.277265 1_555
Ba1 O10 3.318632 1_555
Ba1 O11 3.333120 1_556
Ba2 O2 2.781626 1_455
Ba2 O2 2.787748 1_555
Ba2 O1 2.816229 1_566
Ba2 O7 2.819880 1_555
Ba2 O7 2.823422 1_655
Ba2 O0 2.824928 1_555
Ba2 O6 2.848922 1_455
Ba2 O6 2.857867 1_555
Ba2 O12 3.267634 1_455
Ba2 O12 3.270559 1_555
Ba2 O15 3.328368 1_555
Ba2 O14 3.342372 1_555
Ba3 O3 2.780959 1_555
Ba3 O3 2.787691 1_455
Ba3 O1 2.815852 1_565
Ba3 O7 2.819883 1_654
Ba3 O7 2.823457 1_554
Ba3 O0 2.824502 1_555
Ba3 O6 2.848833 1_555
Ba3 O6 2.858006 1_455
Ba3 O13 3.268154 1_655
Ba3 O13 3.270541 1_555
Ba3 O15 3.328379 1_554
Ba3 O14 3.343103 1_555
O0 V3 1.977055 1_555
O0 V3 1.977570 1_655
O1 V0 1.977294 1_555
O1 V0 1.977349 1_455
O2 V0 2.021401 1_566
O2 V3 2.021643 1_655
O3 V0 2.020797 1_565
O3 V3 2.021166 1_655
O4 V5 1.878073 1_555
O4 V3 2.210226 1_645
O5 V4 1.884058 1_455
O5 V0 2.196801 1_455
O6 V2 1.872631 1_555
O6 V3 2.212660 1_655
O7 V1 1.888250 1_555
O7 V0 2.186996 1_466
O8 V5 2.077869 1_555
O8 V4 2.084181 1_555
O8 Y0 2.430112 1_655
O8 Y0 2.434189 1_555
O9 V4 2.077954 1_456
O9 V5 2.081454 1_455
O9 Y1 2.430077 1_455
O9 Y1 2.433845 1_555
O10 V5 2.044341 1_455
O10 V5 2.044437 1_555
O10 Y1 2.426122 1_555
O10 Y0 2.426877 1_555
O11 V4 2.045501 1_555
O11 V4 2.045946 1_455
O11 Y0 2.475477 1_555
O11 Y1 2.475528 1_554
O12 V1 2.035338 1_655
O12 V2 2.122889 1_555
O12 Y0 2.436641 1_655
O12 Y0 2.441089 1_555
O13 V1 2.035368 1_554
O13 V2 2.123018 1_455
O13 Y1 2.436031 1_454
O13 Y1 2.440661 1_554
O14 V2 2.043242 1_455
O14 V2 2.043255 1_555
O14 Y1 2.478871 1_554
O14 Y0 2.479637 1_555
O15 V1 2.054250 1_555
O15 V1 2.055085 1_655
O15 Y1 2.412232 1_555
O15 Y0 2.412635 1_555
