# generated using pymatgen
data_Li2Ni3WO8
_symmetry_space_group_name_H-M   'P 1'
_cell_length_a   5.95144213
_cell_length_b   6.02474484
_cell_length_c   10.24960765
_cell_angle_alpha   106.86173995
_cell_angle_beta   89.90696930
_cell_angle_gamma   60.32261706
_symmetry_Int_Tables_number   1
_chemical_formula_structural   Li2Ni3WO8
_chemical_formula_sum   'Li4 Ni6 W2 O16'
_cell_volume   300.87635435
_cell_formula_units_Z   2
loop_
 _symmetry_equiv_pos_site_id
 _symmetry_equiv_pos_as_xyz
  1  'x, y, z'
loop_
 _atom_site_type_symbol
 _atom_site_label
 _atom_site_symmetry_multiplicity
 _atom_site_fract_x
 _atom_site_fract_y
 _atom_site_fract_z
 _atom_site_occupancy
  Li  Li0  1  0.30358800  0.39242100  0.56406200  1
  Li  Li1  1  0.80357500  0.39255900  0.06416000  1
  Li  Li2  1  0.19623000  0.60768100  0.93591300  1
  Li  Li3  1  0.69633600  0.60748000  0.43581900  1
  Ni  Ni0  1  0.75000600  0.99941600  0.75025300  1
  Ni  Ni1  1  0.74956000  0.00070400  0.24963200  1
  Ni  Ni2  1  0.00133600  0.00009700  0.50016300  1
  Ni  Ni3  1  0.25010900  0.99961700  0.25037900  1
  Ni  Ni4  1  0.24972200  0.00018900  0.74954900  1
  Ni  Ni5  1  0.50150500  0.99977700  0.00011300  1
  W  W0  1  0.74891300  0.49996500  0.75009700  1
  W  W1  1  0.24870200  0.50026300  0.25005900  1
  O  O0  1  0.09282600  0.81279600  0.63035000  1
  O  O1  1  0.59307000  0.81279100  0.13039600  1
  O  O2  1  0.40693100  0.18684500  0.86966700  1
  O  O3  1  0.90694100  0.18708800  0.36967000  1
  O  O4  1  0.86955100  0.26153900  0.86148500  1
  O  O5  1  0.36924600  0.26195700  0.36155000  1
  O  O6  1  0.64178900  0.26138400  0.63260900  1
  O  O7  1  0.14195000  0.26135300  0.13254400  1
  O  O8  1  0.09677300  0.26140900  0.63213300  1
  O  O9  1  0.59676100  0.26149200  0.13216700  1
  O  O10  1  0.40318600  0.73902800  0.86803600  1
  O  O11  1  0.90298000  0.73929700  0.36798800  1
  O  O12  1  0.85875600  0.73806400  0.86716300  1
  O  O13  1  0.35868200  0.73820400  0.36717800  1
  O  O14  1  0.63046000  0.73825000  0.63843400  1
  O  O15  1  0.13051600  0.73833200  0.13843000  1
loop_
_geom_bond_atom_site_label_1
_geom_bond_atom_site_label_2
_geom_bond_distance
_geom_bond_site_symmetry_2
Li0 O5 1.955928 1_555
Li0 O8 1.975731 1_555
Li0 O6 1.980161 1_555
Li0 O0 2.074252 1_555
Li1 O4 1.957490 1_554
Li1 O9 1.975688 1_555
Li1 O7 1.980220 1_655
Li1 O1 2.073555 1_555
Li2 O15 1.955971 1_556
Li2 O10 1.977126 1_555
Li2 O12 1.977606 1_455
Li2 O2 2.076561 1_555
Li3 O14 1.956916 1_555
Li3 O11 1.977679 1_555
Li3 O13 1.977952 1_555
Li3 O3 2.074377 1_555
Ni0 O2 1.961907 1_565
Ni0 O0 1.963645 1_655
Ni0 O14 2.088187 1_555
Ni0 O4 2.090612 1_565
Ni0 O12 2.102861 1_555
Ni0 O6 2.111816 1_565
Ni1 O1 1.971757 1_545
Ni1 O3 1.973763 1_555
Ni1 O5 2.081514 1_555
Ni1 O15 2.082232 1_645
Ni1 O9 2.105050 1_555
Ni1 O11 2.115100 1_545
Ni2 O0 1.902063 1_545
Ni2 O3 1.903560 1_455
Ni2 O8 2.069629 1_555
Ni2 O13 2.071352 1_545
Ni2 O6 2.077266 1_455
Ni2 O11 2.079728 1_445
Ni3 O3 1.961721 1_465
Ni3 O1 1.964501 1_555
Ni3 O15 2.089375 1_555
Ni3 O5 2.089673 1_565
Ni3 O13 2.102311 1_555
Ni3 O7 2.112317 1_565
Ni4 O0 1.971449 1_545
Ni4 O2 1.974385 1_555
Ni4 O14 2.080858 1_545
Ni4 O4 2.081003 1_455
Ni4 O8 2.106529 1_555
Ni4 O10 2.115145 1_545
Ni5 O1 1.901678 1_555
Ni5 O2 1.903444 1_564
Ni5 O12 2.070762 1_554
Ni5 O9 2.071017 1_565
Ni5 O7 2.077333 1_565
Ni5 O10 2.078932 1_554
O4 W0 1.953235 1_555
O5 W1 1.953553 1_555
O6 W0 1.956643 1_555
O7 W1 1.956648 1_555
O8 W0 1.962373 1_455
O9 W1 1.962937 1_555
O10 W0 1.953624 1_555
O11 W1 1.953555 1_655
O12 W0 1.964037 1_555
O13 W1 1.964138 1_555
O14 W0 1.954855 1_555
O15 W1 1.953636 1_555
