# generated using pymatgen
data_K4Ba2Na4Ti8MnSi16(W4O29)2
_symmetry_space_group_name_H-M   'P 1'
_cell_length_a   10.59423749
_cell_length_b   10.59423749
_cell_length_c   14.53261407
_cell_angle_alpha   72.09667683
_cell_angle_beta   72.09667683
_cell_angle_gamma   84.77713368
_symmetry_Int_Tables_number   1
_chemical_formula_structural   K4Ba2Na4Ti8MnSi16(W4O29)2
_chemical_formula_sum   'K4 Ba2 Na4 Ti8 Mn1 Si16 W8 O58'
_cell_volume   1476.95560813
_cell_formula_units_Z   1
loop_
 _symmetry_equiv_pos_site_id
 _symmetry_equiv_pos_as_xyz
  1  'x, y, z'
loop_
 _atom_site_type_symbol
 _atom_site_label
 _atom_site_symmetry_multiplicity
 _atom_site_fract_x
 _atom_site_fract_y
 _atom_site_fract_z
 _atom_site_occupancy
  K  K0  1  0.58979078  0.58979078  0.81767196  1
  K  K1  1  0.41020922  0.41020922  0.18232804  1
  K  K2  1  0.08740952  0.08740952  0.30723886  1
  K  K3  1  0.91259048  0.91259048  0.69276114  1
  Ba  Ba0  1  0.39601705  0.39601705  0.67023831  1
  Ba  Ba1  1  0.60398295  0.60398295  0.32976169  1
  Na  Na0  1  0.52198304  0.02891443  0.61470648  1
  Na  Na1  1  0.47801696  0.97108557  0.38529352  1
  Na  Na2  1  0.97108557  0.47801696  0.38529352  1
  Na  Na3  1  0.02891443  0.52198304  0.61470648  1
  Ti  Ti0  1  0.27278481  0.72721519  0.50000000  1
  Ti  Ti1  1  0.72721519  0.27278481  0.50000000  1
  Ti  Ti2  1  0.23458006  0.76541994  -0.00000000  1
  Ti  Ti3  1  0.76541994  0.23458006  0.00000000  1
  Ti  Ti4  1  0.26223606  0.73576536  0.74282073  1
  Ti  Ti5  1  0.73776394  0.26423464  0.25717927  1
  Ti  Ti6  1  0.26423464  0.73776394  0.25717927  1
  Ti  Ti7  1  0.73576536  0.26223606  0.74282073  1
  Mn  Mn0  1  -0.00000000  -0.00000000  0.00000000  1
  Si  Si0  1  0.73689299  0.95670380  0.93888479  1
  Si  Si1  1  0.26310701  0.04329620  0.06111521  1
  Si  Si2  1  0.04329620  0.26310701  0.06111521  1
  Si  Si3  1  0.95670380  0.73689299  0.93888479  1
  Si  Si4  1  0.47994909  0.26488732  0.93662205  1
  Si  Si5  1  0.52005091  0.73511268  0.06337795  1
  Si  Si6  1  0.73511268  0.52005091  0.06337795  1
  Si  Si7  1  0.26488732  0.47994909  0.93662205  1
  Si  Si8  1  0.23537550  0.01439515  0.55971928  1
  Si  Si9  1  0.76462450  0.98560485  0.44028072  1
  Si  Si10  1  0.98560485  0.76462450  0.44028072  1
  Si  Si11  1  0.01439515  0.23537550  0.55971928  1
  Si  Si12  1  0.54192821  0.75667782  0.56044772  1
  Si  Si13  1  0.45807179  0.24332218  0.43955228  1
  Si  Si14  1  0.24332218  0.45807179  0.43955228  1
  Si  Si15  1  0.75667782  0.54192821  0.56044772  1
  W  W0  1  0.24838895  0.03309348  0.78503199  1
  W  W1  1  0.75161105  0.96690652  0.21496801  1
  W  W2  1  0.96690652  0.75161105  0.21496801  1
  W  W3  1  0.03309348  0.24838895  0.78503199  1
  W  W4  1  0.50448207  0.94925055  0.83545870  1
  W  W5  1  0.49551793  0.05074945  0.16454130  1
  W  W6  1  0.05074945  0.49551793  0.16454130  1
  W  W7  1  0.94925055  0.50448207  0.83545870  1
  O  O0  1  0.38655028  0.13394336  0.97112760  1
  O  O1  1  0.61344972  0.86605664  0.02887240  1
  O  O2  1  0.86605664  0.61344972  0.02887240  1
  O  O3  1  0.13394336  0.38655028  0.97112760  1
  O  O4  1  0.67998269  0.23283666  0.64638142  1
  O  O5  1  0.32001731  0.76716334  0.35361858  1
  O  O6  1  0.76716334  0.32001731  0.35361858  1
  O  O7  1  0.23283666  0.67998269  0.64638142  1
  O  O8  1  0.84897170  0.84897170  0.90016876  1
  O  O9  1  0.15102830  0.15102830  0.09983124  1
  O  O10  1  0.38785935  0.38785935  0.96928555  1
  O  O11  1  0.61214065  0.61214065  0.03071445  1
  O  O12  1  0.36066399  0.36066399  0.39407539  1
  O  O13  1  0.63933601  0.63933601  0.60592461  1
  O  O14  1  0.55484295  0.31550239  0.81595316  1
  O  O15  1  0.44515705  0.68449761  0.18404684  1
  O  O16  1  0.68449761  0.44515705  0.18404684  1
  O  O17  1  0.31550239  0.55484295  0.81595316  1
  O  O18  1  0.21031751  0.96009422  0.00214478  1
  O  O19  1  0.78968249  0.03990578  0.99785522  1
  O  O20  1  0.03990578  0.78968249  0.99785522  1
  O  O21  1  0.96009422  0.21031751  0.00214478  1
  O  O22  1  0.36632938  0.11251747  0.51746026  1
  O  O23  1  0.63367062  0.88748253  0.48253974  1
  O  O24  1  0.88748253  0.63367062  0.48253974  1
  O  O25  1  0.11251747  0.36632938  0.51746026  1
  O  O26  1  0.26870871  0.91735366  0.48948334  1
  O  O27  1  0.73129129  0.08264634  0.51051666  1
  O  O28  1  0.08264634  0.73129129  0.51051666  1
  O  O29  1  0.91735366  0.26870871  0.48948334  1
  O  O30  1  0.41864981  0.77057398  0.99530669  1
  O  O31  1  0.58135019  0.22942602  0.00469331  1
  O  O32  1  0.22942602  0.58135019  0.00469331  1
  O  O33  1  0.77057398  0.41864981  0.99530669  1
  O  O34  1  0.47266007  0.71141945  0.49051172  1
  O  O35  1  0.52733993  0.28858055  0.50948828  1
  O  O36  1  0.28858055  0.52733993  0.50948828  1
  O  O37  1  0.71141945  0.47266007  0.49051172  1
  O  O38  1  0.30222482  0.83042753  0.84941484  1
  O  O39  1  0.69777518  0.16957247  0.15058516  1
  O  O40  1  0.16957247  0.69777518  0.15058516  1
  O  O41  1  0.83042753  0.30222482  0.84941484  1
  O  O42  1  0.44589960  0.79531212  0.65837815  1
  O  O43  1  0.55410040  0.20468788  0.34162185  1
  O  O44  1  0.20468788  0.55410040  0.34162185  1
  O  O45  1  0.79531212  0.44589960  0.65837815  1
  O  O46  1  0.20820905  0.93718110  0.68076115  1
  O  O47  1  0.79179095  0.06281890  0.31923885  1
  O  O48  1  0.06281890  0.79179095  0.31923885  1
  O  O49  1  0.93718110  0.20820905  0.68076115  1
  O  O50  1  0.68609177  0.04816563  0.84288949  1
  O  O51  1  0.31390823  0.95183437  0.15711051  1
  O  O52  1  0.95183437  0.31390823  0.15711051  1
  O  O53  1  0.04816563  0.68609177  0.84288949  1
  O  O54  1  0.04617915  0.04617915  0.84257357  1
  O  O55  1  0.95382085  0.95382085  0.15742643  1
  O  O56  1  0.10341313  0.10341313  0.54218793  1
  O  O57  1  0.89658687  0.89658687  0.45781207  1
loop_
_geom_bond_atom_site_label_1
_geom_bond_atom_site_label_2
_geom_bond_distance
_geom_bond_site_symmetry_2
K0 O13 2.843317 1_555
K0 O14 2.971197 1_555
K0 O17 2.971197 1_555
K0 O10 3.007512 1_555
K0 O11 3.257205 1_556
K1 O12 2.843317 1_555
K1 O15 2.971197 1_555
K1 O16 2.971197 1_555
K1 O11 3.007512 1_555
K1 O10 3.257205 1_554
K2 O9 2.752893 1_555
K2 O57 2.875174 1_445
K2 O48 3.113134 1_545
K2 O47 3.113134 1_455
K2 O51 3.265188 1_545
K2 O52 3.265188 1_455
K3 O8 2.752893 1_555
K3 O56 2.875174 1_665
K3 O49 3.113134 1_565
K3 O46 3.113134 1_655
K3 O53 3.265188 1_655
K3 O50 3.265188 1_565
Ba0 O35 2.834928 1_555
Ba0 O36 2.834928 1_555
Ba0 O17 2.976917 1_555
Ba0 O14 2.976917 1_555
Ba1 O34 2.834928 1_555
Ba1 O37 2.834928 1_555
Ba1 O16 2.976917 1_555
Ba1 O15 2.976917 1_555
Na0 O27 2.273630 1_555
Na0 O22 2.428657 1_555
Na0 O42 2.502057 1_545
Na0 O23 2.717297 1_545
Na0 W4 3.006115 1_545
Na1 O26 2.273630 1_555
Na1 O23 2.428657 1_555
Na1 O43 2.502057 1_565
Na1 O22 2.717297 1_565
Na1 W5 3.006115 1_565
Na2 O29 2.273630 1_555
Na2 O24 2.428657 1_555
Na2 O44 2.502057 1_655
Na2 O25 2.717297 1_655
Na2 W6 3.006115 1_655
Na3 O28 2.273630 1_555
Na3 O25 2.428657 1_555
Na3 O45 2.502057 1_455
Na3 O24 2.717297 1_455
Na3 W7 3.006115 1_455
Mn0 O55 2.092861 1_445
Mn0 O54 2.092861 1_554
Mn0 O19 2.237738 1_454
Mn0 O20 2.237738 1_544
Mn0 O21 2.237738 1_455
Mn0 O18 2.237738 1_545
O0 Si4 1.634673 1_555
O0 Si1 1.657640 1_556
O1 Si5 1.634673 1_555
O1 Si0 1.657640 1_554
O2 Si6 1.634673 1_555
O2 Si3 1.657640 1_554
O3 Si7 1.634673 1_555
O3 Si2 1.657640 1_556
O4 Ti7 1.794892 1_555
O4 Ti1 1.945631 1_555
O5 Ti6 1.794892 1_555
O5 Ti0 1.945631 1_555
O6 Ti5 1.794892 1_555
O6 Ti1 1.945631 1_555
O7 Ti4 1.794892 1_555
O7 Ti0 1.945631 1_555
O8 Si0 1.663267 1_555
O8 Si3 1.663267 1_555
O9 Si1 1.663267 1_555
O9 Si2 1.663267 1_555
O10 Si4 1.654847 1_555
O10 Si7 1.654847 1_555
O11 Si5 1.654847 1_555
O11 Si6 1.654847 1_555
O12 Si14 1.651597 1_555
O12 Si13 1.651597 1_555
O13 Si12 1.651597 1_555
O13 Si15 1.651597 1_555
O14 Si4 1.623628 1_555
O14 Ti7 2.010282 1_555
O15 Si5 1.623628 1_555
O15 Ti6 2.010282 1_555
O16 Si6 1.623628 1_555
O16 Ti5 2.010282 1_555
O17 Si7 1.623628 1_555
O17 Ti4 2.010282 1_555
O18 Si1 1.634950 1_565
O18 Ti2 2.063668 1_555
O19 Si0 1.634950 1_545
O19 Ti3 2.063668 1_556
O20 Si3 1.634950 1_455
O20 Ti2 2.063668 1_556
O21 Si2 1.634950 1_655
O21 Ti3 2.063668 1_555
O22 Si8 1.651895 1_555
O22 Si13 1.658592 1_555
O23 Si9 1.651895 1_555
O23 Si12 1.658592 1_555
O24 Si10 1.651895 1_555
O24 Si15 1.658592 1_555
O25 Si11 1.651895 1_555
O25 Si14 1.658592 1_555
O26 Si8 1.606542 1_565
O26 Ti0 1.970243 1_555
O27 Si9 1.606542 1_545
O27 Ti1 1.970243 1_555
O28 Si10 1.606542 1_455
O28 Ti0 1.970243 1_555
O29 Si11 1.606542 1_655
O29 Ti1 1.970243 1_555
O30 Si5 1.620254 1_556
O30 Ti2 1.935397 1_556
O30 W4 2.473367 1_555
O31 Si4 1.620254 1_554
O31 Ti3 1.935397 1_555
O31 W5 2.473367 1_555
O32 Si7 1.620254 1_554
O32 Ti2 1.935397 1_555
O32 W6 2.473367 1_555
O33 Si6 1.620254 1_556
O33 Ti3 1.935397 1_556
O33 W7 2.473367 1_555
O34 Si12 1.619764 1_555
O34 Ti0 2.073906 1_555
O35 Si13 1.619764 1_555
O35 Ti1 2.073906 1_555
O36 Si14 1.619764 1_555
O36 Ti0 2.073906 1_555
O37 Si15 1.619764 1_555
O37 Ti1 2.073906 1_555
O38 Ti2 1.993981 1_556
O38 W0 2.163506 1_565
O38 Ti4 2.240740 1_555
O38 W4 2.506821 1_555
O39 Ti3 1.993981 1_555
O39 W1 2.163506 1_545
O39 Ti5 2.240740 1_555
O39 W5 2.506821 1_555
O40 Ti2 1.993981 1_555
O40 W2 2.163506 1_455
O40 Ti6 2.240740 1_555
O40 W6 2.506821 1_555
O41 Ti3 1.993981 1_556
O41 W3 2.163506 1_655
O41 Ti7 2.240740 1_555
O41 W7 2.506821 1_555
O42 Si12 1.618680 1_555
O42 Ti4 1.992334 1_555
O43 Si13 1.618680 1_555
O43 Ti5 1.992334 1_555
O44 Si14 1.618680 1_555
O44 Ti6 1.992334 1_555
O45 Si15 1.618680 1_555
O45 Ti7 1.992334 1_555
O46 Si8 1.641087 1_565
O46 Ti4 2.146186 1_555
O46 W0 2.220793 1_565
O47 Si9 1.641087 1_545
O47 Ti5 2.146186 1_555
O47 W1 2.220793 1_545
O48 Si10 1.641087 1_455
O48 Ti6 2.146186 1_555
O48 W2 2.220793 1_455
O49 Si11 1.641087 1_655
O49 Ti7 2.146186 1_555
O49 W3 2.220793 1_655
O50 Si0 1.646310 1_545
O50 Ti7 2.292211 1_555
O50 W4 2.318632 1_545
O51 Si1 1.646310 1_565
O51 Ti6 2.292211 1_555
O51 W5 2.318632 1_565
O52 Si2 1.646310 1_655
O52 Ti5 2.292211 1_555
O52 W6 2.318632 1_655
O53 Si3 1.646310 1_455
O53 Ti4 2.292211 1_555
O53 W7 2.318632 1_455
O54 W0 2.055133 1_555
O54 W3 2.055133 1_555
O55 W2 2.055133 1_555
O55 W1 2.055133 1_555
O56 Si8 1.655310 1_555
O56 Si11 1.655310 1_555
O57 Si9 1.655310 1_555
O57 Si10 1.655310 1_555
