# generated using pymatgen
data_ErAgS2
_symmetry_space_group_name_H-M   'P 1'
_cell_length_a   7.05530960
_cell_length_b   7.05530960
_cell_length_c   7.05530960
_cell_angle_alpha   135.23224092
_cell_angle_beta   135.23224092
_cell_angle_gamma   65.16956300
_symmetry_Int_Tables_number   1
_chemical_formula_structural   ErAgS2
_chemical_formula_sum   'Er2 Ag2 S4'
_cell_volume   171.65029981
_cell_formula_units_Z   2
loop_
 _symmetry_equiv_pos_site_id
 _symmetry_equiv_pos_as_xyz
  1  'x, y, z'
loop_
 _atom_site_type_symbol
 _atom_site_label
 _atom_site_symmetry_multiplicity
 _atom_site_fract_x
 _atom_site_fract_y
 _atom_site_fract_z
 _atom_site_occupancy
  Er  Er0  1  0.75296823  0.25296823  0.50000000  1
  Er  Er1  1  0.00296823  0.00296823  -0.00000000  1
  Ag  Ag0  1  0.21531022  0.71531022  0.50000000  1
  Ag  Ag1  1  0.46531022  0.46531022  0.00000000  1
  S  S0  1  0.98323210  0.48323210  0.50000000  1
  S  S1  1  0.23323210  0.23323210  -0.00000000  1
  S  S2  1  0.52709946  0.02709946  0.50000000  1
  S  S3  1  0.77709946  0.77709946  -0.00000000  1
loop_
_geom_bond_atom_site_label_1
_geom_bond_atom_site_label_2
_geom_bond_distance
_geom_bond_site_symmetry_2
Er0 S2 2.685477 1_555
Er0 S1 2.696962 1_656
Er0 S1 2.696962 1_555
Er0 S3 2.702010 1_545
Er0 S3 2.702010 1_556
Er0 S0 2.737732 1_555
Er1 S3 2.685477 1_445
Er1 S0 2.696962 1_444
Er1 S0 2.696962 1_455
Er1 S2 2.702010 1_555
Er1 S2 2.702010 1_454
Er1 S1 2.737732 1_555
Ag0 S1 2.695171 1_566
Ag0 S1 2.695171 1_555
Ag0 S0 2.759303 1_455
Ag0 S3 2.785363 1_556
Ag0 S3 2.785363 1_455
Ag1 S0 2.695171 1_555
Ag1 S0 2.695171 1_454
Ag1 S1 2.759303 1_555
Ag1 S2 2.785363 1_554
Ag1 S2 2.785363 1_565
