# generated using pymatgen
data_Li9Co7O16
_symmetry_space_group_name_H-M   'P 1'
_cell_length_a   10.13151870
_cell_length_b   10.13151870
_cell_length_c   5.12058596
_cell_angle_alpha   80.23186182
_cell_angle_beta   80.23186182
_cell_angle_gamma   33.38643848
_symmetry_Int_Tables_number   1
_chemical_formula_structural   Li9Co7O16
_chemical_formula_sum   'Li9 Co7 O16'
_cell_volume   284.66435128
_cell_formula_units_Z   1
loop_
 _symmetry_equiv_pos_site_id
 _symmetry_equiv_pos_as_xyz
  1  'x, y, z'
loop_
 _atom_site_type_symbol
 _atom_site_label
 _atom_site_symmetry_multiplicity
 _atom_site_fract_x
 _atom_site_fract_y
 _atom_site_fract_z
 _atom_site_occupancy
  Li  Li0  1  0.74529300  0.25470700  0.50000000  1
  Li  Li1  1  0.37526900  0.37526900  0.75300500  1
  Li  Li2  1  0.25470700  0.74529300  0.50000000  1
  Li  Li3  1  0.87519700  0.87519700  0.75318400  1
  Li  Li4  1  0.12480300  0.12480300  0.24681600  1
  Li  Li5  1  0.62473100  0.62473100  0.24699500  1
  Li  Li6  1  0.50000000  0.00000000  0.00000000  1
  Li  Li7  1  0.00000000  0.50000000  0.00000000  1
  Li  Li8  1  0.50000000  0.50000000  0.00000000  1
  Co  Co0  1  0.00000000  0.00000000  0.00000000  1
  Co  Co1  1  0.62452700  0.13229500  0.24465800  1
  Co  Co2  1  0.24984500  0.24984500  0.49809000  1
  Co  Co3  1  0.86770500  0.37547300  0.75534200  1
  Co  Co4  1  0.13229500  0.62452700  0.24465800  1
  Co  Co5  1  0.75015500  0.75015500  0.50191000  1
  Co  Co6  1  0.37547300  0.86770500  0.75534200  1
  O  O0  1  0.05936500  0.05936500  0.65642100  1
  O  O1  1  0.71272900  0.16892400  0.89794900  1
  O  O2  1  0.56911300  0.56911300  0.62482300  1
  O  O3  1  0.16892400  0.71272900  0.89794900  1
  O  O4  1  0.43566800  0.94350500  0.39194000  1
  O  O5  1  0.94350500  0.43566800  0.39194000  1
  O  O6  1  0.81631100  0.81631100  0.14647000  1
  O  O7  1  0.31437700  0.31437700  0.13822300  1
  O  O8  1  0.43088700  0.43088700  0.37517700  1
  O  O9  1  0.05649500  0.56433200  0.60806000  1
  O  O10  1  0.94063500  0.94063500  0.34357900  1
  O  O11  1  0.56433200  0.05649500  0.60806000  1
  O  O12  1  0.83107600  0.28727100  0.10205100  1
  O  O13  1  0.28727100  0.83107600  0.10205100  1
  O  O14  1  0.18368900  0.18368900  0.85353000  1
  O  O15  1  0.68562300  0.68562300  0.86177700  1
loop_
_geom_bond_atom_site_label_1
_geom_bond_atom_site_label_2
_geom_bond_distance
_geom_bond_site_symmetry_2
Li0 O10 2.119898 1_545
Li0 O0 2.119898 1_655
Li0 O2 2.133092 1_555
Li0 O8 2.133092 1_555
Li0 O12 2.160169 1_555
Li0 O1 2.160169 1_555
Li1 O8 2.041695 1_555
Li1 O7 2.112310 1_556
Li1 O9 2.156539 1_555
Li1 O11 2.156539 1_555
Li1 O1 2.238099 1_555
Li1 O3 2.238099 1_555
Li2 O10 2.119898 1_455
Li2 O0 2.119898 1_565
Li2 O2 2.133092 1_555
Li2 O8 2.133092 1_555
Li2 O13 2.160169 1_555
Li2 O3 2.160169 1_555
Li3 O1 2.066209 1_565
Li3 O3 2.066209 1_655
Li3 O9 2.125040 1_655
Li3 O11 2.125040 1_565
Li3 O6 2.132254 1_556
Li3 O10 2.251354 1_555
Li4 O12 2.066209 1_455
Li4 O13 2.066209 1_545
Li4 O5 2.125040 1_455
Li4 O4 2.125040 1_545
Li4 O14 2.132254 1_554
Li4 O0 2.251354 1_555
Li5 O2 2.041695 1_555
Li5 O15 2.112310 1_554
Li5 O4 2.156539 1_555
Li5 O5 2.156539 1_555
Li5 O13 2.238099 1_555
Li5 O12 2.238099 1_555
Li6 O15 2.119642 1_544
Li6 O7 2.119642 1_555
Li6 O11 2.137680 1_554
Li6 O4 2.137680 1_545
Li6 O14 2.162944 1_554
Li6 O6 2.162944 1_545
Li7 O15 2.119642 1_454
Li7 O7 2.119642 1_555
Li7 O9 2.137680 1_554
Li7 O5 2.137680 1_455
Li7 O6 2.162944 1_455
Li7 O14 2.162944 1_554
Li8 O3 2.075907 1_554
Li8 O12 2.075907 1_555
Li8 O13 2.075907 1_555
Li8 O1 2.075907 1_554
Li8 O8 2.139442 1_555
Li8 O2 2.139442 1_554
Co0 O13 1.888749 1_545
Co0 O12 1.888749 1_455
Co0 O3 1.888749 1_544
Co0 O1 1.888749 1_454
Co0 O0 1.924766 1_554
Co0 O10 1.924766 1_445
Co1 O8 1.943524 1_555
Co1 O1 1.969789 1_554
Co1 O6 2.025812 1_545
Co1 O10 2.028681 1_545
Co1 O7 2.033164 1_555
Co1 O11 2.082438 1_555
Co2 O5 1.984958 1_455
Co2 O4 1.984958 1_545
Co2 O11 2.029254 1_555
Co2 O9 2.029254 1_555
Co2 O14 2.033091 1_555
Co2 O7 2.036370 1_555
Co3 O2 1.943524 1_555
Co3 O12 1.969789 1_556
Co3 O14 2.025812 1_655
Co3 O0 2.028681 1_655
Co3 O15 2.033164 1_555
Co3 O5 2.082438 1_555
Co4 O8 1.943524 1_555
Co4 O3 1.969789 1_554
Co4 O6 2.025812 1_455
Co4 O10 2.028681 1_455
Co4 O7 2.033164 1_555
Co4 O9 2.082438 1_555
Co5 O9 1.984958 1_655
Co5 O11 1.984958 1_565
Co5 O4 2.029254 1_555
Co5 O5 2.029254 1_555
Co5 O6 2.033091 1_555
Co5 O15 2.036370 1_555
Co6 O2 1.943524 1_555
Co6 O13 1.969789 1_556
Co6 O14 2.025812 1_565
Co6 O0 2.028681 1_565
Co6 O15 2.033164 1_555
Co6 O4 2.082438 1_555
