# generated using pymatgen
data_Ta3Si6N11
_symmetry_space_group_name_H-M   'P 1'
_cell_length_a   9.69948800
_cell_length_b   9.69948800
_cell_length_c   4.81576900
_cell_angle_alpha   90.00000000
_cell_angle_beta   90.00000000
_cell_angle_gamma   90.00000000
_symmetry_Int_Tables_number   1
_chemical_formula_structural   Ta3Si6N11
_chemical_formula_sum   'Ta6 Si12 N22'
_cell_volume   453.06787240
_cell_formula_units_Z   2
loop_
 _symmetry_equiv_pos_site_id
 _symmetry_equiv_pos_as_xyz
  1  'x, y, z'
loop_
 _atom_site_type_symbol
 _atom_site_label
 _atom_site_symmetry_multiplicity
 _atom_site_fract_x
 _atom_site_fract_y
 _atom_site_fract_z
 _atom_site_occupancy
  Ta  Ta0  1  0.32634000  0.82634000  0.94555600  1
  Ta  Ta1  1  0.67366000  0.17366000  0.94555600  1
  Ta  Ta2  1  0.17366000  0.32634000  0.94555600  1
  Ta  Ta3  1  0.82634000  0.67366000  0.94555600  1
  Ta  Ta4  1  0.50000000  0.50000000  0.00433700  1
  Ta  Ta5  1  0.00000000  0.00000000  0.00433700  1
  Si  Si0  1  0.40402800  0.31406400  0.52795700  1
  Si  Si1  1  0.59597200  0.68593600  0.52795700  1
  Si  Si2  1  0.09597200  0.81406400  0.52795700  1
  Si  Si3  1  0.90402800  0.18593600  0.52795700  1
  Si  Si4  1  0.31406400  0.59597200  0.52795700  1
  Si  Si5  1  0.68593600  0.40402800  0.52795700  1
  Si  Si6  1  0.81406400  0.90402800  0.52795700  1
  Si  Si7  1  0.18593600  0.09597200  0.52795700  1
  Si  Si8  1  0.87248100  0.37248100  0.02823100  1
  Si  Si9  1  0.12751900  0.62751900  0.02823100  1
  Si  Si10  1  0.62751900  0.87248100  0.02823100  1
  Si  Si11  1  0.37248100  0.12751900  0.02823100  1
  N  N0  1  0.31288800  0.44129200  0.69956400  1
  N  N1  1  0.68711200  0.55870800  0.69956400  1
  N  N2  1  0.18711200  0.94129200  0.69956400  1
  N  N3  1  0.81288800  0.05870800  0.69956400  1
  N  N4  1  0.44129200  0.68711200  0.69956400  1
  N  N5  1  0.55870800  0.31288800  0.69956400  1
  N  N6  1  0.94129200  0.81288800  0.69956400  1
  N  N7  1  0.05870800  0.18711200  0.69956400  1
  N  N8  1  0.39216100  0.30018000  0.17279000  1
  N  N9  1  0.60783900  0.69982000  0.17279000  1
  N  N10  1  0.10783900  0.80018000  0.17279000  1
  N  N11  1  0.89216100  0.19982000  0.17279000  1
  N  N12  1  0.30018000  0.60783900  0.17279000  1
  N  N13  1  0.69982000  0.39216100  0.17279000  1
  N  N14  1  0.80018000  0.89216100  0.17279000  1
  N  N15  1  0.19982000  0.10783900  0.17279000  1
  N  N16  1  0.82333500  0.32333500  0.69449700  1
  N  N17  1  0.17666500  0.67666500  0.69449700  1
  N  N18  1  0.67666500  0.82333500  0.69449700  1
  N  N19  1  0.32333500  0.17666500  0.69449700  1
  N  N20  1  0.50000000  0.00000000  0.02639400  1
  N  N21  1  0.00000000  0.50000000  0.02639400  1
loop_
_geom_bond_atom_site_label_1
_geom_bond_atom_site_label_2
_geom_bond_distance
_geom_bond_site_symmetry_2
N0 Si4 1.712907 1_555
N0 Si0 1.728385 1_555
N0 Ta2 2.114293 1_555
N0 Ta4 2.402557 1_556
N1 Si5 1.712907 1_555
N1 Si1 1.728385 1_555
N1 Ta3 2.114293 1_555
N1 Ta4 2.402557 1_556
N2 Si7 1.712907 1_565
N2 Si2 1.728385 1_555
N2 Ta0 2.114293 1_555
N2 Ta5 2.402557 1_566
N3 Si6 1.712907 1_545
N3 Si3 1.728385 1_555
N3 Ta1 2.114293 1_555
N3 Ta5 2.402557 1_656
N4 Si1 1.712907 1_555
N4 Si4 1.728385 1_555
N4 Ta0 2.114293 1_555
N4 Ta4 2.402557 1_556
N5 Si0 1.712907 1_555
N5 Si5 1.728385 1_555
N5 Ta1 2.114293 1_555
N5 Ta4 2.402557 1_556
N6 Si2 1.712907 1_655
N6 Si6 1.728385 1_555
N6 Ta3 2.114293 1_555
N6 Ta5 2.402557 1_666
N7 Si3 1.712907 1_455
N7 Si7 1.728385 1_555
N7 Ta2 2.114293 1_555
N7 Ta5 2.402557 1_556
N8 Si0 1.719552 1_555
N8 Si11 1.823672 1_555
N8 Ta4 2.347042 1_555
N8 Ta2 2.398651 1_554
N9 Si1 1.719552 1_555
N9 Si10 1.823672 1_555
N9 Ta4 2.347042 1_555
N9 Ta3 2.398651 1_554
N10 Si2 1.719552 1_555
N10 Si9 1.823672 1_555
N10 Ta5 2.347042 1_565
N10 Ta0 2.398651 1_554
N11 Si3 1.719552 1_555
N11 Si8 1.823672 1_555
N11 Ta5 2.347042 1_655
N11 Ta1 2.398651 1_554
N12 Si4 1.719552 1_555
N12 Si9 1.823672 1_555
N12 Ta4 2.347042 1_555
N12 Ta0 2.398651 1_554
N13 Si5 1.719552 1_555
N13 Si8 1.823672 1_555
N13 Ta4 2.347042 1_555
N13 Ta1 2.398651 1_554
N14 Si6 1.719552 1_555
N14 Si10 1.823672 1_555
N14 Ta5 2.347042 1_665
N14 Ta3 2.398651 1_554
N15 Si7 1.719552 1_555
N15 Si11 1.823672 1_555
N15 Ta5 2.347042 1_555
N15 Ta2 2.398651 1_554
N16 Si3 1.741239 1_555
N16 Si5 1.741239 1_555
N16 Si8 1.742847 1_556
N16 Ta1 2.382658 1_555
N17 Si4 1.741239 1_555
N17 Si2 1.741239 1_555
N17 Si9 1.742847 1_556
N17 Ta0 2.382658 1_555
N18 Si6 1.741239 1_555
N18 Si1 1.741239 1_555
N18 Si10 1.742847 1_556
N18 Ta3 2.382658 1_555
N19 Si7 1.741239 1_555
N19 Si0 1.741239 1_555
N19 Si11 1.742847 1_556
N19 Ta2 2.382658 1_555
N20 Si11 1.749219 1_555
N20 Si10 1.749219 1_545
N20 Ta0 2.413721 1_544
N20 Ta1 2.413721 1_554
N21 Si8 1.749219 1_455
N21 Si9 1.749219 1_555
N21 Ta2 2.413721 1_554
N21 Ta3 2.413721 1_454
