# generated using pymatgen
data_SN
_symmetry_space_group_name_H-M   'P 1'
_cell_length_a   7.17238000
_cell_length_b   8.09574900
_cell_length_c   13.22785700
_cell_angle_alpha   90.00000000
_cell_angle_beta   90.00000000
_cell_angle_gamma   90.00000000
_symmetry_Int_Tables_number   1
_chemical_formula_structural   SN
_chemical_formula_sum   'S16 N16'
_cell_volume   768.08594307
_cell_formula_units_Z   16
loop_
 _symmetry_equiv_pos_site_id
 _symmetry_equiv_pos_as_xyz
  1  'x, y, z'
loop_
 _atom_site_type_symbol
 _atom_site_label
 _atom_site_symmetry_multiplicity
 _atom_site_fract_x
 _atom_site_fract_y
 _atom_site_fract_z
 _atom_site_occupancy
  S  S0  1  0.22458700  0.68324200  0.13422500  1
  S  S1  1  0.27541300  0.18324200  0.36577500  1
  S  S2  1  0.77541300  0.31675800  0.63422500  1
  S  S3  1  0.72458700  0.81675800  0.86577500  1
  S  S4  1  0.77541300  0.31675800  0.86577500  1
  S  S5  1  0.72458700  0.81675800  0.63422500  1
  S  S6  1  0.22458700  0.68324200  0.36577500  1
  S  S7  1  0.27541300  0.18324200  0.13422500  1
  S  S8  1  0.81024500  0.58708900  0.13441100  1
  S  S9  1  0.68975500  0.08708900  0.36558900  1
  S  S10  1  0.18975500  0.41291100  0.63441100  1
  S  S11  1  0.31024500  0.91291100  0.86558900  1
  S  S12  1  0.18975500  0.41291100  0.86558900  1
  S  S13  1  0.31024500  0.91291100  0.63441100  1
  S  S14  1  0.81024500  0.58708900  0.36558900  1
  S  S15  1  0.68975500  0.08708900  0.13441100  1
  N  N0  1  0.28513600  0.69285300  0.25000000  1
  N  N1  1  0.21486400  0.19285300  0.25000000  1
  N  N2  1  0.71486400  0.30714700  0.75000000  1
  N  N3  1  0.78513600  0.80714700  0.75000000  1
  N  N4  1  0.75748800  0.55388000  0.25000000  1
  N  N5  1  0.74251200  0.05388000  0.25000000  1
  N  N6  1  0.24251200  0.44612000  0.75000000  1
  N  N7  1  0.25748800  0.94612000  0.75000000  1
  N  N8  1  0.01759400  0.63475100  0.10195500  1
  N  N9  1  0.48240600  0.13475100  0.39804500  1
  N  N10  1  0.98240600  0.36524900  0.60195500  1
  N  N11  1  0.51759400  0.86524900  0.89804500  1
  N  N12  1  0.98240600  0.36524900  0.89804500  1
  N  N13  1  0.51759400  0.86524900  0.60195500  1
  N  N14  1  0.01759400  0.63475100  0.39804500  1
  N  N15  1  0.48240600  0.13475100  0.10195500  1
loop_
_geom_bond_atom_site_label_1
_geom_bond_atom_site_label_2
_geom_bond_distance
_geom_bond_site_symmetry_2
N0 S6 1.593740 1_555
N0 S0 1.593740 1_555
N1 S1 1.593740 1_555
N1 S7 1.593740 1_555
N2 S4 1.593740 1_555
N2 S2 1.593740 1_555
N3 S3 1.593740 1_555
N3 S5 1.593740 1_555
N4 S8 1.597901 1_555
N4 S14 1.597901 1_555
N5 S9 1.597901 1_555
N5 S15 1.597901 1_555
N6 S12 1.597901 1_555
N6 S10 1.597901 1_555
N7 S11 1.597901 1_555
N7 S13 1.597901 1_555
N8 S0 1.593881 1_555
N8 S8 1.595283 1_455
N9 S1 1.593881 1_555
N9 S9 1.595283 1_555
N10 S2 1.593881 1_555
N10 S10 1.595283 1_655
N11 S3 1.593881 1_555
N11 S11 1.595283 1_555
N12 S4 1.593881 1_555
N12 S12 1.595283 1_655
N13 S5 1.593881 1_555
N13 S13 1.595283 1_555
N14 S6 1.593881 1_555
N14 S14 1.595283 1_455
N15 S7 1.593881 1_555
N15 S15 1.595283 1_555
