# generated using pymatgen
data_NdIn2Cl5
_symmetry_space_group_name_H-M   'P 1'
_cell_length_a   8.11954680
_cell_length_b   8.79882269
_cell_length_c   12.84152325
_cell_angle_alpha   90.00000000
_cell_angle_beta   90.00000000
_cell_angle_gamma   90.00000000
_symmetry_Int_Tables_number   1
_chemical_formula_structural   NdIn2Cl5
_chemical_formula_sum   'Nd4 In8 Cl20'
_cell_volume   917.42991631
_cell_formula_units_Z   4
loop_
 _symmetry_equiv_pos_site_id
 _symmetry_equiv_pos_as_xyz
  1  'x, y, z'
loop_
 _atom_site_type_symbol
 _atom_site_label
 _atom_site_symmetry_multiplicity
 _atom_site_fract_x
 _atom_site_fract_y
 _atom_site_fract_z
 _atom_site_occupancy
  Nd  Nd0  1  0.92380096  0.75000000  0.50479970  1
  Nd  Nd1  1  0.07619904  0.25000000  0.49520030  1
  Nd  Nd2  1  0.42380096  0.25000000  0.99520030  1
  Nd  Nd3  1  0.57619904  0.75000000  0.00479970  1
  In  In0  1  0.95385181  0.00552752  0.82792871  1
  In  In1  1  0.04614819  0.99447248  0.17207129  1
  In  In2  1  0.45385181  0.99447248  0.67207129  1
  In  In3  1  0.04614819  0.50552752  0.17207129  1
  In  In4  1  0.54614819  0.00552752  0.32792871  1
  In  In5  1  0.95385181  0.49447248  0.82792871  1
  In  In6  1  0.54614819  0.49447248  0.32792871  1
  In  In7  1  0.45385181  0.50552752  0.67207129  1
  Cl  Cl0  1  0.11326701  0.75000000  0.68362361  1
  Cl  Cl1  1  0.88673299  0.25000000  0.31637639  1
  Cl  Cl2  1  0.61326701  0.25000000  0.81637639  1
  Cl  Cl3  1  0.38673299  0.75000000  0.18362361  1
  Cl  Cl4  1  0.83412587  0.04392647  0.57464845  1
  Cl  Cl5  1  0.16587413  0.95607353  0.42535155  1
  Cl  Cl6  1  0.33412587  0.95607353  0.92535155  1
  Cl  Cl7  1  0.16587413  0.54392647  0.42535155  1
  Cl  Cl8  1  0.66587413  0.04392647  0.07464845  1
  Cl  Cl9  1  0.83412587  0.45607353  0.57464845  1
  Cl  Cl10  1  0.66587413  0.45607353  0.07464845  1
  Cl  Cl11  1  0.33412587  0.54392647  0.92535155  1
  Cl  Cl12  1  0.57908570  0.75000000  0.50757655  1
  Cl  Cl13  1  0.42091430  0.25000000  0.49242345  1
  Cl  Cl14  1  0.07908570  0.25000000  0.99242345  1
  Cl  Cl15  1  0.92091430  0.75000000  0.00757655  1
  Cl  Cl16  1  0.65951130  0.75000000  0.79398734  1
  Cl  Cl17  1  0.34048870  0.25000000  0.20601266  1
  Cl  Cl18  1  0.15951130  0.25000000  0.70601266  1
  Cl  Cl19  1  0.84048870  0.75000000  0.29398734  1
loop_
_geom_bond_atom_site_label_1
_geom_bond_atom_site_label_2
_geom_bond_distance
_geom_bond_site_symmetry_2
Cl0 Nd0 2.764042 1_455
Cl0 In5 3.188170 1_455
Cl0 In0 3.188170 1_465
Cl1 Nd1 2.764042 1_655
Cl1 In1 3.188170 1_645
Cl1 In3 3.188170 1_655
Cl2 Nd2 2.764042 1_555
Cl2 In7 3.188170 1_555
Cl2 In2 3.188170 1_545
Cl3 Nd3 2.764042 1_555
Cl3 In4 3.188170 1_565
Cl3 In6 3.188170 1_555
Cl4 Nd0 2.832520 1_545
Cl4 Nd1 2.862145 1_655
Cl5 Nd1 2.832520 1_565
Cl5 Nd0 2.862145 1_455
Cl6 Nd2 2.832520 1_565
Cl6 Nd3 2.862145 1_556
Cl7 Nd1 2.832520 1_555
Cl7 Nd0 2.862145 1_455
Cl8 Nd3 2.832520 1_545
Cl8 Nd2 2.862145 1_554
Cl9 Nd0 2.832520 1_555
Cl9 Nd1 2.862145 1_655
Cl10 Nd3 2.832520 1_555
Cl10 Nd2 2.862145 1_554
Cl11 Nd2 2.832520 1_555
Cl11 Nd3 2.862145 1_556
Cl12 Nd0 2.799159 1_555
Cl12 In7 3.181690 1_555
Cl12 In2 3.181690 1_555
Cl12 In4 3.232428 1_565
Cl12 In6 3.232428 1_555
Cl13 Nd1 2.799159 1_555
Cl13 In4 3.181690 1_555
Cl13 In6 3.181690 1_555
Cl13 In2 3.232428 1_545
Cl13 In7 3.232428 1_555
Cl14 Nd2 2.799159 1_555
Cl14 In5 3.181690 1_455
Cl14 In0 3.181690 1_455
Cl14 In1 3.232428 1_546
Cl14 In3 3.232428 1_556
Cl15 Nd3 2.799159 1_555
Cl15 In3 3.181690 1_655
Cl15 In1 3.181690 1_655
Cl15 In5 3.232428 1_554
Cl15 In0 3.232428 1_564
Cl16 Nd3 2.790388 1_556
Cl16 In2 3.141115 1_555
Cl16 In7 3.141115 1_555
Cl17 Nd2 2.790388 1_554
Cl17 In6 3.141115 1_555
Cl17 In4 3.141115 1_555
Cl18 Nd1 2.790388 1_555
Cl18 In5 3.141115 1_455
Cl18 In0 3.141115 1_455
Cl19 Nd0 2.790388 1_555
Cl19 In3 3.141115 1_655
Cl19 In1 3.141115 1_655
