# generated using pymatgen
data_Lu2Ti12(CuO4)9
_symmetry_space_group_name_H-M   'P 1'
_cell_length_a   6.43899414
_cell_length_b   10.48998425
_cell_length_c   10.48998425
_cell_angle_alpha   60.00000000
_cell_angle_beta   90.00000000
_cell_angle_gamma   90.00000000
_symmetry_Int_Tables_number   1
_chemical_formula_structural   Lu2Ti12(CuO4)9
_chemical_formula_sum   'Lu2 Ti12 Cu9 O36'
_cell_volume   613.61834370
_cell_formula_units_Z   1
loop_
 _symmetry_equiv_pos_site_id
 _symmetry_equiv_pos_as_xyz
  1  'x, y, z'
loop_
 _atom_site_type_symbol
 _atom_site_label
 _atom_site_symmetry_multiplicity
 _atom_site_fract_x
 _atom_site_fract_y
 _atom_site_fract_z
 _atom_site_occupancy
  Lu  Lu0  1  0.00586300  0.00000000  0.00000000  1
  Lu  Lu1  1  0.66080400  0.33333300  0.33333300  1
  Ti  Ti0  1  0.83333300  0.16666700  0.16666700  1
  Ti  Ti1  1  0.49671700  0.50551200  0.50830900  1
  Ti  Ti2  1  0.16995000  0.82782100  0.82502400  1
  Ti  Ti3  1  0.83333300  0.66666700  0.66666700  1
  Ti  Ti4  1  0.49240500  0.00000000  0.00000000  1
  Ti  Ti5  1  0.17426200  0.33333300  0.33333300  1
  Ti  Ti6  1  0.49671700  0.50830900  0.98617800  1
  Ti  Ti7  1  0.16995000  0.82502400  0.34715500  1
  Ti  Ti8  1  0.83333300  0.16666700  0.66666700  1
  Ti  Ti9  1  0.16995000  0.34715500  0.82782100  1
  Ti  Ti10  1  0.83333300  0.66666700  0.16666700  1
  Ti  Ti11  1  0.49671700  0.98617800  0.50551200  1
  Cu  Cu0  1  0.99402500  0.49792600  0.49855000  1
  Cu  Cu1  1  0.67264200  0.83540700  0.83478300  1
  Cu  Cu2  1  0.33333300  0.16666700  0.16666700  1
  Cu  Cu3  1  0.67264200  0.32980800  0.83540700  1
  Cu  Cu4  1  0.33333300  0.66666700  0.16666700  1
  Cu  Cu5  1  0.99402500  0.00352500  0.49792600  1
  Cu  Cu6  1  0.99402500  0.49855000  0.00352500  1
  Cu  Cu7  1  0.67264200  0.83478300  0.32980800  1
  Cu  Cu8  1  0.33333300  0.16666700  0.66666700  1
  O  O0  1  0.24416300  0.44114900  0.62208300  1
  O  O1  1  0.92027900  0.78624200  0.95978100  1
  O  O2  1  0.58404600  0.11923600  0.29228500  1
  O  O3  1  0.35330400  0.34958900  0.17719500  1
  O  O4  1  0.00285600  0.68338000  0.50160600  1
  O  O5  1  0.68846300  0.01679300  0.84400500  1
  O  O6  1  0.97820400  0.31654000  0.48932800  1
  O  O7  1  0.66381100  0.64995300  0.83172700  1
  O  O8  1  0.31336200  0.98374500  0.15613900  1
  O  O9  1  0.08262000  0.21409800  0.04104900  1
  O  O10  1  0.74638800  0.54709100  0.37355200  1
  O  O11  1  0.42250400  0.89218400  0.71125000  1
  O  O12  1  0.42250400  0.39656600  0.89218400  1
  O  O13  1  0.08262000  0.74485400  0.21409800  1
  O  O14  1  0.74638800  0.07935700  0.54709100  1
  O  O15  1  0.66381100  0.51831900  0.64995300  1
  O  O16  1  0.31336200  0.86011700  0.98374500  1
  O  O17  1  0.97820400  0.19413200  0.31654000  1
  O  O18  1  0.68846300  0.13920100  0.01679300  1
  O  O19  1  0.35330400  0.47321700  0.34958900  1
  O  O20  1  0.00285600  0.81501400  0.68338000  1
  O  O21  1  0.92027900  0.25397600  0.78624200  1
  O  O22  1  0.58404600  0.58848000  0.11923600  1
  O  O23  1  0.24416300  0.93676700  0.44114900  1
  O  O24  1  0.00285600  0.50160600  0.81501400  1
  O  O25  1  0.68846300  0.84400500  0.13920100  1
  O  O26  1  0.35330400  0.17719500  0.47321700  1
  O  O27  1  0.58404600  0.29228500  0.58848000  1
  O  O28  1  0.24416300  0.62208300  0.93676700  1
  O  O29  1  0.92027900  0.95978100  0.25397600  1
  O  O30  1  0.74638800  0.37355200  0.07935700  1
  O  O31  1  0.42250400  0.71125000  0.39656600  1
  O  O32  1  0.08262000  0.04104900  0.74485400  1
  O  O33  1  0.31336200  0.15613900  0.86011700  1
  O  O34  1  0.97820400  0.48932800  0.19413200  1
  O  O35  1  0.66381100  0.83172700  0.51831900  1
loop_
_geom_bond_atom_site_label_1
_geom_bond_atom_site_label_2
_geom_bond_distance
_geom_bond_site_symmetry_2
Lu0 O16 2.520476 1_544
Lu0 O33 2.520479 1_554
Lu0 O8 2.520482 1_545
Lu0 O32 2.537858 1_554
Lu0 O13 2.537862 1_545
Lu0 O9 2.537868 1_555
Lu0 O29 2.540796 1_445
Lu0 O21 2.540800 1_454
Lu0 O1 2.540806 1_444
Lu0 O18 2.568531 1_455
Lu0 O25 2.568535 1_445
Lu0 O5 2.568538 1_454
Lu1 O3 2.520478 1_555
Lu1 O26 2.520483 1_555
Lu1 O19 2.520491 1_555
Lu1 O2 2.537853 1_555
Lu1 O22 2.537865 1_555
Lu1 O27 2.537873 1_555
Lu1 O30 2.540796 1_555
Lu1 O14 2.540800 1_555
Lu1 O10 2.540806 1_555
Lu1 O17 2.568531 1_555
Lu1 O34 2.568535 1_555
Lu1 O6 2.568538 1_555
Cu0 O6 1.955559 1_555
Cu0 O4 1.962459 1_655
Cu0 O10 1.962546 1_555
Cu0 O0 1.963754 1_655
Cu1 O5 1.955559 1_565
Cu1 O7 1.962459 1_555
Cu1 O1 1.962546 1_555
Cu1 O11 1.963754 1_555
Cu2 O3 1.980563 1_555
Cu2 O8 1.980563 1_545
Cu2 O9 1.983539 1_555
Cu2 O2 1.983539 1_555
Cu3 O18 1.955553 1_556
Cu3 O15 1.962464 1_555
Cu3 O21 1.962541 1_555
Cu3 O12 1.963765 1_555
Cu4 O19 1.980563 1_555
Cu4 O16 1.980563 1_554
Cu4 O13 1.983539 1_555
Cu4 O22 1.983539 1_555
Cu5 O17 1.955553 1_555
Cu5 O20 1.962464 1_645
Cu5 O14 1.962541 1_555
Cu5 O23 1.963765 1_645
Cu6 O34 1.955548 1_555
Cu6 O24 1.962469 1_654
Cu6 O30 1.962546 1_555
Cu6 O28 1.963755 1_654
Cu7 O25 1.955548 1_555
Cu7 O35 1.962469 1_555
Cu7 O29 1.962546 1_555
Cu7 O31 1.963755 1_555
Cu8 O33 1.980563 1_555
Cu8 O26 1.980563 1_555
Cu8 O32 1.983539 1_555
Cu8 O27 1.983539 1_555
O0 Ti1 1.928462 1_555
O0 Ti9 1.931411 1_555
O1 Ti10 1.968372 1_556
O1 Ti2 2.038729 1_655
O2 Ti0 1.976073 1_555
O2 Ti11 2.036032 1_545
O3 Ti5 1.939461 1_555
O3 Ti6 2.074542 1_554
O4 Ti7 1.892880 1_555
O4 Ti3 1.979071 1_455
O5 Ti8 1.969219 1_555
O5 Ti4 2.003552 1_556
O6 Ti8 1.969224 1_555
O6 Ti5 2.003552 1_655
O7 Ti6 1.892880 1_555
O7 Ti3 1.979055 1_555
O8 Ti4 1.939477 1_565
O8 Ti7 2.074537 1_555
O9 Ti0 1.976073 1_455
O9 Ti9 2.036040 1_554
O10 Ti10 1.968363 1_555
O10 Ti1 2.038729 1_555
O11 Ti2 1.928462 1_555
O11 Ti11 1.931411 1_555
O12 Ti9 1.928462 1_555
O12 Ti6 1.931402 1_555
O13 Ti10 1.976073 1_455
O13 Ti7 2.036032 1_555
O14 Ti8 1.968371 1_555
O14 Ti11 2.038735 1_545
O15 Ti1 1.892880 1_555
O15 Ti3 1.979072 1_555
O16 Ti4 1.939469 1_566
O16 Ti2 2.074543 1_555
O17 Ti0 1.969219 1_555
O17 Ti5 2.003544 1_655
O18 Ti0 1.969230 1_555
O18 Ti4 2.003544 1_555
O19 Ti5 1.939478 1_555
O19 Ti1 2.074530 1_555
O20 Ti2 1.892880 1_555
O20 Ti3 1.979062 1_455
O21 Ti8 1.968356 1_555
O21 Ti9 2.038735 1_655
O22 Ti10 1.976073 1_555
O22 Ti6 2.036048 1_554
O23 Ti11 1.928462 1_555
O23 Ti7 1.931402 1_555
O24 Ti9 1.892880 1_555
O24 Ti3 1.979067 1_455
O25 Ti10 1.969212 1_555
O25 Ti4 2.003548 1_565
O26 Ti5 1.939468 1_555
O26 Ti11 2.074549 1_545
O27 Ti8 1.976073 1_555
O27 Ti1 2.036029 1_555
O28 Ti6 1.928462 1_555
O28 Ti2 1.931410 1_555
O29 Ti0 1.968374 1_565
O29 Ti7 2.038730 1_655
O30 Ti0 1.968362 1_555
O30 Ti6 2.038730 1_554
O31 Ti7 1.928462 1_555
O31 Ti1 1.931410 1_555
O32 Ti8 1.976073 1_455
O32 Ti2 2.036042 1_545
O33 Ti4 1.939473 1_556
O33 Ti9 2.074533 1_555
O34 Ti10 1.969228 1_555
O34 Ti5 2.003548 1_655
O35 Ti11 1.892880 1_555
O35 Ti3 1.979062 1_555
