# generated using pymatgen
data_Sr3Fe2ClO5
_symmetry_space_group_name_H-M   'P 1'
_cell_length_a   3.92037200
_cell_length_b   3.92037200
_cell_length_c   11.59403700
_cell_angle_alpha   90.00000000
_cell_angle_beta   90.00000000
_cell_angle_gamma   90.00000000
_symmetry_Int_Tables_number   1
_chemical_formula_structural   Sr3Fe2ClO5
_chemical_formula_sum   'Sr3 Fe2 Cl1 O5'
_cell_volume   178.19242554
_cell_formula_units_Z   1
loop_
 _symmetry_equiv_pos_site_id
 _symmetry_equiv_pos_as_xyz
  1  'x, y, z'
loop_
 _atom_site_type_symbol
 _atom_site_label
 _atom_site_symmetry_multiplicity
 _atom_site_fract_x
 _atom_site_fract_y
 _atom_site_fract_z
 _atom_site_occupancy
  Sr  Sr0  1  0.00000000  0.00000000  0.00000000  1
  Sr  Sr1  1  0.00000000  0.00000000  0.67879000  1
  Sr  Sr2  1  0.00000000  0.00000000  0.32121000  1
  Fe  Fe0  1  0.50000000  0.50000000  0.82725800  1
  Fe  Fe1  1  0.50000000  0.50000000  0.17274200  1
  Cl  Cl0  1  0.50000000  0.50000000  0.50000000  1
  O  O0  1  0.50000000  0.00000000  0.79950300  1
  O  O1  1  0.00000000  0.50000000  0.79950300  1
  O  O2  1  0.50000000  0.00000000  0.20049700  1
  O  O3  1  0.00000000  0.50000000  0.20049700  1
  O  O4  1  0.50000000  0.50000000  0.00000000  1
loop_
_geom_bond_atom_site_label_1
_geom_bond_atom_site_label_2
_geom_bond_distance
_geom_bond_site_symmetry_2
Fe0 O1 1.986424 1_555
Fe0 O0 1.986424 1_555
Fe0 O0 1.986424 1_565
Fe0 O1 1.986424 1_655
Fe0 O4 2.002777 1_556
Fe1 O2 1.986424 1_555
Fe1 O3 1.986424 1_555
Fe1 O3 1.986424 1_655
Fe1 O2 1.986424 1_565
Fe1 O4 2.002777 1_555
Cl0 Sr2 3.461440 1_555
Cl0 Sr2 3.461440 1_655
Cl0 Sr2 3.461440 1_565
Cl0 Sr2 3.461440 1_665
Cl0 Sr1 3.461440 1_655
Cl0 Sr1 3.461440 1_565
Cl0 Sr1 3.461440 1_555
Cl0 Sr1 3.461440 1_665
O0 Sr1 2.408541 1_555
O0 Sr1 2.408541 1_655
O0 Sr0 3.040716 1_656
O0 Sr0 3.040716 1_556
O1 Sr1 2.408541 1_555
O1 Sr1 2.408541 1_565
O1 Sr0 3.040716 1_566
O1 Sr0 3.040716 1_556
O2 Sr2 2.408541 1_555
O2 Sr2 2.408541 1_655
O2 Sr0 3.040716 1_555
O2 Sr0 3.040716 1_655
O3 Sr2 2.408541 1_565
O3 Sr2 2.408541 1_555
O3 Sr0 3.040716 1_565
O3 Sr0 3.040716 1_555
O4 Sr0 2.772122 1_555
O4 Sr0 2.772122 1_565
O4 Sr0 2.772122 1_665
O4 Sr0 2.772122 1_655
