# generated using pymatgen
data_Sm6Fe13Pb
_symmetry_space_group_name_H-M   'P 1'
_cell_length_a   8.02696400
_cell_length_b   8.02696400
_cell_length_c   12.97298624
_cell_angle_alpha   108.02140835
_cell_angle_beta   108.02140835
_cell_angle_gamma   90.00000000
_symmetry_Int_Tables_number   1
_chemical_formula_structural   Sm6Fe13Pb
_chemical_formula_sum   'Sm12 Fe26 Pb2'
_cell_volume   751.62881234
_cell_formula_units_Z   2
loop_
 _symmetry_equiv_pos_site_id
 _symmetry_equiv_pos_as_xyz
  1  'x, y, z'
loop_
 _atom_site_type_symbol
 _atom_site_label
 _atom_site_symmetry_multiplicity
 _atom_site_fract_x
 _atom_site_fract_y
 _atom_site_fract_z
 _atom_site_occupancy
  Sm  Sm0  1  0.60325500  0.60325500  0.20651100  1
  Sm  Sm1  1  0.10325500  0.10325500  0.20651100  1
  Sm  Sm2  1  0.39674500  0.39674500  0.79348900  1
  Sm  Sm3  1  0.89674500  0.89674500  0.79348900  1
  Sm  Sm4  1  0.97813900  0.47813900  0.63221300  1
  Sm  Sm5  1  0.65407400  0.15407400  0.63221300  1
  Sm  Sm6  1  0.15407400  0.97813900  0.63221300  1
  Sm  Sm7  1  0.47813900  0.65407400  0.63221300  1
  Sm  Sm8  1  0.02186100  0.52186100  0.36778700  1
  Sm  Sm9  1  0.34592600  0.84592600  0.36778700  1
  Sm  Sm10  1  0.84592600  0.02186100  0.36778700  1
  Sm  Sm11  1  0.52186100  0.34592600  0.36778700  1
  Fe  Fe0  1  0.00000000  0.50000000  0.00000000  1
  Fe  Fe1  1  0.50000000  0.00000000  0.00000000  1
  Fe  Fe2  1  0.70925500  0.56603800  0.00000000  1
  Fe  Fe3  1  0.29074500  0.43396200  0.00000000  1
  Fe  Fe4  1  0.79074500  0.06603800  0.00000000  1
  Fe  Fe5  1  0.20925500  0.93396200  0.00000000  1
  Fe  Fe6  1  0.56603800  0.29074500  0.00000000  1
  Fe  Fe7  1  0.43396200  0.70925500  0.00000000  1
  Fe  Fe8  1  0.06603800  0.20925500  0.00000000  1
  Fe  Fe9  1  0.93396200  0.79074500  0.00000000  1
  Fe  Fe10  1  0.11950000  0.61950000  0.88085500  1
  Fe  Fe11  1  0.76135500  0.26135500  0.88085500  1
  Fe  Fe12  1  0.26135500  0.11950000  0.88085500  1
  Fe  Fe13  1  0.61950000  0.76135500  0.88085500  1
  Fe  Fe14  1  0.88050000  0.38050000  0.11914500  1
  Fe  Fe15  1  0.23864500  0.73864500  0.11914500  1
  Fe  Fe16  1  0.73864500  0.88050000  0.11914500  1
  Fe  Fe17  1  0.38050000  0.23864500  0.11914500  1
  Fe  Fe18  1  0.29204100  0.79204100  0.81114400  1
  Fe  Fe19  1  0.51910300  0.01910300  0.81114400  1
  Fe  Fe20  1  0.01910300  0.29204100  0.81114400  1
  Fe  Fe21  1  0.79204100  0.51910300  0.81114400  1
  Fe  Fe22  1  0.70795900  0.20795900  0.18885600  1
  Fe  Fe23  1  0.48089700  0.98089700  0.18885600  1
  Fe  Fe24  1  0.98089700  0.70795900  0.18885600  1
  Fe  Fe25  1  0.20795900  0.48089700  0.18885600  1
  Pb  Pb0  1  0.25000000  0.25000000  0.50000000  1
  Pb  Pb1  1  0.75000000  0.75000000  0.50000000  1
loop_
_geom_bond_atom_site_label_1
_geom_bond_atom_site_label_2
_geom_bond_distance
_geom_bond_site_symmetry_2
Fe0 Fe9 2.393243 1_455
Fe0 Fe2 2.393243 1_455
Fe0 Fe8 2.393243 1_555
Fe0 Fe3 2.393243 1_555
Fe0 Fe15 2.462528 1_555
Fe0 Fe11 2.462528 1_454
Fe0 Fe14 2.462529 1_455
Fe0 Fe10 2.462529 1_554
Fe0 Fe21 2.552364 1_454
Fe0 Fe20 2.552364 1_554
Fe0 Fe25 2.552364 1_555
Fe0 Fe24 2.552364 1_455
Fe1 Fe4 2.393243 1_555
Fe1 Fe6 2.393243 1_555
Fe1 Fe5 2.393243 1_545
Fe1 Fe7 2.393243 1_545
Fe1 Fe16 2.462529 1_545
Fe1 Fe17 2.462529 1_555
Fe1 Fe13 2.462529 1_544
Fe1 Fe12 2.462529 1_554
Fe1 Fe22 2.552363 1_555
Fe1 Fe18 2.552363 1_544
Fe1 Fe19 2.552364 1_554
Fe1 Fe23 2.552364 1_545
Fe2 Fe6 2.490912 1_555
Fe2 Fe7 2.490912 1_555
Fe2 Fe9 2.550838 1_555
Fe2 Fe24 2.649981 1_555
Fe2 Fe21 2.649982 1_554
Fe2 Sm2 2.984255 1_554
Fe2 Sm0 2.984261 1_555
Fe3 Fe6 2.490912 1_555
Fe3 Fe7 2.490912 1_555
Fe3 Fe8 2.550838 1_555
Fe3 Sm0 2.984255 1_555
Fe3 Sm2 2.984261 1_554
Fe4 Fe8 2.490912 1_655
Fe4 Fe9 2.490912 1_545
Fe4 Fe6 2.550838 1_555
Fe4 Sm1 2.984256 1_655
Fe4 Sm3 2.984260 1_544
Fe5 Fe8 2.490912 1_565
Fe5 Fe9 2.490912 1_455
Fe5 Fe7 2.550838 1_555
Fe5 Sm3 2.984256 1_454
Fe5 Sm1 2.984260 1_565
Fe6 Sm0 2.984256 1_555
Fe6 Sm2 2.984260 1_554
Fe7 Sm2 2.984256 1_554
Fe7 Sm0 2.984260 1_555
Fe8 Sm3 2.984255 1_444
Fe8 Sm1 2.984261 1_555
Fe9 Sm1 2.984255 1_665
Fe9 Sm3 2.984261 1_554
Fe10 Fe7 2.485262 1_556
Fe10 Fe5 2.485262 1_556
Fe10 Fe18 2.490821 1_555
Fe10 Fe21 2.540583 1_455
Fe10 Fe20 2.540583 1_555
Fe10 Fe9 2.570274 1_456
Fe10 Fe3 2.570274 1_556
Fe10 Fe15 2.779756 1_556
Fe10 Sm4 2.906959 1_455
Fe10 Sm2 3.121057 1_555
Fe10 Sm3 3.121057 1_455
Fe11 Fe4 2.485262 1_556
Fe11 Fe6 2.485262 1_556
Fe11 Fe19 2.490821 1_555
Fe11 Fe21 2.540584 1_555
Fe11 Fe20 2.540584 1_655
Fe11 Fe2 2.570274 1_556
Fe11 Fe8 2.570274 1_656
Fe11 Fe14 2.779756 1_556
Fe11 Sm5 2.906959 1_555
Fe11 Sm3 3.121054 1_545
Fe11 Sm2 3.121054 1_555
Fe12 Fe3 2.485262 1_556
Fe12 Fe8 2.485262 1_556
Fe12 Fe20 2.490821 1_555
Fe12 Fe18 2.540583 1_545
Fe12 Fe19 2.540583 1_555
Fe12 Fe6 2.570274 1_556
Fe12 Fe5 2.570274 1_546
Fe12 Fe17 2.779756 1_556
Fe12 Sm6 2.906959 1_545
Fe12 Sm3 3.121050 1_445
Fe12 Sm2 3.121061 1_555
Fe13 Fe9 2.485262 1_556
Fe13 Fe2 2.485262 1_556
Fe13 Fe21 2.490821 1_555
Fe13 Fe18 2.540583 1_555
Fe13 Fe19 2.540583 1_565
Fe13 Fe4 2.570274 1_566
Fe13 Fe7 2.570274 1_556
Fe13 Fe16 2.779756 1_556
Fe13 Sm7 2.906959 1_555
Fe13 Sm2 3.121050 1_555
Fe13 Sm3 3.121061 1_555
Fe14 Fe4 2.485262 1_555
Fe14 Fe6 2.485262 1_555
Fe14 Fe22 2.490821 1_555
Fe14 Fe25 2.540583 1_655
Fe14 Fe24 2.540583 1_555
Fe14 Fe2 2.570274 1_555
Fe14 Fe8 2.570274 1_655
Fe14 Sm8 2.906959 1_655
Fe14 Sm1 3.121057 1_655
Fe14 Sm0 3.121057 1_555
Fe15 Fe7 2.485262 1_555
Fe15 Fe5 2.485262 1_555
Fe15 Fe23 2.490821 1_555
Fe15 Fe24 2.540584 1_455
Fe15 Fe25 2.540584 1_555
Fe15 Fe9 2.570274 1_455
Fe15 Fe3 2.570274 1_555
Fe15 Sm9 2.906959 1_555
Fe15 Sm0 3.121054 1_555
Fe15 Sm1 3.121054 1_565
Fe16 Fe2 2.485262 1_555
Fe16 Fe9 2.485262 1_555
Fe16 Fe24 2.490821 1_555
Fe16 Fe22 2.540583 1_565
Fe16 Fe23 2.540583 1_555
Fe16 Fe7 2.570274 1_555
Fe16 Fe4 2.570274 1_565
Fe16 Sm10 2.906959 1_565
Fe16 Sm1 3.121050 1_665
Fe16 Sm0 3.121061 1_555
Fe17 Fe8 2.485262 1_555
Fe17 Fe3 2.485262 1_555
Fe17 Fe25 2.490821 1_555
Fe17 Fe22 2.540583 1_555
Fe17 Fe23 2.540583 1_545
Fe17 Fe5 2.570274 1_545
Fe17 Fe6 2.570274 1_555
Fe17 Sm11 2.906959 1_555
Fe17 Sm0 3.121050 1_555
Fe17 Sm1 3.121061 1_555
Fe18 Fe19 2.577572 1_565
Fe18 Fe7 2.649982 1_556
Fe18 Fe5 2.649982 1_556
Fe18 Sm6 3.066120 1_555
Fe18 Sm7 3.066120 1_555
Fe18 Sm3 3.239809 1_455
Fe18 Sm2 3.239809 1_555
Fe18 Sm4 3.293626 1_455
Fe19 Fe4 2.649981 1_556
Fe19 Fe6 2.649981 1_556
Fe19 Sm6 3.066120 1_545
Fe19 Sm7 3.066120 1_545
Fe19 Sm2 3.239814 1_555
Fe19 Sm3 3.239814 1_545
Fe19 Sm5 3.293626 1_555
Fe20 Fe21 2.577572 1_455
Fe20 Fe3 2.649981 1_556
Fe20 Fe8 2.649982 1_556
Fe20 Sm5 3.066120 1_455
Fe20 Sm4 3.066120 1_455
Fe20 Sm3 3.239806 1_445
Fe20 Sm2 3.239816 1_555
Fe20 Sm6 3.293626 1_545
Fe21 Fe9 2.649981 1_556
Fe21 Sm5 3.066120 1_555
Fe21 Sm4 3.066120 1_555
Fe21 Sm2 3.239806 1_555
Fe21 Sm3 3.239816 1_555
Fe21 Sm7 3.293626 1_555
Fe22 Fe23 2.577572 1_545
Fe22 Fe4 2.649982 1_555
Fe22 Fe6 2.649982 1_555
Fe22 Sm10 3.066120 1_555
Fe22 Sm11 3.066120 1_555
Fe22 Sm1 3.239809 1_655
Fe22 Sm0 3.239809 1_555
Fe22 Sm8 3.293626 1_655
Fe23 Fe7 2.649981 1_555
Fe23 Fe5 2.649981 1_555
Fe23 Sm11 3.066120 1_565
Fe23 Sm10 3.066120 1_565
Fe23 Sm1 3.239814 1_565
Fe23 Sm0 3.239814 1_555
Fe23 Sm9 3.293626 1_555
Fe24 Fe25 2.577572 1_655
Fe24 Fe9 2.649982 1_555
Fe24 Sm9 3.066120 1_655
Fe24 Sm8 3.066120 1_655
Fe24 Sm1 3.239806 1_665
Fe24 Sm0 3.239816 1_555
Fe24 Sm10 3.293626 1_565
Fe25 Fe8 2.649981 1_555
Fe25 Fe3 2.649982 1_555
Fe25 Sm9 3.066120 1_555
Fe25 Sm8 3.066120 1_555
Fe25 Sm0 3.239806 1_555
Fe25 Sm1 3.239816 1_555
Fe25 Sm11 3.293626 1_555
Pb0 Sm7 3.380823 1_555
Pb0 Sm10 3.380823 1_455
Pb0 Sm5 3.380823 1_555
Pb0 Sm9 3.380823 1_545
Pb0 Sm4 3.380823 1_455
Pb0 Sm8 3.380823 1_555
Pb0 Sm6 3.380823 1_545
Pb0 Sm11 3.380823 1_555
Pb0 Sm2 3.423676 1_555
Pb0 Sm1 3.423676 1_555
Pb1 Sm6 3.380823 1_655
Pb1 Sm11 3.380823 1_555
Pb1 Sm9 3.380823 1_555
Pb1 Sm5 3.380823 1_565
Pb1 Sm8 3.380823 1_655
Pb1 Sm4 3.380823 1_555
Pb1 Sm10 3.380823 1_565
Pb1 Sm7 3.380823 1_555
Pb1 Sm3 3.423676 1_555
Pb1 Sm0 3.423676 1_555
