# generated using pymatgen
data_HfMg14Al
_symmetry_space_group_name_H-M   'P 1'
_cell_length_a   6.35596342
_cell_length_b   6.35596291
_cell_length_c   10.16387902
_cell_angle_alpha   90.00000000
_cell_angle_beta   90.00000000
_cell_angle_gamma   120.00000265
_symmetry_Int_Tables_number   1
_chemical_formula_structural   HfMg14Al
_chemical_formula_sum   'Hf1 Mg14 Al1'
_cell_volume   355.59271133
_cell_formula_units_Z   1
loop_
 _symmetry_equiv_pos_site_id
 _symmetry_equiv_pos_as_xyz
  1  'x, y, z'
loop_
 _atom_site_type_symbol
 _atom_site_label
 _atom_site_symmetry_multiplicity
 _atom_site_fract_x
 _atom_site_fract_y
 _atom_site_fract_z
 _atom_site_occupancy
  Hf  Hf0  1  0.16666700  0.33333300  0.62500000  1
  Mg  Mg0  1  0.16489323  0.83244611  0.12500000  1
  Mg  Mg1  1  0.17171008  0.83585454  0.62500000  1
  Mg  Mg2  1  0.66755389  0.33510677  0.12500000  1
  Mg  Mg3  1  0.66414546  0.32828992  0.62500000  1
  Mg  Mg4  1  0.66755389  0.83244611  0.12500000  1
  Mg  Mg5  1  0.66414546  0.83585454  0.62500000  1
  Mg  Mg6  1  0.32891343  0.17108657  0.37439828  1
  Mg  Mg7  1  0.32891343  0.17108657  0.87560172  1
  Mg  Mg8  1  0.32891343  0.65782787  0.37439828  1
  Mg  Mg9  1  0.32891343  0.65782787  0.87560172  1
  Mg  Mg10  1  0.84217213  0.17108657  0.37439828  1
  Mg  Mg11  1  0.84217213  0.17108657  0.87560172  1
  Mg  Mg12  1  0.83333300  0.66666700  0.38027679  1
  Mg  Mg13  1  0.83333300  0.66666700  0.86972321  1
  Al  Al0  1  0.16666700  0.33333300  0.12500000  1
loop_
_geom_bond_atom_site_label_1
_geom_bond_atom_site_label_2
_geom_bond_distance
_geom_bond_site_symmetry_2
Hf0 Mg6 3.110943 1_555
Hf0 Mg7 3.110943 1_555
Hf0 Mg8 3.110949 1_555
Hf0 Mg9 3.110949 1_555
Hf0 Mg10 3.110949 1_455
Hf0 Mg11 3.110949 1_455
Hf0 Mg5 3.178103 1_555
Hf0 Mg1 3.178103 1_555
Hf0 Mg1 3.178103 1_545
Hf0 Mg5 3.178103 1_445
Hf0 Mg3 3.178103 1_555
Hf0 Mg3 3.178103 1_455
Mg0 Mg9 3.146610 1_554
Mg0 Mg8 3.146610 1_555
Mg0 Mg7 3.146616 1_564
Mg0 Mg6 3.146616 1_565
Mg0 Mg2 3.161070 1_455
Mg0 Mg4 3.161071 1_455
Mg0 Mg12 3.172186 1_455
Mg0 Mg13 3.172186 1_454
Mg0 Mg2 3.194893 1_565
Mg0 Mg4 3.194893 1_555
Mg1 Mg13 3.107413 1_455
Mg1 Mg12 3.107413 1_455
Mg1 Mg3 3.129901 1_565
Mg1 Mg5 3.129901 1_555
Mg1 Mg8 3.145945 1_555
Mg1 Mg9 3.145945 1_555
Mg1 Mg6 3.145951 1_565
Mg1 Mg7 3.145951 1_565
Mg1 Mg3 3.226062 1_455
Mg1 Mg5 3.226062 1_455
Mg2 Mg7 3.146616 1_554
Mg2 Mg6 3.146616 1_555
Mg2 Mg4 3.161070 1_555
Mg2 Mg4 3.194893 1_545
Mg3 Mg5 3.129901 1_545
Mg3 Mg6 3.145951 1_555
Mg3 Mg7 3.145951 1_555
Mg3 Mg5 3.226062 1_555
Mg4 Mg9 3.146616 1_554
Mg4 Mg8 3.146616 1_555
Mg5 Mg8 3.145951 1_555
Mg5 Mg9 3.145951 1_555
Mg6 Mg8 3.093710 1_555
Mg6 Mg8 3.262253 1_545
Mg7 Mg9 3.093710 1_555
Mg7 Mg9 3.262253 1_545
Mg10 Mg8 3.093710 1_655
Mg10 Mg6 3.093710 1_655
Mg10 Mg3 3.145945 1_555
Mg10 Mg5 3.145951 1_545
Mg10 Mg2 3.146610 1_555
Mg10 Mg4 3.146616 1_545
Mg10 Mg12 3.178915 1_555
Mg10 Mg12 3.178915 1_545
Mg10 Mg8 3.262253 1_545
Mg10 Mg6 3.262254 1_555
Mg11 Mg9 3.093710 1_655
Mg11 Mg7 3.093710 1_655
Mg11 Mg3 3.145945 1_555
Mg11 Mg5 3.145951 1_545
Mg11 Mg2 3.146610 1_556
Mg11 Mg4 3.146616 1_546
Mg11 Mg13 3.178915 1_555
Mg11 Mg13 3.178915 1_545
Mg11 Mg9 3.262253 1_545
Mg11 Mg7 3.262254 1_555
Mg12 Mg5 3.107407 1_555
Mg12 Mg3 3.107413 1_555
Mg12 Mg4 3.172180 1_555
Mg12 Mg2 3.172186 1_555
Mg12 Mg6 3.178915 1_665
Mg12 Mg6 3.178915 1_555
Mg12 Mg8 3.178916 1_655
Mg12 Mg8 3.178916 1_555
Mg13 Mg5 3.107407 1_555
Mg13 Mg3 3.107413 1_555
Mg13 Mg4 3.172180 1_556
Mg13 Mg2 3.172186 1_556
Mg13 Mg7 3.178915 1_665
Mg13 Mg7 3.178915 1_555
Mg13 Mg9 3.178916 1_655
Mg13 Mg9 3.178916 1_555
Al0 Mg7 3.100936 1_554
Al0 Mg6 3.100936 1_555
Al0 Mg9 3.100942 1_554
Al0 Mg8 3.100942 1_555
Al0 Mg11 3.100943 1_454
Al0 Mg10 3.100943 1_455
Al0 Mg0 3.177996 1_555
Al0 Mg4 3.177996 1_445
Al0 Mg4 3.177996 1_555
Al0 Mg0 3.177996 1_545
Al0 Mg2 3.177997 1_455
Al0 Mg2 3.177997 1_555
