# generated using pymatgen
data_Nd3Er
_symmetry_space_group_name_H-M   'P 1'
_cell_length_a   7.41688563
_cell_length_b   7.41688563
_cell_length_c   5.86118408
_cell_angle_alpha   90.00000000
_cell_angle_beta   90.00000000
_cell_angle_gamma   120.00000434
_symmetry_Int_Tables_number   1
_chemical_formula_structural   Nd3Er
_chemical_formula_sum   'Nd6 Er2'
_cell_volume   279.22811075
_cell_formula_units_Z   2
loop_
 _symmetry_equiv_pos_site_id
 _symmetry_equiv_pos_as_xyz
  1  'x, y, z'
loop_
 _atom_site_type_symbol
 _atom_site_label
 _atom_site_symmetry_multiplicity
 _atom_site_fract_x
 _atom_site_fract_y
 _atom_site_fract_z
 _atom_site_occupancy
  Nd  Nd0  1  0.16839923  0.33680045  0.25000000  1
  Nd  Nd1  1  0.66319955  0.83160077  0.25000000  1
  Nd  Nd2  1  0.16839923  0.83160077  0.25000000  1
  Nd  Nd3  1  0.83160077  0.66319955  0.75000000  1
  Nd  Nd4  1  0.33680045  0.16839923  0.75000000  1
  Nd  Nd5  1  0.83160077  0.16839923  0.75000000  1
  Er  Er0  1  0.33333300  0.66666700  0.75000000  1
  Er  Er1  1  0.66666700  0.33333300  0.25000000  1
loop_
_geom_bond_atom_site_label_1
_geom_bond_atom_site_label_2
_geom_bond_distance
_geom_bond_site_symmetry_2
Nd0 Nd5 3.642575 1_455
Nd0 Nd5 3.642575 1_454
Nd0 Nd4 3.642591 1_555
Nd0 Nd4 3.642591 1_554
Nd0 Nd1 3.669877 1_555
Nd0 Nd2 3.669877 1_555
Nd0 Nd1 3.747008 1_445
Nd0 Nd2 3.747008 1_545
Nd1 Nd5 3.642575 1_564
Nd1 Nd5 3.642575 1_565
Nd1 Nd3 3.642591 1_554
Nd1 Nd3 3.642591 1_555
Nd1 Nd2 3.669877 1_555
Nd1 Nd2 3.747008 1_655
Nd2 Nd4 3.642575 1_564
Nd2 Nd4 3.642575 1_565
Nd2 Nd3 3.642575 1_455
Nd2 Nd3 3.642575 1_454
Nd3 Nd4 3.669877 1_555
Nd3 Nd5 3.669877 1_555
Nd3 Nd4 3.747008 1_665
Nd3 Nd5 3.747008 1_565
Nd4 Nd5 3.669877 1_555
Nd4 Nd5 3.747008 1_455
Er0 Nd1 3.616309 1_555
Er0 Nd1 3.616309 1_556
Er0 Nd0 3.616309 1_555
Er0 Nd0 3.616309 1_556
Er0 Nd2 3.616313 1_556
Er0 Nd2 3.616313 1_555
Er0 Nd3 3.708499 1_455
Er0 Nd4 3.708499 1_565
Er0 Nd5 3.708509 1_565
Er0 Nd5 3.708509 1_455
Er0 Nd4 3.708521 1_555
Er0 Nd3 3.708521 1_555
Er1 Nd3 3.616309 1_555
Er1 Nd3 3.616309 1_554
Er1 Nd4 3.616309 1_555
Er1 Nd4 3.616309 1_554
Er1 Nd5 3.616313 1_554
Er1 Nd5 3.616313 1_555
Er1 Nd0 3.708499 1_655
Er1 Nd1 3.708499 1_545
Er1 Nd2 3.708509 1_655
Er1 Nd2 3.708509 1_545
Er1 Nd1 3.708521 1_555
Er1 Nd0 3.708521 1_555
