# generated using pymatgen
data_Y2Si5Ir3
_symmetry_space_group_name_H-M   'P 1'
_cell_length_a   8.14465683
_cell_length_b   8.14465683
_cell_length_c   8.14465683
_cell_angle_alpha   137.91414551
_cell_angle_beta   104.37345986
_cell_angle_gamma   90.55104851
_symmetry_Int_Tables_number   1
_chemical_formula_structural   Y2Si5Ir3
_chemical_formula_sum   'Y4 Si10 Ir6'
_cell_volume   334.78421994
_cell_formula_units_Z   2
loop_
 _symmetry_equiv_pos_site_id
 _symmetry_equiv_pos_as_xyz
  1  'x, y, z'
loop_
 _atom_site_type_symbol
 _atom_site_label
 _atom_site_symmetry_multiplicity
 _atom_site_fract_x
 _atom_site_fract_y
 _atom_site_fract_z
 _atom_site_occupancy
  Y  Y0  1  0.86069300  0.63073500  0.22995900  1
  Y  Y1  1  0.13930700  0.36926500  0.77004100  1
  Y  Y2  1  0.40077600  0.13073500  0.27004100  1
  Y  Y3  1  0.59922400  0.86926500  0.72995900  1
  Si  Si0  1  0.50000000  0.75000000  0.25000000  1
  Si  Si1  1  0.50000000  0.25000000  0.75000000  1
  Si  Si2  1  0.22607800  0.97607800  0.75000000  1
  Si  Si3  1  0.77392200  0.52392200  0.75000000  1
  Si  Si4  1  0.77392200  0.02392200  0.25000000  1
  Si  Si5  1  0.22607800  0.47607800  0.25000000  1
  Si  Si6  1  0.04889400  0.89362100  0.15527300  1
  Si  Si7  1  0.95110600  0.10637900  0.84472700  1
  Si  Si8  1  0.73834700  0.39362100  0.34472700  1
  Si  Si9  1  0.26165300  0.60637900  0.65527300  1
  Ir  Ir0  1  0.00000000  0.75000000  0.75000000  1
  Ir  Ir1  1  0.00000000  0.25000000  0.25000000  1
  Ir  Ir2  1  0.24692600  0.86050800  0.38641800  1
  Ir  Ir3  1  0.75307400  0.13949200  0.61358200  1
  Ir  Ir4  1  0.47409000  0.36050800  0.11358200  1
  Ir  Ir5  1  0.52591000  0.63949200  0.88641800  1
loop_
_geom_bond_atom_site_label_1
_geom_bond_atom_site_label_2
_geom_bond_distance
_geom_bond_site_symmetry_2
Si0 Y0 3.107737 1_555
Si0 Y1 3.107740 1_554
Si0 Y3 3.107745 1_555
Si0 Y2 3.107745 1_565
Si1 Y1 3.107737 1_555
Si1 Y0 3.107740 1_556
Si1 Y3 3.107745 1_545
Si1 Y2 3.107745 1_555
Si2 Si7 2.534831 1_465
Si2 Si9 2.534833 1_555
Si2 Y1 3.179031 1_565
Si2 Y3 3.179033 1_555
Si2 Y2 3.256618 1_566
Si2 Y0 3.256623 1_455
Si3 Si8 2.534830 1_555
Si3 Si6 2.534831 1_656
Si3 Y2 3.179033 1_555
Si3 Y0 3.179034 1_556
Si3 Y3 3.256618 1_555
Si3 Y1 3.256626 1_655
Si4 Si6 2.534831 1_645
Si4 Si8 2.534833 1_555
Si4 Y0 3.179031 1_545
Si4 Y2 3.179033 1_555
Si4 Y3 3.256618 1_544
Si4 Y1 3.256623 1_655
Si5 Si9 2.534830 1_555
Si5 Si7 2.534831 1_454
Si5 Y3 3.179033 1_555
Si5 Y1 3.179034 1_554
Si5 Y2 3.256618 1_555
Si5 Y0 3.256626 1_455
Si6 Y2 2.949766 1_565
Si6 Y0 3.104341 1_455
Si6 Y1 3.153445 1_565
Si6 Y1 3.153451 1_554
Si7 Y3 2.949766 1_545
Si7 Y1 3.104341 1_655
Si7 Y0 3.153445 1_545
Si7 Y0 3.153451 1_556
Si8 Y0 2.949766 1_555
Si8 Y2 3.104330 1_555
Si8 Y3 3.153442 1_555
Si8 Y3 3.153447 1_544
Si9 Y1 2.949766 1_555
Si9 Y3 3.104330 1_555
Si9 Y2 3.153442 1_555
Si9 Y2 3.153447 1_566
Ir0 Si6 2.455543 1_556
Ir0 Si7 2.455543 1_465
Ir0 Si8 2.455548 1_455
Ir0 Si9 2.455551 1_555
Ir0 Si3 2.591478 1_455
Ir0 Si2 2.591478 1_555
Ir0 Y2 3.414220 1_566
Ir0 Y3 3.414220 1_455
Ir0 Y0 3.414220 1_455
Ir0 Y1 3.414223 1_555
Ir1 Si7 2.455543 1_454
Ir1 Si6 2.455543 1_545
Ir1 Si9 2.455548 1_555
Ir1 Si8 2.455551 1_455
Ir1 Si5 2.591478 1_555
Ir1 Si4 2.591478 1_455
Ir1 Y2 3.414220 1_555
Ir1 Y3 3.414220 1_444
Ir1 Y1 3.414220 1_555
Ir1 Y0 3.414223 1_455
Ir2 Si6 2.339400 1_555
Ir2 Si5 2.408179 1_555
Ir2 Si2 2.408179 1_555
Ir2 Si1 2.445714 1_565
Ir2 Si0 2.445714 1_555
Ir2 Y0 3.062452 1_455
Ir2 Y1 3.148559 1_565
Ir2 Y1 3.148564 1_554
Ir2 Y2 3.308413 1_565
Ir2 Y3 3.432349 1_555
Ir3 Si7 2.339400 1_555
Ir3 Si3 2.408179 1_555
Ir3 Si4 2.408179 1_555
Ir3 Si0 2.445714 1_545
Ir3 Si1 2.445714 1_555
Ir3 Y1 3.062452 1_655
Ir3 Y0 3.148559 1_545
Ir3 Y0 3.148564 1_556
Ir3 Y3 3.308413 1_545
Ir3 Y2 3.432349 1_555
Ir4 Si8 2.339394 1_555
Ir4 Si2 2.408179 1_544
Ir4 Si5 2.408179 1_555
Ir4 Si1 2.445714 1_554
Ir4 Si0 2.445714 1_555
Ir4 Y2 3.062445 1_555
Ir4 Y3 3.148563 1_544
Ir4 Y3 3.148563 1_555
Ir4 Y0 3.308406 1_555
Ir4 Y1 3.432344 1_554
Ir5 Si9 2.339394 1_555
Ir5 Si3 2.408179 1_555
Ir5 Si4 2.408179 1_566
Ir5 Si1 2.445714 1_555
Ir5 Si0 2.445714 1_556
Ir5 Y3 3.062445 1_555
Ir5 Y2 3.148563 1_555
Ir5 Y2 3.148563 1_566
Ir5 Y1 3.308406 1_555
Ir5 Y0 3.432344 1_556
