# generated using pymatgen
data_CaSn2S5
_symmetry_space_group_name_H-M   'P 1'
_cell_length_a   7.40676270
_cell_length_b   7.40676270
_cell_length_c   18.91779100
_cell_angle_alpha   90.00000000
_cell_angle_beta   90.00000000
_cell_angle_gamma   123.16513172
_symmetry_Int_Tables_number   1
_chemical_formula_structural   CaSn2S5
_chemical_formula_sum   'Ca4 Sn8 S20'
_cell_volume   868.76691099
_cell_formula_units_Z   4
loop_
 _symmetry_equiv_pos_site_id
 _symmetry_equiv_pos_as_xyz
  1  'x, y, z'
loop_
 _atom_site_type_symbol
 _atom_site_label
 _atom_site_symmetry_multiplicity
 _atom_site_fract_x
 _atom_site_fract_y
 _atom_site_fract_z
 _atom_site_occupancy
  Ca  Ca0  1  0.20731300  0.79268700  0.36437000  1
  Ca  Ca1  1  0.79268700  0.20731300  0.63563000  1
  Ca  Ca2  1  0.29268700  0.70731300  0.86437000  1
  Ca  Ca3  1  0.70731300  0.29268700  0.13563000  1
  Sn  Sn0  1  0.83157200  0.16842800  0.32645500  1
  Sn  Sn1  1  0.16842800  0.83157200  0.67354500  1
  Sn  Sn2  1  0.66842800  0.33157200  0.82645500  1
  Sn  Sn3  1  0.33157200  0.66842800  0.17354500  1
  Sn  Sn4  1  0.49252700  0.50747300  0.35637000  1
  Sn  Sn5  1  0.50747300  0.49252700  0.64363000  1
  Sn  Sn6  1  0.00747300  0.99252700  0.85637000  1
  Sn  Sn7  1  0.99252700  0.00747300  0.14363000  1
  S  S0  1  0.00716400  0.99283600  0.27236100  1
  S  S1  1  0.99283600  0.00716400  0.72763900  1
  S  S2  1  0.49283600  0.50716400  0.77236100  1
  S  S3  1  0.50716400  0.49283600  0.22763900  1
  S  S4  1  0.66071500  0.33928500  0.40822400  1
  S  S5  1  0.33928500  0.66071500  0.59177600  1
  S  S6  1  0.83928500  0.16071500  0.90822400  1
  S  S7  1  0.16071500  0.83928500  0.09177600  1
  S  S8  1  0.48966100  0.01033900  0.25000000  1
  S  S9  1  0.01033900  0.48966100  0.75000000  1
  S  S10  1  0.51033900  0.98966100  0.75000000  1
  S  S11  1  0.98966100  0.51033900  0.25000000  1
  S  S12  1  0.61542300  0.85705300  0.41347300  1
  S  S13  1  0.85705300  0.61542300  0.58652700  1
  S  S14  1  0.35705300  0.11542300  0.91347300  1
  S  S15  1  0.11542300  0.35705300  0.08652700  1
  S  S16  1  0.38457700  0.14294700  0.58652700  1
  S  S17  1  0.14294700  0.38457700  0.41347300  1
  S  S18  1  0.64294700  0.88457700  0.08652700  1
  S  S19  1  0.88457700  0.64294700  0.91347300  1
loop_
_geom_bond_atom_site_label_1
_geom_bond_atom_site_label_2
_geom_bond_distance
_geom_bond_site_symmetry_2
Ca0 S11 2.822231 1_455
Ca0 S8 2.822231 1_565
Ca0 S17 2.941196 1_555
Ca0 S12 2.941196 1_555
Ca0 S0 3.135213 1_555
Ca1 S10 2.822231 1_545
Ca1 S9 2.822231 1_655
Ca1 S16 2.941196 1_555
Ca1 S13 2.941196 1_555
Ca1 S1 3.135213 1_555
Ca2 S9 2.822231 1_555
Ca2 S10 2.822231 1_555
Ca2 S14 2.941196 1_565
Ca2 S19 2.941196 1_455
Ca2 S2 3.135213 1_555
Ca3 S8 2.822231 1_555
Ca3 S11 2.822231 1_555
Ca3 S18 2.941196 1_545
Ca3 S15 2.941196 1_655
Ca3 S3 3.135213 1_555
S0 Sn7 2.442761 1_465
S0 Sn0 2.506160 1_465
S1 Sn6 2.442761 1_645
S1 Sn1 2.506160 1_645
S2 Sn5 2.442761 1_555
S2 Sn2 2.506160 1_555
S3 Sn4 2.442761 1_555
S3 Sn3 2.506160 1_555
S4 Sn4 2.400802 1_555
S4 Sn0 2.710724 1_555
S5 Sn5 2.400802 1_555
S5 Sn1 2.710724 1_555
S6 Sn6 2.400802 1_645
S6 Sn2 2.710724 1_555
S7 Sn7 2.400802 1_465
S7 Sn3 2.710724 1_555
S8 Sn3 2.575261 1_545
S8 Sn0 2.575261 1_555
S9 Sn1 2.575261 1_555
S9 Sn2 2.575261 1_455
S10 Sn1 2.575261 1_555
S10 Sn2 2.575261 1_565
S11 Sn3 2.575261 1_655
S11 Sn0 2.575261 1_555
S12 Sn4 2.474083 1_555
S12 Sn0 2.559728 1_565
S13 Sn5 2.474083 1_555
S13 Sn1 2.559728 1_655
S14 Sn6 2.474083 1_545
S14 Sn2 2.559728 1_555
S15 Sn7 2.474083 1_455
S15 Sn3 2.559728 1_555
S16 Sn5 2.474083 1_555
S16 Sn1 2.559728 1_545
S17 Sn4 2.474083 1_555
S17 Sn0 2.559728 1_455
S18 Sn7 2.474083 1_565
S18 Sn3 2.559728 1_555
S19 Sn6 2.474083 1_655
S19 Sn2 2.559728 1_555
