# generated using pymatgen
data_Ho4CdPd
_symmetry_space_group_name_H-M   'P 1'
_cell_length_a   9.59408645
_cell_length_b   9.59408743
_cell_length_c   9.59408435
_cell_angle_alpha   59.99998210
_cell_angle_beta   59.99997786
_cell_angle_gamma   59.99995548
_symmetry_Int_Tables_number   1
_chemical_formula_structural   Ho4CdPd
_chemical_formula_sum   'Ho16 Cd4 Pd4'
_cell_volume   624.44696079
_cell_formula_units_Z   4
loop_
 _symmetry_equiv_pos_site_id
 _symmetry_equiv_pos_as_xyz
  1  'x, y, z'
loop_
 _atom_site_type_symbol
 _atom_site_label
 _atom_site_symmetry_multiplicity
 _atom_site_fract_x
 _atom_site_fract_y
 _atom_site_fract_z
 _atom_site_occupancy
  Ho  Ho0  1  0.35391645  0.35391647  0.35391650  1
  Ho  Ho1  1  0.35391672  0.35391651  0.93825068  1
  Ho  Ho2  1  0.35391635  0.93825098  0.35391635  1
  Ho  Ho3  1  0.93825117  0.35391635  0.35391693  1
  Ho  Ho4  1  0.81015966  0.18984066  0.18983998  1
  Ho  Ho5  1  0.18984013  0.81016013  0.81015993  1
  Ho  Ho6  1  0.18983970  0.81016006  0.18984023  1
  Ho  Ho7  1  0.81015980  0.18984047  0.81015953  1
  Ho  Ho8  1  0.18983954  0.18984044  0.81016038  1
  Ho  Ho9  1  0.81016015  0.81016011  0.18984004  1
  Ho  Ho10  1  0.93455566  0.56544433  0.56544417  1
  Ho  Ho11  1  0.56544443  0.93455594  0.93455565  1
  Ho  Ho12  1  0.56544387  0.93455587  0.56544388  1
  Ho  Ho13  1  0.93455621  0.56544390  0.93455617  1
  Ho  Ho14  1  0.56544450  0.56544471  0.93455528  1
  Ho  Ho15  1  0.93455548  0.93455519  0.56544401  1
  Cd  Cd0  1  0.58181043  0.58180937  0.58180939  1
  Cd  Cd1  1  0.58180949  0.58180950  0.25457100  1
  Cd  Cd2  1  0.58180949  0.25457074  0.58181031  1
  Cd  Cd3  1  0.25457083  0.58180942  0.58180931  1
  Pd  Pd0  1  0.14451590  0.14451616  0.14451530  1
  Pd  Pd1  1  0.14451617  0.14451678  0.56645242  1
  Pd  Pd2  1  0.14451599  0.56645289  0.14451631  1
  Pd  Pd3  1  0.56645284  0.14451503  0.14451524  1
loop_
_geom_bond_atom_site_label_1
_geom_bond_atom_site_label_2
_geom_bond_distance
_geom_bond_site_symmetry_2
Ho0 Pd1 2.841317 1_555
Ho0 Pd2 2.841320 1_555
Ho0 Pd3 2.841334 1_555
Ho0 Ho12 3.494700 1_545
Ho0 Ho10 3.494703 1_455
Ho0 Ho14 3.494709 1_554
Ho1 Pd3 2.841320 1_556
Ho1 Pd0 2.841325 1_556
Ho1 Pd2 2.841329 1_556
Ho1 Ho13 3.494701 1_455
Ho1 Ho11 3.494703 1_545
Ho1 Ho14 3.494706 1_555
Ho2 Pd3 2.841321 1_565
Ho2 Pd0 2.841326 1_565
Ho2 Pd1 2.841328 1_565
Ho3 Pd1 2.841319 1_655
Ho3 Pd2 2.841326 1_655
Ho3 Pd0 2.841328 1_655
Ho4 Pd0 2.840367 1_655
Ho4 Pd3 2.840372 1_555
Ho5 Pd2 2.840367 1_556
Ho5 Pd1 2.840370 1_565
Ho6 Pd2 2.840359 1_555
Ho6 Pd0 2.840367 1_565
Ho7 Pd3 2.840362 1_556
Ho7 Pd1 2.840367 1_655
Ho8 Pd0 2.840358 1_556
Ho8 Pd1 2.840362 1_555
Ho9 Pd3 2.840358 1_565
Ho9 Pd2 2.840363 1_655
Ho10 Pd1 3.494586 1_655
Ho10 Pd2 3.494587 1_655
Ho10 Ho3 3.494698 1_555
Ho10 Ho15 3.541280 1_555
Ho10 Ho14 3.541283 1_555
Ho10 Ho12 3.541287 1_555
Ho10 Ho13 3.541292 1_555
Ho10 Ho9 3.600072 1_555
Ho10 Ho8 3.600073 1_655
Ho10 Ho6 3.600073 1_655
Ho10 Ho7 3.600074 1_555
Ho11 Pd3 3.494583 1_566
Ho11 Pd0 3.494592 1_566
Ho11 Ho2 3.494704 1_556
Ho11 Ho15 3.541285 1_555
Ho11 Ho14 3.541287 1_555
Ho11 Ho13 3.541289 1_555
Ho11 Ho12 3.541292 1_555
Ho11 Ho7 3.600075 1_565
Ho11 Ho9 3.600076 1_556
Ho11 Ho8 3.600077 1_565
Ho11 Ho6 3.600080 1_556
Ho12 Pd1 3.494586 1_565
Ho12 Pd3 3.494592 1_565
Ho12 Ho2 3.494699 1_555
Ho12 Ho14 3.541284 1_555
Ho12 Ho15 3.541286 1_555
Ho12 Ho9 3.600071 1_555
Ho12 Ho5 3.600072 1_555
Ho12 Ho4 3.600077 1_565
Ho12 Ho8 3.600079 1_565
Ho13 Pd0 3.494585 1_656
Ho13 Pd2 3.494596 1_656
Ho13 Ho3 3.494704 1_556
Ho13 Ho15 3.541289 1_555
Ho13 Ho14 3.541290 1_555
Ho13 Ho8 3.600068 1_655
Ho13 Ho4 3.600072 1_556
Ho13 Ho9 3.600075 1_556
Ho13 Ho5 3.600076 1_655
Ho14 Pd2 3.494594 1_556
Ho14 Pd3 3.494604 1_556
Ho14 Ho4 3.600073 1_556
Ho14 Ho5 3.600074 1_555
Ho14 Ho7 3.600075 1_555
Ho14 Ho6 3.600077 1_556
Ho15 Pd0 3.494598 1_665
Ho15 Pd1 3.494613 1_665
Ho15 Ho2 3.494708 1_655
Ho15 Ho3 3.494711 1_565
Ho15 Ho6 3.600068 1_655
Ho15 Ho4 3.600073 1_565
Ho15 Ho5 3.600082 1_655
Ho15 Ho7 3.600082 1_565
Cd0 Cd2 3.139556 1_555
Cd0 Cd1 3.139557 1_555
Cd0 Cd3 3.139565 1_555
Cd0 Ho10 3.234889 1_555
Cd0 Ho14 3.234893 1_555
Cd0 Ho12 3.234894 1_555
Cd0 Ho3 3.328950 1_555
Cd0 Ho1 3.328958 1_555
Cd0 Ho2 3.328960 1_555
Cd0 Ho7 3.473249 1_555
Cd0 Ho9 3.473256 1_555
Cd0 Ho5 3.473262 1_555
Cd1 Cd3 3.139553 1_555
Cd1 Cd2 3.139559 1_555
Cd1 Ho14 3.234893 1_554
Cd1 Ho13 3.234895 1_554
Cd1 Ho11 3.234896 1_554
Cd1 Ho0 3.328954 1_555
Cd1 Ho2 3.328959 1_555
Cd1 Ho3 3.328963 1_555
Cd1 Ho4 3.473251 1_555
Cd1 Ho6 3.473257 1_555
Cd1 Ho9 3.473265 1_555
Cd2 Cd3 3.139554 1_555
Cd2 Ho11 3.234888 1_545
Cd2 Ho15 3.234894 1_545
Cd2 Ho12 3.234898 1_545
Cd2 Ho1 3.328952 1_555
Cd2 Ho0 3.328959 1_555
Cd2 Ho3 3.328963 1_555
Cd2 Ho7 3.473252 1_555
Cd2 Ho8 3.473258 1_555
Cd2 Ho4 3.473259 1_555
Cd3 Ho10 3.234891 1_455
Cd3 Ho15 3.234892 1_455
Cd3 Ho13 3.234895 1_455
Cd3 Ho0 3.328950 1_555
Cd3 Ho1 3.328961 1_555
Cd3 Ho2 3.328962 1_555
Cd3 Ho6 3.473253 1_555
Cd3 Ho8 3.473254 1_555
Cd3 Ho5 3.473265 1_555
