# generated using pymatgen
data_Y(Ga5Mo)8
_symmetry_space_group_name_H-M   'P 1'
_cell_length_a   9.64555731
_cell_length_b   9.64555731
_cell_length_c   9.64555737
_cell_angle_alpha   94.56064806
_cell_angle_beta   94.56064806
_cell_angle_gamma   94.56064633
_symmetry_Int_Tables_number   1
_chemical_formula_structural   Y(Ga5Mo)8
_chemical_formula_sum   'Y1 Ga40 Mo8'
_cell_volume   888.38454405
_cell_formula_units_Z   1
loop_
 _symmetry_equiv_pos_site_id
 _symmetry_equiv_pos_as_xyz
  1  'x, y, z'
loop_
 _atom_site_type_symbol
 _atom_site_label
 _atom_site_symmetry_multiplicity
 _atom_site_fract_x
 _atom_site_fract_y
 _atom_site_fract_z
 _atom_site_occupancy
  Y  Y0  1  0.00000000  0.00000000  0.00000000  1
  Ga  Ga0  1  0.50000000  0.50000000  0.50000000  1
  Ga  Ga1  1  0.00000000  0.50000000  0.50000000  1
  Ga  Ga2  1  0.50000000  0.00000000  0.50000000  1
  Ga  Ga3  1  0.50000000  0.50000000  0.00000000  1
  Ga  Ga4  1  0.26848000  0.63726900  0.61161800  1
  Ga  Ga5  1  0.61161800  0.26848000  0.63726900  1
  Ga  Ga6  1  0.63726900  0.61161800  0.26848000  1
  Ga  Ga7  1  0.73152000  0.36273100  0.38838200  1
  Ga  Ga8  1  0.38838200  0.73152000  0.36273100  1
  Ga  Ga9  1  0.36273100  0.38838200  0.73152000  1
  Ga  Ga10  1  0.67561300  0.77853800  0.53537800  1
  Ga  Ga11  1  0.53537800  0.67561300  0.77853800  1
  Ga  Ga12  1  0.77853800  0.53537800  0.67561300  1
  Ga  Ga13  1  0.32438700  0.22146200  0.46462200  1
  Ga  Ga14  1  0.46462200  0.32438700  0.22146200  1
  Ga  Ga15  1  0.22146200  0.46462200  0.32438700  1
  Ga  Ga16  1  0.77912800  0.07194000  0.44912700  1
  Ga  Ga17  1  0.44912700  0.77912800  0.07194000  1
  Ga  Ga18  1  0.07194000  0.44912700  0.77912800  1
  Ga  Ga19  1  0.22087200  0.92806000  0.55087300  1
  Ga  Ga20  1  0.55087300  0.22087200  0.92806000  1
  Ga  Ga21  1  0.92806000  0.55087300  0.22087200  1
  Ga  Ga22  1  0.96679900  0.78566000  0.59781400  1
  Ga  Ga23  1  0.59781400  0.96679900  0.78566000  1
  Ga  Ga24  1  0.78566000  0.59781400  0.96679900  1
  Ga  Ga25  1  0.03320100  0.21434000  0.40218600  1
  Ga  Ga26  1  0.40218600  0.03320100  0.21434000  1
  Ga  Ga27  1  0.21434000  0.40218600  0.03320100  1
  Ga  Ga28  1  0.04988000  0.72262100  0.86444900  1
  Ga  Ga29  1  0.86444900  0.04988000  0.72262100  1
  Ga  Ga30  1  0.72262100  0.86444900  0.04988000  1
  Ga  Ga31  1  0.95012000  0.27737900  0.13555100  1
  Ga  Ga32  1  0.13555100  0.95012000  0.27737900  1
  Ga  Ga33  1  0.27737900  0.13555100  0.95012000  1
  Ga  Ga34  1  0.12251200  0.17380000  0.68593900  1
  Ga  Ga35  1  0.68593900  0.12251200  0.17380000  1
  Ga  Ga36  1  0.17380000  0.68593900  0.12251200  1
  Ga  Ga37  1  0.87748800  0.82620000  0.31406100  1
  Ga  Ga38  1  0.31406100  0.87748800  0.82620000  1
  Ga  Ga39  1  0.82620000  0.31406100  0.87748800  1
  Mo  Mo0  1  0.79424100  0.79424100  0.79424100  1
  Mo  Mo1  1  0.20575900  0.20575900  0.20575900  1
  Mo  Mo2  1  0.29403000  0.61060200  0.88717800  1
  Mo  Mo3  1  0.88717800  0.29403000  0.61060200  1
  Mo  Mo4  1  0.61060200  0.88717800  0.29403000  1
  Mo  Mo5  1  0.70597000  0.38939800  0.11282200  1
  Mo  Mo6  1  0.11282200  0.70597000  0.38939800  1
  Mo  Mo7  1  0.38939800  0.11282200  0.70597000  1
loop_
_geom_bond_atom_site_label_1
_geom_bond_atom_site_label_2
_geom_bond_distance
_geom_bond_site_symmetry_2
Ga0 Ga7 2.919751 1_555
Ga0 Ga4 2.919751 1_555
Ga0 Ga8 2.919751 1_555
Ga0 Ga5 2.919751 1_555
Ga0 Ga9 2.919751 1_555
Ga0 Ga6 2.919751 1_555
Ga0 Ga12 3.040126 1_555
Ga0 Ga15 3.040126 1_555
Ga0 Ga14 3.040126 1_555
Ga0 Ga11 3.040126 1_555
Ga0 Ga10 3.040126 1_555
Ga0 Ga13 3.040126 1_555
Ga1 Mo3 2.539127 1_455
Ga1 Mo6 2.539127 1_555
Ga2 Mo7 2.539127 1_555
Ga2 Mo4 2.539127 1_545
Ga3 Mo5 2.539127 1_555
Ga3 Mo2 2.539127 1_554
Ga4 Mo6 2.675814 1_555
Ga4 Mo2 2.684422 1_555
Ga5 Mo7 2.675814 1_555
Ga5 Mo3 2.684422 1_555
Ga6 Mo5 2.675814 1_555
Ga6 Mo4 2.684422 1_555
Ga7 Mo3 2.675814 1_555
Ga7 Mo5 2.684422 1_555
Ga8 Mo4 2.675814 1_555
Ga8 Mo6 2.684422 1_555
Ga9 Mo2 2.675814 1_555
Ga9 Mo7 2.684422 1_555
Ga10 Mo0 2.650389 1_555
Ga10 Mo4 2.677848 1_555
Ga11 Mo0 2.650389 1_555
Ga11 Mo2 2.677848 1_555
Ga12 Mo0 2.650389 1_555
Ga12 Mo3 2.677848 1_555
Ga13 Mo1 2.650389 1_555
Ga13 Mo7 2.677848 1_555
Ga14 Mo1 2.650389 1_555
Ga14 Mo5 2.677848 1_555
Ga15 Mo1 2.650389 1_555
Ga15 Mo6 2.677848 1_555
Ga16 Mo4 2.604793 1_545
Ga16 Mo3 2.637651 1_555
Ga16 Ga29 2.730105 1_555
Ga17 Mo2 2.604793 1_554
Ga17 Mo4 2.637651 1_555
Ga17 Ga30 2.730105 1_555
Ga18 Mo3 2.604793 1_455
Ga18 Mo2 2.637651 1_555
Ga18 Ga28 2.730105 1_555
Ga19 Mo7 2.604793 1_565
Ga19 Mo6 2.637651 1_555
Ga19 Ga32 2.730105 1_555
Ga20 Mo5 2.604793 1_556
Ga20 Mo7 2.637651 1_555
Ga20 Ga33 2.730105 1_555
Ga21 Mo6 2.604793 1_655
Ga21 Mo5 2.637651 1_555
Ga21 Ga31 2.730105 1_555
Ga22 Mo0 2.620170 1_555
Ga22 Mo6 2.644353 1_655
Ga22 Ga28 2.761286 1_655
Ga22 Ga29 3.003354 1_565
Ga23 Mo0 2.620170 1_555
Ga23 Mo7 2.644353 1_565
Ga23 Ga29 2.761286 1_565
Ga23 Ga30 3.003354 1_556
Ga24 Mo0 2.620170 1_555
Ga24 Mo5 2.644353 1_556
Ga24 Ga30 2.761286 1_556
Ga24 Ga28 3.003354 1_655
Ga25 Mo1 2.620170 1_555
Ga25 Mo3 2.644353 1_455
Ga25 Ga31 2.761286 1_455
Ga25 Ga32 3.003354 1_545
Ga26 Mo1 2.620170 1_555
Ga26 Mo4 2.644353 1_545
Ga26 Ga32 2.761286 1_545
Ga26 Ga33 3.003354 1_554
Ga27 Mo1 2.620170 1_555
Ga27 Mo2 2.644353 1_554
Ga27 Ga33 2.761286 1_554
Ga27 Ga31 3.003354 1_455
Ga28 Mo0 2.663762 1_455
Ga28 Mo2 2.668628 1_555
Ga28 Ga36 2.735684 1_556
Ga28 Ga38 2.914188 1_555
Ga28 Y0 2.974484 1_566
Ga29 Mo0 2.663762 1_545
Ga29 Mo3 2.668628 1_555
Ga29 Ga34 2.735684 1_655
Ga29 Ga39 2.914187 1_555
Ga29 Y0 2.974484 1_656
Ga30 Mo0 2.663762 1_554
Ga30 Mo4 2.668628 1_555
Ga30 Ga35 2.735684 1_565
Ga30 Ga37 2.914188 1_555
Ga30 Y0 2.974484 1_665
Ga31 Mo1 2.663762 1_655
Ga31 Mo5 2.668628 1_555
Ga31 Ga39 2.735684 1_554
Ga31 Ga35 2.914188 1_555
Ga31 Y0 2.974484 1_655
Ga32 Mo1 2.663762 1_565
Ga32 Mo6 2.668628 1_555
Ga32 Ga37 2.735684 1_455
Ga32 Ga36 2.914187 1_555
Ga32 Y0 2.974484 1_565
Ga33 Mo1 2.663762 1_556
Ga33 Mo7 2.668628 1_555
Ga33 Ga38 2.735684 1_545
Ga33 Ga34 2.914188 1_555
Ga33 Y0 2.974484 1_556
Ga34 Mo7 2.681393 1_555
Ga34 Mo3 2.704776 1_455
Ga35 Mo5 2.681393 1_555
Ga35 Mo4 2.704776 1_545
Ga36 Mo6 2.681393 1_555
Ga36 Mo2 2.704776 1_554
Ga37 Mo4 2.681393 1_555
Ga37 Mo6 2.704776 1_655
Ga38 Mo2 2.681393 1_555
Ga38 Mo7 2.704776 1_565
Ga39 Mo3 2.681393 1_555
Ga39 Mo5 2.704776 1_556
Mo0 Y0 3.152372 1_666
Mo1 Y0 3.152372 1_555
