# generated using pymatgen
data_LaNdAl6
_symmetry_space_group_name_H-M   'P 1'
_cell_length_a   6.60266050
_cell_length_b   6.60266050
_cell_length_c   4.61043010
_cell_angle_alpha   90.00000000
_cell_angle_beta   90.00000000
_cell_angle_gamma   120.00004350
_symmetry_Int_Tables_number   1
_chemical_formula_structural   LaNdAl6
_chemical_formula_sum   'La1 Nd1 Al6'
_cell_volume   174.06434391
_cell_formula_units_Z   1
loop_
 _symmetry_equiv_pos_site_id
 _symmetry_equiv_pos_as_xyz
  1  'x, y, z'
loop_
 _atom_site_type_symbol
 _atom_site_label
 _atom_site_symmetry_multiplicity
 _atom_site_fract_x
 _atom_site_fract_y
 _atom_site_fract_z
 _atom_site_occupancy
  La  La0  1  0.33333300  0.66666700  -0.00000000  1
  Nd  Nd0  1  0.66666700  0.33333300  0.50000000  1
  Al  Al0  1  0.86190581  0.13809419  0.00000000  1
  Al  Al1  1  0.86190581  0.72381263  0.00000000  1
  Al  Al2  1  0.27618737  0.13809419  -0.00000000  1
  Al  Al3  1  0.13676997  0.86323003  0.50000000  1
  Al  Al4  1  0.13676997  0.27353893  0.50000000  1
  Al  Al5  1  0.72646107  0.86323003  0.50000000  1
loop_
_geom_bond_atom_site_label_1
_geom_bond_atom_site_label_2
_geom_bond_distance
_geom_bond_site_symmetry_2
Al0 Al1 2.735360 1_545
Al0 Al2 2.735360 1_655
Al0 Al4 2.790055 1_654
Al0 Al5 2.790055 1_544
Al0 Al5 2.790055 1_545
Al0 Al4 2.790055 1_655
Al0 Nd0 3.209255 1_555
Al0 Nd0 3.209255 1_554
Al0 La0 3.317460 1_545
Al0 La0 3.317460 1_655
Al1 Al2 2.735359 1_665
Al1 Al5 2.790049 1_554
Al1 Al5 2.790049 1_555
Al1 Al3 2.790055 1_654
Al1 Al3 2.790055 1_655
Al1 Nd0 3.209262 1_555
Al1 Nd0 3.209262 1_554
Al1 La0 3.317462 1_555
Al1 La0 3.317462 1_655
Al2 Al4 2.790049 1_555
Al2 Al4 2.790049 1_554
Al2 Al3 2.790055 1_544
Al2 Al3 2.790055 1_545
Al2 Nd0 3.209262 1_555
Al2 Nd0 3.209262 1_554
Al2 La0 3.317462 1_555
Al2 La0 3.317462 1_545
Al3 Al4 2.709130 1_565
Al3 Al5 2.709130 1_455
Al3 La0 3.219810 1_556
Al3 La0 3.219810 1_555
Al3 Nd0 3.318986 1_455
Al3 Nd0 3.318986 1_565
Al4 Al5 2.709129 1_445
Al4 La0 3.219817 1_555
Al4 La0 3.219817 1_556
Al4 Nd0 3.318988 1_555
Al4 Nd0 3.318988 1_455
Al5 La0 3.219817 1_555
Al5 La0 3.219817 1_556
Al5 Nd0 3.318988 1_555
Al5 Nd0 3.318988 1_565
