# generated using pymatgen
data_K4P4O15
_symmetry_space_group_name_H-M   'P 1'
_cell_length_a   9.81590428
_cell_length_b   9.81590428
_cell_length_c   14.53839180
_cell_angle_alpha   61.91839207
_cell_angle_beta   61.91839207
_cell_angle_gamma   41.89269849
_symmetry_Int_Tables_number   1
_chemical_formula_structural   K4P4O15
_chemical_formula_sum   'K8 P8 O30'
_cell_volume   807.86088063
_cell_formula_units_Z   2
loop_
 _symmetry_equiv_pos_site_id
 _symmetry_equiv_pos_as_xyz
  1  'x, y, z'
loop_
 _atom_site_type_symbol
 _atom_site_label
 _atom_site_symmetry_multiplicity
 _atom_site_fract_x
 _atom_site_fract_y
 _atom_site_fract_z
 _atom_site_occupancy
  K  K0  1  0.68825700  0.27026600  0.90925900  1
  K  K1  1  0.31174300  0.72973400  0.09074100  1
  K  K2  1  0.72973400  0.31174300  0.59074100  1
  K  K3  1  0.27026700  0.68825700  0.40925900  1
  K  K4  1  0.69359200  0.85134100  0.87573800  1
  K  K5  1  0.30640800  0.14865900  0.12426200  1
  K  K6  1  0.14865900  0.30640800  0.62426200  1
  K  K7  1  0.85134100  0.69359200  0.37573800  1
  P  P0  1  0.76742800  0.89155200  0.59496400  1
  P  P1  1  0.23257200  0.10844800  0.40503600  1
  P  P2  1  0.10844800  0.23257200  0.90503600  1
  P  P3  1  0.89155200  0.76742800  0.09496400  1
  P  P4  1  0.55196800  0.72916600  0.72151000  1
  P  P5  1  0.44803200  0.27083400  0.27849000  1
  P  P6  1  0.27083400  0.44803200  0.77849000  1
  P  P7  1  0.72916600  0.55196800  0.22151000  1
  O  O0  1  0.85824700  0.92241800  0.63779800  1
  O  O1  1  0.14175300  0.07758200  0.36220200  1
  O  O2  1  0.07758200  0.14175300  0.86220200  1
  O  O3  1  0.92241800  0.85824700  0.13779800  1
  O  O4  1  0.73476900  0.92130100  0.02430600  1
  O  O5  1  0.26523100  0.07869900  0.97569400  1
  O  O6  1  0.07869900  0.26523100  0.47569400  1
  O  O7  1  0.92130100  0.73476900  0.52430600  1
  O  O8  1  0.66636300  0.80673700  0.70341000  1
  O  O9  1  0.33363700  0.19326300  0.29659000  1
  O  O10  1  0.19326300  0.33363700  0.79659000  1
  O  O11  1  0.80673700  0.66636300  0.20341000  1
  O  O12  1  0.03507700  0.96492300  0.75000000  1
  O  O13  1  0.96492300  0.03507700  0.25000000  1
  O  O14  1  0.58935300  0.11720000  0.54802200  1
  O  O15  1  0.41064700  0.88280000  0.45197800  1
  O  O16  1  0.88280000  0.41064700  0.95197800  1
  O  O17  1  0.11720000  0.58935300  0.04802200  1
  O  O18  1  0.48233100  0.28113200  0.80976600  1
  O  O19  1  0.51766900  0.71886800  0.19023400  1
  O  O20  1  0.71886800  0.51766900  0.69023400  1
  O  O21  1  0.28113200  0.48233100  0.30976600  1
  O  O22  1  0.38626700  0.89783200  0.65317200  1
  O  O23  1  0.61373300  0.10216800  0.34682800  1
  O  O24  1  0.10216800  0.61373300  0.84682800  1
  O  O25  1  0.89783200  0.38626700  0.15317200  1
  O  O26  1  0.45987200  0.70957400  0.84035000  1
  O  O27  1  0.54012800  0.29042600  0.15965000  1
  O  O28  1  0.29042600  0.54012800  0.65965000  1
  O  O29  1  0.70957400  0.45987200  0.34035000  1
loop_
_geom_bond_atom_site_label_1
_geom_bond_atom_site_label_2
_geom_bond_distance
_geom_bond_site_symmetry_2
K0 O4 2.781392 1_546
K0 O2 2.799588 1_655
K0 O26 2.877387 1_555
K0 O18 2.911344 1_555
K0 O20 3.005453 1_555
K0 O12 3.139324 1_645
K0 O27 3.266747 1_556
K1 O5 2.781392 1_564
K1 O3 2.799588 1_455
K1 O27 2.877387 1_555
K1 O19 2.911344 1_555
K1 O21 3.005453 1_555
K1 O13 3.139324 1_465
K1 O26 3.266747 1_554
K2 O6 2.781392 1_655
K2 O0 2.799588 1_545
K2 O28 2.877387 1_555
K2 O20 2.911344 1_555
K2 O18 3.005453 1_555
K2 O12 3.139324 1_645
K2 O29 3.266747 1_555
K3 O7 2.781400 1_455
K3 O1 2.799583 1_565
K3 O29 2.877380 1_555
K3 O21 2.911351 1_555
K3 O19 3.005449 1_555
K3 O13 3.139329 1_465
K3 O28 3.266745 1_555
K4 O24 2.666601 1_655
K4 O4 2.816361 1_556
K4 O18 2.838420 1_565
K4 O5 2.846464 1_565
K4 O8 2.894369 1_555
K4 O16 2.975477 1_555
K4 O0 3.034540 1_555
K5 O25 2.666601 1_455
K5 O5 2.816361 1_554
K5 O19 2.838420 1_545
K5 O4 2.846464 1_545
K5 O9 2.894369 1_555
K5 O17 2.975477 1_555
K5 O1 3.034540 1_555
K6 O22 2.666601 1_545
K6 O6 2.816361 1_555
K6 O20 2.838420 1_455
K6 O7 2.846464 1_455
K6 O10 2.894369 1_555
K6 O14 2.975477 1_555
K6 O2 3.034540 1_555
K7 O23 2.666601 1_565
K7 O7 2.816361 1_555
K7 O21 2.838420 1_655
K7 O6 2.846464 1_655
K7 O11 2.894369 1_555
K7 O15 2.975477 1_555
K7 O3 3.034540 1_555
O0 P0 1.541660 1_555
O1 P1 1.541660 1_555
O2 P2 1.541660 1_555
O3 P3 1.541660 1_555
O4 P3 1.507306 1_555
O5 P2 1.507306 1_555
O6 P1 1.507306 1_555
O7 P0 1.507306 1_555
O8 P0 1.638403 1_555
O8 P4 1.648030 1_555
O9 P1 1.638403 1_555
O9 P5 1.648030 1_555
O10 P2 1.638403 1_555
O10 P6 1.648030 1_555
O11 P3 1.638403 1_555
O11 P7 1.648030 1_555
O14 P0 1.537203 1_545
O15 P1 1.537203 1_565
O16 P2 1.537203 1_655
O17 P3 1.537203 1_455
O18 P6 1.524617 1_555
O19 P7 1.524617 1_555
O20 P4 1.524617 1_555
O21 P5 1.524617 1_555
O22 P4 1.528830 1_555
O23 P5 1.528830 1_555
O24 P6 1.528830 1_555
O25 P7 1.528830 1_555
O26 P4 1.521469 1_555
O27 P5 1.521469 1_555
O28 P6 1.521469 1_555
O29 P7 1.521469 1_555
