# generated using pymatgen
data_MgAg4Te8(MoO12)2
_symmetry_space_group_name_H-M   'P 1'
_cell_length_a   5.86204125
_cell_length_b   9.09195335
_cell_length_c   12.23148756
_cell_angle_alpha   103.38313964
_cell_angle_beta   90.71716696
_cell_angle_gamma   107.68696609
_symmetry_Int_Tables_number   1
_chemical_formula_structural   MgAg4Te8(MoO12)2
_chemical_formula_sum   'Mg1 Ag4 Te8 Mo2 O24'
_cell_volume   601.80689074
_cell_formula_units_Z   1
loop_
 _symmetry_equiv_pos_site_id
 _symmetry_equiv_pos_as_xyz
  1  'x, y, z'
loop_
 _atom_site_type_symbol
 _atom_site_label
 _atom_site_symmetry_multiplicity
 _atom_site_fract_x
 _atom_site_fract_y
 _atom_site_fract_z
 _atom_site_occupancy
  Mg  Mg0  1  0.07845581  0.62072423  0.80884426  1
  Ag  Ag0  1  0.92889453  0.43006387  0.25149078  1
  Ag  Ag1  1  0.46362618  0.56908983  0.21709875  1
  Ag  Ag2  1  0.11641823  0.56819510  0.55680079  1
  Ag  Ag3  1  0.51153899  0.42219855  0.78181773  1
  Te  Te0  1  0.98389433  0.69676456  0.07569972  1
  Te  Te1  1  0.32940623  0.30121561  0.40888309  1
  Te  Te2  1  0.02610171  0.32529491  0.94773805  1
  Te  Te3  1  0.68416443  0.68886195  0.59243985  1
  Te  Te4  1  0.59716546  0.82966028  0.90938228  1
  Te  Te5  1  0.84854987  0.20530210  0.61133570  1
  Te  Te6  1  0.39709696  0.16249271  0.10570817  1
  Te  Te7  1  0.19003297  0.83662689  0.41318955  1
  Mo  Mo0  1  0.16644095  0.99848690  0.76871366  1
  Mo  Mo1  1  0.82621402  0.00891955  0.25421916  1
  O  O0  1  0.84957650  0.97903570  0.86110011  1
  O  O1  1  0.93280833  0.04021430  0.65409370  1
  O  O2  1  0.12233733  0.02020826  0.14772246  1
  O  O3  1  0.08036877  0.99451951  0.37469050  1
  O  O4  1  0.74111208  0.77619478  0.15711101  1
  O  O5  1  0.01197545  0.24230740  0.32629154  1
  O  O6  1  0.25761901  0.22822493  0.86136314  1
  O  O7  1  0.98490266  0.75254977  0.69692682  1
  O  O8  1  0.81436726  0.48171353  0.07394707  1
  O  O9  1  0.36647359  0.52190061  0.42479463  1
  O  O10  1  0.20251788  0.53617624  0.93684236  1
  O  O11  1  0.67832390  0.47811829  0.57827114  1
  O  O12  1  0.31417795  0.91417700  0.88294901  1
  O  O13  1  0.39418817  0.01917906  0.67714201  1
  O  O14  1  0.63602969  0.05436745  0.13666296  1
  O  O15  1  0.60179161  0.97943214  0.34889091  1
  O  O16  1  0.84187262  0.68154323  0.92281549  1
  O  O17  1  0.15722742  0.31251875  0.56539718  1
  O  O18  1  0.18373274  0.33004959  0.08743759  1
  O  O19  1  0.87704370  0.71247449  0.45648916  1
  O  O20  1  0.46301217  0.67374564  0.76549250  1
  O  O21  1  0.89593858  0.36628966  0.74814299  1
  O  O22  1  0.48988653  0.31318821  0.25366298  1
  O  O23  1  0.15263342  0.69940341  0.26951320  1
loop_
_geom_bond_atom_site_label_1
_geom_bond_atom_site_label_2
_geom_bond_distance
_geom_bond_site_symmetry_2
Mg0 O16 2.080872 1_455
Mg0 O10 2.106954 1_555
Mg0 O21 2.174505 1_455
Mg0 O7 2.179758 1_455
Mg0 O20 2.254616 1_555
Mg0 O12 2.541351 1_555
Ag0 O5 2.281537 1_655
Ag0 O23 2.357288 1_655
Ag0 O8 2.452418 1_555
Ag0 O22 2.470995 1_555
Ag0 O18 2.672229 1_655
Ag1 O4 2.353355 1_555
Ag1 O18 2.470464 1_555
Ag1 O23 2.475559 1_555
Ag1 O22 2.516863 1_555
Ag1 O9 2.711921 1_555
Ag2 O9 2.247756 1_555
Ag2 O7 2.414503 1_455
Ag2 O17 2.433611 1_555
Ag2 O11 2.484636 1_455
Ag2 O19 2.648716 1_455
Ag3 O6 2.346918 1_555
Ag3 O20 2.440639 1_555
Ag3 O21 2.475483 1_555
Ag3 O16 2.746529 1_555
Mo0 O13 1.747764 1_565
Mo0 O6 2.035571 1_565
Mo0 O12 2.039333 1_555
Mo0 O1 2.121094 1_465
Mo0 O7 2.127252 1_455
Mo0 O0 2.168845 1_455
Mo1 O15 1.763819 1_545
Mo1 O14 1.999008 1_555
Mo1 O5 2.042445 1_655
Mo1 O4 2.077773 1_545
Mo1 O3 2.135661 1_645
Mo1 O2 2.175058 1_655
O0 Te4 1.885390 1_555
O1 Te5 1.891509 1_555
O2 Te6 1.895839 1_555
O3 Te7 1.887309 1_555
O4 Te0 1.966142 1_555
O5 Te1 1.966427 1_555
O6 Te2 2.017186 1_555
O7 Te3 2.014285 1_555
O8 Te0 1.900101 1_555
O8 Te2 2.459756 1_654
O9 Te1 1.914214 1_555
O9 Te3 2.592871 1_555
O10 Te2 1.918407 1_555
O11 Te3 1.873181 1_555
O12 Te4 2.079195 1_555
O14 Te6 2.016742 1_555
O15 Te7 2.597388 1_555
O16 Te0 1.995092 1_556
O16 Te4 2.273458 1_555
O17 Te5 1.935823 1_455
O17 Te1 2.171298 1_555
O18 Te2 1.917679 1_554
O18 Te6 2.289874 1_555
O19 Te7 1.990885 1_655
O19 Te3 2.038258 1_555
O20 Te4 1.964310 1_555
O20 Te3 2.505001 1_555
O21 Te5 1.904509 1_555
O21 Te2 2.688624 1_655
O22 Te6 1.955203 1_555
O22 Te1 2.139996 1_555
O23 Te7 1.871411 1_555
O23 Te0 2.549397 1_455
