# generated using pymatgen
data_Mg2CrWO6
_symmetry_space_group_name_H-M   'P 1'
_cell_length_a   5.18594358
_cell_length_b   5.53122536
_cell_length_c   8.98665859
_cell_angle_alpha   105.74435256
_cell_angle_beta   89.83543671
_cell_angle_gamma   62.33233799
_symmetry_Int_Tables_number   1
_chemical_formula_structural   Mg2CrWO6
_chemical_formula_sum   'Mg4 Cr2 W2 O12'
_cell_volume   217.21232178
_cell_formula_units_Z   2
loop_
 _symmetry_equiv_pos_site_id
 _symmetry_equiv_pos_as_xyz
  1  'x, y, z'
loop_
 _atom_site_type_symbol
 _atom_site_label
 _atom_site_symmetry_multiplicity
 _atom_site_fract_x
 _atom_site_fract_y
 _atom_site_fract_z
 _atom_site_occupancy
  Mg  Mg0  1  0.57780200  0.85431900  0.14613500  1
  Mg  Mg1  1  0.08013600  0.85324100  0.64763400  1
  Mg  Mg2  1  0.83325800  0.35664800  0.39489800  1
  Mg  Mg3  1  0.32915800  0.35219100  0.89496900  1
  Cr  Cr0  1  0.26876300  0.47111900  0.24675600  1
  Cr  Cr1  1  0.77051100  0.47851200  0.75107900  1
  W  W0  1  0.52090100  0.97342200  0.49819100  1
  W  W1  1  0.01920600  0.97310400  0.99906400  1
  O  O0  1  0.72865500  0.19279600  0.55490300  1
  O  O1  1  0.24676700  0.18879100  0.05437200  1
  O  O2  1  0.27770100  0.18943000  0.35695400  1
  O  O3  1  0.77694700  0.19013300  0.86126600  1
  O  O4  1  0.21269000  0.18899000  0.69071800  1
  O  O5  1  0.71575400  0.19612300  0.18692000  1
  O  O6  1  0.36021100  0.69764800  0.44134700  1
  O  O7  1  0.85782800  0.68954900  0.94263500  1
  O  O8  1  0.82797300  0.69057400  0.30391400  1
  O  O9  1  0.32600600  0.69181000  0.80905800  1
  O  O10  1  0.79958800  0.68670800  0.60645000  1
  O  O11  1  0.29418800  0.69260100  0.10666200  1
loop_
_geom_bond_atom_site_label_1
_geom_bond_atom_site_label_2
_geom_bond_distance
_geom_bond_site_symmetry_2
Mg0 O8 2.032289 1_555
Mg0 O7 2.033485 1_554
Mg0 O11 2.035151 1_555
Mg0 O2 2.201242 1_565
Mg0 O1 2.221801 1_565
Mg0 O5 2.258771 1_565
Mg1 O10 2.040804 1_455
Mg1 O9 2.045425 1_555
Mg1 O6 2.060294 1_555
Mg1 O4 2.206392 1_565
Mg1 O3 2.224987 1_465
Mg1 O0 2.285435 1_465
Mg2 O2 2.031911 1_655
Mg2 O5 2.064310 1_555
Mg2 O0 2.083881 1_555
Mg2 O10 2.190039 1_555
Mg2 O8 2.203057 1_555
Mg2 O6 2.240469 1_555
Mg3 O1 2.027120 1_556
Mg3 O4 2.040190 1_555
Mg3 O3 2.050213 1_555
Mg3 O9 2.209922 1_555
Mg3 O11 2.221326 1_556
Mg3 O7 2.228102 1_455
Cr0 O8 2.010145 1_455
Cr0 O11 2.022192 1_555
Cr0 O1 2.035214 1_555
Cr0 O2 2.044763 1_555
Cr0 O6 2.054364 1_555
Cr0 O5 2.061727 1_555
Cr1 O7 1.983900 1_555
Cr1 O10 2.002644 1_555
Cr1 O9 2.027574 1_555
Cr1 O4 2.056268 1_655
Cr1 O3 2.081793 1_555
Cr1 O0 2.112220 1_555
O0 W0 1.942815 1_545
O1 W1 2.012975 1_544
O2 W0 2.015426 1_545
O3 W1 1.991986 1_645
O4 W0 2.016093 1_545
O5 W1 1.974832 1_644
O6 W0 2.010521 1_555
O7 W1 2.051158 1_655
O8 W0 2.054194 1_555
O9 W1 2.027689 1_555
O10 W0 2.065702 1_555
O11 W1 2.035472 1_554
