# generated using pymatgen
data_Nd(P3Os)4
_symmetry_space_group_name_H-M   'P 1'
_cell_length_a   7.00935329
_cell_length_b   7.00935329
_cell_length_c   7.00935329
_cell_angle_alpha   109.47122063
_cell_angle_beta   109.47122063
_cell_angle_gamma   109.47122063
_symmetry_Int_Tables_number   1
_chemical_formula_structural   Nd(P3Os)4
_chemical_formula_sum   'Nd1 P12 Os4'
_cell_volume   265.10136262
_cell_formula_units_Z   1
loop_
 _symmetry_equiv_pos_site_id
 _symmetry_equiv_pos_as_xyz
  1  'x, y, z'
loop_
 _atom_site_type_symbol
 _atom_site_label
 _atom_site_symmetry_multiplicity
 _atom_site_fract_x
 _atom_site_fract_y
 _atom_site_fract_z
 _atom_site_occupancy
  Nd  Nd0  1  -0.00000000  -0.00000000  0.00000000  1
  P  P0  1  0.35724257  0.21433944  0.85709587  1
  P  P1  1  0.64275743  0.78566056  0.14290413  1
  P  P2  1  0.64275743  0.49985330  0.85709587  1
  P  P3  1  0.35724257  0.50014670  0.14290413  1
  P  P4  1  0.21433944  0.85709587  0.35724257  1
  P  P5  1  0.78566056  0.14290413  0.64275743  1
  P  P6  1  0.49985330  0.85709587  0.64275743  1
  P  P7  1  0.50014670  0.14290413  0.35724257  1
  P  P8  1  0.85709587  0.35724257  0.21433944  1
  P  P9  1  0.14290413  0.64275743  0.78566056  1
  P  P10  1  0.85709587  0.64275743  0.49985330  1
  P  P11  1  0.14290413  0.35724257  0.50014670  1
  Os  Os0  1  -0.00000000  -0.00000000  0.50000000  1
  Os  Os1  1  0.50000000  -0.00000000  0.00000000  1
  Os  Os2  1  -0.00000000  0.50000000  0.00000000  1
  Os  Os3  1  0.50000000  0.50000000  0.50000000  1
loop_
_geom_bond_atom_site_label_1
_geom_bond_atom_site_label_2
_geom_bond_distance
_geom_bond_site_symmetry_2
Nd0 P6 3.114171 1_444
Nd0 P10 3.114171 1_444
Nd0 P2 3.114171 1_444
Nd0 P7 3.114171 1_555
Nd0 P11 3.114171 1_555
Nd0 P3 3.114171 1_555
Nd0 P0 3.114174 1_554
Nd0 P8 3.114174 1_455
Nd0 P1 3.114174 1_445
Nd0 P5 3.114174 1_454
Nd0 P4 3.114174 1_545
Nd0 P9 3.114174 1_544
P0 P2 2.310869 1_555
P0 P3 2.313243 1_556
P1 P3 2.310869 1_555
P1 P2 2.313243 1_554
P4 P6 2.310869 1_555
P4 P7 2.313243 1_565
P5 P7 2.310869 1_555
P5 P6 2.313243 1_545
P10 P8 2.310869 1_555
P10 P9 2.313243 1_655
P11 P9 2.310869 1_555
P11 P8 2.313243 1_455
Os0 P0 2.366221 1_555
Os0 P1 2.366221 1_445
Os0 P11 2.366222 1_555
Os0 P10 2.366222 1_445
Os0 P4 2.366228 1_545
Os0 P5 2.366228 1_455
Os1 P8 2.366221 1_555
Os1 P9 2.366221 1_544
Os1 P7 2.366222 1_555
Os1 P6 2.366222 1_544
Os1 P0 2.366228 1_554
Os1 P1 2.366228 1_545
Os2 P4 2.366221 1_555
Os2 P5 2.366221 1_454
Os2 P3 2.366222 1_555
Os2 P2 2.366222 1_454
Os2 P9 2.366228 1_554
Os2 P8 2.366228 1_455
Os3 P10 2.366222 1_555
Os3 P7 2.366222 1_555
Os3 P6 2.366222 1_555
Os3 P3 2.366222 1_555
Os3 P2 2.366222 1_555
Os3 P11 2.366222 1_555
