# generated using pymatgen
data_TmScO3
_symmetry_space_group_name_H-M   'P 1'
_cell_length_a   5.40953000
_cell_length_b   5.70879100
_cell_length_c   7.94428300
_cell_angle_alpha   90.00000000
_cell_angle_beta   90.00000000
_cell_angle_gamma   90.00000000
_symmetry_Int_Tables_number   1
_chemical_formula_structural   TmScO3
_chemical_formula_sum   'Tm4 Sc4 O12'
_cell_volume   245.33436393
_cell_formula_units_Z   4
loop_
 _symmetry_equiv_pos_site_id
 _symmetry_equiv_pos_as_xyz
  1  'x, y, z'
loop_
 _atom_site_type_symbol
 _atom_site_label
 _atom_site_symmetry_multiplicity
 _atom_site_fract_x
 _atom_site_fract_y
 _atom_site_fract_z
 _atom_site_occupancy
  Tm  Tm0  1  0.01830700  0.43691800  0.25000000  1
  Tm  Tm1  1  0.98169300  0.56308200  0.75000000  1
  Tm  Tm2  1  0.51830700  0.06308200  0.75000000  1
  Tm  Tm3  1  0.48169300  0.93691800  0.25000000  1
  Sc  Sc0  1  0.00000000  0.00000000  0.00000000  1
  Sc  Sc1  1  0.50000000  0.50000000  0.00000000  1
  Sc  Sc2  1  0.00000000  0.00000000  0.50000000  1
  Sc  Sc3  1  0.50000000  0.50000000  0.50000000  1
  O  O0  1  0.31446900  0.18882900  0.07019200  1
  O  O1  1  0.68553100  0.81117100  0.92980800  1
  O  O2  1  0.81446900  0.31117100  0.92980800  1
  O  O3  1  0.68553100  0.81117100  0.57019200  1
  O  O4  1  0.18553100  0.68882900  0.07019200  1
  O  O5  1  0.31446900  0.18882900  0.42980800  1
  O  O6  1  0.18553100  0.68882900  0.42980800  1
  O  O7  1  0.81446900  0.31117100  0.57019200  1
  O  O8  1  0.63559700  0.56269200  0.25000000  1
  O  O9  1  0.36440300  0.43730800  0.75000000  1
  O  O10  1  0.13559700  0.93730800  0.75000000  1
  O  O11  1  0.86440300  0.06269200  0.25000000  1
loop_
_geom_bond_atom_site_label_1
_geom_bond_atom_site_label_2
_geom_bond_distance
_geom_bond_site_symmetry_2
O0 Sc0 2.089698 1_555
O0 Sc1 2.115151 1_555
O0 Tm3 2.219666 1_545
O0 Tm0 2.571584 1_555
O0 Tm2 2.863842 1_554
O1 Sc0 2.089698 1_666
O1 Sc1 2.115151 1_556
O1 Tm2 2.219666 1_565
O1 Tm1 2.571584 1_555
O1 Tm3 2.863842 1_556
O2 Sc1 2.089698 1_556
O2 Sc0 2.115151 1_656
O2 Tm1 2.219666 1_555
O2 Tm2 2.571584 1_555
O2 Tm0 2.863842 1_656
O3 Sc2 2.089698 1_665
O3 Sc3 2.115151 1_555
O3 Tm2 2.219666 1_565
O3 Tm1 2.571584 1_555
O3 Tm3 2.863842 1_555
O4 Sc1 2.089698 1_555
O4 Sc0 2.115151 1_565
O4 Tm0 2.219666 1_555
O4 Tm3 2.571584 1_555
O4 Tm1 2.863842 1_454
O5 Sc2 2.089698 1_555
O5 Sc3 2.115151 1_555
O5 Tm3 2.219666 1_545
O5 Tm0 2.571584 1_555
O5 Tm2 2.863842 1_555
O6 Sc3 2.089698 1_555
O6 Sc2 2.115151 1_565
O6 Tm0 2.219666 1_555
O6 Tm3 2.571584 1_555
O6 Tm1 2.863842 1_455
O7 Sc3 2.089698 1_555
O7 Sc2 2.115151 1_655
O7 Tm1 2.219666 1_555
O7 Tm2 2.571584 1_555
O7 Tm0 2.863842 1_655
O8 Sc1 2.147234 1_555
O8 Sc3 2.147234 1_555
O8 Tm0 2.191258 1_655
O8 Tm3 2.292869 1_555
O9 Sc3 2.147234 1_555
O9 Sc1 2.147234 1_556
O9 Tm1 2.191258 1_455
O9 Tm2 2.292869 1_555
O10 Sc2 2.147234 1_565
O10 Sc0 2.147234 1_566
O10 Tm2 2.191258 1_565
O10 Tm1 2.292869 1_455
O11 Sc0 2.147234 1_655
O11 Sc2 2.147234 1_655
O11 Tm3 2.191258 1_545
O11 Tm0 2.292869 1_655
