# generated using pymatgen
data_Ca(AlSb)2
_symmetry_space_group_name_H-M   'P 1'
_cell_length_a   4.98113751
_cell_length_b   4.98113793
_cell_length_c   6.04446957
_cell_angle_alpha   90.00000000
_cell_angle_beta   90.00000000
_cell_angle_gamma   120.00000353
_symmetry_Int_Tables_number   1
_chemical_formula_structural   Ca(AlSb)2
_chemical_formula_sum   'Ca1 Al2 Sb2'
_cell_volume   129.88108582
_cell_formula_units_Z   1
loop_
 _symmetry_equiv_pos_site_id
 _symmetry_equiv_pos_as_xyz
  1  'x, y, z'
loop_
 _atom_site_type_symbol
 _atom_site_label
 _atom_site_symmetry_multiplicity
 _atom_site_fract_x
 _atom_site_fract_y
 _atom_site_fract_z
 _atom_site_occupancy
  Ca  Ca0  1  -0.00000000  0.00000000  0.00000000  1
  Al  Al0  1  0.66666700  0.33333300  0.28404447  1
  Al  Al1  1  0.33333300  0.66666700  0.71595553  1
  Sb  Sb0  1  0.66666700  0.33333300  0.73833583  1
  Sb  Sb1  1  0.33333300  0.66666700  0.26166417  1
loop_
_geom_bond_atom_site_label_1
_geom_bond_atom_site_label_2
_geom_bond_distance
_geom_bond_site_symmetry_2
Ca0 Sb0 3.282086 1_454
Ca0 Sb1 3.282086 1_545
Ca0 Sb0 3.282089 1_554
Ca0 Sb1 3.282089 1_445
Ca0 Sb0 3.282089 1_444
Ca0 Sb1 3.282089 1_555
Al0 Sb0 2.745950 1_555
Al0 Sb1 2.879038 1_655
Al0 Sb1 2.879038 1_545
Al0 Sb1 2.879047 1_555
Al0 Sb0 3.298519 1_554
Al0 Ca0 3.349373 1_655
Al0 Ca0 3.349377 1_555
Al0 Ca0 3.349377 1_665
Al1 Sb1 2.745950 1_555
Al1 Sb0 2.879038 1_455
Al1 Sb0 2.879038 1_565
Al1 Sb0 2.879047 1_555
Al1 Sb1 3.298519 1_556
Al1 Ca0 3.349373 1_566
Al1 Ca0 3.349377 1_666
Al1 Ca0 3.349377 1_556
