# generated using pymatgen
data_CaMg14Nb
_symmetry_space_group_name_H-M   'P 1'
_cell_length_a   6.45452085
_cell_length_b   6.48021756
_cell_length_c   10.22678225
_cell_angle_alpha   90.00000000
_cell_angle_beta   90.00000000
_cell_angle_gamma   120.13178994
_symmetry_Int_Tables_number   1
_chemical_formula_structural   CaMg14Nb
_chemical_formula_sum   'Ca1 Mg14 Nb1'
_cell_volume   369.95164091
_cell_formula_units_Z   1
loop_
 _symmetry_equiv_pos_site_id
 _symmetry_equiv_pos_as_xyz
  1  'x, y, z'
loop_
 _atom_site_type_symbol
 _atom_site_label
 _atom_site_symmetry_multiplicity
 _atom_site_fract_x
 _atom_site_fract_y
 _atom_site_fract_z
 _atom_site_occupancy
  Ca  Ca0  1  0.16728687  0.33364294  0.12500000  1
  Mg  Mg0  1  0.16739850  0.33369875  0.62500000  1
  Mg  Mg1  1  0.16574498  0.83287199  0.62500000  1
  Mg  Mg2  1  0.66397047  0.33107557  0.12500000  1
  Mg  Mg3  1  0.66647738  0.33466423  0.62500000  1
  Mg  Mg4  1  0.66397047  0.83289389  0.12500000  1
  Mg  Mg5  1  0.66647738  0.83181215  0.62500000  1
  Mg  Mg6  1  0.33194449  0.15634065  0.37565181  1
  Mg  Mg7  1  0.33194449  0.15634065  0.87434819  1
  Mg  Mg8  1  0.33194449  0.67560484  0.37565181  1
  Mg  Mg9  1  0.33194449  0.67560484  0.87434819  1
  Mg  Mg10  1  0.82719543  0.16359821  0.38080941  1
  Mg  Mg11  1  0.82719543  0.16359821  0.86919059  1
  Mg  Mg12  1  0.84030863  0.67015481  0.36827767  1
  Mg  Mg13  1  0.84030863  0.67015481  0.88172233  1
  Nb  Nb0  1  0.17588788  0.83794344  0.12500000  1
loop_
_geom_bond_atom_site_label_1
_geom_bond_atom_site_label_2
_geom_bond_distance
_geom_bond_site_symmetry_2
Ca0 Mg7 3.200999 1_554
Ca0 Mg6 3.200999 1_555
Ca0 Mg9 3.201006 1_554
Ca0 Mg8 3.201006 1_555
Ca0 Mg4 3.214238 1_555
Ca0 Mg2 3.214239 1_555
Ca0 Mg10 3.232390 1_455
Ca0 Mg11 3.232390 1_454
Ca0 Mg4 3.240346 1_445
Ca0 Mg2 3.240346 1_455
Ca0 Nb0 3.240464 1_555
Ca0 Nb0 3.240465 1_545
Mg0 Mg10 3.137375 1_455
Mg0 Mg11 3.137375 1_455
Mg0 Mg7 3.190154 1_555
Mg0 Mg6 3.190154 1_555
Mg0 Mg9 3.190160 1_555
Mg0 Mg8 3.190160 1_555
Mg0 Mg5 3.218179 1_555
Mg0 Mg3 3.218179 1_555
Mg0 Mg5 3.236351 1_445
Mg0 Mg3 3.236351 1_455
Mg0 Mg1 3.240122 1_545
Mg0 Mg1 3.240122 1_555
Mg1 Mg9 3.128840 1_555
Mg1 Mg8 3.128840 1_555
Mg1 Mg6 3.128847 1_565
Mg1 Mg7 3.128847 1_565
Mg1 Mg13 3.192701 1_455
Mg1 Mg12 3.192701 1_455
Mg1 Mg3 3.219091 1_455
Mg1 Mg5 3.219091 1_455
Mg1 Mg3 3.235441 1_565
Mg1 Mg5 3.235441 1_555
Mg2 Mg6 3.163766 1_555
Mg2 Mg7 3.163766 1_554
Mg2 Nb0 3.166892 1_545
Mg2 Mg4 3.228326 1_545
Mg2 Mg4 3.251892 1_555
Mg2 Nb0 3.287877 1_655
Mg3 Mg6 3.161527 1_555
Mg3 Mg7 3.161527 1_555
Mg3 Mg5 3.221627 1_555
Mg3 Mg5 3.258591 1_545
Mg4 Mg9 3.163766 1_554
Mg4 Mg8 3.163766 1_555
Mg4 Nb0 3.166892 1_555
Mg4 Nb0 3.287877 1_655
Mg5 Mg8 3.161528 1_555
Mg5 Mg9 3.161528 1_555
Mg6 Mg8 3.115273 1_545
Mg6 Nb0 3.123459 1_545
Mg6 Mg8 3.364945 1_555
Mg7 Mg9 3.115273 1_545
Mg7 Nb0 3.123459 1_546
Mg7 Mg9 3.364945 1_555
Mg8 Nb0 3.123452 1_555
Mg9 Nb0 3.123452 1_556
Mg10 Mg3 3.113832 1_555
Mg10 Mg5 3.113838 1_545
Mg10 Mg8 3.173697 1_545
Mg10 Mg6 3.173698 1_555
Mg10 Mg2 3.206207 1_555
Mg10 Mg4 3.206213 1_545
Mg10 Mg12 3.243469 1_555
Mg10 Mg12 3.243469 1_545
Mg10 Mg8 3.282198 1_655
Mg10 Mg6 3.282198 1_655
Mg11 Mg3 3.113832 1_555
Mg11 Mg5 3.113838 1_545
Mg11 Mg9 3.173697 1_545
Mg11 Mg7 3.173698 1_555
Mg11 Mg2 3.206207 1_556
Mg11 Mg4 3.206213 1_546
Mg11 Mg13 3.243469 1_555
Mg11 Mg13 3.243469 1_545
Mg11 Mg9 3.282198 1_655
Mg11 Mg7 3.282198 1_655
Mg12 Nb0 3.114354 1_655
Mg12 Mg4 3.130905 1_555
Mg12 Mg2 3.130912 1_555
Mg12 Mg6 3.156593 1_665
Mg12 Mg8 3.156594 1_655
Mg12 Mg5 3.229443 1_555
Mg12 Mg3 3.229449 1_555
Mg12 Mg6 3.299979 1_555
Mg12 Mg8 3.299979 1_555
Mg13 Nb0 3.114354 1_656
Mg13 Mg4 3.130905 1_556
Mg13 Mg2 3.130912 1_556
Mg13 Mg7 3.156593 1_665
Mg13 Mg9 3.156594 1_655
Mg13 Mg5 3.229443 1_555
Mg13 Mg3 3.229449 1_555
Mg13 Mg7 3.299979 1_555
Mg13 Mg9 3.299979 1_555
