# generated using pymatgen
data_RbEu(MoO4)2
_symmetry_space_group_name_H-M   'P 1'
_cell_length_a   7.64741082
_cell_length_b   7.64741082
_cell_length_c   7.87000154
_cell_angle_alpha   61.93906007
_cell_angle_beta   61.93906007
_cell_angle_gamma   88.61397385
_symmetry_Int_Tables_number   1
_chemical_formula_structural   RbEu(MoO4)2
_chemical_formula_sum   'Rb2 Eu2 Mo4 O16'
_cell_volume   346.74084578
_cell_formula_units_Z   2
loop_
 _symmetry_equiv_pos_site_id
 _symmetry_equiv_pos_as_xyz
  1  'x, y, z'
loop_
 _atom_site_type_symbol
 _atom_site_label
 _atom_site_symmetry_multiplicity
 _atom_site_fract_x
 _atom_site_fract_y
 _atom_site_fract_z
 _atom_site_occupancy
  Rb  Rb0  1  0.19958700  0.80041300  0.75000000  1
  Rb  Rb1  1  0.80041300  0.19958700  0.25000000  1
  Eu  Eu0  1  0.76955200  0.23044800  0.75000000  1
  Eu  Eu1  1  0.23044800  0.76955200  0.25000000  1
  Mo  Mo0  1  0.69439900  0.69647400  0.76149000  1
  Mo  Mo1  1  0.30560100  0.30352600  0.23851000  1
  Mo  Mo2  1  0.30352600  0.30560100  0.73851000  1
  Mo  Mo3  1  0.69647400  0.69439900  0.26149000  1
  O  O0  1  0.61604300  0.76437400  0.56257600  1
  O  O1  1  0.38395700  0.23562600  0.43742400  1
  O  O2  1  0.23562600  0.38395700  0.93742400  1
  O  O3  1  0.76437400  0.61604300  0.06257600  1
  O  O4  1  0.38308100  0.07234300  0.86954900  1
  O  O5  1  0.61691900  0.92765700  0.13045100  1
  O  O6  1  0.92765700  0.61691900  0.63045100  1
  O  O7  1  0.07234300  0.38308100  0.36954900  1
  O  O8  1  0.58125200  0.36959000  0.97378200  1
  O  O9  1  0.41874800  0.63041000  0.02621800  1
  O  O10  1  0.63041000  0.41874800  0.52621800  1
  O  O11  1  0.36959000  0.58125200  0.47378200  1
  O  O12  1  0.79299700  0.94779200  0.69098500  1
  O  O13  1  0.20700300  0.05220800  0.30901500  1
  O  O14  1  0.05220800  0.20700300  0.80901500  1
  O  O15  1  0.94779200  0.79299700  0.19098500  1
loop_
_geom_bond_atom_site_label_1
_geom_bond_atom_site_label_2
_geom_bond_distance
_geom_bond_site_symmetry_2
Eu0 O8 2.368662 1_555
Eu0 O10 2.368662 1_555
Eu0 O14 2.401615 1_655
Eu0 O12 2.401615 1_545
Eu0 O5 2.451339 1_546
Eu0 O7 2.451339 1_655
Eu0 O6 2.751107 1_555
Eu0 O4 2.751107 1_555
Eu1 O11 2.368662 1_555
Eu1 O9 2.368662 1_555
Eu1 O13 2.401615 1_565
Eu1 O15 2.401615 1_455
Eu1 O6 2.451339 1_455
Eu1 O4 2.451339 1_564
Eu1 O5 2.751107 1_555
Eu1 O7 2.751107 1_555
Mo0 O0 1.783832 1_555
Mo0 O12 1.800948 1_555
Mo0 O6 1.850061 1_555
Mo0 O9 1.992199 1_556
Mo0 O8 2.145768 1_555
Mo0 O3 2.466834 1_556
Mo1 O1 1.783832 1_555
Mo1 O13 1.800948 1_555
Mo1 O7 1.850061 1_555
Mo1 O8 1.992199 1_554
Mo1 O9 2.145768 1_555
Mo1 O2 2.466834 1_554
Mo2 O2 1.783832 1_555
Mo2 O14 1.800948 1_555
Mo2 O4 1.850061 1_555
Mo2 O11 1.992199 1_555
Mo2 O10 2.145768 1_555
Mo2 O1 2.466834 1_555
Mo3 O3 1.783832 1_555
Mo3 O15 1.800948 1_555
Mo3 O5 1.850061 1_555
Mo3 O10 1.992199 1_555
Mo3 O11 2.145768 1_555
Mo3 O0 2.466834 1_555
O0 Rb0 2.883575 1_555
O0 Rb1 2.894416 1_565
O1 Rb1 2.883575 1_555
O1 Rb0 2.894416 1_545
O2 Rb0 2.883575 1_555
O2 Rb1 2.894416 1_456
O3 Rb1 2.883575 1_555
O3 Rb0 2.894416 1_654
O4 Rb0 3.225361 1_545
O5 Rb1 3.225361 1_565
O6 Rb0 3.225361 1_655
O7 Rb1 3.225361 1_455
O8 Rb1 3.144558 1_556
O9 Rb0 3.144558 1_554
O10 Rb1 3.144558 1_555
O11 Rb0 3.144558 1_555
O12 Rb1 3.047716 1_565
O12 Rb0 3.442495 1_655
O13 Rb0 3.047716 1_545
O13 Rb1 3.442495 1_455
O14 Rb1 3.047716 1_456
O14 Rb0 3.442495 1_545
O15 Rb0 3.047716 1_654
O15 Rb1 3.442495 1_565
