# generated using pymatgen
data_Ca(AlH4)2
_symmetry_space_group_name_H-M   'P 1'
_cell_length_a   15.87818065
_cell_length_b   15.87818065
_cell_length_c   5.92339200
_cell_angle_alpha   90.00000000
_cell_angle_beta   90.00000000
_cell_angle_gamma   120.00000272
_symmetry_Int_Tables_number   1
_chemical_formula_structural   Ca(AlH4)2
_chemical_formula_sum   'Ca9 Al18 H72'
_cell_volume   1293.30981015
_cell_formula_units_Z   9
loop_
 _symmetry_equiv_pos_site_id
 _symmetry_equiv_pos_as_xyz
  1  'x, y, z'
loop_
 _atom_site_type_symbol
 _atom_site_label
 _atom_site_symmetry_multiplicity
 _atom_site_fract_x
 _atom_site_fract_y
 _atom_site_fract_z
 _atom_site_occupancy
  Ca  Ca0  1  0.33333300  0.66666700  0.50948500  1
  Ca  Ca1  1  0.66666700  0.33333300  0.49051500  1
  Ca  Ca2  1  0.00000000  0.00000000  0.00000000  1
  Ca  Ca3  1  0.33440100  0.33408600  0.24956000  1
  Ca  Ca4  1  0.66559900  0.66591400  0.75044000  1
  Ca  Ca5  1  0.66591400  0.00031600  0.24956000  1
  Ca  Ca6  1  0.33408600  0.99968400  0.75044000  1
  Ca  Ca7  1  0.99968400  0.66559900  0.24956000  1
  Ca  Ca8  1  0.00031600  0.33440100  0.75044000  1
  Al  Al0  1  0.10013100  0.50083300  0.25372900  1
  Al  Al1  1  0.89986900  0.49916700  0.74627100  1
  Al  Al2  1  0.49916700  0.59929700  0.25372900  1
  Al  Al3  1  0.50083300  0.40070300  0.74627100  1
  Al  Al4  1  0.40070300  0.89986900  0.25372900  1
  Al  Al5  1  0.59929700  0.10013100  0.74627100  1
  Al  Al6  1  0.06656400  0.23651400  0.26220900  1
  Al  Al7  1  0.93343600  0.76348600  0.73779100  1
  Al  Al8  1  0.76348600  0.83005000  0.26220900  1
  Al  Al9  1  0.23651400  0.16995000  0.73779100  1
  Al  Al10  1  0.16995000  0.93343600  0.26220900  1
  Al  Al11  1  0.83005000  0.06656400  0.73779100  1
  Al  Al12  1  0.43255600  0.16603100  0.23401000  1
  Al  Al13  1  0.56744400  0.83396900  0.76599000  1
  Al  Al14  1  0.83396900  0.26652500  0.23401000  1
  Al  Al15  1  0.16603100  0.73347500  0.76599000  1
  Al  Al16  1  0.73347500  0.56744400  0.23401000  1
  Al  Al17  1  0.26652500  0.43255600  0.76599000  1
  H  H0  1  0.05148700  0.12856800  0.21493500  1
  H  H1  1  0.94851300  0.87143200  0.78506500  1
  H  H2  1  0.87143200  0.92291800  0.21493500  1
  H  H3  1  0.12856800  0.07708200  0.78506500  1
  H  H4  1  0.07708200  0.94851300  0.21493500  1
  H  H5  1  0.92291800  0.05148700  0.78506500  1
  H  H6  1  0.01714000  0.53053500  0.27601200  1
  H  H7  1  0.98286000  0.46946500  0.72398800  1
  H  H8  1  0.46946500  0.48660500  0.27601200  1
  H  H9  1  0.53053500  0.51339500  0.72398800  1
  H  H10  1  0.51339500  0.98286000  0.27601200  1
  H  H11  1  0.48660500  0.01714000  0.72398800  1
  H  H12  1  0.43891200  0.11265800  0.00505300  1
  H  H13  1  0.56108800  0.88734200  0.99494700  1
  H  H14  1  0.88734200  0.32625400  0.00505300  1
  H  H15  1  0.11265800  0.67374600  0.99494700  1
  H  H16  1  0.67374600  0.56108800  0.00505300  1
  H  H17  1  0.32625400  0.43891200  0.99494700  1
  H  H18  1  0.09690300  0.45217800  0.01028900  1
  H  H19  1  0.90309700  0.54782200  0.98971100  1
  H  H20  1  0.54782200  0.64472400  0.01028900  1
  H  H21  1  0.45217800  0.35527600  0.98971100  1
  H  H22  1  0.35527600  0.90309700  0.01028900  1
  H  H23  1  0.64472400  0.09690300  0.98971100  1
  H  H24  1  0.54039200  0.26178300  0.26479000  1
  H  H25  1  0.45960800  0.73821700  0.73521000  1
  H  H26  1  0.73821700  0.27861000  0.26479000  1
  H  H27  1  0.26178300  0.72139000  0.73521000  1
  H  H28  1  0.72139000  0.45960800  0.26479000  1
  H  H29  1  0.27861000  0.54039200  0.73521000  1
  H  H30  1  0.18057300  0.31637700  0.24920200  1
  H  H31  1  0.81942700  0.68362300  0.75079800  1
  H  H32  1  0.68362300  0.86419500  0.24920200  1
  H  H33  1  0.31637700  0.13580500  0.75079800  1
  H  H34  1  0.13580500  0.81942700  0.24920200  1
  H  H35  1  0.86419500  0.18057300  0.75079800  1
  H  H36  1  0.00348300  0.25444600  0.07102100  1
  H  H37  1  0.99651700  0.74555400  0.92897900  1
  H  H38  1  0.74555400  0.74903700  0.07102100  1
  H  H39  1  0.25444600  0.25096300  0.92897900  1
  H  H40  1  0.25096300  0.99651700  0.07102100  1
  H  H41  1  0.74903700  0.00348300  0.92897900  1
  H  H42  1  0.09353400  0.42721600  0.45451000  1
  H  H43  1  0.90646600  0.57278400  0.54549000  1
  H  H44  1  0.57278400  0.66631800  0.45451000  1
  H  H45  1  0.42721600  0.33368200  0.54549000  1
  H  H46  1  0.33368200  0.90646600  0.45451000  1
  H  H47  1  0.66631800  0.09353400  0.54549000  1
  H  H48  1  0.41679400  0.09687500  0.45059300  1
  H  H49  1  0.58320600  0.90312500  0.54940700  1
  H  H50  1  0.90312500  0.31991900  0.45059300  1
  H  H51  1  0.09687500  0.68008100  0.54940700  1
  H  H52  1  0.68008100  0.58320600  0.45059300  1
  H  H53  1  0.31991900  0.41679400  0.54940700  1
  H  H54  1  0.01920800  0.23075800  0.50964400  1
  H  H55  1  0.98079200  0.76924200  0.49035600  1
  H  H56  1  0.76924200  0.78845100  0.50964400  1
  H  H57  1  0.23075800  0.21154900  0.49035600  1
  H  H58  1  0.21154900  0.98079200  0.50964400  1
  H  H59  1  0.78845100  0.01920800  0.49035600  1
  H  H60  1  0.20780400  0.59671600  0.28008200  1
  H  H61  1  0.79219600  0.40328400  0.71991800  1
  H  H62  1  0.40328400  0.61108800  0.28008200  1
  H  H63  1  0.59671600  0.38891200  0.71991800  1
  H  H64  1  0.38891200  0.79219600  0.28008200  1
  H  H65  1  0.61108800  0.20780400  0.71991800  1
  H  H66  1  0.35143300  0.19844700  0.22221300  1
  H  H67  1  0.64856700  0.80155300  0.77778700  1
  H  H68  1  0.80155300  0.15298600  0.22221300  1
  H  H69  1  0.19844700  0.84701400  0.77778700  1
  H  H70  1  0.84701400  0.64856700  0.22221300  1
  H  H71  1  0.15298600  0.35143300  0.77778700  1
loop_
_geom_bond_atom_site_label_1
_geom_bond_atom_site_label_2
_geom_bond_distance
_geom_bond_site_symmetry_2
Ca0 H27 2.195574 1_555
Ca0 H25 2.195595 1_555
Ca0 H29 2.195597 1_555
Ca0 H64 2.199778 1_555
Ca0 H60 2.199779 1_555
Ca0 H62 2.199790 1_555
Ca1 H26 2.195574 1_555
Ca1 H24 2.195595 1_555
Ca1 H28 2.195597 1_555
Ca1 H65 2.199778 1_555
Ca1 H61 2.199779 1_555
Ca1 H63 2.199790 1_555
Ca2 H1 2.188092 1_444
Ca2 H0 2.188092 1_555
Ca2 H3 2.188094 1_554
Ca2 H2 2.188094 1_445
Ca2 H4 2.188104 1_545
Ca2 H5 2.188104 1_454
Ca3 H53 2.287807 1_555
Ca3 H45 2.292177 1_555
Ca3 H17 2.297175 1_554
Ca3 H39 2.298705 1_554
Ca3 H8 2.301070 1_555
Ca3 H66 2.306565 1_555
Ca3 H57 2.307883 1_555
Ca3 H21 2.313074 1_554
Ca3 H30 2.314761 1_555
Ca4 H52 2.287807 1_555
Ca4 H44 2.292177 1_555
Ca4 H16 2.297175 1_556
Ca4 H38 2.298705 1_556
Ca4 H9 2.301070 1_555
Ca4 H67 2.306565 1_555
Ca4 H56 2.307883 1_555
Ca4 H20 2.313074 1_556
Ca4 H31 2.314761 1_555
Ca5 H49 2.287813 1_545
Ca5 H47 2.292167 1_555
Ca5 H13 2.297181 1_544
Ca5 H41 2.298709 1_554
Ca5 H10 2.301064 1_545
Ca5 H68 2.306556 1_555
Ca5 H59 2.307892 1_555
Ca5 H23 2.313074 1_554
Ca5 H32 2.314793 1_545
Ca6 H48 2.287813 1_565
Ca6 H46 2.292167 1_555
Ca6 H12 2.297181 1_566
Ca6 H40 2.298709 1_556
Ca6 H11 2.301064 1_565
Ca6 H69 2.306556 1_555
Ca6 H58 2.307892 1_555
Ca6 H22 2.313074 1_556
Ca6 H33 2.314793 1_565
Ca7 H51 2.287817 1_655
Ca7 H43 2.292172 1_555
Ca7 H15 2.297187 1_654
Ca7 H37 2.298701 1_554
Ca7 H6 2.301079 1_655
Ca7 H70 2.306549 1_555
Ca7 H55 2.307867 1_555
Ca7 H19 2.313074 1_554
Ca7 H34 2.314774 1_655
Ca8 H50 2.287817 1_455
Ca8 H42 2.292172 1_555
Ca8 H14 2.297187 1_456
Ca8 H36 2.298701 1_556
Ca8 H7 2.301079 1_455
Ca8 H71 2.306549 1_555
Ca8 H54 2.307867 1_555
Ca8 H18 2.313074 1_556
Ca8 H35 2.314774 1_455
Al0 H6 1.611758 1_555
Al0 H18 1.624563 1_555
Al0 H60 1.631645 1_555
Al0 H42 1.633803 1_555
Al1 H7 1.611758 1_555
Al1 H19 1.624563 1_555
Al1 H61 1.631645 1_555
Al1 H43 1.633803 1_555
Al2 H8 1.611742 1_555
Al2 H20 1.624563 1_555
Al2 H62 1.631655 1_555
Al2 H44 1.633808 1_555
Al3 H9 1.611742 1_555
Al3 H21 1.624563 1_555
Al3 H63 1.631655 1_555
Al3 H45 1.633808 1_555
Al4 H10 1.611747 1_555
Al4 H22 1.624563 1_555
Al4 H64 1.631639 1_555
Al4 H46 1.633814 1_555
Al5 H11 1.611747 1_555
Al5 H23 1.624563 1_555
Al5 H65 1.631639 1_555
Al5 H47 1.633814 1_555
Al6 H30 1.611036 1_555
Al6 H36 1.628495 1_555
Al6 H54 1.628855 1_555
Al6 H0 1.631916 1_555
Al7 H31 1.611036 1_555
Al7 H37 1.628495 1_555
Al7 H55 1.628855 1_555
Al7 H1 1.631916 1_555
Al8 H32 1.611025 1_555
Al8 H38 1.628495 1_555
Al8 H56 1.628848 1_555
Al8 H2 1.631910 1_555
Al9 H33 1.611025 1_555
Al9 H39 1.628495 1_555
Al9 H57 1.628848 1_555
Al9 H3 1.631910 1_555
Al10 H34 1.611040 1_555
Al10 H40 1.628495 1_555
Al10 H58 1.628852 1_555
Al10 H4 1.631901 1_555
Al11 H35 1.611040 1_555
Al11 H41 1.628495 1_555
Al11 H59 1.628852 1_555
Al11 H5 1.631901 1_555
Al12 H66 1.609956 1_555
Al12 H48 1.624632 1_555
Al12 H12 1.628863 1_555
Al12 H24 1.635020 1_555
Al13 H67 1.609956 1_555
Al13 H49 1.624632 1_555
Al13 H13 1.628863 1_555
Al13 H25 1.635020 1_555
Al14 H68 1.609956 1_555
Al14 H50 1.624632 1_555
Al14 H14 1.628863 1_555
Al14 H26 1.635029 1_555
Al15 H69 1.609956 1_555
Al15 H51 1.624632 1_555
Al15 H15 1.628863 1_555
Al15 H27 1.635029 1_555
Al16 H70 1.609956 1_555
Al16 H52 1.624632 1_555
Al16 H16 1.628863 1_555
Al16 H28 1.635013 1_555
Al17 H71 1.609956 1_555
Al17 H53 1.624632 1_555
Al17 H17 1.628863 1_555
Al17 H29 1.635013 1_555
