# generated using pymatgen
data_Li3Fe2P2(CO7)2
_symmetry_space_group_name_H-M   'P 1'
_cell_length_a   6.46244300
_cell_length_b   9.41725439
_cell_length_c   10.14075843
_cell_angle_alpha   62.79380616
_cell_angle_beta   89.64853651
_cell_angle_gamma   89.56501719
_symmetry_Int_Tables_number   1
_chemical_formula_structural   Li3Fe2P2(CO7)2
_chemical_formula_sum   'Li6 Fe4 P4 C4 O28'
_cell_volume   548.85546193
_cell_formula_units_Z   2
loop_
 _symmetry_equiv_pos_site_id
 _symmetry_equiv_pos_as_xyz
  1  'x, y, z'
loop_
 _atom_site_type_symbol
 _atom_site_label
 _atom_site_symmetry_multiplicity
 _atom_site_fract_x
 _atom_site_fract_y
 _atom_site_fract_z
 _atom_site_occupancy
  Li  Li0  1  0.26161700  0.33070600  0.56368600  1
  Li  Li1  1  0.25312900  0.83104500  0.06720600  1
  Li  Li2  1  0.03371900  0.48442700  0.23420600  1
  Li  Li3  1  0.96628100  0.51557300  0.76579400  1
  Li  Li4  1  0.74687100  0.16895500  0.93279400  1
  Li  Li5  1  0.73838300  0.66929400  0.43631400  1
  Fe  Fe0  1  0.74758700  0.74003000  0.93082700  1
  Fe  Fe1  1  0.74417300  0.22959000  0.43669100  1
  Fe  Fe2  1  0.25582700  0.77041000  0.56330900  1
  Fe  Fe3  1  0.25241300  0.25997000  0.06917300  1
  P  P0  1  0.24375900  0.64842100  0.93114700  1
  P  P1  1  0.24791700  0.15312700  0.42589500  1
  P  P2  1  0.75208300  0.84687300  0.57410500  1
  P  P3  1  0.75624100  0.35157900  0.06885300  1
  C  C0  1  0.76231600  0.33593700  0.62539500  1
  C  C1  1  0.75215000  0.83085500  0.12966900  1
  C  C2  1  0.24785000  0.16914500  0.87033100  1
  C  C3  1  0.23768400  0.66406300  0.37460500  1
  O  O0  1  0.74295000  0.93640200  0.99038700  1
  O  O1  1  0.75554900  0.44039400  0.48539200  1
  O  O2  1  0.24784600  0.13936800  0.76216200  1
  O  O3  1  0.74812100  0.18752800  0.65165200  1
  O  O4  1  0.21879900  0.62909600  0.26822100  1
  O  O5  1  0.75934400  0.68186600  0.15201700  1
  O  O6  1  0.06250600  0.74536200  0.95289000  1
  O  O7  1  0.43751100  0.73326300  0.94892400  1
  O  O8  1  0.06392500  0.25730000  0.43450700  1
  O  O9  1  0.43716800  0.24257800  0.44515700  1
  O  O10  1  0.74925600  0.85644800  0.72134100  1
  O  O11  1  0.23866200  0.98028200  0.55192600  1
  O  O12  1  0.77010400  0.36066400  0.21674000  1
  O  O13  1  0.22887900  0.47417300  0.06058900  1
  O  O14  1  0.77112100  0.52582700  0.93941100  1
  O  O15  1  0.22989600  0.63933600  0.78326000  1
  O  O16  1  0.76133800  0.01971800  0.44807400  1
  O  O17  1  0.25074400  0.14355200  0.27865900  1
  O  O18  1  0.56283200  0.75742200  0.55484300  1
  O  O19  1  0.93607500  0.74270000  0.56549300  1
  O  O20  1  0.93749400  0.25463800  0.04711000  1
  O  O21  1  0.56248900  0.26673700  0.05107600  1
  O  O22  1  0.24065600  0.31813400  0.84798300  1
  O  O23  1  0.78120100  0.37090400  0.73177900  1
  O  O24  1  0.25187900  0.81247200  0.34834800  1
  O  O25  1  0.75215400  0.86063200  0.23783800  1
  O  O26  1  0.24445100  0.55960600  0.51460800  1
  O  O27  1  0.25705000  0.06359800  0.00961300  1
loop_
_geom_bond_atom_site_label_1
_geom_bond_atom_site_label_2
_geom_bond_distance
_geom_bond_site_symmetry_2
Li0 O26 1.980587 1_555
Li0 O2 1.997429 1_555
Li0 O9 2.074054 1_555
Li0 O8 2.165196 1_555
Li1 O27 1.992236 1_565
Li1 O4 2.068179 1_555
Li1 O6 2.097720 1_554
Li1 O7 2.163849 1_554
Li2 O4 1.966002 1_555
Li2 O12 2.124766 1_455
Li2 O8 2.182830 1_555
Li2 O13 2.196835 1_555
Li2 O5 2.418024 1_455
Li3 O23 1.966002 1_555
Li3 O15 2.124766 1_655
Li3 O19 2.182830 1_555
Li3 O14 2.196835 1_555
Li3 O22 2.418024 1_655
Li4 O0 1.992236 1_545
Li4 O23 2.068179 1_555
Li4 O20 2.097720 1_556
Li4 O21 2.163849 1_556
Li5 O1 1.980587 1_555
Li5 O25 1.997429 1_555
Li5 O18 2.074054 1_555
Li5 O19 2.165196 1_555
Fe0 O10 1.893465 1_555
Fe0 O14 1.983624 1_555
Fe0 O7 2.009946 1_555
Fe0 O6 2.052269 1_655
Fe0 O5 2.053054 1_556
Fe0 O0 2.192214 1_555
Fe1 O16 1.928750 1_555
Fe1 O9 1.990584 1_555
Fe1 O12 2.001944 1_555
Fe1 O3 2.029868 1_555
Fe1 O8 2.083471 1_655
Fe1 O1 2.255981 1_555
Fe2 O11 1.928750 1_555
Fe2 O18 1.990584 1_555
Fe2 O15 2.001944 1_555
Fe2 O24 2.029868 1_555
Fe2 O19 2.083471 1_455
Fe2 O26 2.255981 1_555
Fe3 O17 1.893465 1_555
Fe3 O13 1.983624 1_555
Fe3 O21 2.009946 1_555
Fe3 O20 2.052269 1_455
Fe3 O22 2.053054 1_554
Fe3 O27 2.192214 1_555
C0 O23 1.270523 1_555
C0 O3 1.301532 1_555
C0 O1 1.307022 1_555
C1 O25 1.250248 1_555
C1 O0 1.304939 1_554
C1 O5 1.315488 1_555
C2 O2 1.250248 1_555
C2 O27 1.304939 1_556
C2 O22 1.315488 1_555
C3 O4 1.270523 1_555
C3 O24 1.301532 1_555
C3 O26 1.307022 1_555
O6 P0 1.555223 1_555
O7 P0 1.545416 1_555
O8 P1 1.563074 1_555
O9 P1 1.553249 1_555
O10 P2 1.536396 1_555
O11 P1 1.544281 1_565
O12 P3 1.543856 1_555
O13 P0 1.567239 1_554
O14 P3 1.567239 1_556
O15 P0 1.543856 1_555
O16 P2 1.544281 1_545
O17 P1 1.536396 1_555
O18 P2 1.553249 1_555
O19 P2 1.563074 1_555
O20 P3 1.555223 1_555
O21 P3 1.545416 1_555
