# generated using pymatgen
data_Ho2Mn3Sb3O14
_symmetry_space_group_name_H-M   'P 1'
_cell_length_a   7.26149014
_cell_length_b   7.26149014
_cell_length_c   7.23743059
_cell_angle_alpha   60.62056234
_cell_angle_beta   60.62056234
_cell_angle_gamma   60.70317871
_symmetry_Int_Tables_number   1
_chemical_formula_structural   Ho2Mn3Sb3O14
_chemical_formula_sum   'Ho2 Mn3 Sb3 O14'
_cell_volume   273.79733445
_cell_formula_units_Z   1
loop_
 _symmetry_equiv_pos_site_id
 _symmetry_equiv_pos_as_xyz
  1  'x, y, z'
loop_
 _atom_site_type_symbol
 _atom_site_label
 _atom_site_symmetry_multiplicity
 _atom_site_fract_x
 _atom_site_fract_y
 _atom_site_fract_z
 _atom_site_occupancy
  Ho  Ho0  1  0.00000000  0.00000000  0.00000000  1
  Ho  Ho1  1  0.00000000  0.00000000  0.50000000  1
  Mn  Mn0  1  0.50000000  0.00000000  0.00000000  1
  Mn  Mn1  1  0.00000000  0.50000000  0.00000000  1
  Mn  Mn2  1  0.50000000  0.50000000  0.50000000  1
  Sb  Sb0  1  0.50000000  0.50000000  0.00000000  1
  Sb  Sb1  1  0.00000000  0.50000000  0.50000000  1
  Sb  Sb2  1  0.50000000  0.00000000  0.50000000  1
  O  O0  1  0.87080900  0.87080900  0.88083300  1
  O  O1  1  0.12919100  0.12919100  0.11916700  1
  O  O2  1  0.57534700  0.57534700  0.17796400  1
  O  O3  1  0.16812000  0.16812000  0.59194500  1
  O  O4  1  0.15720800  0.59260200  0.57727400  1
  O  O5  1  0.58664400  0.17042100  0.16784200  1
  O  O6  1  0.17042100  0.58664400  0.16784200  1
  O  O7  1  0.59260200  0.15720800  0.57727400  1
  O  O8  1  0.42465300  0.42465300  0.82203600  1
  O  O9  1  0.83188000  0.83188000  0.40805500  1
  O  O10  1  0.84279200  0.40739800  0.42272600  1
  O  O11  1  0.41335600  0.82957900  0.83215800  1
  O  O12  1  0.82957900  0.41335600  0.83215800  1
  O  O13  1  0.40739800  0.84279200  0.42272600  1
loop_
_geom_bond_atom_site_label_1
_geom_bond_atom_site_label_2
_geom_bond_distance
_geom_bond_site_symmetry_2
Ho0 O1 2.225535 1_555
Ho0 O0 2.225535 1_444
Ho0 O9 2.466994 1_445
Ho0 O3 2.466994 1_554
Ho0 O11 2.505734 1_544
Ho0 O12 2.505734 1_454
Ho0 O5 2.505734 1_455
Ho0 O6 2.505734 1_545
Ho1 O1 2.268102 1_555
Ho1 O0 2.268102 1_445
Ho1 O13 2.462842 1_545
Ho1 O10 2.462842 1_455
Ho1 O7 2.462842 1_455
Ho1 O4 2.462842 1_545
Ho1 O3 2.544853 1_555
Ho1 O9 2.544853 1_445
Mn0 O0 2.217499 1_544
Mn0 O1 2.217499 1_555
Mn0 O5 2.527793 1_555
Mn0 O11 2.527793 1_544
Mn0 O13 2.534053 1_545
Mn0 O7 2.534053 1_554
Mn0 O8 2.571052 1_554
Mn0 O2 2.571052 1_545
Mn1 O0 2.217499 1_454
Mn1 O1 2.217499 1_555
Mn1 O6 2.527793 1_555
Mn1 O12 2.527793 1_454
Mn1 O10 2.534053 1_455
Mn1 O4 2.534053 1_554
Mn1 O8 2.571052 1_554
Mn1 O2 2.571052 1_455
Mn2 O8 1.954860 1_555
Mn2 O2 1.954860 1_555
Mn2 O10 2.079890 1_555
Mn2 O13 2.079890 1_555
Mn2 O7 2.079890 1_555
Mn2 O4 2.079890 1_555
O2 Sb0 1.983309 1_555
O3 Sb1 2.021208 1_555
O3 Sb2 2.021208 1_555
O4 Sb1 1.953142 1_555
O5 Sb0 2.005701 1_555
O5 Sb2 2.016273 1_555
O6 Sb0 2.005701 1_555
O6 Sb1 2.016273 1_555
O7 Sb2 1.953142 1_555
O8 Sb0 1.983309 1_556
O9 Sb1 2.021208 1_655
O9 Sb2 2.021208 1_565
O10 Sb1 1.953142 1_655
O11 Sb0 2.005701 1_556
O11 Sb2 2.016273 1_565
O12 Sb0 2.005701 1_556
O12 Sb1 2.016273 1_655
O13 Sb2 1.953142 1_565
