# generated using pymatgen
data_Ca5(IO6)2
_symmetry_space_group_name_H-M   'P 1'
_cell_length_a   19.14996407
_cell_length_b   19.14996407
_cell_length_c   19.14996409
_cell_angle_alpha   29.57549311
_cell_angle_beta   29.57549311
_cell_angle_gamma   29.57549076
_symmetry_Int_Tables_number   1
_chemical_formula_structural   Ca5(IO6)2
_chemical_formula_sum   'Ca30 I12 O72'
_cell_volume   1514.45571036
_cell_formula_units_Z   6
loop_
 _symmetry_equiv_pos_site_id
 _symmetry_equiv_pos_as_xyz
  1  'x, y, z'
loop_
 _atom_site_type_symbol
 _atom_site_label
 _atom_site_symmetry_multiplicity
 _atom_site_fract_x
 _atom_site_fract_y
 _atom_site_fract_z
 _atom_site_occupancy
  Ca  Ca0  1  0.30581500  0.97471900  0.66090600  1
  Ca  Ca1  1  0.66090600  0.30581500  0.97471900  1
  Ca  Ca2  1  0.97471900  0.66090600  0.30581500  1
  Ca  Ca3  1  0.16090600  0.47471900  0.80581500  1
  Ca  Ca4  1  0.80581500  0.16090600  0.47471900  1
  Ca  Ca5  1  0.47471900  0.80581500  0.16090600  1
  Ca  Ca6  1  0.69418500  0.02528100  0.33909400  1
  Ca  Ca7  1  0.33909400  0.69418500  0.02528100  1
  Ca  Ca8  1  0.02528100  0.33909400  0.69418500  1
  Ca  Ca9  1  0.83909400  0.52528100  0.19418500  1
  Ca  Ca10  1  0.19418500  0.83909400  0.52528100  1
  Ca  Ca11  1  0.52528100  0.19418500  0.83909400  1
  Ca  Ca12  1  0.09817000  0.77104300  0.48239000  1
  Ca  Ca13  1  0.48239000  0.09817000  0.77104300  1
  Ca  Ca14  1  0.77104300  0.48239000  0.09817000  1
  Ca  Ca15  1  0.98239000  0.27104300  0.59817000  1
  Ca  Ca16  1  0.59817000  0.98239000  0.27104300  1
  Ca  Ca17  1  0.27104300  0.59817000  0.98239000  1
  Ca  Ca18  1  0.90183000  0.22895700  0.51761000  1
  Ca  Ca19  1  0.51761000  0.90183000  0.22895700  1
  Ca  Ca20  1  0.22895700  0.51761000  0.90183000  1
  Ca  Ca21  1  0.01761000  0.72895700  0.40183000  1
  Ca  Ca22  1  0.40183000  0.01761000  0.72895700  1
  Ca  Ca23  1  0.72895700  0.40183000  0.01761000  1
  Ca  Ca24  1  0.39678100  0.39678100  0.39678100  1
  Ca  Ca25  1  0.89678100  0.89678100  0.89678100  1
  Ca  Ca26  1  0.60321900  0.60321900  0.60321900  1
  Ca  Ca27  1  0.10321900  0.10321900  0.10321900  1
  Ca  Ca28  1  0.25000000  0.25000000  0.25000000  1
  Ca  Ca29  1  0.75000000  0.75000000  0.75000000  1
  I  I0  1  0.92314200  0.57685800  0.25000000  1
  I  I1  1  0.25000000  0.92314200  0.57685800  1
  I  I2  1  0.57685800  0.25000000  0.92314200  1
  I  I3  1  0.75000000  0.07685800  0.42314200  1
  I  I4  1  0.42314200  0.75000000  0.07685800  1
  I  I5  1  0.07685800  0.42314200  0.75000000  1
  I  I6  1  0.33915900  0.33915900  0.33915900  1
  I  I7  1  0.83915900  0.83915900  0.83915900  1
  I  I8  1  0.66084100  0.66084100  0.66084100  1
  I  I9  1  0.16084100  0.16084100  0.16084100  1
  I  I10  1  0.50000000  0.50000000  0.50000000  1
  I  I11  1  0.00000000  0.00000000  0.00000000  1
  O  O0  1  0.27212600  0.08690400  0.46678700  1
  O  O1  1  0.46678700  0.27212600  0.08690400  1
  O  O2  1  0.08690400  0.46678700  0.27212600  1
  O  O3  1  0.96678700  0.58690400  0.77212600  1
  O  O4  1  0.77212600  0.96678700  0.58690400  1
  O  O5  1  0.58690400  0.77212600  0.96678700  1
  O  O6  1  0.72787400  0.91309600  0.53321300  1
  O  O7  1  0.53321300  0.72787400  0.91309600  1
  O  O8  1  0.91309600  0.53321300  0.72787400  1
  O  O9  1  0.03321300  0.41309600  0.22787400  1
  O  O10  1  0.22787400  0.03321300  0.41309600  1
  O  O11  1  0.41309600  0.22787400  0.03321300  1
  O  O12  1  0.51081900  0.30546600  0.62684600  1
  O  O13  1  0.62684600  0.51081900  0.30546600  1
  O  O14  1  0.30546600  0.62684600  0.51081900  1
  O  O15  1  0.12684600  0.80546600  0.01081900  1
  O  O16  1  0.01081900  0.12684600  0.80546600  1
  O  O17  1  0.80546600  0.01081900  0.12684600  1
  O  O18  1  0.48918100  0.69453400  0.37315400  1
  O  O19  1  0.37315400  0.48918100  0.69453400  1
  O  O20  1  0.69453400  0.37315400  0.48918100  1
  O  O21  1  0.87315400  0.19453400  0.98918100  1
  O  O22  1  0.98918100  0.87315400  0.19453400  1
  O  O23  1  0.19453400  0.98918100  0.87315400  1
  O  O24  1  0.18950200  0.26813800  0.50636400  1
  O  O25  1  0.50636400  0.18950200  0.26813800  1
  O  O26  1  0.26813800  0.50636400  0.18950200  1
  O  O27  1  0.00636400  0.76813800  0.68950200  1
  O  O28  1  0.68950200  0.00636400  0.76813800  1
  O  O29  1  0.76813800  0.68950200  0.00636400  1
  O  O30  1  0.81049800  0.73186200  0.49363600  1
  O  O31  1  0.49363600  0.81049800  0.73186200  1
  O  O32  1  0.73186200  0.49363600  0.81049800  1
  O  O33  1  0.99363600  0.23186200  0.31049800  1
  O  O34  1  0.31049800  0.99363600  0.23186200  1
  O  O35  1  0.23186200  0.31049800  0.99363600  1
  O  O36  1  0.18016400  0.48054600  0.41893800  1
  O  O37  1  0.41893800  0.18016400  0.48054600  1
  O  O38  1  0.48054600  0.41893800  0.18016400  1
  O  O39  1  0.91893800  0.98054600  0.68016400  1
  O  O40  1  0.68016400  0.91893800  0.98054600  1
  O  O41  1  0.98054600  0.68016400  0.91893800  1
  O  O42  1  0.81983600  0.51945400  0.58106200  1
  O  O43  1  0.58106200  0.81983600  0.51945400  1
  O  O44  1  0.51945400  0.58106200  0.81983600  1
  O  O45  1  0.08106200  0.01945400  0.31983600  1
  O  O46  1  0.31983600  0.08106200  0.01945400  1
  O  O47  1  0.01945400  0.31983600  0.08106200  1
  O  O48  1  0.18944200  0.27296300  0.71313500  1
  O  O49  1  0.71313500  0.18944200  0.27296300  1
  O  O50  1  0.27296300  0.71313500  0.18944200  1
  O  O51  1  0.21313500  0.77296300  0.68944200  1
  O  O52  1  0.68944200  0.21313500  0.77296300  1
  O  O53  1  0.77296300  0.68944200  0.21313500  1
  O  O54  1  0.81055800  0.72703700  0.28686500  1
  O  O55  1  0.28686500  0.81055800  0.72703700  1
  O  O56  1  0.72703700  0.28686500  0.81055800  1
  O  O57  1  0.78686500  0.22703700  0.31055800  1
  O  O58  1  0.31055800  0.78686500  0.22703700  1
  O  O59  1  0.22703700  0.31055800  0.78686500  1
  O  O60  1  0.17069200  0.55454100  0.52528900  1
  O  O61  1  0.52528900  0.17069200  0.55454100  1
  O  O62  1  0.55454100  0.52528900  0.17069200  1
  O  O63  1  0.02528900  0.05454100  0.67069200  1
  O  O64  1  0.67069200  0.02528900  0.05454100  1
  O  O65  1  0.05454100  0.67069200  0.02528900  1
  O  O66  1  0.82930800  0.44545900  0.47471100  1
  O  O67  1  0.47471100  0.82930800  0.44545900  1
  O  O68  1  0.44545900  0.47471100  0.82930800  1
  O  O69  1  0.97471100  0.94545900  0.32930800  1
  O  O70  1  0.32930800  0.97471100  0.94545900  1
  O  O71  1  0.94545900  0.32930800  0.97471100  1
loop_
_geom_bond_atom_site_label_1
_geom_bond_atom_site_label_2
_geom_bond_distance
_geom_bond_site_symmetry_2
Ca0 O43 2.421584 1_555
Ca0 O55 2.424510 1_555
Ca0 O24 2.462462 1_565
Ca0 O31 2.462992 1_555
Ca0 O16 2.502657 1_565
Ca0 O0 2.592276 1_565
Ca0 O23 2.646454 1_555
Ca0 O15 2.958116 1_556
Ca1 O44 2.421584 1_555
Ca1 O56 2.424510 1_555
Ca1 O25 2.462462 1_556
Ca1 O32 2.462992 1_555
Ca1 O17 2.502657 1_556
Ca1 O1 2.592276 1_556
Ca1 O21 2.646454 1_555
Ca1 O16 2.958116 1_655
Ca2 O42 2.421584 1_555
Ca2 O54 2.424510 1_555
Ca2 O26 2.462462 1_655
Ca2 O30 2.462992 1_555
Ca2 O15 2.502658 1_655
Ca2 O2 2.592276 1_655
Ca2 O22 2.646454 1_555
Ca2 O17 2.958116 1_565
Ca3 O47 2.421584 1_556
Ca3 O59 2.424510 1_555
Ca3 O27 2.462462 1_555
Ca3 O35 2.462992 1_555
Ca3 O14 2.502658 1_555
Ca3 O3 2.592276 1_455
Ca3 O19 2.646454 1_555
Ca3 O12 2.958116 1_555
Ca4 O45 2.421584 1_655
Ca4 O57 2.424510 1_555
Ca4 O28 2.462462 1_555
Ca4 O33 2.462992 1_555
Ca4 O12 2.502657 1_555
Ca4 O4 2.592276 1_545
Ca4 O20 2.646454 1_555
Ca4 O13 2.958116 1_555
Ca5 O46 2.421584 1_565
Ca5 O58 2.424510 1_555
Ca5 O29 2.462462 1_555
Ca5 O34 2.462992 1_555
Ca5 O13 2.502657 1_555
Ca5 O5 2.592276 1_554
Ca5 O18 2.646454 1_555
Ca5 O14 2.958116 1_555
Ca6 O37 2.421584 1_555
Ca6 O49 2.424510 1_555
Ca6 O30 2.462462 1_545
Ca6 O25 2.462992 1_555
Ca6 O22 2.502657 1_545
Ca6 O6 2.592276 1_545
Ca6 O17 2.646454 1_555
Ca6 O21 2.958116 1_554
Ca7 O38 2.421584 1_555
Ca7 O50 2.424510 1_555
Ca7 O31 2.462462 1_554
Ca7 O26 2.462992 1_555
Ca7 O23 2.502657 1_554
Ca7 O7 2.592276 1_554
Ca7 O15 2.646454 1_555
Ca7 O22 2.958116 1_455
Ca8 O36 2.421584 1_555
Ca8 O48 2.424510 1_555
Ca8 O32 2.462462 1_455
Ca8 O24 2.462992 1_555
Ca8 O21 2.502658 1_455
Ca8 O8 2.592276 1_455
Ca8 O16 2.646454 1_555
Ca8 O23 2.958116 1_545
Ca9 O41 2.421584 1_554
Ca9 O53 2.424510 1_555
Ca9 O33 2.462462 1_555
Ca9 O29 2.462992 1_555
Ca9 O20 2.502658 1_555
Ca9 O9 2.592276 1_655
Ca9 O13 2.646454 1_555
Ca9 O18 2.958116 1_555
Ca10 O39 2.421584 1_455
Ca10 O51 2.424510 1_555
Ca10 O34 2.462462 1_555
Ca10 O27 2.462992 1_555
Ca10 O18 2.502657 1_555
Ca10 O10 2.592276 1_565
Ca10 O14 2.646454 1_555
Ca10 O19 2.958116 1_555
Ca11 O40 2.421584 1_545
Ca11 O52 2.424510 1_555
Ca11 O35 2.462462 1_555
Ca11 O28 2.462992 1_555
Ca11 O19 2.502657 1_555
Ca11 O11 2.592276 1_556
Ca11 O12 2.646454 1_555
Ca11 O20 2.958116 1_555
Ca12 O58 2.349021 1_555
Ca12 O45 2.394264 1_565
Ca12 O14 2.399428 1_555
Ca12 O60 2.416119 1_555
Ca12 O27 2.546018 1_555
Ca12 O69 2.574481 1_455
Ca12 O3 2.582266 1_455
Ca12 O4 2.764810 1_455
Ca13 O59 2.349021 1_555
Ca13 O46 2.394264 1_556
Ca13 O12 2.399428 1_555
Ca13 O61 2.416119 1_555
Ca13 O28 2.546018 1_555
Ca13 O70 2.574481 1_545
Ca13 O4 2.582266 1_545
Ca13 O5 2.764810 1_545
Ca14 O57 2.349021 1_555
Ca14 O47 2.394264 1_655
Ca14 O13 2.399428 1_555
Ca14 O62 2.416119 1_555
Ca14 O29 2.546018 1_555
Ca14 O71 2.574481 1_554
Ca14 O5 2.582266 1_554
Ca14 O3 2.764811 1_554
Ca15 O56 2.349021 1_555
Ca15 O42 2.394264 1_555
Ca15 O16 2.399428 1_655
Ca15 O63 2.416119 1_655
Ca15 O24 2.546018 1_655
Ca15 O66 2.574481 1_555
Ca15 O0 2.582266 1_655
Ca15 O2 2.764811 1_655
Ca16 O54 2.349021 1_555
Ca16 O43 2.394264 1_555
Ca16 O17 2.399428 1_565
Ca16 O64 2.416119 1_565
Ca16 O25 2.546018 1_565
Ca16 O67 2.574481 1_555
Ca16 O1 2.582266 1_565
Ca16 O0 2.764810 1_565
Ca17 O55 2.349021 1_555
Ca17 O44 2.394264 1_555
Ca17 O15 2.399428 1_556
Ca17 O65 2.416119 1_556
Ca17 O26 2.546018 1_556
Ca17 O68 2.574481 1_555
Ca17 O2 2.582266 1_556
Ca17 O1 2.764810 1_556
Ca18 O52 2.349021 1_555
Ca18 O39 2.394264 1_545
Ca18 O20 2.399428 1_555
Ca18 O66 2.416119 1_555
Ca18 O33 2.546018 1_555
Ca18 O63 2.574481 1_655
Ca18 O9 2.582266 1_655
Ca18 O10 2.764810 1_655
Ca19 O53 2.349021 1_555
Ca19 O40 2.394264 1_554
Ca19 O18 2.399428 1_555
Ca19 O67 2.416119 1_555
Ca19 O34 2.546018 1_555
Ca19 O64 2.574481 1_565
Ca19 O10 2.582266 1_565
Ca19 O11 2.764810 1_565
Ca20 O51 2.349021 1_555
Ca20 O41 2.394264 1_455
Ca20 O19 2.399428 1_555
Ca20 O68 2.416119 1_555
Ca20 O35 2.546018 1_555
Ca20 O65 2.574481 1_556
Ca20 O11 2.582266 1_556
Ca20 O9 2.764811 1_556
Ca21 O50 2.349021 1_555
Ca21 O36 2.394264 1_555
Ca21 O22 2.399428 1_455
Ca21 O69 2.416119 1_455
Ca21 O30 2.546018 1_455
Ca21 O60 2.574481 1_555
Ca21 O6 2.582266 1_455
Ca21 O8 2.764811 1_455
Ca22 O48 2.349021 1_555
Ca22 O37 2.394264 1_555
Ca22 O23 2.399428 1_545
Ca22 O70 2.416119 1_545
Ca22 O31 2.546018 1_545
Ca22 O61 2.574481 1_555
Ca22 O7 2.582266 1_545
Ca22 O6 2.764810 1_545
Ca23 O49 2.349021 1_555
Ca23 O38 2.394264 1_555
Ca23 O21 2.399428 1_554
Ca23 O71 2.416119 1_554
Ca23 O32 2.546018 1_554
Ca23 O62 2.574481 1_555
Ca23 O8 2.582266 1_554
Ca23 O7 2.764810 1_554
Ca24 O60 2.361298 1_555
Ca24 O61 2.361298 1_555
Ca24 O62 2.361299 1_555
Ca24 O36 2.551246 1_555
Ca24 O37 2.551246 1_555
Ca24 O38 2.551246 1_555
Ca24 O49 2.763782 1_555
Ca24 O50 2.763782 1_555
Ca24 O48 2.763782 1_555
Ca25 O65 2.361298 1_656
Ca25 O64 2.361298 1_566
Ca25 O63 2.361299 1_665
Ca25 O41 2.551246 1_555
Ca25 O40 2.551246 1_555
Ca25 O39 2.551246 1_555
Ca25 O52 2.763782 1_565
Ca25 O51 2.763782 1_655
Ca25 O53 2.763782 1_556
Ca26 O66 2.361298 1_555
Ca26 O67 2.361298 1_555
Ca26 O68 2.361299 1_555
Ca26 O42 2.551246 1_555
Ca26 O43 2.551246 1_555
Ca26 O44 2.551246 1_555
Ca26 O55 2.763782 1_555
Ca26 O56 2.763782 1_555
Ca26 O54 2.763782 1_555
Ca27 O71 2.361298 1_454
Ca27 O70 2.361298 1_544
Ca27 O69 2.361299 1_445
Ca27 O47 2.551246 1_555
Ca27 O46 2.551246 1_555
Ca27 O45 2.551246 1_555
Ca27 O58 2.763782 1_545
Ca27 O57 2.763782 1_455
Ca27 O59 2.763782 1_554
Ca28 O2 2.318037 1_555
Ca28 O9 2.318037 1_555
Ca28 O0 2.318038 1_555
Ca28 O11 2.318038 1_555
Ca28 O1 2.318038 1_555
Ca28 O10 2.318038 1_555
Ca29 O3 2.318037 1_555
Ca29 O8 2.318037 1_555
Ca29 O5 2.318038 1_555
Ca29 O6 2.318038 1_555
Ca29 O7 2.318038 1_555
Ca29 O4 2.318038 1_555
I0 O54 1.875239 1_555
I0 O53 1.875239 1_555
I0 O65 1.912722 1_655
I0 O66 1.912722 1_555
I0 O9 1.927961 1_655
I0 O2 1.927961 1_655
I1 O55 1.875239 1_555
I1 O51 1.875239 1_555
I1 O63 1.912722 1_565
I1 O67 1.912722 1_555
I1 O10 1.927961 1_565
I1 O0 1.927961 1_565
I2 O52 1.875239 1_555
I2 O56 1.875239 1_555
I2 O68 1.912722 1_555
I2 O64 1.912722 1_556
I2 O1 1.927961 1_556
I2 O11 1.927961 1_556
I3 O49 1.875239 1_555
I3 O57 1.875239 1_555
I3 O69 1.912722 1_545
I3 O61 1.912722 1_555
I3 O4 1.927961 1_545
I3 O6 1.927961 1_545
I4 O58 1.875239 1_555
I4 O50 1.875239 1_555
I4 O62 1.912722 1_555
I4 O70 1.912722 1_554
I4 O7 1.927961 1_554
I4 O5 1.927961 1_554
I5 O59 1.875239 1_555
I5 O48 1.875239 1_555
I5 O60 1.912722 1_555
I5 O71 1.912722 1_455
I5 O3 1.927961 1_455
I5 O8 1.927961 1_455
I6 O25 1.886531 1_555
I6 O26 1.886531 1_555
I6 O24 1.886531 1_555
I6 O36 1.923524 1_555
I6 O37 1.923524 1_555
I6 O38 1.923524 1_555
I7 O28 1.886531 1_565
I7 O27 1.886531 1_655
I7 O29 1.886531 1_556
I7 O41 1.923524 1_555
I7 O40 1.923524 1_555
I7 O39 1.923524 1_555
I8 O31 1.886531 1_555
I8 O32 1.886531 1_555
I8 O30 1.886531 1_555
I8 O42 1.923524 1_555
I8 O43 1.923524 1_555
I8 O44 1.923524 1_555
I9 O34 1.886531 1_545
I9 O33 1.886531 1_455
I9 O35 1.886531 1_554
I9 O47 1.923524 1_555
I9 O46 1.923524 1_555
I9 O45 1.923524 1_555
I10 O20 1.901076 1_555
I10 O14 1.901076 1_555
I10 O18 1.901076 1_555
I10 O12 1.901076 1_555
I10 O13 1.901076 1_555
I10 O19 1.901076 1_555
I11 O15 1.901076 1_545
I11 O21 1.901076 1_454
I11 O23 1.901076 1_544
I11 O17 1.901076 1_455
I11 O16 1.901076 1_554
I11 O22 1.901076 1_445
