# generated using pymatgen
data_La6Mg23C
_symmetry_space_group_name_H-M   'P 1'
_cell_length_a   10.25709166
_cell_length_b   10.25709166
_cell_length_c   10.25709166
_cell_angle_alpha   60.00000000
_cell_angle_beta   60.00000000
_cell_angle_gamma   60.00000000
_symmetry_Int_Tables_number   1
_chemical_formula_structural   La6Mg23C
_chemical_formula_sum   'La6 Mg23 C1'
_cell_volume   763.05828483
_cell_formula_units_Z   1
loop_
 _symmetry_equiv_pos_site_id
 _symmetry_equiv_pos_as_xyz
  1  'x, y, z'
loop_
 _atom_site_type_symbol
 _atom_site_label
 _atom_site_symmetry_multiplicity
 _atom_site_fract_x
 _atom_site_fract_y
 _atom_site_fract_z
 _atom_site_occupancy
  La  La0  1  0.81563320  0.81563320  0.18436680  1
  La  La1  1  0.18436680  0.81563320  0.18436680  1
  La  La2  1  0.81563320  0.18436680  0.18436680  1
  La  La3  1  0.18436680  0.18436680  0.81563320  1
  La  La4  1  0.81563320  0.18436680  0.81563320  1
  La  La5  1  0.18436680  0.81563320  0.81563320  1
  Mg  Mg0  1  0.82686729  0.82686729  0.51939813  1
  Mg  Mg1  1  0.82686729  0.51939813  0.82686729  1
  Mg  Mg2  1  0.51939813  0.82686729  0.82686729  1
  Mg  Mg3  1  0.82686729  0.82686729  0.82686729  1
  Mg  Mg4  1  0.17313271  0.17313271  0.48060187  1
  Mg  Mg5  1  0.17313271  0.48060187  0.17313271  1
  Mg  Mg6  1  0.48060187  0.17313271  0.17313271  1
  Mg  Mg7  1  0.17313271  0.17313271  0.17313271  1
  Mg  Mg8  1  0.62020994  0.62020994  0.13937018  1
  Mg  Mg9  1  0.62020994  0.13937018  0.62020994  1
  Mg  Mg10  1  0.13937018  0.62020994  0.62020994  1
  Mg  Mg11  1  0.62020994  0.62020994  0.62020994  1
  Mg  Mg12  1  0.37979006  0.37979006  0.86062982  1
  Mg  Mg13  1  0.37979006  0.86062982  0.37979006  1
  Mg  Mg14  1  0.86062982  0.37979006  0.37979006  1
  Mg  Mg15  1  0.37979006  0.37979006  0.37979006  1
  Mg  Mg16  1  -0.00000000  -0.00000000  0.50000000  1
  Mg  Mg17  1  0.50000000  -0.00000000  0.50000000  1
  Mg  Mg18  1  -0.00000000  0.50000000  0.50000000  1
  Mg  Mg19  1  0.50000000  0.50000000  0.00000000  1
  Mg  Mg20  1  -0.00000000  0.50000000  0.00000000  1
  Mg  Mg21  1  0.50000000  -0.00000000  0.00000000  1
  Mg  Mg22  1  0.50000000  0.50000000  0.50000000  1
  C  C0  1  -0.00000000  -0.00000000  0.00000000  1
loop_
_geom_bond_atom_site_label_1
_geom_bond_atom_site_label_2
_geom_bond_distance
_geom_bond_site_symmetry_2
La0 Mg3 3.555413 1_554
La0 Mg5 3.555413 1_655
La0 Mg6 3.555413 1_565
La0 Mg0 3.555413 1_555
La0 Mg20 3.749320 1_655
La0 Mg21 3.749320 1_565
La0 Mg18 3.749320 1_655
La0 Mg17 3.749320 1_565
La0 Mg14 3.757264 1_555
La0 Mg13 3.757264 1_555
La0 Mg11 3.757264 1_555
La0 Mg8 3.757264 1_555
La1 Mg0 3.555413 1_455
La1 Mg5 3.555413 1_555
La1 Mg2 3.555413 1_554
La1 Mg7 3.555413 1_565
La1 Mg18 3.749320 1_555
La1 Mg19 3.749320 1_555
La1 Mg16 3.749320 1_565
La1 Mg21 3.749320 1_565
La1 Mg8 3.757264 1_555
La1 Mg10 3.757264 1_555
La1 Mg15 3.757264 1_555
La1 Mg13 3.757264 1_555
La2 Mg6 3.555413 1_555
La2 Mg1 3.555413 1_554
La2 Mg0 3.555413 1_545
La2 Mg7 3.555413 1_655
La2 Mg17 3.749320 1_555
La2 Mg19 3.749320 1_555
La2 Mg16 3.749320 1_655
La2 Mg20 3.749320 1_655
La2 Mg8 3.757264 1_555
La2 Mg9 3.757264 1_555
La2 Mg15 3.757264 1_555
La2 Mg14 3.757264 1_555
La3 Mg4 3.555413 1_555
La3 Mg1 3.555413 1_455
La3 Mg2 3.555413 1_545
La3 Mg7 3.555413 1_556
La3 Mg17 3.749320 1_555
La3 Mg18 3.749320 1_555
La3 Mg20 3.749320 1_556
La3 Mg21 3.749320 1_556
La3 Mg9 3.757264 1_555
La3 Mg10 3.757264 1_555
La3 Mg15 3.757264 1_555
La3 Mg12 3.757264 1_555
La4 Mg3 3.555413 1_545
La4 Mg4 3.555413 1_655
La4 Mg6 3.555413 1_556
La4 Mg1 3.555413 1_555
La4 Mg16 3.749320 1_655
La4 Mg21 3.749320 1_556
La4 Mg18 3.749320 1_655
La4 Mg19 3.749320 1_556
La4 Mg12 3.757264 1_555
La4 Mg9 3.757264 1_555
La4 Mg11 3.757264 1_555
La4 Mg14 3.757264 1_555
La5 Mg3 3.555413 1_455
La5 Mg4 3.555413 1_565
La5 Mg5 3.555413 1_556
La5 Mg2 3.555413 1_555
La5 Mg20 3.749320 1_556
La5 Mg16 3.749320 1_565
La5 Mg17 3.749320 1_565
La5 Mg19 3.749320 1_556
La5 Mg12 3.757264 1_555
La5 Mg13 3.757264 1_555
La5 Mg10 3.757264 1_555
La5 Mg11 3.757264 1_555
Mg0 Mg16 2.965421 1_665
Mg0 Mg17 2.965421 1_565
Mg0 Mg18 2.965421 1_655
Mg0 Mg3 3.153739 1_555
Mg0 Mg1 3.153739 1_555
Mg0 Mg2 3.153739 1_555
Mg0 Mg10 3.188253 1_655
Mg0 Mg9 3.188253 1_565
Mg0 Mg11 3.188253 1_555
Mg1 Mg20 2.965421 1_656
Mg1 Mg19 2.965421 1_556
Mg1 Mg18 2.965421 1_655
Mg1 Mg3 3.153739 1_555
Mg1 Mg2 3.153739 1_555
Mg1 Mg8 3.188253 1_556
Mg1 Mg10 3.188253 1_655
Mg1 Mg11 3.188253 1_555
Mg2 Mg21 2.965421 1_566
Mg2 Mg3 3.153739 1_555
Mg2 Mg8 3.188253 1_556
Mg2 Mg9 3.188253 1_565
Mg3 Mg9 3.188253 1_565
Mg3 Mg8 3.188253 1_556
Mg4 Mg6 3.153739 1_555
Mg4 Mg7 3.153739 1_555
Mg4 Mg5 3.153739 1_555
Mg5 Mg6 3.153739 1_555
Mg5 Mg7 3.153739 1_555
Mg6 Mg7 3.153739 1_555
Mg10 Mg22 3.020232 1_555
Mg10 Mg18 3.182719 1_555
Mg10 Mg20 3.182719 1_556
Mg10 Mg16 3.182719 1_565
Mg10 Mg3 3.188253 1_455
Mg10 Mg15 3.487463 1_555
Mg10 Mg13 3.487463 1_555
Mg10 Mg12 3.487463 1_555
Mg11 Mg22 3.020232 1_555
Mg11 Mg19 3.182719 1_556
Mg11 Mg18 3.182719 1_655
Mg11 Mg17 3.182719 1_565
Mg11 Mg2 3.188253 1_555
Mg11 Mg12 3.487463 1_555
Mg11 Mg13 3.487463 1_555
Mg11 Mg14 3.487463 1_555
Mg12 Mg22 3.020232 1_555
Mg12 Mg21 3.182719 1_556
Mg12 Mg20 3.182719 1_556
Mg12 Mg19 3.182719 1_556
Mg12 Mg7 3.188253 1_556
Mg12 Mg5 3.188253 1_556
Mg12 Mg6 3.188253 1_556
Mg12 Mg9 3.487463 1_555
Mg13 Mg22 3.020232 1_555
Mg13 Mg21 3.182719 1_565
Mg13 Mg16 3.182719 1_565
Mg13 Mg17 3.182719 1_565
Mg13 Mg7 3.188253 1_565
Mg13 Mg4 3.188253 1_565
Mg13 Mg6 3.188253 1_565
Mg13 Mg8 3.487463 1_555
Mg14 Mg22 3.020232 1_555
Mg14 Mg20 3.182719 1_655
Mg14 Mg16 3.182719 1_655
Mg14 Mg18 3.182719 1_655
Mg14 Mg7 3.188253 1_655
Mg14 Mg5 3.188253 1_655
Mg14 Mg4 3.188253 1_655
Mg14 Mg8 3.487463 1_555
Mg14 Mg9 3.487463 1_555
Mg15 Mg22 3.020232 1_555
Mg15 Mg17 3.182719 1_555
Mg15 Mg18 3.182719 1_555
Mg15 Mg19 3.182719 1_555
Mg15 Mg4 3.188253 1_555
Mg15 Mg5 3.188253 1_555
Mg15 Mg6 3.188253 1_555
Mg15 Mg8 3.487463 1_555
Mg15 Mg9 3.487463 1_555
Mg16 Mg3 2.965421 1_445
Mg16 Mg4 2.965421 1_555
Mg16 Mg7 2.965421 1_555
Mg16 Mg9 3.182719 1_455
Mg17 Mg4 2.965421 1_555
Mg17 Mg2 2.965421 1_545
Mg17 Mg6 2.965421 1_555
Mg17 Mg9 3.182719 1_555
Mg18 Mg4 2.965421 1_555
Mg18 Mg5 2.965421 1_555
Mg19 Mg2 2.965421 1_554
Mg19 Mg6 2.965421 1_555
Mg19 Mg5 2.965421 1_555
Mg19 Mg8 3.182719 1_555
Mg20 Mg3 2.965421 1_454
Mg20 Mg5 2.965421 1_555
Mg20 Mg7 2.965421 1_555
Mg20 Mg8 3.182719 1_455
Mg21 Mg6 2.965421 1_555
Mg21 Mg3 2.965421 1_544
Mg21 Mg7 2.965421 1_555
Mg21 Mg9 3.182719 1_554
Mg21 Mg8 3.182719 1_545
Mg22 Mg9 3.020232 1_555
Mg22 Mg8 3.020232 1_555
C0 La1 2.674373 1_545
C0 La2 2.674373 1_455
C0 La3 2.674373 1_554
C0 La0 2.674373 1_445
C0 La5 2.674373 1_544
C0 La4 2.674373 1_454
