# generated using pymatgen
data_Ca(AgO2)2
_symmetry_space_group_name_H-M   'P 1'
_cell_length_a   6.59554921
_cell_length_b   6.59554921
_cell_length_c   22.00830289
_cell_angle_alpha   81.11542370
_cell_angle_beta   81.11542370
_cell_angle_gamma   60.00414071
_symmetry_Int_Tables_number   1
_chemical_formula_structural   Ca(AgO2)2
_chemical_formula_sum   'Ca8 Ag16 O32'
_cell_volume   815.86547500
_cell_formula_units_Z   8
loop_
 _symmetry_equiv_pos_site_id
 _symmetry_equiv_pos_as_xyz
  1  'x, y, z'
loop_
 _atom_site_type_symbol
 _atom_site_label
 _atom_site_symmetry_multiplicity
 _atom_site_fract_x
 _atom_site_fract_y
 _atom_site_fract_z
 _atom_site_occupancy
  Ca  Ca0  1  0.63871100  0.63871100  0.02577000  1
  Ca  Ca1  1  0.12730100  0.12730100  0.12544500  1
  Ca  Ca2  1  0.88879500  0.88879500  0.28126300  1
  Ca  Ca3  1  0.37241200  0.37241200  0.37449700  1
  Ca  Ca4  1  0.62463600  0.62463600  0.62512800  1
  Ca  Ca5  1  0.50130700  0.50130700  0.49841900  1
  Ca  Ca6  1  0.87935600  0.87935600  0.87610600  1
  Ca  Ca7  1  0.74923900  0.74923900  0.75114900  1
  Ag  Ag0  1  0.62672000  0.12497700  0.12537800  1
  Ag  Ag1  1  0.25064800  0.25064800  0.24957000  1
  Ag  Ag2  1  0.12497700  0.62672000  0.12537800  1
  Ag  Ag3  1  0.14813500  0.14813500  0.53515200  1
  Ag  Ag4  1  0.87671600  0.36847200  0.37482800  1
  Ag  Ag5  1  0.59892000  0.59892000  0.22055200  1
  Ag  Ag6  1  0.39925400  0.39925400  0.78034600  1
  Ag  Ag7  1  0.36847200  0.87671600  0.37482800  1
  Ag  Ag8  1  0.12509600  0.62500600  0.62486600  1
  Ag  Ag9  1  0.84878500  0.84878500  0.47011600  1
  Ag  Ag10  1  0.62500600  0.12509600  0.62486600  1
  Ag  Ag11  1  0.87873000  0.37512500  0.87437800  1
  Ag  Ag12  1  0.37512500  0.87873000  0.87437800  1
  Ag  Ag13  1  0.10242100  0.10242100  0.71453900  1
  Ag  Ag14  1  0.99895800  0.99895800  0.00116300  1
  Ag  Ag15  1  0.34831000  0.34831000  0.96692800  1
  O  O0  1  0.26012000  0.81901900  0.06440900  1
  O  O1  1  0.92763600  0.92763600  0.17524700  1
  O  O2  1  0.81901900  0.26012000  0.06440900  1
  O  O3  1  0.81994100  0.81994100  0.05855200  1
  O  O4  1  0.43855800  0.43855800  0.18664000  1
  O  O5  1  0.50527300  0.06591100  0.31310000  1
  O  O6  1  0.44005500  0.98845200  0.18800700  1
  O  O7  1  0.17587900  0.17587900  0.43063100  1
  O  O8  1  0.06591100  0.50527300  0.31310000  1
  O  O9  1  0.32894100  0.32894100  0.07525400  1
  O  O10  1  0.06695600  0.06695600  0.31917300  1
  O  O11  1  0.98845200  0.44005500  0.18800700  1
  O  O12  1  0.77558100  0.30437300  0.56908600  1
  O  O13  1  0.68800200  0.68800200  0.42548100  1
  O  O14  1  0.69759500  0.21715400  0.42860500  1
  O  O15  1  0.42657500  0.42657500  0.67923500  1
  O  O16  1  0.30437300  0.77558100  0.56908600  1
  O  O17  1  0.57409100  0.57409100  0.32235300  1
  O  O18  1  0.31925200  0.31925200  0.57083800  1
  O  O19  1  0.21715400  0.69759500  0.42860500  1
  O  O20  1  0.93119700  0.93119700  0.67878800  1
  O  O21  1  0.03453100  0.55388800  0.82072200  1
  O  O22  1  0.94592400  0.47419000  0.68056200  1
  O  O23  1  0.67974800  0.67974800  0.92241500  1
  O  O24  1  0.55388800  0.03453100  0.82072200  1
  O  O25  1  0.82242200  0.82242200  0.57087900  1
  O  O26  1  0.55996200  0.55996200  0.81798100  1
  O  O27  1  0.47419000  0.94592400  0.68056200  1
  O  O28  1  0.17440800  0.17440800  0.94161800  1
  O  O29  1  0.19127900  0.73809800  0.93899700  1
  O  O30  1  0.07690200  0.07690200  0.82289700  1
  O  O31  1  0.73809800  0.19127900  0.93899700  1
loop_
_geom_bond_atom_site_label_1
_geom_bond_atom_site_label_2
_geom_bond_distance
_geom_bond_site_symmetry_2
Ca0 O23 2.239092 1_554
Ca0 O2 2.249406 1_555
Ca0 O0 2.249406 1_555
Ca0 O3 2.310719 1_555
Ca1 O2 2.324938 1_455
Ca1 O0 2.324938 1_545
Ca1 O1 2.347787 1_445
Ca1 O11 2.364010 1_455
Ca1 O6 2.364010 1_545
Ca1 O9 2.370342 1_555
Ca2 O5 2.237170 1_565
Ca2 O8 2.237170 1_655
Ca2 O1 2.295993 1_555
Ca2 O10 2.333233 1_665
Ca3 O19 2.298462 1_555
Ca3 O14 2.298462 1_555
Ca3 O8 2.321024 1_555
Ca3 O5 2.321024 1_555
Ca3 O7 2.361666 1_555
Ca3 O17 2.383670 1_555
Ca4 O27 2.299061 1_555
Ca4 O22 2.299061 1_555
Ca4 O12 2.301528 1_555
Ca4 O16 2.301528 1_555
Ca4 O25 2.359722 1_555
Ca4 O15 2.361403 1_555
Ca5 O12 2.296532 1_555
Ca5 O16 2.296532 1_555
Ca5 O19 2.323424 1_555
Ca5 O14 2.323424 1_555
Ca5 O18 2.383948 1_555
Ca5 O13 2.429858 1_555
Ca6 O24 2.316771 1_565
Ca6 O21 2.316771 1_655
Ca6 O23 2.325791 1_555
Ca6 O30 2.349759 1_665
Ca6 O29 2.362429 1_655
Ca6 O31 2.362429 1_565
Ca7 O27 2.298291 1_555
Ca7 O22 2.298291 1_555
Ca7 O24 2.324158 1_565
Ca7 O21 2.324158 1_655
Ca7 O20 2.382459 1_555
Ca7 O26 2.388361 1_555
Ag0 O6 2.104128 1_545
Ag0 O2 2.106858 1_555
Ag0 O9 2.110229 1_555
Ag0 O1 2.118113 1_545
Ag0 O4 2.326733 1_555
Ag0 O3 2.367743 1_545
Ag1 O8 2.100709 1_555
Ag1 O5 2.100709 1_555
Ag1 O11 2.104226 1_455
Ag1 O6 2.104226 1_545
Ag1 O4 2.337879 1_555
Ag1 O10 2.367147 1_555
Ag2 O11 2.104128 1_455
Ag2 O0 2.106858 1_555
Ag2 O9 2.110229 1_555
Ag2 O1 2.118113 1_455
Ag2 O4 2.326733 1_555
Ag2 O3 2.367743 1_455
Ag3 O12 2.190106 1_455
Ag3 O16 2.190106 1_545
Ag3 O18 2.232836 1_555
Ag3 O7 2.265375 1_555
Ag4 O14 2.043206 1_555
Ag4 O8 2.107206 1_655
Ag4 O17 2.163002 1_555
Ag4 O7 2.185340 1_655
Ag4 O10 2.193673 1_655
Ag4 O13 2.215339 1_555
Ag5 O4 2.097759 1_555
Ag5 O17 2.207596 1_555
Ag5 O6 2.276695 1_555
Ag5 O11 2.276695 1_555
Ag6 O26 2.144485 1_555
Ag6 O24 2.187016 1_555
Ag6 O21 2.187016 1_555
Ag6 O15 2.191247 1_555
Ag7 O19 2.043206 1_555
Ag7 O5 2.107206 1_565
Ag7 O17 2.163002 1_555
Ag7 O7 2.185340 1_565
Ag7 O10 2.193673 1_565
Ag7 O13 2.215339 1_555
Ag8 O22 2.059068 1_455
Ag8 O16 2.059292 1_555
Ag8 O15 2.178902 1_555
Ag8 O25 2.179019 1_455
Ag8 O18 2.192879 1_555
Ag8 O20 2.193479 1_455
Ag9 O25 2.184110 1_555
Ag9 O19 2.214787 1_655
Ag9 O14 2.214787 1_565
Ag9 O13 2.232058 1_555
Ag10 O27 2.059068 1_545
Ag10 O12 2.059292 1_555
Ag10 O15 2.178902 1_555
Ag10 O25 2.179019 1_545
Ag10 O18 2.192879 1_555
Ag10 O20 2.193479 1_545
Ag11 O21 2.060846 1_655
Ag11 O23 2.113728 1_555
Ag11 O30 2.126343 1_655
Ag11 O31 2.130170 1_555
Ag11 O26 2.285384 1_555
Ag11 O28 2.334633 1_655
Ag12 O24 2.060846 1_565
Ag12 O23 2.113728 1_555
Ag12 O30 2.126343 1_565
Ag12 O29 2.130170 1_555
Ag12 O26 2.285384 1_555
Ag12 O28 2.334633 1_565
Ag13 O22 2.185956 1_455
Ag13 O27 2.185956 1_545
Ag13 O20 2.234710 1_445
Ag13 O30 2.350355 1_555
Ag14 O31 2.109493 1_564
Ag14 O29 2.109493 1_654
Ag14 O0 2.121162 1_655
Ag14 O2 2.121162 1_565
Ag14 O28 2.190346 1_664
Ag14 O3 2.203648 1_555
Ag15 O28 2.156734 1_555
Ag15 O29 2.259666 1_555
Ag15 O31 2.259666 1_555
Ag15 O9 2.354698 1_556
