# generated using pymatgen
data_Sr2CaV2(Si2O7)2
_symmetry_space_group_name_H-M   'P 1'
_cell_length_a   5.51754175
_cell_length_b   7.58406300
_cell_length_c   7.75360019
_cell_angle_alpha   90.00000000
_cell_angle_beta   110.84279707
_cell_angle_gamma   90.00000000
_symmetry_Int_Tables_number   1
_chemical_formula_structural   Sr2CaV2(Si2O7)2
_chemical_formula_sum   'Sr2 Ca1 V2 Si4 O14'
_cell_volume   303.22027012
_cell_formula_units_Z   1
loop_
 _symmetry_equiv_pos_site_id
 _symmetry_equiv_pos_as_xyz
  1  'x, y, z'
loop_
 _atom_site_type_symbol
 _atom_site_label
 _atom_site_symmetry_multiplicity
 _atom_site_fract_x
 _atom_site_fract_y
 _atom_site_fract_z
 _atom_site_occupancy
  Sr  Sr0  1  0.17034000  0.75000000  0.34067900  1
  Sr  Sr1  1  0.80730500  0.25000000  0.61461000  1
  Ca  Ca0  1  0.45645100  0.75000000  0.91290300  1
  V  V0  1  0.87595800  0.75000000  0.75191600  1
  V  V1  1  0.10238200  0.25000000  0.20476500  1
  Si  Si0  1  0.38269400  0.45041300  0.76538600  1
  Si  Si1  1  0.60915200  0.51099200  0.21830600  1
  Si  Si2  1  0.60915200  0.98900800  0.21830600  1
  Si  Si3  1  0.38269400  0.04958700  0.76538600  1
  O  O0  1  0.61514900  0.75000000  0.23029800  1
  O  O1  1  0.34103700  0.25000000  0.68207500  1
  O  O2  1  0.49732400  0.46307400  0.99464800  1
  O  O3  1  0.49732400  0.03692600  0.99464800  1
  O  O4  1  0.58690200  0.55884300  0.69840900  1
  O  O5  1  0.90332200  0.44506100  0.30775300  1
  O  O6  1  0.40443100  0.05493900  0.30775300  1
  O  O7  1  0.11150800  0.94115700  0.69840900  1
  O  O8  1  0.97789300  0.25000000  0.95578700  1
  O  O9  1  0.00031900  0.75000000  0.00063600  1
  O  O10  1  0.90332200  0.05493900  0.30775300  1
  O  O11  1  0.58690200  0.94115700  0.69840900  1
  O  O12  1  0.11150800  0.55884300  0.69840900  1
  O  O13  1  0.40443100  0.44506100  0.30775300  1
loop_
_geom_bond_atom_site_label_1
_geom_bond_atom_site_label_2
_geom_bond_distance
_geom_bond_site_symmetry_2
Ca0 O3 2.255244 1_565
Ca0 O2 2.255244 1_555
Ca0 O0 2.299910 1_556
Ca0 O7 2.497507 1_555
Ca0 O12 2.497507 1_555
Ca0 O11 2.497512 1_555
Ca0 O4 2.497512 1_555
Ca0 O9 2.831064 1_556
Ca0 O9 2.831081 1_656
O0 Si2 1.814733 1_555
O0 Si1 1.814733 1_555
O0 Sr0 2.872377 1_555
O0 Sr0 2.872383 1_655
O1 Si0 1.635443 1_555
O1 Si3 1.635443 1_555
O1 Sr1 2.801748 1_455
O1 Sr1 2.801753 1_555
O2 Si1 1.660917 1_556
O2 Si0 1.664052 1_555
O3 Si2 1.660917 1_546
O3 Si3 1.664052 1_555
O4 Si0 1.622289 1_555
O4 V0 2.084867 1_555
O4 Sr1 2.819503 1_555
O4 Sr0 3.246726 1_555
O5 Si1 1.601379 1_555
O5 V1 2.157906 1_655
O5 Sr0 2.704914 1_655
O5 Sr1 3.004486 1_555
O6 Si2 1.601369 1_545
O6 V1 2.157910 1_555
O6 Sr0 2.704911 1_545
O6 Sr1 3.004486 1_555
O7 Si3 1.622293 1_565
O7 V0 2.084871 1_455
O7 Sr1 2.819506 1_465
O7 Sr0 3.246726 1_555
O8 V1 1.804146 1_656
O8 Sr1 2.472239 1_555
O9 V0 1.802276 1_454
O9 Sr0 2.464022 1_555
O10 Si2 1.601379 1_545
O10 V1 2.157906 1_655
O10 Sr0 2.704914 1_645
O10 Sr1 3.004486 1_555
O11 Si3 1.622289 1_565
O11 V0 2.084867 1_555
O11 Sr1 2.819503 1_565
O11 Sr0 3.246726 1_555
O12 Si0 1.622293 1_555
O12 V0 2.084871 1_455
O12 Sr1 2.819506 1_455
O12 Sr0 3.246726 1_555
O13 Si1 1.601369 1_555
O13 V1 2.157910 1_555
O13 Sr0 2.704911 1_555
O13 Sr1 3.004486 1_555
