# generated using pymatgen
data_Ge2Bi2Te5
_symmetry_space_group_name_H-M   'P 1'
_cell_length_a   4.35944961
_cell_length_b   4.35944961
_cell_length_c   17.40880100
_cell_angle_alpha   90.00000000
_cell_angle_beta   90.00000000
_cell_angle_gamma   119.99999413
_symmetry_Int_Tables_number   1
_chemical_formula_structural   Ge2Bi2Te5
_chemical_formula_sum   'Ge2 Bi2 Te5'
_cell_volume   286.52521240
_cell_formula_units_Z   1
loop_
 _symmetry_equiv_pos_site_id
 _symmetry_equiv_pos_as_xyz
  1  'x, y, z'
loop_
 _atom_site_type_symbol
 _atom_site_label
 _atom_site_symmetry_multiplicity
 _atom_site_fract_x
 _atom_site_fract_y
 _atom_site_fract_z
 _atom_site_occupancy
  Ge  Ge0  1  0.33333300  0.66666700  0.10073300  1
  Ge  Ge1  1  0.66666700  0.33333300  0.89926700  1
  Bi  Bi0  1  0.00000000  0.00000000  0.31831000  1
  Bi  Bi1  1  0.00000000  0.00000000  0.68169000  1
  Te  Te0  1  0.33333300  0.66666700  0.41969600  1
  Te  Te1  1  0.66666700  0.33333300  0.58030400  1
  Te  Te2  1  0.33333300  0.66666700  0.80300400  1
  Te  Te3  1  0.66666700  0.33333300  0.19699600  1
  Te  Te4  1  0.00000000  0.00000000  0.00000000  1
loop_
_geom_bond_atom_site_label_1
_geom_bond_atom_site_label_2
_geom_bond_distance
_geom_bond_site_symmetry_2
Ge0 Te3 3.023790 1_455
Ge0 Te3 3.023790 1_565
Ge0 Te3 3.023796 1_555
Ge0 Te4 3.067601 1_565
Ge0 Te4 3.067604 1_555
Ge0 Te4 3.067604 1_665
Ge1 Te2 3.023790 1_545
Ge1 Te2 3.023790 1_655
Ge1 Te2 3.023796 1_555
Ge1 Te4 3.067601 1_656
Ge1 Te4 3.067604 1_556
Ge1 Te4 3.067604 1_666
Bi0 Te0 3.074114 1_545
Bi0 Te0 3.074117 1_445
Bi0 Te0 3.074117 1_555
Bi0 Te3 3.285601 1_455
Bi0 Te3 3.285604 1_445
Bi0 Te3 3.285604 1_555
Bi1 Te1 3.074114 1_455
Bi1 Te1 3.074117 1_555
Bi1 Te1 3.074117 1_445
Bi1 Te2 3.285601 1_545
Bi1 Te2 3.285604 1_445
Bi1 Te2 3.285604 1_555
