# generated using pymatgen
data_LiCu2PO4
_symmetry_space_group_name_H-M   'P 1'
_cell_length_a   6.23881500
_cell_length_b   5.18260800
_cell_length_c   5.45866280
_cell_angle_alpha   89.77578790
_cell_angle_beta   90.00000000
_cell_angle_gamma   90.00000000
_symmetry_Int_Tables_number   1
_chemical_formula_structural   LiCu2PO4
_chemical_formula_sum   'Li2 Cu4 P2 O8'
_cell_volume   176.49540795
_cell_formula_units_Z   2
loop_
 _symmetry_equiv_pos_site_id
 _symmetry_equiv_pos_as_xyz
  1  'x, y, z'
loop_
 _atom_site_type_symbol
 _atom_site_label
 _atom_site_symmetry_multiplicity
 _atom_site_fract_x
 _atom_site_fract_y
 _atom_site_fract_z
 _atom_site_occupancy
  Li  Li0  1  0.75039600  0.49028700  0.32520000  1
  Li  Li1  1  0.24960400  0.49028700  0.32520000  1
  Cu  Cu0  1  0.00000000  0.47238600  0.79891900  1
  Cu  Cu1  1  0.75614100  0.01250500  0.65471900  1
  Cu  Cu2  1  0.50000000  0.01025800  0.19961500  1
  Cu  Cu3  1  0.24385900  0.01250500  0.65471900  1
  P  P0  1  0.00000000  0.99015300  0.17783600  1
  P  P1  1  0.50000000  0.50738800  0.83337500  1
  O  O0  1  0.00000000  0.89355700  0.90841900  1
  O  O1  1  0.00000000  0.28889100  0.19524400  1
  O  O2  1  0.79648200  0.87293500  0.30798900  1
  O  O3  1  0.70149800  0.40887700  0.68773000  1
  O  O4  1  0.50000000  0.80633800  0.83356600  1
  O  O5  1  0.50000000  0.40441300  0.10175000  1
  O  O6  1  0.29850200  0.40887700  0.68773000  1
  O  O7  1  0.20351800  0.87293500  0.30798900  1
loop_
_geom_bond_atom_site_label_1
_geom_bond_atom_site_label_2
_geom_bond_distance
_geom_bond_site_symmetry_2
Li0 O2 2.005687 1_555
Li0 O1 2.005848 1_655
Li0 O5 2.032356 1_555
Li0 O3 2.044677 1_555
Li1 O7 2.005687 1_555
Li1 O1 2.005848 1_555
Li1 O5 2.032356 1_555
Li1 O6 2.044677 1_555
Cu0 O6 1.986564 1_555
Cu0 O3 1.986564 1_455
Cu0 O0 2.265379 1_555
Cu0 O1 2.359785 1_556
Cu1 O2 2.044387 1_545
Cu1 O3 2.090811 1_555
Cu1 O0 2.146117 1_645
Cu1 O4 2.154122 1_545
Cu2 O7 2.067498 1_545
Cu2 O2 2.067498 1_545
Cu2 O5 2.109425 1_555
Cu2 O4 2.264065 1_544
Cu3 O7 2.044387 1_545
Cu3 O6 2.090811 1_555
Cu3 O0 2.146117 1_545
Cu3 O4 2.154122 1_545
O0 P0 1.555382 1_556
O1 P0 1.551526 1_545
O2 P0 1.575625 1_655
O3 P1 1.573602 1_555
O4 P1 1.549345 1_555
O5 P1 1.557186 1_554
O6 P1 1.573602 1_555
O7 P0 1.575625 1_555
