# generated using pymatgen
data_NbVMo2
_symmetry_space_group_name_H-M   'P 1'
_cell_length_a   10.50379066
_cell_length_b   10.50379066
_cell_length_c   10.50379066
_cell_angle_alpha   128.70682526
_cell_angle_beta   117.30636330
_cell_angle_gamma   85.17665460
_symmetry_Int_Tables_number   1
_chemical_formula_structural   NbVMo2
_chemical_formula_sum   'Nb1 V1 Mo2'
_cell_volume   768.43205663
_cell_formula_units_Z   1
loop_
 _symmetry_equiv_pos_site_id
 _symmetry_equiv_pos_as_xyz
  1  'x, y, z'
loop_
 _atom_site_type_symbol
 _atom_site_label
 _atom_site_symmetry_multiplicity
 _atom_site_fract_x
 _atom_site_fract_y
 _atom_site_fract_z
 _atom_site_occupancy
  Nb  Nb0  1  0.00000000  0.50000000  0.50000000  1
  V  V0  1  0.00000000  0.00000000  0.00000000  1
  Mo  Mo0  1  0.00000000  0.24800200  0.24800200  1
  Mo  Mo1  1  0.00000000  0.75199800  0.75199800  1
loop_
_geom_bond_atom_site_label_1
_geom_bond_atom_site_label_2
_geom_bond_distance
_geom_bond_site_symmetry_2
Mo0 V0 2.254953 1_555
Mo0 Nb0 2.291286 1_555
Mo1 V0 2.254953 1_566
Mo1 Nb0 2.291286 1_555
