# generated using pymatgen
data_Na3U6AlF30
_symmetry_space_group_name_H-M   'P 1'
_cell_length_a   9.87600010
_cell_length_b   9.87600010
_cell_length_c   13.03928500
_cell_angle_alpha   90.00000000
_cell_angle_beta   90.00000000
_cell_angle_gamma   120.00000065
_symmetry_Int_Tables_number   1
_chemical_formula_structural   Na3U6AlF30
_chemical_formula_sum   'Na6 U12 Al2 F60'
_cell_volume   1101.40381827
_cell_formula_units_Z   2
loop_
 _symmetry_equiv_pos_site_id
 _symmetry_equiv_pos_as_xyz
  1  'x, y, z'
loop_
 _atom_site_type_symbol
 _atom_site_label
 _atom_site_symmetry_multiplicity
 _atom_site_fract_x
 _atom_site_fract_y
 _atom_site_fract_z
 _atom_site_occupancy
  Na  Na0  1  0.66666700  0.33333300  0.83824200  1
  Na  Na1  1  0.66666700  0.33333300  0.33824200  1
  Na  Na2  1  0.33333300  0.66666700  0.16175800  1
  Na  Na3  1  0.33333300  0.66666700  0.66175800  1
  Na  Na4  1  0.00000000  0.00000000  0.00000000  1
  Na  Na5  1  0.00000000  0.00000000  0.50000000  1
  U  U0  1  0.07622700  0.39858000  0.89769800  1
  U  U1  1  0.32235300  0.92377300  0.89769800  1
  U  U2  1  0.60142000  0.67764700  0.89769800  1
  U  U3  1  0.07622700  0.67764700  0.39769800  1
  U  U4  1  0.60142000  0.92377300  0.39769800  1
  U  U5  1  0.32235300  0.39858000  0.39769800  1
  U  U6  1  0.92377300  0.60142000  0.10230200  1
  U  U7  1  0.67764700  0.07622700  0.10230200  1
  U  U8  1  0.39858000  0.32235300  0.10230200  1
  U  U9  1  0.92377300  0.32235300  0.60230200  1
  U  U10  1  0.39858000  0.07622700  0.60230200  1
  U  U11  1  0.67764700  0.60142000  0.60230200  1
  Al  Al0  1  0.00000000  0.00000000  0.75000000  1
  Al  Al1  1  0.00000000  0.00000000  0.25000000  1
  F  F0  1  0.86871600  0.30155700  0.78508100  1
  F  F1  1  0.43284100  0.13128400  0.78508100  1
  F  F2  1  0.69844300  0.56715900  0.78508100  1
  F  F3  1  0.86871600  0.56715900  0.28508100  1
  F  F4  1  0.69844300  0.13128400  0.28508100  1
  F  F5  1  0.43284100  0.30155700  0.28508100  1
  F  F6  1  0.13128400  0.69844300  0.21491900  1
  F  F7  1  0.56715900  0.86871600  0.21491900  1
  F  F8  1  0.30155700  0.43284100  0.21491900  1
  F  F9  1  0.13128400  0.43284100  0.71491900  1
  F  F10  1  0.30155700  0.86871600  0.71491900  1
  F  F11  1  0.56715900  0.69844300  0.71491900  1
  F  F12  1  0.88685900  0.19168700  0.98295800  1
  F  F13  1  0.30482800  0.11314100  0.98295800  1
  F  F14  1  0.80831300  0.69517200  0.98295800  1
  F  F15  1  0.88685900  0.69517200  0.48295800  1
  F  F16  1  0.80831300  0.11314100  0.48295800  1
  F  F17  1  0.30482800  0.19168700  0.48295800  1
  F  F18  1  0.11314100  0.80831300  0.01704200  1
  F  F19  1  0.69517200  0.88685900  0.01704200  1
  F  F20  1  0.19168700  0.30482800  0.01704200  1
  F  F21  1  0.11314100  0.30482800  0.51704200  1
  F  F22  1  0.19168700  0.88685900  0.51704200  1
  F  F23  1  0.69517200  0.80831300  0.51704200  1
  F  F24  1  0.12064400  0.53272800  0.04983400  1
  F  F25  1  0.41208400  0.87935600  0.04983400  1
  F  F26  1  0.46727200  0.58791600  0.04983400  1
  F  F27  1  0.12064400  0.58791600  0.54983400  1
  F  F28  1  0.46727200  0.87935600  0.54983400  1
  F  F29  1  0.41208400  0.53272800  0.54983400  1
  F  F30  1  0.87935600  0.46727200  0.95016600  1
  F  F31  1  0.58791600  0.12064400  0.95016600  1
  F  F32  1  0.53272800  0.41208400  0.95016600  1
  F  F33  1  0.87935600  0.41208400  0.45016600  1
  F  F34  1  0.53272800  0.12064400  0.45016600  1
  F  F35  1  0.58791600  0.46727200  0.45016600  1
  F  F36  1  0.07671700  0.17257700  0.83351400  1
  F  F37  1  0.09586000  0.92328300  0.83351400  1
  F  F38  1  0.82742300  0.90414000  0.83351400  1
  F  F39  1  0.07671700  0.90414000  0.33351400  1
  F  F40  1  0.82742300  0.92328300  0.33351400  1
  F  F41  1  0.09586000  0.17257700  0.33351400  1
  F  F42  1  0.92328300  0.82742300  0.16648600  1
  F  F43  1  0.90414000  0.07671700  0.16648600  1
  F  F44  1  0.17257700  0.09586000  0.16648600  1
  F  F45  1  0.92328300  0.09586000  0.66648600  1
  F  F46  1  0.17257700  0.07671700  0.66648600  1
  F  F47  1  0.90414000  0.82742300  0.66648600  1
  F  F48  1  0.34106100  0.51138400  0.86156600  1
  F  F49  1  0.17032200  0.65893900  0.86156600  1
  F  F50  1  0.48861600  0.82967800  0.86156600  1
  F  F51  1  0.34106100  0.82967800  0.36156600  1
  F  F52  1  0.48861600  0.65893900  0.36156600  1
  F  F53  1  0.17032200  0.51138400  0.36156600  1
  F  F54  1  0.65893900  0.48861600  0.13843400  1
  F  F55  1  0.82967800  0.34106100  0.13843400  1
  F  F56  1  0.51138400  0.17032200  0.13843400  1
  F  F57  1  0.65893900  0.17032200  0.63843400  1
  F  F58  1  0.51138400  0.34106100  0.63843400  1
  F  F59  1  0.82967800  0.48861600  0.63843400  1
loop_
_geom_bond_atom_site_label_1
_geom_bond_atom_site_label_2
_geom_bond_distance
_geom_bond_site_symmetry_2
Al0 F47 1.836691 1_445
Al0 F38 1.836691 1_445
Al0 F36 1.836691 1_555
Al0 F46 1.836691 1_555
Al0 F37 1.836691 1_545
Al0 F45 1.836691 1_455
Al1 F44 1.836691 1_555
Al1 F41 1.836691 1_555
Al1 F42 1.836691 1_445
Al1 F40 1.836691 1_445
Al1 F39 1.836691 1_545
Al1 F43 1.836691 1_455
F0 Na0 2.277489 1_555
F0 U0 2.304499 1_655
F0 U9 2.430292 1_555
F1 Na0 2.277494 1_555
F1 U1 2.304499 1_545
F1 U10 2.430292 1_555
F2 Na0 2.277498 1_555
F2 U2 2.304499 1_555
F2 U11 2.430292 1_555
F3 Na1 2.277494 1_555
F3 U3 2.304499 1_655
F3 U6 2.430292 1_555
F4 Na1 2.277489 1_555
F4 U4 2.304499 1_545
F4 U7 2.430292 1_555
F5 Na1 2.277498 1_555
F5 U5 2.304499 1_555
F5 U8 2.430292 1_555
F6 Na2 2.277489 1_555
F6 U6 2.304499 1_455
F6 U3 2.430292 1_555
F7 Na2 2.277494 1_555
F7 U7 2.304499 1_565
F7 U4 2.430292 1_555
F8 Na2 2.277498 1_555
F8 U8 2.304499 1_555
F8 U5 2.430292 1_555
F9 Na3 2.277494 1_555
F9 U9 2.304499 1_455
F9 U0 2.430292 1_555
F10 Na3 2.277489 1_555
F10 U10 2.304499 1_565
F10 U1 2.430292 1_555
F11 Na3 2.277498 1_555
F11 U11 2.304499 1_555
F11 U2 2.430292 1_555
F12 U0 2.255488 1_655
F12 U7 2.373804 1_556
F12 Na4 2.645196 1_656
F13 U1 2.255488 1_545
F13 U8 2.373804 1_556
F13 Na4 2.645196 1_556
F14 U2 2.255488 1_555
F14 U6 2.373804 1_556
F14 Na4 2.645196 1_666
F15 U3 2.255488 1_655
F15 U11 2.373804 1_555
F15 Na5 2.645196 1_665
F16 U4 2.255488 1_545
F16 U9 2.373804 1_555
F16 Na5 2.645196 1_655
F17 U5 2.255488 1_555
F17 U10 2.373804 1_555
F17 Na5 2.645196 1_555
F18 U6 2.255488 1_455
F18 U1 2.373804 1_554
F18 Na4 2.645196 1_565
F19 U7 2.255488 1_565
F19 U2 2.373804 1_554
F19 Na4 2.645196 1_665
F20 U8 2.255488 1_555
F20 U0 2.373804 1_554
F20 Na4 2.645196 1_555
F21 U9 2.255488 1_455
F21 U5 2.373804 1_555
F21 Na5 2.645196 1_555
F22 U10 2.255488 1_565
F22 U3 2.373804 1_555
F22 Na5 2.645196 1_565
F23 U11 2.255488 1_555
F23 U4 2.373804 1_555
F23 Na5 2.645196 1_665
F24 U0 2.302547 1_554
F24 Na2 2.348036 1_555
F24 U6 2.455116 1_455
F25 U1 2.302547 1_554
F25 Na2 2.348034 1_555
F25 U7 2.455116 1_565
F26 U2 2.302547 1_554
F26 Na2 2.348042 1_555
F26 U8 2.455116 1_555
F27 U3 2.302547 1_555
F27 Na3 2.348034 1_555
F27 U9 2.455116 1_455
F28 U4 2.302547 1_555
F28 Na3 2.348036 1_555
F28 U10 2.455116 1_565
F29 U5 2.302547 1_555
F29 Na3 2.348042 1_555
F29 U11 2.455116 1_555
F30 U6 2.302547 1_556
F30 Na0 2.348036 1_555
F30 U0 2.455116 1_655
F31 U7 2.302547 1_556
F31 Na0 2.348034 1_555
F31 U1 2.455116 1_545
F32 U8 2.302547 1_556
F32 Na0 2.348042 1_555
F32 U2 2.455116 1_555
F33 U9 2.302547 1_555
F33 Na1 2.348034 1_555
F33 U3 2.455116 1_655
F34 U10 2.302547 1_555
F34 Na1 2.348036 1_555
F34 U4 2.455116 1_545
F35 U11 2.302547 1_555
F35 Na1 2.348042 1_555
F35 U5 2.455116 1_555
F36 U0 2.386021 1_555
F36 Na4 2.626827 1_556
F37 U1 2.386021 1_555
F37 Na4 2.626827 1_566
F38 U2 2.386021 1_555
F38 Na4 2.626827 1_666
F39 U3 2.386021 1_555
F39 Na5 2.626827 1_565
F40 U4 2.386021 1_555
F40 Na5 2.626827 1_665
F41 U5 2.386021 1_555
F41 Na5 2.626827 1_555
F42 U6 2.386021 1_555
F42 Na4 2.626827 1_665
F43 U7 2.386021 1_555
F43 Na4 2.626827 1_655
F44 U8 2.386021 1_555
F44 Na4 2.626827 1_555
F45 U9 2.386021 1_555
F45 Na5 2.626827 1_655
F46 U10 2.386021 1_555
F46 Na5 2.626827 1_555
F47 U11 2.386021 1_555
F47 Na5 2.626827 1_665
F48 U2 2.303838 1_555
F48 U0 2.321663 1_555
F49 U0 2.303840 1_555
F49 U1 2.321664 1_555
F50 U1 2.303831 1_555
F50 U2 2.321672 1_555
F51 U4 2.303840 1_555
F51 U3 2.321664 1_555
F52 U5 2.303838 1_555
F52 U4 2.321663 1_555
F53 U3 2.303831 1_555
F53 U5 2.321672 1_555
F54 U8 2.303838 1_555
F54 U6 2.321663 1_555
F55 U6 2.303840 1_555
F55 U7 2.321664 1_555
F56 U7 2.303831 1_555
F56 U8 2.321672 1_555
F57 U10 2.303840 1_555
F57 U9 2.321664 1_555
F58 U11 2.303838 1_555
F58 U10 2.321663 1_555
F59 U9 2.303831 1_555
F59 U11 2.321672 1_555
