# generated using pymatgen
data_Mg63Si32Bi
_symmetry_space_group_name_H-M   'P 1'
_cell_length_a   12.75001135
_cell_length_b   12.75001135
_cell_length_c   12.75001135
_cell_angle_alpha   90.00000000
_cell_angle_beta   90.00000000
_cell_angle_gamma   90.00000000
_symmetry_Int_Tables_number   1
_chemical_formula_structural   Mg63Si32Bi
_chemical_formula_sum   'Mg63 Si32 Bi1'
_cell_volume   2072.67741026
_cell_formula_units_Z   1
loop_
 _symmetry_equiv_pos_site_id
 _symmetry_equiv_pos_as_xyz
  1  'x, y, z'
loop_
 _atom_site_type_symbol
 _atom_site_label
 _atom_site_symmetry_multiplicity
 _atom_site_fract_x
 _atom_site_fract_y
 _atom_site_fract_z
 _atom_site_occupancy
  Mg  Mg0  1  0.74474118  -0.00000000  0.00000000  1
  Mg  Mg1  1  -0.00000000  -0.00000000  0.25525882  1
  Mg  Mg2  1  -0.00000000  0.74474118  0.00000000  1
  Mg  Mg3  1  -0.00000000  -0.00000000  0.74474118  1
  Mg  Mg4  1  -0.00000000  0.25525882  0.00000000  1
  Mg  Mg5  1  0.25525882  -0.00000000  0.00000000  1
  Mg  Mg6  1  0.74980579  0.50000000  0.50000000  1
  Mg  Mg7  1  0.50000000  0.50000000  0.25019421  1
  Mg  Mg8  1  0.50000000  0.74980579  0.50000000  1
  Mg  Mg9  1  0.50000000  0.50000000  0.74980579  1
  Mg  Mg10  1  0.50000000  0.25019421  0.50000000  1
  Mg  Mg11  1  0.25019421  0.50000000  0.50000000  1
  Mg  Mg12  1  0.24994604  0.50000000  0.00000000  1
  Mg  Mg13  1  0.50000000  -0.00000000  0.75005396  1
  Mg  Mg14  1  -0.00000000  0.24994604  0.50000000  1
  Mg  Mg15  1  0.24994604  -0.00000000  0.50000000  1
  Mg  Mg16  1  0.50000000  0.24994604  0.00000000  1
  Mg  Mg17  1  -0.00000000  0.50000000  0.75005396  1
  Mg  Mg18  1  0.50000000  -0.00000000  0.24994604  1
  Mg  Mg19  1  -0.00000000  0.75005396  0.50000000  1
  Mg  Mg20  1  0.50000000  0.75005396  0.00000000  1
  Mg  Mg21  1  -0.00000000  0.50000000  0.24994604  1
  Mg  Mg22  1  0.75005396  0.50000000  0.00000000  1
  Mg  Mg23  1  0.75005396  -0.00000000  0.50000000  1
  Mg  Mg24  1  0.50000000  -0.00000000  0.00000000  1
  Mg  Mg25  1  -0.00000000  -0.00000000  0.50000000  1
  Mg  Mg26  1  -0.00000000  0.50000000  0.00000000  1
  Mg  Mg27  1  0.25009181  0.25009181  0.25009181  1
  Mg  Mg28  1  0.25009181  0.74990819  0.74990819  1
  Mg  Mg29  1  0.74990819  0.25009181  0.74990819  1
  Mg  Mg30  1  0.74990819  0.74990819  0.25009181  1
  Mg  Mg31  1  0.74730580  0.25269420  0.25269420  1
  Mg  Mg32  1  0.25269420  0.74730580  0.25269420  1
  Mg  Mg33  1  0.74730580  0.74730580  0.74730580  1
  Mg  Mg34  1  0.25269420  0.25269420  0.74730580  1
  Mg  Mg35  1  0.75001343  0.75001343  0.49984150  1
  Mg  Mg36  1  0.75001343  0.50015850  0.24998657  1
  Mg  Mg37  1  0.50015850  0.75001343  0.24998657  1
  Mg  Mg38  1  0.75001343  0.24998657  0.50015850  1
  Mg  Mg39  1  0.75001343  0.49984150  0.75001343  1
  Mg  Mg40  1  0.50015850  0.24998657  0.75001343  1
  Mg  Mg41  1  0.24998657  0.75001343  0.50015850  1
  Mg  Mg42  1  0.24998657  0.50015850  0.75001343  1
  Mg  Mg43  1  0.49984150  0.75001343  0.75001343  1
  Mg  Mg44  1  0.24998657  0.24998657  0.49984150  1
  Mg  Mg45  1  0.24998657  0.49984150  0.24998657  1
  Mg  Mg46  1  0.49984150  0.24998657  0.24998657  1
  Mg  Mg47  1  0.99903119  0.74931207  0.25068793  1
  Mg  Mg48  1  0.74931207  0.74931207  0.00096881  1
  Mg  Mg49  1  0.74931207  0.99903119  0.25068793  1
  Mg  Mg50  1  0.99903119  0.25068793  0.74931207  1
  Mg  Mg51  1  0.74931207  0.25068793  0.99903119  1
  Mg  Mg52  1  0.74931207  0.00096881  0.74931207  1
  Mg  Mg53  1  0.00096881  0.74931207  0.74931207  1
  Mg  Mg54  1  0.25068793  0.74931207  0.99903119  1
  Mg  Mg55  1  0.25068793  0.99903119  0.74931207  1
  Mg  Mg56  1  0.00096881  0.25068793  0.25068793  1
  Mg  Mg57  1  0.25068793  0.25068793  0.00096881  1
  Mg  Mg58  1  0.25068793  0.00096881  0.25068793  1
  Mg  Mg59  1  0.50000000  -0.00000000  0.50000000  1
  Mg  Mg60  1  -0.00000000  0.50000000  0.50000000  1
  Mg  Mg61  1  0.50000000  0.50000000  0.00000000  1
  Mg  Mg62  1  0.50000000  0.50000000  0.50000000  1
  Si  Si0  1  0.12863406  0.12863406  0.87136594  1
  Si  Si1  1  0.12863406  0.87136594  0.12863406  1
  Si  Si2  1  0.87136594  0.12863406  0.12863406  1
  Si  Si3  1  0.87136594  0.87136594  0.87136594  1
  Si  Si4  1  0.62531238  0.12526127  0.87473873  1
  Si  Si5  1  0.12526127  0.12526127  0.37468762  1
  Si  Si6  1  0.12526127  0.62531238  0.87473873  1
  Si  Si7  1  0.62531238  0.87473873  0.12526127  1
  Si  Si8  1  0.12526127  0.87473873  0.62531238  1
  Si  Si9  1  0.12526127  0.37468762  0.12526127  1
  Si  Si10  1  0.37468762  0.12526127  0.12526127  1
  Si  Si11  1  0.87473873  0.12526127  0.62531238  1
  Si  Si12  1  0.87473873  0.62531238  0.12526127  1
  Si  Si13  1  0.37468762  0.87473873  0.87473873  1
  Si  Si14  1  0.87473873  0.87473873  0.37468762  1
  Si  Si15  1  0.87473873  0.37468762  0.87473873  1
  Si  Si16  1  0.62555002  0.12521848  0.37444998  1
  Si  Si17  1  0.12521848  0.62555002  0.37444998  1
  Si  Si18  1  0.62555002  0.62555002  0.87478152  1
  Si  Si19  1  0.62555002  0.87478152  0.62555002  1
  Si  Si20  1  0.12521848  0.37444998  0.62555002  1
  Si  Si21  1  0.62555002  0.37444998  0.12521848  1
  Si  Si22  1  0.37444998  0.12521848  0.62555002  1
  Si  Si23  1  0.87478152  0.62555002  0.62555002  1
  Si  Si24  1  0.37444998  0.62555002  0.12521848  1
  Si  Si25  1  0.37444998  0.87478152  0.37444998  1
  Si  Si26  1  0.87478152  0.37444998  0.37444998  1
  Si  Si27  1  0.37444998  0.37444998  0.87478152  1
  Si  Si28  1  0.62529490  0.62529490  0.37470510  1
  Si  Si29  1  0.62529490  0.37470510  0.62529490  1
  Si  Si30  1  0.37470510  0.62529490  0.62529490  1
  Si  Si31  1  0.37470510  0.37470510  0.37470510  1
  Bi  Bi0  1  -0.00000000  -0.00000000  0.00000000  1
loop_
_geom_bond_atom_site_label_1
_geom_bond_atom_site_label_2
_geom_bond_distance
_geom_bond_site_symmetry_2
Mg0 Si7 2.723971 1_545
Mg0 Si4 2.723971 1_554
Mg0 Si2 2.825998 1_555
Mg0 Si3 2.825998 1_544
Mg1 Si14 2.723971 1_445
Mg1 Si5 2.723971 1_555
Mg1 Si2 2.825998 1_455
Mg1 Si1 2.825998 1_545
Mg2 Si12 2.723971 1_455
Mg2 Si6 2.723971 1_554
Mg2 Si3 2.825998 1_454
Mg2 Si1 2.825998 1_555
Mg3 Si11 2.723971 1_455
Mg3 Si8 2.723971 1_545
Mg3 Si3 2.825998 1_445
Mg3 Si0 2.825998 1_555
Mg4 Si15 2.723971 1_454
Mg4 Si9 2.723971 1_555
Mg4 Si2 2.825998 1_455
Mg4 Si0 2.825998 1_554
Mg5 Si13 2.723971 1_544
Mg5 Si10 2.723971 1_555
Mg5 Si1 2.825998 1_545
Mg5 Si0 2.825998 1_554
Mg6 Si29 2.761212 1_555
Mg6 Si28 2.761212 1_555
Mg6 Si26 2.768384 1_555
Mg6 Si23 2.768384 1_555
Mg7 Si31 2.761212 1_555
Mg7 Si28 2.761212 1_555
Mg7 Si24 2.768384 1_555
Mg7 Si21 2.768384 1_555
Mg8 Si30 2.761212 1_555
Mg8 Si28 2.761212 1_555
Mg8 Si25 2.768384 1_555
Mg8 Si19 2.768384 1_555
Mg9 Si29 2.761212 1_555
Mg9 Si30 2.761212 1_555
Mg9 Si27 2.768384 1_555
Mg9 Si18 2.768384 1_555
Mg10 Si29 2.761212 1_555
Mg10 Si31 2.761212 1_555
Mg10 Si22 2.768384 1_555
Mg10 Si16 2.768384 1_555
Mg11 Si31 2.761212 1_555
Mg11 Si30 2.761212 1_555
Mg11 Si20 2.768384 1_555
Mg11 Si17 2.768384 1_555
Mg12 Si6 2.762368 1_554
Mg12 Si9 2.762368 1_555
Mg12 Si27 2.762481 1_554
Mg12 Si24 2.762481 1_555
Mg13 Si13 2.762368 1_545
Mg13 Si4 2.762368 1_555
Mg13 Si22 2.762481 1_555
Mg13 Si19 2.762481 1_545
Mg14 Si5 2.762368 1_555
Mg14 Si11 2.762368 1_455
Mg14 Si26 2.762481 1_455
Mg14 Si20 2.762481 1_555
Mg15 Si5 2.762368 1_555
Mg15 Si8 2.762368 1_545
Mg15 Si25 2.762481 1_545
Mg15 Si22 2.762481 1_555
Mg16 Si4 2.762368 1_554
Mg16 Si10 2.762368 1_555
Mg16 Si27 2.762481 1_554
Mg16 Si21 2.762481 1_555
Mg17 Si6 2.762368 1_555
Mg17 Si15 2.762368 1_455
Mg17 Si20 2.762481 1_555
Mg17 Si23 2.762481 1_455
Mg18 Si10 2.762368 1_555
Mg18 Si7 2.762368 1_545
Mg18 Si25 2.762481 1_545
Mg18 Si16 2.762481 1_555
Mg19 Si14 2.762368 1_455
Mg19 Si8 2.762368 1_555
Mg19 Si17 2.762481 1_555
Mg19 Si23 2.762481 1_455
Mg20 Si13 2.762368 1_554
Mg20 Si7 2.762368 1_555
Mg20 Si24 2.762481 1_555
Mg20 Si18 2.762481 1_554
Mg21 Si12 2.762368 1_455
Mg21 Si9 2.762368 1_555
Mg21 Si26 2.762481 1_455
Mg21 Si17 2.762481 1_555
Mg22 Si15 2.762368 1_554
Mg22 Si12 2.762368 1_555
Mg22 Si21 2.762481 1_555
Mg22 Si18 2.762481 1_554
Mg23 Si11 2.762368 1_555
Mg23 Si14 2.762368 1_545
Mg23 Si19 2.762481 1_545
Mg23 Si16 2.762481 1_555
Mg24 Si4 2.766605 1_554
Mg24 Si13 2.766605 1_544
Mg24 Si7 2.766605 1_545
Mg24 Si10 2.766605 1_555
Mg25 Si11 2.766605 1_455
Mg25 Si14 2.766605 1_445
Mg25 Si8 2.766605 1_545
Mg25 Si5 2.766605 1_555
Mg26 Si6 2.766605 1_554
Mg26 Si12 2.766605 1_455
Mg26 Si15 2.766605 1_454
Mg26 Si9 2.766605 1_555
Mg27 Si31 2.751918 1_555
Mg27 Si5 2.754989 1_555
Mg27 Si9 2.754989 1_555
Mg27 Si10 2.754989 1_555
Mg28 Si30 2.751918 1_555
Mg28 Si6 2.754989 1_555
Mg28 Si8 2.754989 1_555
Mg28 Si13 2.754989 1_555
Mg29 Si29 2.751918 1_555
Mg29 Si4 2.754989 1_555
Mg29 Si11 2.754989 1_555
Mg29 Si15 2.754989 1_555
Mg30 Si28 2.751918 1_555
Mg30 Si12 2.754989 1_555
Mg30 Si7 2.754989 1_555
Mg30 Si14 2.754989 1_555
Mg31 Si21 2.731569 1_555
Mg31 Si16 2.731569 1_555
Mg31 Si26 2.731569 1_555
Mg31 Si2 2.739703 1_555
Mg32 Si17 2.731569 1_555
Mg32 Si24 2.731569 1_555
Mg32 Si25 2.731569 1_555
Mg32 Si1 2.739703 1_555
Mg33 Si19 2.731569 1_555
Mg33 Si18 2.731569 1_555
Mg33 Si23 2.731569 1_555
Mg33 Si3 2.739703 1_555
Mg34 Si22 2.731569 1_555
Mg34 Si20 2.731569 1_555
Mg34 Si27 2.731569 1_555
Mg34 Si0 2.739703 1_555
Mg35 Si28 2.757322 1_555
Mg35 Si14 2.757551 1_555
Mg35 Si23 2.760042 1_555
Mg35 Si19 2.760042 1_555
Mg36 Si28 2.757322 1_555
Mg36 Si12 2.757551 1_555
Mg36 Si21 2.760042 1_555
Mg36 Si26 2.760042 1_555
Mg37 Si28 2.757322 1_555
Mg37 Si7 2.757551 1_555
Mg37 Si24 2.760042 1_555
Mg37 Si25 2.760042 1_555
Mg38 Si29 2.757322 1_555
Mg38 Si11 2.757551 1_555
Mg38 Si16 2.760042 1_555
Mg38 Si26 2.760042 1_555
Mg39 Si29 2.757322 1_555
Mg39 Si15 2.757551 1_555
Mg39 Si18 2.760042 1_555
Mg39 Si23 2.760042 1_555
Mg40 Si29 2.757322 1_555
Mg40 Si4 2.757551 1_555
Mg40 Si22 2.760042 1_555
Mg40 Si27 2.760042 1_555
Mg41 Si30 2.757322 1_555
Mg41 Si8 2.757551 1_555
Mg41 Si17 2.760042 1_555
Mg41 Si25 2.760042 1_555
Mg42 Si30 2.757322 1_555
Mg42 Si6 2.757551 1_555
Mg42 Si20 2.760042 1_555
Mg42 Si27 2.760042 1_555
Mg43 Si30 2.757322 1_555
Mg43 Si13 2.757551 1_555
Mg43 Si18 2.760042 1_555
Mg43 Si19 2.760042 1_555
Mg44 Si31 2.757322 1_555
Mg44 Si5 2.757551 1_555
Mg44 Si20 2.760042 1_555
Mg44 Si22 2.760042 1_555
Mg45 Si31 2.757322 1_555
Mg45 Si9 2.757551 1_555
Mg45 Si17 2.760042 1_555
Mg45 Si24 2.760042 1_555
Mg46 Si31 2.757322 1_555
Mg46 Si10 2.757551 1_555
Mg46 Si16 2.760042 1_555
Mg46 Si21 2.760042 1_555
Mg47 Si12 2.751061 1_555
Mg47 Si14 2.751061 1_555
Mg47 Si17 2.751089 1_655
Mg47 Si1 2.752089 1_655
Mg48 Si12 2.751061 1_555
Mg48 Si7 2.751061 1_555
Mg48 Si18 2.751089 1_554
Mg48 Si3 2.752089 1_554
Mg49 Si7 2.751061 1_555
Mg49 Si14 2.751061 1_555
Mg49 Si16 2.751089 1_565
Mg49 Si2 2.752089 1_565
Mg50 Si11 2.751061 1_555
Mg50 Si15 2.751061 1_555
Mg50 Si20 2.751089 1_655
Mg50 Si0 2.752089 1_655
Mg51 Si4 2.751061 1_555
Mg51 Si15 2.751061 1_555
Mg51 Si21 2.751089 1_556
Mg51 Si2 2.752089 1_556
Mg52 Si4 2.751061 1_555
Mg52 Si11 2.751061 1_555
Mg52 Si19 2.751089 1_545
Mg52 Si3 2.752089 1_545
Mg53 Si6 2.751061 1_555
Mg53 Si8 2.751061 1_555
Mg53 Si23 2.751089 1_455
Mg53 Si3 2.752089 1_455
Mg54 Si6 2.751061 1_555
Mg54 Si13 2.751061 1_555
Mg54 Si24 2.751089 1_556
Mg54 Si1 2.752089 1_556
Mg55 Si8 2.751061 1_555
Mg55 Si13 2.751061 1_555
Mg55 Si22 2.751089 1_565
Mg55 Si0 2.752089 1_565
Mg56 Si9 2.751061 1_555
Mg56 Si5 2.751061 1_555
Mg56 Si26 2.751089 1_455
Mg56 Si2 2.752089 1_455
Mg57 Si9 2.751061 1_555
Mg57 Si10 2.751061 1_555
Mg57 Si27 2.751089 1_554
Mg57 Si0 2.752089 1_554
Mg58 Si10 2.751061 1_555
Mg58 Si5 2.751061 1_555
Mg58 Si25 2.751089 1_545
Mg58 Si1 2.752089 1_545
Mg59 Si25 2.770167 1_545
Mg59 Si22 2.770167 1_555
Mg59 Si16 2.770167 1_555
Mg59 Si19 2.770167 1_545
Mg60 Si26 2.770167 1_455
Mg60 Si17 2.770167 1_555
Mg60 Si20 2.770167 1_555
Mg60 Si23 2.770167 1_455
Mg61 Si27 2.770167 1_554
Mg61 Si24 2.770167 1_555
Mg61 Si21 2.770167 1_555
Mg61 Si18 2.770167 1_554
Mg62 Si28 2.766971 1_555
Mg62 Si31 2.766971 1_555
Mg62 Si29 2.766971 1_555
Mg62 Si30 2.766971 1_555
Bi0 Si2 2.840712 1_455
Bi0 Si1 2.840712 1_545
Bi0 Si0 2.840712 1_554
Bi0 Si3 2.840712 1_444
Bi0 Mg2 3.254553 1_545
Bi0 Mg4 3.254553 1_555
Bi0 Mg3 3.254553 1_554
Bi0 Mg1 3.254553 1_555
Bi0 Mg0 3.254553 1_455
Bi0 Mg5 3.254553 1_555
