# generated using pymatgen
data_NiP2N2(O6F)2
_symmetry_space_group_name_H-M   'P 1'
_cell_length_a   12.82575100
_cell_length_b   5.99619200
_cell_length_c   9.91868473
_cell_angle_alpha   87.69422224
_cell_angle_beta   90.00000000
_cell_angle_gamma   90.00000000
_symmetry_Int_Tables_number   1
_chemical_formula_structural   NiP2N2(O6F)2
_chemical_formula_sum   'Ni2 P4 N4 O24 F4'
_cell_volume   762.18544181
_cell_formula_units_Z   2
loop_
 _symmetry_equiv_pos_site_id
 _symmetry_equiv_pos_as_xyz
  1  'x, y, z'
loop_
 _atom_site_type_symbol
 _atom_site_label
 _atom_site_symmetry_multiplicity
 _atom_site_fract_x
 _atom_site_fract_y
 _atom_site_fract_z
 _atom_site_occupancy
  Ni  Ni0  1  0.50000000  0.00000000  0.50000000  1
  Ni  Ni1  1  0.00000000  0.00000000  0.00000000  1
  P  P0  1  0.59470200  0.78350900  0.10338100  1
  P  P1  1  0.09470200  0.21649100  0.39661900  1
  P  P2  1  0.40529800  0.21649100  0.89661900  1
  P  P3  1  0.90529800  0.78350900  0.60338100  1
  N  N0  1  0.77838200  0.32547400  0.89982800  1
  N  N1  1  0.27838200  0.67452600  0.60017200  1
  N  N2  1  0.22161800  0.67452600  0.10017200  1
  N  N3  1  0.72161800  0.32547400  0.39982800  1
  O  O0  1  0.54173700  0.60978400  0.18562900  1
  O  O1  1  0.04173700  0.39021600  0.31437100  1
  O  O2  1  0.45826300  0.39021600  0.81437100  1
  O  O3  1  0.95826300  0.60978400  0.68562900  1
  O  O4  1  0.67299400  0.95333200  0.12863600  1
  O  O5  1  0.17299400  0.04666800  0.37136400  1
  O  O6  1  0.32700600  0.04666800  0.87136400  1
  O  O7  1  0.82700600  0.95333200  0.62863600  1
  O  O8  1  0.76055300  0.41829100  0.00431700  1
  O  O9  1  0.26055300  0.58170900  0.49568300  1
  O  O10  1  0.23944700  0.58170900  0.99568300  1
  O  O11  1  0.73944700  0.41829100  0.50431700  1
  O  O12  1  0.59013900  0.78321900  0.56851700  1
  O  O13  1  0.09013900  0.21678100  0.93148300  1
  O  O14  1  0.40986100  0.21678100  0.43148300  1
  O  O15  1  0.90986100  0.78321900  0.06851700  1
  O  O16  1  0.58617000  0.95546500  0.64891000  1
  O  O17  1  0.08617000  0.04453500  0.85109000  1
  O  O18  1  0.41383000  0.04453500  0.35109000  1
  O  O19  1  0.91383000  0.95546500  0.14891000  1
  O  O20  1  0.34693300  0.80563700  0.62851300  1
  O  O21  1  0.84693300  0.19436300  0.87148700  1
  O  O22  1  0.65306700  0.19436300  0.37148700  1
  O  O23  1  0.15306700  0.80563700  0.12851300  1
  F  F0  1  0.55189700  0.79977500  0.95504600  1
  F  F1  1  0.05189700  0.20022500  0.54495400  1
  F  F2  1  0.44810300  0.20022500  0.04495400  1
  F  F3  1  0.94810300  0.79977500  0.45504600  1
loop_
_geom_bond_atom_site_label_1
_geom_bond_atom_site_label_2
_geom_bond_distance
_geom_bond_site_symmetry_2
Ni0 O12 1.848507 1_545
Ni0 O14 1.848507 1_555
Ni0 O16 1.855406 1_545
Ni0 O18 1.855406 1_555
Ni0 O22 2.591847 1_555
Ni0 O20 2.591847 1_545
Ni1 O15 1.848507 1_445
Ni1 O13 1.848507 1_554
Ni1 O19 1.855406 1_445
Ni1 O17 1.855406 1_554
Ni1 O21 2.591847 1_454
Ni1 O23 2.591847 1_545
N0 O8 1.217604 1_556
N0 O21 1.219789 1_555
N1 O9 1.217604 1_555
N1 O20 1.219789 1_555
N2 O10 1.217604 1_554
N2 O23 1.219789 1_555
N3 O11 1.217604 1_555
N3 O22 1.219789 1_555
O0 P0 1.464146 1_555
O1 P1 1.464146 1_555
O2 P2 1.464146 1_555
O3 P3 1.464146 1_555
O4 P0 1.458943 1_555
O5 P1 1.458943 1_555
O6 P2 1.458943 1_555
O7 P3 1.458943 1_555
O12 O16 1.330944 1_555
O13 O17 1.330944 1_555
O14 O18 1.330944 1_555
O15 O19 1.330944 1_555
F0 P0 1.569733 1_556
F1 P1 1.569733 1_555
F2 P2 1.569733 1_554
F3 P3 1.569733 1_555
