# generated using pymatgen
data_Li2Eu5Sn7
_symmetry_space_group_name_H-M   'P 1'
_cell_length_a   6.37742799
_cell_length_b   13.94692003
_cell_length_c   17.81956931
_cell_angle_alpha   90.00000000
_cell_angle_beta   90.00000000
_cell_angle_gamma   90.00000000
_symmetry_Int_Tables_number   1
_chemical_formula_structural   Li2Eu5Sn7
_chemical_formula_sum   'Li8 Eu20 Sn28'
_cell_volume   1584.97011313
_cell_formula_units_Z   4
loop_
 _symmetry_equiv_pos_site_id
 _symmetry_equiv_pos_as_xyz
  1  'x, y, z'
loop_
 _atom_site_type_symbol
 _atom_site_label
 _atom_site_symmetry_multiplicity
 _atom_site_fract_x
 _atom_site_fract_y
 _atom_site_fract_z
 _atom_site_occupancy
  Li  Li0  1  0.41697740  0.23136684  0.02030329  1
  Li  Li1  1  0.08302260  0.76863316  0.52030329  1
  Li  Li2  1  0.58302260  0.73136684  0.47969671  1
  Li  Li3  1  0.91697740  0.26863316  0.97969671  1
  Li  Li4  1  0.12115158  0.76760521  0.22884227  1
  Li  Li5  1  0.37884842  0.23239479  0.72884227  1
  Li  Li6  1  0.87884842  0.26760521  0.27115773  1
  Li  Li7  1  0.62115158  0.73239479  0.77115773  1
  Eu  Eu0  1  0.36051790  0.18046799  0.54116617  1
  Eu  Eu1  1  0.13948210  0.81953201  0.04116617  1
  Eu  Eu2  1  0.63948210  0.68046799  0.95883383  1
  Eu  Eu3  1  0.86051790  0.31953201  0.45883383  1
  Eu  Eu4  1  0.63593627  0.00090676  0.01741271  1
  Eu  Eu5  1  0.86406373  0.99909324  0.51741271  1
  Eu  Eu6  1  0.36406373  0.50090676  0.48258729  1
  Eu  Eu7  1  0.13593627  0.49909324  0.98258729  1
  Eu  Eu8  1  0.14497797  0.49742376  0.26240186  1
  Eu  Eu9  1  0.35502203  0.50257624  0.76240186  1
  Eu  Eu10  1  0.85502203  0.99742376  0.23759814  1
  Eu  Eu11  1  0.64497797  0.00257624  0.73759814  1
  Eu  Eu12  1  0.64170042  0.42352589  0.12371663  1
  Eu  Eu13  1  0.85829958  0.57647411  0.62371663  1
  Eu  Eu14  1  0.35829958  0.92352589  0.37628337  1
  Eu  Eu15  1  0.14170042  0.07647411  0.87628337  1
  Eu  Eu16  1  0.36097055  0.17603886  0.21716024  1
  Eu  Eu17  1  0.13902945  0.82396114  0.71716024  1
  Eu  Eu18  1  0.63902945  0.67603886  0.28283976  1
  Eu  Eu19  1  0.86097055  0.32396114  0.78283976  1
  Sn  Sn0  1  0.13923977  0.06188150  0.06538117  1
  Sn  Sn1  1  0.36076023  0.93811850  0.56538117  1
  Sn  Sn2  1  0.86076023  0.56188150  0.43461883  1
  Sn  Sn3  1  0.63923977  0.43811850  0.93461883  1
  Sn  Sn4  1  0.09295002  0.12312856  0.37576552  1
  Sn  Sn5  1  0.40704998  0.87687144  0.87576552  1
  Sn  Sn6  1  0.90704998  0.62312856  0.12423448  1
  Sn  Sn7  1  0.59295002  0.37687144  0.62423448  1
  Sn  Sn8  1  0.14724942  0.05660238  0.68926990  1
  Sn  Sn9  1  0.35275058  0.94339762  0.18926990  1
  Sn  Sn10  1  0.85275058  0.55660238  0.81073010  1
  Sn  Sn11  1  0.64724942  0.44339762  0.31073010  1
  Sn  Sn12  1  0.18973179  0.69017118  0.37432865  1
  Sn  Sn13  1  0.31026821  0.30982882  0.87432865  1
  Sn  Sn14  1  0.81026821  0.19017118  0.12567135  1
  Sn  Sn15  1  0.68973179  0.80982882  0.62567135  1
  Sn  Sn16  1  0.13290755  0.34471717  0.12018057  1
  Sn  Sn17  1  0.36709245  0.65528283  0.62018057  1
  Sn  Sn18  1  0.86709245  0.84471717  0.37981943  1
  Sn  Sn19  1  0.63290755  0.15528283  0.87981943  1
  Sn  Sn20  1  0.33999808  0.30698703  0.37813131  1
  Sn  Sn21  1  0.16000192  0.69301297  0.87813131  1
  Sn  Sn22  1  0.66000192  0.80698703  0.12186869  1
  Sn  Sn23  1  0.83999808  0.19301297  0.62186869  1
  Sn  Sn24  1  0.61216886  0.13067112  0.37857354  1
  Sn  Sn25  1  0.88783114  0.86932888  0.87857354  1
  Sn  Sn26  1  0.38783114  0.63067112  0.12142646  1
  Sn  Sn27  1  0.11216886  0.36932888  0.62142646  1
loop_
_geom_bond_atom_site_label_1
_geom_bond_atom_site_label_2
_geom_bond_distance
_geom_bond_site_symmetry_2
Li0 Sn13 2.902910 1_554
Li0 Sn16 2.991456 1_555
Li0 Sn19 3.047816 1_554
Li0 Sn0 3.061065 1_555
Li0 Sn14 3.185362 1_555
Li1 Sn12 2.902910 1_555
Li1 Sn17 2.991456 1_555
Li1 Sn18 3.047816 1_455
Li1 Sn1 3.061065 1_555
Li1 Sn15 3.185362 1_455
Li2 Sn15 2.902910 1_555
Li2 Sn18 2.991456 1_555
Li2 Sn17 3.047816 1_555
Li2 Sn2 3.061065 1_555
Li2 Sn12 3.185362 1_555
Li3 Sn14 2.902910 1_556
Li3 Sn19 2.991456 1_555
Li3 Sn16 3.047816 1_656
Li3 Sn3 3.061065 1_555
Li3 Sn13 3.185362 1_655
Li4 Sn12 2.842305 1_555
Li4 Sn9 2.947871 1_555
Li4 Sn6 3.065836 1_455
Li4 Sn26 3.194314 1_555
Li4 Sn18 3.319609 1_455
Li5 Sn13 2.842305 1_555
Li5 Sn8 2.947871 1_555
Li5 Sn7 3.065836 1_555
Li5 Sn27 3.194314 1_555
Li5 Sn19 3.319609 1_555
Li6 Sn14 2.842305 1_555
Li6 Sn11 2.947871 1_555
Li6 Sn4 3.065836 1_655
Li6 Sn24 3.194314 1_555
Li6 Sn16 3.319609 1_655
Li7 Sn15 2.842305 1_555
Li7 Sn10 2.947871 1_555
Li7 Sn5 3.065836 1_555
Li7 Sn25 3.194314 1_555
Li7 Sn17 3.319609 1_555
Eu0 Sn23 3.383659 1_555
Eu0 Sn24 3.384159 1_555
Eu0 Sn27 3.389999 1_555
Eu0 Sn20 3.401620 1_555
Eu0 Sn1 3.407461 1_545
Eu0 Li5 3.423821 1_555
Eu0 Sn8 3.435022 1_555
Eu0 Sn7 3.448439 1_555
Eu0 Sn4 3.498328 1_555
Eu0 Sn23 3.621919 1_455
Eu1 Sn22 3.383659 1_455
Eu1 Sn25 3.384159 1_454
Eu1 Sn26 3.389999 1_555
Eu1 Sn21 3.401620 1_554
Eu1 Sn0 3.407461 1_565
Eu1 Li4 3.423821 1_555
Eu1 Sn9 3.435022 1_555
Eu1 Sn6 3.448439 1_455
Eu1 Sn5 3.498328 1_554
Eu1 Sn22 3.621919 1_555
Eu2 Sn21 3.383659 1_555
Eu2 Sn26 3.384159 1_556
Eu2 Sn25 3.389999 1_555
Eu2 Sn22 3.401620 1_556
Eu2 Sn3 3.407461 1_555
Eu2 Li7 3.423821 1_555
Eu2 Sn10 3.435022 1_555
Eu2 Sn5 3.448439 1_555
Eu2 Sn6 3.498328 1_556
Eu2 Sn21 3.621919 1_655
Eu3 Sn20 3.383659 1_655
Eu3 Sn27 3.384159 1_655
Eu3 Sn24 3.389999 1_555
Eu3 Sn23 3.401620 1_555
Eu3 Sn2 3.407461 1_555
Eu3 Li6 3.423821 1_555
Eu3 Sn11 3.435022 1_555
Eu3 Sn4 3.448439 1_655
Eu3 Sn7 3.498328 1_555
Eu3 Sn20 3.621919 1_555
Eu4 Sn19 3.263077 1_554
Eu4 Sn22 3.286790 1_545
Eu4 Sn0 3.389369 1_555
Eu4 Sn5 3.390335 1_544
Eu4 Sn0 3.428781 1_655
Eu4 Sn14 3.453313 1_555
Eu4 Sn25 3.474077 1_544
Eu4 Li0 3.504812 1_555
Eu4 Sn9 3.644636 1_545
Eu5 Sn18 3.263077 1_555
Eu5 Sn23 3.286790 1_565
Eu5 Sn1 3.389369 1_655
Eu5 Sn4 3.390335 1_665
Eu5 Sn1 3.428781 1_555
Eu5 Sn15 3.453313 1_555
Eu5 Sn24 3.474077 1_565
Eu5 Li1 3.504812 1_655
Eu5 Sn8 3.644636 1_665
Eu6 Sn17 3.263077 1_555
Eu6 Sn20 3.286790 1_555
Eu6 Sn2 3.389369 1_555
Eu6 Sn7 3.390335 1_555
Eu6 Sn2 3.428781 1_455
Eu6 Sn12 3.453313 1_555
Eu6 Sn27 3.474077 1_555
Eu6 Li2 3.504812 1_555
Eu6 Sn11 3.644636 1_555
Eu7 Sn16 3.263077 1_556
Eu7 Sn21 3.286790 1_555
Eu7 Sn3 3.389369 1_455
Eu7 Sn6 3.390335 1_456
Eu7 Sn3 3.428781 1_555
Eu7 Sn13 3.453313 1_555
Eu7 Sn26 3.474077 1_556
Eu7 Li3 3.504812 1_455
Eu7 Sn10 3.644636 1_455
Eu8 Sn16 3.311300 1_555
Eu8 Sn12 3.359470 1_555
Eu8 Sn11 3.374186 1_455
Eu8 Sn6 3.382004 1_455
Eu8 Sn11 3.401455 1_555
Eu8 Sn26 3.487561 1_555
Eu8 Sn20 3.585261 1_555
Eu8 Li6 3.630235 1_455
Eu8 Sn2 3.675779 1_455
Eu9 Sn17 3.311300 1_555
Eu9 Sn13 3.359470 1_555
Eu9 Sn10 3.374186 1_555
Eu9 Sn7 3.382004 1_555
Eu9 Sn10 3.401455 1_455
Eu9 Sn27 3.487561 1_555
Eu9 Sn21 3.585261 1_555
Eu9 Li7 3.630235 1_555
Eu9 Sn3 3.675779 1_555
Eu10 Sn18 3.311300 1_555
Eu10 Sn14 3.359470 1_565
Eu10 Sn9 3.374186 1_655
Eu10 Sn4 3.382004 1_665
Eu10 Sn9 3.401455 1_555
Eu10 Sn24 3.487561 1_565
Eu10 Sn22 3.585261 1_555
Eu10 Li4 3.630235 1_655
Eu10 Sn0 3.675779 1_665
Eu11 Sn19 3.311300 1_555
Eu11 Sn15 3.359470 1_545
Eu11 Sn8 3.374186 1_555
Eu11 Sn5 3.382004 1_545
Eu11 Sn8 3.401455 1_655
Eu11 Sn25 3.487561 1_545
Eu11 Sn23 3.585261 1_555
Eu11 Li5 3.630235 1_555
Eu11 Sn1 3.675779 1_545
Eu12 Sn6 3.257847 1_555
Eu12 Sn26 3.312020 1_555
Eu12 Sn16 3.320467 1_655
Eu12 Sn11 3.344192 1_555
Eu12 Sn3 3.375818 1_554
Eu12 Sn16 3.426476 1_555
Eu12 Sn14 3.427709 1_555
Eu13 Sn7 3.257847 1_555
Eu13 Sn27 3.312020 1_655
Eu13 Sn17 3.320467 1_555
Eu13 Sn10 3.344192 1_555
Eu13 Sn2 3.375818 1_555
Eu13 Sn17 3.426476 1_655
Eu13 Sn15 3.427709 1_555
Eu14 Sn4 3.257847 1_565
Eu14 Sn24 3.312020 1_565
Eu14 Sn18 3.320467 1_455
Eu14 Sn9 3.344192 1_555
Eu14 Sn1 3.375818 1_555
Eu14 Sn18 3.426476 1_555
Eu14 Sn12 3.427709 1_555
Eu15 Sn5 3.257847 1_545
Eu15 Sn25 3.312020 1_445
Eu15 Sn19 3.320467 1_555
Eu15 Sn8 3.344192 1_555
Eu15 Sn0 3.375818 1_556
Eu15 Sn19 3.426476 1_455
Eu15 Sn13 3.427709 1_555
Eu16 Sn16 3.261342 1_555
Eu16 Sn9 3.282890 1_545
Eu16 Sn14 3.302576 1_555
Eu16 Sn24 3.352604 1_555
Eu16 Sn4 3.384382 1_555
Eu16 Sn20 3.403126 1_555
Eu16 Sn0 3.442323 1_555
Eu16 Sn14 3.877022 1_455
Eu17 Sn17 3.261342 1_555
Eu17 Sn8 3.282890 1_565
Eu17 Sn15 3.302576 1_455
Eu17 Sn25 3.352604 1_455
Eu17 Sn5 3.384382 1_555
Eu17 Sn21 3.403126 1_555
Eu17 Sn1 3.442323 1_555
Eu17 Sn15 3.877022 1_555
Eu18 Sn18 3.261342 1_555
Eu18 Sn11 3.282890 1_555
Eu18 Sn12 3.302576 1_555
Eu18 Sn26 3.352604 1_555
Eu18 Sn6 3.384382 1_555
Eu18 Sn22 3.403126 1_555
Eu18 Sn2 3.442323 1_555
Eu18 Sn12 3.877022 1_655
Eu19 Sn19 3.261342 1_555
Eu19 Sn10 3.282890 1_555
Eu19 Sn13 3.302576 1_655
Eu19 Sn27 3.352604 1_655
Eu19 Sn7 3.384382 1_555
Eu19 Sn23 3.403126 1_555
Eu19 Sn3 3.442323 1_555
Eu19 Sn13 3.877022 1_555
Sn0 Sn14 2.959255 1_455
Sn0 Sn9 3.075466 1_545
Sn1 Sn15 2.959255 1_555
Sn1 Sn8 3.075466 1_565
Sn10 Sn21 2.983558 1_655
Sn10 Sn3 3.075466 1_555
Sn11 Sn20 2.983558 1_555
Sn11 Sn2 3.075466 1_555
Sn12 Sn2 2.959255 1_455
Sn12 Sn18 2.981485 1_455
Sn13 Sn3 2.959255 1_555
Sn13 Sn19 2.981485 1_555
Sn14 Sn16 2.981485 1_655
Sn15 Sn17 2.981485 1_555
Sn20 Sn4 3.009901 1_555
Sn20 Sn24 3.009964 1_555
Sn21 Sn5 3.009901 1_555
Sn21 Sn25 3.009964 1_455
Sn22 Sn9 2.983558 1_555
Sn22 Sn6 3.009901 1_555
Sn22 Sn26 3.009964 1_555
Sn23 Sn8 2.983558 1_655
Sn23 Sn7 3.009901 1_555
Sn23 Sn27 3.009964 1_655
Sn24 Sn4 3.068359 1_655
Sn24 Sn4 3.313329 1_555
Sn25 Sn5 3.068359 1_555
Sn25 Sn5 3.313329 1_655
Sn26 Sn6 3.068359 1_455
Sn26 Sn6 3.313329 1_555
Sn27 Sn7 3.068359 1_555
Sn27 Sn7 3.313329 1_455
