# generated using pymatgen
data_Mg14TiSb
_symmetry_space_group_name_H-M   'P 1'
_cell_length_a   6.38889363
_cell_length_b   6.28633494
_cell_length_c   10.34983512
_cell_angle_alpha   90.00000000
_cell_angle_beta   90.00000000
_cell_angle_gamma   119.47039354
_symmetry_Int_Tables_number   1
_chemical_formula_structural   Mg14TiSb
_chemical_formula_sum   'Mg14 Ti1 Sb1'
_cell_volume   361.89307463
_cell_formula_units_Z   1
loop_
 _symmetry_equiv_pos_site_id
 _symmetry_equiv_pos_as_xyz
  1  'x, y, z'
loop_
 _atom_site_type_symbol
 _atom_site_label
 _atom_site_symmetry_multiplicity
 _atom_site_fract_x
 _atom_site_fract_y
 _atom_site_fract_z
 _atom_site_occupancy
  Mg  Mg0  1  0.16662196  0.33331048  0.62500000  1
  Mg  Mg1  1  0.16637865  0.83318883  0.62500000  1
  Mg  Mg2  1  0.66757119  0.33225625  0.12500000  1
  Mg  Mg3  1  0.66621159  0.33334864  0.62500000  1
  Mg  Mg4  1  0.66757119  0.83531393  0.12500000  1
  Mg  Mg5  1  0.66621159  0.83286195  0.62500000  1
  Mg  Mg6  1  0.33304304  0.16990515  0.37443942  1
  Mg  Mg7  1  0.33304304  0.16990515  0.87556058  1
  Mg  Mg8  1  0.33304304  0.66313889  0.37443942  1
  Mg  Mg9  1  0.33304304  0.66313889  0.87556058  1
  Mg  Mg10  1  0.83672477  0.16836289  0.37385166  1
  Mg  Mg11  1  0.83672477  0.16836289  0.87614834  1
  Mg  Mg12  1  0.83119522  0.66559811  0.37651518  1
  Mg  Mg13  1  0.83119522  0.66559811  0.87348482  1
  Ti  Ti0  1  0.16709094  0.33354497  0.12500000  1
  Sb  Sb0  1  0.16433076  0.83216488  0.12500000  1
loop_
_geom_bond_atom_site_label_1
_geom_bond_atom_site_label_2
_geom_bond_distance
_geom_bond_site_symmetry_2
Mg0 Mg1 3.143168 1_545
Mg0 Mg1 3.143168 1_555
Mg0 Mg6 3.159958 1_555
Mg0 Mg7 3.159958 1_555
Mg0 Mg8 3.159964 1_555
Mg0 Mg9 3.159964 1_555
Mg0 Mg11 3.181774 1_455
Mg0 Mg10 3.181774 1_455
Mg0 Mg5 3.191707 1_555
Mg0 Mg3 3.191707 1_555
Mg0 Mg5 3.197186 1_445
Mg0 Mg3 3.197187 1_455
Mg1 Mg12 3.176462 1_455
Mg1 Mg13 3.176462 1_455
Mg1 Mg8 3.181436 1_555
Mg1 Mg9 3.181436 1_555
Mg1 Mg6 3.181442 1_565
Mg1 Mg7 3.181442 1_565
Mg1 Mg3 3.194391 1_565
Mg1 Mg5 3.194391 1_555
Mg1 Mg3 3.194503 1_455
Mg1 Mg5 3.194504 1_455
Mg2 Mg4 3.123946 1_545
Mg2 Mg4 3.162389 1_555
Mg2 Mg7 3.182483 1_554
Mg2 Mg6 3.182483 1_555
Mg2 Sb0 3.183530 1_655
Mg2 Ti0 3.187401 1_655
Mg2 Ti0 3.201508 1_555
Mg2 Sb0 3.205457 1_545
Mg3 Mg5 3.140108 1_555
Mg3 Mg5 3.146227 1_545
Mg3 Mg6 3.187413 1_555
Mg3 Mg7 3.187413 1_555
Mg4 Mg9 3.182483 1_554
Mg4 Mg8 3.182483 1_555
Mg4 Sb0 3.183530 1_655
Mg4 Ti0 3.187400 1_665
Mg4 Ti0 3.201508 1_555
Mg4 Sb0 3.205457 1_555
Mg5 Mg8 3.187413 1_555
Mg5 Mg9 3.187413 1_555
Mg6 Mg8 3.100632 1_555
Mg6 Ti0 3.149676 1_555
Mg6 Sb0 3.175338 1_545
Mg6 Mg8 3.185702 1_545
Mg7 Mg9 3.100632 1_555
Mg7 Ti0 3.149676 1_556
Mg7 Sb0 3.175338 1_546
Mg7 Mg9 3.185702 1_545
Mg8 Ti0 3.149683 1_555
Mg8 Sb0 3.175332 1_555
Mg9 Ti0 3.149683 1_556
Mg9 Sb0 3.175332 1_556
Mg10 Mg12 3.143439 1_555
Mg10 Mg12 3.143439 1_545
Mg10 Mg2 3.155719 1_555
Mg10 Mg4 3.155725 1_545
Mg10 Ti0 3.163899 1_655
Mg10 Mg8 3.166172 1_655
Mg10 Mg6 3.166172 1_655
Mg10 Mg3 3.182889 1_555
Mg10 Mg5 3.182895 1_545
Mg10 Mg8 3.222755 1_545
Mg10 Mg6 3.222756 1_555
Mg11 Mg13 3.143439 1_555
Mg11 Mg13 3.143439 1_545
Mg11 Mg2 3.155719 1_556
Mg11 Mg4 3.155725 1_546
Mg11 Ti0 3.163899 1_656
Mg11 Mg9 3.166172 1_655
Mg11 Mg7 3.166172 1_655
Mg11 Mg3 3.182889 1_555
Mg11 Mg5 3.182895 1_545
Mg11 Mg9 3.222755 1_545
Mg11 Mg7 3.222756 1_555
Mg12 Mg5 3.149797 1_555
Mg12 Mg3 3.149803 1_555
Mg12 Mg6 3.175137 1_555
Mg12 Mg8 3.175137 1_555
Mg12 Mg4 3.178806 1_555
Mg12 Mg2 3.178812 1_555
Mg12 Sb0 3.195289 1_655
Mg12 Mg6 3.213958 1_665
Mg12 Mg8 3.213958 1_655
Mg13 Mg5 3.149797 1_555
Mg13 Mg3 3.149803 1_555
Mg13 Mg7 3.175137 1_555
Mg13 Mg9 3.175137 1_555
Mg13 Mg4 3.178806 1_556
Mg13 Mg2 3.178812 1_556
Mg13 Sb0 3.195289 1_656
Mg13 Mg7 3.213958 1_665
Mg13 Mg9 3.213958 1_655
Sb0 Ti0 3.143205 1_565
Sb0 Ti0 3.143205 1_555
