# generated using pymatgen
data_SrYb4Si5O17
_symmetry_space_group_name_H-M   'P 1'
_cell_length_a   19.80220000
_cell_length_b   5.63764600
_cell_length_c   6.99024725
_cell_angle_alpha   73.77867570
_cell_angle_beta   90.00000000
_cell_angle_gamma   90.00000000
_symmetry_Int_Tables_number   1
_chemical_formula_structural   SrYb4Si5O17
_chemical_formula_sum   'Sr2 Yb8 Si10 O34'
_cell_volume   749.30885182
_cell_formula_units_Z   2
loop_
 _symmetry_equiv_pos_site_id
 _symmetry_equiv_pos_as_xyz
  1  'x, y, z'
loop_
 _atom_site_type_symbol
 _atom_site_label
 _atom_site_symmetry_multiplicity
 _atom_site_fract_x
 _atom_site_fract_y
 _atom_site_fract_z
 _atom_site_occupancy
  Sr  Sr0  1  0.25000000  0.75736100  0.75061500  1
  Sr  Sr1  1  0.75000000  0.24263900  0.24938500  1
  Yb  Yb0  1  0.04307100  0.70166700  0.11250100  1
  Yb  Yb1  1  0.54307100  0.29833300  0.88749900  1
  Yb  Yb2  1  0.95692900  0.29833300  0.88749900  1
  Yb  Yb3  1  0.45692900  0.70166700  0.11250100  1
  Yb  Yb4  1  0.16208100  0.35705000  0.46796300  1
  Yb  Yb5  1  0.66208100  0.64295000  0.53203700  1
  Yb  Yb6  1  0.83791900  0.64295000  0.53203700  1
  Yb  Yb7  1  0.33791900  0.35705000  0.46796300  1
  Si  Si0  1  0.25000000  0.92602800  0.27048000  1
  Si  Si1  1  0.75000000  0.07397200  0.72952000  1
  Si  Si2  1  0.13909500  0.22854100  0.00072600  1
  Si  Si3  1  0.63909500  0.77145900  0.99927400  1
  Si  Si4  1  0.86090500  0.77145900  0.99927400  1
  Si  Si5  1  0.36090500  0.22854100  0.00072600  1
  Si  Si6  1  0.06013800  0.80030000  0.59480200  1
  Si  Si7  1  0.56013800  0.19970000  0.40519800  1
  Si  Si8  1  0.93986200  0.19970000  0.40519800  1
  Si  Si9  1  0.43986200  0.80030000  0.59480200  1
  O  O0  1  0.25000000  0.11225200  0.41181500  1
  O  O1  1  0.75000000  0.88774800  0.58818500  1
  O  O2  1  0.25000000  0.64409300  0.41024200  1
  O  O3  1  0.75000000  0.35590700  0.58975800  1
  O  O4  1  0.18428600  0.97627200  0.11510200  1
  O  O5  1  0.68428600  0.02372800  0.88489800  1
  O  O6  1  0.81571400  0.02372800  0.88489800  1
  O  O7  1  0.31571400  0.97627200  0.11510200  1
  O  O8  1  0.17973500  0.36802100  0.79577100  1
  O  O9  1  0.67973500  0.63197900  0.20422900  1
  O  O10  1  0.82026500  0.63197900  0.20422900  1
  O  O11  1  0.32026500  0.36802100  0.79577100  1
  O  O12  1  0.06635200  0.11851600  0.95357100  1
  O  O13  1  0.56635200  0.88148400  0.04642900  1
  O  O14  1  0.93364800  0.88148400  0.04642900  1
  O  O15  1  0.43364800  0.11851600  0.95357100  1
  O  O16  1  0.12947300  0.40732000  0.14467200  1
  O  O17  1  0.62947300  0.59268000  0.85532800  1
  O  O18  1  0.87052700  0.59268000  0.85532800  1
  O  O19  1  0.37052700  0.40732000  0.14467200  1
  O  O20  1  0.12906900  0.94556200  0.62870000  1
  O  O21  1  0.62906900  0.05443800  0.37130000  1
  O  O22  1  0.87093100  0.05443800  0.37130000  1
  O  O23  1  0.37093100  0.94556200  0.62870000  1
  O  O24  1  0.02952400  0.63344700  0.80466800  1
  O  O25  1  0.52952400  0.36655300  0.19533200  1
  O  O26  1  0.97047600  0.36655300  0.19533200  1
  O  O27  1  0.47047600  0.63344700  0.80466800  1
  O  O28  1  0.00000000  0.00000000  0.50000000  1
  O  O29  1  0.50000000  0.00000000  0.50000000  1
  O  O30  1  0.07778200  0.64572100  0.43790800  1
  O  O31  1  0.57778200  0.35427900  0.56209200  1
  O  O32  1  0.92221800  0.35427900  0.56209200  1
  O  O33  1  0.42221800  0.64572100  0.43790800  1
loop_
_geom_bond_atom_site_label_1
_geom_bond_atom_site_label_2
_geom_bond_distance
_geom_bond_site_symmetry_2
O0 Si0 1.630274 1_545
O0 Yb4 2.322144 1_555
O0 Yb7 2.322144 1_555
O0 Sr0 2.639036 1_545
O1 Si1 1.630274 1_565
O1 Yb6 2.322144 1_555
O1 Yb5 2.322144 1_555
O1 Sr1 2.639036 1_565
O2 Si0 1.616556 1_555
O2 Yb4 2.334047 1_555
O2 Yb7 2.334047 1_555
O2 Sr0 2.630140 1_555
O3 Si1 1.616556 1_555
O3 Yb6 2.334047 1_555
O3 Yb5 2.334047 1_555
O3 Sr1 2.630140 1_555
O4 Si0 1.667742 1_555
O4 Si2 1.681494 1_565
O5 Si1 1.667742 1_555
O5 Si3 1.681494 1_545
O6 Si1 1.667742 1_555
O6 Si4 1.681494 1_545
O7 Si0 1.667742 1_555
O7 Si5 1.681494 1_565
O8 Si2 1.639861 1_556
O8 Yb4 2.335809 1_555
O8 Sr0 2.542912 1_555
O9 Si3 1.639861 1_554
O9 Yb5 2.335809 1_555
O9 Sr1 2.542912 1_555
O10 Si4 1.639861 1_554
O10 Yb6 2.335809 1_555
O10 Sr1 2.542912 1_555
O11 Si5 1.639861 1_556
O11 Yb7 2.335809 1_555
O11 Sr0 2.542912 1_555
O12 Si2 1.637862 1_556
O12 Yb0 2.347517 1_546
O12 Yb2 2.382121 1_455
O13 Si3 1.637862 1_554
O13 Yb1 2.347517 1_564
O13 Yb3 2.382121 1_555
O14 Si4 1.637862 1_554
O14 Yb2 2.347517 1_564
O14 Yb0 2.382121 1_655
O15 Si5 1.637862 1_556
O15 Yb3 2.347517 1_546
O15 Yb1 2.382121 1_555
O16 Si2 1.622108 1_555
O16 Yb4 2.290527 1_555
O16 Yb0 2.350131 1_555
O17 Si3 1.622108 1_555
O17 Yb5 2.290527 1_555
O17 Yb1 2.350131 1_555
O18 Si4 1.622108 1_555
O18 Yb6 2.290527 1_555
O18 Yb2 2.350131 1_555
O19 Si5 1.622108 1_555
O19 Yb7 2.290527 1_555
O19 Yb3 2.350131 1_555
O20 Si6 1.642682 1_555
O20 Yb4 2.369623 1_565
O20 Sr0 2.661094 1_555
O21 Si7 1.642682 1_555
O21 Yb5 2.369623 1_545
O21 Sr1 2.661094 1_555
O22 Si8 1.642682 1_555
O22 Yb6 2.369623 1_545
O22 Sr1 2.661094 1_555
O23 Si9 1.642682 1_555
O23 Yb7 2.369623 1_565
O23 Sr0 2.661094 1_555
O24 Si6 1.622806 1_555
O24 Yb0 2.304913 1_556
O24 Yb2 2.315146 1_455
O25 Si7 1.622806 1_555
O25 Yb1 2.304913 1_554
O25 Yb3 2.315146 1_555
O26 Si8 1.622806 1_555
O26 Yb2 2.304913 1_554
O26 Yb0 2.315146 1_655
O27 Si9 1.622806 1_555
O27 Yb3 2.304913 1_556
O27 Yb1 2.315146 1_555
O28 Si8 1.645598 1_455
O28 Si6 1.645598 1_545
O29 Si7 1.645598 1_555
O29 Si9 1.645598 1_545
O30 Si6 1.618119 1_555
O30 Yb4 2.299610 1_555
O30 Yb0 2.311980 1_555
O31 Si7 1.618119 1_555
O31 Yb5 2.299610 1_555
O31 Yb1 2.311980 1_555
O32 Si8 1.618119 1_555
O32 Yb6 2.299610 1_555
O32 Yb2 2.311980 1_555
O33 Si9 1.618119 1_555
O33 Yb7 2.299610 1_555
O33 Yb3 2.311980 1_555
