# generated using pymatgen
data_NdIr3
_symmetry_space_group_name_H-M   'P 1'
_cell_length_a   9.33966564
_cell_length_b   9.33966564
_cell_length_c   9.33966677
_cell_angle_alpha   33.32487186
_cell_angle_beta   33.32487186
_cell_angle_gamma   33.32487762
_symmetry_Int_Tables_number   1
_chemical_formula_structural   NdIr3
_chemical_formula_sum   'Nd3 Ir9'
_cell_volume   218.94047662
_cell_formula_units_Z   3
loop_
 _symmetry_equiv_pos_site_id
 _symmetry_equiv_pos_as_xyz
  1  'x, y, z'
loop_
 _atom_site_type_symbol
 _atom_site_label
 _atom_site_symmetry_multiplicity
 _atom_site_fract_x
 _atom_site_fract_y
 _atom_site_fract_z
 _atom_site_occupancy
  Nd  Nd0  1  0.86045231  0.86045231  0.86045231  1
  Nd  Nd1  1  0.13954769  0.13954769  0.13954769  1
  Nd  Nd2  1  0.00000000  -0.00000000  0.00000000  1
  Ir  Ir0  1  0.42141614  0.91527884  0.42141614  1
  Ir  Ir1  1  0.42141614  0.42141614  0.91527884  1
  Ir  Ir2  1  0.91527884  0.42141614  0.42141614  1
  Ir  Ir3  1  0.57858386  0.08472116  0.57858386  1
  Ir  Ir4  1  0.57858386  0.57858386  0.08472116  1
  Ir  Ir5  1  0.08472116  0.57858386  0.57858386  1
  Ir  Ir6  1  0.66821892  0.66821892  0.66821892  1
  Ir  Ir7  1  0.33178108  0.33178108  0.33178108  1
  Ir  Ir8  1  0.50000000  0.50000000  0.50000000  1
loop_
_geom_bond_atom_site_label_1
_geom_bond_atom_site_label_2
_geom_bond_distance
_geom_bond_site_symmetry_2
Ir0 Ir7 2.611632 1_565
Ir0 Ir1 2.645115 1_555
Ir0 Ir2 2.645115 1_555
Ir0 Ir6 2.655785 1_555
Ir0 Ir1 2.710857 1_564
Ir0 Ir2 2.710857 1_465
Ir0 Ir8 2.739800 1_555
Ir0 Nd0 3.098136 1_455
Ir0 Nd0 3.098137 1_554
Ir0 Nd1 3.376365 1_565
Ir0 Nd2 3.422907 1_665
Ir0 Nd2 3.422908 1_566
Ir1 Ir7 2.611632 1_556
Ir1 Ir2 2.645115 1_555
Ir1 Ir6 2.655784 1_555
Ir1 Ir2 2.710857 1_456
Ir1 Ir8 2.739801 1_555
Ir1 Nd0 3.098137 1_545
Ir1 Nd0 3.098137 1_455
Ir1 Nd1 3.376364 1_556
Ir1 Nd2 3.422908 1_566
Ir1 Nd2 3.422908 1_656
Ir2 Ir7 2.611632 1_655
Ir2 Ir6 2.655785 1_555
Ir2 Ir8 2.739800 1_555
Ir2 Nd0 3.098136 1_545
Ir2 Nd0 3.098137 1_554
Ir2 Nd1 3.376365 1_655
Ir2 Nd2 3.422907 1_665
Ir2 Nd2 3.422908 1_656
Ir3 Ir6 2.611632 1_545
Ir3 Ir4 2.645115 1_555
Ir3 Ir5 2.645115 1_555
Ir3 Ir7 2.655785 1_555
Ir3 Ir4 2.710857 1_546
Ir3 Ir5 2.710857 1_645
Ir3 Ir8 2.739800 1_555
Ir3 Nd1 3.098136 1_655
Ir3 Nd1 3.098137 1_556
Ir3 Nd0 3.376365 1_545
Ir3 Nd2 3.422907 1_556
Ir3 Nd2 3.422908 1_655
Ir4 Ir6 2.611632 1_554
Ir4 Ir5 2.645115 1_555
Ir4 Ir7 2.655784 1_555
Ir4 Ir5 2.710857 1_654
Ir4 Ir8 2.739801 1_555
Ir4 Nd1 3.098137 1_565
Ir4 Nd1 3.098137 1_655
Ir4 Nd0 3.376364 1_554
Ir4 Nd2 3.422908 1_655
Ir4 Nd2 3.422908 1_565
Ir5 Ir6 2.611632 1_455
Ir5 Ir7 2.655785 1_555
Ir5 Ir8 2.739800 1_555
Ir5 Nd1 3.098136 1_565
Ir5 Nd1 3.098137 1_556
Ir5 Nd0 3.376365 1_455
Ir5 Nd2 3.422907 1_556
Ir5 Nd2 3.422908 1_565
Ir6 Nd2 3.092544 1_665
Ir6 Nd2 3.092544 1_566
Ir6 Nd2 3.092544 1_656
Ir7 Nd2 3.092544 1_556
Ir7 Nd2 3.092544 1_565
Ir7 Nd2 3.092544 1_655
Ir8 Nd0 3.174306 1_554
Ir8 Nd1 3.174306 1_556
Ir8 Nd1 3.174306 1_565
Ir8 Nd0 3.174306 1_455
Ir8 Nd1 3.174306 1_655
Ir8 Nd0 3.174306 1_545
