# generated using pymatgen
data_K15Cr7N19
_symmetry_space_group_name_H-M   'P 1'
_cell_length_a   6.73305100
_cell_length_b   12.04701435
_cell_length_c   18.59030226
_cell_angle_alpha   89.84679199
_cell_angle_beta   94.45376940
_cell_angle_gamma   99.11473197
_symmetry_Int_Tables_number   1
_chemical_formula_structural   K15Cr7N19
_chemical_formula_sum   'K30 Cr14 N38'
_cell_volume   1484.31094549
_cell_formula_units_Z   2
loop_
 _symmetry_equiv_pos_site_id
 _symmetry_equiv_pos_as_xyz
  1  'x, y, z'
loop_
 _atom_site_type_symbol
 _atom_site_label
 _atom_site_symmetry_multiplicity
 _atom_site_fract_x
 _atom_site_fract_y
 _atom_site_fract_z
 _atom_site_occupancy
  K  K0  1  0.51738300  0.62056300  0.43296800  1
  K  K1  1  0.48261700  0.37943700  0.56703200  1
  K  K2  1  0.63908900  0.12746500  0.65600700  1
  K  K3  1  0.36091100  0.87253500  0.34399300  1
  K  K4  1  0.70770700  0.02181400  0.19524600  1
  K  K5  1  0.29229300  0.97818600  0.80475400  1
  K  K6  1  0.95331100  0.04504300  0.38825000  1
  K  K7  1  0.04668900  0.95495700  0.61175000  1
  K  K8  1  0.74499200  0.74157500  0.27363400  1
  K  K9  1  0.25500800  0.25842500  0.72636600  1
  K  K10  1  0.86701700  0.18050300  0.82999000  1
  K  K11  1  0.13298300  0.81949700  0.17001000  1
  K  K12  1  0.86645000  0.89432800  0.89659400  1
  K  K13  1  0.13355000  0.10567200  0.10340600  1
  K  K14  1  0.71358000  0.07995500  0.00236000  1
  K  K15  1  0.28642000  0.92004500  0.99764000  1
  K  K16  1  0.59895400  0.88674200  0.53019400  1
  K  K17  1  0.40104600  0.11325800  0.46980600  1
  K  K18  1  0.55188600  0.43209100  0.27517800  1
  K  K19  1  0.44811400  0.56790900  0.72482200  1
  K  K20  1  0.98552800  0.34055900  0.01288100  1
  K  K21  1  0.01447200  0.65944100  0.98711900  1
  K  K22  1  0.95461600  0.66463400  0.78324700  1
  K  K23  1  0.04538400  0.33536600  0.21675300  1
  K  K24  1  0.76726000  0.27092700  0.39019400  1
  K  K25  1  0.23274000  0.72907300  0.60980600  1
  K  K26  1  0.61495300  0.39203500  0.84542600  1
  K  K27  1  0.38504700  0.60796500  0.15457400  1
  K  K28  1  0.00000000  0.50000000  0.50000000  1
  K  K29  1  0.50000000  0.50000000  0.00000000  1
  Cr  Cr0  1  0.56857900  0.27592600  0.11961100  1
  Cr  Cr1  1  0.43142100  0.72407400  0.88038900  1
  Cr  Cr2  1  0.88897400  0.41336200  0.68319600  1
  Cr  Cr3  1  0.11102600  0.58663800  0.31680400  1
  Cr  Cr4  1  0.74542400  0.65887900  0.60303000  1
  Cr  Cr5  1  0.25457600  0.34112100  0.39697000  1
  Cr  Cr6  1  0.96877900  0.77754100  0.44544500  1
  Cr  Cr7  1  0.03122100  0.22245900  0.55455500  1
  Cr  Cr8  1  0.85039200  0.54565400  0.14308200  1
  Cr  Cr9  1  0.14960800  0.45434600  0.85691800  1
  Cr  Cr10  1  0.65246100  0.86288300  0.72724100  1
  Cr  Cr11  1  0.34753900  0.13711700  0.27275900  1
  Cr  Cr12  1  0.68173000  0.78899300  0.05856400  1
  Cr  Cr13  1  0.31827000  0.21100700  0.94143600  1
  N  N0  1  0.76834600  0.21225400  0.11743100  1
  N  N1  1  0.23165400  0.78774600  0.88256900  1
  N  N2  1  0.97675600  0.32774600  0.61958600  1
  N  N3  1  0.02324400  0.67225400  0.38041400  1
  N  N4  1  0.54279900  0.09123100  0.31831800  1
  N  N5  1  0.45720100  0.90876900  0.68168200  1
  N  N6  1  0.57393100  0.78100800  0.80671500  1
  N  N7  1  0.42606900  0.21899200  0.19328500  1
  N  N8  1  0.64626200  0.42352000  0.13487000  1
  N  N9  1  0.35373800  0.57648000  0.86513000  1
  N  N10  1  0.49267200  0.39324100  0.42239800  1
  N  N11  1  0.50732800  0.60675900  0.57760200  1
  N  N12  1  0.82586800  0.12482700  0.53156600  1
  N  N13  1  0.17413200  0.87517300  0.46843400  1
  N  N14  1  0.87544500  0.70902400  0.52726300  1
  N  N15  1  0.12455500  0.29097600  0.47273700  1
  N  N16  1  0.88974000  0.88701100  0.05614600  1
  N  N17  1  0.11026000  0.11298900  0.94385400  1
  N  N18  1  0.77882000  0.83519700  0.40550900  1
  N  N19  1  0.22118000  0.16480300  0.59449100  1
  N  N20  1  0.75940700  0.76811200  0.66586600  1
  N  N21  1  0.24059300  0.23188800  0.33413400  1
  N  N22  1  0.96163600  0.48300900  0.90144500  1
  N  N23  1  0.03836400  0.51699100  0.09855500  1
  N  N24  1  0.58214700  0.74960000  0.96559100  1
  N  N25  1  0.41785300  0.25040000  0.03440900  1
  N  N26  1  0.75682400  0.66347000  0.10518100  1
  N  N27  1  0.24317600  0.33653000  0.89481900  1
  N  N28  1  0.83501300  0.97218300  0.75213400  1
  N  N29  1  0.16498700  0.02781700  0.24786600  1
  N  N30  1  0.92937600  0.56893900  0.23606700  1
  N  N31  1  0.07062400  0.43106100  0.76393300  1
  N  N32  1  0.86945600  0.54678900  0.64566400  1
  N  N33  1  0.13054400  0.45321100  0.35433600  1
  N  N34  1  0.66722800  0.35156000  0.70840500  1
  N  N35  1  0.33277200  0.64844000  0.29159500  1
  N  N36  1  0.50528200  0.83508200  0.10597400  1
  N  N37  1  0.49471800  0.16491800  0.89402600  1
loop_
_geom_bond_atom_site_label_1
_geom_bond_atom_site_label_2
_geom_bond_distance
_geom_bond_site_symmetry_2
K0 N11 2.698915 1_555
K0 N10 2.723858 1_555
K0 N35 2.860988 1_555
K0 N14 2.925824 1_555
K0 N18 2.955576 1_555
K1 N10 2.698915 1_555
K1 N11 2.723858 1_555
K1 N34 2.860988 1_555
K1 N15 2.925824 1_555
K1 N19 2.955576 1_555
K2 N12 2.720156 1_555
K2 N5 2.780419 1_545
K2 N34 2.845410 1_555
K2 N28 2.971695 1_545
K2 N19 3.053870 1_555
K2 N2 3.152983 1_555
K3 N13 2.720156 1_555
K3 N4 2.780419 1_565
K3 N35 2.845410 1_555
K3 N29 2.971695 1_565
K3 N18 3.053870 1_555
K3 N3 3.152983 1_555
K4 N0 2.701866 1_555
K4 N4 2.804611 1_555
K4 N36 2.893037 1_545
K4 N29 3.147027 1_655
K5 N1 2.701866 1_555
K5 N5 2.804611 1_555
K5 N37 2.893037 1_565
K5 N28 3.147027 1_455
K6 N18 2.643355 1_545
K6 N21 2.954810 1_655
K6 N13 3.037088 1_645
K6 N12 3.064085 1_555
K6 N29 3.091855 1_655
K6 N4 3.092695 1_555
K7 N19 2.643355 1_565
K7 N20 2.954810 1_455
K7 N12 3.037088 1_465
K7 N13 3.064085 1_555
K7 N28 3.091855 1_455
K7 N5 3.092695 1_555
K8 N18 2.679731 1_555
K8 N30 2.704584 1_555
K8 N3 2.838503 1_655
K8 N35 2.868635 1_555
K9 N19 2.679731 1_555
K9 N31 2.704584 1_555
K9 N2 2.838503 1_455
K9 N34 2.868635 1_555
K10 N17 2.774691 1_655
K10 N37 2.837104 1_555
K10 N28 2.870404 1_545
K10 N27 3.070821 1_655
K11 N16 2.774691 1_455
K11 N36 2.837104 1_555
K11 N29 2.870404 1_565
K11 N26 3.070821 1_455
K12 N6 2.680272 1_555
K12 N24 2.767927 1_555
K12 N28 2.845671 1_555
K12 N16 2.959894 1_556
K12 N17 2.970542 1_665
K12 N1 2.977357 1_655
K13 N7 2.680272 1_555
K13 N25 2.767927 1_555
K13 N29 2.845671 1_555
K13 N17 2.959894 1_554
K13 N16 2.970542 1_445
K13 N0 2.977357 1_455
K14 N0 2.638544 1_555
K14 N37 2.698359 1_554
K14 N16 2.913125 1_545
K14 N17 2.930353 1_654
K14 N25 3.165759 1_555
K15 N1 2.638544 1_555
K15 N36 2.698359 1_556
K15 N17 2.913125 1_565
K15 N16 2.930353 1_456
K15 N24 3.165759 1_555
K16 N18 2.811933 1_555
K16 N13 2.980561 1_555
K16 N12 3.027791 1_565
K16 N14 3.054755 1_555
K16 N5 3.068235 1_555
K16 N20 3.101237 1_555
K17 N19 2.811933 1_555
K17 N12 2.980561 1_555
K17 N13 3.027791 1_545
K17 N15 3.054755 1_555
K17 N4 3.068235 1_555
K17 N21 3.101237 1_555
K18 N8 2.738188 1_555
K18 N10 2.823460 1_555
K18 N30 2.942727 1_555
K18 N7 2.959310 1_555
K19 N9 2.738188 1_555
K19 N11 2.823460 1_555
K19 N31 2.942727 1_555
K19 N6 2.959310 1_555
K20 N23 2.621349 1_655
K20 N22 2.698000 1_554
K20 N0 2.830965 1_555
K20 N27 2.906459 1_654
K20 N25 3.260591 1_655
K20 N17 3.283852 1_654
K21 N22 2.621349 1_455
K21 N23 2.698000 1_556
K21 N1 2.830965 1_555
K21 N26 2.906459 1_456
K21 N24 3.260591 1_455
K21 N16 3.283852 1_456
K22 N1 2.773373 1_655
K22 N20 2.846475 1_555
K22 N32 2.901705 1_555
K22 N31 3.066286 1_655
K22 N22 3.099832 1_555
K22 N6 3.168772 1_555
K23 N0 2.773373 1_455
K23 N21 2.846475 1_555
K23 N33 2.901705 1_555
K23 N30 3.066286 1_455
K23 N23 3.099832 1_555
K23 N7 3.168772 1_555
K24 N10 2.643393 1_555
K24 N4 2.724174 1_555
K24 N15 2.728537 1_655
K24 N33 3.129422 1_655
K24 N12 3.192955 1_555
K25 N11 2.643393 1_555
K25 N5 2.724174 1_555
K25 N14 2.728537 1_455
K25 N32 3.129422 1_455
K25 N13 3.192955 1_555
K26 N22 2.559761 1_555
K26 N34 2.655267 1_555
K26 N27 2.716549 1_555
K26 N37 2.890747 1_555
K26 N9 3.083401 1_555
K27 N23 2.559761 1_555
K27 N35 2.655267 1_555
K27 N26 2.716549 1_555
K27 N36 2.890747 1_555
K27 N8 3.083401 1_555
K28 N14 2.836016 1_455
K28 N15 2.836016 1_555
K28 N32 2.992994 1_455
K28 N33 2.992994 1_555
K28 N2 3.033076 1_455
K28 N3 3.033076 1_555
K29 N8 2.827855 1_555
K29 N9 2.827855 1_554
K29 N27 3.018003 1_554
K29 N26 3.018003 1_555
K29 N25 3.045406 1_555
K29 N24 3.045406 1_554
Cr0 N0 1.653682 1_555
Cr0 N8 1.789014 1_555
Cr0 N7 1.804873 1_555
Cr0 N25 1.813117 1_555
Cr1 N1 1.653682 1_555
Cr1 N9 1.789014 1_555
Cr1 N6 1.804873 1_555
Cr1 N24 1.813117 1_555
Cr2 N34 1.660633 1_555
Cr2 N2 1.766278 1_555
Cr2 N32 1.770455 1_555
Cr2 N31 1.851512 1_655
Cr3 N35 1.660633 1_555
Cr3 N3 1.766278 1_555
Cr3 N33 1.770455 1_555
Cr3 N30 1.851512 1_455
Cr4 N11 1.659114 1_555
Cr4 N20 1.748422 1_555
Cr4 N14 1.770506 1_555
Cr4 N32 1.843312 1_555
Cr5 N10 1.659114 1_555
Cr5 N21 1.748422 1_555
Cr5 N15 1.770506 1_555
Cr5 N33 1.843312 1_555
Cr6 N18 1.673532 1_555
Cr6 N13 1.695123 1_655
Cr6 N14 1.834978 1_555
Cr6 N3 1.851831 1_655
Cr7 N19 1.673532 1_555
Cr7 N12 1.695123 1_455
Cr7 N15 1.834978 1_555
Cr7 N2 1.851831 1_455
Cr8 N23 1.645887 1_655
Cr8 N26 1.765462 1_555
Cr8 N30 1.778253 1_555
Cr8 N8 1.845296 1_555
Cr9 N22 1.645887 1_455
Cr9 N27 1.765462 1_555
Cr9 N31 1.778253 1_555
Cr9 N9 1.845296 1_555
Cr10 N5 1.675156 1_555
Cr10 N28 1.691413 1_555
Cr10 N6 1.839458 1_555
Cr10 N20 1.875865 1_555
Cr11 N4 1.675156 1_555
Cr11 N29 1.691413 1_555
Cr11 N7 1.839458 1_555
Cr11 N21 1.875865 1_555
Cr12 N16 1.686243 1_555
Cr12 N36 1.694327 1_555
Cr12 N24 1.840034 1_554
Cr12 N26 1.860251 1_555
Cr13 N17 1.686243 1_555
Cr13 N37 1.694327 1_555
Cr13 N25 1.840034 1_556
Cr13 N27 1.860251 1_555
