# generated using pymatgen
data_Ce7Pd3
_symmetry_space_group_name_H-M   'P 1'
_cell_length_a   6.23853900
_cell_length_b   9.87192570
_cell_length_c   9.87192570
_cell_angle_alpha   119.95021093
_cell_angle_beta   90.00000000
_cell_angle_gamma   90.00000000
_symmetry_Int_Tables_number   1
_chemical_formula_structural   Ce7Pd3
_chemical_formula_sum   'Ce14 Pd6'
_cell_volume   526.78688308
_cell_formula_units_Z   2
loop_
 _symmetry_equiv_pos_site_id
 _symmetry_equiv_pos_as_xyz
  1  'x, y, z'
loop_
 _atom_site_type_symbol
 _atom_site_label
 _atom_site_symmetry_multiplicity
 _atom_site_fract_x
 _atom_site_fract_y
 _atom_site_fract_z
 _atom_site_occupancy
  Ce  Ce0  1  0.39673800  0.33378500  0.66621500  1
  Ce  Ce1  1  0.89673800  0.66621500  0.33378500  1
  Ce  Ce2  1  0.24414800  0.13134700  0.86865300  1
  Ce  Ce3  1  0.24376800  0.73672500  0.86790500  1
  Ce  Ce4  1  0.24376800  0.13209500  0.26327500  1
  Ce  Ce5  1  0.74414800  0.86865300  0.13134700  1
  Ce  Ce6  1  0.74376800  0.26327500  0.13209500  1
  Ce  Ce7  1  0.74376800  0.86790500  0.73672500  1
  Ce  Ce8  1  0.47885100  0.53800600  0.46199400  1
  Ce  Ce9  1  0.47921000  0.92339700  0.46180700  1
  Ce  Ce10  1  0.47921000  0.53819300  0.07660300  1
  Ce  Ce11  1  0.97885100  0.46199400  0.53800600  1
  Ce  Ce12  1  0.97921000  0.07660300  0.53819300  1
  Ce  Ce13  1  0.97921000  0.46180700  0.92339700  1
  Pd  Pd0  1  0.19783100  0.80958800  0.19041200  1
  Pd  Pd1  1  0.19773800  0.38090300  0.19077400  1
  Pd  Pd2  1  0.19773800  0.80922600  0.61909700  1
  Pd  Pd3  1  0.69783100  0.19041200  0.80958800  1
  Pd  Pd4  1  0.69773800  0.61909700  0.80922600  1
  Pd  Pd5  1  0.69773800  0.19077400  0.38090300  1
loop_
_geom_bond_atom_site_label_1
_geom_bond_atom_site_label_2
_geom_bond_distance
_geom_bond_site_symmetry_2
Ce0 Pd4 3.079281 1_555
Ce0 Pd5 3.079281 1_555
Ce0 Pd3 3.087895 1_555
Ce0 Ce11 3.405851 1_455
Ce0 Ce13 3.409414 1_455
Ce0 Ce12 3.409414 1_455
Ce0 Ce8 3.528417 1_555
Ce0 Ce10 3.547813 1_556
Ce0 Ce9 3.547813 1_545
Ce0 Ce3 3.576278 1_555
Ce0 Ce4 3.576278 1_555
Ce0 Ce2 3.589097 1_555
Ce1 Pd1 3.079281 1_655
Ce1 Pd2 3.079281 1_655
Ce1 Pd0 3.087895 1_655
Ce1 Ce8 3.405851 1_555
Ce1 Ce9 3.409414 1_555
Ce1 Ce10 3.409414 1_555
Ce1 Ce11 3.528417 1_555
Ce1 Ce12 3.547813 1_565
Ce1 Ce13 3.547813 1_554
Ce1 Ce6 3.576278 1_555
Ce1 Ce7 3.576278 1_555
Ce1 Ce5 3.589097 1_555
Ce2 Pd2 2.905670 1_545
Ce2 Pd1 2.905670 1_556
Ce2 Pd3 3.005022 1_555
Ce2 Pd3 3.554633 1_455
Ce3 Pd2 2.895347 1_555
Ce3 Pd0 2.906759 1_556
Ce3 Pd4 3.005524 1_555
Ce3 Pd4 3.551914 1_455
Ce4 Pd1 2.895347 1_555
Ce4 Pd0 2.906759 1_545
Ce4 Pd5 3.005524 1_555
Ce4 Pd5 3.551914 1_455
Ce5 Pd4 2.905670 1_554
Ce5 Pd5 2.905670 1_565
Ce5 Pd0 3.005022 1_655
Ce5 Pd0 3.554633 1_555
Ce6 Pd5 2.895347 1_555
Ce6 Pd3 2.906759 1_554
Ce6 Pd1 3.005524 1_655
Ce6 Pd1 3.551914 1_555
Ce7 Pd4 2.895347 1_555
Ce7 Pd3 2.906759 1_565
Ce7 Pd2 3.005524 1_655
Ce7 Pd2 3.551914 1_555
Ce8 Pd1 2.916070 1_555
Ce8 Pd2 2.916070 1_555
Ce8 Pd5 3.393483 1_555
Ce8 Pd4 3.393483 1_555
Ce9 Pd2 2.917581 1_555
Ce9 Pd0 2.918249 1_555
Ce9 Pd3 3.399915 1_565
Ce9 Pd5 3.401252 1_565
Ce10 Pd1 2.917581 1_555
Ce10 Pd0 2.918249 1_555
Ce10 Pd3 3.399915 1_554
Ce10 Pd4 3.401252 1_554
Ce11 Pd5 2.916070 1_555
Ce11 Pd4 2.916070 1_555
Ce11 Pd1 3.393483 1_655
Ce11 Pd2 3.393483 1_655
Ce12 Pd5 2.917581 1_555
Ce12 Pd3 2.918249 1_555
Ce12 Pd0 3.399915 1_645
Ce12 Pd2 3.401252 1_645
Ce13 Pd4 2.917581 1_555
Ce13 Pd3 2.918249 1_555
Ce13 Pd0 3.399915 1_656
Ce13 Pd1 3.401252 1_656
