# generated using pymatgen
data_MgBi
_symmetry_space_group_name_H-M   'P 1'
_cell_length_a   5.53879989
_cell_length_b   3.59538729
_cell_length_c   16.89860491
_cell_angle_alpha   90.00000000
_cell_angle_beta   90.00000000
_cell_angle_gamma   90.00000000
_symmetry_Int_Tables_number   1
_chemical_formula_structural   MgBi
_chemical_formula_sum   'Mg6 Bi6'
_cell_volume   336.52102727
_cell_formula_units_Z   6
loop_
 _symmetry_equiv_pos_site_id
 _symmetry_equiv_pos_as_xyz
  1  'x, y, z'
loop_
 _atom_site_type_symbol
 _atom_site_label
 _atom_site_symmetry_multiplicity
 _atom_site_fract_x
 _atom_site_fract_y
 _atom_site_fract_z
 _atom_site_occupancy
  Mg  Mg0  1  -0.00000000  0.50000000  0.16502679  1
  Mg  Mg1  1  0.50000000  0.50000000  0.39013948  1
  Mg  Mg2  1  0.50000000  0.00000000  0.22589884  1
  Mg  Mg3  1  -0.00000000  0.00000000  0.66502679  1
  Mg  Mg4  1  0.50000000  -0.00000000  0.89013948  1
  Mg  Mg5  1  0.50000000  0.50000000  0.72589884  1
  Bi  Bi0  1  -0.00000000  0.00000000  0.01430952  1
  Bi  Bi1  1  -0.00000000  0.00000000  0.31081007  1
  Bi  Bi2  1  0.50000000  0.50000000  0.06048229  1
  Bi  Bi3  1  -0.00000000  0.50000000  0.51430952  1
  Bi  Bi4  1  -0.00000000  0.50000000  0.81081007  1
  Bi  Bi5  1  0.50000000  0.00000000  0.56048229  1
loop_
_geom_bond_atom_site_label_1
_geom_bond_atom_site_label_2
_geom_bond_distance
_geom_bond_site_symmetry_2
Mg1 Mg2 3.306774 1_565
Mg1 Mg2 3.306774 1_555
Mg4 Mg5 3.306774 1_555
Mg4 Mg5 3.306774 1_545
Bi0 Mg0 3.117445 1_545
Bi0 Mg0 3.117445 1_555
Bi0 Mg4 3.474542 1_454
Bi0 Mg4 3.474542 1_554
Bi1 Mg0 3.049705 1_545
Bi1 Mg0 3.049705 1_555
Bi1 Mg2 3.119048 1_555
Bi1 Mg2 3.119048 1_455
Bi1 Mg1 3.563477 1_555
Bi1 Mg1 3.563477 1_445
Bi1 Mg1 3.563477 1_455
Bi1 Mg1 3.563477 1_545
Bi2 Mg0 3.284913 1_655
Bi2 Mg0 3.284913 1_555
Bi2 Mg2 3.323470 1_555
Bi2 Mg2 3.323470 1_565
Bi2 Mg4 3.393786 1_564
Bi2 Mg4 3.393786 1_554
Bi3 Mg3 3.117445 1_555
Bi3 Mg3 3.117445 1_565
Bi3 Mg1 3.474542 1_555
Bi3 Mg1 3.474542 1_455
Bi4 Mg3 3.049705 1_565
Bi4 Mg3 3.049705 1_555
Bi4 Mg5 3.119048 1_555
Bi4 Mg5 3.119048 1_455
Bi4 Mg4 3.563477 1_455
Bi4 Mg4 3.563477 1_555
Bi4 Mg4 3.563477 1_465
Bi4 Mg4 3.563477 1_565
Bi5 Mg3 3.284913 1_555
Bi5 Mg3 3.284913 1_655
Bi5 Mg5 3.323470 1_545
Bi5 Mg5 3.323470 1_555
Bi5 Mg1 3.393786 1_545
Bi5 Mg1 3.393786 1_555
