# generated using pymatgen
data_NaCaMn3Si5HO15
_symmetry_space_group_name_H-M   'P 1'
_cell_length_a   6.88200997
_cell_length_b   7.80432588
_cell_length_c   12.12800660
_cell_angle_alpha   110.93483247
_cell_angle_beta   84.50278834
_cell_angle_gamma   94.31812245
_symmetry_Int_Tables_number   1
_chemical_formula_structural   NaCaMn3Si5HO15
_chemical_formula_sum   'Na2 Ca2 Mn6 Si10 H2 O30'
_cell_volume   604.99958918
_cell_formula_units_Z   2
loop_
 _symmetry_equiv_pos_site_id
 _symmetry_equiv_pos_as_xyz
  1  'x, y, z'
loop_
 _atom_site_type_symbol
 _atom_site_label
 _atom_site_symmetry_multiplicity
 _atom_site_fract_x
 _atom_site_fract_y
 _atom_site_fract_z
 _atom_site_occupancy
  Na  Na0  1  0.36203700  0.52687700  0.86057900  1
  Na  Na1  1  0.63796300  0.47312300  0.13942100  1
  Ca  Ca0  1  0.28136100  0.70645000  0.47497700  1
  Ca  Ca1  1  0.71863900  0.29355000  0.52502300  1
  Mn  Mn0  1  0.13361100  0.86414700  0.05640600  1
  Mn  Mn1  1  0.86638900  0.13585300  0.94359400  1
  Mn  Mn2  1  0.06302500  0.93962800  0.34861100  1
  Mn  Mn3  1  0.93697500  0.06037200  0.65138900  1
  Mn  Mn4  1  0.17092100  0.81019400  0.76634200  1
  Mn  Mn5  1  0.82907900  0.18980600  0.23365800  1
  Si  Si0  1  0.35647200  0.20690000  0.94561700  1
  Si  Si1  1  0.64352800  0.79310000  0.05438300  1
  Si  Si2  1  0.42287700  0.12961700  0.67343100  1
  Si  Si3  1  0.57712300  0.87038300  0.32656900  1
  Si  Si4  1  0.21470800  0.35556400  0.55145400  1
  Si  Si5  1  0.78529200  0.64443600  0.44854600  1
  Si  Si6  1  0.29902500  0.27381800  0.27856400  1
  Si  Si7  1  0.70097500  0.72618200  0.72143600  1
  Si  Si8  1  0.11979600  0.48795200  0.14637300  1
  Si  Si9  1  0.88020400  0.51204800  0.85362700  1
  H  H0  1  0.47785000  0.81953800  0.89142500  1
  H  H1  1  0.52215000  0.18046200  0.10857500  1
  O  O0  1  0.55586800  0.17871600  0.99875100  1
  O  O1  1  0.44413200  0.82128400  0.00124900  1
  O  O2  1  0.17869200  0.05306800  0.93655900  1
  O  O3  1  0.82130800  0.94693200  0.06344100  1
  O  O4  1  0.41824900  0.23291700  0.81797700  1
  O  O5  1  0.58175100  0.76708300  0.18202300  1
  O  O6  1  0.24917300  0.97039100  0.64703800  1
  O  O7  1  0.75082700  0.02960900  0.35296200  1
  O  O8  1  0.35893700  0.92425100  0.38322600  1
  O  O9  1  0.64106300  0.07574900  0.61677400  1
  O  O10  1  0.37802600  0.30206400  0.62604800  1
  O  O11  1  0.62197400  0.69793600  0.37395200  1
  O  O12  1  0.16723500  0.56970000  0.61129800  1
  O  O13  1  0.83276500  0.43030000  0.38870300  1
  O  O14  1  0.03279500  0.20592300  0.52997500  1
  O  O15  1  0.96720500  0.79407700  0.47002500  1
  O  O16  1  0.33535900  0.34561000  0.42117200  1
  O  O17  1  0.66464100  0.65439000  0.57882800  1
  O  O18  1  0.13416500  0.10766000  0.23657100  1
  O  O19  1  0.86583500  0.89234000  0.76342900  1
  O  O20  1  0.48615900  0.78279100  0.79237600  1
  O  O21  1  0.51384100  0.21720900  0.20762400  1
  O  O22  1  0.23533000  0.46272100  0.25778200  1
  O  O23  1  0.76467000  0.53727900  0.74221800  1
  O  O24  1  0.07665000  0.70233300  0.17688500  1
  O  O25  1  0.92335000  0.29766700  0.82311500  1
  O  O26  1  0.06990400  0.65493000  0.88059300  1
  O  O27  1  0.93009600  0.34507000  0.11940700  1
  O  O28  1  0.28222600  0.41609400  0.02964800  1
  O  O29  1  0.71777400  0.58390600  0.97035200  1
loop_
_geom_bond_atom_site_label_1
_geom_bond_atom_site_label_2
_geom_bond_distance
_geom_bond_site_symmetry_2
Na0 O4 2.219926 1_555
Na0 O26 2.266126 1_555
Na0 O1 2.386833 1_556
Na0 O20 2.488195 1_555
Na0 O28 2.496638 1_556
Na0 O10 2.753873 1_555
Na0 O29 2.828620 1_555
Na0 O23 3.005418 1_555
Na1 O5 2.219926 1_555
Na1 O27 2.266126 1_555
Na1 O0 2.386833 1_554
Na1 O21 2.488195 1_555
Na1 O29 2.496638 1_554
Na1 O11 2.753873 1_555
Na1 O28 2.828620 1_555
Na1 O22 3.005418 1_555
Ca0 O12 2.318444 1_555
Ca0 O15 2.328629 1_455
Ca0 O8 2.348130 1_555
Ca0 O6 2.356936 1_555
Ca0 O11 2.532869 1_555
Ca0 O22 2.673157 1_555
Ca0 O16 2.700432 1_555
Ca1 O13 2.318434 1_555
Ca1 O14 2.328629 1_655
Ca1 O9 2.348130 1_555
Ca1 O7 2.356936 1_555
Ca1 O10 2.532869 1_555
Ca1 O23 2.673157 1_555
Ca1 O17 2.700432 1_555
Mn0 O1 2.190900 1_555
Mn0 O26 2.233415 1_554
Mn0 O24 2.240047 1_555
Mn0 O3 2.275665 1_455
Mn0 O18 2.327913 1_565
Mn0 O2 2.399782 1_564
Mn1 O0 2.190900 1_555
Mn1 O27 2.233415 1_556
Mn1 O25 2.240047 1_555
Mn1 O2 2.275665 1_655
Mn1 O19 2.327913 1_545
Mn1 O3 2.399782 1_546
Mn2 O8 2.138798 1_555
Mn2 O15 2.188591 1_455
Mn2 O18 2.203416 1_565
Mn2 O24 2.237972 1_555
Mn2 O7 2.300260 1_465
Mn2 O14 2.431321 1_565
Mn3 O9 2.138798 1_555
Mn3 O14 2.188591 1_655
Mn3 O19 2.203416 1_545
Mn3 O25 2.237972 1_555
Mn3 O6 2.300260 1_645
Mn3 O15 2.431321 1_545
Mn4 O12 2.130516 1_555
Mn4 O26 2.181746 1_555
Mn4 O6 2.233541 1_555
Mn4 O19 2.248041 1_455
Mn4 O2 2.250999 1_565
Mn4 O20 2.258627 1_555
Mn5 O13 2.130523 1_555
Mn5 O27 2.181746 1_555
Mn5 O7 2.233541 1_555
Mn5 O18 2.248041 1_655
Mn5 O3 2.250999 1_545
Mn5 O21 2.258627 1_555
H0 O20 1.127687 1_555
H0 O1 1.325293 1_556
H0 Na0 2.272520 1_555
H1 O21 1.127687 1_555
H1 O0 1.325293 1_554
H1 Na1 2.272520 1_555
O0 Si0 1.631830 1_555
O1 Si1 1.631830 1_555
O2 Si0 1.631142 1_555
O3 Si1 1.631142 1_555
O4 Si0 1.644342 1_555
O4 Si2 1.645408 1_555
O5 Si1 1.644342 1_555
O5 Si3 1.645408 1_555
O6 Si2 1.625137 1_565
O7 Si3 1.625137 1_545
O8 Si3 1.610751 1_555
O9 Si2 1.610751 1_555
O10 Si4 1.670768 1_555
O10 Si2 1.698822 1_555
O11 Si5 1.670768 1_555
O11 Si3 1.698822 1_555
O12 Si4 1.611332 1_555
O13 Si5 1.611331 1_555
O14 Si4 1.619865 1_555
O15 Si5 1.619865 1_555
O16 Si6 1.654408 1_555
O16 Si4 1.691950 1_555
O17 Si7 1.654408 1_555
O17 Si5 1.691950 1_555
O18 Si6 1.626467 1_555
O19 Si7 1.626467 1_555
O20 Si7 1.644385 1_555
O21 Si6 1.644385 1_555
O22 Si6 1.677242 1_555
O22 Si8 1.707679 1_555
O23 Si7 1.677242 1_555
O23 Si9 1.707679 1_555
O24 Si8 1.623480 1_555
O25 Si9 1.623480 1_555
O26 Si9 1.629953 1_455
O27 Si8 1.629953 1_655
O28 Si8 1.670928 1_555
O28 Si0 1.673915 1_554
O29 Si9 1.670928 1_555
O29 Si1 1.673915 1_556
