# generated using pymatgen
data_Sc2CuB2Ir5
_symmetry_space_group_name_H-M   'P 1'
_cell_length_a   9.35977400
_cell_length_b   9.35977400
_cell_length_c   3.05941000
_cell_angle_alpha   90.00000000
_cell_angle_beta   90.00000000
_cell_angle_gamma   90.00000000
_symmetry_Int_Tables_number   1
_chemical_formula_structural   Sc2CuB2Ir5
_chemical_formula_sum   'Sc4 Cu2 B4 Ir10'
_cell_volume   268.02074299
_cell_formula_units_Z   2
loop_
 _symmetry_equiv_pos_site_id
 _symmetry_equiv_pos_as_xyz
  1  'x, y, z'
loop_
 _atom_site_type_symbol
 _atom_site_label
 _atom_site_symmetry_multiplicity
 _atom_site_fract_x
 _atom_site_fract_y
 _atom_site_fract_z
 _atom_site_occupancy
  Sc  Sc0  1  0.67568200  0.17568200  0.00000000  1
  Sc  Sc1  1  0.32431800  0.82431800  0.00000000  1
  Sc  Sc2  1  0.17568200  0.32431800  0.00000000  1
  Sc  Sc3  1  0.82431800  0.67568200  0.00000000  1
  Cu  Cu0  1  0.00000000  0.00000000  0.00000000  1
  Cu  Cu1  1  0.50000000  0.50000000  0.00000000  1
  B  B0  1  0.12653900  0.62653900  0.00000000  1
  B  B1  1  0.87346100  0.37346100  0.00000000  1
  B  B2  1  0.62653900  0.87346100  0.00000000  1
  B  B3  1  0.37346100  0.12653900  0.00000000  1
  Ir  Ir0  1  0.21499900  0.07067800  0.50000000  1
  Ir  Ir1  1  0.78500100  0.92932200  0.50000000  1
  Ir  Ir2  1  0.07067800  0.78500100  0.50000000  1
  Ir  Ir3  1  0.71499900  0.42932200  0.50000000  1
  Ir  Ir4  1  0.92932200  0.21499900  0.50000000  1
  Ir  Ir5  1  0.28500100  0.57067800  0.50000000  1
  Ir  Ir6  1  0.57067800  0.71499900  0.50000000  1
  Ir  Ir7  1  0.42932200  0.28500100  0.50000000  1
  Ir  Ir8  1  0.50000000  0.00000000  0.50000000  1
  Ir  Ir9  1  0.00000000  0.50000000  0.50000000  1
loop_
_geom_bond_atom_site_label_1
_geom_bond_atom_site_label_2
_geom_bond_distance
_geom_bond_site_symmetry_2
Cu0 Ir2 2.612880 1_544
Cu0 Ir0 2.612880 1_554
Cu0 Ir2 2.612880 1_545
Cu0 Ir0 2.612880 1_555
Cu0 Ir4 2.612880 1_454
Cu0 Ir4 2.612880 1_455
Cu0 Ir1 2.612880 1_444
Cu0 Ir1 2.612880 1_445
Cu1 Ir3 2.612880 1_555
Cu1 Ir6 2.612880 1_555
Cu1 Ir3 2.612880 1_554
Cu1 Ir6 2.612880 1_554
Cu1 Ir7 2.612880 1_554
Cu1 Ir5 2.612880 1_554
Cu1 Ir7 2.612880 1_555
Cu1 Ir5 2.612880 1_555
B0 Ir2 2.193890 1_555
B0 Ir2 2.193890 1_554
B0 Ir5 2.193890 1_555
B0 Ir5 2.193890 1_554
B0 Ir9 2.268368 1_554
B0 Ir9 2.268368 1_555
B0 Sc1 2.617945 1_555
B0 Sc3 2.865873 1_455
B0 Sc2 2.865873 1_555
B1 Ir3 2.193890 1_554
B1 Ir3 2.193890 1_555
B1 Ir4 2.193890 1_555
B1 Ir4 2.193890 1_554
B1 Ir9 2.268368 1_655
B1 Ir9 2.268368 1_654
B1 Sc0 2.617945 1_555
B1 Sc3 2.865873 1_555
B1 Sc2 2.865873 1_655
B2 Ir6 2.193890 1_554
B2 Ir6 2.193890 1_555
B2 Ir1 2.193890 1_555
B2 Ir1 2.193890 1_554
B2 Ir8 2.268368 1_565
B2 Ir8 2.268368 1_564
B2 Sc3 2.617945 1_555
B2 Sc1 2.865873 1_555
B2 Sc0 2.865873 1_565
B3 Ir0 2.193890 1_555
B3 Ir0 2.193890 1_554
B3 Ir7 2.193890 1_555
B3 Ir7 2.193890 1_554
B3 Ir8 2.268368 1_554
B3 Ir8 2.268368 1_555
B3 Sc2 2.617945 1_555
B3 Sc1 2.865873 1_545
B3 Sc0 2.865873 1_555
Ir0 Sc2 2.848045 1_555
Ir0 Sc2 2.848045 1_556
Ir0 Sc1 2.950253 1_545
Ir0 Sc1 2.950253 1_546
Ir1 Sc3 2.848045 1_556
Ir1 Sc3 2.848045 1_555
Ir1 Sc0 2.950253 1_565
Ir1 Sc0 2.950253 1_566
Ir2 Sc1 2.848045 1_555
Ir2 Sc1 2.848045 1_556
Ir2 Sc3 2.950253 1_455
Ir2 Sc3 2.950253 1_456
Ir3 Sc0 2.848045 1_555
Ir3 Sc0 2.848045 1_556
Ir3 Sc3 2.950253 1_556
Ir3 Sc3 2.950253 1_555
Ir4 Sc0 2.848045 1_555
Ir4 Sc0 2.848045 1_556
Ir4 Sc2 2.950253 1_656
Ir4 Sc2 2.950253 1_655
Ir5 Sc1 2.848045 1_555
Ir5 Sc1 2.848045 1_556
Ir5 Sc2 2.950253 1_556
Ir5 Sc2 2.950253 1_555
Ir6 Sc3 2.848045 1_555
Ir6 Sc3 2.848045 1_556
Ir6 Sc1 2.950253 1_555
Ir6 Sc1 2.950253 1_556
Ir7 Sc2 2.848045 1_555
Ir7 Sc2 2.848045 1_556
Ir7 Sc0 2.950253 1_555
Ir7 Sc0 2.950253 1_556
Ir8 Sc1 2.783475 1_545
Ir8 Sc0 2.783475 1_555
Ir8 Sc0 2.783475 1_556
Ir8 Sc1 2.783475 1_546
Ir9 Sc2 2.783475 1_556
Ir9 Sc3 2.783475 1_455
Ir9 Sc3 2.783475 1_456
Ir9 Sc2 2.783475 1_555
