# generated using pymatgen
data_ErNiGe
_symmetry_space_group_name_H-M   'P 1'
_cell_length_a   5.48489031
_cell_length_b   5.48489031
_cell_length_c   6.82718713
_cell_angle_alpha   51.87162352
_cell_angle_beta   51.87162352
_cell_angle_gamma   44.21409762
_symmetry_Int_Tables_number   1
_chemical_formula_structural   ErNiGe
_chemical_formula_sum   'Er2 Ni2 Ge2'
_cell_volume   106.78638774
_cell_formula_units_Z   2
loop_
 _symmetry_equiv_pos_site_id
 _symmetry_equiv_pos_as_xyz
  1  'x, y, z'
loop_
 _atom_site_type_symbol
 _atom_site_label
 _atom_site_symmetry_multiplicity
 _atom_site_fract_x
 _atom_site_fract_y
 _atom_site_fract_z
 _atom_site_occupancy
  Er  Er0  1  0.54801000  0.54801000  0.19261500  1
  Er  Er1  1  0.45199000  0.45199000  0.80738500  1
  Ni  Ni0  1  0.83146000  0.83146000  0.21978900  1
  Ni  Ni1  1  0.16854000  0.16854000  0.78021100  1
  Ge  Ge0  1  0.17078600  0.17078600  0.39218300  1
  Ge  Ge1  1  0.82921400  0.82921400  0.60781700  1
loop_
_geom_bond_atom_site_label_1
_geom_bond_atom_site_label_2
_geom_bond_distance
_geom_bond_site_symmetry_2
Er0 Ni0 2.931694 1_455
Er0 Ni0 2.931694 1_545
Er0 Ge1 2.973129 1_545
Er0 Ge1 2.973129 1_455
Er0 Ge1 2.983266 1_554
Er0 Ni0 3.007607 1_555
Er0 Ni1 3.015260 1_564
Er0 Ni1 3.015260 1_654
Er0 Ge0 3.097186 1_555
Er0 Ge0 3.152810 1_565
Er0 Ge0 3.152810 1_655
Er0 Ni1 3.216523 1_555
Er1 Ni1 2.931694 1_655
Er1 Ni1 2.931694 1_565
Er1 Ge0 2.973129 1_655
Er1 Ge0 2.973129 1_565
Er1 Ge0 2.983266 1_556
Er1 Ni1 3.007607 1_555
Er1 Ni0 3.015260 1_546
Er1 Ni0 3.015260 1_456
Er1 Ge1 3.097186 1_555
Er1 Ge1 3.152810 1_545
Er1 Ge1 3.152810 1_455
Er1 Ni0 3.216523 1_555
Ni0 Ni1 2.653240 1_664
Ge0 Ni0 2.398129 1_455
Ge0 Ni0 2.398129 1_545
Ge0 Ni1 2.633983 1_555
Ge0 Ge1 2.721570 1_445
Ge1 Ni1 2.398129 1_655
Ge1 Ni1 2.398129 1_565
Ge1 Ni0 2.633983 1_555
