# generated using pymatgen
data_Rb2AgPS4
_symmetry_space_group_name_H-M   'P 1'
_cell_length_a   6.72437100
_cell_length_b   7.03628932
_cell_length_c   11.14737588
_cell_angle_alpha   95.62048203
_cell_angle_beta   106.98833572
_cell_angle_gamma   111.13388023
_symmetry_Int_Tables_number   1
_chemical_formula_structural   Rb2AgPS4
_chemical_formula_sum   'Rb4 Ag2 P2 S8'
_cell_volume   458.11234244
_cell_formula_units_Z   2
loop_
 _symmetry_equiv_pos_site_id
 _symmetry_equiv_pos_as_xyz
  1  'x, y, z'
loop_
 _atom_site_type_symbol
 _atom_site_label
 _atom_site_symmetry_multiplicity
 _atom_site_fract_x
 _atom_site_fract_y
 _atom_site_fract_z
 _atom_site_occupancy
  Rb  Rb0  1  0.84936300  0.72874300  0.10048300  1
  Rb  Rb1  1  0.15063700  0.27125700  0.89951700  1
  Rb  Rb2  1  0.44077000  0.97803100  0.68782500  1
  Rb  Rb3  1  0.55923000  0.02196900  0.31217500  1
  Ag  Ag0  1  0.77945700  0.58732000  0.41682000  1
  Ag  Ag1  1  0.22054300  0.41268000  0.58318000  1
  P  P0  1  0.86652800  0.64281100  0.73248600  1
  P  P1  1  0.13347200  0.35718900  0.26751400  1
  S  S0  1  0.14680800  0.76796700  0.89734600  1
  S  S1  1  0.85319200  0.23203300  0.10265400  1
  S  S2  1  0.57296000  0.55969400  0.77970200  1
  S  S3  1  0.42704000  0.44030600  0.22029800  1
  S  S4  1  0.87535600  0.86085300  0.62105200  1
  S  S5  1  0.12464400  0.13914700  0.37894800  1
  S  S6  1  0.85112500  0.37481700  0.62616200  1
  S  S7  1  0.14887500  0.62518300  0.37383800  1
loop_
_geom_bond_atom_site_label_1
_geom_bond_atom_site_label_2
_geom_bond_distance
_geom_bond_site_symmetry_2
Rb0 S2 3.368249 1_554
Rb0 S0 3.402265 1_654
Rb0 S7 3.432142 1_655
Rb0 S1 3.506755 1_555
Rb0 S5 3.526060 1_665
Rb0 S1 3.529747 1_565
Rb0 S3 3.543863 1_555
Rb1 S3 3.368249 1_556
Rb1 S1 3.402265 1_456
Rb1 S6 3.432142 1_455
Rb1 S0 3.506755 1_555
Rb1 S4 3.526060 1_445
Rb1 S0 3.529747 1_545
Rb1 S2 3.543863 1_555
Rb2 S4 3.413944 1_455
Rb2 S6 3.436624 1_565
Rb2 S2 3.528285 1_555
Rb2 S4 3.558386 1_555
Rb2 S0 3.579716 1_555
Rb2 S7 3.610652 1_555
Rb2 S2 3.822730 1_565
Rb3 S5 3.413944 1_655
Rb3 S7 3.436624 1_545
Rb3 S3 3.528285 1_555
Rb3 S5 3.558386 1_555
Rb3 S1 3.579716 1_555
Rb3 S6 3.610652 1_555
Rb3 S3 3.822730 1_545
Ag0 S3 2.497973 1_555
Ag0 S4 2.586913 1_555
Ag0 S7 2.591257 1_655
Ag0 S6 2.908545 1_555
Ag0 Rb3 3.634794 1_555
Ag1 S2 2.497973 1_555
Ag1 S5 2.586913 1_555
Ag1 S6 2.591257 1_455
Ag1 S7 2.908545 1_555
Ag1 Rb2 3.634794 1_555
P0 S0 2.041362 1_655
P0 S4 2.061816 1_555
P0 S6 2.078690 1_555
P0 S2 2.085885 1_555
P1 S1 2.041362 1_455
P1 S5 2.061816 1_555
P1 S7 2.078690 1_555
P1 S3 2.085885 1_555
