# generated using pymatgen
data_P4W3O14
_symmetry_space_group_name_H-M   'P 1'
_cell_length_a   8.14036600
_cell_length_b   7.63856700
_cell_length_c   9.75324319
_cell_angle_alpha   71.10666464
_cell_angle_beta   90.00000000
_cell_angle_gamma   90.00000000
_symmetry_Int_Tables_number   1
_chemical_formula_structural   P4W3O14
_chemical_formula_sum   'P8 W6 O28'
_cell_volume   573.78936062
_cell_formula_units_Z   2
loop_
 _symmetry_equiv_pos_site_id
 _symmetry_equiv_pos_as_xyz
  1  'x, y, z'
loop_
 _atom_site_type_symbol
 _atom_site_label
 _atom_site_symmetry_multiplicity
 _atom_site_fract_x
 _atom_site_fract_y
 _atom_site_fract_z
 _atom_site_occupancy
  P  P0  1  0.69892600  0.87439800  0.30344800  1
  P  P1  1  0.06440500  0.58701800  0.79467500  1
  P  P2  1  0.43559500  0.58701800  0.29467500  1
  P  P3  1  0.56440500  0.41298200  0.70532500  1
  P  P4  1  0.93559500  0.41298200  0.20532500  1
  P  P5  1  0.30107400  0.12560200  0.69655200  1
  P  P6  1  0.80107400  0.87439800  0.80344800  1
  P  P7  1  0.19892600  0.12560200  0.19655200  1
  W  W0  1  0.63046100  0.19548100  0.47112000  1
  W  W1  1  0.86953900  0.19548100  0.97112000  1
  W  W2  1  0.13046100  0.80451900  0.02888000  1
  W  W3  1  0.50000000  0.00000000  0.00000000  1
  W  W4  1  0.36953900  0.80451900  0.52888000  1
  W  W5  1  0.00000000  0.00000000  0.50000000  1
  O  O0  1  0.64775800  0.31635900  0.85069200  1
  O  O1  1  0.71013200  0.00142700  0.14179200  1
  O  O2  1  0.07309600  0.04179600  0.11156900  1
  O  O3  1  0.36272600  0.15443800  0.12164200  1
  O  O4  1  0.78986800  0.00142700  0.64179200  1
  O  O5  1  0.42690400  0.04179600  0.61156900  1
  O  O6  1  0.28986800  0.99857300  0.85820800  1
  O  O7  1  0.92690400  0.95820400  0.88843100  1
  O  O8  1  0.63727400  0.84556200  0.87835800  1
  O  O9  1  0.21013200  0.99857300  0.35820800  1
  O  O10  1  0.57309600  0.95820400  0.38843100  1
  O  O11  1  0.88306600  0.68963900  0.79381100  1
  O  O12  1  0.16107200  0.61049900  0.92129300  1
  O  O13  1  0.86272600  0.84556200  0.37835800  1
  O  O14  1  0.14775800  0.68364100  0.64930800  1
  O  O15  1  0.51851900  0.61225500  0.68602600  1
  O  O16  1  0.61693400  0.68963900  0.29381100  1
  O  O17  1  0.83892800  0.38950100  0.07870700  1
  O  O18  1  0.35224200  0.68364100  0.14930800  1
  O  O19  1  0.01851900  0.38774500  0.81397400  1
  O  O20  1  0.98148100  0.61225500  0.18602600  1
  O  O21  1  0.11693400  0.31036100  0.20618900  1
  O  O22  1  0.66107200  0.38950100  0.57870700  1
  O  O23  1  0.38306600  0.31036100  0.70618900  1
  O  O24  1  0.48148100  0.38774500  0.31397400  1
  O  O25  1  0.85224200  0.31635900  0.35069200  1
  O  O26  1  0.13727400  0.15443800  0.62164200  1
  O  O27  1  0.33892800  0.61049900  0.42129300  1
loop_
_geom_bond_atom_site_label_1
_geom_bond_atom_site_label_2
_geom_bond_distance
_geom_bond_site_symmetry_2
O0 P3 1.528923 1_555
O0 W1 2.188422 1_555
O0 W3 2.669831 1_556
O1 P0 1.563637 1_545
O1 W3 2.201901 1_555
O1 W1 2.248112 1_554
O2 P7 1.577856 1_555
O2 W1 2.226855 1_454
O2 W2 2.258343 1_545
O3 P7 1.502009 1_555
O3 W3 2.225830 1_555
O4 P6 1.563637 1_545
O4 W5 2.201901 1_655
O4 W0 2.248112 1_555
O5 P5 1.577856 1_555
O5 W0 2.226855 1_555
O5 W4 2.258343 1_545
O6 P5 1.563637 1_565
O6 W3 2.201901 1_566
O6 W2 2.248112 1_556
O7 P6 1.577856 1_555
O7 W2 2.226855 1_656
O7 W1 2.258343 1_565
O8 P6 1.502009 1_555
O8 W3 2.225830 1_566
O9 P7 1.563637 1_565
O9 W5 2.201901 1_565
O9 W4 2.248112 1_555
O10 P0 1.577856 1_555
O10 W4 2.226855 1_555
O10 W0 2.258343 1_565
O11 P6 1.591218 1_555
O11 P1 1.670126 1_655
O12 P1 1.523123 1_555
O12 W2 2.089671 1_556
O13 P0 1.502009 1_555
O13 W5 2.225830 1_665
O14 P1 1.528923 1_555
O14 W4 2.188422 1_555
O14 W5 2.669831 1_565
O15 P3 1.518675 1_555
O15 W4 2.125793 1_555
O16 P0 1.591218 1_555
O16 P2 1.670126 1_555
O17 P4 1.523123 1_555
O17 W1 2.089671 1_554
O18 P2 1.528923 1_555
O18 W2 2.188422 1_555
O18 W3 2.669831 1_565
O19 P1 1.518675 1_555
O19 W1 2.125793 1_455
O20 P4 1.518675 1_555
O20 W2 2.125793 1_655
O21 P7 1.591218 1_555
O21 P4 1.670126 1_455
O22 P3 1.523123 1_555
O22 W0 2.089671 1_555
O23 P5 1.591218 1_555
O23 P3 1.670126 1_555
O24 P2 1.518675 1_555
O24 W0 2.125793 1_555
O25 P4 1.528923 1_555
O25 W0 2.188422 1_555
O25 W5 2.669831 1_655
O26 P5 1.502009 1_555
O26 W5 2.225830 1_555
O27 P2 1.523123 1_555
O27 W4 2.089671 1_555
