# generated using pymatgen
data_ZnCu4(WO4)5
_symmetry_space_group_name_H-M   'P 1'
_cell_length_a   4.75147778
_cell_length_b   19.52363817
_cell_length_c   7.57765437
_cell_angle_alpha   91.24548612
_cell_angle_beta   87.44502293
_cell_angle_gamma   83.67892000
_symmetry_Int_Tables_number   1
_chemical_formula_structural   ZnCu4(WO4)5
_chemical_formula_sum   'Zn2 Cu8 W10 O40'
_cell_volume   697.73023510
_cell_formula_units_Z   2
loop_
 _symmetry_equiv_pos_site_id
 _symmetry_equiv_pos_as_xyz
  1  'x, y, z'
loop_
 _atom_site_type_symbol
 _atom_site_label
 _atom_site_symmetry_multiplicity
 _atom_site_fract_x
 _atom_site_fract_y
 _atom_site_fract_z
 _atom_site_occupancy
  Zn  Zn0  1  0.48934900  0.21205600  0.89924500  1
  Zn  Zn1  1  0.48615400  0.41234600  0.49781100  1
  Cu  Cu0  1  0.50235400  0.61959800  0.10608100  1
  Cu  Cu1  1  0.50396800  0.81944600  0.70616200  1
  Cu  Cu2  1  0.50598400  0.01907100  0.30581100  1
  Cu  Cu3  1  0.49941000  0.18082900  0.29539600  1
  Cu  Cu4  1  0.49754900  0.38060100  0.89575700  1
  Cu  Cu5  1  0.49490300  0.57995400  0.49350400  1
  Cu  Cu6  1  0.49603200  0.78009200  0.09357600  1
  Cu  Cu7  1  0.49554200  0.97969300  0.69386000  1
  W  W0  1  0.99393900  0.31810800  0.19457200  1
  W  W1  1  0.98907600  0.51684100  0.79675300  1
  W  W2  1  0.99381700  0.71699900  0.39830800  1
  W  W3  1  0.99389000  0.91672900  0.99873900  1
  W  W4  1  0.99889500  0.11808300  0.59619200  1
  W  W5  1  0.01076400  0.08257200  0.00328500  1
  W  W6  1  0.00777400  0.28403400  0.60174100  1
  W  W7  1  0.00351400  0.48436200  0.20006400  1
  W  W8  1  0.00690400  0.68277500  0.80138900  1
  W  W9  1  0.00657500  0.88268000  0.40212700  1
  O  O0  1  0.78933400  0.21015100  0.69540500  1
  O  O1  1  0.78499500  0.41026900  0.29426300  1
  O  O2  1  0.78110200  0.61046100  0.89866800  1
  O  O3  1  0.78246000  0.81037200  0.49985600  1
  O  O4  1  0.78512900  0.01017000  0.09960600  1
  O  O5  1  0.22384900  0.19031100  0.49943300  1
  O  O6  1  0.21895300  0.39037100  0.09905800  1
  O  O7  1  0.21433300  0.58996600  0.69960000  1
  O  O8  1  0.21732500  0.79013000  0.30029800  1
  O  O9  1  0.21805900  0.98996000  0.89978100  1
  O  O10  1  0.74668800  0.31234100  0.01867800  1
  O  O11  1  0.74448600  0.51316400  0.61749800  1
  O  O12  1  0.75012700  0.71591500  0.21900000  1
  O  O13  1  0.74934100  0.91590200  0.81977300  1
  O  O14  1  0.75270400  0.11504200  0.42004500  1
  O  O15  1  0.25384100  0.08376000  0.18230900  1
  O  O16  1  0.24767200  0.28662700  0.78067600  1
  O  O17  1  0.24264700  0.48741600  0.37960600  1
  O  O18  1  0.25088200  0.68454400  0.98041300  1
  O  O19  1  0.25033100  0.88437100  0.58112100  1
  O  O20  1  0.22336300  0.13210000  0.83694600  1
  O  O21  1  0.22062000  0.33286500  0.43537400  1
  O  O22  1  0.21200300  0.53021800  0.03112000  1
  O  O23  1  0.21455700  0.72962600  0.63230800  1
  O  O24  1  0.21377600  0.92937300  0.23247300  1
  O  O25  1  0.78972700  0.27297300  0.36902300  1
  O  O26  1  0.78065000  0.47123000  0.96690500  1
  O  O27  1  0.78487200  0.67087700  0.56722800  1
  O  O28  1  0.78451900  0.87071900  0.16739800  1
  O  O29  1  0.79374700  0.07259200  0.76918900  1
  O  O30  1  0.26646800  0.24276000  0.14009900  1
  O  O31  1  0.26396800  0.44275700  0.73873900  1
  O  O32  1  0.26727400  0.64247900  0.33373500  1
  O  O33  1  0.26685900  0.84185900  0.93323000  1
  O  O34  1  0.27088800  0.04223500  0.53482700  1
  O  O35  1  0.73755200  0.15578600  0.07398700  1
  O  O36  1  0.73385000  0.35652900  0.67292300  1
  O  O37  1  0.72872900  0.55866000  0.26558000  1
  O  O38  1  0.73336500  0.75818400  0.86663300  1
  O  O39  1  0.73256300  0.95806600  0.46682500  1
loop_
_geom_bond_atom_site_label_1
_geom_bond_atom_site_label_2
_geom_bond_distance
_geom_bond_site_symmetry_2
Cu0 O18 1.939745 1_554
Cu0 O37 1.982377 1_555
Cu0 O2 2.001618 1_554
Cu0 O32 2.026806 1_555
Cu0 O22 2.414112 1_555
Cu0 O12 2.482265 1_555
Cu1 O19 1.942821 1_555
Cu1 O3 1.994551 1_555
Cu1 O38 1.997890 1_555
Cu1 O33 2.026633 1_555
Cu1 O23 2.415841 1_555
Cu1 O13 2.479768 1_555
Cu2 O15 1.929869 1_555
Cu2 O39 1.991032 1_545
Cu2 O4 1.995905 1_555
Cu2 O34 2.036116 1_555
Cu2 O24 2.421827 1_545
Cu2 O14 2.477490 1_555
Cu3 O14 1.950391 1_555
Cu3 O5 1.973015 1_555
Cu3 O30 1.988752 1_555
Cu3 O35 2.001886 1_555
Cu3 O25 2.453955 1_555
Cu3 O15 2.488538 1_555
Cu4 O10 1.962107 1_556
Cu4 O6 1.977819 1_556
Cu4 O31 2.001002 1_555
Cu4 O36 2.003252 1_555
Cu4 O26 2.403785 1_555
Cu4 O16 2.457378 1_555
Cu5 O11 1.949772 1_555
Cu5 O7 1.999533 1_555
Cu5 O32 2.003982 1_555
Cu5 O37 2.021429 1_555
Cu5 O27 2.434255 1_555
Cu5 O17 2.438624 1_555
Cu6 O12 1.936965 1_555
Cu6 O8 1.997618 1_555
Cu6 O33 2.002200 1_554
Cu6 O38 2.025064 1_554
Cu6 O28 2.425266 1_555
Cu6 O18 2.463740 1_554
Cu7 O13 1.933707 1_555
Cu7 O9 1.989505 1_555
Cu7 O34 1.993562 1_565
Cu7 O39 2.024187 1_555
Cu7 O19 2.459237 1_555
Cu7 O29 2.493206 1_565
O0 W6 1.992541 1_655
O0 Zn0 2.051459 1_555
O0 W4 2.065934 1_555
O1 W7 1.997412 1_655
O1 Zn1 2.046033 1_555
O1 W0 2.067496 1_555
O2 W8 1.999008 1_655
O2 W1 2.094434 1_555
O3 W9 1.995368 1_655
O3 W2 2.095449 1_555
O4 W5 1.997261 1_655
O4 W3 2.090345 1_544
O5 W4 1.993883 1_455
O5 W6 2.111160 1_555
O6 W0 1.991214 1_455
O6 W7 2.111051 1_555
O7 W1 2.009396 1_455
O7 W8 2.080333 1_555
O8 W2 2.006899 1_455
O8 W9 2.082104 1_555
O9 W3 2.012881 1_455
O9 W5 2.081327 1_566
O10 W0 1.825263 1_555
O11 W1 1.831862 1_555
O12 W2 1.825300 1_555
O13 W3 1.825713 1_555
O14 W4 1.817852 1_555
O15 W5 1.821824 1_555
O16 W6 1.813249 1_555
O16 Zn0 2.006552 1_555
O17 W7 1.815153 1_555
O17 Zn1 2.016224 1_555
O18 W8 1.825478 1_555
O19 W9 1.824486 1_555
O20 W5 1.923216 1_556
O20 Zn0 2.170834 1_555
O20 W4 2.180993 1_455
O21 W6 1.916212 1_555
O21 Zn1 2.162418 1_555
O21 W0 2.189376 1_455
O22 W7 1.885160 1_555
O22 W1 2.133695 1_454
O23 W8 1.894391 1_555
O23 W2 2.123375 1_455
O24 W9 1.894401 1_555
O24 W3 2.119497 1_454
O25 W0 1.894748 1_555
O25 W6 2.103665 1_655
O26 W1 1.888498 1_555
O26 W7 2.124981 1_656
O27 W2 1.889074 1_555
O27 W8 2.125640 1_655
O28 W3 1.887670 1_554
O28 W9 2.129561 1_655
O29 W4 1.893349 1_555
O29 W5 2.107190 1_656
O30 W0 1.875558 1_455
O30 Zn0 2.110024 1_554
O31 W1 1.869886 1_455
O31 Zn1 2.107874 1_555
O32 W2 1.881626 1_455
O33 W3 1.886503 1_455
O34 W4 1.890601 1_455
O35 W5 1.873913 1_655
O35 Zn0 2.065971 1_554
O36 W6 1.867297 1_655
O36 Zn1 2.062316 1_555
O37 W7 1.883922 1_655
O38 W8 1.894978 1_655
O39 W9 1.895112 1_655
