# generated using pymatgen
data_Yb5P12Ir19
_symmetry_space_group_name_H-M   'P 1'
_cell_length_a   12.66523453
_cell_length_b   12.66523453
_cell_length_c   3.98458400
_cell_angle_alpha   90.00000000
_cell_angle_beta   90.00000000
_cell_angle_gamma   120.00000276
_symmetry_Int_Tables_number   1
_chemical_formula_structural   Yb5P12Ir19
_chemical_formula_sum   'Yb5 P12 Ir19'
_cell_volume   553.52861750
_cell_formula_units_Z   1
loop_
 _symmetry_equiv_pos_site_id
 _symmetry_equiv_pos_as_xyz
  1  'x, y, z'
loop_
 _atom_site_type_symbol
 _atom_site_label
 _atom_site_symmetry_multiplicity
 _atom_site_fract_x
 _atom_site_fract_y
 _atom_site_fract_z
 _atom_site_occupancy
  Yb  Yb0  1  0.33333300  0.66666700  0.00000000  1
  Yb  Yb1  1  0.66666700  0.33333300  0.00000000  1
  Yb  Yb2  1  0.18305000  0.18305000  0.50000000  1
  Yb  Yb3  1  0.81695000  0.00000000  0.50000000  1
  Yb  Yb4  1  0.00000000  0.81695000  0.50000000  1
  P  P0  1  0.82025700  0.82025700  0.00000000  1
  P  P1  1  0.17974300  0.00000000  0.00000000  1
  P  P2  1  0.00000000  0.17974300  0.00000000  1
  P  P3  1  0.31095200  0.82698700  0.50000000  1
  P  P4  1  0.17301300  0.48396500  0.50000000  1
  P  P5  1  0.51603500  0.68904800  0.50000000  1
  P  P6  1  0.82698700  0.31095200  0.50000000  1
  P  P7  1  0.48396500  0.17301300  0.50000000  1
  P  P8  1  0.68904800  0.51603500  0.50000000  1
  P  P9  1  0.35816100  0.35816100  0.00000000  1
  P  P10  1  0.64183900  0.00000000  0.00000000  1
  P  P11  1  0.00000000  0.64183900  0.00000000  1
  Ir  Ir0  1  0.19664700  0.81888200  0.00000000  1
  Ir  Ir1  1  0.18111800  0.37776500  0.00000000  1
  Ir  Ir2  1  0.62223500  0.80335300  0.00000000  1
  Ir  Ir3  1  0.81888200  0.19664700  0.00000000  1
  Ir  Ir4  1  0.37776500  0.18111800  0.00000000  1
  Ir  Ir5  1  0.80335300  0.62223500  0.00000000  1
  Ir  Ir6  1  0.71446400  0.71446400  0.50000000  1
  Ir  Ir7  1  0.28553600  0.00000000  0.50000000  1
  Ir  Ir8  1  0.00000000  0.28553600  0.50000000  1
  Ir  Ir9  1  0.13065900  0.63825400  0.50000000  1
  Ir  Ir10  1  0.36174600  0.49240400  0.50000000  1
  Ir  Ir11  1  0.50759600  0.86934100  0.50000000  1
  Ir  Ir12  1  0.63825400  0.13065900  0.50000000  1
  Ir  Ir13  1  0.49240400  0.36174600  0.50000000  1
  Ir  Ir14  1  0.86934100  0.50759600  0.50000000  1
  Ir  Ir15  1  0.53930300  0.53930300  0.00000000  1
  Ir  Ir16  1  0.46069700  0.00000000  0.00000000  1
  Ir  Ir17  1  0.00000000  0.46069700  0.00000000  1
  Ir  Ir18  1  0.00000000  0.00000000  0.00000000  1
loop_
_geom_bond_atom_site_label_1
_geom_bond_atom_site_label_2
_geom_bond_distance
_geom_bond_site_symmetry_2
P0 Yb4 3.041172 1_655
P0 Yb4 3.041172 1_654
P0 Yb3 3.041172 1_565
P0 Yb3 3.041172 1_564
P1 Yb4 3.041171 1_545
P1 Yb4 3.041171 1_544
P1 Yb2 3.041172 1_554
P1 Yb2 3.041172 1_555
P2 Yb3 3.041171 1_455
P2 Yb3 3.041171 1_454
P2 Yb2 3.041172 1_554
P2 Yb2 3.041172 1_555
P3 Yb0 2.957707 1_555
P3 Yb0 2.957707 1_556
P4 Yb0 2.957713 1_555
P4 Yb0 2.957713 1_556
P5 Yb0 2.957717 1_555
P5 Yb0 2.957717 1_556
P6 Yb1 2.957707 1_556
P6 Yb1 2.957707 1_555
P7 Yb1 2.957713 1_556
P7 Yb1 2.957713 1_555
P8 Yb1 2.957717 1_555
P8 Yb1 2.957717 1_556
P9 Yb2 2.981268 1_554
P9 Yb2 2.981268 1_555
P10 Yb3 2.981268 1_555
P10 Yb3 2.981268 1_554
P11 Yb4 2.981268 1_554
P11 Yb4 2.981268 1_555
Ir0 P11 2.376185 1_555
Ir0 P1 2.408097 1_565
Ir0 P3 2.434541 1_555
Ir0 P3 2.434541 1_554
Ir0 Ir7 2.813568 1_565
Ir0 Ir7 2.813568 1_564
Ir0 Ir9 2.826537 1_554
Ir0 Ir9 2.826537 1_555
Ir0 Ir16 2.962201 1_565
Ir0 Yb0 3.170312 1_555
Ir0 Yb4 3.179917 1_554
Ir0 Yb4 3.179917 1_555
Ir1 P9 2.376185 1_555
Ir1 P2 2.408097 1_555
Ir1 P4 2.434541 1_554
Ir1 P4 2.434541 1_555
Ir1 Ir8 2.813568 1_555
Ir1 Ir8 2.813568 1_554
Ir1 Ir10 2.826536 1_555
Ir1 Ir10 2.826536 1_554
Ir1 Ir17 2.962201 1_555
Ir1 Yb0 3.170322 1_555
Ir1 Yb2 3.179917 1_554
Ir1 Yb2 3.179917 1_555
Ir2 P10 2.376185 1_565
Ir2 P0 2.408097 1_555
Ir2 P5 2.434541 1_555
Ir2 P5 2.434541 1_554
Ir2 Ir6 2.813568 1_554
Ir2 Ir6 2.813568 1_555
Ir2 Yb0 3.170323 1_555
Ir2 Yb3 3.179917 1_565
Ir2 Yb3 3.179917 1_564
Ir3 P10 2.376185 1_555
Ir3 P2 2.408097 1_655
Ir3 P6 2.434541 1_554
Ir3 P6 2.434541 1_555
Ir3 Ir8 2.813568 1_654
Ir3 Ir8 2.813568 1_655
Ir3 Yb1 3.170312 1_555
Ir3 Yb3 3.179917 1_554
Ir3 Yb3 3.179917 1_555
Ir4 P9 2.376185 1_555
Ir4 P1 2.408097 1_555
Ir4 P7 2.434541 1_555
Ir4 P7 2.434541 1_554
Ir4 Ir7 2.813568 1_555
Ir4 Ir7 2.813568 1_554
Ir4 Yb1 3.170322 1_555
Ir4 Yb2 3.179917 1_554
Ir4 Yb2 3.179917 1_555
Ir5 P11 2.376185 1_655
Ir5 P0 2.408097 1_555
Ir5 P8 2.434541 1_555
Ir5 P8 2.434541 1_554
Ir5 Ir6 2.813568 1_554
Ir5 Ir6 2.813568 1_555
Ir5 Yb1 3.170323 1_555
Ir5 Yb4 3.179917 1_654
Ir5 Yb4 3.179917 1_655
Ir6 P5 2.368662 1_555
Ir6 P8 2.368662 1_555
Ir6 P0 2.400946 1_555
Ir6 P0 2.400946 1_556
Ir6 Yb3 3.173159 1_565
Ir6 Yb4 3.173159 1_655
Ir7 P7 2.368662 1_555
Ir7 P3 2.368662 1_545
Ir7 P1 2.400946 1_555
Ir7 P1 2.400946 1_556
Ir7 Yb4 3.173159 1_545
Ir7 Yb2 3.173159 1_555
Ir8 P4 2.368662 1_555
Ir8 P6 2.368662 1_455
Ir8 P2 2.400946 1_556
Ir8 P2 2.400946 1_555
Ir8 Yb3 3.173159 1_455
Ir8 Yb2 3.173159 1_555
Ir9 P4 2.270355 1_555
Ir9 P3 2.338733 1_555
Ir9 P11 2.604780 1_555
Ir9 P11 2.604780 1_556
Ir9 Yb0 3.124748 1_556
Ir9 Yb0 3.124748 1_555
Ir9 Yb4 3.406743 1_555
Ir10 P5 2.270363 1_555
Ir10 P4 2.338739 1_555
Ir10 P9 2.604772 1_556
Ir10 P9 2.604772 1_555
Ir10 Ir15 2.836088 1_555
Ir10 Ir15 2.836088 1_556
Ir10 Ir13 2.866222 1_555
Ir10 Yb0 3.124767 1_555
Ir10 Yb0 3.124767 1_556
Ir10 Yb2 3.406732 1_555
Ir11 P3 2.270367 1_555
Ir11 P5 2.338727 1_555
Ir11 P10 2.604776 1_566
Ir11 P10 2.604776 1_565
Ir11 Ir2 2.826529 1_556
Ir11 Ir2 2.826529 1_555
Ir11 Ir16 2.836097 1_565
Ir11 Ir16 2.836097 1_566
Ir11 Ir12 2.866244 1_565
Ir11 Yb0 3.124755 1_555
Ir11 Yb0 3.124755 1_556
Ir11 Yb3 3.406731 1_565
Ir12 P7 2.270355 1_555
Ir12 P6 2.338733 1_555
Ir12 P10 2.604780 1_556
Ir12 P10 2.604780 1_555
Ir12 Ir3 2.826537 1_556
Ir12 Ir3 2.826537 1_555
Ir12 Ir16 2.836090 1_556
Ir12 Ir16 2.836090 1_555
Ir12 Yb1 3.124748 1_556
Ir12 Yb1 3.124748 1_555
Ir12 Yb3 3.406743 1_555
Ir13 P8 2.270363 1_555
Ir13 P7 2.338739 1_555
Ir13 P9 2.604772 1_556
Ir13 P9 2.604772 1_555
Ir13 Ir4 2.826536 1_555
Ir13 Ir4 2.826536 1_556
Ir13 Ir15 2.836088 1_555
Ir13 Ir15 2.836088 1_556
Ir13 Yb1 3.124767 1_556
Ir13 Yb1 3.124767 1_555
Ir13 Yb2 3.406732 1_555
Ir14 P6 2.270367 1_555
Ir14 P8 2.338727 1_555
Ir14 P11 2.604776 1_655
Ir14 P11 2.604776 1_656
Ir14 Ir5 2.826529 1_555
Ir14 Ir5 2.826529 1_556
Ir14 Ir17 2.836097 1_656
Ir14 Ir17 2.836097 1_655
Ir14 Ir9 2.866244 1_655
Ir14 Yb1 3.124755 1_556
Ir14 Yb1 3.124755 1_555
Ir14 Yb4 3.406731 1_655
Ir15 P9 2.294206 1_555
Ir15 P8 2.865641 1_554
Ir15 P5 2.865641 1_555
Ir15 P5 2.865641 1_554
Ir15 P8 2.865641 1_555
Ir15 Ir2 2.962201 1_555
Ir15 Ir5 2.962201 1_555
Ir15 Ir6 2.981739 1_555
Ir15 Ir6 2.981739 1_554
Ir16 P10 2.294206 1_555
Ir16 P3 2.865641 1_544
Ir16 P3 2.865641 1_545
Ir16 P7 2.865641 1_555
Ir16 P7 2.865641 1_554
Ir16 Ir4 2.962201 1_555
Ir16 Ir7 2.981740 1_554
Ir16 Ir7 2.981740 1_555
Ir17 P11 2.294206 1_555
Ir17 Ir9 2.836090 1_555
Ir17 Ir9 2.836090 1_554
Ir17 P6 2.865641 1_454
Ir17 P6 2.865641 1_455
Ir17 P4 2.865641 1_555
Ir17 P4 2.865641 1_554
Ir17 Ir3 2.962201 1_455
Ir17 Ir8 2.981740 1_554
Ir17 Ir8 2.981740 1_555
Ir18 P0 2.276487 1_445
Ir18 P1 2.276487 1_555
Ir18 P2 2.276487 1_555
Ir18 Yb2 3.056807 1_555
Ir18 Yb2 3.056807 1_554
Ir18 Yb4 3.056808 1_545
Ir18 Yb3 3.056808 1_455
Ir18 Yb3 3.056808 1_454
Ir18 Yb4 3.056808 1_544
