# generated using pymatgen
data_Nb2ZnN4
_symmetry_space_group_name_H-M   'P 1'
_cell_length_a   6.23499564
_cell_length_b   6.23499564
_cell_length_c   6.23499564
_cell_angle_alpha   90.07674534
_cell_angle_beta   119.95570095
_cell_angle_gamma   119.95570095
_symmetry_Int_Tables_number   1
_chemical_formula_structural   Nb2ZnN4
_chemical_formula_sum   'Nb4 Zn2 N8'
_cell_volume   171.50774615
_cell_formula_units_Z   2
loop_
 _symmetry_equiv_pos_site_id
 _symmetry_equiv_pos_as_xyz
  1  'x, y, z'
loop_
 _atom_site_type_symbol
 _atom_site_label
 _atom_site_symmetry_multiplicity
 _atom_site_fract_x
 _atom_site_fract_y
 _atom_site_fract_z
 _atom_site_occupancy
  Nb  Nb0  1  0.75000200  0.50000000  0.25000200  1
  Nb  Nb1  1  0.24999800  0.00000000  0.24999800  1
  Nb  Nb2  1  0.24999800  0.99999800  0.75000000  1
  Nb  Nb3  1  0.75000200  0.00000200  0.25000000  1
  Zn  Zn0  1  0.50000000  0.62500000  0.62500000  1
  Zn  Zn1  1  0.00000000  0.37500000  0.87500000  1
  N  N0  1  0.72958400  0.23947600  0.00989400  1
  N  N1  1  0.27041600  0.78031000  0.00989300  1
  N  N2  1  0.22958300  0.75989300  0.48947600  1
  N  N3  1  0.77041700  0.75989400  0.03031000  1
  N  N4  1  0.77041700  0.76052400  0.49010700  1
  N  N5  1  0.22958300  0.21969000  0.49010600  1
  N  N6  1  0.72958400  0.24010700  0.46969000  1
  N  N7  1  0.27041600  0.24010600  0.01052400  1
loop_
_geom_bond_atom_site_label_1
_geom_bond_atom_site_label_2
_geom_bond_distance
_geom_bond_site_symmetry_2
N0 Zn1 2.063838 1_654
N0 Nb3 2.119502 1_555
N0 Nb2 2.119528 1_544
N0 Nb0 2.119584 1_555
N1 Zn1 2.063838 1_554
N1 Nb2 2.119506 1_554
N1 Nb3 2.119528 1_565
N1 Nb1 2.119580 1_565
N2 Zn0 2.063838 1_555
N2 Nb0 2.119506 1_455
N2 Nb1 2.119523 1_565
N2 Nb2 2.119584 1_555
N3 Zn0 2.063838 1_554
N3 Nb1 2.119506 1_665
N3 Nb0 2.119528 1_555
N3 Nb3 2.119580 1_565
N4 Zn0 2.063838 1_555
N4 Nb2 2.119506 1_655
N4 Nb3 2.119523 1_565
N4 Nb0 2.119584 1_555
N5 Zn0 2.063838 1_555
N5 Nb3 2.119506 1_455
N5 Nb2 2.119528 1_545
N5 Nb1 2.119580 1_555
N6 Zn1 2.063838 1_655
N6 Nb0 2.119506 1_555
N6 Nb1 2.119528 1_555
N6 Nb3 2.119580 1_555
N7 Zn1 2.063838 1_554
N7 Nb1 2.119502 1_555
N7 Nb0 2.119528 1_555
N7 Nb2 2.119584 1_544
