# generated using pymatgen
data_AlBiO3
_symmetry_space_group_name_H-M   'P 1'
_cell_length_a   5.38486300
_cell_length_b   5.39596500
_cell_length_c   9.42456800
_cell_angle_alpha   90.00000000
_cell_angle_beta   90.00000000
_cell_angle_gamma   90.00000000
_symmetry_Int_Tables_number   1
_chemical_formula_structural   AlBiO3
_chemical_formula_sum   'Al4 Bi4 O12'
_cell_volume   273.84526430
_cell_formula_units_Z   4
loop_
 _symmetry_equiv_pos_site_id
 _symmetry_equiv_pos_as_xyz
  1  'x, y, z'
loop_
 _atom_site_type_symbol
 _atom_site_label
 _atom_site_symmetry_multiplicity
 _atom_site_fract_x
 _atom_site_fract_y
 _atom_site_fract_z
 _atom_site_occupancy
  Al  Al0  1  0.95829300  0.03055200  0.25000000  1
  Al  Al1  1  0.45829300  0.46944800  0.75000000  1
  Al  Al2  1  0.54170700  0.53055200  0.25000000  1
  Al  Al3  1  0.04170700  0.96944800  0.75000000  1
  Bi  Bi0  1  0.00000000  0.50000000  0.00000000  1
  Bi  Bi1  1  0.50000000  0.00000000  0.00000000  1
  Bi  Bi2  1  0.50000000  0.00000000  0.50000000  1
  Bi  Bi3  1  0.00000000  0.50000000  0.50000000  1
  O  O0  1  0.62649000  0.36883000  0.89910800  1
  O  O1  1  0.12649000  0.13117000  0.10089200  1
  O  O2  1  0.87351000  0.86883000  0.60089200  1
  O  O3  1  0.37351000  0.63117000  0.39910800  1
  O  O4  1  0.37351000  0.63117000  0.10089200  1
  O  O5  1  0.87351000  0.86883000  0.89910800  1
  O  O6  1  0.12649000  0.13117000  0.39910800  1
  O  O7  1  0.62649000  0.36883000  0.60089200  1
  O  O8  1  0.16805100  0.28489600  0.75000000  1
  O  O9  1  0.66805100  0.21510400  0.25000000  1
  O  O10  1  0.33194900  0.78489600  0.75000000  1
  O  O11  1  0.83194900  0.71510400  0.25000000  1
loop_
_geom_bond_atom_site_label_1
_geom_bond_atom_site_label_2
_geom_bond_distance
_geom_bond_site_symmetry_2
Al0 O6 1.757813 1_655
Al0 O1 1.757813 1_655
Al0 O11 1.833077 1_545
Al0 O9 1.853210 1_555
Al1 O0 1.757813 1_555
Al1 O7 1.757813 1_555
Al1 O10 1.833077 1_555
Al1 O8 1.853210 1_555
Al2 O3 1.757813 1_555
Al2 O4 1.757813 1_555
Al2 O9 1.833077 1_555
Al2 O11 1.853210 1_555
Al3 O5 1.757813 1_455
Al3 O2 1.757813 1_455
Al3 O8 1.833077 1_565
Al3 O10 1.853210 1_555
Bi0 O1 2.308452 1_555
Bi0 O5 2.308452 1_454
Bi0 O4 2.334617 1_555
Bi0 O0 2.334617 1_454
Bi0 O8 2.778042 1_554
Bi0 O11 2.778042 1_455
Bi1 O4 2.308452 1_545
Bi1 O0 2.308452 1_554
Bi1 O1 2.334617 1_555
Bi1 O5 2.334617 1_544
Bi1 O9 2.778042 1_555
Bi1 O10 2.778042 1_544
Bi2 O7 2.308452 1_555
Bi2 O3 2.308452 1_545
Bi2 O2 2.334617 1_545
Bi2 O6 2.334617 1_555
Bi2 O9 2.778042 1_555
Bi2 O10 2.778042 1_545
Bi3 O2 2.308452 1_455
Bi3 O6 2.308452 1_555
Bi3 O7 2.334617 1_455
Bi3 O3 2.334617 1_555
Bi3 O8 2.778042 1_555
Bi3 O11 2.778042 1_455
