# generated using pymatgen
data_Er(Co5Mo)2
_symmetry_space_group_name_H-M   'P 1'
_cell_length_a   4.66856000
_cell_length_b   6.38507317
_cell_length_c   6.38507317
_cell_angle_alpha   97.56296170
_cell_angle_beta   111.44352180
_cell_angle_gamma   68.55647820
_symmetry_Int_Tables_number   1
_chemical_formula_structural   Er(Co5Mo)2
_chemical_formula_sum   'Er1 Co10 Mo2'
_cell_volume   164.89446686
_cell_formula_units_Z   1
loop_
 _symmetry_equiv_pos_site_id
 _symmetry_equiv_pos_as_xyz
  1  'x, y, z'
loop_
 _atom_site_type_symbol
 _atom_site_label
 _atom_site_symmetry_multiplicity
 _atom_site_fract_x
 _atom_site_fract_y
 _atom_site_fract_z
 _atom_site_occupancy
  Er  Er0  1  0.00000000  0.00000000  0.00000000  1
  Co  Co0  1  0.71027000  0.78973000  0.21027000  1
  Co  Co1  1  0.28973000  0.21027000  0.78973000  1
  Co  Co2  1  0.50000000  0.78191100  0.78191100  1
  Co  Co3  1  0.50000000  0.21808900  0.21808900  1
  Co  Co4  1  0.50000000  0.00000000  0.50000000  1
  Co  Co5  1  0.00000000  0.00000000  0.50000000  1
  Co  Co6  1  0.50000000  0.50000000  0.00000000  1
  Co  Co7  1  0.00000000  0.50000000  0.00000000  1
  Co  Co8  1  0.64099700  0.35900300  0.64099700  1
  Co  Co9  1  0.35900300  0.64099700  0.35900300  1
  Mo  Mo0  1  0.00000000  0.35771900  0.35771900  1
  Mo  Mo1  1  0.00000000  0.64228100  0.64228100  1
loop_
_geom_bond_atom_site_label_1
_geom_bond_atom_site_label_2
_geom_bond_distance
_geom_bond_site_symmetry_2
Er0 Mo0 3.010086 1_555
Er0 Mo1 3.010086 1_544
Co0 Co5 2.428759 1_665
Co0 Co7 2.428759 1_655
Co0 Co6 2.428759 1_555
Co0 Co4 2.428759 1_565
Co0 Co3 2.546309 1_565
Co0 Co2 2.546309 1_554
Co0 Co9 2.647238 1_655
Co0 Co9 2.647238 1_555
Co0 Mo1 2.710956 1_655
Co0 Mo0 2.710956 1_655
Co0 Er0 2.926566 1_665
Co0 Er0 2.926566 1_565
Co1 Co6 2.428759 1_556
Co1 Co7 2.428759 1_556
Co1 Co4 2.428759 1_555
Co1 Co5 2.428759 1_555
Co1 Co3 2.546309 1_556
Co1 Co2 2.546309 1_545
Co1 Co8 2.647238 1_555
Co1 Co8 2.647238 1_455
Co1 Mo1 2.710956 1_555
Co1 Mo0 2.710956 1_555
Co1 Er0 2.926566 1_656
Co1 Er0 2.926566 1_556
Co2 Co4 2.416398 1_565
Co2 Co5 2.416398 1_565
Co2 Co6 2.416398 1_556
Co2 Co7 2.416398 1_656
Co2 Mo1 2.613302 1_555
Co2 Mo1 2.613302 1_655
Co2 Co8 2.651097 1_555
Co2 Co9 2.651097 1_555
Co2 Er0 2.969280 1_566
Co2 Er0 2.969280 1_666
Co3 Co6 2.416398 1_555
Co3 Co4 2.416398 1_555
Co3 Co7 2.416398 1_555
Co3 Co5 2.416398 1_655
Co3 Mo0 2.613302 1_655
Co3 Mo0 2.613302 1_555
Co3 Co8 2.651097 1_555
Co3 Co9 2.651097 1_555
Co3 Er0 2.969280 1_555
Co3 Er0 2.969280 1_655
Co4 Co5 2.334280 1_655
Co4 Co5 2.334280 1_555
Co4 Mo0 2.566802 1_555
Co4 Mo1 2.566802 1_645
Co4 Co8 2.573904 1_555
Co4 Co9 2.573904 1_545
Co4 Er0 3.192537 1_555
Co4 Er0 3.192537 1_656
Co5 Mo1 2.566802 1_545
Co5 Mo0 2.566802 1_555
Co5 Co8 2.573904 1_455
Co5 Co9 2.573904 1_545
Co5 Er0 3.192537 1_556
Co5 Er0 3.192537 1_555
Co6 Co7 2.334280 1_555
Co6 Co7 2.334280 1_655
Co6 Mo1 2.566802 1_554
Co6 Mo0 2.566802 1_655
Co6 Co9 2.573904 1_555
Co6 Co8 2.573904 1_554
Co6 Er0 3.192537 1_565
Co6 Er0 3.192537 1_655
Co7 Mo0 2.566802 1_555
Co7 Mo1 2.566802 1_554
Co7 Co9 2.573904 1_555
Co7 Co8 2.573904 1_454
Co7 Er0 3.192537 1_565
Co7 Er0 3.192537 1_555
Co8 Co9 2.367315 1_555
Co8 Mo0 2.878074 1_555
Co8 Mo0 2.878074 1_655
Co8 Mo1 2.878074 1_555
Co8 Mo1 2.878074 1_655
Co8 Er0 3.013799 1_656
Co9 Mo0 2.878074 1_555
Co9 Mo0 2.878074 1_655
Co9 Mo1 2.878074 1_555
Co9 Mo1 2.878074 1_655
Co9 Er0 3.013799 1_565
Mo0 Mo1 2.394494 1_555
