# generated using pymatgen
data_Ge3Mo5C
_symmetry_space_group_name_H-M   'P 1'
_cell_length_a   7.46969780
_cell_length_b   7.46969780
_cell_length_c   5.34118100
_cell_angle_alpha   90.00000000
_cell_angle_beta   90.00000000
_cell_angle_gamma   119.99999826
_symmetry_Int_Tables_number   1
_chemical_formula_structural   Ge3Mo5C
_chemical_formula_sum   'Ge6 Mo10 C2'
_cell_volume   258.09167679
_cell_formula_units_Z   2
loop_
 _symmetry_equiv_pos_site_id
 _symmetry_equiv_pos_as_xyz
  1  'x, y, z'
loop_
 _atom_site_type_symbol
 _atom_site_label
 _atom_site_symmetry_multiplicity
 _atom_site_fract_x
 _atom_site_fract_y
 _atom_site_fract_z
 _atom_site_occupancy
  Ge  Ge0  1  0.40367900  0.00000000  0.75000000  1
  Ge  Ge1  1  0.40367900  0.40367900  0.25000000  1
  Ge  Ge2  1  0.00000000  0.59632100  0.25000000  1
  Ge  Ge3  1  0.00000000  0.40367900  0.75000000  1
  Ge  Ge4  1  0.59632100  0.59632100  0.75000000  1
  Ge  Ge5  1  0.59632100  0.00000000  0.25000000  1
  Mo  Mo0  1  0.66666700  0.33333300  0.00000000  1
  Mo  Mo1  1  0.33333300  0.66666700  0.50000000  1
  Mo  Mo2  1  0.66666700  0.33333300  0.50000000  1
  Mo  Mo3  1  0.33333300  0.66666700  0.00000000  1
  Mo  Mo4  1  0.77405800  0.00000000  0.75000000  1
  Mo  Mo5  1  0.77405800  0.77405800  0.25000000  1
  Mo  Mo6  1  0.00000000  0.22594200  0.25000000  1
  Mo  Mo7  1  0.00000000  0.77405800  0.75000000  1
  Mo  Mo8  1  0.22594200  0.22594200  0.75000000  1
  Mo  Mo9  1  0.22594200  0.00000000  0.25000000  1
  C  C0  1  0.00000000  0.00000000  0.50000000  1
  C  C1  1  0.00000000  0.00000000  0.00000000  1
loop_
_geom_bond_atom_site_label_1
_geom_bond_atom_site_label_2
_geom_bond_distance
_geom_bond_site_symmetry_2
Ge0 Mo8 2.617577 1_555
Ge0 Mo7 2.617577 1_545
Ge0 Mo1 2.636354 1_545
Ge0 Mo3 2.636354 1_546
Ge0 Mo2 2.636356 1_555
Ge0 Mo0 2.636356 1_556
Ge0 Mo4 2.766619 1_555
Ge0 Mo9 2.982396 1_556
Ge0 Mo9 2.982396 1_555
Ge1 Mo9 2.617577 1_555
Ge1 Mo6 2.617577 1_555
Ge1 Mo0 2.636360 1_555
Ge1 Mo3 2.636360 1_555
Ge1 Mo1 2.636360 1_555
Ge1 Mo2 2.636360 1_555
Ge1 Mo5 2.766619 1_555
Ge1 Mo8 2.982396 1_555
Ge1 Mo8 2.982396 1_554
Ge2 Mo5 2.617577 1_455
Ge2 Mo9 2.617577 1_565
Ge2 Mo3 2.636354 1_555
Ge2 Mo1 2.636354 1_555
Ge2 Mo2 2.636356 1_455
Ge2 Mo0 2.636356 1_455
Ge2 Mo6 2.766619 1_555
Ge2 Mo7 2.982396 1_555
Ge2 Mo7 2.982396 1_554
Ge3 Mo8 2.617577 1_555
Ge3 Mo4 2.617577 1_455
Ge3 Mo0 2.636354 1_456
Ge3 Mo2 2.636354 1_455
Ge3 Mo3 2.636356 1_556
Ge3 Mo1 2.636356 1_555
Ge3 Mo7 2.766619 1_555
Ge3 Mo6 2.982396 1_556
Ge3 Mo6 2.982396 1_555
Ge4 Mo4 2.617577 1_565
Ge4 Mo7 2.617577 1_655
Ge4 Mo0 2.636360 1_556
Ge4 Mo1 2.636360 1_555
Ge4 Mo2 2.636360 1_555
Ge4 Mo3 2.636360 1_556
Ge4 Mo8 2.766619 1_555
Ge4 Mo5 2.982396 1_556
Ge4 Mo5 2.982396 1_555
Ge5 Mo5 2.617577 1_545
Ge5 Mo6 2.617577 1_655
Ge5 Mo0 2.636354 1_555
Ge5 Mo2 2.636354 1_555
Ge5 Mo3 2.636356 1_545
Ge5 Mo1 2.636356 1_545
Ge5 Mo9 2.766619 1_555
Ge5 Mo4 2.982396 1_555
Ge5 Mo4 2.982396 1_554
Mo0 Mo2 2.670590 1_554
Mo0 Mo2 2.670590 1_555
Mo1 Mo3 2.670590 1_556
Mo1 Mo3 2.670590 1_555
C0 Mo6 2.152070 1_555
C0 Mo9 2.152070 1_555
C0 Mo4 2.152070 1_455
C0 Mo7 2.152070 1_545
C0 Mo8 2.152070 1_555
C0 Mo5 2.152070 1_445
C1 Mo9 2.152070 1_555
C1 Mo6 2.152070 1_555
C1 Mo7 2.152070 1_544
C1 Mo4 2.152070 1_454
C1 Mo8 2.152070 1_554
C1 Mo5 2.152070 1_445
