# generated using pymatgen
data_Li2Cu(Si2O5)2
_symmetry_space_group_name_H-M   'P 1'
_cell_length_a   6.84240400
_cell_length_b   9.54497800
_cell_length_c   14.35968800
_cell_angle_alpha   90.00000000
_cell_angle_beta   90.00000000
_cell_angle_gamma   90.00000000
_symmetry_Int_Tables_number   1
_chemical_formula_structural   Li2Cu(Si2O5)2
_chemical_formula_sum   'Li8 Cu4 Si16 O40'
_cell_volume   937.83977659
_cell_formula_units_Z   4
loop_
 _symmetry_equiv_pos_site_id
 _symmetry_equiv_pos_as_xyz
  1  'x, y, z'
loop_
 _atom_site_type_symbol
 _atom_site_label
 _atom_site_symmetry_multiplicity
 _atom_site_fract_x
 _atom_site_fract_y
 _atom_site_fract_z
 _atom_site_occupancy
  Li  Li0  1  0.64711000  0.09512200  0.82892100  1
  Li  Li1  1  0.93510000  0.11617400  0.52960000  1
  Li  Li2  1  0.43510000  0.38382600  0.47040000  1
  Li  Li3  1  0.14711000  0.40487800  0.17107900  1
  Li  Li4  1  0.35289000  0.59512200  0.67107900  1
  Li  Li5  1  0.06490000  0.61617400  0.97040000  1
  Li  Li6  1  0.56490000  0.88382600  0.02960000  1
  Li  Li7  1  0.85289000  0.90487800  0.32892100  1
  Cu  Cu0  1  0.97013000  0.18690900  0.34692400  1
  Cu  Cu1  1  0.47013000  0.31309100  0.65307600  1
  Cu  Cu2  1  0.02987000  0.68690900  0.15307600  1
  Cu  Cu3  1  0.52987000  0.81309100  0.84692400  1
  Si  Si0  1  0.48520400  0.04110400  0.56709600  1
  Si  Si1  1  0.25805700  0.06707900  0.90290200  1
  Si  Si2  1  0.28098600  0.09710400  0.22197100  1
  Si  Si3  1  0.71593400  0.12473200  0.16812200  1
  Si  Si4  1  0.21593400  0.37526800  0.83187800  1
  Si  Si5  1  0.78098600  0.40289600  0.77802900  1
  Si  Si6  1  0.75805700  0.43292100  0.09709800  1
  Si  Si7  1  0.98520400  0.45889600  0.43290400  1
  Si  Si8  1  0.51479600  0.54110400  0.93290400  1
  Si  Si9  1  0.74194300  0.56707900  0.59709800  1
  Si  Si10  1  0.71901400  0.59710400  0.27802900  1
  Si  Si11  1  0.28406600  0.62473200  0.33187800  1
  Si  Si12  1  0.78406600  0.87526800  0.66812200  1
  Si  Si13  1  0.21901400  0.90289600  0.72197100  1
  Si  Si14  1  0.24194300  0.93292100  0.40290200  1
  Si  Si15  1  0.01479600  0.95889600  0.06709600  1
  O  O0  1  0.15009000  0.99016000  0.81449800  1
  O  O1  1  0.15120800  0.98500800  0.15940500  1
  O  O2  1  0.03169500  0.00238000  0.42745900  1
  O  O3  1  0.78370700  0.99980500  0.09277100  1
  O  O4  1  0.09255300  0.06505300  0.98587400  1
  O  O5  1  0.47803600  0.13015700  0.16055500  1
  O  O6  1  0.79213200  0.08683500  0.27180300  1
  O  O7  1  0.48426600  0.20565700  0.53900700  1
  O  O8  1  0.30328400  0.22952100  0.87320700  1
  O  O9  1  0.16647000  0.23973600  0.24838700  1
  O  O10  1  0.66647000  0.26026400  0.75161300  1
  O  O11  1  0.80328400  0.27047900  0.12679300  1
  O  O12  1  0.98426600  0.29434300  0.46099300  1
  O  O13  1  0.29213200  0.41316500  0.72819700  1
  O  O14  1  0.97803600  0.36984300  0.83944500  1
  O  O15  1  0.59255300  0.43494700  0.01412600  1
  O  O16  1  0.28370700  0.50019500  0.90723000  1
  O  O17  1  0.53169500  0.49762000  0.57254100  1
  O  O18  1  0.65120800  0.51499200  0.84059500  1
  O  O19  1  0.65009000  0.50984000  0.18550200  1
  O  O20  1  0.84991000  0.49016000  0.68550200  1
  O  O21  1  0.84879200  0.48500800  0.34059500  1
  O  O22  1  0.96830500  0.50238000  0.07254100  1
  O  O23  1  0.21629300  0.49980500  0.40723000  1
  O  O24  1  0.90744700  0.56505300  0.51412600  1
  O  O25  1  0.52196400  0.63015700  0.33944500  1
  O  O26  1  0.20786800  0.58683500  0.22819700  1
  O  O27  1  0.51573400  0.70565700  0.96099300  1
  O  O28  1  0.69671600  0.72952100  0.62679300  1
  O  O29  1  0.83353000  0.73973600  0.25161300  1
  O  O30  1  0.33353000  0.76026400  0.74838700  1
  O  O31  1  0.19671600  0.77047900  0.37320700  1
  O  O32  1  0.01573400  0.79434300  0.03900700  1
  O  O33  1  0.70786800  0.91316500  0.77180300  1
  O  O34  1  0.02196400  0.86984300  0.66055500  1
  O  O35  1  0.40744700  0.93494700  0.48587400  1
  O  O36  1  0.71629300  0.00019500  0.59277000  1
  O  O37  1  0.46830500  0.99762000  0.92745900  1
  O  O38  1  0.34879200  0.01499200  0.65940500  1
  O  O39  1  0.34991000  0.00984000  0.31449800  1
loop_
_geom_bond_atom_site_label_1
_geom_bond_atom_site_label_2
_geom_bond_distance
_geom_bond_site_symmetry_2
Li0 O10 1.932501 1_555
Li0 O33 1.965183 1_545
Li0 O37 2.089286 1_545
Li1 O2 1.941092 1_655
Li1 O12 1.993953 1_555
Li1 O36 2.071189 1_555
Li2 O17 1.941092 1_555
Li2 O7 1.993953 1_555
Li2 O23 2.071189 1_555
Li3 O9 1.932501 1_555
Li3 O26 1.965183 1_555
Li3 O22 2.089286 1_455
Li4 O30 1.932501 1_555
Li4 O13 1.965183 1_555
Li4 O17 2.089286 1_555
Li5 O22 1.941092 1_456
Li5 O32 1.993953 1_556
Li5 O16 2.071189 1_555
Li6 O37 1.941092 1_554
Li6 O27 1.993953 1_554
Li6 O3 2.071196 1_555
Li7 O29 1.932501 1_555
Li7 O6 1.965183 1_565
Li7 O2 2.089286 1_665
Cu0 O6 1.886638 1_555
Cu0 O12 1.934927 1_555
Cu0 O9 2.015239 1_655
Cu0 O2 2.148747 1_655
Cu1 O13 1.886638 1_555
Cu1 O7 1.934927 1_555
Cu1 O10 2.015239 1_555
Cu1 O17 2.148747 1_555
Cu2 O26 1.886638 1_555
Cu2 O32 1.934927 1_555
Cu2 O29 2.015239 1_455
Cu2 O22 2.148747 1_455
Cu3 O33 1.886638 1_555
Cu3 O27 1.934927 1_555
Cu3 O30 2.015239 1_555
Cu3 O37 2.148747 1_555
O0 Si13 1.637536 1_555
O0 Si1 1.642043 1_565
O1 Si15 1.640230 1_555
O1 Si2 1.655448 1_565
O2 Si14 1.622798 1_545
O3 Si15 1.669912 1_655
O3 Si3 1.675615 1_565
O4 Si15 1.634041 1_546
O4 Si1 1.643887 1_555
O5 Si3 1.632238 1_555
O5 Si2 1.641709 1_555
O6 Si3 1.618421 1_555
O7 Si0 1.621631 1_555
O8 Si4 1.626265 1_555
O8 Si1 1.637577 1_555
O9 Si2 1.615959 1_555
O10 Si5 1.615959 1_555
O11 Si3 1.626265 1_555
O11 Si6 1.637577 1_555
O12 Si7 1.621631 1_555
O13 Si4 1.618421 1_555
O14 Si4 1.632238 1_655
O14 Si5 1.641709 1_555
O15 Si8 1.634041 1_554
O15 Si6 1.643887 1_555
O16 Si8 1.669909 1_555
O16 Si4 1.675624 1_555
O17 Si9 1.622798 1_555
O18 Si8 1.640230 1_555
O18 Si5 1.655448 1_555
O19 Si10 1.637536 1_555
O19 Si6 1.642043 1_555
O20 Si5 1.637536 1_555
O20 Si9 1.642043 1_555
O21 Si7 1.640230 1_555
O21 Si10 1.655448 1_555
O22 Si6 1.622798 1_555
O23 Si7 1.669909 1_455
O23 Si11 1.675624 1_555
O24 Si7 1.634041 1_555
O24 Si9 1.643887 1_555
O25 Si11 1.632238 1_555
O25 Si10 1.641709 1_555
O26 Si11 1.618421 1_555
O27 Si8 1.621631 1_555
O28 Si12 1.626265 1_555
O28 Si9 1.637577 1_555
O29 Si10 1.615959 1_555
O30 Si13 1.615959 1_555
O31 Si11 1.626265 1_555
O31 Si14 1.637577 1_555
O32 Si15 1.621631 1_555
O33 Si12 1.618421 1_555
O34 Si12 1.632238 1_455
O34 Si13 1.641709 1_555
O35 Si0 1.634041 1_565
O35 Si14 1.643887 1_555
O36 Si0 1.669909 1_555
O36 Si12 1.675624 1_545
O37 Si1 1.622798 1_565
O38 Si0 1.640230 1_555
O38 Si13 1.655448 1_545
O39 Si2 1.637536 1_555
O39 Si14 1.642043 1_545
