# generated using pymatgen
data_ZnS
_symmetry_space_group_name_H-M   'P 1'
_cell_length_a   13.75535893
_cell_length_b   13.52511119
_cell_length_c   12.72621257
_cell_angle_alpha   91.53032938
_cell_angle_beta   93.69284806
_cell_angle_gamma   86.97657762
_symmetry_Int_Tables_number   1
_chemical_formula_structural   ZnS
_chemical_formula_sum   'Zn50 S50'
_cell_volume   2358.76947828
_cell_formula_units_Z   50
loop_
 _symmetry_equiv_pos_site_id
 _symmetry_equiv_pos_as_xyz
  1  'x, y, z'
loop_
 _atom_site_type_symbol
 _atom_site_label
 _atom_site_symmetry_multiplicity
 _atom_site_fract_x
 _atom_site_fract_y
 _atom_site_fract_z
 _atom_site_occupancy
  Zn  Zn0  1  0.22586798  0.88940205  0.60303228  1
  Zn  Zn1  1  0.41703466  0.56988058  0.52077512  1
  Zn  Zn2  1  0.88856734  0.03695471  0.88577692  1
  Zn  Zn3  1  0.64768254  0.47835873  0.34029822  1
  Zn  Zn4  1  0.25851253  0.72544316  0.50539939  1
  Zn  Zn5  1  0.46720475  0.01268272  0.37730387  1
  Zn  Zn6  1  0.81064635  0.66381423  0.31637501  1
  Zn  Zn7  1  0.25959272  0.11661022  0.23626259  1
  Zn  Zn8  1  0.63450005  0.48792888  0.99826646  1
  Zn  Zn9  1  0.79033948  0.84757031  0.10525641  1
  Zn  Zn10  1  0.82556327  0.40000432  0.73514310  1
  Zn  Zn11  1  0.53691367  0.88034257  0.88148094  1
  Zn  Zn12  1  0.12001012  0.06343472  0.46930048  1
  Zn  Zn13  1  0.72420124  0.15648513  0.74084170  1
  Zn  Zn14  1  0.61880861  0.04445916  0.51242680  1
  Zn  Zn15  1  0.58403135  0.75834476  0.08930310  1
  Zn  Zn16  1  0.09434955  0.87764242  0.78788426  1
  Zn  Zn17  1  0.94902511  0.03167481  0.64951293  1
  Zn  Zn18  1  0.32663404  0.18492889  0.93705880  1
  Zn  Zn19  1  0.20493647  0.49930474  0.06064941  1
  Zn  Zn20  1  0.34365984  0.01261617  0.86118461  1
  Zn  Zn21  1  0.18324071  0.07677138  0.94156753  1
  Zn  Zn22  1  0.63507556  0.28345858  0.61024549  1
  Zn  Zn23  1  0.37319601  0.76569887  0.66826644  1
  Zn  Zn24  1  0.52076220  0.41393952  0.52375599  1
  Zn  Zn25  1  0.07317088  0.65972924  0.88940922  1
  Zn  Zn26  1  0.47686883  0.26777772  0.88821262  1
  Zn  Zn27  1  0.83022530  0.33563622  0.23037729  1
  Zn  Zn28  1  0.88949575  0.21223090  0.63878630  1
  Zn  Zn29  1  0.32800442  0.28902263  0.77032348  1
  Zn  Zn30  1  0.73557071  0.59898220  0.57330147  1
  Zn  Zn31  1  0.57281340  0.94754856  0.65350361  1
  Zn  Zn32  1  0.84659583  0.14035519  0.16131609  1
  Zn  Zn33  1  0.50372569  0.23515923  0.22909205  1
  Zn  Zn34  1  0.57257635  0.44727540  0.72257731  1
  Zn  Zn35  1  0.38747947  0.69783362  0.99420799  1
  Zn  Zn36  1  0.69622273  0.15770835  0.34470518  1
  Zn  Zn37  1  0.33750207  0.39950581  0.52822193  1
  Zn  Zn38  1  0.30678686  0.54558835  0.78883915  1
  Zn  Zn39  1  0.89118312  0.12024341  0.46892502  1
  Zn  Zn40  1  0.74301289  0.64911174  0.89002065  1
  Zn  Zn41  1  0.61753818  0.91151527  0.34918006  1
  Zn  Zn42  1  0.42744253  0.50968633  0.18950757  1
  Zn  Zn43  1  0.98822228  0.60931818  0.50257619  1
  Zn  Zn44  1  0.14710545  0.51141277  0.35769532  1
  Zn  Zn45  1  0.06516660  0.32705706  0.18849095  1
  Zn  Zn46  1  0.03519333  0.95260970  0.09724721  1
  Zn  Zn47  1  0.92219554  0.45601046  0.01860987  1
  Zn  Zn48  1  0.08741995  0.40351011  0.61631045  1
  Zn  Zn49  1  0.54488279  0.13435642  0.68448700  1
  S  S0  1  0.44228875  0.85176897  0.02275519  1
  S  S1  1  0.60759102  0.35950337  0.88434977  1
  S  S2  1  0.21761740  0.98799117  0.34676190  1
  S  S3  1  0.85560840  0.24392031  0.81572529  1
  S  S4  1  0.26685161  0.37704120  0.35266610  1
  S  S5  1  0.13165022  0.08290154  0.10682730  1
  S  S6  1  0.04582428  0.79025607  0.17965468  1
  S  S7  1  0.78394689  0.55539316  0.03493303  1
  S  S8  1  0.79951924  -0.00528301  0.73514950  1
  S  S9  1  0.97993873  0.47321870  0.73746066  1
  S  S10  1  0.02722608  0.78729926  0.01270342  1
  S  S11  1  0.53532801  0.80513715  0.71602907  1
  S  S12  1  0.04737457  0.03962075  0.82894627  1
  S  S13  1  0.52123921  0.59862092  0.06975871  1
  S  S14  1  0.84056480  0.69410680  0.49837353  1
  S  S15  1  0.92700635  0.29691781  0.08506167  1
  S  S16  1  0.50238875  0.06455270  0.85381677  1
  S  S17  1  0.03737464  0.48788336  0.89452559  1
  S  S18  1  0.44196215  0.59108920  0.71587883  1
  S  S19  1  0.35207371  0.41823316  0.03621377  1
  S  S20  1  0.37749482  0.68637372  0.38516306  1
  S  S21  1  0.72055833  0.54653699  0.74345204  1
  S  S22  1  0.32839614  0.97357321  0.46802503  1
  S  S23  1  0.90434892  0.78615660  0.23185639  1
  S  S24  1  0.42485206  0.08703120  0.21797051  1
  S  S25  1  0.06166445  0.93259356  0.55236626  1
  S  S26  1  0.30915516  0.61729474  0.25421177  1
  S  S27  1  0.56365549  0.19992297  0.44595015  1
  S  S28  1  0.80004224  0.48957649  0.30177820  1
  S  S29  1  0.02369051  0.73853420  0.74311613  1
  S  S30  1  0.69437146  0.80324006  0.95395265  1
  S  S31  1  0.24481168  0.41939619  0.68539246  1
  S  S32  1  0.26057132  0.15355963  0.66497797  1
  S  S33  1  0.93065556  0.19021060  0.31756283  1
  S  S34  1  0.14479764  0.20739039  0.57199231  1
  S  S35  1  0.17472733  0.25967826  0.31247179  1
  S  S36  1  0.59234166  0.57282036  0.47883961  1
  S  S37  1  0.68154854  0.78823112  0.24270021  1
  S  S38  1  0.78612302  0.33725342  0.56232421  1
  S  S39  1  0.27165118  0.87770914  0.78731628  1
  S  S40  1  0.36430137  0.27386877  0.09192866  1
  S  S41  1  0.11966832  0.67071599  0.42586840  1
  S  S42  1  0.07819367  0.49745456  0.16165728  1
  S  S43  1  0.24837633  0.62124814  0.93692940  1
  S  S44  1  0.69281824  0.22536448  0.18376900  1
  S  S45  1  0.76249114  0.01383040  0.42134943  1
  S  S46  1  0.51153842  0.39535741  0.29585137  1
  S  S47  1  0.01887817  0.44316969  0.45821844  1
  S  S48  1  0.39125535  0.20908980  0.60538759  1
  S  S49  1  0.86808356  0.99956877  0.06065366  1
loop_
_geom_bond_atom_site_label_1
_geom_bond_atom_site_label_2
_geom_bond_distance
_geom_bond_site_symmetry_2
S0 Zn35 2.263841 1_554
S0 Zn11 2.338274 1_554
S0 Zn15 2.387434 1_555
S1 Zn26 2.241593 1_555
S1 Zn8 2.262737 1_555
S1 Zn34 2.412922 1_555
S2 S22 2.103173 1_555
S2 Zn12 2.305625 1_565
S2 Zn7 2.382907 1_565
S3 Zn13 2.348893 1_555
S3 Zn28 2.352446 1_555
S3 Zn10 2.376555 1_555
S4 Zn44 2.389916 1_555
S4 Zn37 2.396547 1_555
S5 Zn46 2.257206 1_545
S5 Zn21 2.260612 1_554
S5 Zn7 2.385272 1_555
S6 Zn46 2.452012 1_555
S7 Zn47 2.287480 1_555
S7 Zn40 2.289227 1_554
S7 Zn8 2.308196 1_554
S8 Zn2 2.283448 1_555
S8 Zn13 2.372284 1_555
S8 Zn17 2.468410 1_555
S9 Zn48 2.349625 1_655
S9 Zn10 2.388059 1_555
S10 S6 2.123144 1_555
S10 Zn25 2.388827 1_554
S10 Zn46 2.459833 1_555
S11 Zn31 2.201928 1_555
S11 Zn11 2.313131 1_555
S11 Zn23 2.358232 1_555
S12 Zn16 2.307186 1_545
S12 Zn2 2.347214 1_455
S12 Zn21 2.348393 1_555
S12 Zn17 2.580775 1_455
S13 Zn8 2.315197 1_554
S13 Zn15 2.369635 1_555
S13 Zn35 2.385561 1_554
S13 Zn42 2.439017 1_555
S14 Zn30 2.255938 1_555
S14 Zn43 2.277461 1_555
S14 Zn6 2.355016 1_555
S15 Zn45 2.289374 1_655
S15 Zn47 2.329061 1_555
S15 Zn27 2.378723 1_555
S15 Zn32 2.672854 1_555
S16 Zn20 2.336883 1_555
S16 Zn49 2.491152 1_555
S16 Zn11 2.541134 1_545
S16 Zn26 2.779138 1_555
S17 S9 2.109697 1_455
S17 Zn47 2.370706 1_456
S17 Zn25 2.404515 1_555
S18 Zn38 2.252062 1_555
S18 Zn1 2.495489 1_555
S18 Zn23 2.570225 1_555
S18 Zn34 2.576643 1_555
S19 S40 2.089832 1_555
S19 Zn19 2.285619 1_555
S19 Zn42 2.481215 1_555
S20 S26 2.083636 1_555
S20 Zn4 2.342515 1_555
S20 Zn1 2.385515 1_555
S21 Zn40 2.309129 1_555
S21 Zn30 2.321576 1_555
S21 Zn10 2.394105 1_555
S21 Zn34 2.493182 1_555
S22 Zn5 2.383599 1_565
S22 Zn0 2.612074 1_555
S23 S6 2.100329 1_655
S23 Zn9 2.313803 1_555
S23 Zn6 2.460662 1_555
S24 Zn7 2.312778 1_555
S24 Zn5 2.314545 1_555
S24 Zn33 2.324927 1_555
S25 Zn12 2.291780 1_565
S25 Zn0 2.356260 1_555
S25 Zn17 2.379946 1_465
S26 Zn42 2.302708 1_555
S27 Zn36 2.337703 1_555
S27 Zn14 2.357228 1_555
S27 Zn22 2.517864 1_555
S27 Zn33 2.873818 1_555
S28 Zn3 2.196681 1_555
S28 Zn27 2.278019 1_555
S28 Zn6 2.370372 1_555
S29 Zn16 2.207589 1_555
S29 Zn25 2.220731 1_555
S30 Zn40 2.299479 1_555
S30 Zn9 2.346087 1_556
S30 Zn15 2.475719 1_556
S30 Zn11 2.486958 1_555
S31 Zn38 2.293865 1_555
S31 Zn48 2.302175 1_555
S31 Zn29 2.305789 1_555
S31 Zn37 2.441781 1_555
S32 S34 2.036529 1_555
S32 S48 2.172331 1_555
S32 Zn29 2.429484 1_555
S33 Zn39 2.277522 1_555
S33 Zn32 2.336656 1_555
S33 Zn27 2.576950 1_555
S34 Zn12 2.343455 1_555
S34 Zn48 2.780932 1_555
S35 S4 2.114816 1_555
S35 Zn45 2.284024 1_555
S35 Zn7 2.419695 1_555
S36 Zn30 2.279833 1_555
S36 Zn3 2.295708 1_555
S36 Zn24 2.505029 1_555
S36 Zn1 2.505658 1_555
S37 Zn41 2.295643 1_555
S37 Zn15 2.334819 1_555
S37 Zn6 2.533524 1_555
S37 Zn9 2.545946 1_555
S38 Zn28 2.341806 1_555
S38 Zn22 2.358935 1_555
S38 Zn10 2.376313 1_555
S39 Zn20 2.274465 1_565
S39 Zn0 2.395997 1_555
S39 Zn16 2.439372 1_555
S39 Zn23 2.543278 1_555
S40 Zn18 2.325408 1_554
S40 Zn33 2.551638 1_555
S41 Zn4 2.253870 1_555
S41 Zn43 2.311013 1_455
S41 Zn44 2.322492 1_555
S42 Zn19 2.233253 1_555
S42 Zn45 2.356607 1_555
S42 Zn44 2.616752 1_555
S42 Zn47 2.793193 1_455
S43 Zn38 2.291253 1_555
S43 Zn35 2.292274 1_555
S43 Zn19 2.433123 1_556
S43 Zn25 2.478210 1_555
S44 Zn36 2.262188 1_555
S44 Zn32 2.383632 1_555
S44 Zn27 2.500865 1_555
S44 Zn33 2.696007 1_555
S45 Zn36 2.317070 1_555
S45 Zn14 2.367341 1_555
S45 Zn39 2.378190 1_555
S45 Zn41 2.592555 1_545
S46 Zn3 2.266855 1_555
S46 Zn42 2.298300 1_555
S46 Zn33 2.311367 1_555
S46 Zn24 2.899723 1_555
S47 Zn48 2.232570 1_555
S47 Zn43 2.325776 1_455
S47 Zn44 2.474868 1_555
S48 Zn49 2.460815 1_555
S48 Zn29 2.519207 1_555
S48 Zn37 2.825674 1_555
S49 Zn32 2.283280 1_565
S49 Zn2 2.333220 1_564
S49 Zn46 2.372335 1_655
S49 Zn9 2.462629 1_555
