# generated using pymatgen
data_Na4U3Te5O21
_symmetry_space_group_name_H-M   'P 1'
_cell_length_a   14.79673784
_cell_length_b   14.82516833
_cell_length_c   14.79504420
_cell_angle_alpha   70.50924436
_cell_angle_beta   70.55470993
_cell_angle_gamma   109.58445236
_symmetry_Int_Tables_number   1
_chemical_formula_structural   Na4U3Te5O21
_chemical_formula_sum   'Na16 U12 Te20 O84'
_cell_volume   2495.08615960
_cell_formula_units_Z   4
loop_
 _symmetry_equiv_pos_site_id
 _symmetry_equiv_pos_as_xyz
  1  'x, y, z'
loop_
 _atom_site_type_symbol
 _atom_site_label
 _atom_site_symmetry_multiplicity
 _atom_site_fract_x
 _atom_site_fract_y
 _atom_site_fract_z
 _atom_site_occupancy
  Na  Na0  1  0.75037563  0.97167967  0.77897231  1
  Na  Na1  1  0.22196535  0.25053937  0.52769317  1
  Na  Na2  1  0.47273905  0.72212644  0.24932763  1
  Na  Na3  1  0.27774177  0.75000284  0.97206118  1
  Na  Na4  1  0.02698014  0.77710816  0.75080716  1
  Na  Na5  1  0.24972105  0.52797118  0.72192121  1
  Na  Na6  1  0.75033059  0.77347397  0.97652849  1
  Na  Na7  1  0.02386355  0.25028747  0.72604517  1
  Na  Na8  1  0.27366805  0.52357722  0.24954892  1
  Na  Na9  1  0.47652962  0.75017345  0.77386527  1
  Na  Na10  1  0.22600341  0.97682233  0.74985720  1
  Na  Na11  1  0.25000517  0.72626978  0.52357526  1
  Na  Na12  1  0.84312224  0.84409469  0.42001451  1
  Na  Na13  1  0.58342739  0.34498226  0.65080372  1
  Na  Na14  1  0.35043178  0.08407392  0.15434106  1
  Na  Na15  1  0.91519739  0.26815287  0.23704592  1
  U  U0  1  0.74731408  0.74050168  0.73042289  1
  U  U1  1  0.27090023  0.24705855  0.75802027  1
  U  U2  1  0.24298000  0.77152255  0.25274256  1
  U  U3  1  0.75342928  0.02364455  0.00493165  1
  U  U4  1  0.22866614  0.47184401  0.02395794  1
  U  U5  1  0.25644647  0.00536935  0.46961145  1
  U  U6  1  0.53077122  0.75701735  0.49436248  1
  U  U7  1  0.99367519  0.25199389  0.47589432  1
  U  U8  1  0.97486777  0.72793607  0.02777863  1
  U  U9  1  0.97139492  0.47539342  0.77218176  1
  U  U10  1  0.50506460  0.03046439  0.74352528  1
  U  U11  1  0.52370022  0.49614773  0.24732595  1
  Te  Te0  1  0.78936874  0.54805905  0.95977217  1
  Te  Te1  1  0.04289927  0.29017703  0.94913637  1
  Te  Te2  1  0.04944079  0.54421404  0.21115119  1
  Te  Te3  1  0.71005243  0.75048215  0.24041868  1
  Te  Te4  1  0.45744226  0.50822502  0.75284849  1
  Te  Te5  1  0.45032209  0.23899516  0.50510847  1
  Te  Te6  1  0.49500765  0.95075344  0.26101434  1
  Te  Te7  1  0.76008795  0.20906550  0.74936602  1
  Te  Te8  1  0.24693786  0.95733595  0.99223062  1
  Te  Te9  1  0.00779241  0.74695127  0.54198712  1
  Te  Te10  1  0.73815858  0.99321411  0.55121956  1
  Te  Te11  1  0.25034805  0.25990034  0.29011118  1
  Te  Te12  1  0.50006234  0.52223428  0.00055523  1
  Te  Te13  1  0.99937645  0.99906950  0.97779153  1
  Te  Te14  1  0.02188675  0.49930306  0.50070083  1
  Te  Te15  1  0.47801313  0.97786798  0.52176523  1
  Te  Te16  1  0.00040019  0.00032672  0.52467809  1
  Te  Te17  1  0.47487403  0.50081625  0.49996326  1
  Te  Te18  1  0.50103965  0.97518159  0.99908606  1
  Te  Te19  1  0.02548958  0.52610307  0.97315663  1
  O  O0  1  0.86898288  0.90703848  0.53158424  1
  O  O1  1  0.46855094  0.37018329  0.59330609  1
  O  O2  1  0.40760224  0.96897141  0.12989701  1
  O  O3  1  0.63552009  0.09592821  0.95792667  1
  O  O4  1  0.03278093  0.43990135  0.09766712  1
  O  O5  1  0.09520206  0.96256048  0.44134709  1
  O  O6  1  0.55764738  0.59571040  0.53858810  1
  O  O7  1  0.03894827  0.13404889  0.40452237  1
  O  O8  1  0.90435960  0.53834925  0.05430439  1
  O  O9  1  0.94473602  0.40433048  0.96120473  1
  O  O10  1  0.46265933  0.05772455  0.90406395  1
  O  O11  1  0.59542456  0.54142333  0.36579372  1
  O  O12  1  0.72514830  0.59142362  0.86891178  1
  O  O13  1  0.13203178  0.22505061  0.90902998  1
  O  O14  1  0.09172448  0.63341755  0.27501379  1
  O  O15  1  0.77612736  0.90518026  0.13535574  1
  O  O16  1  0.36868892  0.45919385  0.90687078  1
  O  O17  1  0.40694530  0.13263371  0.45873656  1
  O  O18  1  0.54256087  0.90856097  0.36670787  1
  O  O19  1  0.86534807  0.27404074  0.59374005  1
  O  O20  1  0.09371504  0.86942951  0.04052716  1
  O  O21  1  0.95984091  0.59392447  0.62929570  1
  O  O22  1  0.63394088  0.04253267  0.59057721  1
  O  O23  1  0.40448002  0.36536543  0.22438651  1
  O  O24  1  0.79554324  0.82990718  0.78713038  1
  O  O25  1  0.21309555  0.29492094  0.66966933  1
  O  O26  1  0.33054076  0.71339908  0.20448726  1
  O  O27  1  0.70383176  0.91725791  0.96577870  1
  O  O28  1  0.28746853  0.61790068  0.91733992  1
  O  O29  1  0.16935539  0.96524249  0.61586686  1
  O  O30  1  0.38447394  0.67023863  0.53421556  1
  O  O31  1  0.03430648  0.20497467  0.58154718  1
  O  O32  1  0.08270468  0.78654493  0.88201606  1
  O  O33  1  0.11739793  0.58267301  0.71396829  1
  O  O34  1  0.46550577  0.88444766  0.82995308  1
  O  O35  1  0.41665920  0.53453630  0.29674551  1
  O  O36  1  0.71294366  0.66719975  0.65679848  1
  O  O37  1  0.34339596  0.21260817  0.83256680  1
  O  O38  1  0.16802838  0.84321884  0.28799985  1
  O  O39  1  0.79404413  0.12756337  0.04604759  1
  O  O40  1  0.15659298  0.32533822  0.13152195  1
  O  O41  1  0.33559590  0.04959988  0.32022575  1
  O  O42  1  0.68065477  0.83706886  0.44982302  1
  O  O43  1  0.94869580  0.28491493  0.37087988  1
  O  O44  1  0.87067177  0.66520201  0.17266298  1
  O  O45  1  0.82695555  0.37063840  0.83434974  1
  O  O46  1  0.54959868  0.17979664  0.66411384  1
  O  O47  1  0.62840839  0.45648302  0.20645423  1
  O  O48  1  0.56550451  0.65317335  0.86234610  1
  O  O49  1  0.13789564  0.06614934  0.84627432  1
  O  O50  1  0.15429297  0.63657046  0.43383091  1
  O  O51  1  0.93533250  0.07100061  0.91044946  1
  O  O52  1  0.36282433  0.51708216  0.07091514  1
  O  O53  1  0.34676670  0.91264317  0.51519627  1
  O  O54  1  0.48514193  0.84719535  0.58695612  1
  O  O55  1  0.08604647  0.43367549  0.42721344  1
  O  O56  1  0.92967563  0.86426056  0.97999495  1
  O  O57  1  0.01967521  0.42912048  0.63531253  1
  O  O58  1  0.41316458  0.98472927  0.65282033  1
  O  O59  1  0.57033729  0.59024974  0.06498173  1
  O  O60  1  0.85084500  0.68416427  0.95517409  1
  O  O61  1  0.04656928  0.35156174  0.81392335  1
  O  O62  1  0.18277664  0.54351430  0.14955967  1
  O  O63  1  0.64818335  0.69418450  0.16604980  1
  O  O64  1  0.45620727  0.64107459  0.69303917  1
  O  O65  1  0.31761553  0.16768737  0.63969657  1
  O  O66  1  0.36060284  0.81770128  0.33251543  1
  O  O67  1  0.83488382  0.14826915  0.80551207  1
  O  O68  1  0.30741949  0.95651124  0.85883684  1
  O  O69  1  0.14106132  0.80766847  0.54290716  1
  O  O70  1  0.66668712  0.85990719  0.68406562  1
  O  O71  1  0.19166715  0.33349415  0.35138778  1
  O  O72  1  0.92346215  0.58103813  0.84203385  1
  O  O73  1  0.15887663  0.42433640  0.91827007  1
  O  O74  1  0.08194503  0.65777880  0.07574560  1
  O  O75  1  0.57568046  0.73374426  0.34302666  1
  O  O76  1  0.34230858  0.42444213  0.73313913  1
  O  O77  1  0.41765857  0.34196897  0.42469320  1
  O  O78  1  0.57538142  0.91812806  0.15781054  1
  O  O79  1  0.65760093  0.07515131  0.76587417  1
  O  O80  1  0.26719939  0.84264696  0.07570742  1
  O  O81  1  0.92457806  0.76721514  0.65696222  1
  O  O82  1  0.84217075  0.07492784  0.58296645  1
  O  O83  1  0.23241356  0.15732998  0.42486659  1
loop_
_geom_bond_atom_site_label_1
_geom_bond_atom_site_label_2
_geom_bond_distance
_geom_bond_site_symmetry_2
Na0 O82 2.370434 1_565
Na0 O27 2.374035 1_555
Na0 O79 2.380253 1_565
Na0 O24 2.388499 1_555
Na0 O67 2.718423 1_565
Na0 O70 2.754199 1_555
Na1 O77 2.365706 1_555
Na1 O83 2.374296 1_555
Na1 O25 2.378873 1_555
Na1 O31 2.389927 1_555
Na1 O71 2.743170 1_555
Na1 O65 2.761610 1_555
Na2 O78 2.372804 1_555
Na2 O75 2.379274 1_555
Na2 O35 2.382935 1_555
Na2 O26 2.384982 1_555
Na2 O63 2.713077 1_555
Na2 O66 2.766887 1_555
Na3 O74 2.366834 1_556
Na3 O80 2.377398 1_556
Na3 O28 2.383502 1_555
Na3 O34 2.390411 1_555
Na3 O62 2.745323 1_556
Na3 O68 2.749276 1_555
Na4 O81 2.373351 1_455
Na4 O32 2.374338 1_555
Na4 O72 2.374413 1_455
Na4 O29 2.397479 1_555
Na4 O60 2.720089 1_455
Na4 O69 2.759734 1_555
Na5 O73 2.375621 1_555
Na5 O76 2.377224 1_555
Na5 O33 2.378920 1_555
Na5 O30 2.392018 1_555
Na5 O61 2.712633 1_555
Na5 O64 2.747234 1_555
Na6 O63 2.305692 1_556
Na6 O60 2.313293 1_555
Na6 O24 2.410762 1_555
Na6 O27 2.423289 1_555
Na6 O56 2.568778 1_555
Na6 O59 2.577137 1_556
Na7 O67 2.297432 1_455
Na7 O61 2.304958 1_555
Na7 O25 2.410038 1_555
Na7 O31 2.419415 1_555
Na7 O57 2.573999 1_555
Na7 O51 2.582896 1_455
Na8 O71 2.311017 1_555
Na8 O62 2.320336 1_555
Na8 O35 2.412373 1_555
Na8 O26 2.420517 1_555
Na8 O52 2.582264 1_555
Na8 O55 2.591497 1_555
Na9 O70 2.308401 1_555
Na9 O64 2.310946 1_555
Na9 O28 2.401691 1_555
Na9 O34 2.430580 1_555
Na9 O48 2.583683 1_555
Na9 O54 2.592375 1_555
Na10 O68 2.313899 1_555
Na10 O65 2.319623 1_565
Na10 O32 2.413637 1_555
Na10 O29 2.428771 1_555
Na10 O49 2.582262 1_565
Na10 O58 2.601380 1_555
Na11 O69 2.316050 1_555
Na11 O66 2.319899 1_555
Na11 O33 2.415535 1_555
Na11 O30 2.429609 1_555
Na11 O53 2.588583 1_555
Na11 O50 2.589359 1_555
Na12 O0 2.225082 1_555
Na12 O42 2.253906 1_555
Na13 O1 2.220126 1_555
Na13 O46 2.253277 1_555
Na14 O2 2.221281 1_545
Na14 O41 2.249862 1_555
Na15 O4 2.213631 1_655
Na15 O43 2.264376 1_555
O0 Te16 1.917012 1_665
O0 U0 2.576479 1_555
O0 Te10 2.644800 1_555
O1 Te17 1.916855 1_555
O1 U1 2.555649 1_555
O1 Te5 2.671005 1_555
O2 Te18 1.918274 1_554
O2 U2 2.554865 1_555
O2 Te6 2.657774 1_555
O3 Te18 1.900697 1_545
O3 U3 2.497957 1_556
O3 Te7 2.533561 1_555
O4 Te19 1.921479 1_554
O4 U4 2.538753 1_555
O4 Te2 2.650285 1_555
O5 Te16 1.907061 1_565
O5 U5 2.469090 1_565
O5 Te9 2.622469 1_555
O6 Te17 1.911322 1_555
O6 U6 2.464087 1_555
O6 Te4 2.601386 1_555
O7 Te16 1.905462 1_555
O7 U7 2.483471 1_455
O7 Te11 2.566225 1_555
O8 Te19 1.902020 1_654
O8 U8 2.483500 1_555
O8 Te0 2.546800 1_554
O9 Te19 1.904131 1_655
O9 U9 2.471299 1_555
O9 Te1 2.585058 1_655
O10 Te18 1.909417 1_545
O10 U10 2.452909 1_555
O10 Te8 2.617775 1_545
O11 Te17 1.899929 1_555
O11 U11 2.488970 1_555
O11 Te3 2.543254 1_555
O12 Te0 1.951087 1_555
O12 U0 2.288036 1_555
O13 Te1 1.933557 1_555
O13 U1 2.308196 1_555
O14 Te2 1.925049 1_555
O14 U2 2.301396 1_555
O15 Te3 1.933368 1_555
O15 U3 2.342258 1_565
O16 Te4 1.925611 1_555
O16 U4 2.327304 1_556
O17 Te5 1.925007 1_555
O17 U5 2.299314 1_555
O18 Te6 1.925248 1_555
O18 U6 2.308964 1_555
O19 Te7 1.944648 1_555
O19 U7 2.311780 1_555
O20 Te8 1.915289 1_554
O20 U8 2.353755 1_455
O21 Te9 1.916739 1_655
O21 U9 2.355684 1_555
O22 Te10 1.921922 1_545
O22 U10 2.327458 1_555
O23 Te11 1.926109 1_555
O23 U11 2.351838 1_555
O24 U0 1.864565 1_555
O25 U1 1.864416 1_555
O26 U2 1.863847 1_555
O27 U3 1.865060 1_566
O28 U4 1.864879 1_556
O29 U5 1.862064 1_565
O30 U6 1.861657 1_555
O31 U7 1.862879 1_455
O32 U8 1.865690 1_456
O33 U9 1.866043 1_455
O34 U10 1.862469 1_565
O35 U11 1.864945 1_555
O36 U0 1.847800 1_555
O37 U1 1.845827 1_555
O38 U2 1.845784 1_555
O39 U3 1.831065 1_555
O40 U4 1.843366 1_555
O41 U5 1.865760 1_555
O42 U6 1.871325 1_555
O43 U7 1.869586 1_555
O44 U8 1.828890 1_555
O45 U9 1.827135 1_555
O46 U10 1.867257 1_555
O47 U11 1.826518 1_555
O48 Te12 1.913074 1_556
O48 U0 2.281595 1_555
O49 Te13 1.913896 1_445
O49 U1 2.277035 1_555
O50 Te14 1.910911 1_555
O50 U2 2.285834 1_555
O51 Te13 1.903940 1_545
O51 U3 2.294494 1_556
O52 Te12 1.910135 1_555
O52 U4 2.282481 1_555
O53 Te15 1.909288 1_555
O53 U5 2.311659 1_565
O54 Te15 1.911069 1_555
O54 U6 2.308961 1_555
O55 Te14 1.915168 1_555
O55 U7 2.285529 1_455
O56 Te13 1.900347 1_555
O56 U8 2.301922 1_556
O57 Te14 1.897645 1_555
O57 U9 2.318162 1_455
O58 Te15 1.910222 1_555
O58 U10 2.305181 1_565
O59 Te12 1.898682 1_555
O59 U11 2.303062 1_555
O60 Te0 1.881555 1_555
O60 U8 2.433518 1_556
O61 Te1 1.874231 1_555
O61 U9 2.461448 1_455
O62 Te2 1.883073 1_555
O62 U4 2.450380 1_555
O63 Te3 1.875245 1_555
O63 U11 2.449991 1_555
O64 Te4 1.879963 1_555
O64 U6 2.451494 1_555
O65 Te5 1.881147 1_555
O65 U1 2.457889 1_555
O66 Te6 1.882019 1_555
O66 U2 2.449255 1_555
O67 Te7 1.873096 1_555
O67 U3 2.464367 1_556
O68 Te8 1.882416 1_555
O68 U10 2.438379 1_565
O69 Te9 1.880184 1_555
O69 U5 2.443974 1_565
O70 Te10 1.873518 1_555
O70 U0 2.485502 1_555
O71 Te11 1.880750 1_555
O71 U7 2.446326 1_455
O72 Te0 1.921027 1_555
O72 U9 2.315349 1_555
O73 Te1 1.921796 1_555
O73 U4 2.308653 1_556
O74 Te2 1.908959 1_555
O74 U8 2.335930 1_455
O75 Te3 1.930693 1_555
O75 U6 2.291814 1_555
O76 Te4 1.919368 1_555
O76 U1 2.323737 1_555
O77 Te5 1.909211 1_555
O77 U11 2.329016 1_555
O78 Te6 1.910273 1_555
O78 U3 2.326440 1_565
O79 Te7 1.926725 1_555
O79 U10 2.298502 1_555
O80 Te8 1.921756 1_554
O80 U2 2.319356 1_555
O81 Te9 1.922081 1_655
O81 U0 2.310017 1_555
O82 Te10 1.915178 1_545
O82 U7 2.311131 1_555
O83 Te11 1.926589 1_555
O83 U5 2.310541 1_555
