# generated using pymatgen
data_Rb2O
_symmetry_space_group_name_H-M   'P 1'
_cell_length_a   4.38196000
_cell_length_b   6.43319900
_cell_length_c   6.63174400
_cell_angle_alpha   90.00000000
_cell_angle_beta   90.00000000
_cell_angle_gamma   90.00000000
_symmetry_Int_Tables_number   1
_chemical_formula_structural   Rb2O
_chemical_formula_sum   'Rb4 O2'
_cell_volume   186.94900057
_cell_formula_units_Z   2
loop_
 _symmetry_equiv_pos_site_id
 _symmetry_equiv_pos_as_xyz
  1  'x, y, z'
loop_
 _atom_site_type_symbol
 _atom_site_label
 _atom_site_symmetry_multiplicity
 _atom_site_fract_x
 _atom_site_fract_y
 _atom_site_fract_z
 _atom_site_occupancy
  Rb  Rb0  1  0.00000000  0.64708200  0.72394700  1
  Rb  Rb1  1  0.00000000  0.35291800  0.27605300  1
  Rb  Rb2  1  0.50000000  0.85291800  0.22394700  1
  Rb  Rb3  1  0.50000000  0.14708200  0.77605300  1
  O  O0  1  0.00000000  0.00000000  0.00000000  1
  O  O1  1  0.50000000  0.50000000  0.50000000  1
loop_
_geom_bond_atom_site_label_1
_geom_bond_atom_site_label_2
_geom_bond_distance
_geom_bond_site_symmetry_2
O0 Rb2 2.810943 1_445
O0 Rb2 2.810943 1_545
O0 Rb3 2.810943 1_554
O0 Rb3 2.810943 1_454
O0 Rb1 2.916537 1_555
O0 Rb0 2.916537 1_544
O1 Rb0 2.810943 1_655
O1 Rb0 2.810943 1_555
O1 Rb1 2.810943 1_555
O1 Rb1 2.810943 1_655
O1 Rb3 2.916537 1_555
O1 Rb2 2.916537 1_555
