# generated using pymatgen
data_KGa(SeO3)2
_symmetry_space_group_name_H-M   'P 1'
_cell_length_a   5.42227800
_cell_length_b   7.42881100
_cell_length_c   15.24526900
_cell_angle_alpha   90.00000000
_cell_angle_beta   90.00000000
_cell_angle_gamma   90.00000000
_symmetry_Int_Tables_number   1
_chemical_formula_structural   KGa(SeO3)2
_chemical_formula_sum   'K4 Ga4 Se8 O24'
_cell_volume   614.09587660
_cell_formula_units_Z   4
loop_
 _symmetry_equiv_pos_site_id
 _symmetry_equiv_pos_as_xyz
  1  'x, y, z'
loop_
 _atom_site_type_symbol
 _atom_site_label
 _atom_site_symmetry_multiplicity
 _atom_site_fract_x
 _atom_site_fract_y
 _atom_site_fract_z
 _atom_site_occupancy
  K  K0  1  0.25000000  0.07412600  0.88941600  1
  K  K1  1  0.25000000  0.42587400  0.38941600  1
  K  K2  1  0.75000000  0.92587400  0.11058400  1
  K  K3  1  0.75000000  0.57412600  0.61058400  1
  Ga  Ga0  1  0.75000000  0.69096600  0.87236300  1
  Ga  Ga1  1  0.75000000  0.80903400  0.37236300  1
  Ga  Ga2  1  0.25000000  0.30903400  0.12763700  1
  Ga  Ga3  1  0.25000000  0.19096600  0.62763700  1
  Se  Se0  1  0.25000000  0.61527700  0.97675200  1
  Se  Se1  1  0.25000000  0.88472300  0.47675200  1
  Se  Se2  1  0.75000000  0.38472300  0.02324800  1
  Se  Se3  1  0.75000000  0.11527700  0.52324800  1
  Se  Se4  1  0.25000000  0.49399800  0.77470400  1
  Se  Se5  1  0.25000000  0.00600200  0.27470400  1
  Se  Se6  1  0.75000000  0.50600200  0.22529600  1
  Se  Se7  1  0.75000000  0.99399800  0.72529600  1
  O  O0  1  0.25000000  0.57093600  0.08863400  1
  O  O1  1  0.25000000  0.92906400  0.58863400  1
  O  O2  1  0.75000000  0.42906400  0.91136600  1
  O  O3  1  0.75000000  0.07093600  0.41136600  1
  O  O4  1  0.00268000  0.76163500  0.96685300  1
  O  O5  1  0.49732000  0.73836500  0.46685300  1
  O  O6  1  0.50268000  0.23836500  0.03314700  1
  O  O7  1  0.99732000  0.26163500  0.53314700  1
  O  O8  1  0.99732000  0.23836500  0.03314700  1
  O  O9  1  0.50268000  0.26163500  0.53314700  1
  O  O10  1  0.49732000  0.76163500  0.96685300  1
  O  O11  1  0.00268000  0.73836500  0.46685300  1
  O  O12  1  0.25000000  0.45012300  0.66279000  1
  O  O13  1  0.25000000  0.04987700  0.16279000  1
  O  O14  1  0.75000000  0.54987700  0.33721000  1
  O  O15  1  0.75000000  0.95012300  0.83721000  1
  O  O16  1  0.00488500  0.64385600  0.77939100  1
  O  O17  1  0.49511500  0.85614400  0.27939100  1
  O  O18  1  0.50488500  0.35614400  0.22060900  1
  O  O19  1  0.99511500  0.14385600  0.72060900  1
  O  O20  1  0.99511500  0.35614400  0.22060900  1
  O  O21  1  0.50488500  0.14385600  0.72060900  1
  O  O22  1  0.49511500  0.64385600  0.77939100  1
  O  O23  1  0.00488500  0.85614400  0.27939100  1
loop_
_geom_bond_atom_site_label_1
_geom_bond_atom_site_label_2
_geom_bond_distance
_geom_bond_site_symmetry_2
K0 O6 2.857841 1_556
K0 O8 2.857841 1_456
K0 O10 2.929359 1_545
K0 O4 2.929359 1_545
K0 O21 2.966709 1_555
K0 O19 2.966709 1_455
K0 O15 2.971922 1_545
K0 O15 2.971922 1_445
K1 O9 2.857841 1_555
K1 O7 2.857841 1_455
K1 O5 2.929359 1_555
K1 O11 2.929359 1_555
K1 O20 2.966709 1_455
K1 O18 2.966709 1_555
K1 O14 2.971922 1_455
K1 O14 2.971922 1_555
K2 O4 2.857841 1_654
K2 O10 2.857841 1_554
K2 O8 2.929359 1_565
K2 O6 2.929359 1_565
K2 O17 2.966709 1_555
K2 O23 2.966709 1_655
K2 O13 2.971922 1_565
K2 O13 2.971922 1_665
K3 O5 2.857841 1_555
K3 O11 2.857841 1_655
K3 O7 2.929359 1_555
K3 O9 2.929359 1_555
K3 O22 2.966709 1_555
K3 O16 2.966709 1_655
K3 O12 2.971922 1_655
K3 O12 2.971922 1_555
Ga0 O15 1.998427 1_555
Ga0 O22 2.010358 1_555
Ga0 O16 2.010358 1_655
Ga0 O2 2.034454 1_555
Ga0 O4 2.056186 1_655
Ga0 O10 2.056186 1_555
Ga1 O14 1.998427 1_555
Ga1 O23 2.010358 1_655
Ga1 O17 2.010358 1_555
Ga1 O3 2.034454 1_565
Ga1 O5 2.056186 1_555
Ga1 O11 2.056186 1_655
Ga2 O13 1.998427 1_555
Ga2 O18 2.010358 1_555
Ga2 O20 2.010358 1_455
Ga2 O0 2.034454 1_555
Ga2 O6 2.056186 1_555
Ga2 O8 2.056186 1_455
Ga3 O12 1.998427 1_555
Ga3 O21 2.010358 1_555
Ga3 O19 2.010358 1_455
Ga3 O1 2.034454 1_545
Ga3 O7 2.056186 1_455
Ga3 O9 2.056186 1_555
O0 Se0 1.737187 1_554
O1 Se1 1.737187 1_555
O2 Se2 1.737187 1_556
O3 Se3 1.737187 1_555
O4 Se0 1.733004 1_555
O5 Se1 1.733004 1_555
O6 Se2 1.733004 1_555
O7 Se3 1.733004 1_555
O8 Se2 1.733004 1_555
O9 Se3 1.733004 1_555
O10 Se0 1.733004 1_555
O11 Se1 1.733004 1_555
O12 Se4 1.737013 1_555
O13 Se5 1.737013 1_555
O14 Se6 1.737013 1_555
O15 Se7 1.737013 1_555
O16 Se4 1.735202 1_555
O17 Se5 1.735202 1_565
O18 Se6 1.735202 1_555
O19 Se7 1.735202 1_545
O20 Se6 1.735202 1_555
O21 Se7 1.735202 1_545
O22 Se4 1.735202 1_555
O23 Se5 1.735202 1_565
