# generated using pymatgen
data_CuH6Pb4(SO7)2
_symmetry_space_group_name_H-M   'P 1'
_cell_length_a   5.92357994
_cell_length_b   8.12419656
_cell_length_c   8.12031558
_cell_angle_alpha   112.59806755
_cell_angle_beta   97.05163681
_cell_angle_gamma   101.24966068
_symmetry_Int_Tables_number   1
_chemical_formula_structural   CuH6Pb4(SO7)2
_chemical_formula_sum   'Cu1 H6 Pb4 S2 O14'
_cell_volume   345.31008475
_cell_formula_units_Z   1
loop_
 _symmetry_equiv_pos_site_id
 _symmetry_equiv_pos_as_xyz
  1  'x, y, z'
loop_
 _atom_site_type_symbol
 _atom_site_label
 _atom_site_symmetry_multiplicity
 _atom_site_fract_x
 _atom_site_fract_y
 _atom_site_fract_z
 _atom_site_occupancy
  Cu  Cu0  1  0.00000000  0.00000000  0.00000000  1
  H  H0  1  0.84304500  0.65732000  0.80359100  1
  H  H1  1  0.15695500  0.34268000  0.19640900  1
  H  H2  1  0.78090200  0.08320100  0.24868400  1
  H  H3  1  0.21909800  0.91679900  0.75131600  1
  H  H4  1  0.81929700  0.41918600  0.44595100  1
  H  H5  1  0.18070300  0.58081400  0.55404900  1
  Pb  Pb0  1  0.63233600  0.74499300  0.51164300  1
  Pb  Pb1  1  0.36766400  0.25500700  0.48835700  1
  Pb  Pb2  1  0.44061000  0.72997000  0.95378000  1
  Pb  Pb3  1  0.55939000  0.27003000  0.04622000  1
  S  S0  1  0.93917900  0.26456400  0.72099900  1
  S  S1  1  0.06082100  0.73543600  0.27900100  1
  O  O0  1  0.78922900  0.76805900  0.81353500  1
  O  O1  1  0.21077100  0.23194100  0.18646500  1
  O  O2  1  0.72543500  0.04485600  0.11703500  1
  O  O3  1  0.27456500  0.95514400  0.88296500  1
  O  O4  1  0.67290100  0.43619400  0.39336600  1
  O  O5  1  0.32709900  0.56380600  0.60663400  1
  O  O6  1  0.19556200  0.31811000  0.80771000  1
  O  O7  1  0.80443800  0.68189000  0.19229000  1
  O  O8  1  0.83751900  0.42644400  0.78168600  1
  O  O9  1  0.16248100  0.57355600  0.21831400  1
  O  O10  1  0.91419500  0.18860800  0.51644500  1
  O  O11  1  0.08580500  0.81139200  0.48355500  1
  O  O12  1  0.80495200  0.12003700  0.77054800  1
  O  O13  1  0.19504800  0.87996300  0.22945200  1
loop_
_geom_bond_atom_site_label_1
_geom_bond_atom_site_label_2
_geom_bond_distance
_geom_bond_site_symmetry_2
Cu0 O0 1.956363 1_444
Cu0 O1 1.956363 1_555
Cu0 O3 2.006435 1_544
Cu0 O2 2.006435 1_455
H0 O0 0.989914 1_555
H1 O1 0.989914 1_555
H2 O2 0.982706 1_555
H3 O3 0.982706 1_555
H4 O4 0.977048 1_555
H5 O5 0.977048 1_555
O0 Pb0 2.434769 1_555
O0 Pb2 2.501230 1_555
O1 Pb1 2.434769 1_555
O1 Pb3 2.501230 1_555
O2 Pb3 2.452810 1_555
O2 Pb2 2.511741 1_544
O3 Pb2 2.452810 1_555
O3 Pb3 2.511741 1_566
O4 Pb0 2.390414 1_555
O4 Pb1 2.491504 1_555
O4 Pb3 2.544948 1_555
O5 Pb1 2.390414 1_555
O5 Pb0 2.491504 1_555
O5 Pb2 2.544948 1_555
O6 S0 1.495246 1_455
O6 Pb1 2.803274 1_555
O7 S1 1.495246 1_655
O7 Pb0 2.803274 1_555
O8 S0 1.489587 1_555
O9 S1 1.489587 1_555
O10 S0 1.509313 1_555
O10 Pb1 2.690370 1_655
O11 S1 1.509313 1_555
O11 Pb0 2.690370 1_455
O12 S0 1.500037 1_555
O12 Pb0 2.843044 1_545
O13 S1 1.500037 1_555
O13 Pb1 2.843044 1_565
