# generated using pymatgen
data_Sr10Cu5Mo3(WO15)2
_symmetry_space_group_name_H-M   'P 1'
_cell_length_a   5.49492600
_cell_length_b   5.75274862
_cell_length_c   23.21869737
_cell_angle_alpha   86.27160628
_cell_angle_beta   83.21843666
_cell_angle_gamma   61.46259866
_symmetry_Int_Tables_number   1
_chemical_formula_structural   Sr10Cu5Mo3(WO15)2
_chemical_formula_sum   'Sr10 Cu5 Mo3 W2 O30'
_cell_volume   640.24940726
_cell_formula_units_Z   1
loop_
 _symmetry_equiv_pos_site_id
 _symmetry_equiv_pos_as_xyz
  1  'x, y, z'
loop_
 _atom_site_type_symbol
 _atom_site_label
 _atom_site_symmetry_multiplicity
 _atom_site_fract_x
 _atom_site_fract_y
 _atom_site_fract_z
 _atom_site_occupancy
  Sr  Sr0  1  0.34993100  0.15007000  0.95006200  1
  Sr  Sr1  1  0.14997900  0.34991900  0.54993500  1
  Sr  Sr2  1  0.94991700  0.55004100  0.15034600  1
  Sr  Sr3  1  0.75020200  0.74990500  0.74949400  1
  Sr  Sr4  1  0.54991500  0.95006100  0.35014000  1
  Sr  Sr5  1  0.05008300  0.44995900  0.84965400  1
  Sr  Sr6  1  0.85002100  0.65008100  0.45006500  1
  Sr  Sr7  1  0.65006900  0.84993000  0.04993800  1
  Sr  Sr8  1  0.45008500  0.04993900  0.64986000  1
  Sr  Sr9  1  0.24979800  0.25009500  0.25050600  1
  Cu  Cu0  1  0.00000000  0.50000000  0.00000000  1
  Cu  Cu1  1  0.79998600  0.69989400  0.59997400  1
  Cu  Cu2  1  0.59937900  0.89972200  0.20048300  1
  Cu  Cu3  1  0.40062100  0.10027800  0.79951700  1
  Cu  Cu4  1  0.20001400  0.30010600  0.40002600  1
  Mo  Mo0  1  0.90013400  0.60026100  0.29997200  1
  Mo  Mo1  1  0.50000000  0.00000000  0.50000000  1
  Mo  Mo2  1  0.09986600  0.39973900  0.70002800  1
  W  W0  1  0.70059200  0.80107200  0.89972700  1
  W  W1  1  0.29940800  0.19892800  0.10027300  1
  O  O0  1  0.83787300  0.12166700  0.94589100  1
  O  O1  1  0.63769500  0.32137900  0.54593400  1
  O  O2  1  0.43765800  0.52124100  0.14597900  1
  O  O3  1  0.23737100  0.72051800  0.74585200  1
  O  O4  1  0.03780500  0.92161800  0.34588800  1
  O  O5  1  0.56234200  0.47875900  0.85402100  1
  O  O6  1  0.36230500  0.67862100  0.45406600  1
  O  O7  1  0.16212700  0.87833300  0.05410900  1
  O  O8  1  0.96219500  0.07838200  0.65411200  1
  O  O9  1  0.76262900  0.27948200  0.25414800  1
  O  O10  1  0.61699100  0.37471200  0.04171900  1
  O  O11  1  0.21761600  0.77485700  0.24178400  1
  O  O12  1  0.81725500  0.17478500  0.44175400  1
  O  O13  1  0.41730900  0.57465300  0.64177000  1
  O  O14  1  0.01771100  0.97517100  0.84156300  1
  O  O15  1  0.38300900  0.62528800  0.95828100  1
  O  O16  1  0.98228900  0.02482900  0.15843700  1
  O  O17  1  0.58269100  0.42534700  0.35823000  1
  O  O18  1  0.18274500  0.82521500  0.55824600  1
  O  O19  1  0.78238400  0.22514300  0.75821600  1
  O  O20  1  0.48907800  0.92088500  0.85972000  1
  O  O21  1  0.08831800  0.32014200  0.05990700  1
  O  O22  1  0.68933800  0.72077200  0.25980700  1
  O  O23  1  0.28904700  0.12045600  0.45983300  1
  O  O24  1  0.88894200  0.52032400  0.65981800  1
  O  O25  1  0.91168200  0.67985800  0.94009300  1
  O  O26  1  0.51092200  0.07911500  0.14028000  1
  O  O27  1  0.11105800  0.47967600  0.34018200  1
  O  O28  1  0.71095300  0.87954400  0.54016700  1
  O  O29  1  0.31066200  0.27922800  0.74019300  1
loop_
_geom_bond_atom_site_label_1
_geom_bond_atom_site_label_2
_geom_bond_distance
_geom_bond_site_symmetry_2
Sr0 W0 2.277406 1_545
Sr2 W1 2.278477 1_655
Sr5 W0 2.278477 1_455
Sr7 W1 2.277406 1_565
Cu0 O21 1.653280 1_555
Cu0 O25 1.653280 1_454
Cu0 Sr7 2.274373 1_455
Cu0 Sr0 2.274373 1_554
Cu0 O15 2.600813 1_554
Cu0 O10 2.600813 1_455
Cu1 O28 1.651200 1_555
Cu1 O24 1.651679 1_555
Cu1 Sr8 2.274090 1_565
Cu1 Sr1 2.275727 1_655
Cu1 O13 2.599466 1_555
Cu1 O18 2.599755 1_655
Cu2 O22 1.640610 1_555
Cu2 O26 1.657951 1_565
Cu2 Sr9 2.275914 1_565
Cu2 Sr2 2.277011 1_555
Cu2 O11 2.590606 1_555
Cu2 O16 2.601636 1_565
Cu3 O29 1.640610 1_555
Cu3 O20 1.657951 1_545
Cu3 Sr3 2.275914 1_545
Cu3 Sr5 2.277011 1_555
Cu3 O19 2.590606 1_555
Cu3 O14 2.601636 1_545
Cu4 O23 1.651200 1_555
Cu4 O27 1.651679 1_555
Cu4 Sr4 2.274090 1_545
Cu4 Sr6 2.275727 1_455
Cu4 O17 2.599466 1_555
Cu4 O12 2.599755 1_455
Mo0 O22 1.447680 1_555
Mo0 O27 1.448898 1_655
Mo0 Sr9 2.269437 1_655
Mo0 Sr4 2.277064 1_555
Mo0 O11 2.611256 1_655
Mo0 O17 2.612985 1_555
Mo1 O28 1.448254 1_545
Mo1 O23 1.448254 1_555
Mo1 Sr1 2.274487 1_555
Mo1 Sr6 2.274487 1_545
Mo1 O12 2.611556 1_555
Mo1 O18 2.611556 1_545
Mo2 O29 1.447680 1_555
Mo2 O24 1.448898 1_455
Mo2 Sr3 2.269437 1_455
Mo2 Sr8 2.277064 1_555
Mo2 O19 2.611256 1_455
Mo2 O13 2.612985 1_555
O0 Sr0 2.597515 1_555
O0 Sr0 2.908400 1_655
O1 Sr1 2.596260 1_555
O1 Sr1 2.909455 1_655
O2 Sr2 2.595075 1_455
O2 Sr2 2.911383 1_555
O3 Sr3 2.591878 1_455
O3 Sr3 2.913759 1_555
O4 Sr4 2.596981 1_455
O4 Sr4 2.909090 1_555
O5 Sr5 2.595075 1_655
O5 Sr5 2.911383 1_555
O6 Sr6 2.596260 1_555
O6 Sr6 2.909455 1_455
O7 Sr7 2.597515 1_555
O7 Sr7 2.908400 1_455
O8 Sr8 2.596981 1_655
O8 Sr8 2.909090 1_555
O9 Sr9 2.591878 1_655
O9 Sr9 2.913759 1_555
O10 W1 2.619796 1_555
O10 Sr7 2.844993 1_555
O10 Sr7 2.931284 1_545
O11 Sr9 2.844120 1_565
O11 Sr9 2.933336 1_555
O12 Sr6 2.844823 1_555
O12 Sr6 2.931574 1_545
O13 Sr8 2.844092 1_565
O13 Sr8 2.931581 1_555
O14 W0 2.607533 1_455
O14 Sr5 2.840066 1_565
O14 Sr5 2.935374 1_555
O15 W0 2.619796 1_555
O15 Sr0 2.844993 1_555
O15 Sr0 2.931284 1_565
O16 W1 2.607533 1_655
O16 Sr2 2.840066 1_545
O16 Sr2 2.935374 1_555
O17 Sr4 2.844092 1_545
O17 Sr4 2.931581 1_555
O18 Sr1 2.844823 1_555
O18 Sr1 2.931574 1_565
O19 Sr3 2.844120 1_545
O19 Sr3 2.933336 1_555
O20 W0 1.447438 1_555
O20 Sr0 2.395964 1_565
O21 W1 1.452254 1_555
O21 Sr2 2.400001 1_455
O22 Sr4 2.395982 1_555
O23 Sr1 2.391847 1_555
O24 Sr3 2.383615 1_555
O25 W0 1.452254 1_555
O25 Sr5 2.400001 1_655
O26 W1 1.447438 1_555
O26 Sr7 2.395964 1_545
O27 Sr9 2.383615 1_555
O28 Sr6 2.391847 1_555
O29 Sr8 2.395982 1_555
