# generated using pymatgen
data_YMgAl
_symmetry_space_group_name_H-M   'P 1'
_cell_length_a   7.35727132
_cell_length_b   7.35727126
_cell_length_c   4.55025859
_cell_angle_alpha   90.00000000
_cell_angle_beta   90.00000000
_cell_angle_gamma   119.99999561
_symmetry_Int_Tables_number   1
_chemical_formula_structural   YMgAl
_chemical_formula_sum   'Y3 Mg3 Al3'
_cell_volume   213.30462385
_cell_formula_units_Z   3
loop_
 _symmetry_equiv_pos_site_id
 _symmetry_equiv_pos_as_xyz
  1  'x, y, z'
loop_
 _atom_site_type_symbol
 _atom_site_label
 _atom_site_symmetry_multiplicity
 _atom_site_fract_x
 _atom_site_fract_y
 _atom_site_fract_z
 _atom_site_occupancy
  Y  Y0  1  0.00000000  0.56708074  -0.00000000  1
  Y  Y1  1  0.43291926  0.43291926  -0.00000000  1
  Y  Y2  1  0.56708074  0.00000000  0.00000000  1
  Mg  Mg0  1  0.75819230  0.75819230  0.50000000  1
  Mg  Mg1  1  0.24180770  1.00000000  0.50000000  1
  Mg  Mg2  1  1.00000000  0.24180770  0.50000000  1
  Al  Al0  1  0.66666700  0.33333300  0.50000000  1
  Al  Al1  1  -0.00000000  -0.00000000  -0.00000000  1
  Al  Al2  1  0.33333300  0.66666700  0.50000000  1
loop_
_geom_bond_atom_site_label_1
_geom_bond_atom_site_label_2
_geom_bond_distance
_geom_bond_site_symmetry_2
Al0 Mg2 2.849423 1_555
Al0 Mg1 2.849428 1_545
Al0 Mg0 2.849430 1_555
Al0 Y2 3.151279 1_556
Al0 Y2 3.151279 1_555
Al0 Y0 3.151280 1_655
Al0 Y0 3.151280 1_656
Al0 Y1 3.151284 1_556
Al0 Y1 3.151284 1_555
Al1 Mg2 2.888116 1_455
Al1 Mg2 2.888116 1_454
Al1 Mg1 2.888116 1_544
Al1 Mg1 2.888116 1_545
Al1 Mg0 2.888116 1_444
Al1 Mg0 2.888116 1_445
Al1 Y0 3.185104 1_545
Al1 Y2 3.185104 1_455
Al1 Y1 3.185105 1_555
Al2 Mg1 2.849423 1_555
Al2 Mg2 2.849428 1_455
Al2 Mg0 2.849430 1_555
Al2 Y0 3.151279 1_555
Al2 Y0 3.151279 1_556
Al2 Y2 3.151280 1_566
Al2 Y2 3.151280 1_565
Al2 Y1 3.151284 1_556
Al2 Y1 3.151284 1_555
