# generated using pymatgen
data_BaCaTiF7
_symmetry_space_group_name_H-M   'P 1'
_cell_length_a   10.40383500
_cell_length_b   5.91487200
_cell_length_c   10.09196094
_cell_angle_alpha   87.25854516
_cell_angle_beta   90.00000000
_cell_angle_gamma   90.00000000
_symmetry_Int_Tables_number   1
_chemical_formula_structural   BaCaTiF7
_chemical_formula_sum   'Ba4 Ca4 Ti4 F28'
_cell_volume   620.32180338
_cell_formula_units_Z   4
loop_
 _symmetry_equiv_pos_site_id
 _symmetry_equiv_pos_as_xyz
  1  'x, y, z'
loop_
 _atom_site_type_symbol
 _atom_site_label
 _atom_site_symmetry_multiplicity
 _atom_site_fract_x
 _atom_site_fract_y
 _atom_site_fract_z
 _atom_site_occupancy
  Ba  Ba0  1  0.32528400  0.72883700  0.50301800  1
  Ba  Ba1  1  0.82528400  0.27116300  0.99698200  1
  Ba  Ba2  1  0.67471600  0.27116300  0.49698200  1
  Ba  Ba3  1  0.17471600  0.72883700  0.00301800  1
  Ca  Ca0  1  0.40577500  0.30021800  0.81800400  1
  Ca  Ca1  1  0.90577500  0.69978200  0.68199600  1
  Ca  Ca2  1  0.09422500  0.30021800  0.31800400  1
  Ca  Ca3  1  0.59422500  0.69978200  0.18199600  1
  Ti  Ti0  1  0.61729500  0.80995800  0.80839200  1
  Ti  Ti1  1  0.38270500  0.19004200  0.19160800  1
  Ti  Ti2  1  0.88270500  0.80995800  0.30839200  1
  Ti  Ti3  1  0.11729500  0.19004200  0.69160800  1
  F  F0  1  0.42438900  0.89542700  0.10904900  1
  F  F1  1  0.04652000  0.65480600  0.37129000  1
  F  F2  1  0.70542900  0.52374400  0.74378100  1
  F  F3  1  0.29457100  0.47625600  0.25621900  1
  F  F4  1  0.45975100  0.09552800  0.35854500  1
  F  F5  1  0.80006000  0.72604400  0.47951700  1
  F  F6  1  0.77636700  0.98822600  0.74605300  1
  F  F7  1  0.95975100  0.90447200  0.14145500  1
  F  F8  1  0.45348000  0.65480600  0.87129000  1
  F  F9  1  0.20542900  0.47625600  0.75621900  1
  F  F10  1  0.07561100  0.89542700  0.60904900  1
  F  F11  1  0.57561100  0.10457300  0.89095100  1
  F  F12  1  0.27636700  0.01177400  0.75394700  1
  F  F13  1  0.96098300  0.60427100  0.88483900  1
  F  F14  1  0.54024900  0.90447200  0.64145500  1
  F  F15  1  0.04024900  0.09552800  0.85854500  1
  F  F16  1  0.22363300  0.01177400  0.25394700  1
  F  F17  1  0.92438900  0.10457300  0.39095100  1
  F  F18  1  0.46098300  0.39572900  0.61516100  1
  F  F19  1  0.95348000  0.34519400  0.62871000  1
  F  F20  1  0.03901700  0.39572900  0.11516100  1
  F  F21  1  0.72363300  0.98822600  0.24605300  1
  F  F22  1  0.53901700  0.60427100  0.38483900  1
  F  F23  1  0.30006000  0.27395600  0.02048300  1
  F  F24  1  0.19994000  0.27395600  0.52048300  1
  F  F25  1  0.69994000  0.72604400  0.97951700  1
  F  F26  1  0.54652000  0.34519400  0.12871000  1
  F  F27  1  0.79457100  0.52374400  0.24378100  1
loop_
_geom_bond_atom_site_label_1
_geom_bond_atom_site_label_2
_geom_bond_distance
_geom_bond_site_symmetry_2
Ba0 F18 2.634907 1_555
Ba0 F22 2.644606 1_555
Ba0 F14 2.858620 1_555
Ba0 F4 2.912849 1_565
Ba0 F3 2.982206 1_555
Ba0 F24 2.987541 1_555
Ba0 F10 2.994015 1_555
Ba0 F16 3.136083 1_565
Ba0 F12 3.142929 1_565
Ba0 F9 3.154556 1_555
Ba0 F1 3.228926 1_555
Ba1 F13 2.634907 1_555
Ba1 F20 2.644606 1_656
Ba1 F15 2.858620 1_655
Ba1 F7 2.912849 1_546
Ba1 F27 2.982206 1_556
Ba1 F25 2.987541 1_555
Ba1 F11 2.994015 1_555
Ba1 F21 3.136083 1_546
Ba1 F6 3.142929 1_545
Ba1 F2 3.154556 1_555
Ba1 F26 3.228926 1_556
Ba2 F22 2.634907 1_555
Ba2 F18 2.644606 1_555
Ba2 F4 2.858620 1_555
Ba2 F14 2.912849 1_545
Ba2 F2 2.982206 1_555
Ba2 F5 2.987541 1_555
Ba2 F17 2.994015 1_555
Ba2 F6 3.136083 1_545
Ba2 F21 3.142929 1_545
Ba2 F27 3.154556 1_555
Ba2 F19 3.228926 1_555
Ba3 F20 2.634907 1_555
Ba3 F13 2.644606 1_454
Ba3 F7 2.858620 1_455
Ba3 F15 2.912849 1_564
Ba3 F9 2.982206 1_554
Ba3 F23 2.987541 1_555
Ba3 F0 2.994015 1_555
Ba3 F12 3.136083 1_564
Ba3 F16 3.142929 1_565
Ba3 F3 3.154556 1_555
Ba3 F8 3.228926 1_554
Ca0 F18 2.174623 1_555
Ca0 F11 2.218493 1_555
Ca0 F8 2.245496 1_555
Ca0 F12 2.290602 1_555
Ca0 F23 2.319255 1_556
Ca0 F9 2.399053 1_555
Ca1 F13 2.174623 1_555
Ca1 F10 2.218493 1_655
Ca1 F19 2.245496 1_555
Ca1 F6 2.290602 1_555
Ca1 F5 2.319255 1_555
Ca1 F2 2.399053 1_555
Ca2 F20 2.174623 1_555
Ca2 F17 2.218493 1_455
Ca2 F1 2.245496 1_555
Ca2 F16 2.290602 1_555
Ca2 F24 2.319255 1_555
Ca2 F3 2.399053 1_555
Ca3 F22 2.174623 1_555
Ca3 F0 2.218493 1_555
Ca3 F26 2.245496 1_555
Ca3 F21 2.290602 1_555
Ca3 F25 2.319255 1_554
Ca3 F27 2.399053 1_555
F0 Ti1 2.014409 1_565
F1 Ti2 2.023372 1_455
F2 Ti0 2.058520 1_555
F3 Ti1 2.058520 1_555
F4 Ti1 1.924380 1_555
F5 Ti2 1.971330 1_555
F6 Ti0 2.045252 1_555
F7 Ti2 1.924380 1_555
F8 Ti0 2.023372 1_555
F9 Ti3 2.058520 1_555
F10 Ti3 2.014409 1_565
F11 Ti0 2.014409 1_545
F12 Ti3 2.045252 1_555
F14 Ti0 1.924380 1_555
F15 Ti3 1.924380 1_555
F16 Ti1 2.045252 1_555
F17 Ti2 2.014409 1_545
F19 Ti3 2.023372 1_655
F21 Ti2 2.045252 1_555
F23 Ti1 1.971330 1_555
F24 Ti3 1.971330 1_555
F25 Ti0 1.971330 1_555
F26 Ti1 2.023372 1_555
F27 Ti2 2.058520 1_555
