# generated using pymatgen
data_Li4MnCo2O7
_symmetry_space_group_name_H-M   'P 1'
_cell_length_a   5.10114600
_cell_length_b   5.87677367
_cell_length_c   8.60841398
_cell_angle_alpha   91.74360628
_cell_angle_beta   94.62171128
_cell_angle_gamma   108.47732565
_symmetry_Int_Tables_number   1
_chemical_formula_structural   Li4MnCo2O7
_chemical_formula_sum   'Li8 Mn2 Co4 O14'
_cell_volume   243.53823412
_cell_formula_units_Z   2
loop_
 _symmetry_equiv_pos_site_id
 _symmetry_equiv_pos_as_xyz
  1  'x, y, z'
loop_
 _atom_site_type_symbol
 _atom_site_label
 _atom_site_symmetry_multiplicity
 _atom_site_fract_x
 _atom_site_fract_y
 _atom_site_fract_z
 _atom_site_occupancy
  Li  Li0  1  0.85428700  0.21277200  0.71162000  1
  Li  Li1  1  0.71834400  0.92850600  0.43287100  1
  Li  Li2  1  0.28145800  0.06695100  0.57636600  1
  Li  Li3  1  0.14242500  0.78504100  0.28906100  1
  Li  Li4  1  0.57140800  0.63963900  0.14357900  1
  Li  Li5  1  0.00037100  0.50195500  0.99505300  1
  Li  Li6  1  0.43204200  0.36599100  0.85228100  1
  Li  Li7  1  0.85692900  0.71378300  0.71334400  1
  Mn  Mn0  1  0.99841500  0.99671700  0.99641000  1
  Mn  Mn1  1  0.28706800  0.57340600  0.57358400  1
  Co  Co0  1  0.71483500  0.42900300  0.42926700  1
  Co  Co1  1  0.57266000  0.14478600  0.14440700  1
  Co  Co2  1  0.42759000  0.85573500  0.85574500  1
  Co  Co3  1  0.14299100  0.28578400  0.28668500  1
  O  O0  1  0.15722500  0.02525500  0.80367900  1
  O  O1  1  0.00389800  0.71896300  0.50109800  1
  O  O2  1  0.54562800  0.87844700  0.64772600  1
  O  O3  1  0.40787600  0.59471400  0.36080000  1
  O  O4  1  0.83643500  0.44540900  0.21975000  1
  O  O5  1  0.26335500  0.30785700  0.07898800  1
  O  O6  1  0.71692200  0.15486200  0.93855200  1
  O  O7  1  0.55977600  0.40768300  0.62566800  1
  O  O8  1  0.44955100  0.12504500  0.34779800  1
  O  O9  1  0.01965600  0.26013500  0.49487800  1
  O  O10  1  0.87868900  0.97978200  0.20932900  1
  O  O11  1  0.28281600  0.84726100  0.06167900  1
  O  O12  1  0.71009800  0.70597800  0.93073600  1
  O  O13  1  0.16725300  0.54854000  0.77904600  1
loop_
_geom_bond_atom_site_label_1
_geom_bond_atom_site_label_2
_geom_bond_distance
_geom_bond_site_symmetry_2
Li0 O9 2.099222 1_655
Li0 O2 2.115583 1_545
Li0 O6 2.129081 1_555
Li0 O13 2.136230 1_655
Li0 O7 2.253835 1_555
Li0 O0 2.272814 1_655
Li1 O9 2.085995 1_665
Li1 O2 2.101213 1_555
Li1 O3 2.130609 1_555
Li1 O10 2.143744 1_555
Li1 O8 2.154980 1_565
Li1 O1 2.241956 1_655
Li2 O7 2.062668 1_555
Li2 O2 2.067551 1_545
Li2 O0 2.102697 1_555
Li2 O9 2.103105 1_555
Li2 O1 2.131409 1_545
Li2 O8 2.202385 1_555
Li3 O1 2.014680 1_555
Li3 O3 2.081667 1_555
Li3 O10 2.113240 1_455
Li3 O8 2.128215 1_565
Li3 O4 2.139829 1_455
Li3 O11 2.140435 1_555
Li4 O12 2.021672 1_554
Li4 O3 2.098583 1_555
Li4 O5 2.105084 1_555
Li4 O4 2.107472 1_555
Li4 O10 2.138981 1_555
Li4 O11 2.275236 1_555
Li5 O13 2.096581 1_555
Li5 O6 2.108266 1_455
Li5 O11 2.113191 1_556
Li5 O5 2.118201 1_556
Li5 O4 2.162143 1_456
Li5 O12 2.229419 1_455
Li6 O13 2.048228 1_555
Li6 O0 2.055526 1_555
Li6 O7 2.103063 1_555
Li6 O12 2.104104 1_555
Li6 O5 2.188774 1_556
Li6 O6 2.286461 1_555
Li7 O7 2.026807 1_555
Li7 O1 2.027550 1_655
Li7 O0 2.060565 1_665
Li7 O12 2.067508 1_555
Li7 O13 2.152295 1_655
Li7 O2 2.154060 1_555
Mn0 O0 1.893268 1_665
Mn0 O12 1.901693 1_555
Mn0 O5 1.968492 1_666
Mn0 O10 1.973673 1_556
Mn0 O11 1.974393 1_656
Mn0 O6 1.983067 1_565
Mn1 O13 1.912209 1_555
Mn1 O2 1.912226 1_555
Mn1 O7 1.967129 1_555
Mn1 O1 1.969283 1_555
Mn1 O9 1.972946 1_555
Mn1 O3 1.974249 1_555
Co0 O1 1.912233 1_655
Co0 O7 1.914524 1_555
Co0 O8 1.937156 1_555
Co0 O4 1.949369 1_555
Co0 O9 2.142985 1_655
Co0 O3 2.144852 1_555
Co1 O8 1.901782 1_555
Co1 O4 1.906625 1_555
Co1 O11 1.966299 1_545
Co1 O6 1.968315 1_554
Co1 O10 2.131097 1_545
Co1 O5 2.138483 1_555
Co2 O2 1.929869 1_555
Co2 O13 1.930083 1_555
Co2 O11 1.970691 1_556
Co2 O6 1.971380 1_565
Co2 O0 1.973306 1_565
Co2 O12 1.989141 1_555
Co3 O5 1.931604 1_555
Co3 O10 1.934093 1_445
Co3 O3 1.940248 1_555
Co3 O9 1.941291 1_555
Co3 O8 2.109167 1_555
Co3 O4 2.115411 1_455
