# generated using pymatgen
data_CeZnCo2
_symmetry_space_group_name_H-M   'P 1'
_cell_length_a   5.17344629
_cell_length_b   5.17344629
_cell_length_c   15.85564400
_cell_angle_alpha   90.00000000
_cell_angle_beta   90.00000000
_cell_angle_gamma   120.00000375
_symmetry_Int_Tables_number   1
_chemical_formula_structural   CeZnCo2
_chemical_formula_sum   'Ce6 Zn6 Co12'
_cell_volume   367.51442629
_cell_formula_units_Z   6
loop_
 _symmetry_equiv_pos_site_id
 _symmetry_equiv_pos_as_xyz
  1  'x, y, z'
loop_
 _atom_site_type_symbol
 _atom_site_label
 _atom_site_symmetry_multiplicity
 _atom_site_fract_x
 _atom_site_fract_y
 _atom_site_fract_z
 _atom_site_occupancy
  Ce  Ce0  1  0.33333300  0.66666700  0.54559500  1
  Ce  Ce1  1  0.66666700  0.33333300  0.45440500  1
  Ce  Ce2  1  0.66666700  0.33333300  0.04559500  1
  Ce  Ce3  1  0.33333300  0.66666700  0.95440500  1
  Ce  Ce4  1  0.33333300  0.66666700  0.75000000  1
  Ce  Ce5  1  0.66666700  0.33333300  0.25000000  1
  Zn  Zn0  1  0.00000000  0.00000000  0.25000000  1
  Zn  Zn1  1  0.00000000  0.00000000  0.75000000  1
  Zn  Zn2  1  0.33333300  0.66666700  0.25000000  1
  Zn  Zn3  1  0.66666700  0.33333300  0.75000000  1
  Zn  Zn4  1  0.00000000  0.00000000  0.00000000  1
  Zn  Zn5  1  0.00000000  0.00000000  0.50000000  1
  Co  Co0  1  0.16826100  0.33652200  0.12445500  1
  Co  Co1  1  0.83173900  0.66347800  0.87554500  1
  Co  Co2  1  0.66347800  0.83173900  0.12445500  1
  Co  Co3  1  0.83173900  0.66347800  0.62445500  1
  Co  Co4  1  0.33652200  0.16826100  0.87554500  1
  Co  Co5  1  0.16826100  0.33652200  0.37554500  1
  Co  Co6  1  0.16826100  0.83173900  0.12445500  1
  Co  Co7  1  0.33652200  0.16826100  0.62445500  1
  Co  Co8  1  0.83173900  0.16826100  0.87554500  1
  Co  Co9  1  0.66347800  0.83173900  0.37554500  1
  Co  Co10  1  0.83173900  0.16826100  0.62445500  1
  Co  Co11  1  0.16826100  0.83173900  0.37554500  1
loop_
_geom_bond_atom_site_label_1
_geom_bond_atom_site_label_2
_geom_bond_distance
_geom_bond_site_symmetry_2
Ce0 Co7 2.873111 1_565
Ce0 Co3 2.873111 1_455
Ce0 Co10 2.873113 1_455
Ce0 Co10 2.873113 1_565
Ce0 Co3 2.873116 1_555
Ce0 Co7 2.873116 1_555
Ce0 Zn5 3.073132 1_565
Ce0 Zn5 3.073136 1_555
Ce0 Zn5 3.073136 1_665
Ce0 Co11 3.075334 1_555
Ce0 Co9 3.075336 1_555
Ce0 Co5 3.075336 1_555
Ce0 Ce4 3.240973 1_555
Ce1 Co9 2.873111 1_545
Ce1 Co5 2.873111 1_655
Ce1 Co11 2.873113 1_545
Ce1 Co11 2.873113 1_655
Ce1 Co5 2.873116 1_555
Ce1 Co9 2.873116 1_555
Ce1 Zn5 3.073132 1_655
Ce1 Zn5 3.073136 1_555
Ce1 Zn5 3.073136 1_665
Ce1 Co10 3.075334 1_555
Ce1 Co3 3.075336 1_555
Ce1 Co7 3.075336 1_555
Ce1 Ce5 3.240973 1_555
Ce2 Co2 2.873111 1_545
Ce2 Co0 2.873111 1_655
Ce2 Co6 2.873113 1_655
Ce2 Co6 2.873113 1_545
Ce2 Co0 2.873116 1_555
Ce2 Co2 2.873116 1_555
Ce2 Zn4 3.073132 1_655
Ce2 Zn4 3.073136 1_665
Ce2 Zn4 3.073136 1_555
Ce2 Co8 3.075334 1_554
Ce2 Co4 3.075336 1_554
Ce2 Co1 3.075336 1_554
Ce2 Ce5 3.240973 1_555
Ce3 Co4 2.873111 1_565
Ce3 Co1 2.873111 1_455
Ce3 Co8 2.873113 1_565
Ce3 Co8 2.873113 1_455
Ce3 Co4 2.873116 1_555
Ce3 Co1 2.873116 1_555
Ce3 Zn4 3.073132 1_566
Ce3 Zn4 3.073136 1_556
Ce3 Zn4 3.073136 1_666
Ce3 Co6 3.075334 1_556
Ce3 Co2 3.075336 1_556
Ce3 Co0 3.075336 1_556
Ce3 Ce4 3.240973 1_555
Ce4 Zn3 2.986888 1_565
Ce4 Zn3 2.986888 1_455
Ce4 Zn1 2.986888 1_565
Ce4 Zn1 2.986892 1_665
Ce4 Zn1 2.986892 1_555
Ce4 Zn3 2.986897 1_555
Ce4 Co1 3.264016 1_455
Ce4 Co4 3.264016 1_565
Ce4 Co7 3.264016 1_565
Ce4 Co3 3.264016 1_455
Ce4 Co8 3.264018 1_455
Ce4 Co8 3.264018 1_565
Ce4 Co10 3.264018 1_455
Ce4 Co10 3.264018 1_565
Ce4 Co7 3.264021 1_555
Ce4 Co4 3.264021 1_555
Ce4 Co1 3.264021 1_555
Ce4 Co3 3.264021 1_555
Ce5 Zn2 2.986888 1_545
Ce5 Zn2 2.986888 1_655
Ce5 Zn0 2.986888 1_655
Ce5 Zn0 2.986892 1_665
Ce5 Zn0 2.986892 1_555
Ce5 Zn2 2.986897 1_555
Ce5 Co0 3.264016 1_655
Ce5 Co9 3.264016 1_545
Ce5 Co2 3.264016 1_545
Ce5 Co5 3.264016 1_655
Ce5 Co6 3.264018 1_655
Ce5 Co11 3.264018 1_545
Ce5 Co11 3.264018 1_655
Ce5 Co6 3.264018 1_545
Ce5 Co0 3.264021 1_555
Ce5 Co2 3.264021 1_555
Ce5 Co9 3.264021 1_555
Ce5 Co5 3.264021 1_555
Co0 Zn2 2.479998 1_555
Co0 Zn4 2.483389 1_555
Co0 Zn0 2.497144 1_555
Co0 Co2 2.561978 1_555
Co0 Co6 2.561979 1_555
Co0 Co2 2.611468 1_445
Co0 Co6 2.611468 1_545
Co1 Zn3 2.479998 1_555
Co1 Zn4 2.483389 1_666
Co1 Zn1 2.497144 1_665
Co1 Co4 2.561978 1_555
Co1 Co8 2.561979 1_555
Co1 Co4 2.611468 1_665
Co1 Co8 2.611468 1_565
Co2 Zn2 2.479998 1_555
Co2 Zn4 2.483389 1_665
Co2 Zn0 2.497144 1_665
Co2 Co6 2.561979 1_555
Co2 Co6 2.611468 1_655
Co3 Zn3 2.479998 1_555
Co3 Zn5 2.483389 1_665
Co3 Zn1 2.497144 1_665
Co3 Co7 2.561978 1_555
Co3 Co7 2.611468 1_665
Co4 Zn3 2.479998 1_555
Co4 Zn4 2.483389 1_556
Co4 Zn1 2.497144 1_555
Co4 Co8 2.561979 1_555
Co4 Co8 2.611468 1_455
Co5 Zn2 2.479998 1_555
Co5 Zn5 2.483389 1_555
Co5 Zn0 2.497144 1_555
Co5 Co9 2.561978 1_555
Co5 Co9 2.611468 1_445
Co6 Zn2 2.479996 1_555
Co6 Zn4 2.483390 1_565
Co6 Zn0 2.497144 1_565
Co7 Zn3 2.479998 1_555
Co7 Zn5 2.483389 1_555
Co7 Zn1 2.497144 1_555
Co8 Zn3 2.479996 1_555
Co8 Zn4 2.483390 1_656
Co8 Zn1 2.497144 1_655
Co9 Zn2 2.479998 1_555
Co9 Zn5 2.483389 1_665
Co9 Zn0 2.497144 1_665
Co10 Zn3 2.479996 1_555
Co10 Zn5 2.483390 1_655
Co10 Zn1 2.497144 1_655
Co10 Co3 2.561979 1_555
Co10 Co7 2.561979 1_555
Co10 Co3 2.611468 1_545
Co10 Co7 2.611468 1_655
Co11 Zn2 2.479996 1_555
Co11 Zn5 2.483390 1_565
Co11 Zn0 2.497144 1_565
Co11 Co5 2.561979 1_555
Co11 Co9 2.561979 1_555
Co11 Co9 2.611468 1_455
Co11 Co5 2.611468 1_565
