# generated using pymatgen
data_LiTi2O4
_symmetry_space_group_name_H-M   'P 1'
_cell_length_a   3.91266200
_cell_length_b   8.20428600
_cell_length_c   8.90507973
_cell_angle_alpha   89.89937132
_cell_angle_beta   90.00000000
_cell_angle_gamma   90.00000000
_symmetry_Int_Tables_number   1
_chemical_formula_structural   LiTi2O4
_chemical_formula_sum   'Li4 Ti8 O16'
_cell_volume   285.85794445
_cell_formula_units_Z   4
loop_
 _symmetry_equiv_pos_site_id
 _symmetry_equiv_pos_as_xyz
  1  'x, y, z'
loop_
 _atom_site_type_symbol
 _atom_site_label
 _atom_site_symmetry_multiplicity
 _atom_site_fract_x
 _atom_site_fract_y
 _atom_site_fract_z
 _atom_site_occupancy
  Li  Li0  1  0.50000000  0.12625500  0.86747300  1
  Li  Li1  1  0.50000000  0.87374500  0.13252700  1
  Li  Li2  1  0.00000000  0.87303500  0.36736600  1
  Li  Li3  1  0.00000000  0.12696500  0.63263400  1
  Ti  Ti0  1  0.50000000  0.85463600  0.62287400  1
  Ti  Ti1  1  0.00000000  0.85347000  0.88560400  1
  Ti  Ti2  1  0.00000000  0.38813100  0.88903000  1
  Ti  Ti3  1  0.00000000  0.61186900  0.11097000  1
  Ti  Ti4  1  0.00000000  0.14653000  0.11439600  1
  Ti  Ti5  1  0.50000000  0.14536400  0.37712600  1
  Ti  Ti6  1  0.50000000  0.61197600  0.38267600  1
  Ti  Ti7  1  0.50000000  0.38802400  0.61732400  1
  O  O0  1  0.00000000  0.88312600  0.65082900  1
  O  O1  1  0.00000000  0.36939700  0.65360900  1
  O  O2  1  0.50000000  0.36871000  0.85303900  1
  O  O3  1  0.50000000  0.88266900  0.85588200  1
  O  O4  1  0.00000000  0.62468300  0.89027000  1
  O  O5  1  0.00000000  0.12436800  0.90047300  1
  O  O6  1  0.00000000  0.87563200  0.09952700  1
  O  O7  1  0.00000000  0.37531700  0.10973000  1
  O  O8  1  0.50000000  0.11733100  0.14411800  1
  O  O9  1  0.50000000  0.63129000  0.14696100  1
  O  O10  1  0.00000000  0.63060300  0.34639100  1
  O  O11  1  0.00000000  0.11687400  0.34917100  1
  O  O12  1  0.50000000  0.37468500  0.39753300  1
  O  O13  1  0.50000000  0.87458100  0.40293200  1
  O  O14  1  0.50000000  0.12541900  0.59706800  1
  O  O15  1  0.50000000  0.62531500  0.60246700  1
loop_
_geom_bond_atom_site_label_1
_geom_bond_atom_site_label_2
_geom_bond_distance
_geom_bond_site_symmetry_2
Li0 O5 1.978336 1_655
Li0 O5 1.978336 1_555
Li0 O2 1.993093 1_555
Li0 O3 2.001294 1_545
Li0 O14 2.408000 1_555
Li0 O8 2.464505 1_556
Li1 O6 1.978336 1_555
Li1 O6 1.978336 1_655
Li1 O9 1.993093 1_555
Li1 O8 2.001294 1_565
Li1 O13 2.408000 1_555
Li1 O3 2.464505 1_554
Li2 O13 1.981847 1_455
Li2 O13 1.981847 1_555
Li2 O10 1.998059 1_555
Li2 O11 2.006792 1_565
Li2 O6 2.385185 1_555
Li2 O0 2.525763 1_555
Li3 O14 1.981847 1_455
Li3 O14 1.981847 1_555
Li3 O1 1.998059 1_555
Li3 O0 2.006792 1_545
Li3 O5 2.385185 1_555
Li3 O11 2.525763 1_555
O0 Ti0 1.985961 1_555
O0 Ti0 1.985961 1_455
O0 Ti1 2.104376 1_555
O1 Ti7 1.988673 1_555
O1 Ti7 1.988673 1_455
O1 Ti2 2.102339 1_555
O2 Ti2 1.988849 1_655
O2 Ti2 1.988849 1_555
O2 Ti7 2.104756 1_555
O3 Ti1 1.988580 1_555
O3 Ti1 1.988580 1_655
O3 Ti0 2.088064 1_555
O4 Ti1 1.877421 1_555
O4 Ti2 1.940791 1_555
O4 Ti3 1.967976 1_556
O5 Ti4 1.913977 1_556
O5 Ti2 2.166206 1_555
O5 Ti1 2.226698 1_545
O6 Ti1 1.913977 1_554
O6 Ti3 2.166206 1_555
O6 Ti4 2.226698 1_565
O7 Ti4 1.877421 1_555
O7 Ti3 1.940791 1_555
O7 Ti2 1.967976 1_554
O8 Ti4 1.988580 1_555
O8 Ti4 1.988580 1_655
O8 Ti5 2.088064 1_555
O9 Ti3 1.988849 1_555
O9 Ti3 1.988849 1_655
O9 Ti6 2.104756 1_555
O10 Ti6 1.988673 1_455
O10 Ti6 1.988673 1_555
O10 Ti3 2.102339 1_555
O11 Ti5 1.985961 1_555
O11 Ti5 1.985961 1_455
O11 Ti4 2.104376 1_555
O12 Ti5 1.890489 1_555
O12 Ti6 1.951062 1_555
O12 Ti7 1.960505 1_555
O13 Ti0 1.965138 1_555
O13 Ti6 2.162340 1_555
O13 Ti5 2.233034 1_565
O14 Ti5 1.965138 1_555
O14 Ti7 2.162340 1_555
O14 Ti0 2.233034 1_545
O15 Ti0 1.890489 1_555
O15 Ti7 1.951062 1_555
O15 Ti6 1.960505 1_555
