# generated using pymatgen
data_Tb3Al3NiPd2
_symmetry_space_group_name_H-M   'P 1'
_cell_length_a   7.02355889
_cell_length_b   7.02355889
_cell_length_c   4.04794146
_cell_angle_alpha   90.00000000
_cell_angle_beta   90.00000000
_cell_angle_gamma   119.99999858
_symmetry_Int_Tables_number   1
_chemical_formula_structural   Tb3Al3NiPd2
_chemical_formula_sum   'Tb3 Al3 Ni1 Pd2'
_cell_volume   172.93357415
_cell_formula_units_Z   1
loop_
 _symmetry_equiv_pos_site_id
 _symmetry_equiv_pos_as_xyz
  1  'x, y, z'
loop_
 _atom_site_type_symbol
 _atom_site_label
 _atom_site_symmetry_multiplicity
 _atom_site_fract_x
 _atom_site_fract_y
 _atom_site_fract_z
 _atom_site_occupancy
  Tb  Tb0  1  0.40860394  0.40860394  0.50000000  1
  Tb  Tb1  1  0.59139606  1.00000000  0.50000000  1
  Tb  Tb2  1  1.00000000  0.59139606  0.50000000  1
  Al  Al0  1  0.77501945  0.77501945  0.00000000  1
  Al  Al1  1  0.22498055  -0.00000000  -0.00000000  1
  Al  Al2  1  -0.00000000  0.22498055  -0.00000000  1
  Ni  Ni0  1  -0.00000000  0.00000000  0.50000000  1
  Pd  Pd0  1  0.66666700  0.33333300  0.00000000  1
  Pd  Pd1  1  0.33333300  0.66666700  0.00000000  1
loop_
_geom_bond_atom_site_label_1
_geom_bond_atom_site_label_2
_geom_bond_distance
_geom_bond_site_symmetry_2
Al0 Ni0 2.567757 1_665
Al0 Ni0 2.567757 1_664
Al0 Al2 2.736925 1_665
Al0 Al1 2.736925 1_665
Al0 Pd0 2.800361 1_555
Al0 Pd1 2.800361 1_555
Al0 Tb1 3.208519 1_555
Al0 Tb2 3.208519 1_555
Al0 Tb1 3.208519 1_554
Al0 Tb2 3.208519 1_554
Al0 Tb0 3.274076 1_555
Al0 Tb0 3.274076 1_554
Al1 Ni0 2.567757 1_554
Al1 Ni0 2.567757 1_555
Al1 Al2 2.736925 1_555
Al1 Pd1 2.800354 1_545
Al1 Pd0 2.800359 1_555
Al1 Tb0 3.208519 1_555
Al1 Tb0 3.208519 1_554
Al1 Tb2 3.208519 1_445
Al1 Tb2 3.208519 1_444
Al1 Tb1 3.274075 1_544
Al1 Tb1 3.274075 1_545
Al2 Ni0 2.567757 1_554
Al2 Ni0 2.567757 1_555
Al2 Pd0 2.800354 1_455
Al2 Pd1 2.800359 1_555
Al2 Tb0 3.208519 1_555
Al2 Tb0 3.208519 1_554
Al2 Tb1 3.208519 1_444
Al2 Tb1 3.208519 1_445
Al2 Tb2 3.274075 1_455
Al2 Tb2 3.274075 1_454
Ni0 Tb1 2.869854 1_445
Ni0 Tb2 2.869854 1_445
Ni0 Tb0 2.869854 1_555
Pd0 Tb1 2.935878 1_544
Pd0 Tb1 2.935878 1_545
Pd0 Tb2 2.935879 1_555
Pd0 Tb2 2.935879 1_554
Pd0 Tb0 2.935883 1_555
Pd0 Tb0 2.935883 1_554
Pd1 Tb2 2.935878 1_454
Pd1 Tb2 2.935878 1_455
Pd1 Tb1 2.935879 1_554
Pd1 Tb1 2.935879 1_555
Pd1 Tb0 2.935883 1_555
Pd1 Tb0 2.935883 1_554
