# generated using pymatgen
data_MnFe2(PO8)2
_symmetry_space_group_name_H-M   'P 1'
_cell_length_a   7.80774000
_cell_length_b   9.53107934
_cell_length_c   10.13651915
_cell_angle_alpha   66.13733505
_cell_angle_beta   84.11033934
_cell_angle_gamma   82.53898853
_symmetry_Int_Tables_number   1
_chemical_formula_structural   MnFe2(PO8)2
_chemical_formula_sum   'Mn2 Fe4 P4 O32'
_cell_volume   682.95544699
_cell_formula_units_Z   2
loop_
 _symmetry_equiv_pos_site_id
 _symmetry_equiv_pos_as_xyz
  1  'x, y, z'
loop_
 _atom_site_type_symbol
 _atom_site_label
 _atom_site_symmetry_multiplicity
 _atom_site_fract_x
 _atom_site_fract_y
 _atom_site_fract_z
 _atom_site_occupancy
  Mn  Mn0  1  0.66069700  0.13615300  0.41173200  1
  Mn  Mn1  1  0.33930300  0.86384700  0.58826800  1
  Fe  Fe0  1  0.86407500  0.70622900  0.27693300  1
  Fe  Fe1  1  0.13592500  0.29377100  0.72306700  1
  Fe  Fe2  1  0.63763700  0.22715400  0.79623300  1
  Fe  Fe3  1  0.36236300  0.77284600  0.20376700  1
  P  P0  1  0.88473300  0.32636300  0.48975600  1
  P  P1  1  0.11526700  0.67363700  0.51024400  1
  P  P2  1  0.60415700  0.03113700  0.15979000  1
  P  P3  1  0.39584300  0.96886300  0.84021000  1
  O  O0  1  0.85626700  0.22248600  0.40528000  1
  O  O1  1  0.14373300  0.77751400  0.59472000  1
  O  O2  1  0.90815300  0.48654300  0.37239400  1
  O  O3  1  0.09184700  0.51345700  0.62760600  1
  O  O4  1  0.72942900  0.32683900  0.59650400  1
  O  O5  1  0.27057100  0.67316100  0.40349600  1
  O  O6  1  0.05149600  0.25350400  0.57066300  1
  O  O7  1  0.94850400  0.74649600  0.42933700  1
  O  O8  1  0.76548500  0.91496100  0.17922500  1
  O  O9  1  0.23451500  0.08503900  0.82077500  1
  O  O10  1  0.58400100  0.13867700  0.00137800  1
  O  O11  1  0.41599900  0.86132300  0.99862200  1
  O  O12  1  0.63227300  0.14367200  0.23371400  1
  O  O13  1  0.36772700  0.85632800  0.76628600  1
  O  O14  1  0.44058200  0.94671000  0.22752800  1
  O  O15  1  0.55941800  0.05329000  0.77247200  1
  O  O16  1  0.59918600  0.64391900  0.24477200  1
  O  O17  1  0.40081400  0.35608100  0.75522800  1
  O  O18  1  0.90488600  0.24847400  0.84741600  1
  O  O19  1  0.09511400  0.75152600  0.15258400  1
  O  O20  1  0.99575000  0.21046100  0.11516200  1
  O  O21  1  0.00425000  0.78953900  0.88483800  1
  O  O22  1  0.49338800  0.75562300  0.54989800  1
  O  O23  1  0.50661200  0.24437700  0.45010200  1
  O  O24  1  0.68804400  0.96254600  0.52764300  1
  O  O25  1  0.31195600  0.03745400  0.47235700  1
  O  O26  1  0.92136400  0.33957000  0.08853300  1
  O  O27  1  0.07863600  0.66043000  0.91146700  1
  O  O28  1  0.79365200  0.37080900  0.83894000  1
  O  O29  1  0.20634800  0.62919100  0.16106000  1
  O  O30  1  0.71593400  0.65908500  0.13603700  1
  O  O31  1  0.28406600  0.34091500  0.86396300  1
loop_
_geom_bond_atom_site_label_1
_geom_bond_atom_site_label_2
_geom_bond_distance
_geom_bond_site_symmetry_2
Mn0 O24 1.597100 1_545
Mn0 O23 1.602773 1_555
Mn0 O0 1.809759 1_555
Mn0 O12 1.812173 1_555
Mn1 O25 1.597100 1_565
Mn1 O22 1.602773 1_555
Mn1 O1 1.809759 1_555
Mn1 O13 1.812173 1_555
Fe0 O2 1.918558 1_555
Fe0 O8 1.922467 1_555
Fe0 O7 1.929453 1_555
Fe0 O19 2.079549 1_655
Fe0 O30 2.138384 1_555
Fe0 O16 2.313083 1_555
Fe1 O3 1.918558 1_555
Fe1 O9 1.922467 1_555
Fe1 O6 1.929453 1_555
Fe1 O18 2.079549 1_455
Fe1 O31 2.138384 1_555
Fe1 O17 2.313083 1_555
Fe2 O10 1.924795 1_556
Fe2 O15 1.947547 1_555
Fe2 O4 1.959059 1_555
Fe2 O17 2.063041 1_555
Fe2 O28 2.137015 1_555
Fe2 O18 2.254328 1_555
Fe3 O11 1.924795 1_554
Fe3 O14 1.947547 1_555
Fe3 O5 1.959059 1_555
Fe3 O16 2.063041 1_555
Fe3 O29 2.137015 1_555
Fe3 O19 2.254328 1_555
O0 P0 1.595302 1_555
O1 P1 1.595302 1_555
O2 P0 1.528999 1_555
O3 P1 1.528999 1_555
O4 P0 1.540930 1_555
O5 P1 1.540930 1_555
O6 P0 1.540673 1_455
O7 P1 1.540673 1_655
O8 P2 1.537436 1_565
O9 P3 1.537436 1_545
O10 P2 1.527117 1_555
O11 P3 1.527117 1_555
O12 P2 1.582816 1_555
O13 P3 1.582816 1_555
O14 P2 1.545954 1_565
O15 P3 1.545954 1_545
O16 O30 1.328817 1_555
O17 O31 1.328817 1_555
O18 O28 1.338822 1_555
O19 O29 1.338822 1_555
O20 O26 1.225661 1_555
O21 O27 1.225661 1_555
