# generated using pymatgen
data_Mg6ZrSb
_symmetry_space_group_name_H-M   'P 1'
_cell_length_a   5.30643500
_cell_length_b   6.07391100
_cell_length_c   11.24475600
_cell_angle_alpha   90.00000000
_cell_angle_beta   90.00000000
_cell_angle_gamma   90.00000000
_symmetry_Int_Tables_number   1
_chemical_formula_structural   Mg6ZrSb
_chemical_formula_sum   'Mg12 Zr2 Sb2'
_cell_volume   362.42763818
_cell_formula_units_Z   2
loop_
 _symmetry_equiv_pos_site_id
 _symmetry_equiv_pos_as_xyz
  1  'x, y, z'
loop_
 _atom_site_type_symbol
 _atom_site_label
 _atom_site_symmetry_multiplicity
 _atom_site_fract_x
 _atom_site_fract_y
 _atom_site_fract_z
 _atom_site_occupancy
  Mg  Mg0  1  0.50000000  0.24788400  0.41764900  1
  Mg  Mg1  1  0.50000000  0.75211600  0.41764900  1
  Mg  Mg2  1  0.00000000  0.75600400  0.08033200  1
  Mg  Mg3  1  0.00000000  0.24399600  0.08033200  1
  Mg  Mg4  1  0.00000000  0.00000000  0.33125400  1
  Mg  Mg5  1  0.00000000  0.50000000  0.33529900  1
  Mg  Mg6  1  0.50000000  0.74788400  0.91764900  1
  Mg  Mg7  1  0.50000000  0.25211600  0.91764900  1
  Mg  Mg8  1  0.00000000  0.25600400  0.58033200  1
  Mg  Mg9  1  0.00000000  0.74399600  0.58033200  1
  Mg  Mg10  1  0.00000000  0.50000000  0.83125400  1
  Mg  Mg11  1  0.00000000  0.00000000  0.83529900  1
  Zr  Zr0  1  0.50000000  0.00000000  0.17019100  1
  Zr  Zr1  1  0.50000000  0.50000000  0.67019100  1
  Sb  Sb0  1  0.50000000  0.50000000  0.16729100  1
  Sb  Sb1  1  0.50000000  0.00000000  0.66729100  1
loop_
_geom_bond_atom_site_label_1
_geom_bond_atom_site_label_2
_geom_bond_distance
_geom_bond_site_symmetry_2
Mg0 Mg1 3.011251 1_545
Mg0 Mg1 3.062660 1_555
Mg0 Zr0 3.163826 1_555
Mg0 Sb1 3.185447 1_555
Mg0 Mg5 3.200316 1_555
Mg0 Mg5 3.200316 1_655
Mg0 Mg4 3.201604 1_555
Mg0 Mg4 3.201604 1_655
Mg0 Sb0 3.204747 1_555
Mg0 Mg8 3.223111 1_655
Mg0 Mg8 3.223111 1_555
Mg0 Zr1 3.226342 1_555
Mg1 Zr0 3.163826 1_565
Mg1 Sb1 3.185447 1_565
Mg1 Mg5 3.200316 1_555
Mg1 Mg5 3.200316 1_655
Mg1 Mg4 3.201604 1_565
Mg1 Mg4 3.201604 1_665
Mg1 Sb0 3.204747 1_555
Mg1 Mg9 3.223111 1_555
Mg1 Mg9 3.223111 1_655
Mg1 Zr1 3.226342 1_555
Mg2 Mg3 2.964020 1_565
Mg2 Mg3 3.109891 1_555
Mg2 Mg4 3.187089 1_565
Mg2 Zr0 3.202641 1_465
Mg2 Zr0 3.202641 1_565
Mg2 Mg6 3.223111 1_454
Mg2 Mg6 3.223111 1_554
Mg2 Sb0 3.227007 1_455
Mg2 Sb0 3.227007 1_555
Mg2 Mg5 3.261562 1_555
Mg3 Mg4 3.187089 1_555
Mg3 Zr0 3.202641 1_455
Mg3 Zr0 3.202641 1_555
Mg3 Mg7 3.223111 1_554
Mg3 Mg7 3.223111 1_454
Mg3 Sb0 3.227007 1_455
Mg3 Sb0 3.227007 1_555
Mg3 Mg5 3.261562 1_555
Mg4 Mg5 3.037296 1_545
Mg4 Mg5 3.037296 1_555
Mg4 Mg8 3.203507 1_555
Mg4 Mg9 3.203507 1_545
Mg4 Zr0 3.212429 1_555
Mg4 Zr0 3.212429 1_455
Mg5 Mg9 3.128615 1_555
Mg5 Mg8 3.128615 1_555
Mg5 Sb0 3.257096 1_555
Mg5 Sb0 3.257096 1_455
Mg6 Mg7 3.011251 1_555
Mg6 Mg7 3.062660 1_565
Mg6 Zr1 3.163826 1_555
Mg6 Sb0 3.185447 1_556
Mg6 Sb1 3.204747 1_565
Mg6 Zr0 3.226342 1_566
Mg7 Zr1 3.163826 1_555
Mg7 Sb0 3.185447 1_556
Mg7 Sb1 3.204747 1_555
Mg7 Zr0 3.226342 1_556
Mg8 Mg9 2.964020 1_555
Mg8 Mg9 3.109891 1_545
Mg8 Zr1 3.202641 1_455
Mg8 Zr1 3.202641 1_555
Mg8 Sb1 3.227007 1_555
Mg8 Sb1 3.227007 1_455
Mg9 Zr1 3.202641 1_455
Mg9 Zr1 3.202641 1_555
Mg9 Sb1 3.227007 1_465
Mg9 Sb1 3.227007 1_565
Mg10 Mg11 3.037296 1_555
Mg10 Mg11 3.037296 1_565
Mg10 Mg8 3.187089 1_555
Mg10 Mg9 3.187089 1_555
Mg10 Mg7 3.201604 1_455
Mg10 Mg7 3.201604 1_555
Mg10 Mg6 3.201604 1_455
Mg10 Mg6 3.201604 1_555
Mg10 Mg3 3.203507 1_556
Mg10 Mg2 3.203507 1_556
Mg10 Zr1 3.212429 1_555
Mg10 Zr1 3.212429 1_455
Mg11 Mg2 3.128615 1_546
Mg11 Mg3 3.128615 1_556
Mg11 Mg7 3.200316 1_555
Mg11 Mg6 3.200316 1_445
Mg11 Mg7 3.200316 1_455
Mg11 Mg6 3.200316 1_545
Mg11 Sb1 3.257096 1_455
Mg11 Sb1 3.257096 1_555
Mg11 Mg8 3.261562 1_555
Mg11 Mg9 3.261562 1_545
Sb0 Zr0 3.037131 1_565
Sb0 Zr0 3.037131 1_555
Sb1 Zr1 3.037131 1_555
Sb1 Zr1 3.037131 1_545
