# generated using pymatgen
data_CsLa(NbBr3)6
_symmetry_space_group_name_H-M   'P 1'
_cell_length_a   10.03327026
_cell_length_b   10.03327026
_cell_length_c   18.74645700
_cell_angle_alpha   90.00000000
_cell_angle_beta   90.00000000
_cell_angle_gamma   120.00000170
_symmetry_Int_Tables_number   1
_chemical_formula_structural   CsLa(NbBr3)6
_chemical_formula_sum   'Cs2 La2 Nb12 Br36'
_cell_volume   1634.31153324
_cell_formula_units_Z   2
loop_
 _symmetry_equiv_pos_site_id
 _symmetry_equiv_pos_as_xyz
  1  'x, y, z'
loop_
 _atom_site_type_symbol
 _atom_site_label
 _atom_site_symmetry_multiplicity
 _atom_site_fract_x
 _atom_site_fract_y
 _atom_site_fract_z
 _atom_site_occupancy
  Cs  Cs0  1  0.33333300  0.66666700  0.75000000  1
  Cs  Cs1  1  0.66666700  0.33333300  0.25000000  1
  La  La0  1  0.66666700  0.33333300  0.75000000  1
  La  La1  1  0.33333300  0.66666700  0.25000000  1
  Nb  Nb0  1  0.85111800  0.03727400  0.56433300  1
  Nb  Nb1  1  0.14888200  0.96272600  0.43566700  1
  Nb  Nb2  1  0.96272600  0.81384400  0.56433300  1
  Nb  Nb3  1  0.85111800  0.81384400  0.93566700  1
  Nb  Nb4  1  0.03727400  0.18615600  0.43566700  1
  Nb  Nb5  1  0.14888200  0.18615600  0.06433300  1
  Nb  Nb6  1  0.18615600  0.14888200  0.56433300  1
  Nb  Nb7  1  0.96272600  0.14888200  0.93566700  1
  Nb  Nb8  1  0.81384400  0.85111800  0.43566700  1
  Nb  Nb9  1  0.03727400  0.85111800  0.06433300  1
  Nb  Nb10  1  0.18615600  0.03727400  0.93566700  1
  Nb  Nb11  1  0.81384400  0.96272600  0.06433300  1
  Br  Br0  1  0.63739700  0.07784500  0.65799300  1
  Br  Br1  1  0.36260300  0.92215500  0.34200700  1
  Br  Br2  1  0.92215500  0.55955200  0.65799300  1
  Br  Br3  1  0.63739700  0.55955200  0.84200700  1
  Br  Br4  1  0.07784500  0.44044800  0.34200700  1
  Br  Br5  1  0.36260300  0.44044800  0.15799300  1
  Br  Br6  1  0.44044800  0.36260300  0.65799300  1
  Br  Br7  1  0.92215500  0.36260300  0.84200700  1
  Br  Br8  1  0.55955200  0.63739700  0.34200700  1
  Br  Br9  1  0.07784500  0.63739700  0.15799300  1
  Br  Br10  1  0.44044800  0.07784500  0.84200700  1
  Br  Br11  1  0.55955200  0.92215500  0.15799300  1
  Br  Br12  1  0.04505200  0.22908700  0.65790600  1
  Br  Br13  1  0.95494800  0.77091300  0.34209400  1
  Br  Br14  1  0.77091300  0.81596400  0.65790600  1
  Br  Br15  1  0.04505200  0.81596400  0.84209400  1
  Br  Br16  1  0.22908700  0.18403600  0.34209400  1
  Br  Br17  1  0.95494800  0.18403600  0.15790600  1
  Br  Br18  1  0.18403600  0.95494800  0.65790600  1
  Br  Br19  1  0.77091300  0.95494800  0.84209400  1
  Br  Br20  1  0.81596400  0.04505200  0.34209400  1
  Br  Br21  1  0.22908700  0.04505200  0.15790600  1
  Br  Br22  1  0.18403600  0.22908700  0.84209400  1
  Br  Br23  1  0.81596400  0.77091300  0.15790600  1
  Br  Br24  1  0.27304900  0.41161000  0.50053800  1
  Br  Br25  1  0.72695100  0.58839000  0.49946200  1
  Br  Br26  1  0.58839000  0.86143900  0.50053800  1
  Br  Br27  1  0.27304900  0.86143900  0.99946200  1
  Br  Br28  1  0.41161000  0.13856100  0.49946200  1
  Br  Br29  1  0.72695100  0.13856100  0.00053800  1
  Br  Br30  1  0.13856100  0.72695100  0.50053800  1
  Br  Br31  1  0.58839000  0.72695100  0.99946200  1
  Br  Br32  1  0.86143900  0.27304900  0.49946200  1
  Br  Br33  1  0.41161000  0.27304900  0.00053800  1
  Br  Br34  1  0.13856100  0.41161000  0.99946200  1
  Br  Br35  1  0.86143900  0.58839000  0.00053800  1
loop_
_geom_bond_atom_site_label_1
_geom_bond_atom_site_label_2
_geom_bond_distance
_geom_bond_site_symmetry_2
Br0 Nb0 2.952877 1_555
Br0 La0 2.979818 1_555
Br0 Cs0 4.088485 1_545
Br1 Nb1 2.952877 1_555
Br1 La1 2.979818 1_555
Br1 Cs1 4.088485 1_565
Br2 Nb2 2.952877 1_555
Br2 La0 2.979822 1_555
Br2 Cs0 4.088483 1_655
Br3 Nb3 2.952877 1_555
Br3 La0 2.979827 1_555
Br3 Cs0 4.088492 1_555
Br4 Nb4 2.952877 1_555
Br4 La1 2.979822 1_555
Br4 Cs1 4.088483 1_455
Br5 Nb5 2.952877 1_555
Br5 La1 2.979827 1_555
Br5 Cs1 4.088492 1_555
Br6 Nb6 2.952877 1_555
Br6 La0 2.979827 1_555
Br6 Cs0 4.088492 1_555
Br7 Nb7 2.952877 1_555
Br7 La0 2.979818 1_555
Br7 Cs0 4.088485 1_655
Br8 Nb8 2.952877 1_555
Br8 La1 2.979827 1_555
Br8 Cs1 4.088492 1_555
Br9 Nb9 2.952877 1_555
Br9 La1 2.979818 1_555
Br9 Cs1 4.088485 1_455
Br10 Nb10 2.952877 1_555
Br10 La0 2.979822 1_555
Br10 Cs0 4.088483 1_545
Br11 Nb11 2.952877 1_555
Br11 La1 2.979822 1_555
Br11 Cs1 4.088483 1_565
Br12 Nb0 2.611941 1_455
Br12 Nb6 2.620731 1_555
Br12 Cs0 4.233572 1_555
Br13 Nb1 2.611941 1_655
Br13 Nb8 2.620731 1_555
Br13 Cs1 4.233572 1_555
Br14 Nb2 2.611938 1_555
Br14 Nb0 2.620738 1_565
Br14 Cs0 4.233576 1_555
Br15 Nb3 2.611945 1_455
Br15 Nb10 2.620736 1_565
Br15 Cs0 4.233559 1_555
Br16 Nb4 2.611938 1_555
Br16 Nb1 2.620738 1_545
Br16 Cs1 4.233576 1_555
Br17 Nb5 2.611945 1_655
Br17 Nb11 2.620736 1_545
Br17 Cs1 4.233559 1_555
Br18 Nb6 2.611945 1_565
Br18 Nb2 2.620736 1_455
Br18 Cs0 4.233559 1_555
Br19 Nb7 2.611941 1_565
Br19 Nb3 2.620731 1_555
Br19 Cs0 4.233572 1_555
Br20 Nb8 2.611945 1_545
Br20 Nb4 2.620736 1_655
Br20 Cs1 4.233559 1_555
Br21 Nb9 2.611941 1_545
Br21 Nb5 2.620731 1_555
Br21 Cs1 4.233572 1_555
Br22 Nb10 2.611938 1_555
Br22 Nb7 2.620738 1_455
Br22 Cs0 4.233576 1_555
Br23 Nb11 2.611938 1_555
Br23 Nb9 2.620738 1_655
Br23 Cs1 4.233576 1_555
Br24 Nb4 2.615473 1_555
Br24 Nb6 2.615490 1_555
Br25 Nb2 2.615473 1_555
Br25 Nb8 2.615490 1_555
Br26 Nb8 2.615473 1_555
Br26 Nb0 2.615490 1_565
Br27 Nb9 2.615473 1_556
Br27 Nb10 2.615490 1_565
Br28 Nb6 2.615473 1_555
Br28 Nb1 2.615490 1_545
Br29 Nb7 2.615473 1_554
Br29 Nb11 2.615490 1_545
Br30 Nb1 2.615473 1_555
Br30 Nb2 2.615490 1_455
Br31 Nb11 2.615473 1_556
Br31 Nb3 2.615490 1_555
Br32 Nb0 2.615473 1_555
Br32 Nb4 2.615490 1_655
Br33 Nb10 2.615473 1_554
Br33 Nb5 2.615490 1_555
Br34 Nb5 2.615473 1_556
Br34 Nb7 2.615490 1_455
Br35 Nb3 2.615473 1_554
Br35 Nb9 2.615490 1_655
