# generated using pymatgen
data_CsH3CN2O
_symmetry_space_group_name_H-M   'P 1'
_cell_length_a   6.51940500
_cell_length_b   7.25628100
_cell_length_c   9.33152300
_cell_angle_alpha   90.00000000
_cell_angle_beta   90.00000000
_cell_angle_gamma   90.00000000
_symmetry_Int_Tables_number   1
_chemical_formula_structural   CsH3CN2O
_chemical_formula_sum   'Cs4 H12 C4 N8 O4'
_cell_volume   441.44294913
_cell_formula_units_Z   4
loop_
 _symmetry_equiv_pos_site_id
 _symmetry_equiv_pos_as_xyz
  1  'x, y, z'
loop_
 _atom_site_type_symbol
 _atom_site_label
 _atom_site_symmetry_multiplicity
 _atom_site_fract_x
 _atom_site_fract_y
 _atom_site_fract_z
 _atom_site_occupancy
  Cs  Cs0  1  0.83242800  0.57299200  0.36297900  1
  Cs  Cs1  1  0.66757200  0.42700800  0.86297900  1
  Cs  Cs2  1  0.33242800  0.92700800  0.63702100  1
  Cs  Cs3  1  0.16757200  0.07299200  0.13702100  1
  H  H0  1  0.94592800  0.82385300  0.85767600  1
  H  H1  1  0.55407200  0.17614700  0.35767600  1
  H  H2  1  0.44592800  0.67614700  0.14232400  1
  H  H3  1  0.05407200  0.32385300  0.64232400  1
  H  H4  1  0.81135200  0.99190600  0.75479000  1
  H  H5  1  0.68864800  0.00809400  0.25479000  1
  H  H6  1  0.31135200  0.50809400  0.24521000  1
  H  H7  1  0.18864800  0.49190600  0.74521000  1
  H  H8  1  0.81996500  0.73980200  0.06251000  1
  H  H9  1  0.68003500  0.26019800  0.56251000  1
  H  H10  1  0.31996500  0.76019800  0.93749000  1
  H  H11  1  0.18003500  0.23980200  0.43749000  1
  C  C0  1  0.67715200  0.92577400  0.95232700  1
  C  C1  1  0.82284800  0.07422600  0.45232700  1
  C  C2  1  0.17715200  0.57422600  0.04767300  1
  C  C3  1  0.32284800  0.42577400  0.54767300  1
  N  N0  1  0.81934900  0.90664300  0.84270800  1
  N  N1  1  0.68065100  0.09335700  0.34270800  1
  N  N2  1  0.31934900  0.59335700  0.15729200  1
  N  N3  1  0.18065100  0.40664300  0.65729200  1
  N  N4  1  0.69464300  0.82515900  0.07256700  1
  N  N5  1  0.80535700  0.17484100  0.57256700  1
  N  N6  1  0.19464300  0.67484100  0.92743300  1
  N  N7  1  0.30535700  0.32515900  0.42743300  1
  O  O0  1  0.52830000  0.03999900  0.93180000  1
  O  O1  1  0.97170000  0.96000100  0.43180000  1
  O  O2  1  0.02830000  0.46000100  0.06820000  1
  O  O3  1  0.47170000  0.53999900  0.56820000  1
loop_
_geom_bond_atom_site_label_1
_geom_bond_atom_site_label_2
_geom_bond_distance
_geom_bond_site_symmetry_2
Cs0 O1 3.020444 1_555
Cs0 O3 3.042249 1_555
Cs0 H8 3.055029 1_555
Cs0 H9 3.099270 1_555
Cs0 O2 3.141565 1_655
Cs1 O0 3.020444 1_555
Cs1 O2 3.042249 1_656
Cs1 H9 3.055029 1_555
Cs1 H8 3.099270 1_556
Cs1 O3 3.141565 1_555
Cs2 O3 3.020444 1_555
Cs2 O1 3.042249 1_455
Cs2 H10 3.055029 1_555
Cs2 H11 3.099270 1_565
Cs2 O0 3.141565 1_565
Cs3 O2 3.020444 1_555
Cs3 O0 3.042249 1_554
Cs3 H11 3.055029 1_555
Cs3 H10 3.099270 1_544
Cs3 O1 3.141565 1_445
H0 N0 1.030240 1_555
H1 N1 1.030240 1_555
H2 N2 1.030240 1_555
H3 N3 1.030240 1_555
H4 N0 1.028868 1_555
H5 N1 1.028868 1_555
H6 N2 1.028868 1_555
H7 N3 1.028868 1_555
H8 N4 1.029544 1_555
H9 N5 1.029544 1_555
H10 N6 1.029544 1_555
H11 N7 1.029544 1_555
C0 O0 1.290507 1_565
C0 N4 1.343492 1_556
C0 N0 1.387452 1_555
C1 O1 1.290507 1_545
C1 N5 1.343492 1_555
C1 N1 1.387452 1_555
C2 O2 1.290507 1_555
C2 N6 1.343492 1_554
C2 N2 1.387452 1_555
C3 O3 1.290507 1_555
C3 N7 1.343492 1_555
C3 N3 1.387452 1_555
