# generated using pymatgen
data_Rb2Pr2Mg(WO4)4
_symmetry_space_group_name_H-M   'P 1'
_cell_length_a   7.62659697
_cell_length_b   8.24620274
_cell_length_c   7.58636771
_cell_angle_alpha   62.99581617
_cell_angle_beta   61.88332889
_cell_angle_gamma   87.37229034
_symmetry_Int_Tables_number   1
_chemical_formula_structural   Rb2Pr2Mg(WO4)4
_chemical_formula_sum   'Rb2 Pr2 Mg1 W4 O16'
_cell_volume   366.24482060
_cell_formula_units_Z   1
loop_
 _symmetry_equiv_pos_site_id
 _symmetry_equiv_pos_as_xyz
  1  'x, y, z'
loop_
 _atom_site_type_symbol
 _atom_site_label
 _atom_site_symmetry_multiplicity
 _atom_site_fract_x
 _atom_site_fract_y
 _atom_site_fract_z
 _atom_site_occupancy
  Rb  Rb0  1  0.73439679  0.12257154  0.82361100  1
  Rb  Rb1  1  0.23090845  0.86537423  0.21724458  1
  Pr  Pr0  1  0.24910204  0.79933440  0.74205713  1
  Pr  Pr1  1  0.75377880  0.19989726  0.26947231  1
  Mg  Mg0  1  0.99272128  0.48061476  0.39327645  1
  W  W0  1  0.29445717  0.32828260  0.69446859  1
  W  W1  1  0.69195993  0.68033587  0.30887802  1
  W  W2  1  0.69786569  0.68094119  0.80609967  1
  W  W3  1  0.32004117  0.31287333  0.18931289  1
  O  O0  1  0.36542948  0.26915626  0.92876732  1
  O  O1  1  0.62872289  0.73033075  0.05776466  1
  O  O2  1  0.77901847  0.60424544  0.55951783  1
  O  O3  1  0.22979816  0.39498367  0.43998487  1
  O  O4  1  0.63314296  0.90109393  0.64089744  1
  O  O5  1  0.37208286  0.08627072  0.35432724  1
  O  O6  1  0.02957399  0.32206433  0.88490215  1
  O  O7  1  0.97940670  0.66846776  0.12400231  1
  O  O8  1  0.38294025  0.61161932  0.55410628  1
  O  O9  1  0.60836828  0.39326771  0.45013828  1
  O  O10  1  0.37683176  0.58472843  0.96900049  1
  O  O11  1  0.64164716  0.41144403  0.02116923  1
  O  O12  1  0.28005759  0.08331691  0.75622450  1
  O  O13  1  0.73822590  0.92905104  0.22379179  1
  O  O14  1  0.96971601  0.76089319  0.68830449  1
  O  O15  1  0.01980622  0.27050833  0.31934550  1
loop_
_geom_bond_atom_site_label_1
_geom_bond_atom_site_label_2
_geom_bond_distance
_geom_bond_site_symmetry_2
Mg0 O7 1.972417 1_555
Mg0 O15 2.024726 1_655
Mg0 O3 2.037880 1_655
Mg0 O2 2.089041 1_555
Mg0 Rb0 2.995771 1_555
O0 W0 1.945699 1_555
O0 W3 2.036531 1_556
O0 Rb0 2.909275 1_555
O0 Rb1 2.916910 1_546
O1 W2 1.956167 1_554
O1 W1 2.041141 1_555
O1 Rb0 2.817613 1_564
O1 Rb1 3.059868 1_555
O2 W2 2.056613 1_555
O2 W1 2.125638 1_555
O3 W0 2.044773 1_555
O3 W3 2.107494 1_555
O4 W2 1.882788 1_555
O4 Pr1 2.513353 1_565
O4 Pr0 2.719128 1_555
O4 Rb0 3.048014 1_565
O5 W3 1.868799 1_555
O5 Pr0 2.532447 1_545
O5 Pr1 2.775353 1_555
O5 Rb1 2.917927 1_545
O6 W0 1.833639 1_555
O6 Pr1 2.385816 1_456
O6 Rb0 3.164034 1_455
O7 W1 1.997389 1_555
O7 Pr0 2.353228 1_654
O7 Rb1 3.069763 1_655
O8 W0 2.063063 1_555
O8 W1 2.090232 1_555
O8 Pr0 2.441056 1_555
O8 Rb1 3.157234 1_555
O9 W1 2.085501 1_555
O9 W0 2.118376 1_555
O9 Pr1 2.457838 1_555
O9 Rb0 3.249755 1_555
O10 W3 2.002698 1_556
O10 W2 2.141770 1_555
O10 Pr0 2.387627 1_555
O11 W2 1.979882 1_554
O11 W3 2.143865 1_555
O11 Pr1 2.391718 1_555
O11 Rb0 3.241819 1_554
O12 W0 1.850546 1_555
O12 Pr0 2.419583 1_545
O12 Rb1 2.953093 1_546
O13 W1 1.843105 1_555
O13 Pr1 2.426601 1_565
O13 Rb0 2.728366 1_564
O14 W2 1.837335 1_555
O14 Pr0 2.409403 1_655
O14 Rb1 2.851835 1_655
O15 W3 1.992389 1_555
O15 Pr1 2.372863 1_455
O15 Rb0 3.002983 1_455
