# generated using pymatgen
data_As2H6CO6
_symmetry_space_group_name_H-M   'P 1'
_cell_length_a   7.36968845
_cell_length_b   7.36968845
_cell_length_c   7.59192400
_cell_angle_alpha   90.00000000
_cell_angle_beta   90.00000000
_cell_angle_gamma   117.45010927
_symmetry_Int_Tables_number   1
_chemical_formula_structural   As2H6CO6
_chemical_formula_sum   'As4 H12 C2 O12'
_cell_volume   365.91118407
_cell_formula_units_Z   2
loop_
 _symmetry_equiv_pos_site_id
 _symmetry_equiv_pos_as_xyz
  1  'x, y, z'
loop_
 _atom_site_type_symbol
 _atom_site_label
 _atom_site_symmetry_multiplicity
 _atom_site_fract_x
 _atom_site_fract_y
 _atom_site_fract_z
 _atom_site_occupancy
  As  As0  1  0.76358500  0.50613400  0.03925200  1
  As  As1  1  0.50613400  0.76358500  0.96074800  1
  As  As2  1  0.26358500  0.00613400  0.46074800  1
  As  As3  1  0.00613400  0.26358500  0.53925200  1
  H  H0  1  0.81033200  0.44034700  0.33575900  1
  H  H1  1  0.44034700  0.81033200  0.66424100  1
  H  H2  1  0.31033200  0.94034700  0.16424100  1
  H  H3  1  0.94034700  0.31033200  0.83575900  1
  H  H4  1  0.08484000  0.73860000  0.95635600  1
  H  H5  1  0.73860000  0.08484000  0.04364400  1
  H  H6  1  0.58484000  0.23860000  0.54364400  1
  H  H7  1  0.23860000  0.58484000  0.45635600  1
  H  H8  1  0.40746700  0.42927100  0.11731500  1
  H  H9  1  0.42927100  0.40746700  0.88268500  1
  H  H10  1  0.90746700  0.92927100  0.38268500  1
  H  H11  1  0.92927100  0.90746700  0.61731500  1
  C  C0  1  0.49952100  0.49952100  0.00000000  1
  C  C1  1  0.99952100  0.99952100  0.50000000  1
  O  O0  1  0.82016500  0.56124100  0.26244200  1
  O  O1  1  0.56124100  0.82016500  0.73755800  1
  O  O2  1  0.32016500  0.06124100  0.23755800  1
  O  O3  1  0.06124100  0.32016500  0.76244200  1
  O  O4  1  0.94135200  0.71778100  0.92421400  1
  O  O5  1  0.71778100  0.94135200  0.07578600  1
  O  O6  1  0.44135200  0.21778100  0.57578600  1
  O  O7  1  0.21778100  0.44135200  0.42421400  1
  O  O8  1  0.76754400  0.29074200  0.96779300  1
  O  O9  1  0.29074200  0.76754400  0.03220700  1
  O  O10  1  0.26754400  0.79074200  0.53220700  1
  O  O11  1  0.79074200  0.26754400  0.46779300  1
loop_
_geom_bond_atom_site_label_1
_geom_bond_atom_site_label_2
_geom_bond_distance
_geom_bond_site_symmetry_2
As0 O8 1.690449 1_554
As0 O4 1.740122 1_554
As0 O0 1.747515 1_555
As0 C0 1.947029 1_555
As1 O9 1.690449 1_556
As1 O5 1.740122 1_556
As1 O1 1.747515 1_555
As1 C0 1.947029 1_556
As2 O10 1.690449 1_545
As2 O6 1.740122 1_555
As2 O2 1.747515 1_555
As2 C1 1.947029 1_445
As3 O11 1.690449 1_455
As3 O7 1.740122 1_555
As3 O3 1.747515 1_555
As3 C1 1.947029 1_445
H0 O0 1.024374 1_555
H0 O11 1.574147 1_555
H1 O1 1.024374 1_555
H1 O10 1.574147 1_555
H2 O2 1.024374 1_565
H2 O9 1.574147 1_555
H3 O3 1.024374 1_655
H3 O8 1.574147 1_555
H4 O4 1.025538 1_455
H4 O9 1.543145 1_556
H5 O5 1.025538 1_545
H5 O8 1.543145 1_554
H6 O6 1.025538 1_555
H6 O11 1.543145 1_555
H7 O7 1.025538 1_555
H7 O10 1.543145 1_555
C0 H9 1.094400 1_554
C0 H8 1.094400 1_555
C1 H11 1.094400 1_555
C1 H10 1.094400 1_555
