# generated using pymatgen
data_Ce4Se3N2
_symmetry_space_group_name_H-M   'P 1'
_cell_length_a   7.02191983
_cell_length_b   10.92664436
_cell_length_c   11.38472735
_cell_angle_alpha   89.99914139
_cell_angle_beta   89.99956268
_cell_angle_gamma   89.99891131
_symmetry_Int_Tables_number   1
_chemical_formula_structural   Ce4Se3N2
_chemical_formula_sum   'Ce16 Se12 N8'
_cell_volume   873.50482626
_cell_formula_units_Z   4
loop_
 _symmetry_equiv_pos_site_id
 _symmetry_equiv_pos_as_xyz
  1  'x, y, z'
loop_
 _atom_site_type_symbol
 _atom_site_label
 _atom_site_symmetry_multiplicity
 _atom_site_fract_x
 _atom_site_fract_y
 _atom_site_fract_z
 _atom_site_occupancy
  Ce  Ce0  1  0.59776696  0.83482801  0.75001069  1
  Ce  Ce1  1  0.09773798  0.66509945  0.75000907  1
  Ce  Ce2  1  0.40222553  0.16519210  0.24998970  1
  Ce  Ce3  1  0.90222884  0.33488470  0.24999037  1
  Ce  Ce4  1  0.71070256  0.46778801  0.75001078  1
  Ce  Ce5  1  0.21072391  0.03221722  0.75000706  1
  Ce  Ce6  1  0.28927638  0.53219577  0.24998015  1
  Ce  Ce7  1  0.78926775  0.96778952  0.24997723  1
  Ce  Ce8  1  0.66110894  0.11381476  0.94757983  1
  Ce  Ce9  1  0.16111171  0.38622237  0.55244175  1
  Ce  Ce10  1  0.33887789  0.88619173  0.44758199  1
  Ce  Ce11  1  0.83887857  0.61375243  0.05242713  1
  Ce  Ce12  1  0.33887562  0.88618697  0.05240839  1
  Ce  Ce13  1  0.83887111  0.61374066  0.44756664  1
  Ce  Ce14  1  0.66113806  0.11382812  0.55242517  1
  Ce  Ce15  1  0.16109611  0.38624575  0.94756617  1
  Se  Se0  1  0.92291145  0.23492962  0.75006384  1
  Se  Se1  1  0.42285728  0.26515955  0.75000449  1
  Se  Se2  1  0.07717844  0.76509336  0.24995753  1
  Se  Se3  1  0.57722301  0.73479982  0.25000153  1
  Se  Se4  1  0.56406702  0.36274490  0.08133914  1
  Se  Se5  1  0.06406077  0.13731343  0.41866162  1
  Se  Se6  1  0.43590661  0.63727810  0.58137266  1
  Se  Se7  1  0.93592099  0.86271071  0.91865023  1
  Se  Se8  1  0.43591966  0.63723156  0.91863203  1
  Se  Se9  1  0.93596381  0.86270721  0.58137435  1
  Se  Se10  1  0.56409000  0.36275661  0.41864988  1
  Se  Se11  1  0.06407001  0.13731465  0.08133657  1
  N  N0  1  0.55661320  0.03473090  0.12149198  1
  N  N1  1  0.05662205  0.46526367  0.37849646  1
  N  N2  1  0.44337472  0.96527704  0.62151049  1
  N  N3  1  0.94336535  0.53471227  0.87851593  1
  N  N4  1  0.44336973  0.96527269  0.87849828  1
  N  N5  1  0.94337079  0.53469406  0.62150853  1
  N  N6  1  0.55663890  0.03474846  0.37848831  1
  N  N7  1  0.05658829  0.46528582  0.12147603  1
loop_
_geom_bond_atom_site_label_1
_geom_bond_atom_site_label_2
_geom_bond_distance
_geom_bond_site_symmetry_2
Ce0 N4 2.312296 1_555
Ce0 N2 2.312383 1_555
Ce0 Se7 3.068748 1_555
Ce0 Se9 3.068926 1_555
Ce0 Se6 3.104420 1_555
Ce0 Se8 3.104572 1_555
Ce1 N3 2.311964 1_455
Ce1 N5 2.312061 1_455
Ce1 Se6 3.068707 1_555
Ce1 Se8 3.068749 1_555
Ce1 Se9 3.104545 1_455
Ce1 Se7 3.104756 1_455
Ce2 N6 2.312404 1_555
Ce2 N0 2.312448 1_555
Ce2 Se11 3.068847 1_555
Ce2 Se5 3.069004 1_555
Ce2 Se4 3.104431 1_555
Ce2 Se10 3.104697 1_555
Ce3 N1 2.312009 1_655
Ce3 N7 2.312069 1_655
Ce3 Se10 3.068764 1_555
Ce3 Se4 3.068835 1_555
Ce3 Se11 3.104594 1_655
Ce3 Se5 3.104673 1_655
Ce4 N5 2.311691 1_555
Ce4 N3 2.311777 1_555
Ce4 Se0 2.948570 1_555
Ce4 Se1 2.997923 1_555
Ce4 Se8 3.291814 1_555
Ce4 Se6 3.292250 1_555
Ce5 N4 2.311629 1_545
Ce5 N2 2.311676 1_545
Ce5 Se1 2.949143 1_555
Ce5 Se0 2.998388 1_455
Ce5 Se9 3.292263 1_445
Ce5 Se7 3.292438 1_445
Ce6 N1 2.311813 1_555
Ce6 N7 2.311846 1_555
Ce6 Se2 2.948546 1_555
Ce6 Se3 2.998206 1_555
Ce6 Se4 3.292022 1_555
Ce6 Se10 3.292220 1_555
Ce7 N0 2.311619 1_565
Ce7 N6 2.311736 1_565
Ce7 Se3 2.949275 1_555
Ce7 Se2 2.998722 1_655
Ce7 Se11 3.292533 1_665
Ce7 Se5 3.292827 1_665
Ce8 N0 2.281498 1_556
Ce8 N4 2.364470 1_545
Ce8 Se4 3.190858 1_556
Ce8 Se0 3.191759 1_555
Ce8 Se11 3.223557 1_656
Ce8 Se1 3.254681 1_555
Ce8 Se7 3.370473 1_545
Ce9 N1 2.281635 1_555
Ce9 N5 2.363846 1_455
Ce9 Se5 3.190814 1_555
Ce9 Se1 3.191658 1_555
Ce9 Se10 3.223794 1_555
Ce9 Se0 3.254589 1_455
Ce9 Se6 3.370039 1_555
Ce10 N2 2.281700 1_555
Ce10 N6 2.364701 1_565
Ce10 Se6 3.190821 1_555
Ce10 Se2 3.192185 1_555
Ce10 Se9 3.223422 1_455
Ce10 Se3 3.255336 1_555
Ce10 Se5 3.370635 1_565
Ce11 N3 2.281299 1_554
Ce11 N7 2.363590 1_655
Ce11 Se7 3.191200 1_554
Ce11 Se3 3.191326 1_555
Ce11 Se8 3.223720 1_554
Ce11 Se2 3.254546 1_655
Ce11 Se4 3.369645 1_555
Ce12 N4 2.281482 1_554
Ce12 N0 2.364484 1_565
Ce12 Se8 3.191189 1_554
Ce12 Se2 3.191502 1_555
Ce12 Se7 3.223505 1_454
Ce12 Se3 3.255401 1_555
Ce12 Se11 3.370656 1_565
Ce13 N5 2.281646 1_555
Ce13 N1 2.363944 1_655
Ce13 Se3 3.191267 1_555
Ce13 Se9 3.191563 1_555
Ce13 Se6 3.223847 1_555
Ce13 Se2 3.255206 1_655
Ce13 Se10 3.369330 1_555
Ce14 N6 2.281765 1_555
Ce14 N2 2.364637 1_545
Ce14 Se10 3.190905 1_555
Ce14 Se0 3.192612 1_555
Ce14 Se5 3.223321 1_655
Ce14 Se1 3.254759 1_555
Ce14 Se9 3.370695 1_545
Ce15 N7 2.281333 1_556
Ce15 N3 2.363690 1_455
Ce15 Se11 3.190887 1_556
Ce15 Se1 3.191827 1_555
Ce15 Se4 3.223694 1_556
Ce15 Se0 3.253772 1_455
Ce15 Se8 3.369525 1_555
