# generated using pymatgen
data_Bi12IrO20
_symmetry_space_group_name_H-M   'P 1'
_cell_length_a   8.96862317
_cell_length_b   8.96862317
_cell_length_c   8.96862317
_cell_angle_alpha   109.47122063
_cell_angle_beta   109.47122063
_cell_angle_gamma   109.47122063
_symmetry_Int_Tables_number   1
_chemical_formula_structural   Bi12IrO20
_chemical_formula_sum   'Bi12 Ir1 O20'
_cell_volume   555.33550348
_cell_formula_units_Z   1
loop_
 _symmetry_equiv_pos_site_id
 _symmetry_equiv_pos_as_xyz
  1  'x, y, z'
loop_
 _atom_site_type_symbol
 _atom_site_label
 _atom_site_symmetry_multiplicity
 _atom_site_fract_x
 _atom_site_fract_y
 _atom_site_fract_z
 _atom_site_occupancy
  Bi  Bi0  1  0.49739400  0.33570700  0.19386000  1
  Bi  Bi1  1  0.50260600  0.69646600  0.83831300  1
  Bi  Bi2  1  0.85815300  0.66429300  0.16168700  1
  Bi  Bi3  1  0.33570700  0.19386000  0.49739400  1
  Bi  Bi4  1  0.14184700  0.30353400  0.80614000  1
  Bi  Bi5  1  0.69646600  0.83831300  0.50260600  1
  Bi  Bi6  1  0.66429300  0.16168700  0.85815300  1
  Bi  Bi7  1  0.30353400  0.80614000  0.14184700  1
  Bi  Bi8  1  0.19386000  0.49739400  0.33570700  1
  Bi  Bi9  1  0.16168700  0.85815300  0.66429300  1
  Bi  Bi10  1  0.80614000  0.14184700  0.30353400  1
  Bi  Bi11  1  0.83831300  0.50260600  0.69646600  1
  Ir  Ir0  1  0.00000000  0.00000000  0.00000000  1
  O  O0  1  0.38576300  0.38576300  0.38576300  1
  O  O1  1  0.61423700  0.00000000  0.00000000  1
  O  O2  1  0.00000000  0.61423700  0.00000000  1
  O  O3  1  0.00000000  0.00000000  0.61423700  1
  O  O4  1  0.73922800  0.62089600  0.38140400  1
  O  O5  1  0.26077200  0.64217600  0.88166800  1
  O  O6  1  0.76050800  0.37910400  0.11833200  1
  O  O7  1  0.62089600  0.38140400  0.73922800  1
  O  O8  1  0.23949200  0.35782400  0.61859600  1
  O  O9  1  0.64217600  0.88166800  0.26077200  1
  O  O10  1  0.37910400  0.11833200  0.76050800  1
  O  O11  1  0.35782400  0.61859600  0.23949200  1
  O  O12  1  0.38140400  0.73922800  0.62089600  1
  O  O13  1  0.11833200  0.76050800  0.37910400  1
  O  O14  1  0.61859600  0.23949200  0.35782400  1
  O  O15  1  0.88166800  0.26077200  0.64217600  1
  O  O16  1  0.78157100  0.78157100  0.78157100  1
  O  O17  1  0.21842900  0.00000000  0.00000000  1
  O  O18  1  0.00000000  0.21842900  0.00000000  1
  O  O19  1  0.00000000  0.00000000  0.21842900  1
loop_
_geom_bond_atom_site_label_1
_geom_bond_atom_site_label_2
_geom_bond_distance
_geom_bond_site_symmetry_2
Bi0 O14 2.119983 1_555
Bi0 O4 2.253195 1_555
Bi0 O0 2.258182 1_555
Bi0 O6 2.609206 1_555
Bi0 O17 2.633608 1_555
Bi1 O12 2.119983 1_555
Bi1 O5 2.253195 1_555
Bi1 O1 2.258182 1_566
Bi1 O8 2.609206 1_555
Bi1 O16 2.633608 1_555
Bi2 O13 2.119983 1_655
Bi2 O6 2.253195 1_555
Bi2 O2 2.258182 1_655
Bi2 O4 2.609206 1_555
Bi2 O19 2.633608 1_665
Bi3 O8 2.119983 1_555
Bi3 O7 2.253195 1_555
Bi3 O0 2.258182 1_555
Bi3 O10 2.609206 1_555
Bi3 O19 2.633608 1_555
Bi4 O15 2.119983 1_455
Bi4 O8 2.253195 1_555
Bi4 O3 2.258182 1_555
Bi4 O5 2.609206 1_555
Bi4 O18 2.633608 1_556
Bi5 O4 2.119983 1_555
Bi5 O9 2.253195 1_555
Bi5 O3 2.258182 1_665
Bi5 O11 2.609206 1_555
Bi5 O16 2.633608 1_555
Bi6 O6 2.119983 1_556
Bi6 O10 2.253195 1_555
Bi6 O1 2.258182 1_556
Bi6 O7 2.609206 1_555
Bi6 O18 2.633608 1_656
Bi7 O5 2.119983 1_554
Bi7 O11 2.253195 1_555
Bi7 O2 2.258182 1_555
Bi7 O9 2.609206 1_555
Bi7 O17 2.633608 1_565
Bi8 O11 2.119983 1_555
Bi8 O12 2.253195 1_555
Bi8 O0 2.258182 1_555
Bi8 O13 2.609206 1_555
Bi8 O18 2.633608 1_555
Bi9 O10 2.119983 1_565
Bi9 O13 2.253195 1_555
Bi9 O3 2.258182 1_565
Bi9 O12 2.609206 1_555
Bi9 O17 2.633608 1_566
Bi10 O9 2.119983 1_545
Bi10 O14 2.253195 1_555
Bi10 O1 2.258182 1_555
Bi10 O15 2.609206 1_555
Bi10 O19 2.633608 1_655
Bi11 O7 2.119983 1_555
Bi11 O15 2.253195 1_555
Bi11 O2 2.258182 1_656
Bi11 O14 2.609206 1_555
Bi11 O16 2.633608 1_555
Ir0 O16 1.959007 1_444
Ir0 O17 1.959007 1_555
Ir0 O19 1.959007 1_555
Ir0 O18 1.959007 1_555
