# generated using pymatgen
data_Dy3GaFeSe7
_symmetry_space_group_name_H-M   'P 1'
_cell_length_a   6.41806500
_cell_length_b   9.96598057
_cell_length_c   9.97143061
_cell_angle_alpha   119.86809923
_cell_angle_beta   90.00000000
_cell_angle_gamma   90.00000000
_symmetry_Int_Tables_number   1
_chemical_formula_structural   Dy3GaFeSe7
_chemical_formula_sum   'Dy6 Ga2 Fe2 Se14'
_cell_volume   553.07999033
_cell_formula_units_Z   2
loop_
 _symmetry_equiv_pos_site_id
 _symmetry_equiv_pos_as_xyz
  1  'x, y, z'
loop_
 _atom_site_type_symbol
 _atom_site_label
 _atom_site_symmetry_multiplicity
 _atom_site_fract_x
 _atom_site_fract_y
 _atom_site_fract_z
 _atom_site_occupancy
  Dy  Dy0  1  0.82143700  0.15748700  0.78542400  1
  Dy  Dy1  1  0.82188400  0.21465400  0.37248100  1
  Dy  Dy2  1  0.82179200  0.62758300  0.84193000  1
  Dy  Dy3  1  0.32143700  0.84251300  0.21457600  1
  Dy  Dy4  1  0.32188400  0.78534600  0.62751900  1
  Dy  Dy5  1  0.32179200  0.37241700  0.15807000  1
  Ga  Ga0  1  0.89818900  0.66665700  0.33331600  1
  Ga  Ga1  1  0.39818900  0.33334300  0.66668400  1
  Fe  Fe0  1  0.49262700  0.00001700  0.99977300  1
  Fe  Fe1  1  0.99262700  0.99998300  0.00022700  1
  Se  Se0  1  0.55340000  0.43782700  0.91976900  1
  Se  Se1  1  0.55331600  0.08015800  0.51857700  1
  Se  Se2  1  0.55375600  0.48193500  0.56194200  1
  Se  Se3  1  0.05340000  0.56217300  0.08023100  1
  Se  Se4  1  0.05331600  0.91984200  0.48142300  1
  Se  Se5  1  0.05375600  0.51806500  0.43805800  1
  Se  Se6  1  0.52387800  0.66665900  0.33311600  1
  Se  Se7  1  0.02387800  0.33334100  0.66688400  1
  Se  Se8  1  0.73678700  0.86950300  0.76860500  1
  Se  Se9  1  0.73667400  0.22998900  0.10012500  1
  Se  Se10  1  0.73686000  0.90011200  0.12906800  1
  Se  Se11  1  0.23678700  0.13049700  0.23139500  1
  Se  Se12  1  0.23667400  0.77001100  0.89987500  1
  Se  Se13  1  0.23686000  0.09988800  0.87093200  1
loop_
_geom_bond_atom_site_label_1
_geom_bond_atom_site_label_2
_geom_bond_distance
_geom_bond_site_symmetry_2
Dy0 Se8 2.842714 1_545
Dy0 Se7 2.867058 1_655
Dy0 Se9 2.899459 1_556
Dy0 Se1 2.931349 1_555
Dy0 Se13 2.941543 1_655
Dy0 Se0 2.971840 1_555
Dy0 Se4 3.140418 1_645
Dy1 Se9 2.848032 1_555
Dy1 Se7 2.870391 1_655
Dy1 Se10 2.904698 1_545
Dy1 Se11 2.932284 1_655
Dy1 Se2 2.934896 1_555
Dy1 Se1 2.972342 1_555
Dy1 Se5 3.133077 1_655
Dy2 Se10 2.850659 1_556
Dy2 Se7 2.868778 1_655
Dy2 Se8 2.898408 1_555
Dy2 Se0 2.933917 1_555
Dy2 Se12 2.936316 1_655
Dy2 Se2 2.970614 1_555
Dy2 Se3 3.134277 1_656
Dy3 Se11 2.842714 1_565
Dy3 Se6 2.867058 1_555
Dy3 Se12 2.899459 1_554
Dy3 Se4 2.931349 1_555
Dy3 Se10 2.941543 1_555
Dy3 Se3 2.971840 1_555
Dy3 Se1 3.140418 1_565
Dy4 Se12 2.848032 1_555
Dy4 Se6 2.870391 1_555
Dy4 Se13 2.904698 1_565
Dy4 Se8 2.932284 1_555
Dy4 Se5 2.934896 1_555
Dy4 Se4 2.972342 1_555
Dy4 Se2 3.133077 1_555
Dy5 Se13 2.850659 1_554
Dy5 Se6 2.868778 1_555
Dy5 Se11 2.898408 1_555
Dy5 Se3 2.933917 1_555
Dy5 Se9 2.936316 1_555
Dy5 Se5 2.970614 1_555
Dy5 Se0 3.134277 1_554
Ga0 Se6 2.402353 1_555
Ga0 Se5 2.412707 1_655
Ga0 Se4 2.414018 1_655
Ga0 Se3 2.414111 1_655
Ga1 Se7 2.402353 1_555
Ga1 Se2 2.412707 1_555
Ga1 Se1 2.414018 1_555
Ga1 Se0 2.414111 1_555
Fe0 Se10 2.527666 1_546
Fe0 Se9 2.534399 1_556
Fe0 Se8 2.544512 1_545
Fe0 Se13 2.570875 1_555
Fe0 Se12 2.582809 1_545
Fe0 Se11 2.594229 1_556
Fe1 Se13 2.527666 1_664
Fe1 Se12 2.534399 1_654
Fe1 Se11 2.544512 1_665
Fe1 Se10 2.570875 1_555
Fe1 Se9 2.582809 1_565
Fe1 Se8 2.594229 1_554
