# generated using pymatgen
data_Ge2N2O
_symmetry_space_group_name_H-M   'P 1'
_cell_length_a   8.39755400
_cell_length_b   5.33911500
_cell_length_c   5.89882103
_cell_angle_alpha   64.63557026
_cell_angle_beta   90.00000000
_cell_angle_gamma   90.00000000
_symmetry_Int_Tables_number   1
_chemical_formula_structural   Ge2N2O
_chemical_formula_sum   'Ge8 N8 O4'
_cell_volume   238.98145467
_cell_formula_units_Z   4
loop_
 _symmetry_equiv_pos_site_id
 _symmetry_equiv_pos_as_xyz
  1  'x, y, z'
loop_
 _atom_site_type_symbol
 _atom_site_label
 _atom_site_symmetry_multiplicity
 _atom_site_fract_x
 _atom_site_fract_y
 _atom_site_fract_z
 _atom_site_occupancy
  Ge  Ge0  1  0.52183800  0.46910900  0.71224400  1
  Ge  Ge1  1  0.90306600  0.45728400  0.75633000  1
  Ge  Ge2  1  0.71532700  0.90516000  0.84732700  1
  Ge  Ge3  1  0.19801900  0.05234700  0.79416900  1
  Ge  Ge4  1  0.28467300  0.90516000  0.34732700  1
  Ge  Ge5  1  0.80198100  0.05234700  0.29416900  1
  Ge  Ge6  1  0.47816200  0.46910900  0.21224400  1
  Ge  Ge7  1  0.09693400  0.45728400  0.25633000  1
  N  N0  1  0.71053200  0.27946800  0.75960400  1
  N  N1  1  0.53698600  0.68290200  0.88861700  1
  N  N2  1  0.85063000  0.83116400  0.63047400  1
  N  N3  1  0.46301400  0.68290200  0.38861700  1
  N  N4  1  0.05820300  0.33626700  0.60232600  1
  N  N5  1  0.28946800  0.27946800  0.25960400  1
  N  N6  1  0.94179700  0.33626700  0.10232600  1
  N  N7  1  0.14937000  0.83116400  0.13047400  1
  O  O0  1  0.38508800  0.18415900  0.84409600  1
  O  O1  1  0.20869400  0.80214100  0.66481200  1
  O  O2  1  0.61491200  0.18415900  0.34409600  1
  O  O3  1  0.79130600  0.80214100  0.16481200  1
loop_
_geom_bond_atom_site_label_1
_geom_bond_atom_site_label_2
_geom_bond_distance
_geom_bond_site_symmetry_2
Ge0 O0 1.795687 1_555
Ge0 N3 1.823289 1_555
Ge0 N0 1.836231 1_555
Ge0 N1 1.849052 1_555
Ge1 N4 1.855489 1_655
Ge1 N2 1.860146 1_555
Ge1 N0 1.870849 1_555
Ge1 N6 1.886532 1_556
Ge2 O3 1.826042 1_556
Ge2 N0 1.837741 1_565
Ge2 N1 1.860848 1_555
Ge2 N2 1.875189 1_555
Ge3 O0 1.796492 1_555
Ge3 O1 1.802272 1_545
Ge3 N4 1.867447 1_555
Ge3 N7 1.868109 1_546
Ge4 O1 1.826042 1_555
Ge4 N5 1.837741 1_565
Ge4 N3 1.860848 1_555
Ge4 N7 1.875189 1_555
Ge5 O2 1.796492 1_555
Ge5 O3 1.802272 1_545
Ge5 N6 1.867447 1_555
Ge5 N2 1.868109 1_545
Ge6 O2 1.795687 1_555
Ge6 N1 1.823289 1_554
Ge6 N5 1.836231 1_555
Ge6 N3 1.849052 1_555
Ge7 N6 1.855489 1_455
Ge7 N7 1.860146 1_555
Ge7 N5 1.870849 1_555
Ge7 N4 1.886532 1_555
