# generated using pymatgen
data_Lu2MgS4
_symmetry_space_group_name_H-M   'P 1'
_cell_length_a   12.46103400
_cell_length_b   7.42936600
_cell_length_c   12.67561100
_cell_angle_alpha   90.00000000
_cell_angle_beta   90.00000000
_cell_angle_gamma   90.00000000
_symmetry_Int_Tables_number   1
_chemical_formula_structural   Lu2MgS4
_chemical_formula_sum   'Lu16 Mg8 S32'
_cell_volume   1173.47742087
_cell_formula_units_Z   8
loop_
 _symmetry_equiv_pos_site_id
 _symmetry_equiv_pos_as_xyz
  1  'x, y, z'
loop_
 _atom_site_type_symbol
 _atom_site_label
 _atom_site_symmetry_multiplicity
 _atom_site_fract_x
 _atom_site_fract_y
 _atom_site_fract_z
 _atom_site_occupancy
  Lu  Lu0  1  0.10876200  0.88283600  0.68629800  1
  Lu  Lu1  1  0.89123800  0.11716400  0.18629800  1
  Lu  Lu2  1  0.39123800  0.88283600  0.18629800  1
  Lu  Lu3  1  0.60876200  0.11716400  0.68629800  1
  Lu  Lu4  1  0.12749700  0.38178000  0.32611200  1
  Lu  Lu5  1  0.87250300  0.61822000  0.82611200  1
  Lu  Lu6  1  0.37250300  0.38178000  0.82611200  1
  Lu  Lu7  1  0.62749700  0.61822000  0.32611200  1
  Lu  Lu8  1  0.13369100  0.62987800  0.99114900  1
  Lu  Lu9  1  0.86630900  0.37012200  0.49114900  1
  Lu  Lu10  1  0.36630900  0.62987800  0.49114900  1
  Lu  Lu11  1  0.63369100  0.37012200  0.99114900  1
  Lu  Lu12  1  0.13365000  0.12971000  0.99055700  1
  Lu  Lu13  1  0.86635000  0.87029000  0.49055700  1
  Lu  Lu14  1  0.36635000  0.12971000  0.49055700  1
  Lu  Lu15  1  0.63365000  0.87029000  0.99055700  1
  Mg  Mg0  1  0.10979700  0.38033100  0.68966900  1
  Mg  Mg1  1  0.89020300  0.61966900  0.18966900  1
  Mg  Mg2  1  0.39020300  0.38033100  0.18966900  1
  Mg  Mg3  1  0.60979700  0.61966900  0.68966900  1
  Mg  Mg4  1  0.12608500  0.87791900  0.32224800  1
  Mg  Mg5  1  0.87391500  0.12208100  0.82224800  1
  Mg  Mg6  1  0.37391500  0.87791900  0.82224800  1
  Mg  Mg7  1  0.62608500  0.12208100  0.32224800  1
  S  S0  1  0.01447800  0.87598000  0.87676700  1
  S  S1  1  0.98552200  0.12402100  0.37676700  1
  S  S2  1  0.48552200  0.87598000  0.37676700  1
  S  S3  1  0.51447800  0.12402100  0.87676700  1
  S  S4  1  0.03416300  0.37554500  0.13176900  1
  S  S5  1  0.96583700  0.62445500  0.63176900  1
  S  S6  1  0.46583700  0.37554500  0.63176900  1
  S  S7  1  0.53416300  0.62445500  0.13176900  1
  S  S8  1  0.02080500  0.37564200  0.87176300  1
  S  S9  1  0.97919500  0.62435800  0.37176300  1
  S  S10  1  0.47919500  0.37564200  0.37176300  1
  S  S11  1  0.52080500  0.62435800  0.87176300  1
  S  S12  1  0.04123400  0.87559000  0.13520100  1
  S  S13  1  0.95876600  0.12441000  0.63520100  1
  S  S14  1  0.45876600  0.87559000  0.63520100  1
  S  S15  1  0.54123400  0.12441000  0.13520100  1
  S  S16  1  0.21334200  0.88044900  0.50524700  1
  S  S17  1  0.78665800  0.11955100  0.00524700  1
  S  S18  1  0.28665800  0.88044900  0.00524700  1
  S  S19  1  0.71334200  0.11955100  0.50524700  1
  S  S20  1  0.21437100  0.38015100  0.51663900  1
  S  S21  1  0.78562900  0.61984900  0.01663900  1
  S  S22  1  0.28562900  0.38015100  0.01663900  1
  S  S23  1  0.71437100  0.61984900  0.51663900  1
  S  S24  1  0.23172500  0.13009900  0.77643700  1
  S  S25  1  0.76827500  0.86990100  0.27643700  1
  S  S26  1  0.26827500  0.13009900  0.27643700  1
  S  S27  1  0.73172500  0.86990100  0.77643700  1
  S  S28  1  0.23232600  0.63264300  0.77714600  1
  S  S29  1  0.76767400  0.36735700  0.27714600  1
  S  S30  1  0.26767400  0.63264300  0.27714600  1
  S  S31  1  0.73232600  0.36735700  0.77714600  1
loop_
_geom_bond_atom_site_label_1
_geom_bond_atom_site_label_2
_geom_bond_distance
_geom_bond_site_symmetry_2
Lu0 S16 2.639184 1_555
Lu0 S24 2.651006 1_565
Lu0 S13 2.670983 1_465
Lu0 S28 2.674305 1_555
Lu0 S0 2.685484 1_555
Lu0 S5 2.708241 1_455
Lu1 S17 2.639184 1_555
Lu1 S25 2.651006 1_545
Lu1 S12 2.670983 1_645
Lu1 S29 2.674305 1_555
Lu1 S1 2.685484 1_555
Lu1 S4 2.708241 1_655
Lu2 S18 2.639184 1_555
Lu2 S26 2.651006 1_565
Lu2 S15 2.670983 1_565
Lu2 S30 2.674305 1_555
Lu2 S2 2.685484 1_555
Lu2 S7 2.708241 1_555
Lu3 S19 2.639184 1_555
Lu3 S27 2.651006 1_545
Lu3 S14 2.670983 1_545
Lu3 S31 2.674305 1_555
Lu3 S3 2.685484 1_555
Lu3 S6 2.708241 1_555
Lu4 S30 2.628678 1_555
Lu4 S26 2.640094 1_555
Lu4 S9 2.645347 1_455
Lu4 S20 2.646599 1_555
Lu4 S1 2.685024 1_455
Lu4 S4 2.724559 1_555
Lu5 S31 2.628678 1_555
Lu5 S27 2.640094 1_555
Lu5 S8 2.645347 1_655
Lu5 S21 2.646599 1_556
Lu5 S0 2.685029 1_655
Lu5 S5 2.724559 1_555
Lu6 S28 2.628678 1_555
Lu6 S24 2.640094 1_555
Lu6 S11 2.645347 1_555
Lu6 S22 2.646599 1_556
Lu6 S3 2.685024 1_555
Lu6 S6 2.724559 1_555
Lu7 S29 2.628678 1_555
Lu7 S25 2.640094 1_555
Lu7 S10 2.645347 1_555
Lu7 S23 2.646599 1_555
Lu7 S2 2.685029 1_555
Lu7 S7 2.724559 1_555
Lu8 S18 2.670346 1_556
Lu8 S22 2.670428 1_556
Lu8 S0 2.766196 1_555
Lu8 S8 2.799357 1_555
Lu8 S12 2.827337 1_556
Lu8 S4 2.878471 1_556
Lu8 S28 2.978153 1_555
Lu9 S19 2.670346 1_555
Lu9 S23 2.670428 1_555
Lu9 S1 2.766191 1_555
Lu9 S9 2.799357 1_555
Lu9 S13 2.827337 1_555
Lu9 S5 2.878471 1_555
Lu9 S29 2.978153 1_555
Lu10 S16 2.670346 1_555
Lu10 S20 2.670428 1_555
Lu10 S2 2.766196 1_555
Lu10 S10 2.799357 1_555
Lu10 S14 2.827337 1_555
Lu10 S6 2.878471 1_555
Lu10 S30 2.978153 1_555
Lu11 S17 2.670346 1_556
Lu11 S21 2.670428 1_556
Lu11 S3 2.766191 1_555
Lu11 S11 2.799357 1_555
Lu11 S15 2.827337 1_556
Lu11 S7 2.878471 1_556
Lu11 S31 2.978153 1_555
Lu12 S18 2.664450 1_546
Lu12 S22 2.675395 1_556
Lu12 S8 2.753735 1_555
Lu12 S0 2.799833 1_545
Lu12 S4 2.841923 1_556
Lu12 S12 2.872643 1_546
Lu12 S24 2.976563 1_555
Lu13 S19 2.664450 1_565
Lu13 S23 2.675395 1_555
Lu13 S9 2.753735 1_555
Lu13 S1 2.799838 1_565
Lu13 S5 2.841923 1_555
Lu13 S13 2.872643 1_565
Lu13 S25 2.976563 1_555
Lu14 S16 2.664450 1_545
Lu14 S20 2.675395 1_555
Lu14 S10 2.753735 1_555
Lu14 S2 2.799833 1_545
Lu14 S6 2.841923 1_555
Lu14 S14 2.872643 1_545
Lu14 S26 2.976563 1_555
Lu15 S17 2.664450 1_566
Lu15 S21 2.675395 1_556
Lu15 S11 2.753735 1_555
Lu15 S3 2.799838 1_565
Lu15 S7 2.841923 1_556
Lu15 S15 2.872643 1_566
Lu15 S27 2.976563 1_555
Mg0 S20 2.551169 1_555
Mg0 S8 2.560959 1_555
Mg0 S24 2.640869 1_555
Mg0 S5 2.654456 1_455
Mg0 S28 2.659802 1_555
Mg0 S13 2.762909 1_455
Mg1 S21 2.551169 1_555
Mg1 S9 2.560959 1_555
Mg1 S25 2.640869 1_555
Mg1 S4 2.654456 1_655
Mg1 S29 2.659802 1_555
Mg1 S12 2.762909 1_655
Mg2 S22 2.551169 1_555
Mg2 S10 2.560959 1_555
Mg2 S26 2.640869 1_555
Mg2 S7 2.654456 1_555
Mg2 S30 2.659802 1_555
Mg2 S15 2.762909 1_555
Mg3 S23 2.551169 1_555
Mg3 S11 2.560959 1_555
Mg3 S27 2.640869 1_555
Mg3 S6 2.654456 1_555
Mg3 S31 2.659802 1_555
Mg3 S14 2.762909 1_555
Mg4 S16 2.561886 1_555
Mg4 S12 2.596070 1_555
Mg4 S30 2.600063 1_555
Mg4 S1 2.624597 1_465
Mg4 S26 2.643243 1_565
Mg4 S9 2.700553 1_455
Mg5 S17 2.561886 1_556
Mg5 S13 2.596070 1_555
Mg5 S31 2.600063 1_555
Mg5 S0 2.624592 1_645
Mg5 S27 2.643243 1_545
Mg5 S8 2.700553 1_655
Mg6 S18 2.561886 1_556
Mg6 S14 2.596070 1_555
Mg6 S28 2.600063 1_555
Mg6 S3 2.624597 1_565
Mg6 S24 2.643243 1_565
Mg6 S11 2.700553 1_555
Mg7 S19 2.561886 1_555
Mg7 S15 2.596070 1_555
Mg7 S29 2.600063 1_555
Mg7 S2 2.624592 1_545
Mg7 S25 2.643243 1_545
Mg7 S10 2.700553 1_555
