# generated using pymatgen
data_Fe3NF9
_symmetry_space_group_name_H-M   'P 1'
_cell_length_a   7.52577719
_cell_length_b   7.52577719
_cell_length_c   3.90581400
_cell_angle_alpha   90.00000000
_cell_angle_beta   90.00000000
_cell_angle_gamma   119.99999291
_symmetry_Int_Tables_number   1
_chemical_formula_structural   Fe3NF9
_chemical_formula_sum   'Fe3 N1 F9'
_cell_volume   191.57769056
_cell_formula_units_Z   1
loop_
 _symmetry_equiv_pos_site_id
 _symmetry_equiv_pos_as_xyz
  1  'x, y, z'
loop_
 _atom_site_type_symbol
 _atom_site_label
 _atom_site_symmetry_multiplicity
 _atom_site_fract_x
 _atom_site_fract_y
 _atom_site_fract_z
 _atom_site_occupancy
  Fe  Fe0  1  0.50000000  0.00000000  0.50000000  1
  Fe  Fe1  1  0.00000000  0.50000000  0.50000000  1
  Fe  Fe2  1  0.50000000  0.50000000  0.50000000  1
  N  N0  1  0.00000000  0.00000000  0.00000000  1
  F  F0  1  0.20890800  0.41781600  0.50000000  1
  F  F1  1  0.79109200  0.58218400  0.50000000  1
  F  F2  1  0.58218400  0.79109200  0.50000000  1
  F  F3  1  0.41781600  0.20890800  0.50000000  1
  F  F4  1  0.20890800  0.79109200  0.50000000  1
  F  F5  1  0.79109200  0.20890800  0.50000000  1
  F  F6  1  0.50000000  0.00000000  0.00000000  1
  F  F7  1  0.00000000  0.50000000  0.00000000  1
  F  F8  1  0.50000000  0.50000000  0.00000000  1
loop_
_geom_bond_atom_site_label_1
_geom_bond_atom_site_label_2
_geom_bond_distance
_geom_bond_site_symmetry_2
F0 Fe1 1.956205 1_555
F0 Fe2 1.956205 1_555
F1 Fe1 1.956205 1_655
F1 Fe2 1.956205 1_555
F2 Fe0 1.956205 1_565
F2 Fe2 1.956205 1_555
F3 Fe0 1.956205 1_555
F3 Fe2 1.956205 1_555
F4 Fe1 1.956205 1_555
F4 Fe0 1.956205 1_565
F5 Fe0 1.956205 1_555
F5 Fe1 1.956205 1_655
F6 Fe0 1.952907 1_555
F6 Fe0 1.952907 1_554
F7 Fe1 1.952907 1_554
F7 Fe1 1.952907 1_555
F8 Fe2 1.952907 1_555
F8 Fe2 1.952907 1_554
