# generated using pymatgen
data_Li4ScFe3(SiO3)8
_symmetry_space_group_name_H-M   'P 1'
_cell_length_a   8.85430900
_cell_length_b   5.37453700
_cell_length_c   9.43599849
_cell_angle_alpha   78.15012500
_cell_angle_beta   90.00000000
_cell_angle_gamma   90.00000000
_symmetry_Int_Tables_number   1
_chemical_formula_structural   Li4ScFe3(SiO3)8
_chemical_formula_sum   'Li4 Sc1 Fe3 Si8 O24'
_cell_volume   439.46905955
_cell_formula_units_Z   1
loop_
 _symmetry_equiv_pos_site_id
 _symmetry_equiv_pos_as_xyz
  1  'x, y, z'
loop_
 _atom_site_type_symbol
 _atom_site_label
 _atom_site_symmetry_multiplicity
 _atom_site_fract_x
 _atom_site_fract_y
 _atom_site_fract_z
 _atom_site_occupancy
  Li  Li0  1  0.75880500  0.50000000  0.50000000  1
  Li  Li1  1  0.25714500  0.00000000  0.00000000  1
  Li  Li2  1  0.24147800  0.00000000  0.50000000  1
  Li  Li3  1  0.74304100  0.50000000  0.00000000  1
  Sc  Sc0  1  0.39797000  0.50000000  0.50000000  1
  Fe  Fe0  1  0.89702800  0.00000000  0.00000000  1
  Fe  Fe1  1  0.60532700  0.00000000  0.50000000  1
  Fe  Fe2  1  0.10305700  0.50000000  0.00000000  1
  Si  Si0  1  0.08628100  0.72201400  0.29415900  1
  Si  Si1  1  0.59010800  0.21851500  0.79739400  1
  Si  Si2  1  0.08628100  0.27798600  0.70584100  1
  Si  Si3  1  0.59010800  0.78148500  0.20260600  1
  Si  Si4  1  0.91058700  0.77931700  0.70437200  1
  Si  Si5  1  0.41138700  0.27824800  0.20245000  1
  Si  Si6  1  0.91058700  0.22068300  0.29562800  1
  Si  Si7  1  0.41138700  0.72175200  0.79755000  1
  O  O0  1  0.25227900  0.71500500  0.36564300  1
  O  O1  1  0.75575600  0.21043000  0.87014200  1
  O  O2  1  0.25227900  0.28499500  0.63435700  1
  O  O3  1  0.75575600  0.78957000  0.12985800  1
  O  O4  1  0.74482100  0.78825400  0.63084900  1
  O  O5  1  0.24494700  0.29015500  0.13028500  1
  O  O6  1  0.74482100  0.21174600  0.36915100  1
  O  O7  1  0.24494700  0.70984500  0.86971500  1
  O  O8  1  0.99903500  0.45031200  0.35375300  1
  O  O9  1  0.49988200  0.94989400  0.85649000  1
  O  O10  1  0.99903500  0.54968800  0.64624700  1
  O  O11  1  0.49988200  0.05010600  0.14351000  1
  O  O12  1  0.99876000  0.04983900  0.64593400  1
  O  O13  1  0.50064700  0.54992000  0.14665000  1
  O  O14  1  0.99876000  0.95016100  0.35406600  1
  O  O15  1  0.50064700  0.45008000  0.85335000  1
  O  O16  1  0.08297000  0.78290000  0.11498800  1
  O  O17  1  0.58874600  0.27796300  0.61820600  1
  O  O18  1  0.08297000  0.21710000  0.88501200  1
  O  O19  1  0.58874600  0.72203700  0.38179400  1
  O  O20  1  0.91553200  0.71747100  0.88363000  1
  O  O21  1  0.41633700  0.20857400  0.38134100  1
  O  O22  1  0.91553200  0.28252900  0.11637000  1
  O  O23  1  0.41633700  0.79142600  0.61865900  1
loop_
_geom_bond_atom_site_label_1
_geom_bond_atom_site_label_2
_geom_bond_distance
_geom_bond_site_symmetry_2
Li0 O17 2.094950 1_555
Li0 O19 2.094950 1_555
Li0 O4 2.173822 1_555
Li0 O6 2.173822 1_555
Li0 O8 2.579042 1_555
Li0 O10 2.579042 1_555
Li1 O16 2.096941 1_545
Li1 O18 2.096941 1_554
Li1 O5 2.177672 1_555
Li1 O7 2.177672 1_544
Li1 O11 2.583678 1_555
Li1 O9 2.583678 1_544
Li2 O21 2.095682 1_555
Li2 O23 2.095682 1_545
Li2 O2 2.181772 1_555
Li2 O0 2.181772 1_545
Li2 O12 2.595783 1_455
Li2 O14 2.595783 1_445
Li3 O20 2.092217 1_554
Li3 O22 2.092217 1_555
Li3 O3 2.172422 1_555
Li3 O1 2.172422 1_554
Li3 O15 2.597237 1_554
Li3 O13 2.597237 1_555
Fe0 O3 1.943207 1_545
Fe0 O1 1.943207 1_554
Fe0 O22 2.055020 1_555
Fe0 O20 2.055020 1_544
Fe0 O16 2.174713 1_645
Fe0 O18 2.174713 1_654
Fe1 O6 1.941144 1_555
Fe1 O4 1.941144 1_545
Fe1 O17 2.044946 1_555
Fe1 O19 2.044946 1_545
Fe1 O21 2.189743 1_555
Fe1 O23 2.189743 1_545
Fe2 O5 1.947377 1_555
Fe2 O7 1.947377 1_554
Fe2 O16 2.048962 1_555
Fe2 O18 2.048962 1_554
Fe2 O20 2.191279 1_454
Fe2 O22 2.191279 1_455
O0 Si0 1.614395 1_555
O0 Sc0 2.001252 1_555
O1 Si1 1.616186 1_555
O2 Si2 1.614395 1_555
O2 Sc0 2.001252 1_555
O3 Si3 1.616186 1_555
O4 Si4 1.619938 1_555
O5 Si5 1.619171 1_555
O6 Si6 1.619938 1_555
O7 Si7 1.619171 1_555
O8 Si0 1.645638 1_655
O8 Si6 1.647803 1_555
O9 Si1 1.644034 1_565
O9 Si7 1.645239 1_555
O10 Si2 1.645638 1_655
O10 Si4 1.647803 1_555
O11 Si3 1.644034 1_545
O11 Si5 1.645239 1_555
O12 Si4 1.642627 1_545
O12 Si2 1.645683 1_655
O13 Si5 1.648650 1_555
O13 Si3 1.650766 1_555
O14 Si6 1.642627 1_565
O14 Si0 1.645683 1_655
O15 Si7 1.648650 1_555
O15 Si1 1.650766 1_555
O16 Si0 1.655008 1_555
O17 Si1 1.655060 1_555
O17 Sc0 2.230444 1_555
O18 Si2 1.655008 1_555
O19 Si3 1.655060 1_555
O19 Sc0 2.230444 1_555
O20 Si4 1.656078 1_555
O21 Si5 1.652858 1_555
O21 Sc0 2.110349 1_555
O22 Si6 1.656078 1_555
O23 Si7 1.652858 1_555
O23 Sc0 2.110349 1_555
