# generated using pymatgen
data_RbPbI3O2
_symmetry_space_group_name_H-M   'P 1'
_cell_length_a   4.93331300
_cell_length_b   9.87816700
_cell_length_c   21.98662300
_cell_angle_alpha   90.00000000
_cell_angle_beta   90.00000000
_cell_angle_gamma   90.00000000
_symmetry_Int_Tables_number   1
_chemical_formula_structural   RbPbI3O2
_chemical_formula_sum   'Rb4 Pb4 I12 O8'
_cell_volume   1071.45408374
_cell_formula_units_Z   4
loop_
 _symmetry_equiv_pos_site_id
 _symmetry_equiv_pos_as_xyz
  1  'x, y, z'
loop_
 _atom_site_type_symbol
 _atom_site_label
 _atom_site_symmetry_multiplicity
 _atom_site_fract_x
 _atom_site_fract_y
 _atom_site_fract_z
 _atom_site_occupancy
  Rb  Rb0  1  0.25000000  0.87848900  0.19682300  1
  Rb  Rb1  1  0.75000000  0.12151100  0.80317700  1
  Rb  Rb2  1  0.75000000  0.62151100  0.69682300  1
  Rb  Rb3  1  0.25000000  0.37848900  0.30317700  1
  Pb  Pb0  1  0.25000000  0.54659500  0.90584700  1
  Pb  Pb1  1  0.75000000  0.45340500  0.09415300  1
  Pb  Pb2  1  0.75000000  0.95340500  0.40584700  1
  Pb  Pb3  1  0.25000000  0.04659500  0.59415300  1
  I  I0  1  0.25000000  0.90739700  0.72332500  1
  I  I1  1  0.75000000  0.09260300  0.27667500  1
  I  I2  1  0.75000000  0.59260300  0.22332500  1
  I  I3  1  0.25000000  0.40739700  0.77667500  1
  I  I4  1  0.25000000  0.66186800  0.05161900  1
  I  I5  1  0.75000000  0.33813200  0.94838100  1
  I  I6  1  0.75000000  0.83813200  0.55161900  1
  I  I7  1  0.25000000  0.16186800  0.44838100  1
  I  I8  1  0.25000000  0.75430500  0.37337200  1
  I  I9  1  0.75000000  0.24569500  0.62662800  1
  I  I10  1  0.75000000  0.74569500  0.87337200  1
  I  I11  1  0.25000000  0.25430500  0.12662800  1
  O  O0  1  0.25000000  0.55529500  0.59853300  1
  O  O1  1  0.75000000  0.44470500  0.40146700  1
  O  O2  1  0.75000000  0.94470500  0.09853300  1
  O  O3  1  0.25000000  0.05529500  0.90146700  1
  O  O4  1  0.25000000  0.51682400  0.54529000  1
  O  O5  1  0.75000000  0.48317600  0.45471000  1
  O  O6  1  0.75000000  0.98317600  0.04529000  1
  O  O7  1  0.25000000  0.01682400  0.95471000  1
loop_
_geom_bond_atom_site_label_1
_geom_bond_atom_site_label_2
_geom_bond_distance
_geom_bond_site_symmetry_2
I0 Pb3 3.155408 1_565
I0 Rb1 3.693270 1_465
I0 Rb1 3.693270 1_565
I0 Rb2 3.794610 1_455
I0 Rb2 3.794610 1_555
I1 Pb2 3.155408 1_545
I1 Rb0 3.693270 1_645
I1 Rb0 3.693270 1_545
I1 Rb3 3.794610 1_555
I1 Rb3 3.794610 1_655
I2 Pb1 3.155408 1_555
I2 Rb3 3.693270 1_555
I2 Rb3 3.693270 1_655
I2 Rb0 3.794610 1_655
I2 Rb0 3.794610 1_555
I3 Pb0 3.155408 1_555
I3 Rb2 3.693270 1_555
I3 Rb2 3.693270 1_455
I3 Rb1 3.794610 1_455
I3 Rb1 3.794610 1_555
I4 Pb1 3.346549 1_455
I4 Pb1 3.346549 1_555
I4 Pb0 3.401301 1_554
I4 Rb0 3.843328 1_555
I5 Pb0 3.346549 1_555
I5 Pb0 3.346549 1_655
I5 Pb1 3.401301 1_556
I5 Rb1 3.843328 1_555
I6 Pb3 3.346549 1_665
I6 Pb3 3.346549 1_565
I6 Pb2 3.401301 1_555
I6 Rb2 3.843328 1_555
I7 Pb2 3.346549 1_445
I7 Pb2 3.346549 1_545
I7 Pb3 3.401301 1_555
I7 Rb3 3.843328 1_555
I8 Pb2 3.234546 1_455
I8 Pb2 3.234546 1_555
I8 Rb3 4.020404 1_555
I8 Rb0 4.070938 1_555
I9 Pb3 3.234546 1_655
I9 Pb3 3.234546 1_555
I9 Rb2 4.020404 1_555
I9 Rb1 4.070938 1_555
I10 Pb0 3.234546 1_655
I10 Pb0 3.234546 1_555
I10 Rb1 4.020404 1_565
I10 Rb2 4.070938 1_555
I11 Pb1 3.234546 1_555
I11 Pb1 3.234546 1_455
I11 Rb0 4.020404 1_545
I11 Rb3 4.070938 1_555
O0 O4 1.230772 1_555
O0 Rb2 3.344015 1_555
O0 Rb2 3.344015 1_455
O1 O5 1.230772 1_555
O1 Rb3 3.344015 1_555
O1 Rb3 3.344015 1_655
O2 O6 1.230772 1_555
O2 Rb0 3.344015 1_655
O2 Rb0 3.344015 1_555
O3 O7 1.230772 1_555
O3 Rb1 3.344015 1_555
O3 Rb1 3.344015 1_455
