# generated using pymatgen
data_Ba2YV3O8
_symmetry_space_group_name_H-M   'P 1'
_cell_length_a   4.09492433
_cell_length_b   12.00516121
_cell_length_c   7.81737593
_cell_angle_alpha   89.99816796
_cell_angle_beta   89.95163875
_cell_angle_gamma   90.02136676
_symmetry_Int_Tables_number   1
_chemical_formula_structural   Ba2YV3O8
_chemical_formula_sum   'Ba4 Y2 V6 O16'
_cell_volume   384.30380946
_cell_formula_units_Z   2
loop_
 _symmetry_equiv_pos_site_id
 _symmetry_equiv_pos_as_xyz
  1  'x, y, z'
loop_
 _atom_site_type_symbol
 _atom_site_label
 _atom_site_symmetry_multiplicity
 _atom_site_fract_x
 _atom_site_fract_y
 _atom_site_fract_z
 _atom_site_occupancy
  Ba  Ba0  1  0.49960400  0.16349900  0.24996900  1
  Ba  Ba1  1  0.50034200  0.16349300  0.75003400  1
  Ba  Ba2  1  0.50107800  0.83651300  0.25000700  1
  Ba  Ba3  1  0.49904300  0.83653000  0.74997900  1
  Y  Y0  1  0.49993300  0.50002700  0.24991400  1
  Y  Y1  1  0.50008300  0.50002100  0.75013700  1
  V  V0  1  0.99985600  0.00006800  0.49990500  1
  V  V1  1  0.99967300  0.34087600  0.50003500  1
  V  V2  1  0.00046200  0.65919400  0.50000100  1
  V  V3  1  0.99995100  0.00003200  0.99997200  1
  V  V4  1  0.00006000  0.34070700  0.99996100  1
  V  V5  1  0.99983500  0.65920400  0.99999600  1
  O  O0  1  0.00016000  0.00001500  0.24998100  1
  O  O1  1  0.99988000  0.00002100  0.74997000  1
  O  O2  1  0.50002500  0.99999500  0.00000200  1
  O  O3  1  0.50000000  0.00004300  0.49998100  1
  O  O4  1  0.99990700  0.18440000  0.00001000  1
  O  O5  1  0.00020500  0.18449600  0.49998400  1
  O  O6  1  0.00018200  0.81549500  0.99999600  1
  O  O7  1  0.99974000  0.81550900  0.49998500  1
  O  O8  1  0.49994400  0.38058500  0.00003100  1
  O  O9  1  0.50050900  0.38066100  0.50003500  1
  O  O10  1  0.00010100  0.38651600  0.24985200  1
  O  O11  1  0.99994500  0.38651600  0.75017400  1
  O  O12  1  0.49935900  0.61933400  0.50002400  1
  O  O13  1  0.50015800  0.61933300  0.00002300  1
  O  O14  1  0.00030900  0.61346500  0.25001800  1
  O  O15  1  0.99965100  0.61345600  0.75002100  1
loop_
_geom_bond_atom_site_label_1
_geom_bond_atom_site_label_2
_geom_bond_distance
_geom_bond_site_symmetry_2
Ba0 O3 2.769526 1_555
Ba0 O2 2.769773 1_545
Ba0 O0 2.834041 1_555
Ba0 O0 2.838386 1_655
Ba0 O5 2.838866 1_555
Ba0 O4 2.840982 1_555
Ba0 O4 2.841706 1_455
Ba0 O5 2.844654 1_655
Ba0 O8 3.257187 1_555
Ba0 O9 3.258621 1_555
Ba0 O10 3.369880 1_555
Ba0 O10 3.371138 1_655
Ba1 O2 2.769638 1_546
Ba1 O3 2.769789 1_555
Ba1 O1 2.835275 1_555
Ba1 O1 2.836951 1_455
Ba1 O5 2.840281 1_655
Ba1 O4 2.841290 1_556
Ba1 O4 2.841615 1_456
Ba1 O5 2.843603 1_555
Ba1 O8 3.257622 1_556
Ba1 O9 3.258261 1_555
Ba1 O11 3.368973 1_555
Ba1 O11 3.372160 1_455
Ba2 O2 2.769714 1_555
Ba2 O3 2.770035 1_565
Ba2 O0 2.833122 1_665
Ba2 O6 2.837997 1_654
Ba2 O7 2.838865 1_555
Ba2 O0 2.839606 1_565
Ba2 O7 2.844248 1_455
Ba2 O6 2.845526 1_554
Ba2 O13 3.258409 1_555
Ba2 O12 3.258453 1_555
Ba2 O14 3.369499 1_655
Ba2 O14 3.372111 1_555
Ba3 O2 2.769754 1_556
Ba3 O3 2.769931 1_565
Ba3 O1 2.834326 1_465
Ba3 O6 2.837185 1_555
Ba3 O1 2.838217 1_565
Ba3 O7 2.840735 1_455
Ba3 O7 2.842607 1_555
Ba3 O6 2.846419 1_655
Ba3 O12 3.258424 1_555
Ba3 O13 3.258758 1_556
Ba3 O15 3.368935 1_455
Ba3 O15 3.373173 1_555
O0 V0 1.953749 1_455
O0 V3 1.954415 1_454
O1 V3 1.954360 1_555
O1 V0 1.954852 1_555
O2 V3 2.047159 1_564
O2 V3 2.047766 1_464
O3 V0 2.046872 1_555
O3 V0 2.048053 1_455
O4 V4 1.876491 1_654
O4 V3 2.213368 1_554
O5 V1 1.877369 1_455
O5 V0 2.214088 1_455
O6 V5 1.876299 1_455
O6 V3 2.215397 1_465
O7 V2 1.876590 1_655
O7 V0 2.215660 1_565
O8 V4 2.102052 1_554
O8 V4 2.103324 1_654
O8 Y1 2.423213 1_554
O8 Y0 2.423261 1_555
O9 V1 2.099273 1_555
O9 V1 2.105594 1_455
O9 Y1 2.424059 1_555
O9 Y0 2.424151 1_555
O10 V4 2.029443 1_554
O10 V1 2.031057 1_455
O10 Y0 2.458497 1_555
O10 Y0 2.460488 1_455
O11 V4 2.028627 1_655
O11 V1 2.030762 1_555
O11 Y1 2.459405 1_555
O11 Y1 2.459499 1_655
O12 V2 2.098414 1_555
O12 V2 2.106863 1_655
O12 Y1 2.423726 1_555
O12 Y0 2.423734 1_555
O13 V5 2.101207 1_554
O13 V5 2.104130 1_454
O13 Y0 2.422271 1_555
O13 Y1 2.422357 1_554
O14 V2 2.029876 1_555
O14 V5 2.030170 1_454
O14 Y0 2.458147 1_555
O14 Y0 2.459866 1_455
O15 V5 2.029877 1_555
O15 V2 2.030149 1_655
O15 Y1 2.457091 1_555
O15 Y1 2.460884 1_655
