# generated using pymatgen
data_LiCdO3
_symmetry_space_group_name_H-M   'P 1'
_cell_length_a   3.76173700
_cell_length_b   3.76173700
_cell_length_c   3.76173700
_cell_angle_alpha   90.00000000
_cell_angle_beta   90.00000000
_cell_angle_gamma   90.00000000
_symmetry_Int_Tables_number   1
_chemical_formula_structural   LiCdO3
_chemical_formula_sum   'Li1 Cd1 O3'
_cell_volume   53.23108107
_cell_formula_units_Z   1
loop_
 _symmetry_equiv_pos_site_id
 _symmetry_equiv_pos_as_xyz
  1  'x, y, z'
loop_
 _atom_site_type_symbol
 _atom_site_label
 _atom_site_symmetry_multiplicity
 _atom_site_fract_x
 _atom_site_fract_y
 _atom_site_fract_z
 _atom_site_occupancy
  Li  Li0  1  0.50000000  0.50000000  0.50000000  1
  Cd  Cd0  1  0.00000000  0.00000000  0.00000000  1
  O  O0  1  0.50000000  0.50000000  0.00000000  1
  O  O1  1  0.50000000  0.00000000  0.50000000  1
  O  O2  1  0.00000000  0.50000000  0.50000000  1
loop_
_geom_bond_atom_site_label_1
_geom_bond_atom_site_label_2
_geom_bond_distance
_geom_bond_site_symmetry_2
Li0 O1 1.880869 1_565
Li0 O2 1.880869 1_655
Li0 O0 1.880869 1_556
Li0 O1 1.880869 1_555
Li0 O0 1.880869 1_555
Li0 O2 1.880869 1_555
Cd0 O0 2.659950 1_455
Cd0 O1 2.659950 1_554
Cd0 O2 2.659950 1_544
Cd0 O2 2.659950 1_545
Cd0 O1 2.659950 1_455
Cd0 O1 2.659950 1_454
Cd0 O0 2.659950 1_545
Cd0 O1 2.659950 1_555
Cd0 O0 2.659950 1_555
Cd0 O0 2.659950 1_445
Cd0 O2 2.659950 1_555
Cd0 O2 2.659950 1_554
