# generated using pymatgen
data_V4Bi23O44
_symmetry_space_group_name_H-M   'P 1'
_cell_length_a   11.80104000
_cell_length_b   11.87732305
_cell_length_c   11.97456832
_cell_angle_alpha   60.78361986
_cell_angle_beta   60.65885567
_cell_angle_gamma   61.71188732
_symmetry_Int_Tables_number   1
_chemical_formula_structural   V4Bi23O44
_chemical_formula_sum   'V4 Bi23 O44'
_cell_volume   1214.67659773
_cell_formula_units_Z   1
loop_
 _symmetry_equiv_pos_site_id
 _symmetry_equiv_pos_as_xyz
  1  'x, y, z'
loop_
 _atom_site_type_symbol
 _atom_site_label
 _atom_site_symmetry_multiplicity
 _atom_site_fract_x
 _atom_site_fract_y
 _atom_site_fract_z
 _atom_site_occupancy
  V  V0  1  0.67548900  0.83802400  0.80215900  1
  V  V1  1  0.31392400  0.19939000  0.16748200  1
  V  V2  1  0.04203500  0.84864100  0.14947300  1
  V  V3  1  0.02340700  0.14144800  0.84220300  1
  Bi  Bi0  1  0.28992600  0.52813600  0.85206100  1
  Bi  Bi1  1  0.30635900  0.18534700  0.80791900  1
  Bi  Bi2  1  0.67131400  0.46940100  0.54763800  1
  Bi  Bi3  1  0.66770000  0.17028500  0.48228900  1
  Bi  Bi4  1  0.96986700  0.51727800  0.20231100  1
  Bi  Bi5  1  0.33230200  0.85157100  0.82288100  1
  Bi  Bi6  1  0.70884200  0.15427200  0.82313300  1
  Bi  Bi7  1  0.99364400  0.18454800  0.17984300  1
  Bi  Bi8  1  0.66894200  0.83022700  0.47706700  1
  Bi  Bi9  1  0.33062100  0.51473200  0.13721200  1
  Bi  Bi10  1  0.00257800  0.16137700  0.50387000  1
  Bi  Bi11  1  0.00842700  0.83729900  0.49899900  1
  Bi  Bi12  1  0.65888300  0.50382600  0.84212600  1
  Bi  Bi13  1  0.34016500  0.16240700  0.48587300  1
  Bi  Bi14  1  0.99623800  0.83825600  0.83813600  1
  Bi  Bi15  1  0.01228800  0.48907900  0.51187900  1
  Bi  Bi16  1  0.33110500  0.82382800  0.17979100  1
  Bi  Bi17  1  0.65399200  0.16183400  0.17388200  1
  Bi  Bi18  1  0.01363000  0.49105700  0.82602400  1
  Bi  Bi19  1  0.33514200  0.83325200  0.52519700  1
  Bi  Bi20  1  0.37604900  0.50053200  0.47921300  1
  Bi  Bi21  1  0.62705600  0.84913500  0.15351600  1
  Bi  Bi22  1  0.68611300  0.46305000  0.15827800  1
  O  O0  1  0.22479300  0.79231000  0.75884900  1
  O  O1  1  0.45738200  0.86481700  0.61043800  1
  O  O2  1  0.56870700  0.82122200  0.36844800  1
  O  O3  1  0.43747600  0.60715100  0.91685000  1
  O  O4  1  0.77780300  0.65994900  0.15824600  1
  O  O5  1  0.69818700  0.61244100  0.61030300  1
  O  O6  1  0.60014500  0.39616100  0.38806700  1
  O  O7  1  0.17335200  0.56858800  0.05070800  1
  O  O8  1  0.62724300  0.37720800  0.77029100  1
  O  O9  1  0.74287200  0.88559600  0.62378300  1
  O  O10  1  0.91379100  0.41443800  0.44376000  1
  O  O11  1  0.91659800  0.39950200  0.14746400  1
  O  O12  1  0.74062100  0.22516900  0.60474100  1
  O  O13  1  0.49802700  0.90723300  0.85111100  1
  O  O14  1  0.95054100  0.09261500  0.39419100  1
  O  O15  1  0.92762000  0.13070300  0.75330700  1
  O  O16  1  0.74505400  0.89519500  0.85858800  1
  O  O17  1  0.13801000  0.26637500  0.25135200  1
  O  O18  1  0.71805900  0.66185400  0.86875700  1
  O  O19  1  0.04634400  0.96117600  0.98099700  1
  O  O20  1  0.33445500  0.06328000  0.13473500  1
  O  O21  1  0.00798100  0.93820600  0.24530700  1
  O  O22  1  0.02408900  0.91028100  0.62530000  1
  O  O23  1  0.36908000  0.32279100  0.01667400  1
  O  O24  1  0.21891300  0.74482200  0.13437900  1
  O  O25  1  0.72048100  0.99898600  0.06535600  1
  O  O26  1  0.42081000  0.16179100  0.25494100  1
  O  O27  1  0.23276300  0.80040200  0.39030600  1
  O  O28  1  0.06680500  0.63022700  0.85759300  1
  O  O29  1  0.06217000  0.60121000  0.60581200  1
  O  O30  1  0.22666900  0.05231300  0.49352800  1
  O  O31  1  0.83283400  0.24026000  0.95913900  1
  O  O32  1  0.44676000  0.61711500  0.24037200  1
  O  O33  1  0.83311500  0.36717400  0.95562700  1
  O  O34  1  0.42910400  0.57141800  0.57782400  1
  O  O35  1  0.22012700  0.38791100  0.41097000  1
  O  O36  1  0.23118500  0.39388400  0.81512000  1
  O  O37  1  0.09130500  0.26782300  0.82864000  1
  O  O38  1  0.93702300  0.75279100  0.23337200  1
  O  O39  1  0.23774700  0.07665900  0.73283200  1
  O  O40  1  0.55909100  0.38523000  0.12012300  1
  O  O41  1  0.42528700  0.25691800  0.59837300  1
  O  O42  1  0.58572800  0.08089200  0.40817400  1
  O  O43  1  0.77451200  0.22498100  0.24129700  1
loop_
_geom_bond_atom_site_label_1
_geom_bond_atom_site_label_2
_geom_bond_distance
_geom_bond_site_symmetry_2
Bi0 O7 2.250308 1_556
Bi0 O36 2.292503 1_555
Bi0 O28 2.299794 1_555
Bi0 O23 2.378744 1_556
Bi0 O0 2.611071 1_555
Bi0 O34 2.759016 1_555
Bi0 O3 2.845718 1_555
Bi1 O41 2.141448 1_555
Bi1 O37 2.173876 1_555
Bi1 O36 2.231632 1_555
Bi1 O39 2.442910 1_555
Bi2 O8 2.215583 1_555
Bi2 O5 2.353388 1_555
Bi2 O10 2.386515 1_555
Bi2 O34 2.429253 1_555
Bi2 O12 2.431925 1_555
Bi3 O6 2.237271 1_555
Bi3 O42 2.363361 1_555
Bi3 O43 2.391602 1_555
Bi3 O41 2.425698 1_555
Bi3 O12 2.452949 1_555
Bi3 O14 2.772309 1_555
Bi3 O9 2.851014 1_545
Bi4 O11 2.217726 1_555
Bi4 O4 2.223969 1_555
Bi4 O7 2.338423 1_655
Bi4 O10 2.394305 1_555
Bi4 O17 2.644208 1_655
Bi4 O38 2.821353 1_555
Bi5 O1 2.196468 1_555
Bi5 O0 2.240445 1_555
Bi5 O39 2.256686 1_565
Bi5 O3 2.449288 1_555
Bi5 O13 2.543182 1_555
Bi6 O15 2.207055 1_555
Bi6 O12 2.208424 1_555
Bi6 O8 2.209920 1_555
Bi6 O25 2.600286 1_546
Bi6 O16 2.736377 1_545
Bi7 O14 2.133078 1_555
Bi7 O11 2.161987 1_555
Bi7 O43 2.182301 1_555
Bi7 O21 2.574032 1_645
Bi8 O1 2.171014 1_555
Bi8 O2 2.205872 1_555
Bi8 O5 2.240605 1_555
Bi8 O42 2.476682 1_565
Bi8 O9 2.730214 1_555
Bi9 O3 2.231893 1_554
Bi9 O7 2.244694 1_555
Bi9 O40 2.347987 1_555
Bi9 O24 2.397118 1_555
Bi9 O35 2.750905 1_555
Bi10 O14 2.254311 1_455
Bi10 O30 2.296858 1_555
Bi10 O10 2.508436 1_455
Bi10 O22 2.546356 1_545
Bi10 O15 2.547659 1_455
Bi10 O12 2.569748 1_455
Bi10 O17 2.593188 1_555
Bi11 O22 2.185985 1_555
Bi11 O27 2.230498 1_555
Bi11 O29 2.347188 1_555
Bi11 O14 2.529639 1_465
Bi11 O9 2.631818 1_455
Bi11 O21 2.668405 1_555
Bi12 O3 2.207988 1_555
Bi12 O8 2.291476 1_555
Bi12 O5 2.322656 1_555
Bi12 O33 2.476152 1_555
Bi12 O18 2.481373 1_555
Bi12 O40 2.757774 1_556
Bi13 O30 2.221451 1_555
Bi13 O35 2.299734 1_555
Bi13 O42 2.403875 1_555
Bi13 O39 2.442741 1_555
Bi13 O26 2.446780 1_555
Bi13 O41 2.820491 1_555
Bi14 O28 2.128544 1_655
Bi14 O22 2.156960 1_655
Bi14 O0 2.252807 1_655
Bi14 O16 2.618055 1_555
Bi15 O35 2.153904 1_555
Bi15 O10 2.326851 1_455
Bi15 O29 2.497964 1_555
Bi16 O32 2.114844 1_555
Bi16 O27 2.129112 1_555
Bi16 O24 2.304447 1_555
Bi16 O20 2.639883 1_565
Bi17 O40 2.220699 1_555
Bi17 O42 2.308758 1_555
Bi17 O26 2.428520 1_555
Bi17 O43 2.442201 1_555
Bi17 O25 2.462049 1_545
Bi17 O31 2.478044 1_554
Bi18 O29 2.203494 1_555
Bi18 O36 2.224999 1_555
Bi18 O28 2.257123 1_555
Bi18 O37 2.348350 1_555
Bi18 O33 2.571623 1_455
Bi19 O30 2.215364 1_565
Bi19 O0 2.337036 1_555
Bi19 O1 2.364872 1_555
Bi19 O2 2.441130 1_555
Bi19 O34 2.607924 1_555
Bi19 O27 2.682454 1_555
Bi20 O34 2.165622 1_555
Bi20 O6 2.259773 1_555
Bi20 O32 2.384035 1_555
Bi20 O41 2.436060 1_555
Bi21 O25 2.093507 1_555
Bi21 O4 2.098283 1_555
Bi21 O2 2.203334 1_555
Bi22 O6 2.264050 1_555
Bi22 O43 2.355495 1_555
Bi22 O40 2.388867 1_555
Bi22 O11 2.406047 1_555
Bi22 O32 2.535579 1_555
Bi22 O33 2.625747 1_554
O9 V0 1.759853 1_555
O13 V0 1.743792 1_555
O15 V3 1.968705 1_655
O16 V0 1.763955 1_555
O17 V1 1.767086 1_555
O18 V0 1.741818 1_555
O19 V2 1.786232 1_556
O19 V3 1.958987 1_565
O20 V1 1.726394 1_555
O21 V2 1.716001 1_555
O23 V1 1.732460 1_555
O24 V2 1.821667 1_555
O26 V1 1.786455 1_555
O31 O33 1.488874 1_555
O31 V3 2.100559 1_655
O37 V3 1.922450 1_555
O38 V2 1.685713 1_655
O39 V3 2.144270 1_555
