# generated using pymatgen
data_FeH9C4(NO2)3
_symmetry_space_group_name_H-M   'P 1'
_cell_length_a   8.32232154
_cell_length_b   11.68958655
_cell_length_c   8.92938050
_cell_angle_alpha   90.00000000
_cell_angle_beta   90.00000000
_cell_angle_gamma   90.00000000
_symmetry_Int_Tables_number   1
_chemical_formula_structural   FeH9C4(NO2)3
_chemical_formula_sum   'Fe4 H36 C16 N12 O24'
_cell_volume   868.69029886
_cell_formula_units_Z   4
loop_
 _symmetry_equiv_pos_site_id
 _symmetry_equiv_pos_as_xyz
  1  'x, y, z'
loop_
 _atom_site_type_symbol
 _atom_site_label
 _atom_site_symmetry_multiplicity
 _atom_site_fract_x
 _atom_site_fract_y
 _atom_site_fract_z
 _atom_site_occupancy
  Fe  Fe0  1  0.25789006  0.25000000  0.25000000  1
  Fe  Fe1  1  0.24210994  0.75000000  0.25000000  1
  Fe  Fe2  1  0.74210994  0.75000000  0.75000000  1
  Fe  Fe3  1  0.75789006  0.25000000  0.75000000  1
  H  H0  1  0.25000000  0.50000000  0.18883722  1
  H  H1  1  0.25000000  0.00000000  0.31116278  1
  H  H2  1  0.75000000  0.50000000  0.81116278  1
  H  H3  1  0.75000000  0.00000000  0.68883722  1
  H  H4  1  0.32805247  0.41816456  0.57721331  1
  H  H5  1  0.17194753  0.58183544  0.57721331  1
  H  H6  1  0.32805247  0.08183544  0.92278669  1
  H  H7  1  0.17194753  0.91816456  0.92278669  1
  H  H8  1  0.67194753  0.58183544  0.42278669  1
  H  H9  1  0.82805247  0.41816456  0.42278669  1
  H  H10  1  0.67194753  0.91816456  0.07721331  1
  H  H11  1  0.82805247  0.08183544  0.07721331  1
  H  H12  1  0.41990829  0.37606503  0.74902479  1
  H  H13  1  0.08009171  0.62393497  0.74902479  1
  H  H14  1  0.41990829  0.12393497  0.75097521  1
  H  H15  1  0.08009171  0.87606503  0.75097521  1
  H  H16  1  0.58009171  0.62393497  0.25097521  1
  H  H17  1  0.91990829  0.37606503  0.25097521  1
  H  H18  1  0.58009171  0.87606503  0.24902479  1
  H  H19  1  0.91990829  0.12393497  0.24902479  1
  H  H20  1  0.61604143  0.27812071  0.42331578  1
  H  H21  1  0.88395857  0.72187929  0.42331578  1
  H  H22  1  0.61604143  0.22187929  0.07668422  1
  H  H23  1  0.88395857  0.77812071  0.07668422  1
  H  H24  1  0.38395857  0.72187929  0.57668422  1
  H  H25  1  0.11604143  0.27812071  0.57668422  1
  H  H26  1  0.38395857  0.77812071  0.92331578  1
  H  H27  1  0.11604143  0.22187929  0.92331578  1
  H  H28  1  0.18874481  0.56164500  0.97071432  1
  H  H29  1  0.31125519  0.43835500  0.97071432  1
  H  H30  1  0.18874481  0.93835500  0.52928568  1
  H  H31  1  0.31125519  0.06164500  0.52928568  1
  H  H32  1  0.81125519  0.43835500  0.02928568  1
  H  H33  1  0.68874481  0.56164500  0.02928568  1
  H  H34  1  0.81125519  0.06164500  0.47071432  1
  H  H35  1  0.68874481  0.93835500  0.47071432  1
  C  C0  1  0.25000000  0.50000000  0.31150230  1
  C  C1  1  0.25000000  0.00000000  0.18849770  1
  C  C2  1  0.75000000  0.50000000  0.68849770  1
  C  C3  1  0.75000000  0.00000000  0.81150230  1
  C  C4  1  0.53362870  0.21927934  0.48147689  1
  C  C5  1  0.96637130  0.78072066  0.48147689  1
  C  C6  1  0.53362870  0.28072066  0.01852311  1
  C  C7  1  0.96637130  0.71927934  0.01852311  1
  C  C8  1  0.46637130  0.78072066  0.51852311  1
  C  C9  1  0.03362870  0.21927934  0.51852311  1
  C  C10  1  0.46637130  0.71927934  0.98147689  1
  C  C11  1  0.03362870  0.28072066  0.98147689  1
  C  C12  1  0.25000000  0.50000000  0.76467823  1
  C  C13  1  0.25000000  0.00000000  0.73532177  1
  C  C14  1  0.75000000  0.50000000  0.23532177  1
  C  C15  1  0.75000000  0.00000000  0.26467823  1
  N  N0  1  0.34109252  0.42536494  0.69039413  1
  N  N1  1  0.15890748  0.57463506  0.69039413  1
  N  N2  1  0.34109252  0.07463506  0.80960587  1
  N  N3  1  0.15890748  0.92536494  0.80960587  1
  N  N4  1  0.65890748  0.57463506  0.30960587  1
  N  N5  1  0.84109252  0.42536494  0.30960587  1
  N  N6  1  0.65890748  0.92536494  0.19039413  1
  N  N7  1  0.84109252  0.07463506  0.19039413  1
  N  N8  1  0.25000000  0.50000000  0.91373531  1
  N  N9  1  0.25000000  0.00000000  0.58626469  1
  N  N10  1  0.75000000  0.50000000  0.08626469  1
  N  N11  1  0.75000000  0.00000000  0.41373531  1
  O  O0  1  0.26411072  0.40486501  0.37726955  1
  O  O1  1  0.23588928  0.59513499  0.37726955  1
  O  O2  1  0.26411072  0.09513499  0.12273045  1
  O  O3  1  0.23588928  0.90486501  0.12273045  1
  O  O4  1  0.73588928  0.59513499  0.62273045  1
  O  O5  1  0.76411072  0.40486501  0.62273045  1
  O  O6  1  0.73588928  0.90486501  0.87726955  1
  O  O7  1  0.76411072  0.09513499  0.87726955  1
  O  O8  1  0.41312405  0.18176669  0.41089696  1
  O  O9  1  0.08687595  0.81823331  0.41089696  1
  O  O10  1  0.41312405  0.31823331  0.08910304  1
  O  O11  1  0.08687595  0.68176669  0.08910304  1
  O  O12  1  0.58687595  0.81823331  0.58910304  1
  O  O13  1  0.91312405  0.18176669  0.58910304  1
  O  O14  1  0.58687595  0.68176669  0.91089696  1
  O  O15  1  0.91312405  0.31823331  0.91089696  1
  O  O16  1  0.56472700  0.19282519  0.61576000  1
  O  O17  1  0.93527300  0.80717481  0.61576000  1
  O  O18  1  0.56472700  0.30717481  0.88424000  1
  O  O19  1  0.93527300  0.69282519  0.88424000  1
  O  O20  1  0.43527300  0.80717481  0.38424000  1
  O  O21  1  0.06472700  0.19282519  0.38424000  1
  O  O22  1  0.43527300  0.69282519  0.11576000  1
  O  O23  1  0.06472700  0.30717481  0.11576000  1
loop_
_geom_bond_atom_site_label_1
_geom_bond_atom_site_label_2
_geom_bond_distance
_geom_bond_site_symmetry_2
Fe0 O8 2.090301 1_555
Fe0 O10 2.090301 1_555
Fe0 O21 2.113715 1_555
Fe0 O23 2.113715 1_555
Fe0 O2 2.138080 1_555
Fe0 O0 2.138080 1_555
Fe1 O9 2.090301 1_555
Fe1 O11 2.090301 1_555
Fe1 O20 2.113715 1_555
Fe1 O22 2.113715 1_555
Fe1 O3 2.138080 1_555
Fe1 O1 2.138080 1_555
Fe2 O14 2.090301 1_555
Fe2 O12 2.090301 1_555
Fe2 O19 2.113715 1_555
Fe2 O17 2.113715 1_555
Fe2 O6 2.138080 1_555
Fe2 O4 2.138080 1_555
Fe3 O15 2.090301 1_555
Fe3 O13 2.090301 1_555
Fe3 O18 2.113715 1_555
Fe3 O16 2.113715 1_555
Fe3 O7 2.138080 1_555
Fe3 O5 2.138080 1_555
H4 N0 1.019924 1_555
H5 N1 1.019924 1_555
H6 N2 1.019924 1_555
H7 N3 1.019924 1_555
H8 N4 1.019924 1_555
H9 N5 1.019924 1_555
H10 N6 1.019924 1_555
H11 N7 1.019924 1_555
H12 N0 1.018062 1_555
H13 N1 1.018062 1_555
H14 N2 1.018062 1_555
H15 N3 1.018062 1_555
H16 N4 1.018062 1_555
H17 N5 1.018062 1_555
H18 N6 1.018062 1_555
H19 N7 1.018062 1_555
H28 N8 1.018831 1_555
H29 N8 1.018831 1_555
H30 N9 1.018831 1_565
H31 N9 1.018831 1_555
H32 N10 1.018831 1_555
H33 N10 1.018831 1_555
H34 N11 1.018831 1_555
H35 N11 1.018831 1_565
C0 H0 1.095323 1_555
C0 O1 1.263094 1_555
C0 O0 1.263094 1_555
C1 H1 1.095323 1_555
C1 O3 1.263094 1_545
C1 O2 1.263094 1_555
C2 H2 1.095323 1_555
C2 O5 1.263094 1_555
C2 O4 1.263094 1_555
C3 H3 1.095323 1_555
C3 O7 1.263094 1_555
C3 O6 1.263094 1_545
C4 H20 1.101472 1_555
C4 O8 1.263032 1_555
C4 O16 1.265056 1_555
C5 H21 1.101472 1_555
C5 O9 1.263032 1_655
C5 O17 1.265056 1_555
C6 H22 1.101472 1_555
C6 O10 1.263032 1_555
C6 O18 1.265056 1_554
C7 H23 1.101472 1_555
C7 O11 1.263032 1_655
C7 O19 1.265056 1_554
C8 H24 1.101472 1_555
C8 O12 1.263032 1_555
C8 O20 1.265056 1_555
C9 H25 1.101472 1_555
C9 O13 1.263032 1_455
C9 O21 1.265056 1_555
C10 H26 1.101472 1_555
C10 O14 1.263032 1_555
C10 O22 1.265056 1_556
C11 H27 1.101472 1_555
C11 O15 1.263032 1_455
C11 O23 1.265056 1_556
C12 N8 1.330987 1_555
C12 N0 1.332619 1_555
C12 N1 1.332619 1_555
C13 N9 1.330987 1_555
C13 N3 1.332619 1_545
C13 N2 1.332619 1_555
C14 N10 1.330987 1_555
C14 N5 1.332619 1_555
C14 N4 1.332619 1_555
C15 N11 1.330987 1_555
C15 N7 1.332619 1_555
C15 N6 1.332619 1_545
