# generated using pymatgen
data_Mg2Ti
_symmetry_space_group_name_H-M   'P 1'
_cell_length_a   4.97042100
_cell_length_b   5.46515500
_cell_length_c   9.17846500
_cell_angle_alpha   90.00000000
_cell_angle_beta   90.00000000
_cell_angle_gamma   90.00000000
_symmetry_Int_Tables_number   1
_chemical_formula_structural   Mg2Ti
_chemical_formula_sum   'Mg8 Ti4'
_cell_volume   249.32493551
_cell_formula_units_Z   4
loop_
 _symmetry_equiv_pos_site_id
 _symmetry_equiv_pos_as_xyz
  1  'x, y, z'
loop_
 _atom_site_type_symbol
 _atom_site_label
 _atom_site_symmetry_multiplicity
 _atom_site_fract_x
 _atom_site_fract_y
 _atom_site_fract_z
 _atom_site_occupancy
  Mg  Mg0  1  0.00000000  0.41124200  0.00000000  1
  Mg  Mg1  1  0.00000000  0.40999100  0.32828000  1
  Mg  Mg2  1  0.00000000  0.92647300  0.50000000  1
  Mg  Mg3  1  0.00000000  0.40999100  0.67172000  1
  Mg  Mg4  1  0.50000000  0.07352700  0.00000000  1
  Mg  Mg5  1  0.50000000  0.59000900  0.17172000  1
  Mg  Mg6  1  0.50000000  0.58875800  0.50000000  1
  Mg  Mg7  1  0.50000000  0.59000900  0.82828000  1
  Ti  Ti0  1  0.00000000  0.92432100  0.16822900  1
  Ti  Ti1  1  0.00000000  0.92432100  0.83177100  1
  Ti  Ti2  1  0.50000000  0.07567900  0.33177100  1
  Ti  Ti3  1  0.50000000  0.07567900  0.66822900  1
loop_
_geom_bond_atom_site_label_1
_geom_bond_atom_site_label_2
_geom_bond_distance
_geom_bond_site_symmetry_2
Mg0 Mg3 3.013114 1_554
Mg0 Mg1 3.013114 1_555
Mg0 Ti0 3.076628 1_545
Mg0 Ti1 3.076628 1_544
Mg0 Mg4 3.095602 1_455
Mg0 Mg4 3.095602 1_555
Mg0 Mg7 3.100799 1_454
Mg0 Mg7 3.100799 1_554
Mg0 Mg5 3.100799 1_555
Mg0 Mg5 3.100799 1_455
Mg0 Ti0 3.201082 1_555
Mg0 Ti1 3.201082 1_554
Mg1 Ti0 3.033667 1_545
Mg1 Mg5 3.034650 1_555
Mg1 Mg5 3.034650 1_455
Mg1 Mg2 3.076846 1_545
Mg1 Ti2 3.084716 1_455
Mg1 Ti2 3.084716 1_555
Mg1 Mg6 3.100799 1_555
Mg1 Mg6 3.100799 1_455
Mg1 Mg3 3.152252 1_555
Mg1 Ti0 3.171616 1_555
Mg1 Mg2 3.232886 1_555
Mg2 Ti3 3.037334 1_465
Mg2 Ti3 3.037334 1_565
Mg2 Ti2 3.037334 1_465
Mg2 Ti2 3.037334 1_565
Mg2 Ti1 3.045171 1_555
Mg2 Ti0 3.045171 1_555
Mg2 Mg3 3.076846 1_565
Mg2 Mg6 3.095602 1_455
Mg2 Mg6 3.095602 1_555
Mg2 Mg3 3.232886 1_555
Mg3 Ti1 3.033667 1_545
Mg3 Mg7 3.034650 1_455
Mg3 Mg7 3.034650 1_555
Mg3 Ti3 3.084716 1_455
Mg3 Ti3 3.084716 1_555
Mg3 Mg6 3.100799 1_455
Mg3 Mg6 3.100799 1_555
Mg3 Ti1 3.171616 1_555
Mg4 Ti0 3.037334 1_545
Mg4 Ti0 3.037334 1_645
Mg4 Ti1 3.037334 1_644
Mg4 Ti1 3.037334 1_544
Mg4 Ti2 3.045171 1_555
Mg4 Ti3 3.045171 1_554
Mg4 Mg5 3.076846 1_545
Mg4 Mg7 3.076846 1_544
Mg4 Mg7 3.232886 1_554
Mg4 Mg5 3.232886 1_555
Mg5 Mg6 3.013114 1_555
Mg5 Ti2 3.033667 1_565
Mg5 Ti0 3.084716 1_655
Mg5 Ti0 3.084716 1_555
Mg5 Mg7 3.152252 1_554
Mg5 Ti2 3.171616 1_555
Mg6 Mg7 3.013114 1_555
Mg6 Ti3 3.076628 1_565
Mg6 Ti2 3.076628 1_565
Mg6 Ti2 3.201082 1_555
Mg6 Ti3 3.201082 1_555
Mg7 Ti3 3.033667 1_565
Mg7 Ti1 3.084716 1_555
Mg7 Ti1 3.084716 1_655
Mg7 Ti3 3.171616 1_555
Ti0 Ti2 3.018893 1_565
Ti0 Ti2 3.018893 1_465
Ti0 Ti1 3.088168 1_554
Ti1 Ti3 3.018893 1_465
Ti1 Ti3 3.018893 1_565
Ti2 Ti3 3.088168 1_555
