# generated using pymatgen
data_Li3CeBi2
_symmetry_space_group_name_H-M   'P 1'
_cell_length_a   4.72231939
_cell_length_b   4.72231939
_cell_length_c   7.52886369
_cell_angle_alpha   90.00000000
_cell_angle_beta   90.00000000
_cell_angle_gamma   119.99997775
_symmetry_Int_Tables_number   1
_chemical_formula_structural   Li3CeBi2
_chemical_formula_sum   'Li3 Ce1 Bi2'
_cell_volume   145.40216647
_cell_formula_units_Z   1
loop_
 _symmetry_equiv_pos_site_id
 _symmetry_equiv_pos_as_xyz
  1  'x, y, z'
loop_
 _atom_site_type_symbol
 _atom_site_label
 _atom_site_symmetry_multiplicity
 _atom_site_fract_x
 _atom_site_fract_y
 _atom_site_fract_z
 _atom_site_occupancy
  Li  Li0  1  0.66666700  0.33333300  0.64463370  1
  Li  Li1  1  0.33333300  0.66666700  0.35536630  1
  Li  Li2  1  -0.00000000  -0.00000000  0.50000000  1
  Ce  Ce0  1  -0.00000000  -0.00000000  -0.00000000  1
  Bi  Bi0  1  0.66666700  0.33333300  0.25459200  1
  Bi  Bi1  1  0.33333300  0.66666700  0.74540800  1
loop_
_geom_bond_atom_site_label_1
_geom_bond_atom_site_label_2
_geom_bond_distance
_geom_bond_site_symmetry_2
Li0 Li2 2.935844 1_655
Li0 Li2 2.935849 1_555
Li0 Li2 2.935849 1_665
Li1 Li2 2.935844 1_565
Li1 Li2 2.935849 1_665
Li1 Li2 2.935849 1_555
Bi0 Li1 2.830030 1_545
Bi0 Li1 2.830030 1_655
Bi0 Li1 2.830037 1_555
Bi0 Li0 2.936571 1_555
Bi0 Li2 3.293509 1_655
Bi0 Li2 3.293513 1_555
Bi0 Li2 3.293513 1_665
Bi0 Ce0 3.332791 1_655
Bi0 Ce0 3.332795 1_555
Bi0 Ce0 3.332795 1_665
Bi1 Li0 2.830030 1_455
Bi1 Li0 2.830030 1_565
Bi1 Li0 2.830037 1_555
Bi1 Li1 2.936571 1_555
Bi1 Li2 3.293509 1_565
Bi1 Li2 3.293513 1_665
Bi1 Li2 3.293513 1_555
Bi1 Ce0 3.332791 1_566
Bi1 Ce0 3.332795 1_666
Bi1 Ce0 3.332795 1_556
