# generated using pymatgen
data_ZnO
_symmetry_space_group_name_H-M   'P 1'
_cell_length_a   10.44276246
_cell_length_b   9.97683173
_cell_length_c   10.79180353
_cell_angle_alpha   88.82710401
_cell_angle_beta   84.37237070
_cell_angle_gamma   91.33084590
_symmetry_Int_Tables_number   1
_chemical_formula_structural   ZnO
_chemical_formula_sum   'Zn40 O40'
_cell_volume   1118.33807076
_cell_formula_units_Z   40
loop_
 _symmetry_equiv_pos_site_id
 _symmetry_equiv_pos_as_xyz
  1  'x, y, z'
loop_
 _atom_site_type_symbol
 _atom_site_label
 _atom_site_symmetry_multiplicity
 _atom_site_fract_x
 _atom_site_fract_y
 _atom_site_fract_z
 _atom_site_occupancy
  Zn  Zn0  1  0.46937300  0.86705400  0.32765100  1
  Zn  Zn1  1  0.90687100  0.54226100  0.90709900  1
  Zn  Zn2  1  0.55049300  0.44938900  0.30984100  1
  Zn  Zn3  1  0.50816000  0.13057700  0.48290700  1
  Zn  Zn4  1  0.37813300  0.66622800  0.20631400  1
  Zn  Zn5  1  0.01469500  0.50507100  0.62401600  1
  Zn  Zn6  1  0.89225900  0.75873400  0.60670800  1
  Zn  Zn7  1  0.24341700  0.93920800  0.19884700  1
  Zn  Zn8  1  0.05213600  0.04756600  0.51244400  1
  Zn  Zn9  1  0.81896200  0.60214400  0.40716000  1
  Zn  Zn10  1  0.55359300  0.53205500  0.57547200  1
  Zn  Zn11  1  0.66427700  0.65461400  0.05954100  1
  Zn  Zn12  1  0.09926900  0.43154000  0.33118900  1
  Zn  Zn13  1  0.21118500  0.24507900  0.61969600  1
  Zn  Zn14  1  0.99726200  0.15063900  0.27440200  1
  Zn  Zn15  1  0.12607500  0.72489000  0.38569600  1
  Zn  Zn16  1  0.05085900  0.29783000  0.01697900  1
  Zn  Zn17  1  0.36400800  0.23079000  0.98743500  1
  Zn  Zn18  1  0.47851100  0.65510700  0.83404100  1
  Zn  Zn19  1  0.51324400  0.99154500  0.01107900  1
  Zn  Zn20  1  0.39052700  0.98519500  0.74507300  1
  Zn  Zn21  1  0.11585500  0.08954100  0.84753000  1
  Zn  Zn22  1  0.82989900  0.03809900  0.04392200  1
  Zn  Zn23  1  0.60339400  0.81658700  0.58404900  1
  Zn  Zn24  1  0.29439600  0.47731700  0.50727800  1
  Zn  Zn25  1  0.92529700  0.77536900  0.11300000  1
  Zn  Zn26  1  0.75781300  0.05176100  0.57886300  1
  Zn  Zn27  1  0.76332100  0.80910400  0.83622800  1
  Zn  Zn28  1  0.22756300  0.46581200  0.84073200  1
  Zn  Zn29  1  0.91025400  0.24974700  0.76571900  1
  Zn  Zn30  1  0.89113200  0.90895900  0.34410600  1
  Zn  Zn31  1  0.51242300  0.24801700  0.72688000  1
  Zn  Zn32  1  0.52617300  0.19419100  0.17779900  1
  Zn  Zn33  1  0.28876200  0.20316900  0.31562700  1
  Zn  Zn34  1  0.85085300  0.44502000  0.19659700  1
  Zn  Zn35  1  0.15408800  0.59277100  0.08186500  1
  Zn  Zn36  1  0.73109600  0.49878800  0.74336300  1
  Zn  Zn37  1  0.23392000  0.79979200  0.93961600  1
  Zn  Zn38  1  0.79389500  0.30333100  0.48603600  1
  Zn  Zn39  1  0.65411500  0.29446000  0.96593600  1
  O  O0  1  0.64492300  0.20054100  0.58558700  1
  O  O1  1  0.48120100  0.10806700  0.86548500  1
  O  O2  1  0.43088000  0.85591100  0.12010400  1
  O  O3  1  0.88324300  0.12364200  0.44598100  1
  O  O4  1  0.05367000  0.13919000  0.67371700  1
  O  O5  1  0.79807800  0.37234800  0.87386200  1
  O  O6  1  0.29203500  0.80755000  0.33664800  1
  O  O7  1  0.49827200  0.34282700  0.05377200  1
  O  O8  1  0.71225200  0.64815100  0.56277800  1
  O  O9  1  0.22288800  0.94345900  0.83216800  1
  O  O10  1  0.18857800  0.44758400  0.66610700  1
  O  O11  1  0.55085900  0.60709300  0.20191600  1
  O  O12  1  0.20521800  0.32553600  0.43744500  1
  O  O13  1  0.65443800  0.64612500  0.87559000  1
  O  O14  1  0.65648700  0.11264100  0.06130600  1
  O  O15  1  0.21557600  0.26751200  0.90207800  1
  O  O16  1  0.47000200  0.81052900  0.71843500  1
  O  O17  1  0.53764700  0.44489000  0.73399300  1
  O  O18  1  0.45043600  0.55325100  0.44610600  1
  O  O19  1  0.92060400  0.63520100  0.74314600  1
  O  O20  1  0.00348100  0.85510900  0.48065800  1
  O  O21  1  0.48081500  0.25544900  0.34348600  1
  O  O22  1  0.12045600  0.79440900  0.09785000  1
  O  O23  1  0.14804800  0.06593700  0.34213800  1
  O  O24  1  0.21553600  0.56468200  0.23982400  1
  O  O25  1  0.83674700  0.57919300  0.07549100  1
  O  O26  1  0.86522000  0.37893500  0.63090100  1
  O  O27  1  0.00400500  0.33337800  0.20308800  1
  O  O28  1  0.84436700  0.73910400  0.28381200  1
  O  O29  1  0.92248600  0.00798900  0.18807300  1
  O  O30  1  0.01362600  0.56796300  0.44570600  1
  O  O31  1  0.74202800  0.42455200  0.35298600  1
  O  O32  1  0.07118600  0.48932200  0.96236400  1
  O  O33  1  0.37419000  0.15198400  0.62911600  1
  O  O34  1  0.30952000  0.62106000  0.92140500  1
  O  O35  1  0.57145700  0.94418500  0.44359700  1
  O  O36  1  0.76497600  0.89397700  0.67418500  1
  O  O37  1  0.95496700  0.15691600  0.93094400  1
  O  O38  1  0.79974900  0.84703100  0.99993200  1
  O  O39  1  0.33805600  0.11948700  0.15033400  1
loop_
_geom_bond_atom_site_label_1
_geom_bond_atom_site_label_2
_geom_bond_distance
_geom_bond_site_symmetry_2
O0 Zn26 1.915007 1_555
O0 Zn3 2.012603 1_555
O0 Zn31 2.027348 1_555
O0 Zn38 2.044265 1_555
O1 Zn19 1.994634 1_546
O1 Zn31 2.022611 1_555
O1 Zn20 2.083406 1_545
O1 Zn17 2.132735 1_555
O2 Zn19 1.907234 1_555
O2 Zn4 2.128211 1_555
O2 Zn7 2.241269 1_555
O2 Zn0 2.318485 1_555
O3 Zn26 1.957626 1_555
O3 Zn38 2.074032 1_555
O3 Zn14 2.109771 1_555
O3 Zn8 2.118774 1_655
O3 Zn30 2.426908 1_545
O4 Zn13 1.966619 1_555
O4 Zn8 1.983651 1_555
O4 Zn29 2.067687 1_455
O4 Zn21 2.097933 1_555
O5 Zn39 1.863451 1_555
O5 Zn29 2.021702 1_555
O5 Zn36 2.055577 1_555
O5 Zn1 2.075672 1_555
O6 Zn15 1.923454 1_555
O6 Zn0 1.924239 1_555
O6 Zn7 2.072135 1_555
O6 Zn4 2.160262 1_555
O7 Zn39 1.879513 1_554
O7 Zn17 1.970938 1_554
O7 Zn32 2.022560 1_555
O8 Zn9 1.990255 1_555
O8 Zn10 1.991310 1_555
O8 Zn23 2.054810 1_555
O8 Zn6 2.252854 1_555
O8 Zn36 2.455044 1_555
O9 Zn37 1.837972 1_555
O9 Zn21 1.857450 1_565
O9 Zn20 1.936201 1_555
O10 Zn24 1.959475 1_555
O10 Zn28 1.977696 1_555
O10 Zn5 2.007973 1_555
O10 Zn13 2.104479 1_555
O11 Zn11 1.890910 1_555
O11 Zn4 1.907245 1_555
O11 Zn2 1.938020 1_555
O12 Zn24 1.961415 1_555
O12 Zn33 1.967251 1_555
O12 Zn12 1.977636 1_555
O12 Zn13 2.116203 1_555
O13 Zn18 1.936961 1_555
O13 Zn27 1.976952 1_555
O13 Zn11 2.001271 1_556
O13 Zn36 2.180445 1_555
O14 Zn32 1.962674 1_555
O14 Zn22 1.967047 1_555
O14 Zn19 2.023092 1_545
O14 Zn39 2.069074 1_554
O15 Zn17 1.917805 1_555
O15 Zn16 2.051589 1_556
O15 Zn28 2.070427 1_555
O15 Zn21 2.158891 1_555
O16 Zn23 1.908825 1_555
O16 Zn20 1.961896 1_555
O16 Zn18 1.979333 1_555
O17 Zn10 1.893957 1_555
O17 Zn31 1.979732 1_555
O17 Zn36 2.090977 1_555
O17 Zn18 2.442923 1_555
O18 Zn24 1.837437 1_555
O18 Zn10 1.856799 1_555
O18 Zn2 2.034532 1_555
O19 Zn6 1.950057 1_555
O19 Zn1 1.971761 1_555
O19 Zn5 2.045401 1_655
O19 Zn36 2.375392 1_555
O19 Zn27 2.568488 1_555
O20 Zn6 1.925788 1_455
O20 Zn8 2.019525 1_565
O20 Zn30 2.042717 1_455
O20 Zn15 2.061917 1_555
O21 Zn32 1.920187 1_555
O21 Zn3 1.980281 1_555
O21 Zn2 2.063776 1_555
O21 Zn33 2.112065 1_555
O22 Zn37 1.979718 1_554
O22 Zn25 2.032646 1_455
O22 Zn35 2.057966 1_555
O22 Zn7 2.275195 1_555
O23 Zn33 1.980838 1_555
O23 Zn14 1.997543 1_455
O23 Zn8 2.007816 1_555
O23 Zn7 2.195036 1_545
O24 Zn35 1.897235 1_555
O24 Zn4 1.955737 1_555
O24 Zn12 1.961502 1_555
O24 Zn15 2.406171 1_555
O25 Zn34 1.870033 1_555
O25 Zn1 1.937362 1_554
O25 Zn11 1.989500 1_555
O25 Zn25 2.207126 1_555
O26 Zn38 1.954061 1_555
O26 Zn5 1.976834 1_655
O26 Zn29 2.021087 1_555
O26 Zn36 2.160644 1_555
O27 Zn14 1.961407 1_455
O27 Zn34 1.976085 1_455
O27 Zn12 2.034656 1_555
O27 Zn16 2.059987 1_555
O28 Zn9 1.883851 1_555
O28 Zn30 1.898056 1_555
O28 Zn25 1.973858 1_555
O29 Zn14 1.910116 1_555
O29 Zn30 1.930683 1_545
O29 Zn22 1.932476 1_555
O29 Zn25 2.473637 1_545
O30 Zn15 1.993361 1_555
O30 Zn5 2.012914 1_555
O30 Zn12 2.021958 1_555
O30 Zn9 2.148016 1_455
O31 Zn34 1.944357 1_555
O31 Zn38 1.982309 1_555
O31 Zn9 2.048159 1_555
O31 Zn2 2.116546 1_555
O32 Zn35 1.926084 1_556
O32 Zn1 1.951639 1_455
O32 Zn16 1.988195 1_556
O32 Zn28 2.013633 1_555
O33 Zn13 1.968265 1_555
O33 Zn3 2.021692 1_555
O33 Zn20 2.081793 1_545
O33 Zn31 2.095406 1_555
O34 Zn18 1.936825 1_555
O34 Zn37 1.972544 1_555
O34 Zn28 2.007300 1_555
O34 Zn35 2.262812 1_556
O35 Zn0 1.886053 1_555
O35 Zn23 2.017208 1_555
O35 Zn3 2.027165 1_565
O36 Zn26 1.869795 1_565
O36 Zn27 1.925658 1_555
O36 Zn6 2.012787 1_555
O36 Zn23 2.163720 1_555
O37 Zn21 1.966105 1_655
O37 Zn16 2.002922 1_656
O37 Zn22 2.038170 1_556
O37 Zn29 2.090674 1_555
O38 Zn27 1.887186 1_555
O38 Zn22 1.999196 1_566
O38 Zn25 2.010114 1_556
O38 Zn11 2.396936 1_556
O39 Zn33 2.011176 1_555
O39 Zn17 2.051751 1_554
O39 Zn7 2.064759 1_545
O39 Zn32 2.134871 1_555
