# generated using pymatgen
data_Zn(SbO2)2
_symmetry_space_group_name_H-M   'P 1'
_cell_length_a   6.52563000
_cell_length_b   6.96467358
_cell_length_c   17.42911824
_cell_angle_alpha   92.77512557
_cell_angle_beta   89.93428895
_cell_angle_gamma   117.75358683
_symmetry_Int_Tables_number   1
_chemical_formula_structural   Zn(SbO2)2
_chemical_formula_sum   'Zn6 Sb12 O24'
_cell_volume   699.97834691
_cell_formula_units_Z   6
loop_
 _symmetry_equiv_pos_site_id
 _symmetry_equiv_pos_as_xyz
  1  'x, y, z'
loop_
 _atom_site_type_symbol
 _atom_site_label
 _atom_site_symmetry_multiplicity
 _atom_site_fract_x
 _atom_site_fract_y
 _atom_site_fract_z
 _atom_site_occupancy
  Zn  Zn0  1  0.81566000  0.64979200  0.04368900  1
  Zn  Zn1  1  0.46878700  0.96311500  0.40860900  1
  Zn  Zn2  1  0.21881500  0.41905200  0.33058600  1
  Zn  Zn3  1  0.18778500  0.35814400  0.73950600  1
  Zn  Zn4  1  0.49152600  0.97790400  0.99562000  1
  Zn  Zn5  1  0.48072700  0.95235600  0.62783200  1
  Sb  Sb0  1  0.32838800  0.66354100  0.12048600  1
  Sb  Sb1  1  0.39145100  0.22170300  0.17538000  1
  Sb  Sb2  1  0.94549000  0.95240600  0.45858200  1
  Sb  Sb3  1  0.87717800  0.20380800  0.19459800  1
  Sb  Sb4  1  0.03446600  0.51366100  0.49552000  1
  Sb  Sb5  1  0.89169900  0.77191000  0.65761400  1
  Sb  Sb6  1  0.83681400  0.68310500  0.25904300  1
  Sb  Sb7  1  0.66412000  0.32282600  0.86748200  1
  Sb  Sb8  1  0.48958300  0.39251900  0.51284600  1
  Sb  Sb9  1  0.64984700  0.81361500  0.82129900  1
  Sb  Sb10  1  0.16613600  0.80904600  0.82036000  1
  Sb  Sb11  1  0.17214000  0.33593900  0.94112000  1
  O  O0  1  0.69211100  0.42302600  0.12501600  1
  O  O1  1  0.53906200  0.05579600  0.22607800  1
  O  O2  1  0.61979200  0.81756500  0.06257500  1
  O  O3  1  0.18176500  0.80817300  0.06204700  1
  O  O4  1  0.29962100  0.64367200  0.41769900  1
  O  O5  1  0.49653200  0.45185200  0.26762900  1
  O  O6  1  0.17261300  0.34718800  0.54559600  1
  O  O7  1  0.97192500  0.47424800  0.26808800  1
  O  O8  1  0.20464500  0.38879500  0.05235500  1
  O  O9  1  0.29958300  0.13144600  0.42887900  1
  O  O10  1  0.79889900  0.12716500  0.42213100  1
  O  O11  1  0.03576200  0.12835800  0.27810500  1
  O  O12  1  0.04758200  0.07300300  0.69833800  1
  O  O13  1  0.14735700  0.76483000  0.58348900  1
  O  O14  1  0.64680400  0.78447600  0.59490600  1
  O  O15  1  0.79504900  0.60817500  0.92687900  1
  O  O16  1  0.85583100  0.72524700  0.37281900  1
  O  O17  1  0.01434000  0.49258100  0.79037900  1
  O  O18  1  0.49815100  0.50194400  0.78619000  1
  O  O19  1  0.55982200  0.23656000  0.59018200  1
  O  O20  1  0.81080000  0.18345800  0.94561700  1
  O  O21  1  0.37036800  0.17194500  0.94410500  1
  O  O22  1  0.43877900  0.87767300  0.74577800  1
  O  O23  1  0.39219500  0.77838800  0.89494600  1
loop_
_geom_bond_atom_site_label_1
_geom_bond_atom_site_label_2
_geom_bond_distance
_geom_bond_site_symmetry_2
O0 Sb1 2.034475 1_555
O0 Zn0 2.044946 1_555
O1 Sb3 2.040992 1_555
O1 Sb1 2.044805 1_555
O2 Sb0 1.996541 1_555
O2 Zn4 2.075669 1_554
O2 Zn0 2.111910 1_555
O3 Sb0 1.991683 1_555
O3 Zn0 2.130724 1_455
O3 Zn4 2.173828 1_554
O4 Zn1 1.984915 1_555
O4 Zn2 2.008535 1_555
O4 Sb4 2.075547 1_555
O5 Zn2 2.043211 1_555
O5 Sb6 2.058883 1_555
O5 Sb1 2.086603 1_555
O6 Sb4 1.997991 1_555
O6 Sb8 2.027421 1_555
O7 Sb6 2.033500 1_555
O7 Sb3 2.062565 1_555
O7 Zn2 2.133402 1_655
O8 Sb11 1.948919 1_554
O8 Sb0 2.016624 1_555
O9 Zn1 1.970545 1_545
O9 Sb2 2.130360 1_445
O9 Sb8 2.152216 1_555
O10 Zn1 1.919455 1_545
O10 Sb2 1.990168 1_545
O10 Sb4 2.657507 1_655
O11 Zn2 1.983265 1_555
O11 Sb3 2.012311 1_455
O12 Zn3 1.862014 1_555
O12 Sb5 1.951119 1_445
O13 Zn5 2.072586 1_555
O13 Sb4 2.120432 1_555
O13 Sb5 2.126112 1_455
O14 Sb5 1.974746 1_555
O14 Zn5 1.996174 1_555
O15 Sb7 1.993167 1_555
O15 Zn0 2.038174 1_556
O16 Sb6 1.985996 1_555
O16 Sb2 1.997645 1_555
O17 Zn3 1.961687 1_555
O17 Sb10 1.992111 1_555
O17 Sb7 2.461118 1_455
O18 Zn3 1.950075 1_555
O18 Sb9 1.984381 1_555
O18 Sb7 2.483893 1_555
O19 Zn5 1.946402 1_545
O19 Sb8 1.952851 1_555
O20 Sb11 2.090317 1_655
O20 Zn4 2.118631 1_545
O20 Sb7 2.170071 1_555
O21 Sb11 2.088655 1_555
O21 Zn4 2.090902 1_545
O21 Sb7 2.194600 1_555
O22 Sb10 2.084823 1_555
O22 Sb9 2.112349 1_555
O22 Zn5 2.130963 1_555
O23 Sb9 2.043550 1_555
O23 Sb10 2.058225 1_555
O23 Zn4 2.087467 1_555
