# generated using pymatgen
data_Ba3NaMn4Si6O22F
_symmetry_space_group_name_H-M   'P 1'
_cell_length_a   7.08968848
_cell_length_b   12.86541407
_cell_length_c   23.10742434
_cell_angle_alpha   90.00000000
_cell_angle_beta   90.00000000
_cell_angle_gamma   90.00000000
_symmetry_Int_Tables_number   1
_chemical_formula_structural   Ba3NaMn4Si6O22F
_chemical_formula_sum   'Ba12 Na4 Mn16 Si24 O88 F4'
_cell_volume   2107.66925726
_cell_formula_units_Z   4
loop_
 _symmetry_equiv_pos_site_id
 _symmetry_equiv_pos_as_xyz
  1  'x, y, z'
loop_
 _atom_site_type_symbol
 _atom_site_label
 _atom_site_symmetry_multiplicity
 _atom_site_fract_x
 _atom_site_fract_y
 _atom_site_fract_z
 _atom_site_occupancy
  Ba  Ba0  1  0.51575299  0.75000000  0.49616883  1
  Ba  Ba1  1  0.98424701  0.75000000  0.99616883  1
  Ba  Ba2  1  0.48424701  0.25000000  0.50383117  1
  Ba  Ba3  1  0.01575299  0.25000000  0.00383117  1
  Ba  Ba4  1  0.01790509  0.99040440  0.29862575  1
  Ba  Ba5  1  0.48209491  0.50959560  0.79862575  1
  Ba  Ba6  1  0.98209491  0.49040440  0.70137425  1
  Ba  Ba7  1  0.51790509  0.00959560  0.20137425  1
  Ba  Ba8  1  0.98209491  0.00959560  0.70137425  1
  Ba  Ba9  1  0.51790509  0.49040440  0.20137425  1
  Ba  Ba10  1  0.01790509  0.50959560  0.29862575  1
  Ba  Ba11  1  0.48209491  0.99040440  0.79862575  1
  Na  Na0  1  0.38535846  0.75000000  0.09395389  1
  Na  Na1  1  0.11464154  0.75000000  0.59395389  1
  Na  Na2  1  0.61464154  0.25000000  0.90604611  1
  Na  Na3  1  0.88535846  0.25000000  0.40604611  1
  Mn  Mn0  1  0.50559651  0.88396019  0.34157745  1
  Mn  Mn1  1  0.99440349  0.61603981  0.84157745  1
  Mn  Mn2  1  0.49440349  0.38396019  0.65842255  1
  Mn  Mn3  1  0.00559651  0.11603981  0.15842255  1
  Mn  Mn4  1  0.49440349  0.11603981  0.65842255  1
  Mn  Mn5  1  0.00559651  0.38396019  0.15842255  1
  Mn  Mn6  1  0.50559651  0.61603981  0.34157745  1
  Mn  Mn7  1  0.99440349  0.88396019  0.84157745  1
  Mn  Mn8  1  0.00715484  0.87849815  0.15332948  1
  Mn  Mn9  1  0.49284516  0.62150185  0.65332948  1
  Mn  Mn10  1  0.99284516  0.37849815  0.84667052  1
  Mn  Mn11  1  0.50715484  0.12150185  0.34667052  1
  Mn  Mn12  1  0.99284516  0.12150185  0.84667052  1
  Mn  Mn13  1  0.50715484  0.37849815  0.34667052  1
  Mn  Mn14  1  0.00715484  0.62150185  0.15332948  1
  Mn  Mn15  1  0.49284516  0.87849815  0.65332948  1
  Si  Si0  1  0.74897169  0.99137408  0.43853805  1
  Si  Si1  1  0.75102831  0.50862592  0.93853805  1
  Si  Si2  1  0.25102831  0.49137408  0.56146195  1
  Si  Si3  1  0.24897169  0.00862592  0.06146195  1
  Si  Si4  1  0.25102831  0.00862592  0.56146195  1
  Si  Si5  1  0.24897169  0.49137408  0.06146195  1
  Si  Si6  1  0.74897169  0.50862592  0.43853805  1
  Si  Si7  1  0.75102831  0.99137408  0.93853805  1
  Si  Si8  1  0.73166071  0.75000000  0.24046326  1
  Si  Si9  1  0.76833929  0.75000000  0.74046326  1
  Si  Si10  1  0.26833929  0.25000000  0.75953674  1
  Si  Si11  1  0.23166071  0.25000000  0.25953674  1
  Si  Si12  1  0.33211477  0.75000000  0.23818195  1
  Si  Si13  1  0.16788523  0.75000000  0.73818195  1
  Si  Si14  1  0.66788523  0.25000000  0.76181805  1
  Si  Si15  1  0.83211477  0.25000000  0.26181805  1
  Si  Si16  1  0.19395431  0.96612545  0.43712216  1
  Si  Si17  1  0.30604569  0.53387455  0.93712216  1
  Si  Si18  1  0.80604569  0.46612545  0.56287784  1
  Si  Si19  1  0.69395431  0.03387455  0.06287784  1
  Si  Si20  1  0.80604569  0.03387455  0.56287784  1
  Si  Si21  1  0.69395431  0.46612545  0.06287784  1
  Si  Si22  1  0.19395431  0.53387455  0.43712216  1
  Si  Si23  1  0.30604569  0.96612545  0.93712216  1
  O  O0  1  0.53439331  0.75000000  0.19992961  1
  O  O1  1  0.96560669  0.75000000  0.69992961  1
  O  O2  1  0.46560669  0.25000000  0.80007039  1
  O  O3  1  0.03439331  0.25000000  0.30007039  1
  O  O4  1  0.17815791  0.75000000  0.18649400  1
  O  O5  1  0.32184209  0.75000000  0.68649400  1
  O  O6  1  0.82184209  0.25000000  0.81350600  1
  O  O7  1  0.67815791  0.25000000  0.31350600  1
  O  O8  1  0.47392338  0.99637982  0.08040081  1
  O  O9  1  0.02607662  0.50362018  0.58040081  1
  O  O10  1  0.52607662  0.49637982  0.91959919  1
  O  O11  1  0.97392338  0.00362018  0.41959919  1
  O  O12  1  0.52607662  0.00362018  0.91959919  1
  O  O13  1  0.97392338  0.49637982  0.41959919  1
  O  O14  1  0.47392338  0.50362018  0.08040081  1
  O  O15  1  0.02607662  0.99637982  0.58040081  1
  O  O16  1  0.65318503  0.75000000  0.30915477  1
  O  O17  1  0.84681497  0.75000000  0.80915477  1
  O  O18  1  0.34681497  0.25000000  0.69084523  1
  O  O19  1  0.15318503  0.25000000  0.19084523  1
  O  O20  1  0.31001153  0.99418459  0.37684171  1
  O  O21  1  0.18998847  0.50581541  0.87684171  1
  O  O22  1  0.68998847  0.49418459  0.62315829  1
  O  O23  1  0.81001153  0.00581541  0.12315829  1
  O  O24  1  0.68998847  0.00581541  0.62315829  1
  O  O25  1  0.81001153  0.49418459  0.12315829  1
  O  O26  1  0.31001153  0.50581541  0.37684171  1
  O  O27  1  0.18998847  0.99418459  0.87684171  1
  O  O28  1  0.63109648  0.01023546  0.31020460  1
  O  O29  1  0.86890352  0.48976454  0.81020460  1
  O  O30  1  0.36890352  0.51023546  0.68979540  1
  O  O31  1  0.13109648  0.98976454  0.18979540  1
  O  O32  1  0.36890352  0.98976454  0.68979540  1
  O  O33  1  0.13109648  0.51023546  0.18979540  1
  O  O34  1  0.63109648  0.48976454  0.31020460  1
  O  O35  1  0.86890352  0.01023546  0.81020460  1
  O  O36  1  0.76380495  0.95880606  0.00789257  1
  O  O37  1  0.73619505  0.54119394  0.50789257  1
  O  O38  1  0.23619505  0.45880606  0.99210743  1
  O  O39  1  0.26380495  0.04119394  0.49210743  1
  O  O40  1  0.23619505  0.04119394  0.99210743  1
  O  O41  1  0.26380495  0.45880606  0.49210743  1
  O  O42  1  0.76380495  0.54119394  0.00789257  1
  O  O43  1  0.73619505  0.95880606  0.50789257  1
  O  O44  1  0.21770196  0.84835211  0.45517790  1
  O  O45  1  0.28229804  0.65164789  0.95517790  1
  O  O46  1  0.78229804  0.34835211  0.54482210  1
  O  O47  1  0.71770196  0.15164789  0.04482210  1
  O  O48  1  0.78229804  0.15164789  0.54482210  1
  O  O49  1  0.71770196  0.34835211  0.04482210  1
  O  O50  1  0.21770196  0.65164789  0.45517790  1
  O  O51  1  0.28229804  0.84835211  0.95517790  1
  O  O52  1  0.84176696  0.85775627  0.22488418  1
  O  O53  1  0.65823304  0.64224373  0.72488418  1
  O  O54  1  0.15823304  0.35775627  0.77511582  1
  O  O55  1  0.34176696  0.14224373  0.27511582  1
  O  O56  1  0.15823304  0.14224373  0.77511582  1
  O  O57  1  0.34176696  0.35775627  0.27511582  1
  O  O58  1  0.84176696  0.64224373  0.22488418  1
  O  O59  1  0.65823304  0.85775627  0.72488418  1
  O  O60  1  0.32867163  0.85651854  0.27836843  1
  O  O61  1  0.17132837  0.64348146  0.77836843  1
  O  O62  1  0.67132837  0.35651854  0.72163157  1
  O  O63  1  0.82867163  0.14348146  0.22163157  1
  O  O64  1  0.67132837  0.14348146  0.72163157  1
  O  O65  1  0.82867163  0.35651854  0.22163157  1
  O  O66  1  0.32867163  0.64348146  0.27836843  1
  O  O67  1  0.17132837  0.85651854  0.77836843  1
  O  O68  1  0.65323946  0.88806473  0.40840577  1
  O  O69  1  0.84676054  0.61193527  0.90840577  1
  O  O70  1  0.34676054  0.38806473  0.59159423  1
  O  O71  1  0.15323946  0.11193527  0.09159423  1
  O  O72  1  0.34676054  0.11193527  0.59159423  1
  O  O73  1  0.15323946  0.38806473  0.09159423  1
  O  O74  1  0.65323946  0.61193527  0.40840577  1
  O  O75  1  0.84676054  0.88806473  0.90840577  1
  O  O76  1  0.15217869  0.89773177  0.08106444  1
  O  O77  1  0.34782131  0.60226823  0.58106444  1
  O  O78  1  0.84782131  0.39773177  0.91893556  1
  O  O79  1  0.65217869  0.10226823  0.41893556  1
  O  O80  1  0.84782131  0.10226823  0.91893556  1
  O  O81  1  0.65217869  0.39773177  0.41893556  1
  O  O82  1  0.15217869  0.60226823  0.08106444  1
  O  O83  1  0.34782131  0.89773177  0.58106444  1
  O  O84  1  0.53052576  0.75000000  0.00288708  1
  O  O85  1  0.96947424  0.75000000  0.50288708  1
  O  O86  1  0.46947424  0.25000000  0.99711292  1
  O  O87  1  0.03052576  0.25000000  0.49711292  1
  F  F0  1  0.88431208  0.75000000  0.11585743  1
  F  F1  1  0.61568792  0.75000000  0.61585743  1
  F  F2  1  0.11568792  0.25000000  0.88414257  1
  F  F3  1  0.38431208  0.25000000  0.38414257  1
loop_
_geom_bond_atom_site_label_1
_geom_bond_atom_site_label_2
_geom_bond_distance
_geom_bond_site_symmetry_2
Ba0 O50 2.638827 1_555
Ba0 O44 2.638827 1_555
Ba0 F1 2.855005 1_555
Ba0 O74 2.866689 1_555
Ba0 O68 2.866689 1_555
Ba0 O83 2.979635 1_555
Ba0 O77 2.979635 1_555
Ba0 O37 3.119705 1_555
Ba0 O43 3.119705 1_555
Ba0 O85 3.220486 1_555
Ba1 O51 2.638827 1_655
Ba1 O45 2.638827 1_655
Ba1 F0 2.855005 1_556
Ba1 O75 2.866689 1_555
Ba1 O69 2.866689 1_555
Ba1 O76 2.979635 1_656
Ba1 O82 2.979635 1_656
Ba1 O42 3.119705 1_556
Ba1 O36 3.119705 1_556
Ba1 O84 3.220486 1_556
Ba2 O48 2.638827 1_555
Ba2 O46 2.638827 1_555
Ba2 F3 2.855005 1_555
Ba2 O70 2.866689 1_555
Ba2 O72 2.866689 1_555
Ba2 O81 2.979635 1_555
Ba2 O79 2.979635 1_555
Ba2 O39 3.119705 1_555
Ba2 O41 3.119705 1_555
Ba2 O87 3.220486 1_555
Ba3 O49 2.638827 1_455
Ba3 O47 2.638827 1_455
Ba3 F2 2.855005 1_554
Ba3 O71 2.866689 1_555
Ba3 O73 2.866689 1_555
Ba3 O78 2.979635 1_454
Ba3 O80 2.979635 1_454
Ba3 O38 3.119705 1_554
Ba3 O40 3.119705 1_554
Ba3 O86 3.220486 1_554
Ba4 O31 2.639740 1_555
Ba4 O52 2.715759 1_455
Ba4 O20 2.749137 1_555
Ba4 O28 2.767161 1_465
Ba4 O11 2.817856 1_465
Ba4 O60 2.835554 1_555
Ba4 O63 2.973848 1_465
Ba4 O55 3.063197 1_565
Ba4 O3 3.342017 1_565
Ba5 O30 2.639740 1_555
Ba5 O53 2.715759 1_555
Ba5 O21 2.749137 1_555
Ba5 O29 2.767161 1_555
Ba5 O10 2.817856 1_555
Ba5 O61 2.835554 1_555
Ba5 O62 2.973848 1_555
Ba5 O54 3.063197 1_555
Ba5 O2 3.342017 1_555
Ba6 O29 2.639740 1_555
Ba6 O54 2.715759 1_655
Ba6 O22 2.749137 1_555
Ba6 O30 2.767161 1_655
Ba6 O9 2.817856 1_655
Ba6 O62 2.835554 1_555
Ba6 O61 2.973848 1_655
Ba6 O53 3.063197 1_555
Ba6 O1 3.342017 1_555
Ba7 O28 2.639740 1_555
Ba7 O55 2.715759 1_555
Ba7 O23 2.749137 1_555
Ba7 O31 2.767161 1_545
Ba7 O8 2.817856 1_545
Ba7 O63 2.835554 1_555
Ba7 O60 2.973848 1_545
Ba7 O52 3.063197 1_545
Ba7 O0 3.342017 1_545
Ba8 O35 2.639740 1_555
Ba8 O56 2.715759 1_655
Ba8 O24 2.749137 1_555
Ba8 O32 2.767161 1_645
Ba8 O15 2.817856 1_645
Ba8 O64 2.835554 1_555
Ba8 O67 2.973848 1_645
Ba8 O59 3.063197 1_545
Ba8 O1 3.342017 1_545
Ba9 O34 2.639740 1_555
Ba9 O57 2.715759 1_555
Ba9 O25 2.749137 1_555
Ba9 O33 2.767161 1_555
Ba9 O14 2.817856 1_555
Ba9 O65 2.835554 1_555
Ba9 O66 2.973848 1_555
Ba9 O58 3.063197 1_555
Ba9 O0 3.342017 1_555
Ba10 O33 2.639740 1_555
Ba10 O58 2.715759 1_455
Ba10 O26 2.749137 1_555
Ba10 O34 2.767161 1_455
Ba10 O13 2.817856 1_455
Ba10 O66 2.835554 1_555
Ba10 O65 2.973848 1_455
Ba10 O57 3.063197 1_555
Ba10 O3 3.342017 1_555
Ba11 O32 2.639740 1_555
Ba11 O59 2.715759 1_555
Ba11 O27 2.749137 1_555
Ba11 O35 2.767161 1_565
Ba11 O12 2.817856 1_565
Ba11 O67 2.835554 1_555
Ba11 O64 2.973848 1_565
Ba11 O56 3.063197 1_565
Ba11 O2 3.342017 1_565
Na0 O84 2.342519 1_555
Na0 O82 2.536549 1_555
Na0 O76 2.536549 1_555
Na0 O4 2.594325 1_555
Na0 O0 2.667054 1_555
Na1 O85 2.342519 1_455
Na1 O83 2.536549 1_555
Na1 O77 2.536549 1_555
Na1 O5 2.594325 1_555
Na1 O1 2.667054 1_455
Na2 O86 2.342519 1_555
Na2 O78 2.536549 1_555
Na2 O80 2.536549 1_555
Na2 O6 2.594325 1_555
Na2 O2 2.667054 1_555
Na3 O87 2.342519 1_655
Na3 O81 2.536549 1_555
Na3 O79 2.536549 1_555
Na3 O7 2.594325 1_555
Na3 O3 2.667054 1_655
Mn0 O68 1.866308 1_555
Mn0 O60 1.957387 1_555
Mn0 O28 1.989091 1_565
Mn0 O20 2.144231 1_555
Mn0 O16 2.150921 1_555
Mn1 O69 1.866308 1_555
Mn1 O61 1.957387 1_655
Mn1 O29 1.989091 1_555
Mn1 O21 2.144231 1_655
Mn1 O17 2.150921 1_555
Mn2 O70 1.866308 1_555
Mn2 O62 1.957387 1_555
Mn2 O30 1.989091 1_555
Mn2 O22 2.144231 1_555
Mn2 O18 2.150921 1_555
Mn3 O71 1.866308 1_555
Mn3 O63 1.957387 1_455
Mn3 O31 1.989091 1_545
Mn3 O23 2.144231 1_455
Mn3 O19 2.150921 1_555
Mn4 O72 1.866308 1_555
Mn4 O64 1.957387 1_555
Mn4 O32 1.989091 1_545
Mn4 O24 2.144231 1_555
Mn4 O18 2.150921 1_555
Mn5 O73 1.866308 1_555
Mn5 O65 1.957387 1_455
Mn5 O33 1.989091 1_555
Mn5 O25 2.144231 1_455
Mn5 O19 2.150921 1_555
Mn6 O74 1.866308 1_555
Mn6 O66 1.957387 1_555
Mn6 O34 1.989091 1_555
Mn6 O26 2.144231 1_555
Mn6 O16 2.150921 1_555
Mn7 O75 1.866308 1_555
Mn7 O67 1.957387 1_655
Mn7 O35 1.989091 1_565
Mn7 O27 2.144231 1_655
Mn7 O17 2.150921 1_555
Mn8 O31 1.879180 1_555
Mn8 O76 1.976563 1_555
Mn8 O52 2.044495 1_455
Mn8 O4 2.188632 1_555
Mn8 O23 2.263314 1_465
Mn9 O30 1.879180 1_555
Mn9 O77 1.976563 1_555
Mn9 O53 2.044495 1_555
Mn9 O5 2.188632 1_555
Mn9 O22 2.263314 1_555
Mn10 O29 1.879180 1_555
Mn10 O78 1.976563 1_555
Mn10 O54 2.044495 1_655
Mn10 O6 2.188632 1_555
Mn10 O21 2.263314 1_655
Mn11 O28 1.879180 1_555
Mn11 O79 1.976563 1_555
Mn11 O55 2.044495 1_555
Mn11 O7 2.188632 1_555
Mn11 O20 2.263314 1_545
Mn12 O35 1.879180 1_555
Mn12 O80 1.976563 1_555
Mn12 O56 2.044495 1_655
Mn12 O6 2.188632 1_555
Mn12 O27 2.263314 1_645
Mn13 O34 1.879180 1_555
Mn13 O81 1.976563 1_555
Mn13 O57 2.044495 1_555
Mn13 O7 2.188632 1_555
Mn13 O26 2.263314 1_555
Mn14 O33 1.879180 1_555
Mn14 O82 1.976563 1_555
Mn14 O58 2.044495 1_455
Mn14 O4 2.188632 1_555
Mn14 O25 2.263314 1_455
Mn15 O32 1.879180 1_555
Mn15 O83 1.976563 1_555
Mn15 O59 2.044495 1_555
Mn15 O5 2.188632 1_555
Mn15 O24 2.263314 1_565
O0 Si8 1.683228 1_555
O0 Si12 1.684613 1_555
O1 Si9 1.683228 1_555
O1 Si13 1.684613 1_655
O2 Si10 1.683228 1_555
O2 Si14 1.684613 1_555
O3 Si11 1.683228 1_555
O3 Si15 1.684613 1_455
O4 Si12 1.617998 1_555
O5 Si13 1.617998 1_555
O6 Si14 1.617998 1_555
O7 Si15 1.617998 1_555
O8 Si3 1.661279 1_565
O8 Si19 1.682288 1_565
O9 Si2 1.661279 1_555
O9 Si18 1.682288 1_455
O10 Si1 1.661279 1_555
O10 Si17 1.682288 1_555
O11 Si0 1.661279 1_545
O11 Si16 1.682288 1_645
O12 Si7 1.661279 1_545
O12 Si23 1.682288 1_545
O13 Si6 1.661279 1_555
O13 Si22 1.682288 1_655
O14 Si5 1.661279 1_555
O14 Si21 1.682288 1_555
O15 Si4 1.661279 1_565
O15 Si20 1.682288 1_465
O16 Si8 1.681968 1_555
O17 Si9 1.681968 1_555
O18 Si10 1.681968 1_555
O19 Si11 1.681968 1_555
O20 Si16 1.657581 1_555
O21 Si17 1.657581 1_555
O22 Si18 1.657581 1_555
O23 Si19 1.657581 1_555
O24 Si20 1.657581 1_555
O25 Si21 1.657581 1_555
O26 Si22 1.657581 1_555
O27 Si23 1.657581 1_555
O36 Si7 1.658948 1_554
O36 Si19 1.671027 1_565
O37 Si6 1.658948 1_555
O37 Si18 1.671027 1_555
O38 Si5 1.658948 1_556
O38 Si17 1.671027 1_555
O39 Si4 1.658948 1_555
O39 Si16 1.671027 1_545
O40 Si3 1.658948 1_556
O40 Si23 1.671027 1_545
O41 Si2 1.658948 1_555
O41 Si22 1.671027 1_555
O42 Si1 1.658948 1_554
O42 Si21 1.671027 1_555
O43 Si0 1.658948 1_555
O43 Si20 1.671027 1_565
O44 Si16 1.580588 1_555
O45 Si17 1.580588 1_555
O46 Si18 1.580588 1_555
O47 Si19 1.580588 1_555
O48 Si20 1.580588 1_555
O49 Si21 1.580588 1_555
O50 Si22 1.580588 1_555
O51 Si23 1.580588 1_555
O52 Si8 1.631217 1_555
O53 Si9 1.631217 1_555
O54 Si10 1.631217 1_555
O55 Si11 1.631217 1_555
O56 Si10 1.631217 1_555
O57 Si11 1.631217 1_555
O58 Si8 1.631217 1_555
O59 Si9 1.631217 1_555
O60 Si12 1.655571 1_555
O61 Si13 1.655571 1_555
O62 Si14 1.655571 1_555
O63 Si15 1.655571 1_555
O64 Si14 1.655571 1_555
O65 Si15 1.655571 1_555
O66 Si12 1.655571 1_555
O67 Si13 1.655571 1_555
O68 Si0 1.646818 1_555
O69 Si1 1.646818 1_555
O70 Si2 1.646818 1_555
O71 Si3 1.646818 1_555
O72 Si4 1.646818 1_555
O73 Si5 1.646818 1_555
O74 Si6 1.646818 1_555
O75 Si7 1.646818 1_555
O76 Si3 1.646682 1_565
O77 Si2 1.646682 1_555
O78 Si1 1.646682 1_555
O79 Si0 1.646682 1_545
O80 Si7 1.646682 1_545
O81 Si6 1.646682 1_555
O82 Si5 1.646682 1_555
O83 Si4 1.646682 1_565
F0 Mn14 2.059432 1_655
F0 Mn8 2.059432 1_655
F1 Mn9 2.059432 1_555
F1 Mn15 2.059432 1_555
F2 Mn12 2.059432 1_455
F2 Mn10 2.059432 1_455
F3 Mn11 2.059432 1_555
F3 Mn13 2.059432 1_555
