# generated using pymatgen
data_H2CO2
_symmetry_space_group_name_H-M   'P 1'
_cell_length_a   3.49243900
_cell_length_b   7.42051000
_cell_length_c   9.05634600
_cell_angle_alpha   90.00000000
_cell_angle_beta   90.00000000
_cell_angle_gamma   90.00000000
_symmetry_Int_Tables_number   1
_chemical_formula_structural   H2CO2
_chemical_formula_sum   'H8 C4 O8'
_cell_volume   234.70135154
_cell_formula_units_Z   4
loop_
 _symmetry_equiv_pos_site_id
 _symmetry_equiv_pos_as_xyz
  1  'x, y, z'
loop_
 _atom_site_type_symbol
 _atom_site_label
 _atom_site_symmetry_multiplicity
 _atom_site_fract_x
 _atom_site_fract_y
 _atom_site_fract_z
 _atom_site_occupancy
  H  H0  1  0.57412900  0.82281300  0.41975100  1
  H  H1  1  0.42587100  0.32281300  0.58024900  1
  H  H2  1  0.07412900  0.32281300  0.08024900  1
  H  H3  1  0.92587100  0.82281300  0.91975100  1
  H  H4  1  0.26875300  0.11895400  0.75241800  1
  H  H5  1  0.73124700  0.61895400  0.24758200  1
  H  H6  1  0.76875300  0.61895400  0.74758200  1
  H  H7  1  0.23124700  0.11895400  0.25241800  1
  C  C0  1  0.40078400  0.17927100  0.54811600  1
  C  C1  1  0.59921600  0.67927100  0.45188400  1
  C  C2  1  0.90078400  0.67927100  0.95188400  1
  C  C3  1  0.09921600  0.17927100  0.04811600  1
  O  O0  1  0.44718400  0.12769400  0.42025600  1
  O  O1  1  0.55281600  0.62769400  0.57974400  1
  O  O2  1  0.94718400  0.62769400  0.07974400  1
  O  O3  1  0.05281600  0.12769400  0.92025600  1
  O  O4  1  0.32498700  0.06227900  0.65459100  1
  O  O5  1  0.67501300  0.56227900  0.34540900  1
  O  O6  1  0.82498700  0.56227900  0.84540900  1
  O  O7  1  0.17501300  0.06227900  0.15459100  1
loop_
_geom_bond_atom_site_label_1
_geom_bond_atom_site_label_2
_geom_bond_distance
_geom_bond_site_symmetry_2
H4 O4 1.000178 1_555
H4 O3 1.698040 1_555
H5 O5 1.000178 1_555
H5 O2 1.698040 1_555
H6 O6 1.000178 1_555
H6 O1 1.698040 1_555
H7 O7 1.000178 1_555
H7 O0 1.698040 1_555
C0 H1 1.107663 1_555
C0 O0 1.230275 1_555
C0 O4 1.324223 1_555
C1 H0 1.107663 1_555
C1 O1 1.230275 1_555
C1 O5 1.324223 1_555
C2 H3 1.107663 1_555
C2 O2 1.230275 1_556
C2 O6 1.324223 1_555
C3 H2 1.107663 1_555
C3 O3 1.230275 1_554
C3 O7 1.324223 1_555
