# generated using pymatgen
data_YbV4O8
_symmetry_space_group_name_H-M   'P 1'
_cell_length_a   3.05378050
_cell_length_b   9.03073547
_cell_length_c   10.68820250
_cell_angle_alpha   90.90807063
_cell_angle_beta   89.99005298
_cell_angle_gamma   90.02012117
_symmetry_Int_Tables_number   1
_chemical_formula_structural   YbV4O8
_chemical_formula_sum   'Yb2 V8 O16'
_cell_volume   294.72096680
_cell_formula_units_Z   2
loop_
 _symmetry_equiv_pos_site_id
 _symmetry_equiv_pos_as_xyz
  1  'x, y, z'
loop_
 _atom_site_type_symbol
 _atom_site_label
 _atom_site_symmetry_multiplicity
 _atom_site_fract_x
 _atom_site_fract_y
 _atom_site_fract_z
 _atom_site_occupancy
  Yb  Yb0  1  0.24914400  0.74644300  0.15799400  1
  Yb  Yb1  1  0.75085600  0.25355700  0.84200600  1
  V  V0  1  0.24974400  0.55181600  0.38792400  1
  V  V1  1  0.75025600  0.44818400  0.61207600  1
  V  V2  1  0.75046800  0.93029700  0.88438200  1
  V  V3  1  0.24953200  0.06970300  0.11561800  1
  V  V4  1  0.25024000  0.58479900  0.89333900  1
  V  V5  1  0.74976000  0.41520100  0.10666100  1
  V  V6  1  0.74917000  0.92287000  0.39812100  1
  V  V7  1  0.25083000  0.07713000  0.60187900  1
  O  O0  1  0.24917500  0.96733000  0.28345800  1
  O  O1  1  0.75082500  0.03267000  0.71654200  1
  O  O2  1  0.75024800  0.51263000  0.79631200  1
  O  O3  1  0.24975200  0.48737000  0.20368800  1
  O  O4  1  0.25058700  0.78388200  0.86268200  1
  O  O5  1  0.74941300  0.21611800  0.13731800  1
  O  O6  1  0.74903600  0.71758400  0.33673500  1
  O  O7  1  0.25096400  0.28241600  0.66326500  1
  O  O8  1  0.25002600  0.57191200  0.57633600  1
  O  O9  1  0.74997400  0.42808800  0.42366400  1
  O  O10  1  0.74957700  0.91909000  0.07500100  1
  O  O11  1  0.25042300  0.08091000  0.92499900  1
  O  O12  1  0.24958700  0.89062300  0.51808800  1
  O  O13  1  0.75041300  0.10937700  0.48191200  1
  O  O14  1  0.74996700  0.61451200  0.02508200  1
  O  O15  1  0.25003300  0.38548800  0.97491800  1
loop_
_geom_bond_atom_site_label_1
_geom_bond_atom_site_label_2
_geom_bond_distance
_geom_bond_site_symmetry_2
O0 V6 2.002278 1_455
O0 V6 2.002794 1_555
O0 V3 2.031103 1_565
O0 Yb0 2.385911 1_555
O1 V7 2.002278 1_655
O1 V7 2.002794 1_555
O1 V2 2.031103 1_545
O1 Yb1 2.385911 1_555
O2 V4 1.951915 1_655
O2 V4 1.952030 1_555
O2 V1 2.044493 1_555
O2 Yb1 2.397617 1_555
O3 V5 1.951915 1_455
O3 V5 1.952030 1_555
O3 V0 2.044493 1_555
O3 Yb0 2.397617 1_555
O4 V4 1.832583 1_555
O4 V2 2.030115 1_555
O4 V2 2.031300 1_455
O5 V5 1.832583 1_555
O5 V3 2.030115 1_555
O5 V3 2.031300 1_655
O6 V6 1.956733 1_555
O6 V0 2.211161 1_555
O6 V0 2.215001 1_655
O6 Yb0 2.462624 1_655
O6 Yb0 2.462740 1_555
O7 V7 1.956733 1_555
O7 V1 2.211161 1_555
O7 V1 2.215001 1_455
O7 Yb1 2.462624 1_455
O7 Yb1 2.462740 1_555
O8 V1 1.932817 1_455
O8 V1 1.934650 1_555
O8 V0 2.019080 1_555
O9 V0 1.932817 1_655
O9 V0 1.934650 1_555
O9 V1 2.019080 1_555
O10 V2 2.041489 1_554
O10 V3 2.085543 1_665
O10 V3 2.086333 1_565
O10 Yb0 2.364544 1_655
O10 Yb0 2.365346 1_555
O11 V3 2.041489 1_556
O11 V2 2.085543 1_445
O11 V2 2.086333 1_545
O11 Yb1 2.364544 1_455
O11 Yb1 2.365346 1_555
O12 V7 1.895021 1_565
O12 V6 2.016748 1_555
O12 V6 2.019167 1_455
O13 V6 1.895021 1_545
O13 V7 2.016748 1_555
O13 V7 2.019167 1_655
O14 V5 2.012397 1_555
O14 V4 2.090949 1_554
O14 V4 2.091947 1_654
O14 Yb0 2.388963 1_655
O14 Yb0 2.392393 1_555
O15 V4 2.012397 1_555
O15 V5 2.090949 1_556
O15 V5 2.091947 1_456
O15 Yb1 2.388963 1_455
O15 Yb1 2.392393 1_555
