# generated using pymatgen
data_Mg6BiW
_symmetry_space_group_name_H-M   'P 1'
_cell_length_a   5.10720000
_cell_length_b   6.24288700
_cell_length_c   10.63819200
_cell_angle_alpha   90.00000000
_cell_angle_beta   90.00000000
_cell_angle_gamma   90.00000000
_symmetry_Int_Tables_number   1
_chemical_formula_structural   Mg6BiW
_chemical_formula_sum   'Mg12 Bi2 W2'
_cell_volume   339.18462958
_cell_formula_units_Z   2
loop_
 _symmetry_equiv_pos_site_id
 _symmetry_equiv_pos_as_xyz
  1  'x, y, z'
loop_
 _atom_site_type_symbol
 _atom_site_label
 _atom_site_symmetry_multiplicity
 _atom_site_fract_x
 _atom_site_fract_y
 _atom_site_fract_z
 _atom_site_occupancy
  Mg  Mg0  1  0.00000000  0.24140100  0.08064600  1
  Mg  Mg1  1  0.00000000  0.75859900  0.08064600  1
  Mg  Mg2  1  0.00000000  0.50000000  0.83444800  1
  Mg  Mg3  1  0.50000000  0.23680000  0.91402700  1
  Mg  Mg4  1  0.50000000  0.76320000  0.91402700  1
  Mg  Mg5  1  0.50000000  0.50000000  0.66642700  1
  Mg  Mg6  1  0.00000000  0.74140100  0.58064600  1
  Mg  Mg7  1  0.00000000  0.25859900  0.58064600  1
  Mg  Mg8  1  0.00000000  0.00000000  0.33444800  1
  Mg  Mg9  1  0.50000000  0.73680000  0.41402700  1
  Mg  Mg10  1  0.50000000  0.26320000  0.41402700  1
  Mg  Mg11  1  0.50000000  0.00000000  0.16642700  1
  Bi  Bi0  1  0.50000000  0.50000000  0.17248500  1
  Bi  Bi1  1  0.50000000  0.00000000  0.67248500  1
  W  W0  1  0.00000000  0.50000000  0.33729300  1
  W  W1  1  0.00000000  0.00000000  0.83729300  1
loop_
_geom_bond_atom_site_label_1
_geom_bond_atom_site_label_2
_geom_bond_distance
_geom_bond_site_symmetry_2
Mg0 W1 2.995536 1_554
Mg0 Mg11 3.102386 1_455
Mg0 Mg11 3.102386 1_555
Mg0 W0 3.171848 1_555
Mg1 W1 2.995536 1_564
Mg1 Mg11 3.102386 1_465
Mg1 Mg11 3.102386 1_565
Mg1 W0 3.171848 1_555
Mg2 Mg5 3.117020 1_555
Mg2 Mg5 3.117020 1_455
Mg2 W1 3.121590 1_565
Mg2 W1 3.121590 1_555
Mg3 W1 3.061479 1_655
Mg3 W1 3.061479 1_555
Mg3 Mg5 3.104499 1_555
Mg4 W1 3.061479 1_565
Mg4 W1 3.061479 1_665
Mg4 Mg5 3.104499 1_555
Mg5 Mg9 3.065138 1_555
Mg5 Mg6 3.102386 1_655
Mg5 Mg6 3.102386 1_555
Mg5 Mg7 3.102386 1_555
Mg5 Mg7 3.102386 1_655
Mg6 W0 2.995536 1_555
Mg6 W1 3.171848 1_565
Mg7 W0 2.995536 1_555
Mg7 W1 3.171848 1_555
Mg8 W0 3.121590 1_545
Mg8 W0 3.121590 1_555
Mg9 W0 3.061479 1_555
Mg9 W0 3.061479 1_655
Mg10 W0 3.061479 1_555
Mg10 W0 3.061479 1_655
Mg10 Mg5 3.065138 1_555
Mg10 Mg11 3.104499 1_555
Mg11 Mg4 3.065138 1_544
Mg11 Mg3 3.065138 1_554
Mg11 Mg9 3.104499 1_545
Mg11 Mg8 3.117020 1_655
Mg11 Mg8 3.117020 1_555
Bi0 Mg10 2.964474 1_555
Bi0 Mg9 2.964474 1_555
Bi0 W0 3.097546 1_655
Bi0 W0 3.097546 1_555
Bi0 Mg11 3.122109 1_555
Bi0 Mg11 3.122109 1_565
Bi0 Mg1 3.175170 1_655
Bi0 Mg1 3.175170 1_555
Bi0 Mg0 3.175170 1_555
Bi0 Mg0 3.175170 1_655
Bi0 Mg3 3.203086 1_554
Bi0 Mg4 3.203086 1_554
Bi1 Mg3 2.964474 1_555
Bi1 Mg4 2.964474 1_545
Bi1 W1 3.097546 1_655
Bi1 W1 3.097546 1_555
Bi1 Mg5 3.122109 1_555
Bi1 Mg5 3.122109 1_545
Bi1 Mg7 3.175170 1_655
Bi1 Mg7 3.175170 1_555
Bi1 Mg6 3.175170 1_645
Bi1 Mg6 3.175170 1_545
Bi1 Mg9 3.203086 1_545
Bi1 Mg10 3.203086 1_555
