# generated using pymatgen
data_ZnH5C9N4O5
_symmetry_space_group_name_H-M   'P 1'
_cell_length_a   7.84224400
_cell_length_b   9.48746941
_cell_length_c   15.19707948
_cell_angle_alpha   88.79801534
_cell_angle_beta   90.00000000
_cell_angle_gamma   90.00000000
_symmetry_Int_Tables_number   1
_chemical_formula_structural   ZnH5C9N4O5
_chemical_formula_sum   'Zn4 H20 C36 N16 O20'
_cell_volume   1130.46026111
_cell_formula_units_Z   4
loop_
 _symmetry_equiv_pos_site_id
 _symmetry_equiv_pos_as_xyz
  1  'x, y, z'
loop_
 _atom_site_type_symbol
 _atom_site_label
 _atom_site_symmetry_multiplicity
 _atom_site_fract_x
 _atom_site_fract_y
 _atom_site_fract_z
 _atom_site_occupancy
  Zn  Zn0  1  0.95074400  0.02568700  0.25291900  1
  Zn  Zn1  1  0.45074400  0.47431300  0.74708100  1
  Zn  Zn2  1  0.04925600  0.97431300  0.74708100  1
  Zn  Zn3  1  0.54925600  0.52568700  0.25291900  1
  H  H0  1  0.44051000  0.11876000  0.48299000  1
  H  H1  1  0.94051000  0.38124000  0.51701000  1
  H  H2  1  0.55949000  0.88124000  0.51701000  1
  H  H3  1  0.05949000  0.61876000  0.48299000  1
  H  H4  1  0.97320700  0.11766700  0.92692400  1
  H  H5  1  0.47320700  0.38233100  0.07307600  1
  H  H6  1  0.02679200  0.88233200  0.07307600  1
  H  H7  1  0.52679300  0.61766800  0.92692400  1
  H  H8  1  0.74929100  0.12832300  0.03978100  1
  H  H9  1  0.24929100  0.37167700  0.96021900  1
  H  H10  1  0.25070900  0.87167700  0.96021900  1
  H  H11  1  0.75070900  0.62832300  0.03978100  1
  H  H12  1  0.43858700  0.86909900  0.87222300  1
  H  H13  1  0.93858700  0.63090100  0.12777700  1
  H  H14  1  0.56141300  0.13090100  0.12777700  1
  H  H15  1  0.06141300  0.36909900  0.87222300  1
  H  H16  1  0.67805300  0.86755900  0.76629600  1
  H  H17  1  0.17805300  0.63244100  0.23370400  1
  H  H18  1  0.32194700  0.13244100  0.23370400  1
  H  H19  1  0.82194700  0.36755900  0.76629600  1
  C  C0  1  0.68007500  0.24166300  0.28966000  1
  C  C1  1  0.18007500  0.25833700  0.71034000  1
  C  C2  1  0.31992500  0.75833700  0.71034000  1
  C  C3  1  0.81992500  0.74166300  0.28966000  1
  C  C4  1  0.77598500  0.29382100  0.20727400  1
  C  C5  1  0.27598500  0.20617900  0.79272600  1
  C  C6  1  0.22401500  0.70617900  0.79272600  1
  C  C7  1  0.72401500  0.79382100  0.20727400  1
  C  C8  1  0.62855300  0.06481000  0.39296100  1
  C  C9  1  0.12855300  0.43519000  0.60703900  1
  C  C10  1  0.37144700  0.93519000  0.60703900  1
  C  C11  1  0.87144700  0.56481000  0.39296100  1
  C  C12  1  0.47165800  0.28851700  0.39306900  1
  C  C13  1  0.97165800  0.21148300  0.60693100  1
  C  C14  1  0.52834200  0.71148300  0.60693100  1
  C  C15  1  0.02834200  0.78851700  0.39306900  1
  C  C16  1  0.85180600  0.06452000  0.91675100  1
  C  C17  1  0.35180600  0.43548000  0.08324900  1
  C  C18  1  0.14819400  0.93548000  0.08324900  1
  C  C19  1  0.64819400  0.56452000  0.91675100  1
  C  C20  1  0.72448000  0.06982900  0.98022400  1
  C  C21  1  0.22448000  0.43017100  0.01977600  1
  C  C22  1  0.27552000  0.93017100  0.01977600  1
  C  C23  1  0.77552000  0.56982900  0.98022400  1
  C  C24  1  0.56980000  0.99893900  0.96695800  1
  C  C25  1  0.06980000  0.50106100  0.03304200  1
  C  C26  1  0.43020000  0.00106100  0.03304200  1
  C  C27  1  0.93020000  0.49893900  0.96695800  1
  C  C28  1  0.55485800  0.92556700  0.88783900  1
  C  C29  1  0.05485800  0.57443300  0.11216100  1
  C  C30  1  0.44514200  0.07443300  0.11216100  1
  C  C31  1  0.94514200  0.42556700  0.88783900  1
  C  C32  1  0.68822400  0.92534400  0.82766000  1
  C  C33  1  0.18822400  0.57465600  0.17234000  1
  C  C34  1  0.31177600  0.07465600  0.17234000  1
  C  C35  1  0.81177600  0.42534400  0.82766000  1
  N  N0  1  0.72406200  0.11653500  0.32261800  1
  N  N1  1  0.22406200  0.38346500  0.67738200  1
  N  N2  1  0.27593800  0.88346500  0.67738200  1
  N  N3  1  0.77593800  0.61653500  0.32261800  1
  N  N4  1  0.50524600  0.15501000  0.42639100  1
  N  N5  1  0.00524600  0.34499000  0.57360900  1
  N  N6  1  0.49475400  0.84499000  0.57360900  1
  N  N7  1  0.99475400  0.65501000  0.42639100  1
  N  N8  1  0.55793800  0.32692600  0.31749300  1
  N  N9  1  0.05793800  0.17307400  0.68250700  1
  N  N10  1  0.44206200  0.67307400  0.68250700  1
  N  N11  1  0.94206200  0.82692600  0.31749300  1
  N  N12  1  0.83599200  0.99400900  0.84110500  1
  N  N13  1  0.33599200  0.50599100  0.15889500  1
  N  N14  1  0.16400800  0.00599100  0.15889500  1
  N  N15  1  0.66400800  0.49400900  0.84110500  1
  O  O0  1  0.90263400  0.90688300  0.64293700  1
  O  O1  1  0.40263400  0.59311700  0.35706300  1
  O  O2  1  0.09736600  0.09311700  0.35706300  1
  O  O3  1  0.59736600  0.40688300  0.64293700  1
  O  O4  1  0.89752500  0.21760200  0.18097900  1
  O  O5  1  0.39752500  0.28239800  0.81902100  1
  O  O6  1  0.10247500  0.78239800  0.81902100  1
  O  O7  1  0.60247500  0.71760200  0.18097900  1
  O  O8  1  0.72140800  0.40639400  0.17100400  1
  O  O9  1  0.22140800  0.09360600  0.82899600  1
  O  O10  1  0.27859200  0.59360600  0.82899600  1
  O  O11  1  0.77859200  0.90639400  0.17100400  1
  O  O12  1  0.64892500  0.94403400  0.42370700  1
  O  O13  1  0.14892500  0.55596600  0.57629300  1
  O  O14  1  0.35107500  0.05596600  0.57629300  1
  O  O15  1  0.85107500  0.44403400  0.42370700  1
  O  O16  1  0.36684900  0.36889200  0.42873600  1
  O  O17  1  0.86684900  0.13110700  0.57126400  1
  O  O18  1  0.63315100  0.63110700  0.57126400  1
  O  O19  1  0.13315100  0.86889300  0.42873600  1
loop_
_geom_bond_atom_site_label_1
_geom_bond_atom_site_label_2
_geom_bond_distance
_geom_bond_site_symmetry_2
H0 N4 1.050450 1_555
H0 O14 1.679863 1_555
H1 N5 1.050450 1_655
H1 O15 1.679863 1_555
H2 N6 1.050450 1_555
H2 O12 1.679863 1_555
H3 N7 1.050450 1_455
H3 O13 1.679863 1_555
C0 N0 1.324476 1_555
C0 N8 1.328559 1_555
C1 N1 1.324476 1_555
C1 N9 1.328559 1_555
C2 N2 1.324476 1_555
C2 N10 1.328559 1_555
C3 N3 1.324476 1_555
C3 N11 1.328559 1_555
C4 O8 1.266098 1_555
C4 O4 1.266178 1_555
C5 O9 1.266098 1_555
C5 O5 1.266178 1_555
C6 O10 1.266098 1_555
C6 O6 1.266178 1_555
C7 O11 1.266098 1_555
C7 O7 1.266178 1_555
C8 O12 1.238699 1_545
C8 N0 1.386579 1_555
C8 N4 1.394195 1_555
C9 O13 1.238699 1_555
C9 N1 1.386579 1_555
C9 N5 1.394195 1_555
C10 O14 1.238699 1_565
C10 N2 1.386579 1_555
C10 N6 1.394195 1_555
C11 O15 1.238699 1_555
C11 N3 1.386579 1_555
C11 N7 1.394195 1_555
C12 O16 1.252284 1_555
C12 N8 1.375569 1_555
C12 N4 1.379600 1_555
C13 O17 1.252290 1_555
C13 N9 1.375569 1_655
C13 N5 1.379600 1_655
C14 O18 1.252290 1_555
C14 N10 1.375569 1_555
C14 N6 1.379600 1_555
C15 O19 1.252290 1_555
C15 N11 1.375569 1_455
C15 N7 1.379600 1_455
C16 H4 1.089877 1_555
C16 N12 1.347866 1_545
C16 C20 1.389994 1_555
C17 H5 1.089886 1_555
C17 N13 1.347866 1_555
C17 C21 1.389994 1_555
C18 H6 1.089888 1_555
C18 N14 1.347866 1_565
C18 C22 1.389994 1_555
C19 H7 1.089881 1_555
C19 N15 1.347866 1_555
C19 C23 1.389994 1_555
C20 H8 1.089085 1_556
C20 C24 1.403617 1_545
C21 H9 1.089085 1_554
C21 C25 1.403617 1_555
C22 H10 1.089085 1_554
C22 C26 1.403617 1_565
C23 H11 1.089085 1_556
C23 C27 1.403617 1_555
C24 C28 1.406817 1_555
C24 C26 1.486061 1_566
C25 C29 1.406817 1_555
C25 C27 1.486061 1_454
C26 C30 1.406817 1_555
C27 C31 1.406817 1_555
C28 H12 1.086322 1_555
C28 C32 1.389374 1_555
C29 H13 1.086322 1_455
C29 C33 1.389374 1_555
C30 H14 1.086322 1_555
C30 C34 1.389374 1_555
C31 H15 1.086322 1_655
C31 C35 1.389374 1_555
C32 H16 1.094544 1_555
C32 N12 1.347079 1_555
C33 H17 1.094544 1_555
C33 N13 1.347079 1_555
C34 H18 1.094544 1_555
C34 N14 1.347079 1_555
C35 H19 1.094544 1_555
C35 N15 1.347079 1_555
N0 Zn0 2.250190 1_555
N1 Zn1 2.250190 1_555
N2 Zn2 2.250190 1_555
N3 Zn3 2.250190 1_555
N8 Zn3 2.108561 1_555
N9 Zn2 2.108561 1_545
N10 Zn1 2.108561 1_555
N11 Zn0 2.108561 1_565
N12 Zn2 2.210203 1_655
N13 Zn3 2.210203 1_555
N14 Zn0 2.210203 1_455
N15 Zn1 2.210203 1_555
O0 Zn2 2.068522 1_655
O1 Zn3 2.068522 1_555
O2 Zn0 2.068522 1_455
O3 Zn1 2.068522 1_555
O4 Zn0 2.145040 1_555
O5 Zn1 2.145040 1_555
O6 Zn2 2.145040 1_555
O7 Zn3 2.145040 1_555
O8 Zn3 2.170809 1_555
O9 Zn2 2.170809 1_545
O10 Zn1 2.170809 1_555
O11 Zn0 2.170809 1_565
