# generated using pymatgen
data_FeH4(CN)6
_symmetry_space_group_name_H-M   'P 1'
_cell_length_a   11.22180200
_cell_length_b   6.10782200
_cell_length_c   6.97933656
_cell_angle_alpha   75.65132604
_cell_angle_beta   90.00000000
_cell_angle_gamma   90.00000000
_symmetry_Int_Tables_number   1
_chemical_formula_structural   FeH4(CN)6
_chemical_formula_sum   'Fe2 H8 C12 N12'
_cell_volume   463.44663540
_cell_formula_units_Z   2
loop_
 _symmetry_equiv_pos_site_id
 _symmetry_equiv_pos_as_xyz
  1  'x, y, z'
loop_
 _atom_site_type_symbol
 _atom_site_label
 _atom_site_symmetry_multiplicity
 _atom_site_fract_x
 _atom_site_fract_y
 _atom_site_fract_z
 _atom_site_occupancy
  Fe  Fe0  1  0.50000000  0.00000000  0.50000000  1
  Fe  Fe1  1  0.00000000  0.00000000  0.00000000  1
  H  H0  1  0.21554000  0.56830100  0.60745500  1
  H  H1  1  0.71554000  0.43169900  0.89254500  1
  H  H2  1  0.78446000  0.43169900  0.39254500  1
  H  H3  1  0.28446000  0.56830100  0.10745500  1
  H  H4  1  0.60034200  0.71907300  0.05551700  1
  H  H5  1  0.10034200  0.28092700  0.44448300  1
  H  H6  1  0.39965800  0.28092700  0.94448300  1
  H  H7  1  0.89965800  0.71907300  0.55551700  1
  C  C0  1  0.57905000  0.77662600  0.69533000  1
  C  C1  1  0.07905000  0.22337400  0.80467000  1
  C  C2  1  0.42095000  0.22337400  0.30467000  1
  C  C3  1  0.92095000  0.77662600  0.19533000  1
  C  C4  1  0.55009600  0.86524300  0.30251400  1
  C  C5  1  0.05009600  0.13475700  0.19748600  1
  C  C6  1  0.44990400  0.13475700  0.69748600  1
  C  C7  1  0.94990400  0.86524300  0.80251400  1
  C  C8  1  0.36474200  0.81721900  0.54060000  1
  C  C9  1  0.86474200  0.18278100  0.95940000  1
  C  C10  1  0.63525800  0.18278100  0.45940000  1
  C  C11  1  0.13525800  0.81721900  0.04060000  1
  N  N0  1  0.62426900  0.64022800  0.82437200  1
  N  N1  1  0.12426900  0.35977200  0.67562800  1
  N  N2  1  0.37573100  0.35977200  0.17562800  1
  N  N3  1  0.87573100  0.64022800  0.32437200  1
  N  N4  1  0.58099300  0.78155600  0.17728300  1
  N  N5  1  0.08099300  0.21844400  0.32271700  1
  N  N6  1  0.41900700  0.21844400  0.82271700  1
  N  N7  1  0.91900700  0.78155600  0.67728300  1
  N  N8  1  0.28120900  0.69893400  0.56927900  1
  N  N9  1  0.78120900  0.30106600  0.93072100  1
  N  N10  1  0.71879100  0.30106600  0.43072100  1
  N  N11  1  0.21879100  0.69893400  0.06927900  1
loop_
_geom_bond_atom_site_label_1
_geom_bond_atom_site_label_2
_geom_bond_distance
_geom_bond_site_symmetry_2
H0 N8 1.070186 1_555
H0 N1 1.611603 1_555
H1 N9 1.070186 1_555
H1 N0 1.611603 1_555
H2 N10 1.070186 1_555
H2 N3 1.611603 1_555
H3 N11 1.070186 1_555
H3 N2 1.611603 1_555
H4 N4 1.037199 1_555
H5 N5 1.037199 1_555
H6 N6 1.037199 1_555
H7 N7 1.037199 1_555
C0 N0 1.179315 1_555
C0 Fe0 1.893396 1_565
C1 N1 1.179315 1_555
C1 Fe1 1.893396 1_556
C2 N2 1.179315 1_555
C2 Fe0 1.893396 1_555
C3 N3 1.179315 1_555
C3 Fe1 1.893396 1_665
C4 N4 1.169121 1_555
C4 Fe0 1.858907 1_565
C5 N5 1.169121 1_555
C5 Fe1 1.858907 1_555
C6 N6 1.169121 1_555
C6 Fe0 1.858907 1_555
C7 N7 1.169121 1_555
C7 Fe1 1.858907 1_666
C8 N8 1.170062 1_555
C8 Fe0 1.863778 1_565
C9 N9 1.170062 1_555
C9 Fe1 1.863778 1_656
C10 N10 1.170062 1_555
C10 Fe0 1.863778 1_555
C11 N11 1.170062 1_555
C11 Fe1 1.863778 1_565
