# generated using pymatgen
data_Pr7In6Ni5Ge3
_symmetry_space_group_name_H-M   'P 1'
_cell_length_a   11.46915920
_cell_length_b   11.46915920
_cell_length_c   4.19782300
_cell_angle_alpha   90.00000000
_cell_angle_beta   90.00000000
_cell_angle_gamma   119.99999540
_symmetry_Int_Tables_number   1
_chemical_formula_structural   Pr7In6Ni5Ge3
_chemical_formula_sum   'Pr7 In6 Ni5 Ge3'
_cell_volume   478.20921097
_cell_formula_units_Z   1
loop_
 _symmetry_equiv_pos_site_id
 _symmetry_equiv_pos_as_xyz
  1  'x, y, z'
loop_
 _atom_site_type_symbol
 _atom_site_label
 _atom_site_symmetry_multiplicity
 _atom_site_fract_x
 _atom_site_fract_y
 _atom_site_fract_z
 _atom_site_occupancy
  Pr  Pr0  1  0.33333300  0.66666700  0.00000000  1
  Pr  Pr1  1  0.71223000  0.74995900  0.00000000  1
  Pr  Pr2  1  0.03772900  0.28777000  0.00000000  1
  Pr  Pr3  1  0.25004100  0.96227100  0.00000000  1
  Pr  Pr4  1  0.95415600  0.59137600  0.00000000  1
  Pr  Pr5  1  0.63722100  0.04584400  0.00000000  1
  Pr  Pr6  1  0.40862400  0.36277900  0.00000000  1
  In  In0  1  0.84746200  0.01477700  0.50000000  1
  In  In1  1  0.16731500  0.15253800  0.50000000  1
  In  In2  1  0.98522300  0.83268500  0.50000000  1
  In  In3  1  0.81353100  0.31078800  0.50000000  1
  In  In4  1  0.49725700  0.18646900  0.50000000  1
  In  In5  1  0.68921200  0.50274300  0.50000000  1
  Ni  Ni0  1  0.00000000  0.00000000  0.00000000  1
  Ni  Ni1  1  0.66666700  0.33333300  0.00000000  1
  Ni  Ni2  1  0.16988500  0.74979700  0.50000000  1
  Ni  Ni3  1  0.57991200  0.83011500  0.50000000  1
  Ni  Ni4  1  0.25020300  0.42008800  0.50000000  1
  Ge  Ge0  1  0.48682300  0.58830600  0.50000000  1
  Ge  Ge1  1  0.10148300  0.51317700  0.50000000  1
  Ge  Ge2  1  0.41169400  0.89851700  0.50000000  1
loop_
_geom_bond_atom_site_label_1
_geom_bond_atom_site_label_2
_geom_bond_distance
_geom_bond_site_symmetry_2
In0 Ni3 2.720797 1_545
In0 Ni0 2.791298 1_655
In0 Ni0 2.791298 1_656
In0 Pr5 3.347517 1_555
In0 Pr5 3.347517 1_556
In0 Pr1 3.365278 1_545
In0 Pr1 3.365278 1_546
In0 Pr2 3.483981 1_655
In0 Pr2 3.483981 1_656
In1 Ni4 2.720796 1_555
In1 Ni0 2.791298 1_555
In1 Ni0 2.791298 1_556
In1 Pr6 3.347522 1_556
In1 Pr6 3.347522 1_555
In1 Pr2 3.365278 1_555
In1 Pr2 3.365278 1_556
In1 Pr3 3.483981 1_546
In1 Pr3 3.483981 1_545
In2 Ni2 2.720796 1_655
In2 Ni0 2.791298 1_666
In2 Ni0 2.791298 1_665
In2 Pr4 3.347525 1_555
In2 Pr4 3.347525 1_556
In2 Pr3 3.365278 1_655
In2 Pr3 3.365278 1_656
In2 Pr1 3.483981 1_556
In2 Pr1 3.483981 1_555
In3 Ni1 2.782994 1_556
In3 Ni1 2.782994 1_555
In3 In5 3.165272 1_555
In3 In4 3.165272 1_555
In3 Pr5 3.403443 1_555
In3 Pr5 3.403443 1_556
In3 Pr2 3.430140 1_655
In3 Pr2 3.430140 1_656
In3 Pr4 3.488927 1_555
In3 Pr4 3.488927 1_556
In4 Ni1 2.782999 1_556
In4 Ni1 2.782999 1_555
In4 In5 3.165272 1_555
In4 Pr6 3.403436 1_556
In4 Pr6 3.403436 1_555
In4 Pr3 3.430140 1_546
In4 Pr3 3.430140 1_545
In4 Pr5 3.488935 1_555
In4 Pr5 3.488935 1_556
In5 Ni1 2.783001 1_556
In5 Ni1 2.783001 1_555
In5 Pr4 3.403445 1_555
In5 Pr4 3.403445 1_556
In5 Pr1 3.430140 1_555
In5 Pr1 3.430140 1_556
In5 Pr6 3.488927 1_555
In5 Pr6 3.488927 1_556
Ni0 Pr3 3.106804 1_545
Ni0 Pr2 3.106804 1_555
Ni0 Pr1 3.106804 1_445
Ni1 Pr6 3.142039 1_555
Ni1 Pr5 3.142039 1_555
Ni1 Pr4 3.142039 1_555
Ni2 Pr3 2.991448 1_555
Ni2 Pr3 2.991448 1_556
Ni2 Pr4 3.054997 1_456
Ni2 Pr4 3.054997 1_455
Ni2 Pr0 3.258211 1_555
Ni2 Pr0 3.258211 1_556
Ni3 Pr1 2.991448 1_555
Ni3 Pr1 2.991448 1_556
Ni3 Pr5 3.054995 1_565
Ni3 Pr5 3.054995 1_566
Ni3 Pr0 3.258218 1_555
Ni3 Pr0 3.258218 1_556
Ni4 Pr2 2.991448 1_556
Ni4 Pr2 2.991448 1_555
Ni4 Pr6 3.055003 1_555
Ni4 Pr6 3.055003 1_556
Ni4 Pr0 3.258220 1_555
Ni4 Pr0 3.258220 1_556
Ge0 Ni4 2.418948 1_555
Ge0 Ni3 2.422883 1_555
Ge0 In5 2.937523 1_555
Ge0 Pr6 3.095235 1_556
Ge0 Pr6 3.095235 1_555
Ge0 Pr1 3.119802 1_555
Ge0 Pr1 3.119802 1_556
Ge0 Pr0 3.145521 1_555
Ge0 Pr0 3.145521 1_556
Ge1 Ni2 2.418948 1_555
Ge1 Ni4 2.422882 1_555
Ge1 In3 2.937524 1_455
Ge1 Pr4 3.095227 1_456
Ge1 Pr4 3.095227 1_455
Ge1 Pr2 3.119802 1_556
Ge1 Pr2 3.119802 1_555
Ge1 Pr0 3.145514 1_555
Ge1 Pr0 3.145514 1_556
Ge2 Ni3 2.418948 1_555
Ge2 Ni2 2.422883 1_555
Ge2 In4 2.937523 1_565
Ge2 Pr5 3.095233 1_566
Ge2 Pr5 3.095233 1_565
Ge2 Pr3 3.119802 1_555
Ge2 Pr3 3.119802 1_556
Ge2 Pr0 3.145513 1_555
Ge2 Pr0 3.145513 1_556
