# generated using pymatgen
data_Nb2Co3Ge
_symmetry_space_group_name_H-M   'P 1'
_cell_length_a   4.86546389
_cell_length_b   4.86546389
_cell_length_c   7.62013786
_cell_angle_alpha   90.00000000
_cell_angle_beta   90.00000000
_cell_angle_gamma   119.99998766
_symmetry_Int_Tables_number   1
_chemical_formula_structural   Nb2Co3Ge
_chemical_formula_sum   'Nb4 Co6 Ge2'
_cell_volume   156.22193832
_cell_formula_units_Z   2
loop_
 _symmetry_equiv_pos_site_id
 _symmetry_equiv_pos_as_xyz
  1  'x, y, z'
loop_
 _atom_site_type_symbol
 _atom_site_label
 _atom_site_symmetry_multiplicity
 _atom_site_fract_x
 _atom_site_fract_y
 _atom_site_fract_z
 _atom_site_occupancy
  Nb  Nb0  1  0.33333300  0.66666700  0.43859077  1
  Nb  Nb1  1  0.66666700  0.33333300  0.56140923  1
  Nb  Nb2  1  0.66666700  0.33333300  0.93859077  1
  Nb  Nb3  1  0.33333300  0.66666700  0.06140923  1
  Co  Co0  1  0.82825888  0.17174112  0.25000000  1
  Co  Co1  1  0.82825888  0.65651976  0.25000000  1
  Co  Co2  1  0.34348024  0.17174112  0.25000000  1
  Co  Co3  1  0.17174112  0.82825888  0.75000000  1
  Co  Co4  1  0.17174112  0.34348024  0.75000000  1
  Co  Co5  1  0.65651976  0.82825888  0.75000000  1
  Ge  Ge0  1  0.00000000  -0.00000000  0.50000000  1
  Ge  Ge1  1  0.00000000  -0.00000000  0.00000000  1
loop_
_geom_bond_atom_site_label_1
_geom_bond_atom_site_label_2
_geom_bond_distance
_geom_bond_site_symmetry_2
Nb0 Nb3 2.874175 1_555
Nb0 Nb1 2.960878 1_455
Nb0 Nb1 2.960878 1_565
Nb0 Nb1 2.960885 1_555
Nb1 Nb2 2.874175 1_555
Nb2 Nb3 2.960878 1_546
Nb2 Nb3 2.960878 1_656
Nb2 Nb3 2.960885 1_556
Co0 Co2 2.358673 1_555
Co0 Co1 2.358673 1_555
Co0 Ge0 2.392455 1_655
Co0 Ge1 2.392455 1_655
Co0 Co2 2.506791 1_655
Co0 Co1 2.506791 1_545
Co0 Nb1 2.735957 1_555
Co0 Nb2 2.735957 1_554
Co0 Nb0 2.825816 1_545
Co0 Nb3 2.825816 1_545
Co0 Nb0 2.825816 1_655
Co0 Nb3 2.825816 1_655
Co1 Co2 2.358673 1_555
Co1 Ge1 2.392450 1_665
Co1 Ge0 2.392450 1_665
Co1 Co2 2.506791 1_665
Co1 Nb1 2.735964 1_555
Co1 Nb2 2.735964 1_554
Co1 Nb0 2.825813 1_555
Co1 Nb3 2.825813 1_555
Co1 Nb0 2.825818 1_655
Co1 Nb3 2.825818 1_655
Co2 Ge1 2.392450 1_555
Co2 Ge0 2.392450 1_555
Co2 Nb1 2.735964 1_555
Co2 Nb2 2.735964 1_554
Co2 Nb0 2.825813 1_555
Co2 Nb3 2.825813 1_555
Co2 Nb0 2.825818 1_545
Co2 Nb3 2.825818 1_545
Co3 Co4 2.358673 1_555
Co3 Co5 2.358673 1_555
Co3 Ge0 2.392455 1_565
Co3 Ge1 2.392455 1_566
Co3 Co4 2.506791 1_565
Co3 Co5 2.506791 1_455
Co3 Nb0 2.735957 1_555
Co3 Nb3 2.735957 1_556
Co3 Nb2 2.825816 1_455
Co3 Nb1 2.825816 1_565
Co3 Nb1 2.825816 1_455
Co3 Nb2 2.825816 1_565
Co4 Co5 2.358673 1_555
Co4 Ge1 2.392450 1_556
Co4 Ge0 2.392450 1_555
Co4 Co5 2.506791 1_445
Co4 Nb0 2.735964 1_555
Co4 Nb3 2.735964 1_556
Co4 Nb1 2.825813 1_555
Co4 Nb2 2.825813 1_555
Co4 Nb2 2.825818 1_455
Co4 Nb1 2.825818 1_455
Co5 Ge1 2.392450 1_666
Co5 Ge0 2.392450 1_665
Co5 Nb0 2.735964 1_555
Co5 Nb3 2.735964 1_556
Co5 Nb1 2.825813 1_555
Co5 Nb2 2.825813 1_555
Co5 Nb2 2.825818 1_565
Co5 Nb1 2.825818 1_565
Ge0 Nb0 2.847783 1_545
Ge0 Nb1 2.847783 1_455
Ge0 Nb1 2.847788 1_445
Ge0 Nb1 2.847788 1_555
Ge0 Nb0 2.847788 1_445
Ge0 Nb0 2.847788 1_555
Ge1 Nb3 2.847783 1_545
Ge1 Nb2 2.847783 1_454
Ge1 Nb3 2.847788 1_445
Ge1 Nb2 2.847788 1_554
Ge1 Nb2 2.847788 1_444
Ge1 Nb3 2.847788 1_555
