# generated using pymatgen
data_BaNdZr4O12
_symmetry_space_group_name_H-M   'P 1'
_cell_length_a   5.90879456
_cell_length_b   5.90879456
_cell_length_c   8.29544167
_cell_angle_alpha   90.00000000
_cell_angle_beta   90.00000000
_cell_angle_gamma   90.02980948
_symmetry_Int_Tables_number   1
_chemical_formula_structural   BaNdZr4O12
_chemical_formula_sum   'Ba1 Nd1 Zr4 O12'
_cell_volume   289.62579301
_cell_formula_units_Z   1
loop_
 _symmetry_equiv_pos_site_id
 _symmetry_equiv_pos_as_xyz
  1  'x, y, z'
loop_
 _atom_site_type_symbol
 _atom_site_label
 _atom_site_symmetry_multiplicity
 _atom_site_fract_x
 _atom_site_fract_y
 _atom_site_fract_z
 _atom_site_occupancy
  Ba  Ba0  1  0.47369025  0.52630975  -0.00000000  1
  Nd  Nd0  1  0.03254232  0.96745768  0.50000000  1
  Zr  Zr0  1  0.51547581  0.01179657  0.25386171  1
  Zr  Zr1  1  0.51547581  0.01179657  0.74613829  1
  Zr  Zr2  1  0.98820343  0.48452419  0.74613829  1
  Zr  Zr3  1  0.98820343  0.48452419  0.25386171  1
  O  O0  1  0.27655376  0.27738923  0.25260086  1
  O  O1  1  0.72261077  0.72344624  0.25260086  1
  O  O2  1  0.72261077  0.72344624  0.74739914  1
  O  O3  1  0.27655376  0.27738923  0.74739914  1
  O  O4  1  0.22519943  0.77480057  0.24267652  1
  O  O5  1  0.80081708  0.19918292  0.31167812  1
  O  O6  1  0.80081708  0.19918292  0.68832188  1
  O  O7  1  0.22519943  0.77480057  0.75732348  1
  O  O8  1  0.51906904  0.02948529  -0.00000000  1
  O  O9  1  0.42688631  0.98372319  0.50000000  1
  O  O10  1  0.97051471  0.48093096  -0.00000000  1
  O  O11  1  0.01627681  0.57311369  0.50000000  1
loop_
_geom_bond_atom_site_label_1
_geom_bond_atom_site_label_2
_geom_bond_distance
_geom_bond_site_symmetry_2
Ba0 O0 2.812335 1_555
Ba0 O1 2.812335 1_555
Ba0 O2 2.812335 1_554
Ba0 O3 2.812335 1_554
Ba0 O7 2.892499 1_554
Ba0 O4 2.892499 1_555
Ba0 O8 2.947993 1_555
Ba0 O10 2.947993 1_555
Ba0 O8 2.985088 1_565
Ba0 O10 2.985088 1_455
Nd0 O11 2.332029 1_555
Nd0 O9 2.332029 1_555
Nd0 O6 2.488367 1_465
Nd0 O5 2.488367 1_465
Nd0 O4 2.673891 1_555
Nd0 O7 2.673891 1_555
O0 Zr3 2.098380 1_455
O0 Zr0 2.111453 1_555
O1 Zr0 2.098380 1_565
O1 Zr3 2.111453 1_555
O2 Zr1 2.098380 1_565
O2 Zr2 2.111453 1_555
O3 Zr2 2.098380 1_455
O3 Zr1 2.111453 1_555
O4 Zr0 2.215621 1_565
O4 Zr3 2.215621 1_455
O5 Zr3 2.072851 1_555
O5 Zr0 2.072851 1_555
O6 Zr1 2.072851 1_555
O6 Zr2 2.072851 1_555
O7 Zr1 2.215621 1_565
O7 Zr2 2.215621 1_455
O8 Zr0 2.108593 1_555
O8 Zr1 2.108593 1_554
O9 Zr0 2.114352 1_565
O9 Zr1 2.114352 1_565
O10 Zr3 2.108593 1_555
O10 Zr2 2.108593 1_554
O11 Zr3 2.114352 1_455
O11 Zr2 2.114352 1_455
