# generated using pymatgen
data_Ca2Al4Si8O33
_symmetry_space_group_name_H-M   'P 1'
_cell_length_a   10.01769007
_cell_length_b   10.01769007
_cell_length_c   7.46428717
_cell_angle_alpha   75.09055820
_cell_angle_beta   75.09055820
_cell_angle_gamma   83.24947894
_symmetry_Int_Tables_number   1
_chemical_formula_structural   Ca2Al4Si8O33
_chemical_formula_sum   'Ca2 Al4 Si8 O33'
_cell_volume   698.42568711
_cell_formula_units_Z   1
loop_
 _symmetry_equiv_pos_site_id
 _symmetry_equiv_pos_as_xyz
  1  'x, y, z'
loop_
 _atom_site_type_symbol
 _atom_site_label
 _atom_site_symmetry_multiplicity
 _atom_site_fract_x
 _atom_site_fract_y
 _atom_site_fract_z
 _atom_site_occupancy
  Ca  Ca0  1  0.75220000  0.75220000  0.28253800  1
  Ca  Ca1  1  0.24780000  0.24780000  0.71746200  1
  Al  Al0  1  0.82272800  0.43580300  0.26714500  1
  Al  Al1  1  0.43580300  0.82272800  0.26714500  1
  Al  Al2  1  0.17727200  0.56419700  0.73285500  1
  Al  Al3  1  0.56419700  0.17727200  0.73285500  1
  Si  Si0  1  0.85589700  0.62215000  0.84779000  1
  Si  Si1  1  0.62215000  0.85589700  0.84779000  1
  Si  Si2  1  0.14410300  0.37785000  0.15221000  1
  Si  Si3  1  0.37785000  0.14410300  0.15221000  1
  Si  Si4  1  0.69411500  0.45994800  0.68500700  1
  Si  Si5  1  0.45994800  0.69411500  0.68500700  1
  Si  Si6  1  0.30588500  0.54005200  0.31499300  1
  Si  Si7  1  0.54005200  0.30588500  0.31499300  1
  O  O0  1  0.76328500  0.76328500  0.77880400  1
  O  O1  1  0.23671500  0.23671500  0.22119600  1
  O  O2  1  0.83919700  0.59194500  0.07910800  1
  O  O3  1  0.59194500  0.83919700  0.07910800  1
  O  O4  1  0.16080300  0.40805500  0.92089200  1
  O  O5  1  0.40805500  0.16080300  0.92089200  1
  O  O6  1  0.76055400  0.52286000  0.45551000  1
  O  O7  1  0.52286000  0.76055400  0.45551000  1
  O  O8  1  0.23944600  0.47714000  0.54449000  1
  O  O9  1  0.47714000  0.23944600  0.54449000  1
  O  O10  1  0.80072000  0.49046200  0.80177600  1
  O  O11  1  0.49046200  0.80072000  0.80177600  1
  O  O12  1  0.19928000  0.50953800  0.19822400  1
  O  O13  1  0.50953800  0.19928000  0.19822400  1
  O  O14  1  0.01434900  0.64894900  0.73187100  1
  O  O15  1  0.64894900  0.01434900  0.73187100  1
  O  O16  1  0.98565100  0.35105100  0.26812900  1
  O  O17  1  0.35105100  0.98565100  0.26812900  1
  O  O18  1  0.54582800  0.54582800  0.74244300  1
  O  O19  1  0.45417200  0.45417200  0.25755700  1
  O  O20  1  0.70259200  0.32596200  0.26605400  1
  O  O21  1  0.32596200  0.70259200  0.26605400  1
  O  O22  1  0.29740800  0.67403800  0.73394600  1
  O  O23  1  0.67403800  0.29740800  0.73394600  1
  O  O24  1  0.92084600  0.07915400  0.00000000  1
  O  O25  1  0.07915400  0.92084600  0.00000000  1
  O  O26  1  0.93861000  0.93861000  0.96286600  1
  O  O27  1  0.06139000  0.06139000  0.03713400  1
  O  O28  1  0.00000000  0.00000000  0.50000000  1
  O  O29  1  0.01666900  0.26165400  0.63103900  1
  O  O30  1  0.26165400  0.01666900  0.63103900  1
  O  O31  1  0.98333100  0.73834600  0.36896100  1
  O  O32  1  0.73834600  0.98333100  0.36896100  1
loop_
_geom_bond_atom_site_label_1
_geom_bond_atom_site_label_2
_geom_bond_distance
_geom_bond_site_symmetry_2
Ca0 O6 2.331584 1_555
Ca0 O7 2.331584 1_555
Ca0 O2 2.426319 1_555
Ca0 O3 2.426319 1_555
Ca0 O31 2.538396 1_555
Ca0 O32 2.538396 1_555
Ca0 O26 2.983611 1_554
Ca1 O8 2.331584 1_555
Ca1 O9 2.331584 1_555
Ca1 O4 2.426319 1_555
Ca1 O5 2.426319 1_555
Ca1 O30 2.538396 1_555
Ca1 O29 2.538396 1_555
Ca1 O27 2.983611 1_556
Al0 O20 1.726325 1_555
Al0 O16 1.749820 1_555
Al0 O6 1.782701 1_555
Al0 O2 1.804342 1_555
Al1 O21 1.726325 1_555
Al1 O17 1.749820 1_555
Al1 O7 1.782701 1_555
Al1 O3 1.804342 1_555
Al2 O22 1.726325 1_555
Al2 O14 1.749820 1_555
Al2 O8 1.782701 1_555
Al2 O4 1.804342 1_555
Al3 O23 1.726325 1_555
Al3 O15 1.749820 1_555
Al3 O9 1.782701 1_555
Al3 O5 1.804342 1_555
O0 Si1 1.639414 1_555
O0 Si0 1.639414 1_555
O1 Si3 1.639414 1_555
O1 Si2 1.639414 1_555
O2 Si0 1.641704 1_554
O3 Si1 1.641704 1_554
O4 Si2 1.641704 1_556
O5 Si3 1.641704 1_556
O6 Si4 1.652578 1_555
O7 Si5 1.652578 1_555
O8 Si6 1.652578 1_555
O9 Si7 1.652578 1_555
O10 Si0 1.632815 1_555
O10 Si4 1.639035 1_555
O11 Si1 1.632815 1_555
O11 Si5 1.639035 1_555
O12 Si2 1.632815 1_555
O12 Si6 1.639035 1_555
O13 Si3 1.632815 1_555
O13 Si7 1.639035 1_555
O14 Si0 1.616859 1_455
O15 Si1 1.616859 1_545
O16 Si2 1.616859 1_655
O17 Si3 1.616859 1_565
O18 Si5 1.640814 1_555
O18 Si4 1.640814 1_555
O19 Si6 1.640814 1_555
O19 Si7 1.640814 1_555
O20 Si7 1.599463 1_555
O21 Si6 1.599463 1_555
O22 Si5 1.599463 1_555
O23 Si4 1.599463 1_555
O24 O26 1.485693 1_544
O24 O27 1.485693 1_655
O25 O26 1.485693 1_454
O25 O27 1.485693 1_565
