# generated using pymatgen
data_Ba3Eu3(Fe3O8)2
_symmetry_space_group_name_H-M   'P 1'
_cell_length_a   8.84650046
_cell_length_b   8.84650046
_cell_length_c   9.72162712
_cell_angle_alpha   57.58053413
_cell_angle_beta   57.58053413
_cell_angle_gamma   37.46306278
_symmetry_Int_Tables_number   1
_chemical_formula_structural   Ba3Eu3(Fe3O8)2
_chemical_formula_sum   'Ba3 Eu3 Fe6 O16'
_cell_volume   381.47788820
_cell_formula_units_Z   1
loop_
 _symmetry_equiv_pos_site_id
 _symmetry_equiv_pos_as_xyz
  1  'x, y, z'
loop_
 _atom_site_type_symbol
 _atom_site_label
 _atom_site_symmetry_multiplicity
 _atom_site_fract_x
 _atom_site_fract_y
 _atom_site_fract_z
 _atom_site_occupancy
  Ba  Ba0  1  0.66683300  0.66683300  0.16191700  1
  Ba  Ba1  1  0.00000000  0.00000000  0.50000000  1
  Ba  Ba2  1  0.33316700  0.33316700  0.83808300  1
  Eu  Eu0  1  0.50000000  0.50000000  0.00000000  1
  Eu  Eu1  1  0.84068600  0.84068600  0.31821100  1
  Eu  Eu2  1  0.15931400  0.15931400  0.68178900  1
  Fe  Fe0  1  0.24517400  0.24517400  0.25178700  1
  Fe  Fe1  1  0.58445500  0.58445500  0.57827600  1
  Fe  Fe2  1  0.92105600  0.92105600  0.92018700  1
  Fe  Fe3  1  0.41554500  0.41554500  0.42172400  1
  Fe  Fe4  1  0.75482600  0.75482600  0.74821300  1
  Fe  Fe5  1  0.07894400  0.07894400  0.07981300  1
  O  O0  1  0.58140300  0.10021800  0.10261700  1
  O  O1  1  0.93490500  0.43408200  0.43430300  1
  O  O2  1  0.27559300  0.75712800  0.75418500  1
  O  O3  1  0.72440700  0.24287200  0.24581500  1
  O  O4  1  0.06509500  0.56591800  0.56569700  1
  O  O5  1  0.41859700  0.89978200  0.89738300  1
  O  O6  1  0.43408200  0.93490500  0.43430300  1
  O  O7  1  0.75712800  0.27559300  0.75418500  1
  O  O8  1  0.10021800  0.58140300  0.10261700  1
  O  O9  1  0.56591800  0.06509500  0.56569700  1
  O  O10  1  0.89978200  0.41859700  0.89738300  1
  O  O11  1  0.24287200  0.72440700  0.24581500  1
  O  O12  1  0.16216100  0.16216100  0.16987700  1
  O  O13  1  0.50000000  0.50000000  0.50000000  1
  O  O14  1  0.83783900  0.83783900  0.83012300  1
  O  O15  1  0.00000000  0.00000000  0.00000000  1
loop_
_geom_bond_atom_site_label_1
_geom_bond_atom_site_label_2
_geom_bond_distance
_geom_bond_site_symmetry_2
Ba0 O12 2.841839 1_655
Ba0 O12 2.841839 1_565
Ba0 O14 2.854886 1_554
Ba0 O13 2.866107 1_555
Ba0 O5 2.978533 1_554
Ba0 O10 2.978533 1_554
Ba0 O0 3.016636 1_565
Ba0 O8 3.016636 1_655
Ba0 O3 3.020649 1_555
Ba0 O11 3.020649 1_555
Ba0 O6 3.164046 1_555
Ba0 O1 3.164046 1_555
Ba1 O12 2.794585 1_555
Ba1 O14 2.794585 1_445
Ba1 O13 2.840914 1_545
Ba1 O13 2.840914 1_455
Ba1 O11 3.019583 1_545
Ba1 O3 3.019583 1_455
Ba1 O7 3.019583 1_455
Ba1 O2 3.019583 1_545
Ba1 O9 3.120900 1_455
Ba1 O4 3.120900 1_545
Ba1 O6 3.120900 1_545
Ba1 O1 3.120900 1_455
Ba2 O14 2.841839 1_455
Ba2 O14 2.841839 1_545
Ba2 O12 2.854886 1_556
Ba2 O13 2.866107 1_555
Ba2 O0 2.978533 1_556
Ba2 O8 2.978533 1_556
Ba2 O10 3.016636 1_455
Ba2 O5 3.016636 1_545
Ba2 O7 3.020649 1_555
Ba2 O2 3.020649 1_555
Ba2 O9 3.164046 1_555
Ba2 O4 3.164046 1_555
Eu0 O2 2.629760 1_554
Eu0 O7 2.629760 1_554
Eu0 O3 2.629760 1_555
Eu0 O11 2.629760 1_555
Eu0 O0 2.639315 1_555
Eu0 O8 2.639315 1_555
Eu0 O10 2.639315 1_554
Eu0 O5 2.639315 1_554
Eu0 O15 2.840914 1_655
Eu0 O15 2.840914 1_565
Eu1 O3 2.548261 1_565
Eu1 O11 2.548261 1_655
Eu1 O0 2.561320 1_565
Eu1 O8 2.561320 1_655
Eu1 O1 2.608321 1_555
Eu1 O6 2.608321 1_555
Eu1 O9 2.613133 1_565
Eu1 O4 2.613133 1_655
Eu1 O15 2.710384 1_665
Eu2 O2 2.548261 1_545
Eu2 O7 2.548261 1_455
Eu2 O5 2.561320 1_545
Eu2 O10 2.561320 1_455
Eu2 O9 2.608321 1_555
Eu2 O4 2.608321 1_555
Eu2 O6 2.613133 1_545
Eu2 O1 2.613133 1_455
Eu2 O15 2.710384 1_556
Fe0 O12 1.955220 1_555
Fe0 O0 1.977008 1_555
Fe0 O8 1.977008 1_555
Fe0 O6 2.037304 1_545
Fe0 O1 2.037304 1_455
Fe1 O13 1.949577 1_555
Fe1 O7 1.971958 1_555
Fe1 O2 1.971958 1_555
Fe1 O1 2.033921 1_555
Fe1 O6 2.033921 1_555
Fe2 O15 1.874516 1_666
Fe2 O14 2.023156 1_555
Fe2 O2 2.099092 1_655
Fe2 O7 2.099092 1_565
Fe2 O0 2.103757 1_566
Fe2 O8 2.103757 1_656
Fe3 O13 1.949577 1_555
Fe3 O3 1.971958 1_555
Fe3 O11 1.971958 1_555
Fe3 O9 2.033921 1_555
Fe3 O4 2.033921 1_555
Fe4 O14 1.955220 1_555
Fe4 O5 1.977008 1_555
Fe4 O10 1.977008 1_555
Fe4 O9 2.037304 1_565
Fe4 O4 2.037304 1_655
Fe5 O15 1.874516 1_555
Fe5 O12 2.023156 1_555
Fe5 O11 2.099092 1_545
Fe5 O3 2.099092 1_455
Fe5 O5 2.103757 1_544
Fe5 O10 2.103757 1_454
