# generated using pymatgen
data_K2LaCl5
_symmetry_space_group_name_H-M   'P 1'
_cell_length_a   8.03025159
_cell_length_b   8.86531624
_cell_length_c   12.76582494
_cell_angle_alpha   90.00000000
_cell_angle_beta   90.00000000
_cell_angle_gamma   90.00000000
_symmetry_Int_Tables_number   1
_chemical_formula_structural   K2LaCl5
_chemical_formula_sum   'K8 La4 Cl20'
_cell_volume   908.80826673
_cell_formula_units_Z   4
loop_
 _symmetry_equiv_pos_site_id
 _symmetry_equiv_pos_as_xyz
  1  'x, y, z'
loop_
 _atom_site_type_symbol
 _atom_site_label
 _atom_site_symmetry_multiplicity
 _atom_site_fract_x
 _atom_site_fract_y
 _atom_site_fract_z
 _atom_site_occupancy
  K  K0  1  0.45248464  0.99501268  0.67201180  1
  K  K1  1  0.04751536  0.50498732  0.17201180  1
  K  K2  1  0.54751536  0.49501268  0.32798820  1
  K  K3  1  0.95248464  0.00498732  0.82798820  1
  K  K4  1  0.54751536  0.00498732  0.32798820  1
  K  K5  1  0.95248464  0.49501268  0.82798820  1
  K  K6  1  0.45248464  0.50498732  0.67201180  1
  K  K7  1  0.04751536  0.99501268  0.17201180  1
  La  La0  1  0.92217301  0.75000000  0.50673861  1
  La  La1  1  0.57782699  0.75000000  0.00673861  1
  La  La2  1  0.07782699  0.25000000  0.49326139  1
  La  La3  1  0.42217301  0.25000000  0.99326139  1
  Cl  Cl0  1  0.06918087  0.25000000  0.99347716  1
  Cl  Cl1  1  0.43081913  0.25000000  0.49347716  1
  Cl  Cl2  1  0.93081913  0.75000000  0.00652284  1
  Cl  Cl3  1  0.56918087  0.75000000  0.50652284  1
  Cl  Cl4  1  0.66998068  0.75000000  0.79141810  1
  Cl  Cl5  1  0.83001932  0.75000000  0.29141810  1
  Cl  Cl6  1  0.33001932  0.25000000  0.20858190  1
  Cl  Cl7  1  0.16998068  0.25000000  0.70858190  1
  Cl  Cl8  1  0.13410751  0.75000000  0.68191656  1
  Cl  Cl9  1  0.36589249  0.75000000  0.18191656  1
  Cl  Cl10  1  0.86589249  0.25000000  0.31808344  1
  Cl  Cl11  1  0.63410751  0.25000000  0.81808344  1
  Cl  Cl12  1  0.83416194  0.04338595  0.58114986  1
  Cl  Cl13  1  0.66583806  0.45661405  0.08114986  1
  Cl  Cl14  1  0.16583806  0.54338595  0.41885014  1
  Cl  Cl15  1  0.33416194  0.95661405  0.91885014  1
  Cl  Cl16  1  0.16583806  0.95661405  0.41885014  1
  Cl  Cl17  1  0.33416194  0.54338595  0.91885014  1
  Cl  Cl18  1  0.83416194  0.45661405  0.58114986  1
  Cl  Cl19  1  0.66583806  0.04338595  0.08114986  1
loop_
_geom_bond_atom_site_label_1
_geom_bond_atom_site_label_2
_geom_bond_distance
_geom_bond_site_symmetry_2
Cl0 La3 2.834617 1_555
Cl0 K5 3.171645 1_455
Cl0 K3 3.171645 1_455
Cl0 K1 3.214780 1_556
Cl0 K7 3.214780 1_546
Cl1 La2 2.834617 1_555
Cl1 K2 3.171645 1_555
Cl1 K4 3.171645 1_555
Cl1 K6 3.214780 1_555
Cl1 K0 3.214780 1_545
Cl2 La1 2.834617 1_555
Cl2 K1 3.171645 1_655
Cl2 K7 3.171645 1_655
Cl2 K3 3.214780 1_564
Cl2 K5 3.214780 1_554
Cl3 La0 2.834617 1_555
Cl3 K6 3.171645 1_555
Cl3 K0 3.171645 1_555
Cl3 K4 3.214780 1_565
Cl3 K2 3.214780 1_555
Cl4 La1 2.846615 1_556
Cl4 K0 3.176801 1_555
Cl4 K6 3.176801 1_555
Cl4 K3 3.236425 1_565
Cl4 K5 3.236425 1_555
Cl5 La0 2.846615 1_555
Cl5 K7 3.176801 1_655
Cl5 K1 3.176801 1_655
Cl5 K4 3.236425 1_565
Cl5 K2 3.236425 1_555
Cl6 La3 2.846615 1_554
Cl6 K2 3.176801 1_555
Cl6 K4 3.176801 1_555
Cl6 K1 3.236425 1_555
Cl6 K7 3.236425 1_545
Cl7 La2 2.846615 1_555
Cl7 K5 3.176801 1_455
Cl7 K3 3.176801 1_455
Cl7 K0 3.236425 1_545
Cl7 K6 3.236425 1_555
Cl8 La0 2.810235 1_455
Cl8 K3 3.273288 1_465
Cl8 K5 3.273288 1_455
Cl8 K6 3.357160 1_555
Cl8 K0 3.357160 1_555
Cl9 La1 2.810235 1_555
Cl9 K4 3.273288 1_565
Cl9 K2 3.273288 1_555
Cl9 K7 3.357160 1_555
Cl9 K1 3.357160 1_555
Cl10 La2 2.810235 1_655
Cl10 K1 3.273288 1_655
Cl10 K7 3.273288 1_645
Cl10 K2 3.357160 1_555
Cl10 K4 3.357160 1_555
Cl11 La3 2.810235 1_555
Cl11 K0 3.273288 1_545
Cl11 K6 3.273288 1_555
Cl11 K5 3.357160 1_555
Cl11 K3 3.357160 1_555
Cl12 La0 2.857768 1_545
Cl12 La2 2.905611 1_655
Cl12 K0 3.305049 1_545
Cl12 K3 3.308790 1_555
Cl13 La1 2.857768 1_555
Cl13 La3 2.905611 1_554
Cl13 K1 3.305049 1_655
Cl13 K2 3.308790 1_555
Cl14 La2 2.857768 1_555
Cl14 La0 2.905611 1_455
Cl14 K2 3.305049 1_555
Cl14 K1 3.308790 1_555
Cl15 La3 2.857768 1_565
Cl15 La1 2.905611 1_556
Cl15 K3 3.305049 1_465
Cl15 K0 3.308790 1_555
Cl16 La2 2.857768 1_565
Cl16 La0 2.905611 1_455
Cl16 K4 3.305049 1_565
Cl16 K7 3.308790 1_555
Cl17 La3 2.857768 1_555
Cl17 La1 2.905611 1_556
Cl17 K5 3.305049 1_455
Cl17 K6 3.308790 1_555
Cl18 La0 2.857768 1_555
Cl18 La2 2.905611 1_655
Cl18 K6 3.305049 1_555
Cl18 K5 3.308790 1_555
Cl19 La1 2.857768 1_545
Cl19 La3 2.905611 1_554
Cl19 K7 3.305049 1_645
Cl19 K4 3.308790 1_555
