# generated using pymatgen
data_Li6Co6O5F11
_symmetry_space_group_name_H-M   'P 1'
_cell_length_a   6.04888338
_cell_length_b   6.04427718
_cell_length_c   10.41929062
_cell_angle_alpha   106.37696295
_cell_angle_beta   106.48993383
_cell_angle_gamma   59.64786528
_symmetry_Int_Tables_number   1
_chemical_formula_structural   Li6Co6O5F11
_chemical_formula_sum   'Li6 Co6 O5 F11'
_cell_volume   310.75853406
_cell_formula_units_Z   1
loop_
 _symmetry_equiv_pos_site_id
 _symmetry_equiv_pos_as_xyz
  1  'x, y, z'
loop_
 _atom_site_type_symbol
 _atom_site_label
 _atom_site_symmetry_multiplicity
 _atom_site_fract_x
 _atom_site_fract_y
 _atom_site_fract_z
 _atom_site_occupancy
  Li  Li0  1  0.63018261  0.61842682  0.87281291  1
  Li  Li1  1  0.80520945  0.82571017  0.44163079  1
  Li  Li2  1  0.50617607  0.50465485  0.50583532  1
  Li  Li3  1  0.12768041  0.11439428  0.37682033  1
  Li  Li4  1  0.56612785  0.06233374  0.19348152  1
  Li  Li5  1  0.99650731  0.00834484  0.99450774  1
  Co  Co0  1  0.08272015  0.52768093  0.68745171  1
  Co  Co1  1  0.31681356  0.28498382  0.91541457  1
  Co  Co2  1  0.05344603  0.56919442  0.18871384  1
  Co  Co3  1  0.52894662  0.08193752  0.68973890  1
  Co  Co4  1  0.07070849  0.06895484  0.68713143  1
  Co  Co5  1  0.57418065  0.57455087  0.17971685  1
  O  O0  1  0.43163628  0.95528701  0.81300232  1
  O  O1  1  0.41161952  0.43658183  0.81228576  1
  O  O2  1  0.96754698  0.42222777  0.80982619  1
  O  O3  1  0.68991777  0.67195670  0.08142123  1
  O  O4  1  0.18565046  0.20005202  0.57091545  1
  F  F0  1  0.92652597  0.93018341  0.79580850  1
  F  F1  1  0.70397275  0.70336480  0.57074527  1
  F  F2  1  0.16859044  0.69743496  0.56662991  1
  F  F3  1  0.92604722  0.92162245  0.30801744  1
  F  F4  1  0.45559213  0.91737450  0.30795246  1
  F  F5  1  0.92121894  0.45157875  0.31118415  1
  F  F6  1  0.20458796  0.67153916  0.06911512  1
  F  F7  1  0.43607048  0.45004786  0.29444270  1
  F  F8  1  0.69408325  0.16802499  0.56664797  1
  F  F9  1  0.20164629  0.20653716  0.06888841  1
  F  F10  1  0.66659436  0.20502053  0.06985922  1
loop_
_geom_bond_atom_site_label_1
_geom_bond_atom_site_label_2
_geom_bond_distance
_geom_bond_site_symmetry_2
Li0 O0 1.948252 1_555
Li0 O2 1.969028 1_555
Li0 O1 1.989468 1_555
Li0 O3 2.057983 1_556
Li3 O4 1.916066 1_555
Li4 O3 2.156059 1_545
Co0 O4 1.900182 1_555
Co0 O1 1.944411 1_555
Co0 O2 1.982099 1_455
Co0 F1 2.131417 1_455
Co0 F2 2.132024 1_555
Co0 F0 2.195377 1_455
Co1 O0 1.847977 1_545
Co1 O1 1.938861 1_555
Co1 O2 1.945729 1_455
Co1 F9 2.158932 1_556
Co1 F10 2.184480 1_556
Co1 F6 2.321356 1_556
Co2 F3 2.017003 1_455
Co2 O3 2.021528 1_455
Co2 F9 2.067231 1_555
Co2 F7 2.098655 1_555
Co2 F6 2.103416 1_555
Co2 F5 2.106895 1_455
Co3 O4 1.973640 1_555
Co3 O0 2.005220 1_545
Co3 O1 2.040209 1_555
Co3 F8 2.131260 1_555
Co3 F1 2.142657 1_545
Co3 F0 2.163287 1_545
Co4 O2 2.037165 1_455
Co4 O4 2.037968 1_555
Co4 O0 2.079710 1_545
Co4 F2 2.111387 1_545
Co4 F8 2.132178 1_455
Co4 F0 2.140534 1_445
Co5 O3 1.746218 1_555
Co5 F4 2.018449 1_555
Co5 F5 2.049466 1_555
Co5 F6 2.064842 1_555
Co5 F10 2.066669 1_555
Co5 F7 2.098246 1_555
F0 Li5 1.959998 1_565
F1 Li2 1.966286 1_555
F1 Li1 2.053761 1_555
F2 Li2 1.960157 1_555
F2 Li1 2.085847 1_455
F3 Li3 1.956503 1_665
F3 Li4 2.028159 1_565
F3 Li1 2.066267 1_555
F4 Li3 1.950961 1_565
F4 Li4 2.066722 1_565
F4 Li1 2.073200 1_555
F5 Li3 1.977318 1_655
F5 Li1 2.158236 1_555
F6 Li5 2.019944 1_464
F7 Li2 2.083580 1_555
F7 Li4 2.105641 1_555
F8 Li2 1.953010 1_555
F8 Li1 2.000304 1_545
F9 Li5 2.002047 1_454
F9 Li4 2.092103 1_555
F10 Li5 1.994398 1_554
F10 Li4 2.091097 1_555
