# generated using pymatgen
data_KMg30CoO32
_symmetry_space_group_name_H-M   'P 1'
_cell_length_a   8.59154300
_cell_length_b   8.59154300
_cell_length_c   8.53706400
_cell_angle_alpha   90.00000000
_cell_angle_beta   90.00000000
_cell_angle_gamma   90.00000000
_symmetry_Int_Tables_number   1
_chemical_formula_structural   KMg30CoO32
_chemical_formula_sum   'K1 Mg30 Co1 O32'
_cell_volume   630.16005927
_cell_formula_units_Z   1
loop_
 _symmetry_equiv_pos_site_id
 _symmetry_equiv_pos_as_xyz
  1  'x, y, z'
loop_
 _atom_site_type_symbol
 _atom_site_label
 _atom_site_symmetry_multiplicity
 _atom_site_fract_x
 _atom_site_fract_y
 _atom_site_fract_z
 _atom_site_occupancy
  K  K0  1  0.00000000  0.00000000  0.50000000  1
  Mg  Mg0  1  0.50000000  0.00000000  0.00000000  1
  Mg  Mg1  1  0.50000000  0.00000000  0.50000000  1
  Mg  Mg2  1  0.00000000  0.50000000  0.00000000  1
  Mg  Mg3  1  0.00000000  0.50000000  0.50000000  1
  Mg  Mg4  1  0.50000000  0.50000000  0.00000000  1
  Mg  Mg5  1  0.50000000  0.50000000  0.50000000  1
  Mg  Mg6  1  0.25331600  0.00000000  0.25019100  1
  Mg  Mg7  1  0.25331600  0.00000000  0.74980900  1
  Mg  Mg8  1  0.74668400  0.00000000  0.25019100  1
  Mg  Mg9  1  0.74668400  0.00000000  0.74980900  1
  Mg  Mg10  1  0.25007400  0.50000000  0.25109600  1
  Mg  Mg11  1  0.25007400  0.50000000  0.74890400  1
  Mg  Mg12  1  0.74992600  0.50000000  0.25109600  1
  Mg  Mg13  1  0.74992600  0.50000000  0.74890400  1
  Mg  Mg14  1  0.00000000  0.25331600  0.25019100  1
  Mg  Mg15  1  0.00000000  0.25331600  0.74980900  1
  Mg  Mg16  1  0.50000000  0.25007400  0.25109600  1
  Mg  Mg17  1  0.50000000  0.25007400  0.74890400  1
  Mg  Mg18  1  0.00000000  0.74668400  0.25019100  1
  Mg  Mg19  1  0.00000000  0.74668400  0.74980900  1
  Mg  Mg20  1  0.50000000  0.74992600  0.25109600  1
  Mg  Mg21  1  0.50000000  0.74992600  0.74890400  1
  Mg  Mg22  1  0.25036200  0.25036200  0.00000000  1
  Mg  Mg23  1  0.25149600  0.25149600  0.50000000  1
  Mg  Mg24  1  0.74963800  0.25036200  0.00000000  1
  Mg  Mg25  1  0.74850400  0.25149600  0.50000000  1
  Mg  Mg26  1  0.25036200  0.74963800  0.00000000  1
  Mg  Mg27  1  0.25149600  0.74850400  0.50000000  1
  Mg  Mg28  1  0.74963800  0.74963800  0.00000000  1
  Mg  Mg29  1  0.74850400  0.74850400  0.50000000  1
  Co  Co0  1  0.00000000  0.00000000  0.00000000  1
  O  O0  1  0.00000000  0.24546000  0.00000000  1
  O  O1  1  0.00000000  0.27307600  0.50000000  1
  O  O2  1  0.50000000  0.24918000  0.00000000  1
  O  O3  1  0.50000000  0.25395400  0.50000000  1
  O  O4  1  0.00000000  0.75454000  0.00000000  1
  O  O5  1  0.00000000  0.72692400  0.50000000  1
  O  O6  1  0.50000000  0.75082000  0.00000000  1
  O  O7  1  0.50000000  0.74604600  0.50000000  1
  O  O8  1  0.24913600  0.24913600  0.24950300  1
  O  O9  1  0.24913600  0.24913600  0.75049700  1
  O  O10  1  0.75086400  0.24913600  0.24950300  1
  O  O11  1  0.75086400  0.24913600  0.75049700  1
  O  O12  1  0.24913600  0.75086400  0.24950300  1
  O  O13  1  0.24913600  0.75086400  0.75049700  1
  O  O14  1  0.75086400  0.75086400  0.24950300  1
  O  O15  1  0.75086400  0.75086400  0.75049700  1
  O  O16  1  0.00000000  0.00000000  0.22115200  1
  O  O17  1  0.00000000  0.00000000  0.77884800  1
  O  O18  1  0.50000000  0.00000000  0.24353500  1
  O  O19  1  0.50000000  0.00000000  0.75646500  1
  O  O20  1  0.00000000  0.50000000  0.24353500  1
  O  O21  1  0.00000000  0.50000000  0.75646500  1
  O  O22  1  0.50000000  0.50000000  0.24818400  1
  O  O23  1  0.50000000  0.50000000  0.75181600  1
  O  O24  1  0.24546000  0.00000000  0.00000000  1
  O  O25  1  0.27307600  0.00000000  0.50000000  1
  O  O26  1  0.75454000  0.00000000  0.00000000  1
  O  O27  1  0.72692400  0.00000000  0.50000000  1
  O  O28  1  0.24918000  0.50000000  0.00000000  1
  O  O29  1  0.25395400  0.50000000  0.50000000  1
  O  O30  1  0.75082000  0.50000000  0.00000000  1
  O  O31  1  0.74604600  0.50000000  0.50000000  1
loop_
_geom_bond_atom_site_label_1
_geom_bond_atom_site_label_2
_geom_bond_distance
_geom_bond_site_symmetry_2
K0 O25 2.346144 1_555
K0 O5 2.346144 1_545
K0 O1 2.346144 1_555
K0 O27 2.346144 1_455
K0 O17 2.380543 1_555
K0 O16 2.380543 1_555
Mg0 O19 2.079074 1_554
Mg0 O18 2.079074 1_555
Mg0 O6 2.140841 1_545
Mg0 O2 2.140841 1_555
Mg0 O24 2.186891 1_555
Mg0 O26 2.186891 1_555
Mg1 O25 1.949627 1_555
Mg1 O27 1.949627 1_555
Mg1 O7 2.181857 1_545
Mg1 O3 2.181857 1_555
Mg1 O18 2.189458 1_555
Mg1 O19 2.189458 1_555
Mg2 O21 2.079074 1_554
Mg2 O20 2.079074 1_555
Mg2 O30 2.140841 1_455
Mg2 O28 2.140841 1_555
Mg2 O0 2.186891 1_555
Mg2 O4 2.186891 1_555
Mg3 O1 1.949627 1_555
Mg3 O5 1.949627 1_555
Mg3 O29 2.181857 1_555
Mg3 O31 2.181857 1_455
Mg3 O20 2.189458 1_555
Mg3 O21 2.189458 1_555
Mg4 O23 2.118763 1_554
Mg4 O22 2.118763 1_555
Mg4 O28 2.154931 1_555
Mg4 O2 2.154931 1_555
Mg4 O30 2.154931 1_555
Mg4 O6 2.154931 1_555
Mg5 O29 2.113915 1_555
Mg5 O7 2.113915 1_555
Mg5 O31 2.113915 1_555
Mg5 O3 2.113915 1_555
Mg5 O23 2.149769 1_555
Mg5 O22 2.149769 1_555
Mg6 O18 2.120158 1_555
Mg6 O24 2.136963 1_555
Mg6 O25 2.139382 1_555
Mg6 O8 2.140772 1_555
Mg6 O12 2.140772 1_545
Mg6 O16 2.190449 1_555
Mg7 O19 2.120158 1_555
Mg7 O24 2.136963 1_556
Mg7 O25 2.139382 1_555
Mg7 O9 2.140772 1_555
Mg7 O13 2.140772 1_545
Mg7 O17 2.190449 1_555
Mg8 O18 2.120158 1_555
Mg8 O26 2.136963 1_555
Mg8 O27 2.139382 1_555
Mg8 O10 2.140772 1_555
Mg8 O14 2.140772 1_545
Mg8 O16 2.190449 1_655
Mg9 O19 2.120158 1_555
Mg9 O26 2.136963 1_556
Mg9 O27 2.139382 1_555
Mg9 O11 2.140772 1_555
Mg9 O15 2.140772 1_545
Mg9 O17 2.190449 1_655
Mg10 O29 2.125171 1_555
Mg10 O28 2.143636 1_555
Mg10 O22 2.147394 1_555
Mg10 O20 2.149491 1_555
Mg10 O12 2.155367 1_555
Mg10 O8 2.155367 1_555
Mg11 O29 2.125171 1_555
Mg11 O28 2.143636 1_556
Mg11 O23 2.147394 1_555
Mg11 O21 2.149491 1_555
Mg11 O9 2.155367 1_555
Mg11 O13 2.155367 1_555
Mg12 O31 2.125171 1_555
Mg12 O30 2.143636 1_555
Mg12 O22 2.147394 1_555
Mg12 O20 2.149491 1_655
Mg12 O10 2.155367 1_555
Mg12 O14 2.155367 1_555
Mg13 O31 2.125171 1_555
Mg13 O30 2.143636 1_556
Mg13 O23 2.147394 1_555
Mg13 O21 2.149491 1_655
Mg13 O11 2.155367 1_555
Mg13 O15 2.155367 1_555
Mg14 O20 2.120158 1_555
Mg14 O0 2.136963 1_555
Mg14 O1 2.139382 1_555
Mg14 O8 2.140772 1_555
Mg14 O10 2.140772 1_455
Mg14 O16 2.190449 1_555
Mg15 O21 2.120158 1_555
Mg15 O0 2.136963 1_556
Mg15 O1 2.139382 1_555
Mg15 O9 2.140772 1_555
Mg15 O11 2.140772 1_455
Mg15 O17 2.190449 1_555
Mg16 O3 2.125171 1_555
Mg16 O2 2.143636 1_555
Mg16 O22 2.147394 1_555
Mg16 O18 2.149491 1_555
Mg16 O10 2.155367 1_555
Mg16 O8 2.155367 1_555
Mg17 O3 2.125171 1_555
Mg17 O2 2.143636 1_556
Mg17 O23 2.147394 1_555
Mg17 O19 2.149491 1_555
Mg17 O9 2.155367 1_555
Mg17 O11 2.155367 1_555
Mg18 O20 2.120158 1_555
Mg18 O4 2.136963 1_555
Mg18 O5 2.139382 1_555
Mg18 O12 2.140772 1_555
Mg18 O14 2.140772 1_455
Mg18 O16 2.190449 1_565
Mg19 O21 2.120158 1_555
Mg19 O4 2.136963 1_556
Mg19 O5 2.139382 1_555
Mg19 O13 2.140772 1_555
Mg19 O15 2.140772 1_455
Mg19 O17 2.190449 1_565
Mg20 O7 2.125171 1_555
Mg20 O6 2.143636 1_555
Mg20 O22 2.147394 1_555
Mg20 O18 2.149491 1_565
Mg20 O12 2.155367 1_555
Mg20 O14 2.155367 1_555
Mg21 O7 2.125171 1_555
Mg21 O6 2.143636 1_556
Mg21 O23 2.147394 1_555
Mg21 O19 2.149491 1_565
Mg21 O13 2.155367 1_555
Mg21 O15 2.155367 1_555
Mg22 O8 2.130075 1_555
Mg22 O9 2.130075 1_554
Mg22 O2 2.144800 1_555
Mg22 O28 2.144800 1_555
Mg22 O0 2.151408 1_555
Mg22 O24 2.151408 1_555
Mg23 O29 2.135137 1_555
Mg23 O3 2.135137 1_555
Mg23 O8 2.138701 1_555
Mg23 O9 2.138701 1_555
Mg23 O25 2.168679 1_555
Mg23 O1 2.168679 1_555
Mg24 O10 2.130075 1_555
Mg24 O11 2.130075 1_554
Mg24 O30 2.144800 1_555
Mg24 O2 2.144800 1_555
Mg24 O26 2.151408 1_555
Mg24 O0 2.151408 1_655
Mg25 O3 2.135137 1_555
Mg25 O31 2.135137 1_555
Mg25 O11 2.138701 1_555
Mg25 O10 2.138701 1_555
Mg25 O27 2.168679 1_555
Mg25 O1 2.168679 1_655
Mg26 O13 2.130075 1_554
Mg26 O12 2.130075 1_555
Mg26 O28 2.144800 1_555
Mg26 O6 2.144800 1_555
Mg26 O4 2.151408 1_555
Mg26 O24 2.151408 1_565
Mg27 O29 2.135137 1_555
Mg27 O7 2.135137 1_555
Mg27 O13 2.138701 1_555
Mg27 O12 2.138701 1_555
Mg27 O5 2.168679 1_555
Mg27 O25 2.168679 1_565
Mg28 O14 2.130075 1_555
Mg28 O15 2.130075 1_554
Mg28 O30 2.144800 1_555
Mg28 O6 2.144800 1_555
Mg28 O26 2.151408 1_565
Mg28 O4 2.151408 1_655
Mg29 O7 2.135137 1_555
Mg29 O31 2.135137 1_555
Mg29 O14 2.138701 1_555
Mg29 O15 2.138701 1_555
Mg29 O27 2.168679 1_565
Mg29 O5 2.168679 1_655
Co0 O16 1.887989 1_555
Co0 O17 1.887989 1_554
Co0 O24 2.108880 1_555
Co0 O0 2.108880 1_555
Co0 O26 2.108880 1_455
Co0 O4 2.108880 1_545
