# generated using pymatgen
data_Ba2MoN3
_symmetry_space_group_name_H-M   'P 1'
_cell_length_a   6.67888917
_cell_length_b   11.88056270
_cell_length_c   13.39120838
_cell_angle_alpha   89.99999900
_cell_angle_beta   90.00329413
_cell_angle_gamma   152.79939275
_symmetry_Int_Tables_number   1
_chemical_formula_structural   Ba2MoN3
_chemical_formula_sum   'Ba8 Mo4 N12'
_cell_volume   485.71243221
_cell_formula_units_Z   4
loop_
 _symmetry_equiv_pos_site_id
 _symmetry_equiv_pos_as_xyz
  1  'x, y, z'
loop_
 _atom_site_type_symbol
 _atom_site_label
 _atom_site_symmetry_multiplicity
 _atom_site_fract_x
 _atom_site_fract_y
 _atom_site_fract_z
 _atom_site_occupancy
  Ba  Ba0  1  0.49970600  0.06216500  0.86475800  1
  Ba  Ba1  1  0.50029400  0.56246000  0.63524200  1
  Ba  Ba2  1  0.50029400  0.93783500  0.13524200  1
  Ba  Ba3  1  0.49970600  0.43754000  0.36475800  1
  Ba  Ba4  1  0.50119100  0.85940700  0.58555300  1
  Ba  Ba5  1  0.49880900  0.35821600  0.91444700  1
  Ba  Ba6  1  0.49880900  0.14059300  0.41444700  1
  Ba  Ba7  1  0.50119100  0.64178400  0.08555300  1
  Mo  Mo0  1  0.50069700  0.24062800  0.66214700  1
  Mo  Mo1  1  0.49930300  0.73993100  0.83785300  1
  Mo  Mo2  1  0.49930300  0.75937200  0.33785300  1
  Mo  Mo3  1  0.50069700  0.26006900  0.16214700  1
  N  N0  1  0.00000000  0.51865000  0.75000000  1
  N  N1  1  0.00000000  0.48135000  0.25000000  1
  N  N2  1  0.50467700  0.09154700  0.62493900  1
  N  N3  1  0.49532300  0.58687000  0.87506100  1
  N  N4  1  0.49532300  0.90845300  0.37506100  1
  N  N5  1  0.50467700  0.41313000  0.12493900  1
  N  N6  1  0.49788600  0.15905600  0.05221200  1
  N  N7  1  0.50211400  0.66117000  0.44778800  1
  N  N8  1  0.50211400  0.84094400  0.94778800  1
  N  N9  1  0.49788600  0.33883000  0.55221200  1
  N  N10  1  0.00000000  0.01692100  0.75000000  1
  N  N11  1  0.00000000  0.98307900  0.25000000  1
loop_
_geom_bond_atom_site_label_1
_geom_bond_atom_site_label_2
_geom_bond_distance
_geom_bond_site_symmetry_2
Ba0 N6 2.766117 1_556
Ba0 N8 2.866932 1_545
Ba0 N3 3.059434 1_655
Ba0 N3 3.086058 1_445
Ba0 N2 3.227362 1_555
Ba0 N10 3.255388 1_555
Ba0 N0 3.271773 1_655
Ba1 N7 2.766111 1_555
Ba1 N9 2.866943 1_555
Ba1 N2 3.059433 1_455
Ba1 N2 3.086057 1_665
Ba1 N3 3.227361 1_555
Ba1 N10 3.255379 1_665
Ba1 N0 3.271764 1_555
Ba2 N8 2.766117 1_554
Ba2 N6 2.866932 1_565
Ba2 N5 3.059434 1_455
Ba2 N5 3.086058 1_665
Ba2 N4 3.227362 1_555
Ba2 N11 3.255388 1_655
Ba2 N1 3.271773 1_555
Ba3 N9 2.766111 1_555
Ba3 N7 2.866943 1_555
Ba3 N4 3.059433 1_655
Ba3 N4 3.086057 1_445
Ba3 N5 3.227361 1_555
Ba3 N11 3.255379 1_545
Ba3 N1 3.271764 1_655
Ba4 N2 2.787617 1_565
Ba4 N4 2.885652 1_555
Ba4 N0 2.887726 1_555
Ba4 N10 2.891279 1_665
Ba4 N7 2.996016 1_555
Ba4 N9 3.083723 1_665
Ba4 N9 3.103527 1_455
Ba5 N3 2.787617 1_555
Ba5 N5 2.885652 1_556
Ba5 N0 2.887726 1_655
Ba5 N10 2.891279 1_555
Ba5 N6 2.996016 1_556
Ba5 N8 3.083723 1_445
Ba5 N8 3.103527 1_655
Ba6 N4 2.787617 1_545
Ba6 N2 2.885652 1_555
Ba6 N1 2.887726 1_655
Ba6 N11 2.891279 1_545
Ba6 N9 2.996016 1_555
Ba6 N7 3.083723 1_445
Ba6 N7 3.103527 1_655
Ba7 N5 2.787617 1_555
Ba7 N3 2.885652 1_554
Ba7 N1 2.887726 1_555
Ba7 N11 2.891279 1_655
Ba7 N8 2.996016 1_554
Ba7 N6 3.083723 1_665
Ba7 N6 3.103527 1_455
Mo0 N2 1.862726 1_555
Mo0 N9 1.888849 1_555
Mo0 N0 1.954705 1_655
Mo0 N10 1.954826 1_555
Mo1 N3 1.862726 1_555
Mo1 N8 1.888849 1_555
Mo1 N0 1.954705 1_555
Mo1 N10 1.954826 1_665
Mo2 N4 1.862726 1_555
Mo2 N7 1.888849 1_555
Mo2 N1 1.954705 1_555
Mo2 N11 1.954826 1_655
Mo3 N5 1.862726 1_555
Mo3 N6 1.888849 1_555
Mo3 N1 1.954705 1_655
Mo3 N11 1.954826 1_545
