# generated using pymatgen
data_Zr3(Cu2Ge)2
_symmetry_space_group_name_H-M   'P 1'
_cell_length_a   6.40495930
_cell_length_b   6.40495908
_cell_length_c   4.00452199
_cell_angle_alpha   90.00000000
_cell_angle_beta   90.00000000
_cell_angle_gamma   120.00000114
_symmetry_Int_Tables_number   1
_chemical_formula_structural   Zr3(Cu2Ge)2
_chemical_formula_sum   'Zr3 Cu4 Ge2'
_cell_volume   142.27023322
_cell_formula_units_Z   1
loop_
 _symmetry_equiv_pos_site_id
 _symmetry_equiv_pos_as_xyz
  1  'x, y, z'
loop_
 _atom_site_type_symbol
 _atom_site_label
 _atom_site_symmetry_multiplicity
 _atom_site_fract_x
 _atom_site_fract_y
 _atom_site_fract_z
 _atom_site_occupancy
  Zr  Zr0  1  0.00000000  0.59149260  0.50000000  1
  Zr  Zr1  1  0.40850740  0.40850740  0.50000000  1
  Zr  Zr2  1  0.59149260  -0.00000000  0.50000000  1
  Cu  Cu0  1  -0.00000000  -0.00000000  0.50000000  1
  Cu  Cu1  1  0.23864255  -0.00000000  -0.00000000  1
  Cu  Cu2  1  0.76135745  0.76135745  0.00000000  1
  Cu  Cu3  1  0.00000000  0.23864255  0.00000000  1
  Ge  Ge0  1  0.66666700  0.33333300  -0.00000000  1
  Ge  Ge1  1  0.33333300  0.66666700  -0.00000000  1
loop_
_geom_bond_atom_site_label_1
_geom_bond_atom_site_label_2
_geom_bond_distance
_geom_bond_site_symmetry_2
Cu0 Cu2 2.518997 1_446
Cu0 Cu2 2.518997 1_445
Cu0 Cu3 2.518997 1_556
Cu0 Cu3 2.518997 1_555
Cu0 Cu1 2.518998 1_556
Cu0 Cu1 2.518998 1_555
Cu0 Zr1 2.616473 1_555
Cu0 Zr0 2.616473 1_545
Cu0 Zr2 2.616473 1_455
Cu1 Ge1 2.494159 1_545
Cu1 Ge0 2.494163 1_555
Cu1 Cu3 2.647432 1_555
Cu1 Cu2 2.647432 1_445
Cu1 Zr2 3.019372 1_554
Cu1 Zr2 3.019372 1_555
Cu1 Zr0 3.031833 1_544
Cu1 Zr0 3.031833 1_545
Cu1 Zr1 3.031833 1_555
Cu1 Zr1 3.031833 1_554
Cu2 Ge0 2.494165 1_555
Cu2 Ge1 2.494165 1_555
Cu2 Cu3 2.647432 1_665
Cu2 Zr1 3.019372 1_555
Cu2 Zr1 3.019372 1_554
Cu2 Zr2 3.031833 1_564
Cu2 Zr2 3.031833 1_565
Cu2 Zr0 3.031833 1_655
Cu2 Zr0 3.031833 1_654
Cu3 Ge0 2.494159 1_455
Cu3 Ge1 2.494163 1_555
Cu3 Zr0 3.019372 1_555
Cu3 Zr0 3.019372 1_554
Cu3 Zr2 3.031833 1_455
Cu3 Zr2 3.031833 1_454
Cu3 Zr1 3.031833 1_555
Cu3 Zr1 3.031833 1_554
Ge0 Zr2 2.787663 1_554
Ge0 Zr2 2.787663 1_555
Ge0 Zr0 2.787665 1_654
Ge0 Zr0 2.787665 1_655
Ge0 Zr1 2.787668 1_555
Ge0 Zr1 2.787668 1_554
Ge1 Zr0 2.787663 1_555
Ge1 Zr0 2.787663 1_554
Ge1 Zr2 2.787665 1_565
Ge1 Zr2 2.787665 1_564
Ge1 Zr1 2.787668 1_555
Ge1 Zr1 2.787668 1_554
