# generated using pymatgen
data_LiAl2
_symmetry_space_group_name_H-M   'P 1'
_cell_length_a   6.78173244
_cell_length_b   6.78173244
_cell_length_c   6.78173244
_cell_angle_alpha   60.00000000
_cell_angle_beta   60.00000000
_cell_angle_gamma   60.00000000
_symmetry_Int_Tables_number   1
_chemical_formula_structural   LiAl2
_chemical_formula_sum   'Li4 Al8'
_cell_volume   220.54994699
_cell_formula_units_Z   4
loop_
 _symmetry_equiv_pos_site_id
 _symmetry_equiv_pos_as_xyz
  1  'x, y, z'
loop_
 _atom_site_type_symbol
 _atom_site_label
 _atom_site_symmetry_multiplicity
 _atom_site_fract_x
 _atom_site_fract_y
 _atom_site_fract_z
 _atom_site_occupancy
  Li  Li0  1  0.87500000  0.87500000  0.87500000  1
  Li  Li1  1  0.37500000  0.87500000  0.87500000  1
  Li  Li2  1  0.87500000  0.37500000  0.87500000  1
  Li  Li3  1  0.87500000  0.87500000  0.37500000  1
  Al  Al0  1  0.60152700  0.60152700  0.60152700  1
  Al  Al1  1  0.19541900  0.60152700  0.60152700  1
  Al  Al2  1  0.60152700  0.19541900  0.60152700  1
  Al  Al3  1  0.55458100  0.14847300  0.14847300  1
  Al  Al4  1  0.14847300  0.14847300  0.14847300  1
  Al  Al5  1  0.60152700  0.60152700  0.19541900  1
  Al  Al6  1  0.14847300  0.55458100  0.14847300  1
  Al  Al7  1  0.14847300  0.14847300  0.55458100  1
loop_
_geom_bond_atom_site_label_1
_geom_bond_atom_site_label_2
_geom_bond_distance
_geom_bond_site_symmetry_2
Al0 Li1 2.642082 1_555
Al0 Li3 2.642082 1_555
Al0 Li2 2.642082 1_555
Al0 Al1 2.754116 1_555
Al0 Al5 2.754116 1_555
Al0 Al2 2.754116 1_555
Al1 Li3 2.642082 1_455
Al1 Li2 2.642082 1_455
Al1 Li0 2.642082 1_455
Al1 Al5 2.754116 1_555
Al1 Al2 2.754116 1_555
Al2 Li1 2.642082 1_545
Al2 Li3 2.642082 1_545
Al2 Li0 2.642082 1_545
Al2 Al5 2.754116 1_555
Al3 Li0 2.642082 1_544
Al3 Li2 2.642082 1_554
Al3 Li3 2.642082 1_545
Al3 Al6 2.754116 1_555
Al3 Al7 2.754116 1_555
Al3 Al4 2.754116 1_555
Al4 Li2 2.642082 1_454
Al4 Li1 2.642082 1_544
Al4 Li3 2.642082 1_445
Al4 Al6 2.754116 1_555
Al4 Al7 2.754116 1_555
Al5 Li1 2.642082 1_554
Al5 Li2 2.642082 1_554
Al5 Li0 2.642082 1_554
Al6 Li0 2.642082 1_454
Al6 Li1 2.642082 1_554
Al6 Li3 2.642082 1_455
Al6 Al7 2.754116 1_555
Al7 Li0 2.642082 1_445
Al7 Li1 2.642082 1_545
Al7 Li2 2.642082 1_455
