# generated using pymatgen
data_MgTi3Fe2Co(PO4)6
_symmetry_space_group_name_H-M   'P 1'
_cell_length_a   8.81818958
_cell_length_b   8.74712259
_cell_length_c   8.74621159
_cell_angle_alpha   59.92125996
_cell_angle_beta   59.68414598
_cell_angle_gamma   59.70027956
_symmetry_Int_Tables_number   1
_chemical_formula_structural   MgTi3Fe2Co(PO4)6
_chemical_formula_sum   'Mg1 Ti3 Fe2 Co1 P6 O24'
_cell_volume   474.52245089
_cell_formula_units_Z   1
loop_
 _symmetry_equiv_pos_site_id
 _symmetry_equiv_pos_as_xyz
  1  'x, y, z'
loop_
 _atom_site_type_symbol
 _atom_site_label
 _atom_site_symmetry_multiplicity
 _atom_site_fract_x
 _atom_site_fract_y
 _atom_site_fract_z
 _atom_site_occupancy
  Mg  Mg0  1  0.87163300  0.37544800  0.37720500  1
  Ti  Ti0  1  0.03271700  0.65516800  0.65484100  1
  Ti  Ti1  1  0.43143900  0.85718700  0.85664300  1
  Ti  Ti2  1  0.26158300  0.24678000  0.24512800  1
  Fe  Fe0  1  0.99392300  0.00367900  0.00284600  1
  Fe  Fe1  1  0.47381300  0.50795700  0.50730200  1
  Co  Co0  1  0.60585300  0.13063100  0.13170700  1
  P  P0  1  0.23377400  0.25584700  0.55799400  1
  P  P1  1  0.23439800  0.95144300  0.25645400  1
  P  P2  1  0.23380500  0.55958100  0.95046400  1
  P  P3  1  0.73390300  0.46317300  0.05007400  1
  P  P4  1  0.73288400  0.04968300  0.75317400  1
  P  P5  1  0.73493000  0.75261600  0.46349200  1
  O  O0  1  0.07583300  0.13002800  0.30667100  1
  O  O1  1  0.07556700  0.48932200  0.12732500  1
  O  O2  1  0.07601200  0.30605600  0.48916800  1
  O  O3  1  0.22176300  0.09338200  0.74531000  1
  O  O4  1  0.40738400  0.20256600  0.38653800  1
  O  O5  1  0.24051200  0.41945500  0.57370300  1
  O  O6  1  0.22265800  0.94093300  0.09275900  1
  O  O7  1  0.24147000  0.76403700  0.41882200  1
  O  O8  1  0.56017800  0.60890000  0.99094800  1
  O  O9  1  0.24519000  0.57427200  0.76205700  1
  O  O10  1  0.78497800  0.26668900  0.04861400  1
  O  O11  1  0.55965500  0.99019500  0.83908500  1
  O  O12  1  0.40729000  0.00082400  0.20325600  1
  O  O13  1  0.21767600  0.74793600  0.94029200  1
  O  O14  1  0.69034800  0.45741700  0.24775100  1
  O  O15  1  0.40735100  0.39033900  0.00121800  1
  O  O16  1  0.69264900  0.24543500  0.60377300  1
  O  O17  1  0.78002500  0.04683100  0.90181800  1
  O  O18  1  0.69548000  0.60283200  0.45854800  1
  O  O19  1  0.55983300  0.83971300  0.61106400  1
  O  O20  1  0.78275100  0.90110200  0.26913300  1
  O  O21  1  0.90512200  0.66307500  0.52936000  1
  O  O22  1  0.90490500  0.52832600  0.90460100  1
  O  O23  1  0.90508400  0.90257300  0.66228900  1
loop_
_geom_bond_atom_site_label_1
_geom_bond_atom_site_label_2
_geom_bond_distance
_geom_bond_site_symmetry_2
Mg0 O18 2.015003 1_555
Mg0 O16 2.026323 1_555
Mg0 O14 2.051468 1_555
Mg0 O0 2.130006 1_655
Mg0 O2 2.158131 1_655
Mg0 O1 2.158754 1_655
Fe0 O10 2.179241 1_555
Fe0 O13 2.209052 1_644
Fe0 O20 2.215828 1_545
Fe0 O3 2.230778 1_654
Fe0 O6 2.244922 1_645
Fe0 O17 2.260709 1_554
Fe1 O14 2.184713 1_555
Fe1 O16 2.222409 1_555
Fe1 O9 2.224003 1_555
Fe1 O7 2.246397 1_555
Fe1 O5 2.262570 1_555
Fe1 O18 2.265408 1_555
Co0 O17 2.040281 1_554
Co0 O20 2.054913 1_545
Co0 O10 2.076186 1_555
Co0 O4 2.187039 1_555
Co0 O15 2.220964 1_555
Co0 O12 2.221352 1_555
O0 P1 1.565872 1_545
O0 Ti2 2.064574 1_555
O1 P2 1.565538 1_554
O1 Ti2 2.063198 1_555
O2 P0 1.566693 1_555
O2 Ti2 2.056581 1_555
O3 P0 1.535499 1_555
O3 Ti1 2.140502 1_545
O4 P0 1.572473 1_555
O4 Ti2 1.989068 1_555
O5 P0 1.536746 1_555
O5 Ti0 2.110445 1_555
O6 P1 1.536273 1_555
O6 Ti1 2.123233 1_554
O7 P1 1.536411 1_555
O7 Ti0 2.125774 1_555
O8 P3 1.551676 1_556
O8 Ti1 1.920033 1_555
O9 P2 1.541344 1_555
O9 Ti0 2.159012 1_555
O10 P3 1.546596 1_555
O11 P4 1.555702 1_565
O11 Ti1 1.904849 1_555
O12 P1 1.573011 1_545
O12 Ti2 1.984694 1_555
O13 P2 1.540133 1_555
O13 Ti1 2.174014 1_555
O14 P3 1.549554 1_555
O15 P2 1.572155 1_554
O15 Ti2 1.988790 1_555
O16 P4 1.541909 1_555
O17 P4 1.538255 1_555
O18 P5 1.539915 1_555
O19 P5 1.554725 1_555
O19 Ti1 1.902129 1_555
O20 P5 1.539580 1_555
O21 P5 1.559535 1_555
O21 Ti0 1.888712 1_655
O22 P3 1.555926 1_556
O22 Ti0 1.902628 1_655
O23 P4 1.558397 1_565
O23 Ti0 1.887810 1_655
