# generated using pymatgen
data_HoMg(SbO3)2
_symmetry_space_group_name_H-M   'P 1'
_cell_length_a   5.59560000
_cell_length_b   5.86017400
_cell_length_c   8.29065700
_cell_angle_alpha   90.00000000
_cell_angle_beta   90.00000000
_cell_angle_gamma   90.00000000
_symmetry_Int_Tables_number   1
_chemical_formula_structural   HoMg(SbO3)2
_chemical_formula_sum   'Ho2 Mg2 Sb4 O12'
_cell_volume   271.86050588
_cell_formula_units_Z   2
loop_
 _symmetry_equiv_pos_site_id
 _symmetry_equiv_pos_as_xyz
  1  'x, y, z'
loop_
 _atom_site_type_symbol
 _atom_site_label
 _atom_site_symmetry_multiplicity
 _atom_site_fract_x
 _atom_site_fract_y
 _atom_site_fract_z
 _atom_site_occupancy
  Ho  Ho0  1  0.02337700  0.68038600  0.00000000  1
  Ho  Ho1  1  0.52337700  0.31961400  0.50000000  1
  Mg  Mg0  1  0.50559800  0.23431600  0.00000000  1
  Mg  Mg1  1  0.00559800  0.76568400  0.50000000  1
  Sb  Sb0  1  0.00917000  0.23520300  0.75156300  1
  Sb  Sb1  1  0.00917000  0.23520300  0.24843700  1
  Sb  Sb2  1  0.50917000  0.76479700  0.25156300  1
  Sb  Sb3  1  0.50917000  0.76479700  0.74843700  1
  O  O0  1  0.15013300  0.15579100  0.50000000  1
  O  O1  1  0.16542100  0.92652000  0.82093500  1
  O  O2  1  0.16542100  0.92652000  0.17906500  1
  O  O3  1  0.31349800  0.42797300  0.83251300  1
  O  O4  1  0.31349800  0.42797300  0.16748700  1
  O  O5  1  0.35186100  0.67383600  0.50000000  1
  O  O6  1  0.65013300  0.84420900  0.00000000  1
  O  O7  1  0.66542100  0.07348000  0.32093500  1
  O  O8  1  0.66542100  0.07348000  0.67906500  1
  O  O9  1  0.81349800  0.57202700  0.66748700  1
  O  O10  1  0.81349800  0.57202700  0.33251300  1
  O  O11  1  0.85186100  0.32616400  0.00000000  1
loop_
_geom_bond_atom_site_label_1
_geom_bond_atom_site_label_2
_geom_bond_distance
_geom_bond_site_symmetry_2
Ho0 O2 2.217242 1_555
Ho0 O1 2.217242 1_554
Ho0 O11 2.286930 1_455
Ho0 O6 2.298607 1_455
Ho0 O4 2.598377 1_555
Ho0 O3 2.598377 1_554
Ho1 O8 2.217242 1_555
Ho1 O7 2.217242 1_555
Ho1 O5 2.286930 1_555
Ho1 O0 2.298607 1_555
Ho1 O9 2.598377 1_555
Ho1 O10 2.598377 1_555
Mg0 O11 2.010921 1_555
Mg0 O3 2.090814 1_554
Mg0 O4 2.090814 1_555
Mg0 O6 2.424938 1_545
Mg1 O5 2.010921 1_555
Mg1 O9 2.090814 1_455
Mg1 O10 2.090814 1_455
Mg1 O0 2.424938 1_565
O0 Sb0 2.277839 1_555
O0 Sb1 2.277839 1_555
O1 Sb0 2.089849 1_565
O1 Sb3 2.226934 1_555
O2 Sb1 2.089849 1_565
O2 Sb2 2.226934 1_555
O3 Sb0 2.150911 1_555
O3 Sb3 2.362362 1_555
O4 Sb1 2.150911 1_555
O4 Sb2 2.362362 1_555
O5 Sb2 2.302466 1_555
O5 Sb3 2.302466 1_555
O6 Sb3 2.277839 1_554
O6 Sb2 2.277839 1_555
O7 Sb2 2.089849 1_545
O7 Sb1 2.226934 1_655
O8 Sb3 2.089849 1_545
O8 Sb0 2.226934 1_655
O9 Sb3 2.150911 1_555
O9 Sb0 2.362362 1_655
O10 Sb2 2.150911 1_555
O10 Sb1 2.362362 1_655
O11 Sb1 2.302466 1_655
O11 Sb0 2.302466 1_654
