# generated using pymatgen
data_Sm2TeMo6(H5O9)4
_symmetry_space_group_name_H-M   'P 1'
_cell_length_a   8.97848800
_cell_length_b   9.40416301
_cell_length_c   10.86435532
_cell_angle_alpha   71.35494551
_cell_angle_beta   75.98096210
_cell_angle_gamma   73.42350234
_symmetry_Int_Tables_number   1
_chemical_formula_structural   Sm2TeMo6(H5O9)4
_chemical_formula_sum   'Sm2 Te1 Mo6 H20 O36'
_cell_volume   821.46376663
_cell_formula_units_Z   1
loop_
 _symmetry_equiv_pos_site_id
 _symmetry_equiv_pos_as_xyz
  1  'x, y, z'
loop_
 _atom_site_type_symbol
 _atom_site_label
 _atom_site_symmetry_multiplicity
 _atom_site_fract_x
 _atom_site_fract_y
 _atom_site_fract_z
 _atom_site_occupancy
  Sm  Sm0  1  0.28253900  0.82507500  0.27412600  1
  Sm  Sm1  1  0.71746100  0.17492500  0.72587400  1
  Te  Te0  1  0.00000000  0.50000000  0.00000000  1
  Mo  Mo0  1  0.72027200  0.80248300  0.05616400  1
  Mo  Mo1  1  0.27972800  0.19751700  0.94383600  1
  Mo  Mo2  1  0.94792300  0.59557100  0.27759900  1
  Mo  Mo3  1  0.05207700  0.40442900  0.72240100  1
  Mo  Mo4  1  0.23321200  0.29175100  0.22015100  1
  Mo  Mo5  1  0.76678800  0.70824900  0.77984900  1
  H  H0  1  0.43829400  0.69703000  0.03289700  1
  H  H1  1  0.56170600  0.30297000  0.96710300  1
  H  H2  1  0.27532800  0.63957700  0.08191200  1
  H  H3  1  0.72467200  0.36042300  0.91808800  1
  H  H4  1  0.34589400  0.51742700  0.47151700  1
  H  H5  1  0.65410600  0.48257300  0.52848300  1
  H  H6  1  0.38829700  0.48316100  0.33537000  1
  H  H7  1  0.61170300  0.51683900  0.66463000  1
  H  H8  1  0.01231100  0.09051000  0.17416800  1
  H  H9  1  0.98768900  0.90949000  0.82583200  1
  H  H10  1  0.95762800  0.93882800  0.18283000  1
  H  H11  1  0.04237200  0.06117200  0.81717000  1
  H  H12  1  0.53815700  0.75336300  0.44943500  1
  H  H13  1  0.46184300  0.24663700  0.55056500  1
  H  H14  1  0.37571400  0.78702800  0.54227800  1
  H  H15  1  0.62428600  0.21297200  0.45772200  1
  H  H16  1  0.00574300  0.90163000  0.45968400  1
  H  H17  1  0.99425700  0.09837000  0.54031600  1
  H  H18  1  0.07142400  0.74646600  0.55655000  1
  H  H19  1  0.92857600  0.25353400  0.44345000  1
  O  O0  1  0.39763200  0.55615800  0.38075100  1
  O  O1  1  0.60236800  0.44384200  0.61924900  1
  O  O2  1  0.88210500  0.79743900  0.14765100  1
  O  O3  1  0.11789500  0.20256100  0.85234900  1
  O  O4  1  0.86430400  0.46483600  0.90139500  1
  O  O5  1  0.13569600  0.53516400  0.09860500  1
  O  O6  1  0.03557700  0.37399700  0.32823700  1
  O  O7  1  0.96442300  0.62600300  0.67176300  1
  O  O8  1  0.82850700  0.54548500  0.14443600  1
  O  O9  1  0.17149300  0.45451500  0.85556400  1
  O  O10  1  0.93298500  0.71777500  0.90902800  1
  O  O11  1  0.06701500  0.28222500  0.09097200  1
  O  O12  1  0.36448500  0.28037500  0.05019600  1
  O  O13  1  0.63551500  0.71962500  0.94980400  1
  O  O14  1  0.55709100  0.80710300  0.18428300  1
  O  O15  1  0.44290900  0.19289700  0.81571700  1
  O  O16  1  0.08965500  0.66384800  0.31568100  1
  O  O17  1  0.91034500  0.33615200  0.68431900  1
  O  O18  1  0.24136200  0.09419200  0.29414700  1
  O  O19  1  0.75863800  0.90580800  0.70585300  1
  O  O20  1  0.78568000  0.60374600  0.40357000  1
  O  O21  1  0.21432000  0.39625400  0.59643000  1
  O  O22  1  0.34588800  0.68952800  0.10315700  1
  O  O23  1  0.65411200  0.31047200  0.89684300  1
  O  O24  1  0.36666000  0.34009700  0.28425300  1
  O  O25  1  0.63334000  0.65990300  0.71574700  1
  O  O26  1  0.01247600  0.98303900  0.22563800  1
  O  O27  1  0.98752400  0.01696100  0.77436200  1
  O  O28  1  0.42863100  0.81185000  0.45040400  1
  O  O29  1  0.57136900  0.18815000  0.54959600  1
  O  O30  1  0.10469300  0.83633300  0.48768800  1
  O  O31  1  0.89530700  0.16366700  0.51231200  1
  O  O32  1  0.70943800  0.29904900  0.25849600  1
  O  O33  1  0.29056200  0.70095100  0.74150400  1
  O  O34  1  0.70019100  0.98937400  0.95096200  1
  O  O35  1  0.29980900  0.01062600  0.04903800  1
loop_
_geom_bond_atom_site_label_1
_geom_bond_atom_site_label_2
_geom_bond_distance
_geom_bond_site_symmetry_2
Mo0 O34 1.749979 1_554
Mo0 O14 1.760750 1_555
Mo0 O2 1.931753 1_555
Mo0 O13 1.965104 1_554
Mo0 O10 2.303131 1_554
Mo0 O8 2.309682 1_555
Mo1 O35 1.749979 1_556
Mo1 O15 1.760750 1_555
Mo1 O3 1.931753 1_555
Mo1 O12 1.965104 1_556
Mo1 O11 2.303131 1_556
Mo1 O9 2.309682 1_555
Mo2 O20 1.743104 1_555
Mo2 O16 1.758969 1_655
Mo2 O6 1.950638 1_655
Mo2 O2 1.999173 1_555
Mo2 O8 2.222573 1_555
Mo2 O5 2.349084 1_655
Mo3 O21 1.743104 1_555
Mo3 O17 1.758969 1_455
Mo3 O7 1.950638 1_455
Mo3 O3 1.999173 1_555
Mo3 O9 2.222573 1_555
Mo3 O4 2.349084 1_455
Mo4 O24 1.744956 1_555
Mo4 O18 1.760473 1_555
Mo4 O12 1.951916 1_555
Mo4 O6 1.978380 1_555
Mo4 O5 2.287811 1_555
Mo4 O11 2.318541 1_555
Mo5 O25 1.744956 1_555
Mo5 O19 1.760473 1_555
Mo5 O13 1.951916 1_555
Mo5 O7 1.978380 1_555
Mo5 O4 2.287811 1_555
Mo5 O10 2.318541 1_555
H0 O22 0.983935 1_555
H1 O23 0.983935 1_555
H2 O22 0.992605 1_555
H2 O5 1.745611 1_555
H3 O23 0.992605 1_555
H3 O4 1.745611 1_555
H4 O0 0.982762 1_555
H5 O1 0.982762 1_555
H6 O0 0.995299 1_555
H6 O24 1.683865 1_555
H7 O1 0.995299 1_555
H7 O25 1.683865 1_555
H8 O26 0.986072 1_545
H9 O27 0.986072 1_565
H10 O26 0.991514 1_655
H11 O27 0.991514 1_455
H12 O28 0.979659 1_555
H13 O29 0.979659 1_555
H14 O28 0.980341 1_555
H15 O29 0.980341 1_555
H16 O30 0.979360 1_555
H17 O31 0.979360 1_555
H18 O30 0.997329 1_555
H18 O7 1.704348 1_455
H19 O31 0.997329 1_555
H19 O6 1.704348 1_655
O0 Sm0 2.453760 1_555
O1 Sm1 2.453760 1_555
O4 Te0 1.957067 1_656
O5 Te0 1.957067 1_555
O8 Te0 1.974580 1_655
O9 Te0 1.974580 1_556
O10 Te0 1.955478 1_656
O11 Te0 1.955478 1_555
O14 Sm0 2.399972 1_555
O15 Sm1 2.399972 1_555
O16 Sm0 2.486686 1_555
O17 Sm1 2.486686 1_555
O18 Sm0 2.523528 1_545
O19 Sm1 2.523528 1_565
O22 Sm0 2.446828 1_555
O23 Sm1 2.446828 1_555
O26 Sm0 2.535138 1_555
O27 Sm1 2.535138 1_555
O28 Sm0 2.524968 1_555
O29 Sm1 2.524968 1_555
O30 Sm0 2.491980 1_555
O31 Sm1 2.491980 1_555
O34 Sm1 2.508239 1_565
O35 Sm0 2.508239 1_545
