# generated using pymatgen
data_ThPa3
_symmetry_space_group_name_H-M   'P 1'
_cell_length_a   4.73658200
_cell_length_b   4.73658200
_cell_length_c   4.73658200
_cell_angle_alpha   90.00000000
_cell_angle_beta   90.00000000
_cell_angle_gamma   90.00000000
_symmetry_Int_Tables_number   1
_chemical_formula_structural   ThPa3
_chemical_formula_sum   'Th1 Pa3'
_cell_volume   106.26620732
_cell_formula_units_Z   1
loop_
 _symmetry_equiv_pos_site_id
 _symmetry_equiv_pos_as_xyz
  1  'x, y, z'
loop_
 _atom_site_type_symbol
 _atom_site_label
 _atom_site_symmetry_multiplicity
 _atom_site_fract_x
 _atom_site_fract_y
 _atom_site_fract_z
 _atom_site_occupancy
  Th  Th0  1  0.00000000  0.00000000  0.00000000  1
  Pa  Pa0  1  0.00000000  0.50000000  0.50000000  1
  Pa  Pa1  1  0.50000000  0.00000000  0.50000000  1
  Pa  Pa2  1  0.50000000  0.50000000  0.00000000  1
loop_
_geom_bond_atom_site_label_1
_geom_bond_atom_site_label_2
_geom_bond_distance
_geom_bond_site_symmetry_2
Pa0 Th0 3.349269 1_555
Pa0 Pa2 3.349269 1_456
Pa0 Pa2 3.349269 1_455
Pa0 Pa2 3.349269 1_555
Pa0 Th0 3.349269 1_556
Pa0 Pa1 3.349269 1_455
Pa0 Pa1 3.349269 1_555
Pa0 Pa1 3.349269 1_565
Pa0 Th0 3.349269 1_566
Pa0 Pa1 3.349269 1_465
Pa0 Pa2 3.349269 1_556
Pa0 Th0 3.349269 1_565
Pa1 Th0 3.349269 1_656
Pa1 Pa2 3.349269 1_545
Pa1 Th0 3.349269 1_555
Pa1 Pa2 3.349269 1_555
Pa1 Th0 3.349269 1_556
Pa1 Th0 3.349269 1_655
Pa1 Pa2 3.349269 1_556
Pa1 Pa2 3.349269 1_546
Pa2 Th0 3.349269 1_555
Pa2 Th0 3.349269 1_655
Pa2 Th0 3.349269 1_665
Pa2 Th0 3.349269 1_565
