# generated using pymatgen
data_MgZn5
_symmetry_space_group_name_H-M   'P 1'
_cell_length_a   14.62891080
_cell_length_b   14.62891080
_cell_length_c   8.97248918
_cell_angle_alpha   90.00000000
_cell_angle_beta   90.00000000
_cell_angle_gamma   157.71170939
_symmetry_Int_Tables_number   1
_chemical_formula_structural   MgZn5
_chemical_formula_sum   'Mg8 Zn40'
_cell_volume   728.25263119
_cell_formula_units_Z   8
loop_
 _symmetry_equiv_pos_site_id
 _symmetry_equiv_pos_as_xyz
  1  'x, y, z'
loop_
 _atom_site_type_symbol
 _atom_site_label
 _atom_site_symmetry_multiplicity
 _atom_site_fract_x
 _atom_site_fract_y
 _atom_site_fract_z
 _atom_site_occupancy
  Mg  Mg0_0  1  0.38897893  0.11102107  0.25000000  1
  Mg  Mg0_1  1  0.38897893  0.11102107  0.75000000  1
  Mg  Mg0_2  1  0.38897893  0.61102107  0.25000000  1
  Mg  Mg0_3  1  0.38897893  0.61102107  0.75000000  1
  Mg  Mg0_4  1  0.88897893  0.11102107  0.25000000  1
  Mg  Mg0_5  1  0.88897893  0.11102107  0.75000000  1
  Mg  Mg0_6  1  0.88897893  0.61102107  0.25000000  1
  Mg  Mg0_7  1  0.88897893  0.61102107  0.75000000  1
  Zn  Zn0_0  1  0.00000563  0.49999437  0.00000000  1
  Zn  Zn0_1  1  0.00000563  0.49999437  0.50000000  1
  Zn  Zn0_2  1  0.00000563  0.99999437  0.00000000  1
  Zn  Zn0_3  1  0.00000563  0.99999437  0.50000000  1
  Zn  Zn0_4  1  0.50000563  0.49999437  0.00000000  1
  Zn  Zn0_5  1  0.50000563  0.49999437  0.50000000  1
  Zn  Zn0_6  1  0.50000563  0.99999437  0.00000000  1
  Zn  Zn0_7  1  0.50000563  0.99999437  0.50000000  1
  Zn  Zn1_0  1  0.16921086  0.33078914  0.00000000  1
  Zn  Zn1_1  1  0.16921086  0.33078914  0.50000000  1
  Zn  Zn1_2  1  0.16921086  0.83078914  0.00000000  1
  Zn  Zn1_3  1  0.16921086  0.83078914  0.50000000  1
  Zn  Zn1_4  1  0.66921086  0.33078914  0.00000000  1
  Zn  Zn1_5  1  0.66921086  0.33078914  0.50000000  1
  Zn  Zn1_6  1  0.66921086  0.83078914  0.00000000  1
  Zn  Zn1_7  1  0.66921086  0.83078914  0.50000000  1
  Zn  Zn2_0  1  0.33189681  0.16810318  0.00000000  1
  Zn  Zn2_1  1  0.33189681  0.16810318  0.50000000  1
  Zn  Zn2_2  1  0.33189681  0.66810318  0.00000000  1
  Zn  Zn2_3  1  0.33189681  0.66810318  0.50000000  1
  Zn  Zn2_4  1  0.83189681  0.16810318  0.00000000  1
  Zn  Zn2_5  1  0.83189681  0.16810318  0.50000000  1
  Zn  Zn2_6  1  0.83189681  0.66810318  0.00000000  1
  Zn  Zn2_7  1  0.83189681  0.66810318  0.50000000  1
  Zn  Zn3_0  1  0.05296543  0.44703457  0.25000000  1
  Zn  Zn3_1  1  0.05296543  0.44703457  0.75000000  1
  Zn  Zn3_2  1  0.05296543  0.94703457  0.25000000  1
  Zn  Zn3_3  1  0.05296543  0.94703457  0.75000000  1
  Zn  Zn3_4  1  0.55296543  0.44703457  0.25000000  1
  Zn  Zn3_5  1  0.55296543  0.44703457  0.75000000  1
  Zn  Zn3_6  1  0.55296543  0.94703457  0.25000000  1
  Zn  Zn3_7  1  0.55296543  0.94703457  0.75000000  1
  Zn  Zn4_0  1  0.22360783  0.27639217  0.25000000  1
  Zn  Zn4_1  1  0.22360783  0.27639217  0.75000000  1
  Zn  Zn4_2  1  0.22360783  0.77639217  0.25000000  1
  Zn  Zn4_3  1  0.22360783  0.77639217  0.75000000  1
  Zn  Zn4_4  1  0.72360783  0.27639216  0.25000000  1
  Zn  Zn4_5  1  0.72360783  0.27639216  0.75000000  1
  Zn  Zn4_6  1  0.72360783  0.77639216  0.25000000  1
  Zn  Zn4_7  1  0.72360783  0.77639216  0.75000000  1
loop_
_geom_bond_atom_site_label_1
_geom_bond_atom_site_label_2
_geom_bond_distance
_geom_bond_site_symmetry_2
Mg0_0 Zn2_0 2.777882 1_555
Mg0_0 Zn2_1 2.777882 1_555
Mg0_0 Zn1_5 2.789867 1_555
Mg0_0 Zn1_3 2.789867 1_545
Mg0_0 Zn1_2 2.789867 1_545
Mg0_0 Zn1_4 2.789867 1_555
Mg0_0 Zn4_2 2.810773 1_545
Mg0_0 Zn4_4 2.810773 1_555
Mg0_0 Mg0_6 2.827446 1_555
Mg0_0 Mg0_6 2.827446 1_445
Mg0_0 Zn3_4 2.845197 1_555
Mg0_0 Zn3_2 2.845197 1_545
Mg0_1 Zn2_0 2.777882 1_556
Mg0_1 Zn2_1 2.777882 1_555
Mg0_1 Zn1_5 2.789867 1_555
Mg0_1 Zn1_3 2.789867 1_545
Mg0_1 Zn1_2 2.789867 1_546
Mg0_1 Zn1_4 2.789867 1_556
Mg0_1 Zn4_3 2.810773 1_545
Mg0_1 Zn4_5 2.810773 1_555
Mg0_1 Mg0_7 2.827446 1_555
Mg0_1 Mg0_7 2.827446 1_445
Mg0_1 Zn3_5 2.845197 1_555
Mg0_1 Zn3_3 2.845197 1_545
Mg0_2 Zn2_2 2.777882 1_555
Mg0_2 Zn2_3 2.777882 1_555
Mg0_2 Zn1_7 2.789867 1_555
Mg0_2 Zn1_6 2.789867 1_555
Mg0_2 Zn1_1 2.789867 1_555
Mg0_2 Zn1_0 2.789867 1_555
Mg0_2 Zn4_0 2.810773 1_555
Mg0_2 Zn4_6 2.810773 1_555
Mg0_2 Mg0_4 2.827446 1_565
Mg0_2 Mg0_4 2.827446 1_455
Mg0_2 Zn3_0 2.845197 1_555
Mg0_2 Zn3_6 2.845197 1_555
Mg0_3 Zn2_3 2.777882 1_555
Mg0_3 Zn2_2 2.777882 1_556
Mg0_3 Zn1_7 2.789867 1_555
Mg0_3 Zn1_6 2.789867 1_556
Mg0_3 Zn1_1 2.789867 1_555
Mg0_3 Zn1_0 2.789867 1_556
Mg0_3 Zn4_1 2.810773 1_555
Mg0_3 Zn4_7 2.810773 1_555
Mg0_3 Mg0_5 2.827446 1_565
Mg0_3 Mg0_5 2.827446 1_455
Mg0_3 Zn3_1 2.845197 1_555
Mg0_3 Zn3_7 2.845197 1_555
Mg0_4 Zn2_4 2.777882 1_555
Mg0_4 Zn2_5 2.777882 1_555
Mg0_4 Zn1_6 2.789867 1_545
Mg0_4 Zn1_7 2.789867 1_545
Mg0_4 Zn1_1 2.789867 1_655
Mg0_4 Zn1_0 2.789867 1_655
Mg0_4 Zn4_0 2.810773 1_655
Mg0_4 Zn4_6 2.810773 1_545
Mg0_4 Zn3_0 2.845197 1_655
Mg0_4 Zn3_6 2.845197 1_545
Mg0_5 Zn2_5 2.777882 1_555
Mg0_5 Zn2_4 2.777882 1_556
Mg0_5 Zn1_7 2.789867 1_545
Mg0_5 Zn1_6 2.789867 1_546
Mg0_5 Zn1_1 2.789867 1_655
Mg0_5 Zn1_0 2.789867 1_656
Mg0_5 Zn4_1 2.810773 1_655
Mg0_5 Zn4_7 2.810773 1_545
Mg0_5 Zn3_1 2.845197 1_655
Mg0_5 Zn3_7 2.845197 1_545
Mg0_6 Zn2_6 2.777882 1_555
Mg0_6 Zn2_7 2.777882 1_555
Mg0_6 Zn1_5 2.789867 1_555
Mg0_6 Zn1_4 2.789867 1_555
Mg0_6 Zn1_2 2.789867 1_655
Mg0_6 Zn1_3 2.789867 1_655
Mg0_6 Zn4_2 2.810773 1_655
Mg0_6 Zn4_4 2.810773 1_555
Mg0_6 Zn3_2 2.845197 1_655
Mg0_6 Zn3_4 2.845197 1_555
Mg0_7 Zn2_7 2.777882 1_555
Mg0_7 Zn2_6 2.777882 1_556
Mg0_7 Zn1_5 2.789867 1_555
Mg0_7 Zn1_4 2.789867 1_556
Mg0_7 Zn1_3 2.789867 1_655
Mg0_7 Zn1_2 2.789867 1_656
Mg0_7 Zn4_3 2.810773 1_655
Mg0_7 Zn4_5 2.810773 1_555
Mg0_7 Zn3_3 2.845197 1_655
Mg0_7 Zn3_5 2.845197 1_555
Zn0_0 Zn3_1 2.709764 1_554
Zn0_0 Zn3_0 2.709764 1_555
Zn0_0 Zn1_4 2.716209 1_455
Zn0_0 Zn1_2 2.716209 1_555
Zn0_0 Zn2_2 2.743133 1_555
Zn0_0 Zn2_4 2.743133 1_455
Zn0_0 Zn4_4 2.757615 1_455
Zn0_0 Zn4_5 2.757615 1_454
Zn0_0 Zn4_3 2.757615 1_554
Zn0_0 Zn4_2 2.757615 1_555
Zn0_0 Zn0_6 2.827446 1_555
Zn0_0 Zn0_6 2.827446 1_445
Zn0_1 Zn3_1 2.709764 1_555
Zn0_1 Zn3_0 2.709764 1_555
Zn0_1 Zn1_5 2.716209 1_455
Zn0_1 Zn1_3 2.716209 1_555
Zn0_1 Zn2_3 2.743133 1_555
Zn0_1 Zn2_5 2.743133 1_455
Zn0_1 Zn4_5 2.757615 1_455
Zn0_1 Zn4_4 2.757615 1_455
Zn0_1 Zn4_2 2.757615 1_555
Zn0_1 Zn4_3 2.757615 1_555
Zn0_1 Zn0_7 2.827446 1_445
Zn0_1 Zn0_7 2.827446 1_555
Zn0_2 Zn3_3 2.709764 1_554
Zn0_2 Zn3_2 2.709764 1_555
Zn0_2 Zn1_0 2.716209 1_565
Zn0_2 Zn1_6 2.716209 1_455
Zn0_2 Zn2_0 2.743133 1_565
Zn0_2 Zn2_6 2.743133 1_455
Zn0_2 Zn4_7 2.757615 1_454
Zn0_2 Zn4_6 2.757615 1_455
Zn0_2 Zn4_1 2.757615 1_564
Zn0_2 Zn4_0 2.757615 1_565
Zn0_2 Zn0_4 2.827446 1_455
Zn0_2 Zn0_4 2.827446 1_565
Zn0_3 Zn3_2 2.709764 1_555
Zn0_3 Zn3_3 2.709764 1_555
Zn0_3 Zn1_1 2.716209 1_565
Zn0_3 Zn1_7 2.716209 1_455
Zn0_3 Zn2_1 2.743133 1_565
Zn0_3 Zn2_7 2.743133 1_455
Zn0_3 Zn4_6 2.757615 1_455
Zn0_3 Zn4_7 2.757615 1_455
Zn0_3 Zn4_0 2.757615 1_565
Zn0_3 Zn4_1 2.757615 1_565
Zn0_3 Zn0_5 2.827446 1_455
Zn0_3 Zn0_5 2.827446 1_565
Zn0_4 Zn3_4 2.709764 1_555
Zn0_4 Zn3_5 2.709764 1_554
Zn0_4 Zn1_0 2.716209 1_555
Zn0_4 Zn1_6 2.716209 1_555
Zn0_4 Zn2_6 2.743133 1_555
Zn0_4 Zn2_0 2.743133 1_555
Zn0_4 Zn4_6 2.757615 1_555
Zn0_4 Zn4_0 2.757615 1_555
Zn0_4 Zn4_1 2.757615 1_554
Zn0_4 Zn4_7 2.757615 1_554
Zn0_5 Zn3_4 2.709764 1_555
Zn0_5 Zn3_5 2.709764 1_555
Zn0_5 Zn1_1 2.716209 1_555
Zn0_5 Zn1_7 2.716209 1_555
Zn0_5 Zn2_7 2.743133 1_555
Zn0_5 Zn2_1 2.743133 1_555
Zn0_5 Zn4_6 2.757615 1_555
Zn0_5 Zn4_7 2.757615 1_555
Zn0_5 Zn4_1 2.757615 1_555
Zn0_5 Zn4_0 2.757615 1_555
Zn0_6 Zn3_7 2.709764 1_554
Zn0_6 Zn3_6 2.709764 1_555
Zn0_6 Zn1_2 2.716209 1_555
Zn0_6 Zn1_4 2.716209 1_565
Zn0_6 Zn2_4 2.743133 1_565
Zn0_6 Zn2_2 2.743133 1_555
Zn0_6 Zn4_5 2.757615 1_564
Zn0_6 Zn4_4 2.757615 1_565
Zn0_6 Zn4_2 2.757615 1_555
Zn0_6 Zn4_3 2.757615 1_554
Zn0_7 Zn3_7 2.709764 1_555
Zn0_7 Zn3_6 2.709764 1_555
Zn0_7 Zn1_3 2.716209 1_555
Zn0_7 Zn1_5 2.716209 1_565
Zn0_7 Zn2_5 2.743133 1_565
Zn0_7 Zn2_3 2.743133 1_555
Zn0_7 Zn4_5 2.757615 1_565
Zn0_7 Zn4_4 2.757615 1_565
Zn0_7 Zn4_2 2.757615 1_555
Zn0_7 Zn4_3 2.757615 1_555
Zn1_0 Zn4_0 2.733124 1_555
Zn1_0 Zn4_1 2.733124 1_554
Zn1_0 Zn1_6 2.827446 1_445
Zn1_0 Zn1_6 2.827446 1_555
Zn1_0 Zn2_4 2.877655 1_455
Zn1_0 Zn2_2 2.877655 1_555
Zn1_1 Zn4_0 2.733124 1_555
Zn1_1 Zn4_1 2.733124 1_555
Zn1_1 Zn1_7 2.827446 1_555
Zn1_1 Zn1_7 2.827446 1_445
Zn1_1 Zn2_5 2.877655 1_455
Zn1_1 Zn2_3 2.877655 1_555
Zn1_2 Zn4_3 2.733124 1_554
Zn1_2 Zn4_2 2.733124 1_555
Zn1_2 Zn1_4 2.827446 1_565
Zn1_2 Zn1_4 2.827446 1_455
Zn1_2 Zn2_6 2.877655 1_455
Zn1_2 Zn2_0 2.877655 1_565
Zn1_3 Zn4_3 2.733124 1_555
Zn1_3 Zn4_2 2.733124 1_555
Zn1_3 Zn1_5 2.827446 1_455
Zn1_3 Zn1_5 2.827446 1_565
Zn1_3 Zn2_7 2.877655 1_455
Zn1_3 Zn2_1 2.877655 1_565
Zn1_4 Zn4_5 2.733124 1_554
Zn1_4 Zn4_4 2.733124 1_555
Zn1_4 Zn2_0 2.877655 1_555
Zn1_4 Zn2_6 2.877655 1_555
Zn1_5 Zn4_4 2.733124 1_555
Zn1_5 Zn4_5 2.733124 1_555
Zn1_5 Zn2_1 2.877655 1_555
Zn1_5 Zn2_7 2.877655 1_555
Zn1_6 Zn4_6 2.733124 1_555
Zn1_6 Zn4_7 2.733124 1_554
Zn1_6 Zn2_2 2.877655 1_555
Zn1_6 Zn2_4 2.877655 1_565
Zn1_7 Zn4_7 2.733124 1_555
Zn1_7 Zn4_6 2.733124 1_555
Zn1_7 Zn2_3 2.877655 1_555
Zn1_7 Zn2_5 2.877655 1_565
Zn2_0 Zn3_4 2.778481 1_555
Zn2_0 Zn3_2 2.778481 1_545
Zn2_0 Zn3_5 2.778481 1_554
Zn2_0 Zn3_3 2.778481 1_544
Zn2_0 Zn2_6 2.827446 1_445
Zn2_0 Zn2_6 2.827446 1_555
Zn2_1 Zn3_3 2.778481 1_545
Zn2_1 Zn3_4 2.778481 1_555
Zn2_1 Zn3_2 2.778481 1_545
Zn2_1 Zn3_5 2.778481 1_555
Zn2_1 Zn2_7 2.827446 1_445
Zn2_1 Zn2_7 2.827446 1_555
Zn2_2 Zn3_0 2.778481 1_555
Zn2_2 Zn3_1 2.778481 1_554
Zn2_2 Zn3_7 2.778481 1_554
Zn2_2 Zn3_6 2.778481 1_555
Zn2_2 Zn2_4 2.827446 1_455
Zn2_2 Zn2_4 2.827446 1_565
Zn2_3 Zn3_0 2.778481 1_555
Zn2_3 Zn3_1 2.778481 1_555
Zn2_3 Zn3_6 2.778481 1_555
Zn2_3 Zn3_7 2.778481 1_555
Zn2_3 Zn2_5 2.827446 1_455
Zn2_3 Zn2_5 2.827446 1_565
Zn2_4 Zn3_1 2.778481 1_654
Zn2_4 Zn3_6 2.778481 1_545
Zn2_4 Zn3_7 2.778481 1_544
Zn2_4 Zn3_0 2.778481 1_655
Zn2_5 Zn3_1 2.778481 1_655
Zn2_5 Zn3_6 2.778481 1_545
Zn2_5 Zn3_7 2.778481 1_545
Zn2_5 Zn3_0 2.778481 1_655
Zn2_6 Zn3_5 2.778481 1_554
Zn2_6 Zn3_2 2.778481 1_655
Zn2_6 Zn3_3 2.778481 1_654
Zn2_6 Zn3_4 2.778481 1_555
Zn2_7 Zn3_5 2.778481 1_555
Zn2_7 Zn3_2 2.778481 1_655
Zn2_7 Zn3_3 2.778481 1_655
Zn2_7 Zn3_4 2.778481 1_555
Zn3_0 Zn4_4 2.681068 1_455
Zn3_0 Zn4_2 2.681068 1_555
Zn3_0 Zn3_6 2.827446 1_555
Zn3_0 Zn3_6 2.827446 1_445
Zn3_1 Zn4_5 2.681068 1_455
Zn3_1 Zn4_3 2.681068 1_555
Zn3_1 Zn3_7 2.827446 1_445
Zn3_1 Zn3_7 2.827446 1_555
Zn3_2 Zn4_6 2.681068 1_455
Zn3_2 Zn4_0 2.681068 1_565
Zn3_2 Zn3_4 2.827446 1_565
Zn3_2 Zn3_4 2.827446 1_455
Zn3_3 Zn4_7 2.681068 1_455
Zn3_3 Zn4_1 2.681068 1_565
Zn3_3 Zn3_5 2.827446 1_455
Zn3_3 Zn3_5 2.827446 1_565
Zn3_4 Zn4_6 2.681068 1_555
Zn3_4 Zn4_0 2.681068 1_555
Zn3_5 Zn4_7 2.681068 1_555
Zn3_5 Zn4_1 2.681068 1_555
Zn3_6 Zn4_4 2.681068 1_565
Zn3_6 Zn4_2 2.681068 1_555
Zn3_7 Zn4_5 2.681068 1_565
Zn3_7 Zn4_3 2.681068 1_555
Zn4_0 Zn4_6 2.827446 1_555
Zn4_0 Zn4_6 2.827446 1_445
Zn4_1 Zn4_7 2.827446 1_555
Zn4_1 Zn4_7 2.827446 1_445
Zn4_2 Zn4_4 2.827446 1_565
Zn4_2 Zn4_4 2.827446 1_455
Zn4_3 Zn4_5 2.827446 1_565
Zn4_3 Zn4_5 2.827446 1_455
