# generated using pymatgen
data_BaGe6
_symmetry_space_group_name_H-M   'P 1'
_cell_length_a   5.98210346
_cell_length_b   5.98210346
_cell_length_c   12.48049700
_cell_angle_alpha   90.00000000
_cell_angle_beta   90.00000000
_cell_angle_gamma   131.99781258
_symmetry_Int_Tables_number   1
_chemical_formula_structural   BaGe6
_chemical_formula_sum   'Ba2 Ge12'
_cell_volume   331.91593811
_cell_formula_units_Z   2
loop_
 _symmetry_equiv_pos_site_id
 _symmetry_equiv_pos_as_xyz
  1  'x, y, z'
loop_
 _atom_site_type_symbol
 _atom_site_label
 _atom_site_symmetry_multiplicity
 _atom_site_fract_x
 _atom_site_fract_y
 _atom_site_fract_z
 _atom_site_occupancy
  Ba  Ba0  1  0.73053900  0.26946100  0.25000000  1
  Ba  Ba1  1  0.26946100  0.73053900  0.75000000  1
  Ge  Ge0  1  0.75121100  0.24878900  0.96371400  1
  Ge  Ge1  1  0.24878900  0.75121100  0.03628600  1
  Ge  Ge2  1  0.75121100  0.24878900  0.53628600  1
  Ge  Ge3  1  0.24878900  0.75121100  0.46371400  1
  Ge  Ge4  1  0.55459300  0.44540700  0.85441600  1
  Ge  Ge5  1  0.44540700  0.55459300  0.14558400  1
  Ge  Ge6  1  0.55459300  0.44540700  0.64558400  1
  Ge  Ge7  1  0.44540700  0.55459300  0.35441600  1
  Ge  Ge8  1  0.97594500  0.02405500  0.89919400  1
  Ge  Ge9  1  0.02405500  0.97594500  0.10080600  1
  Ge  Ge10  1  0.97594500  0.02405500  0.60080600  1
  Ge  Ge11  1  0.02405500  0.97594500  0.39919400  1
loop_
_geom_bond_atom_site_label_1
_geom_bond_atom_site_label_2
_geom_bond_distance
_geom_bond_site_symmetry_2
Ba0 Ge7 3.377917 1_555
Ba0 Ge5 3.377917 1_555
Ba0 Ge0 3.580128 1_554
Ba0 Ge2 3.580128 1_555
Ba0 Ge1 3.615899 1_655
Ba0 Ge3 3.615899 1_655
Ba0 Ge3 3.615899 1_545
Ba0 Ge1 3.615899 1_545
Ba0 Ge5 3.624107 1_655
Ba0 Ge7 3.624107 1_655
Ba0 Ge7 3.624107 1_545
Ba0 Ge5 3.624107 1_545
Ba0 Ge9 3.709277 1_645
Ba0 Ge11 3.709277 1_645
Ba0 Ge11 3.805393 1_545
Ba0 Ge9 3.805393 1_655
Ba0 Ge9 3.805393 1_545
Ba0 Ge11 3.805393 1_655
Ba1 Ge4 3.377917 1_555
Ba1 Ge6 3.377917 1_555
Ba1 Ge3 3.580128 1_555
Ba1 Ge1 3.580128 1_556
Ba1 Ge0 3.615899 1_565
Ba1 Ge2 3.615899 1_565
Ba1 Ge2 3.615899 1_455
Ba1 Ge0 3.615899 1_455
Ba1 Ge6 3.624107 1_565
Ba1 Ge4 3.624107 1_565
Ba1 Ge4 3.624107 1_455
Ba1 Ge6 3.624107 1_455
Ba1 Ge10 3.709277 1_465
Ba1 Ge8 3.709277 1_465
Ba1 Ge8 3.805393 1_565
Ba1 Ge10 3.805393 1_455
Ba1 Ge10 3.805393 1_565
Ba1 Ge8 3.805393 1_455
Ge0 Ge4 2.545367 1_555
Ge0 Ge8 2.584910 1_555
Ge0 Ge1 2.596486 1_656
Ge0 Ge1 2.596486 1_546
Ge1 Ge5 2.545367 1_555
Ge1 Ge9 2.584910 1_555
Ge2 Ge6 2.545367 1_555
Ge2 Ge3 2.596486 1_655
Ge2 Ge3 2.596486 1_545
Ge3 Ge7 2.545367 1_555
Ge4 Ge6 2.606327 1_555
Ge4 Ge8 2.640438 1_565
Ge4 Ge8 2.640438 1_455
Ge5 Ge7 2.606327 1_555
Ge5 Ge9 2.640438 1_655
Ge5 Ge9 2.640438 1_545
Ge8 Ge9 2.570574 1_646
Ge10 Ge11 2.570574 1_645
Ge10 Ge2 2.584910 1_555
Ge10 Ge6 2.640438 1_545
Ge10 Ge6 2.640438 1_655
Ge11 Ge3 2.584910 1_555
Ge11 Ge7 2.640438 1_455
Ge11 Ge7 2.640438 1_565
