# generated using pymatgen
data_KPb2C2O6F
_symmetry_space_group_name_H-M   'P 1'
_cell_length_a   5.37102740
_cell_length_b   5.37102740
_cell_length_c   14.04651100
_cell_angle_alpha   90.00000000
_cell_angle_beta   90.00000000
_cell_angle_gamma   119.99999261
_symmetry_Int_Tables_number   1
_chemical_formula_structural   KPb2C2O6F
_chemical_formula_sum   'K2 Pb4 C4 O12 F2'
_cell_volume   350.92464038
_cell_formula_units_Z   2
loop_
 _symmetry_equiv_pos_site_id
 _symmetry_equiv_pos_as_xyz
  1  'x, y, z'
loop_
 _atom_site_type_symbol
 _atom_site_label
 _atom_site_symmetry_multiplicity
 _atom_site_fract_x
 _atom_site_fract_y
 _atom_site_fract_z
 _atom_site_occupancy
  K  K0  1  0.66666700  0.33333300  0.25000000  1
  K  K1  1  0.33333300  0.66666700  0.75000000  1
  Pb  Pb0  1  0.33333300  0.66666700  0.08163900  1
  Pb  Pb1  1  0.66666700  0.33333300  0.91836100  1
  Pb  Pb2  1  0.66666700  0.33333300  0.58163900  1
  Pb  Pb3  1  0.33333300  0.66666700  0.41836100  1
  C  C0  1  0.00000000  0.00000000  0.10641900  1
  C  C1  1  0.00000000  0.00000000  0.89358100  1
  C  C2  1  0.00000000  0.00000000  0.60641900  1
  C  C3  1  0.00000000  0.00000000  0.39358100  1
  O  O0  1  0.28036600  0.14018300  0.10594400  1
  O  O1  1  0.85981700  0.14018300  0.10594400  1
  O  O2  1  0.85981700  0.71963400  0.10594400  1
  O  O3  1  0.71963400  0.85981700  0.89405600  1
  O  O4  1  0.14018300  0.85981700  0.89405600  1
  O  O5  1  0.14018300  0.28036600  0.89405600  1
  O  O6  1  0.71963400  0.85981700  0.60594400  1
  O  O7  1  0.14018300  0.85981700  0.60594400  1
  O  O8  1  0.14018300  0.28036600  0.60594400  1
  O  O9  1  0.28036600  0.14018300  0.39405600  1
  O  O10  1  0.85981700  0.14018300  0.39405600  1
  O  O11  1  0.85981700  0.71963400  0.39405600  1
  F  F0  1  0.33333300  0.66666700  0.25000000  1
  F  F1  1  0.66666700  0.33333300  0.75000000  1
loop_
_geom_bond_atom_site_label_1
_geom_bond_atom_site_label_2
_geom_bond_distance
_geom_bond_site_symmetry_2
K0 O10 2.706136 1_555
K0 O1 2.706136 1_555
K0 O11 2.706139 1_555
K0 O9 2.706139 1_555
K0 O2 2.706139 1_555
K0 O0 2.706139 1_555
K1 O4 2.706136 1_555
K1 O7 2.706136 1_555
K1 O3 2.706139 1_555
K1 O5 2.706139 1_555
K1 O6 2.706139 1_555
K1 O8 2.706139 1_555
C0 O1 1.304124 1_455
C0 O2 1.304125 1_445
C0 O0 1.304125 1_555
C1 O4 1.304124 1_545
C1 O5 1.304125 1_555
C1 O3 1.304125 1_445
C2 O7 1.304124 1_545
C2 O6 1.304125 1_445
C2 O8 1.304125 1_555
C3 O10 1.304124 1_455
C3 O9 1.304125 1_555
C3 O11 1.304125 1_445
O0 Pb0 2.718313 1_545
O0 Pb0 2.718318 1_555
O1 Pb0 2.718316 1_545
O1 Pb0 2.718316 1_655
O2 Pb0 2.718313 1_655
O2 Pb0 2.718318 1_555
O3 Pb1 2.718313 1_565
O3 Pb1 2.718318 1_555
O4 Pb1 2.718316 1_455
O4 Pb1 2.718316 1_565
O5 Pb1 2.718313 1_455
O5 Pb1 2.718318 1_555
O6 Pb2 2.718313 1_565
O6 Pb2 2.718318 1_555
O7 Pb2 2.718316 1_455
O7 Pb2 2.718316 1_565
O8 Pb2 2.718313 1_455
O8 Pb2 2.718318 1_555
O9 Pb3 2.718313 1_545
O9 Pb3 2.718318 1_555
O10 Pb3 2.718316 1_545
O10 Pb3 2.718316 1_655
O11 Pb3 2.718313 1_655
O11 Pb3 2.718318 1_555
F0 Pb0 2.364885 1_555
F0 Pb3 2.364885 1_555
F0 K0 3.100961 1_455
F0 K0 3.100961 1_565
F0 K0 3.100970 1_555
F1 Pb2 2.364885 1_555
F1 Pb1 2.364885 1_555
F1 K1 3.100961 1_545
F1 K1 3.100961 1_655
F1 K1 3.100970 1_555
