# generated using pymatgen
data_Ho3Ge13Ir4
_symmetry_space_group_name_H-M   'P 1'
_cell_length_a   8.96564831
_cell_length_b   8.96564831
_cell_length_c   8.96564831
_cell_angle_alpha   90.00000000
_cell_angle_beta   90.00000000
_cell_angle_gamma   90.00000000
_symmetry_Int_Tables_number   1
_chemical_formula_structural   Ho3Ge13Ir4
_chemical_formula_sum   'Ho6 Ge26 Ir8'
_cell_volume   720.68435984
_cell_formula_units_Z   2
loop_
 _symmetry_equiv_pos_site_id
 _symmetry_equiv_pos_as_xyz
  1  'x, y, z'
loop_
 _atom_site_type_symbol
 _atom_site_label
 _atom_site_symmetry_multiplicity
 _atom_site_fract_x
 _atom_site_fract_y
 _atom_site_fract_z
 _atom_site_occupancy
  Ho  Ho0  1  0.00000000  0.50000000  0.75000000  1
  Ho  Ho1  1  0.50000000  0.25000000  0.00000000  1
  Ho  Ho2  1  0.75000000  -0.00000000  0.50000000  1
  Ho  Ho3  1  0.00000000  0.50000000  0.25000000  1
  Ho  Ho4  1  0.50000000  0.75000000  0.00000000  1
  Ho  Ho5  1  0.25000000  0.00000000  0.50000000  1
  Ge  Ge0  1  0.50000000  0.50000000  0.50000000  1
  Ge  Ge1  1  0.00000000  0.00000000  0.00000000  1
  Ge  Ge2  1  0.80710810  0.35565930  0.50000000  1
  Ge  Ge3  1  0.64434070  0.50000000  0.80710810  1
  Ge  Ge4  1  0.50000000  0.19289190  0.64434070  1
  Ge  Ge5  1  0.19289190  0.64434070  0.50000000  1
  Ge  Ge6  1  0.35565930  0.50000000  0.19289190  1
  Ge  Ge7  1  0.50000000  0.80710810  0.35565930  1
  Ge  Ge8  1  0.80710810  0.64434070  0.50000000  1
  Ge  Ge9  1  0.64434070  0.50000000  0.19289190  1
  Ge  Ge10  1  0.19289190  0.35565930  0.50000000  1
  Ge  Ge11  1  0.35565930  0.50000000  0.80710810  1
  Ge  Ge12  1  0.50000000  0.80710810  0.64434070  1
  Ge  Ge13  1  0.50000000  0.19289190  0.35565930  1
  Ge  Ge14  1  0.30710810  -0.00000000  0.85565930  1
  Ge  Ge15  1  0.14434070  0.30710810  0.00000000  1
  Ge  Ge16  1  0.00000000  0.14434070  0.69289190  1
  Ge  Ge17  1  0.69289190  0.00000000  0.14434070  1
  Ge  Ge18  1  0.85565930  0.69289190  0.00000000  1
  Ge  Ge19  1  0.00000000  0.85565930  0.30710810  1
  Ge  Ge20  1  0.30710810  -0.00000000  0.14434070  1
  Ge  Ge21  1  0.14434070  0.69289190  0.00000000  1
  Ge  Ge22  1  0.69289190  0.00000000  0.85565930  1
  Ge  Ge23  1  0.85565930  0.30710810  0.00000000  1
  Ge  Ge24  1  0.00000000  0.14434070  0.30710810  1
  Ge  Ge25  1  0.00000000  0.85565930  0.69289190  1
  Ir  Ir0  1  0.75000000  0.25000000  0.75000000  1
  Ir  Ir1  1  0.25000000  0.75000000  0.25000000  1
  Ir  Ir2  1  0.75000000  0.75000000  0.25000000  1
  Ir  Ir3  1  0.25000000  0.25000000  0.75000000  1
  Ir  Ir4  1  0.25000000  0.75000000  0.75000000  1
  Ir  Ir5  1  0.75000000  0.25000000  0.25000000  1
  Ir  Ir6  1  0.25000000  0.25000000  0.25000000  1
  Ir  Ir7  1  0.75000000  0.75000000  0.75000000  1
loop_
_geom_bond_atom_site_label_1
_geom_bond_atom_site_label_2
_geom_bond_distance
_geom_bond_site_symmetry_2
Ho0 Ir0 3.169835 1_455
Ho0 Ir7 3.169835 1_455
Ho0 Ir3 3.169835 1_555
Ho0 Ir4 3.169835 1_555
Ho1 Ir0 3.169835 1_554
Ho1 Ir5 3.169835 1_555
Ho1 Ir6 3.169835 1_555
Ho1 Ir3 3.169835 1_554
Ho2 Ir5 3.169835 1_555
Ho2 Ir2 3.169835 1_545
Ho2 Ir0 3.169835 1_555
Ho2 Ir7 3.169835 1_545
Ho3 Ir6 3.169835 1_555
Ho3 Ir5 3.169835 1_455
Ho3 Ir2 3.169835 1_455
Ho3 Ir1 3.169835 1_555
Ho4 Ir7 3.169835 1_554
Ho4 Ir2 3.169835 1_555
Ho4 Ir4 3.169835 1_554
Ho4 Ir1 3.169835 1_555
Ho5 Ir4 3.169835 1_545
Ho5 Ir6 3.169835 1_555
Ho5 Ir3 3.169835 1_555
Ho5 Ir1 3.169835 1_545
Ge0 Ge3 3.042377 1_555
Ge0 Ge8 3.042377 1_555
Ge0 Ge5 3.042377 1_555
Ge0 Ge7 3.042377 1_555
Ge0 Ge13 3.042377 1_555
Ge0 Ge2 3.042377 1_555
Ge0 Ge12 3.042377 1_555
Ge0 Ge6 3.042377 1_555
Ge0 Ge4 3.042377 1_555
Ge0 Ge9 3.042377 1_555
Ge0 Ge10 3.042377 1_555
Ge0 Ge11 3.042377 1_555
Ge1 Ge22 3.042377 1_454
Ge1 Ge24 3.042377 1_555
Ge1 Ge15 3.042377 1_555
Ge1 Ge16 3.042377 1_554
Ge1 Ge17 3.042377 1_455
Ge1 Ge23 3.042377 1_455
Ge1 Ge18 3.042377 1_445
Ge1 Ge20 3.042377 1_555
Ge1 Ge21 3.042377 1_545
Ge1 Ge25 3.042377 1_544
Ge1 Ge14 3.042377 1_554
Ge1 Ge19 3.042377 1_545
Ge2 Ir5 2.486658 1_555
Ge2 Ir0 2.486658 1_555
Ge2 Ho0 3.112792 1_655
Ge2 Ho3 3.112792 1_655
Ge2 Ho2 3.229561 1_555
Ge3 Ir7 2.486658 1_555
Ge3 Ir0 2.486658 1_555
Ge3 Ho1 3.112792 1_556
Ge3 Ho4 3.112792 1_556
Ge3 Ho0 3.229561 1_655
Ge4 Ir0 2.486658 1_555
Ge4 Ir3 2.486658 1_555
Ge4 Ho2 3.112792 1_555
Ge4 Ho5 3.112792 1_555
Ge4 Ho1 3.229561 1_556
Ge5 Ir1 2.486658 1_555
Ge5 Ir4 2.486658 1_555
Ge5 Ho0 3.112792 1_555
Ge5 Ho3 3.112792 1_555
Ge5 Ho5 3.229561 1_565
Ge6 Ir1 2.486658 1_555
Ge6 Ir6 2.486658 1_555
Ge6 Ho1 3.112792 1_555
Ge6 Ho4 3.112792 1_555
Ge6 Ho3 3.229561 1_555
Ge7 Ir1 2.486658 1_555
Ge7 Ir2 2.486658 1_555
Ge7 Ho5 3.112792 1_565
Ge7 Ho2 3.112792 1_565
Ge7 Ho4 3.229561 1_555
Ge8 Ir2 2.486658 1_555
Ge8 Ir7 2.486658 1_555
Ge8 Ho0 3.112792 1_655
Ge8 Ho3 3.112792 1_655
Ge8 Ho2 3.229561 1_565
Ge9 Ir5 2.486658 1_555
Ge9 Ir2 2.486658 1_555
Ge9 Ho1 3.112792 1_555
Ge9 Ho4 3.112792 1_555
Ge9 Ho3 3.229561 1_655
Ge10 Ir6 2.486658 1_555
Ge10 Ir3 2.486658 1_555
Ge10 Ho0 3.112792 1_555
Ge10 Ho3 3.112792 1_555
Ge10 Ho5 3.229561 1_555
Ge11 Ir4 2.486658 1_555
Ge11 Ir3 2.486658 1_555
Ge11 Ho1 3.112792 1_556
Ge11 Ho4 3.112792 1_556
Ge11 Ho0 3.229561 1_555
Ge12 Ir4 2.486658 1_555
Ge12 Ir7 2.486658 1_555
Ge12 Ho5 3.112792 1_565
Ge12 Ho2 3.112792 1_565
Ge12 Ho4 3.229561 1_556
Ge13 Ir5 2.486658 1_555
Ge13 Ir6 2.486658 1_555
Ge13 Ho2 3.112792 1_555
Ge13 Ho5 3.112792 1_555
Ge13 Ho1 3.229561 1_555
Ge14 Ir4 2.486658 1_545
Ge14 Ir3 2.486658 1_555
Ge14 Ho1 3.112792 1_556
Ge14 Ho4 3.112792 1_546
Ge14 Ho5 3.229561 1_555
Ge15 Ir3 2.486658 1_554
Ge15 Ir6 2.486658 1_555
Ge15 Ho3 3.112792 1_555
Ge15 Ho0 3.112792 1_554
Ge15 Ho1 3.229561 1_555
Ge16 Ir0 2.486658 1_455
Ge16 Ir3 2.486658 1_555
Ge16 Ho2 3.112792 1_455
Ge16 Ho5 3.112792 1_555
Ge16 Ho0 3.229561 1_555
Ge17 Ir5 2.486658 1_555
Ge17 Ir2 2.486658 1_545
Ge17 Ho4 3.112792 1_545
Ge17 Ho1 3.112792 1_555
Ge17 Ho2 3.229561 1_555
Ge18 Ir7 2.486658 1_554
Ge18 Ir2 2.486658 1_555
Ge18 Ho3 3.112792 1_655
Ge18 Ho0 3.112792 1_654
Ge18 Ho4 3.229561 1_555
Ge19 Ir1 2.486658 1_555
Ge19 Ir2 2.486658 1_455
Ge19 Ho2 3.112792 1_465
Ge19 Ho5 3.112792 1_565
Ge19 Ho3 3.229561 1_555
Ge20 Ir1 2.486658 1_545
Ge20 Ir6 2.486658 1_555
Ge20 Ho1 3.112792 1_555
Ge20 Ho4 3.112792 1_545
Ge20 Ho5 3.229561 1_555
Ge21 Ir1 2.486658 1_555
Ge21 Ir4 2.486658 1_554
Ge21 Ho3 3.112792 1_555
Ge21 Ho0 3.112792 1_554
Ge21 Ho4 3.229561 1_555
Ge22 Ir7 2.486658 1_545
Ge22 Ir0 2.486658 1_555
Ge22 Ho1 3.112792 1_556
Ge22 Ho4 3.112792 1_546
Ge22 Ho2 3.229561 1_555
Ge23 Ir5 2.486658 1_555
Ge23 Ir0 2.486658 1_554
Ge23 Ho3 3.112792 1_655
Ge23 Ho0 3.112792 1_654
Ge23 Ho1 3.229561 1_555
Ge24 Ir5 2.486658 1_455
Ge24 Ir6 2.486658 1_555
Ge24 Ho2 3.112792 1_455
Ge24 Ho5 3.112792 1_555
Ge24 Ho3 3.229561 1_555
Ge25 Ir7 2.486658 1_455
Ge25 Ir4 2.486658 1_555
Ge25 Ho2 3.112792 1_465
Ge25 Ho5 3.112792 1_565
Ge25 Ho0 3.229561 1_555
