# generated using pymatgen
data_YAgPd2
_symmetry_space_group_name_H-M   'P 1'
_cell_length_a   11.40348726
_cell_length_b   11.40348726
_cell_length_c   11.40348726
_cell_angle_alpha   128.70227791
_cell_angle_beta   117.23426238
_cell_angle_gamma   85.24452751
_symmetry_Int_Tables_number   1
_chemical_formula_structural   YAgPd2
_chemical_formula_sum   'Y1 Ag1 Pd2'
_cell_volume   983.84785469
_cell_formula_units_Z   1
loop_
 _symmetry_equiv_pos_site_id
 _symmetry_equiv_pos_as_xyz
  1  'x, y, z'
loop_
 _atom_site_type_symbol
 _atom_site_label
 _atom_site_symmetry_multiplicity
 _atom_site_fract_x
 _atom_site_fract_y
 _atom_site_fract_z
 _atom_site_occupancy
  Y  Y0  1  0.00000000  -0.00000000  0.00000000  1
  Ag  Ag0  1  0.00000000  0.50000000  0.50000000  1
  Pd  Pd0  1  0.00000000  0.23551126  0.23551126  1
  Pd  Pd1  1  -0.00000000  0.76448874  0.76448874  1
loop_
_geom_bond_atom_site_label_1
_geom_bond_atom_site_label_2
_geom_bond_distance
_geom_bond_site_symmetry_2
Ag0 Pd1 2.611061 1_555
Ag0 Pd0 2.611061 1_555
Pd0 Y0 2.324992 1_555
Pd1 Y0 2.324992 1_566
