# generated using pymatgen
data_LiMg14Mo
_symmetry_space_group_name_H-M   'P 1'
_cell_length_a   6.29184427
_cell_length_b   6.37623445
_cell_length_c   9.94939519
_cell_angle_alpha   90.00000000
_cell_angle_beta   90.00000000
_cell_angle_gamma   120.44469219
_symmetry_Int_Tables_number   1
_chemical_formula_structural   LiMg14Mo
_chemical_formula_sum   'Li1 Mg14 Mo1'
_cell_volume   344.11688476
_cell_formula_units_Z   1
loop_
 _symmetry_equiv_pos_site_id
 _symmetry_equiv_pos_as_xyz
  1  'x, y, z'
loop_
 _atom_site_type_symbol
 _atom_site_label
 _atom_site_symmetry_multiplicity
 _atom_site_fract_x
 _atom_site_fract_y
 _atom_site_fract_z
 _atom_site_occupancy
  Li  Li0  1  0.16959163  0.33479531  0.12500000  1
  Mg  Mg0  1  0.17003418  0.33501659  0.62500000  1
  Mg  Mg1  1  0.16815675  0.83407787  0.62500000  1
  Mg  Mg2  1  0.66679033  0.33574752  0.12500000  1
  Mg  Mg3  1  0.66597718  0.33439341  0.62500000  1
  Mg  Mg4  1  0.66679033  0.83104180  0.12500000  1
  Mg  Mg5  1  0.66597718  0.83158277  0.62500000  1
  Mg  Mg6  1  0.32399192  0.15486466  0.36283873  1
  Mg  Mg7  1  0.32399192  0.15486466  0.88716127  1
  Mg  Mg8  1  0.32399192  0.66912826  0.36283873  1
  Mg  Mg9  1  0.32399192  0.66912826  0.88716127  1
  Mg  Mg10  1  0.83463055  0.16731578  0.37259928  1
  Mg  Mg11  1  0.83463055  0.16731578  0.87740072  1
  Mg  Mg12  1  0.84536985  0.67268543  0.36636466  1
  Mg  Mg13  1  0.84536985  0.67268543  0.88363534  1
  Mo  Mo0  1  0.17071393  0.83535647  0.12500000  1
loop_
_geom_bond_atom_site_label_1
_geom_bond_atom_site_label_2
_geom_bond_distance
_geom_bond_site_symmetry_2
Li0 Mg6 2.998183 1_555
Li0 Mg7 2.998183 1_554
Li0 Mg9 2.998190 1_554
Li0 Mg8 2.998190 1_555
Li0 Mg11 3.061030 1_454
Li0 Mg10 3.061030 1_455
Li0 Mg4 3.125224 1_555
Li0 Mg2 3.125225 1_555
Li0 Mg4 3.166628 1_445
Li0 Mg2 3.166628 1_455
Li0 Mo0 3.188123 1_545
Li0 Mo0 3.188123 1_555
Mg0 Mg10 3.101013 1_455
Mg0 Mg11 3.101013 1_455
Mg0 Mg5 3.122411 1_555
Mg0 Mg3 3.122411 1_555
Mg0 Mg5 3.169436 1_445
Mg0 Mg3 3.169437 1_455
Mg0 Mg1 3.188133 1_555
Mg0 Mg1 3.188134 1_545
Mg0 Mg6 3.192011 1_555
Mg0 Mg7 3.192011 1_555
Mg0 Mg9 3.192017 1_555
Mg0 Mg8 3.192017 1_555
Mg1 Mg12 3.112449 1_455
Mg1 Mg13 3.112449 1_455
Mg1 Mg3 3.140300 1_565
Mg1 Mg5 3.140300 1_555
Mg1 Mg9 3.148983 1_555
Mg1 Mg8 3.148983 1_555
Mg1 Mg6 3.148989 1_565
Mg1 Mg7 3.148989 1_565
Mg1 Mg3 3.151604 1_455
Mg1 Mg5 3.151604 1_455
Mg2 Mg7 3.010120 1_554
Mg2 Mg6 3.010120 1_555
Mg2 Mo0 3.135265 1_545
Mg2 Mo0 3.156758 1_655
Mg2 Mg4 3.158112 1_555
Mg2 Mg4 3.218122 1_545
Mg3 Mg5 3.170196 1_555
Mg3 Mg6 3.201186 1_555
Mg3 Mg7 3.201186 1_555
Mg3 Mg5 3.206039 1_545
Mg4 Mg8 3.010120 1_555
Mg4 Mg9 3.010120 1_554
Mg4 Mo0 3.135265 1_555
Mg4 Mo0 3.156758 1_655
Mg5 Mg9 3.201186 1_555
Mg5 Mg8 3.201186 1_555
Mg6 Mo0 2.947715 1_545
Mg6 Mg8 3.097169 1_545
Mg6 Mg8 3.279065 1_555
Mg7 Mo0 2.947715 1_546
Mg7 Mg9 3.097169 1_545
Mg7 Mg9 3.279065 1_555
Mg8 Mo0 2.947709 1_555
Mg9 Mo0 2.947709 1_556
Mg10 Mg2 3.080027 1_555
Mg10 Mg4 3.080034 1_545
Mg10 Mg3 3.116546 1_555
Mg10 Mg5 3.116553 1_545
Mg10 Mg8 3.121475 1_655
Mg10 Mg6 3.121475 1_655
Mg10 Mg8 3.174854 1_545
Mg10 Mg6 3.174854 1_555
Mg10 Mg12 3.189253 1_555
Mg10 Mg12 3.189253 1_545
Mg11 Mg2 3.080027 1_556
Mg11 Mg4 3.080034 1_546
Mg11 Mg3 3.116546 1_555
Mg11 Mg5 3.116553 1_545
Mg11 Mg9 3.121475 1_655
Mg11 Mg7 3.121475 1_655
Mg11 Mg9 3.174854 1_545
Mg11 Mg7 3.174854 1_555
Mg11 Mg13 3.189253 1_555
Mg11 Mg13 3.189253 1_545
Mg12 Mo0 2.980149 1_655
Mg12 Mg6 3.023175 1_665
Mg12 Mg8 3.023175 1_655
Mg12 Mg4 3.032920 1_555
Mg12 Mg2 3.032926 1_555
Mg12 Mg5 3.175075 1_555
Mg12 Mg3 3.175081 1_555
Mg12 Mg6 3.269182 1_555
Mg12 Mg8 3.269183 1_555
Mg13 Mo0 2.980149 1_656
Mg13 Mg7 3.023175 1_665
Mg13 Mg9 3.023175 1_655
Mg13 Mg4 3.032920 1_556
Mg13 Mg2 3.032926 1_556
Mg13 Mg5 3.175075 1_555
Mg13 Mg3 3.175081 1_555
Mg13 Mg7 3.269182 1_555
Mg13 Mg9 3.269183 1_555
