# generated using pymatgen
data_Ca3Ge13Rh4
_symmetry_space_group_name_H-M   'P 1'
_cell_length_a   9.05812700
_cell_length_b   9.05812700
_cell_length_c   9.05812700
_cell_angle_alpha   90.00000000
_cell_angle_beta   90.00000000
_cell_angle_gamma   90.00000000
_symmetry_Int_Tables_number   1
_chemical_formula_structural   Ca3Ge13Rh4
_chemical_formula_sum   'Ca6 Ge26 Rh8'
_cell_volume   743.21628360
_cell_formula_units_Z   2
loop_
 _symmetry_equiv_pos_site_id
 _symmetry_equiv_pos_as_xyz
  1  'x, y, z'
loop_
 _atom_site_type_symbol
 _atom_site_label
 _atom_site_symmetry_multiplicity
 _atom_site_fract_x
 _atom_site_fract_y
 _atom_site_fract_z
 _atom_site_occupancy
  Ca  Ca0  1  0.00000000  0.50000000  0.75000000  1
  Ca  Ca1  1  0.50000000  0.25000000  0.00000000  1
  Ca  Ca2  1  0.75000000  0.00000000  0.50000000  1
  Ca  Ca3  1  0.00000000  0.50000000  0.25000000  1
  Ca  Ca4  1  0.50000000  0.75000000  0.00000000  1
  Ca  Ca5  1  0.25000000  0.00000000  0.50000000  1
  Ge  Ge0  1  0.50000000  0.50000000  0.50000000  1
  Ge  Ge1  1  0.00000000  0.00000000  0.00000000  1
  Ge  Ge2  1  0.80180800  0.35508100  0.50000000  1
  Ge  Ge3  1  0.64491900  0.50000000  0.80180800  1
  Ge  Ge4  1  0.50000000  0.19819200  0.64491900  1
  Ge  Ge5  1  0.19819200  0.64491900  0.50000000  1
  Ge  Ge6  1  0.35508100  0.50000000  0.19819200  1
  Ge  Ge7  1  0.50000000  0.80180800  0.35508100  1
  Ge  Ge8  1  0.80180800  0.64491900  0.50000000  1
  Ge  Ge9  1  0.64491900  0.50000000  0.19819200  1
  Ge  Ge10  1  0.19819200  0.35508100  0.50000000  1
  Ge  Ge11  1  0.35508100  0.50000000  0.80180800  1
  Ge  Ge12  1  0.50000000  0.80180800  0.64491900  1
  Ge  Ge13  1  0.50000000  0.19819200  0.35508100  1
  Ge  Ge14  1  0.30180800  0.00000000  0.85508100  1
  Ge  Ge15  1  0.14491900  0.30180800  0.00000000  1
  Ge  Ge16  1  0.00000000  0.14491900  0.69819200  1
  Ge  Ge17  1  0.69819200  0.00000000  0.14491900  1
  Ge  Ge18  1  0.85508100  0.69819200  0.00000000  1
  Ge  Ge19  1  0.00000000  0.85508100  0.30180800  1
  Ge  Ge20  1  0.30180800  0.00000000  0.14491900  1
  Ge  Ge21  1  0.14491900  0.69819200  0.00000000  1
  Ge  Ge22  1  0.69819200  0.00000000  0.85508100  1
  Ge  Ge23  1  0.85508100  0.30180800  0.00000000  1
  Ge  Ge24  1  0.00000000  0.14491900  0.30180800  1
  Ge  Ge25  1  0.00000000  0.85508100  0.69819200  1
  Rh  Rh0  1  0.75000000  0.25000000  0.75000000  1
  Rh  Rh1  1  0.25000000  0.75000000  0.25000000  1
  Rh  Rh2  1  0.75000000  0.75000000  0.25000000  1
  Rh  Rh3  1  0.25000000  0.25000000  0.75000000  1
  Rh  Rh4  1  0.25000000  0.75000000  0.75000000  1
  Rh  Rh5  1  0.75000000  0.25000000  0.25000000  1
  Rh  Rh6  1  0.25000000  0.25000000  0.25000000  1
  Rh  Rh7  1  0.75000000  0.75000000  0.75000000  1
loop_
_geom_bond_atom_site_label_1
_geom_bond_atom_site_label_2
_geom_bond_distance
_geom_bond_site_symmetry_2
Ca0 Ge15 3.173986 1_556
Ca0 Ge23 3.173986 1_456
Ca0 Ge21 3.173986 1_556
Ca0 Ge10 3.173986 1_555
Ca0 Ge18 3.173986 1_456
Ca0 Ge8 3.173986 1_455
Ca0 Ge5 3.173986 1_555
Ca0 Ge2 3.173986 1_455
Ca0 Rh4 3.202532 1_555
Ca0 Rh3 3.202532 1_555
Ca0 Rh0 3.202532 1_455
Ca0 Rh7 3.202532 1_455
Ca0 Ge25 3.250424 1_555
Ca0 Ge16 3.250424 1_555
Ca0 Ge11 3.250424 1_555
Ca0 Ge3 3.250424 1_455
Ca1 Ge20 3.173986 1_555
Ca1 Ge14 3.173986 1_554
Ca1 Ge17 3.173986 1_555
Ca1 Ge22 3.173986 1_554
Ca1 Ge6 3.173986 1_555
Ca1 Ge3 3.173986 1_554
Ca1 Ge9 3.173986 1_555
Ca1 Ge11 3.173986 1_554
Ca1 Rh5 3.202532 1_555
Ca1 Rh6 3.202532 1_555
Ca1 Rh0 3.202532 1_554
Ca1 Rh3 3.202532 1_554
Ca1 Ge4 3.250424 1_554
Ca1 Ge23 3.250424 1_555
Ca1 Ge13 3.250424 1_555
Ca1 Ge15 3.250424 1_555
Ca2 Ge16 3.173986 1_655
Ca2 Ge24 3.173986 1_655
Ca2 Ge19 3.173986 1_645
Ca2 Ge25 3.173986 1_645
Ca2 Ge4 3.173986 1_555
Ca2 Ge13 3.173986 1_555
Ca2 Ge12 3.173986 1_545
Ca2 Ge7 3.173986 1_545
Ca2 Rh5 3.202532 1_555
Ca2 Rh7 3.202532 1_545
Ca2 Rh0 3.202532 1_555
Ca2 Rh2 3.202532 1_545
Ca2 Ge22 3.250424 1_555
Ca2 Ge2 3.250424 1_555
Ca2 Ge8 3.250424 1_545
Ca2 Ge17 3.250424 1_555
Ca3 Ge15 3.173986 1_555
Ca3 Ge21 3.173986 1_555
Ca3 Ge23 3.173986 1_455
Ca3 Ge10 3.173986 1_555
Ca3 Ge8 3.173986 1_455
Ca3 Ge18 3.173986 1_455
Ca3 Ge5 3.173986 1_555
Ca3 Ge2 3.173986 1_455
Ca3 Rh5 3.202532 1_455
Ca3 Rh2 3.202532 1_455
Ca3 Rh6 3.202532 1_555
Ca3 Rh1 3.202532 1_555
Ca3 Ge19 3.250424 1_555
Ca3 Ge6 3.250424 1_555
Ca3 Ge9 3.250424 1_455
Ca3 Ge24 3.250424 1_555
Ca4 Ge20 3.173986 1_565
Ca4 Ge14 3.173986 1_564
Ca4 Ge17 3.173986 1_565
Ca4 Ge6 3.173986 1_555
Ca4 Ge3 3.173986 1_554
Ca4 Ge9 3.173986 1_555
Ca4 Ge22 3.173986 1_564
Ca4 Ge11 3.173986 1_554
Ca4 Rh7 3.202532 1_554
Ca4 Rh2 3.202532 1_555
Ca4 Rh4 3.202532 1_554
Ca4 Rh1 3.202532 1_555
Ca4 Ge18 3.250424 1_555
Ca4 Ge21 3.250424 1_555
Ca4 Ge7 3.250424 1_555
Ca4 Ge12 3.250424 1_554
Ca5 Ge24 3.173986 1_555
Ca5 Ge16 3.173986 1_555
Ca5 Ge19 3.173986 1_545
Ca5 Ge4 3.173986 1_555
Ca5 Ge12 3.173986 1_545
Ca5 Ge13 3.173986 1_555
Ca5 Ge25 3.173986 1_545
Ca5 Ge7 3.173986 1_545
Ca5 Rh3 3.202532 1_555
Ca5 Rh4 3.202532 1_545
Ca5 Rh1 3.202532 1_545
Ca5 Rh6 3.202532 1_555
Ca5 Ge14 3.250424 1_555
Ca5 Ge20 3.250424 1_555
Ca5 Ge5 3.250424 1_545
Ca5 Ge10 3.250424 1_555
Ge0 Ge2 3.032641 1_555
Ge0 Ge6 3.032641 1_555
Ge0 Ge10 3.032641 1_555
Ge0 Ge11 3.032641 1_555
Ge0 Ge4 3.032641 1_555
Ge0 Ge3 3.032641 1_555
Ge0 Ge13 3.032641 1_555
Ge0 Ge9 3.032641 1_555
Ge0 Ge5 3.032641 1_555
Ge0 Ge8 3.032641 1_555
Ge0 Ge7 3.032641 1_555
Ge0 Ge12 3.032641 1_555
Ge1 Ge17 3.032641 1_455
Ge1 Ge18 3.032641 1_445
Ge1 Ge20 3.032641 1_555
Ge1 Ge22 3.032641 1_454
Ge1 Ge25 3.032641 1_544
Ge1 Ge24 3.032641 1_555
Ge1 Ge15 3.032641 1_555
Ge1 Ge16 3.032641 1_554
Ge1 Ge21 3.032641 1_545
Ge1 Ge23 3.032641 1_455
Ge1 Ge14 3.032641 1_554
Ge1 Ge19 3.032641 1_545
Ge2 Rh0 2.500865 1_555
Ge2 Rh5 2.500865 1_555
Ge3 Rh7 2.500865 1_555
Ge3 Rh0 2.500865 1_555
Ge4 Rh0 2.500865 1_555
Ge4 Rh3 2.500865 1_555
Ge5 Rh4 2.500865 1_555
Ge5 Rh1 2.500865 1_555
Ge6 Rh6 2.500865 1_555
Ge6 Rh1 2.500865 1_555
Ge7 Rh2 2.500865 1_555
Ge7 Rh1 2.500865 1_555
Ge8 Rh7 2.500865 1_555
Ge8 Rh2 2.500865 1_555
Ge9 Rh5 2.500865 1_555
Ge9 Rh2 2.500865 1_555
Ge10 Rh6 2.500865 1_555
Ge10 Rh3 2.500865 1_555
Ge11 Rh4 2.500865 1_555
Ge11 Rh3 2.500865 1_555
Ge12 Rh7 2.500865 1_555
Ge12 Rh4 2.500865 1_555
Ge13 Rh6 2.500865 1_555
Ge13 Rh5 2.500865 1_555
Ge14 Rh4 2.500865 1_545
Ge14 Rh3 2.500865 1_555
Ge15 Rh6 2.500865 1_555
Ge15 Rh3 2.500865 1_554
Ge16 Rh3 2.500865 1_555
Ge16 Rh0 2.500865 1_455
Ge17 Rh2 2.500865 1_545
Ge17 Rh5 2.500865 1_555
Ge18 Rh7 2.500865 1_554
Ge18 Rh2 2.500865 1_555
Ge19 Rh2 2.500865 1_455
Ge19 Rh1 2.500865 1_555
Ge20 Rh1 2.500865 1_545
Ge20 Rh6 2.500865 1_555
Ge21 Rh4 2.500865 1_554
Ge21 Rh1 2.500865 1_555
Ge22 Rh0 2.500865 1_555
Ge22 Rh7 2.500865 1_545
Ge23 Rh0 2.500865 1_554
Ge23 Rh5 2.500865 1_555
Ge24 Rh5 2.500865 1_455
Ge24 Rh6 2.500865 1_555
Ge25 Rh7 2.500865 1_455
Ge25 Rh4 2.500865 1_555
