# generated using pymatgen
data_SmPaO4
_symmetry_space_group_name_H-M   'P 1'
_cell_length_a   6.62991123
_cell_length_b   6.62991123
_cell_length_c   6.62991123
_cell_angle_alpha   131.52987206
_cell_angle_beta   131.52987206
_cell_angle_gamma   70.97256407
_symmetry_Int_Tables_number   1
_chemical_formula_structural   SmPaO4
_chemical_formula_sum   'Sm2 Pa2 O8'
_cell_volume   159.92993806
_cell_formula_units_Z   2
loop_
 _symmetry_equiv_pos_site_id
 _symmetry_equiv_pos_as_xyz
  1  'x, y, z'
loop_
 _atom_site_type_symbol
 _atom_site_label
 _atom_site_symmetry_multiplicity
 _atom_site_fract_x
 _atom_site_fract_y
 _atom_site_fract_z
 _atom_site_occupancy
  Sm  Sm0  1  -0.00000000  0.00000000  0.00000000  1
  Sm  Sm1  1  0.75000000  0.25000000  0.50000000  1
  Pa  Pa0  1  0.50000000  0.50000000  0.00000000  1
  Pa  Pa1  1  0.25000000  0.75000000  0.50000000  1
  O  O0  1  0.60883673  0.12500000  0.98383673  1
  O  O1  1  0.87500000  0.39116327  0.01616327  1
  O  O2  1  0.37500000  0.39116327  0.51616327  1
  O  O3  1  0.14116327  0.62500000  0.01616327  1
  O  O4  1  0.37500000  0.85883673  0.98383673  1
  O  O5  1  0.87500000  0.85883673  0.48383673  1
  O  O6  1  0.14116327  0.12500000  0.51616327  1
  O  O7  1  0.60883673  0.62500000  0.48383673  1
loop_
_geom_bond_atom_site_label_1
_geom_bond_atom_site_label_2
_geom_bond_distance
_geom_bond_site_symmetry_2
O0 Pa1 2.300634 1_545
O0 Pa0 2.300634 1_556
O0 Sm1 2.402449 1_556
O0 Sm0 2.402449 1_656
O1 Pa1 2.300634 1_655
O1 Pa0 2.300634 1_555
O1 Sm0 2.402449 1_655
O1 Sm1 2.402449 1_554
O2 Pa1 2.300634 1_555
O2 Pa0 2.300634 1_556
O2 Sm1 2.402449 1_555
O2 Sm0 2.402449 1_555
O3 Pa1 2.300634 1_555
O3 Pa0 2.300634 1_555
O3 Sm1 2.402449 1_454
O3 Sm0 2.402449 1_565
O4 Pa0 2.300634 1_556
O4 Pa1 2.300634 1_555
O4 Sm1 2.402449 1_566
O4 Sm0 2.402449 1_566
O5 Pa1 2.300634 1_655
O5 Pa0 2.300634 1_555
O5 Sm1 2.402449 1_565
O5 Sm0 2.402449 1_666
O6 Pa1 2.300634 1_545
O6 Pa0 2.300634 1_556
O6 Sm0 2.402449 1_555
O6 Sm1 2.402449 1_455
O7 Pa0 2.300634 1_555
O7 Pa1 2.300634 1_555
O7 Sm1 2.402449 1_555
O7 Sm0 2.402449 1_666
