# generated using pymatgen
data_C8Cl5
_symmetry_space_group_name_H-M   'P 1'
_cell_length_a   8.05651600
_cell_length_b   10.96545400
_cell_length_c   23.96669961
_cell_angle_alpha   65.33633326
_cell_angle_beta   90.00000000
_cell_angle_gamma   90.00000000
_symmetry_Int_Tables_number   1
_chemical_formula_structural   C8Cl5
_chemical_formula_sum   'C64 Cl40'
_cell_volume   1924.14381616
_cell_formula_units_Z   8
loop_
 _symmetry_equiv_pos_site_id
 _symmetry_equiv_pos_as_xyz
  1  'x, y, z'
loop_
 _atom_site_type_symbol
 _atom_site_label
 _atom_site_symmetry_multiplicity
 _atom_site_fract_x
 _atom_site_fract_y
 _atom_site_fract_z
 _atom_site_occupancy
  C  C0  1  0.93161100  0.82713000  0.31143600  1
  C  C1  1  0.06838900  0.17287000  0.68856400  1
  C  C2  1  0.43161100  0.17287000  0.18856400  1
  C  C3  1  0.56838900  0.82713000  0.81143600  1
  C  C4  1  0.96775900  0.82328000  0.20906800  1
  C  C5  1  0.03224100  0.17672000  0.79093200  1
  C  C6  1  0.46775900  0.17672000  0.29093200  1
  C  C7  1  0.53224100  0.82328000  0.70906800  1
  C  C8  1  0.81970400  0.68663100  0.43278800  1
  C  C9  1  0.18029600  0.31336900  0.56721200  1
  C  C10  1  0.31970400  0.31336900  0.06721200  1
  C  C11  1  0.68029600  0.68663100  0.93278800  1
  C  C12  1  0.50736400  0.38138800  0.19663500  1
  C  C13  1  0.49263600  0.61861200  0.80336500  1
  C  C14  1  0.00736400  0.61861200  0.30336500  1
  C  C15  1  0.99263600  0.38138800  0.69663500  1
  C  C16  1  0.45152500  0.89015000  0.24326300  1
  C  C17  1  0.54847500  0.10985000  0.75673700  1
  C  C18  1  0.95152500  0.10985000  0.25673700  1
  C  C19  1  0.04847500  0.89015000  0.74326300  1
  C  C20  1  0.84898800  0.82566000  0.41020700  1
  C  C21  1  0.15101200  0.17434000  0.58979300  1
  C  C22  1  0.34898800  0.17434000  0.08979300  1
  C  C23  1  0.65101200  0.82566000  0.91020700  1
  C  C24  1  0.39768100  0.89658100  0.34678400  1
  C  C25  1  0.60231900  0.10341900  0.65321600  1
  C  C26  1  0.89768100  0.10341900  0.15321600  1
  C  C27  1  0.10231900  0.89658100  0.84678400  1
  C  C28  1  0.86023800  0.61558800  0.39758700  1
  C  C29  1  0.13976200  0.38441200  0.60241300  1
  C  C30  1  0.36023800  0.38441200  0.10241300  1
  C  C31  1  0.63976200  0.61558800  0.89758700  1
  C  C32  1  0.90355000  0.89937500  0.34872600  1
  C  C33  1  0.09645000  0.10062500  0.65127400  1
  C  C34  1  0.40355000  0.10062500  0.15127400  1
  C  C35  1  0.59645000  0.89937500  0.84872600  1
  C  C36  1  0.93096500  0.68329700  0.33853600  1
  C  C37  1  0.06903500  0.31670300  0.66146400  1
  C  C38  1  0.43096500  0.31670300  0.16146400  1
  C  C39  1  0.56903500  0.68329700  0.83853600  1
  C  C40  1  0.93268600  0.88928200  0.14548600  1
  C  C41  1  0.06731400  0.11071800  0.85451400  1
  C  C42  1  0.43268600  0.11071800  0.35451400  1
  C  C43  1  0.56731400  0.88928200  0.64548600  1
  C  C44  1  0.43797500  0.95806900  0.18005200  1
  C  C45  1  0.56202500  0.04193100  0.81994800  1
  C  C46  1  0.93797500  0.04193100  0.31994800  1
  C  C47  1  0.06202500  0.95806900  0.68005200  1
  C  C48  1  0.43146300  0.95891500  0.28279900  1
  C  C49  1  0.56853700  0.04108500  0.71720100  1
  C  C50  1  0.93146300  0.04108500  0.21720100  1
  C  C51  1  0.06853700  0.95891500  0.78279900  1
  C  C52  1  0.52509200  0.31395900  0.25944600  1
  C  C53  1  0.47490800  0.68604100  0.74055400  1
  C  C54  1  0.02509200  0.68604100  0.24055400  1
  C  C55  1  0.97490800  0.31395900  0.75944600  1
  C  C56  1  0.39206000  0.97332400  0.38134300  1
  C  C57  1  0.60794000  0.02667600  0.61865700  1
  C  C58  1  0.89206000  0.02667600  0.11865700  1
  C  C59  1  0.10794000  0.97332400  0.88134300  1
  C  C60  1  0.94817600  0.89765000  0.24584600  1
  C  C61  1  0.05182400  0.10235000  0.75415400  1
  C  C62  1  0.44817600  0.10235000  0.25415400  1
  C  C63  1  0.55182400  0.89765000  0.74584600  1
  Cl  Cl0  1  0.91861500  0.80456500  0.09956700  1
  Cl  Cl1  1  0.08138500  0.19543500  0.90043300  1
  Cl  Cl2  1  0.41861500  0.19543500  0.40043300  1
  Cl  Cl3  1  0.58138500  0.80456500  0.59956700  1
  Cl  Cl4  1  0.51281800  0.72486600  0.27274000  1
  Cl  Cl5  1  0.48718200  0.27513400  0.72726000  1
  Cl  Cl6  1  0.01281800  0.27513400  0.22726000  1
  Cl  Cl7  1  0.98718200  0.72486600  0.77274000  1
  Cl  Cl8  1  0.84392100  0.26962200  0.11539300  1
  Cl  Cl9  1  0.15607900  0.73037800  0.88460700  1
  Cl  Cl10  1  0.34392100  0.73037800  0.38460700  1
  Cl  Cl11  1  0.65607900  0.26962200  0.61539300  1
  Cl  Cl12  1  0.80321400  0.44978100  0.42557600  1
  Cl  Cl13  1  0.19678600  0.55021900  0.57442400  1
  Cl  Cl14  1  0.30321400  0.55021900  0.07442400  1
  Cl  Cl15  1  0.69678600  0.44978100  0.92557600  1
  Cl  Cl16  1  0.63765800  0.38873100  0.29755700  1
  Cl  Cl17  1  0.36234200  0.61126900  0.70244300  1
  Cl  Cl18  1  0.13765800  0.61126900  0.20244300  1
  Cl  Cl19  1  0.86234200  0.38873100  0.79755700  1
  Cl  Cl20  1  0.79962200  0.89869700  0.45898400  1
  Cl  Cl21  1  0.20037800  0.10130300  0.54101600  1
  Cl  Cl22  1  0.29962200  0.10130300  0.04101600  1
  Cl  Cl23  1  0.70037800  0.89869700  0.95898400  1
  Cl  Cl24  1  0.60320800  0.53428600  0.15944600  1
  Cl  Cl25  1  0.39679200  0.46571400  0.84055400  1
  Cl  Cl26  1  0.10320800  0.46571400  0.34055400  1
  Cl  Cl27  1  0.89679200  0.53428600  0.65944600  1
  Cl  Cl28  1  0.76890200  0.60319700  0.00365700  1
  Cl  Cl29  1  0.23109800  0.39680300  0.99634300  1
  Cl  Cl30  1  0.26890200  0.39680300  0.49634300  1
  Cl  Cl31  1  0.73109800  0.60319700  0.50365700  1
  Cl  Cl32  1  0.33070700  0.89939400  0.45658200  1
  Cl  Cl33  1  0.66929300  0.10060600  0.54341800  1
  Cl  Cl34  1  0.83070700  0.10060600  0.04341800  1
  Cl  Cl35  1  0.16929300  0.89939400  0.95658200  1
  Cl  Cl36  1  0.48057200  0.86939200  0.13719400  1
  Cl  Cl37  1  0.51942800  0.13060800  0.86280600  1
  Cl  Cl38  1  0.98057200  0.13060800  0.36280600  1
  Cl  Cl39  1  0.01942800  0.86939200  0.63719400  1
loop_
_geom_bond_atom_site_label_1
_geom_bond_atom_site_label_2
_geom_bond_distance
_geom_bond_site_symmetry_2
C0 C36 1.433347 1_555
C0 C32 1.438161 1_555
C0 C60 1.439577 1_555
C1 C37 1.433347 1_555
C1 C33 1.438161 1_555
C1 C61 1.439577 1_555
C2 C38 1.433347 1_555
C2 C34 1.438161 1_555
C2 C62 1.439577 1_555
C3 C39 1.433347 1_555
C3 C35 1.438161 1_555
C3 C63 1.439577 1_555
C4 C40 1.416096 1_555
C4 C60 1.437636 1_555
C4 C54 1.449043 1_655
C5 C61 1.437636 1_555
C5 C55 1.449043 1_455
C6 C62 1.437636 1_555
C8 Cl31 1.713072 1_555
C9 Cl30 1.713072 1_555
C10 C30 1.404908 1_555
C10 C22 1.408589 1_555
C10 Cl29 1.713072 1_554
C11 C31 1.404908 1_555
C11 C23 1.408589 1_555
C11 Cl28 1.713072 1_556
C12 C52 1.379966 1_555
C12 C38 1.446197 1_555
C12 Cl24 1.718859 1_555
C13 C53 1.379966 1_555
C13 C39 1.446197 1_555
C13 Cl25 1.718859 1_555
C14 C54 1.379966 1_555
C14 C36 1.446197 1_455
C14 Cl26 1.718859 1_555
C15 C55 1.379966 1_555
C15 C37 1.446197 1_655
C15 Cl27 1.718859 1_555
C16 C44 1.385656 1_555
C16 C48 1.445284 1_555
C16 Cl4 1.720227 1_555
C17 C45 1.385656 1_555
C17 C49 1.445284 1_555
C17 Cl5 1.720227 1_555
C18 C46 1.385656 1_555
C18 C50 1.445284 1_555
C18 Cl6 1.720227 1_655
C19 C47 1.385656 1_555
C19 C51 1.445284 1_555
C19 Cl7 1.720227 1_455
C20 C8 1.408589 1_555
C20 C32 1.422592 1_555
C20 Cl20 1.716855 1_555
C21 C9 1.408589 1_555
C21 C33 1.422592 1_555
C21 Cl21 1.716855 1_555
C22 C34 1.422592 1_555
C22 Cl22 1.716855 1_555
C23 C35 1.422592 1_555
C23 Cl23 1.716855 1_555
C24 C56 1.406392 1_555
C24 C48 1.420609 1_555
C24 Cl10 1.718140 1_555
C25 C57 1.406392 1_555
C25 C49 1.420609 1_555
C25 Cl11 1.718140 1_555
C26 C58 1.406392 1_555
C26 C50 1.420609 1_555
C26 Cl8 1.718140 1_555
C27 C59 1.406392 1_555
C27 C51 1.420609 1_555
C27 Cl9 1.718140 1_555
C28 C8 1.404908 1_555
C28 C36 1.414897 1_555
C28 Cl12 1.717216 1_555
C29 C9 1.404908 1_555
C29 C37 1.414897 1_555
C29 Cl13 1.717216 1_555
C30 C38 1.414897 1_555
C30 Cl14 1.717216 1_555
C31 C39 1.414897 1_555
C31 Cl15 1.717216 1_555
C32 C46 1.447890 1_565
C33 C47 1.447890 1_545
C34 C44 1.447890 1_545
C35 C45 1.447890 1_565
C40 C58 1.407798 1_565
C40 Cl0 1.714704 1_555
C41 C59 1.407798 1_545
C41 C5 1.416096 1_555
C41 Cl1 1.714704 1_555
C42 C56 1.407798 1_545
C42 C6 1.416096 1_555
C42 Cl2 1.714704 1_555
C43 C57 1.407798 1_565
C43 C7 1.416096 1_555
C43 Cl3 1.714704 1_555
C44 Cl36 1.718124 1_555
C45 Cl37 1.718124 1_555
C46 Cl38 1.718124 1_555
C47 Cl39 1.718124 1_555
C48 C62 1.435991 1_565
C49 C63 1.435991 1_545
C50 C60 1.435991 1_545
C51 C61 1.435991 1_565
C52 C6 1.449043 1_555
C52 Cl16 1.718723 1_555
C53 C7 1.449043 1_555
C53 Cl17 1.718723 1_555
C54 Cl18 1.718723 1_555
C55 Cl19 1.718723 1_555
C56 Cl32 1.712641 1_555
C57 Cl33 1.712641 1_555
C58 Cl34 1.712641 1_555
C59 Cl35 1.712641 1_555
C63 C7 1.437636 1_555
