# generated using pymatgen
data_AlTe(WO4)2
_symmetry_space_group_name_H-M   'P 1'
_cell_length_a   4.89302400
_cell_length_b   5.12766438
_cell_length_c   8.24468513
_cell_angle_alpha   106.11162347
_cell_angle_beta   94.06807728
_cell_angle_gamma   104.69675885
_symmetry_Int_Tables_number   1
_chemical_formula_structural   AlTe(WO4)2
_chemical_formula_sum   'Al1 Te1 W2 O8'
_cell_volume   189.99386424
_cell_formula_units_Z   1
loop_
 _symmetry_equiv_pos_site_id
 _symmetry_equiv_pos_as_xyz
  1  'x, y, z'
loop_
 _atom_site_type_symbol
 _atom_site_label
 _atom_site_symmetry_multiplicity
 _atom_site_fract_x
 _atom_site_fract_y
 _atom_site_fract_z
 _atom_site_occupancy
  Al  Al0  1  0.50000000  0.00000000  0.50000000  1
  Te  Te0  1  0.00000000  0.50000000  0.00000000  1
  W  W0  1  0.26060800  0.36226800  0.63640700  1
  W  W1  1  0.73939200  0.63773200  0.36359300  1
  O  O0  1  0.39894200  0.03805700  0.69444200  1
  O  O1  1  0.19202200  0.36273700  0.83744600  1
  O  O2  1  0.38532800  0.35733400  0.38721600  1
  O  O3  1  0.13208300  0.74775000  0.47123700  1
  O  O4  1  0.80797800  0.63726300  0.16255400  1
  O  O5  1  0.60105800  0.96194300  0.30555800  1
  O  O6  1  0.61467200  0.64266600  0.61278400  1
  O  O7  1  0.86791700  0.25225000  0.52876300  1
loop_
_geom_bond_atom_site_label_1
_geom_bond_atom_site_label_2
_geom_bond_distance
_geom_bond_site_symmetry_2
Al0 O0 1.685338 1_555
Al0 O5 1.685338 1_545
Al0 O3 1.886203 1_545
Al0 O7 1.886203 1_555
Al0 O2 2.435165 1_555
Al0 O6 2.435165 1_545
O0 W0 2.101743 1_555
O1 W0 1.713787 1_555
O1 Te0 1.779044 1_556
O2 W1 2.011450 1_555
O2 W0 2.179657 1_555
O3 W1 1.930806 1_455
O4 W1 1.713787 1_555
O4 Te0 1.779044 1_655
O5 W1 2.101743 1_555
O6 W0 2.011450 1_555
O6 W1 2.179657 1_555
O7 W0 1.930806 1_655
