# generated using pymatgen
data_Cu3AsO7
_symmetry_space_group_name_H-M   'P 1'
_cell_length_a   6.22859600
_cell_length_b   7.60895638
_cell_length_c   11.92469824
_cell_angle_alpha   98.97641136
_cell_angle_beta   90.00000000
_cell_angle_gamma   90.00000000
_symmetry_Int_Tables_number   1
_chemical_formula_structural   Cu3AsO7
_chemical_formula_sum   'Cu12 As4 O28'
_cell_volume   558.22703177
_cell_formula_units_Z   4
loop_
 _symmetry_equiv_pos_site_id
 _symmetry_equiv_pos_as_xyz
  1  'x, y, z'
loop_
 _atom_site_type_symbol
 _atom_site_label
 _atom_site_symmetry_multiplicity
 _atom_site_fract_x
 _atom_site_fract_y
 _atom_site_fract_z
 _atom_site_occupancy
  Cu  Cu0  1  0.63823100  0.19721400  0.16503900  1
  Cu  Cu1  1  0.13823100  0.80278600  0.33496100  1
  Cu  Cu2  1  0.36176900  0.80278600  0.83496100  1
  Cu  Cu3  1  0.86176900  0.19721400  0.66503900  1
  Cu  Cu4  1  0.88259000  0.20086700  0.37995000  1
  Cu  Cu5  1  0.38259000  0.79913300  0.12005000  1
  Cu  Cu6  1  0.11741000  0.79913300  0.62005000  1
  Cu  Cu7  1  0.61741000  0.20086700  0.87995000  1
  Cu  Cu8  1  0.86278300  0.62679000  0.09158800  1
  Cu  Cu9  1  0.36278300  0.37321000  0.40841200  1
  Cu  Cu10  1  0.13721700  0.37321000  0.90841200  1
  Cu  Cu11  1  0.63721700  0.62679000  0.59158800  1
  As  As0  1  0.65272700  0.69943000  0.32282900  1
  As  As1  1  0.15272700  0.30057000  0.17717100  1
  As  As2  1  0.34727300  0.30057000  0.67717100  1
  As  As3  1  0.84727300  0.69943000  0.82282900  1
  O  O0  1  0.58585600  0.57541500  0.42751000  1
  O  O1  1  0.08585600  0.42458500  0.07249000  1
  O  O2  1  0.41414400  0.42458500  0.57249000  1
  O  O3  1  0.91414400  0.57541500  0.92751000  1
  O  O4  1  0.84709000  0.85619000  0.36297500  1
  O  O5  1  0.34709000  0.14381000  0.13702500  1
  O  O6  1  0.15291000  0.14381000  0.63702500  1
  O  O7  1  0.65291000  0.85619000  0.86297500  1
  O  O8  1  0.43117100  0.82160500  0.28519900  1
  O  O9  1  0.93117100  0.17839500  0.21480100  1
  O  O10  1  0.56882900  0.17839500  0.71480100  1
  O  O11  1  0.06882900  0.82160500  0.78519900  1
  O  O12  1  0.72501800  0.53682500  0.21311700  1
  O  O13  1  0.22501800  0.46317500  0.28688300  1
  O  O14  1  0.27498200  0.46317500  0.78688300  1
  O  O15  1  0.77498200  0.53682500  0.71311700  1
  O  O16  1  0.71245200  0.23668100  0.02311000  1
  O  O17  1  0.21245200  0.76331900  0.47689000  1
  O  O18  1  0.28754800  0.76331900  0.97689000  1
  O  O19  1  0.78754800  0.23668100  0.52311000  1
  O  O20  1  0.10357500  0.79120700  0.17706000  1
  O  O21  1  0.60357500  0.20879300  0.32294000  1
  O  O22  1  0.89642500  0.20879300  0.82294000  1
  O  O23  1  0.39642500  0.79120700  0.67706000  1
  O  O24  1  0.66811200  0.81359700  0.09832100  1
  O  O25  1  0.16811200  0.18640300  0.40167900  1
  O  O26  1  0.33188800  0.18640300  0.90167900  1
  O  O27  1  0.83188800  0.81359700  0.59832100  1
loop_
_geom_bond_atom_site_label_1
_geom_bond_atom_site_label_2
_geom_bond_distance
_geom_bond_site_symmetry_2
Cu0 O16 1.823985 1_555
Cu0 O5 1.876905 1_555
Cu0 O21 1.883609 1_555
Cu0 O9 1.930886 1_555
Cu1 O17 1.823985 1_555
Cu1 O4 1.876905 1_455
Cu1 O20 1.883609 1_555
Cu1 O8 1.930886 1_555
Cu2 O18 1.823985 1_555
Cu2 O7 1.876905 1_555
Cu2 O23 1.883609 1_555
Cu2 O11 1.930886 1_555
Cu3 O19 1.823985 1_555
Cu3 O6 1.876905 1_655
Cu3 O22 1.883609 1_555
Cu3 O10 1.930886 1_555
Cu4 O19 1.787136 1_555
Cu4 O25 1.803014 1_655
Cu4 O21 1.870506 1_555
Cu4 O9 1.973339 1_555
Cu4 O4 2.608142 1_545
Cu5 O18 1.787136 1_554
Cu5 O24 1.803014 1_555
Cu5 O20 1.870506 1_555
Cu5 O8 1.973339 1_555
Cu5 O5 2.608142 1_565
Cu6 O17 1.787136 1_555
Cu6 O27 1.803014 1_455
Cu6 O23 1.870506 1_555
Cu6 O11 1.973339 1_555
Cu6 O6 2.608142 1_565
Cu7 O16 1.787136 1_556
Cu7 O26 1.803014 1_555
Cu7 O22 1.870506 1_555
Cu7 O10 1.973339 1_555
Cu7 O7 2.608142 1_545
Cu8 O24 1.860498 1_555
Cu8 O12 1.901221 1_555
Cu8 O3 1.960787 1_554
Cu8 O1 2.059184 1_655
Cu8 O20 2.110786 1_655
Cu9 O25 1.860498 1_555
Cu9 O13 1.901221 1_555
Cu9 O2 1.960787 1_555
Cu9 O0 2.059184 1_555
Cu9 O21 2.110786 1_555
Cu10 O26 1.860498 1_555
Cu10 O14 1.901221 1_555
Cu10 O1 1.960787 1_556
Cu10 O3 2.059184 1_455
Cu10 O22 2.110786 1_455
Cu11 O27 1.860498 1_555
Cu11 O15 1.901221 1_555
Cu11 O0 1.960787 1_555
Cu11 O2 2.059184 1_555
Cu11 O23 2.110786 1_555
As0 O4 1.714436 1_555
As0 O12 1.714651 1_555
As0 O0 1.729078 1_555
As0 O8 1.760705 1_555
As1 O5 1.714436 1_555
As1 O13 1.714651 1_555
As1 O1 1.729078 1_555
As1 O9 1.760705 1_455
As2 O6 1.714436 1_555
As2 O14 1.714651 1_555
As2 O2 1.729078 1_555
As2 O10 1.760705 1_555
As3 O7 1.714436 1_555
As3 O15 1.714651 1_555
As3 O3 1.729078 1_555
As3 O11 1.760705 1_655
