# generated using pymatgen
data_MnFeGe
_symmetry_space_group_name_H-M   'P 1'
_cell_length_a   4.10079419
_cell_length_b   4.10079419
_cell_length_c   5.04689900
_cell_angle_alpha   90.00000000
_cell_angle_beta   90.00000000
_cell_angle_gamma   120.00000308
_symmetry_Int_Tables_number   1
_chemical_formula_structural   MnFeGe
_chemical_formula_sum   'Mn2 Fe2 Ge2'
_cell_volume   73.50064988
_cell_formula_units_Z   2
loop_
 _symmetry_equiv_pos_site_id
 _symmetry_equiv_pos_as_xyz
  1  'x, y, z'
loop_
 _atom_site_type_symbol
 _atom_site_label
 _atom_site_symmetry_multiplicity
 _atom_site_fract_x
 _atom_site_fract_y
 _atom_site_fract_z
 _atom_site_occupancy
  Mn  Mn0  1  0.00000000  0.00000000  0.00000000  1
  Mn  Mn1  1  0.00000000  0.00000000  0.50000000  1
  Fe  Fe0  1  0.66666700  0.33333300  0.25000000  1
  Fe  Fe1  1  0.33333300  0.66666700  0.75000000  1
  Ge  Ge0  1  0.66666700  0.33333300  0.75000000  1
  Ge  Ge1  1  0.33333300  0.66666700  0.25000000  1
loop_
_geom_bond_atom_site_label_1
_geom_bond_atom_site_label_2
_geom_bond_distance
_geom_bond_site_symmetry_2
Mn0 Mn1 2.523449 1_554
Mn0 Mn1 2.523449 1_555
Fe0 Ge1 2.367592 1_545
Fe0 Ge1 2.367592 1_655
Fe0 Ge1 2.367599 1_555
Fe0 Ge0 2.523449 1_554
Fe0 Ge0 2.523449 1_555
Fe0 Mn1 2.682805 1_655
Fe0 Mn0 2.682805 1_655
Fe0 Mn1 2.682808 1_555
Fe0 Mn0 2.682808 1_555
Fe0 Mn0 2.682808 1_665
Fe0 Mn1 2.682808 1_665
Fe1 Ge0 2.367592 1_455
Fe1 Ge0 2.367592 1_565
Fe1 Ge0 2.367599 1_555
Fe1 Ge1 2.523449 1_555
Fe1 Ge1 2.523449 1_556
Fe1 Mn1 2.682805 1_565
Fe1 Mn0 2.682805 1_566
Fe1 Mn0 2.682808 1_666
Fe1 Mn1 2.682808 1_665
Fe1 Mn1 2.682808 1_555
Fe1 Mn0 2.682808 1_556
Ge0 Mn0 2.682805 1_656
Ge0 Mn1 2.682805 1_655
Ge0 Mn1 2.682808 1_555
Ge0 Mn0 2.682808 1_556
Ge0 Mn0 2.682808 1_666
Ge0 Mn1 2.682808 1_665
Ge1 Mn1 2.682805 1_565
Ge1 Mn0 2.682805 1_565
Ge1 Mn1 2.682808 1_665
Ge1 Mn0 2.682808 1_665
Ge1 Mn1 2.682808 1_555
Ge1 Mn0 2.682808 1_555
