# generated using pymatgen
data_Pr(BIr)4
_symmetry_space_group_name_H-M   'P 1'
_cell_length_a   3.98818800
_cell_length_b   7.72200200
_cell_length_c   7.72200200
_cell_angle_alpha   90.00000000
_cell_angle_beta   90.00000000
_cell_angle_gamma   90.00000000
_symmetry_Int_Tables_number   1
_chemical_formula_structural   Pr(BIr)4
_chemical_formula_sum   'Pr2 B8 Ir8'
_cell_volume   237.81291808
_cell_formula_units_Z   2
loop_
 _symmetry_equiv_pos_site_id
 _symmetry_equiv_pos_as_xyz
  1  'x, y, z'
loop_
 _atom_site_type_symbol
 _atom_site_label
 _atom_site_symmetry_multiplicity
 _atom_site_fract_x
 _atom_site_fract_y
 _atom_site_fract_z
 _atom_site_occupancy
  Pr  Pr0  1  0.25000000  0.25000000  0.25000000  1
  Pr  Pr1  1  0.75000000  0.75000000  0.75000000  1
  B  B0  1  0.35786500  0.90852300  0.02950500  1
  B  B1  1  0.35786500  0.59147700  0.47049500  1
  B  B2  1  0.85786500  0.52950500  0.09147700  1
  B  B3  1  0.85786500  0.97049500  0.40852300  1
  B  B4  1  0.64213500  0.09147700  0.97049500  1
  B  B5  1  0.64213500  0.40852300  0.52950500  1
  B  B6  1  0.14213500  0.47049500  0.90852300  1
  B  B7  1  0.14213500  0.02950500  0.59147700  1
  Ir  Ir0  1  0.14173500  0.40896000  0.64076400  1
  Ir  Ir1  1  0.14173500  0.09104000  0.85923600  1
  Ir  Ir2  1  0.64173500  0.14076400  0.59104000  1
  Ir  Ir3  1  0.64173500  0.35923600  0.90896000  1
  Ir  Ir4  1  0.85826500  0.59104000  0.35923600  1
  Ir  Ir5  1  0.85826500  0.90896000  0.14076400  1
  Ir  Ir6  1  0.35826500  0.85923600  0.40896000  1
  Ir  Ir7  1  0.35826500  0.64076400  0.09104000  1
loop_
_geom_bond_atom_site_label_1
_geom_bond_atom_site_label_2
_geom_bond_distance
_geom_bond_site_symmetry_2
B0 B4 1.867857 1_564
B0 Ir1 2.111429 1_564
B0 Ir7 2.121535 1_555
B0 Ir5 2.169836 1_455
B0 Ir5 2.172766 1_555
B0 Pr1 2.933034 1_554
B1 B5 1.867857 1_555
B1 Ir0 2.111429 1_555
B1 Ir6 2.121535 1_555
B1 Ir4 2.169836 1_455
B1 Ir4 2.172766 1_555
B1 Pr1 2.933034 1_555
B2 B6 1.867857 1_654
B2 Ir3 2.111429 1_554
B2 Ir4 2.121535 1_555
B2 Ir7 2.169836 1_555
B2 Ir7 2.172766 1_655
B2 Pr0 2.933034 1_655
B3 B7 1.867857 1_665
B3 Ir2 2.111429 1_565
B3 Ir5 2.121535 1_555
B3 Ir6 2.169836 1_555
B3 Ir6 2.172766 1_655
B3 Pr0 2.933034 1_665
B4 Ir5 2.111429 1_546
B4 Ir3 2.121535 1_555
B4 Ir1 2.169836 1_655
B4 Ir1 2.172766 1_555
B4 Pr0 2.933034 1_556
B5 Ir4 2.111429 1_555
B5 Ir2 2.121535 1_555
B5 Ir0 2.169836 1_655
B5 Ir0 2.172766 1_555
B5 Pr0 2.933034 1_555
B6 Ir7 2.111429 1_556
B6 Ir0 2.121535 1_555
B6 Ir3 2.169836 1_555
B6 Ir3 2.172766 1_455
B6 Pr1 2.933034 1_455
B7 Ir6 2.111429 1_545
B7 Ir1 2.121535 1_555
B7 Ir2 2.169836 1_555
B7 Ir2 2.172766 1_455
B7 Pr1 2.933034 1_445
