# generated using pymatgen
data_Zn(NiO2)2
_symmetry_space_group_name_H-M   'P 1'
_cell_length_a   7.14272845
_cell_length_b   7.14272845
_cell_length_c   9.23065503
_cell_angle_alpha   50.74815626
_cell_angle_beta   50.74815626
_cell_angle_gamma   23.98562017
_symmetry_Int_Tables_number   1
_chemical_formula_structural   Zn(NiO2)2
_chemical_formula_sum   'Zn2 Ni4 O8'
_cell_volume   145.99450969
_cell_formula_units_Z   2
loop_
 _symmetry_equiv_pos_site_id
 _symmetry_equiv_pos_as_xyz
  1  'x, y, z'
loop_
 _atom_site_type_symbol
 _atom_site_label
 _atom_site_symmetry_multiplicity
 _atom_site_fract_x
 _atom_site_fract_y
 _atom_site_fract_z
 _atom_site_occupancy
  Zn  Zn0  1  0.66789500  0.66789500  0.32221300  1
  Zn  Zn1  1  0.33210500  0.33210500  0.67778700  1
  Ni  Ni0  1  0.36137800  0.36137800  0.96291700  1
  Ni  Ni1  1  0.85910500  0.85910500  0.30993900  1
  Ni  Ni2  1  0.14089500  0.14089500  0.69006100  1
  Ni  Ni3  1  0.63862200  0.63862200  0.03708300  1
  O  O0  1  0.13570000  0.13570000  0.90760700  1
  O  O1  1  0.53057300  0.53057300  0.75247700  1
  O  O2  1  0.46942700  0.46942700  0.24752300  1
  O  O3  1  0.86430000  0.86430000  0.09239300  1
  O  O4  1  0.82559200  0.82559200  0.84303400  1
  O  O5  1  0.20676600  0.20676600  0.42820700  1
  O  O6  1  0.17440800  0.17440800  0.15696600  1
  O  O7  1  0.79323400  0.79323400  0.57179300  1
loop_
_geom_bond_atom_site_label_1
_geom_bond_atom_site_label_2
_geom_bond_distance
_geom_bond_site_symmetry_2
Ni0 O1 1.849773 1_555
Ni0 O3 1.922490 1_546
Ni0 O3 1.922490 1_456
Ni0 O6 1.995028 1_556
Ni0 O4 2.096020 1_545
Ni0 O4 2.096020 1_455
Ni1 O2 1.939647 1_655
Ni1 O2 1.939647 1_565
Ni1 O7 1.952252 1_555
Ni1 O3 1.961917 1_555
Ni1 O5 2.218025 1_655
Ni1 O5 2.218025 1_565
Ni2 O1 1.939647 1_545
Ni2 O1 1.939647 1_455
Ni2 O5 1.952252 1_555
Ni2 O0 1.961917 1_555
Ni2 O7 2.218025 1_455
Ni2 O7 2.218025 1_545
Ni3 O2 1.849773 1_555
Ni3 O0 1.922490 1_654
Ni3 O0 1.922490 1_564
Ni3 O4 1.995028 1_554
Ni3 O6 2.096020 1_565
Ni3 O6 2.096020 1_655
O0 Zn1 2.121429 1_555
O3 Zn0 2.121429 1_555
O4 Zn1 2.087615 1_655
O4 Zn1 2.087615 1_565
O5 Zn0 2.035336 1_545
O5 Zn0 2.035336 1_455
O6 Zn0 2.087615 1_455
O6 Zn0 2.087615 1_545
O7 Zn1 2.035336 1_655
O7 Zn1 2.035336 1_565
