# generated using pymatgen
data_YLu3Cr4O16
_symmetry_space_group_name_H-M   'P 1'
_cell_length_a   5.91843523
_cell_length_b   5.91843523
_cell_length_c   10.05338900
_cell_angle_alpha   90.00000000
_cell_angle_beta   90.00000000
_cell_angle_gamma   116.26033652
_symmetry_Int_Tables_number   1
_chemical_formula_structural   YLu3Cr4O16
_chemical_formula_sum   'Y1 Lu3 Cr4 O16'
_cell_volume   315.80460848
_cell_formula_units_Z   1
loop_
 _symmetry_equiv_pos_site_id
 _symmetry_equiv_pos_as_xyz
  1  'x, y, z'
loop_
 _atom_site_type_symbol
 _atom_site_label
 _atom_site_symmetry_multiplicity
 _atom_site_fract_x
 _atom_site_fract_y
 _atom_site_fract_z
 _atom_site_occupancy
  Y  Y0  1  0.00000000  0.00000000  0.50000000  1
  Lu  Lu0  1  0.50000000  0.50000000  0.00000000  1
  Lu  Lu1  1  0.00000000  0.50000000  0.75141700  1
  Lu  Lu2  1  0.50000000  0.00000000  0.24858300  1
  Cr  Cr0  1  0.50000000  0.50000000  0.50000000  1
  Cr  Cr1  1  0.00000000  0.00000000  0.00000000  1
  Cr  Cr2  1  0.50000000  0.00000000  0.75381100  1
  Cr  Cr3  1  0.00000000  0.50000000  0.24618900  1
  O  O0  1  0.76689900  0.58151100  0.59543500  1
  O  O1  1  0.26954600  0.08601900  0.09421300  1
  O  O2  1  0.58151100  0.76689900  0.40456500  1
  O  O3  1  0.08601900  0.26954600  0.90578700  1
  O  O4  1  0.91305200  0.22897600  0.33854200  1
  O  O5  1  0.41678900  0.72664600  0.84298400  1
  O  O6  1  0.22897600  0.91305200  0.66145800  1
  O  O7  1  0.72664600  0.41678900  0.15701600  1
  O  O8  1  0.41848900  0.23310100  0.40456500  1
  O  O9  1  0.91398100  0.73045400  0.90578700  1
  O  O10  1  0.23310100  0.41848900  0.59543500  1
  O  O11  1  0.73045400  0.91398100  0.09421300  1
  O  O12  1  0.77102400  0.08694800  0.66145800  1
  O  O13  1  0.27335400  0.58321100  0.15701600  1
  O  O14  1  0.08694800  0.77102400  0.33854200  1
  O  O15  1  0.58321100  0.27335400  0.84298400  1
loop_
_geom_bond_atom_site_label_1
_geom_bond_atom_site_label_2
_geom_bond_distance
_geom_bond_site_symmetry_2
Lu0 O13 2.262351 1_555
Lu0 O7 2.262351 1_555
Lu0 O5 2.262351 1_554
Lu0 O15 2.262351 1_554
Lu0 O3 2.409014 1_554
Lu0 O1 2.409014 1_555
Lu0 O9 2.409014 1_554
Lu0 O11 2.409014 1_555
Lu1 O3 2.267697 1_555
Lu1 O9 2.267697 1_455
Lu1 O10 2.276846 1_555
Lu1 O0 2.276846 1_455
Lu1 O6 2.387263 1_555
Lu1 O12 2.387263 1_455
Lu1 O15 2.409054 1_455
Lu1 O5 2.409054 1_555
Lu2 O1 2.267697 1_555
Lu2 O11 2.267697 1_545
Lu2 O8 2.276846 1_555
Lu2 O2 2.276846 1_545
Lu2 O4 2.387263 1_555
Lu2 O14 2.387263 1_545
Lu2 O13 2.409054 1_545
Lu2 O7 2.409054 1_555
Cr0 O8 1.724571 1_555
Cr0 O2 1.724571 1_555
Cr0 O0 1.724571 1_555
Cr0 O10 1.724571 1_555
Cr1 O3 1.727010 1_554
Cr1 O9 1.727010 1_444
Cr1 O11 1.727010 1_445
Cr1 O1 1.727010 1_555
Cr2 O15 1.720046 1_555
Cr2 O5 1.720046 1_545
Cr2 O6 1.723183 1_545
Cr2 O12 1.723183 1_555
Cr3 O13 1.720046 1_555
Cr3 O7 1.720046 1_455
Cr3 O4 1.723183 1_455
Cr3 O14 1.723183 1_555
O0 Y0 2.436117 1_665
O2 Y0 2.436117 1_665
O4 Y0 2.313699 1_655
O6 Y0 2.313699 1_565
O8 Y0 2.436117 1_555
O10 Y0 2.436117 1_555
O12 Y0 2.313699 1_655
O14 Y0 2.313699 1_565
