# generated using pymatgen
data_KV2PO11
_symmetry_space_group_name_H-M   'P 1'
_cell_length_a   7.13932400
_cell_length_b   9.83911400
_cell_length_c   12.56692100
_cell_angle_alpha   90.00000000
_cell_angle_beta   90.00000000
_cell_angle_gamma   90.00000000
_symmetry_Int_Tables_number   1
_chemical_formula_structural   KV2PO11
_chemical_formula_sum   'K4 V8 P4 O44'
_cell_volume   882.75862438
_cell_formula_units_Z   4
loop_
 _symmetry_equiv_pos_site_id
 _symmetry_equiv_pos_as_xyz
  1  'x, y, z'
loop_
 _atom_site_type_symbol
 _atom_site_label
 _atom_site_symmetry_multiplicity
 _atom_site_fract_x
 _atom_site_fract_y
 _atom_site_fract_z
 _atom_site_occupancy
  K  K0  1  0.72468700  0.78148700  0.22965900  1
  K  K1  1  0.77531300  0.21851300  0.72965900  1
  K  K2  1  0.22468700  0.71851300  0.77034100  1
  K  K3  1  0.27531300  0.28148700  0.27034100  1
  V  V0  1  0.79098100  0.44637000  0.40968000  1
  V  V1  1  0.70901900  0.55363000  0.90968000  1
  V  V2  1  0.29098100  0.05363000  0.59032000  1
  V  V3  1  0.20901900  0.94637000  0.09032000  1
  V  V4  1  0.97621900  0.78323600  0.50813000  1
  V  V5  1  0.52378100  0.21676400  0.00813000  1
  V  V6  1  0.47621900  0.71676400  0.49187000  1
  V  V7  1  0.02378100  0.28323600  0.99187000  1
  P  P0  1  0.75506600  0.56698600  0.64521600  1
  P  P1  1  0.74493400  0.43301400  0.14521600  1
  P  P2  1  0.25506600  0.93301400  0.35478400  1
  P  P3  1  0.24493400  0.06698600  0.85478400  1
  O  O0  1  0.06931500  0.85301100  0.37295700  1
  O  O1  1  0.43068500  0.14698900  0.87295700  1
  O  O2  1  0.56931500  0.64698900  0.62704300  1
  O  O3  1  0.93068500  0.35301100  0.12704300  1
  O  O4  1  0.54145300  0.57736500  0.42349300  1
  O  O5  1  0.95854700  0.42263500  0.92349300  1
  O  O6  1  0.04145300  0.92263500  0.57650700  1
  O  O7  1  0.45854700  0.07736500  0.07650700  1
  O  O8  1  0.98320000  0.35731200  0.39613600  1
  O  O9  1  0.51680000  0.64268800  0.89613600  1
  O  O10  1  0.48320000  0.14268800  0.60386400  1
  O  O11  1  0.01680000  0.85731200  0.10386400  1
  O  O12  1  0.73718700  0.80546200  0.48097800  1
  O  O13  1  0.76281300  0.19453800  0.98097800  1
  O  O14  1  0.23718700  0.69453800  0.51902200  1
  O  O15  1  0.26281300  0.30546200  0.01902200  1
  O  O16  1  0.92398200  0.66600000  0.63218100  1
  O  O17  1  0.57601800  0.33400000  0.13218100  1
  O  O18  1  0.42398200  0.83400000  0.36781900  1
  O  O19  1  0.07601800  0.16600000  0.86781900  1
  O  O20  1  0.74446800  0.49463900  0.25712000  1
  O  O21  1  0.75553200  0.50536100  0.75712000  1
  O  O22  1  0.24446800  0.00536100  0.74288000  1
  O  O23  1  0.25553200  0.99463900  0.24288000  1
  O  O24  1  0.71940700  0.10227500  0.30733900  1
  O  O25  1  0.78059300  0.89772500  0.80733900  1
  O  O26  1  0.21940700  0.39772500  0.69266100  1
  O  O27  1  0.28059300  0.60227500  0.19266100  1
  O  O28  1  0.61462500  0.30361200  0.39686900  1
  O  O29  1  0.88537500  0.69638800  0.89686900  1
  O  O30  1  0.11462500  0.19638800  0.60313100  1
  O  O31  1  0.38537500  0.80361200  0.10313100  1
  O  O32  1  0.71385800  0.15546600  0.39718100  1
  O  O33  1  0.78614200  0.84453400  0.89718100  1
  O  O34  1  0.21385800  0.34453400  0.60281900  1
  O  O35  1  0.28614200  0.65546600  0.10281900  1
  O  O36  1  0.76996900  0.44582000  0.56609400  1
  O  O37  1  0.73003100  0.55418000  0.06609400  1
  O  O38  1  0.26996900  0.05418000  0.43390600  1
  O  O39  1  0.23003100  0.94582000  0.93390600  1
  O  O40  1  0.91225200  0.61498800  0.41899000  1
  O  O41  1  0.58774800  0.38501200  0.91899000  1
  O  O42  1  0.41225200  0.88501200  0.58101000  1
  O  O43  1  0.08774800  0.11498800  0.08101000  1
loop_
_geom_bond_atom_site_label_1
_geom_bond_atom_site_label_2
_geom_bond_distance
_geom_bond_site_symmetry_2
K0 O11 2.721206 1_655
K0 O18 2.808984 1_555
K0 O20 2.846855 1_555
K0 O31 2.905857 1_555
K0 O37 3.037845 1_555
K0 O0 3.129184 1_655
K0 O12 3.168360 1_555
K0 O40 3.184018 1_555
K0 O24 3.304001 1_565
K1 O10 2.721206 1_555
K1 O19 2.808984 1_655
K1 O21 2.846855 1_555
K1 O30 2.905857 1_655
K1 O36 3.037845 1_555
K1 O1 3.129184 1_555
K1 O13 3.168360 1_555
K1 O41 3.184018 1_555
K1 O25 3.304001 1_545
K2 O9 2.721206 1_555
K2 O16 2.808984 1_455
K2 O22 2.846855 1_565
K2 O29 2.905857 1_455
K2 O39 3.037845 1_555
K2 O2 3.129184 1_555
K2 O14 3.168360 1_555
K2 O42 3.184018 1_555
K2 O26 3.304001 1_555
K3 O8 2.721206 1_455
K3 O17 2.808984 1_555
K3 O23 2.846855 1_545
K3 O28 2.905857 1_555
K3 O38 3.037845 1_555
K3 O3 3.129184 1_455
K3 O15 3.168360 1_555
K3 O43 3.184018 1_555
K3 O27 3.304001 1_555
O0 P2 1.558978 1_555
O0 V4 1.949019 1_455
O1 P3 1.558978 1_555
O1 V5 1.949019 1_556
O2 P0 1.558978 1_555
O2 V6 1.949019 1_555
O3 P1 1.558978 1_555
O3 V7 1.949019 1_654
O4 V6 1.684180 1_555
O4 V0 2.205660 1_555
O5 V7 1.684180 1_655
O5 V1 2.205660 1_555
O6 V4 1.684180 1_455
O6 V2 2.205660 1_565
O7 V5 1.684180 1_555
O7 V3 2.205660 1_545
O8 V0 1.637080 1_555
O9 V1 1.637080 1_555
O10 V2 1.637080 1_555
O11 V3 1.637080 1_555
O12 V4 1.753991 1_555
O12 V6 2.061948 1_555
O13 V5 1.753991 1_556
O13 V7 2.061948 1_655
O14 V6 1.753991 1_555
O14 V4 2.061948 1_455
O15 V7 1.753991 1_554
O15 V5 2.061948 1_555
O16 P0 1.558918 1_555
O16 V4 1.974824 1_555
O17 P1 1.558918 1_555
O17 V5 1.974824 1_555
O18 P2 1.558918 1_555
O18 V6 1.974824 1_555
O19 P3 1.558918 1_555
O19 V7 1.974824 1_555
O20 P1 1.531438 1_555
O20 V0 2.002877 1_555
O21 P0 1.531438 1_555
O21 V1 2.002877 1_555
O22 P3 1.531438 1_555
O22 V2 2.002877 1_555
O23 P2 1.531438 1_555
O23 V3 2.002877 1_555
O24 O32 1.245067 1_555
O25 O33 1.245067 1_555
O26 O34 1.245067 1_555
O27 O35 1.245067 1_555
O28 O32 1.620678 1_555
O28 V0 1.893170 1_555
O29 O33 1.620678 1_555
O29 V1 1.893170 1_555
O30 O34 1.620678 1_555
O30 V2 1.893170 1_555
O31 O35 1.620678 1_555
O31 V3 1.893170 1_555
O36 P0 1.556037 1_555
O36 V0 1.971366 1_555
O37 P1 1.556037 1_555
O37 V1 1.971366 1_554
O38 P2 1.556037 1_545
O38 V2 1.971366 1_555
O39 P3 1.556037 1_565
O39 V3 1.971366 1_556
O40 V0 1.875030 1_555
O40 V4 2.050324 1_555
O41 V1 1.875030 1_555
O41 V5 2.050324 1_556
O42 V2 1.875030 1_565
O42 V6 2.050324 1_555
O43 V3 1.875030 1_545
O43 V7 2.050324 1_554
