# generated using pymatgen
data_MgMn3O6
_symmetry_space_group_name_H-M   'P 1'
_cell_length_a   2.96726600
_cell_length_b   5.12648702
_cell_length_c   7.24165034
_cell_angle_alpha   93.78757025
_cell_angle_beta   101.82218086
_cell_angle_gamma   90.00000000
_symmetry_Int_Tables_number   1
_chemical_formula_structural   MgMn3O6
_chemical_formula_sum   'Mg1 Mn3 O6'
_cell_volume   107.57498196
_cell_formula_units_Z   1
loop_
 _symmetry_equiv_pos_site_id
 _symmetry_equiv_pos_as_xyz
  1  'x, y, z'
loop_
 _atom_site_type_symbol
 _atom_site_label
 _atom_site_symmetry_multiplicity
 _atom_site_fract_x
 _atom_site_fract_y
 _atom_site_fract_z
 _atom_site_occupancy
  Mg  Mg0  1  0.30386200  0.00226900  0.60772300  1
  Mn  Mn0  1  0.00771900  0.99160400  0.01543700  1
  Mn  Mn1  1  0.65518700  0.49093500  0.31037400  1
  Mn  Mn2  1  0.34758100  0.50586700  0.69516100  1
  O  O0  1  0.87816100  0.24398600  0.75632000  1
  O  O1  1  0.10269800  0.67001400  0.20539700  1
  O  O2  1  0.56486900  0.18751800  0.12973800  1
  O  O3  1  0.43617200  0.80922400  0.87234400  1
  O  O4  1  0.77249200  0.72859500  0.54498400  1
  O  O5  1  0.22292700  0.31443200  0.44585400  1
loop_
_geom_bond_atom_site_label_1
_geom_bond_atom_site_label_2
_geom_bond_distance
_geom_bond_site_symmetry_2
Mg0 O5 2.031050 1_555
Mg0 O4 2.069559 1_545
Mg0 O4 2.069561 1_445
Mg0 O0 2.160988 1_455
Mg0 O0 2.160990 1_555
Mg0 O3 2.178987 1_545
Mn0 O2 1.938151 1_565
Mn0 O2 1.938153 1_465
Mn0 O3 1.993999 1_554
Mn0 O3 1.994001 1_454
Mn0 O1 2.197841 1_555
Mn0 O0 2.316888 1_464
Mn1 O1 1.920894 1_655
Mn1 O1 1.920896 1_555
Mn1 O2 1.946782 1_555
Mn1 O4 1.994054 1_555
Mn1 O5 2.014780 1_555
Mn1 O5 2.014780 1_655
Mn2 O3 1.931870 1_555
Mn2 O5 1.962570 1_555
Mn2 O0 2.066403 1_455
Mn2 O0 2.066406 1_555
Mn2 O4 2.191353 1_555
Mn2 O4 2.191355 1_455
