# generated using pymatgen
data_Ce(NiSn)2
_symmetry_space_group_name_H-M   'P 1'
_cell_length_a   4.43761679
_cell_length_b   4.43761679
_cell_length_c   10.09979958
_cell_angle_alpha   90.00000000
_cell_angle_beta   90.00000000
_cell_angle_gamma   90.00000000
_symmetry_Int_Tables_number   1
_chemical_formula_structural   Ce(NiSn)2
_chemical_formula_sum   'Ce2 Ni4 Sn4'
_cell_volume   198.88972527
_cell_formula_units_Z   2
loop_
 _symmetry_equiv_pos_site_id
 _symmetry_equiv_pos_as_xyz
  1  'x, y, z'
loop_
 _atom_site_type_symbol
 _atom_site_label
 _atom_site_symmetry_multiplicity
 _atom_site_fract_x
 _atom_site_fract_y
 _atom_site_fract_z
 _atom_site_occupancy
  Ce  Ce0  1  0.00000000  0.50000000  0.23982628  1
  Ce  Ce1  1  0.50000000  0.00000000  0.76024969  1
  Ni  Ni0  1  0.00000000  0.00000000  -0.00004139  1
  Ni  Ni1  1  0.50000000  0.50000000  -0.00004139  1
  Ni  Ni2  1  -0.00000000  0.50000000  0.62811594  1
  Ni  Ni3  1  0.50000000  -0.00000000  0.37191174  1
  Sn  Sn0  1  -0.00000000  -0.00000000  0.50000939  1
  Sn  Sn1  1  0.50000000  0.50000000  0.50000939  1
  Sn  Sn2  1  -0.00000000  0.50000000  0.87581683  1
  Sn  Sn3  1  0.50000000  -0.00000000  0.12414551  1
loop_
_geom_bond_atom_site_label_1
_geom_bond_atom_site_label_2
_geom_bond_distance
_geom_bond_site_symmetry_2
Ce0 Ni0 3.285145 1_555
Ce0 Ni0 3.285145 1_565
Ce0 Ni1 3.285145 1_455
Ce0 Ni1 3.285145 1_555
Ce0 Sn3 3.348323 1_565
Ce0 Sn3 3.348323 1_555
Ce0 Sn3 3.348323 1_465
Ce0 Sn3 3.348323 1_455
Ce0 Ni3 3.409674 1_465
Ce0 Ni3 3.409674 1_555
Ce0 Ni3 3.409674 1_455
Ce0 Ni3 3.409674 1_565
Ce0 Sn0 3.439248 1_565
Ce0 Sn1 3.439248 1_455
Ce0 Sn0 3.439248 1_555
Ce0 Sn1 3.439248 1_555
Ce1 Ni0 3.283963 1_556
Ce1 Ni0 3.283963 1_656
Ce1 Ni1 3.283963 1_556
Ce1 Ni1 3.283963 1_546
Ce1 Sn2 3.347923 1_555
Ce1 Sn2 3.347923 1_645
Ce1 Sn2 3.347923 1_545
Ce1 Sn2 3.347923 1_655
Ce1 Ni2 3.409865 1_655
Ce1 Ni2 3.409865 1_645
Ce1 Ni2 3.409865 1_555
Ce1 Ni2 3.409865 1_545
Ce1 Sn0 3.439690 1_655
Ce1 Sn1 3.439690 1_545
Ce1 Sn1 3.439690 1_555
Ce1 Sn0 3.439690 1_555
Ni0 Sn2 2.548557 1_544
Ni0 Sn2 2.548557 1_554
Ni0 Sn3 2.548781 1_555
Ni0 Sn3 2.548781 1_455
Ni1 Sn2 2.548557 1_654
Ni1 Sn2 2.548557 1_554
Ni1 Sn3 2.548781 1_565
Ni1 Sn3 2.548781 1_555
Ni2 Sn2 2.501729 1_555
Ni2 Sn1 2.568494 1_555
Ni2 Sn0 2.568494 1_565
Ni2 Sn1 2.568494 1_455
Ni2 Sn0 2.568494 1_555
Ni3 Sn3 2.502389 1_555
Ni3 Sn0 2.568448 1_555
Ni3 Sn0 2.568448 1_655
Ni3 Sn1 2.568448 1_545
Ni3 Sn1 2.568448 1_555
