# generated using pymatgen
data_Li6Mn3CoO10
_symmetry_space_group_name_H-M   'P 1'
_cell_length_a   7.60585732
_cell_length_b   7.60585732
_cell_length_c   5.19181844
_cell_angle_alpha   82.61099869
_cell_angle_beta   82.61099869
_cell_angle_gamma   140.02110552
_symmetry_Int_Tables_number   1
_chemical_formula_structural   Li6Mn3CoO10
_chemical_formula_sum   'Li6 Mn3 Co1 O10'
_cell_volume   178.79475035
_cell_formula_units_Z   1
loop_
 _symmetry_equiv_pos_site_id
 _symmetry_equiv_pos_as_xyz
  1  'x, y, z'
loop_
 _atom_site_type_symbol
 _atom_site_label
 _atom_site_symmetry_multiplicity
 _atom_site_fract_x
 _atom_site_fract_y
 _atom_site_fract_z
 _atom_site_occupancy
  Li  Li0  1  0.90181500  0.09818500  0.50000000  1
  Li  Li1  1  0.30103100  0.69896900  0.50000000  1
  Li  Li2  1  0.70144400  0.29855600  0.50000000  1
  Li  Li3  1  0.09943100  0.90056900  0.50000000  1
  Li  Li4  1  0.49635500  0.50364500  0.50000000  1
  Li  Li5  1  0.39916800  0.60083200  0.00000000  1
  Mn  Mn0  1  0.99997300  0.00002700  0.00000000  1
  Mn  Mn1  1  0.80015100  0.19984900  0.00000000  1
  Mn  Mn2  1  0.59898600  0.40101400  0.00000000  1
  Co  Co0  1  0.20172100  0.79827900  0.00000000  1
  O  O0  1  0.68076000  0.88052400  0.23508400  1
  O  O1  1  0.03980800  0.45313100  0.21133800  1
  O  O2  1  0.47665000  0.07102700  0.23405100  1
  O  O3  1  0.87533500  0.67701100  0.23148100  1
  O  O4  1  0.24532500  0.23626100  0.21554300  1
  O  O5  1  0.11947600  0.31924000  0.76491600  1
  O  O6  1  0.54686900  0.96019200  0.78866200  1
  O  O7  1  0.92897300  0.52335000  0.76594900  1
  O  O8  1  0.32298900  0.12466500  0.76851900  1
  O  O9  1  0.76373900  0.75467500  0.78445700  1
loop_
_geom_bond_atom_site_label_1
_geom_bond_atom_site_label_2
_geom_bond_distance
_geom_bond_site_symmetry_2
Li0 O5 2.091388 1_655
Li0 O0 2.091388 1_545
Li0 O9 2.124540 1_545
Li0 O4 2.124540 1_655
Li0 O1 2.201850 1_655
Li0 O6 2.201850 1_545
Li1 O2 2.103871 1_565
Li1 O7 2.103871 1_455
Li1 O5 2.125468 1_555
Li1 O0 2.125468 1_555
Li1 O1 2.341559 1_555
Li1 O6 2.341559 1_555
Li2 O6 2.041853 1_545
Li2 O1 2.041853 1_655
Li2 O7 2.124099 1_555
Li2 O2 2.124099 1_555
Li2 O8 2.153473 1_555
Li2 O3 2.153473 1_555
Li3 O9 2.048890 1_455
Li3 O4 2.048890 1_565
Li3 O8 2.125823 1_565
Li3 O3 2.125823 1_455
Li3 O7 2.153810 1_455
Li3 O2 2.153810 1_565
Li4 O0 2.098536 1_555
Li4 O5 2.098536 1_555
Li4 O3 2.158575 1_555
Li4 O8 2.158575 1_555
Li4 O9 2.347202 1_555
Li4 O4 2.347202 1_555
Li5 O6 2.035283 1_554
Li5 O1 2.035283 1_555
Li5 O9 2.050089 1_554
Li5 O4 2.050089 1_555
Li5 O0 2.227049 1_555
Li5 O5 2.227049 1_554
Mn0 O3 1.938326 1_545
Mn0 O8 1.938326 1_654
Mn0 O0 1.944457 1_545
Mn0 O5 1.944457 1_654
Mn0 O4 1.969443 1_655
Mn0 O9 1.969443 1_544
Mn1 O2 1.928912 1_555
Mn1 O7 1.928912 1_554
Mn1 O5 1.945633 1_654
Mn1 O0 1.945633 1_545
Mn1 O6 1.978421 1_544
Mn1 O1 1.978421 1_655
Mn2 O4 1.938393 1_555
Mn2 O9 1.938393 1_554
Mn2 O2 1.996831 1_555
Mn2 O7 1.996831 1_554
Mn2 O8 2.192126 1_554
Mn2 O3 2.192126 1_555
Co0 O1 1.889161 1_555
Co0 O6 1.889161 1_554
Co0 O3 1.973841 1_455
Co0 O8 1.973841 1_564
Co0 O2 2.192373 1_565
Co0 O7 2.192373 1_454
