# generated using pymatgen
data_CeB4
_symmetry_space_group_name_H-M   'P 1'
_cell_length_a   4.07403967
_cell_length_b   7.17677939
_cell_length_c   7.17677939
_cell_angle_alpha   89.99995497
_cell_angle_beta   90.00000000
_cell_angle_gamma   90.00000000
_symmetry_Int_Tables_number   1
_chemical_formula_structural   CeB4
_chemical_formula_sum   'Ce4 B16'
_cell_volume   209.83814892
_cell_formula_units_Z   4
loop_
 _symmetry_equiv_pos_site_id
 _symmetry_equiv_pos_as_xyz
  1  'x, y, z'
loop_
 _atom_site_type_symbol
 _atom_site_label
 _atom_site_symmetry_multiplicity
 _atom_site_fract_x
 _atom_site_fract_y
 _atom_site_fract_z
 _atom_site_occupancy
  Ce  Ce0  1  0.00000000  0.68693668  0.18693668  1
  Ce  Ce1  1  0.00000000  0.81305325  0.68694675  1
  Ce  Ce2  1  -0.00000000  0.18694675  0.31305325  1
  Ce  Ce3  1  0.00000000  0.31306332  0.81306332  1
  B  B0  1  0.50000000  0.46153230  0.32430397  1
  B  B1  1  0.50000000  0.53846770  0.67569603  1
  B  B2  1  0.50000000  0.32431063  0.53847014  1
  B  B3  1  0.50000000  0.67568937  0.46152986  1
  B  B4  1  0.20166947  -0.00000000  0.00000000  1
  B  B5  1  0.79832953  0.50000000  0.50000000  1
  B  B6  1  0.79832953  -0.00000000  0.00000000  1
  B  B7  1  0.20166947  0.50000000  0.50000000  1
  B  B8  1  0.50000000  0.08831034  0.58831034  1
  B  B9  1  0.50000000  0.41169533  0.08830467  1
  B  B10  1  0.50000000  0.58830467  0.91169533  1
  B  B11  1  0.50000000  0.91168966  0.41168966  1
  B  B12  1  0.50000000  0.17569603  0.03846770  1
  B  B13  1  0.50000000  0.96152986  0.17568937  1
  B  B14  1  0.50000000  0.03847014  0.82431063  1
  B  B15  1  0.50000000  0.82430397  0.96153230  1
loop_
_geom_bond_atom_site_label_1
_geom_bond_atom_site_label_2
_geom_bond_distance
_geom_bond_site_symmetry_2
B0 B9 1.731069 1_555
B0 B5 1.772958 1_555
B0 B7 1.772960 1_555
B0 B3 1.825418 1_555
B0 B2 1.825456 1_555
B0 Ce0 2.781769 1_555
B0 Ce0 2.781769 1_655
B0 Ce2 2.835382 1_555
B0 Ce2 2.835382 1_655
B1 B10 1.731069 1_555
B1 B5 1.772958 1_555
B1 B7 1.772960 1_555
B1 B2 1.825418 1_555
B1 B3 1.825456 1_555
B1 Ce3 2.781769 1_655
B1 Ce3 2.781769 1_555
B1 Ce1 2.835382 1_655
B1 Ce1 2.835382 1_555
B2 B8 1.731080 1_555
B2 B5 1.772926 1_555
B2 B7 1.772929 1_555
B2 Ce2 2.781813 1_555
B2 Ce2 2.781813 1_655
B2 Ce3 2.835419 1_555
B2 Ce3 2.835419 1_655
B3 B5 1.772926 1_555
B3 B7 1.772929 1_555
B3 Ce1 2.781813 1_555
B3 Ce1 2.781813 1_655
B3 Ce0 2.835419 1_655
B3 Ce0 2.835419 1_555
B4 B6 1.643223 1_455
B4 Ce1 2.742784 1_544
B4 Ce2 2.742784 1_555
B4 Ce3 2.742806 1_554
B4 Ce0 2.742806 1_545
B5 B7 1.643223 1_655
B5 Ce1 2.742785 1_655
B5 Ce2 2.742785 1_655
B5 Ce0 2.742807 1_655
B5 Ce3 2.742807 1_655
B6 Ce1 2.742785 1_644
B6 Ce2 2.742785 1_655
B6 Ce3 2.742807 1_654
B6 Ce0 2.742807 1_645
B7 Ce2 2.742784 1_555
B7 Ce1 2.742784 1_555
B7 Ce0 2.742806 1_555
B7 Ce3 2.742806 1_555
B8 Ce2 2.924551 1_655
B8 Ce1 2.924551 1_645
B8 Ce1 2.924551 1_545
B8 Ce2 2.924551 1_555
B8 Ce3 3.058269 1_555
B8 Ce3 3.058269 1_655
B9 Ce0 2.924468 1_655
B9 Ce3 2.924468 1_554
B9 Ce0 2.924468 1_555
B9 Ce3 2.924468 1_654
B9 Ce2 3.058234 1_555
B9 Ce2 3.058234 1_655
B10 B15 1.731069 1_555
B10 B9 1.792496 1_556
B10 Ce3 2.924468 1_655
B10 Ce3 2.924468 1_555
B10 Ce0 2.924468 1_656
B10 Ce0 2.924468 1_556
B10 Ce1 3.058234 1_555
B10 Ce1 3.058234 1_655
B11 B13 1.731080 1_555
B11 B3 1.731080 1_555
B11 B8 1.792612 1_565
B11 Ce2 2.924551 1_565
B11 Ce2 2.924551 1_665
B11 Ce1 2.924551 1_555
B11 Ce1 2.924551 1_655
B11 Ce0 3.058269 1_555
B11 Ce0 3.058269 1_655
B12 B9 1.731069 1_555
B12 B6 1.772958 1_555
B12 B4 1.772960 1_555
B12 B14 1.825418 1_554
B12 B13 1.825456 1_545
B12 Ce3 2.781769 1_554
B12 Ce3 2.781769 1_654
B12 Ce2 2.835382 1_555
B12 Ce2 2.835382 1_655
B13 B6 1.772926 1_565
B13 B4 1.772929 1_565
B13 B15 1.825418 1_554
B13 Ce2 2.781813 1_665
B13 Ce2 2.781813 1_565
B13 Ce0 2.835419 1_655
B13 Ce0 2.835419 1_555
B14 B8 1.731080 1_555
B14 B6 1.772926 1_556
B14 B4 1.772929 1_556
B14 B15 1.825456 1_545
B14 Ce1 2.781813 1_545
B14 Ce1 2.781813 1_645
B14 Ce3 2.835419 1_655
B14 Ce3 2.835419 1_555
B15 B6 1.772958 1_566
B15 B4 1.772960 1_566
B15 Ce0 2.781769 1_656
B15 Ce0 2.781769 1_556
B15 Ce1 2.835382 1_555
B15 Ce1 2.835382 1_655
