# generated using pymatgen
data_SrNiGe
_symmetry_space_group_name_H-M   'P 1'
_cell_length_a   4.18649300
_cell_length_b   5.74539600
_cell_length_c   11.40012800
_cell_angle_alpha   90.00000000
_cell_angle_beta   90.00000000
_cell_angle_gamma   90.00000000
_symmetry_Int_Tables_number   1
_chemical_formula_structural   SrNiGe
_chemical_formula_sum   'Sr4 Ni4 Ge4'
_cell_volume   274.20796434
_cell_formula_units_Z   4
loop_
 _symmetry_equiv_pos_site_id
 _symmetry_equiv_pos_as_xyz
  1  'x, y, z'
loop_
 _atom_site_type_symbol
 _atom_site_label
 _atom_site_symmetry_multiplicity
 _atom_site_fract_x
 _atom_site_fract_y
 _atom_site_fract_z
 _atom_site_occupancy
  Sr  Sr0  1  0.75000000  0.38034900  0.85638000  1
  Sr  Sr1  1  0.75000000  0.88034900  0.64362000  1
  Sr  Sr2  1  0.25000000  0.61965100  0.14362000  1
  Sr  Sr3  1  0.25000000  0.11965100  0.35638000  1
  Ni  Ni0  1  0.75000000  0.40000100  0.54359900  1
  Ni  Ni1  1  0.75000000  0.90000100  0.95640100  1
  Ni  Ni2  1  0.25000000  0.59999900  0.45640100  1
  Ni  Ni3  1  0.25000000  0.09999900  0.04359900  1
  Ge  Ge0  1  0.75000000  0.13506600  0.12836900  1
  Ge  Ge1  1  0.75000000  0.63506600  0.37163100  1
  Ge  Ge2  1  0.25000000  0.86493400  0.87163100  1
  Ge  Ge3  1  0.25000000  0.36493400  0.62836900  1
loop_
_geom_bond_atom_site_label_1
_geom_bond_atom_site_label_2
_geom_bond_distance
_geom_bond_site_symmetry_2
Ni0 Ni2 2.586544 1_555
Ni0 Ni2 2.586544 1_655
Ni0 Sr1 2.986070 1_555
Ni0 Sr1 3.195938 1_545
Ni0 Sr3 3.395796 1_555
Ni0 Sr3 3.395796 1_655
Ni0 Sr0 3.567531 1_555
Ni1 Ni3 2.586544 1_566
Ni1 Ni3 2.586544 1_666
Ni1 Sr0 2.986070 1_565
Ni1 Sr0 3.195938 1_555
Ni1 Sr2 3.395796 1_656
Ni1 Sr2 3.395796 1_556
Ni1 Sr1 3.567531 1_555
Ni2 Sr3 2.986070 1_555
Ni2 Sr3 3.195938 1_565
Ni2 Sr1 3.395796 1_455
Ni2 Sr1 3.395796 1_555
Ni2 Sr2 3.567531 1_555
Ni3 Sr2 2.986070 1_545
Ni3 Sr2 3.195938 1_555
Ni3 Sr0 3.395796 1_454
Ni3 Sr0 3.395796 1_554
Ni3 Sr3 3.567531 1_555
Ge0 Ni3 2.314342 1_555
Ge0 Ni3 2.314342 1_655
Ge0 Ni1 2.380621 1_544
Ge0 Sr3 3.338588 1_555
Ge0 Sr3 3.338588 1_655
Ge0 Sr0 3.405933 1_554
Ge0 Sr2 3.487593 1_555
Ge0 Sr2 3.487593 1_655
Ge0 Sr2 3.630563 1_545
Ge0 Sr2 3.630563 1_645
Ge1 Ni2 2.314342 1_655
Ge1 Ni2 2.314342 1_555
Ge1 Ni0 2.380621 1_555
Ge1 Sr2 3.338588 1_555
Ge1 Sr2 3.338588 1_655
Ge1 Sr1 3.405933 1_555
Ge1 Sr3 3.487593 1_565
Ge1 Sr3 3.487593 1_665
Ge1 Sr3 3.630563 1_555
Ge1 Sr3 3.630563 1_655
Ge2 Ni1 2.314342 1_555
Ge2 Ni1 2.314342 1_455
Ge2 Ni3 2.380621 1_566
Ge2 Sr1 3.338588 1_455
Ge2 Sr1 3.338588 1_555
Ge2 Sr2 3.405933 1_556
Ge2 Sr0 3.487593 1_455
Ge2 Sr0 3.487593 1_555
Ge2 Sr0 3.630563 1_565
Ge2 Sr0 3.630563 1_465
Ge3 Ni0 2.314342 1_555
Ge3 Ni0 2.314342 1_455
Ge3 Ni2 2.380621 1_555
Ge3 Sr0 3.338588 1_455
Ge3 Sr0 3.338588 1_555
Ge3 Sr3 3.405933 1_555
Ge3 Sr1 3.487593 1_445
Ge3 Sr1 3.487593 1_545
Ge3 Sr1 3.630563 1_555
Ge3 Sr1 3.630563 1_455
