# generated using pymatgen
data_Na3CoBAsO7
_symmetry_space_group_name_H-M   'P 1'
_cell_length_a   9.11470439
_cell_length_b   6.82530815
_cell_length_c   5.31371053
_cell_angle_alpha   90.24473253
_cell_angle_beta   88.44368951
_cell_angle_gamma   90.09131040
_symmetry_Int_Tables_number   1
_chemical_formula_structural   Na3CoBAsO7
_chemical_formula_sum   'Na6 Co2 B2 As2 O14'
_cell_volume   330.44415451
_cell_formula_units_Z   2
loop_
 _symmetry_equiv_pos_site_id
 _symmetry_equiv_pos_as_xyz
  1  'x, y, z'
loop_
 _atom_site_type_symbol
 _atom_site_label
 _atom_site_symmetry_multiplicity
 _atom_site_fract_x
 _atom_site_fract_y
 _atom_site_fract_z
 _atom_site_occupancy
  Na  Na0  1  0.07618300  0.25193700  0.76027700  1
  Na  Na1  1  0.24434400  0.99850300  0.24062200  1
  Na  Na2  1  0.24444900  0.50155900  0.24086100  1
  Na  Na3  1  0.75309000  0.50047400  0.75380100  1
  Na  Na4  1  0.75335300  0.00039400  0.75114600  1
  Na  Na5  1  0.91884400  0.74785200  0.24256700  1
  Co  Co0  1  0.33308700  0.74999500  0.77247200  1
  Co  Co1  1  0.66842200  0.24670200  0.22586300  1
  B  B0  1  0.06293700  0.75036100  0.73822500  1
  B  B1  1  0.93641300  0.25175600  0.27552300  1
  As  As0  1  0.42536600  0.24983300  0.71180100  1
  As  As1  1  0.57589400  0.74861500  0.28352600  1
  O  O0  1  0.08287000  0.25012000  0.30384000  1
  O  O1  1  0.12455500  0.74880700  0.97412200  1
  O  O2  1  0.17382600  0.75066300  0.54359700  1
  O  O3  1  0.31229400  0.05465700  0.78675200  1
  O  O4  1  0.31238300  0.44562000  0.78436400  1
  O  O5  1  0.46811400  0.24736000  0.38898300  1
  O  O6  1  0.41365500  0.74995300  0.12691700  1
  O  O7  1  0.58682000  0.24854000  0.86583200  1
  O  O8  1  0.53651500  0.74912100  0.60458400  1
  O  O9  1  0.68865400  0.55431200  0.20641100  1
  O  O10  1  0.68835000  0.94555400  0.21289800  1
  O  O11  1  0.83300200  0.25130500  0.47506400  1
  O  O12  1  0.86746600  0.25475000  0.04195300  1
  O  O13  1  0.91911600  0.75125800  0.68799900  1
loop_
_geom_bond_atom_site_label_1
_geom_bond_atom_site_label_2
_geom_bond_distance
_geom_bond_site_symmetry_2
Na0 O12 2.388497 1_456
Na0 O0 2.424464 1_555
Na0 O4 2.530479 1_555
Na0 O3 2.547862 1_555
Na0 O11 2.718866 1_455
Na0 O0 2.890714 1_556
Na1 O0 2.281362 1_565
Na1 O6 2.360804 1_555
Na1 O2 2.414544 1_555
Na1 O1 2.481810 1_554
Na1 O3 2.504585 1_564
Na1 O5 2.780521 1_565
Na2 O0 2.279521 1_555
Na2 O6 2.359903 1_555
Na2 O2 2.411787 1_555
Na2 O1 2.482218 1_554
Na2 O4 2.514840 1_554
Na2 O5 2.809950 1_555
Na3 O13 2.304392 1_555
Na3 O11 2.353790 1_555
Na3 O7 2.357824 1_555
Na3 O9 2.486079 1_556
Na3 O12 2.521562 1_556
Na3 O8 2.740938 1_555
Na4 O13 2.294033 1_545
Na4 O7 2.343727 1_555
Na4 O11 2.360434 1_555
Na4 O10 2.537626 1_546
Na4 O12 2.557771 1_556
Na4 O8 2.741422 1_545
Na4 O10 2.958626 1_545
Na5 O1 2.324895 1_654
Na5 O13 2.366980 1_555
Na5 O9 2.488945 1_555
Na5 O10 2.507635 1_555
Co0 O2 1.918921 1_555
Co0 O8 2.035691 1_555
Co0 O6 2.040018 1_556
Co0 O4 2.086778 1_555
Co0 O3 2.089200 1_565
Co0 O1 2.156452 1_555
Co1 O5 1.999676 1_555
Co1 O11 2.027839 1_555
Co1 O12 2.037960 1_555
Co1 O10 2.064418 1_545
Co1 O7 2.071435 1_554
Co1 O9 2.110051 1_555
B0 O13 1.344891 1_455
B0 O1 1.387496 1_555
B0 O2 1.426309 1_555
B1 O0 1.347490 1_655
B1 O11 1.399430 1_555
B1 O12 1.406540 1_555
As0 O7 1.703271 1_555
As0 O3 1.724308 1_555
As0 O4 1.724327 1_555
As0 O5 1.748724 1_555
As1 O6 1.716474 1_555
As1 O9 1.720407 1_555
As1 O10 1.725483 1_555
As1 O8 1.733782 1_555
