# generated using pymatgen
data_NaCaTiMnSi2O8F
_symmetry_space_group_name_H-M   'P 1'
_cell_length_a   9.86857100
_cell_length_b   7.09324700
_cell_length_c   10.91350612
_cell_angle_alpha   72.11027976
_cell_angle_beta   90.00000000
_cell_angle_gamma   90.00000000
_symmetry_Int_Tables_number   1
_chemical_formula_structural   NaCaTiMnSi2O8F
_chemical_formula_sum   'Na4 Ca4 Ti4 Mn4 Si8 O32 F4'
_cell_volume   727.01050806
_cell_formula_units_Z   4
loop_
 _symmetry_equiv_pos_site_id
 _symmetry_equiv_pos_as_xyz
  1  'x, y, z'
loop_
 _atom_site_type_symbol
 _atom_site_label
 _atom_site_symmetry_multiplicity
 _atom_site_fract_x
 _atom_site_fract_y
 _atom_site_fract_z
 _atom_site_occupancy
  Na  Na0  1  0.87904000  0.66312300  0.42572200  1
  Na  Na1  1  0.12096000  0.33687700  0.57427800  1
  Na  Na2  1  0.37904000  0.33687700  0.07427800  1
  Na  Na3  1  0.62096000  0.66312300  0.92572200  1
  Ca  Ca0  1  0.60850900  0.47473700  0.30186500  1
  Ca  Ca1  1  0.39149100  0.52526300  0.69813500  1
  Ca  Ca2  1  0.10850900  0.52526300  0.19813500  1
  Ca  Ca3  1  0.89149100  0.47473700  0.80186500  1
  Ti  Ti0  1  0.60135100  0.97841700  0.28272300  1
  Ti  Ti1  1  0.39864900  0.02158300  0.71727700  1
  Ti  Ti2  1  0.10135100  0.02158300  0.21727700  1
  Ti  Ti3  1  0.89864900  0.97841700  0.78272300  1
  Mn  Mn0  1  0.36964800  0.86418800  0.06121900  1
  Mn  Mn1  1  0.63035200  0.13581200  0.93878100  1
  Mn  Mn2  1  0.86964800  0.13581200  0.43878100  1
  Mn  Mn3  1  0.13035200  0.86418800  0.56121900  1
  Si  Si0  1  0.83504200  0.79020800  0.12137200  1
  Si  Si1  1  0.16495800  0.20979200  0.87862800  1
  Si  Si2  1  0.33504200  0.20979200  0.37862800  1
  Si  Si3  1  0.66495800  0.79020800  0.62137200  1
  Si  Si4  1  0.83343200  0.32639300  0.12156300  1
  Si  Si5  1  0.16656800  0.67360700  0.87843700  1
  Si  Si6  1  0.33343200  0.67360700  0.37843700  1
  Si  Si7  1  0.66656800  0.32639300  0.62156300  1
  O  O0  1  0.83935800  0.54763300  0.14257200  1
  O  O1  1  0.16064200  0.45236700  0.85742800  1
  O  O2  1  0.33935800  0.45236700  0.35742800  1
  O  O3  1  0.66064200  0.54763300  0.64257200  1
  O  O4  1  0.23721100  0.65156500  0.01562100  1
  O  O5  1  0.76278900  0.34843500  0.98437900  1
  O  O6  1  0.73721100  0.34843500  0.48437900  1
  O  O7  1  0.26278900  0.65156500  0.51562100  1
  O  O8  1  0.47354500  0.95981900  0.87330000  1
  O  O9  1  0.52645500  0.04018100  0.12670000  1
  O  O10  1  0.97354500  0.04018100  0.62670000  1
  O  O11  1  0.02645500  0.95981900  0.37330000  1
  O  O12  1  0.99035900  0.83856500  0.15418600  1
  O  O13  1  0.00964100  0.16143500  0.84581400  1
  O  O14  1  0.49035900  0.16143500  0.34581400  1
  O  O15  1  0.50964100  0.83856500  0.65418600  1
  O  O16  1  0.73544900  0.79521800  0.24178200  1
  O  O17  1  0.26455100  0.20478200  0.75821800  1
  O  O18  1  0.23544900  0.20478200  0.25821800  1
  O  O19  1  0.76455100  0.79521800  0.74178200  1
  O  O20  1  0.24575900  0.80247600  0.25218100  1
  O  O21  1  0.75424100  0.19752400  0.74781900  1
  O  O22  1  0.74575900  0.19752400  0.24781900  1
  O  O23  1  0.25424100  0.80247600  0.75218100  1
  O  O24  1  0.72070200  0.90502900  0.47837300  1
  O  O25  1  0.27929800  0.09497100  0.52162700  1
  O  O26  1  0.22070200  0.09497100  0.02162700  1
  O  O27  1  0.77929800  0.90502900  0.97837300  1
  O  O28  1  0.49299500  0.74157600  0.36843800  1
  O  O29  1  0.50700500  0.25842400  0.63156200  1
  O  O30  1  0.99299500  0.25842400  0.13156200  1
  O  O31  1  0.00700500  0.74157600  0.86843800  1
  F  F0  1  0.50516100  0.59891900  0.11245400  1
  F  F1  1  0.49483900  0.40108100  0.88754600  1
  F  F2  1  0.00516100  0.40108100  0.38754600  1
  F  F3  1  0.99483900  0.59891900  0.61245400  1
loop_
_geom_bond_atom_site_label_1
_geom_bond_atom_site_label_2
_geom_bond_distance
_geom_bond_site_symmetry_2
Na0 O16 2.400025 1_555
Na0 O11 2.476498 1_655
Na0 O24 2.514330 1_555
Na0 O6 2.544300 1_555
Na1 O17 2.400025 1_555
Na1 O10 2.476498 1_455
Na1 O25 2.514330 1_555
Na1 O7 2.544300 1_555
Na2 O18 2.400025 1_555
Na2 O9 2.476498 1_555
Na2 O26 2.514330 1_555
Na2 O4 2.544300 1_555
Na3 O19 2.400025 1_555
Na3 O8 2.476498 1_555
Na3 O27 2.514330 1_555
Na3 O5 2.544300 1_555
Ca0 F0 2.229457 1_555
Ca0 O6 2.299343 1_555
Ca0 O14 2.423514 1_555
Ca0 O16 2.500229 1_555
Ca0 O28 2.500952 1_555
Ca0 O22 2.600291 1_555
Ca0 O2 2.718240 1_555
Ca0 O0 2.815539 1_555
Ca1 F1 2.229457 1_555
Ca1 O7 2.299343 1_555
Ca1 O15 2.423514 1_555
Ca1 O17 2.500229 1_555
Ca1 O29 2.500952 1_555
Ca1 O23 2.600291 1_555
Ca1 O3 2.718240 1_555
Ca1 O1 2.815539 1_555
Ca2 F2 2.229457 1_555
Ca2 O4 2.299343 1_555
Ca2 O12 2.423514 1_455
Ca2 O18 2.500229 1_555
Ca2 O30 2.500952 1_455
Ca2 O20 2.600291 1_555
Ca2 O0 2.718240 1_455
Ca2 O2 2.815539 1_555
Ca3 F3 2.229457 1_555
Ca3 O5 2.299343 1_555
Ca3 O13 2.423514 1_655
Ca3 O19 2.500229 1_555
Ca3 O31 2.500952 1_655
Ca3 O21 2.600291 1_555
Ca3 O1 2.718240 1_655
Ca3 O3 2.815539 1_555
Mn0 O26 2.143005 1_565
Mn0 O4 2.165993 1_555
Mn0 O8 2.205158 1_554
Mn0 O9 2.238710 1_565
Mn0 O20 2.338639 1_555
Mn1 O27 2.143005 1_545
Mn1 O5 2.165993 1_555
Mn1 O9 2.205158 1_556
Mn1 O8 2.238710 1_545
Mn1 O21 2.338639 1_555
Mn2 O24 2.143005 1_545
Mn2 O6 2.165993 1_555
Mn2 O10 2.205158 1_555
Mn2 O11 2.238710 1_645
Mn2 O22 2.338639 1_555
Mn3 O25 2.143005 1_565
Mn3 O7 2.165993 1_555
Mn3 O11 2.205158 1_555
Mn3 O10 2.238710 1_465
Mn3 O23 2.338639 1_555
O0 Si4 1.655229 1_555
O0 Si0 1.664746 1_555
O1 Si5 1.655229 1_555
O1 Si1 1.664746 1_555
O2 Si6 1.655229 1_555
O2 Si2 1.664746 1_555
O3 Si7 1.655229 1_555
O3 Si3 1.664746 1_555
O4 Si5 1.614970 1_554
O5 Si4 1.614970 1_556
O6 Si7 1.614970 1_555
O7 Si6 1.614970 1_555
O8 Ti1 1.783059 1_565
O9 Ti0 1.783059 1_545
O10 Ti3 1.783059 1_545
O11 Ti2 1.783059 1_565
O12 Si0 1.634231 1_555
O12 Ti2 1.976945 1_665
O13 Si1 1.634231 1_555
O13 Ti3 1.976945 1_445
O14 Si2 1.634231 1_555
O14 Ti0 1.976945 1_545
O15 Si3 1.634231 1_555
O15 Ti1 1.976945 1_565
O16 Si0 1.650084 1_555
O16 Ti0 1.999065 1_555
O17 Si1 1.650084 1_555
O17 Ti1 1.999065 1_555
O18 Si2 1.650084 1_555
O18 Ti2 1.999065 1_555
O19 Si3 1.650084 1_555
O19 Ti3 1.999065 1_555
O20 Si6 1.645885 1_555
O20 Ti2 2.056153 1_565
O21 Si7 1.645885 1_555
O21 Ti3 2.056153 1_545
O22 Si4 1.645885 1_555
O22 Ti0 2.056153 1_545
O23 Si5 1.645885 1_555
O23 Ti1 2.056153 1_565
O24 Si3 1.618826 1_555
O24 Ti0 2.352566 1_555
O25 Si2 1.618826 1_555
O25 Ti1 2.352566 1_555
O26 Si1 1.618826 1_554
O26 Ti2 2.352566 1_555
O27 Si0 1.618826 1_556
O27 Ti3 2.352566 1_555
O28 Si6 1.640602 1_555
O28 Ti0 1.968581 1_555
O29 Si7 1.640602 1_555
O29 Ti1 1.968581 1_555
O30 Si4 1.640602 1_555
O30 Ti2 1.968581 1_655
O31 Si5 1.640602 1_555
O31 Ti3 1.968581 1_455
F0 Mn0 2.234989 1_555
F0 Na3 2.257471 1_554
F0 Na2 2.377676 1_555
F1 Mn1 2.234989 1_555
F1 Na2 2.257471 1_556
F1 Na3 2.377676 1_555
F2 Mn2 2.234989 1_455
F2 Na1 2.257471 1_555
F2 Na0 2.377676 1_455
F3 Mn3 2.234989 1_655
F3 Na0 2.257471 1_555
F3 Na1 2.377676 1_655
