# generated using pymatgen
data_Mn6O5F7
_symmetry_space_group_name_H-M   'P 1'
_cell_length_a   5.58793669
_cell_length_b   4.97773920
_cell_length_c   15.31371787
_cell_angle_alpha   94.91595753
_cell_angle_beta   92.03992928
_cell_angle_gamma   86.57298649
_symmetry_Int_Tables_number   1
_chemical_formula_structural   Mn6O5F7
_chemical_formula_sum   'Mn12 O10 F14'
_cell_volume   423.43081499
_cell_formula_units_Z   2
loop_
 _symmetry_equiv_pos_site_id
 _symmetry_equiv_pos_as_xyz
  1  'x, y, z'
loop_
 _atom_site_type_symbol
 _atom_site_label
 _atom_site_symmetry_multiplicity
 _atom_site_fract_x
 _atom_site_fract_y
 _atom_site_fract_z
 _atom_site_occupancy
  Mn  Mn0  1  0.92156900  0.01187800  0.99817800  1
  Mn  Mn1  1  0.12832300  0.51390800  0.16115200  1
  Mn  Mn2  1  0.89788500  0.00861100  0.32751800  1
  Mn  Mn3  1  0.10430900  0.51183600  0.50019800  1
  Mn  Mn4  1  0.97556400  0.97228500  0.66955600  1
  Mn  Mn5  1  0.09457200  0.50038500  0.81896600  1
  Mn  Mn6  1  0.45436900  0.97495400  0.16937400  1
  Mn  Mn7  1  0.43601600  0.48291700  0.00675500  1
  Mn  Mn8  1  0.43155300  0.50260500  0.66967600  1
  Mn  Mn9  1  0.52524900  0.00609000  0.50828300  1
  Mn  Mn10  1  0.42255200  0.46884400  0.33588000  1
  Mn  Mn11  1  0.50106500  0.00028200  0.83290100  1
  O  O0  1  0.20241600  0.75522600  0.07800100  1
  O  O1  1  0.23705000  0.76364800  0.74911400  1
  O  O2  1  0.36144600  0.27916100  0.10425600  1
  O  O3  1  0.35783800  0.68416800  0.23561700  1
  O  O4  1  0.32339600  0.72698800  0.57027500  1
  O  O5  1  0.34693300  0.27832200  0.76585100  1
  O  O6  1  0.35453000  0.28264600  0.43996100  1
  O  O7  1  0.62356300  0.21082200  0.94062300  1
  O  O8  1  0.60824200  0.21659900  0.60861700  1
  O  O9  1  0.59858600  0.17867800  0.27050500  1
  F  F0  1  0.11399100  0.25630500  0.25410600  1
  F  F1  1  0.10466200  0.28546500  0.60659300  1
  F  F2  1  0.14899500  0.74469800  0.39030200  1
  F  F3  1  0.13874800  0.27227400  0.93049200  1
  F  F4  1  0.37555800  0.71985300  0.91143000  1
  F  F5  1  0.66927900  0.80097200  0.06318800  1
  F  F6  1  0.62840000  0.78898500  0.39523800  1
  F  F7  1  0.71933000  0.72674500  0.72258500  1
  F  F8  1  0.86626500  0.28787500  0.43469000  1
  F  F9  1  0.88492500  0.31865600  0.09697400  1
  F  F10  1  0.85579900  0.21908400  0.77938700  1
  F  F11  1  0.84008100  0.76600000  0.54772000  1
  F  F12  1  0.86928000  0.74852900  0.88637500  1
  F  F13  1  0.87766100  0.73370000  0.21966100  1
loop_
_geom_bond_atom_site_label_1
_geom_bond_atom_site_label_2
_geom_bond_distance
_geom_bond_site_symmetry_2
Mn0 O7 2.092482 1_555
Mn0 O0 2.341071 1_646
Mn1 O3 1.877146 1_555
Mn1 O2 1.883043 1_555
Mn1 O0 1.896024 1_555
Mn2 O9 2.032118 1_555
Mn3 O4 1.914059 1_555
Mn3 O6 1.956583 1_555
Mn4 O1 2.146299 1_655
Mn5 O5 1.900856 1_555
Mn5 O1 1.980156 1_555
Mn6 O2 1.919623 1_565
Mn6 O3 1.949131 1_555
Mn6 O9 1.953441 1_565
Mn6 O0 2.217643 1_555
Mn7 O7 1.905031 1_554
Mn7 O2 1.945776 1_555
Mn7 O0 2.089979 1_555
Mn8 O8 1.882939 1_555
Mn8 O1 2.000989 1_555
Mn8 O5 2.008387 1_555
Mn8 O4 2.018678 1_555
Mn9 O8 1.845346 1_555
Mn9 O6 1.979547 1_555
Mn9 O4 2.143186 1_545
Mn10 O9 1.925746 1_555
Mn10 O3 1.957860 1_555
Mn10 O6 1.970373 1_555
Mn11 O5 1.936405 1_555
Mn11 O7 1.999305 1_555
Mn11 O1 2.241483 1_545
F0 Mn1 2.002537 1_555
F0 Mn2 2.180484 1_455
F0 Mn10 2.344715 1_555
F0 Mn6 2.609305 1_545
F1 Mn3 2.058764 1_555
F1 Mn4 2.078924 1_445
F1 Mn8 2.317238 1_555
F2 Mn2 2.125832 1_465
F2 Mn10 2.135496 1_555
F2 Mn3 2.153366 1_555
F3 Mn5 2.129773 1_555
F3 Mn0 2.176037 1_455
F3 Mn7 2.254524 1_556
F4 Mn7 1.961739 1_556
F4 Mn11 2.085993 1_565
F4 Mn5 2.333540 1_555
F5 Mn0 2.129961 1_564
F5 Mn6 2.147026 1_555
F5 Mn7 2.210063 1_555
F6 Mn9 2.042769 1_565
F6 Mn10 2.141335 1_555
F6 Mn2 2.245122 1_565
F7 Mn8 2.110454 1_555
F7 Mn4 2.159984 1_555
F7 Mn11 2.397771 1_565
F8 Mn3 1.977158 1_655
F8 Mn2 2.063351 1_555
F9 Mn1 1.912991 1_655
F9 Mn0 2.061921 1_554
F10 Mn5 2.031893 1_655
F10 Mn4 2.100872 1_545
F10 Mn11 2.512722 1_555
F11 Mn3 2.001407 1_655
F11 Mn9 2.164418 1_565
F11 Mn4 2.184637 1_555
F12 Mn5 1.965774 1_655
F12 Mn0 2.088218 1_565
F12 Mn11 2.494436 1_565
F13 Mn1 1.923493 1_655
F13 Mn2 2.057011 1_565
F13 Mn6 2.705401 1_555
