# generated using pymatgen
data_Sr3CaV4O12
_symmetry_space_group_name_H-M   'P 1'
_cell_length_a   3.98184287
_cell_length_b   12.21753194
_cell_length_c   10.94431858
_cell_angle_alpha   116.50711110
_cell_angle_beta   90.05109949
_cell_angle_gamma   90.17015021
_symmetry_Int_Tables_number   1
_chemical_formula_structural   Sr3CaV4O12
_chemical_formula_sum   'Sr6 Ca2 V8 O24'
_cell_volume   476.45005844
_cell_formula_units_Z   2
loop_
 _symmetry_equiv_pos_site_id
 _symmetry_equiv_pos_as_xyz
  1  'x, y, z'
loop_
 _atom_site_type_symbol
 _atom_site_label
 _atom_site_symmetry_multiplicity
 _atom_site_fract_x
 _atom_site_fract_y
 _atom_site_fract_z
 _atom_site_occupancy
  Sr  Sr0  1  0.49979000  0.50028500  0.50012000  1
  Sr  Sr1  1  0.50042700  0.49977900  0.99983300  1
  Sr  Sr2  1  0.49984700  0.24896200  0.62462200  1
  Sr  Sr3  1  0.49900800  0.24894800  0.12476000  1
  Sr  Sr4  1  0.50031400  0.75092000  0.87530300  1
  Sr  Sr5  1  0.50088600  0.75131900  0.37545800  1
  Ca  Ca0  1  0.50041900  0.00054700  0.25140100  1
  Ca  Ca1  1  0.50048700  0.99985700  0.74986900  1
  V  V0  1  0.00058200  0.00025800  0.50017500  1
  V  V1  1  0.99912500  0.99985800  0.00021100  1
  V  V2  1  0.00059200  0.75288500  0.62658200  1
  V  V3  1  0.00095800  0.75274000  0.12642400  1
  V  V4  1  0.99831700  0.24771900  0.37349400  1
  V  V5  1  0.99946700  0.24690900  0.87365800  1
  V  V6  1  0.00014800  0.49997100  0.75005800  1
  V  V7  1  0.00038900  0.50020200  0.24997100  1
  O  O0  1  0.50016900  0.49999200  0.75019300  1
  O  O1  1  0.49999900  0.49999400  0.24972100  1
  O  O2  1  0.49997000  0.00012800  0.49907200  1
  O  O3  1  0.49964200  0.99985100  0.00034300  1
  O  O4  1  0.50120400  0.75673000  0.62881900  1
  O  O5  1  0.50117100  0.75595900  0.12818500  1
  O  O6  1  0.49867100  0.24447100  0.37191900  1
  O  O7  1  0.49897700  0.24250000  0.87083300  1
  O  O8  1  0.00107800  0.62969300  0.68433800  1
  O  O9  1  0.00250200  0.62953500  0.18441600  1
  O  O10  1  0.99846100  0.37090700  0.31582400  1
  O  O11  1  0.99929100  0.36977000  0.81543800  1
  O  O12  1  0.99990600  0.37864000  0.56901700  1
  O  O13  1  0.00203600  0.37754900  0.06864000  1
  O  O14  1  0.99747500  0.62222800  0.43117700  1
  O  O15  1  0.00034700  0.62126400  0.93117100  1
  O  O16  1  0.00133300  0.87219600  0.56390600  1
  O  O17  1  0.99926000  0.87170900  0.06352400  1
  O  O18  1  0.99990700  0.12847200  0.43632300  1
  O  O19  1  0.99863000  0.12722200  0.93555900  1
  O  O20  1  0.00520000  0.88132500  0.81719000  1
  O  O21  1  0.00371900  0.88186600  0.31700000  1
  O  O22  1  0.99479700  0.11866700  0.18299600  1
  O  O23  1  0.99550100  0.11817200  0.68245500  1
loop_
_geom_bond_atom_site_label_1
_geom_bond_atom_site_label_2
_geom_bond_distance
_geom_bond_site_symmetry_2
Ca0 O6 2.666931 1_555
Ca0 O5 2.674187 1_545
Ca0 O2 2.712881 1_555
Ca0 O21 2.728412 1_545
Ca0 O22 2.732834 1_555
Ca0 O3 2.743873 1_545
Ca0 O21 2.752830 1_645
Ca0 O18 2.765004 1_555
Ca0 O22 2.770463 1_455
Ca0 O18 2.777196 1_455
Ca0 O17 2.787969 1_445
Ca0 O17 2.790672 1_545
Ca1 O7 2.652897 1_565
Ca1 O4 2.658172 1_555
Ca1 O23 2.730683 1_565
Ca1 O20 2.732668 1_555
Ca1 O3 2.741305 1_556
Ca1 O2 2.746281 1_565
Ca1 O19 2.763608 1_565
Ca1 O23 2.764721 1_465
Ca1 O20 2.765129 1_655
Ca1 O16 2.768774 1_555
Ca1 O16 2.782854 1_655
Ca1 O19 2.783460 1_465
O0 V6 1.990840 1_655
O0 V6 1.991003 1_555
O0 Sr1 2.733301 1_555
O0 Sr0 2.738477 1_555
O0 Sr4 2.743447 1_555
O0 Sr2 2.744565 1_555
O1 V7 1.989380 1_555
O1 V7 1.992466 1_655
O1 Sr1 2.733685 1_554
O1 Sr0 2.738862 1_555
O1 Sr3 2.744728 1_555
O1 Sr5 2.747784 1_555
O2 V0 1.988533 1_555
O2 V0 1.993376 1_655
O2 Sr5 2.720301 1_545
O2 Sr2 2.720611 1_555
O3 V1 1.988864 1_555
O3 V1 1.992980 1_455
O3 Sr4 2.721650 1_554
O3 Sr3 2.723443 1_565
O4 V2 1.989093 1_655
O4 V2 1.993643 1_555
O4 Sr4 2.730024 1_555
O4 Sr5 2.743995 1_555
O4 Sr0 2.803771 1_555
O5 V3 1.990519 1_655
O5 V3 1.991947 1_555
O5 Sr5 2.732008 1_555
O5 Sr4 2.740697 1_554
O5 Sr1 2.800872 1_554
O6 V4 1.989696 1_555
O6 V4 1.992781 1_455
O6 Sr3 2.729839 1_555
O6 Sr2 2.741613 1_555
O6 Sr0 2.796868 1_555
O7 V5 1.989754 1_455
O7 V5 1.993280 1_555
O7 Sr2 2.730767 1_555
O7 Sr3 2.744804 1_556
O7 Sr1 2.812884 1_555
O8 V2 1.874598 1_555
O8 V6 2.011643 1_555
O8 Sr0 2.770831 1_455
O8 Sr0 2.772792 1_555
O8 Sr4 2.779455 1_555
O8 Sr4 2.792752 1_455
O9 V3 1.876564 1_555
O9 V7 2.005864 1_555
O9 Sr1 2.773489 1_554
O9 Sr1 2.776005 1_454
O9 Sr5 2.778806 1_555
O9 Sr5 2.796971 1_455
O10 V4 1.873890 1_555
O10 V7 2.007737 1_655
O10 Sr0 2.771262 1_655
O10 Sr0 2.772988 1_555
O10 Sr3 2.782384 1_555
O10 Sr3 2.794476 1_655
O11 V5 1.874277 1_555
O11 V6 2.014553 1_655
O11 Sr1 2.773108 1_655
O11 Sr1 2.775969 1_555
O11 Sr2 2.778213 1_555
O11 Sr2 2.790311 1_655
O12 V6 1.871231 1_655
O12 V4 2.020457 1_555
O12 Sr2 2.772950 1_555
O12 Sr2 2.778584 1_655
O12 Sr0 2.779334 1_655
O12 Sr0 2.785349 1_555
O13 V7 1.878713 1_555
O13 V5 2.015187 1_454
O13 Sr3 2.763957 1_555
O13 Sr3 2.775370 1_455
O13 Sr1 2.779269 1_554
O13 Sr1 2.793801 1_454
O14 V7 1.875307 1_655
O14 V2 2.018526 1_655
O14 Sr5 2.764792 1_555
O14 Sr0 2.775726 1_555
O14 Sr5 2.778358 1_655
O14 Sr0 2.794269 1_655
O15 V6 1.871639 1_555
O15 V3 2.020557 1_556
O15 Sr4 2.773877 1_555
O15 Sr1 2.776847 1_455
O15 Sr4 2.780029 1_455
O15 Sr1 2.782657 1_555
O16 V2 1.867587 1_555
O16 V0 1.977023 1_565
O16 Sr5 2.768015 1_455
O16 Sr5 2.774402 1_555
O17 V3 1.865427 1_655
O17 V1 1.974797 1_555
O17 Sr4 2.762255 1_554
O17 Sr4 2.777230 1_654
O18 V4 1.868074 1_555
O18 V0 1.979719 1_655
O18 Sr2 2.764803 1_655
O18 Sr2 2.774074 1_555
O19 V5 1.865870 1_555
O19 V1 1.976068 1_546
O19 Sr3 2.774065 1_656
O19 Sr3 2.780886 1_556
O20 V1 1.876434 1_456
O20 V2 1.972882 1_555
O20 Sr4 2.783966 1_555
O20 Sr4 2.805752 1_455
O21 V0 1.876993 1_565
O21 V3 1.975333 1_555
O21 Sr5 2.792768 1_555
O21 Sr5 2.802893 1_455
O22 V1 1.875469 1_545
O22 V4 1.974450 1_555
O22 Sr3 2.785501 1_555
O22 Sr3 2.803468 1_655
O23 V0 1.868277 1_655
O23 V5 1.978616 1_555
O23 Sr2 2.787195 1_555
O23 Sr2 2.805882 1_655
