# generated using pymatgen
data_Na2Hf(SO5)3
_symmetry_space_group_name_H-M   'P 1'
_cell_length_a   6.96601000
_cell_length_b   7.88836100
_cell_length_c   22.51782900
_cell_angle_alpha   90.00000000
_cell_angle_beta   90.00000000
_cell_angle_gamma   90.00000000
_symmetry_Int_Tables_number   1
_chemical_formula_structural   Na2Hf(SO5)3
_chemical_formula_sum   'Na8 Hf4 S12 O60'
_cell_volume   1237.36374693
_cell_formula_units_Z   4
loop_
 _symmetry_equiv_pos_site_id
 _symmetry_equiv_pos_as_xyz
  1  'x, y, z'
loop_
 _atom_site_type_symbol
 _atom_site_label
 _atom_site_symmetry_multiplicity
 _atom_site_fract_x
 _atom_site_fract_y
 _atom_site_fract_z
 _atom_site_occupancy
  Na  Na0  1  0.50888200  0.16774300  0.33975800  1
  Na  Na1  1  0.99111800  0.83225700  0.83975800  1
  Na  Na2  1  0.00888200  0.33225700  0.66024200  1
  Na  Na3  1  0.49111800  0.66774300  0.16024200  1
  Na  Na4  1  0.78165100  0.22854100  0.18373300  1
  Na  Na5  1  0.71834900  0.77145900  0.68373300  1
  Na  Na6  1  0.28165100  0.27145900  0.81626700  1
  Na  Na7  1  0.21834900  0.72854100  0.31626700  1
  Hf  Hf0  1  0.83255500  0.56808200  0.41582100  1
  Hf  Hf1  1  0.66744500  0.43191800  0.91582100  1
  Hf  Hf2  1  0.33255500  0.93191800  0.58417900  1
  Hf  Hf3  1  0.16744500  0.06808200  0.08417900  1
  S  S0  1  0.80085100  0.44026900  0.79473900  1
  S  S1  1  0.69914900  0.55973100  0.29473900  1
  S  S2  1  0.30085100  0.05973100  0.20526100  1
  S  S3  1  0.19914900  0.94026900  0.70526100  1
  S  S4  1  0.83388400  0.86644900  0.10325100  1
  S  S5  1  0.66611600  0.13355100  0.60325100  1
  S  S6  1  0.33388400  0.63355100  0.89674900  1
  S  S7  1  0.16611600  0.36644900  0.39674900  1
  S  S8  1  0.00302200  0.60672300  0.56656300  1
  S  S9  1  0.49697800  0.39327700  0.06656300  1
  S  S10  1  0.50302200  0.89327700  0.43343700  1
  S  S11  1  0.99697800  0.10672300  0.93343700  1
  O  O0  1  0.86026200  0.54764800  0.84828900  1
  O  O1  1  0.63973800  0.45235200  0.34828900  1
  O  O2  1  0.36026200  0.95235200  0.15171100  1
  O  O3  1  0.13973800  0.04764800  0.65171100  1
  O  O4  1  0.84892900  0.67363800  0.32490300  1
  O  O5  1  0.65107100  0.32636200  0.82490300  1
  O  O6  1  0.34892900  0.82636200  0.67509700  1
  O  O7  1  0.15107100  0.17363800  0.17509700  1
  O  O8  1  0.78496400  0.45570000  0.24861200  1
  O  O9  1  0.71503600  0.54430000  0.74861200  1
  O  O10  1  0.28496400  0.04430000  0.75138800  1
  O  O11  1  0.21503600  0.95570000  0.25138800  1
  O  O12  1  0.53756900  0.66325500  0.27302800  1
  O  O13  1  0.96243100  0.33674500  0.77302800  1
  O  O14  1  0.03756900  0.83674500  0.72697200  1
  O  O15  1  0.46243100  0.16325500  0.22697200  1
  O  O16  1  0.14413500  0.56200100  0.40073300  1
  O  O17  1  0.35586500  0.43799900  0.90073300  1
  O  O18  1  0.64413500  0.93799900  0.59926700  1
  O  O19  1  0.85586500  0.06200100  0.09926700  1
  O  O20  1  0.95801600  0.31632900  0.40926800  1
  O  O21  1  0.54198400  0.68367100  0.90926800  1
  O  O22  1  0.45801600  0.18367100  0.59073200  1
  O  O23  1  0.04198400  0.81632900  0.09073200  1
  O  O24  1  0.29856300  0.30123400  0.44127800  1
  O  O25  1  0.20143700  0.69876600  0.94127800  1
  O  O26  1  0.79856300  0.19876600  0.55872200  1
  O  O27  1  0.70143700  0.80123400  0.05872200  1
  O  O28  1  0.22029000  0.32269100  0.33592900  1
  O  O29  1  0.27971000  0.67730900  0.83592900  1
  O  O30  1  0.72029000  0.17730900  0.66407100  1
  O  O31  1  0.77971000  0.82269100  0.16407100  1
  O  O32  1  0.91059600  0.59222900  0.50551000  1
  O  O33  1  0.58940400  0.40777100  0.00551000  1
  O  O34  1  0.41059600  0.90777100  0.49449000  1
  O  O35  1  0.08940400  0.09222900  0.99449000  1
  O  O36  1  0.85419200  0.58799100  0.61178600  1
  O  O37  1  0.64580800  0.41200900  0.11178600  1
  O  O38  1  0.35419200  0.91200900  0.38821400  1
  O  O39  1  0.14580800  0.08799100  0.88821400  1
  O  O40  1  0.58441700  0.71660100  0.43256900  1
  O  O41  1  0.91558300  0.28339900  0.93256900  1
  O  O42  1  0.08441700  0.78339900  0.56743100  1
  O  O43  1  0.41558300  0.21660100  0.06743100  1
  O  O44  1  0.15517000  0.47987400  0.57289200  1
  O  O45  1  0.34483000  0.52012600  0.07289200  1
  O  O46  1  0.65517000  0.02012600  0.42710800  1
  O  O47  1  0.84483000  0.97987400  0.92710800  1
  O  O48  1  0.64761300  0.41242000  0.47301200  1
  O  O49  1  0.85238700  0.58758000  0.97301200  1
  O  O50  1  0.14761300  0.08758000  0.52698800  1
  O  O51  1  0.35238700  0.91242000  0.02698800  1
  O  O52  1  0.54563700  0.17755400  0.93136100  1
  O  O53  1  0.95436300  0.82244600  0.43136100  1
  O  O54  1  0.04563700  0.32244600  0.06863900  1
  O  O55  1  0.45436300  0.67755400  0.56863900  1
  O  O56  1  0.78648900  0.08308100  0.27782100  1
  O  O57  1  0.71351100  0.91691900  0.77782100  1
  O  O58  1  0.28648900  0.41691900  0.72217900  1
  O  O59  1  0.21351100  0.58308100  0.22217900  1
loop_
_geom_bond_atom_site_label_1
_geom_bond_atom_site_label_2
_geom_bond_distance
_geom_bond_site_symmetry_2
Na0 O28 2.354328 1_555
Na0 O1 2.430696 1_555
Na0 O56 2.476045 1_555
Na0 O46 2.502645 1_555
Na0 O38 2.534029 1_545
Na0 O15 2.560471 1_555
Na0 O24 2.912246 1_555
Na1 O29 2.354328 1_655
Na1 O0 2.430696 1_555
Na1 O57 2.476045 1_555
Na1 O47 2.502645 1_555
Na1 O39 2.534029 1_665
Na1 O14 2.560471 1_655
Na1 O25 2.912246 1_655
Na2 O30 2.354328 1_455
Na2 O3 2.430696 1_555
Na2 O58 2.476045 1_555
Na2 O44 2.502645 1_555
Na2 O36 2.534029 1_455
Na2 O13 2.560471 1_455
Na2 O26 2.912246 1_455
Na3 O31 2.354328 1_555
Na3 O2 2.430696 1_555
Na3 O59 2.476045 1_555
Na3 O45 2.502645 1_555
Na3 O37 2.534029 1_555
Na3 O12 2.560471 1_555
Na3 O27 2.912246 1_555
Na4 O8 2.312101 1_555
Na4 O19 2.368694 1_555
Na4 O37 2.369538 1_555
Na4 O56 2.409661 1_555
Na4 O15 2.481534 1_555
Na4 O7 2.616809 1_655
Na5 O9 2.312101 1_555
Na5 O18 2.368694 1_555
Na5 O36 2.369538 1_555
Na5 O57 2.409661 1_555
Na5 O14 2.481534 1_655
Na5 O6 2.616809 1_555
Na6 O10 2.312101 1_555
Na6 O17 2.368694 1_555
Na6 O39 2.369538 1_555
Na6 O58 2.409661 1_555
Na6 O13 2.481534 1_455
Na6 O5 2.616809 1_555
Na7 O11 2.312101 1_555
Na7 O16 2.368694 1_555
Na7 O38 2.369538 1_555
Na7 O59 2.409661 1_555
Na7 O12 2.481534 1_555
Na7 O4 2.616809 1_455
Hf0 O32 2.100146 1_555
Hf0 O40 2.121940 1_555
Hf0 O20 2.174731 1_555
Hf0 O48 2.196814 1_555
Hf0 O16 2.197423 1_655
Hf0 O53 2.206475 1_555
Hf0 O4 2.213070 1_555
Hf0 O1 2.224852 1_555
Hf1 O33 2.100146 1_556
Hf1 O41 2.121940 1_555
Hf1 O21 2.174731 1_555
Hf1 O49 2.196814 1_555
Hf1 O17 2.197423 1_555
Hf1 O52 2.206475 1_555
Hf1 O5 2.213070 1_555
Hf1 O0 2.224852 1_555
Hf2 O34 2.100146 1_555
Hf2 O42 2.121940 1_555
Hf2 O22 2.174731 1_565
Hf2 O50 2.196814 1_565
Hf2 O18 2.197423 1_555
Hf2 O55 2.206475 1_555
Hf2 O6 2.213070 1_555
Hf2 O3 2.224852 1_565
Hf3 O35 2.100146 1_554
Hf3 O43 2.121940 1_555
Hf3 O23 2.174731 1_545
Hf3 O51 2.196814 1_545
Hf3 O19 2.197423 1_455
Hf3 O54 2.206475 1_555
Hf3 O7 2.213070 1_555
Hf3 O2 2.224852 1_545
O0 S0 1.530617 1_555
O1 S1 1.530617 1_555
O2 S2 1.530617 1_565
O3 S3 1.530617 1_545
O4 S1 1.535364 1_555
O5 S0 1.535364 1_555
O6 S3 1.535364 1_555
O7 S2 1.535364 1_555
O8 S1 1.452462 1_555
O9 S0 1.452462 1_555
O10 S3 1.452462 1_545
O11 S2 1.452462 1_565
O12 S1 1.474043 1_555
O13 S0 1.474043 1_555
O14 S3 1.474043 1_555
O15 S2 1.474043 1_555
O16 S7 1.552759 1_555
O17 S6 1.552759 1_555
O18 S5 1.552759 1_565
O19 S4 1.552759 1_545
O20 S7 1.528790 1_655
O21 S6 1.528790 1_555
O22 S5 1.528790 1_555
O23 S4 1.528790 1_455
O24 S7 1.456465 1_555
O25 S6 1.456465 1_555
O26 S5 1.456465 1_555
O27 S4 1.456465 1_555
O28 S7 1.461912 1_555
O29 S6 1.461912 1_555
O30 S5 1.461912 1_555
O31 S4 1.461912 1_555
O32 S8 1.522375 1_655
O33 S9 1.522375 1_555
O34 S10 1.522375 1_555
O35 S11 1.522375 1_455
O36 S8 1.460709 1_655
O37 S9 1.460709 1_555
O38 S10 1.460709 1_555
O39 S11 1.460709 1_455
O40 S10 1.504734 1_555
O41 S11 1.504734 1_555
O42 S8 1.504734 1_555
O43 S9 1.504734 1_555
O44 S8 1.464543 1_555
O45 S9 1.464543 1_555
O46 S10 1.464543 1_545
O47 S11 1.464543 1_565
