# generated using pymatgen
data_Mg2VB2Ir5
_symmetry_space_group_name_H-M   'P 1'
_cell_length_a   19.02728000
_cell_length_b   19.02728000
_cell_length_c   5.84613000
_cell_angle_alpha   90.00000000
_cell_angle_beta   90.00000000
_cell_angle_gamma   90.00000000
_symmetry_Int_Tables_number   1
_chemical_formula_structural   Mg2VB2Ir5
_chemical_formula_sum   'Mg32 V16 B32 Ir80'
_cell_volume   2116.51761288
_cell_formula_units_Z   16
loop_
 _symmetry_equiv_pos_site_id
 _symmetry_equiv_pos_as_xyz
  1  'x, y, z'
loop_
 _atom_site_type_symbol
 _atom_site_label
 _atom_site_symmetry_multiplicity
 _atom_site_fract_x
 _atom_site_fract_y
 _atom_site_fract_z
 _atom_site_occupancy
  Mg  Mg0_0  1  0.41203200  0.16203200  0.00000000  1
  Mg  Mg0_1  1  0.41203200  0.16203200  0.50000000  1
  Mg  Mg0_2  1  0.41203200  0.66203200  0.00000000  1
  Mg  Mg0_3  1  0.41203200  0.66203200  0.50000000  1
  Mg  Mg0_4  1  0.91203200  0.16203200  0.00000000  1
  Mg  Mg0_5  1  0.91203200  0.16203200  0.50000000  1
  Mg  Mg0_6  1  0.91203200  0.66203200  0.00000000  1
  Mg  Mg0_7  1  0.91203200  0.66203200  0.50000000  1
  Mg  Mg1_0  1  0.08796800  0.33796800  0.00000000  1
  Mg  Mg1_1  1  0.08796800  0.33796800  0.50000000  1
  Mg  Mg1_2  1  0.08796800  0.83796800  0.00000000  1
  Mg  Mg1_3  1  0.08796800  0.83796800  0.50000000  1
  Mg  Mg1_4  1  0.58796800  0.33796800  0.00000000  1
  Mg  Mg1_5  1  0.58796800  0.33796800  0.50000000  1
  Mg  Mg1_6  1  0.58796800  0.83796800  0.00000000  1
  Mg  Mg1_7  1  0.58796800  0.83796800  0.50000000  1
  Mg  Mg2_0  1  0.16203200  0.08796800  0.00000000  1
  Mg  Mg2_1  1  0.16203200  0.08796800  0.50000000  1
  Mg  Mg2_2  1  0.16203200  0.58796800  0.00000000  1
  Mg  Mg2_3  1  0.16203200  0.58796800  0.50000000  1
  Mg  Mg2_4  1  0.66203200  0.08796800  0.00000000  1
  Mg  Mg2_5  1  0.66203200  0.08796800  0.50000000  1
  Mg  Mg2_6  1  0.66203200  0.58796800  0.00000000  1
  Mg  Mg2_7  1  0.66203200  0.58796800  0.50000000  1
  Mg  Mg3_0  1  0.33796800  0.41203200  0.00000000  1
  Mg  Mg3_1  1  0.33796800  0.41203200  0.50000000  1
  Mg  Mg3_2  1  0.33796800  0.91203200  0.00000000  1
  Mg  Mg3_3  1  0.33796800  0.91203200  0.50000000  1
  Mg  Mg3_4  1  0.83796800  0.41203200  0.00000000  1
  Mg  Mg3_5  1  0.83796800  0.41203200  0.50000000  1
  Mg  Mg3_6  1  0.83796800  0.91203200  0.00000000  1
  Mg  Mg3_7  1  0.83796800  0.91203200  0.50000000  1
  V  V0_0  1  0.25000000  0.25000000  0.00000000  1
  V  V0_1  1  0.25000000  0.25000000  0.50000000  1
  V  V0_2  1  0.25000000  0.75000000  0.00000000  1
  V  V0_3  1  0.25000000  0.75000000  0.50000000  1
  V  V0_4  1  0.75000000  0.25000000  0.00000000  1
  V  V0_5  1  0.75000000  0.25000000  0.50000000  1
  V  V0_6  1  0.75000000  0.75000000  0.00000000  1
  V  V0_7  1  0.75000000  0.75000000  0.50000000  1
  V  V1_0  1  0.00000000  0.00000000  0.00000000  1
  V  V1_1  1  0.00000000  0.00000000  0.50000000  1
  V  V1_2  1  0.00000000  0.50000000  0.00000000  1
  V  V1_3  1  0.00000000  0.50000000  0.50000000  1
  V  V1_4  1  0.50000000  0.00000000  0.00000000  1
  V  V1_5  1  0.50000000  0.00000000  0.50000000  1
  V  V1_6  1  0.50000000  0.50000000  0.00000000  1
  V  V1_7  1  0.50000000  0.50000000  0.50000000  1
  B  B0_0  1  0.31189500  0.06189500  0.00000000  1
  B  B0_1  1  0.31189500  0.06189500  0.50000000  1
  B  B0_2  1  0.31189500  0.56189500  0.00000000  1
  B  B0_3  1  0.31189500  0.56189500  0.50000000  1
  B  B0_4  1  0.81189500  0.06189500  0.00000000  1
  B  B0_5  1  0.81189500  0.06189500  0.50000000  1
  B  B0_6  1  0.81189500  0.56189500  0.00000000  1
  B  B0_7  1  0.81189500  0.56189500  0.50000000  1
  B  B1_0  1  0.18810500  0.43810500  0.00000000  1
  B  B1_1  1  0.18810500  0.43810500  0.50000000  1
  B  B1_2  1  0.18810500  0.93810500  0.00000000  1
  B  B1_3  1  0.18810500  0.93810500  0.50000000  1
  B  B1_4  1  0.68810500  0.43810500  0.00000000  1
  B  B1_5  1  0.68810500  0.43810500  0.50000000  1
  B  B1_6  1  0.68810500  0.93810500  0.00000000  1
  B  B1_7  1  0.68810500  0.93810500  0.50000000  1
  B  B2_0  1  0.06189500  0.18810500  0.00000000  1
  B  B2_1  1  0.06189500  0.18810500  0.50000000  1
  B  B2_2  1  0.06189500  0.68810500  0.00000000  1
  B  B2_3  1  0.06189500  0.68810500  0.50000000  1
  B  B2_4  1  0.56189500  0.18810500  0.00000000  1
  B  B2_5  1  0.56189500  0.18810500  0.50000000  1
  B  B2_6  1  0.56189500  0.68810500  0.00000000  1
  B  B2_7  1  0.56189500  0.68810500  0.50000000  1
  B  B3_0  1  0.43810500  0.31189500  0.00000000  1
  B  B3_1  1  0.43810500  0.31189500  0.50000000  1
  B  B3_2  1  0.43810500  0.81189500  0.00000000  1
  B  B3_3  1  0.43810500  0.81189500  0.50000000  1
  B  B3_4  1  0.93810500  0.31189500  0.00000000  1
  B  B3_5  1  0.93810500  0.31189500  0.50000000  1
  B  B3_6  1  0.93810500  0.81189500  0.00000000  1
  B  B3_7  1  0.93810500  0.81189500  0.50000000  1
  Ir  Ir0_0  1  0.25000000  0.00000000  0.25000000  1
  Ir  Ir0_1  1  0.25000000  0.00000000  0.75000000  1
  Ir  Ir0_2  1  0.25000000  0.50000000  0.25000000  1
  Ir  Ir0_3  1  0.25000000  0.50000000  0.75000000  1
  Ir  Ir0_4  1  0.75000000  0.00000000  0.25000000  1
  Ir  Ir0_5  1  0.75000000  0.00000000  0.75000000  1
  Ir  Ir0_6  1  0.75000000  0.50000000  0.25000000  1
  Ir  Ir0_7  1  0.75000000  0.50000000  0.75000000  1
  Ir  Ir1_0  1  0.00000000  0.25000000  0.25000000  1
  Ir  Ir1_1  1  0.00000000  0.25000000  0.75000000  1
  Ir  Ir1_2  1  0.00000000  0.75000000  0.25000000  1
  Ir  Ir1_3  1  0.00000000  0.75000000  0.75000000  1
  Ir  Ir1_4  1  0.50000000  0.25000000  0.25000000  1
  Ir  Ir1_5  1  0.50000000  0.25000000  0.75000000  1
  Ir  Ir1_6  1  0.50000000  0.75000000  0.25000000  1
  Ir  Ir1_7  1  0.50000000  0.75000000  0.75000000  1
  Ir  Ir2_0  1  0.35679250  0.28604750  0.25000000  1
  Ir  Ir2_1  1  0.35679250  0.28604750  0.75000000  1
  Ir  Ir2_2  1  0.35679250  0.78604750  0.25000000  1
  Ir  Ir2_3  1  0.35679250  0.78604750  0.75000000  1
  Ir  Ir2_4  1  0.85679250  0.28604750  0.25000000  1
  Ir  Ir2_5  1  0.85679250  0.28604750  0.75000000  1
  Ir  Ir2_6  1  0.85679250  0.78604750  0.25000000  1
  Ir  Ir2_7  1  0.85679250  0.78604750  0.75000000  1
  Ir  Ir3_0  1  0.14320750  0.21395250  0.25000000  1
  Ir  Ir3_1  1  0.14320750  0.21395250  0.75000000  1
  Ir  Ir3_2  1  0.14320750  0.71395250  0.25000000  1
  Ir  Ir3_3  1  0.14320750  0.71395250  0.75000000  1
  Ir  Ir3_4  1  0.64320750  0.21395250  0.25000000  1
  Ir  Ir3_5  1  0.64320750  0.21395250  0.75000000  1
  Ir  Ir3_6  1  0.64320750  0.71395250  0.25000000  1
  Ir  Ir3_7  1  0.64320750  0.71395250  0.75000000  1
  Ir  Ir4_0  1  0.10679250  0.46395250  0.25000000  1
  Ir  Ir4_1  1  0.10679250  0.46395250  0.75000000  1
  Ir  Ir4_2  1  0.10679250  0.96395250  0.25000000  1
  Ir  Ir4_3  1  0.10679250  0.96395250  0.75000000  1
  Ir  Ir4_4  1  0.60679250  0.46395250  0.25000000  1
  Ir  Ir4_5  1  0.60679250  0.46395250  0.75000000  1
  Ir  Ir4_6  1  0.60679250  0.96395250  0.25000000  1
  Ir  Ir4_7  1  0.60679250  0.96395250  0.75000000  1
  Ir  Ir5_0  1  0.39320750  0.03604750  0.25000000  1
  Ir  Ir5_1  1  0.39320750  0.03604750  0.75000000  1
  Ir  Ir5_2  1  0.39320750  0.53604750  0.25000000  1
  Ir  Ir5_3  1  0.39320750  0.53604750  0.75000000  1
  Ir  Ir5_4  1  0.89320750  0.03604750  0.25000000  1
  Ir  Ir5_5  1  0.89320750  0.03604750  0.75000000  1
  Ir  Ir5_6  1  0.89320750  0.53604750  0.25000000  1
  Ir  Ir5_7  1  0.89320750  0.53604750  0.75000000  1
  Ir  Ir6_0  1  0.21395250  0.35679250  0.25000000  1
  Ir  Ir6_1  1  0.21395250  0.35679250  0.75000000  1
  Ir  Ir6_2  1  0.21395250  0.85679250  0.25000000  1
  Ir  Ir6_3  1  0.21395250  0.85679250  0.75000000  1
  Ir  Ir6_4  1  0.71395250  0.35679250  0.25000000  1
  Ir  Ir6_5  1  0.71395250  0.35679250  0.75000000  1
  Ir  Ir6_6  1  0.71395250  0.85679250  0.25000000  1
  Ir  Ir6_7  1  0.71395250  0.85679250  0.75000000  1
  Ir  Ir7_0  1  0.28604750  0.14320750  0.25000000  1
  Ir  Ir7_1  1  0.28604750  0.14320750  0.75000000  1
  Ir  Ir7_2  1  0.28604750  0.64320750  0.25000000  1
  Ir  Ir7_3  1  0.28604750  0.64320750  0.75000000  1
  Ir  Ir7_4  1  0.78604750  0.14320750  0.25000000  1
  Ir  Ir7_5  1  0.78604750  0.14320750  0.75000000  1
  Ir  Ir7_6  1  0.78604750  0.64320750  0.25000000  1
  Ir  Ir7_7  1  0.78604750  0.64320750  0.75000000  1
  Ir  Ir8_0  1  0.03604750  0.10679250  0.25000000  1
  Ir  Ir8_1  1  0.03604750  0.10679250  0.75000000  1
  Ir  Ir8_2  1  0.03604750  0.60679250  0.25000000  1
  Ir  Ir8_3  1  0.03604750  0.60679250  0.75000000  1
  Ir  Ir8_4  1  0.53604750  0.10679250  0.25000000  1
  Ir  Ir8_5  1  0.53604750  0.10679250  0.75000000  1
  Ir  Ir8_6  1  0.53604750  0.60679250  0.25000000  1
  Ir  Ir8_7  1  0.53604750  0.60679250  0.75000000  1
  Ir  Ir9_0  1  0.46395250  0.39320750  0.25000000  1
  Ir  Ir9_1  1  0.46395250  0.39320750  0.75000000  1
  Ir  Ir9_2  1  0.46395250  0.89320750  0.25000000  1
  Ir  Ir9_3  1  0.46395250  0.89320750  0.75000000  1
  Ir  Ir9_4  1  0.96395250  0.39320750  0.25000000  1
  Ir  Ir9_5  1  0.96395250  0.39320750  0.75000000  1
  Ir  Ir9_6  1  0.96395250  0.89320750  0.25000000  1
  Ir  Ir9_7  1  0.96395250  0.89320750  0.75000000  1
loop_
_geom_bond_atom_site_label_1
_geom_bond_atom_site_label_2
_geom_bond_distance
_geom_bond_site_symmetry_2
Mg0_0 Mg0_1 2.923065 1_555
Mg0_0 Mg0_1 2.923065 1_554
Mg0_2 Mg0_3 2.923065 1_554
Mg0_2 Mg0_3 2.923065 1_555
Mg0_4 Mg0_5 2.923065 1_555
Mg0_4 Mg0_5 2.923065 1_554
Mg0_6 Mg0_7 2.923065 1_555
Mg0_6 Mg0_7 2.923065 1_554
Mg1_0 Mg1_1 2.923065 1_554
Mg1_0 Mg1_1 2.923065 1_555
Mg1_2 Mg1_3 2.923065 1_555
Mg1_2 Mg1_3 2.923065 1_554
Mg1_4 Mg1_5 2.923065 1_555
Mg1_4 Mg1_5 2.923065 1_554
Mg1_6 Mg1_7 2.923065 1_554
Mg1_6 Mg1_7 2.923065 1_555
Mg2_0 Mg2_1 2.923065 1_555
Mg2_0 Mg2_1 2.923065 1_554
Mg2_2 Mg2_3 2.923065 1_554
Mg2_2 Mg2_3 2.923065 1_555
Mg2_4 Mg2_5 2.923065 1_554
Mg2_4 Mg2_5 2.923065 1_555
Mg2_6 Mg2_7 2.923065 1_555
Mg2_6 Mg2_7 2.923065 1_554
Mg3_0 Mg3_1 2.923065 1_554
Mg3_0 Mg3_1 2.923065 1_555
Mg3_2 Mg3_3 2.923065 1_555
Mg3_2 Mg3_3 2.923065 1_554
Mg3_4 Mg3_5 2.923065 1_555
Mg3_4 Mg3_5 2.923065 1_554
Mg3_6 Mg3_7 2.923065 1_554
Mg3_6 Mg3_7 2.923065 1_555
B0_0 Ir5_0 2.184409 1_555
B0_0 Ir5_1 2.184409 1_554
B0_0 Ir7_1 2.184409 1_554
B0_0 Ir7_0 2.184409 1_555
B0_0 Ir0_1 2.215852 1_554
B0_0 Ir0_0 2.215852 1_555
B0_0 Mg0_0 2.694550 1_555
B0_0 Mg2_0 2.894319 1_555
B0_0 Mg3_2 2.894319 1_545
B0_1 Ir5_1 2.184409 1_555
B0_1 Ir5_0 2.184409 1_555
B0_1 Ir7_1 2.184409 1_555
B0_1 Ir7_0 2.184409 1_555
B0_1 Ir0_0 2.215852 1_555
B0_1 Ir0_1 2.215852 1_555
B0_1 Mg0_1 2.694550 1_555
B0_1 Mg2_1 2.894319 1_555
B0_1 Mg3_3 2.894319 1_545
B0_2 Ir5_2 2.184409 1_555
B0_2 Ir5_3 2.184409 1_554
B0_2 Ir7_2 2.184409 1_555
B0_2 Ir7_3 2.184409 1_554
B0_2 Ir0_3 2.215852 1_554
B0_2 Ir0_2 2.215852 1_555
B0_2 Mg0_2 2.694550 1_555
B0_2 Mg3_0 2.894319 1_555
B0_2 Mg2_2 2.894319 1_555
B0_3 Ir5_2 2.184409 1_555
B0_3 Ir5_3 2.184409 1_555
B0_3 Ir7_2 2.184409 1_555
B0_3 Ir7_3 2.184409 1_555
B0_3 Ir0_3 2.215852 1_555
B0_3 Ir0_2 2.215852 1_555
B0_3 Mg0_3 2.694550 1_555
B0_3 Mg3_1 2.894319 1_555
B0_3 Mg2_3 2.894319 1_555
B0_4 Ir7_5 2.184409 1_554
B0_4 Ir5_4 2.184409 1_555
B0_4 Ir7_4 2.184409 1_555
B0_4 Ir5_5 2.184409 1_554
B0_4 Ir0_4 2.215852 1_555
B0_4 Ir0_5 2.215852 1_554
B0_4 Mg0_4 2.694550 1_555
B0_4 Mg2_4 2.894319 1_555
B0_4 Mg3_6 2.894319 1_545
B0_5 Ir5_5 2.184409 1_555
B0_5 Ir7_5 2.184409 1_555
B0_5 Ir5_4 2.184409 1_555
B0_5 Ir7_4 2.184409 1_555
B0_5 Ir0_4 2.215852 1_555
B0_5 Ir0_5 2.215852 1_555
B0_5 Mg0_5 2.694550 1_555
B0_5 Mg2_5 2.894319 1_555
B0_5 Mg3_7 2.894319 1_545
B0_6 Ir5_7 2.184409 1_554
B0_6 Ir5_6 2.184409 1_555
B0_6 Ir7_7 2.184409 1_554
B0_6 Ir7_6 2.184409 1_555
B0_6 Ir0_6 2.215852 1_555
B0_6 Ir0_7 2.215852 1_554
B0_6 Mg0_6 2.694550 1_555
B0_6 Mg3_4 2.894319 1_555
B0_6 Mg2_6 2.894319 1_555
B0_7 Ir5_7 2.184409 1_555
B0_7 Ir5_6 2.184409 1_555
B0_7 Ir7_7 2.184409 1_555
B0_7 Ir7_6 2.184409 1_555
B0_7 Ir0_6 2.215852 1_555
B0_7 Ir0_7 2.215852 1_555
B0_7 Mg0_7 2.694550 1_555
B0_7 Mg3_5 2.894319 1_555
B0_7 Mg2_7 2.894319 1_555
B1_0 Ir6_1 2.184409 1_554
B1_0 Ir6_0 2.184409 1_555
B1_0 Ir4_1 2.184409 1_554
B1_0 Ir4_0 2.184409 1_555
B1_0 Ir0_2 2.215852 1_555
B1_0 Ir0_3 2.215852 1_554
B1_0 Mg1_0 2.694550 1_555
B1_0 Mg3_0 2.894319 1_555
B1_0 Mg2_2 2.894319 1_555
B1_1 Ir6_1 2.184409 1_555
B1_1 Ir6_0 2.184409 1_555
B1_1 Ir4_1 2.184409 1_555
B1_1 Ir4_0 2.184409 1_555
B1_1 Ir0_3 2.215852 1_555
B1_1 Ir0_2 2.215852 1_555
B1_1 Mg1_1 2.694550 1_555
B1_1 Mg3_1 2.894319 1_555
B1_1 Mg2_3 2.894319 1_555
B1_2 Ir4_2 2.184409 1_555
B1_2 Ir4_3 2.184409 1_554
B1_2 Ir6_3 2.184409 1_554
B1_2 Ir6_2 2.184409 1_555
B1_2 Ir0_0 2.215852 1_565
B1_2 Ir0_1 2.215852 1_564
B1_2 Mg1_2 2.694550 1_555
B1_2 Mg3_2 2.894319 1_555
B1_2 Mg2_0 2.894319 1_565
B1_3 Ir4_3 2.184409 1_555
B1_3 Ir4_2 2.184409 1_555
B1_3 Ir6_3 2.184409 1_555
B1_3 Ir6_2 2.184409 1_555
B1_3 Ir0_0 2.215852 1_565
B1_3 Ir0_1 2.215852 1_565
B1_3 Mg1_3 2.694550 1_555
B1_3 Mg3_3 2.894319 1_555
B1_3 Mg2_1 2.894319 1_565
B1_4 Ir6_5 2.184409 1_554
B1_4 Ir6_4 2.184409 1_555
B1_4 Ir4_4 2.184409 1_555
B1_4 Ir4_5 2.184409 1_554
B1_4 Ir0_7 2.215852 1_554
B1_4 Ir0_6 2.215852 1_555
B1_4 Mg1_4 2.694550 1_555
B1_4 Mg3_4 2.894319 1_555
B1_4 Mg2_6 2.894319 1_555
B1_5 Ir6_5 2.184409 1_555
B1_5 Ir6_4 2.184409 1_555
B1_5 Ir4_4 2.184409 1_555
B1_5 Ir4_5 2.184409 1_555
B1_5 Ir0_6 2.215852 1_555
B1_5 Ir0_7 2.215852 1_555
B1_5 Mg1_5 2.694550 1_555
B1_5 Mg3_5 2.894319 1_555
B1_5 Mg2_7 2.894319 1_555
B1_6 Ir4_6 2.184409 1_555
B1_6 Ir4_7 2.184409 1_554
B1_6 Ir6_6 2.184409 1_555
B1_6 Ir6_7 2.184409 1_554
B1_6 Ir0_4 2.215852 1_565
B1_6 Ir0_5 2.215852 1_564
B1_6 Mg1_6 2.694550 1_555
B1_6 Mg3_6 2.894319 1_555
B1_6 Mg2_4 2.894319 1_565
B1_7 Ir4_6 2.184409 1_555
B1_7 Ir4_7 2.184409 1_555
B1_7 Ir6_6 2.184409 1_555
B1_7 Ir6_7 2.184409 1_555
B1_7 Ir0_4 2.215852 1_565
B1_7 Ir0_5 2.215852 1_565
B1_7 Mg1_7 2.694550 1_555
B1_7 Mg3_7 2.894319 1_555
B1_7 Mg2_5 2.894319 1_565
B2_0 Ir8_1 2.184409 1_554
B2_0 Ir8_0 2.184409 1_555
B2_0 Ir3_1 2.184409 1_554
B2_0 Ir3_0 2.184409 1_555
B2_0 Ir1_0 2.215852 1_555
B2_0 Ir1_1 2.215852 1_554
B2_0 Mg2_0 2.694550 1_555
B2_0 Mg1_0 2.894319 1_555
B2_0 Mg0_4 2.894319 1_455
B2_1 Ir8_0 2.184409 1_555
B2_1 Ir8_1 2.184409 1_555
B2_1 Ir3_0 2.184409 1_555
B2_1 Ir3_1 2.184409 1_555
B2_1 Ir1_0 2.215852 1_555
B2_1 Ir1_1 2.215852 1_555
B2_1 Mg2_1 2.694550 1_555
B2_1 Mg0_5 2.894319 1_455
B2_1 Mg1_1 2.894319 1_555
B2_2 Ir3_3 2.184409 1_554
B2_2 Ir3_2 2.184409 1_555
B2_2 Ir8_3 2.184409 1_554
B2_2 Ir8_2 2.184409 1_555
B2_2 Ir1_3 2.215852 1_554
B2_2 Ir1_2 2.215852 1_555
B2_2 Mg2_2 2.694550 1_555
B2_2 Mg1_2 2.894319 1_555
B2_2 Mg0_6 2.894319 1_455
B2_3 Ir8_3 2.184409 1_555
B2_3 Ir3_2 2.184409 1_555
B2_3 Ir3_3 2.184409 1_555
B2_3 Ir8_2 2.184409 1_555
B2_3 Ir1_3 2.215852 1_555
B2_3 Ir1_2 2.215852 1_555
B2_3 Mg2_3 2.694550 1_555
B2_3 Mg1_3 2.894319 1_555
B2_3 Mg0_7 2.894319 1_455
B2_4 Ir8_5 2.184409 1_554
B2_4 Ir8_4 2.184409 1_555
B2_4 Ir3_5 2.184409 1_554
B2_4 Ir3_4 2.184409 1_555
B2_4 Ir1_5 2.215852 1_554
B2_4 Ir1_4 2.215852 1_555
B2_4 Mg2_4 2.694550 1_555
B2_4 Mg0_0 2.894319 1_555
B2_4 Mg1_4 2.894319 1_555
B2_5 Ir3_5 2.184409 1_555
B2_5 Ir8_4 2.184409 1_555
B2_5 Ir8_5 2.184409 1_555
B2_5 Ir3_4 2.184409 1_555
B2_5 Ir1_5 2.215852 1_555
B2_5 Ir1_4 2.215852 1_555
B2_5 Mg2_5 2.694550 1_555
B2_5 Mg0_1 2.894319 1_555
B2_5 Mg1_5 2.894319 1_555
B2_6 Ir8_6 2.184409 1_555
B2_6 Ir3_6 2.184409 1_555
B2_6 Ir3_7 2.184409 1_554
B2_6 Ir8_7 2.184409 1_554
B2_6 Ir1_6 2.215852 1_555
B2_6 Ir1_7 2.215852 1_554
B2_6 Mg2_6 2.694550 1_555
B2_6 Mg0_2 2.894319 1_555
B2_6 Mg1_6 2.894319 1_555
B2_7 Ir8_6 2.184409 1_555
B2_7 Ir8_7 2.184409 1_555
B2_7 Ir3_6 2.184409 1_555
B2_7 Ir3_7 2.184409 1_555
B2_7 Ir1_6 2.215852 1_555
B2_7 Ir1_7 2.215852 1_555
B2_7 Mg2_7 2.694550 1_555
B2_7 Mg0_3 2.894319 1_555
B2_7 Mg1_7 2.894319 1_555
B3_0 Ir9_1 2.184409 1_554
B3_0 Ir9_0 2.184409 1_555
B3_0 Ir2_1 2.184409 1_554
B3_0 Ir2_0 2.184409 1_555
B3_0 Ir1_4 2.215852 1_555
B3_0 Ir1_5 2.215852 1_554
B3_0 Mg3_0 2.694550 1_555
B3_0 Mg0_0 2.894319 1_555
B3_0 Mg1_4 2.894319 1_555
B3_1 Ir9_0 2.184409 1_555
B3_1 Ir9_1 2.184409 1_555
B3_1 Ir2_0 2.184409 1_555
B3_1 Ir2_1 2.184409 1_555
B3_1 Ir1_4 2.215852 1_555
B3_1 Ir1_5 2.215852 1_555
B3_1 Mg3_1 2.694550 1_555
B3_1 Mg0_1 2.894319 1_555
B3_1 Mg1_5 2.894319 1_555
B3_2 Ir2_2 2.184409 1_555
B3_2 Ir9_3 2.184409 1_554
B3_2 Ir9_2 2.184409 1_555
B3_2 Ir2_3 2.184409 1_554
B3_2 Ir1_6 2.215852 1_555
B3_2 Ir1_7 2.215852 1_554
B3_2 Mg3_2 2.694550 1_555
B3_2 Mg0_2 2.894319 1_555
B3_2 Mg1_6 2.894319 1_555
B3_3 Ir9_3 2.184409 1_555
B3_3 Ir2_2 2.184409 1_555
B3_3 Ir9_2 2.184409 1_555
B3_3 Ir2_3 2.184409 1_555
B3_3 Ir1_6 2.215852 1_555
B3_3 Ir1_7 2.215852 1_555
B3_3 Mg3_3 2.694550 1_555
B3_3 Mg0_3 2.894319 1_555
B3_3 Mg1_7 2.894319 1_555
B3_4 Ir9_5 2.184409 1_554
B3_4 Ir9_4 2.184409 1_555
B3_4 Ir2_5 2.184409 1_554
B3_4 Ir2_4 2.184409 1_555
B3_4 Ir1_1 2.215852 1_654
B3_4 Ir1_0 2.215852 1_655
B3_4 Mg3_4 2.694550 1_555
B3_4 Mg0_4 2.894319 1_555
B3_4 Mg1_0 2.894319 1_655
B3_5 Ir9_5 2.184409 1_555
B3_5 Ir9_4 2.184409 1_555
B3_5 Ir2_5 2.184409 1_555
B3_5 Ir2_4 2.184409 1_555
B3_5 Ir1_0 2.215852 1_655
B3_5 Ir1_1 2.215852 1_655
B3_5 Mg3_5 2.694550 1_555
B3_5 Mg0_5 2.894319 1_555
B3_5 Mg1_1 2.894319 1_655
B3_6 Ir9_6 2.184409 1_555
B3_6 Ir9_7 2.184409 1_554
B3_6 Ir2_7 2.184409 1_554
B3_6 Ir2_6 2.184409 1_555
B3_6 Ir1_2 2.215852 1_655
B3_6 Ir1_3 2.215852 1_654
B3_6 Mg3_6 2.694550 1_555
B3_6 Mg0_6 2.894319 1_555
B3_6 Mg1_2 2.894319 1_655
B3_7 Ir9_6 2.184409 1_555
B3_7 Ir9_7 2.184409 1_555
B3_7 Ir2_6 2.184409 1_555
B3_7 Ir2_7 2.184409 1_555
B3_7 Ir1_2 2.215852 1_655
B3_7 Ir1_3 2.215852 1_655
B3_7 Mg3_7 2.694550 1_555
B3_7 Mg0_7 2.894319 1_555
B3_7 Mg1_3 2.894319 1_655
Ir0_0 Mg3_3 2.781948 1_545
Ir0_0 Mg2_1 2.781948 1_555
Ir0_0 Mg3_2 2.781948 1_545
Ir0_0 Mg2_0 2.781948 1_555
Ir0_1 Mg3_3 2.781948 1_545
Ir0_1 Mg2_1 2.781948 1_555
Ir0_1 Mg3_2 2.781948 1_546
Ir0_1 Mg2_0 2.781948 1_556
Ir0_2 Mg3_0 2.781948 1_555
Ir0_2 Mg3_1 2.781948 1_555
Ir0_2 Mg2_2 2.781948 1_555
Ir0_2 Mg2_3 2.781948 1_555
Ir0_3 Mg3_0 2.781948 1_556
Ir0_3 Mg3_1 2.781948 1_555
Ir0_3 Mg2_2 2.781948 1_556
Ir0_3 Mg2_3 2.781948 1_555
Ir0_4 Mg2_4 2.781948 1_555
Ir0_4 Mg2_5 2.781948 1_555
Ir0_4 Mg3_7 2.781948 1_545
Ir0_4 Mg3_6 2.781948 1_545
Ir0_5 Mg2_4 2.781948 1_556
Ir0_5 Mg2_5 2.781948 1_555
Ir0_5 Mg3_7 2.781948 1_545
Ir0_5 Mg3_6 2.781948 1_546
Ir0_6 Mg2_7 2.781948 1_555
Ir0_6 Mg2_6 2.781948 1_555
Ir0_6 Mg3_5 2.781948 1_555
Ir0_6 Mg3_4 2.781948 1_555
Ir0_7 Mg2_7 2.781948 1_555
Ir0_7 Mg2_6 2.781948 1_556
Ir0_7 Mg3_4 2.781948 1_556
Ir0_7 Mg3_5 2.781948 1_555
Ir1_0 Mg1_0 2.781948 1_555
Ir1_0 Mg1_1 2.781948 1_555
Ir1_0 Mg0_4 2.781948 1_455
Ir1_0 Mg0_5 2.781948 1_455
Ir1_1 Mg1_0 2.781948 1_556
Ir1_1 Mg1_1 2.781948 1_555
Ir1_1 Mg0_4 2.781948 1_456
Ir1_1 Mg0_5 2.781948 1_455
Ir1_2 Mg0_6 2.781948 1_455
Ir1_2 Mg0_7 2.781948 1_455
Ir1_2 Mg1_2 2.781948 1_555
Ir1_2 Mg1_3 2.781948 1_555
Ir1_3 Mg0_7 2.781948 1_455
Ir1_3 Mg0_6 2.781948 1_456
Ir1_3 Mg1_2 2.781948 1_556
Ir1_3 Mg1_3 2.781948 1_555
Ir1_4 Mg0_0 2.781948 1_555
Ir1_4 Mg0_1 2.781948 1_555
Ir1_4 Mg1_5 2.781948 1_555
Ir1_4 Mg1_4 2.781948 1_555
Ir1_5 Mg0_0 2.781948 1_556
Ir1_5 Mg0_1 2.781948 1_555
Ir1_5 Mg1_5 2.781948 1_555
Ir1_5 Mg1_4 2.781948 1_556
Ir1_6 Mg0_3 2.781948 1_555
Ir1_6 Mg0_2 2.781948 1_555
Ir1_6 Mg1_6 2.781948 1_555
Ir1_6 Mg1_7 2.781948 1_555
Ir1_7 Mg0_2 2.781948 1_556
Ir1_7 Mg0_3 2.781948 1_555
Ir1_7 Mg1_7 2.781948 1_555
Ir1_7 Mg1_6 2.781948 1_556
Ir2_0 V0_1 2.595269 1_555
Ir2_0 V0_0 2.595269 1_555
Ir2_0 Mg3_0 2.830311 1_555
Ir2_0 Mg3_1 2.830311 1_555
Ir2_0 Mg0_1 2.967975 1_555
Ir2_0 Mg0_0 2.967975 1_555
Ir2_1 V0_0 2.595269 1_556
Ir2_1 V0_1 2.595269 1_555
Ir2_1 Mg3_1 2.830311 1_555
Ir2_1 Mg3_0 2.830311 1_556
Ir2_1 Mg0_1 2.967975 1_555
Ir2_1 Mg0_0 2.967975 1_556
Ir2_2 V0_3 2.595269 1_555
Ir2_2 V0_2 2.595269 1_555
Ir2_2 Mg3_3 2.830311 1_555
Ir2_2 Mg3_2 2.830311 1_555
Ir2_2 Mg0_2 2.967975 1_555
Ir2_2 Mg0_3 2.967975 1_555
Ir2_3 V0_2 2.595269 1_556
Ir2_3 V0_3 2.595269 1_555
Ir2_3 Mg3_2 2.830311 1_556
Ir2_3 Mg3_3 2.830311 1_555
Ir2_3 Mg0_2 2.967975 1_556
Ir2_3 Mg0_3 2.967975 1_555
Ir2_4 V0_4 2.595269 1_555
Ir2_4 V0_5 2.595269 1_555
Ir2_4 Mg3_4 2.830311 1_555
Ir2_4 Mg3_5 2.830311 1_555
Ir2_4 Mg0_5 2.967975 1_555
Ir2_4 Mg0_4 2.967975 1_555
Ir2_5 V0_4 2.595269 1_556
Ir2_5 V0_5 2.595269 1_555
Ir2_5 Mg3_4 2.830311 1_556
Ir2_5 Mg3_5 2.830311 1_555
Ir2_5 Mg0_5 2.967975 1_555
Ir2_5 Mg0_4 2.967975 1_556
Ir2_6 V0_6 2.595269 1_555
Ir2_6 V0_7 2.595269 1_555
Ir2_6 Mg3_7 2.830311 1_555
Ir2_6 Mg3_6 2.830311 1_555
Ir2_6 Mg0_6 2.967975 1_555
Ir2_6 Mg0_7 2.967975 1_555
Ir2_7 V0_6 2.595269 1_556
Ir2_7 V0_7 2.595269 1_555
Ir2_7 Mg3_7 2.830311 1_555
Ir2_7 Mg3_6 2.830311 1_556
Ir2_7 Mg0_7 2.967975 1_555
Ir2_7 Mg0_6 2.967975 1_556
Ir3_0 V0_1 2.595269 1_555
Ir3_0 V0_0 2.595269 1_555
Ir3_0 Mg2_0 2.830311 1_555
Ir3_0 Mg2_1 2.830311 1_555
Ir3_0 Mg1_1 2.967975 1_555
Ir3_0 Mg1_0 2.967975 1_555
Ir3_1 V0_0 2.595269 1_556
Ir3_1 V0_1 2.595269 1_555
Ir3_1 Mg2_1 2.830311 1_555
Ir3_1 Mg2_0 2.830311 1_556
Ir3_1 Mg1_1 2.967975 1_555
Ir3_1 Mg1_0 2.967975 1_556
Ir3_2 V0_3 2.595269 1_555
Ir3_2 V0_2 2.595269 1_555
Ir3_2 Mg2_3 2.830311 1_555
Ir3_2 Mg2_2 2.830311 1_555
Ir3_2 Mg1_2 2.967975 1_555
Ir3_2 Mg1_3 2.967975 1_555
Ir3_3 V0_2 2.595269 1_556
Ir3_3 V0_3 2.595269 1_555
Ir3_3 Mg2_3 2.830311 1_555
Ir3_3 Mg2_2 2.830311 1_556
Ir3_3 Mg1_2 2.967975 1_556
Ir3_3 Mg1_3 2.967975 1_555
Ir3_4 V0_4 2.595269 1_555
Ir3_4 V0_5 2.595269 1_555
Ir3_4 Mg2_4 2.830311 1_555
Ir3_4 Mg2_5 2.830311 1_555
Ir3_4 Mg1_4 2.967975 1_555
Ir3_4 Mg1_5 2.967975 1_555
Ir3_5 V0_4 2.595269 1_556
Ir3_5 V0_5 2.595269 1_555
Ir3_5 Mg2_4 2.830311 1_556
Ir3_5 Mg2_5 2.830311 1_555
Ir3_5 Mg1_5 2.967975 1_555
Ir3_5 Mg1_4 2.967975 1_556
Ir3_6 V0_6 2.595269 1_555
Ir3_6 V0_7 2.595269 1_555
Ir3_6 Mg2_7 2.830311 1_555
Ir3_6 Mg2_6 2.830311 1_555
Ir3_6 Mg1_6 2.967975 1_555
Ir3_6 Mg1_7 2.967975 1_555
Ir3_7 V0_6 2.595269 1_556
Ir3_7 V0_7 2.595269 1_555
Ir3_7 Mg2_7 2.830311 1_555
Ir3_7 Mg2_6 2.830311 1_556
Ir3_7 Mg1_7 2.967975 1_555
Ir3_7 Mg1_6 2.967975 1_556
Ir4_0 V1_3 2.595269 1_555
Ir4_0 V1_2 2.595269 1_555
Ir4_0 Mg1_0 2.830311 1_555
Ir4_0 Mg1_1 2.830311 1_555
Ir4_0 Mg2_2 2.967975 1_555
Ir4_0 Mg2_3 2.967975 1_555
Ir4_1 V1_2 2.595269 1_556
Ir4_1 V1_3 2.595269 1_555
Ir4_1 Mg1_0 2.830311 1_556
Ir4_1 Mg1_1 2.830311 1_555
Ir4_1 Mg2_2 2.967975 1_556
Ir4_1 Mg2_3 2.967975 1_555
Ir4_2 V1_1 2.595269 1_565
Ir4_2 V1_0 2.595269 1_565
Ir4_2 Mg1_3 2.830311 1_555
Ir4_2 Mg1_2 2.830311 1_555
Ir4_2 Mg2_0 2.967975 1_565
Ir4_2 Mg2_1 2.967975 1_565
Ir4_3 V1_1 2.595269 1_565
Ir4_3 V1_0 2.595269 1_566
Ir4_3 Mg1_3 2.830311 1_555
Ir4_3 Mg1_2 2.830311 1_556
Ir4_3 Mg2_1 2.967975 1_565
Ir4_3 Mg2_0 2.967975 1_566
Ir4_4 V1_6 2.595269 1_555
Ir4_4 V1_7 2.595269 1_555
Ir4_4 Mg1_4 2.830311 1_555
Ir4_4 Mg1_5 2.830311 1_555
Ir4_4 Mg2_6 2.967975 1_555
Ir4_4 Mg2_7 2.967975 1_555
Ir4_5 V1_7 2.595269 1_555
Ir4_5 V1_6 2.595269 1_556
Ir4_5 Mg1_5 2.830311 1_555
Ir4_5 Mg1_4 2.830311 1_556
Ir4_5 Mg2_6 2.967975 1_556
Ir4_5 Mg2_7 2.967975 1_555
Ir4_6 V1_4 2.595269 1_565
Ir4_6 V1_5 2.595269 1_565
Ir4_6 Mg1_7 2.830311 1_555
Ir4_6 Mg1_6 2.830311 1_555
Ir4_6 Mg2_5 2.967975 1_565
Ir4_6 Mg2_4 2.967975 1_565
Ir4_7 V1_5 2.595269 1_565
Ir4_7 V1_4 2.595269 1_566
Ir4_7 Mg1_7 2.830311 1_555
Ir4_7 Mg1_6 2.830311 1_556
Ir4_7 Mg2_5 2.967975 1_565
Ir4_7 Mg2_4 2.967975 1_566
Ir5_0 V1_5 2.595269 1_555
Ir5_0 V1_4 2.595269 1_555
Ir5_0 Mg0_1 2.830311 1_555
Ir5_0 Mg0_0 2.830311 1_555
Ir5_0 Mg3_3 2.967975 1_545
Ir5_0 Mg3_2 2.967975 1_545
Ir5_1 V1_4 2.595269 1_556
Ir5_1 V1_5 2.595269 1_555
Ir5_1 Mg0_1 2.830311 1_555
Ir5_1 Mg0_0 2.830311 1_556
Ir5_1 Mg3_3 2.967975 1_545
Ir5_1 Mg3_2 2.967975 1_546
Ir5_2 V1_6 2.595269 1_555
Ir5_2 V1_7 2.595269 1_555
Ir5_2 Mg0_3 2.830311 1_555
Ir5_2 Mg0_2 2.830311 1_555
Ir5_2 Mg3_0 2.967975 1_555
Ir5_2 Mg3_1 2.967975 1_555
Ir5_3 V1_6 2.595269 1_556
Ir5_3 V1_7 2.595269 1_555
Ir5_3 Mg0_2 2.830311 1_556
Ir5_3 Mg0_3 2.830311 1_555
Ir5_3 Mg3_0 2.967975 1_556
Ir5_3 Mg3_1 2.967975 1_555
Ir5_4 V1_0 2.595269 1_655
Ir5_4 V1_1 2.595269 1_655
Ir5_4 Mg0_5 2.830311 1_555
Ir5_4 Mg0_4 2.830311 1_555
Ir5_4 Mg3_6 2.967975 1_545
Ir5_4 Mg3_7 2.967975 1_545
Ir5_5 V1_0 2.595269 1_656
Ir5_5 V1_1 2.595269 1_655
Ir5_5 Mg0_5 2.830311 1_555
Ir5_5 Mg0_4 2.830311 1_556
Ir5_5 Mg3_7 2.967975 1_545
Ir5_5 Mg3_6 2.967975 1_546
Ir5_6 V1_2 2.595269 1_655
Ir5_6 V1_3 2.595269 1_655
Ir5_6 Mg0_7 2.830311 1_555
Ir5_6 Mg0_6 2.830311 1_555
Ir5_6 Mg3_5 2.967975 1_555
Ir5_6 Mg3_4 2.967975 1_555
Ir5_7 V1_2 2.595269 1_656
Ir5_7 V1_3 2.595269 1_655
Ir5_7 Mg0_7 2.830311 1_555
Ir5_7 Mg0_6 2.830311 1_556
Ir5_7 Mg3_5 2.967975 1_555
Ir5_7 Mg3_4 2.967975 1_556
Ir6_0 V0_1 2.595269 1_555
Ir6_0 V0_0 2.595269 1_555
Ir6_0 Mg1_0 2.830311 1_555
Ir6_0 Mg1_1 2.830311 1_555
Ir6_0 Mg3_1 2.967975 1_555
Ir6_0 Mg3_0 2.967975 1_555
Ir6_1 V0_0 2.595269 1_556
Ir6_1 V0_1 2.595269 1_555
Ir6_1 Mg1_0 2.830311 1_556
Ir6_1 Mg1_1 2.830311 1_555
Ir6_1 Mg3_0 2.967975 1_556
Ir6_1 Mg3_1 2.967975 1_555
Ir6_2 V0_2 2.595269 1_555
Ir6_2 V0_3 2.595269 1_555
Ir6_2 Mg1_3 2.830311 1_555
Ir6_2 Mg1_2 2.830311 1_555
Ir6_2 Mg3_2 2.967975 1_555
Ir6_2 Mg3_3 2.967975 1_555
Ir6_3 V0_2 2.595269 1_556
Ir6_3 V0_3 2.595269 1_555
Ir6_3 Mg1_3 2.830311 1_555
Ir6_3 Mg1_2 2.830311 1_556
Ir6_3 Mg3_2 2.967975 1_556
Ir6_3 Mg3_3 2.967975 1_555
Ir6_4 V0_5 2.595269 1_555
Ir6_4 V0_4 2.595269 1_555
Ir6_4 Mg1_5 2.830311 1_555
Ir6_4 Mg1_4 2.830311 1_555
Ir6_4 Mg3_5 2.967975 1_555
Ir6_4 Mg3_4 2.967975 1_555
Ir6_5 V0_5 2.595269 1_555
Ir6_5 V0_4 2.595269 1_556
Ir6_5 Mg1_5 2.830311 1_555
Ir6_5 Mg1_4 2.830311 1_556
Ir6_5 Mg3_5 2.967975 1_555
Ir6_5 Mg3_4 2.967975 1_556
Ir6_6 V0_6 2.595269 1_555
Ir6_6 V0_7 2.595269 1_555
Ir6_6 Mg1_6 2.830311 1_555
Ir6_6 Mg1_7 2.830311 1_555
Ir6_6 Mg3_7 2.967975 1_555
Ir6_6 Mg3_6 2.967975 1_555
Ir6_7 V0_6 2.595269 1_556
Ir6_7 V0_7 2.595269 1_555
Ir6_7 Mg1_7 2.830311 1_555
Ir6_7 Mg1_6 2.830311 1_556
Ir6_7 Mg3_7 2.967975 1_555
Ir6_7 Mg3_6 2.967975 1_556
Ir7_0 V0_1 2.595269 1_555
Ir7_0 V0_0 2.595269 1_555
Ir7_0 Mg0_1 2.830311 1_555
Ir7_0 Mg0_0 2.830311 1_555
Ir7_0 Mg2_1 2.967975 1_555
Ir7_0 Mg2_0 2.967975 1_555
Ir7_1 V0_0 2.595269 1_556
Ir7_1 V0_1 2.595269 1_555
Ir7_1 Mg0_1 2.830311 1_555
Ir7_1 Mg0_0 2.830311 1_556
Ir7_1 Mg2_1 2.967975 1_555
Ir7_1 Mg2_0 2.967975 1_556
Ir7_2 V0_2 2.595269 1_555
Ir7_2 V0_3 2.595269 1_555
Ir7_2 Mg0_3 2.830311 1_555
Ir7_2 Mg0_2 2.830311 1_555
Ir7_2 Mg2_3 2.967975 1_555
Ir7_2 Mg2_2 2.967975 1_555
Ir7_3 V0_2 2.595269 1_556
Ir7_3 V0_3 2.595269 1_555
Ir7_3 Mg0_3 2.830311 1_555
Ir7_3 Mg0_2 2.830311 1_556
Ir7_3 Mg2_3 2.967975 1_555
Ir7_3 Mg2_2 2.967975 1_556
Ir7_4 V0_5 2.595269 1_555
Ir7_4 V0_4 2.595269 1_555
Ir7_4 Mg0_5 2.830311 1_555
Ir7_4 Mg0_4 2.830311 1_555
Ir7_4 Mg2_5 2.967975 1_555
Ir7_4 Mg2_4 2.967975 1_555
Ir7_5 V0_5 2.595269 1_555
Ir7_5 V0_4 2.595269 1_556
Ir7_5 Mg0_4 2.830311 1_556
Ir7_5 Mg0_5 2.830311 1_555
Ir7_5 Mg2_4 2.967975 1_556
Ir7_5 Mg2_5 2.967975 1_555
Ir7_6 V0_6 2.595269 1_555
Ir7_6 V0_7 2.595269 1_555
Ir7_6 Mg0_6 2.830311 1_555
Ir7_6 Mg0_7 2.830311 1_555
Ir7_6 Mg2_6 2.967975 1_555
Ir7_6 Mg2_7 2.967975 1_555
Ir7_7 V0_6 2.595269 1_556
Ir7_7 V0_7 2.595269 1_555
Ir7_7 Mg0_6 2.830311 1_556
Ir7_7 Mg0_7 2.830311 1_555
Ir7_7 Mg2_6 2.967975 1_556
Ir7_7 Mg2_7 2.967975 1_555
Ir8_0 V1_0 2.595269 1_555
Ir8_0 V1_1 2.595269 1_555
Ir8_0 Mg2_0 2.830311 1_555
Ir8_0 Mg2_1 2.830311 1_555
Ir8_0 Mg0_4 2.967975 1_455
Ir8_0 Mg0_5 2.967975 1_455
Ir8_1 V1_0 2.595269 1_556
Ir8_1 V1_1 2.595269 1_555
Ir8_1 Mg2_0 2.830311 1_556
Ir8_1 Mg2_1 2.830311 1_555
Ir8_1 Mg0_5 2.967975 1_455
Ir8_1 Mg0_4 2.967975 1_456
Ir8_2 V1_3 2.595269 1_555
Ir8_2 V1_2 2.595269 1_555
Ir8_2 Mg2_2 2.830311 1_555
Ir8_2 Mg2_3 2.830311 1_555
Ir8_2 Mg0_7 2.967975 1_455
Ir8_2 Mg0_6 2.967975 1_455
Ir8_3 V1_2 2.595269 1_556
Ir8_3 V1_3 2.595269 1_555
Ir8_3 Mg2_2 2.830311 1_556
Ir8_3 Mg2_3 2.830311 1_555
Ir8_3 Mg0_7 2.967975 1_455
Ir8_3 Mg0_6 2.967975 1_456
Ir8_4 V1_4 2.595269 1_555
Ir8_4 V1_5 2.595269 1_555
Ir8_4 Mg2_4 2.830311 1_555
Ir8_4 Mg2_5 2.830311 1_555
Ir8_4 Mg0_1 2.967975 1_555
Ir8_4 Mg0_0 2.967975 1_555
Ir8_5 V1_4 2.595269 1_556
Ir8_5 V1_5 2.595269 1_555
Ir8_5 Mg2_4 2.830311 1_556
Ir8_5 Mg2_5 2.830311 1_555
Ir8_5 Mg0_1 2.967975 1_555
Ir8_5 Mg0_0 2.967975 1_556
Ir8_6 V1_7 2.595269 1_555
Ir8_6 V1_6 2.595269 1_555
Ir8_6 Mg2_6 2.830311 1_555
Ir8_6 Mg2_7 2.830311 1_555
Ir8_6 Mg0_3 2.967975 1_555
Ir8_6 Mg0_2 2.967975 1_555
Ir8_7 V1_6 2.595269 1_556
Ir8_7 V1_7 2.595269 1_555
Ir8_7 Mg2_6 2.830311 1_556
Ir8_7 Mg2_7 2.830311 1_555
Ir8_7 Mg0_3 2.967975 1_555
Ir8_7 Mg0_2 2.967975 1_556
Ir9_0 V1_6 2.595269 1_555
Ir9_0 V1_7 2.595269 1_555
Ir9_0 Mg3_1 2.830311 1_555
Ir9_0 Mg3_0 2.830311 1_555
Ir9_0 Mg1_5 2.967975 1_555
Ir9_0 Mg1_4 2.967975 1_555
Ir9_1 V1_6 2.595269 1_556
Ir9_1 V1_7 2.595269 1_555
Ir9_1 Mg3_0 2.830311 1_556
Ir9_1 Mg3_1 2.830311 1_555
Ir9_1 Mg1_5 2.967975 1_555
Ir9_1 Mg1_4 2.967975 1_556
Ir9_2 V1_4 2.595269 1_565
Ir9_2 V1_5 2.595269 1_565
Ir9_2 Mg3_2 2.830311 1_555
Ir9_2 Mg3_3 2.830311 1_555
Ir9_2 Mg1_6 2.967975 1_555
Ir9_2 Mg1_7 2.967975 1_555
Ir9_3 V1_4 2.595269 1_566
Ir9_3 V1_5 2.595269 1_565
Ir9_3 Mg3_2 2.830311 1_556
Ir9_3 Mg3_3 2.830311 1_555
Ir9_3 Mg1_6 2.967975 1_556
Ir9_3 Mg1_7 2.967975 1_555
Ir9_4 V1_2 2.595269 1_655
Ir9_4 V1_3 2.595269 1_655
Ir9_4 Mg3_5 2.830311 1_555
Ir9_4 Mg3_4 2.830311 1_555
Ir9_4 Mg1_0 2.967975 1_655
Ir9_4 Mg1_1 2.967975 1_655
Ir9_5 V1_2 2.595269 1_656
Ir9_5 V1_3 2.595269 1_655
Ir9_5 Mg3_5 2.830311 1_555
Ir9_5 Mg3_4 2.830311 1_556
Ir9_5 Mg1_1 2.967975 1_655
Ir9_5 Mg1_0 2.967975 1_656
Ir9_6 V1_1 2.595269 1_665
Ir9_6 V1_0 2.595269 1_665
Ir9_6 Mg3_6 2.830311 1_555
Ir9_6 Mg3_7 2.830311 1_555
Ir9_6 Mg1_3 2.967975 1_655
Ir9_6 Mg1_2 2.967975 1_655
Ir9_7 V1_1 2.595269 1_665
Ir9_7 V1_0 2.595269 1_666
Ir9_7 Mg3_6 2.830311 1_556
Ir9_7 Mg3_7 2.830311 1_555
Ir9_7 Mg1_2 2.967975 1_656
Ir9_7 Mg1_3 2.967975 1_655
