# generated using pymatgen
data_Sc3(Ga4Fe5)4
_symmetry_space_group_name_H-M   'P 1'
_cell_length_a   5.01348600
_cell_length_b   6.50179875
_cell_length_c   18.24321775
_cell_angle_alpha   93.86234432
_cell_angle_beta   82.10218078
_cell_angle_gamma   112.67764555
_symmetry_Int_Tables_number   1
_chemical_formula_structural   Sc3(Ga4Fe5)4
_chemical_formula_sum   'Sc3 Ga16 Fe20'
_cell_volume   543.42179794
_cell_formula_units_Z   1
loop_
 _symmetry_equiv_pos_site_id
 _symmetry_equiv_pos_as_xyz
  1  'x, y, z'
loop_
 _atom_site_type_symbol
 _atom_site_label
 _atom_site_symmetry_multiplicity
 _atom_site_fract_x
 _atom_site_fract_y
 _atom_site_fract_z
 _atom_site_occupancy
  Sc  Sc0  1  0.00105200  0.99787000  0.99576600  1
  Sc  Sc1  1  0.33434400  0.00517300  0.33648500  1
  Sc  Sc2  1  0.66926000  0.00403700  0.66551900  1
  Ga  Ga0  1  0.56003700  0.33983800  0.21976600  1
  Ga  Ga1  1  0.89042400  0.33621800  0.55536900  1
  Ga  Ga2  1  0.22379500  0.33566700  0.88807600  1
  Ga  Ga3  1  0.77297500  0.66012100  0.11417200  1
  Ga  Ga4  1  0.10264700  0.65369700  0.44840200  1
  Ga  Ga5  1  0.43627300  0.65417600  0.78162800  1
  Ga  Ga6  1  0.10586300  0.31955500  0.10782900  1
  Ga  Ga7  1  0.43923300  0.32592900  0.44746300  1
  Ga  Ga8  1  0.77129400  0.32306000  0.78047000  1
  Ga  Ga9  1  0.22501200  0.67751800  0.22749500  1
  Ga  Ga10  1  0.54937800  0.65793900  0.55918400  1
  Ga  Ga11  1  0.88253700  0.65597800  0.89090400  1
  Ga  Ga12  1  0.38393800  0.82594300  0.05806700  1
  Ga  Ga13  1  0.71499400  0.82275200  0.39276400  1
  Ga  Ga14  1  0.04911000  0.82342000  0.72520100  1
  Ga  Ga15  1  0.95010400  0.17500800  0.27480000  1
  Fe  Fe0  1  0.16666500  0.99887700  0.16671900  1
  Fe  Fe1  1  0.49585100  0.99326100  0.50224400  1
  Fe  Fe2  1  0.83063100  0.99234700  0.83457400  1
  Fe  Fe3  1  0.66549400  0.99887700  0.16671900  1
  Fe  Fe4  1  0.99516700  0.99326100  0.50224400  1
  Fe  Fe5  1  0.32714100  0.99234700  0.83457400  1
  Fe  Fe6  1  0.99699200  0.49735300  0.00120700  1
  Fe  Fe7  1  0.33277000  0.49689800  0.33483100  1
  Fe  Fe8  1  0.66390400  0.49402000  0.66931100  1
  Fe  Fe9  1  0.49915400  0.49735300  0.00120700  1
  Fe  Fe10  1  0.82929600  0.49689800  0.33483100  1
  Fe  Fe11  1  0.16080600  0.49402000  0.66931100  1
  Fe  Fe12  1  0.31925300  0.22909100  0.59058400  1
  Fe  Fe13  1  0.65211100  0.22701400  0.92279200  1
  Fe  Fe14  1  0.75057900  0.75362900  0.25247100  1
  Fe  Fe15  1  0.08866600  0.76445500  0.58712100  1
  Fe  Fe16  1  0.42236000  0.76479400  0.92007500  1
  Fe  Fe17  1  0.58146900  0.24260000  0.07966100  1
  Fe  Fe18  1  0.91281700  0.24038900  0.41475700  1
  Fe  Fe19  1  0.24660500  0.23861500  0.74540600  1
loop_
_geom_bond_atom_site_label_1
_geom_bond_atom_site_label_2
_geom_bond_distance
_geom_bond_site_symmetry_2
Ga0 Ga3 2.729122 1_555
Ga0 Ga15 2.877753 1_555
Ga0 Ga15 2.877762 1_455
Ga0 Sc1 2.934720 1_555
Ga1 Ga4 2.734871 1_655
Ga1 Sc2 2.838645 1_555
Ga2 Ga5 2.732534 1_555
Ga2 Sc0 2.831538 1_545
Ga3 Sc0 2.969833 1_654
Ga4 Sc1 2.944511 1_565
Ga5 Sc2 2.990969 1_565
Ga6 Sc0 2.775224 1_544
Ga6 Ga9 3.023471 1_555
Ga7 Sc1 2.757338 1_555
Ga8 Sc2 2.802220 1_555
Ga9 Sc1 2.760566 1_565
Ga10 Sc2 2.806695 1_565
Ga10 Ga7 2.813579 1_555
Ga11 Sc0 2.770389 1_655
Ga11 Ga8 2.801020 1_555
Ga12 Ga3 2.886683 1_455
Ga12 Ga3 2.886688 1_555
Ga12 Sc0 2.941347 1_554
Ga12 Sc0 2.941347 1_654
Ga13 Ga4 2.890539 1_655
Ga13 Ga4 2.890543 1_555
Ga13 Sc1 2.924152 1_665
Ga13 Sc1 2.924152 1_565
Ga14 Ga5 2.896007 1_555
Ga14 Ga5 2.896020 1_455
Ga14 Sc2 2.942394 1_465
Ga14 Sc2 2.942399 1_565
Ga15 Sc1 2.932585 1_555
Ga15 Sc1 2.932585 1_655
Fe0 Fe14 2.493159 1_455
Fe0 Fe17 2.499720 1_565
Fe0 Fe3 2.500872 1_555
Fe0 Fe3 2.512614 1_455
Fe0 Ga12 2.535857 1_555
Fe0 Ga15 2.538545 1_465
Fe0 Ga6 2.544826 1_565
Fe0 Ga3 2.559140 1_455
Fe0 Ga9 2.559893 1_555
Fe0 Ga0 2.569959 1_565
Fe0 Sc0 3.334759 1_554
Fe1 Fe15 2.424464 1_555
Fe1 Fe12 2.460487 1_565
Fe1 Fe4 2.503314 1_555
Fe1 Fe4 2.510172 1_455
Fe1 Fe18 2.517469 1_565
Fe1 Ga13 2.542252 1_555
Fe1 Ga7 2.569092 1_565
Fe1 Ga4 2.570839 1_555
Fe1 Ga1 2.580524 1_565
Fe1 Ga10 2.595605 1_555
Fe1 Sc2 3.204643 1_565
Fe1 Sc1 3.249443 1_565
Fe2 Fe5 2.489246 1_655
Fe2 Fe5 2.524240 1_555
Fe2 Ga14 2.533611 1_655
Fe2 Ga8 2.558528 1_565
Fe2 Ga5 2.561831 1_555
Fe2 Ga2 2.581307 1_665
Fe2 Ga11 2.592656 1_555
Fe2 Sc0 3.167234 1_655
Fe2 Sc2 3.307071 1_565
Fe3 Ga12 2.535859 1_555
Fe3 Ga15 2.538543 1_565
Fe3 Ga6 2.544824 1_665
Fe3 Ga3 2.559140 1_555
Fe3 Ga9 2.559893 1_555
Fe3 Ga0 2.569957 1_565
Fe3 Sc0 3.334757 1_654
Fe4 Ga13 2.542254 1_555
Fe4 Ga7 2.569090 1_665
Fe4 Ga4 2.570834 1_655
Fe4 Ga1 2.580529 1_565
Fe4 Ga10 2.595605 1_555
Fe4 Sc2 3.204641 1_565
Fe4 Sc1 3.249441 1_665
Fe5 Ga14 2.533606 1_555
Fe5 Ga8 2.558525 1_565
Fe5 Ga5 2.561829 1_555
Fe5 Ga2 2.581307 1_565
Fe5 Ga11 2.592653 1_455
Fe5 Sc0 3.167232 1_555
Fe5 Sc2 3.307077 1_565
Fe6 Fe9 2.495904 1_555
Fe6 Fe9 2.517582 1_655
Fe6 Ga12 2.542115 1_655
Fe6 Ga11 2.548622 1_554
Fe6 Ga6 2.549320 1_655
Fe6 Ga3 2.571969 1_555
Fe6 Ga2 2.577235 1_654
Fe6 Sc0 3.250194 1_644
Fe6 Sc0 3.254591 1_654
Fe7 Ga13 2.530238 1_555
Fe7 Ga15 2.536264 1_455
Fe7 Ga9 2.568086 1_555
Fe7 Ga4 2.574615 1_555
Fe7 Ga0 2.588163 1_555
Fe7 Ga7 2.609454 1_555
Fe7 Sc1 3.202330 1_555
Fe7 Sc1 3.299780 1_565
Fe8 Ga14 2.532535 1_655
Fe8 Ga5 2.563488 1_555
Fe8 Ga10 2.565003 1_555
Fe8 Ga1 2.574034 1_555
Fe8 Ga8 2.589008 1_555
Fe8 Sc2 3.192241 1_555
Fe8 Sc2 3.311085 1_565
Fe9 Ga12 2.542115 1_555
Fe9 Ga11 2.548622 1_554
Fe9 Ga6 2.549320 1_555
Fe9 Ga3 2.571971 1_555
Fe9 Ga2 2.577238 1_554
Fe9 Sc0 3.250194 1_544
Fe9 Sc0 3.254591 1_654
Fe10 Fe18 2.473208 1_555
Fe10 Fe7 2.489326 1_555
Fe10 Fe14 2.491655 1_555
Fe10 Fe7 2.524160 1_655
Fe10 Ga13 2.530236 1_555
Fe10 Ga15 2.536266 1_555
Fe10 Ga9 2.568091 1_655
Fe10 Ga4 2.574615 1_655
Fe10 Ga0 2.588156 1_555
Fe10 Ga7 2.609452 1_555
Fe10 Sc1 3.202328 1_555
Fe10 Sc1 3.299782 1_665
Fe11 Fe19 2.428005 1_555
Fe11 Fe12 2.463560 1_555
Fe11 Fe8 2.491211 1_455
Fe11 Fe8 2.522275 1_555
Fe11 Ga14 2.532535 1_555
Fe11 Fe15 2.542691 1_555
Fe11 Ga5 2.563480 1_555
Fe11 Ga10 2.565003 1_555
Fe11 Ga1 2.574039 1_455
Fe11 Ga8 2.589015 1_455
Fe11 Sc2 3.192239 1_455
Fe11 Sc2 3.311087 1_565
Fe12 Fe4 2.460482 1_445
Fe12 Fe8 2.463565 1_555
Fe12 Ga10 2.643249 1_555
Fe12 Ga7 2.659573 1_555
Fe12 Ga1 2.667318 1_555
Fe12 Ga1 2.667318 1_455
Fe12 Fe15 2.787132 1_545
Fe12 Fe19 2.797345 1_555
Fe12 Sc2 3.161909 1_455
Fe12 Sc2 3.161921 1_555
Fe13 Fe2 2.458741 1_545
Fe13 Fe5 2.458743 1_545
Fe13 Fe6 2.474490 1_556
Fe13 Fe9 2.474490 1_556
Fe13 Ga8 2.644373 1_555
Fe13 Ga11 2.645970 1_555
Fe13 Ga2 2.667401 1_655
Fe13 Ga2 2.667406 1_555
Fe13 Fe16 2.772582 1_545
Fe13 Fe17 2.834721 1_556
Fe13 Sc0 3.157430 1_545
Fe13 Sc0 3.157430 1_645
Fe14 Fe7 2.491658 1_555
Fe14 Fe3 2.493156 1_555
Fe14 Ga0 2.542703 1_555
Fe14 Ga3 2.552645 1_555
Fe14 Ga15 2.553630 1_565
Fe14 Ga13 2.562362 1_555
Fe14 Ga9 2.586394 1_555
Fe14 Ga9 2.586399 1_655
Fe14 Sc1 3.285369 1_665
Fe14 Sc1 3.285369 1_565
Fe15 Fe4 2.424456 1_455
Fe15 Ga14 2.514562 1_555
Fe15 Fe8 2.542684 1_455
Fe15 Ga4 2.583119 1_555
Fe15 Ga1 2.623516 1_455
Fe15 Ga10 2.633770 1_455
Fe15 Ga10 2.633784 1_555
Fe15 Sc2 3.208170 1_465
Fe15 Sc2 3.208185 1_565
Fe16 Fe2 2.431040 1_555
Fe16 Fe5 2.431045 1_555
Fe16 Ga12 2.514661 1_556
Fe16 Fe9 2.526280 1_556
Fe16 Fe6 2.526282 1_456
Fe16 Ga5 2.578166 1_555
Fe16 Ga2 2.629636 1_555
Fe16 Ga11 2.641388 1_555
Fe16 Ga11 2.641392 1_455
Fe16 Sc0 3.170080 1_655
Fe16 Sc0 3.170084 1_555
Fe17 Fe9 2.443578 1_555
Fe17 Fe6 2.443581 1_555
Fe17 Fe3 2.499725 1_545
Fe17 Ga12 2.523781 1_545
Fe17 Ga3 2.571689 1_555
Fe17 Ga0 2.589097 1_555
Fe17 Ga6 2.597800 1_555
Fe17 Ga6 2.597805 1_655
Fe17 Sc0 3.266108 1_544
Fe17 Sc0 3.266112 1_644
Fe18 Fe7 2.473200 1_655
Fe18 Fe4 2.517467 1_545
Fe18 Ga13 2.530600 1_545
Fe18 Ga4 2.543631 1_655
Fe18 Ga15 2.553175 1_555
Fe18 Ga1 2.596269 1_555
Fe18 Ga7 2.624274 1_655
Fe18 Ga7 2.624284 1_555
Fe18 Sc1 3.195715 1_655
Fe18 Sc1 3.195723 1_555
Fe19 Fe8 2.428005 1_555
Fe19 Ga14 2.511736 1_545
Fe19 Fe5 2.530400 1_545
Fe19 Fe2 2.530405 1_445
Fe19 Ga5 2.567517 1_555
Fe19 Ga8 2.632817 1_555
Fe19 Ga8 2.632831 1_455
Fe19 Ga2 2.634046 1_555
Fe19 Sc2 3.206884 1_455
Fe19 Sc2 3.206888 1_555
