# generated using pymatgen
data_Ba2Nb6Te2O21
_symmetry_space_group_name_H-M   'P 1'
_cell_length_a   8.96369610
_cell_length_b   8.96369610
_cell_length_c   9.83049046
_cell_angle_alpha   83.52663708
_cell_angle_beta   83.52663708
_cell_angle_gamma   37.63930349
_symmetry_Int_Tables_number   1
_chemical_formula_structural   Ba2Nb6Te2O21
_chemical_formula_sum   'Ba2 Nb6 Te2 O21'
_cell_volume   478.92384944
_cell_formula_units_Z   1
loop_
 _symmetry_equiv_pos_site_id
 _symmetry_equiv_pos_as_xyz
  1  'x, y, z'
loop_
 _atom_site_type_symbol
 _atom_site_label
 _atom_site_symmetry_multiplicity
 _atom_site_fract_x
 _atom_site_fract_y
 _atom_site_fract_z
 _atom_site_occupancy
  Ba  Ba0  1  0.14038100  0.14038100  0.47128800  1
  Ba  Ba1  1  0.85961900  0.85961900  0.52871200  1
  Nb  Nb0  1  0.32343000  0.32343000  0.16803400  1
  Nb  Nb1  1  0.67657000  0.67657000  0.83196600  1
  Nb  Nb2  1  0.51886300  0.51886300  0.33759500  1
  Nb  Nb3  1  0.48113700  0.48113700  0.66240500  1
  Nb  Nb4  1  0.90227900  0.90227900  0.91400400  1
  Nb  Nb5  1  0.09772100  0.09772100  0.08599600  1
  Te  Te0  1  0.27383000  0.27383000  0.75069000  1
  Te  Te1  1  0.72617000  0.72617000  0.24931000  1
  O  O0  1  0.41844500  0.41844500  0.27854000  1
  O  O1  1  0.58155500  0.58155500  0.72146000  1
  O  O2  1  0.20919800  0.20919800  0.15061500  1
  O  O3  1  0.79080200  0.79080200  0.84938500  1
  O  O4  1  0.00000000  0.00000000  0.00000000  1
  O  O5  1  0.17574300  0.69416400  0.77924100  1
  O  O6  1  0.30583600  0.82425700  0.22075900  1
  O  O7  1  0.82425700  0.30583600  0.22075900  1
  O  O8  1  0.69416400  0.17574300  0.77924100  1
  O  O9  1  0.89589900  0.39427300  0.94702200  1
  O  O10  1  0.27776100  0.72223900  0.50000000  1
  O  O11  1  0.72223900  0.27776100  0.50000000  1
  O  O12  1  0.64212100  0.64212100  0.39575300  1
  O  O13  1  0.35787900  0.35787900  0.60424700  1
  O  O14  1  0.54163000  0.02242000  0.33125700  1
  O  O15  1  0.97758000  0.45837000  0.66874300  1
  O  O16  1  0.45837000  0.97758000  0.66874300  1
  O  O17  1  0.02242000  0.54163000  0.33125700  1
  O  O18  1  0.39427300  0.89589900  0.94702200  1
  O  O19  1  0.10410100  0.60572700  0.05297800  1
  O  O20  1  0.60572700  0.10410100  0.05297800  1
loop_
_geom_bond_atom_site_label_1
_geom_bond_atom_site_label_2
_geom_bond_distance
_geom_bond_site_symmetry_2
Ba0 O15 2.836037 1_455
Ba0 O16 2.836037 1_545
Ba0 O10 2.859083 1_545
Ba0 O11 2.859083 1_455
Ba0 O12 2.984692 1_545
Ba0 O12 2.984692 1_455
Ba0 O17 3.022893 1_555
Ba0 O14 3.022893 1_555
Ba0 O6 3.223169 1_545
Ba0 O7 3.223169 1_455
Ba0 O2 3.228649 1_555
Ba1 O14 2.836037 1_565
Ba1 O17 2.836037 1_655
Ba1 O11 2.859083 1_565
Ba1 O10 2.859083 1_655
Ba1 O13 2.984692 1_655
Ba1 O13 2.984692 1_565
Ba1 O15 3.022893 1_555
Ba1 O16 3.022893 1_555
Ba1 O8 3.223169 1_565
Ba1 O5 3.223169 1_655
Ba1 O3 3.228649 1_555
Nb0 O19 1.877425 1_555
Nb0 O20 1.877425 1_555
Nb0 O2 1.966160 1_555
Nb0 O0 2.048629 1_555
Nb0 O17 2.248056 1_555
Nb0 O14 2.248056 1_555
Nb1 O18 1.877425 1_555
Nb1 O9 1.877425 1_555
Nb1 O3 1.966160 1_555
Nb1 O1 2.048629 1_555
Nb1 O15 2.248056 1_555
Nb1 O16 2.248056 1_555
Nb2 O0 1.864474 1_555
Nb2 O6 1.991513 1_555
Nb2 O7 1.991513 1_555
Nb2 O11 2.044866 1_555
Nb2 O10 2.044866 1_555
Nb2 O12 2.233014 1_555
Nb3 O1 1.864474 1_555
Nb3 O5 1.991513 1_555
Nb3 O8 1.991513 1_555
Nb3 O11 2.044866 1_555
Nb3 O10 2.044866 1_555
Nb3 O13 2.233014 1_555
Nb4 O4 1.948929 1_666
Nb4 O5 1.956183 1_655
Nb4 O8 1.956183 1_565
Nb4 O3 2.065942 1_555
Nb4 O20 2.080297 1_566
Nb4 O19 2.080297 1_656
Nb5 O4 1.948929 1_555
Nb5 O6 1.956183 1_545
Nb5 O7 1.956183 1_455
Nb5 O2 2.065942 1_555
Nb5 O18 2.080297 1_544
Nb5 O9 2.080297 1_454
O12 Te1 1.901966 1_555
O13 Te0 1.901966 1_555
O14 Te1 1.913629 1_545
O15 Te0 1.913629 1_655
O16 Te0 1.913629 1_565
O17 Te1 1.913629 1_455
