# generated using pymatgen
data_GePd
_symmetry_space_group_name_H-M   'P 1'
_cell_length_a   3.54925952
_cell_length_b   5.78357140
_cell_length_c   6.29615175
_cell_angle_alpha   90.00000000
_cell_angle_beta   90.00000000
_cell_angle_gamma   90.00000000
_symmetry_Int_Tables_number   1
_chemical_formula_structural   GePd
_chemical_formula_sum   'Ge4 Pd4'
_cell_volume   129.24359931
_cell_formula_units_Z   4
loop_
 _symmetry_equiv_pos_site_id
 _symmetry_equiv_pos_as_xyz
  1  'x, y, z'
loop_
 _atom_site_type_symbol
 _atom_site_label
 _atom_site_symmetry_multiplicity
 _atom_site_fract_x
 _atom_site_fract_y
 _atom_site_fract_z
 _atom_site_occupancy
  Ge  Ge0  1  0.75000000  0.81459753  0.42219098  1
  Ge  Ge1  1  0.25000000  0.18540247  0.57780802  1
  Ge  Ge2  1  0.75000000  0.31459753  0.07780802  1
  Ge  Ge3  1  0.25000000  0.68540247  0.92219198  1
  Pd  Pd0  1  0.75000000  0.99621999  0.80900974  1
  Pd  Pd1  1  0.25000000  0.00378001  0.19099026  1
  Pd  Pd2  1  0.75000000  0.49621999  0.69099026  1
  Pd  Pd3  1  0.25000000  0.50378001  0.30900974  1
loop_
_geom_bond_atom_site_label_1
_geom_bond_atom_site_label_2
_geom_bond_distance
_geom_bond_site_symmetry_2
Ge0 Pd2 2.500965 1_555
Ge0 Pd1 2.542728 1_565
Ge0 Pd1 2.542728 1_665
Ge0 Pd3 2.624616 1_655
Ge0 Pd3 2.624616 1_555
Ge0 Pd0 2.652340 1_555
Ge1 Pd3 2.500961 1_555
Ge1 Pd0 2.542731 1_545
Ge1 Pd0 2.542731 1_445
Ge1 Pd2 2.624618 1_455
Ge1 Pd2 2.624618 1_555
Ge1 Pd1 2.652334 1_555
Ge2 Pd0 2.500961 1_544
Ge2 Pd3 2.542731 1_555
Ge2 Pd3 2.542731 1_655
Ge2 Pd1 2.624618 1_655
Ge2 Pd1 2.624618 1_555
Ge2 Pd2 2.652334 1_554
Ge3 Pd1 2.500961 1_566
Ge3 Pd2 2.542731 1_455
Ge3 Pd2 2.542731 1_555
Ge3 Pd0 2.624618 1_555
Ge3 Pd0 2.624618 1_455
Ge3 Pd3 2.652334 1_556
