# generated using pymatgen
data_Li4Ti3V3(TeO8)2
_symmetry_space_group_name_H-M   'P 1'
_cell_length_a   6.08455419
_cell_length_b   10.39229279
_cell_length_c   10.28018843
_cell_angle_alpha   89.88568247
_cell_angle_beta   89.88916356
_cell_angle_gamma   91.66928174
_symmetry_Int_Tables_number   1
_chemical_formula_structural   Li4Ti3V3(TeO8)2
_chemical_formula_sum   'Li8 Ti6 V6 Te4 O32'
_cell_volume   649.76324431
_cell_formula_units_Z   2
loop_
 _symmetry_equiv_pos_site_id
 _symmetry_equiv_pos_as_xyz
  1  'x, y, z'
loop_
 _atom_site_type_symbol
 _atom_site_label
 _atom_site_symmetry_multiplicity
 _atom_site_fract_x
 _atom_site_fract_y
 _atom_site_fract_z
 _atom_site_occupancy
  Li  Li0  1  0.49278800  0.16971500  0.90568000  1
  Li  Li1  1  0.99262500  0.66973900  0.90580800  1
  Li  Li2  1  0.00569300  0.99708900  0.98598700  1
  Li  Li3  1  0.50570300  0.49701500  0.98611600  1
  Li  Li4  1  0.00215600  0.99903300  0.49516800  1
  Li  Li5  1  0.50220000  0.49885700  0.49513500  1
  Li  Li6  1  0.50617900  0.83208800  0.39530800  1
  Li  Li7  1  0.00618100  0.33215500  0.39546300  1
  Ti  Ti0  1  0.26586800  0.90928800  0.73220400  1
  Ti  Ti1  1  0.76596400  0.40923400  0.73229500  1
  Ti  Ti2  1  0.51238200  0.32786500  0.21977900  1
  Ti  Ti3  1  0.01238900  0.82785500  0.21978100  1
  Ti  Ti4  1  0.26388100  0.07935800  0.21934200  1
  Ti  Ti5  1  0.76390000  0.57927300  0.21936600  1
  V  V0  1  0.24689800  0.58472900  0.20771300  1
  V  V1  1  0.23979500  0.41533000  0.71728200  1
  V  V2  1  0.49724300  0.67239600  0.71693900  1
  V  V3  1  0.74688200  0.08476300  0.20763100  1
  V  V4  1  0.73986100  0.91486100  0.71744800  1
  V  V5  1  0.99790600  0.17275800  0.71701300  1
  Te  Te0  1  0.50081500  0.16416400  0.51157500  1
  Te  Te1  1  0.00042500  0.66420700  0.51142400  1
  Te  Te2  1  0.51712400  0.82826300  0.99576500  1
  Te  Te3  1  0.01746900  0.32825600  0.99568000  1
  O  O0  1  0.27193900  0.24248100  0.32011800  1
  O  O1  1  0.77196200  0.74252500  0.32016900  1
  O  O2  1  0.48879700  0.17087200  0.10859300  1
  O  O3  1  0.98880600  0.67083300  0.10865500  1
  O  O4  1  0.00193900  0.99927300  0.31106300  1
  O  O5  1  0.50194900  0.49925200  0.31111100  1
  O  O6  1  0.00756500  0.99127900  0.80395800  1
  O  O7  1  0.50771400  0.49101400  0.80419200  1
  O  O8  1  0.21457900  0.92921000  0.10853900  1
  O  O9  1  0.71460400  0.42925400  0.10863700  1
  O  O10  1  0.75338200  0.07720000  0.59843000  1
  O  O11  1  0.25333900  0.57723900  0.59798000  1
  O  O12  1  0.48705100  0.84548000  0.60972000  1
  O  O13  1  0.98705100  0.34571700  0.60956100  1
  O  O14  1  0.72208800  0.76680300  0.85459700  1
  O  O15  1  0.22229300  0.26687700  0.85477300  1
  O  O16  1  0.49895800  0.33122600  0.60397300  1
  O  O17  1  0.99888500  0.83123300  0.60394600  1
  O  O18  1  0.25000200  0.08172500  0.60085200  1
  O  O19  1  0.74986900  0.58166700  0.60087700  1
  O  O20  1  0.73617700  0.24931200  0.31216900  1
  O  O21  1  0.23616000  0.74933300  0.31215900  1
  O  O22  1  0.49361600  0.00839000  0.31357900  1
  O  O23  1  0.99356800  0.50842100  0.31372500  1
  O  O24  1  0.48863800  0.99051200  0.83246300  1
  O  O25  1  0.98875000  0.49062300  0.83241800  1
  O  O26  1  0.25771500  0.76158000  0.83670700  1
  O  O27  1  0.75825500  0.26154900  0.83686800  1
  O  O28  1  0.76747500  0.91810300  0.09605600  1
  O  O29  1  0.26766600  0.41817300  0.09618300  1
  O  O30  1  0.50857200  0.65744600  0.09389600  1
  O  O31  1  0.00860700  0.15740200  0.09381300  1
loop_
_geom_bond_atom_site_label_1
_geom_bond_atom_site_label_2
_geom_bond_distance
_geom_bond_site_symmetry_2
Li0 O27 1.980740 1_555
Li0 O24 2.009570 1_545
Li0 O15 2.024916 1_555
Li0 O2 2.086141 1_556
Li1 O26 1.979993 1_655
Li1 O25 2.009426 1_555
Li1 O14 2.025408 1_555
Li1 O3 2.085447 1_556
Li2 O6 1.872410 1_555
Li2 O8 1.937815 1_556
Li2 O28 1.993912 1_456
Li2 O31 2.002591 1_566
Li3 O7 1.871405 1_555
Li3 O9 1.937200 1_556
Li3 O29 1.992532 1_556
Li3 O30 2.003354 1_556
Li4 O4 1.892634 1_555
Li4 O18 2.031649 1_565
Li4 O10 2.036386 1_465
Li4 O17 2.069285 1_455
Li5 O5 1.891801 1_555
Li5 O19 2.031677 1_555
Li5 O11 2.035501 1_555
Li5 O16 2.068143 1_555
Li6 O22 2.017652 1_565
Li6 O21 2.023759 1_555
Li6 O1 2.040579 1_555
Li6 O12 2.211915 1_555
Li7 O23 2.017370 1_455
Li7 O20 2.024688 1_455
Li7 O0 2.041812 1_555
Li7 O13 2.208817 1_455
O0 Ti2 1.976506 1_555
O0 Ti4 1.987922 1_555
O0 Te0 2.558494 1_555
O1 Ti3 1.976458 1_655
O1 Ti5 1.989210 1_555
O1 Te1 2.555505 1_655
O2 Ti2 1.995835 1_555
O2 Ti4 1.996838 1_555
O2 V3 2.094694 1_555
O3 Ti3 1.995726 1_655
O3 Ti5 1.996793 1_555
O3 V0 2.094803 1_655
O4 Ti4 2.008910 1_565
O4 Ti3 2.017709 1_555
O4 V3 2.100307 1_465
O5 Ti5 2.008808 1_555
O5 Ti2 2.017658 1_555
O5 V0 2.100043 1_555
O6 Ti0 1.953537 1_555
O6 V4 2.001962 1_455
O6 V5 2.087874 1_465
O7 Ti1 1.952820 1_555
O7 V1 2.002017 1_555
O7 V2 2.088595 1_555
O8 Ti4 1.950235 1_565
O8 Ti3 1.960866 1_555
O8 Te2 2.437715 1_554
O9 Ti5 1.948717 1_555
O9 Ti2 1.960571 1_555
O9 Te3 2.440342 1_654
O10 Te0 2.014608 1_555
O10 V4 2.081657 1_545
O10 V5 2.147476 1_555
O11 Te1 2.014907 1_555
O11 V1 2.079765 1_555
O11 V2 2.145274 1_555
O12 Ti0 1.971077 1_555
O12 V4 2.014370 1_555
O12 V2 2.110231 1_555
O13 Ti1 1.971236 1_555
O13 V1 2.014841 1_655
O13 V5 2.110600 1_555
O14 Te2 2.027912 1_555
O14 V4 2.085210 1_555
O14 V2 2.184421 1_555
O15 Te3 2.025182 1_555
O15 V1 2.090552 1_555
O15 V5 2.182100 1_455
O16 Te0 1.980985 1_555
O16 V1 2.164399 1_555
O16 Ti1 2.229937 1_555
O17 Te1 1.981213 1_655
O17 V4 2.162738 1_555
O17 Ti0 2.229614 1_655
O18 Te0 1.954616 1_555
O18 V5 2.180778 1_455
O18 Ti0 2.246094 1_545
O19 Te1 1.954698 1_655
O19 V2 2.181093 1_555
O19 Ti1 2.246563 1_555
O20 Ti2 1.867992 1_555
O20 V3 2.024093 1_555
O20 Te0 2.635079 1_555
O21 Ti3 1.867674 1_555
O21 V0 2.024085 1_555
O21 Te1 2.635091 1_555
O22 Ti4 1.870522 1_555
O22 V3 2.027249 1_555
O22 Te0 2.602874 1_555
O23 Ti5 1.870363 1_555
O23 V0 2.027644 1_655
O23 Te1 2.600561 1_655
O24 Ti0 1.885284 1_555
O24 V4 2.102235 1_555
O24 Te2 2.387101 1_555
O25 Ti1 1.885320 1_555
O25 V1 2.100665 1_655
O25 Te3 2.387814 1_655
O26 Ti0 1.871278 1_555
O26 V2 2.139004 1_555
O26 Te2 2.365592 1_555
O27 Ti1 1.871492 1_555
O27 V5 2.138185 1_555
O27 Te3 2.363125 1_655
O28 Te2 2.045017 1_554
O28 V3 2.085930 1_565
O28 Ti3 2.191363 1_655
O29 Te3 2.045785 1_554
O29 V0 2.084863 1_555
O29 Ti2 2.190036 1_555
O30 Te2 2.039345 1_554
O30 V0 2.096255 1_555
O30 Ti5 2.194164 1_555
O31 Te3 2.039689 1_554
O31 V3 2.096220 1_455
O31 Ti4 2.193763 1_555
