# generated using pymatgen
data_Rb3VO8
_symmetry_space_group_name_H-M   'P 1'
_cell_length_a   7.73593200
_cell_length_b   16.40610200
_cell_length_c   17.30565100
_cell_angle_alpha   90.00000000
_cell_angle_beta   90.00000000
_cell_angle_gamma   90.00000000
_symmetry_Int_Tables_number   1
_chemical_formula_structural   Rb3VO8
_chemical_formula_sum   'Rb24 V8 O64'
_cell_volume   2196.37247269
_cell_formula_units_Z   8
loop_
 _symmetry_equiv_pos_site_id
 _symmetry_equiv_pos_as_xyz
  1  'x, y, z'
loop_
 _atom_site_type_symbol
 _atom_site_label
 _atom_site_symmetry_multiplicity
 _atom_site_fract_x
 _atom_site_fract_y
 _atom_site_fract_z
 _atom_site_occupancy
  Rb  Rb0  1  0.67761300  0.80803200  0.51963400  1
  Rb  Rb1  1  0.32238700  0.69196800  0.01963400  1
  Rb  Rb2  1  0.82238700  0.30803200  0.48036600  1
  Rb  Rb3  1  0.17761300  0.19196800  0.98036600  1
  Rb  Rb4  1  0.32238700  0.19196800  0.48036600  1
  Rb  Rb5  1  0.67761300  0.30803200  0.98036600  1
  Rb  Rb6  1  0.17761300  0.69196800  0.51963400  1
  Rb  Rb7  1  0.82238700  0.80803200  0.01963400  1
  Rb  Rb8  1  0.85502300  0.79524400  0.78552100  1
  Rb  Rb9  1  0.14497700  0.70475600  0.28552100  1
  Rb  Rb10  1  0.64497700  0.29524400  0.21447900  1
  Rb  Rb11  1  0.35502300  0.20475600  0.71447900  1
  Rb  Rb12  1  0.14497700  0.20475600  0.21447900  1
  Rb  Rb13  1  0.85502300  0.29524400  0.71447900  1
  Rb  Rb14  1  0.35502300  0.70475600  0.78552100  1
  Rb  Rb15  1  0.64497700  0.79524400  0.28552100  1
  Rb  Rb16  1  0.30091800  0.93162000  0.91304400  1
  Rb  Rb17  1  0.69908200  0.56838000  0.41304400  1
  Rb  Rb18  1  0.19908200  0.43162000  0.08695600  1
  Rb  Rb19  1  0.80091800  0.06838000  0.58695600  1
  Rb  Rb20  1  0.69908200  0.06838000  0.08695600  1
  Rb  Rb21  1  0.30091800  0.43162000  0.58695600  1
  Rb  Rb22  1  0.80091800  0.56838000  0.91304400  1
  Rb  Rb23  1  0.19908200  0.93162000  0.41304400  1
  V  V0  1  0.08215800  0.88034400  0.62507400  1
  V  V1  1  0.91784200  0.61965600  0.12507400  1
  V  V2  1  0.41784200  0.38034400  0.37492600  1
  V  V3  1  0.58215800  0.11965600  0.87492600  1
  V  V4  1  0.91784200  0.11965600  0.37492600  1
  V  V5  1  0.08215800  0.38034400  0.87492600  1
  V  V6  1  0.58215800  0.61965600  0.62507400  1
  V  V7  1  0.41784200  0.88034400  0.12507400  1
  O  O0  1  0.03790100  0.85014100  0.53280400  1
  O  O1  1  0.96209900  0.64985900  0.03280400  1
  O  O2  1  0.46209900  0.35014100  0.46719600  1
  O  O3  1  0.53790100  0.14985900  0.96719600  1
  O  O4  1  0.96209900  0.14985900  0.46719600  1
  O  O5  1  0.03790100  0.35014100  0.96719600  1
  O  O6  1  0.53790100  0.64985900  0.53280400  1
  O  O7  1  0.46209900  0.85014100  0.03280400  1
  O  O8  1  0.15723900  0.80077900  0.67784900  1
  O  O9  1  0.84276100  0.69922100  0.17784900  1
  O  O10  1  0.34276100  0.30077900  0.32215100  1
  O  O11  1  0.65723900  0.19922100  0.82215100  1
  O  O12  1  0.84276100  0.19922100  0.32215100  1
  O  O13  1  0.15723900  0.30077900  0.82215100  1
  O  O14  1  0.65723900  0.69922100  0.67784900  1
  O  O15  1  0.34276100  0.80077900  0.17784900  1
  O  O16  1  0.27043800  0.96354600  0.61555600  1
  O  O17  1  0.72956200  0.53645400  0.11555600  1
  O  O18  1  0.22956200  0.46354600  0.38444400  1
  O  O19  1  0.77043800  0.03645400  0.88444400  1
  O  O20  1  0.72956200  0.03645400  0.38444400  1
  O  O21  1  0.27043800  0.46354600  0.88444400  1
  O  O22  1  0.77043800  0.53645400  0.61555600  1
  O  O23  1  0.22956200  0.96354600  0.11555600  1
  O  O24  1  0.90260800  0.92071100  0.66702600  1
  O  O25  1  0.09739200  0.57928900  0.16702600  1
  O  O26  1  0.59739200  0.42071100  0.33297400  1
  O  O27  1  0.40260800  0.07928900  0.83297400  1
  O  O28  1  0.09739200  0.07928900  0.33297400  1
  O  O29  1  0.90260800  0.42071100  0.83297400  1
  O  O30  1  0.40260800  0.57928900  0.66702600  1
  O  O31  1  0.59739200  0.92071100  0.16702600  1
  O  O32  1  0.12027600  0.79000400  0.90579700  1
  O  O33  1  0.87972400  0.70999600  0.40579700  1
  O  O34  1  0.37972400  0.29000400  0.09420300  1
  O  O35  1  0.62027600  0.20999600  0.59420300  1
  O  O36  1  0.87972400  0.20999600  0.09420300  1
  O  O37  1  0.12027600  0.29000400  0.59420300  1
  O  O38  1  0.62027600  0.70999600  0.90579700  1
  O  O39  1  0.37972400  0.79000400  0.40579700  1
  O  O40  1  0.71125400  0.97471800  0.92755300  1
  O  O41  1  0.28874600  0.52528200  0.42755300  1
  O  O42  1  0.78874600  0.47471800  0.07244700  1
  O  O43  1  0.21125400  0.02528200  0.57244700  1
  O  O44  1  0.28874600  0.02528200  0.07244700  1
  O  O45  1  0.71125400  0.47471800  0.57244700  1
  O  O46  1  0.21125400  0.52528200  0.92755300  1
  O  O47  1  0.78874600  0.97471800  0.42755300  1
  O  O48  1  0.04415600  0.04554400  0.77364100  1
  O  O49  1  0.95584400  0.45445600  0.27364100  1
  O  O50  1  0.45584400  0.54554400  0.22635900  1
  O  O51  1  0.54415600  0.95445600  0.72635900  1
  O  O52  1  0.95584400  0.95445600  0.22635900  1
  O  O53  1  0.04415600  0.54554400  0.72635900  1
  O  O54  1  0.54415600  0.45445600  0.77364100  1
  O  O55  1  0.45584400  0.04554400  0.27364100  1
  O  O56  1  0.50254100  0.89234500  0.76273200  1
  O  O57  1  0.49745900  0.60765500  0.26273200  1
  O  O58  1  0.99745900  0.39234500  0.23726800  1
  O  O59  1  0.00254100  0.10765500  0.73726800  1
  O  O60  1  0.49745900  0.10765500  0.23726800  1
  O  O61  1  0.50254100  0.39234500  0.73726800  1
  O  O62  1  0.00254100  0.60765500  0.76273200  1
  O  O63  1  0.99745900  0.89234500  0.26273200  1
loop_
_geom_bond_atom_site_label_1
_geom_bond_atom_site_label_2
_geom_bond_distance
_geom_bond_site_symmetry_2
O0 V0 1.706604 1_555
O0 Rb23 2.763510 1_555
O0 Rb6 2.820304 1_555
O0 Rb0 2.880537 1_455
O1 V1 1.706604 1_555
O1 Rb22 2.763510 1_554
O1 Rb7 2.820304 1_555
O1 Rb1 2.880537 1_655
O2 V2 1.706604 1_555
O2 Rb21 2.763510 1_555
O2 Rb4 2.820304 1_555
O2 Rb2 2.880537 1_555
O3 V3 1.706604 1_555
O3 Rb20 2.763510 1_556
O3 Rb5 2.820304 1_555
O3 Rb3 2.880537 1_555
O4 V4 1.706604 1_555
O4 Rb19 2.763510 1_555
O4 Rb2 2.820304 1_555
O4 Rb4 2.880537 1_655
O5 V5 1.706604 1_555
O5 Rb18 2.763510 1_556
O5 Rb3 2.820304 1_555
O5 Rb5 2.880537 1_455
O6 V6 1.706604 1_555
O6 Rb17 2.763510 1_555
O6 Rb0 2.820304 1_555
O6 Rb6 2.880537 1_555
O7 V7 1.706604 1_555
O7 Rb16 2.763510 1_554
O7 Rb1 2.820304 1_555
O7 Rb7 2.880537 1_555
O8 V0 1.695707 1_555
O8 Rb14 2.880072 1_555
O8 Rb8 2.991010 1_455
O8 Rb6 3.272365 1_555
O9 V1 1.695707 1_555
O9 Rb15 2.880072 1_555
O9 Rb9 2.991010 1_655
O9 Rb7 3.272365 1_555
O10 V2 1.695707 1_555
O10 Rb12 2.880072 1_555
O10 Rb10 2.991010 1_555
O10 Rb4 3.272365 1_555
O11 V3 1.695707 1_555
O11 Rb13 2.880072 1_555
O11 Rb11 2.991010 1_555
O11 Rb5 3.272365 1_555
O12 V4 1.695707 1_555
O12 Rb10 2.880072 1_555
O12 Rb12 2.991010 1_655
O12 Rb2 3.272365 1_555
O13 V5 1.695707 1_555
O13 Rb11 2.880072 1_555
O13 Rb13 2.991010 1_455
O13 Rb3 3.272365 1_555
O14 V6 1.695707 1_555
O14 Rb8 2.880072 1_555
O14 Rb14 2.991010 1_555
O14 Rb0 3.272365 1_555
O15 V7 1.695707 1_555
O15 Rb9 2.880072 1_555
O15 Rb15 2.991010 1_555
O15 Rb1 3.272365 1_555
O16 O43 1.338671 1_565
O16 V0 2.002964 1_555
O17 O42 1.338671 1_555
O17 V1 2.002964 1_555
O18 O41 1.338671 1_555
O18 V2 2.002964 1_555
O19 O40 1.338671 1_545
O19 V3 2.002964 1_555
O20 O47 1.338671 1_545
O20 V4 2.002964 1_555
O21 O46 1.338671 1_555
O21 V5 2.002964 1_555
O22 O45 1.338671 1_555
O22 V6 2.002964 1_555
O23 O44 1.338671 1_565
O23 V7 2.002964 1_555
O24 V0 1.701460 1_655
O24 Rb19 2.899698 1_565
O24 Rb8 2.928774 1_555
O25 V1 1.701460 1_455
O25 Rb18 2.899698 1_555
O25 Rb9 2.928774 1_555
O26 V2 1.701460 1_555
O26 Rb17 2.899698 1_555
O26 Rb10 2.928774 1_555
O27 V3 1.701460 1_555
O27 Rb16 2.899698 1_545
O27 Rb11 2.928774 1_555
O28 V4 1.701460 1_455
O28 Rb23 2.899698 1_545
O28 Rb12 2.928774 1_555
O29 V5 1.701460 1_655
O29 Rb22 2.899698 1_555
O29 Rb13 2.928774 1_555
O30 V6 1.701460 1_555
O30 Rb21 2.899698 1_555
O30 Rb14 2.928774 1_555
O31 V7 1.701460 1_555
O31 Rb20 2.899698 1_565
O31 Rb15 2.928774 1_555
O32 Rb16 2.714145 1_555
O32 Rb8 2.924117 1_455
O32 Rb1 2.985380 1_556
O32 Rb7 3.046138 1_456
O32 Rb14 3.096176 1_555
O33 Rb17 2.714145 1_555
O33 Rb9 2.924117 1_655
O33 Rb0 2.985380 1_555
O33 Rb6 3.046138 1_655
O33 Rb15 3.096176 1_555
O34 Rb18 2.714145 1_555
O34 Rb10 2.924117 1_555
O34 Rb3 2.985380 1_554
O34 Rb5 3.046138 1_554
O34 Rb12 3.096176 1_555
O35 Rb19 2.714145 1_555
O35 Rb11 2.924117 1_555
O35 Rb2 2.985380 1_555
O35 Rb4 3.046138 1_555
O35 Rb13 3.096176 1_555
O36 Rb20 2.714145 1_555
O36 Rb12 2.924117 1_655
O36 Rb5 2.985380 1_554
O36 Rb3 3.046138 1_654
O36 Rb10 3.096176 1_555
O37 Rb21 2.714145 1_555
O37 Rb13 2.924117 1_455
O37 Rb4 2.985380 1_555
O37 Rb2 3.046138 1_455
O37 Rb11 3.096176 1_555
O38 Rb22 2.714145 1_555
O38 Rb14 2.924117 1_555
O38 Rb7 2.985380 1_556
O38 Rb1 3.046138 1_556
O38 Rb8 3.096176 1_555
O39 Rb23 2.714145 1_555
O39 Rb15 2.924117 1_555
O39 Rb6 2.985380 1_555
O39 Rb0 3.046138 1_555
O39 Rb9 3.096176 1_555
O40 Rb20 3.159085 1_566
O40 Rb16 3.261805 1_555
O40 Rb7 3.279761 1_556
O41 Rb21 3.159085 1_555
O41 Rb17 3.261805 1_555
O41 Rb6 3.279761 1_555
O42 Rb22 3.159085 1_554
O42 Rb18 3.261805 1_655
O42 Rb5 3.279761 1_554
O43 Rb23 3.159085 1_545
O43 Rb19 3.261805 1_455
O43 Rb4 3.279761 1_555
O44 Rb16 3.159085 1_544
O44 Rb20 3.261805 1_555
O44 Rb3 3.279761 1_554
O45 Rb17 3.159085 1_555
O45 Rb21 3.261805 1_555
O45 Rb2 3.279761 1_555
O46 Rb18 3.159085 1_556
O46 Rb22 3.261805 1_455
O46 Rb1 3.279761 1_556
O47 Rb19 3.159085 1_565
O47 Rb23 3.261805 1_655
O47 Rb0 3.279761 1_555
O48 O59 1.240249 1_555
O49 O58 1.240249 1_555
O50 O57 1.240249 1_555
O51 O56 1.240249 1_555
O52 O63 1.240249 1_555
O53 O62 1.240249 1_555
O54 O61 1.240249 1_555
O55 O60 1.240249 1_555
O56 Rb16 3.100720 1_555
O56 Rb8 3.182554 1_555
O56 Rb14 3.305979 1_555
O57 Rb17 3.100720 1_555
O57 Rb9 3.182554 1_555
O57 Rb15 3.305979 1_555
O58 Rb18 3.100720 1_655
O58 Rb10 3.182554 1_555
O58 Rb12 3.305979 1_655
O59 Rb19 3.100720 1_455
O59 Rb11 3.182554 1_555
O59 Rb13 3.305979 1_455
O60 Rb20 3.100720 1_555
O60 Rb12 3.182554 1_555
O60 Rb10 3.305979 1_555
O61 Rb21 3.100720 1_555
O61 Rb13 3.182554 1_555
O61 Rb11 3.305979 1_555
O62 Rb22 3.100720 1_455
O62 Rb14 3.182554 1_555
O62 Rb8 3.305979 1_455
O63 Rb23 3.100720 1_655
O63 Rb15 3.182554 1_555
O63 Rb9 3.305979 1_655
