# generated using pymatgen
data_LiTl
_symmetry_space_group_name_H-M   'P 1'
_cell_length_a   8.30012857
_cell_length_b   8.30012857
_cell_length_c   8.13298700
_cell_angle_alpha   90.00000000
_cell_angle_beta   90.00000000
_cell_angle_gamma   99.81198285
_symmetry_Int_Tables_number   1
_chemical_formula_structural   LiTl
_chemical_formula_sum   'Li12 Tl12'
_cell_volume   552.10293710
_cell_formula_units_Z   12
loop_
 _symmetry_equiv_pos_site_id
 _symmetry_equiv_pos_as_xyz
  1  'x, y, z'
loop_
 _atom_site_type_symbol
 _atom_site_label
 _atom_site_symmetry_multiplicity
 _atom_site_fract_x
 _atom_site_fract_y
 _atom_site_fract_z
 _atom_site_occupancy
  Li  Li0  1  0.09608600  0.59608600  0.75000000  1
  Li  Li1  1  0.40391400  0.90391400  0.25000000  1
  Li  Li2  1  0.90391400  0.40391400  0.25000000  1
  Li  Li3  1  0.59608600  0.09608600  0.75000000  1
  Li  Li4  1  0.65662900  0.34337100  0.50000000  1
  Li  Li5  1  0.15662900  0.84337100  0.00000000  1
  Li  Li6  1  0.34337100  0.65662900  0.50000000  1
  Li  Li7  1  0.84337100  0.15662900  0.00000000  1
  Li  Li8  1  0.31898200  0.31898200  0.39313600  1
  Li  Li9  1  0.68101800  0.68101800  0.60686400  1
  Li  Li10  1  0.18101800  0.18101800  0.89313600  1
  Li  Li11  1  0.81898200  0.81898200  0.10686400  1
  Tl  Tl0  1  0.00452100  0.28796700  0.58929000  1
  Tl  Tl1  1  0.71203300  0.99547900  0.41071000  1
  Tl  Tl2  1  0.21203300  0.49547900  0.08929000  1
  Tl  Tl3  1  0.50452100  0.78796700  0.91071000  1
  Tl  Tl4  1  0.99547900  0.71203300  0.41071000  1
  Tl  Tl5  1  0.28796700  0.00452100  0.58929000  1
  Tl  Tl6  1  0.78796700  0.50452100  0.91071000  1
  Tl  Tl7  1  0.49547900  0.21203300  0.08929000  1
  Tl  Tl8  1  0.91970300  0.91970300  0.75979400  1
  Tl  Tl9  1  0.08029700  0.08029700  0.24020600  1
  Tl  Tl10  1  0.58029700  0.58029700  0.25979400  1
  Tl  Tl11  1  0.41970300  0.41970300  0.74020600  1
loop_
_geom_bond_atom_site_label_1
_geom_bond_atom_site_label_2
_geom_bond_distance
_geom_bond_site_symmetry_2
Li0 Tl6 2.857266 1_455
Li0 Tl0 2.857266 1_555
Li0 Li5 2.871902 1_556
Li0 Li6 2.871902 1_555
Li0 Tl4 3.084136 1_455
Li0 Tl2 3.084136 1_556
Li0 Tl8 3.271829 1_455
Li0 Tl11 3.271829 1_555
Li1 Tl1 2.857266 1_555
Li1 Tl7 2.857266 1_565
Li1 Li6 2.871902 1_555
Li1 Li5 2.871902 1_555
Li1 Tl3 3.084136 1_554
Li1 Tl5 3.084136 1_565
Li1 Tl10 3.271829 1_555
Li1 Tl9 3.271829 1_565
Li2 Tl4 2.857266 1_555
Li2 Tl2 2.857266 1_655
Li2 Li4 2.871902 1_555
Li2 Li7 2.871902 1_555
Li2 Tl6 3.084136 1_554
Li2 Tl0 3.084136 1_655
Li2 Tl10 3.271829 1_555
Li2 Tl9 3.271829 1_655
Li3 Tl3 2.857266 1_545
Li3 Tl5 2.857266 1_555
Li3 Li7 2.871902 1_556
Li3 Li4 2.871902 1_555
Li3 Tl1 3.084136 1_545
Li3 Tl7 3.084136 1_556
Li3 Tl8 3.271829 1_545
Li3 Tl11 3.271829 1_555
Li4 Li9 2.908105 1_555
Li4 Li8 2.908105 1_555
Li4 Tl11 2.917150 1_555
Li4 Tl10 2.917150 1_555
Li4 Tl1 3.086964 1_545
Li4 Tl0 3.086964 1_655
Li5 Tl9 2.917150 1_565
Li5 Tl8 2.917150 1_454
Li5 Tl2 3.086964 1_555
Li5 Tl3 3.086964 1_554
Li6 Li9 2.908105 1_555
Li6 Li8 2.908105 1_555
Li6 Tl11 2.917150 1_555
Li6 Tl10 2.917150 1_555
Li6 Tl4 3.086964 1_455
Li6 Tl5 3.086964 1_565
Li7 Tl9 2.917150 1_655
Li7 Tl8 2.917150 1_544
Li7 Tl6 3.086964 1_554
Li7 Tl7 3.086964 1_555
Li8 Tl9 2.838824 1_555
Li8 Tl10 2.996892 1_555
Li8 Tl11 3.021143 1_555
Li8 Tl0 3.032285 1_555
Li8 Tl5 3.032285 1_555
Li8 Tl7 3.079610 1_555
Li8 Tl2 3.079610 1_555
Li9 Tl8 2.838824 1_555
Li9 Tl11 2.996892 1_555
Li9 Tl10 3.021143 1_555
Li9 Tl4 3.032285 1_555
Li9 Tl1 3.032285 1_555
Li9 Tl6 3.079610 1_555
Li9 Tl3 3.079610 1_555
Li10 Tl11 2.838824 1_555
Li10 Li7 2.908105 1_456
Li10 Li5 2.908105 1_546
Li10 Tl8 2.996892 1_445
Li10 Tl9 3.021143 1_556
Li10 Tl2 3.032285 1_556
Li10 Tl7 3.032285 1_556
Li10 Tl0 3.079610 1_555
Li10 Tl5 3.079610 1_555
Li11 Tl10 2.838824 1_555
Li11 Li5 2.908105 1_655
Li11 Li7 2.908105 1_565
Li11 Tl9 2.996892 1_665
Li11 Tl8 3.021143 1_554
Li11 Tl3 3.032285 1_554
Li11 Tl6 3.032285 1_554
Li11 Tl4 3.079610 1_555
Li11 Tl1 3.079610 1_555
Tl0 Tl8 3.320871 1_445
Tl0 Tl9 3.434624 1_555
Tl0 Tl1 3.447902 1_445
Tl1 Tl9 3.320871 1_665
Tl1 Tl8 3.434624 1_555
Tl2 Tl3 3.447902 1_554
Tl4 Tl9 3.320871 1_665
Tl4 Tl8 3.434624 1_555
Tl4 Tl5 3.447902 1_665
Tl5 Tl8 3.320871 1_445
Tl5 Tl9 3.434624 1_555
Tl6 Tl7 3.447902 1_556
Tl10 Tl7 3.320871 1_555
Tl10 Tl2 3.320871 1_555
Tl10 Tl6 3.434624 1_554
Tl10 Tl3 3.434624 1_554
Tl11 Tl6 3.320871 1_555
Tl11 Tl3 3.320871 1_555
Tl11 Tl2 3.434624 1_556
Tl11 Tl7 3.434624 1_556
