# generated using pymatgen
data_MgV8(OF)8
_symmetry_space_group_name_H-M   'P 1'
_cell_length_a   4.98349780
_cell_length_b   10.43061066
_cell_length_c   5.69268229
_cell_angle_alpha   83.49951269
_cell_angle_beta   92.83067918
_cell_angle_gamma   88.84022649
_symmetry_Int_Tables_number   1
_chemical_formula_structural   MgV8(OF)8
_chemical_formula_sum   'Mg1 V8 O8 F8'
_cell_volume   293.55020978
_cell_formula_units_Z   1
loop_
 _symmetry_equiv_pos_site_id
 _symmetry_equiv_pos_as_xyz
  1  'x, y, z'
loop_
 _atom_site_type_symbol
 _atom_site_label
 _atom_site_symmetry_multiplicity
 _atom_site_fract_x
 _atom_site_fract_y
 _atom_site_fract_z
 _atom_site_occupancy
  Mg  Mg0  1  0.49762128  0.15046872  0.13713679  1
  V  V0  1  0.48442593  0.28201569  0.70147293  1
  V  V1  1  0.48147667  0.98369738  0.54835458  1
  V  V2  1  0.52322971  0.73913852  0.25709606  1
  V  V3  1  0.49374594  0.50413800  0.99399199  1
  V  V4  1  0.98446796  0.24722110  0.25927252  1
  V  V5  1  0.01828375  0.76058555  0.75587041  1
  V  V6  1  0.00274137  0.51229441  0.49414132  1
  V  V7  1  0.99270483  0.99831484  0.01268487  1
  O  O0  1  0.82127253  0.07987104  0.29982040  1
  O  O1  1  0.68034391  0.82165562  0.54052553  1
  O  O2  1  0.69329152  0.57127670  0.27967665  1
  O  O3  1  0.66551910  0.32255516  0.04265238  1
  O  O4  1  0.30068791  0.45423789  0.70578281  1
  O  O5  1  0.30661047  0.68065250  0.98576683  1
  O  O6  1  0.32590062  0.17500032  0.43640391  1
  O  O7  1  0.17798205  0.92773870  0.72781552  1
  F  F0  1  0.81723343  0.58021625  0.77715593  1
  F  F1  1  0.84088235  0.32942289  0.53966896  1
  F  F2  1  0.81520057  0.81827287  0.04360003  1
  F  F3  1  0.63649623  0.07962262  0.82806955  1
  F  F4  1  0.34806436  0.93880474  0.21231605  1
  F  F5  1  0.18241587  0.69047156  0.46205432  1
  F  F6  1  0.16250122  0.18773780  0.94945318  1
  F  F7  1  0.17745643  0.42708915  0.21754950  1
loop_
_geom_bond_atom_site_label_1
_geom_bond_atom_site_label_2
_geom_bond_distance
_geom_bond_site_symmetry_2
Mg0 O0 1.910862 1_555
Mg0 O6 1.983436 1_555
Mg0 O3 2.024340 1_555
O0 V4 1.935583 1_555
O0 V7 2.132772 1_545
O0 V1 2.420659 1_545
O1 V1 1.947959 1_555
O1 V2 2.043063 1_555
O1 V5 2.078627 1_655
O2 V2 1.917981 1_555
O2 V6 1.962858 1_655
O2 V3 2.061683 1_554
O3 V3 2.046701 1_554
O3 V4 2.049635 1_555
O3 V0 2.189473 1_554
O4 V6 1.909100 1_555
O4 V3 1.986483 1_555
O4 V0 2.002907 1_555
O5 V5 1.997806 1_555
O5 V2 1.999651 1_556
O5 V3 2.041672 1_555
O6 V4 2.021412 1_455
O6 V0 2.108642 1_555
O6 V1 2.142322 1_545
O7 V5 1.924681 1_555
O7 V1 1.930095 1_555
O7 V7 2.101178 1_456
F0 V6 2.081180 1_655
F0 V5 2.143539 1_655
F0 V3 2.186048 1_555
F1 V4 2.047663 1_555
F1 V6 2.080197 1_655
F1 V0 2.083885 1_555
F2 V2 2.066808 1_555
F2 V7 2.085175 1_555
F2 V5 2.105104 1_654
F3 V1 2.098566 1_545
F3 Mg0 2.124751 1_556
F3 V7 2.127899 1_546
F3 V0 2.255478 1_555
F4 V7 2.099999 1_455
F4 V1 2.100125 1_555
F4 V2 2.224547 1_555
F4 Mg0 2.344599 1_565
F5 V6 2.072627 1_555
F5 V5 2.095081 1_555
F5 V2 2.144821 1_555
F6 Mg0 1.945564 1_556
F6 V4 2.159356 1_456
F6 V7 2.164739 1_446
F6 V0 2.346677 1_555
F7 V6 2.109053 1_555
F7 V4 2.120372 1_455
F7 V3 2.183534 1_554
