# generated using pymatgen
data_Mg2Si3
_symmetry_space_group_name_H-M   'P 1'
_cell_length_a   5.19268660
_cell_length_b   5.19268660
_cell_length_c   8.30644113
_cell_angle_alpha   77.30030991
_cell_angle_beta   77.30030991
_cell_angle_gamma   52.32830428
_symmetry_Int_Tables_number   1
_chemical_formula_structural   Mg2Si3
_chemical_formula_sum   'Mg4 Si6'
_cell_volume   171.88153845
_cell_formula_units_Z   2
loop_
 _symmetry_equiv_pos_site_id
 _symmetry_equiv_pos_as_xyz
  1  'x, y, z'
loop_
 _atom_site_type_symbol
 _atom_site_label
 _atom_site_symmetry_multiplicity
 _atom_site_fract_x
 _atom_site_fract_y
 _atom_site_fract_z
 _atom_site_occupancy
  Mg  Mg0  1  0.16837100  0.16837100  0.96047500  1
  Mg  Mg1  1  0.83162900  0.83162900  0.03952500  1
  Mg  Mg2  1  0.04812900  0.04812900  0.65688200  1
  Mg  Mg3  1  0.95187100  0.95187100  0.34311800  1
  Si  Si0  1  0.36881900  0.36881900  0.58738300  1
  Si  Si1  1  0.27171900  0.27171900  0.32229300  1
  Si  Si2  1  0.72828100  0.72828100  0.67770700  1
  Si  Si3  1  0.63118100  0.63118100  0.41261700  1
  Si  Si4  1  0.47972000  0.47972000  0.85643200  1
  Si  Si5  1  0.52028000  0.52028000  0.14356800  1
loop_
_geom_bond_atom_site_label_1
_geom_bond_atom_site_label_2
_geom_bond_distance
_geom_bond_site_symmetry_2
Mg0 Si4 2.817929 1_555
Mg0 Si5 2.903910 1_456
Mg0 Si5 2.903910 1_546
Mg0 Si4 3.134677 1_455
Mg0 Si4 3.134677 1_545
Mg0 Si0 3.202912 1_555
Mg1 Si5 2.817929 1_555
Mg1 Si4 2.903910 1_564
Mg1 Si4 2.903910 1_654
Mg1 Si5 3.134677 1_655
Mg1 Si5 3.134677 1_565
Mg1 Si3 3.202912 1_555
Mg2 Si4 2.806950 1_545
Mg2 Si4 2.806950 1_455
Mg2 Si2 2.869621 1_455
Mg2 Si2 2.869621 1_545
Mg2 Si0 2.902305 1_555
Mg2 Si2 2.943788 1_445
Mg2 Si0 2.973574 1_455
Mg2 Si0 2.973574 1_545
Mg2 Si3 3.031375 1_545
Mg2 Si3 3.031375 1_455
Mg2 Si1 3.038138 1_555
Mg3 Si5 2.806950 1_565
Mg3 Si5 2.806950 1_655
Mg3 Si1 2.869621 1_655
Mg3 Si1 2.869621 1_565
Mg3 Si3 2.902305 1_555
Mg3 Si1 2.943788 1_665
Mg3 Si3 2.973574 1_565
Mg3 Si3 2.973574 1_655
Mg3 Si0 3.031375 1_655
Mg3 Si0 3.031375 1_565
Mg3 Si2 3.038138 1_555
Si0 Si3 2.519702 1_555
Si0 Si1 2.577616 1_555
Si0 Si2 2.653330 1_455
Si0 Si2 2.653330 1_545
Si0 Si4 2.682320 1_555
Si1 Si5 2.426307 1_555
Si1 Si3 2.653330 1_545
Si1 Si3 2.653330 1_455
Si2 Si4 2.426307 1_555
Si2 Si3 2.577616 1_555
Si3 Si5 2.682320 1_555
Si4 Si5 2.504649 1_556
