# generated using pymatgen
data_InRe4C14I3O14
_symmetry_space_group_name_H-M   'P 1'
_cell_length_a   10.24506703
_cell_length_b   10.24506703
_cell_length_c   16.52838383
_cell_angle_alpha   69.46056804
_cell_angle_beta   69.46056804
_cell_angle_gamma   72.28816103
_symmetry_Int_Tables_number   1
_chemical_formula_structural   InRe4C14I3O14
_chemical_formula_sum   'In2 Re8 C28 I6 O28'
_cell_volume   1488.48015386
_cell_formula_units_Z   2
loop_
 _symmetry_equiv_pos_site_id
 _symmetry_equiv_pos_as_xyz
  1  'x, y, z'
loop_
 _atom_site_type_symbol
 _atom_site_label
 _atom_site_symmetry_multiplicity
 _atom_site_fract_x
 _atom_site_fract_y
 _atom_site_fract_z
 _atom_site_occupancy
  In  In0  1  0.60027100  0.39972900  0.25000000  1
  In  In1  1  0.39972900  0.60027100  0.75000000  1
  Re  Re0  1  0.83358700  0.23456900  0.32835900  1
  Re  Re1  1  0.76543100  0.16641300  0.17164100  1
  Re  Re2  1  0.16641300  0.76543100  0.67164100  1
  Re  Re3  1  0.23456900  0.83358700  0.82835900  1
  Re  Re4  1  0.30155900  0.49693000  0.31338400  1
  Re  Re5  1  0.50307000  0.69844100  0.18661600  1
  Re  Re6  1  0.69844100  0.50307000  0.68661600  1
  Re  Re7  1  0.49693000  0.30155900  0.81338400  1
  C  C0  1  0.95604200  0.36341400  0.22976100  1
  C  C1  1  0.63658600  0.04395800  0.27023900  1
  C  C2  1  0.04395800  0.63658600  0.77023900  1
  C  C3  1  0.36341400  0.95604200  0.72976100  1
  C  C4  1  0.72407000  0.38386400  0.38664500  1
  C  C5  1  0.61613600  0.27593000  0.11335500  1
  C  C6  1  0.27593000  0.61613600  0.61335500  1
  C  C7  1  0.38386400  0.72407000  0.88664500  1
  C  C8  1  0.71403100  0.10130500  0.42380600  1
  C  C9  1  0.89869500  0.28596900  0.07619400  1
  C  C10  1  0.28596900  0.89869500  0.57619400  1
  C  C11  1  0.10130500  0.71403100  0.92380600  1
  C  C12  1  0.96080700  0.18306200  0.40361800  1
  C  C13  1  0.81693800  0.03919300  0.09638200  1
  C  C14  1  0.03919300  0.81693800  0.59638200  1
  C  C15  1  0.18306200  0.96080700  0.90361800  1
  C  C16  1  0.10038000  0.50859600  0.37214700  1
  C  C17  1  0.49140400  0.89962000  0.12785300  1
  C  C18  1  0.89962000  0.49140400  0.62785300  1
  C  C19  1  0.50859600  0.10038000  0.87214700  1
  C  C20  1  0.30316700  0.33680300  0.27888400  1
  C  C21  1  0.66319700  0.69683300  0.22111600  1
  C  C22  1  0.69683300  0.66319700  0.72111600  1
  C  C23  1  0.33680300  0.30316700  0.77888400  1
  C  C24  1  0.34607900  0.37383600  0.42243700  1
  C  C25  1  0.62616400  0.65392100  0.07756300  1
  C  C26  1  0.65392100  0.62616400  0.57756300  1
  C  C27  1  0.37383600  0.34607900  0.92243700  1
  I  I0  1  0.98927300  0.01072700  0.25000000  1
  I  I1  1  0.01072700  0.98927300  0.75000000  1
  I  I2  1  0.25401900  0.69055400  0.15016800  1
  I  I3  1  0.30944600  0.74598100  0.34983200  1
  I  I4  1  0.74598100  0.30944600  0.84983200  1
  I  I5  1  0.69055400  0.25401900  0.65016800  1
  O  O0  1  0.02643100  0.43900900  0.17416500  1
  O  O1  1  0.56099100  0.97356900  0.32583500  1
  O  O2  1  0.97356900  0.56099100  0.82583500  1
  O  O3  1  0.43900900  0.02643100  0.67416500  1
  O  O4  1  0.65888900  0.46879300  0.42569800  1
  O  O5  1  0.53120700  0.34111100  0.07430200  1
  O  O6  1  0.34111100  0.53120700  0.57430200  1
  O  O7  1  0.46879300  0.65888900  0.92569800  1
  O  O8  1  0.65155100  0.02299800  0.48295000  1
  O  O9  1  0.97700200  0.34844900  0.01705000  1
  O  O10  1  0.34844900  0.97700200  0.51705000  1
  O  O11  1  0.02299800  0.65155100  0.98295000  1
  O  O12  1  0.03716000  0.15664000  0.44787900  1
  O  O13  1  0.84336000  0.96284000  0.05212100  1
  O  O14  1  0.96284000  0.84336000  0.55212100  1
  O  O15  1  0.15664000  0.03716000  0.94787900  1
  O  O16  1  0.97850400  0.51545700  0.40593700  1
  O  O17  1  0.48454300  0.02149600  0.09406300  1
  O  O18  1  0.02149600  0.48454300  0.59406300  1
  O  O19  1  0.51545700  0.97850400  0.90593700  1
  O  O20  1  0.30094100  0.23744400  0.26006200  1
  O  O21  1  0.76255600  0.69905900  0.23993800  1
  O  O22  1  0.69905900  0.76255600  0.73993800  1
  O  O23  1  0.23744400  0.30094100  0.76006200  1
  O  O24  1  0.37148700  0.29653700  0.48904900  1
  O  O25  1  0.70346300  0.62851300  0.01095100  1
  O  O26  1  0.62851300  0.70346300  0.51095100  1
  O  O27  1  0.29653700  0.37148700  0.98904900  1
loop_
_geom_bond_atom_site_label_1
_geom_bond_atom_site_label_2
_geom_bond_distance
_geom_bond_site_symmetry_2
In0 Re5 2.843029 1_555
In0 Re4 2.843029 1_555
In0 Re1 2.903073 1_555
In0 Re0 2.903073 1_555
In1 Re6 2.843029 1_555
In1 Re7 2.843029 1_555
In1 Re3 2.903073 1_555
In1 Re2 2.903073 1_555
C0 O0 1.157456 1_655
C0 Re0 2.008903 1_555
C1 O1 1.157456 1_545
C1 Re1 2.008903 1_555
C2 O2 1.157456 1_455
C2 Re2 2.008903 1_555
C3 O3 1.157456 1_565
C3 Re3 2.008903 1_555
C4 O4 1.165230 1_555
C4 Re0 1.938493 1_555
C4 In0 2.891891 1_555
C5 O5 1.165230 1_555
C5 Re1 1.938493 1_555
C5 In0 2.891891 1_555
C6 O6 1.165230 1_555
C6 Re2 1.938493 1_555
C6 In1 2.891891 1_555
C7 O7 1.165230 1_555
C7 Re3 1.938493 1_555
C7 In1 2.891891 1_555
C8 O8 1.154142 1_555
C8 Re0 2.000830 1_555
C9 O9 1.154142 1_555
C9 Re1 2.000830 1_555
C10 O10 1.154142 1_555
C10 Re2 2.000830 1_555
C11 O11 1.154142 1_555
C11 Re3 2.000830 1_555
C12 O12 1.163666 1_655
C12 Re0 1.945029 1_555
C13 O13 1.163666 1_545
C13 Re1 1.945029 1_555
C14 O14 1.163666 1_455
C14 Re2 1.945029 1_555
C15 O15 1.163666 1_565
C15 Re3 1.945029 1_555
C16 O16 1.166507 1_455
C16 Re4 1.931991 1_555
C17 O17 1.166507 1_565
C17 Re5 1.931991 1_555
C18 O18 1.166507 1_655
C18 Re6 1.931991 1_555
C19 O19 1.166507 1_545
C19 Re7 1.931991 1_555
C20 O20 1.172527 1_555
C20 Re4 1.910523 1_555
C21 O21 1.172527 1_555
C21 Re5 1.910523 1_555
C22 O22 1.172527 1_555
C22 Re6 1.910523 1_555
C23 O23 1.172527 1_555
C23 Re7 1.910523 1_555
C24 O24 1.170874 1_555
C24 Re4 1.918118 1_555
C25 O25 1.170874 1_555
C25 Re5 1.918118 1_555
C26 O26 1.170874 1_555
C26 Re6 1.918118 1_555
C27 O27 1.170874 1_555
C27 Re7 1.918118 1_555
I0 Re1 2.808835 1_555
I0 Re0 2.808835 1_555
I1 Re3 2.808835 1_555
I1 Re2 2.808835 1_555
I2 Re4 2.833519 1_555
I2 Re5 2.849216 1_555
I3 Re5 2.833519 1_555
I3 Re4 2.849216 1_555
I4 Re6 2.833519 1_555
I4 Re7 2.849216 1_555
I5 Re7 2.833519 1_555
I5 Re6 2.849216 1_555
