# generated using pymatgen
data_Mg14CrSi
_symmetry_space_group_name_H-M   'P 1'
_cell_length_a   6.23462195
_cell_length_b   6.23462147
_cell_length_c   10.26954271
_cell_angle_alpha   90.00000000
_cell_angle_beta   90.00000000
_cell_angle_gamma   120.00000262
_symmetry_Int_Tables_number   1
_chemical_formula_structural   Mg14CrSi
_chemical_formula_sum   'Mg14 Cr1 Si1'
_cell_volume   345.70203844
_cell_formula_units_Z   1
loop_
 _symmetry_equiv_pos_site_id
 _symmetry_equiv_pos_as_xyz
  1  'x, y, z'
loop_
 _atom_site_type_symbol
 _atom_site_label
 _atom_site_symmetry_multiplicity
 _atom_site_fract_x
 _atom_site_fract_y
 _atom_site_fract_z
 _atom_site_occupancy
  Mg  Mg0  1  0.16553898  0.83276899  0.12500000  1
  Mg  Mg1  1  0.16663472  0.83331686  0.62500000  1
  Mg  Mg2  1  0.66723101  0.33446102  0.12500000  1
  Mg  Mg3  1  0.66668314  0.33336528  0.62500000  1
  Mg  Mg4  1  0.66723101  0.83276899  0.12500000  1
  Mg  Mg5  1  0.66668314  0.83331686  0.62500000  1
  Mg  Mg6  1  0.32991218  0.17008782  0.37546333  1
  Mg  Mg7  1  0.32991218  0.17008782  0.87453667  1
  Mg  Mg8  1  0.32991218  0.65982536  0.37546333  1
  Mg  Mg9  1  0.32991218  0.65982536  0.87453667  1
  Mg  Mg10  1  0.84017464  0.17008782  0.37546333  1
  Mg  Mg11  1  0.84017464  0.17008782  0.87453667  1
  Mg  Mg12  1  0.83333300  0.66666700  0.37641553  1
  Mg  Mg13  1  0.83333300  0.66666700  0.87358447  1
  Cr  Cr0  1  0.16666700  0.33333300  0.62500000  1
  Si  Si0  1  0.16666700  0.33333300  0.12500000  1
loop_
_geom_bond_atom_site_label_1
_geom_bond_atom_site_label_2
_geom_bond_distance
_geom_bond_site_symmetry_2
Mg0 Mg2 3.106762 1_455
Mg0 Mg4 3.106762 1_455
Mg0 Si0 3.117317 1_565
Mg0 Si0 3.117317 1_555
Mg0 Mg2 3.127860 1_565
Mg0 Mg4 3.127860 1_555
Mg0 Mg13 3.143829 1_454
Mg0 Mg12 3.143829 1_455
Mg0 Mg9 3.151782 1_554
Mg0 Mg8 3.151782 1_555
Mg0 Mg6 3.151788 1_565
Mg0 Mg7 3.151788 1_564
Mg1 Mg3 3.117009 1_455
Mg1 Mg5 3.117009 1_455
Mg1 Mg3 3.117613 1_565
Mg1 Mg5 3.117613 1_555
Mg1 Mg12 3.123401 1_455
Mg1 Mg13 3.123401 1_455
Mg1 Mg9 3.142356 1_555
Mg1 Mg8 3.142356 1_555
Mg1 Mg6 3.142362 1_565
Mg1 Mg7 3.142362 1_565
Mg2 Mg4 3.106762 1_555
Mg2 Si0 3.117317 1_555
Mg2 Si0 3.117317 1_655
Mg2 Mg4 3.127860 1_545
Mg2 Mg7 3.151788 1_554
Mg2 Mg6 3.151788 1_555
Mg3 Mg5 3.117009 1_555
Mg3 Mg5 3.117613 1_545
Mg3 Mg6 3.142362 1_555
Mg3 Mg7 3.142362 1_555
Mg4 Si0 3.117317 1_665
Mg4 Si0 3.117317 1_555
Mg4 Mg9 3.151788 1_554
Mg4 Mg8 3.151788 1_555
Mg5 Mg8 3.142362 1_555
Mg5 Mg9 3.142362 1_555
Mg6 Mg8 3.053328 1_555
Mg6 Si0 3.118253 1_555
Mg6 Mg8 3.181293 1_545
Mg7 Mg9 3.053328 1_555
Mg7 Si0 3.118253 1_556
Mg7 Mg9 3.181293 1_545
Mg8 Si0 3.118259 1_555
Mg9 Si0 3.118259 1_556
Mg10 Mg8 3.053328 1_655
Mg10 Mg6 3.053328 1_655
Mg10 Mg12 3.117545 1_545
Mg10 Mg12 3.117545 1_555
Mg10 Si0 3.118259 1_655
Mg10 Mg3 3.142356 1_555
Mg10 Mg5 3.142362 1_545
Mg10 Mg2 3.151782 1_555
Mg10 Mg4 3.151788 1_545
Mg10 Mg8 3.181293 1_545
Mg10 Mg6 3.181294 1_555
Mg11 Mg9 3.053328 1_655
Mg11 Mg7 3.053328 1_655
Mg11 Mg13 3.117545 1_545
Mg11 Mg13 3.117545 1_555
Mg11 Si0 3.118259 1_656
Mg11 Mg3 3.142356 1_555
Mg11 Mg5 3.142362 1_545
Mg11 Mg2 3.151782 1_556
Mg11 Mg4 3.151788 1_546
Mg11 Mg9 3.181293 1_545
Mg11 Mg7 3.181294 1_555
Mg12 Mg6 3.117545 1_665
Mg12 Mg6 3.117545 1_555
Mg12 Mg8 3.117545 1_555
Mg12 Mg8 3.117545 1_655
Mg12 Mg5 3.123394 1_555
Mg12 Mg3 3.123401 1_555
Mg12 Mg4 3.143823 1_555
Mg12 Mg2 3.143829 1_555
Mg13 Mg7 3.117545 1_665
Mg13 Mg7 3.117545 1_555
Mg13 Mg9 3.117545 1_555
Mg13 Mg9 3.117545 1_655
Mg13 Mg5 3.123394 1_555
Mg13 Mg3 3.123401 1_555
Mg13 Mg4 3.143823 1_556
Mg13 Mg2 3.143829 1_556
Cr0 Mg6 3.110408 1_555
Cr0 Mg7 3.110408 1_555
Cr0 Mg8 3.110414 1_555
Cr0 Mg9 3.110414 1_555
Cr0 Mg10 3.110414 1_455
Cr0 Mg11 3.110414 1_455
Cr0 Mg5 3.117311 1_445
Cr0 Mg5 3.117311 1_555
Cr0 Mg1 3.117311 1_545
Cr0 Mg1 3.117311 1_555
Cr0 Mg3 3.117311 1_555
Cr0 Mg3 3.117311 1_455
