# generated using pymatgen
data_Pu2Se3
_symmetry_space_group_name_H-M   'P 1'
_cell_length_a   11.30759145
_cell_length_b   4.10033936
_cell_length_c   11.20312826
_cell_angle_alpha   90.00000000
_cell_angle_beta   90.00000000
_cell_angle_gamma   90.00000000
_symmetry_Int_Tables_number   1
_chemical_formula_structural   Pu2Se3
_chemical_formula_sum   'Pu8 Se12'
_cell_volume   519.43261930
_cell_formula_units_Z   4
loop_
 _symmetry_equiv_pos_site_id
 _symmetry_equiv_pos_as_xyz
  1  'x, y, z'
loop_
 _atom_site_type_symbol
 _atom_site_label
 _atom_site_symmetry_multiplicity
 _atom_site_fract_x
 _atom_site_fract_y
 _atom_site_fract_z
 _atom_site_occupancy
  Pu  Pu0  1  0.49344595  0.25000000  0.18645840  1
  Pu  Pu1  1  0.99344595  0.25000000  0.31354160  1
  Pu  Pu2  1  0.50655405  0.75000000  0.81354160  1
  Pu  Pu3  1  0.00655405  0.75000000  0.68645840  1
  Pu  Pu4  1  0.68889084  0.75000000  0.49158463  1
  Pu  Pu5  1  0.18889084  0.75000000  0.00841537  1
  Pu  Pu6  1  0.31110916  0.25000000  0.50841537  1
  Pu  Pu7  1  0.81110916  0.25000000  0.99158463  1
  Se  Se0  1  0.55067182  0.25000000  0.62850913  1
  Se  Se1  1  0.05067182  0.25000000  0.87149087  1
  Se  Se2  1  0.44932818  0.75000000  0.37149087  1
  Se  Se3  1  0.94932818  0.75000000  0.12850913  1
  Se  Se4  1  0.62101021  0.75000000  0.05255985  1
  Se  Se5  1  0.12101021  0.75000000  0.44744015  1
  Se  Se6  1  0.37898979  0.25000000  0.94744015  1
  Se  Se7  1  0.87898979  0.25000000  0.55255985  1
  Se  Se8  1  0.72906132  0.25000000  0.30170514  1
  Se  Se9  1  0.22906132  0.25000000  0.19829486  1
  Se  Se10  1  0.27093868  0.75000000  0.69829486  1
  Se  Se11  1  0.77093868  0.75000000  0.80170514  1
loop_
_geom_bond_atom_site_label_1
_geom_bond_atom_site_label_2
_geom_bond_distance
_geom_bond_site_symmetry_2
Pu0 Se4 2.921316 1_555
Pu0 Se4 2.921316 1_545
Pu0 Se2 2.957897 1_545
Pu0 Se2 2.957897 1_555
Pu0 Se8 2.960606 1_555
Pu0 Se6 2.974117 1_554
Pu0 Se9 2.992493 1_555
Pu1 Se5 2.921316 1_645
Pu1 Se5 2.921316 1_655
Pu1 Se3 2.957897 1_545
Pu1 Se3 2.957897 1_555
Pu1 Se9 2.960606 1_655
Pu1 Se7 2.974117 1_555
Pu1 Se8 2.992493 1_555
Pu2 Se6 2.921316 1_555
Pu2 Se6 2.921316 1_565
Pu2 Se0 2.957897 1_565
Pu2 Se0 2.957897 1_555
Pu2 Se10 2.960606 1_555
Pu2 Se4 2.974117 1_556
Pu2 Se11 2.992493 1_555
Pu3 Se7 2.921316 1_455
Pu3 Se7 2.921316 1_465
Pu3 Se1 2.957897 1_555
Pu3 Se1 2.957897 1_565
Pu3 Se11 2.960606 1_455
Pu3 Se5 2.974117 1_555
Pu3 Se10 2.992493 1_555
Pu4 Se8 2.989095 1_565
Pu4 Se8 2.989095 1_555
Pu4 Se0 2.999838 1_565
Pu4 Se0 2.999838 1_555
Pu4 Se2 3.024596 1_555
Pu4 Se7 3.048024 1_565
Pu4 Se7 3.048024 1_555
Pu4 Se11 3.596059 1_555
Pu5 Se9 2.989095 1_565
Pu5 Se9 2.989095 1_555
Pu5 Se1 2.999838 1_564
Pu5 Se1 2.999838 1_554
Pu5 Se3 3.024596 1_455
Pu5 Se6 3.048024 1_554
Pu5 Se6 3.048024 1_564
Pu5 Se10 3.596059 1_554
Pu6 Se10 2.989095 1_555
Pu6 Se10 2.989095 1_545
Pu6 Se2 2.999838 1_545
Pu6 Se2 2.999838 1_555
Pu6 Se0 3.024596 1_555
Pu6 Se5 3.048024 1_545
Pu6 Se5 3.048024 1_555
Pu6 Se9 3.596059 1_555
Pu7 Se11 2.989095 1_555
Pu7 Se11 2.989095 1_545
Pu7 Se3 2.999838 1_556
Pu7 Se3 2.999838 1_546
Pu7 Se1 3.024596 1_655
Pu7 Se4 3.048024 1_546
Pu7 Se4 3.048024 1_556
Pu7 Se8 3.596059 1_556
