# generated using pymatgen
data_Ti7P4
_symmetry_space_group_name_H-M   'P 1'
_cell_length_a   3.39829726
_cell_length_b   7.49907106
_cell_length_c   13.61977897
_cell_angle_alpha   104.42929066
_cell_angle_beta   89.99279604
_cell_angle_gamma   103.10348728
_symmetry_Int_Tables_number   1
_chemical_formula_structural   Ti7P4
_chemical_formula_sum   'Ti14 P8'
_cell_volume   326.80145254
_cell_formula_units_Z   2
loop_
 _symmetry_equiv_pos_site_id
 _symmetry_equiv_pos_as_xyz
  1  'x, y, z'
loop_
 _atom_site_type_symbol
 _atom_site_label
 _atom_site_symmetry_multiplicity
 _atom_site_fract_x
 _atom_site_fract_y
 _atom_site_fract_z
 _atom_site_occupancy
  Ti  Ti0  1  -0.00001714  -0.00002780  -0.00002633  1
  Ti  Ti1  1  0.49999964  -0.00000140  0.50002858  1
  Ti  Ti2  1  0.42914090  0.85831330  0.83042811  1
  Ti  Ti3  1  0.57084667  0.14166669  0.16953036  1
  Ti  Ti4  1  0.19639276  0.39251930  0.30757183  1
  Ti  Ti5  1  0.80361379  0.60747811  0.69245119  1
  Ti  Ti6  1  0.20515256  0.41044348  0.79397328  1
  Ti  Ti7  1  0.79483977  0.58954870  0.20601377  1
  Ti  Ti8  1  0.33967135  0.67933342  0.03149366  1
  Ti  Ti9  1  0.66032875  0.32067339  0.96844950  1
  Ti  Ti10  1  0.00376894  0.00765685  0.66288065  1
  Ti  Ti11  1  0.99623637  0.99234532  0.33714903  1
  Ti  Ti12  1  0.17915103  0.35815403  0.54164349  1
  Ti  Ti13  1  0.82086659  0.64187108  0.45840952  1
  P  P0  1  0.17855685  0.35694840  0.10974927  1
  P  P1  1  0.82144146  0.64305579  0.89020653  1
  P  P2  1  0.37289085  0.74580800  0.60412527  1
  P  P3  1  0.62713014  0.25420967  0.39592019  1
  P  P4  1  0.36954358  0.73909933  0.34268020  1
  P  P5  1  0.63045684  0.26090623  0.65735313  1
  P  P6  1  0.06156045  0.12292712  0.84974318  1
  P  P7  1  0.93842983  0.87706701  0.15022262  1
loop_
_geom_bond_atom_site_label_1
_geom_bond_atom_site_label_2
_geom_bond_distance
_geom_bond_site_symmetry_2
P0 Ti7 2.520363 1_555
P0 Ti7 2.520524 1_455
P0 Ti9 2.529481 1_554
P0 Ti9 2.530172 1_454
P0 Ti3 2.584021 1_455
P0 Ti3 2.584120 1_555
P0 Ti4 2.639812 1_555
P0 Ti0 2.653087 1_555
P0 Ti8 2.822113 1_555
P1 Ti6 2.520263 1_555
P1 Ti6 2.520424 1_655
P1 Ti8 2.529351 1_556
P1 Ti8 2.530045 1_656
P1 Ti2 2.583885 1_655
P1 Ti2 2.583978 1_555
P1 Ti5 2.638893 1_555
P1 Ti0 2.652685 1_666
P1 Ti9 2.821994 1_555
P2 Ti5 2.444702 1_555
P2 Ti5 2.444835 1_455
P2 Ti10 2.530026 1_665
P2 Ti10 2.530444 1_565
P2 Ti13 2.574902 1_555
P2 Ti13 2.575348 1_455
P2 Ti1 2.608374 1_565
P2 Ti12 2.740069 1_555
P2 Ti2 2.979820 1_555
P3 Ti4 2.444815 1_555
P3 Ti4 2.444927 1_655
P3 Ti11 2.530147 1_445
P3 Ti11 2.530528 1_545
P3 Ti12 2.574995 1_555
P3 Ti12 2.575409 1_655
P3 Ti1 2.608617 1_555
P3 Ti13 2.740125 1_555
P3 Ti3 2.980965 1_555
P4 Ti4 2.452981 1_555
P4 Ti1 2.476783 1_565
P4 Ti11 2.526907 1_555
P4 Ti11 2.526931 1_455
P4 Ti13 2.539340 1_455
P4 Ti13 2.539446 1_555
P4 Ti7 2.550320 1_455
P4 Ti7 2.550526 1_555
P5 Ti5 2.452932 1_555
P5 Ti1 2.476599 1_555
P5 Ti10 2.526899 1_555
P5 Ti10 2.526953 1_655
P5 Ti12 2.539234 1_655
P5 Ti12 2.539306 1_555
P5 Ti6 2.549903 1_655
P5 Ti6 2.550114 1_555
P6 Ti6 2.408922 1_555
P6 Ti0 2.435805 1_556
P6 Ti10 2.467732 1_555
P6 Ti9 2.528068 1_555
P6 Ti9 2.528531 1_455
P6 Ti2 2.535928 1_545
P6 Ti2 2.536141 1_445
P7 Ti7 2.409091 1_555
P7 Ti0 2.435828 1_665
P7 Ti11 2.468558 1_555
P7 Ti8 2.528174 1_555
P7 Ti8 2.528653 1_655
P7 Ti3 2.535851 1_565
P7 Ti3 2.536084 1_665
