# generated using pymatgen
data_Li8Cr3SbO12
_symmetry_space_group_name_H-M   'P 1'
_cell_length_a   5.03103049
_cell_length_b   5.04710511
_cell_length_c   8.56643824
_cell_angle_alpha   89.61356884
_cell_angle_beta   90.60767243
_cell_angle_gamma   89.24060569
_symmetry_Int_Tables_number   1
_chemical_formula_structural   Li8Cr3SbO12
_chemical_formula_sum   'Li8 Cr3 Sb1 O12'
_cell_volume   217.48370168
_cell_formula_units_Z   1
loop_
 _symmetry_equiv_pos_site_id
 _symmetry_equiv_pos_as_xyz
  1  'x, y, z'
loop_
 _atom_site_type_symbol
 _atom_site_label
 _atom_site_symmetry_multiplicity
 _atom_site_fract_x
 _atom_site_fract_y
 _atom_site_fract_z
 _atom_site_occupancy
  Li  Li0  1  0.49950700  0.00052900  0.92313300  1
  Li  Li1  1  0.49879300  0.49424700  0.75465000  1
  Li  Li2  1  0.50059600  0.49918200  0.06783400  1
  Li  Li3  1  0.99682600  0.50123200  0.72310900  1
  Li  Li4  1  0.00752100  0.50138300  0.42154500  1
  Li  Li5  1  0.50084200  0.99719700  0.23238800  1
  Li  Li6  1  0.99860400  0.99552600  0.25977700  1
  Li  Li7  1  0.99227000  0.00852300  0.55854300  1
  Cr  Cr0  1  0.51108100  0.49627100  0.39716400  1
  Cr  Cr1  1  0.49347200  0.99102600  0.57240500  1
  Cr  Cr2  1  0.00158000  0.50030300  0.09238300  1
  Sb  Sb0  1  0.00001700  0.00283200  0.90252600  1
  O  O0  1  0.74654400  0.85762100  0.73966700  1
  O  O1  1  0.77668500  0.83194300  0.07067900  1
  O  O2  1  0.72259700  0.82295400  0.41750000  1
  O  O3  1  0.29259900  0.67981600  0.56573400  1
  O  O4  1  0.22122200  0.67073400  0.91704300  1
  O  O5  1  0.25866000  0.64745000  0.25151400  1
  O  O6  1  0.74551200  0.35029100  0.24893400  1
  O  O7  1  0.77625100  0.33306100  0.91692700  1
  O  O8  1  0.70812100  0.32409300  0.56712100  1
  O  O9  1  0.28255100  0.17248600  0.42077500  1
  O  O10  1  0.22572200  0.16889800  0.07254000  1
  O  O11  1  0.24238500  0.15224000  0.74002300  1
loop_
_geom_bond_atom_site_label_1
_geom_bond_atom_site_label_2
_geom_bond_distance
_geom_bond_site_symmetry_2
Li0 O1 2.045189 1_546
Li0 O10 2.068466 1_556
Li0 O0 2.137278 1_545
Li0 O11 2.152831 1_555
Li0 O4 2.189721 1_545
Li0 O7 2.195547 1_555
Li1 O7 2.110999 1_555
Li1 O8 2.111357 1_555
Li1 O3 2.119088 1_555
Li1 O4 2.168812 1_555
Li1 O11 2.172069 1_555
Li1 O0 2.234818 1_555
Li2 O4 2.075563 1_554
Li2 O7 2.078281 1_554
Li2 O6 2.099748 1_555
Li2 O5 2.133014 1_555
Li2 O10 2.180421 1_555
Li2 O1 2.193689 1_555
Li3 O11 2.141226 1_655
Li3 O8 2.168865 1_555
Li3 O7 2.180283 1_555
Li3 O4 2.184346 1_655
Li3 O0 2.188213 1_555
Li3 O3 2.214921 1_655
Li4 O5 2.076222 1_555
Li4 O3 2.098907 1_555
Li4 O6 2.122748 1_455
Li4 O9 2.147000 1_555
Li4 O2 2.150969 1_455
Li4 O8 2.164550 1_455
Li5 O2 2.109581 1_555
Li5 O10 2.110420 1_565
Li5 O1 2.136871 1_555
Li5 O9 2.150412 1_565
Li5 O5 2.164420 1_555
Li5 O6 2.183816 1_565
Li6 O1 2.134562 1_555
Li6 O2 2.137370 1_555
Li6 O10 2.165735 1_665
Li6 O5 2.178478 1_655
Li6 O9 2.179269 1_665
Li6 O6 2.184214 1_565
Li7 O2 2.047420 1_545
Li7 O9 2.065399 1_655
Li7 O11 2.127053 1_655
Li7 O8 2.128202 1_555
Li7 O0 2.136707 1_545
Li7 O3 2.229204 1_645
Cr0 O6 1.888821 1_555
Cr0 O5 1.918218 1_555
Cr0 O8 1.946040 1_555
Cr0 O2 1.981856 1_555
Cr0 O9 2.020799 1_555
Cr0 O3 2.043616 1_555
Cr1 O3 1.879831 1_555
Cr1 O9 1.892350 1_565
Cr1 O2 1.957286 1_555
Cr1 O8 2.010527 1_565
Cr1 O0 2.013210 1_555
Cr1 O11 2.084840 1_565
Cr2 O10 2.013986 1_555
Cr2 O1 2.014342 1_455
Cr2 O6 2.019959 1_455
Cr2 O5 2.020983 1_555
Cr2 O4 2.063999 1_554
Cr2 O7 2.064718 1_454
O0 Sb0 2.027447 1_665
O1 Sb0 2.030904 1_664
O4 Sb0 2.002054 1_565
O7 Sb0 2.004111 1_655
O10 Sb0 2.029700 1_554
O11 Sb0 2.009865 1_555
