# generated using pymatgen
data_Mn4Se4O15
_symmetry_space_group_name_H-M   'P 1'
_cell_length_a   8.43167300
_cell_length_b   9.25752688
_cell_length_c   9.54195783
_cell_angle_alpha   117.21642940
_cell_angle_beta   90.00000000
_cell_angle_gamma   90.00000000
_symmetry_Int_Tables_number   1
_chemical_formula_structural   Mn4Se4O15
_chemical_formula_sum   'Mn8 Se8 O30'
_cell_volume   662.34967331
_cell_formula_units_Z   2
loop_
 _symmetry_equiv_pos_site_id
 _symmetry_equiv_pos_as_xyz
  1  'x, y, z'
loop_
 _atom_site_type_symbol
 _atom_site_label
 _atom_site_symmetry_multiplicity
 _atom_site_fract_x
 _atom_site_fract_y
 _atom_site_fract_z
 _atom_site_occupancy
  Mn  Mn0  1  0.97379600  0.31866900  0.01343400  1
  Mn  Mn1  1  0.47379600  0.68133100  0.98656600  1
  Mn  Mn2  1  0.36963900  0.33467600  0.01638700  1
  Mn  Mn3  1  0.86963900  0.66532400  0.98361300  1
  Mn  Mn4  1  0.97052400  0.04663600  0.33631900  1
  Mn  Mn5  1  0.47052400  0.95336400  0.66368100  1
  Mn  Mn6  1  0.37564500  0.04397900  0.35766900  1
  Mn  Mn7  1  0.87564500  0.95602100  0.64233100  1
  Se  Se0  1  0.17785500  0.25144200  0.67309700  1
  Se  Se1  1  0.67785500  0.74855800  0.32690300  1
  Se  Se2  1  0.18006200  0.38023100  0.35817900  1
  Se  Se3  1  0.68006200  0.61976900  0.64182100  1
  Se  Se4  1  0.66620900  0.31618400  0.74996900  1
  Se  Se5  1  0.16620900  0.68381600  0.25003100  1
  Se  Se6  1  0.79626900  0.04362600  0.02216700  1
  Se  Se7  1  0.29626900  0.95637400  0.97783300  1
  O  O0  1  0.17650600  0.27870900  0.86598300  1
  O  O1  1  0.67650600  0.72129100  0.13401700  1
  O  O2  1  0.18431600  0.32168000  0.14950800  1
  O  O3  1  0.68431600  0.67832000  0.85049200  1
  O  O4  1  0.84016300  0.24139000  0.15269000  1
  O  O5  1  0.34016300  0.75861000  0.84731000  1
  O  O6  1  0.92560200  0.04647800  0.87724900  1
  O  O7  1  0.42560200  0.95352200  0.12275100  1
  O  O8  1  0.80595400  0.39720700  0.89855300  1
  O  O9  1  0.30595400  0.60279300  0.10144700  1
  O  O10  1  0.49002800  0.39258300  0.85615900  1
  O  O11  1  0.99002800  0.60741700  0.14384100  1
  O  O12  1  0.91053900  0.93358100  0.09743700  1
  O  O13  1  0.41053900  0.06641900  0.90256300  1
  O  O14  1  0.17635700  0.18288400  0.35053800  1
  O  O15  1  0.67635700  0.81711600  0.64946200  1
  O  O16  1  0.31816800  0.09383600  0.58972700  1
  O  O17  1  0.81816800  0.90616400  0.41027300  1
  O  O18  1  0.16285100  0.88600300  0.28202200  1
  O  O19  1  0.66285100  0.11399700  0.71797800  1
  O  O20  1  0.00214200  0.14488600  0.60565100  1
  O  O21  1  0.50214200  0.85511400  0.39434900  1
  O  O22  1  0.36631700  0.43907200  0.40963900  1
  O  O23  1  0.86631700  0.56092800  0.59036100  1
  O  O24  1  0.52139600  0.37964900  0.15309500  1
  O  O25  1  0.02139600  0.62035100  0.84690500  1
  O  O26  1  0.83996400  0.20868900  0.38007700  1
  O  O27  1  0.33996400  0.79131100  0.61992300  1
  O  O28  1  0.52049800  0.19551200  0.42003900  1
  O  O29  1  0.02049800  0.80448800  0.57996100  1
loop_
_geom_bond_atom_site_label_1
_geom_bond_atom_site_label_2
_geom_bond_distance
_geom_bond_site_symmetry_2
Mn0 O4 2.101562 1_555
Mn0 O8 2.112355 1_554
Mn0 O0 2.135800 1_654
Mn0 O2 2.191871 1_655
Mn0 O6 2.282122 1_554
Mn0 O11 2.381178 1_555
Mn1 O5 2.101562 1_555
Mn1 O9 2.112355 1_556
Mn1 O1 2.135800 1_556
Mn1 O3 2.191871 1_555
Mn1 O7 2.282122 1_556
Mn1 O10 2.381178 1_555
Mn2 O24 1.736511 1_555
Mn2 O2 2.051688 1_555
Mn2 O0 2.073582 1_554
Mn2 O10 2.098800 1_554
Mn2 O13 2.235763 1_554
Mn2 O9 2.294598 1_555
Mn3 O25 1.736511 1_655
Mn3 O3 2.051688 1_555
Mn3 O1 2.073582 1_556
Mn3 O11 2.098800 1_556
Mn3 O12 2.235763 1_556
Mn3 O8 2.294598 1_555
Mn4 O26 1.750385 1_555
Mn4 O12 2.089189 1_545
Mn4 O18 2.098753 1_645
Mn4 O14 2.113011 1_655
Mn4 O17 2.163029 1_545
Mn4 O20 2.316224 1_655
Mn5 O27 1.750385 1_555
Mn5 O13 2.089189 1_565
Mn5 O19 2.098753 1_565
Mn5 O15 2.113011 1_555
Mn5 O16 2.163029 1_565
Mn5 O21 2.316224 1_555
Mn6 O28 1.746464 1_555
Mn6 O7 2.046055 1_545
Mn6 O16 2.101458 1_555
Mn6 O14 2.135828 1_555
Mn6 O21 2.208354 1_545
Mn6 O18 2.216624 1_545
Mn7 O29 1.746464 1_655
Mn7 O6 2.046055 1_565
Mn7 O17 2.101458 1_555
Mn7 O15 2.135828 1_555
Mn7 O20 2.208354 1_665
Mn7 O19 2.216624 1_565
O0 Se0 1.739644 1_555
O1 Se1 1.739644 1_555
O2 Se2 1.808999 1_555
O3 Se3 1.808999 1_555
O4 Se6 1.718800 1_555
O5 Se7 1.718800 1_555
O6 Se6 1.770708 1_556
O7 Se7 1.770708 1_554
O8 Se4 1.728680 1_555
O9 Se5 1.728680 1_555
O10 Se4 1.754456 1_555
O11 Se5 1.754456 1_655
O12 Se6 1.775182 1_565
O13 Se7 1.775182 1_545
O14 Se2 1.795043 1_555
O15 Se3 1.795043 1_555
O16 Se0 1.760574 1_555
O17 Se1 1.760574 1_555
O18 Se5 1.753513 1_555
O19 Se4 1.753513 1_555
O20 Se0 1.732501 1_555
O21 Se1 1.732501 1_555
O22 Se2 1.661161 1_555
O23 Se3 1.661161 1_555
