# generated using pymatgen
data_CrIn3
_symmetry_space_group_name_H-M   'P 1'
_cell_length_a   20.87737861
_cell_length_b   20.87737861
_cell_length_c   20.87737974
_cell_angle_alpha   17.13908642
_cell_angle_beta   17.13908642
_cell_angle_gamma   17.13908361
_symmetry_Int_Tables_number   1
_chemical_formula_structural   CrIn3
_chemical_formula_sum   'Cr8 In24'
_cell_volume   689.48048045
_cell_formula_units_Z   8
loop_
 _symmetry_equiv_pos_site_id
 _symmetry_equiv_pos_as_xyz
  1  'x, y, z'
loop_
 _atom_site_type_symbol
 _atom_site_label
 _atom_site_symmetry_multiplicity
 _atom_site_fract_x
 _atom_site_fract_y
 _atom_site_fract_z
 _atom_site_occupancy
  Cr  Cr0_0  1  0.00000000  0.00000000  0.00000000  1
  Cr  Cr0_1  1  0.00000000  0.00000000  0.50000000  1
  Cr  Cr0_2  1  0.00000000  0.50000000  0.00000000  1
  Cr  Cr0_3  1  0.00000000  0.50000000  0.50000000  1
  Cr  Cr0_4  1  0.50000000  0.00000000  0.00000000  1
  Cr  Cr0_5  1  0.50000000  0.00000000  0.50000000  1
  Cr  Cr0_6  1  0.50000000  0.50000000  0.00000000  1
  Cr  Cr0_7  1  0.50000000  0.50000000  0.50000000  1
  In  In0_0  1  0.13190200  0.13190200  0.13190200  1
  In  In0_1  1  0.13190200  0.13190200  0.63190200  1
  In  In0_2  1  0.13190200  0.63190200  0.13190200  1
  In  In0_3  1  0.13190200  0.63190200  0.63190200  1
  In  In0_4  1  0.63190200  0.13190200  0.13190200  1
  In  In0_5  1  0.63190200  0.13190200  0.63190200  1
  In  In0_6  1  0.63190200  0.63190200  0.13190200  1
  In  In0_7  1  0.63190200  0.63190200  0.63190200  1
  In  In1_0  1  0.25000000  0.25000000  0.25000000  1
  In  In1_1  1  0.25000000  0.25000000  0.75000000  1
  In  In1_2  1  0.25000000  0.75000000  0.25000000  1
  In  In1_3  1  0.25000000  0.75000000  0.75000000  1
  In  In1_4  1  0.75000000  0.25000000  0.25000000  1
  In  In1_5  1  0.75000000  0.25000000  0.75000000  1
  In  In1_6  1  0.75000000  0.75000000  0.25000000  1
  In  In1_7  1  0.75000000  0.75000000  0.75000000  1
  In  In2_0  1  0.36809800  0.36809800  0.36809800  1
  In  In2_1  1  0.36809800  0.36809800  0.86809800  1
  In  In2_2  1  0.36809800  0.86809800  0.36809800  1
  In  In2_3  1  0.36809800  0.86809800  0.86809800  1
  In  In2_4  1  0.86809800  0.36809800  0.36809800  1
  In  In2_5  1  0.86809800  0.36809800  0.86809800  1
  In  In2_6  1  0.86809800  0.86809800  0.36809800  1
  In  In2_7  1  0.86809800  0.86809800  0.86809800  1
loop_
_geom_bond_atom_site_label_1
_geom_bond_atom_site_label_2
_geom_bond_distance
_geom_bond_site_symmetry_2
Cr0_0 In2_5 2.797609 1_454
Cr0_0 In2_3 2.797609 1_544
Cr0_0 In0_4 2.797609 1_455
Cr0_0 In0_2 2.797609 1_545
Cr0_0 In2_6 2.797609 1_445
Cr0_0 In0_1 2.797609 1_554
Cr0_1 In0_3 2.797609 1_545
Cr0_1 In0_5 2.797609 1_455
Cr0_1 In2_2 2.797609 1_545
Cr0_1 In2_4 2.797609 1_455
Cr0_1 In2_7 2.797609 1_445
Cr0_1 In0_0 2.797609 1_555
Cr0_2 In0_6 2.797609 1_455
Cr0_2 In2_7 2.797609 1_454
Cr0_2 In0_0 2.797609 1_555
Cr0_2 In2_1 2.797609 1_554
Cr0_2 In0_3 2.797609 1_554
Cr0_2 In2_4 2.797609 1_455
Cr0_3 In2_6 2.797609 1_455
Cr0_3 In0_7 2.797609 1_455
Cr0_3 In2_0 2.797609 1_555
Cr0_3 In0_1 2.797609 1_555
Cr0_3 In2_5 2.797609 1_455
Cr0_3 In0_2 2.797609 1_555
Cr0_4 In0_6 2.797609 1_545
Cr0_4 In2_7 2.797609 1_544
Cr0_4 In0_0 2.797609 1_555
Cr0_4 In2_1 2.797609 1_554
Cr0_4 In0_5 2.797609 1_554
Cr0_4 In2_2 2.797609 1_545
Cr0_5 In2_6 2.797609 1_545
Cr0_5 In0_7 2.797609 1_545
Cr0_5 In2_0 2.797609 1_555
Cr0_5 In0_1 2.797609 1_555
Cr0_5 In2_3 2.797609 1_545
Cr0_5 In0_4 2.797609 1_555
Cr0_6 In2_3 2.797609 1_554
Cr0_6 In2_5 2.797609 1_554
Cr0_6 In0_2 2.797609 1_555
Cr0_6 In0_4 2.797609 1_555
Cr0_6 In0_7 2.797609 1_554
Cr0_6 In2_0 2.797609 1_555
Cr0_7 In0_3 2.797609 1_555
Cr0_7 In0_5 2.797609 1_555
Cr0_7 In2_2 2.797609 1_555
Cr0_7 In2_4 2.797609 1_555
Cr0_7 In0_6 2.797609 1_555
Cr0_7 In2_1 2.797609 1_555
In0_0 In1_2 3.493641 1_545
In0_0 In1_4 3.493641 1_455
In0_0 In1_1 3.493642 1_554
In0_1 In1_3 3.493641 1_545
In0_1 In1_5 3.493641 1_455
In0_1 In1_0 3.493642 1_555
In0_2 In1_6 3.493641 1_455
In0_2 In1_0 3.493641 1_555
In0_2 In1_3 3.493642 1_554
In0_3 In1_7 3.493641 1_455
In0_3 In1_1 3.493641 1_555
In0_3 In1_2 3.493642 1_555
In0_4 In1_6 3.493641 1_545
In0_4 In1_0 3.493641 1_555
In0_4 In1_5 3.493642 1_554
In0_5 In1_7 3.493641 1_545
In0_5 In1_1 3.493641 1_555
In0_5 In1_4 3.493642 1_555
In0_6 In1_4 3.493641 1_555
In0_6 In1_2 3.493641 1_555
In0_6 In1_7 3.493642 1_554
In0_7 In1_3 3.493641 1_555
In0_7 In1_5 3.493641 1_555
In0_7 In1_6 3.493642 1_555
In1_0 In1_6 3.110932 1_455
In1_0 In1_6 3.110932 1_545
In1_0 In1_5 3.110933 1_554
In1_0 In1_3 3.110933 1_554
In1_0 In1_3 3.110933 1_545
In1_0 In1_5 3.110933 1_455
In1_0 In2_4 3.493641 1_455
In1_0 In2_2 3.493641 1_545
In1_0 In2_1 3.493642 1_554
In1_1 In1_7 3.110932 1_545
In1_1 In1_7 3.110932 1_455
In1_1 In1_4 3.110933 1_456
In1_1 In1_2 3.110933 1_546
In1_1 In1_4 3.110933 1_555
In1_1 In1_2 3.110933 1_555
In1_1 In2_3 3.493641 1_545
In1_1 In2_5 3.493641 1_455
In1_1 In2_0 3.493642 1_555
In1_2 In1_4 3.110932 1_555
In1_2 In1_4 3.110932 1_465
In1_2 In1_7 3.110933 1_554
In1_2 In1_7 3.110933 1_455
In1_2 In2_0 3.493641 1_555
In1_2 In2_6 3.493641 1_455
In1_2 In2_3 3.493642 1_554
In1_3 In1_5 3.110932 1_555
In1_3 In1_5 3.110932 1_465
In1_3 In1_6 3.110933 1_456
In1_3 In1_6 3.110933 1_555
In1_3 In2_1 3.493641 1_555
In1_3 In2_7 3.493641 1_455
In1_3 In2_2 3.493642 1_555
In1_4 In1_7 3.110933 1_554
In1_4 In1_7 3.110933 1_545
In1_4 In2_0 3.493641 1_555
In1_4 In2_6 3.493641 1_545
In1_4 In2_5 3.493642 1_554
In1_5 In1_6 3.110933 1_546
In1_5 In1_6 3.110933 1_555
In1_5 In2_1 3.493641 1_555
In1_5 In2_7 3.493641 1_545
In1_5 In2_4 3.493642 1_555
In1_6 In2_2 3.493641 1_555
In1_6 In2_4 3.493641 1_555
In1_6 In2_7 3.493642 1_554
In1_7 In2_5 3.493641 1_555
In1_7 In2_3 3.493641 1_555
In1_7 In2_6 3.493642 1_555
