# generated using pymatgen
data_Sc2Mn12P7
_symmetry_space_group_name_H-M   'P 1'
_cell_length_a   9.32643420
_cell_length_b   9.32643420
_cell_length_c   3.42915700
_cell_angle_alpha   90.00000000
_cell_angle_beta   90.00000000
_cell_angle_gamma   120.00000141
_symmetry_Int_Tables_number   1
_chemical_formula_structural   Sc2Mn12P7
_chemical_formula_sum   'Sc2 Mn12 P7'
_cell_volume   258.31477988
_cell_formula_units_Z   1
loop_
 _symmetry_equiv_pos_site_id
 _symmetry_equiv_pos_as_xyz
  1  'x, y, z'
loop_
 _atom_site_type_symbol
 _atom_site_label
 _atom_site_symmetry_multiplicity
 _atom_site_fract_x
 _atom_site_fract_y
 _atom_site_fract_z
 _atom_site_occupancy
  Sc  Sc0  1  0.00000000  0.00000000  0.00000000  1
  Sc  Sc1  1  0.66666700  0.33333300  0.50000000  1
  Mn  Mn0  1  0.38748100  0.28891900  0.00000000  1
  Mn  Mn1  1  0.90143800  0.61251900  0.00000000  1
  Mn  Mn2  1  0.71108100  0.09856200  0.00000000  1
  Mn  Mn3  1  0.60965300  0.78410200  0.00000000  1
  Mn  Mn4  1  0.17445000  0.39034700  0.00000000  1
  Mn  Mn5  1  0.21589800  0.82555000  0.00000000  1
  Mn  Mn6  1  0.76791800  0.71676500  0.50000000  1
  Mn  Mn7  1  0.94884700  0.23208200  0.50000000  1
  Mn  Mn8  1  0.28323500  0.05115300  0.50000000  1
  Mn  Mn9  1  0.43480400  0.53539300  0.50000000  1
  Mn  Mn10  1  0.10058900  0.56519600  0.50000000  1
  Mn  Mn11  1  0.46460700  0.89941100  0.50000000  1
  P  P0  1  0.62360300  0.53960700  0.00000000  1
  P  P1  1  0.91600400  0.37639700  0.00000000  1
  P  P2  1  0.46039300  0.08399600  0.00000000  1
  P  P3  1  0.75206500  0.95789200  0.50000000  1
  P  P4  1  0.20582700  0.24793500  0.50000000  1
  P  P5  1  0.04210800  0.79417300  0.50000000  1
  P  P6  1  0.33333300  0.66666700  0.00000000  1
loop_
_geom_bond_atom_site_label_1
_geom_bond_atom_site_label_2
_geom_bond_distance
_geom_bond_site_symmetry_2
Mn0 P0 2.273147 1_555
Mn0 P4 2.304033 1_555
Mn0 P4 2.304033 1_554
Mn0 P2 2.326958 1_555
Mn1 P1 2.273147 1_555
Mn1 P5 2.304033 1_655
Mn1 P5 2.304033 1_654
Mn1 P0 2.326958 1_555
Mn2 P2 2.273147 1_555
Mn2 P3 2.304033 1_545
Mn2 P3 2.304033 1_544
Mn2 P1 2.326958 1_555
Mn3 P6 2.240171 1_555
Mn3 P3 2.275569 1_554
Mn3 P3 2.275569 1_555
Mn3 P0 2.348023 1_555
Mn4 P6 2.240170 1_555
Mn4 P4 2.275565 1_554
Mn4 P4 2.275565 1_555
Mn4 P1 2.348033 1_455
Mn5 P6 2.240155 1_555
Mn5 P5 2.275571 1_555
Mn5 P5 2.275571 1_554
Mn5 P2 2.348028 1_565
Mn6 P5 2.283504 1_655
Mn6 P0 2.292912 1_556
Mn6 P0 2.292912 1_555
Mn6 P3 2.326308 1_555
Mn7 P3 2.283504 1_545
Mn7 P1 2.292912 1_556
Mn7 P1 2.292912 1_555
Mn7 P4 2.326308 1_655
Mn8 P4 2.283504 1_555
Mn8 P2 2.292912 1_556
Mn8 P2 2.292912 1_555
Mn8 P5 2.326308 1_545
Mn9 P0 2.443893 1_556
Mn9 P0 2.443893 1_555
Mn9 P4 2.454134 1_555
Mn9 P6 2.548134 1_555
Mn9 P6 2.548134 1_556
Mn10 P1 2.443893 1_455
Mn10 P1 2.443893 1_456
Mn10 P5 2.454134 1_555
Mn10 P6 2.548128 1_555
Mn10 P6 2.548128 1_556
Mn11 P2 2.443893 1_566
Mn11 P2 2.443893 1_565
Mn11 P3 2.454134 1_555
Mn11 P6 2.548128 1_555
Mn11 P6 2.548128 1_556
P0 Sc1 2.752229 1_554
P0 Sc1 2.752229 1_555
P1 Sc1 2.752221 1_554
P1 Sc1 2.752221 1_555
P2 Sc1 2.752224 1_554
P2 Sc1 2.752224 1_555
P3 Sc0 2.744607 1_666
P3 Sc0 2.744607 1_665
P4 Sc0 2.744607 1_555
P4 Sc0 2.744607 1_556
P5 Sc0 2.744607 1_565
P5 Sc0 2.744607 1_566
