# generated using pymatgen
data_Ba2Pb(SO4)3
_symmetry_space_group_name_H-M   'P 1'
_cell_length_a   5.54751700
_cell_length_b   7.21350300
_cell_length_c   26.66186967
_cell_angle_alpha   89.69746758
_cell_angle_beta   90.00000000
_cell_angle_gamma   90.00000000
_symmetry_Int_Tables_number   1
_chemical_formula_structural   Ba2Pb(SO4)3
_chemical_formula_sum   'Ba8 Pb4 S12 O48'
_cell_volume   1066.91397923
_cell_formula_units_Z   4
loop_
 _symmetry_equiv_pos_site_id
 _symmetry_equiv_pos_as_xyz
  1  'x, y, z'
loop_
 _atom_site_type_symbol
 _atom_site_label
 _atom_site_symmetry_multiplicity
 _atom_site_fract_x
 _atom_site_fract_y
 _atom_site_fract_z
 _atom_site_occupancy
  Ba  Ba0  1  0.50000000  0.84135300  0.39518000  1
  Ba  Ba1  1  0.50000000  0.84129600  0.72854300  1
  Ba  Ba2  1  0.00000000  0.34128200  0.10525800  1
  Ba  Ba3  1  0.00000000  0.34178000  0.43909100  1
  Ba  Ba4  1  0.00000000  0.34173000  0.77246800  1
  Ba  Ba5  1  0.00000000  0.15846400  0.27137300  1
  Ba  Ba6  1  0.00000000  0.15874900  0.60500700  1
  Ba  Ba7  1  0.00000000  0.15867000  0.93890600  1
  Pb  Pb0  1  0.50000000  0.66739700  0.22933100  1
  Pb  Pb1  1  0.50000000  0.66671200  0.56302500  1
  Pb  Pb2  1  0.50000000  0.66631300  0.89685900  1
  Pb  Pb3  1  0.50000000  0.83280100  0.06323200  1
  S  S0  1  0.00000000  0.68654600  0.31075600  1
  S  S1  1  0.00000000  0.68666600  0.64416000  1
  S  S2  1  0.00000000  0.68687300  0.97898300  1
  S  S3  1  0.00000000  0.81318900  0.14559300  1
  S  S4  1  0.00000000  0.81074700  0.48049200  1
  S  S5  1  0.00000000  0.81070100  0.81391500  1
  S  S6  1  0.50000000  0.31252800  0.02061100  1
  S  S7  1  0.50000000  0.31212200  0.35379100  1
  S  S8  1  0.50000000  0.31204200  0.68717200  1
  S  S9  1  0.50000000  0.18747300  0.18720900  1
  S  S10  1  0.50000000  0.18896300  0.52105700  1
  S  S11  1  0.50000000  0.18889900  0.85445000  1
  O  O0  1  0.00000000  0.54658700  0.27020300  1
  O  O1  1  0.00000000  0.54671000  0.60360500  1
  O  O2  1  0.00000000  0.55089800  0.93728500  1
  O  O3  1  0.00000000  0.94976600  0.10364600  1
  O  O4  1  0.00000000  0.94598100  0.43794500  1
  O  O5  1  0.00000000  0.94596400  0.77135100  1
  O  O6  1  0.50000000  0.45584900  0.06125500  1
  O  O7  1  0.50000000  0.45076400  0.39505800  1
  O  O8  1  0.50000000  0.45072000  0.72840400  1
  O  O9  1  0.50000000  0.04371300  0.22811000  1
  O  O10  1  0.50000000  0.04488700  0.56173700  1
  O  O11  1  0.50000000  0.04463600  0.89510000  1
  O  O12  1  0.22051200  0.80823500  0.30469300  1
  O  O13  1  0.22047300  0.80834700  0.63811900  1
  O  O14  1  0.22161000  0.80879600  0.97382500  1
  O  O15  1  0.77837500  0.69126100  0.14048500  1
  O  O16  1  0.77984100  0.68872700  0.47590600  1
  O  O17  1  0.77979100  0.68873700  0.80931700  1
  O  O18  1  0.71830600  0.19096700  0.02688800  1
  O  O19  1  0.71873100  0.19008700  0.35938600  1
  O  O20  1  0.71870400  0.19000900  0.69276700  1
  O  O21  1  0.28171500  0.30887900  0.19333700  1
  O  O22  1  0.28153600  0.31003000  0.52699700  1
  O  O23  1  0.28148400  0.31000700  0.86044600  1
  O  O24  1  0.28169400  0.19096700  0.02688800  1
  O  O25  1  0.28126900  0.19008700  0.35938600  1
  O  O26  1  0.28129600  0.19000900  0.69276700  1
  O  O27  1  0.71828500  0.30887900  0.19333700  1
  O  O28  1  0.71846400  0.31003000  0.52699700  1
  O  O29  1  0.71851600  0.31000700  0.86044600  1
  O  O30  1  0.77948800  0.80823500  0.30469300  1
  O  O31  1  0.77952700  0.80834700  0.63811900  1
  O  O32  1  0.77839000  0.80879600  0.97382500  1
  O  O33  1  0.22162500  0.69126100  0.14048500  1
  O  O34  1  0.22015900  0.68872700  0.47590600  1
  O  O35  1  0.22020900  0.68873700  0.80931700  1
  O  O36  1  0.00000000  0.59950500  0.02917500  1
  O  O37  1  0.00000000  0.60447400  0.36172500  1
  O  O38  1  0.00000000  0.60445200  0.69510500  1
  O  O39  1  0.00000000  0.89975200  0.19556300  1
  O  O40  1  0.00000000  0.90232600  0.52974400  1
  O  O41  1  0.00000000  0.90238300  0.86319300  1
  O  O42  1  0.50000000  0.39976100  0.30339600  1
  O  O43  1  0.50000000  0.39960600  0.63675700  1
  O  O44  1  0.50000000  0.39751300  0.96986700  1
  O  O45  1  0.50000000  0.10285200  0.13664100  1
  O  O46  1  0.50000000  0.10459600  0.47048700  1
  O  O47  1  0.50000000  0.10484100  0.80385400  1
loop_
_geom_bond_atom_site_label_1
_geom_bond_atom_site_label_2
_geom_bond_distance
_geom_bond_site_symmetry_2
Ba0 O46 2.770824 1_565
Ba0 O7 2.817534 1_555
Ba0 O34 2.868718 1_555
Ba0 O16 2.868718 1_555
Ba0 O30 2.878803 1_555
Ba0 O12 2.878803 1_555
Ba0 O19 2.947200 1_565
Ba0 O25 2.947200 1_565
Ba0 O4 3.093944 1_555
Ba0 O4 3.093944 1_655
Ba0 O37 3.380118 1_555
Ba0 O37 3.380118 1_655
Ba1 O47 2.772403 1_565
Ba1 O8 2.817443 1_555
Ba1 O17 2.869342 1_555
Ba1 O35 2.869342 1_555
Ba1 O31 2.877405 1_555
Ba1 O13 2.877405 1_555
Ba1 O26 2.946856 1_565
Ba1 O20 2.946856 1_565
Ba1 O5 3.094440 1_655
Ba1 O5 3.094440 1_555
Ba1 O38 3.379869 1_655
Ba1 O38 3.379869 1_555
Ba2 O36 2.746742 1_555
Ba2 O3 2.824756 1_545
Ba2 O27 2.829486 1_455
Ba2 O21 2.829486 1_555
Ba2 O24 2.829777 1_555
Ba2 O18 2.829777 1_455
Ba2 O33 2.965171 1_555
Ba2 O15 2.965171 1_455
Ba2 O6 3.121360 1_555
Ba2 O6 3.121360 1_455
Ba2 O45 3.367011 1_555
Ba2 O45 3.367011 1_455
Ba3 O37 2.793628 1_555
Ba3 O28 2.824747 1_455
Ba3 O22 2.824747 1_555
Ba3 O4 2.855422 1_545
Ba3 O19 2.858771 1_455
Ba3 O25 2.858771 1_555
Ba3 O34 2.957124 1_555
Ba3 O16 2.957124 1_455
Ba3 O7 3.111320 1_555
Ba3 O7 3.111320 1_455
Ba3 O46 3.362526 1_455
Ba3 O46 3.362526 1_555
Ba4 O38 2.793706 1_555
Ba4 O23 2.826165 1_555
Ba4 O29 2.826165 1_455
Ba4 O5 2.855172 1_545
Ba4 O20 2.858851 1_455
Ba4 O26 2.858851 1_555
Ba4 O17 2.957910 1_455
Ba4 O35 2.957910 1_555
Ba4 O8 3.111642 1_455
Ba4 O8 3.111642 1_555
Ba4 O47 3.361381 1_455
Ba4 O47 3.361381 1_555
Ba5 O39 2.758262 1_545
Ba5 O0 2.799735 1_555
Ba5 O27 2.815078 1_455
Ba5 O21 2.815078 1_555
Ba5 O19 2.828224 1_455
Ba5 O25 2.828224 1_555
Ba5 O12 2.940160 1_545
Ba5 O30 2.940160 1_445
Ba5 O9 3.117611 1_555
Ba5 O9 3.117611 1_455
Ba5 O42 3.386454 1_455
Ba5 O42 3.386454 1_555
Ba6 O40 2.736288 1_545
Ba6 O1 2.798610 1_555
Ba6 O28 2.816406 1_455
Ba6 O22 2.816406 1_555
Ba6 O20 2.822488 1_455
Ba6 O26 2.822488 1_555
Ba6 O13 2.939495 1_545
Ba6 O31 2.939495 1_445
Ba6 O10 3.115971 1_455
Ba6 O10 3.115971 1_555
Ba6 O43 3.382971 1_455
Ba6 O43 3.382971 1_555
Ba7 O41 2.744476 1_545
Ba7 O23 2.825249 1_555
Ba7 O29 2.825249 1_455
Ba7 O24 2.829258 1_556
Ba7 O18 2.829258 1_456
Ba7 O2 2.829440 1_555
Ba7 O32 2.953472 1_445
Ba7 O14 2.953472 1_545
Ba7 O11 3.121640 1_455
Ba7 O11 3.121640 1_555
Ba7 O44 3.370243 1_555
Ba7 O44 3.370243 1_455
O0 S0 1.483187 1_555
O1 S1 1.483211 1_555
O2 S2 1.486464 1_555
O3 S3 1.486528 1_555
O4 S4 1.492233 1_555
O5 S5 1.492712 1_555
O6 S6 1.501651 1_555
O6 Pb3 2.719933 1_555
O7 S7 1.490762 1_555
O8 S8 1.490245 1_555
O9 S9 1.500879 1_555
O9 Pb0 2.714580 1_545
O10 S10 1.498197 1_555
O10 Pb1 2.728001 1_545
O11 S11 1.498552 1_555
O11 Pb2 2.729189 1_545
O12 S0 1.513810 1_555
O12 Pb0 2.737677 1_555
O13 S1 1.513541 1_555
O13 Pb1 2.734711 1_555
O14 S2 1.517409 1_555
O14 Pb2 2.770321 1_555
O14 Pb3 2.846354 1_556
O15 S3 1.518214 1_655
O15 Pb3 2.765405 1_555
O15 Pb0 2.832203 1_555
O16 S4 1.510790 1_655
O16 Pb1 2.797594 1_555
O17 S5 1.510805 1_655
O17 Pb2 2.806964 1_555
O18 S6 1.504006 1_555
O19 S7 1.506044 1_555
O20 S8 1.505914 1_555
O21 S9 1.503842 1_555
O22 S10 1.502666 1_555
O23 S11 1.503234 1_555
O24 S6 1.504006 1_555
O25 S7 1.506044 1_555
O26 S8 1.505914 1_555
O27 S9 1.503842 1_555
O28 S10 1.502666 1_555
O29 S11 1.503234 1_555
O30 S0 1.513810 1_655
O30 Pb0 2.737677 1_555
O31 S1 1.513541 1_655
O31 Pb1 2.734711 1_555
O32 S2 1.517409 1_655
O32 Pb2 2.770321 1_555
O32 Pb3 2.846354 1_556
O33 S3 1.518214 1_555
O33 Pb3 2.765405 1_555
O33 Pb0 2.832203 1_555
O34 S4 1.510790 1_555
O34 Pb1 2.797594 1_555
O35 S5 1.510805 1_555
O35 Pb2 2.806964 1_555
O36 S2 1.476176 1_554
O37 S0 1.479421 1_555
O38 S1 1.479240 1_555
O39 S3 1.474346 1_555
O40 S4 1.473066 1_555
O41 S5 1.474023 1_555
O42 S7 1.481896 1_555
O42 Pb0 2.754345 1_555
O43 S8 1.482150 1_555
O43 Pb1 2.745349 1_555
O44 S6 1.482389 1_556
O44 Pb2 2.740219 1_555
O45 S9 1.482916 1_555
O45 Pb3 2.768706 1_545
O46 S10 1.482203 1_555
O47 S11 1.481911 1_555
