# generated using pymatgen
data_CeZnGa3
_symmetry_space_group_name_H-M   'P 1'
_cell_length_a   4.28276000
_cell_length_b   4.28276000
_cell_length_c   6.17231494
_cell_angle_alpha   69.70015940
_cell_angle_beta   69.70015940
_cell_angle_gamma   90.00000000
_symmetry_Int_Tables_number   1
_chemical_formula_structural   CeZnGa3
_chemical_formula_sum   'Ce1 Zn1 Ga3'
_cell_volume   98.64954420
_cell_formula_units_Z   1
loop_
 _symmetry_equiv_pos_site_id
 _symmetry_equiv_pos_as_xyz
  1  'x, y, z'
loop_
 _atom_site_type_symbol
 _atom_site_label
 _atom_site_symmetry_multiplicity
 _atom_site_fract_x
 _atom_site_fract_y
 _atom_site_fract_z
 _atom_site_occupancy
  Ce  Ce0  1  0.00000000  0.00000000  0.00000000  1
  Zn  Zn0  1  0.75000000  0.25000000  0.50000000  1
  Ga  Ga0  1  0.38447800  0.38447800  0.23104400  1
  Ga  Ga1  1  0.61552200  0.61552200  0.76895600  1
  Ga  Ga2  1  0.25000000  0.75000000  0.50000000  1
loop_
_geom_bond_atom_site_label_1
_geom_bond_atom_site_label_2
_geom_bond_distance
_geom_bond_site_symmetry_2
Ce0 Ga0 3.273400 1_545
Ce0 Ga0 3.273400 1_445
Ce0 Ga1 3.273400 1_444
Ce0 Ga1 3.273400 1_454
Ce0 Ga1 3.273400 1_544
Ce0 Ga0 3.273400 1_555
Ce0 Ga0 3.273400 1_455
Ce0 Ga1 3.273400 1_554
Ce0 Zn0 3.437604 1_454
Ce0 Zn0 3.437604 1_445
Ce0 Ga2 3.437604 1_554
Ce0 Ga2 3.437604 1_544
Ce0 Zn0 3.437604 1_455
Ce0 Ga2 3.437604 1_545
Ce0 Zn0 3.437604 1_554
Ce0 Ga2 3.437604 1_445
Ga0 Ga1 2.485263 1_554
Ga0 Ga2 2.584177 1_545
Ga0 Ga2 2.584177 1_555
Ga0 Zn0 2.584177 1_455
Ga0 Zn0 2.584177 1_555
Ga1 Ga2 2.584177 1_555
Ga1 Ga2 2.584177 1_655
Ga1 Zn0 2.584177 1_565
Ga1 Zn0 2.584177 1_555
Ga2 Zn0 3.028369 1_565
Ga2 Zn0 3.028369 1_555
Ga2 Zn0 3.028369 1_455
Ga2 Zn0 3.028369 1_465
