# generated using pymatgen
data_V5Zn4(TeO6)3
_symmetry_space_group_name_H-M   'P 1'
_cell_length_a   8.76947056
_cell_length_b   8.76947056
_cell_length_c   10.76504911
_cell_angle_alpha   85.70053952
_cell_angle_beta   85.70053952
_cell_angle_gamma   62.86108370
_symmetry_Int_Tables_number   1
_chemical_formula_structural   V5Zn4(TeO6)3
_chemical_formula_sum   'V10 Zn8 Te6 O36'
_cell_volume   733.87610089
_cell_formula_units_Z   2
loop_
 _symmetry_equiv_pos_site_id
 _symmetry_equiv_pos_as_xyz
  1  'x, y, z'
loop_
 _atom_site_type_symbol
 _atom_site_label
 _atom_site_symmetry_multiplicity
 _atom_site_fract_x
 _atom_site_fract_y
 _atom_site_fract_z
 _atom_site_occupancy
  V  V0  1  0.30008500  0.99828100  0.73216800  1
  V  V1  1  0.99828100  0.30008500  0.23216800  1
  V  V2  1  0.14108100  0.53430000  0.05054200  1
  V  V3  1  0.53430000  0.14108100  0.55054200  1
  V  V4  1  0.46570000  0.85891900  0.44945800  1
  V  V5  1  0.82998600  0.17001400  0.75000000  1
  V  V6  1  0.17001400  0.82998600  0.25000000  1
  V  V7  1  0.85891900  0.46570000  0.94945800  1
  V  V8  1  0.69991500  0.00171900  0.26783200  1
  V  V9  1  0.00171900  0.69991500  0.76783200  1
  Zn  Zn0  1  0.35038000  0.05960100  0.07065600  1
  Zn  Zn1  1  0.38369800  0.68196900  0.96466100  1
  Zn  Zn2  1  0.94039900  0.64962000  0.42934400  1
  Zn  Zn3  1  0.31803100  0.61630200  0.53533900  1
  Zn  Zn4  1  0.68196900  0.38369800  0.46466100  1
  Zn  Zn5  1  0.05960100  0.35038000  0.57065600  1
  Zn  Zn6  1  0.64962000  0.94039900  0.92934400  1
  Zn  Zn7  1  0.61630200  0.31803100  0.03533900  1
  Te  Te0  1  0.66018100  0.65591900  0.69904200  1
  Te  Te1  1  0.00000000  0.00000000  0.00000000  1
  Te  Te2  1  0.00000000  0.00000000  0.50000000  1
  Te  Te3  1  0.65591900  0.66018100  0.19904200  1
  Te  Te4  1  0.33981900  0.34408100  0.30095800  1
  Te  Te5  1  0.34408100  0.33981900  0.80095800  1
  O  O0  1  0.92536300  0.60062100  0.61594900  1
  O  O1  1  0.24286500  0.93348800  0.56480000  1
  O  O2  1  0.39495100  0.77587600  0.31609400  1
  O  O3  1  0.93344600  0.92606200  0.17904700  1
  O  O4  1  0.06651200  0.75713500  0.93520000  1
  O  O5  1  0.07393800  0.06655400  0.32095300  1
  O  O6  1  0.62162800  0.54745300  0.03593900  1
  O  O7  1  0.89371100  0.24910500  0.57308200  1
  O  O8  1  0.10628900  0.75089500  0.42691800  1
  O  O9  1  0.22568600  0.28106000  0.15353800  1
  O  O10  1  0.43110000  0.76216400  0.79963200  1
  O  O11  1  0.77431400  0.71894000  0.84646200  1
  O  O12  1  0.75713500  0.06651200  0.43520000  1
  O  O13  1  0.54633100  0.90796000  0.61765400  1
  O  O14  1  0.23783600  0.56890000  0.70036800  1
  O  O15  1  0.37837200  0.45254700  0.96406100  1
  O  O16  1  0.56890000  0.23783600  0.20036800  1
  O  O17  1  0.09204000  0.45366900  0.88234600  1
  O  O18  1  0.22412400  0.60504900  0.18390600  1
  O  O19  1  0.76216400  0.43110000  0.29963200  1
  O  O20  1  0.60062100  0.92536300  0.11594900  1
  O  O21  1  0.45366900  0.09204000  0.38234600  1
  O  O22  1  0.75089500  0.10628900  0.92691800  1
  O  O23  1  0.54745300  0.62162800  0.53593900  1
  O  O24  1  0.60504900  0.22412400  0.68390600  1
  O  O25  1  0.92606200  0.93344600  0.67904700  1
  O  O26  1  0.28106000  0.22568600  0.65353800  1
  O  O27  1  0.45254700  0.37837200  0.46406100  1
  O  O28  1  0.93348800  0.24286500  0.06480000  1
  O  O29  1  0.90796000  0.54633100  0.11765400  1
  O  O30  1  0.07463700  0.39937900  0.38405100  1
  O  O31  1  0.06655400  0.07393800  0.82095300  1
  O  O32  1  0.24910500  0.89371100  0.07308200  1
  O  O33  1  0.71894000  0.77431400  0.34646200  1
  O  O34  1  0.77587600  0.39495100  0.81609400  1
  O  O35  1  0.39937900  0.07463700  0.88405100  1
loop_
_geom_bond_atom_site_label_1
_geom_bond_atom_site_label_2
_geom_bond_distance
_geom_bond_site_symmetry_2
O0 Zn2 2.029754 1_555
O0 Zn5 2.038841 1_655
O0 V9 2.188481 1_655
O0 Te0 2.273235 1_555
O1 V0 2.090460 1_555
O1 V4 2.092884 1_555
O1 Te2 2.095544 1_565
O2 V4 1.918056 1_555
O2 V6 1.982008 1_555
O2 Te3 2.344278 1_555
O3 V8 2.027259 1_565
O3 V6 2.035591 1_655
O3 Te1 2.113127 1_665
O4 V9 2.090460 1_555
O4 V2 2.092884 1_556
O4 Te1 2.095544 1_566
O5 V1 2.027259 1_455
O5 V6 2.035591 1_545
O5 Te2 2.113127 1_555
O6 Zn7 2.034140 1_555
O6 V7 2.039481 1_554
O6 Zn1 2.047617 1_554
O6 Te3 2.182015 1_555
O7 Zn5 2.018746 1_655
O7 Zn4 2.079007 1_555
O7 V5 2.101561 1_555
O7 Te2 2.133074 1_655
O8 Zn2 2.018746 1_455
O8 Zn3 2.079007 1_555
O8 V6 2.101561 1_555
O8 Te2 2.133074 1_565
O9 Zn0 1.984840 1_555
O9 V1 2.045918 1_455
O9 Te4 2.167955 1_555
O9 V2 2.227701 1_555
O10 Zn1 1.947342 1_555
O10 V0 1.965765 1_555
O10 Te0 2.047912 1_555
O11 Zn6 1.984840 1_555
O11 V9 2.045918 1_655
O11 Te0 2.167955 1_555
O11 V7 2.227701 1_555
O12 V8 2.090460 1_555
O12 V3 2.092884 1_555
O12 Te2 2.095544 1_655
O13 V3 2.075005 1_565
O13 Te0 2.115966 1_555
O13 V4 2.132953 1_555
O13 V0 2.235417 1_555
O14 Zn3 1.947342 1_555
O14 V9 1.965765 1_555
O14 Te5 2.047912 1_555
O15 Zn1 2.034140 1_555
O15 V2 2.039481 1_556
O15 Zn7 2.047617 1_556
O15 Te5 2.182015 1_555
O16 Zn7 1.947342 1_555
O16 V8 1.965765 1_555
O16 Te4 2.047912 1_555
O17 V7 2.075005 1_455
O17 Te5 2.115966 1_555
O17 V2 2.132953 1_556
O17 V9 2.235417 1_555
O18 V2 1.918056 1_555
O18 V6 1.982008 1_555
O18 Te4 2.344278 1_555
O19 Zn4 1.947342 1_555
O19 V1 1.965765 1_555
O19 Te3 2.047912 1_555
O20 Zn6 2.029754 1_554
O20 Zn0 2.038841 1_565
O20 V8 2.188481 1_565
O20 Te3 2.273235 1_555
O21 V4 2.075005 1_545
O21 Te4 2.115966 1_555
O21 V3 2.132953 1_555
O21 V8 2.235417 1_555
O22 Zn6 2.018746 1_545
O22 Zn7 2.079007 1_556
O22 V5 2.101561 1_555
O22 Te1 2.133074 1_656
O23 Zn3 2.034140 1_555
O23 V4 2.039481 1_555
O23 Zn4 2.047617 1_555
O23 Te0 2.182015 1_555
O24 V3 1.918056 1_555
O24 V5 1.982008 1_555
O24 Te5 2.344278 1_555
O25 V9 2.027259 1_655
O25 V5 2.035591 1_565
O25 Te2 2.113127 1_665
O26 Zn5 1.984840 1_555
O26 V0 2.045918 1_545
O26 Te5 2.167955 1_555
O26 V3 2.227701 1_555
O27 Zn4 2.034140 1_555
O27 V3 2.039481 1_555
O27 Zn3 2.047617 1_555
O27 Te4 2.182015 1_555
O28 V1 2.090460 1_555
O28 V7 2.092884 1_554
O28 Te1 2.095544 1_655
O29 V2 2.075005 1_655
O29 Te3 2.115966 1_555
O29 V7 2.132953 1_554
O29 V1 2.235417 1_555
O30 Zn5 2.029754 1_555
O30 Zn2 2.038841 1_455
O30 V1 2.188481 1_455
O30 Te4 2.273235 1_555
O31 V0 2.027259 1_545
O31 V5 2.035591 1_455
O31 Te1 2.113127 1_556
O32 Zn0 2.018746 1_565
O32 Zn1 2.079007 1_554
O32 V6 2.101561 1_555
O32 Te1 2.133074 1_565
O33 Zn2 1.984840 1_555
O33 V8 2.045918 1_565
O33 Te3 2.167955 1_555
O33 V4 2.227701 1_555
O34 V7 1.918056 1_555
O34 V5 1.982008 1_555
O34 Te0 2.344278 1_555
O35 Zn0 2.029754 1_556
O35 Zn6 2.038841 1_545
O35 V0 2.188481 1_545
O35 Te5 2.273235 1_555
