# generated using pymatgen
data_Rb2MoAuF6
_symmetry_space_group_name_H-M   'P 1'
_cell_length_a   6.44728800
_cell_length_b   6.44728783
_cell_length_c   6.44728840
_cell_angle_alpha   59.99999936
_cell_angle_beta   60.00000204
_cell_angle_gamma   59.99999914
_symmetry_Int_Tables_number   1
_chemical_formula_structural   Rb2MoAuF6
_chemical_formula_sum   'Rb2 Mo1 Au1 F6'
_cell_volume   189.50306173
_cell_formula_units_Z   1
loop_
 _symmetry_equiv_pos_site_id
 _symmetry_equiv_pos_as_xyz
  1  'x, y, z'
loop_
 _atom_site_type_symbol
 _atom_site_label
 _atom_site_symmetry_multiplicity
 _atom_site_fract_x
 _atom_site_fract_y
 _atom_site_fract_z
 _atom_site_occupancy
  Rb  Rb0  1  0.25000000  0.25000000  0.25000000  1
  Rb  Rb1  1  0.75000000  0.75000000  0.75000000  1
  Mo  Mo0  1  0.00000000  0.00000000  0.00000000  1
  Au  Au0  1  0.50000000  0.50000000  0.50000000  1
  F  F0  1  0.22795400  0.77204600  0.22795400  1
  F  F1  1  0.77204600  0.77204600  0.22795400  1
  F  F2  1  0.77204600  0.22795400  0.77204600  1
  F  F3  1  0.77204600  0.22795400  0.22795400  1
  F  F4  1  0.22795400  0.77204600  0.77204600  1
  F  F5  1  0.22795400  0.22795400  0.77204600  1
loop_
_geom_bond_atom_site_label_1
_geom_bond_atom_site_label_2
_geom_bond_distance
_geom_bond_site_symmetry_2
Au0 F5 2.480472 1_555
Au0 F2 2.480472 1_555
Au0 F0 2.480472 1_555
Au0 F1 2.480472 1_555
Au0 F4 2.480473 1_555
Au0 F3 2.480473 1_555
F0 Mo0 2.078449 1_565
F0 Rb0 3.229905 1_555
F0 Rb0 3.229905 1_565
F0 Rb1 3.229905 1_554
F0 Rb1 3.229905 1_455
F1 Mo0 2.078449 1_665
F1 Rb0 3.229905 1_655
F1 Rb0 3.229905 1_565
F1 Rb1 3.229905 1_554
F1 Rb1 3.229905 1_555
F2 Mo0 2.078449 1_656
F2 Rb1 3.229905 1_555
F2 Rb1 3.229905 1_545
F2 Rb0 3.229905 1_556
F2 Rb0 3.229905 1_655
F3 Mo0 2.078449 1_655
F3 Rb0 3.229905 1_555
F3 Rb0 3.229905 1_655
F3 Rb1 3.229905 1_554
F3 Rb1 3.229905 1_545
F4 Mo0 2.078449 1_566
F4 Rb1 3.229905 1_555
F4 Rb1 3.229905 1_455
F4 Rb0 3.229905 1_556
F4 Rb0 3.229905 1_565
F5 Mo0 2.078449 1_556
F5 Rb1 3.229905 1_455
F5 Rb1 3.229905 1_545
F5 Rb0 3.229905 1_556
F5 Rb0 3.229905 1_555
