# generated using pymatgen
data_NdGa7Fe5
_symmetry_space_group_name_H-M   'P 1'
_cell_length_a   6.68039859
_cell_length_b   6.68039859
_cell_length_c   6.68039859
_cell_angle_alpha   135.32758060
_cell_angle_beta   98.45423848
_cell_angle_gamma   98.15448166
_symmetry_Int_Tables_number   1
_chemical_formula_structural   NdGa7Fe5
_chemical_formula_sum   'Nd1 Ga7 Fe5'
_cell_volume   193.87436637
_cell_formula_units_Z   1
loop_
 _symmetry_equiv_pos_site_id
 _symmetry_equiv_pos_as_xyz
  1  'x, y, z'
loop_
 _atom_site_type_symbol
 _atom_site_label
 _atom_site_symmetry_multiplicity
 _atom_site_fract_x
 _atom_site_fract_y
 _atom_site_fract_z
 _atom_site_occupancy
  Nd  Nd0  1  0.00290100  0.00290100  0.00000000  1
  Ga  Ga0  1  0.66288500  0.66288500  0.00000000  1
  Ga  Ga1  1  0.33143000  0.33143000  0.00000000  1
  Ga  Ga2  1  0.33587500  0.99132600  0.34454900  1
  Ga  Ga3  1  0.64677700  0.99132600  0.65545100  1
  Ga  Ga4  1  0.79073900  0.50566800  0.28507000  1
  Ga  Ga5  1  0.22059800  0.50566800  0.71493000  1
  Ga  Ga6  1  0.77487300  0.27487300  0.50000000  1
  Fe  Fe0  1  0.99805900  0.49553300  0.99639800  1
  Fe  Fe1  1  0.49913500  0.00166100  0.00360200  1
  Fe  Fe2  1  0.49913500  0.49553300  0.49747400  1
  Fe  Fe3  1  0.99805900  0.00166100  0.50252600  1
  Fe  Fe4  1  0.23953500  0.73953500  0.50000000  1
loop_
_geom_bond_atom_site_label_1
_geom_bond_atom_site_label_2
_geom_bond_distance
_geom_bond_site_symmetry_2
Ga0 Ga6 2.721439 1_554
Ga0 Ga6 2.721439 1_565
Ga0 Ga5 2.842564 1_554
Ga0 Ga4 2.842566 1_555
Ga0 Ga1 2.900851 1_555
Ga0 Nd0 2.975776 1_665
Ga1 Nd0 2.875243 1_555
Ga1 Ga5 2.917585 1_554
Ga1 Ga4 2.917591 1_555
Ga2 Ga3 2.712754 1_555
Ga2 Ga5 2.782176 1_554
Ga2 Ga5 2.782176 1_565
Ga2 Ga6 2.828061 1_565
Ga2 Nd0 3.008045 1_565
Ga3 Ga4 2.782175 1_566
Ga3 Ga4 2.782180 1_555
Ga3 Ga6 2.828061 1_565
Ga3 Nd0 3.008045 1_666
Ga4 Ga6 2.756250 1_555
Ga4 Nd0 3.156446 1_655
Ga4 Nd0 3.156450 1_666
Ga5 Ga6 2.756249 1_455
Ga5 Nd0 3.156450 1_555
Ga5 Nd0 3.156450 1_566
Ga6 Nd0 3.229293 1_655
Ga6 Nd0 3.229293 1_666
Fe0 Ga4 2.503575 1_556
Fe0 Fe3 2.507708 1_555
Fe0 Ga6 2.522479 1_555
Fe0 Fe4 2.536979 1_656
Fe0 Fe3 2.569940 1_566
Fe0 Ga5 2.593216 1_655
Fe0 Ga2 2.617689 1_656
Fe0 Ga1 2.622312 1_656
Fe0 Ga0 2.636612 1_556
Fe0 Ga3 2.704576 1_545
Fe0 Nd0 3.312818 1_656
Fe0 Nd0 3.367858 1_666
Fe1 Ga5 2.503579 1_544
Fe1 Fe2 2.507708 1_555
Fe1 Ga6 2.522479 1_555
Fe1 Fe4 2.536979 1_544
Fe1 Fe2 2.569940 1_544
Fe1 Ga4 2.593219 1_555
Fe1 Ga3 2.617689 1_544
Fe1 Ga1 2.622312 1_555
Fe1 Ga0 2.636612 1_545
Fe1 Ga2 2.704576 1_545
Fe1 Nd0 3.312818 1_555
Fe1 Nd0 3.367858 1_655
Fe2 Ga5 2.503579 1_555
Fe2 Ga6 2.522479 1_555
Fe2 Fe4 2.536979 1_555
Fe2 Ga4 2.593222 1_555
Fe2 Ga3 2.617689 1_555
Fe2 Ga1 2.622312 1_555
Fe2 Ga0 2.636612 1_556
Fe2 Ga2 2.704576 1_545
Fe2 Nd0 3.312818 1_555
Fe2 Nd0 3.367858 1_666
Fe3 Ga4 2.503577 1_545
Fe3 Ga6 2.522479 1_555
Fe3 Fe4 2.536979 1_645
Fe3 Ga5 2.593216 1_655
Fe3 Ga2 2.617689 1_645
Fe3 Ga1 2.622312 1_656
Fe3 Ga0 2.636612 1_545
Fe3 Ga3 2.704576 1_545
Fe3 Nd0 3.312818 1_656
Fe3 Nd0 3.367858 1_655
Fe4 Ga2 2.587624 1_555
Fe4 Ga3 2.587624 1_555
Fe4 Ga1 2.663165 1_555
Fe4 Ga1 2.663165 1_566
Fe4 Ga4 2.776006 1_455
Fe4 Ga5 2.776013 1_555
Fe4 Nd0 3.276374 1_566
Fe4 Nd0 3.276374 1_555
