# generated using pymatgen
data_Mg2Ru
_symmetry_space_group_name_H-M   'P 1'
_cell_length_a   5.37720022
_cell_length_b   5.37720022
_cell_length_c   4.36757640
_cell_angle_alpha   90.00000000
_cell_angle_beta   90.00000000
_cell_angle_gamma   102.47050204
_symmetry_Int_Tables_number   1
_chemical_formula_structural   Mg2Ru
_chemical_formula_sum   'Mg4 Ru2'
_cell_volume   123.30592572
_cell_formula_units_Z   2
loop_
 _symmetry_equiv_pos_site_id
 _symmetry_equiv_pos_as_xyz
  1  'x, y, z'
loop_
 _atom_site_type_symbol
 _atom_site_label
 _atom_site_symmetry_multiplicity
 _atom_site_fract_x
 _atom_site_fract_y
 _atom_site_fract_z
 _atom_site_occupancy
  Mg  Mg0  1  0.41817536  0.12531833  0.75000000  1
  Mg  Mg1  1  0.12531833  0.41817536  0.25000000  1
  Mg  Mg2  1  0.58182464  0.87468167  0.25000000  1
  Mg  Mg3  1  0.87468167  0.58182464  0.75000000  1
  Ru  Ru0  1  0.92733107  0.07266893  0.75000000  1
  Ru  Ru1  1  0.07266893  0.92733107  0.25000000  1
loop_
_geom_bond_atom_site_label_1
_geom_bond_atom_site_label_2
_geom_bond_distance
_geom_bond_site_symmetry_2
Mg0 Ru0 2.593011 1_455
Mg0 Ru0 2.812582 1_555
Mg0 Ru1 2.915436 1_546
Mg0 Ru1 2.915436 1_545
Mg1 Ru1 2.593011 1_545
Mg1 Ru1 2.812582 1_555
Mg1 Ru0 2.915436 1_454
Mg1 Ru0 2.915436 1_455
Mg2 Ru1 2.593011 1_655
Mg2 Ru1 2.812582 1_555
Mg2 Ru0 2.915436 1_564
Mg2 Ru0 2.915436 1_565
Mg3 Ru0 2.593011 1_565
Mg3 Ru0 2.812582 1_555
Mg3 Ru1 2.915436 1_656
Mg3 Ru1 2.915436 1_655
Ru0 Ru1 2.500844 1_646
Ru0 Ru1 2.500844 1_645
