# generated using pymatgen
data_BaSmMn4O12
_symmetry_space_group_name_H-M   'P 1'
_cell_length_a   5.42369883
_cell_length_b   5.42369883
_cell_length_c   7.64445518
_cell_angle_alpha   90.00000000
_cell_angle_beta   90.00000000
_cell_angle_gamma   90.00000000
_symmetry_Int_Tables_number   1
_chemical_formula_structural   BaSmMn4O12
_chemical_formula_sum   'Ba1 Sm1 Mn4 O12'
_cell_volume   224.87318459
_cell_formula_units_Z   1
loop_
 _symmetry_equiv_pos_site_id
 _symmetry_equiv_pos_as_xyz
  1  'x, y, z'
loop_
 _atom_site_type_symbol
 _atom_site_label
 _atom_site_symmetry_multiplicity
 _atom_site_fract_x
 _atom_site_fract_y
 _atom_site_fract_z
 _atom_site_occupancy
  Ba  Ba0  1  0.50000000  0.50000000  0.00000000  1
  Sm  Sm0  1  0.00000000  0.00000000  0.50000000  1
  Mn  Mn0  1  0.00000000  0.50000000  0.75113736  1
  Mn  Mn1  1  -0.00000000  0.50000000  0.24886264  1
  Mn  Mn2  1  0.50000000  0.00000000  0.75113736  1
  Mn  Mn3  1  0.50000000  0.00000000  0.24886264  1
  O  O0  1  0.23871122  0.23871122  0.72948079  1
  O  O1  1  0.23871122  0.23871122  0.27051921  1
  O  O2  1  0.76128878  0.76128878  0.72948079  1
  O  O3  1  0.76128878  0.76128878  0.27051921  1
  O  O4  1  0.76128878  0.23871122  0.72948079  1
  O  O5  1  0.76128878  0.23871122  0.27051921  1
  O  O6  1  0.23871122  0.76128878  0.72948079  1
  O  O7  1  0.23871122  0.76128878  0.27051921  1
  O  O8  1  0.00000000  0.50000000  0.50000000  1
  O  O9  1  -0.00000000  0.50000000  -0.00000000  1
  O  O10  1  0.50000000  0.00000000  0.50000000  1
  O  O11  1  0.50000000  0.00000000  -0.00000000  1
loop_
_geom_bond_atom_site_label_1
_geom_bond_atom_site_label_2
_geom_bond_distance
_geom_bond_site_symmetry_2
Ba0 O9 2.711849 1_555
Ba0 O9 2.711849 1_655
Ba0 O11 2.711849 1_555
Ba0 O11 2.711849 1_565
Ba0 O4 2.879782 1_554
Ba0 O1 2.879782 1_555
Ba0 O2 2.879782 1_554
Ba0 O7 2.879782 1_555
Ba0 O5 2.879782 1_555
Ba0 O6 2.879782 1_554
Ba0 O3 2.879782 1_555
Ba0 O0 2.879782 1_554
Mn0 O9 1.902419 1_556
Mn0 O8 1.919808 1_555
Mn0 O0 1.926647 1_555
Mn0 O2 1.926647 1_455
Mn0 O6 1.926647 1_555
Mn0 O4 1.926647 1_455
Mn1 O9 1.902419 1_555
Mn1 O8 1.919808 1_555
Mn1 O1 1.926647 1_555
Mn1 O5 1.926647 1_455
Mn1 O7 1.926647 1_555
Mn1 O3 1.926647 1_455
Mn2 O11 1.902419 1_556
Mn2 O10 1.919808 1_555
Mn2 O2 1.926647 1_545
Mn2 O4 1.926647 1_555
Mn2 O6 1.926647 1_545
Mn2 O0 1.926647 1_555
Mn3 O11 1.902419 1_555
Mn3 O10 1.919808 1_555
Mn3 O1 1.926647 1_555
Mn3 O5 1.926647 1_555
Mn3 O3 1.926647 1_545
Mn3 O7 1.926647 1_545
O0 Sm0 2.535724 1_555
O1 Sm0 2.535724 1_555
O2 Sm0 2.535724 1_665
O3 Sm0 2.535724 1_665
O4 Sm0 2.535724 1_655
O5 Sm0 2.535724 1_655
O6 Sm0 2.535724 1_565
O7 Sm0 2.535724 1_565
O8 Sm0 2.711849 1_565
O8 Sm0 2.711849 1_555
O10 Sm0 2.711849 1_555
O10 Sm0 2.711849 1_655
