# generated using pymatgen
data_SmBi2Au
_symmetry_space_group_name_H-M   'P 1'
_cell_length_a   4.67607500
_cell_length_b   4.67607500
_cell_length_c   9.99407800
_cell_angle_alpha   90.00000000
_cell_angle_beta   90.00000000
_cell_angle_gamma   90.00000000
_symmetry_Int_Tables_number   1
_chemical_formula_structural   SmBi2Au
_chemical_formula_sum   'Sm2 Bi4 Au2'
_cell_volume   218.52728551
_cell_formula_units_Z   2
loop_
 _symmetry_equiv_pos_site_id
 _symmetry_equiv_pos_as_xyz
  1  'x, y, z'
loop_
 _atom_site_type_symbol
 _atom_site_label
 _atom_site_symmetry_multiplicity
 _atom_site_fract_x
 _atom_site_fract_y
 _atom_site_fract_z
 _atom_site_occupancy
  Sm  Sm0  1  0.50000000  0.00000000  0.23292600  1
  Sm  Sm1  1  0.00000000  0.50000000  0.76707400  1
  Bi  Bi0  1  0.00000000  0.50000000  0.19345700  1
  Bi  Bi1  1  0.50000000  0.00000000  0.80654300  1
  Bi  Bi2  1  0.00000000  0.00000000  0.50000000  1
  Bi  Bi3  1  0.50000000  0.50000000  0.50000000  1
  Au  Au0  1  0.00000000  0.00000000  0.00000000  1
  Au  Au1  1  0.50000000  0.50000000  0.00000000  1
loop_
_geom_bond_atom_site_label_1
_geom_bond_atom_site_label_2
_geom_bond_distance
_geom_bond_site_symmetry_2
Bi0 Sm0 3.329930 1_465
Bi0 Sm0 3.329930 1_555
Bi0 Sm0 3.329930 1_565
Bi0 Sm0 3.329930 1_455
Bi1 Sm1 3.329930 1_555
Bi1 Sm1 3.329930 1_545
Bi1 Sm1 3.329930 1_645
Bi1 Sm1 3.329930 1_655
Bi2 Bi3 3.306484 1_455
Bi2 Bi3 3.306484 1_555
Bi2 Bi3 3.306484 1_545
Bi2 Bi3 3.306484 1_445
Bi2 Sm1 3.548355 1_555
Bi2 Sm1 3.548355 1_545
Bi2 Sm0 3.548355 1_455
Bi2 Sm0 3.548355 1_555
Bi3 Sm1 3.548355 1_555
Bi3 Sm1 3.548355 1_655
Bi3 Sm0 3.548355 1_555
Bi3 Sm0 3.548355 1_565
Au0 Bi1 3.033900 1_554
Au0 Bi0 3.033900 1_555
Au0 Bi0 3.033900 1_545
Au0 Bi1 3.033900 1_454
Au0 Sm0 3.299310 1_455
Au0 Sm0 3.299310 1_555
Au0 Sm1 3.299310 1_544
Au0 Sm1 3.299310 1_554
Au0 Au1 3.306484 1_455
Au0 Au1 3.306484 1_555
Au0 Au1 3.306484 1_545
Au0 Au1 3.306484 1_445
Au1 Bi1 3.033900 1_564
Au1 Bi1 3.033900 1_554
Au1 Bi0 3.033900 1_555
Au1 Bi0 3.033900 1_655
Au1 Sm0 3.299310 1_565
Au1 Sm0 3.299310 1_555
Au1 Sm1 3.299310 1_554
Au1 Sm1 3.299310 1_654
