# generated using pymatgen
data_MgTa2Zn2O8
_symmetry_space_group_name_H-M   'P 1'
_cell_length_a   10.09819018
_cell_length_b   10.09819018
_cell_length_c   5.25902475
_cell_angle_alpha   89.73900051
_cell_angle_beta   89.73900051
_cell_angle_gamma   34.26865214
_symmetry_Int_Tables_number   1
_chemical_formula_structural   MgTa2Zn2O8
_chemical_formula_sum   'Mg2 Ta4 Zn4 O16'
_cell_volume   301.96237698
_cell_formula_units_Z   2
loop_
 _symmetry_equiv_pos_site_id
 _symmetry_equiv_pos_as_xyz
  1  'x, y, z'
loop_
 _atom_site_type_symbol
 _atom_site_label
 _atom_site_symmetry_multiplicity
 _atom_site_fract_x
 _atom_site_fract_y
 _atom_site_fract_z
 _atom_site_occupancy
  Mg  Mg0  1  0.64595600  0.35404400  0.75000000  1
  Mg  Mg1  1  0.35404400  0.64595600  0.25000000  1
  Ta  Ta0  1  0.27533400  0.95434100  0.76217300  1
  Ta  Ta1  1  0.72466600  0.04565900  0.23782700  1
  Ta  Ta2  1  0.04565900  0.72466600  0.73782700  1
  Ta  Ta3  1  0.95434100  0.27533400  0.26217300  1
  Zn  Zn0  1  0.43373000  0.12606200  0.73902700  1
  Zn  Zn1  1  0.56627000  0.87393800  0.26097300  1
  Zn  Zn2  1  0.87393800  0.56627000  0.76097300  1
  Zn  Zn3  1  0.12606200  0.43373000  0.23902700  1
  O  O0  1  0.71818100  0.92197700  0.94351000  1
  O  O1  1  0.28181900  0.07802300  0.05649000  1
  O  O2  1  0.07802300  0.28181900  0.55649000  1
  O  O3  1  0.92197700  0.71818100  0.44351000  1
  O  O4  1  0.81578100  0.04433400  0.57437500  1
  O  O5  1  0.18421900  0.95566600  0.42562500  1
  O  O6  1  0.95566600  0.18421900  0.92562500  1
  O  O7  1  0.04433400  0.81578100  0.07437500  1
  O  O8  1  0.54659400  0.83838100  0.63129200  1
  O  O9  1  0.45340600  0.16161900  0.36870800  1
  O  O10  1  0.16161900  0.45340600  0.86870800  1
  O  O11  1  0.83838100  0.54659400  0.13129200  1
  O  O12  1  0.31653000  0.56650800  0.59003200  1
  O  O13  1  0.68347000  0.43349200  0.40996800  1
  O  O14  1  0.43349200  0.68347000  0.90996800  1
  O  O15  1  0.56650800  0.31653000  0.09003200  1
loop_
_geom_bond_atom_site_label_1
_geom_bond_atom_site_label_2
_geom_bond_distance
_geom_bond_site_symmetry_2
Mg0 O15 2.113773 1_556
Mg0 O13 2.113773 1_555
Mg0 O14 2.142373 1_555
Mg0 O12 2.142373 1_555
Mg0 O6 2.173124 1_555
Mg0 O4 2.173124 1_555
Mg1 O12 2.113773 1_555
Mg1 O14 2.113773 1_554
Mg1 O13 2.142373 1_555
Mg1 O15 2.142373 1_555
Mg1 O7 2.173124 1_555
Mg1 O5 2.173124 1_555
O0 Zn0 1.969335 1_565
O0 Ta1 2.028218 1_566
O0 Ta2 2.274314 1_655
O1 Zn1 1.969335 1_545
O1 Ta0 2.028218 1_544
O1 Ta3 2.274314 1_455
O2 Zn2 1.969335 1_455
O2 Ta3 2.028218 1_455
O2 Ta0 2.274314 1_545
O3 Zn3 1.969335 1_655
O3 Ta2 2.028218 1_655
O3 Ta1 2.274314 1_565
O4 Ta1 1.993396 1_555
O4 Ta2 2.038525 1_645
O5 Ta0 1.993396 1_555
O5 Ta3 2.038525 1_465
O6 Ta3 1.993396 1_556
O6 Ta0 2.038525 1_645
O7 Ta2 1.993396 1_554
O7 Ta1 2.038525 1_465
O8 Zn2 1.983238 1_555
O8 Ta0 2.009223 1_555
O8 Zn1 2.017237 1_555
O8 Zn0 2.143842 1_565
O9 Zn3 1.983238 1_555
O9 Ta1 2.009223 1_555
O9 Zn0 2.017237 1_555
O9 Zn1 2.143842 1_545
O10 Zn0 1.983238 1_555
O10 Ta2 2.009223 1_555
O10 Zn3 2.017237 1_556
O10 Zn2 2.143842 1_455
O11 Zn1 1.983238 1_555
O11 Ta3 2.009223 1_555
O11 Zn2 2.017237 1_554
O11 Zn3 2.143842 1_655
O12 Ta2 1.846152 1_555
O13 Ta3 1.846152 1_555
O14 Ta0 1.846152 1_555
O15 Ta1 1.846152 1_555
