# generated using pymatgen
data_YbGdZn2
_symmetry_space_group_name_H-M   'P 1'
_cell_length_a   4.90384754
_cell_length_b   4.90384754
_cell_length_c   4.93055765
_cell_angle_alpha   61.10916364
_cell_angle_beta   61.10916364
_cell_angle_gamma   90.81337354
_symmetry_Int_Tables_number   1
_chemical_formula_structural   YbGdZn2
_chemical_formula_sum   'Yb1 Gd1 Zn2'
_cell_volume   86.01895035
_cell_formula_units_Z   1
loop_
 _symmetry_equiv_pos_site_id
 _symmetry_equiv_pos_as_xyz
  1  'x, y, z'
loop_
 _atom_site_type_symbol
 _atom_site_label
 _atom_site_symmetry_multiplicity
 _atom_site_fract_x
 _atom_site_fract_y
 _atom_site_fract_z
 _atom_site_occupancy
  Yb  Yb0  1  0.50000000  0.50000000  0.50000000  1
  Gd  Gd0  1  0.00000000  0.00000000  0.50000000  1
  Zn  Zn0  1  0.74995100  0.25004900  0.00000000  1
  Zn  Zn1  1  0.25004900  0.74995100  0.00000000  1
loop_
_geom_bond_atom_site_label_1
_geom_bond_atom_site_label_2
_geom_bond_distance
_geom_bond_site_symmetry_2
Yb0 Zn0 3.020768 1_555
Yb0 Zn0 3.020768 1_556
Yb0 Zn1 3.020768 1_555
Yb0 Zn1 3.020768 1_556
Yb0 Zn1 3.049402 1_655
Yb0 Zn0 3.049402 1_565
Yb0 Zn1 3.049402 1_546
Yb0 Zn0 3.049402 1_456
Gd0 Zn1 3.021164 1_545
Gd0 Zn1 3.021164 1_546
Gd0 Zn0 3.021164 1_455
Gd0 Zn0 3.021164 1_456
Gd0 Zn1 3.049010 1_446
Gd0 Zn0 3.049010 1_555
Gd0 Zn0 3.049010 1_446
Gd0 Zn1 3.049010 1_555
