# generated using pymatgen
data_Ba2GaBiS5
_symmetry_space_group_name_H-M   'P 1'
_cell_length_a   9.00877800
_cell_length_b   9.08075300
_cell_length_c   12.37686300
_cell_angle_alpha   90.00000000
_cell_angle_beta   90.00000000
_cell_angle_gamma   90.00000000
_symmetry_Int_Tables_number   1
_chemical_formula_structural   Ba2GaBiS5
_chemical_formula_sum   'Ba8 Ga4 Bi4 S20'
_cell_volume   1012.50769263
_cell_formula_units_Z   4
loop_
 _symmetry_equiv_pos_site_id
 _symmetry_equiv_pos_as_xyz
  1  'x, y, z'
loop_
 _atom_site_type_symbol
 _atom_site_label
 _atom_site_symmetry_multiplicity
 _atom_site_fract_x
 _atom_site_fract_y
 _atom_site_fract_z
 _atom_site_occupancy
  Ba  Ba0  1  0.00845800  0.11643900  0.82275900  1
  Ba  Ba1  1  0.49154200  0.38356100  0.32275900  1
  Ba  Ba2  1  0.50845800  0.88356100  0.17724100  1
  Ba  Ba3  1  0.99154200  0.61643900  0.67724100  1
  Ba  Ba4  1  0.99154200  0.88356100  0.17724100  1
  Ba  Ba5  1  0.50845800  0.61643900  0.67724100  1
  Ba  Ba6  1  0.49154200  0.11643900  0.82275900  1
  Ba  Ba7  1  0.00845800  0.38356100  0.32275900  1
  Ga  Ga0  1  0.25000000  0.32786800  0.59527600  1
  Ga  Ga1  1  0.25000000  0.17213200  0.09527600  1
  Ga  Ga2  1  0.75000000  0.67213200  0.40472400  1
  Ga  Ga3  1  0.75000000  0.82786800  0.90472400  1
  Bi  Bi0  1  0.25000000  0.96350800  0.51830900  1
  Bi  Bi1  1  0.25000000  0.53649200  0.01830900  1
  Bi  Bi2  1  0.75000000  0.03649200  0.48169100  1
  Bi  Bi3  1  0.75000000  0.46350800  0.98169100  1
  S  S0  1  0.05002600  0.17514400  0.55548600  1
  S  S1  1  0.44997400  0.32485600  0.05548600  1
  S  S2  1  0.55002600  0.82485600  0.44451400  1
  S  S3  1  0.94997400  0.67514400  0.94451400  1
  S  S4  1  0.94997400  0.82485600  0.44451400  1
  S  S5  1  0.55002600  0.67514400  0.94451400  1
  S  S6  1  0.44997400  0.17514400  0.55548600  1
  S  S7  1  0.05002600  0.32485600  0.05548600  1
  S  S8  1  0.25000000  0.87223000  0.71489400  1
  S  S9  1  0.25000000  0.62777000  0.21489400  1
  S  S10  1  0.75000000  0.12777000  0.28510600  1
  S  S11  1  0.75000000  0.37223000  0.78510600  1
  S  S12  1  0.25000000  0.37982400  0.77482600  1
  S  S13  1  0.25000000  0.12017600  0.27482600  1
  S  S14  1  0.75000000  0.62017600  0.22517400  1
  S  S15  1  0.75000000  0.87982400  0.72517400  1
  S  S16  1  0.25000000  0.96801900  0.99401200  1
  S  S17  1  0.25000000  0.53198100  0.49401200  1
  S  S18  1  0.75000000  0.03198100  0.00598800  1
  S  S19  1  0.75000000  0.46801900  0.50598800  1
loop_
_geom_bond_atom_site_label_1
_geom_bond_atom_site_label_2
_geom_bond_distance
_geom_bond_site_symmetry_2
Ba0 S12 3.287449 1_555
Ba0 S11 3.321726 1_455
Ba0 S16 3.323257 1_545
Ba0 S18 3.339539 1_456
Ba0 S0 3.371541 1_555
Ba0 S8 3.381572 1_545
Ba0 S15 3.390699 1_445
Ba0 S7 3.466840 1_556
Ba1 S13 3.287449 1_555
Ba1 S10 3.321726 1_555
Ba1 S17 3.323257 1_555
Ba1 S19 3.339539 1_555
Ba1 S1 3.371541 1_555
Ba1 S9 3.381572 1_555
Ba1 S14 3.390699 1_555
Ba1 S6 3.466840 1_555
Ba2 S14 3.287449 1_555
Ba2 S9 3.321726 1_555
Ba2 S18 3.323257 1_565
Ba2 S16 3.339539 1_554
Ba2 S2 3.371541 1_555
Ba2 S10 3.381572 1_565
Ba2 S13 3.390699 1_565
Ba2 S5 3.466840 1_554
Ba3 S15 3.287449 1_555
Ba3 S8 3.321726 1_655
Ba3 S19 3.323257 1_555
Ba3 S17 3.339539 1_655
Ba3 S3 3.371541 1_555
Ba3 S11 3.381572 1_555
Ba3 S12 3.390699 1_655
Ba3 S4 3.466840 1_555
Ba4 S14 3.287449 1_555
Ba4 S9 3.321726 1_655
Ba4 S18 3.323257 1_565
Ba4 S16 3.339539 1_654
Ba4 S4 3.371541 1_555
Ba4 S10 3.381572 1_565
Ba4 S13 3.390699 1_665
Ba4 S3 3.466840 1_554
Ba5 S15 3.287449 1_555
Ba5 S8 3.321726 1_555
Ba5 S19 3.323257 1_555
Ba5 S17 3.339539 1_555
Ba5 S5 3.371541 1_555
Ba5 S11 3.381572 1_555
Ba5 S12 3.390699 1_555
Ba5 S2 3.466840 1_555
Ba6 S12 3.287449 1_555
Ba6 S11 3.321726 1_555
Ba6 S16 3.323257 1_545
Ba6 S18 3.339539 1_556
Ba6 S6 3.371541 1_555
Ba6 S8 3.381572 1_545
Ba6 S15 3.390699 1_545
Ba6 S1 3.466840 1_556
Ba7 S13 3.287449 1_555
Ba7 S10 3.321726 1_455
Ba7 S17 3.323257 1_555
Ba7 S19 3.339539 1_455
Ba7 S7 3.371541 1_555
Ba7 S9 3.381572 1_555
Ba7 S14 3.390699 1_455
Ba7 S0 3.466840 1_555
Ga0 S17 2.237476 1_555
Ga0 S12 2.271797 1_555
Ga0 S6 2.326233 1_555
Ga0 S0 2.326233 1_555
Ga1 S16 2.237476 1_544
Ga1 S13 2.271797 1_555
Ga1 S1 2.326233 1_555
Ga1 S7 2.326233 1_555
Ga2 S19 2.237476 1_555
Ga2 S14 2.271797 1_555
Ga2 S2 2.326233 1_555
Ga2 S4 2.326233 1_555
Ga3 S18 2.237476 1_566
Ga3 S15 2.271797 1_555
Ga3 S5 2.326233 1_555
Ga3 S3 2.326233 1_555
Bi0 S8 2.570415 1_555
Bi0 S0 2.674056 1_565
Bi0 S6 2.674056 1_565
Bi0 S2 3.118485 1_555
Bi0 S4 3.118485 1_455
Bi1 S9 2.570415 1_555
Bi1 S7 2.674056 1_555
Bi1 S1 2.674056 1_555
Bi1 S5 3.118485 1_554
Bi1 S3 3.118485 1_454
Bi2 S10 2.570415 1_555
Bi2 S4 2.674056 1_545
Bi2 S2 2.674056 1_545
Bi2 S0 3.118485 1_655
Bi2 S6 3.118485 1_555
Bi3 S11 2.570415 1_555
Bi3 S3 2.674056 1_555
Bi3 S5 2.674056 1_555
Bi3 S7 3.118485 1_656
Bi3 S1 3.118485 1_556
