# generated using pymatgen
data_Al2ZnS4
_symmetry_space_group_name_H-M   'P 1'
_cell_length_a   3.71275239
_cell_length_b   3.71275239
_cell_length_c   25.66861700
_cell_angle_alpha   90.00000000
_cell_angle_beta   90.00000000
_cell_angle_gamma   120.00000695
_symmetry_Int_Tables_number   1
_chemical_formula_structural   Al2ZnS4
_chemical_formula_sum   'Al4 Zn2 S8'
_cell_volume   306.42559908
_cell_formula_units_Z   2
loop_
 _symmetry_equiv_pos_site_id
 _symmetry_equiv_pos_as_xyz
  1  'x, y, z'
loop_
 _atom_site_type_symbol
 _atom_site_label
 _atom_site_symmetry_multiplicity
 _atom_site_fract_x
 _atom_site_fract_y
 _atom_site_fract_z
 _atom_site_occupancy
  Al  Al0  1  0.00000000  0.00000000  0.75000200  1
  Al  Al1  1  0.00000000  0.00000000  0.24999800  1
  Al  Al2  1  0.66666700  0.33333300  0.89359200  1
  Al  Al3  1  0.33333300  0.66666700  0.10640800  1
  Zn  Zn0  1  0.66666700  0.33333300  0.41334300  1
  Zn  Zn1  1  0.33333300  0.66666700  0.58665700  1
  S  S0  1  0.66666700  0.33333300  0.29182700  1
  S  S1  1  0.33333300  0.66666700  0.70817300  1
  S  S2  1  0.66666700  0.33333300  0.56933100  1
  S  S3  1  0.33333300  0.66666700  0.43066900  1
  S  S4  1  0.66666700  0.33333300  0.80787800  1
  S  S5  1  0.33333300  0.66666700  0.19212200  1
  S  S6  1  0.66666700  0.33333300  0.06962700  1
  S  S7  1  0.33333300  0.66666700  0.93037300  1
loop_
_geom_bond_atom_site_label_1
_geom_bond_atom_site_label_2
_geom_bond_distance
_geom_bond_site_symmetry_2
Al0 S1 2.397426 1_545
Al0 S1 2.397428 1_555
Al0 S1 2.397428 1_445
Al0 S4 2.608032 1_455
Al0 S4 2.608035 1_555
Al0 S4 2.608035 1_445
Al1 S0 2.397426 1_455
Al1 S0 2.397428 1_555
Al1 S0 2.397428 1_445
Al1 S5 2.608032 1_545
Al1 S5 2.608035 1_445
Al1 S5 2.608035 1_555
Al2 S4 2.200160 1_555
Al2 S7 2.342262 1_655
Al2 S7 2.342262 1_545
Al2 S7 2.342268 1_555
Al3 S5 2.200160 1_555
Al3 S6 2.342262 1_455
Al3 S6 2.342262 1_565
Al3 S6 2.342268 1_555
S2 Zn1 2.189206 1_545
S2 Zn1 2.189206 1_655
S2 Zn1 2.189212 1_555
S3 Zn0 2.189206 1_455
S3 Zn0 2.189206 1_565
S3 Zn0 2.189212 1_555
