# generated using pymatgen
data_BaSrEuWO6
_symmetry_space_group_name_H-M   'P 1'
_cell_length_a   6.04005030
_cell_length_b   6.10281028
_cell_length_c   8.58001053
_cell_angle_alpha   89.57044050
_cell_angle_beta   90.43380568
_cell_angle_gamma   89.82971224
_symmetry_Int_Tables_number   1
_chemical_formula_structural   BaSrEuWO6
_chemical_formula_sum   'Ba2 Sr2 Eu2 W2 O12'
_cell_volume   316.25077555
_cell_formula_units_Z   2
loop_
 _symmetry_equiv_pos_site_id
 _symmetry_equiv_pos_as_xyz
  1  'x, y, z'
loop_
 _atom_site_type_symbol
 _atom_site_label
 _atom_site_symmetry_multiplicity
 _atom_site_fract_x
 _atom_site_fract_y
 _atom_site_fract_z
 _atom_site_occupancy
  Ba  Ba0  1  0.99642097  0.02908495  0.24976672  1
  Ba  Ba1  1  0.00357903  0.97091505  0.75023328  1
  Sr  Sr0  1  0.50839267  0.54114474  0.24939882  1
  Sr  Sr1  1  0.49160733  0.45885526  0.75060118  1
  Eu  Eu0  1  -0.00000000  0.50000000  -0.00000000  1
  Eu  Eu1  1  0.50000000  0.00000000  0.50000000  1
  W  W0  1  0.50000000  0.00000000  -0.00000000  1
  W  W1  1  -0.00000000  0.50000000  0.50000000  1
  O  O0  1  0.23688830  0.18965428  0.97203069  1
  O  O1  1  0.25927584  0.68996614  0.54481065  1
  O  O2  1  0.76311170  0.81034572  0.02796931  1
  O  O3  1  0.74072416  0.31003386  0.45518935  1
  O  O4  1  0.31735834  0.73709196  0.95461358  1
  O  O5  1  0.18890796  0.24019217  0.54248483  1
  O  O6  1  0.68264166  0.26290804  0.04538642  1
  O  O7  1  0.81109204  0.75980783  0.45751517  1
  O  O8  1  0.43527732  0.96247587  0.22471458  1
  O  O9  1  0.08527293  0.49209175  0.27678757  1
  O  O10  1  0.56472268  0.03752413  0.77528542  1
  O  O11  1  0.91472707  0.50790825  0.72321243  1
loop_
_geom_bond_atom_site_label_1
_geom_bond_atom_site_label_2
_geom_bond_distance
_geom_bond_site_symmetry_2
Ba0 O7 2.669853 1_545
Ba0 O8 2.690960 1_645
Ba0 O2 2.719932 1_545
Ba0 O9 2.888421 1_655
Ba0 O3 2.915873 1_555
Ba0 O6 2.932465 1_555
Ba0 O0 2.962138 1_654
Ba0 O5 3.054916 1_655
Ba1 O5 2.669853 1_565
Ba1 O10 2.690960 1_465
Ba1 O0 2.719932 1_565
Ba1 O11 2.888421 1_455
Ba1 O1 2.915873 1_555
Ba1 O4 2.932465 1_555
Ba1 O2 2.962138 1_456
Ba1 O7 3.054916 1_455
Eu0 O2 2.384931 1_455
Eu0 O0 2.384931 1_554
Eu0 O9 2.426332 1_555
Eu0 O11 2.426332 1_454
Eu0 O6 2.436994 1_455
Eu0 O4 2.436994 1_554
Eu1 O10 2.403902 1_555
Eu1 O8 2.403902 1_545
Eu1 O5 2.411282 1_555
Eu1 O7 2.411282 1_545
Eu1 O3 2.419869 1_555
Eu1 O1 2.419869 1_545
O0 W0 1.975330 1_556
O0 Sr1 2.947554 1_555
O1 W1 1.988139 1_555
O1 Sr1 2.643776 1_555
O1 Sr0 3.097977 1_555
O2 W0 1.975330 1_565
O2 Sr0 2.947554 1_555
O3 W1 1.988139 1_655
O3 Sr0 2.643776 1_555
O3 Sr1 3.097977 1_555
O4 W0 1.989058 1_566
O4 Sr1 2.667739 1_555
O4 Sr0 3.010117 1_556
O5 W1 1.980672 1_555
O5 Sr1 2.883200 1_555
O6 W0 1.989058 1_555
O6 Sr0 2.667739 1_555
O6 Sr1 3.010117 1_554
O7 W1 1.980672 1_655
O7 Sr0 2.883200 1_555
O8 W0 1.981914 1_565
O8 Sr0 2.614413 1_555
O9 W1 1.987873 1_555
O9 Sr0 2.586281 1_555
O10 W0 1.981914 1_556
O10 Sr1 2.614413 1_555
O11 W1 1.987873 1_655
O11 Sr1 2.586281 1_555
