# generated using pymatgen
data_TlCu2(AsO4)2
_symmetry_space_group_name_H-M   'P 1'
_cell_length_a   11.21128000
_cell_length_b   6.39191100
_cell_length_c   10.60198483
_cell_angle_alpha   81.86212419
_cell_angle_beta   90.00000000
_cell_angle_gamma   90.00000000
_symmetry_Int_Tables_number   1
_chemical_formula_structural   TlCu2(AsO4)2
_chemical_formula_sum   'Tl4 Cu8 As8 O32'
_cell_volume   752.10367952
_cell_formula_units_Z   4
loop_
 _symmetry_equiv_pos_site_id
 _symmetry_equiv_pos_as_xyz
  1  'x, y, z'
loop_
 _atom_site_type_symbol
 _atom_site_label
 _atom_site_symmetry_multiplicity
 _atom_site_fract_x
 _atom_site_fract_y
 _atom_site_fract_z
 _atom_site_occupancy
  Tl  Tl0  1  0.41557500  0.73058400  0.02262700  1
  Tl  Tl1  1  0.91557500  0.26941600  0.47737300  1
  Tl  Tl2  1  0.58442500  0.26941600  0.97737300  1
  Tl  Tl3  1  0.08442500  0.73058400  0.52262700  1
  Cu  Cu0  1  0.95652900  0.58951000  0.15795200  1
  Cu  Cu1  1  0.45652900  0.41049000  0.34204800  1
  Cu  Cu2  1  0.04347100  0.41049000  0.84204800  1
  Cu  Cu3  1  0.54347100  0.58951000  0.65795200  1
  Cu  Cu4  1  0.15601400  0.94287400  0.17767600  1
  Cu  Cu5  1  0.65601400  0.05712600  0.32232400  1
  Cu  Cu6  1  0.84398600  0.05712600  0.82232400  1
  Cu  Cu7  1  0.34398600  0.94287400  0.67767600  1
  As  As0  1  0.38706300  0.88230300  0.37645300  1
  As  As1  1  0.88706300  0.11769700  0.12354700  1
  As  As2  1  0.61293700  0.11769700  0.62354700  1
  As  As3  1  0.11293700  0.88230300  0.87645300  1
  As  As4  1  0.70770200  0.63216900  0.23666000  1
  As  As5  1  0.20770200  0.36783100  0.26334000  1
  As  As6  1  0.29229800  0.36783100  0.76334000  1
  As  As7  1  0.79229800  0.63216900  0.73666000  1
  O  O0  1  0.29646700  0.89084100  0.50594700  1
  O  O1  1  0.79646700  0.10915900  0.99405300  1
  O  O2  1  0.70353300  0.10915900  0.49405300  1
  O  O3  1  0.20353300  0.89084100  0.00594700  1
  O  O4  1  0.31484100  0.86795400  0.23493000  1
  O  O5  1  0.81484100  0.13204600  0.26507000  1
  O  O6  1  0.68515900  0.13204600  0.76507000  1
  O  O7  1  0.18515900  0.86795400  0.73493000  1
  O  O8  1  0.48450700  0.67113100  0.40247700  1
  O  O9  1  0.98450700  0.32886900  0.09752300  1
  O  O10  1  0.51549300  0.32886900  0.59752300  1
  O  O11  1  0.01549300  0.67113100  0.90247700  1
  O  O12  1  0.48604700  0.10150200  0.35584100  1
  O  O13  1  0.98604700  0.89849800  0.14415900  1
  O  O14  1  0.51395300  0.89849800  0.64415900  1
  O  O15  1  0.01395300  0.10150200  0.85584100  1
  O  O16  1  0.63179000  0.87162400  0.19754200  1
  O  O17  1  0.13179000  0.12837600  0.30245800  1
  O  O18  1  0.36821000  0.12837600  0.80245800  1
  O  O19  1  0.86821000  0.87162400  0.69754200  1
  O  O20  1  0.79670500  0.60298100  0.10328500  1
  O  O21  1  0.29670500  0.39701900  0.39671500  1
  O  O22  1  0.20329500  0.39701900  0.89671500  1
  O  O23  1  0.70329500  0.60298100  0.60328500  1
  O  O24  1  0.59998100  0.42973700  0.24389900  1
  O  O25  1  0.09998100  0.57026300  0.25610100  1
  O  O26  1  0.40001900  0.57026300  0.75610100  1
  O  O27  1  0.90001900  0.42973700  0.74389900  1
  O  O28  1  0.80507500  0.61391700  0.35975200  1
  O  O29  1  0.30507500  0.38608300  0.14024800  1
  O  O30  1  0.19492500  0.38608300  0.64024800  1
  O  O31  1  0.69492500  0.61391700  0.85975200  1
loop_
_geom_bond_atom_site_label_1
_geom_bond_atom_site_label_2
_geom_bond_distance
_geom_bond_site_symmetry_2
Cu0 O20 1.881451 1_555
Cu0 O9 1.893821 1_555
Cu0 O25 1.910040 1_655
Cu0 O13 1.987424 1_555
Cu1 O21 1.881451 1_555
Cu1 O8 1.893821 1_555
Cu1 O24 1.910040 1_555
Cu1 O12 1.987424 1_555
Cu2 O22 1.881451 1_555
Cu2 O11 1.893821 1_555
Cu2 O27 1.910040 1_455
Cu2 O15 1.987424 1_555
Cu3 O23 1.881451 1_555
Cu3 O10 1.893821 1_555
Cu3 O26 1.910040 1_555
Cu3 O14 1.987424 1_555
Cu4 O17 1.916749 1_565
Cu4 O4 1.919952 1_555
Cu4 O13 1.966310 1_455
Cu4 O3 1.969950 1_555
Cu4 O25 2.489538 1_555
Cu5 O16 1.916749 1_545
Cu5 O5 1.919952 1_555
Cu5 O12 1.966310 1_555
Cu5 O2 1.969950 1_555
Cu5 O24 2.489538 1_555
Cu6 O19 1.916749 1_545
Cu6 O6 1.919952 1_555
Cu6 O15 1.966310 1_655
Cu6 O1 1.969950 1_555
Cu6 O27 2.489538 1_555
Cu7 O18 1.916749 1_565
Cu7 O7 1.919952 1_555
Cu7 O14 1.966310 1_555
Cu7 O0 1.969950 1_555
Cu7 O26 2.489538 1_555
As0 O0 1.714837 1_555
As0 O4 1.718797 1_555
As0 O8 1.728041 1_555
As0 O12 1.776421 1_565
As1 O1 1.714837 1_554
As1 O5 1.718797 1_555
As1 O9 1.728041 1_555
As1 O13 1.776421 1_545
As2 O2 1.714837 1_555
As2 O6 1.718797 1_555
As2 O10 1.728041 1_555
As2 O14 1.776421 1_545
As3 O3 1.714837 1_556
As3 O7 1.718797 1_555
As3 O11 1.728041 1_555
As3 O15 1.776421 1_565
As4 O28 1.692731 1_555
As4 O16 1.749077 1_555
As4 O20 1.762011 1_555
As4 O24 1.763672 1_555
As5 O29 1.692731 1_555
As5 O17 1.749077 1_555
As5 O21 1.762011 1_555
As5 O25 1.763672 1_555
As6 O30 1.692731 1_555
As6 O18 1.749077 1_555
As6 O22 1.762011 1_555
As6 O26 1.763672 1_555
As7 O31 1.692731 1_555
As7 O19 1.749077 1_555
As7 O23 1.762011 1_555
As7 O27 1.763672 1_555
O0 Tl3 2.584696 1_555
O1 Tl2 2.584696 1_555
O2 Tl1 2.584696 1_555
O3 Tl0 2.584696 1_555
O4 Tl0 2.769876 1_555
O5 Tl1 2.769876 1_555
O6 Tl2 2.769876 1_555
O7 Tl3 2.769876 1_555
O28 Tl1 2.676055 1_555
O29 Tl0 2.676055 1_555
O30 Tl3 2.676055 1_555
O31 Tl2 2.676055 1_555
