# generated using pymatgen
data_Sr2CaV2(Si2O7)2
_symmetry_space_group_name_H-M   'P 1'
_cell_length_a   5.86867121
_cell_length_b   7.34229235
_cell_length_c   8.22269250
_cell_angle_alpha   95.23536785
_cell_angle_beta   113.21306004
_cell_angle_gamma   75.49242997
_symmetry_Int_Tables_number   1
_chemical_formula_structural   Sr2CaV2(Si2O7)2
_chemical_formula_sum   'Sr2 Ca1 V2 Si4 O14'
_cell_volume   315.23459980
_cell_formula_units_Z   1
loop_
 _symmetry_equiv_pos_site_id
 _symmetry_equiv_pos_as_xyz
  1  'x, y, z'
loop_
 _atom_site_type_symbol
 _atom_site_label
 _atom_site_symmetry_multiplicity
 _atom_site_fract_x
 _atom_site_fract_y
 _atom_site_fract_z
 _atom_site_occupancy
  Sr  Sr0  1  0.31601000  0.78422800  0.47642200  1
  Sr  Sr1  1  0.74629100  0.25319500  0.58463400  1
  Ca  Ca0  1  0.95801800  0.51450200  0.99667700  1
  V  V0  1  0.98671900  0.89384000  0.84216000  1
  V  V1  1  0.97723000  0.10017200  0.14611200  1
  Si  Si0  1  0.32480600  0.49359400  0.80633500  1
  Si  Si1  1  0.62647900  0.51788400  0.21150700  1
  Si  Si2  1  0.60300400  0.96200700  0.21531400  1
  Si  Si3  1  0.41764000  0.06630600  0.80407100  1
  O  O0  1  0.65673500  0.73173900  0.18340300  1
  O  O1  1  0.28353400  0.28227500  0.72551700  1
  O  O2  1  0.40136100  0.47179500  0.02292000  1
  O  O3  1  0.55609000  0.06037600  0.02228200  1
  O  O4  1  0.53969500  0.54543000  0.75535200  1
  O  O5  1  0.89700400  0.37965900  0.22199400  1
  O  O6  1  0.38101800  0.04198100  0.29137800  1
  O  O7  1  0.19425400  0.95211700  0.72606600  1
  O  O8  1  0.95636000  0.18224000  0.92421400  1
  O  O9  1  0.04377500  0.82926000  0.07239000  1
  O  O10  1  0.87121500  0.01801900  0.34428900  1
  O  O11  1  0.61590500  0.97201800  0.70652000  1
  O  O12  1  0.03643600  0.62637500  0.74325400  1
  O  O13  1  0.53542000  0.50617200  0.36885500  1
loop_
_geom_bond_atom_site_label_1
_geom_bond_atom_site_label_2
_geom_bond_distance
_geom_bond_site_symmetry_2
Ca0 O5 2.361418 1_556
Ca0 O4 2.445171 1_555
Ca0 O8 2.459400 1_555
Ca0 O9 2.460686 1_656
Ca0 O2 2.464840 1_656
Ca0 O12 2.546869 1_655
Ca0 O0 2.882354 1_556
O0 Si2 1.656470 1_555
O0 Si1 1.669930 1_555
O1 Si3 1.646819 1_555
O1 Si0 1.667595 1_555
O1 Sr1 2.956564 1_455
O2 Si1 1.666680 1_555
O2 Si0 1.668642 1_554
O3 Si3 1.651910 1_554
O3 Si2 1.697611 1_545
O3 V1 2.356762 1_555
O4 Si0 1.611631 1_555
O4 Sr0 2.695382 1_555
O4 Sr1 2.744648 1_555
O5 Si1 1.630571 1_555
O5 V1 2.082272 1_555
O6 Si2 1.620250 1_545
O6 V1 2.139939 1_455
O6 Sr0 2.717919 1_545
O6 Sr1 3.118202 1_555
O7 Si3 1.619470 1_565
O7 V0 1.957026 1_455
O7 Sr0 2.548931 1_555
O7 Sr1 2.880617 1_465
O8 V1 1.922173 1_556
O8 V0 2.148456 1_545
O8 Sr1 2.611140 1_555
O9 V0 1.872268 1_454
O9 V1 2.013440 1_465
O9 Sr0 3.074200 1_555
O10 Si2 1.643247 1_545
O10 V1 2.138454 1_555
O10 Sr0 2.607808 1_645
O10 Sr1 2.703689 1_555
O11 Si3 1.645405 1_565
O11 V0 1.971516 1_555
O11 Sr0 2.587112 1_555
O11 Sr1 2.761466 1_565
O12 Si0 1.630101 1_555
O12 V0 2.052218 1_455
O13 Si1 1.598539 1_555
O13 Sr1 2.418367 1_555
O13 Sr0 2.420649 1_555
