# generated using pymatgen
data_Ce3Rh4Pb13
_symmetry_space_group_name_H-M   'P 1'
_cell_length_a   10.20673407
_cell_length_b   10.20673407
_cell_length_c   10.20673407
_cell_angle_alpha   90.00000000
_cell_angle_beta   90.00000000
_cell_angle_gamma   90.00000000
_symmetry_Int_Tables_number   1
_chemical_formula_structural   Ce3Rh4Pb13
_chemical_formula_sum   'Ce6 Rh8 Pb26'
_cell_volume   1063.31122587
_cell_formula_units_Z   2
loop_
 _symmetry_equiv_pos_site_id
 _symmetry_equiv_pos_as_xyz
  1  'x, y, z'
loop_
 _atom_site_type_symbol
 _atom_site_label
 _atom_site_symmetry_multiplicity
 _atom_site_fract_x
 _atom_site_fract_y
 _atom_site_fract_z
 _atom_site_occupancy
  Ce  Ce0  1  0.25000000  -0.00000000  0.50000000  1
  Ce  Ce1  1  0.75000000  -0.00000000  0.50000000  1
  Ce  Ce2  1  0.50000000  0.25000000  0.00000000  1
  Ce  Ce3  1  0.50000000  0.75000000  0.00000000  1
  Ce  Ce4  1  0.00000000  0.50000000  0.25000000  1
  Ce  Ce5  1  0.00000000  0.50000000  0.75000000  1
  Rh  Rh0  1  0.25000000  0.25000000  0.25000000  1
  Rh  Rh1  1  0.75000000  0.75000000  0.75000000  1
  Rh  Rh2  1  0.75000000  0.75000000  0.25000000  1
  Rh  Rh3  1  0.75000000  0.25000000  0.75000000  1
  Rh  Rh4  1  0.25000000  0.25000000  0.75000000  1
  Rh  Rh5  1  0.25000000  0.75000000  0.25000000  1
  Rh  Rh6  1  0.25000000  0.75000000  0.75000000  1
  Rh  Rh7  1  0.75000000  0.25000000  0.25000000  1
  Pb  Pb0  1  0.00000000  -0.00000000  0.00000000  1
  Pb  Pb1  1  0.50000000  0.50000000  0.50000000  1
  Pb  Pb2  1  0.00000000  0.15405493  0.30651779  1
  Pb  Pb3  1  0.00000000  0.84594507  0.69348221  1
  Pb  Pb4  1  0.00000000  0.84594507  0.30651779  1
  Pb  Pb5  1  0.00000000  0.15405493  0.69348221  1
  Pb  Pb6  1  0.30651779  -0.00000000  0.15405493  1
  Pb  Pb7  1  0.65405493  0.50000000  0.19348221  1
  Pb  Pb8  1  0.69348221  -0.00000000  0.84594507  1
  Pb  Pb9  1  0.34594507  0.50000000  0.80651779  1
  Pb  Pb10  1  0.30651779  -0.00000000  0.84594507  1
  Pb  Pb11  1  0.34594507  0.50000000  0.19348221  1
  Pb  Pb12  1  0.69348221  -0.00000000  0.15405493  1
  Pb  Pb13  1  0.65405493  0.50000000  0.80651779  1
  Pb  Pb14  1  0.15405493  0.30651779  0.00000000  1
  Pb  Pb15  1  0.50000000  0.80651779  0.34594507  1
  Pb  Pb16  1  0.84594507  0.69348221  0.00000000  1
  Pb  Pb17  1  0.50000000  0.19348221  0.65405493  1
  Pb  Pb18  1  0.15405493  0.69348221  0.00000000  1
  Pb  Pb19  1  0.50000000  0.19348221  0.34594507  1
  Pb  Pb20  1  0.84594507  0.30651779  0.00000000  1
  Pb  Pb21  1  0.50000000  0.80651779  0.65405493  1
  Pb  Pb22  1  0.19348221  0.65405493  0.50000000  1
  Pb  Pb23  1  0.80651779  0.34594507  0.50000000  1
  Pb  Pb24  1  0.19348221  0.34594507  0.50000000  1
  Pb  Pb25  1  0.80651779  0.65405493  0.50000000  1
loop_
_geom_bond_atom_site_label_1
_geom_bond_atom_site_label_2
_geom_bond_distance
_geom_bond_site_symmetry_2
Ce0 Pb10 3.577781 1_555
Ce0 Pb22 3.577781 1_545
Ce0 Pb6 3.577781 1_555
Ce0 Pb24 3.577781 1_555
Ce0 Pb15 3.589351 1_545
Ce0 Pb19 3.589351 1_555
Ce0 Pb17 3.589351 1_555
Ce0 Pb3 3.589351 1_545
Ce0 Pb4 3.589351 1_545
Ce0 Pb5 3.589351 1_555
Ce0 Pb2 3.589351 1_555
Ce0 Pb21 3.589351 1_545
Ce0 Rh5 3.608625 1_545
Ce0 Rh0 3.608625 1_555
Ce0 Rh4 3.608625 1_555
Ce0 Rh6 3.608625 1_545
Ce1 Pb12 3.577781 1_555
Ce1 Pb8 3.577781 1_555
Ce1 Pb25 3.577781 1_545
Ce1 Pb23 3.577781 1_555
Ce1 Pb15 3.589351 1_545
Ce1 Pb19 3.589351 1_555
Ce1 Pb5 3.589351 1_655
Ce1 Pb17 3.589351 1_555
Ce1 Pb4 3.589351 1_645
Ce1 Pb2 3.589351 1_655
Ce1 Pb3 3.589351 1_645
Ce1 Pb21 3.589351 1_545
Ce1 Rh7 3.608625 1_555
Ce1 Rh2 3.608625 1_545
Ce1 Rh3 3.608625 1_555
Ce1 Rh1 3.608625 1_545
Ce2 Pb14 3.577781 1_555
Ce2 Pb20 3.577781 1_555
Ce2 Pb17 3.577781 1_554
Ce2 Pb19 3.577781 1_555
Ce2 Pb9 3.589351 1_554
Ce2 Pb8 3.589351 1_554
Ce2 Pb6 3.589351 1_555
Ce2 Pb7 3.589351 1_555
Ce2 Pb12 3.589351 1_555
Ce2 Pb11 3.589351 1_555
Ce2 Pb13 3.589351 1_554
Ce2 Pb10 3.589351 1_554
Ce2 Rh3 3.608625 1_554
Ce2 Rh0 3.608625 1_555
Ce2 Rh4 3.608625 1_554
Ce2 Rh7 3.608625 1_555
Ce3 Pb18 3.577781 1_555
Ce3 Pb16 3.577781 1_555
Ce3 Pb21 3.577781 1_554
Ce3 Pb15 3.577781 1_555
Ce3 Pb9 3.589351 1_554
Ce3 Pb8 3.589351 1_564
Ce3 Pb7 3.589351 1_555
Ce3 Pb11 3.589351 1_555
Ce3 Pb13 3.589351 1_554
Ce3 Pb12 3.589351 1_565
Ce3 Pb10 3.589351 1_564
Ce3 Pb6 3.589351 1_565
Ce3 Rh2 3.608625 1_555
Ce3 Rh5 3.608625 1_555
Ce3 Rh6 3.608625 1_554
Ce3 Rh1 3.608625 1_554
Ce4 Pb4 3.577781 1_555
Ce4 Pb7 3.577781 1_455
Ce4 Pb2 3.577781 1_555
Ce4 Pb11 3.577781 1_555
Ce4 Pb23 3.589351 1_455
Ce4 Pb25 3.589351 1_455
Ce4 Pb14 3.589351 1_555
Ce4 Pb24 3.589351 1_555
Ce4 Pb20 3.589351 1_455
Ce4 Pb16 3.589351 1_455
Ce4 Pb22 3.589351 1_555
Ce4 Pb18 3.589351 1_555
Ce4 Rh5 3.608625 1_555
Ce4 Rh2 3.608625 1_455
Ce4 Rh0 3.608625 1_555
Ce4 Rh7 3.608625 1_455
Ce5 Pb5 3.577781 1_555
Ce5 Pb13 3.577781 1_455
Ce5 Pb3 3.577781 1_555
Ce5 Pb9 3.577781 1_555
Ce5 Pb23 3.589351 1_455
Ce5 Pb14 3.589351 1_556
Ce5 Pb18 3.589351 1_556
Ce5 Pb25 3.589351 1_455
Ce5 Pb24 3.589351 1_555
Ce5 Pb16 3.589351 1_456
Ce5 Pb20 3.589351 1_456
Ce5 Pb22 3.589351 1_555
Ce5 Rh6 3.608625 1_555
Ce5 Rh4 3.608625 1_555
Ce5 Rh1 3.608625 1_455
Ce5 Rh3 3.608625 1_455
Pb0 Pb12 3.501461 1_455
Pb0 Pb8 3.501461 1_454
Pb0 Pb20 3.501461 1_455
Pb0 Pb2 3.501461 1_555
Pb0 Pb14 3.501461 1_555
Pb0 Pb10 3.501461 1_554
Pb0 Pb3 3.501461 1_544
Pb0 Pb16 3.501461 1_445
Pb0 Pb18 3.501461 1_545
Pb0 Pb5 3.501461 1_554
Pb0 Pb6 3.501461 1_555
Pb0 Pb4 3.501461 1_545
Pb1 Pb15 3.501461 1_555
Pb1 Pb19 3.501461 1_555
Pb1 Pb24 3.501461 1_555
Pb1 Pb23 3.501461 1_555
Pb1 Pb21 3.501461 1_555
Pb1 Pb11 3.501461 1_555
Pb1 Pb25 3.501461 1_555
Pb1 Pb13 3.501461 1_555
Pb1 Pb22 3.501461 1_555
Pb1 Pb9 3.501461 1_555
Pb1 Pb17 3.501461 1_555
Pb1 Pb7 3.501461 1_555
Pb2 Rh0 2.793360 1_555
Pb2 Rh7 2.793360 1_455
Pb2 Pb4 3.144795 1_545
Pb2 Pb23 3.411135 1_455
Pb2 Pb24 3.411135 1_555
Pb3 Rh6 2.793360 1_555
Pb3 Rh1 2.793360 1_455
Pb3 Pb5 3.144795 1_565
Pb4 Rh5 2.793360 1_555
Pb4 Rh2 2.793360 1_455
Pb5 Rh4 2.793360 1_555
Pb5 Rh3 2.793360 1_455
Pb6 Rh5 2.793360 1_545
Pb6 Rh0 2.793360 1_555
Pb7 Rh2 2.793360 1_555
Pb7 Rh7 2.793360 1_555
Pb8 Rh1 2.793360 1_545
Pb8 Rh3 2.793360 1_555
Pb9 Rh6 2.793360 1_555
Pb9 Rh4 2.793360 1_555
Pb10 Rh4 2.793360 1_555
Pb10 Rh6 2.793360 1_545
Pb10 Pb6 3.144795 1_556
Pb10 Pb21 3.411135 1_545
Pb10 Pb17 3.411135 1_555
Pb11 Rh5 2.793360 1_555
Pb11 Rh0 2.793360 1_555
Pb11 Pb7 3.144795 1_555
Pb11 Pb18 3.411135 1_555
Pb11 Pb14 3.411135 1_555
Pb12 Rh2 2.793360 1_545
Pb12 Rh7 2.793360 1_555
Pb12 Pb8 3.144795 1_554
Pb12 Pb15 3.411135 1_545
Pb12 Pb19 3.411135 1_555
Pb13 Rh1 2.793360 1_555
Pb13 Rh3 2.793360 1_555
Pb13 Pb9 3.144795 1_555
Pb13 Pb16 3.411135 1_556
Pb13 Pb20 3.411135 1_556
Pb14 Rh0 2.793360 1_555
Pb14 Rh4 2.793360 1_554
Pb14 Pb20 3.144795 1_455
Pb14 Pb9 3.411135 1_554
Pb15 Rh5 2.793360 1_555
Pb15 Rh2 2.793360 1_555
Pb15 Pb21 3.144795 1_555
Pb15 Pb6 3.411135 1_565
Pb16 Rh1 2.793360 1_554
Pb16 Rh2 2.793360 1_555
Pb16 Pb18 3.144795 1_655
Pb16 Pb7 3.411135 1_555
Pb17 Rh4 2.793360 1_555
Pb17 Rh3 2.793360 1_555
Pb17 Pb19 3.144795 1_555
Pb17 Pb8 3.411135 1_555
Pb18 Rh5 2.793360 1_555
Pb18 Rh6 2.793360 1_554
Pb18 Pb9 3.411135 1_554
Pb19 Rh0 2.793360 1_555
Pb19 Rh7 2.793360 1_555
Pb19 Pb6 3.411135 1_555
Pb20 Rh7 2.793360 1_555
Pb20 Rh3 2.793360 1_554
Pb20 Pb7 3.411135 1_555
Pb21 Rh6 2.793360 1_555
Pb21 Rh1 2.793360 1_555
Pb21 Pb8 3.411135 1_565
Pb22 Rh5 2.793360 1_555
Pb22 Rh6 2.793360 1_555
Pb22 Pb24 3.144795 1_555
Pb22 Pb4 3.411135 1_555
Pb22 Pb3 3.411135 1_555
Pb23 Rh7 2.793360 1_555
Pb23 Rh3 2.793360 1_555
Pb23 Pb25 3.144795 1_555
Pb23 Pb5 3.411135 1_655
Pb24 Rh0 2.793360 1_555
Pb24 Rh4 2.793360 1_555
Pb24 Pb5 3.411135 1_555
Pb25 Rh1 2.793360 1_555
Pb25 Rh2 2.793360 1_555
Pb25 Pb4 3.411135 1_655
Pb25 Pb3 3.411135 1_655
