# generated using pymatgen
data_K5Nb3O3F14
_symmetry_space_group_name_H-M   'P 1'
_cell_length_a   20.41089900
_cell_length_b   8.03246700
_cell_length_c   11.62440300
_cell_angle_alpha   90.00000000
_cell_angle_beta   90.00000000
_cell_angle_gamma   90.00000000
_symmetry_Int_Tables_number   1
_chemical_formula_structural   K5Nb3O3F14
_chemical_formula_sum   'K20 Nb12 O12 F56'
_cell_volume   1905.81939157
_cell_formula_units_Z   4
loop_
 _symmetry_equiv_pos_site_id
 _symmetry_equiv_pos_as_xyz
  1  'x, y, z'
loop_
 _atom_site_type_symbol
 _atom_site_label
 _atom_site_symmetry_multiplicity
 _atom_site_fract_x
 _atom_site_fract_y
 _atom_site_fract_z
 _atom_site_occupancy
  K  K0  1  0.00000000  0.45173100  0.89811000  1
  K  K1  1  0.50000000  0.54826900  0.39811000  1
  K  K2  1  0.14878000  0.52816200  0.50303300  1
  K  K3  1  0.85122000  0.52816200  0.50303300  1
  K  K4  1  0.35122000  0.47183800  0.00303300  1
  K  K5  1  0.64878000  0.47183800  0.00303300  1
  K  K6  1  0.17293100  0.23467500  0.10809200  1
  K  K7  1  0.82706900  0.23467500  0.10809200  1
  K  K8  1  0.32706900  0.76532500  0.60809200  1
  K  K9  1  0.67293100  0.76532500  0.60809200  1
  K  K10  1  0.39275800  0.04553300  0.24998400  1
  K  K11  1  0.60724200  0.04553300  0.24998400  1
  K  K12  1  0.10724200  0.95446700  0.74998400  1
  K  K13  1  0.89275800  0.95446700  0.74998400  1
  K  K14  1  0.50000000  0.05619800  0.89106300  1
  K  K15  1  0.00000000  0.94380200  0.39106300  1
  K  K16  1  0.34125500  0.26187900  0.64284700  1
  K  K17  1  0.65874500  0.26187900  0.64284700  1
  K  K18  1  0.15874500  0.73812100  0.14284700  1
  K  K19  1  0.84125500  0.73812100  0.14284700  1
  Nb  Nb0  1  0.19396900  0.45008300  0.81664600  1
  Nb  Nb1  1  0.80603100  0.45008300  0.81664600  1
  Nb  Nb2  1  0.30603100  0.54991700  0.31664600  1
  Nb  Nb3  1  0.69396900  0.54991700  0.31664600  1
  Nb  Nb4  1  0.30131300  0.99621500  0.92420700  1
  Nb  Nb5  1  0.69868700  0.99621500  0.92420700  1
  Nb  Nb6  1  0.19868700  0.00378500  0.42420700  1
  Nb  Nb7  1  0.80131300  0.00378500  0.42420700  1
  Nb  Nb8  1  0.00000000  0.92531900  0.02157500  1
  Nb  Nb9  1  0.50000000  0.07468100  0.52157500  1
  Nb  Nb10  1  0.00000000  0.46638800  0.23397300  1
  Nb  Nb11  1  0.50000000  0.53361200  0.73397300  1
  O  O0  1  0.14494100  0.60821200  0.75597300  1
  O  O1  1  0.85505900  0.60821200  0.75597300  1
  O  O2  1  0.35505900  0.39178800  0.25597300  1
  O  O3  1  0.64494100  0.39178800  0.25597300  1
  O  O4  1  0.34268500  0.80892100  0.95068800  1
  O  O5  1  0.65731500  0.80892100  0.95068800  1
  O  O6  1  0.15731500  0.19107900  0.45068800  1
  O  O7  1  0.84268500  0.19107900  0.45068800  1
  O  O8  1  0.00000000  0.07817500  0.91223400  1
  O  O9  1  0.50000000  0.92182500  0.41223400  1
  O  O10  1  0.00000000  0.26727300  0.29497300  1
  O  O11  1  0.50000000  0.73272700  0.79497300  1
  F  F0  1  0.28202700  0.53207400  0.76863900  1
  F  F1  1  0.71797300  0.53207400  0.76863900  1
  F  F2  1  0.21797300  0.46792600  0.26863900  1
  F  F3  1  0.78202700  0.46792600  0.26863900  1
  F  F4  1  0.19685700  0.30473300  0.68053100  1
  F  F5  1  0.80314300  0.30473300  0.68053100  1
  F  F6  1  0.30314300  0.69526700  0.18053100  1
  F  F7  1  0.69685700  0.69526700  0.18053100  1
  F  F8  1  0.12187500  0.30830700  0.87702900  1
  F  F9  1  0.87812500  0.30830700  0.87702900  1
  F  F10  1  0.37812500  0.69169300  0.37702900  1
  F  F11  1  0.62187500  0.69169300  0.37702900  1
  F  F12  1  0.20862800  0.53462300  0.97605700  1
  F  F13  1  0.79137200  0.53462300  0.97605700  1
  F  F14  1  0.29137200  0.46537700  0.47605700  1
  F  F15  1  0.70862800  0.46537700  0.47605700  1
  F  F16  1  0.25481800  0.25071400  0.89373900  1
  F  F17  1  0.74518200  0.25071400  0.89373900  1
  F  F18  1  0.24518200  0.74928600  0.39373900  1
  F  F19  1  0.75481800  0.74928600  0.39373900  1
  F  F20  1  0.37474600  0.11893800  0.85202000  1
  F  F21  1  0.62525400  0.11893800  0.85202000  1
  F  F22  1  0.12525400  0.88106200  0.35202000  1
  F  F23  1  0.87474600  0.88106200  0.35202000  1
  F  F24  1  0.26931300  0.95684600  0.76585600  1
  F  F25  1  0.73068700  0.95684600  0.76585600  1
  F  F26  1  0.23068700  0.04315400  0.26585600  1
  F  F27  1  0.76931300  0.04315400  0.26585600  1
  F  F28  1  0.21179300  0.94870000  0.98321000  1
  F  F29  1  0.78820700  0.94870000  0.98321000  1
  F  F30  1  0.28820700  0.05130000  0.48321000  1
  F  F31  1  0.71179300  0.05130000  0.48321000  1
  F  F32  1  0.32035800  0.12005400  0.06800600  1
  F  F33  1  0.67964200  0.12005400  0.06800600  1
  F  F34  1  0.17964200  0.87994600  0.56800600  1
  F  F35  1  0.82035800  0.87994600  0.56800600  1
  F  F36  1  0.07148800  0.01408000  0.11862100  1
  F  F37  1  0.92851200  0.01408000  0.11862100  1
  F  F38  1  0.42851200  0.98592000  0.61862100  1
  F  F39  1  0.57148800  0.98592000  0.61862100  1
  F  F40  1  0.06588600  0.77330000  0.95138500  1
  F  F41  1  0.93411400  0.77330000  0.95138500  1
  F  F42  1  0.43411400  0.22670000  0.45138500  1
  F  F43  1  0.56588600  0.22670000  0.45138500  1
  F  F44  1  0.00000000  0.73002900  0.15916000  1
  F  F45  1  0.50000000  0.26997100  0.65916000  1
  F  F46  1  0.06814600  0.56888500  0.33091400  1
  F  F47  1  0.93185400  0.56888500  0.33091400  1
  F  F48  1  0.43185400  0.43111500  0.83091400  1
  F  F49  1  0.56814600  0.43111500  0.83091400  1
  F  F50  1  0.06743200  0.43657000  0.11058800  1
  F  F51  1  0.93256800  0.43657000  0.11058800  1
  F  F52  1  0.43256800  0.56343000  0.61058800  1
  F  F53  1  0.56743200  0.56343000  0.61058800  1
  F  F54  1  0.00000000  0.91076500  0.61990800  1
  F  F55  1  0.50000000  0.08923500  0.11990800  1
loop_
_geom_bond_atom_site_label_1
_geom_bond_atom_site_label_2
_geom_bond_distance
_geom_bond_site_symmetry_2
K0 O8 3.005065 1_555
K1 O9 3.005065 1_555
K2 O6 2.780600 1_555
K2 O0 3.010783 1_555
K3 O7 2.780600 1_555
K3 O1 3.010783 1_555
K4 O4 2.780600 1_554
K4 O2 3.010783 1_555
K5 O5 2.780600 1_554
K5 O3 3.010783 1_555
K10 O2 2.886600 1_555
K10 O9 3.055475 1_545
K11 O3 2.886600 1_555
K11 O9 3.055475 1_545
K12 O0 2.886600 1_555
K12 O8 3.055475 1_565
K13 O1 2.886600 1_555
K13 O8 3.055475 1_665
K14 O11 2.828192 1_545
K15 O10 2.828192 1_565
Nb0 O0 1.764133 1_555
Nb1 O1 1.764133 1_555
Nb2 O2 1.764133 1_555
Nb3 O3 1.764133 1_555
Nb4 O4 1.752471 1_555
Nb5 O5 1.752471 1_555
Nb6 O6 1.752471 1_555
Nb7 O7 1.752471 1_555
Nb8 O8 1.767207 1_564
Nb9 O9 1.767207 1_545
Nb10 O10 1.749525 1_555
Nb11 O11 1.749525 1_555
F0 Nb0 1.993892 1_555
F0 K8 2.799722 1_555
F0 K16 2.882702 1_555
F0 K4 3.106865 1_556
F1 Nb1 1.993892 1_555
F1 K9 2.799722 1_555
F1 K17 2.882702 1_555
F1 K5 3.106865 1_556
F2 Nb2 1.993892 1_555
F2 K6 2.799722 1_555
F2 K18 2.882702 1_555
F2 K2 3.106865 1_555
F3 Nb3 1.993892 1_555
F3 K7 2.799722 1_555
F3 K19 2.882702 1_555
F3 K3 3.106865 1_555
F4 Nb0 1.967259 1_555
F4 K2 2.905353 1_555
F4 K16 2.999486 1_555
F5 Nb1 1.967259 1_555
F5 K3 2.905353 1_555
F5 K17 2.999486 1_555
F6 Nb2 1.967259 1_555
F6 K4 2.905353 1_555
F6 K18 2.999486 1_555
F7 Nb3 1.967259 1_555
F7 K5 2.905353 1_555
F7 K19 2.999486 1_555
F8 Nb0 1.988693 1_555
F8 K0 2.752329 1_555
F8 K6 2.941124 1_556
F8 K12 3.216886 1_545
F9 Nb1 1.988693 1_555
F9 K0 2.752329 1_655
F9 K7 2.941124 1_556
F9 K13 3.216886 1_545
F10 Nb2 1.988693 1_555
F10 K1 2.752329 1_555
F10 K8 2.941124 1_555
F10 K10 3.216886 1_565
F11 Nb3 1.988693 1_555
F11 K1 2.752329 1_555
F11 K9 2.941124 1_555
F11 K11 3.216886 1_565
F12 Nb0 1.996115 1_555
F12 K18 2.732693 1_556
F12 K6 2.948118 1_556
F12 K4 2.970400 1_556
F13 Nb1 1.996115 1_555
F13 K19 2.732693 1_556
F13 K7 2.948118 1_556
F13 K5 2.970400 1_556
F14 Nb2 1.996115 1_555
F14 K16 2.732693 1_555
F14 K8 2.948118 1_555
F14 K2 2.970400 1_555
F15 Nb3 1.996115 1_555
F15 K17 2.732693 1_555
F15 K9 2.948118 1_555
F15 K3 2.970400 1_555
F16 Nb0 2.215894 1_555
F16 Nb4 2.281453 1_545
F16 K4 2.939481 1_556
F16 K6 3.003137 1_556
F17 Nb1 2.215894 1_555
F17 Nb5 2.281453 1_545
F17 K5 2.939481 1_556
F17 K7 3.003137 1_556
F18 Nb2 2.215894 1_555
F18 Nb6 2.281453 1_565
F18 K2 2.939481 1_555
F18 K8 3.003137 1_555
F19 Nb3 2.215894 1_555
F19 Nb7 2.281453 1_565
F19 K3 2.939481 1_555
F19 K9 3.003137 1_555
F20 Nb4 1.980500 1_545
F20 K14 2.644974 1_555
F20 K16 2.774495 1_555
F21 Nb5 1.980500 1_545
F21 K14 2.644974 1_555
F21 K17 2.774495 1_555
F22 Nb6 1.980500 1_565
F22 K15 2.644974 1_555
F22 K18 2.774495 1_555
F23 Nb7 1.980500 1_565
F23 K15 2.644974 1_655
F23 K19 2.774495 1_555
F24 Nb4 1.978614 1_555
F24 K8 2.668250 1_555
F24 K16 3.194394 1_565
F25 Nb5 1.978614 1_555
F25 K9 2.668250 1_555
F25 K17 3.194394 1_565
F26 Nb6 1.978614 1_555
F26 K6 2.668250 1_555
F26 K18 3.194394 1_545
F27 Nb7 1.978614 1_555
F27 K7 2.668250 1_555
F27 K19 3.194394 1_545
F28 Nb4 1.988640 1_555
F28 K18 2.734410 1_556
F28 K6 2.830751 1_566
F29 Nb5 1.988640 1_555
F29 K19 2.734410 1_556
F29 K7 2.830751 1_566
F30 Nb6 1.988640 1_555
F30 K16 2.734410 1_555
F30 K8 2.830751 1_545
F31 Nb7 1.988640 1_555
F31 K17 2.734410 1_555
F31 K9 2.830751 1_545
F32 Nb4 1.983626 1_544
F32 K10 2.648944 1_555
F32 K4 2.991953 1_555
F32 K6 3.181130 1_555
F33 Nb5 1.983626 1_544
F33 K11 2.648944 1_555
F33 K5 2.991953 1_555
F33 K7 3.181130 1_555
F34 Nb6 1.983626 1_565
F34 K12 2.648944 1_555
F34 K2 2.991953 1_555
F34 K8 3.181130 1_555
F35 Nb7 1.983626 1_565
F35 K13 2.648944 1_555
F35 K3 2.991953 1_555
F35 K9 3.181130 1_555
F36 Nb8 1.977375 1_545
F36 K6 2.727973 1_555
F36 K18 2.857394 1_545
F37 Nb8 1.977375 1_645
F37 K7 2.727973 1_555
F37 K19 2.857394 1_545
F38 Nb9 1.977375 1_565
F38 K8 2.727973 1_555
F38 K16 2.857394 1_565
F39 Nb9 1.977375 1_565
F39 K9 2.727973 1_555
F39 K17 2.857394 1_565
F40 Nb8 1.991292 1_556
F40 K12 2.882923 1_555
F40 K18 2.936934 1_556
F40 K0 2.977220 1_555
F41 Nb8 1.991292 1_656
F41 K13 2.882923 1_555
F41 K19 2.936934 1_556
F41 K0 2.977220 1_655
F42 Nb9 1.991292 1_555
F42 K10 2.882923 1_555
F42 K16 2.936934 1_555
F42 K1 2.977220 1_555
F43 Nb9 1.991292 1_555
F43 K11 2.882923 1_555
F43 K17 2.936934 1_555
F43 K1 2.977220 1_555
F44 Nb8 2.240222 1_555
F44 Nb10 2.289302 1_555
F44 K18 3.246323 1_555
F44 K19 3.246323 1_455
F45 Nb9 2.240222 1_555
F45 Nb11 2.289302 1_555
F45 K17 3.246323 1_555
F45 K16 3.246323 1_555
F46 Nb10 1.970368 1_555
F46 K2 2.611287 1_555
F46 K18 3.169671 1_555
F47 Nb10 1.970368 1_655
F47 K3 2.611287 1_555
F47 K19 3.169671 1_555
F48 Nb11 1.970368 1_555
F48 K4 2.611287 1_556
F48 K16 3.169671 1_555
F49 Nb11 1.970368 1_555
F49 K5 2.611287 1_556
F49 K17 3.169671 1_555
F50 Nb10 2.002211 1_555
F50 K6 2.695854 1_555
F50 K0 2.830144 1_554
F50 K18 3.079179 1_555
F51 Nb10 2.002211 1_655
F51 K7 2.695854 1_555
F51 K0 2.830144 1_654
F51 K19 3.079179 1_555
F52 Nb11 2.002211 1_555
F52 K8 2.695854 1_555
F52 K1 2.830144 1_555
F52 K16 3.079179 1_555
F53 Nb11 2.002211 1_555
F53 K9 2.695854 1_555
F53 K1 2.830144 1_555
F53 K17 3.079179 1_555
F54 K15 2.673390 1_555
F54 K12 2.683439 1_555
F54 K13 2.683439 1_455
F55 K14 2.673390 1_554
F55 K11 2.683439 1_555
F55 K10 2.683439 1_555
