# generated using pymatgen
data_K12Ag4As8CSe20O
_symmetry_space_group_name_H-M   'P 1'
_cell_length_a   9.40180400
_cell_length_b   11.87172751
_cell_length_c   13.20831878
_cell_angle_alpha   90.19142678
_cell_angle_beta   106.74271498
_cell_angle_gamma   90.19464737
_symmetry_Int_Tables_number   1
_chemical_formula_structural   K12Ag4As8CSe20O
_chemical_formula_sum   'K12 Ag4 As8 C1 Se20 O1'
_cell_volume   1411.73601480
_cell_formula_units_Z   1
loop_
 _symmetry_equiv_pos_site_id
 _symmetry_equiv_pos_as_xyz
  1  'x, y, z'
loop_
 _atom_site_type_symbol
 _atom_site_label
 _atom_site_symmetry_multiplicity
 _atom_site_fract_x
 _atom_site_fract_y
 _atom_site_fract_z
 _atom_site_occupancy
  K  K0  1  0.53820400  0.28548400  0.57347100  1
  K  K1  1  0.44560600  0.79779300  0.91724800  1
  K  K2  1  0.46286100  0.70391400  0.41681100  1
  K  K3  1  0.52786600  0.19982400  0.08037300  1
  K  K4  1  0.85967500  0.85061800  0.76367400  1
  K  K5  1  0.13902400  0.36404600  0.70802700  1
  K  K6  1  0.13353100  0.12446800  0.19443600  1
  K  K7  1  0.86166000  0.62632900  0.30134400  1
  K  K8  1  0.84997200  0.25169700  0.39633600  1
  K  K9  1  0.14500800  0.74887700  0.10536100  1
  K  K10  1  0.15490800  0.74347300  0.60345200  1
  K  K11  1  0.83751800  0.25753600  0.87879700  1
  Ag  Ag0  1  0.66531100  0.99256900  0.53370700  1
  Ag  Ag1  1  0.32719700  0.49249100  0.96604000  1
  Ag  Ag2  1  0.33113000  0.00740700  0.46076200  1
  Ag  Ag3  1  0.66522600  0.50873900  0.03926200  1
  As  As0  1  0.50157100  0.07917200  0.75133100  1
  As  As1  1  0.49474500  0.56855200  0.74922900  1
  As  As2  1  0.50577300  0.92510000  0.25450700  1
  As  As3  1  0.48786600  0.42781300  0.24682500  1
  As  As4  1  0.09081300  0.05484300  0.61522800  1
  As  As5  1  0.89555900  0.55337900  0.87965800  1
  As  As6  1  0.91651500  0.94281700  0.39285400  1
  As  As7  1  0.07987100  0.44417300  0.10946000  1
  C  C0  1  0.90975600  0.04092000  0.97632700  1
  Se  Se0  1  0.80905800  0.80901300  0.48562100  1
  Se  Se1  1  0.18353500  0.31189900  0.01385400  1
  Se  Se2  1  0.19038000  0.18557800  0.51702700  1
  Se  Se3  1  0.79625900  0.68800900  0.97504800  1
  Se  Se4  1  0.87616800  0.14248100  0.65007300  1
  Se  Se5  1  0.11185700  0.63915500  0.84694300  1
  Se  Se6  1  0.12727500  0.85248000  0.35346400  1
  Se  Se7  1  0.86660100  0.35434300  0.14675500  1
  Se  Se8  1  0.49739400  0.90340100  0.65540000  1
  Se  Se9  1  0.50093100  0.39719100  0.84999900  1
  Se  Se10  1  0.51186200  0.10186900  0.35039000  1
  Se  Se11  1  0.48595000  0.60278800  0.14947500  1
  Se  Se12  1  0.73121500  0.99126100  0.95182000  1
  Se  Se13  1  0.34120400  0.51940600  0.56724300  1
  Se  Se14  1  0.34604100  0.96659600  0.08342000  1
  Se  Se15  1  0.65006600  0.46959100  0.41739500  1
  Se  Se16  1  0.27676300  0.06606200  0.79985900  1
  Se  Se17  1  0.72101500  0.56573200  0.69387800  1
  Se  Se18  1  0.74154600  0.92961900  0.20978000  1
  Se  Se19  1  0.25028700  0.43410000  0.29212400  1
  O  O0  1  0.15742800  0.52538800  0.57591200  1
loop_
_geom_bond_atom_site_label_1
_geom_bond_atom_site_label_2
_geom_bond_distance
_geom_bond_site_symmetry_2
K0 Se13 3.331365 1_555
K0 Se2 3.349576 1_555
K0 Se15 3.375892 1_555
K0 Se4 3.492571 1_555
K0 Se10 3.609427 1_555
K0 Se17 3.860496 1_555
K1 Se14 3.297983 1_556
K1 Se3 3.425775 1_555
K1 Se12 3.455277 1_555
K1 Se5 3.539008 1_555
K1 Se16 3.703556 1_565
K1 Se11 3.780860 1_556
K1 Se8 3.842620 1_555
K2 Se15 3.295754 1_555
K2 Se0 3.352233 1_555
K2 Se13 3.372786 1_555
K2 Se6 3.506034 1_555
K2 Se11 3.791025 1_555
K2 Se8 3.873051 1_555
K3 Se14 3.255539 1_545
K3 Se1 3.379479 1_555
K3 Se7 3.552044 1_555
K3 Se9 3.797480 1_554
K3 Se10 3.798734 1_555
K3 Se12 3.813561 1_544
K4 Se8 3.354606 1_555
K4 Se5 3.419045 1_655
K4 Se12 3.483876 1_555
K4 Se3 3.586649 1_555
K4 Se0 3.596919 1_555
K4 Se17 3.639326 1_555
K4 Se4 3.800826 1_565
K5 O0 2.633982 1_555
K5 Se9 3.399796 1_555
K5 Se2 3.429232 1_555
K5 Se4 3.530528 1_455
K5 Se5 3.786083 1_555
K5 Se16 3.849359 1_555
K6 Se14 3.368939 1_545
K6 Se1 3.396431 1_555
K6 Se10 3.571562 1_555
K6 Se7 3.645512 1_455
K6 Se6 3.867424 1_545
K7 Se15 3.394166 1_555
K7 Se0 3.396766 1_555
K7 Se11 3.533629 1_555
K7 Se6 3.587478 1_655
K7 Se7 3.822178 1_555
K7 Se18 3.869360 1_555
K8 Se2 3.238243 1_655
K8 Se15 3.260468 1_555
K8 Se10 3.532714 1_555
K8 Se4 3.539713 1_555
K8 Se7 3.563579 1_555
K9 Se14 3.259515 1_555
K9 Se3 3.310551 1_454
K9 Se6 3.545235 1_555
K9 Se11 3.548362 1_555
K9 Se5 3.577552 1_554
K10 O0 2.614408 1_555
K10 Se0 3.272646 1_455
K10 Se6 3.490197 1_555
K10 Se5 3.579678 1_555
K10 Se8 3.622250 1_555
K11 Se1 3.288834 1_656
K11 Se4 3.425321 1_555
K11 Se9 3.500577 1_555
K11 Se12 3.532180 1_545
K11 Se7 3.651734 1_556
Ag0 Se0 2.735654 1_555
Ag0 Se10 2.765670 1_565
Ag0 Se8 2.767417 1_555
Ag0 Se4 2.768036 1_565
Ag0 K4 3.501803 1_555
Ag1 Se1 2.701943 1_556
Ag1 Se11 2.773916 1_556
Ag1 Se9 2.782197 1_555
Ag1 Se5 2.795074 1_555
Ag2 Se2 2.711569 1_555
Ag2 Se6 2.731009 1_545
Ag2 Se10 2.774050 1_555
Ag2 Se8 2.880326 1_545
Ag3 Se3 2.713439 1_554
Ag3 Se7 2.729890 1_555
Ag3 Se11 2.760858 1_555
Ag3 Se9 2.850989 1_554
Ag3 K7 3.689107 1_555
As0 Se16 2.383559 1_555
As0 Se8 2.431974 1_545
As0 Se12 3.082694 1_545
As0 K0 3.483586 1_555
As0 K11 3.763167 1_555
As1 Se9 2.426485 1_555
As1 Se17 2.440823 1_555
As1 Se13 2.487550 1_555
As1 K1 3.619930 1_555
As2 Se14 2.379449 1_555
As2 Se10 2.439418 1_565
As2 Se18 2.453468 1_555
As2 K2 3.490324 1_555
As3 Se15 2.378071 1_555
As3 Se11 2.444060 1_555
As3 Se19 2.474608 1_555
As3 K3 3.569928 1_555
As4 Se2 2.381321 1_555
As4 Se4 2.431667 1_455
As4 Se16 2.561471 1_555
As5 Se3 2.384950 1_555
As5 Se5 2.419570 1_655
As5 Se17 2.533734 1_555
As5 K11 3.551952 1_555
As6 Se0 2.400133 1_555
As6 Se6 2.439666 1_655
As6 Se18 2.506343 1_555
As6 K8 3.724379 1_565
As7 Se1 2.390963 1_555
As7 Se7 2.441009 1_455
As7 Se19 2.485657 1_555
As7 K9 3.669965 1_555
C0 Se12 1.717266 1_545
C0 K11 2.874688 1_555
C0 K6 3.191260 1_656
C0 K4 3.521852 1_545
O0 Se13 1.765871 1_555
