# generated using pymatgen
data_Zn(GaS2)2
_symmetry_space_group_name_H-M   'P 1'
_cell_length_a   12.63204599
_cell_length_b   12.63204599
_cell_length_c   12.63204594
_cell_angle_alpha   16.96964675
_cell_angle_beta   16.96964675
_cell_angle_gamma   16.96964708
_symmetry_Int_Tables_number   1
_chemical_formula_structural   Zn(GaS2)2
_chemical_formula_sum   'Zn1 Ga2 S4'
_cell_volume   149.78855040
_cell_formula_units_Z   1
loop_
 _symmetry_equiv_pos_site_id
 _symmetry_equiv_pos_as_xyz
  1  'x, y, z'
loop_
 _atom_site_type_symbol
 _atom_site_label
 _atom_site_symmetry_multiplicity
 _atom_site_fract_x
 _atom_site_fract_y
 _atom_site_fract_z
 _atom_site_occupancy
  Zn  Zn0  1  0.23100700  0.23100700  0.23100700  1
  Ga  Ga0  1  0.99873200  0.99873200  0.99873200  1
  Ga  Ga1  1  0.76490000  0.76490000  0.76490000  1
  S  S0  1  0.88006100  0.88006100  0.88006100  1
  S  S1  1  0.12399600  0.12399600  0.12399600  1
  S  S2  1  0.30113500  0.30113500  0.30113500  1
  S  S3  1  0.70416900  0.70416900  0.70416900  1
loop_
_geom_bond_atom_site_label_1
_geom_bond_atom_site_label_2
_geom_bond_distance
_geom_bond_site_symmetry_2
Ga0 S2 2.442504 1_665
Ga0 S2 2.442505 1_656
Ga0 S2 2.442505 1_566
Ga0 S3 2.593804 1_556
Ga0 S3 2.593804 1_565
Ga0 S3 2.593804 1_655
Ga1 S3 2.267822 1_555
Ga1 S1 2.357393 1_665
Ga1 S1 2.357393 1_566
Ga1 S1 2.357393 1_656
S0 Zn0 2.250413 1_665
S0 Zn0 2.250413 1_566
S0 Zn0 2.250413 1_656
S2 Zn0 2.618726 1_555
