# generated using pymatgen
data_NbCr3(CuS4)2
_symmetry_space_group_name_H-M   'P 1'
_cell_length_a   7.08135300
_cell_length_b   5.72584900
_cell_length_c   12.03479510
_cell_angle_alpha   89.47040572
_cell_angle_beta   90.00000000
_cell_angle_gamma   90.00000000
_symmetry_Int_Tables_number   1
_chemical_formula_structural   NbCr3(CuS4)2
_chemical_formula_sum   'Nb2 Cr6 Cu4 S16'
_cell_volume   487.95107934
_cell_formula_units_Z   2
loop_
 _symmetry_equiv_pos_site_id
 _symmetry_equiv_pos_as_xyz
  1  'x, y, z'
loop_
 _atom_site_type_symbol
 _atom_site_label
 _atom_site_symmetry_multiplicity
 _atom_site_fract_x
 _atom_site_fract_y
 _atom_site_fract_z
 _atom_site_occupancy
  Nb  Nb0  1  0.75000000  0.47825800  0.74904300  1
  Nb  Nb1  1  0.25000000  0.52174200  0.25095700  1
  Cr  Cr0  1  0.00000000  0.50000000  0.00000000  1
  Cr  Cr1  1  0.00000000  0.00000000  0.50000000  1
  Cr  Cr2  1  0.50000000  0.00000000  0.50000000  1
  Cr  Cr3  1  0.50000000  0.50000000  0.00000000  1
  Cr  Cr4  1  0.25000000  0.98286700  0.75682700  1
  Cr  Cr5  1  0.75000000  0.01713300  0.24317300  1
  Cu  Cu0  1  0.75000000  0.10806700  0.90593600  1
  Cu  Cu1  1  0.25000000  0.89193300  0.09406400  1
  Cu  Cu2  1  0.25000000  0.59365000  0.59239700  1
  Cu  Cu3  1  0.75000000  0.40635000  0.40760300  1
  S  S0  1  0.01356000  0.26015700  0.83207600  1
  S  S1  1  0.98644000  0.73984300  0.16792400  1
  S  S2  1  0.99483800  0.76962500  0.66954400  1
  S  S3  1  0.00516200  0.23037500  0.33045600  1
  S  S4  1  0.49483800  0.23037500  0.33045600  1
  S  S5  1  0.50516200  0.76962500  0.66954400  1
  S  S6  1  0.51356000  0.73984300  0.16792400  1
  S  S7  1  0.48644000  0.26015700  0.83207600  1
  S  S8  1  0.25000000  0.73515800  0.91835000  1
  S  S9  1  0.75000000  0.26484200  0.08165000  1
  S  S10  1  0.75000000  0.23920400  0.58308600  1
  S  S11  1  0.25000000  0.76079600  0.41691400  1
  S  S12  1  0.75000000  0.71915000  0.91975300  1
  S  S13  1  0.25000000  0.28085000  0.08024700  1
  S  S14  1  0.25000000  0.20424500  0.58763500  1
  S  S15  1  0.75000000  0.79575500  0.41236500  1
loop_
_geom_bond_atom_site_label_1
_geom_bond_atom_site_label_2
_geom_bond_distance
_geom_bond_site_symmetry_2
Nb0 S10 2.431698 1_555
Nb0 S7 2.453231 1_555
Nb0 S0 2.453231 1_655
Nb0 S12 2.485093 1_555
Nb0 S5 2.583637 1_555
Nb0 S2 2.583637 1_555
Nb1 S11 2.431698 1_555
Nb1 S6 2.453231 1_555
Nb1 S1 2.453231 1_455
Nb1 S13 2.485093 1_555
Nb1 S3 2.583637 1_555
Nb1 S4 2.583637 1_555
Cr0 S12 2.370433 1_454
Cr0 S13 2.370433 1_555
Cr0 S8 2.426567 1_554
Cr0 S9 2.426567 1_455
Cr0 S0 2.455739 1_554
Cr0 S1 2.455739 1_455
Cr1 S14 2.374216 1_555
Cr1 S15 2.374216 1_445
Cr1 S3 2.419696 1_555
Cr1 S2 2.419696 1_445
Cr1 S11 2.456663 1_545
Cr1 S10 2.456663 1_455
Cr2 S14 2.374216 1_555
Cr2 S15 2.374216 1_545
Cr2 S4 2.419696 1_555
Cr2 S5 2.419696 1_545
Cr2 S11 2.456663 1_545
Cr2 S10 2.456663 1_555
Cr3 S12 2.370433 1_554
Cr3 S13 2.370433 1_555
Cr3 S8 2.426567 1_554
Cr3 S9 2.426567 1_555
Cr3 S7 2.455739 1_554
Cr3 S6 2.455739 1_555
Cr4 S14 2.388538 1_565
Cr4 S8 2.395718 1_555
Cr4 S2 2.425448 1_455
Cr4 S5 2.425448 1_555
Cr4 S7 2.484128 1_565
Cr4 S0 2.484128 1_565
Cr5 S15 2.388538 1_545
Cr5 S9 2.395718 1_555
Cr5 S3 2.425448 1_655
Cr5 S4 2.425448 1_555
Cr5 S1 2.484128 1_545
Cr5 S6 2.484128 1_545
Cu0 S12 2.231547 1_545
Cu0 S7 2.239976 1_555
Cu0 S0 2.239976 1_655
Cu0 S9 2.304948 1_556
Cu1 S13 2.231547 1_565
Cu1 S6 2.239976 1_555
Cu1 S1 2.239976 1_455
Cu1 S8 2.304948 1_554
Cu2 S14 2.230940 1_555
Cu2 S5 2.271440 1_555
Cu2 S2 2.271440 1_455
Cu2 S11 2.310566 1_555
Cu3 S15 2.230940 1_555
Cu3 S3 2.271440 1_655
Cu3 S4 2.271440 1_555
Cu3 S10 2.310566 1_555
