# generated using pymatgen
data_ZnFeCu4(GeS4)2
_symmetry_space_group_name_H-M   'P 1'
_cell_length_a   6.51283939
_cell_length_b   6.51283939
_cell_length_c   7.54350700
_cell_angle_alpha   90.00000000
_cell_angle_beta   90.00000000
_cell_angle_gamma   109.25926729
_symmetry_Int_Tables_number   1
_chemical_formula_structural   ZnFeCu4(GeS4)2
_chemical_formula_sum   'Zn1 Fe1 Cu4 Ge2 S8'
_cell_volume   302.06641740
_cell_formula_units_Z   1
loop_
 _symmetry_equiv_pos_site_id
 _symmetry_equiv_pos_as_xyz
  1  'x, y, z'
loop_
 _atom_site_type_symbol
 _atom_site_label
 _atom_site_symmetry_multiplicity
 _atom_site_fract_x
 _atom_site_fract_y
 _atom_site_fract_z
 _atom_site_occupancy
  Zn  Zn0  1  0.49990700  0.50009300  0.50000000  1
  Fe  Fe0  1  0.99984300  0.00015700  0.00000000  1
  Cu  Cu0  1  0.50077200  0.00064200  0.24933600  1
  Cu  Cu1  1  0.99935800  0.49922800  0.75066400  1
  Cu  Cu2  1  0.99935800  0.49922800  0.24933600  1
  Cu  Cu3  1  0.50077200  0.00064200  0.75066400  1
  Ge  Ge0  1  0.99846100  0.00153900  0.50000000  1
  Ge  Ge1  1  0.50153600  0.49846400  0.00000000  1
  S  S0  1  0.87425800  0.12574200  0.75077200  1
  S  S1  1  0.37214300  0.62785700  0.24273900  1
  S  S2  1  0.87425800  0.12574200  0.24922800  1
  S  S3  1  0.37214300  0.62785700  0.75726100  1
  S  S4  1  0.87491600  0.62494300  0.00000000  1
  S  S5  1  0.37208000  0.11486000  0.50000000  1
  S  S6  1  0.37505700  0.12508400  0.00000000  1
  S  S7  1  0.88514000  0.62792000  0.50000000  1
loop_
_geom_bond_atom_site_label_1
_geom_bond_atom_site_label_2
_geom_bond_distance
_geom_bond_site_symmetry_2
Fe0 S2 2.305188 1_555
Fe0 S0 2.305188 1_554
Fe0 S4 2.306961 1_545
Fe0 S6 2.306961 1_655
Cu0 S5 2.289675 1_555
Cu0 S1 2.292851 1_545
Cu0 S2 2.296357 1_555
Cu0 S6 2.302749 1_555
Cu1 S7 2.289675 1_555
Cu1 S3 2.292851 1_655
Cu1 S0 2.296357 1_555
Cu1 S4 2.302749 1_556
Cu2 S7 2.289675 1_555
Cu2 S1 2.292851 1_655
Cu2 S2 2.296357 1_555
Cu2 S4 2.302749 1_555
Cu3 S5 2.289675 1_555
Cu3 S3 2.292851 1_545
Cu3 S0 2.296357 1_555
Cu3 S6 2.302749 1_556
Ge0 S7 2.298049 1_545
Ge0 S5 2.298049 1_655
Ge0 S0 2.306269 1_555
Ge0 S2 2.306269 1_555
Ge1 S1 2.289491 1_555
Ge1 S3 2.289491 1_554
Ge1 S6 2.295774 1_555
Ge1 S4 2.295774 1_555
S1 Zn0 2.368057 1_555
S3 Zn0 2.368057 1_555
S5 Zn0 2.368554 1_555
S7 Zn0 2.368554 1_555
