# generated using pymatgen
data_YMgAl4
_symmetry_space_group_name_H-M   'P 1'
_cell_length_a   5.52074885
_cell_length_b   5.52074885
_cell_length_c   8.91302400
_cell_angle_alpha   90.00000000
_cell_angle_beta   90.00000000
_cell_angle_gamma   120.00001021
_symmetry_Int_Tables_number   1
_chemical_formula_structural   YMgAl4
_chemical_formula_sum   'Y2 Mg2 Al8'
_cell_volume   235.26192411
_cell_formula_units_Z   2
loop_
 _symmetry_equiv_pos_site_id
 _symmetry_equiv_pos_as_xyz
  1  'x, y, z'
loop_
 _atom_site_type_symbol
 _atom_site_label
 _atom_site_symmetry_multiplicity
 _atom_site_fract_x
 _atom_site_fract_y
 _atom_site_fract_z
 _atom_site_occupancy
  Y  Y0  1  0.66666700  0.33333300  0.93005600  1
  Y  Y1  1  0.33333300  0.66666700  0.06994400  1
  Mg  Mg0  1  0.33333300  0.66666700  0.44103200  1
  Mg  Mg1  1  0.66666700  0.33333300  0.55896800  1
  Al  Al0  1  0.00000000  0.00000000  0.50000000  1
  Al  Al1  1  0.00000000  0.00000000  0.00000000  1
  Al  Al2  1  0.82982600  0.17017400  0.25195800  1
  Al  Al3  1  0.82982600  0.65965100  0.25195800  1
  Al  Al4  1  0.34034900  0.17017400  0.25195800  1
  Al  Al5  1  0.17017400  0.82982600  0.74804200  1
  Al  Al6  1  0.17017400  0.34034900  0.74804200  1
  Al  Al7  1  0.65965100  0.82982600  0.74804200  1
loop_
_geom_bond_atom_site_label_1
_geom_bond_atom_site_label_2
_geom_bond_distance
_geom_bond_site_symmetry_2
Y0 Y1 3.422588 1_546
Y0 Y1 3.422588 1_656
Y0 Y1 3.422597 1_556
Mg0 Y1 3.307516 1_555
Mg0 Mg1 3.356260 1_455
Mg0 Mg1 3.356260 1_565
Mg0 Mg1 3.356270 1_555
Mg1 Y0 3.307516 1_555
Al0 Al5 2.745099 1_545
Al0 Al2 2.745099 1_455
Al0 Al4 2.745102 1_555
Al0 Al6 2.745102 1_555
Al0 Al3 2.745102 1_445
Al0 Al7 2.745102 1_445
Al0 Mg1 3.230445 1_455
Al0 Mg0 3.230445 1_545
Al0 Mg1 3.230449 1_555
Al0 Mg1 3.230449 1_445
Al0 Mg0 3.230449 1_555
Al0 Mg0 3.230449 1_445
Al1 Al5 2.773286 1_544
Al1 Al2 2.773286 1_455
Al1 Al6 2.773289 1_554
Al1 Al4 2.773289 1_555
Al1 Al3 2.773289 1_445
Al1 Al7 2.773289 1_444
Al1 Y1 3.247796 1_545
Al1 Y0 3.247796 1_454
Al1 Y1 3.247800 1_555
Al1 Y1 3.247800 1_445
Al1 Y0 3.247800 1_444
Al1 Y0 3.247800 1_554
Al2 Al3 2.702280 1_555
Al2 Al4 2.702280 1_555
Al2 Al4 2.818469 1_655
Al2 Al3 2.818469 1_545
Al2 Mg1 3.149908 1_555
Al2 Y1 3.201973 1_545
Al2 Y1 3.201973 1_655
Al2 Mg0 3.234310 1_545
Al2 Mg0 3.234310 1_655
Al2 Y0 3.265878 1_554
Al3 Al4 2.702279 1_555
Al3 Al4 2.818469 1_665
Al3 Mg1 3.149908 1_555
Al3 Y1 3.201969 1_655
Al3 Y1 3.201978 1_555
Al3 Mg0 3.234305 1_655
Al3 Mg0 3.234315 1_555
Al3 Y0 3.265877 1_554
Al4 Mg1 3.149908 1_555
Al4 Y1 3.201969 1_545
Al4 Y1 3.201978 1_555
Al4 Mg0 3.234305 1_545
Al4 Mg0 3.234315 1_555
Al4 Y0 3.265877 1_554
Al5 Al7 2.702280 1_555
Al5 Al6 2.702280 1_555
Al5 Al6 2.818469 1_565
Al5 Al7 2.818469 1_455
Al5 Mg0 3.149908 1_555
Al5 Y0 3.201973 1_455
Al5 Y0 3.201973 1_565
Al5 Mg1 3.234310 1_455
Al5 Mg1 3.234310 1_565
Al5 Y1 3.265878 1_556
Al6 Al7 2.702279 1_555
Al6 Al7 2.818469 1_445
Al6 Mg0 3.149908 1_555
Al6 Y0 3.201969 1_455
Al6 Y0 3.201978 1_555
Al6 Mg1 3.234305 1_455
Al6 Mg1 3.234315 1_555
Al6 Y1 3.265877 1_556
Al7 Mg0 3.149908 1_555
Al7 Y0 3.201969 1_565
Al7 Y0 3.201978 1_555
Al7 Mg1 3.234305 1_565
Al7 Mg1 3.234315 1_555
Al7 Y1 3.265877 1_556
