# generated using pymatgen
data_K2Hf2O5
_symmetry_space_group_name_H-M   'P 1'
_cell_length_a   5.78848146
_cell_length_b   8.66936902
_cell_length_c   10.66755146
_cell_angle_alpha   90.00000000
_cell_angle_beta   90.00000000
_cell_angle_gamma   90.00000000
_symmetry_Int_Tables_number   1
_chemical_formula_structural   K2Hf2O5
_chemical_formula_sum   'K8 Hf8 O20'
_cell_volume   535.32420744
_cell_formula_units_Z   4
loop_
 _symmetry_equiv_pos_site_id
 _symmetry_equiv_pos_as_xyz
  1  'x, y, z'
loop_
 _atom_site_type_symbol
 _atom_site_label
 _atom_site_symmetry_multiplicity
 _atom_site_fract_x
 _atom_site_fract_y
 _atom_site_fract_z
 _atom_site_occupancy
  K  K0  1  0.43245394  0.07559057  0.66689232  1
  K  K1  1  0.06754606  0.07559057  0.33310768  1
  K  K2  1  0.43245394  0.42440943  0.83310768  1
  K  K3  1  0.06754606  0.42440943  0.16689232  1
  K  K4  1  0.56754606  0.92440943  0.33310768  1
  K  K5  1  0.93245394  0.92440943  0.66689232  1
  K  K6  1  0.56754606  0.57559057  0.16689232  1
  K  K7  1  0.93245394  0.57559057  0.83310768  1
  Hf  Hf0  1  0.96703345  0.15948952  0.92355839  1
  Hf  Hf1  1  0.53296655  0.15948952  0.07644161  1
  Hf  Hf2  1  0.96703345  0.34051048  0.57644161  1
  Hf  Hf3  1  0.53296655  0.34051048  0.42355839  1
  Hf  Hf4  1  0.03296655  0.84051048  0.07644161  1
  Hf  Hf5  1  0.46703345  0.84051048  0.92355839  1
  Hf  Hf6  1  0.03296655  0.65948952  0.42355839  1
  Hf  Hf7  1  0.46703345  0.65948952  0.57644161  1
  O  O0  1  0.12780470  0.55065748  0.60630340  1
  O  O1  1  0.37219530  0.55065748  0.39369660  1
  O  O2  1  0.12780470  0.94934252  0.89369660  1
  O  O3  1  0.37219530  0.94934252  0.10630340  1
  O  O4  1  0.87219530  0.44934252  0.39369660  1
  O  O5  1  0.62780470  0.44934252  0.60630340  1
  O  O6  1  0.87219530  0.05065748  0.10630340  1
  O  O7  1  0.62780470  0.05065748  0.89369660  1
  O  O8  1  0.25000000  0.25296750  -0.00000000  1
  O  O9  1  0.25000000  0.24703250  0.50000000  1
  O  O10  1  0.75000000  0.74703250  -0.00000000  1
  O  O11  1  0.75000000  0.75296750  0.50000000  1
  O  O12  1  0.25000000  0.67605085  -0.00000000  1
  O  O13  1  0.25000000  0.82394915  0.50000000  1
  O  O14  1  0.75000000  0.32394915  -0.00000000  1
  O  O15  1  0.75000000  0.17605085  0.50000000  1
  O  O16  1  0.00617642  0.25000000  0.75000000  1
  O  O17  1  0.49382358  0.25000000  0.25000000  1
  O  O18  1  0.99382358  0.75000000  0.25000000  1
  O  O19  1  0.50617642  0.75000000  0.75000000  1
loop_
_geom_bond_atom_site_label_1
_geom_bond_atom_site_label_2
_geom_bond_distance
_geom_bond_site_symmetry_2
K0 O9 2.548345 1_555
K0 O7 2.679387 1_555
K0 O15 2.703099 1_555
K0 O19 2.989235 1_545
K0 O13 3.007367 1_545
K0 O16 3.026671 1_555
K0 O2 3.187697 1_545
K1 O9 2.548345 1_555
K1 O6 2.679387 1_455
K1 O15 2.703099 1_455
K1 O18 2.989235 1_445
K1 O13 3.007367 1_545
K1 O17 3.026671 1_555
K1 O3 3.187697 1_545
K2 O8 2.548345 1_556
K2 O5 2.679387 1_555
K2 O14 2.703099 1_556
K2 O19 2.989235 1_555
K2 O12 3.007367 1_556
K2 O16 3.026671 1_555
K2 O0 3.187697 1_555
K3 O8 2.548345 1_555
K3 O4 2.679387 1_455
K3 O14 2.703099 1_455
K3 O18 2.989235 1_455
K3 O12 3.007367 1_555
K3 O17 3.026671 1_555
K3 O1 3.187697 1_555
K4 O11 2.548345 1_555
K4 O3 2.679387 1_555
K4 O13 2.703099 1_555
K4 O17 2.989235 1_565
K4 O15 3.007367 1_565
K4 O18 3.026671 1_555
K4 O6 3.187697 1_565
K5 O11 2.548345 1_555
K5 O2 2.679387 1_655
K5 O13 2.703099 1_655
K5 O16 2.989235 1_665
K5 O15 3.007367 1_565
K5 O19 3.026671 1_555
K5 O7 3.187697 1_565
K6 O10 2.548345 1_555
K6 O1 2.679387 1_555
K6 O12 2.703099 1_555
K6 O17 2.989235 1_555
K6 O14 3.007367 1_555
K6 O18 3.026671 1_555
K6 O4 3.187697 1_555
K7 O10 2.548345 1_556
K7 O0 2.679387 1_655
K7 O12 2.703099 1_656
K7 O16 2.989235 1_655
K7 O14 3.007367 1_556
K7 O19 3.026671 1_555
K7 O5 3.187697 1_555
Hf0 O8 2.001140 1_656
Hf0 O16 2.023582 1_655
Hf0 O14 2.067854 1_556
Hf0 O2 2.070420 1_645
Hf0 O7 2.201699 1_555
Hf0 O6 2.234254 1_556
Hf1 O8 2.001140 1_555
Hf1 O17 2.023582 1_555
Hf1 O14 2.067854 1_555
Hf1 O3 2.070420 1_545
Hf1 O6 2.201699 1_555
Hf1 O7 2.234254 1_554
Hf2 O9 2.001140 1_655
Hf2 O16 2.023582 1_655
Hf2 O15 2.067854 1_555
Hf2 O0 2.070420 1_655
Hf2 O5 2.201699 1_555
Hf2 O4 2.234254 1_555
Hf3 O9 2.001140 1_555
Hf3 O17 2.023582 1_555
Hf3 O15 2.067854 1_555
Hf3 O1 2.070420 1_555
Hf3 O4 2.201699 1_555
Hf3 O5 2.234254 1_555
Hf4 O10 2.001140 1_455
Hf4 O18 2.023582 1_455
Hf4 O12 2.067854 1_555
Hf4 O6 2.070420 1_465
Hf4 O3 2.201699 1_555
Hf4 O2 2.234254 1_554
Hf5 O10 2.001140 1_556
Hf5 O19 2.023582 1_555
Hf5 O12 2.067854 1_556
Hf5 O7 2.070420 1_565
Hf5 O2 2.201699 1_555
Hf5 O3 2.234254 1_556
Hf6 O11 2.001140 1_455
Hf6 O18 2.023582 1_455
Hf6 O13 2.067854 1_555
Hf6 O4 2.070420 1_455
Hf6 O1 2.201699 1_555
Hf6 O0 2.234254 1_555
Hf7 O11 2.001140 1_555
Hf7 O19 2.023582 1_555
Hf7 O13 2.067854 1_555
Hf7 O5 2.070420 1_555
Hf7 O0 2.201699 1_555
Hf7 O1 2.234254 1_555
