# generated using pymatgen
data_Nb2SiTe4
_symmetry_space_group_name_H-M   'P 1'
_cell_length_a   8.05420099
_cell_length_b   6.39387081
_cell_length_c   7.87333192
_cell_angle_alpha   97.14535759
_cell_angle_beta   104.57194105
_cell_angle_gamma   89.97959760
_symmetry_Int_Tables_number   1
_chemical_formula_structural   Nb2SiTe4
_chemical_formula_sum   'Nb4 Si2 Te8'
_cell_volume   389.16482449
_cell_formula_units_Z   2
loop_
 _symmetry_equiv_pos_site_id
 _symmetry_equiv_pos_as_xyz
  1  'x, y, z'
loop_
 _atom_site_type_symbol
 _atom_site_label
 _atom_site_symmetry_multiplicity
 _atom_site_fract_x
 _atom_site_fract_y
 _atom_site_fract_z
 _atom_site_occupancy
  Nb  Nb0  1  0.08624600  0.10335000  0.00017600  1
  Nb  Nb1  1  0.41375400  0.89665000  0.99982400  1
  Nb  Nb2  1  0.58599300  0.39650400  0.99987700  1
  Nb  Nb3  1  0.91400700  0.60349600  0.00012300  1
  Si  Si0  1  0.25000000  0.50000000  0.00000000  1
  Si  Si1  1  0.75000000  0.00000000  0.00000000  1
  Te  Te0  1  0.08165100  0.74049900  0.75165800  1
  Te  Te1  1  0.20416800  0.81646000  0.24840300  1
  Te  Te2  1  0.29583200  0.18354000  0.75159700  1
  Te  Te3  1  0.41834900  0.25950100  0.24834200  1
  Te  Te4  1  0.58165300  0.68353900  0.75154200  1
  Te  Te5  1  0.70386800  0.75899700  0.24801900  1
  Te  Te6  1  0.79613200  0.24100300  0.75198100  1
  Te  Te7  1  0.91834700  0.31646100  0.24845800  1
loop_
_geom_bond_atom_site_label_1
_geom_bond_atom_site_label_2
_geom_bond_distance
_geom_bond_site_symmetry_2
Nb0 Si1 2.787496 1_455
Nb0 Te1 2.836021 1_545
Nb0 Te0 2.836675 1_544
Nb0 Te7 2.858823 1_455
Nb0 Si0 2.859308 1_555
Nb0 Te6 2.860401 1_454
Nb0 Te2 2.975816 1_554
Nb0 Te3 2.975897 1_555
Nb1 Si1 2.787496 1_566
Nb1 Te2 2.836021 1_565
Nb1 Te3 2.836675 1_566
Nb1 Te4 2.858823 1_555
Nb1 Si0 2.859308 1_556
Nb1 Te5 2.860401 1_556
Nb1 Te1 2.975816 1_556
Nb1 Te0 2.975897 1_555
Nb2 Si0 2.785868 1_556
Nb2 Te5 2.834067 1_556
Nb2 Te4 2.837353 1_555
Nb2 Si1 2.858268 1_556
Nb2 Te3 2.858962 1_556
Nb2 Te2 2.859772 1_555
Nb2 Te6 2.973343 1_555
Nb2 Te7 2.978236 1_556
Nb3 Si0 2.785868 1_655
Nb3 Te6 2.834067 1_554
Nb3 Te7 2.837353 1_555
Nb3 Si1 2.858268 1_565
Nb3 Te0 2.858962 1_654
Nb3 Te1 2.859772 1_655
Nb3 Te5 2.973343 1_555
Nb3 Te4 2.978236 1_554
Si0 Te1 2.726481 1_555
Si0 Te2 2.726481 1_554
Si0 Te0 2.727388 1_554
Si0 Te3 2.727388 1_555
Si1 Te5 2.727601 1_545
Si1 Te6 2.727601 1_554
Si1 Te4 2.727992 1_544
Si1 Te7 2.727992 1_555
