# generated using pymatgen
data_BaSrEuCu3O7
_symmetry_space_group_name_H-M   'P 1'
_cell_length_a   3.80814700
_cell_length_b   3.91469800
_cell_length_c   11.77830300
_cell_angle_alpha   90.00000000
_cell_angle_beta   90.00000000
_cell_angle_gamma   90.00000000
_symmetry_Int_Tables_number   1
_chemical_formula_structural   BaSrEuCu3O7
_chemical_formula_sum   'Ba1 Sr1 Eu1 Cu3 O7'
_cell_volume   175.58794289
_cell_formula_units_Z   1
loop_
 _symmetry_equiv_pos_site_id
 _symmetry_equiv_pos_as_xyz
  1  'x, y, z'
loop_
 _atom_site_type_symbol
 _atom_site_label
 _atom_site_symmetry_multiplicity
 _atom_site_fract_x
 _atom_site_fract_y
 _atom_site_fract_z
 _atom_site_occupancy
  Ba  Ba0  1  0.50000000  0.50000000  0.82159400  1
  Sr  Sr0  1  0.50000000  0.50000000  0.18081900  1
  Eu  Eu0  1  0.50000000  0.50000000  0.49673000  1
  Cu  Cu0  1  0.00000000  0.00000000  0.65098400  1
  Cu  Cu1  1  0.00000000  0.00000000  0.34235200  1
  Cu  Cu2  1  0.00000000  0.00000000  0.00389400  1
  O  O0  1  0.00000000  0.00000000  0.84472100  1
  O  O1  1  0.00000000  0.00000000  0.16264500  1
  O  O2  1  0.50000000  0.00000000  0.62524200  1
  O  O3  1  0.50000000  0.00000000  0.36792700  1
  O  O4  1  0.00000000  0.50000000  0.62691700  1
  O  O5  1  0.00000000  0.50000000  0.36467600  1
  O  O6  1  0.00000000  0.50000000  0.01149800  1
loop_
_geom_bond_atom_site_label_1
_geom_bond_atom_site_label_2
_geom_bond_distance
_geom_bond_site_symmetry_2
Ba0 O0 2.744251 1_555
Ba0 O0 2.744251 1_565
Ba0 O0 2.744251 1_665
Ba0 O0 2.744251 1_655
Ba0 O6 2.937436 1_656
Ba0 O6 2.937436 1_556
Ba0 O4 2.980467 1_555
Ba0 O4 2.980467 1_655
Ba0 O2 3.029813 1_555
Ba0 O2 3.029813 1_565
Eu0 O4 2.444740 1_555
Eu0 O4 2.444740 1_655
Eu0 O5 2.458593 1_555
Eu0 O5 2.458593 1_655
Eu0 O2 2.474341 1_555
Eu0 O2 2.474341 1_565
Eu0 O3 2.476439 1_555
Eu0 O3 2.476439 1_565
Cu0 O2 1.928062 1_455
Cu0 O2 1.928062 1_555
Cu0 O4 1.977769 1_555
Cu0 O4 1.977769 1_545
Cu0 O0 2.281893 1_555
Cu1 O3 1.927754 1_455
Cu1 O3 1.927754 1_555
Cu1 O5 1.974931 1_545
Cu1 O5 1.974931 1_555
Cu1 O1 2.116643 1_555
Cu2 O1 1.869817 1_555
Cu2 O0 1.874788 1_554
Cu2 O6 1.959397 1_545
Cu2 O6 1.959397 1_555
O1 Sr0 2.739075 1_555
O1 Sr0 2.739075 1_445
O1 Sr0 2.739075 1_545
O1 Sr0 2.739075 1_455
O3 Sr0 2.947544 1_555
O3 Sr0 2.947544 1_545
O5 Sr0 2.883572 1_455
O5 Sr0 2.883572 1_555
O6 Sr0 2.757315 1_455
O6 Sr0 2.757315 1_555
