# generated using pymatgen
data_LiTb4Al2(FeO6)2
_symmetry_space_group_name_H-M   'P 1'
_cell_length_a   5.45027533
_cell_length_b   5.66004639
_cell_length_c   8.43316201
_cell_angle_alpha   97.44752986
_cell_angle_beta   82.44052979
_cell_angle_gamma   95.77399334
_symmetry_Int_Tables_number   1
_chemical_formula_structural   LiTb4Al2(FeO6)2
_chemical_formula_sum   'Li1 Tb4 Al2 Fe2 O12'
_cell_volume   254.79090856
_cell_formula_units_Z   1
loop_
 _symmetry_equiv_pos_site_id
 _symmetry_equiv_pos_as_xyz
  1  'x, y, z'
loop_
 _atom_site_type_symbol
 _atom_site_label
 _atom_site_symmetry_multiplicity
 _atom_site_fract_x
 _atom_site_fract_y
 _atom_site_fract_z
 _atom_site_occupancy
  Li  Li0  1  0.78510800  0.48764300  0.33725400  1
  Tb  Tb0  1  0.42869600  0.61108500  0.16953200  1
  Tb  Tb1  1  0.95092200  0.06426500  0.21848000  1
  Tb  Tb2  1  0.49653900  0.44139900  0.73918600  1
  Tb  Tb3  1  0.04240700  0.92460100  0.77862900  1
  Al  Al0  1  0.07055700  0.41262300  0.53469500  1
  Al  Al1  1  0.50154500  0.03240100  0.99009900  1
  Fe  Fe0  1  0.97660900  0.49431400  0.96366400  1
  Fe  Fe1  1  0.53270400  0.96561900  0.53089400  1
  O  O0  1  0.33526800  0.98232300  0.19607300  1
  O  O1  1  0.12138900  0.44559000  0.31983400  1
  O  O2  1  0.63621400  0.03749300  0.76107900  1
  O  O3  1  0.89867500  0.53270600  0.72852100  1
  O  O4  1  0.77207700  0.84173900  0.00998100  1
  O  O5  1  0.75490400  0.25324900  0.47954900  1
  O  O6  1  0.23530600  0.17479200  0.59124600  1
  O  O7  1  0.29544100  0.71305600  0.92834900  1
  O  O8  1  0.24623000  0.22491300  0.94999800  1
  O  O9  1  0.31308100  0.67638600  0.58848100  1
  O  O10  1  0.70088200  0.78549600  0.34717100  1
  O  O11  1  0.70544800  0.31497400  0.08728700  1
loop_
_geom_bond_atom_site_label_1
_geom_bond_atom_site_label_2
_geom_bond_distance
_geom_bond_site_symmetry_2
Li0 O10 1.780146 1_555
Li0 O1 1.856165 1_655
Li0 O5 1.882541 1_555
Li0 O11 2.282261 1_555
Al0 O1 1.827547 1_555
Al0 O6 1.835236 1_555
Al0 O3 1.857036 1_455
Al0 O9 1.940846 1_555
Al0 O5 1.944031 1_455
Al1 O0 1.892252 1_546
Al1 O8 1.939704 1_555
Al1 O4 1.949071 1_546
Al1 O2 1.976592 1_555
Al1 O11 2.001749 1_556
Al1 O7 2.074001 1_545
Fe0 O11 1.966860 1_556
Fe0 O7 2.041511 1_655
Fe0 O3 2.124105 1_555
Fe0 O8 2.204215 1_655
Fe0 O4 2.321536 1_556
Fe1 O10 1.919633 1_555
Fe1 O5 1.988111 1_565
Fe1 O9 2.001884 1_555
Fe1 O2 2.071044 1_565
Fe1 O6 2.073863 1_565
O0 Tb1 2.169696 1_465
O0 Tb0 2.188130 1_555
O1 Tb0 2.173220 1_555
O1 Tb1 2.362063 1_455
O2 Tb3 2.393061 1_645
O2 Tb2 2.517253 1_555
O3 Tb2 2.193450 1_555
O3 Tb3 2.281861 1_655
O4 Tb1 2.293025 1_565
O4 Tb3 2.353538 1_654
O4 Tb0 2.513678 1_555
O5 Tb1 2.476554 1_555
O5 Tb2 2.607146 1_555
O6 Tb2 2.325472 1_555
O6 Tb3 2.334782 1_545
O7 Tb2 2.313759 1_555
O7 Tb0 2.403084 1_556
O7 Tb3 2.472265 1_555
O8 Tb3 2.370135 1_545
O8 Tb2 2.472536 1_555
O8 Tb1 2.797159 1_456
O8 Tb0 2.862185 1_556
O9 Tb2 2.328987 1_555
O9 Tb3 2.435586 1_555
O10 Tb1 2.268639 1_565
O10 Tb0 2.307839 1_555
O11 Tb0 2.344630 1_555
O11 Tb1 2.491209 1_555
