# generated using pymatgen
data_SiNi2
_symmetry_space_group_name_H-M   'P 1'
_cell_length_a   3.69732692
_cell_length_b   4.92873769
_cell_length_c   7.00206904
_cell_angle_alpha   90.00000000
_cell_angle_beta   90.00000000
_cell_angle_gamma   90.00000000
_symmetry_Int_Tables_number   1
_chemical_formula_structural   SiNi2
_chemical_formula_sum   'Si4 Ni8'
_cell_volume   127.59978624
_cell_formula_units_Z   4
loop_
 _symmetry_equiv_pos_site_id
 _symmetry_equiv_pos_as_xyz
  1  'x, y, z'
loop_
 _atom_site_type_symbol
 _atom_site_label
 _atom_site_symmetry_multiplicity
 _atom_site_fract_x
 _atom_site_fract_y
 _atom_site_fract_z
 _atom_site_occupancy
  Si  Si0  1  0.25000000  0.79079786  0.11334354  1
  Si  Si1  1  0.75000000  0.20920214  0.88665646  1
  Si  Si2  1  0.25000000  0.29079786  0.38665646  1
  Si  Si3  1  0.75000000  0.70920214  0.61334354  1
  Ni  Ni0  1  0.25000000  0.95787963  0.79275013  1
  Ni  Ni1  1  0.75000000  0.04212037  0.20724987  1
  Ni  Ni2  1  0.25000000  0.45787963  0.70724987  1
  Ni  Ni3  1  0.75000000  0.54212037  0.29275013  1
  Ni  Ni4  1  0.25000000  0.82885332  0.43954786  1
  Ni  Ni5  1  0.75000000  0.17114668  0.56045214  1
  Ni  Ni6  1  0.25000000  0.32885332  0.06045214  1
  Ni  Ni7  1  0.75000000  0.67114668  0.93954786  1
loop_
_geom_bond_atom_site_label_1
_geom_bond_atom_site_label_2
_geom_bond_distance
_geom_bond_site_symmetry_2
Ni0 Si1 2.320409 1_565
Ni0 Si1 2.320409 1_465
Ni0 Si0 2.391100 1_556
Ni0 Ni2 2.536046 1_565
Ni0 Ni2 2.536046 1_555
Ni0 Ni7 2.543882 1_555
Ni0 Ni7 2.543882 1_455
Ni0 Si3 2.549097 1_555
Ni0 Si3 2.549097 1_455
Ni0 Ni4 2.553599 1_555
Ni0 Ni6 2.618548 1_566
Ni0 Ni5 2.677343 1_565
Ni0 Ni5 2.677343 1_465
Ni1 Si0 2.320409 1_545
Ni1 Si0 2.320409 1_645
Ni1 Si1 2.391100 1_554
Ni1 Ni3 2.536046 1_545
Ni1 Ni3 2.536046 1_555
Ni1 Ni6 2.543882 1_555
Ni1 Ni6 2.543882 1_655
Ni1 Si2 2.549097 1_555
Ni1 Si2 2.549097 1_655
Ni1 Ni5 2.553599 1_555
Ni1 Ni7 2.618548 1_544
Ni1 Ni4 2.677343 1_645
Ni1 Ni4 2.677343 1_545
Ni2 Si3 2.320409 1_555
Ni2 Si3 2.320409 1_455
Ni2 Si2 2.391100 1_555
Ni2 Ni5 2.543882 1_455
Ni2 Ni5 2.543882 1_555
Ni2 Si1 2.549097 1_455
Ni2 Si1 2.549097 1_555
Ni2 Ni6 2.553599 1_556
Ni2 Ni4 2.618548 1_555
Ni2 Ni7 2.677343 1_455
Ni2 Ni7 2.677343 1_555
Ni3 Si2 2.320409 1_555
Ni3 Si2 2.320409 1_655
Ni3 Si3 2.391100 1_555
Ni3 Ni4 2.543882 1_555
Ni3 Ni4 2.543882 1_655
Ni3 Si0 2.549097 1_555
Ni3 Si0 2.549097 1_655
Ni3 Ni7 2.553599 1_554
Ni3 Ni5 2.618548 1_555
Ni3 Ni6 2.677343 1_655
Ni3 Ni6 2.677343 1_555
Ni4 Si3 2.290470 1_455
Ni4 Si3 2.290470 1_555
Ni4 Si0 2.291793 1_555
Ni4 Si2 2.306728 1_565
Ni4 Ni5 2.642059 1_465
Ni4 Ni5 2.642059 1_565
Ni4 Si2 2.677669 1_555
Ni5 Si2 2.290470 1_555
Ni5 Si2 2.290470 1_655
Ni5 Si1 2.291793 1_555
Ni5 Si3 2.306728 1_545
Ni5 Si3 2.677669 1_555
Ni6 Si1 2.290470 1_454
Ni6 Si1 2.290470 1_554
Ni6 Si2 2.291793 1_555
Ni6 Si0 2.306728 1_555
Ni6 Ni7 2.642059 1_454
Ni6 Ni7 2.642059 1_554
Ni6 Si0 2.677669 1_545
Ni7 Si0 2.290470 1_656
Ni7 Si0 2.290470 1_556
Ni7 Si3 2.291793 1_555
Ni7 Si1 2.306728 1_555
Ni7 Si1 2.677669 1_565
