# generated using pymatgen
data_TiNbOs2
_symmetry_space_group_name_H-M   'P 1'
_cell_length_a   10.29404723
_cell_length_b   10.29404723
_cell_length_c   10.29404723
_cell_angle_alpha   126.51525293
_cell_angle_beta   117.44431935
_cell_angle_gamma   86.79416693
_symmetry_Int_Tables_number   1
_chemical_formula_structural   TiNbOs2
_chemical_formula_sum   'Ti1 Nb1 Os2'
_cell_volume   740.69185818
_cell_formula_units_Z   1
loop_
 _symmetry_equiv_pos_site_id
 _symmetry_equiv_pos_as_xyz
  1  'x, y, z'
loop_
 _atom_site_type_symbol
 _atom_site_label
 _atom_site_symmetry_multiplicity
 _atom_site_fract_x
 _atom_site_fract_y
 _atom_site_fract_z
 _atom_site_occupancy
  Ti  Ti0  1  0.00000000  0.00000000  0.00000000  1
  Nb  Nb0  1  0.00000000  0.50000000  0.50000000  1
  Os  Os0  1  0.00000000  0.24979100  0.24979100  1
  Os  Os1  1  0.00000000  0.75020900  0.75020900  1
loop_
_geom_bond_atom_site_label_1
_geom_bond_atom_site_label_2
_geom_bond_distance
_geom_bond_site_symmetry_2
Nb0 Os0 2.317992 1_555
Nb0 Os1 2.317992 1_555
Os0 Ti0 2.314119 1_555
Os1 Ti0 2.314119 1_566
