# generated using pymatgen
data_TaFeN2
_symmetry_space_group_name_H-M   'P 1'
_cell_length_a   5.76454200
_cell_length_b   9.84318000
_cell_length_c   12.94034800
_cell_angle_alpha   90.00000000
_cell_angle_beta   90.00000000
_cell_angle_gamma   90.00000000
_symmetry_Int_Tables_number   1
_chemical_formula_structural   TaFeN2
_chemical_formula_sum   'Ta16 Fe16 N32'
_cell_volume   734.25377935
_cell_formula_units_Z   16
loop_
 _symmetry_equiv_pos_site_id
 _symmetry_equiv_pos_as_xyz
  1  'x, y, z'
loop_
 _atom_site_type_symbol
 _atom_site_label
 _atom_site_symmetry_multiplicity
 _atom_site_fract_x
 _atom_site_fract_y
 _atom_site_fract_z
 _atom_site_occupancy
  Ta  Ta0  1  0.77834400  0.05716500  0.29046800  1
  Ta  Ta1  1  0.27834400  0.44283500  0.70953200  1
  Ta  Ta2  1  0.22165600  0.55716500  0.20953200  1
  Ta  Ta3  1  0.72165600  0.94283500  0.79046800  1
  Ta  Ta4  1  0.22165600  0.94283500  0.70953200  1
  Ta  Ta5  1  0.72165600  0.55716500  0.29046800  1
  Ta  Ta6  1  0.77834400  0.44283500  0.79046800  1
  Ta  Ta7  1  0.27834400  0.05716500  0.20953200  1
  Ta  Ta8  1  0.85858200  0.34453400  0.45937500  1
  Ta  Ta9  1  0.35858200  0.15546600  0.54062500  1
  Ta  Ta10  1  0.14141800  0.84453400  0.04062500  1
  Ta  Ta11  1  0.64141800  0.65546600  0.95937500  1
  Ta  Ta12  1  0.14141800  0.65546600  0.54062500  1
  Ta  Ta13  1  0.64141800  0.84453400  0.45937500  1
  Ta  Ta14  1  0.85858200  0.15546600  0.95937500  1
  Ta  Ta15  1  0.35858200  0.34453400  0.04062500  1
  Fe  Fe0  1  0.18341500  0.95187500  0.42275600  1
  Fe  Fe1  1  0.68341500  0.54812500  0.57724400  1
  Fe  Fe2  1  0.81658500  0.45187500  0.07724400  1
  Fe  Fe3  1  0.31658500  0.04812500  0.92275600  1
  Fe  Fe4  1  0.81658500  0.04812500  0.57724400  1
  Fe  Fe5  1  0.31658500  0.45187500  0.42275600  1
  Fe  Fe6  1  0.18341500  0.54812500  0.92275600  1
  Fe  Fe7  1  0.68341500  0.95187500  0.07724400  1
  Fe  Fe8  1  0.09908700  0.28112200  0.29650900  1
  Fe  Fe9  1  0.59908700  0.21887800  0.70349100  1
  Fe  Fe10  1  0.90091300  0.78112200  0.20349100  1
  Fe  Fe11  1  0.40091300  0.71887800  0.79650900  1
  Fe  Fe12  1  0.90091300  0.71887800  0.70349100  1
  Fe  Fe13  1  0.40091300  0.78112200  0.29650900  1
  Fe  Fe14  1  0.09908700  0.21887800  0.79650900  1
  Fe  Fe15  1  0.59908700  0.28112200  0.20349100  1
  N  N0  1  0.19977900  0.27621200  0.43687800  1
  N  N1  1  0.69977900  0.22378800  0.56312200  1
  N  N2  1  0.80022100  0.77621200  0.06312200  1
  N  N3  1  0.30022100  0.72378800  0.93687800  1
  N  N4  1  0.80022100  0.72378800  0.56312200  1
  N  N5  1  0.30022100  0.77621200  0.43687800  1
  N  N6  1  0.19977900  0.22378800  0.93687800  1
  N  N7  1  0.69977900  0.27621200  0.06312200  1
  N  N8  1  0.63357800  0.50213700  0.43495100  1
  N  N9  1  0.13357800  0.99786300  0.56504900  1
  N  N10  1  0.36642200  0.00213700  0.06504900  1
  N  N11  1  0.86642200  0.49786300  0.93495100  1
  N  N12  1  0.36642200  0.49786300  0.56504900  1
  N  N13  1  0.86642200  0.00213700  0.43495100  1
  N  N14  1  0.63357800  0.99786300  0.93495100  1
  N  N15  1  0.13357800  0.50213700  0.06504900  1
  N  N16  1  0.77154500  0.25865400  0.32568600  1
  N  N17  1  0.27154500  0.24134600  0.67431400  1
  N  N18  1  0.22845500  0.75865400  0.17431400  1
  N  N19  1  0.72845500  0.74134600  0.82568600  1
  N  N20  1  0.22845500  0.74134600  0.67431400  1
  N  N21  1  0.72845500  0.75865400  0.32568600  1
  N  N22  1  0.77154500  0.24134600  0.82568600  1
  N  N23  1  0.27154500  0.25865400  0.17431400  1
  N  N24  1  0.55289000  0.48569700  0.16309500  1
  N  N25  1  0.05289000  0.01430300  0.83690500  1
  N  N26  1  0.44711000  0.98569700  0.33690500  1
  N  N27  1  0.94711000  0.51430300  0.66309500  1
  N  N28  1  0.44711000  0.51430300  0.83690500  1
  N  N29  1  0.94711000  0.98569700  0.16309500  1
  N  N30  1  0.55289000  0.01430300  0.66309500  1
  N  N31  1  0.05289000  0.48569700  0.33690500  1
loop_
_geom_bond_atom_site_label_1
_geom_bond_atom_site_label_2
_geom_bond_distance
_geom_bond_site_symmetry_2
Fe0 N5 1.864537 1_555
Fe0 N13 1.899675 1_465
Fe0 N26 1.911981 1_555
Fe0 N9 1.917787 1_555
Fe1 N4 1.864537 1_555
Fe1 N12 1.899675 1_555
Fe1 N27 1.911981 1_555
Fe1 N8 1.917787 1_555
Fe2 N7 1.864537 1_555
Fe2 N15 1.899675 1_655
Fe2 N24 1.911981 1_555
Fe2 N11 1.917787 1_554
Fe3 N6 1.864537 1_555
Fe3 N14 1.899675 1_545
Fe3 N25 1.911981 1_555
Fe3 N10 1.917787 1_556
Fe4 N1 1.864537 1_555
Fe4 N9 1.899675 1_645
Fe4 N30 1.911981 1_555
Fe4 N13 1.917787 1_555
Fe5 N0 1.864537 1_555
Fe5 N8 1.899675 1_555
Fe5 N31 1.911981 1_555
Fe5 N12 1.917787 1_555
Fe6 N3 1.864537 1_555
Fe6 N11 1.899675 1_455
Fe6 N28 1.911981 1_555
Fe6 N15 1.917787 1_556
Fe7 N2 1.864537 1_555
Fe7 N10 1.899675 1_565
Fe7 N29 1.911981 1_555
Fe7 N14 1.917787 1_554
Fe8 N23 1.880842 1_555
Fe8 N0 1.907523 1_555
Fe8 N16 1.938168 1_455
Fe8 N31 2.097388 1_555
Fe9 N22 1.880842 1_555
Fe9 N1 1.907523 1_555
Fe9 N17 1.938168 1_555
Fe9 N30 2.097388 1_555
Fe10 N21 1.880842 1_555
Fe10 N2 1.907523 1_555
Fe10 N18 1.938168 1_655
Fe10 N29 2.097388 1_555
Fe11 N20 1.880842 1_555
Fe11 N3 1.907523 1_555
Fe11 N19 1.938168 1_555
Fe11 N28 2.097388 1_555
Fe12 N19 1.880842 1_555
Fe12 N4 1.907523 1_555
Fe12 N20 1.938168 1_655
Fe12 N27 2.097388 1_555
Fe13 N18 1.880842 1_555
Fe13 N5 1.907523 1_555
Fe13 N21 1.938168 1_555
Fe13 N26 2.097388 1_555
Fe14 N17 1.880842 1_555
Fe14 N6 1.907523 1_555
Fe14 N22 1.938168 1_455
Fe14 N25 2.097388 1_555
Fe15 N16 1.880842 1_555
Fe15 N7 1.907523 1_555
Fe15 N23 1.938168 1_555
Fe15 N24 2.097388 1_555
N0 Ta9 2.013197 1_555
N0 Ta8 2.098926 1_455
N1 Ta8 2.013197 1_555
N1 Ta9 2.098926 1_555
N2 Ta11 2.013197 1_554
N2 Ta10 2.098926 1_655
N3 Ta10 2.013197 1_556
N3 Ta11 2.098926 1_555
N4 Ta13 2.013197 1_555
N4 Ta12 2.098926 1_655
N5 Ta12 2.013197 1_555
N5 Ta13 2.098926 1_555
N6 Ta15 2.013197 1_556
N6 Ta14 2.098926 1_455
N7 Ta14 2.013197 1_554
N7 Ta15 2.098926 1_555
N8 Ta5 2.011667 1_555
N8 Ta8 2.046654 1_555
N9 Ta4 2.011667 1_555
N9 Ta9 2.046654 1_565
N10 Ta7 2.011667 1_555
N10 Ta10 2.046654 1_545
N11 Ta6 2.011667 1_555
N11 Ta11 2.046654 1_555
N12 Ta1 2.011667 1_555
N12 Ta12 2.046654 1_555
N13 Ta0 2.011667 1_555
N13 Ta13 2.046654 1_545
N14 Ta3 2.011667 1_555
N14 Ta14 2.046654 1_565
N15 Ta2 2.011667 1_555
N15 Ta15 2.046654 1_555
N16 Ta8 1.989763 1_555
N16 Ta0 2.035357 1_555
N17 Ta9 1.989763 1_555
N17 Ta1 2.035357 1_555
N18 Ta10 1.989763 1_555
N18 Ta2 2.035357 1_555
N19 Ta11 1.989763 1_555
N19 Ta3 2.035357 1_555
N20 Ta12 1.989763 1_555
N20 Ta4 2.035357 1_555
N21 Ta13 1.989763 1_555
N21 Ta5 2.035357 1_555
N22 Ta14 1.989763 1_555
N22 Ta6 2.035357 1_555
N23 Ta15 1.989763 1_555
N23 Ta7 2.035357 1_555
N24 Ta5 2.039132 1_555
N24 Ta2 2.121750 1_555
N24 Ta15 2.386820 1_555
N25 Ta4 2.039132 1_545
N25 Ta3 2.121750 1_445
N25 Ta14 2.386820 1_455
N26 Ta7 2.039132 1_565
N26 Ta0 2.121750 1_565
N26 Ta13 2.386820 1_555
N27 Ta6 2.039132 1_555
N27 Ta1 2.121750 1_655
N27 Ta12 2.386820 1_655
N28 Ta1 2.039132 1_555
N28 Ta6 2.121750 1_555
N28 Ta11 2.386820 1_555
N29 Ta0 2.039132 1_565
N29 Ta7 2.121750 1_665
N29 Ta10 2.386820 1_655
N30 Ta3 2.039132 1_545
N30 Ta4 2.121750 1_545
N30 Ta9 2.386820 1_555
N31 Ta2 2.039132 1_555
N31 Ta5 2.121750 1_455
N31 Ta8 2.386820 1_455
