# generated using pymatgen
data_KC2N3
_symmetry_space_group_name_H-M   'P 1'
_cell_length_a   19.35872600
_cell_length_b   5.45570400
_cell_length_c   6.57886574
_cell_angle_alpha   56.09509126
_cell_angle_beta   90.00000000
_cell_angle_gamma   90.00000000
_symmetry_Int_Tables_number   1
_chemical_formula_structural   KC2N3
_chemical_formula_sum   'K4 C8 N12'
_cell_volume   576.68427813
_cell_formula_units_Z   4
loop_
 _symmetry_equiv_pos_site_id
 _symmetry_equiv_pos_as_xyz
  1  'x, y, z'
loop_
 _atom_site_type_symbol
 _atom_site_label
 _atom_site_symmetry_multiplicity
 _atom_site_fract_x
 _atom_site_fract_y
 _atom_site_fract_z
 _atom_site_occupancy
  K  K0  1  0.86684200  0.23073400  0.38493400  1
  K  K1  1  0.36684200  0.76926600  0.11506600  1
  K  K2  1  0.13315800  0.76926600  0.61506600  1
  K  K3  1  0.63315800  0.23073400  0.88493400  1
  C  C0  1  0.87109200  0.02581600  0.88346600  1
  C  C1  1  0.37109200  0.97418400  0.61653400  1
  C  C2  1  0.12890800  0.97418400  0.11653400  1
  C  C3  1  0.62890800  0.02581600  0.38346600  1
  C  C4  1  0.68854300  0.79669900  0.78957300  1
  C  C5  1  0.18854300  0.20330100  0.71042700  1
  C  C6  1  0.31145700  0.20330100  0.21042700  1
  C  C7  1  0.81145700  0.79669900  0.28957300  1
  N  N0  1  0.01615700  0.41095600  0.50502200  1
  N  N1  1  0.51615700  0.58904400  0.99497800  1
  N  N2  1  0.98384300  0.58904400  0.49497800  1
  N  N3  1  0.48384300  0.41095600  0.00502200  1
  N  N4  1  0.84083700  0.91805300  0.08112100  1
  N  N5  1  0.34083700  0.08194700  0.41887900  1
  N  N6  1  0.15916300  0.08194700  0.91887900  1
  N  N7  1  0.65916300  0.91805300  0.58112100  1
  N  N8  1  0.71056400  0.66998800  0.99518900  1
  N  N9  1  0.21056400  0.33001200  0.50481100  1
  N  N10  1  0.28943600  0.33001200  0.00481100  1
  N  N11  1  0.78943600  0.66998800  0.49518900  1
loop_
_geom_bond_atom_site_label_1
_geom_bond_atom_site_label_2
_geom_bond_distance
_geom_bond_site_symmetry_2
K0 N11 3.107256 1_545
K0 N4 3.154032 1_555
K0 N11 3.233229 1_555
K0 N0 3.288285 1_655
K0 N4 3.310953 1_545
K0 N2 3.324839 1_555
K1 N10 3.107256 1_565
K1 N5 3.154032 1_555
K1 N10 3.233229 1_555
K1 N1 3.288285 1_554
K1 N5 3.310953 1_565
K1 N3 3.324839 1_555
K2 N9 3.107256 1_565
K2 N6 3.154032 1_555
K2 N9 3.233229 1_555
K2 N2 3.288285 1_455
K2 N6 3.310953 1_565
K2 N0 3.324839 1_555
K3 N8 3.107256 1_545
K3 N7 3.154032 1_555
K3 N8 3.233229 1_555
K3 N3 3.288285 1_556
K3 N7 3.310953 1_545
K3 N1 3.324839 1_555
C0 N4 1.235593 1_546
C0 K0 2.814759 1_555
C1 N5 1.235593 1_565
C1 K1 2.814759 1_556
C2 N6 1.235593 1_564
C2 K2 2.814759 1_555
C3 N7 1.235593 1_545
C3 K3 2.814759 1_554
C4 N8 1.202585 1_555
C4 N7 1.276544 1_555
C4 K3 2.967793 1_565
C4 K3 2.985992 1_555
C5 N9 1.202585 1_555
C5 N6 1.276544 1_555
C5 K2 2.967793 1_545
C5 K2 2.985992 1_555
C6 N10 1.202585 1_555
C6 N5 1.276544 1_555
C6 K1 2.967793 1_545
C6 K1 2.985992 1_555
C7 N11 1.202585 1_555
C7 N4 1.276544 1_555
C7 K0 2.967793 1_565
C7 K0 2.985992 1_555
N0 N2 1.126082 1_455
N1 N3 1.126082 1_556
