# generated using pymatgen
data_LaGa3Ni
_symmetry_space_group_name_H-M   'P 1'
_cell_length_a   4.18747700
_cell_length_b   4.18747700
_cell_length_c   6.10570018
_cell_angle_alpha   69.94541032
_cell_angle_beta   69.94541032
_cell_angle_gamma   90.00000000
_symmetry_Int_Tables_number   1
_chemical_formula_structural   LaGa3Ni
_chemical_formula_sum   'La1 Ga3 Ni1'
_cell_volume   93.63095429
_cell_formula_units_Z   1
loop_
 _symmetry_equiv_pos_site_id
 _symmetry_equiv_pos_as_xyz
  1  'x, y, z'
loop_
 _atom_site_type_symbol
 _atom_site_label
 _atom_site_symmetry_multiplicity
 _atom_site_fract_x
 _atom_site_fract_y
 _atom_site_fract_z
 _atom_site_occupancy
  La  La0  1  0.00000000  0.00000000  0.00000000  1
  Ga  Ga0  1  0.37954500  0.37954500  0.24090900  1
  Ga  Ga1  1  0.62045500  0.62045500  0.75909100  1
  Ga  Ga2  1  0.25000000  0.75000000  0.50000000  1
  Ni  Ni0  1  0.75000000  0.25000000  0.50000000  1
loop_
_geom_bond_atom_site_label_1
_geom_bond_atom_site_label_2
_geom_bond_distance
_geom_bond_site_symmetry_2
La0 Ni0 3.392899 1_455
La0 Ni0 3.392899 1_454
La0 Ni0 3.392899 1_445
La0 Ni0 3.392899 1_554
Ga0 Ga2 2.509521 1_545
Ga0 Ni0 2.509521 1_455
Ga0 Ni0 2.509525 1_555
Ga0 Ga2 2.509525 1_555
Ga0 Ga1 2.572750 1_554
Ga0 La0 3.228347 1_555
Ga0 La0 3.228350 1_565
Ga0 La0 3.228350 1_655
Ga0 La0 3.228353 1_665
Ga1 Ga2 2.509521 1_655
Ga1 Ni0 2.509521 1_565
Ga1 Ni0 2.509525 1_555
Ga1 Ga2 2.509525 1_555
Ga1 La0 3.228347 1_666
Ga1 La0 3.228350 1_566
Ga1 La0 3.228350 1_656
Ga1 La0 3.228353 1_556
Ga2 Ni0 2.960993 1_455
Ga2 Ni0 2.960993 1_555
Ga2 Ni0 2.960993 1_565
Ga2 Ni0 2.960993 1_465
Ga2 La0 3.392899 1_566
Ga2 La0 3.392899 1_565
Ga2 La0 3.392899 1_556
Ga2 La0 3.392899 1_665
