# generated using pymatgen
data_Fe2Pb(SeO3)4
_symmetry_space_group_name_H-M   'P 1'
_cell_length_a   6.98344994
_cell_length_b   9.42603443
_cell_length_c   9.36252741
_cell_angle_alpha   68.70663282
_cell_angle_beta   95.72885490
_cell_angle_gamma   90.00711531
_symmetry_Int_Tables_number   1
_chemical_formula_structural   Fe2Pb(SeO3)4
_chemical_formula_sum   'Fe4 Pb2 Se8 O24'
_cell_volume   570.92523097
_cell_formula_units_Z   2
loop_
 _symmetry_equiv_pos_site_id
 _symmetry_equiv_pos_as_xyz
  1  'x, y, z'
loop_
 _atom_site_type_symbol
 _atom_site_label
 _atom_site_symmetry_multiplicity
 _atom_site_fract_x
 _atom_site_fract_y
 _atom_site_fract_z
 _atom_site_occupancy
  Fe  Fe0  1  0.00023400  0.75042100  0.75195600  1
  Fe  Fe1  1  0.50017100  0.75017500  0.24830000  1
  Fe  Fe2  1  0.00023800  0.25042200  0.25198700  1
  Fe  Fe3  1  0.50019100  0.25016200  0.74829100  1
  Pb  Pb0  1  0.00734000  0.53222400  0.48163000  1
  Pb  Pb1  1  0.00734600  0.03225800  0.98161300  1
  Se  Se0  1  0.55429800  0.12741500  0.13260100  1
  Se  Se1  1  0.55430300  0.62740800  0.63261800  1
  Se  Se2  1  0.44646900  0.87266400  0.86771700  1
  Se  Se3  1  0.44646700  0.37266000  0.36771900  1
  Se  Se4  1  0.80024700  0.09810100  0.57857700  1
  Se  Se5  1  0.80025600  0.59809900  0.07859300  1
  Se  Se6  1  0.19864400  0.90316300  0.41979700  1
  Se  Se7  1  0.19863200  0.40316400  0.91978800  1
  O  O0  1  0.71633300  0.72218900  0.71172200  1
  O  O1  1  0.71632700  0.22219300  0.21172300  1
  O  O2  1  0.28442500  0.27732100  0.28843600  1
  O  O3  1  0.28440500  0.77729100  0.78857900  1
  O  O4  1  0.98829300  0.18429100  0.47884300  1
  O  O5  1  0.98828700  0.68428900  0.97884900  1
  O  O6  1  0.01244500  0.81148000  0.52059000  1
  O  O7  1  0.01244200  0.31148100  0.02059200  1
  O  O8  1  0.65497600  0.62426600  0.46802600  1
  O  O9  1  0.65497300  0.12427300  0.96801600  1
  O  O10  1  0.34774400  0.37600700  0.53208800  1
  O  O11  1  0.34774800  0.87601000  0.03208200  1
  O  O12  1  0.92847200  0.96385200  0.74167500  1
  O  O13  1  0.92857300  0.46388500  0.24168900  1
  O  O14  1  0.07130200  0.03529900  0.25679500  1
  O  O15  1  0.07125500  0.53534800  0.75672700  1
  O  O16  1  0.59188100  0.94396200  0.26587900  1
  O  O17  1  0.59188100  0.44395000  0.76588000  1
  O  O18  1  0.40221300  0.05638200  0.73597700  1
  O  O19  1  0.40221000  0.55637600  0.23597200  1
  O  O20  1  0.74983900  0.23320000  0.65771200  1
  O  O21  1  0.74984500  0.73320300  0.15771800  1
  O  O22  1  0.25054800  0.76215600  0.34752500  1
  O  O23  1  0.25054700  0.26215700  0.84751600  1
loop_
_geom_bond_atom_site_label_1
_geom_bond_atom_site_label_2
_geom_bond_distance
_geom_bond_site_symmetry_2
Fe0 O5 1.995439 1_455
Fe0 O3 2.011725 1_555
Fe0 O0 2.016687 1_455
Fe0 O12 2.039058 1_455
Fe0 O6 2.040148 1_555
Fe0 O15 2.070731 1_555
Fe1 O19 1.988824 1_555
Fe1 O16 1.992713 1_555
Fe1 O21 2.044195 1_555
Fe1 O22 2.077064 1_555
Fe1 O11 2.112847 1_555
Fe1 O8 2.142983 1_555
Fe2 O4 1.995107 1_455
Fe2 O2 2.011694 1_555
Fe2 O1 2.016787 1_455
Fe2 O13 2.039134 1_455
Fe2 O7 2.040402 1_555
Fe2 O14 2.071136 1_555
Fe3 O18 1.988649 1_555
Fe3 O17 1.992714 1_555
Fe3 O20 2.043997 1_555
Fe3 O23 2.077223 1_555
Fe3 O10 2.112836 1_555
Fe3 O9 2.142872 1_555
O0 Se1 1.714658 1_555
O1 Se0 1.714728 1_555
O2 Se3 1.719210 1_555
O3 Se2 1.718768 1_555
O4 Se4 1.717569 1_555
O5 Se5 1.717525 1_556
O6 Se6 1.726434 1_555
O6 Pb0 2.785307 1_555
O7 Se7 1.726429 1_554
O7 Pb1 2.785083 1_554
O8 Se1 1.766144 1_555
O8 Pb0 2.584911 1_655
O9 Se0 1.766090 1_556
O9 Pb1 2.584900 1_655
O10 Se3 1.758302 1_555
O10 Pb0 2.704430 1_555
O11 Se2 1.758258 1_554
O11 Pb1 2.704547 1_564
O12 Se4 1.748940 1_565
O12 Pb1 2.563297 1_665
O13 Se5 1.749069 1_555
O13 Pb0 2.562868 1_655
O14 Se6 1.737805 1_545
O14 Pb1 2.581093 1_554
O15 Se7 1.738402 1_555
O15 Pb0 2.580580 1_555
O16 Se0 1.727356 1_565
O17 Se1 1.727336 1_555
O18 Se2 1.728714 1_545
O19 Se3 1.728723 1_555
O20 Se4 1.741253 1_555
O21 Se5 1.741233 1_555
O22 Se6 1.748748 1_555
O22 Pb0 2.758064 1_555
O23 Se7 1.748767 1_555
O23 Pb1 2.757821 1_555
