# generated using pymatgen
data_BaAlCuSbO5
_symmetry_space_group_name_H-M   'P 1'
_cell_length_a   4.04873200
_cell_length_b   4.04873200
_cell_length_c   8.72151200
_cell_angle_alpha   90.00000000
_cell_angle_beta   90.00000000
_cell_angle_gamma   90.00000000
_symmetry_Int_Tables_number   1
_chemical_formula_structural   BaAlCuSbO5
_chemical_formula_sum   'Ba1 Al1 Cu1 Sb1 O5'
_cell_volume   142.96503770
_cell_formula_units_Z   1
loop_
 _symmetry_equiv_pos_site_id
 _symmetry_equiv_pos_as_xyz
  1  'x, y, z'
loop_
 _atom_site_type_symbol
 _atom_site_label
 _atom_site_symmetry_multiplicity
 _atom_site_fract_x
 _atom_site_fract_y
 _atom_site_fract_z
 _atom_site_occupancy
  Ba  Ba0  1  0.50000000  0.50000000  0.91852800  1
  Al  Al0  1  0.50000000  0.50000000  0.34871600  1
  Cu  Cu0  1  0.00000000  0.00000000  0.31962400  1
  Sb  Sb0  1  0.00000000  0.00000000  0.68054800  1
  O  O0  1  0.50000000  0.00000000  0.68282900  1
  O  O1  1  0.00000000  0.50000000  0.68282900  1
  O  O2  1  0.50000000  0.00000000  0.32120800  1
  O  O3  1  0.00000000  0.50000000  0.32120800  1
  O  O4  1  0.00000000  0.00000000  0.91242900  1
loop_
_geom_bond_atom_site_label_1
_geom_bond_atom_site_label_2
_geom_bond_distance
_geom_bond_site_symmetry_2
Ba0 O4 2.863380 1_555
Ba0 O4 2.863380 1_655
Ba0 O4 2.863380 1_565
Ba0 O4 2.863380 1_665
Ba0 O1 2.885093 1_655
Ba0 O0 2.885093 1_555
Ba0 O1 2.885093 1_555
Ba0 O0 2.885093 1_565
Al0 O3 2.038533 1_655
Al0 O2 2.038533 1_565
Al0 O3 2.038533 1_555
Al0 O2 2.038533 1_555
Cu0 O2 2.024413 1_555
Cu0 O2 2.024413 1_455
Cu0 O3 2.024413 1_555
Cu0 O3 2.024413 1_545
O0 Sb0 2.024464 1_555
O0 Sb0 2.024464 1_655
O1 Sb0 2.024464 1_565
O1 Sb0 2.024464 1_555
O4 Sb0 2.022353 1_555
