# generated using pymatgen
data_Sr3Pb
_symmetry_space_group_name_H-M   'P 1'
_cell_length_a   5.41090100
_cell_length_b   5.41090100
_cell_length_c   5.41090100
_cell_angle_alpha   90.00000000
_cell_angle_beta   90.00000000
_cell_angle_gamma   90.00000000
_symmetry_Int_Tables_number   1
_chemical_formula_structural   Sr3Pb
_chemical_formula_sum   'Sr3 Pb1'
_cell_volume   158.41954585
_cell_formula_units_Z   1
loop_
 _symmetry_equiv_pos_site_id
 _symmetry_equiv_pos_as_xyz
  1  'x, y, z'
loop_
 _atom_site_type_symbol
 _atom_site_label
 _atom_site_symmetry_multiplicity
 _atom_site_fract_x
 _atom_site_fract_y
 _atom_site_fract_z
 _atom_site_occupancy
  Sr  Sr0  1  0.50000000  0.00000000  0.50000000  1
  Sr  Sr1  1  0.00000000  0.50000000  0.50000000  1
  Sr  Sr2  1  0.50000000  0.50000000  0.00000000  1
  Pb  Pb0  1  0.00000000  0.00000000  0.00000000  1
loop_
_geom_bond_atom_site_label_1
_geom_bond_atom_site_label_2
_geom_bond_distance
_geom_bond_site_symmetry_2
Sr0 Sr2 3.826085 1_546
Sr0 Sr1 3.826085 1_555
Sr0 Sr1 3.826085 1_655
Sr0 Sr2 3.826085 1_545
Sr0 Sr2 3.826085 1_556
Sr0 Sr2 3.826085 1_555
Sr0 Sr1 3.826085 1_645
Sr0 Sr1 3.826085 1_545
Sr1 Sr2 3.826085 1_455
Sr1 Sr2 3.826085 1_456
Sr1 Sr2 3.826085 1_556
Sr1 Sr2 3.826085 1_555
Pb0 Sr1 3.826085 1_554
Pb0 Sr1 3.826085 1_555
Pb0 Sr2 3.826085 1_455
Pb0 Sr2 3.826085 1_545
Pb0 Sr1 3.826085 1_544
Pb0 Sr2 3.826085 1_555
Pb0 Sr0 3.826085 1_455
Pb0 Sr0 3.826085 1_554
Pb0 Sr2 3.826085 1_445
Pb0 Sr1 3.826085 1_545
Pb0 Sr0 3.826085 1_555
Pb0 Sr0 3.826085 1_454
