# generated using pymatgen
data_YGaPd
_symmetry_space_group_name_H-M   'P 1'
_cell_length_a   4.46150114
_cell_length_b   6.99676310
_cell_length_c   7.53651019
_cell_angle_alpha   90.00002401
_cell_angle_beta   90.00000000
_cell_angle_gamma   90.00000000
_symmetry_Int_Tables_number   1
_chemical_formula_structural   YGaPd
_chemical_formula_sum   'Y4 Ga4 Pd4'
_cell_volume   235.26020362
_cell_formula_units_Z   4
loop_
 _symmetry_equiv_pos_site_id
 _symmetry_equiv_pos_as_xyz
  1  'x, y, z'
loop_
 _atom_site_type_symbol
 _atom_site_label
 _atom_site_symmetry_multiplicity
 _atom_site_fract_x
 _atom_site_fract_y
 _atom_site_fract_z
 _atom_site_occupancy
  Y  Y0  1  0.25000000  0.98511961  0.29897726  1
  Y  Y1  1  0.25000000  0.48511961  0.20102174  1
  Y  Y2  1  0.75000000  0.01488039  0.70102274  1
  Y  Y3  1  0.75000000  0.51488039  0.79897826  1
  Ga  Ga0  1  0.25000000  0.31817773  0.57924289  1
  Ga  Ga1  1  0.25000000  0.81817773  0.92075711  1
  Ga  Ga2  1  0.75000000  0.68182227  0.42075711  1
  Ga  Ga3  1  0.75000000  0.18182227  0.07924289  1
  Pd  Pd0  1  0.25000000  0.21109234  0.90749315  1
  Pd  Pd1  1  0.25000000  0.71109234  0.59250585  1
  Pd  Pd2  1  0.75000000  0.78890766  0.09250685  1
  Pd  Pd3  1  0.75000000  0.28890766  0.40749415  1
loop_
_geom_bond_atom_site_label_1
_geom_bond_atom_site_label_2
_geom_bond_distance
_geom_bond_site_symmetry_2
Ga0 Pd0 2.584834 1_555
Ga0 Pd3 2.587204 1_455
Ga0 Pd3 2.587204 1_555
Ga0 Pd1 2.750947 1_555
Ga0 Y1 3.080506 1_555
Ga0 Y3 3.100461 1_455
Ga0 Y3 3.100461 1_555
Ga0 Y0 3.145143 1_545
Ga0 Y2 3.212772 1_555
Ga0 Y2 3.212772 1_455
Ga1 Pd1 2.584841 1_555
Ga1 Pd2 2.587208 1_456
Ga1 Pd2 2.587208 1_556
Ga1 Pd0 2.750947 1_565
Ga1 Y0 3.080498 1_556
Ga1 Y2 3.100458 1_465
Ga1 Y2 3.100458 1_565
Ga1 Y1 3.145139 1_556
Ga1 Y3 3.212769 1_455
Ga1 Y3 3.212769 1_555
Ga2 Pd2 2.584834 1_555
Ga2 Pd1 2.587204 1_555
Ga2 Pd1 2.587204 1_655
Ga2 Pd3 2.750947 1_555
Ga2 Y3 3.080506 1_555
Ga2 Y1 3.100461 1_555
Ga2 Y1 3.100461 1_655
Ga2 Y2 3.145143 1_565
Ga2 Y0 3.212772 1_655
Ga2 Y0 3.212772 1_555
Ga3 Pd3 2.584841 1_555
Ga3 Pd0 2.587208 1_554
Ga3 Pd0 2.587208 1_654
Ga3 Pd2 2.750947 1_545
Ga3 Y2 3.080498 1_554
Ga3 Y0 3.100458 1_645
Ga3 Y0 3.100458 1_545
Ga3 Y3 3.145139 1_554
Ga3 Y1 3.212769 1_555
Ga3 Y1 3.212769 1_655
Pd0 Y1 2.927421 1_556
Pd0 Y2 3.046687 1_555
Pd0 Y2 3.046687 1_455
Pd0 Y3 3.187942 1_455
Pd0 Y3 3.187942 1_555
Pd0 Y0 3.347359 1_546
Pd1 Y0 2.927423 1_555
Pd1 Y3 3.046695 1_455
Pd1 Y3 3.046695 1_555
Pd1 Y2 3.187946 1_465
Pd1 Y2 3.187946 1_565
Pd1 Y1 3.347358 1_555
Pd2 Y3 2.927421 1_554
Pd2 Y0 3.046687 1_555
Pd2 Y0 3.046687 1_655
Pd2 Y1 3.187942 1_555
Pd2 Y1 3.187942 1_655
Pd2 Y2 3.347359 1_564
Pd3 Y2 2.927423 1_555
Pd3 Y1 3.046695 1_555
Pd3 Y1 3.046695 1_655
Pd3 Y0 3.187946 1_545
Pd3 Y0 3.187946 1_645
Pd3 Y3 3.347358 1_555
