# generated using pymatgen
data_Sr2TmTaO6
_symmetry_space_group_name_H-M   'P 1'
_cell_length_a   5.89135900
_cell_length_b   5.82650100
_cell_length_c   10.09925851
_cell_angle_alpha   54.93261699
_cell_angle_beta   90.00000000
_cell_angle_gamma   90.00000000
_symmetry_Int_Tables_number   1
_chemical_formula_structural   Sr2TmTaO6
_chemical_formula_sum   'Sr4 Tm2 Ta2 O12'
_cell_volume   283.73913452
_cell_formula_units_Z   2
loop_
 _symmetry_equiv_pos_site_id
 _symmetry_equiv_pos_as_xyz
  1  'x, y, z'
loop_
 _atom_site_type_symbol
 _atom_site_label
 _atom_site_symmetry_multiplicity
 _atom_site_fract_x
 _atom_site_fract_y
 _atom_site_fract_z
 _atom_site_occupancy
  Sr  Sr0  1  0.03321700  0.24249700  0.74974500  1
  Sr  Sr1  1  0.53321700  0.75750300  0.75025500  1
  Sr  Sr2  1  0.46678300  0.24249700  0.24974500  1
  Sr  Sr3  1  0.96678300  0.75750300  0.25025500  1
  Tm  Tm0  1  0.50000000  0.50000000  0.50000000  1
  Tm  Tm1  1  0.00000000  0.50000000  0.00000000  1
  Ta  Ta0  1  0.00000000  0.00000000  0.50000000  1
  Ta  Ta1  1  0.50000000  0.00000000  0.00000000  1
  O  O0  1  0.02083300  0.31372400  0.26304300  1
  O  O1  1  0.52083300  0.68627600  0.23695700  1
  O  O2  1  0.97916700  0.68627600  0.73695700  1
  O  O3  1  0.47916700  0.31372400  0.76304300  1
  O  O4  1  0.72658300  0.84177500  0.45781900  1
  O  O5  1  0.22658300  0.15822500  0.04218100  1
  O  O6  1  0.27341700  0.15822500  0.54218100  1
  O  O7  1  0.77341700  0.84177500  0.95781900  1
  O  O8  1  0.29744400  0.76654200  0.96080500  1
  O  O9  1  0.79744400  0.23345800  0.53919500  1
  O  O10  1  0.70255600  0.23345800  0.03919500  1
  O  O11  1  0.20255600  0.76654200  0.46080500  1
loop_
_geom_bond_atom_site_label_1
_geom_bond_atom_site_label_2
_geom_bond_distance
_geom_bond_site_symmetry_2
O0 Ta0 2.014131 1_555
O0 Tm1 2.221970 1_555
O0 Sr3 2.533789 1_455
O0 Sr2 2.675212 1_555
O1 Ta1 2.014131 1_565
O1 Tm0 2.221970 1_555
O1 Sr2 2.533789 1_555
O1 Sr3 2.675212 1_555
O2 Ta0 2.014131 1_665
O2 Tm1 2.221970 1_656
O2 Sr0 2.533789 1_655
O2 Sr1 2.675212 1_555
O3 Ta1 2.014131 1_556
O3 Tm0 2.221970 1_555
O3 Sr1 2.533789 1_555
O3 Sr0 2.675212 1_555
O4 Ta0 2.019235 1_665
O4 Tm0 2.225779 1_555
O4 Sr2 2.563602 1_565
O4 Sr3 2.796528 1_555
O4 Sr1 2.931724 1_555
O5 Ta1 2.019235 1_555
O5 Tm1 2.225779 1_555
O5 Sr3 2.563602 1_445
O5 Sr2 2.796528 1_555
O5 Sr0 2.931724 1_554
O6 Ta0 2.019235 1_555
O6 Tm0 2.225779 1_555
O6 Sr1 2.563602 1_545
O6 Sr0 2.796528 1_555
O6 Sr2 2.931724 1_555
O7 Ta1 2.019235 1_566
O7 Tm1 2.225779 1_656
O7 Sr0 2.563602 1_665
O7 Sr1 2.796528 1_555
O7 Sr3 2.931724 1_556
O8 Ta1 2.012386 1_566
O8 Tm1 2.221005 1_556
O8 Sr1 2.565622 1_555
O8 Sr0 2.804411 1_565
O8 Sr2 2.931759 1_556
O9 Ta0 2.012386 1_655
O9 Tm0 2.221005 1_555
O9 Sr0 2.565622 1_655
O9 Sr1 2.804411 1_545
O9 Sr3 2.931759 1_555
O10 Ta1 2.012386 1_555
O10 Tm1 2.221005 1_655
O10 Sr2 2.565622 1_555
O10 Sr3 2.804411 1_545
O10 Sr1 2.931759 1_554
O11 Ta0 2.012386 1_565
O11 Tm0 2.221005 1_555
O11 Sr3 2.565622 1_455
O11 Sr2 2.804411 1_565
O11 Sr0 2.931759 1_555
