# generated using pymatgen
data_KMnBP2H2O9
_symmetry_space_group_name_H-M   'P 1'
_cell_length_a   6.70923751
_cell_length_b   9.94567305
_cell_length_c   12.32136800
_cell_angle_alpha   90.00000000
_cell_angle_beta   90.00000000
_cell_angle_gamma   108.52059541
_symmetry_Int_Tables_number   1
_chemical_formula_structural   KMnBP2H2O9
_chemical_formula_sum   'K4 Mn4 B4 P8 H8 O36'
_cell_volume   779.59777723
_cell_formula_units_Z   4
loop_
 _symmetry_equiv_pos_site_id
 _symmetry_equiv_pos_as_xyz
  1  'x, y, z'
loop_
 _atom_site_type_symbol
 _atom_site_label
 _atom_site_symmetry_multiplicity
 _atom_site_fract_x
 _atom_site_fract_y
 _atom_site_fract_z
 _atom_site_occupancy
  K  K0  1  0.35063200  0.87862700  0.82957900  1
  K  K1  1  0.64936800  0.62137300  0.32957900  1
  K  K2  1  0.64936800  0.12137300  0.17042100  1
  K  K3  1  0.35063200  0.37862700  0.67042100  1
  Mn  Mn0  1  0.10379900  0.90678200  0.58579600  1
  Mn  Mn1  1  0.89620100  0.59321800  0.08579600  1
  Mn  Mn2  1  0.89620100  0.09321800  0.41420400  1
  Mn  Mn3  1  0.10379900  0.40678200  0.91420400  1
  B  B0  1  0.22737600  0.65184200  0.46897700  1
  B  B1  1  0.77262400  0.84815800  0.96897700  1
  B  B2  1  0.77262400  0.34815800  0.53102300  1
  B  B3  1  0.22737600  0.15184200  0.03102300  1
  P  P0  1  0.99992700  0.56313100  0.66348300  1
  P  P1  1  0.00007300  0.93686900  0.16348300  1
  P  P2  1  0.00007300  0.43686900  0.33651700  1
  P  P3  1  0.99992700  0.06313100  0.83651700  1
  P  P4  1  0.56577800  0.83271600  0.57068700  1
  P  P5  1  0.43422200  0.66728400  0.07068700  1
  P  P6  1  0.43422200  0.16728400  0.42931300  1
  P  P7  1  0.56577800  0.33271600  0.92931300  1
  H  H0  1  0.13244200  0.79150800  0.38067500  1
  H  H1  1  0.86755800  0.70849200  0.88067500  1
  H  H2  1  0.86755800  0.20849200  0.61932500  1
  H  H3  1  0.13244200  0.29150800  0.11932500  1
  H  H4  1  0.72728700  0.71406500  0.67105100  1
  H  H5  1  0.27271300  0.78593500  0.17105100  1
  H  H6  1  0.27271300  0.28593500  0.32894900  1
  H  H7  1  0.72728700  0.21406500  0.82894900  1
  O  O0  1  0.95690800  0.70510900  0.67859600  1
  O  O1  1  0.04309200  0.79489100  0.17859600  1
  O  O2  1  0.04309200  0.29489100  0.32140400  1
  O  O3  1  0.95690800  0.20510900  0.82140400  1
  O  O4  1  0.42777200  0.91637800  0.61247700  1
  O  O5  1  0.57222800  0.58362200  0.11247700  1
  O  O6  1  0.57222800  0.08362200  0.38752300  1
  O  O7  1  0.42777200  0.41637800  0.88752300  1
  O  O8  1  0.09694500  0.74456300  0.45099300  1
  O  O9  1  0.90305500  0.75543700  0.95099300  1
  O  O10  1  0.90305500  0.25543700  0.54900700  1
  O  O11  1  0.09694500  0.24456300  0.04900700  1
  O  O12  1  0.08058100  0.01374400  0.73408600  1
  O  O13  1  0.91941900  0.48625600  0.23408600  1
  O  O14  1  0.91941900  0.98625600  0.26591400  1
  O  O15  1  0.08058100  0.51374400  0.76591400  1
  O  O16  1  0.78819400  0.91758800  0.53196600  1
  O  O17  1  0.21180600  0.58241200  0.03196600  1
  O  O18  1  0.21180600  0.08241200  0.46803400  1
  O  O19  1  0.78819400  0.41758800  0.96803400  1
  O  O20  1  0.17023300  0.57532600  0.57274000  1
  O  O21  1  0.82976700  0.92467400  0.07274000  1
  O  O22  1  0.82976700  0.42467400  0.42726000  1
  O  O23  1  0.17023300  0.07532600  0.92726000  1
  O  O24  1  0.21038900  0.54977000  0.37844500  1
  O  O25  1  0.78961100  0.95023000  0.87844500  1
  O  O26  1  0.78961100  0.45023000  0.62155500  1
  O  O27  1  0.21038900  0.04977000  0.12155500  1
  O  O28  1  0.45572700  0.73444700  0.47235300  1
  O  O29  1  0.54427300  0.76555300  0.97235300  1
  O  O30  1  0.54427300  0.26555300  0.52764700  1
  O  O31  1  0.45572700  0.23444700  0.02764700  1
  O  O32  1  0.58560600  0.73097400  0.66689800  1
  O  O33  1  0.41439400  0.76902600  0.16689800  1
  O  O34  1  0.41439400  0.26902600  0.33310200  1
  O  O35  1  0.58560600  0.23097400  0.83310200  1
loop_
_geom_bond_atom_site_label_1
_geom_bond_atom_site_label_2
_geom_bond_distance
_geom_bond_site_symmetry_2
K0 O29 2.641113 1_555
K0 O4 2.727814 1_555
K0 O12 2.831931 1_565
K0 O25 2.865569 1_555
K0 O23 2.871385 1_565
K0 O32 3.182837 1_555
K0 O9 3.227874 1_455
K0 O0 3.243589 1_455
K0 O35 3.355270 1_565
K1 O28 2.641113 1_555
K1 O5 2.727814 1_555
K1 O13 2.831931 1_555
K1 O24 2.865569 1_555
K1 O22 2.871385 1_555
K1 O33 3.182837 1_555
K1 O8 3.227874 1_655
K1 O1 3.243589 1_655
K1 O34 3.355270 1_555
K2 O31 2.641113 1_555
K2 O6 2.727814 1_555
K2 O14 2.831931 1_545
K2 O27 2.865569 1_555
K2 O21 2.871385 1_545
K2 O34 3.182837 1_555
K2 O11 3.227874 1_655
K2 O2 3.243589 1_655
K2 O33 3.355270 1_545
K3 O30 2.641113 1_555
K3 O7 2.727814 1_555
K3 O15 2.831931 1_555
K3 O26 2.865569 1_555
K3 O20 2.871385 1_555
K3 O35 3.182837 1_555
K3 O10 3.227874 1_455
K3 O3 3.243589 1_455
K3 O32 3.355270 1_555
Mn0 O12 2.144681 1_565
Mn0 O4 2.170249 1_555
Mn0 O18 2.208508 1_565
Mn0 O0 2.246330 1_455
Mn0 O16 2.253822 1_455
Mn0 O8 2.305807 1_555
Mn1 O13 2.144681 1_555
Mn1 O5 2.170249 1_555
Mn1 O19 2.208508 1_554
Mn1 O1 2.246330 1_655
Mn1 O17 2.253822 1_655
Mn1 O9 2.305807 1_554
Mn2 O14 2.144681 1_545
Mn2 O6 2.170249 1_555
Mn2 O16 2.208508 1_545
Mn2 O2 2.246330 1_655
Mn2 O18 2.253822 1_655
Mn2 O10 2.305807 1_555
Mn3 O15 2.144681 1_555
Mn3 O7 2.170249 1_555
Mn3 O17 2.208508 1_556
Mn3 O3 2.246330 1_455
Mn3 O19 2.253822 1_455
Mn3 O11 2.305807 1_556
B0 O20 1.474899 1_555
B0 O8 1.475792 1_555
B0 O24 1.488072 1_555
B0 O28 1.491401 1_555
B1 O21 1.474899 1_556
B1 O9 1.475792 1_555
B1 O25 1.488072 1_555
B1 O29 1.491401 1_555
B2 O22 1.474899 1_555
B2 O10 1.475792 1_555
B2 O26 1.488072 1_555
B2 O30 1.491401 1_555
B3 O23 1.474899 1_554
B3 O11 1.475792 1_555
B3 O27 1.488072 1_555
B3 O31 1.491401 1_555
H0 O8 0.977111 1_555
H1 O9 0.977111 1_555
H2 O10 0.977111 1_555
H3 O11 0.977111 1_555
H4 O32 1.017862 1_555
H4 O0 1.573895 1_555
H5 O33 1.017862 1_555
H5 O1 1.573895 1_555
H6 O34 1.017862 1_555
H6 O2 1.573895 1_555
H7 O35 1.017862 1_555
H7 O3 1.573895 1_555
O0 P0 1.539750 1_555
O1 P1 1.539750 1_555
O2 P2 1.539750 1_555
O3 P3 1.539750 1_555
O4 P4 1.517975 1_555
O5 P5 1.517975 1_555
O6 P6 1.517975 1_555
O7 P7 1.517975 1_555
O12 P3 1.515193 1_455
O13 P2 1.515193 1_655
O14 P1 1.515193 1_655
O15 P0 1.515193 1_455
O16 P4 1.538410 1_555
O17 P5 1.538410 1_555
O18 P6 1.538410 1_555
O19 P7 1.538410 1_555
O20 P0 1.575549 1_455
O21 P1 1.575549 1_655
O22 P2 1.575549 1_655
O23 P3 1.575549 1_455
O24 P2 1.585006 1_555
O25 P3 1.585006 1_565
O26 P0 1.585006 1_555
O27 P1 1.585006 1_545
O28 P4 1.584278 1_555
O29 P5 1.584278 1_556
O30 P6 1.584278 1_555
O31 P7 1.584278 1_554
O32 P4 1.591363 1_555
O33 P5 1.591363 1_555
O34 P6 1.591363 1_555
O35 P7 1.591363 1_555
