# generated using pymatgen
data_VIn(TeO4)2
_symmetry_space_group_name_H-M   'P 1'
_cell_length_a   5.26543200
_cell_length_b   8.09254950
_cell_length_c   17.02389678
_cell_angle_alpha   94.67449356
_cell_angle_beta   90.00000000
_cell_angle_gamma   90.00000000
_symmetry_Int_Tables_number   1
_chemical_formula_structural   VIn(TeO4)2
_chemical_formula_sum   'V4 In4 Te8 O32'
_cell_volume   722.98847892
_cell_formula_units_Z   4
loop_
 _symmetry_equiv_pos_site_id
 _symmetry_equiv_pos_as_xyz
  1  'x, y, z'
loop_
 _atom_site_type_symbol
 _atom_site_label
 _atom_site_symmetry_multiplicity
 _atom_site_fract_x
 _atom_site_fract_y
 _atom_site_fract_z
 _atom_site_occupancy
  V  V0  1  0.20297800  0.85658800  0.57437800  1
  V  V1  1  0.29702200  0.35658800  0.07437800  1
  V  V2  1  0.79702200  0.14341200  0.42562200  1
  V  V3  1  0.70297800  0.64341200  0.92562200  1
  In  In0  1  0.72298600  0.65380800  0.67425800  1
  In  In1  1  0.77701400  0.15380800  0.17425800  1
  In  In2  1  0.27701400  0.34619200  0.32574200  1
  In  In3  1  0.22298600  0.84619200  0.82574200  1
  Te  Te0  1  0.24501100  0.43616100  0.77779000  1
  Te  Te1  1  0.25498900  0.93616100  0.27779000  1
  Te  Te2  1  0.75498900  0.56383900  0.22221000  1
  Te  Te3  1  0.74501100  0.06383900  0.72221000  1
  Te  Te4  1  0.14067800  0.36218400  0.56925600  1
  Te  Te5  1  0.35932200  0.86218400  0.06925600  1
  Te  Te6  1  0.85932200  0.63781600  0.43074400  1
  Te  Te7  1  0.64067800  0.13781600  0.93074400  1
  O  O0  1  0.53231700  0.44741500  0.71261200  1
  O  O1  1  0.96768300  0.94741500  0.21261200  1
  O  O2  1  0.46768300  0.55258500  0.28738800  1
  O  O3  1  0.03231700  0.05258500  0.78738800  1
  O  O4  1  0.89508300  0.53660900  0.56973300  1
  O  O5  1  0.60491700  0.03660900  0.06973300  1
  O  O6  1  0.10491700  0.46339100  0.43026700  1
  O  O7  1  0.39508300  0.96339100  0.93026700  1
  O  O8  1  0.93125900  0.87970000  0.64162000  1
  O  O9  1  0.56874100  0.37970000  0.14162000  1
  O  O10  1  0.06874100  0.12030000  0.35838000  1
  O  O11  1  0.43125900  0.62030000  0.85838000  1
  O  O12  1  0.56632100  0.86426500  0.74814300  1
  O  O13  1  0.93367900  0.36426500  0.24814300  1
  O  O14  1  0.43367900  0.13573500  0.25185700  1
  O  O15  1  0.06632100  0.63573500  0.75185700  1
  O  O16  1  0.39765600  0.69619900  0.59677600  1
  O  O17  1  0.10234400  0.19619900  0.09677600  1
  O  O18  1  0.60234400  0.30380100  0.40322400  1
  O  O19  1  0.89765600  0.80380100  0.90322400  1
  O  O20  1  0.06135500  0.31731800  0.67693800  1
  O  O21  1  0.43864500  0.81731800  0.17693800  1
  O  O22  1  0.93864500  0.68268200  0.32306200  1
  O  O23  1  0.56135500  0.18268200  0.82306200  1
  O  O24  1  0.91290100  0.18818800  0.52785000  1
  O  O25  1  0.58709900  0.68818800  0.02785000  1
  O  O26  1  0.08709900  0.81181200  0.47215000  1
  O  O27  1  0.41290100  0.31181200  0.97215000  1
  O  O28  1  0.36808800  0.03003300  0.58315500  1
  O  O29  1  0.13191200  0.53003300  0.08315500  1
  O  O30  1  0.63191200  0.96996700  0.41684500  1
  O  O31  1  0.86808800  0.46996700  0.91684500  1
loop_
_geom_bond_atom_site_label_1
_geom_bond_atom_site_label_2
_geom_bond_distance
_geom_bond_site_symmetry_2
In0 O0 2.098027 1_555
In0 O4 2.147544 1_555
In0 O12 2.194098 1_555
In0 O16 2.205833 1_555
In0 O8 2.240233 1_555
In0 O15 2.250820 1_655
In1 O1 2.098027 1_545
In1 O5 2.147544 1_555
In1 O13 2.194098 1_555
In1 O17 2.205833 1_655
In1 O9 2.240233 1_555
In1 O14 2.250820 1_555
In2 O2 2.098027 1_555
In2 O6 2.147544 1_555
In2 O14 2.194098 1_555
In2 O18 2.205833 1_555
In2 O10 2.240233 1_555
In2 O13 2.250820 1_455
In3 O3 2.098027 1_565
In3 O7 2.147544 1_555
In3 O15 2.194098 1_555
In3 O19 2.205833 1_455
In3 O11 2.240233 1_555
In3 O12 2.250820 1_555
O0 Te0 1.882678 1_555
O1 Te1 1.882678 1_655
O2 Te2 1.882678 1_555
O3 Te3 1.882678 1_455
O4 Te4 1.913877 1_655
O4 Te6 2.573073 1_555
O5 Te5 1.913877 1_545
O5 Te7 2.573073 1_554
O6 Te6 1.913877 1_455
O6 Te4 2.573073 1_555
O7 Te7 1.913877 1_565
O7 Te5 2.573073 1_556
O8 V0 1.832328 1_655
O8 Te3 2.175161 1_565
O9 V1 1.832328 1_555
O9 Te2 2.175161 1_555
O10 V2 1.832328 1_455
O10 Te1 2.175161 1_545
O11 V3 1.832328 1_555
O11 Te0 2.175161 1_555
O12 Te3 1.950590 1_565
O13 Te2 1.950590 1_555
O14 Te1 1.950590 1_545
O15 Te0 1.950590 1_555
O16 V0 1.720901 1_555
O17 V1 1.720901 1_555
O18 V2 1.720901 1_555
O19 V3 1.720901 1_555
O20 Te4 1.943003 1_555
O20 Te0 2.130420 1_555
O21 Te5 1.943003 1_555
O21 Te1 2.130420 1_555
O22 Te6 1.943003 1_555
O22 Te2 2.130420 1_555
O23 Te7 1.943003 1_555
O23 Te3 2.130420 1_555
O24 V2 1.851894 1_555
O24 Te4 1.938089 1_655
O25 V3 1.851894 1_554
O25 Te5 1.938089 1_555
O26 V0 1.851894 1_555
O26 Te6 1.938089 1_455
O27 V1 1.851894 1_556
O27 Te7 1.938089 1_555
O28 V0 1.647448 1_545
O29 V1 1.647448 1_555
O30 V2 1.647448 1_565
O31 V3 1.647448 1_555
