# generated using pymatgen
data_MgMnAlS4
_symmetry_space_group_name_H-M   'P 1'
_cell_length_a   7.27720801
_cell_length_b   7.24746042
_cell_length_c   7.24766258
_cell_angle_alpha   60.59616096
_cell_angle_beta   59.86578006
_cell_angle_gamma   59.89104391
_symmetry_Int_Tables_number   1
_chemical_formula_structural   MgMnAlS4
_chemical_formula_sum   'Mg2 Mn2 Al2 S8'
_cell_volume   270.98436220
_cell_formula_units_Z   2
loop_
 _symmetry_equiv_pos_site_id
 _symmetry_equiv_pos_as_xyz
  1  'x, y, z'
loop_
 _atom_site_type_symbol
 _atom_site_label
 _atom_site_symmetry_multiplicity
 _atom_site_fract_x
 _atom_site_fract_y
 _atom_site_fract_z
 _atom_site_occupancy
  Mg  Mg0  1  0.87526904  0.87478809  0.87458791  1
  Mg  Mg1  1  0.12474878  0.12523776  0.12540932  1
  Mn  Mn0  1  0.49997826  0.49998333  0.00003263  1
  Mn  Mn1  1  0.49991204  0.99993597  0.49997873  1
  Al  Al0  1  0.50002288  0.50000339  0.49997801  1
  Al  Al1  1  0.00000853  0.50000232  0.50003097  1
  S  S0  1  0.74299293  0.73608826  0.73612312  1
  S  S1  1  0.26093517  0.26470996  0.71329818  1
  S  S2  1  0.26082009  0.71329697  0.26499390  1
  S  S3  1  0.71439905  0.26370304  0.26371378  1
  S  S4  1  0.73919790  0.28672458  0.73499833  1
  S  S5  1  0.28560429  0.73629268  0.73628870  1
  S  S6  1  0.25700594  0.26392772  0.26388026  1
  S  S7  1  0.73910911  0.73530092  0.28668717  1
loop_
_geom_bond_atom_site_label_1
_geom_bond_atom_site_label_2
_geom_bond_distance
_geom_bond_site_symmetry_2
Mg0 S0 2.423937 1_555
Mg0 S5 2.429917 1_655
Mg0 S4 2.447704 1_565
Mg0 S7 2.448102 1_556
Mg1 S6 2.423803 1_555
Mg1 S3 2.430003 1_455
Mg1 S2 2.447729 1_545
Mg1 S1 2.448170 1_554
Mn0 S2 2.442692 1_555
Mn0 S4 2.442821 1_554
Mn0 S3 2.473710 1_555
Mn0 S5 2.473822 1_554
Mn0 S6 2.477430 1_555
Mn0 S0 2.477910 1_554
Mn1 S7 2.440930 1_555
Mn1 S1 2.441807 1_565
Mn1 S5 2.472040 1_555
Mn1 S3 2.473589 1_565
Mn1 S6 2.478406 1_565
Mn1 S0 2.479407 1_555
Al0 S3 2.411577 1_555
Al0 S5 2.411745 1_555
Al0 S2 2.451945 1_555
Al0 S4 2.451996 1_555
Al0 S1 2.452055 1_555
Al0 S7 2.452083 1_555
Al1 S0 2.409245 1_455
Al1 S6 2.409465 1_555
Al1 S4 2.450516 1_455
Al1 S2 2.450602 1_555
Al1 S1 2.452073 1_555
Al1 S7 2.452302 1_455
