# generated using pymatgen
data_AgSbTe2
_symmetry_space_group_name_H-M   'P 1'
_cell_length_a   3.75868500
_cell_length_b   3.75868500
_cell_length_c   7.44138100
_cell_angle_alpha   90.00000000
_cell_angle_beta   90.00000000
_cell_angle_gamma   90.00000000
_symmetry_Int_Tables_number   1
_chemical_formula_structural   AgSbTe2
_chemical_formula_sum   'Ag1 Sb1 Te2'
_cell_volume   105.12969456
_cell_formula_units_Z   1
loop_
 _symmetry_equiv_pos_site_id
 _symmetry_equiv_pos_as_xyz
  1  'x, y, z'
loop_
 _atom_site_type_symbol
 _atom_site_label
 _atom_site_symmetry_multiplicity
 _atom_site_fract_x
 _atom_site_fract_y
 _atom_site_fract_z
 _atom_site_occupancy
  Ag  Ag0  1  0.00000000  0.00000000  0.00000000  1
  Sb  Sb0  1  0.00000000  0.00000000  0.50000000  1
  Te  Te0  1  0.50000000  0.50000000  0.24372300  1
  Te  Te1  1  0.50000000  0.50000000  0.75627700  1
loop_
_geom_bond_atom_site_label_1
_geom_bond_atom_site_label_2
_geom_bond_distance
_geom_bond_site_symmetry_2
Ag0 Te0 3.217628 1_545
Ag0 Te1 3.217628 1_454
Ag0 Te1 3.217628 1_444
Ag0 Te0 3.217628 1_445
Ag0 Te1 3.217628 1_544
Ag0 Te0 3.217628 1_555
Ag0 Te1 3.217628 1_554
Ag0 Te0 3.217628 1_455
Sb0 Te0 3.271195 1_455
Sb0 Te0 3.271195 1_545
Sb0 Te0 3.271195 1_555
Sb0 Te0 3.271195 1_445
Sb0 Te1 3.271195 1_455
Sb0 Te1 3.271195 1_445
Sb0 Te1 3.271195 1_545
Sb0 Te1 3.271195 1_555
