# generated using pymatgen
data_Ho2Fe17C
_symmetry_space_group_name_H-M   'P 1'
_cell_length_a   8.24986500
_cell_length_b   8.51404110
_cell_length_c   8.53877109
_cell_angle_alpha   119.90410991
_cell_angle_beta   90.00000000
_cell_angle_gamma   90.00000000
_symmetry_Int_Tables_number   1
_chemical_formula_structural   Ho2Fe17C
_chemical_formula_sum   'Ho4 Fe34 C2'
_cell_volume   519.90909426
_cell_formula_units_Z   2
loop_
 _symmetry_equiv_pos_site_id
 _symmetry_equiv_pos_as_xyz
  1  'x, y, z'
loop_
 _atom_site_type_symbol
 _atom_site_label
 _atom_site_symmetry_multiplicity
 _atom_site_fract_x
 _atom_site_fract_y
 _atom_site_fract_z
 _atom_site_occupancy
  Ho  Ho0  1  0.75000000  0.33110800  0.66221800  1
  Ho  Ho1  1  0.25000000  0.66681000  0.33362100  1
  Ho  Ho2  1  0.75000000  0.00307800  0.00621400  1
  Ho  Ho3  1  0.25000000  0.99953400  0.99906100  1
  Fe  Fe0  1  0.75000000  0.94984800  0.62048800  1
  Fe  Fe1  1  0.75000000  0.67179800  0.05068100  1
  Fe  Fe2  1  0.75000000  0.37153900  0.32913700  1
  Fe  Fe3  1  0.75000000  0.67060000  0.62043700  1
  Fe  Fe4  1  0.75000000  0.37892500  0.05075100  1
  Fe  Fe5  1  0.75000000  0.95760800  0.32912700  1
  Fe  Fe6  1  0.25000000  0.04049000  0.36898500  1
  Fe  Fe7  1  0.25000000  0.32783000  0.95918000  1
  Fe  Fe8  1  0.25000000  0.62967500  0.67156900  1
  Fe  Fe9  1  0.25000000  0.32849600  0.36898200  1
  Fe  Fe10  1  0.25000000  0.63134300  0.95916800  1
  Fe  Fe11  1  0.25000000  0.04188300  0.67156900  1
  Fe  Fe12  1  0.39320100  0.33289100  0.66579500  1
  Fe  Fe13  1  0.60539500  0.66688100  0.33373500  1
  Fe  Fe14  1  0.89460500  0.66688100  0.33373500  1
  Fe  Fe15  1  0.10679900  0.33289100  0.66579500  1
  Fe  Fe16  1  0.51876100  0.66623000  0.83274900  1
  Fe  Fe17  1  0.51821200  0.16602500  0.33204100  1
  Fe  Fe18  1  0.51874300  0.16651300  0.83275200  1
  Fe  Fe19  1  0.48124700  0.33444300  0.16822400  1
  Fe  Fe20  1  0.48019600  0.83218700  0.66437900  1
  Fe  Fe21  1  0.48125100  0.83377500  0.16821000  1
  Fe  Fe22  1  0.01875300  0.33444300  0.16822400  1
  Fe  Fe23  1  0.01980400  0.83218700  0.66437900  1
  Fe  Fe24  1  0.01874900  0.83377500  0.16821000  1
  Fe  Fe25  1  0.98123900  0.66623000  0.83274900  1
  Fe  Fe26  1  0.98178800  0.16602500  0.33204100  1
  Fe  Fe27  1  0.98125700  0.16651300  0.83275200  1
  Fe  Fe28  1  0.49805200  0.99795700  0.49833600  1
  Fe  Fe29  1  0.49636700  0.50165700  0.00330000  1
  Fe  Fe30  1  0.49806000  0.50038400  0.49834400  1
  Fe  Fe31  1  0.00194800  0.99795700  0.49833600  1
  Fe  Fe32  1  0.00363300  0.50165700  0.00330000  1
  Fe  Fe33  1  0.00194000  0.50038400  0.49834400  1
  C  C0  1  0.75000000  0.16524700  0.83451400  1
  C  C1  1  0.75000000  0.66930100  0.83456500  1
loop_
_geom_bond_atom_site_label_1
_geom_bond_atom_site_label_2
_geom_bond_distance
_geom_bond_site_symmetry_2
Fe0 Fe31 2.449895 1_655
Fe0 Fe28 2.449895 1_555
Fe0 Fe5 2.521454 1_555
Fe0 Fe23 2.544159 1_655
Fe0 Fe20 2.544159 1_555
Fe0 Fe14 2.709389 1_555
Fe0 Fe13 2.709389 1_555
Fe1 Fe5 2.409462 1_555
Fe1 Fe29 2.460898 1_555
Fe1 Fe32 2.460898 1_655
Fe1 Fe24 2.538648 1_655
Fe1 Fe21 2.538648 1_555
Fe1 Fe14 2.714293 1_555
Fe1 Fe13 2.714293 1_555
Fe2 Fe4 2.409042 1_555
Fe2 Fe30 2.455724 1_555
Fe2 Fe33 2.455724 1_655
Fe2 Fe3 2.520943 1_555
Fe2 Fe22 2.543776 1_655
Fe2 Fe26 2.600404 1_555
Fe2 Ho2 2.969746 1_555
Fe2 Ho0 3.030446 1_555
Fe3 Fe30 2.449629 1_555
Fe3 Fe33 2.449629 1_655
Fe5 Ho2 2.969311 1_565
Fe5 Ho0 3.030429 1_565
Fe6 Fe9 2.452108 1_555
Fe6 Ho3 3.000118 1_544
Fe6 Ho1 3.042264 1_545
Fe7 Ho3 2.979558 1_545
Fe7 Ho1 3.057971 1_556
Fe8 Fe9 2.577771 1_555
Fe8 Ho3 2.992601 1_555
Fe8 Ho1 3.055603 1_555
Fe9 Ho3 3.000087 1_544
Fe9 Ho1 3.042232 1_555
Fe10 Fe32 2.430445 1_556
Fe10 Fe29 2.430445 1_556
Fe10 Fe8 2.448693 1_555
Fe10 Fe16 2.547416 1_555
Fe10 Fe25 2.547416 1_455
Fe10 Fe7 2.584173 1_555
Fe10 Fe21 2.593987 1_556
Fe10 Fe24 2.593987 1_556
Fe10 Fe12 2.789415 1_555
Fe10 Fe15 2.789415 1_555
Fe10 Ho3 2.979636 1_555
Fe10 Ho1 3.058046 1_556
Fe11 Fe28 2.442136 1_545
Fe11 Fe31 2.442136 1_545
Fe11 Fe7 2.448817 1_555
Fe11 Fe18 2.545485 1_555
Fe11 Fe27 2.545485 1_455
Fe11 Fe6 2.577803 1_555
Fe11 Fe20 2.586217 1_545
Fe11 Fe23 2.586217 1_545
Fe11 Fe12 2.767432 1_555
Fe11 Fe15 2.767432 1_555
Fe11 Ho3 2.992504 1_545
Fe11 Ho1 3.055561 1_545
Fe12 Fe15 2.362778 1_555
Fe12 Fe28 2.618964 1_545
Fe12 Fe30 2.619051 1_555
Fe12 Fe29 2.639190 1_556
Fe12 Fe18 2.669314 1_555
Fe12 Fe16 2.669403 1_555
Fe12 Fe17 2.677054 1_555
Fe12 Fe8 2.767448 1_555
Fe12 Fe6 2.779460 1_555
Fe12 Fe9 2.779531 1_555
Fe12 Fe7 2.789432 1_555
Fe12 Ho0 2.943663 1_555
Fe13 Fe14 2.385943 1_555
Fe13 Fe28 2.599025 1_555
Fe13 Fe30 2.599207 1_555
Fe13 Fe29 2.606003 1_555
Fe13 Fe20 2.656428 1_555
Fe13 Fe21 2.658600 1_555
Fe13 Fe19 2.658747 1_555
Fe13 Fe3 2.709244 1_555
Fe13 Fe4 2.713976 1_555
Fe13 Fe5 2.765639 1_555
Fe13 Fe2 2.765731 1_555
Fe13 Ho1 2.931961 1_555
Fe14 Fe31 2.599025 1_655
Fe14 Fe33 2.599207 1_655
Fe14 Fe32 2.606003 1_655
Fe14 Fe23 2.656428 1_655
Fe14 Fe24 2.658600 1_655
Fe14 Fe22 2.658747 1_655
Fe14 Fe3 2.709244 1_555
Fe14 Fe4 2.713976 1_555
Fe14 Fe5 2.765639 1_555
Fe14 Fe2 2.765731 1_555
Fe14 Ho1 2.931961 1_655
Fe15 Fe31 2.618964 1_545
Fe15 Fe33 2.619051 1_555
Fe15 Fe32 2.639190 1_556
Fe15 Fe27 2.669314 1_455
Fe15 Fe25 2.669403 1_455
Fe15 Fe26 2.677054 1_455
Fe15 Fe8 2.767448 1_555
Fe15 Fe6 2.779460 1_555
Fe15 Fe9 2.779531 1_555
Fe15 Fe7 2.789432 1_555
Fe15 Ho0 2.943663 1_455
Fe16 Fe29 2.480495 1_556
Fe16 Fe30 2.481153 1_555
Fe16 Fe20 2.487988 1_555
Fe16 Fe21 2.502267 1_556
Fe16 Fe8 2.545599 1_555
Fe16 Ho3 3.311726 1_555
Fe17 Fe19 2.470969 1_555
Fe17 Fe21 2.471080 1_545
Fe17 Fe30 2.473327 1_555
Fe17 Fe28 2.473356 1_545
Fe17 Fe9 2.544407 1_555
Fe17 Fe6 2.544435 1_555
Fe17 Fe5 2.600370 1_545
Fe17 Fe2 2.600404 1_555
Fe17 Ho2 3.077842 1_555
Fe17 Ho0 3.103137 1_555
Fe17 Ho3 3.312222 1_544
Fe18 Fe29 2.480635 1_556
Fe18 Fe28 2.481228 1_545
Fe18 Fe20 2.487967 1_545
Fe18 Fe19 2.502334 1_556
Fe18 Fe7 2.547331 1_555
Fe18 Ho3 3.311535 1_545
Fe19 Fe30 2.447469 1_555
Fe19 Fe29 2.454509 1_555
Fe19 Fe4 2.538551 1_555
Fe19 Fe2 2.543776 1_555
Fe19 Fe9 2.582095 1_555
Fe19 Fe7 2.593963 1_554
Fe19 Ho1 3.107555 1_555
Fe19 Ho3 3.122470 1_544
Fe19 Ho2 3.301143 1_555
Fe20 Fe30 2.453317 1_555
Fe20 Fe28 2.453382 1_555
Fe20 Fe3 2.544245 1_555
Fe20 Fe8 2.586251 1_555
Fe20 Ho1 3.098458 1_555
Fe20 Ho3 3.121458 1_555
Fe20 Ho2 3.369940 1_566
Fe21 Fe28 2.447508 1_555
Fe21 Fe29 2.454364 1_555
Fe21 Fe5 2.543779 1_555
Fe21 Fe6 2.582199 1_565
Fe21 Ho1 3.107624 1_555
Fe21 Ho3 3.122479 1_554
Fe21 Ho2 3.300755 1_565
Fe22 Fe33 2.447469 1_555
Fe22 Fe32 2.454509 1_555
Fe22 Fe26 2.470969 1_455
Fe22 Fe27 2.502334 1_454
Fe22 Fe4 2.538551 1_455
Fe22 Fe9 2.582095 1_555
Fe22 Fe7 2.593963 1_554
Fe22 Ho1 3.107555 1_555
Fe22 Ho3 3.122470 1_544
Fe22 Ho2 3.301143 1_455
Fe23 Fe33 2.453317 1_555
Fe23 Fe31 2.453382 1_555
Fe23 Fe27 2.487967 1_465
Fe23 Fe25 2.487988 1_455
Fe23 Fe3 2.544245 1_455
Fe23 Fe8 2.586251 1_555
Fe23 Ho1 3.098458 1_555
Fe23 Ho3 3.121458 1_555
Fe23 Ho2 3.369940 1_466
Fe24 Fe31 2.447508 1_555
Fe24 Fe32 2.454364 1_555
Fe24 Fe26 2.471080 1_465
Fe24 Fe25 2.502267 1_454
Fe24 Fe5 2.543779 1_455
Fe24 Fe6 2.582199 1_565
Fe24 Ho1 3.107624 1_555
Fe24 Ho3 3.122479 1_554
Fe24 Ho2 3.300755 1_465
Fe25 Fe32 2.480495 1_656
Fe25 Fe33 2.481153 1_655
Fe25 Fe8 2.545599 1_655
Fe25 Ho3 3.311726 1_655
Fe26 Fe33 2.473327 1_655
Fe26 Fe31 2.473356 1_645
Fe26 Fe9 2.544407 1_655
Fe26 Fe6 2.544435 1_655
Fe26 Fe5 2.600370 1_545
Fe26 Ho2 3.077842 1_555
Fe26 Ho0 3.103137 1_555
Fe26 Ho3 3.312222 1_644
Fe27 Fe32 2.480635 1_656
Fe27 Fe31 2.481228 1_645
Fe27 Fe7 2.547331 1_655
Fe27 Ho3 3.311535 1_645
Fe28 Fe6 2.436719 1_565
Fe28 Fe5 2.455804 1_555
Fe28 Ho1 3.187633 1_555
Fe28 Ho0 3.219677 1_565
Fe29 Fe7 2.430502 1_554
Fe29 Fe4 2.461002 1_555
Fe29 Ho1 3.179484 1_555
Fe29 Ho0 3.279059 1_554
Fe30 Fe9 2.436803 1_555
Fe30 Fe8 2.442146 1_555
Fe30 Ho1 3.187683 1_555
Fe30 Ho0 3.219625 1_555
Fe31 Fe6 2.436719 1_565
Fe31 Fe5 2.455804 1_455
Fe31 Ho1 3.187633 1_555
Fe31 Ho0 3.219677 1_465
Fe32 Fe7 2.430502 1_554
Fe32 Fe4 2.461002 1_455
Fe32 Ho1 3.179484 1_555
Fe32 Ho0 3.279059 1_454
Fe33 Fe9 2.436803 1_555
Fe33 Fe8 2.442146 1_555
Fe33 Ho1 3.187683 1_555
Fe33 Ho0 3.219625 1_455
C0 Fe0 1.833379 1_545
C0 Fe4 1.835637 1_556
C0 Fe27 1.907971 1_555
C0 Fe18 1.907971 1_555
C0 Ho2 2.464598 1_556
C0 Ho0 2.496017 1_555
C1 Fe3 1.833929 1_555
C1 Fe1 1.834859 1_556
C1 Fe16 1.907827 1_555
C1 Fe25 1.907827 1_555
C1 Ho2 2.463923 1_566
C1 Ho0 2.496291 1_555
