# generated using pymatgen
data_HoCuO2
_symmetry_space_group_name_H-M   'P 1'
_cell_length_a   3.49765283
_cell_length_b   3.49765283
_cell_length_c   11.34677721
_cell_angle_alpha   90.00000000
_cell_angle_beta   90.00000000
_cell_angle_gamma   120.00001035
_symmetry_Int_Tables_number   1
_chemical_formula_structural   HoCuO2
_chemical_formula_sum   'Ho2 Cu2 O4'
_cell_volume   120.21440566
_cell_formula_units_Z   2
loop_
 _symmetry_equiv_pos_site_id
 _symmetry_equiv_pos_as_xyz
  1  'x, y, z'
loop_
 _atom_site_type_symbol
 _atom_site_label
 _atom_site_symmetry_multiplicity
 _atom_site_fract_x
 _atom_site_fract_y
 _atom_site_fract_z
 _atom_site_occupancy
  Ho  Ho0  1  -0.00000000  0.00000000  -0.00000000  1
  Ho  Ho1  1  -0.00000000  0.00000000  0.50000000  1
  Cu  Cu0  1  0.33333300  0.66666700  0.25000000  1
  Cu  Cu1  1  0.66666700  0.33333300  0.75000000  1
  O  O0  1  0.33333300  0.66666700  0.09020137  1
  O  O1  1  0.33333300  0.66666700  0.40979863  1
  O  O2  1  0.66666700  0.33333300  0.59020137  1
  O  O3  1  0.66666700  0.33333300  0.90979863  1
loop_
_geom_bond_atom_site_label_1
_geom_bond_atom_site_label_2
_geom_bond_distance
_geom_bond_site_symmetry_2
Ho0 O3 2.263933 1_454
Ho0 O0 2.263933 1_545
Ho0 O3 2.263935 1_554
Ho0 O3 2.263935 1_444
Ho0 O0 2.263935 1_555
Ho0 O0 2.263935 1_445
Ho1 O2 2.263933 1_455
Ho1 O1 2.263933 1_545
Ho1 O2 2.263935 1_555
Ho1 O2 2.263935 1_445
Ho1 O1 2.263935 1_445
Ho1 O1 2.263935 1_555
Cu0 O0 1.813199 1_555
Cu0 O1 1.813199 1_555
Cu1 O3 1.813199 1_555
Cu1 O2 1.813199 1_555
