# generated using pymatgen
data_Cu11PdN4
_symmetry_space_group_name_H-M   'P 1'
_cell_length_a   7.45734900
_cell_length_b   7.45734900
_cell_length_c   3.74580000
_cell_angle_alpha   90.00000000
_cell_angle_beta   90.00000000
_cell_angle_gamma   90.00000000
_symmetry_Int_Tables_number   1
_chemical_formula_structural   Cu11PdN4
_chemical_formula_sum   'Cu11 Pd1 N4'
_cell_volume   208.31163228
_cell_formula_units_Z   1
loop_
 _symmetry_equiv_pos_site_id
 _symmetry_equiv_pos_as_xyz
  1  'x, y, z'
loop_
 _atom_site_type_symbol
 _atom_site_label
 _atom_site_symmetry_multiplicity
 _atom_site_fract_x
 _atom_site_fract_y
 _atom_site_fract_z
 _atom_site_occupancy
  Cu  Cu0  1  0.50000000  0.50000000  0.50000000  1
  Cu  Cu1  1  0.24310000  0.50000000  0.00000000  1
  Cu  Cu2  1  0.75690000  0.50000000  0.00000000  1
  Cu  Cu3  1  0.50000000  0.75690000  0.00000000  1
  Cu  Cu4  1  0.50000000  0.24310000  0.00000000  1
  Cu  Cu5  1  0.00000000  0.50000000  0.50000000  1
  Cu  Cu6  1  0.50000000  0.00000000  0.50000000  1
  Cu  Cu7  1  0.24871900  0.24871900  0.50000000  1
  Cu  Cu8  1  0.75128100  0.75128100  0.50000000  1
  Cu  Cu9  1  0.24871900  0.75128100  0.50000000  1
  Cu  Cu10  1  0.75128100  0.24871900  0.50000000  1
  Pd  Pd0  1  0.00000000  0.00000000  0.50000000  1
  N  N0  1  0.00000000  0.00000000  0.00000000  1
  N  N1  1  0.50000000  0.50000000  0.00000000  1
  N  N2  1  0.00000000  0.50000000  0.00000000  1
  N  N3  1  0.50000000  0.00000000  0.00000000  1
loop_
_geom_bond_atom_site_label_1
_geom_bond_atom_site_label_2
_geom_bond_distance
_geom_bond_site_symmetry_2
Cu0 N1 1.872900 1_556
Cu0 N1 1.872900 1_555
Cu0 Cu8 2.650081 1_555
Cu0 Cu7 2.650081 1_555
Cu0 Cu9 2.650081 1_555
Cu0 Cu10 2.650081 1_555
Cu1 N2 1.812882 1_555
Cu1 N1 1.915793 1_555
Cu1 Cu9 2.649712 1_554
Cu1 Cu7 2.649712 1_554
Cu1 Cu7 2.649712 1_555
Cu1 Cu9 2.649712 1_555
Cu2 N2 1.812882 1_655
Cu2 N1 1.915793 1_555
Cu2 Cu8 2.649712 1_555
Cu2 Cu8 2.649712 1_554
Cu3 N3 1.812882 1_565
Cu3 N1 1.915793 1_555
Cu3 Cu9 2.649712 1_554
Cu3 Cu8 2.649712 1_555
Cu3 Cu8 2.649712 1_554
Cu3 Cu9 2.649712 1_555
Cu4 N3 1.812882 1_555
Cu4 N1 1.915793 1_555
Cu4 Cu7 2.649712 1_554
Cu4 Cu7 2.649712 1_555
Cu5 N2 1.872900 1_556
Cu5 N2 1.872900 1_555
Cu5 Cu7 2.636606 1_555
Cu5 Cu9 2.636606 1_555
Cu5 Cu8 2.636606 1_455
Cu6 N3 1.872900 1_555
Cu6 N3 1.872900 1_556
Cu6 Cu7 2.636606 1_555
Cu6 Cu8 2.636606 1_545
Cu6 Cu9 2.636606 1_545
Cu7 Pd0 2.623061 1_555
Cu8 Pd0 2.623061 1_665
Cu9 Pd0 2.623061 1_565
Cu10 Pd0 2.623061 1_655
Cu10 Cu6 2.636606 1_555
Cu10 Cu5 2.636606 1_655
Cu10 Cu2 2.649712 1_556
Cu10 Cu4 2.649712 1_555
Cu10 Cu2 2.649712 1_555
Cu10 Cu4 2.649712 1_556
N0 Pd0 1.872900 1_554
N0 Pd0 1.872900 1_555
