# generated using pymatgen
data_Mg14ZnBiO16
_symmetry_space_group_name_H-M   'P 1'
_cell_length_a   4.40998400
_cell_length_b   8.74632200
_cell_length_c   8.75814600
_cell_angle_alpha   90.00000000
_cell_angle_beta   90.00000000
_cell_angle_gamma   90.00000000
_symmetry_Int_Tables_number   1
_chemical_formula_structural   Mg14ZnBiO16
_chemical_formula_sum   'Mg14 Zn1 Bi1 O16'
_cell_volume   337.81167620
_cell_formula_units_Z   1
loop_
 _symmetry_equiv_pos_site_id
 _symmetry_equiv_pos_as_xyz
  1  'x, y, z'
loop_
 _atom_site_type_symbol
 _atom_site_label
 _atom_site_symmetry_multiplicity
 _atom_site_fract_x
 _atom_site_fract_y
 _atom_site_fract_z
 _atom_site_occupancy
  Mg  Mg0  1  0.00000000  0.50000000  0.00000000  1
  Mg  Mg1  1  0.00000000  0.50000000  0.50000000  1
  Mg  Mg2  1  0.50000000  0.00000000  0.23392100  1
  Mg  Mg3  1  0.50000000  0.00000000  0.76607900  1
  Mg  Mg4  1  0.50000000  0.50000000  0.24692500  1
  Mg  Mg5  1  0.50000000  0.50000000  0.75307500  1
  Mg  Mg6  1  0.50000000  0.25244400  0.00000000  1
  Mg  Mg7  1  0.50000000  0.26436500  0.50000000  1
  Mg  Mg8  1  0.50000000  0.74755600  0.00000000  1
  Mg  Mg9  1  0.50000000  0.73563500  0.50000000  1
  Mg  Mg10  1  0.00000000  0.25762600  0.24063200  1
  Mg  Mg11  1  0.00000000  0.25762600  0.75936800  1
  Mg  Mg12  1  0.00000000  0.74237400  0.24063200  1
  Mg  Mg13  1  0.00000000  0.74237400  0.75936800  1
  Zn  Zn0  1  0.00000000  0.00000000  0.00000000  1
  Bi  Bi0  1  0.00000000  0.00000000  0.50000000  1
  O  O0  1  0.00000000  0.26599300  0.00000000  1
  O  O1  1  0.00000000  0.26930700  0.50000000  1
  O  O2  1  0.00000000  0.73400700  0.00000000  1
  O  O3  1  0.00000000  0.73069300  0.50000000  1
  O  O4  1  0.50000000  0.24874100  0.25211100  1
  O  O5  1  0.50000000  0.24874100  0.74788900  1
  O  O6  1  0.50000000  0.75125900  0.25211100  1
  O  O7  1  0.50000000  0.75125900  0.74788900  1
  O  O8  1  0.50000000  0.00000000  0.00000000  1
  O  O9  1  0.50000000  0.00000000  0.50000000  1
  O  O10  1  0.50000000  0.50000000  0.00000000  1
  O  O11  1  0.50000000  0.50000000  0.50000000  1
  O  O12  1  0.00000000  0.00000000  0.23148300  1
  O  O13  1  0.00000000  0.00000000  0.76851700  1
  O  O14  1  0.00000000  0.50000000  0.24982800  1
  O  O15  1  0.00000000  0.50000000  0.75017200  1
loop_
_geom_bond_atom_site_label_1
_geom_bond_atom_site_label_2
_geom_bond_distance
_geom_bond_site_symmetry_2
Mg0 O2 2.046701 1_555
Mg0 O0 2.046701 1_555
Mg0 O14 2.188030 1_555
Mg0 O15 2.188030 1_554
Mg0 O10 2.204992 1_455
Mg0 O10 2.204992 1_555
Mg1 O3 2.017715 1_555
Mg1 O1 2.017715 1_555
Mg1 O15 2.191043 1_555
Mg1 O14 2.191043 1_555
Mg1 O11 2.204992 1_555
Mg1 O11 2.204992 1_455
Mg2 O8 2.048714 1_555
Mg2 O4 2.181394 1_555
Mg2 O6 2.181394 1_545
Mg2 O12 2.205095 1_555
Mg2 O12 2.205095 1_655
Mg2 O9 2.330359 1_555
Mg3 O8 2.048714 1_556
Mg3 O5 2.181394 1_555
Mg3 O7 2.181394 1_545
Mg3 O13 2.205095 1_555
Mg3 O13 2.205095 1_655
Mg3 O9 2.330359 1_555
Mg4 O10 2.162605 1_555
Mg4 O4 2.198061 1_555
Mg4 O6 2.198061 1_555
Mg4 O14 2.205139 1_555
Mg4 O14 2.205139 1_655
Mg4 O11 2.216468 1_555
Mg5 O10 2.162605 1_556
Mg5 O5 2.198061 1_555
Mg5 O7 2.198061 1_555
Mg5 O15 2.205139 1_655
Mg5 O15 2.205139 1_555
Mg5 O11 2.216468 1_555
Mg6 O10 2.165204 1_555
Mg6 O8 2.207957 1_555
Mg6 O0 2.208174 1_555
Mg6 O0 2.208174 1_655
Mg6 O4 2.208262 1_555
Mg6 O5 2.208262 1_554
Mg7 O11 2.060940 1_555
Mg7 O5 2.175344 1_555
Mg7 O4 2.175344 1_555
Mg7 O1 2.205416 1_655
Mg7 O1 2.205416 1_555
Mg7 O9 2.312221 1_555
Mg8 O10 2.165204 1_555
Mg8 O8 2.207957 1_565
Mg8 O2 2.208174 1_655
Mg8 O2 2.208174 1_555
Mg8 O6 2.208262 1_555
Mg8 O7 2.208262 1_554
Mg9 O11 2.060940 1_555
Mg9 O7 2.175344 1_555
Mg9 O6 2.175344 1_555
Mg9 O3 2.205416 1_655
Mg9 O3 2.205416 1_555
Mg9 O9 2.312221 1_565
Mg10 O0 2.108760 1_555
Mg10 O14 2.121410 1_555
Mg10 O4 2.208650 1_555
Mg10 O4 2.208650 1_455
Mg10 O12 2.254704 1_555
Mg10 O1 2.273879 1_555
Mg11 O0 2.108760 1_556
Mg11 O15 2.121410 1_555
Mg11 O5 2.208650 1_455
Mg11 O5 2.208650 1_555
Mg11 O13 2.254704 1_555
Mg11 O1 2.273879 1_555
Mg12 O2 2.108760 1_555
Mg12 O14 2.121410 1_555
Mg12 O6 2.208650 1_555
Mg12 O6 2.208650 1_455
Mg12 O12 2.254704 1_565
Mg12 O3 2.273879 1_555
Mg13 O2 2.108760 1_556
Mg13 O15 2.121410 1_555
Mg13 O7 2.208650 1_455
Mg13 O7 2.208650 1_555
Mg13 O13 2.254704 1_565
Mg13 O3 2.273879 1_555
Bi0 O9 2.204992 1_455
Bi0 O9 2.204992 1_555
Bi0 O13 2.351711 1_555
Bi0 O12 2.351711 1_555
Bi0 O1 2.355446 1_555
Bi0 O3 2.355446 1_545
O0 Zn0 2.326460 1_555
O2 Zn0 2.326460 1_565
O8 Zn0 2.204992 1_655
O8 Zn0 2.204992 1_555
O12 Zn0 2.027362 1_555
O13 Zn0 2.027362 1_556
