# generated using pymatgen
data_BaSbAu
_symmetry_space_group_name_H-M   'P 1'
_cell_length_a   5.68500410
_cell_length_b   5.68500410
_cell_length_c   6.90717400
_cell_angle_alpha   90.00000000
_cell_angle_beta   90.00000000
_cell_angle_gamma   120.00000116
_symmetry_Int_Tables_number   1
_chemical_formula_structural   BaSbAu
_chemical_formula_sum   'Ba2 Sb2 Au2'
_cell_volume   193.32703378
_cell_formula_units_Z   2
loop_
 _symmetry_equiv_pos_site_id
 _symmetry_equiv_pos_as_xyz
  1  'x, y, z'
loop_
 _atom_site_type_symbol
 _atom_site_label
 _atom_site_symmetry_multiplicity
 _atom_site_fract_x
 _atom_site_fract_y
 _atom_site_fract_z
 _atom_site_occupancy
  Ba  Ba0  1  0.33333300  0.66666700  0.25000000  1
  Ba  Ba1  1  0.66666700  0.33333300  0.75000000  1
  Sb  Sb0  1  0.66666700  0.33333300  0.25000000  1
  Sb  Sb1  1  0.33333300  0.66666700  0.75000000  1
  Au  Au0  1  0.00000000  0.00000000  0.50000000  1
  Au  Au1  1  0.00000000  0.00000000  0.00000000  1
loop_
_geom_bond_atom_site_label_1
_geom_bond_atom_site_label_2
_geom_bond_distance
_geom_bond_site_symmetry_2
Ba0 Sb0 3.282235 1_455
Ba0 Sb0 3.282235 1_565
Ba0 Sb0 3.282245 1_555
Ba0 Sb1 3.453587 1_554
Ba0 Sb1 3.453587 1_555
Ba1 Sb1 3.282235 1_545
Ba1 Sb1 3.282235 1_655
Ba1 Sb1 3.282245 1_555
Ba1 Sb0 3.453587 1_555
Ba1 Sb0 3.453587 1_556
Au0 Ba0 3.708758 1_545
Au0 Ba1 3.708758 1_455
Au0 Ba0 3.708762 1_445
Au0 Ba1 3.708762 1_445
Au0 Ba1 3.708762 1_555
Au0 Ba0 3.708762 1_555
Au1 Ba0 3.708758 1_545
Au1 Ba1 3.708758 1_454
Au1 Ba1 3.708762 1_554
Au1 Ba0 3.708762 1_445
Au1 Ba1 3.708762 1_444
Au1 Ba0 3.708762 1_555
