# generated using pymatgen
data_ScTlCd
_symmetry_space_group_name_H-M   'P 1'
_cell_length_a   4.86450716
_cell_length_b   4.86450716
_cell_length_c   4.86450716
_cell_angle_alpha   60.00000000
_cell_angle_beta   60.00000000
_cell_angle_gamma   60.00000000
_symmetry_Int_Tables_number   1
_chemical_formula_structural   ScTlCd
_chemical_formula_sum   'Sc1 Tl1 Cd1'
_cell_volume   81.39571511
_cell_formula_units_Z   1
loop_
 _symmetry_equiv_pos_site_id
 _symmetry_equiv_pos_as_xyz
  1  'x, y, z'
loop_
 _atom_site_type_symbol
 _atom_site_label
 _atom_site_symmetry_multiplicity
 _atom_site_fract_x
 _atom_site_fract_y
 _atom_site_fract_z
 _atom_site_occupancy
  Sc  Sc0  1  0.75000000  0.75000000  0.75000000  1
  Tl  Tl0  1  0.00000000  0.00000000  0.00000000  1
  Cd  Cd0  1  0.50000000  0.50000000  0.50000000  1
loop_
_geom_bond_atom_site_label_1
_geom_bond_atom_site_label_2
_geom_bond_distance
_geom_bond_site_symmetry_2
Sc0 Tl0 2.978890 1_656
Sc0 Tl0 2.978890 1_566
Sc0 Tl0 2.978890 1_665
Sc0 Tl0 2.978890 1_666
Cd0 Sc0 2.978890 1_545
Cd0 Sc0 2.978890 1_554
Cd0 Sc0 2.978890 1_455
Cd0 Sc0 2.978890 1_555
