# generated using pymatgen
data_Al2NiOs
_symmetry_space_group_name_H-M   'P 1'
_cell_length_a   4.15499763
_cell_length_b   4.15499763
_cell_length_c   4.15499763
_cell_angle_alpha   60.00000000
_cell_angle_beta   60.00000000
_cell_angle_gamma   60.00000000
_symmetry_Int_Tables_number   1
_chemical_formula_structural   Al2NiOs
_chemical_formula_sum   'Al2 Ni1 Os1'
_cell_volume   50.72211372
_cell_formula_units_Z   1
loop_
 _symmetry_equiv_pos_site_id
 _symmetry_equiv_pos_as_xyz
  1  'x, y, z'
loop_
 _atom_site_type_symbol
 _atom_site_label
 _atom_site_symmetry_multiplicity
 _atom_site_fract_x
 _atom_site_fract_y
 _atom_site_fract_z
 _atom_site_occupancy
  Al  Al0  1  0.75000000  0.75000000  0.75000000  1
  Al  Al1  1  0.25000000  0.25000000  0.25000000  1
  Ni  Ni0  1  0.50000000  0.50000000  0.50000000  1
  Os  Os0  1  0.00000000  0.00000000  0.00000000  1
loop_
_geom_bond_atom_site_label_1
_geom_bond_atom_site_label_2
_geom_bond_distance
_geom_bond_site_symmetry_2
Al0 Os0 2.544406 1_666
Al0 Ni0 2.544406 1_556
Al0 Os0 2.544406 1_665
Al0 Ni0 2.544406 1_655
Al0 Os0 2.544406 1_566
Al0 Ni0 2.544406 1_555
Al0 Ni0 2.544406 1_565
Al0 Os0 2.544406 1_656
Al1 Ni0 2.544406 1_554
Al1 Os0 2.544406 1_555
Al1 Ni0 2.544406 1_455
Al1 Os0 2.544406 1_556
Al1 Os0 2.544406 1_565
Al1 Ni0 2.544406 1_555
Al1 Os0 2.544406 1_655
Al1 Ni0 2.544406 1_545
