# generated using pymatgen
data_MgFe3Ni2Sb(PO4)6
_symmetry_space_group_name_H-M   'P 1'
_cell_length_a   8.69890997
_cell_length_b   8.69891443
_cell_length_c   8.69890985
_cell_angle_alpha   59.98525429
_cell_angle_beta   59.98527420
_cell_angle_gamma   59.98525894
_symmetry_Int_Tables_number   1
_chemical_formula_structural   MgFe3Ni2Sb(PO4)6
_chemical_formula_sum   'Mg1 Fe3 Ni2 Sb1 P6 O24'
_cell_volume   465.30163244
_cell_formula_units_Z   1
loop_
 _symmetry_equiv_pos_site_id
 _symmetry_equiv_pos_as_xyz
  1  'x, y, z'
loop_
 _atom_site_type_symbol
 _atom_site_label
 _atom_site_symmetry_multiplicity
 _atom_site_fract_x
 _atom_site_fract_y
 _atom_site_fract_z
 _atom_site_occupancy
  Mg  Mg0  1  0.24989000  0.24989000  0.24989000  1
  Fe  Fe0  1  0.12803900  0.12803900  0.12803800  1
  Fe  Fe1  1  0.37262800  0.37262800  0.37262800  1
  Fe  Fe2  1  0.64748800  0.64748900  0.64748800  1
  Ni  Ni0  1  0.99941900  0.99942300  0.99942300  1
  Ni  Ni1  1  0.50560300  0.50560100  0.50560200  1
  Sb  Sb0  1  0.85351100  0.85351100  0.85351100  1
  P  P0  1  0.04265500  0.74548000  0.45755100  1
  P  P1  1  0.45755200  0.04265500  0.74548000  1
  P  P2  1  0.74548000  0.45755200  0.04265500  1
  P  P3  1  0.25341300  0.54662900  0.94622900  1
  P  P4  1  0.54662900  0.94622900  0.25341300  1
  P  P5  1  0.94623000  0.25341300  0.54662900  1
  O  O0  1  0.11576000  0.29760700  0.50573300  1
  O  O1  1  0.29760700  0.50573200  0.11576000  1
  O  O2  1  0.03847300  0.89620400  0.26178400  1
  O  O3  1  0.50573300  0.11576000  0.29760700  1
  O  O4  1  0.98162200  0.85048900  0.59524800  1
  O  O5  1  0.24397800  0.60817500  0.45345200  1
  O  O6  1  0.26178400  0.03847300  0.89620400  1
  O  O7  1  0.45345200  0.24397800  0.60817600  1
  O  O8  1  0.19964600  0.38073800  0.99491200  1
  O  O9  1  0.60817600  0.45345100  0.24397900  1
  O  O10  1  0.08298000  0.74522100  0.93174800  1
  O  O11  1  0.38073800  0.99491100  0.19964600  1
  O  O12  1  0.59524900  0.98162200  0.85048900  1
  O  O13  1  0.89620400  0.26178500  0.03847300  1
  O  O14  1  0.40723000  0.57679100  0.75089200  1
  O  O15  1  0.85048800  0.59524900  0.98162200  1
  O  O16  1  0.57679100  0.75089200  0.40723000  1
  O  O17  1  0.74522100  0.93174800  0.08298000  1
  O  O18  1  0.75089200  0.40723000  0.57679000  1
  O  O19  1  0.99491200  0.19964600  0.38073800  1
  O  O20  1  0.53167400  0.90428500  0.64682100  1
  O  O21  1  0.93174800  0.08298000  0.74522100  1
  O  O22  1  0.64682100  0.53167500  0.90428500  1
  O  O23  1  0.90428500  0.64682200  0.53167500  1
loop_
_geom_bond_atom_site_label_1
_geom_bond_atom_site_label_2
_geom_bond_distance
_geom_bond_site_symmetry_2
Mg0 O1 2.080511 1_555
Mg0 O3 2.080518 1_555
Mg0 O0 2.080518 1_555
Mg0 O8 2.086302 1_554
Mg0 O19 2.086303 1_455
Mg0 O11 2.086311 1_545
Fe0 O6 2.084578 1_554
Fe0 O13 2.084578 1_455
Fe0 O2 2.084585 1_545
Fe0 O8 2.159314 1_554
Fe0 O11 2.159316 1_545
Fe0 O19 2.159321 1_455
Fe1 O5 2.074883 1_555
Fe1 O9 2.074887 1_555
Fe1 O7 2.074890 1_555
Fe1 O0 2.207700 1_555
Fe1 O1 2.207701 1_555
Fe1 O3 2.207701 1_555
Fe2 O20 1.935574 1_555
Fe2 O22 1.935581 1_555
Fe2 O23 1.935582 1_555
Fe2 O16 2.099291 1_555
Fe2 O14 2.099295 1_555
Fe2 O18 2.099303 1_555
Ni0 O13 2.133235 1_566
Ni0 O2 2.133235 1_656
Ni0 O6 2.133252 1_665
Ni0 O17 2.242938 1_556
Ni0 O21 2.242950 1_565
Ni0 O10 2.242961 1_655
Ni1 O18 2.152601 1_555
Ni1 O14 2.152615 1_555
Ni1 O16 2.152616 1_555
Ni1 O9 2.185803 1_555
Ni1 O7 2.185806 1_555
Ni1 O5 2.185816 1_555
O0 P5 1.534494 1_455
O1 P3 1.534499 1_554
O2 P0 1.549492 1_555
O3 P4 1.534503 1_545
O4 P0 1.588798 1_655
O4 Sb0 1.953167 1_555
O5 P0 1.543485 1_555
O6 P1 1.549498 1_555
O7 P1 1.543482 1_555
O8 P3 1.531745 1_555
O9 P2 1.543487 1_555
O10 P3 1.614023 1_555
O10 Sb0 2.042455 1_455
O11 P4 1.531747 1_555
O12 P1 1.588797 1_565
O12 Sb0 1.953159 1_555
O13 P2 1.549492 1_555
O14 P3 1.541783 1_555
O15 P2 1.588791 1_556
O15 Sb0 1.953163 1_555
O16 P4 1.541783 1_555
O17 P4 1.614023 1_555
O17 Sb0 2.042456 1_554
O18 P5 1.541788 1_555
O19 P5 1.531748 1_555
O20 P1 1.518068 1_565
O21 P5 1.614023 1_555
O21 Sb0 2.042456 1_545
O22 P2 1.518065 1_556
O23 P0 1.518057 1_655
