# generated using pymatgen
data_CsMnN
_symmetry_space_group_name_H-M   'P 1'
_cell_length_a   11.35520800
_cell_length_b   3.63288700
_cell_length_c   7.04525500
_cell_angle_alpha   90.00000000
_cell_angle_beta   90.00000000
_cell_angle_gamma   90.00000000
_symmetry_Int_Tables_number   1
_chemical_formula_structural   CsMnN
_chemical_formula_sum   'Cs4 Mn4 N4'
_cell_volume   290.63218042
_cell_formula_units_Z   4
loop_
 _symmetry_equiv_pos_site_id
 _symmetry_equiv_pos_as_xyz
  1  'x, y, z'
loop_
 _atom_site_type_symbol
 _atom_site_label
 _atom_site_symmetry_multiplicity
 _atom_site_fract_x
 _atom_site_fract_y
 _atom_site_fract_z
 _atom_site_occupancy
  Cs  Cs0  1  0.66730000  0.25000000  0.06736400  1
  Cs  Cs1  1  0.16730000  0.25000000  0.43263600  1
  Cs  Cs2  1  0.33270000  0.75000000  0.93263600  1
  Cs  Cs3  1  0.83270000  0.75000000  0.56736400  1
  Mn  Mn0  1  0.53618300  0.25000000  0.59108300  1
  Mn  Mn1  1  0.03618300  0.25000000  0.90891700  1
  Mn  Mn2  1  0.46381700  0.75000000  0.40891700  1
  Mn  Mn3  1  0.96381700  0.75000000  0.09108300  1
  N  N0  1  0.94720600  0.25000000  0.13619500  1
  N  N1  1  0.44720600  0.25000000  0.36380500  1
  N  N2  1  0.05279400  0.75000000  0.86380500  1
  N  N3  1  0.55279400  0.75000000  0.63619500  1
loop_
_geom_bond_atom_site_label_1
_geom_bond_atom_site_label_2
_geom_bond_distance
_geom_bond_site_symmetry_2
Cs0 N0 3.215171 1_555
Cs0 N1 3.256978 1_555
Cs1 N1 3.215171 1_555
Cs1 N0 3.256978 1_455
Cs2 N2 3.215171 1_555
Cs2 N3 3.256978 1_555
Cs3 N3 3.215171 1_555
Cs3 N2 3.256978 1_655
Mn0 N3 1.853661 1_555
Mn0 N3 1.853661 1_545
Mn0 N1 1.893345 1_555
Mn1 N2 1.853661 1_545
Mn1 N2 1.853661 1_555
Mn1 N0 1.893345 1_456
Mn2 N1 1.853661 1_555
Mn2 N1 1.853661 1_565
Mn2 N3 1.893345 1_555
Mn3 N0 1.853661 1_565
Mn3 N0 1.853661 1_555
Mn3 N2 1.893345 1_654
