# generated using pymatgen
data_CaHf8(N2O)4
_symmetry_space_group_name_H-M   'P 1'
_cell_length_a   5.61696544
_cell_length_b   5.61662542
_cell_length_c   11.34914128
_cell_angle_alpha   77.25815052
_cell_angle_beta   64.87219444
_cell_angle_gamma   58.09254716
_symmetry_Int_Tables_number   1
_chemical_formula_structural   CaHf8(N2O)4
_chemical_formula_sum   'Ca1 Hf8 N8 O4'
_cell_volume   275.17905174
_cell_formula_units_Z   1
loop_
 _symmetry_equiv_pos_site_id
 _symmetry_equiv_pos_as_xyz
  1  'x, y, z'
loop_
 _atom_site_type_symbol
 _atom_site_label
 _atom_site_symmetry_multiplicity
 _atom_site_fract_x
 _atom_site_fract_y
 _atom_site_fract_z
 _atom_site_occupancy
  Ca  Ca0  1  0.73592400  0.38573000  0.63698800  1
  Hf  Hf0  1  0.05740500  0.40441800  0.27197300  1
  Hf  Hf1  1  0.18986300  0.06149400  0.79835400  1
  Hf  Hf2  1  0.34650100  0.46229700  0.95936400  1
  Hf  Hf3  1  0.52046300  0.07016600  0.50421400  1
  Hf  Hf4  1  0.25578200  0.74227800  0.46243200  1
  Hf  Hf5  1  0.76947000  0.07901900  0.21075100  1
  Hf  Hf6  1  0.59198900  0.72507600  0.05998700  1
  Hf  Hf7  1  0.94305800  0.73057400  0.76564200  1
  N  N0  1  0.36518100  0.06054000  0.35946900  1
  N  N1  1  0.49924700  0.40007000  0.12328300  1
  N  N2  1  0.18125500  0.38532400  0.63798300  1
  N  N3  1  0.66279400  0.36820000  0.37435100  1
  N  N4  1  0.49247300  0.77103900  0.89091700  1
  N  N5  1  0.90746500  0.71117700  0.12476600  1
  N  N6  1  0.32371000  0.82656100  0.61942300  1
  N  N7  1  0.75824900  0.13181200  0.84933500  1
  O  O0  1  0.18598100  0.08438200  0.14262400  1
  O  O1  1  0.97363000  0.73272900  0.37336300  1
  O  O2  1  0.04001800  0.41893500  0.91305300  1
  O  O3  1  0.80426200  0.95522500  0.60324900  1
loop_
_geom_bond_atom_site_label_1
_geom_bond_atom_site_label_2
_geom_bond_distance
_geom_bond_site_symmetry_2
Ca0 O3 2.333037 1_545
Ca0 N6 2.375992 1_555
Ca0 N2 2.505020 1_655
Ca0 N7 2.531609 1_555
Hf0 N3 2.118846 1_455
Hf0 O1 2.122434 1_455
Hf0 N0 2.188010 1_555
Hf0 O0 2.190659 1_555
Hf0 N5 2.204612 1_455
Hf0 N1 2.324851 1_555
Hf1 N7 2.065337 1_455
Hf1 N4 2.117392 1_545
Hf1 O2 2.206696 1_555
Hf1 N2 2.268182 1_555
Hf1 N6 2.294973 1_545
Hf2 N7 2.094132 1_555
Hf2 O2 2.137111 1_555
Hf2 N4 2.156531 1_555
Hf2 N1 2.251860 1_556
Hf2 N5 2.267421 1_456
Hf3 N2 2.057183 1_555
Hf3 O3 2.082038 1_545
Hf3 N6 2.094071 1_545
Hf3 N0 2.183605 1_555
Hf3 N3 2.222415 1_555
Hf3 O1 2.282120 1_545
Hf4 N3 2.132663 1_555
Hf4 N0 2.137371 1_565
Hf4 O3 2.147348 1_455
Hf4 N6 2.164373 1_555
Hf4 O1 2.238475 1_455
Hf4 N2 2.565366 1_555
Hf5 N1 2.034112 1_555
Hf5 N5 2.091817 1_545
Hf5 O0 2.144781 1_655
Hf5 N0 2.221066 1_555
Hf5 N3 2.408563 1_555
Hf5 O1 2.521927 1_545
Hf6 N1 2.056353 1_555
Hf6 O0 2.075195 1_565
Hf6 N4 2.144935 1_554
Hf6 N5 2.149767 1_555
Hf6 O2 2.279705 1_654
Hf7 N2 2.121289 1_655
Hf7 O2 2.152586 1_655
Hf7 N7 2.166196 1_565
Hf7 O3 2.179727 1_555
Hf7 N4 2.226451 1_555
Hf7 N6 2.329489 1_655
