# generated using pymatgen
data_LuCo3B2
_symmetry_space_group_name_H-M   'P 1'
_cell_length_a   9.83531100
_cell_length_b   9.83525455
_cell_length_c   5.93547398
_cell_angle_alpha   90.00000000
_cell_angle_beta   90.00000000
_cell_angle_gamma   120.00025335
_symmetry_Int_Tables_number   1
_chemical_formula_structural   LuCo3B2
_chemical_formula_sum   'Lu8 Co24 B16'
_cell_volume   497.23149602
_cell_formula_units_Z   8
loop_
 _symmetry_equiv_pos_site_id
 _symmetry_equiv_pos_as_xyz
  1  'x, y, z'
loop_
 _atom_site_type_symbol
 _atom_site_label
 _atom_site_symmetry_multiplicity
 _atom_site_fract_x
 _atom_site_fract_y
 _atom_site_fract_z
 _atom_site_occupancy
  Lu  Lu0_0  1  0.00000000  0.00000000  0.00000000  1
  Lu  Lu0_1  1  0.00000000  0.00000000  0.50000000  1
  Lu  Lu0_2  1  0.00000000  0.50000000  0.00000000  1
  Lu  Lu0_3  1  0.00000000  0.50000000  0.50000000  1
  Lu  Lu0_4  1  0.50000000  0.00000000  0.00000000  1
  Lu  Lu0_5  1  0.50000000  0.00000000  0.50000000  1
  Lu  Lu0_6  1  0.50000000  0.50000000  0.00000000  1
  Lu  Lu0_7  1  0.50000000  0.50000000  0.50000000  1
  Co  Co0_0  1  0.25000000  0.25000000  0.25000000  1
  Co  Co0_1  1  0.25000000  0.25000000  0.75000000  1
  Co  Co0_2  1  0.25000000  0.75000000  0.25000000  1
  Co  Co0_3  1  0.25000000  0.75000000  0.75000000  1
  Co  Co0_4  1  0.75000000  0.25000000  0.25000000  1
  Co  Co0_5  1  0.75000000  0.25000000  0.75000000  1
  Co  Co0_6  1  0.75000000  0.75000000  0.25000000  1
  Co  Co0_7  1  0.75000000  0.75000000  0.75000000  1
  Co  Co1_0  1  0.25000000  0.00000000  0.25000000  1
  Co  Co1_1  1  0.25000000  0.00000000  0.75000000  1
  Co  Co1_2  1  0.25000000  0.50000000  0.25000000  1
  Co  Co1_3  1  0.25000000  0.50000000  0.75000000  1
  Co  Co1_4  1  0.75000000  0.00000000  0.25000000  1
  Co  Co1_5  1  0.75000000  0.00000000  0.75000000  1
  Co  Co1_6  1  0.75000000  0.50000000  0.25000000  1
  Co  Co1_7  1  0.75000000  0.50000000  0.75000000  1
  Co  Co2_0  1  0.00000000  0.25000000  0.25000000  1
  Co  Co2_1  1  0.00000000  0.25000000  0.75000000  1
  Co  Co2_2  1  0.00000000  0.75000000  0.25000000  1
  Co  Co2_3  1  0.00000000  0.75000000  0.75000000  1
  Co  Co2_4  1  0.50000000  0.25000000  0.25000000  1
  Co  Co2_5  1  0.50000000  0.25000000  0.75000000  1
  Co  Co2_6  1  0.50000000  0.75000000  0.25000000  1
  Co  Co2_7  1  0.50000000  0.75000000  0.75000000  1
  B  B0_0  1  0.33333502  0.16666839  0.00000000  1
  B  B0_1  1  0.33333502  0.16666839  0.50000000  1
  B  B0_2  1  0.33333502  0.66666839  0.00000000  1
  B  B0_3  1  0.33333502  0.66666839  0.50000000  1
  B  B0_4  1  0.83333502  0.16666839  0.00000000  1
  B  B0_5  1  0.83333502  0.16666839  0.50000000  1
  B  B0_6  1  0.83333502  0.66666839  0.00000000  1
  B  B0_7  1  0.83333502  0.66666839  0.50000000  1
  B  B1_0  1  0.16666498  0.33333162  0.00000000  1
  B  B1_1  1  0.16666498  0.33333162  0.50000000  1
  B  B1_2  1  0.16666498  0.83333162  0.00000000  1
  B  B1_3  1  0.16666498  0.83333162  0.50000000  1
  B  B1_4  1  0.66666498  0.33333162  0.00000000  1
  B  B1_5  1  0.66666498  0.33333162  0.50000000  1
  B  B1_6  1  0.66666498  0.83333162  0.00000000  1
  B  B1_7  1  0.66666498  0.83333162  0.50000000  1
loop_
_geom_bond_atom_site_label_1
_geom_bond_atom_site_label_2
_geom_bond_distance
_geom_bond_site_symmetry_2
Lu0_0 Lu0_1 2.967737 1_554
Lu0_0 Lu0_1 2.967737 1_555
Lu0_2 Lu0_3 2.967737 1_554
Lu0_2 Lu0_3 2.967737 1_555
Lu0_4 Lu0_5 2.967737 1_555
Lu0_4 Lu0_5 2.967737 1_554
Lu0_6 Lu0_7 2.967737 1_555
Lu0_6 Lu0_7 2.967737 1_554
Co0_0 Lu0_6 2.871867 1_555
Co0_0 Lu0_7 2.871867 1_555
Co0_0 Lu0_0 2.871867 1_555
Co0_0 Lu0_1 2.871867 1_555
Co0_1 Lu0_7 2.871867 1_555
Co0_1 Lu0_1 2.871867 1_555
Co0_1 Lu0_0 2.871867 1_556
Co0_1 Lu0_6 2.871867 1_556
Co0_2 Lu0_5 2.871867 1_565
Co0_2 Lu0_3 2.871867 1_555
Co0_2 Lu0_4 2.871867 1_565
Co0_2 Lu0_2 2.871867 1_555
Co0_3 Lu0_5 2.871867 1_565
Co0_3 Lu0_3 2.871867 1_555
Co0_3 Lu0_4 2.871867 1_566
Co0_3 Lu0_2 2.871867 1_556
Co0_4 Lu0_5 2.871867 1_555
Co0_4 Lu0_2 2.871867 1_655
Co0_4 Lu0_4 2.871867 1_555
Co0_4 Lu0_3 2.871867 1_655
Co0_5 Lu0_5 2.871867 1_555
Co0_5 Lu0_3 2.871867 1_655
Co0_5 Lu0_2 2.871867 1_656
Co0_5 Lu0_4 2.871867 1_556
Co0_6 Lu0_1 2.871867 1_665
Co0_6 Lu0_0 2.871867 1_665
Co0_6 Lu0_7 2.871867 1_555
Co0_6 Lu0_6 2.871867 1_555
Co0_7 Lu0_1 2.871867 1_665
Co0_7 Lu0_0 2.871867 1_666
Co0_7 Lu0_7 2.871867 1_555
Co0_7 Lu0_6 2.871867 1_556
Co1_0 Lu0_0 2.871881 1_555
Co1_0 Lu0_4 2.871881 1_555
Co1_0 Lu0_1 2.871881 1_555
Co1_0 Lu0_5 2.871881 1_555
Co1_1 Lu0_1 2.871881 1_555
Co1_1 Lu0_5 2.871881 1_555
Co1_1 Lu0_4 2.871881 1_556
Co1_1 Lu0_0 2.871881 1_556
Co1_2 Lu0_7 2.871881 1_555
Co1_2 Lu0_6 2.871881 1_555
Co1_2 Lu0_3 2.871881 1_555
Co1_2 Lu0_2 2.871881 1_555
Co1_3 Lu0_7 2.871881 1_555
Co1_3 Lu0_3 2.871881 1_555
Co1_3 Lu0_6 2.871881 1_556
Co1_3 Lu0_2 2.871881 1_556
Co1_4 Lu0_0 2.871881 1_655
Co1_4 Lu0_1 2.871881 1_655
Co1_4 Lu0_5 2.871881 1_555
Co1_4 Lu0_4 2.871881 1_555
Co1_5 Lu0_1 2.871881 1_655
Co1_5 Lu0_0 2.871881 1_656
Co1_5 Lu0_5 2.871881 1_555
Co1_5 Lu0_4 2.871881 1_556
Co1_6 Lu0_6 2.871881 1_555
Co1_6 Lu0_7 2.871881 1_555
Co1_6 Lu0_3 2.871881 1_655
Co1_6 Lu0_2 2.871881 1_655
Co1_7 Lu0_7 2.871881 1_555
Co1_7 Lu0_3 2.871881 1_655
Co1_7 Lu0_2 2.871881 1_656
Co1_7 Lu0_6 2.871881 1_556
Co2_0 Lu0_1 2.871869 1_555
Co2_0 Lu0_2 2.871869 1_555
Co2_0 Lu0_3 2.871869 1_555
Co2_0 Lu0_0 2.871869 1_555
Co2_1 Lu0_1 2.871869 1_555
Co2_1 Lu0_3 2.871869 1_555
Co2_1 Lu0_0 2.871869 1_556
Co2_1 Lu0_2 2.871869 1_556
Co2_2 Lu0_1 2.871869 1_565
Co2_2 Lu0_0 2.871869 1_565
Co2_2 Lu0_2 2.871869 1_555
Co2_2 Lu0_3 2.871869 1_555
Co2_3 Lu0_1 2.871869 1_565
Co2_3 Lu0_3 2.871869 1_555
Co2_3 Lu0_0 2.871869 1_566
Co2_3 Lu0_2 2.871869 1_556
Co2_4 Lu0_5 2.871869 1_555
Co2_4 Lu0_4 2.871869 1_555
Co2_4 Lu0_6 2.871869 1_555
Co2_4 Lu0_7 2.871869 1_555
Co2_5 Lu0_5 2.871869 1_555
Co2_5 Lu0_7 2.871869 1_555
Co2_5 Lu0_4 2.871869 1_556
Co2_5 Lu0_6 2.871869 1_556
Co2_6 Lu0_6 2.871869 1_555
Co2_6 Lu0_4 2.871869 1_565
Co2_6 Lu0_5 2.871869 1_565
Co2_6 Lu0_7 2.871869 1_555
Co2_7 Lu0_5 2.871869 1_565
Co2_7 Lu0_7 2.871869 1_555
Co2_7 Lu0_4 2.871869 1_566
Co2_7 Lu0_6 2.871869 1_556
B0_0 Co2_4 2.053556 1_555
B0_0 Co2_5 2.053556 1_554
B0_0 Co0_0 2.053567 1_555
B0_0 Co0_1 2.053567 1_554
B0_0 Co1_0 2.053571 1_555
B0_0 Co1_1 2.053571 1_554
B0_0 Lu0_6 2.839172 1_555
B0_0 Lu0_4 2.839205 1_555
B0_0 Lu0_0 2.839217 1_555
B0_1 Co2_5 2.053556 1_555
B0_1 Co2_4 2.053556 1_555
B0_1 Co0_1 2.053567 1_555
B0_1 Co0_0 2.053567 1_555
B0_1 Co1_1 2.053571 1_555
B0_1 Co1_0 2.053571 1_555
B0_1 Lu0_7 2.839172 1_555
B0_1 Lu0_5 2.839205 1_555
B0_1 Lu0_1 2.839217 1_555
B0_2 Co2_6 2.053556 1_555
B0_2 Co2_7 2.053556 1_554
B0_2 Co0_2 2.053567 1_555
B0_2 Co0_3 2.053567 1_554
B0_2 Co1_2 2.053571 1_555
B0_2 Co1_3 2.053571 1_554
B0_2 Lu0_4 2.839172 1_565
B0_2 Lu0_6 2.839205 1_555
B0_2 Lu0_2 2.839217 1_555
B0_3 Co2_7 2.053556 1_555
B0_3 Co2_6 2.053556 1_555
B0_3 Co0_3 2.053567 1_555
B0_3 Co0_2 2.053567 1_555
B0_3 Co1_3 2.053571 1_555
B0_3 Co1_2 2.053571 1_555
B0_3 Lu0_5 2.839172 1_565
B0_3 Lu0_7 2.839205 1_555
B0_3 Lu0_3 2.839217 1_555
B0_4 Co2_0 2.053556 1_655
B0_4 Co2_1 2.053556 1_654
B0_4 Co0_4 2.053567 1_555
B0_4 Co0_5 2.053567 1_554
B0_4 Co1_4 2.053571 1_555
B0_4 Co1_5 2.053571 1_554
B0_4 Lu0_2 2.839172 1_655
B0_4 Lu0_0 2.839205 1_655
B0_4 Lu0_4 2.839217 1_555
B0_5 Co2_1 2.053556 1_655
B0_5 Co2_0 2.053556 1_655
B0_5 Co0_5 2.053567 1_555
B0_5 Co0_4 2.053567 1_555
B0_5 Co1_5 2.053571 1_555
B0_5 Co1_4 2.053571 1_555
B0_5 Lu0_3 2.839172 1_655
B0_5 Lu0_1 2.839205 1_655
B0_5 Lu0_5 2.839217 1_555
B0_6 Co2_2 2.053556 1_655
B0_6 Co2_3 2.053556 1_654
B0_6 Co0_6 2.053567 1_555
B0_6 Co0_7 2.053567 1_554
B0_6 Co1_6 2.053571 1_555
B0_6 Co1_7 2.053571 1_554
B0_6 Lu0_0 2.839172 1_665
B0_6 Lu0_2 2.839205 1_655
B0_6 Lu0_6 2.839217 1_555
B0_7 Co2_3 2.053556 1_655
B0_7 Co2_2 2.053556 1_655
B0_7 Co0_7 2.053567 1_555
B0_7 Co0_6 2.053567 1_555
B0_7 Co1_7 2.053571 1_555
B0_7 Co1_6 2.053571 1_555
B0_7 Lu0_1 2.839172 1_665
B0_7 Lu0_3 2.839205 1_655
B0_7 Lu0_7 2.839217 1_555
B1_0 Co2_0 2.053556 1_555
B1_0 Co2_1 2.053556 1_554
B1_0 Co0_0 2.053567 1_555
B1_0 Co0_1 2.053567 1_554
B1_0 Co1_2 2.053571 1_555
B1_0 Co1_3 2.053571 1_554
B1_0 Lu0_0 2.839172 1_555
B1_0 Lu0_2 2.839205 1_555
B1_0 Lu0_6 2.839217 1_555
B1_1 Co2_1 2.053556 1_555
B1_1 Co2_0 2.053556 1_555
B1_1 Co0_1 2.053567 1_555
B1_1 Co0_0 2.053567 1_555
B1_1 Co1_3 2.053571 1_555
B1_1 Co1_2 2.053571 1_555
B1_1 Lu0_1 2.839172 1_555
B1_1 Lu0_3 2.839205 1_555
B1_1 Lu0_7 2.839217 1_555
B1_2 Co2_2 2.053556 1_555
B1_2 Co2_3 2.053556 1_554
B1_2 Co0_2 2.053567 1_555
B1_2 Co0_3 2.053567 1_554
B1_2 Co1_0 2.053571 1_565
B1_2 Co1_1 2.053571 1_564
B1_2 Lu0_2 2.839172 1_555
B1_2 Lu0_0 2.839205 1_565
B1_2 Lu0_4 2.839217 1_565
B1_3 Co2_3 2.053556 1_555
B1_3 Co2_2 2.053556 1_555
B1_3 Co0_3 2.053567 1_555
B1_3 Co0_2 2.053567 1_555
B1_3 Co1_1 2.053571 1_565
B1_3 Co1_0 2.053571 1_565
B1_3 Lu0_3 2.839172 1_555
B1_3 Lu0_1 2.839205 1_565
B1_3 Lu0_5 2.839217 1_565
B1_4 Co2_4 2.053556 1_555
B1_4 Co2_5 2.053556 1_554
B1_4 Co0_4 2.053567 1_555
B1_4 Co0_5 2.053567 1_554
B1_4 Co1_6 2.053571 1_555
B1_4 Co1_7 2.053571 1_554
B1_4 Lu0_4 2.839172 1_555
B1_4 Lu0_6 2.839205 1_555
B1_4 Lu0_2 2.839217 1_655
B1_5 Co2_5 2.053556 1_555
B1_5 Co2_4 2.053556 1_555
B1_5 Co0_5 2.053567 1_555
B1_5 Co0_4 2.053567 1_555
B1_5 Co1_7 2.053571 1_555
B1_5 Co1_6 2.053571 1_555
B1_5 Lu0_5 2.839172 1_555
B1_5 Lu0_7 2.839205 1_555
B1_5 Lu0_3 2.839217 1_655
B1_6 Co2_6 2.053556 1_555
B1_6 Co2_7 2.053556 1_554
B1_6 Co0_6 2.053567 1_555
B1_6 Co0_7 2.053567 1_554
B1_6 Co1_4 2.053571 1_565
B1_6 Co1_5 2.053571 1_564
B1_6 Lu0_6 2.839172 1_555
B1_6 Lu0_4 2.839205 1_565
B1_6 Lu0_0 2.839217 1_665
B1_7 Co2_7 2.053556 1_555
B1_7 Co2_6 2.053556 1_555
B1_7 Co0_7 2.053567 1_555
B1_7 Co0_6 2.053567 1_555
B1_7 Co1_5 2.053571 1_565
B1_7 Co1_4 2.053571 1_565
B1_7 Lu0_7 2.839172 1_555
B1_7 Lu0_5 2.839205 1_565
B1_7 Lu0_1 2.839217 1_665
