# generated using pymatgen
data_La2Al3Cu7
_symmetry_space_group_name_H-M   'P 1'
_cell_length_a   4.17130522
_cell_length_b   5.25944011
_cell_length_c   9.00664660
_cell_angle_alpha   89.42871307
_cell_angle_beta   90.00000000
_cell_angle_gamma   90.00000000
_symmetry_Int_Tables_number   1
_chemical_formula_structural   La2Al3Cu7
_chemical_formula_sum   'La2 Al3 Cu7'
_cell_volume   197.58456572
_cell_formula_units_Z   1
loop_
 _symmetry_equiv_pos_site_id
 _symmetry_equiv_pos_as_xyz
  1  'x, y, z'
loop_
 _atom_site_type_symbol
 _atom_site_label
 _atom_site_symmetry_multiplicity
 _atom_site_fract_x
 _atom_site_fract_y
 _atom_site_fract_z
 _atom_site_occupancy
  La  La0  1  0.00000000  0.24682250  0.74796986  1
  La  La1  1  0.00000000  0.75317750  0.25203014  1
  Al  Al0  1  0.50000000  0.73804780  0.74414795  1
  Al  Al1  1  0.50000000  0.26195220  0.25585205  1
  Al  Al2  1  0.50000000  -0.00000000  0.00000000  1
  Cu  Cu0  1  0.00000000  0.25552125  0.08282928  1
  Cu  Cu1  1  0.00000000  0.75158057  0.58191897  1
  Cu  Cu2  1  0.00000000  0.74447875  0.91717072  1
  Cu  Cu3  1  0.00000000  0.24841943  0.41808103  1
  Cu  Cu4  1  0.50000000  0.50000000  0.50000000  1
  Cu  Cu5  1  0.50000000  0.50000000  0.00000000  1
  Cu  Cu6  1  0.50000000  -0.00000000  0.50000000  1
loop_
_geom_bond_atom_site_label_1
_geom_bond_atom_site_label_2
_geom_bond_distance
_geom_bond_site_symmetry_2
Al0 Cu4 2.541220 1_555
Al0 Cu1 2.547129 1_555
Al0 Cu1 2.547129 1_655
Al0 Cu6 2.583235 1_565
Al0 Cu2 2.603961 1_555
Al0 Cu2 2.603961 1_655
Al0 Cu5 2.611529 1_556
Al0 Al2 2.696580 1_566
Al0 La0 3.320270 1_655
Al0 La0 3.320270 1_555
Al0 La0 3.393118 1_665
Al0 La0 3.393118 1_565
Al1 Cu4 2.541220 1_555
Al1 Cu3 2.547129 1_655
Al1 Cu3 2.547129 1_555
Al1 Cu6 2.583235 1_555
Al1 Cu0 2.603961 1_655
Al1 Cu0 2.603961 1_555
Al1 Cu5 2.611529 1_555
Al1 Al2 2.696580 1_555
Al1 La1 3.320270 1_555
Al1 La1 3.320270 1_655
Al1 La1 3.393118 1_645
Al1 La1 3.393118 1_545
Al2 Cu0 2.594714 1_555
Al2 Cu2 2.594714 1_644
Al2 Cu2 2.594714 1_544
Al2 Cu0 2.594714 1_655
Al2 Cu5 2.629720 1_555
Al2 Cu5 2.629720 1_545
Al2 La0 3.336020 1_554
Al2 La0 3.336020 1_654
Al2 La1 3.336020 1_645
Al2 La1 3.336020 1_545
Cu0 Cu5 2.557478 1_555
Cu0 Cu5 2.557478 1_455
Cu0 La0 3.016764 1_554
Cu0 La1 3.036856 1_545
Cu0 La1 3.041818 1_555
Cu1 Cu6 2.565572 1_565
Cu1 Cu6 2.565572 1_465
Cu1 Cu4 2.581583 1_455
Cu1 Cu4 2.581583 1_555
Cu1 La1 2.971120 1_555
Cu1 La0 3.016426 1_565
Cu1 La0 3.034007 1_555
Cu2 Cu5 2.557478 1_456
Cu2 Cu5 2.557478 1_556
Cu2 La1 3.016764 1_556
Cu2 La0 3.036856 1_565
Cu2 La0 3.041818 1_555
Cu3 Cu6 2.565572 1_455
Cu3 Cu6 2.565572 1_555
Cu3 Cu4 2.581583 1_455
Cu3 Cu4 2.581583 1_555
Cu3 La0 2.971120 1_555
Cu3 La1 3.016426 1_545
Cu3 La1 3.034007 1_555
Cu4 Cu6 2.629720 1_565
Cu4 Cu6 2.629720 1_555
Cu4 La1 3.324410 1_555
Cu4 La1 3.324410 1_655
Cu4 La0 3.324410 1_655
Cu4 La0 3.324410 1_555
Cu5 La1 3.366892 1_555
Cu5 La1 3.366892 1_655
Cu5 La0 3.366892 1_554
Cu5 La0 3.366892 1_654
Cu6 La0 3.328802 1_655
Cu6 La0 3.328802 1_555
Cu6 La1 3.328802 1_645
Cu6 La1 3.328802 1_545
