# generated using pymatgen
data_Ce2Ga5Cu3
_symmetry_space_group_name_H-M   'P 1'
_cell_length_a   4.23869153
_cell_length_b   4.23865343
_cell_length_c   10.15243371
_cell_angle_alpha   90.00000000
_cell_angle_beta   90.00000000
_cell_angle_gamma   90.00000000
_symmetry_Int_Tables_number   1
_chemical_formula_structural   Ce2Ga5Cu3
_chemical_formula_sum   'Ce2 Ga5 Cu3'
_cell_volume   182.40212045
_cell_formula_units_Z   1
loop_
 _symmetry_equiv_pos_site_id
 _symmetry_equiv_pos_as_xyz
  1  'x, y, z'
loop_
 _atom_site_type_symbol
 _atom_site_label
 _atom_site_symmetry_multiplicity
 _atom_site_fract_x
 _atom_site_fract_y
 _atom_site_fract_z
 _atom_site_occupancy
  Ce  Ce0  1  0.50000000  -0.00000000  0.74244212  1
  Ce  Ce1  1  0.00000000  0.50000000  0.25758174  1
  Ga  Ga0  1  -0.00000000  0.50000000  0.86501621  1
  Ga  Ga1  1  0.50000000  -0.00000000  0.38167825  1
  Ga  Ga2  1  0.50000000  -0.00000000  0.13502833  1
  Ga  Ga3  1  0.00000000  0.50000000  0.61826689  1
  Ga  Ga4  1  0.50000000  0.50000000  0.00005289  1
  Cu  Cu0  1  -0.00000000  -0.00000000  0.49991888  1
  Cu  Cu1  1  0.00000000  -0.00000000  0.00010275  1
  Cu  Cu2  1  0.50000000  0.50000000  0.49991294  1
loop_
_geom_bond_atom_site_label_1
_geom_bond_atom_site_label_2
_geom_bond_distance
_geom_bond_site_symmetry_2
Ce0 Ga0 3.245268 1_655
Ce0 Ga0 3.245268 1_545
Ce0 Ga0 3.245268 1_555
Ce0 Ga0 3.245268 1_645
Ce0 Cu0 3.248701 1_555
Ce0 Cu0 3.248701 1_655
Ce0 Cu2 3.248735 1_555
Ce0 Cu2 3.248735 1_545
Ce0 Ga3 3.251536 1_655
Ce0 Ga3 3.251536 1_545
Ce0 Ga3 3.251536 1_555
Ce0 Ga3 3.251536 1_645
Ce0 Ga4 3.366265 1_546
Ce0 Ga4 3.366265 1_556
Ce0 Cu1 3.366670 1_556
Ce0 Cu1 3.366670 1_656
Ce1 Ga2 3.245188 1_465
Ce1 Ga2 3.245188 1_455
Ce1 Ga2 3.245188 1_555
Ce1 Ga2 3.245188 1_565
Ce1 Cu2 3.247224 1_455
Ce1 Cu2 3.247224 1_555
Ce1 Cu0 3.247257 1_555
Ce1 Cu0 3.247257 1_565
Ce1 Ga1 3.251227 1_565
Ce1 Ga1 3.251227 1_465
Ce1 Ga1 3.251227 1_455
Ce1 Ga1 3.251227 1_555
Ce1 Cu1 3.365225 1_555
Ce1 Cu1 3.365225 1_565
Ce1 Ga4 3.365631 1_455
Ce1 Ga4 3.365631 1_555
Ga0 Ga3 2.505106 1_555
Ga0 Ga4 2.524110 1_456
Ga0 Ga4 2.524110 1_556
Ga1 Ga2 2.504097 1_555
Ga2 Ga4 2.523757 1_555
Ga2 Ga4 2.523757 1_545
Cu0 Ga1 2.435705 1_455
Cu0 Ga1 2.435705 1_555
Cu0 Ga3 2.436226 1_545
Cu0 Ga3 2.436226 1_555
Cu1 Ga2 2.523498 1_455
Cu1 Ga2 2.523498 1_555
Cu1 Ga0 2.524369 1_544
Cu1 Ga0 2.524369 1_554
Cu1 Ga4 2.997194 1_555
Cu1 Ga4 2.997194 1_545
Cu1 Ga4 2.997194 1_445
Cu1 Ga4 2.997194 1_455
Cu2 Ga1 2.435659 1_555
Cu2 Ga1 2.435659 1_565
Cu2 Ga3 2.436272 1_655
Cu2 Ga3 2.436272 1_555
