# generated using pymatgen
data_Mn7Pd9
_symmetry_space_group_name_H-M   'P 1'
_cell_length_a   6.55033414
_cell_length_b   6.55033414
_cell_length_c   6.55033414
_cell_angle_alpha   109.86463755
_cell_angle_beta   109.86463755
_cell_angle_gamma   108.68721998
_symmetry_Int_Tables_number   1
_chemical_formula_structural   Mn7Pd9
_chemical_formula_sum   'Mn7 Pd9'
_cell_volume   216.32543306
_cell_formula_units_Z   1
loop_
 _symmetry_equiv_pos_site_id
 _symmetry_equiv_pos_as_xyz
  1  'x, y, z'
loop_
 _atom_site_type_symbol
 _atom_site_label
 _atom_site_symmetry_multiplicity
 _atom_site_fract_x
 _atom_site_fract_y
 _atom_site_fract_z
 _atom_site_occupancy
  Mn  Mn0  1  0.50000000  0.00000000  0.50000000  1
  Mn  Mn1  1  0.00000000  0.50000000  0.50000000  1
  Mn  Mn2  1  0.50000000  0.50000000  0.00000000  1
  Mn  Mn3  1  0.25568000  0.25568000  0.51136100  1
  Mn  Mn4  1  0.74432000  0.74432000  0.48863900  1
  Mn  Mn5  1  0.25568000  0.74432000  0.00000000  1
  Mn  Mn6  1  0.74432000  0.25568000  0.00000000  1
  Pd  Pd0  1  0.50946600  0.25652200  0.25294300  1
  Pd  Pd1  1  0.49053400  0.74347800  0.74705700  1
  Pd  Pd2  1  0.00357900  0.25652200  0.74705700  1
  Pd  Pd3  1  0.25652200  0.00357900  0.74705700  1
  Pd  Pd4  1  0.99642100  0.74347800  0.25294300  1
  Pd  Pd5  1  0.74347800  0.99642100  0.25294300  1
  Pd  Pd6  1  0.25652200  0.50946600  0.25294300  1
  Pd  Pd7  1  0.74347800  0.49053400  0.74705700  1
  Pd  Pd8  1  0.00000000  0.00000000  0.00000000  1
loop_
_geom_bond_atom_site_label_1
_geom_bond_atom_site_label_2
_geom_bond_distance
_geom_bond_site_symmetry_2
Mn0 Pd6 2.629681 1_545
Mn0 Pd7 2.629681 1_555
Mn0 Pd3 2.629687 1_555
Mn0 Pd5 2.629687 1_545
Mn0 Mn5 2.661850 1_545
Mn0 Mn6 2.661850 1_556
Mn0 Mn3 2.661850 1_555
Mn0 Mn4 2.661850 1_545
Mn0 Pd4 2.701038 1_445
Mn0 Pd2 2.701038 1_655
Mn0 Pd1 2.701038 1_545
Mn0 Pd0 2.701038 1_555
Mn1 Pd0 2.629681 1_455
Mn1 Pd1 2.629681 1_555
Mn1 Pd4 2.629687 1_455
Mn1 Pd2 2.629687 1_555
Mn1 Mn6 2.661850 1_455
Mn1 Mn5 2.661850 1_556
Mn1 Mn4 2.661850 1_455
Mn1 Mn3 2.661850 1_555
Mn1 Pd5 2.701038 1_445
Mn1 Pd3 2.701038 1_565
Mn1 Pd7 2.701038 1_455
Mn1 Pd6 2.701038 1_555
Mn2 Mn4 2.600696 1_555
Mn2 Mn3 2.600696 1_554
Mn2 Mn5 2.600702 1_555
Mn2 Mn6 2.600702 1_555
Mn2 Pd3 2.661200 1_554
Mn2 Pd5 2.661200 1_555
Mn2 Pd2 2.661200 1_554
Mn2 Pd4 2.661200 1_555
Mn2 Pd1 2.661200 1_554
Mn2 Pd0 2.661200 1_555
Mn2 Pd7 2.661200 1_554
Mn2 Pd6 2.661200 1_555
Mn3 Pd2 2.615959 1_555
Mn3 Pd3 2.615959 1_555
Mn3 Pd1 2.615965 1_555
Mn3 Pd7 2.615965 1_555
Mn3 Pd8 2.721630 1_555
Mn3 Pd4 2.746203 1_445
Mn3 Pd5 2.746203 1_445
Mn3 Pd6 2.746214 1_555
Mn3 Pd0 2.746214 1_555
Mn4 Pd5 2.615959 1_555
Mn4 Pd4 2.615959 1_555
Mn4 Pd6 2.615965 1_555
Mn4 Pd0 2.615965 1_555
Mn4 Pd8 2.721630 1_666
Mn4 Pd2 2.746203 1_665
Mn4 Pd3 2.746203 1_665
Mn4 Pd7 2.746214 1_555
Mn4 Pd1 2.746214 1_555
Mn5 Pd6 2.615959 1_555
Mn5 Pd1 2.615959 1_554
Mn5 Pd5 2.615964 1_555
Mn5 Pd2 2.615964 1_554
Mn5 Pd8 2.721625 1_565
Mn5 Pd3 2.746204 1_564
Mn5 Pd4 2.746204 1_455
Mn5 Pd0 2.746204 1_565
Mn5 Pd7 2.746204 1_454
Mn6 Pd0 2.615959 1_555
Mn6 Pd7 2.615959 1_554
Mn6 Pd4 2.615964 1_555
Mn6 Pd3 2.615964 1_554
Mn6 Pd8 2.721625 1_655
Mn6 Pd5 2.746204 1_545
Mn6 Pd2 2.746204 1_654
Mn6 Pd6 2.746204 1_655
Mn6 Pd1 2.746204 1_544
Pd0 Pd5 2.631717 1_545
Pd0 Pd7 2.631722 1_555
Pd0 Pd3 2.692490 1_554
Pd0 Pd6 2.692501 1_555
Pd0 Pd8 2.731734 1_555
Pd1 Pd3 2.631717 1_565
Pd1 Pd6 2.631722 1_555
Pd1 Pd5 2.692490 1_556
Pd1 Pd7 2.692501 1_555
Pd1 Pd8 2.731734 1_666
Pd2 Pd7 2.631717 1_455
Pd2 Pd5 2.631722 1_445
Pd2 Pd3 2.692490 1_555
Pd2 Pd6 2.692490 1_556
Pd2 Pd8 2.731729 1_556
Pd3 Pd4 2.631722 1_445
Pd3 Pd8 2.731729 1_556
Pd4 Pd6 2.631717 1_655
Pd4 Pd5 2.692490 1_555
Pd4 Pd7 2.692490 1_554
Pd4 Pd8 2.731729 1_665
Pd5 Pd8 2.731729 1_665
Pd6 Pd8 2.731734 1_555
Pd7 Pd8 2.731734 1_666
