# generated using pymatgen
data_Na2La2PtO6
_symmetry_space_group_name_H-M   'P 1'
_cell_length_a   6.72190679
_cell_length_b   6.72190679
_cell_length_c   6.75362336
_cell_angle_alpha   89.06929572
_cell_angle_beta   89.06929572
_cell_angle_gamma   89.52186134
_symmetry_Int_Tables_number   1
_chemical_formula_structural   Na2La2PtO6
_chemical_formula_sum   'Na4 La4 Pt2 O12'
_cell_volume   305.06544762
_cell_formula_units_Z   2
loop_
 _symmetry_equiv_pos_site_id
 _symmetry_equiv_pos_as_xyz
  1  'x, y, z'
loop_
 _atom_site_type_symbol
 _atom_site_label
 _atom_site_symmetry_multiplicity
 _atom_site_fract_x
 _atom_site_fract_y
 _atom_site_fract_z
 _atom_site_occupancy
  Na  Na0  1  0.74697500  0.25302500  0.00000000  1
  Na  Na1  1  0.25739000  0.74261000  0.50000000  1
  Na  Na2  1  0.25248900  0.39307600  0.13858900  1
  Na  Na3  1  0.60692400  0.74751100  0.86141100  1
  La  La0  1  0.74099500  0.61095700  0.34880100  1
  La  La1  1  0.38904300  0.25900500  0.65119900  1
  La  La2  1  0.12293600  0.87706400  0.00000000  1
  La  La3  1  0.89219600  0.10780400  0.50000000  1
  Pt  Pt0  1  0.50028700  0.00580300  0.24616400  1
  Pt  Pt1  1  0.99419700  0.49971300  0.75383600  1
  O  O0  1  0.80040500  0.94910100  0.18306400  1
  O  O1  1  0.58560500  0.29330500  0.31293800  1
  O  O2  1  0.43973900  0.07604200  0.95186200  1
  O  O3  1  0.06782500  0.43839000  0.46617000  1
  O  O4  1  0.28222400  0.57543900  0.80636800  1
  O  O5  1  0.94803100  0.79218300  0.67173300  1
  O  O6  1  0.20781700  0.05196900  0.32826700  1
  O  O7  1  0.42456100  0.71777600  0.19363200  1
  O  O8  1  0.56161000  0.93217500  0.53383000  1
  O  O9  1  0.92395800  0.56026100  0.04813800  1
  O  O10  1  0.70669500  0.41439500  0.68706200  1
  O  O11  1  0.05089900  0.19959500  0.81693600  1
loop_
_geom_bond_atom_site_label_1
_geom_bond_atom_site_label_2
_geom_bond_distance
_geom_bond_site_symmetry_2
Na0 O10 2.378206 1_554
Na0 O1 2.378206 1_555
Na0 O0 2.398188 1_545
Na0 O11 2.398188 1_654
Na0 O9 2.421048 1_555
Na0 O2 2.421048 1_554
Na1 O7 2.346123 1_555
Na1 O4 2.346123 1_555
Na1 O6 2.388118 1_565
Na1 O5 2.388118 1_455
Na1 O8 2.434293 1_555
Na1 O3 2.434293 1_555
Na2 O7 2.514409 1_555
Na2 O3 2.540569 1_555
Na2 O4 2.544984 1_554
Na2 O9 2.548142 1_455
Na2 O1 2.623945 1_555
Na2 O6 2.625278 1_555
Na2 O2 2.776156 1_554
Na2 O11 2.909207 1_554
Na3 O4 2.514409 1_555
Na3 O8 2.540569 1_555
Na3 O7 2.544984 1_556
Na3 O2 2.548142 1_565
Na3 O10 2.623945 1_555
Na3 O5 2.625278 1_555
Na3 O9 2.776156 1_556
Na3 O0 2.909207 1_556
La0 O9 2.384582 1_555
La0 O1 2.402315 1_555
La0 O7 2.482045 1_555
La0 O0 2.548872 1_555
La0 O3 2.604708 1_655
La0 O10 2.628253 1_555
La0 O8 2.770000 1_555
La0 O5 2.896642 1_555
La1 O2 2.384582 1_555
La1 O10 2.402315 1_555
La1 O4 2.482045 1_555
La1 O11 2.548872 1_555
La1 O8 2.604708 1_545
La1 O1 2.628253 1_555
La1 O3 2.770000 1_555
La1 O6 2.896642 1_555
La2 O11 2.525510 1_564
La2 O0 2.525510 1_455
La2 O9 2.537796 1_455
La2 O2 2.537796 1_564
La2 O5 2.599965 1_454
La2 O6 2.599965 1_565
La2 O7 2.640401 1_555
La2 O4 2.640401 1_554
La3 O5 2.430646 1_545
La3 O6 2.430646 1_655
La3 O11 2.495677 1_655
La3 O0 2.495677 1_545
La3 O8 2.530314 1_545
La3 O3 2.530314 1_655
La3 O10 2.718195 1_555
La3 O1 2.718195 1_555
O0 Pt0 2.088338 1_565
O1 Pt0 2.079009 1_555
O2 Pt0 2.081279 1_556
O3 Pt1 2.044666 1_455
O4 Pt1 2.044028 1_455
O5 Pt1 2.056390 1_555
O6 Pt0 2.056390 1_555
O7 Pt0 2.044028 1_565
O8 Pt0 2.044666 1_565
O9 Pt1 2.081279 1_554
O10 Pt1 2.079009 1_555
O11 Pt1 2.088338 1_455
