# generated using pymatgen
data_LaEuB12
_symmetry_space_group_name_H-M   'P 1'
_cell_length_a   4.15333391
_cell_length_b   4.15333391
_cell_length_c   8.30808607
_cell_angle_alpha   90.00000000
_cell_angle_beta   90.00000000
_cell_angle_gamma   90.00000000
_symmetry_Int_Tables_number   1
_chemical_formula_structural   LaEuB12
_chemical_formula_sum   'La1 Eu1 B12'
_cell_volume   143.31600150
_cell_formula_units_Z   1
loop_
 _symmetry_equiv_pos_site_id
 _symmetry_equiv_pos_as_xyz
  1  'x, y, z'
loop_
 _atom_site_type_symbol
 _atom_site_label
 _atom_site_symmetry_multiplicity
 _atom_site_fract_x
 _atom_site_fract_y
 _atom_site_fract_z
 _atom_site_occupancy
  La  La0  1  -0.00000000  -0.00000000  0.50000000  1
  Eu  Eu0  1  -0.00000000  -0.00000000  0.00000000  1
  B  B0  1  0.20079023  0.50000000  0.24987600  1
  B  B1  1  0.20079023  0.50000000  0.75012400  1
  B  B2  1  0.50000000  0.50000000  0.39965147  1
  B  B3  1  0.50000000  0.50000000  0.89963062  1
  B  B4  1  0.50000000  0.20079023  0.24987600  1
  B  B5  1  0.50000000  0.20079023  0.75012400  1
  B  B6  1  0.50000000  0.50000000  0.10036938  1
  B  B7  1  0.50000000  0.50000000  0.60034853  1
  B  B8  1  0.50000000  0.79920977  0.24987600  1
  B  B9  1  0.50000000  0.79920977  0.75012400  1
  B  B10  1  0.79920977  0.50000000  0.24987600  1
  B  B11  1  0.79920977  0.50000000  0.75012400  1
loop_
_geom_bond_atom_site_label_1
_geom_bond_atom_site_label_2
_geom_bond_distance
_geom_bond_site_symmetry_2
B0 B10 1.667898 1_455
B0 B6 1.757042 1_555
B0 B4 1.757469 1_555
B0 B8 1.757469 1_555
B0 B2 1.758621 1_555
B0 Eu0 3.052500 1_555
B0 Eu0 3.052500 1_565
B0 La0 3.053902 1_555
B0 La0 3.053902 1_565
B1 B11 1.667898 1_455
B1 B3 1.757042 1_555
B1 B9 1.757469 1_555
B1 B5 1.757469 1_555
B1 B7 1.758621 1_555
B1 Eu0 3.052500 1_566
B1 Eu0 3.052500 1_556
B1 La0 3.053902 1_555
B1 La0 3.053902 1_565
B2 B7 1.667408 1_555
B2 B4 1.758621 1_555
B2 B8 1.758621 1_555
B2 La0 3.052893 1_555
B2 La0 3.052893 1_565
B2 La0 3.052893 1_655
B2 La0 3.052893 1_665
B3 B6 1.667755 1_556
B3 B5 1.757042 1_555
B3 B9 1.757042 1_555
B3 Eu0 3.052940 1_556
B3 Eu0 3.052940 1_656
B3 Eu0 3.052940 1_566
B3 Eu0 3.052940 1_666
B4 B8 1.667898 1_545
B4 B6 1.757042 1_555
B4 Eu0 3.052500 1_555
B4 Eu0 3.052500 1_655
B4 La0 3.053902 1_555
B4 La0 3.053902 1_655
B5 B9 1.667898 1_545
B5 B7 1.758621 1_555
B5 Eu0 3.052500 1_556
B5 Eu0 3.052500 1_656
B5 La0 3.053902 1_555
B5 La0 3.053902 1_655
B6 B8 1.757042 1_555
B6 Eu0 3.052940 1_665
B6 Eu0 3.052940 1_555
B6 Eu0 3.052940 1_565
B6 Eu0 3.052940 1_655
B7 B9 1.758621 1_555
B7 La0 3.052893 1_555
B7 La0 3.052893 1_565
B7 La0 3.052893 1_655
B7 La0 3.052893 1_665
B8 Eu0 3.052500 1_665
B8 Eu0 3.052500 1_565
B8 La0 3.053902 1_565
B8 La0 3.053902 1_665
B9 Eu0 3.052500 1_566
B9 Eu0 3.052500 1_666
B9 La0 3.053902 1_565
B9 La0 3.053902 1_665
B10 B6 1.757042 1_555
B10 B4 1.757469 1_555
B10 B8 1.757469 1_555
B10 B2 1.758621 1_555
B10 Eu0 3.052500 1_665
B10 Eu0 3.052500 1_655
B10 La0 3.053902 1_655
B10 La0 3.053902 1_665
B11 B3 1.757042 1_555
B11 B5 1.757469 1_555
B11 B9 1.757469 1_555
B11 B7 1.758621 1_555
B11 Eu0 3.052500 1_666
B11 Eu0 3.052500 1_656
B11 La0 3.053902 1_655
B11 La0 3.053902 1_665
