# generated using pymatgen
data_SrPrMn2O6
_symmetry_space_group_name_H-M   'P 1'
_cell_length_a   5.53448300
_cell_length_b   5.56530100
_cell_length_c   7.77145600
_cell_angle_alpha   90.00000000
_cell_angle_beta   90.00000000
_cell_angle_gamma   90.00000000
_symmetry_Int_Tables_number   1
_chemical_formula_structural   SrPrMn2O6
_chemical_formula_sum   'Sr2 Pr2 Mn4 O12'
_cell_volume   239.36911188
_cell_formula_units_Z   2
loop_
 _symmetry_equiv_pos_site_id
 _symmetry_equiv_pos_as_xyz
  1  'x, y, z'
loop_
 _atom_site_type_symbol
 _atom_site_label
 _atom_site_symmetry_multiplicity
 _atom_site_fract_x
 _atom_site_fract_y
 _atom_site_fract_z
 _atom_site_occupancy
  Sr  Sr0  1  0.23604600  0.49873600  0.50000000  1
  Sr  Sr1  1  0.76395400  0.99873600  0.00000000  1
  Pr  Pr0  1  0.72142000  0.00922400  0.50000000  1
  Pr  Pr1  1  0.27858000  0.50922400  0.00000000  1
  Mn  Mn0  1  0.24717600  0.00025800  0.75027500  1
  Mn  Mn1  1  0.75282400  0.50025800  0.25027500  1
  Mn  Mn2  1  0.24717600  0.00025800  0.24972500  1
  Mn  Mn3  1  0.75282400  0.50025800  0.74972500  1
  O  O0  1  0.75353200  0.57255900  0.50000000  1
  O  O1  1  0.26345800  0.94783500  0.50000000  1
  O  O2  1  0.73654200  0.44783500  0.00000000  1
  O  O3  1  0.24646800  0.07255900  0.00000000  1
  O  O4  1  0.97234700  0.22219000  0.71484900  1
  O  O5  1  0.48597200  0.26337500  0.28122800  1
  O  O6  1  0.51402800  0.76337500  0.21877200  1
  O  O7  1  0.02765300  0.72219000  0.78515100  1
  O  O8  1  0.51402800  0.76337500  0.78122800  1
  O  O9  1  0.02765300  0.72219000  0.21484900  1
  O  O10  1  0.97234700  0.22219000  0.28515100  1
  O  O11  1  0.48597200  0.26337500  0.71877200  1
loop_
_geom_bond_atom_site_label_1
_geom_bond_atom_site_label_2
_geom_bond_distance
_geom_bond_site_symmetry_2
Mn0 O1 1.968824 1_545
Mn0 O4 1.978602 1_455
Mn0 O3 1.982005 1_556
Mn0 O7 1.986054 1_545
Mn0 O11 1.987674 1_555
Mn0 O8 1.994253 1_545
Mn1 O2 1.968824 1_555
Mn1 O9 1.978602 1_655
Mn1 O0 1.982005 1_555
Mn1 O10 1.986054 1_555
Mn1 O6 1.987674 1_555
Mn1 O5 1.994253 1_555
Mn2 O1 1.968824 1_545
Mn2 O10 1.978602 1_455
Mn2 O3 1.982005 1_555
Mn2 O9 1.986054 1_545
Mn2 O5 1.987674 1_555
Mn2 O6 1.994253 1_545
Mn3 O2 1.968824 1_556
Mn3 O7 1.978602 1_655
Mn3 O0 1.982005 1_555
Mn3 O4 1.986054 1_555
Mn3 O8 1.987674 1_555
Mn3 O11 1.994253 1_555
O0 Pr0 2.436662 1_565
O0 Sr0 2.701885 1_655
O0 Sr0 2.893336 1_555
O1 Sr0 2.503971 1_555
O1 Pr0 2.557505 1_565
O1 Sr0 3.069681 1_565
O2 Sr1 2.503971 1_545
O2 Pr1 2.557505 1_555
O2 Sr1 3.069681 1_555
O3 Pr1 2.436662 1_555
O3 Sr1 2.701885 1_445
O3 Sr1 2.893336 1_545
O4 Pr0 2.474114 1_555
O4 Sr0 2.699358 1_655
O4 Sr1 2.790618 1_546
O5 Sr0 2.553350 1_555
O5 Pr0 2.566950 1_555
O5 Sr1 3.051672 1_545
O6 Sr1 2.553350 1_555
O6 Pr1 2.566950 1_555
O6 Sr0 3.051672 1_555
O7 Pr1 2.474114 1_556
O7 Sr1 2.699358 1_456
O7 Sr0 2.790618 1_555
O8 Sr1 2.553350 1_556
O8 Pr1 2.566950 1_556
O8 Sr0 3.051672 1_555
O9 Pr1 2.474114 1_555
O9 Sr1 2.699358 1_455
O9 Sr0 2.790618 1_555
O10 Pr0 2.474114 1_555
O10 Sr0 2.699358 1_655
O10 Sr1 2.790618 1_545
O11 Sr0 2.553350 1_555
O11 Pr0 2.566950 1_555
O11 Sr1 3.051672 1_546
