# generated using pymatgen
data_Mg5Ga
_symmetry_space_group_name_H-M   'P 1'
_cell_length_a   11.77908080
_cell_length_b   11.77908080
_cell_length_c   14.40176452
_cell_angle_alpha   74.97036962
_cell_angle_beta   74.97036962
_cell_angle_gamma   31.72605642
_symmetry_Int_Tables_number   1
_chemical_formula_structural   Mg5Ga
_chemical_formula_sum   'Mg40 Ga8'
_cell_volume   1011.86638482
_cell_formula_units_Z   8
loop_
 _symmetry_equiv_pos_site_id
 _symmetry_equiv_pos_as_xyz
  1  'x, y, z'
loop_
 _atom_site_type_symbol
 _atom_site_label
 _atom_site_symmetry_multiplicity
 _atom_site_fract_x
 _atom_site_fract_y
 _atom_site_fract_z
 _atom_site_occupancy
  Mg  Mg0_0  1  0.00126595  0.00126595  0.00922229  1
  Mg  Mg0_1  1  0.00126595  0.00126595  0.50922229  1
  Mg  Mg0_2  1  0.00126595  0.50126594  0.00922229  1
  Mg  Mg0_3  1  0.00126595  0.50126594  0.50922229  1
  Mg  Mg0_4  1  0.50126594  0.00126595  0.00922229  1
  Mg  Mg0_5  1  0.50126594  0.00126595  0.50922229  1
  Mg  Mg0_6  1  0.50126594  0.50126594  0.00922229  1
  Mg  Mg0_7  1  0.50126594  0.50126594  0.50922229  1
  Mg  Mg1_0  1  0.16005525  0.16005525  0.16798522  1
  Mg  Mg1_1  1  0.16005525  0.16005525  0.66798522  1
  Mg  Mg1_2  1  0.16005524  0.66005524  0.16798523  1
  Mg  Mg1_3  1  0.16005524  0.66005524  0.66798523  1
  Mg  Mg1_4  1  0.66005524  0.16005524  0.16798523  1
  Mg  Mg1_5  1  0.66005524  0.16005524  0.66798523  1
  Mg  Mg1_6  1  0.66005524  0.66005524  0.16798522  1
  Mg  Mg1_7  1  0.66005524  0.66005525  0.66798523  1
  Mg  Mg2_0  1  0.47657556  0.47657556  0.29386411  1
  Mg  Mg2_1  1  0.47657556  0.47657556  0.79386411  1
  Mg  Mg2_2  1  0.47657556  0.97657556  0.29386411  1
  Mg  Mg2_3  1  0.47657556  0.97657556  0.79386411  1
  Mg  Mg2_4  1  0.97657556  0.47657556  0.29386411  1
  Mg  Mg2_5  1  0.97657556  0.47657556  0.79386411  1
  Mg  Mg2_6  1  0.97657556  0.97657556  0.29386411  1
  Mg  Mg2_7  1  0.97657556  0.97657556  0.79386411  1
  Mg  Mg3_0  1  0.33256071  0.33256071  0.33575813  1
  Mg  Mg3_1  1  0.33256071  0.33256071  0.83575813  1
  Mg  Mg3_2  1  0.33256071  0.83256071  0.33575813  1
  Mg  Mg3_3  1  0.33256071  0.83256071  0.83575813  1
  Mg  Mg3_4  1  0.83256071  0.33256071  0.33575813  1
  Mg  Mg3_5  1  0.83256071  0.33256071  0.83575813  1
  Mg  Mg3_6  1  0.83256071  0.83256071  0.33575814  1
  Mg  Mg3_7  1  0.83256071  0.83256071  0.83575814  1
  Mg  Mg4_0  1  0.14025455  0.14025455  0.47242155  1
  Mg  Mg4_1  1  0.14025455  0.14025455  0.97242155  1
  Mg  Mg4_2  1  0.14025456  0.64025456  0.47242155  1
  Mg  Mg4_3  1  0.14025455  0.64025456  0.97242155  1
  Mg  Mg4_4  1  0.64025456  0.14025456  0.47242155  1
  Mg  Mg4_5  1  0.64025456  0.14025455  0.97242155  1
  Mg  Mg4_6  1  0.64025456  0.64025456  0.47242155  1
  Mg  Mg4_7  1  0.64025456  0.64025456  0.97242155  1
  Ga  Ga0_0  1  0.30595399  0.30595399  0.13741569  1
  Ga  Ga0_1  1  0.30595399  0.30595399  0.63741569  1
  Ga  Ga0_2  1  0.30595399  0.80595399  0.13741569  1
  Ga  Ga0_3  1  0.30595399  0.80595399  0.63741569  1
  Ga  Ga0_4  1  0.80595399  0.30595399  0.13741569  1
  Ga  Ga0_5  1  0.80595399  0.30595399  0.63741569  1
  Ga  Ga0_6  1  0.80595399  0.80595399  0.13741569  1
  Ga  Ga0_7  1  0.80595399  0.80595399  0.63741569  1
loop_
_geom_bond_atom_site_label_1
_geom_bond_atom_site_label_2
_geom_bond_distance
_geom_bond_site_symmetry_2
Mg0_0 Mg4_1 3.049753 1_554
Mg0_0 Mg1_4 3.089272 1_455
Mg0_0 Mg1_2 3.089272 1_545
Mg0_0 Mg3_5 3.121688 1_454
Mg0_0 Mg3_3 3.121688 1_544
Mg0_0 Mg4_5 3.149561 1_454
Mg0_0 Mg4_3 3.149561 1_544
Mg0_0 Mg0_6 3.219677 1_545
Mg0_0 Mg0_6 3.219677 1_455
Mg0_0 Mg2_7 3.296700 1_444
Mg0_1 Mg4_0 3.049753 1_555
Mg0_1 Mg1_3 3.089272 1_545
Mg0_1 Mg1_5 3.089272 1_455
Mg0_1 Mg3_4 3.121688 1_455
Mg0_1 Mg3_2 3.121688 1_545
Mg0_1 Mg4_4 3.149561 1_455
Mg0_1 Mg4_2 3.149561 1_545
Mg0_1 Mg0_7 3.219677 1_455
Mg0_1 Mg0_7 3.219677 1_545
Mg0_1 Mg2_6 3.296700 1_445
Mg0_2 Mg4_3 3.049753 1_554
Mg0_2 Mg1_0 3.089272 1_555
Mg0_2 Mg1_6 3.089272 1_455
Mg0_2 Mg3_7 3.121688 1_454
Mg0_2 Mg3_1 3.121688 1_554
Mg0_2 Mg4_7 3.149561 1_454
Mg0_2 Mg4_1 3.149561 1_554
Mg0_2 Mg0_4 3.219677 1_555
Mg0_2 Mg0_4 3.219677 1_465
Mg0_2 Mg2_5 3.296700 1_454
Mg0_3 Mg4_2 3.049753 1_555
Mg0_3 Mg1_1 3.089272 1_555
Mg0_3 Mg1_7 3.089272 1_455
Mg0_3 Mg3_6 3.121688 1_455
Mg0_3 Mg3_0 3.121688 1_555
Mg0_3 Mg4_6 3.149561 1_455
Mg0_3 Mg4_0 3.149561 1_555
Mg0_3 Mg0_5 3.219677 1_555
Mg0_3 Mg0_5 3.219677 1_465
Mg0_3 Mg2_4 3.296700 1_455
Mg0_4 Mg4_5 3.049753 1_554
Mg0_4 Mg1_0 3.089272 1_555
Mg0_4 Mg1_6 3.089272 1_545
Mg0_4 Mg3_7 3.121688 1_544
Mg0_4 Mg3_1 3.121688 1_554
Mg0_4 Mg4_7 3.149561 1_544
Mg0_4 Mg4_1 3.149561 1_554
Mg0_4 Mg2_3 3.296700 1_544
Mg0_5 Mg4_4 3.049753 1_555
Mg0_5 Mg1_1 3.089272 1_555
Mg0_5 Mg1_7 3.089272 1_545
Mg0_5 Mg3_6 3.121688 1_545
Mg0_5 Mg3_0 3.121688 1_555
Mg0_5 Mg4_6 3.149561 1_545
Mg0_5 Mg4_0 3.149561 1_555
Mg0_5 Mg2_2 3.296700 1_545
Mg0_6 Mg4_7 3.049753 1_554
Mg0_6 Mg1_4 3.089272 1_555
Mg0_6 Mg1_2 3.089272 1_555
Mg0_6 Mg3_5 3.121688 1_554
Mg0_6 Mg3_3 3.121688 1_554
Mg0_6 Mg4_5 3.149561 1_554
Mg0_6 Mg4_3 3.149561 1_554
Mg0_6 Mg2_1 3.296700 1_554
Mg0_7 Mg4_6 3.049753 1_555
Mg0_7 Mg1_5 3.089272 1_555
Mg0_7 Mg1_3 3.089272 1_555
Mg0_7 Mg3_2 3.121688 1_555
Mg0_7 Mg3_4 3.121688 1_555
Mg0_7 Mg4_4 3.149561 1_555
Mg0_7 Mg4_2 3.149561 1_555
Mg0_7 Mg2_0 3.296700 1_555
Mg1_0 Mg4_1 2.969036 1_554
Mg1_0 Mg3_4 3.037410 1_455
Mg1_0 Mg3_2 3.037410 1_545
Mg1_0 Mg2_4 3.102232 1_455
Mg1_0 Mg2_2 3.102232 1_545
Mg1_0 Mg1_6 3.219677 1_455
Mg1_0 Mg1_6 3.219677 1_545
Mg1_1 Mg4_0 2.969036 1_555
Mg1_1 Mg3_5 3.037410 1_455
Mg1_1 Mg3_3 3.037410 1_545
Mg1_1 Mg2_3 3.102232 1_545
Mg1_1 Mg2_5 3.102232 1_455
Mg1_1 Mg1_7 3.219677 1_545
Mg1_1 Mg1_7 3.219677 1_455
Mg1_2 Mg4_3 2.969036 1_554
Mg1_2 Mg3_0 3.037410 1_555
Mg1_2 Mg3_6 3.037410 1_455
Mg1_2 Mg2_0 3.102232 1_555
Mg1_2 Mg2_6 3.102232 1_455
Mg1_2 Mg1_4 3.219677 1_555
Mg1_2 Mg1_4 3.219677 1_465
Mg1_3 Mg4_2 2.969036 1_555
Mg1_3 Mg3_1 3.037410 1_555
Mg1_3 Mg3_7 3.037410 1_455
Mg1_3 Mg2_1 3.102232 1_555
Mg1_3 Mg2_7 3.102232 1_455
Mg1_3 Mg1_5 3.219677 1_555
Mg1_3 Mg1_5 3.219677 1_465
Mg1_4 Mg4_5 2.969036 1_554
Mg1_4 Mg3_0 3.037410 1_555
Mg1_4 Mg3_6 3.037410 1_545
Mg1_4 Mg2_0 3.102232 1_555
Mg1_4 Mg2_6 3.102232 1_545
Mg1_5 Mg4_4 2.969036 1_555
Mg1_5 Mg3_1 3.037410 1_555
Mg1_5 Mg3_7 3.037410 1_545
Mg1_5 Mg2_1 3.102232 1_555
Mg1_5 Mg2_7 3.102232 1_545
Mg1_6 Mg4_7 2.969036 1_554
Mg1_6 Mg3_4 3.037410 1_555
Mg1_6 Mg3_2 3.037410 1_555
Mg1_6 Mg2_4 3.102232 1_555
Mg1_6 Mg2_2 3.102232 1_555
Mg1_7 Mg4_6 2.969036 1_555
Mg1_7 Mg3_3 3.037410 1_555
Mg1_7 Mg3_5 3.037410 1_555
Mg1_7 Mg2_3 3.102232 1_555
Mg1_7 Mg2_5 3.102232 1_555
Mg2_0 Mg3_4 3.083054 1_555
Mg2_0 Mg3_2 3.083054 1_555
Mg2_0 Mg3_0 3.154832 1_555
Mg2_0 Mg4_2 3.212268 1_555
Mg2_0 Mg4_4 3.212268 1_555
Mg2_0 Mg2_6 3.219677 1_455
Mg2_0 Mg2_6 3.219677 1_545
Mg2_1 Mg3_5 3.083054 1_555
Mg2_1 Mg3_3 3.083054 1_555
Mg2_1 Mg3_1 3.154832 1_555
Mg2_1 Mg4_3 3.212268 1_555
Mg2_1 Mg4_5 3.212268 1_555
Mg2_1 Mg2_7 3.219677 1_455
Mg2_1 Mg2_7 3.219677 1_545
Mg2_2 Mg3_6 3.083054 1_555
Mg2_2 Mg3_0 3.083054 1_565
Mg2_2 Mg3_2 3.154832 1_555
Mg2_2 Mg4_0 3.212268 1_565
Mg2_2 Mg4_6 3.212268 1_555
Mg2_2 Mg2_4 3.219677 1_555
Mg2_2 Mg2_4 3.219677 1_465
Mg2_3 Mg3_7 3.083054 1_555
Mg2_3 Mg3_1 3.083054 1_565
Mg2_3 Mg3_3 3.154832 1_555
Mg2_3 Mg4_1 3.212268 1_565
Mg2_3 Mg4_7 3.212268 1_555
Mg2_3 Mg2_5 3.219677 1_465
Mg2_3 Mg2_5 3.219677 1_555
Mg2_4 Mg3_6 3.083054 1_555
Mg2_4 Mg3_0 3.083054 1_655
Mg2_4 Mg3_4 3.154832 1_555
Mg2_4 Mg4_6 3.212268 1_555
Mg2_4 Mg4_0 3.212268 1_655
Mg2_5 Mg3_7 3.083054 1_555
Mg2_5 Mg3_1 3.083054 1_655
Mg2_5 Mg3_5 3.154832 1_555
Mg2_5 Mg4_1 3.212268 1_655
Mg2_5 Mg4_7 3.212268 1_555
Mg2_6 Mg3_4 3.083054 1_565
Mg2_6 Mg3_2 3.083054 1_655
Mg2_6 Mg3_6 3.154832 1_555
Mg2_6 Mg4_2 3.212268 1_655
Mg2_6 Mg4_4 3.212268 1_565
Mg2_7 Mg3_3 3.083054 1_655
Mg2_7 Mg3_5 3.083054 1_565
Mg2_7 Mg3_7 3.154832 1_555
Mg2_7 Mg4_3 3.212268 1_655
Mg2_7 Mg4_5 3.212268 1_565
Mg3_0 Mg4_4 3.092260 1_555
Mg3_0 Mg4_2 3.092260 1_555
Mg3_0 Mg3_6 3.219677 1_455
Mg3_0 Mg3_6 3.219677 1_545
Mg3_1 Mg4_5 3.092260 1_555
Mg3_1 Mg4_3 3.092260 1_555
Mg3_1 Mg3_7 3.219677 1_455
Mg3_1 Mg3_7 3.219677 1_545
Mg3_2 Mg4_0 3.092260 1_565
Mg3_2 Mg4_6 3.092260 1_555
Mg3_2 Mg3_4 3.219677 1_555
Mg3_2 Mg3_4 3.219677 1_465
Mg3_3 Mg4_1 3.092260 1_565
Mg3_3 Mg4_7 3.092260 1_555
Mg3_3 Mg3_5 3.219677 1_465
Mg3_3 Mg3_5 3.219677 1_555
Mg3_4 Mg4_0 3.092260 1_655
Mg3_4 Mg4_6 3.092260 1_555
Mg3_5 Mg4_1 3.092260 1_655
Mg3_5 Mg4_7 3.092260 1_555
Mg3_6 Mg4_2 3.092260 1_655
Mg3_6 Mg4_4 3.092260 1_565
Mg3_7 Mg4_3 3.092260 1_655
Mg3_7 Mg4_5 3.092260 1_565
Mg4_0 Mg4_6 3.219677 1_545
Mg4_0 Mg4_6 3.219677 1_455
Mg4_1 Mg4_7 3.219677 1_455
Mg4_1 Mg4_7 3.219677 1_545
Mg4_2 Mg4_4 3.219677 1_555
Mg4_2 Mg4_4 3.219677 1_465
Mg4_3 Mg4_5 3.219677 1_465
Mg4_3 Mg4_5 3.219677 1_555
Ga0_0 Mg2_2 2.952734 1_545
Ga0_0 Mg2_4 2.952734 1_455
Ga0_0 Mg0_4 2.961337 1_555
Ga0_0 Mg0_2 2.961337 1_555
Ga0_0 Mg1_4 2.985037 1_555
Ga0_0 Mg1_2 2.985037 1_555
Ga0_0 Mg4_5 3.072433 1_554
Ga0_0 Mg4_3 3.072433 1_554
Ga0_0 Mg3_0 3.074348 1_555
Ga0_0 Mg1_0 3.215598 1_555
Ga0_1 Mg2_5 2.952734 1_455
Ga0_1 Mg2_3 2.952734 1_545
Ga0_1 Mg0_5 2.961337 1_555
Ga0_1 Mg0_3 2.961337 1_555
Ga0_1 Mg1_5 2.985037 1_555
Ga0_1 Mg1_3 2.985037 1_555
Ga0_1 Mg4_2 3.072433 1_555
Ga0_1 Mg4_4 3.072433 1_555
Ga0_1 Mg3_1 3.074348 1_555
Ga0_1 Mg1_1 3.215598 1_555
Ga0_2 Mg2_6 2.952734 1_455
Ga0_2 Mg2_0 2.952734 1_555
Ga0_2 Mg0_0 2.961337 1_565
Ga0_2 Mg0_6 2.961337 1_555
Ga0_2 Mg1_6 2.985037 1_555
Ga0_2 Mg1_0 2.985037 1_565
Ga0_2 Mg4_1 3.072433 1_564
Ga0_2 Mg4_7 3.072433 1_554
Ga0_2 Mg3_2 3.074348 1_555
Ga0_2 Mg1_2 3.215598 1_555
Ga0_3 Mg2_1 2.952734 1_555
Ga0_3 Mg2_7 2.952734 1_455
Ga0_3 Mg0_1 2.961337 1_565
Ga0_3 Mg0_7 2.961337 1_555
Ga0_3 Mg1_7 2.985037 1_555
Ga0_3 Mg1_1 2.985037 1_565
Ga0_3 Mg4_0 3.072433 1_565
Ga0_3 Mg4_6 3.072433 1_555
Ga0_3 Mg3_3 3.074348 1_555
Ga0_3 Mg1_3 3.215598 1_555
Ga0_4 Mg2_6 2.952734 1_545
Ga0_4 Mg2_0 2.952734 1_555
Ga0_4 Mg0_0 2.961337 1_655
Ga0_4 Mg0_6 2.961337 1_555
Ga0_4 Mg1_6 2.985037 1_555
Ga0_4 Mg1_0 2.985037 1_655
Ga0_4 Mg4_1 3.072433 1_654
Ga0_4 Mg4_7 3.072433 1_554
Ga0_4 Mg3_4 3.074348 1_555
Ga0_4 Mg1_4 3.215598 1_555
Ga0_5 Mg2_1 2.952734 1_555
Ga0_5 Mg2_7 2.952734 1_545
Ga0_5 Mg0_1 2.961337 1_655
Ga0_5 Mg0_7 2.961337 1_555
Ga0_5 Mg1_7 2.985037 1_555
Ga0_5 Mg1_1 2.985037 1_655
Ga0_5 Mg4_0 3.072433 1_655
Ga0_5 Mg4_6 3.072433 1_555
Ga0_5 Mg3_5 3.074348 1_555
Ga0_5 Mg1_5 3.215598 1_555
Ga0_6 Mg2_4 2.952734 1_555
Ga0_6 Mg2_2 2.952734 1_555
Ga0_6 Mg0_2 2.961337 1_655
Ga0_6 Mg0_4 2.961337 1_565
Ga0_6 Mg1_2 2.985037 1_655
Ga0_6 Mg1_4 2.985037 1_565
Ga0_6 Mg4_3 3.072433 1_654
Ga0_6 Mg4_5 3.072433 1_564
Ga0_6 Mg3_6 3.074348 1_555
Ga0_6 Mg1_6 3.215598 1_555
Ga0_7 Mg2_3 2.952734 1_555
Ga0_7 Mg2_5 2.952734 1_555
Ga0_7 Mg0_5 2.961337 1_565
Ga0_7 Mg0_3 2.961337 1_655
Ga0_7 Mg1_5 2.985037 1_565
Ga0_7 Mg1_3 2.985037 1_655
Ga0_7 Mg4_2 3.072433 1_655
Ga0_7 Mg4_4 3.072433 1_565
Ga0_7 Mg3_7 3.074348 1_555
Ga0_7 Mg1_7 3.215598 1_555
