# generated using pymatgen
data_Dy4(Al8Pt3)3
_symmetry_space_group_name_H-M   'P 1'
_cell_length_a   7.48243181
_cell_length_b   7.49569359
_cell_length_c   13.08970639
_cell_angle_alpha   84.58005637
_cell_angle_beta   79.07246284
_cell_angle_gamma   59.92765468
_symmetry_Int_Tables_number   1
_chemical_formula_structural   Dy4(Al8Pt3)3
_chemical_formula_sum   'Dy4 Al24 Pt9'
_cell_volume   623.80803146
_cell_formula_units_Z   1
loop_
 _symmetry_equiv_pos_site_id
 _symmetry_equiv_pos_as_xyz
  1  'x, y, z'
loop_
 _atom_site_type_symbol
 _atom_site_label
 _atom_site_symmetry_multiplicity
 _atom_site_fract_x
 _atom_site_fract_y
 _atom_site_fract_z
 _atom_site_occupancy
  Dy  Dy0  1  0.39409441  0.16809876  0.80798055  1
  Dy  Dy1  1  0.60590559  0.83190124  0.19201945  1
  Dy  Dy2  1  0.73367287  0.49868147  0.80794229  1
  Dy  Dy3  1  0.26632713  0.50131853  0.19205771  1
  Al  Al0  1  0.68462912  0.83364905  0.94515925  1
  Al  Al1  1  0.31537088  0.16635095  0.05484075  1
  Al  Al2  1  0.14669912  0.83256143  0.56112948  1
  Al  Al3  1  0.85330088  0.16743857  0.43887052  1
  Al  Al4  1  0.48013634  0.16667880  0.55892068  1
  Al  Al5  1  0.51986366  0.83332120  0.44107932  1
  Al  Al6  1  0.21685329  0.16546141  0.32991052  1
  Al  Al7  1  0.78314671  0.83453859  0.67008948  1
  Al  Al8  1  0.43726089  0.50675054  0.67028124  1
  Al  Al9  1  0.56273911  0.49324946  0.32971876  1
  Al  Al10  1  0.10998322  0.15972474  0.66885922  1
  Al  Al11  1  0.89001678  0.84027526  0.33114078  1
  Al  Al12  1  0.35190123  0.50002314  0.94510439  1
  Al  Al13  1  0.64809877  0.49997686  0.05489561  1
  Al  Al14  1  0.01496732  0.16710411  0.95434827  1
  Al  Al15  1  0.98503268  0.83289589  0.04565173  1
  Al  Al16  1  0.18649823  0.49951420  0.44113140  1
  Al  Al17  1  0.81350177  0.50048580  0.55886860  1
  Al  Al18  1  0.73455046  0.16393625  0.18338342  1
  Al  Al19  1  0.26544954  0.83606375  0.81661658  1
  Al  Al20  1  0.06142215  0.63125342  0.81532159  1
  Al  Al21  1  0.93857785  0.36874658  0.18467841  1
  Al  Al22  1  0.85573441  0.04118322  0.81616621  1
  Al  Al23  1  0.14426559  0.95881678  0.18383379  1
  Pt  Pt0  1  0.12035872  0.49214119  0.63862385  1
  Pt  Pt1  1  0.87964128  0.50785881  0.36137615  1
  Pt  Pt2  1  0.65678346  0.17160098  0.99991273  1
  Pt  Pt3  1  0.34321654  0.82839902  0.00008727  1
  Pt  Pt4  1  0.53797225  0.16672432  0.36143539  1
  Pt  Pt5  1  0.46202775  0.83327568  0.63856461  1
  Pt  Pt6  1  0.77957979  0.17462260  0.63733259  1
  Pt  Pt7  1  0.22042021  0.82537740  0.36266741  1
  Pt  Pt8  1  -0.00000000  0.50000000  -0.00000000  1
loop_
_geom_bond_atom_site_label_1
_geom_bond_atom_site_label_2
_geom_bond_distance
_geom_bond_site_symmetry_2
Dy0 Pt0 3.275306 1_555
Dy0 Pt5 3.289441 1_545
Dy0 Pt6 3.315045 1_555
Dy0 Pt2 3.480274 1_555
Dy0 Pt8 3.495901 1_556
Dy0 Pt3 3.514364 1_546
Dy1 Pt1 3.275306 1_555
Dy1 Pt4 3.289441 1_565
Dy1 Pt7 3.315045 1_555
Dy1 Pt3 3.480274 1_555
Dy1 Pt8 3.495901 1_655
Dy1 Pt2 3.514364 1_564
Dy2 Pt0 3.276144 1_655
Dy2 Pt5 3.299434 1_555
Dy2 Pt6 3.302016 1_555
Dy2 Pt3 3.481598 1_556
Dy2 Pt8 3.495019 1_656
Dy2 Pt2 3.515368 1_555
Dy3 Pt1 3.276144 1_455
Dy3 Pt4 3.299434 1_555
Dy3 Pt7 3.302016 1_555
Dy3 Pt2 3.481598 1_554
Dy3 Pt8 3.495019 1_555
Dy3 Pt3 3.515368 1_555
Al0 Pt3 2.538404 1_556
Al0 Pt8 2.593641 1_656
Al0 Pt2 2.594515 1_565
Al0 Dy2 3.056726 1_555
Al0 Dy0 3.066381 1_565
Al0 Dy1 3.172809 1_556
Al1 Pt2 2.538404 1_554
Al1 Pt8 2.593641 1_555
Al1 Pt3 2.594515 1_545
Al1 Dy3 3.056726 1_555
Al1 Dy1 3.066381 1_545
Al1 Dy0 3.172809 1_554
Al2 Pt7 2.551305 1_555
Al2 Pt6 2.738699 1_465
Al2 Pt5 2.741295 1_555
Al2 Pt0 2.741925 1_555
Al3 Pt6 2.551305 1_555
Al3 Pt7 2.738699 1_645
Al3 Pt4 2.741295 1_555
Al3 Pt1 2.741925 1_555
Al4 Pt4 2.538795 1_555
Al4 Pt6 2.663512 1_555
Al4 Pt0 2.668550 1_555
Al4 Pt5 2.672876 1_545
Al4 Dy0 3.201080 1_555
Al5 Pt5 2.538795 1_555
Al5 Pt7 2.663512 1_555
Al5 Pt1 2.668550 1_555
Al5 Pt4 2.672876 1_565
Al5 Dy1 3.201080 1_555
Al6 Pt4 2.518537 1_555
Al6 Pt7 2.532287 1_545
Al6 Pt1 2.537473 1_455
Al6 Dy1 3.090233 1_545
Al6 Dy3 3.090851 1_555
Al7 Pt5 2.518537 1_555
Al7 Pt6 2.532287 1_565
Al7 Pt0 2.537473 1_655
Al7 Dy0 3.090233 1_565
Al7 Dy2 3.090851 1_555
Al8 Pt6 2.517511 1_555
Al8 Pt5 2.535853 1_555
Al8 Pt0 2.539218 1_555
Al8 Dy2 3.087044 1_555
Al8 Dy0 3.087617 1_555
Al9 Pt7 2.517511 1_555
Al9 Pt4 2.535853 1_555
Al9 Pt1 2.539218 1_555
Al9 Dy3 3.087044 1_555
Al9 Dy1 3.087617 1_555
Al10 Pt0 2.523314 1_555
Al10 Pt6 2.529045 1_455
Al10 Pt5 2.532022 1_545
Al10 Dy2 3.075491 1_455
Al10 Dy0 3.076111 1_555
Al11 Pt1 2.523314 1_555
Al11 Pt7 2.529045 1_655
Al11 Pt4 2.532022 1_565
Al11 Dy3 3.075491 1_655
Al11 Dy1 3.076111 1_555
Al12 Pt2 2.537275 1_555
Al12 Pt8 2.594712 1_556
Al12 Pt3 2.595639 1_556
Al12 Dy0 3.058287 1_555
Al12 Dy2 3.068190 1_555
Al12 Dy3 3.174020 1_556
Al13 Pt3 2.537275 1_555
Al13 Pt8 2.594712 1_655
Al13 Pt2 2.595639 1_554
Al13 Dy1 3.058287 1_555
Al13 Dy3 3.068190 1_555
Al13 Dy2 3.174020 1_554
Al14 Pt8 2.563655 1_556
Al14 Pt2 2.616667 1_455
Al14 Pt3 2.618713 1_546
Al14 Dy2 3.109142 1_455
Al14 Dy0 3.110634 1_555
Al15 Pt8 2.563655 1_655
Al15 Pt3 2.616667 1_655
Al15 Pt2 2.618713 1_564
Al15 Dy3 3.109142 1_655
Al15 Dy1 3.110634 1_555
Al16 Pt0 2.538933 1_555
Al16 Pt4 2.665314 1_555
Al16 Pt1 2.667976 1_455
Al16 Pt7 2.670959 1_555
Al16 Dy3 3.201244 1_555
Al17 Pt1 2.538933 1_555
Al17 Pt5 2.665314 1_555
Al17 Pt0 2.667976 1_655
Al17 Pt6 2.670959 1_555
Al17 Dy2 3.201244 1_555
Al18 Pt4 2.504902 1_555
Al18 Pt2 2.565096 1_554
Al18 Dy1 3.072482 1_545
Al18 Dy3 3.115540 1_555
Al19 Pt5 2.504902 1_555
Al19 Pt3 2.565096 1_556
Al19 Dy0 3.072482 1_565
Al19 Dy2 3.115540 1_555
Al20 Pt0 2.497889 1_555
Al20 Pt8 2.570127 1_556
Al20 Dy2 3.092105 1_455
Al20 Dy0 3.093474 1_555
Al21 Pt1 2.497889 1_555
Al21 Pt8 2.570127 1_655
Al21 Dy3 3.092105 1_655
Al21 Dy1 3.093474 1_555
Al22 Pt6 2.509397 1_555
Al22 Pt2 2.566103 1_555
Al22 Dy2 3.071529 1_555
Al22 Dy0 3.110588 1_555
Al23 Pt7 2.509397 1_555
Al23 Pt3 2.566103 1_555
Al23 Dy3 3.071529 1_555
Al23 Dy1 3.110588 1_555
