# generated using pymatgen
data_LiTaO3
_symmetry_space_group_name_H-M   'P 1'
_cell_length_a   4.74977800
_cell_length_b   5.11723900
_cell_length_c   8.83457100
_cell_angle_alpha   90.00000000
_cell_angle_beta   90.00000000
_cell_angle_gamma   90.00000000
_symmetry_Int_Tables_number   1
_chemical_formula_structural   LiTaO3
_chemical_formula_sum   'Li4 Ta4 O12'
_cell_volume   214.73086722
_cell_formula_units_Z   4
loop_
 _symmetry_equiv_pos_site_id
 _symmetry_equiv_pos_as_xyz
  1  'x, y, z'
loop_
 _atom_site_type_symbol
 _atom_site_label
 _atom_site_symmetry_multiplicity
 _atom_site_fract_x
 _atom_site_fract_y
 _atom_site_fract_z
 _atom_site_occupancy
  Li  Li0  1  0.00000000  0.50000000  0.00000000  1
  Li  Li1  1  0.50000000  0.00000000  0.50000000  1
  Li  Li2  1  0.00000000  0.50000000  0.50000000  1
  Li  Li3  1  0.50000000  0.00000000  0.00000000  1
  Ta  Ta0  1  0.55824100  0.55108100  0.25000000  1
  Ta  Ta1  1  0.94175900  0.05108100  0.25000000  1
  Ta  Ta2  1  0.44175900  0.44891900  0.75000000  1
  Ta  Ta3  1  0.05824100  0.94891900  0.75000000  1
  O  O0  1  0.30146900  0.87970100  0.25000000  1
  O  O1  1  0.19853100  0.37970100  0.25000000  1
  O  O2  1  0.69853100  0.12029900  0.75000000  1
  O  O3  1  0.80146900  0.62029900  0.75000000  1
  O  O4  1  0.78898800  0.79316300  0.10591800  1
  O  O5  1  0.71101200  0.29316300  0.39408200  1
  O  O6  1  0.21101200  0.20683700  0.60591800  1
  O  O7  1  0.28898800  0.70683700  0.89408200  1
  O  O8  1  0.21101200  0.20683700  0.89408200  1
  O  O9  1  0.28898800  0.70683700  0.60591800  1
  O  O10  1  0.78898800  0.79316300  0.39408200  1
  O  O11  1  0.71101200  0.29316300  0.10591800  1
loop_
_geom_bond_atom_site_label_1
_geom_bond_atom_site_label_2
_geom_bond_distance
_geom_bond_site_symmetry_2
Li0 O7 1.969772 1_554
Li0 O11 1.969772 1_455
Li0 O8 2.032410 1_554
Li0 O4 2.032410 1_455
Li0 O1 2.479168 1_555
Li0 O3 2.479168 1_454
Li1 O6 1.969772 1_555
Li1 O10 1.969772 1_545
Li1 O9 2.032410 1_545
Li1 O5 2.032410 1_555
Li1 O2 2.479168 1_555
Li1 O0 2.479168 1_545
Li2 O9 1.969772 1_555
Li2 O5 1.969772 1_455
Li2 O10 2.032410 1_455
Li2 O6 2.032410 1_555
Li2 O1 2.479168 1_555
Li2 O3 2.479168 1_455
Li3 O8 1.969772 1_554
Li3 O4 1.969772 1_545
Li3 O7 2.032410 1_544
Li3 O11 2.032410 1_555
Li3 O2 2.479168 1_554
Li3 O0 2.479168 1_545
O0 Ta1 1.920477 1_465
O0 Ta0 2.077334 1_555
O1 Ta0 1.920477 1_555
O1 Ta1 2.077334 1_455
O2 Ta3 1.920477 1_645
O2 Ta2 2.077334 1_555
O3 Ta2 1.920477 1_555
O3 Ta3 2.077334 1_655
O4 Ta1 1.971995 1_565
O4 Ta0 2.087126 1_555
O5 Ta0 1.971995 1_555
O5 Ta1 2.087126 1_555
O6 Ta3 1.971995 1_545
O6 Ta2 2.087126 1_555
O7 Ta2 1.971995 1_555
O7 Ta3 2.087126 1_555
O8 Ta3 1.971995 1_545
O8 Ta2 2.087126 1_555
O9 Ta2 1.971995 1_555
O9 Ta3 2.087126 1_555
O10 Ta1 1.971995 1_565
O10 Ta0 2.087126 1_555
O11 Ta0 1.971995 1_555
O11 Ta1 2.087126 1_555
