# generated using pymatgen
data_Cs2TbO3
_symmetry_space_group_name_H-M   'P 1'
_cell_length_a   7.01960405
_cell_length_b   7.01960405
_cell_length_c   6.48109900
_cell_angle_alpha   90.00000000
_cell_angle_beta   90.00000000
_cell_angle_gamma   112.65711354
_symmetry_Int_Tables_number   1
_chemical_formula_structural   Cs2TbO3
_chemical_formula_sum   'Cs4 Tb2 O6'
_cell_volume   294.70942956
_cell_formula_units_Z   2
loop_
 _symmetry_equiv_pos_site_id
 _symmetry_equiv_pos_as_xyz
  1  'x, y, z'
loop_
 _atom_site_type_symbol
 _atom_site_label
 _atom_site_symmetry_multiplicity
 _atom_site_fract_x
 _atom_site_fract_y
 _atom_site_fract_z
 _atom_site_occupancy
  Cs  Cs0  1  0.80689400  0.47969500  0.99495300  1
  Cs  Cs1  1  0.19310600  0.52030500  0.49495300  1
  Cs  Cs2  1  0.52030500  0.19310600  0.49495300  1
  Cs  Cs3  1  0.47969500  0.80689400  0.99495300  1
  Tb  Tb0  1  0.09198100  0.09198100  0.02418200  1
  Tb  Tb1  1  0.90801900  0.90801900  0.52418200  1
  O  O0  1  0.35999400  0.35999400  0.09387000  1
  O  O1  1  0.64000600  0.64000600  0.59387000  1
  O  O2  1  0.85952700  0.10028200  0.25946600  1
  O  O3  1  0.14047300  0.89971800  0.75946600  1
  O  O4  1  0.89971800  0.14047300  0.75946600  1
  O  O5  1  0.10028200  0.85952700  0.25946600  1
loop_
_geom_bond_atom_site_label_1
_geom_bond_atom_site_label_2
_geom_bond_distance
_geom_bond_site_symmetry_2
Cs0 O0 2.987872 1_556
Cs0 O4 3.101516 1_555
Cs0 O5 3.171567 1_656
Cs0 O1 3.226697 1_555
Cs0 O2 3.305582 1_556
Cs0 O3 3.344609 1_655
Cs1 O1 2.987872 1_555
Cs1 O5 3.101516 1_555
Cs1 O4 3.171567 1_455
Cs1 O0 3.226697 1_555
Cs1 O3 3.305582 1_555
Cs1 O2 3.344609 1_455
Cs2 O1 2.987872 1_555
Cs2 O2 3.101516 1_555
Cs2 O3 3.171567 1_545
Cs2 O0 3.226697 1_555
Cs2 O4 3.305582 1_555
Cs2 O5 3.344609 1_545
Cs3 O0 2.987872 1_556
Cs3 O3 3.101516 1_555
Cs3 O2 3.171567 1_566
Cs3 O1 3.226697 1_555
Cs3 O5 3.305582 1_556
Cs3 O4 3.344609 1_565
O0 Tb0 2.134479 1_555
O1 Tb1 2.134479 1_555
O2 Tb0 2.250450 1_655
O2 Tb1 2.287949 1_545
O3 Tb1 2.250450 1_455
O3 Tb0 2.287949 1_566
O4 Tb1 2.250450 1_545
O4 Tb0 2.287949 1_656
O5 Tb0 2.250450 1_565
O5 Tb1 2.287949 1_455
