# generated using pymatgen
data_Yb3(CuSi)4
_symmetry_space_group_name_H-M   'P 1'
_cell_length_a   7.81477953
_cell_length_b   7.81477953
_cell_length_c   7.81477953
_cell_angle_alpha   149.09246244
_cell_angle_beta   130.25331120
_cell_angle_gamma   59.72403286
_symmetry_Int_Tables_number   1
_chemical_formula_structural   Yb3(CuSi)4
_chemical_formula_sum   'Yb3 Cu4 Si4'
_cell_volume   185.54947515
_cell_formula_units_Z   1
loop_
 _symmetry_equiv_pos_site_id
 _symmetry_equiv_pos_as_xyz
  1  'x, y, z'
loop_
 _atom_site_type_symbol
 _atom_site_label
 _atom_site_symmetry_multiplicity
 _atom_site_fract_x
 _atom_site_fract_y
 _atom_site_fract_z
 _atom_site_occupancy
  Yb  Yb0  1  0.36781300  0.86781300  0.50000000  1
  Yb  Yb1  1  0.63218700  0.13218700  0.50000000  1
  Yb  Yb2  1  0.00000000  0.00000000  0.00000000  1
  Cu  Cu0  1  0.63883400  0.33050400  0.30832900  1
  Cu  Cu1  1  0.36116600  0.66949600  0.69167100  1
  Cu  Cu2  1  0.02217500  0.33050400  0.69167100  1
  Cu  Cu3  1  0.97782500  0.66949600  0.30832900  1
  Si  Si0  1  0.21815600  0.21815600  0.00000000  1
  Si  Si1  1  0.78184400  0.78184400  0.00000000  1
  Si  Si2  1  0.67804900  0.50000000  0.17804900  1
  Si  Si3  1  0.32195100  0.50000000  0.82195100  1
loop_
_geom_bond_atom_site_label_1
_geom_bond_atom_site_label_2
_geom_bond_distance
_geom_bond_site_symmetry_2
Cu0 Si2 2.451858 1_555
Cu0 Cu2 2.520090 1_655
Cu0 Si1 2.521672 1_545
Cu0 Si1 2.521676 1_556
Cu0 Si0 2.535258 1_555
Cu0 Yb0 2.949643 1_544
Cu0 Yb0 2.949646 1_555
Cu0 Yb1 2.968742 1_555
Cu0 Yb2 3.346921 1_655
Cu0 Yb2 3.346924 1_666
Cu1 Si3 2.451858 1_555
Cu1 Cu3 2.520090 1_455
Cu1 Si0 2.521672 1_566
Cu1 Si0 2.521676 1_555
Cu1 Si1 2.535258 1_556
Cu1 Yb1 2.949643 1_566
Cu1 Yb1 2.949646 1_555
Cu1 Yb0 2.968742 1_555
Cu1 Yb2 3.346921 1_566
Cu1 Yb2 3.346924 1_555
Cu2 Si3 2.451863 1_555
Cu2 Si1 2.521674 1_445
Cu2 Si1 2.521674 1_456
Cu2 Si0 2.535251 1_556
Cu2 Yb0 2.949643 1_556
Cu2 Yb0 2.949643 1_545
Cu2 Yb1 2.968737 1_455
Cu2 Yb2 3.346928 1_566
Cu2 Yb2 3.346928 1_555
Cu3 Si2 2.451863 1_555
Cu3 Si0 2.521674 1_666
Cu3 Si0 2.521674 1_655
Cu3 Si1 2.535251 1_555
Cu3 Yb1 2.949643 1_554
Cu3 Yb1 2.949643 1_565
Cu3 Yb0 2.968737 1_655
Cu3 Yb2 3.346928 1_666
Cu3 Yb2 3.346928 1_655
Si0 Yb0 2.907051 1_555
Si0 Yb0 2.907051 1_544
Si0 Yb2 2.956968 1_555
Si1 Yb1 2.907051 1_565
Si1 Yb1 2.907051 1_554
Si1 Yb2 2.956968 1_665
Si2 Si3 2.340991 1_554
Si2 Yb2 2.969127 1_655
Si2 Yb2 2.969127 1_666
Si2 Yb0 2.986034 1_544
Si2 Yb0 2.986034 1_555
Si2 Yb1 2.986034 1_554
Si2 Yb1 2.986034 1_565
Si3 Yb2 2.969127 1_566
Si3 Yb2 2.969127 1_555
Si3 Yb0 2.986034 1_545
Si3 Yb0 2.986034 1_556
Si3 Yb1 2.986034 1_566
Si3 Yb1 2.986034 1_555
