# generated using pymatgen
data_Li2MnCoO4
_symmetry_space_group_name_H-M   'P 1'
_cell_length_a   5.08416725
_cell_length_b   5.07361154
_cell_length_c   6.05232786
_cell_angle_alpha   102.41305132
_cell_angle_beta   94.32702270
_cell_angle_gamma   99.91739857
_symmetry_Int_Tables_number   1
_chemical_formula_structural   Li2MnCoO4
_chemical_formula_sum   'Li4 Mn2 Co2 O8'
_cell_volume   149.16246668
_cell_formula_units_Z   2
loop_
 _symmetry_equiv_pos_site_id
 _symmetry_equiv_pos_as_xyz
  1  'x, y, z'
loop_
 _atom_site_type_symbol
 _atom_site_label
 _atom_site_symmetry_multiplicity
 _atom_site_fract_x
 _atom_site_fract_y
 _atom_site_fract_z
 _atom_site_occupancy
  Li  Li0  1  0.75958400  0.49869200  0.12462300  1
  Li  Li1  1  0.75605300  0.49547000  0.61297200  1
  Li  Li2  1  0.24747700  0.49830700  0.37397900  1
  Li  Li3  1  0.23628200  0.50548900  0.88738000  1
  Mn  Mn0  1  0.50103900  0.00037800  0.75175700  1
  Mn  Mn1  1  0.00377500  0.00062500  0.49699500  1
  Co  Co0  1  0.99730600  0.00050800  0.00437900  1
  Co  Co1  1  0.49930400  0.99865200  0.24646100  1
  O  O0  1  0.86301800  0.22904200  0.82550300  1
  O  O1  1  0.63438700  0.77288200  0.43128300  1
  O  O2  1  0.87458400  0.23689900  0.31898000  1
  O  O3  1  0.63666000  0.78036300  0.94342200  1
  O  O4  1  0.35824300  0.22268800  0.06661100  1
  O  O5  1  0.12390800  0.76416000  0.17269700  1
  O  O6  1  0.37077200  0.22560200  0.56031200  1
  O  O7  1  0.13760900  0.77024100  0.68264300  1
loop_
_geom_bond_atom_site_label_1
_geom_bond_atom_site_label_2
_geom_bond_distance
_geom_bond_site_symmetry_2
Li0 O5 2.054397 1_655
Li0 O2 2.079711 1_555
Li0 O3 2.124527 1_554
Li0 O0 2.179992 1_554
Li0 O4 2.223528 1_555
Li0 O1 2.271219 1_555
Li1 O1 2.106059 1_555
Li1 O7 2.139337 1_655
Li1 O6 2.146547 1_555
Li1 O0 2.161655 1_555
Li1 O2 2.163523 1_555
Li1 O3 2.387533 1_555
Li2 O2 2.076761 1_455
Li2 O6 2.107606 1_555
Li2 O5 2.140316 1_555
Li2 O1 2.162387 1_555
Li2 O7 2.240610 1_555
Li2 O4 2.245945 1_555
Li3 O7 2.108398 1_555
Li3 O0 2.111630 1_455
Li3 O5 2.112720 1_556
Li3 O4 2.119910 1_556
Li3 O3 2.217698 1_555
Li3 O6 2.394321 1_555
Mn0 O3 1.941202 1_545
Mn0 O6 1.949633 1_555
Mn0 O0 1.962163 1_555
Mn0 O7 1.970457 1_545
Mn0 O4 2.235478 1_556
Mn0 O1 2.249327 1_545
Mn1 O2 1.936220 1_455
Mn1 O7 1.953197 1_545
Mn1 O6 1.975264 1_555
Mn1 O1 1.990616 1_445
Mn1 O5 2.255165 1_545
Mn1 O0 2.306089 1_455
Co0 O5 1.892648 1_645
Co0 O0 1.919227 1_554
Co0 O3 1.939330 1_544
Co0 O4 1.944392 1_655
Co0 O2 2.215511 1_555
Co0 O7 2.276870 1_644
Co1 O4 1.919935 1_565
Co1 O1 1.934157 1_555
Co1 O5 2.029369 1_555
Co1 O2 2.036001 1_565
Co1 O3 2.159760 1_554
Co1 O6 2.206189 1_565
