# generated using pymatgen
data_NaSr4(SbO4)3
_symmetry_space_group_name_H-M   'P 1'
_cell_length_a   8.20589100
_cell_length_b   8.23106600
_cell_length_c   11.57724048
_cell_angle_alpha   45.32568366
_cell_angle_beta   90.00000000
_cell_angle_gamma   90.00000000
_symmetry_Int_Tables_number   1
_chemical_formula_structural   NaSr4(SbO4)3
_chemical_formula_sum   'Na2 Sr8 Sb6 O24'
_cell_volume   556.06625998
_cell_formula_units_Z   2
loop_
 _symmetry_equiv_pos_site_id
 _symmetry_equiv_pos_as_xyz
  1  'x, y, z'
loop_
 _atom_site_type_symbol
 _atom_site_label
 _atom_site_symmetry_multiplicity
 _atom_site_fract_x
 _atom_site_fract_y
 _atom_site_fract_z
 _atom_site_occupancy
  Na  Na0  1  0.50000000  0.00000000  0.50000000  1
  Na  Na1  1  0.00000000  0.00000000  0.00000000  1
  Sr  Sr0  1  0.74506100  0.96826300  0.76342400  1
  Sr  Sr1  1  0.24506100  0.03173700  0.73657600  1
  Sr  Sr2  1  0.25424500  0.54311500  0.72286800  1
  Sr  Sr3  1  0.75424500  0.45688500  0.77713200  1
  Sr  Sr4  1  0.25493900  0.03173700  0.23657600  1
  Sr  Sr5  1  0.75493900  0.96826300  0.26342400  1
  Sr  Sr6  1  0.24575500  0.54311500  0.22286800  1
  Sr  Sr7  1  0.74575500  0.45688500  0.27713200  1
  Sb  Sb0  1  0.00000000  0.50000000  0.50000000  1
  Sb  Sb1  1  0.50000000  0.50000000  0.00000000  1
  Sb  Sb2  1  0.00000000  0.00000000  0.50000000  1
  Sb  Sb3  1  0.50000000  0.00000000  0.00000000  1
  Sb  Sb4  1  0.00000000  0.50000000  0.00000000  1
  Sb  Sb5  1  0.50000000  0.50000000  0.50000000  1
  O  O0  1  0.46150400  0.78907400  0.96057800  1
  O  O1  1  0.96150400  0.21092600  0.53942200  1
  O  O2  1  0.53849600  0.21092600  0.03942200  1
  O  O3  1  0.03849600  0.78907400  0.46057800  1
  O  O4  1  0.25016900  0.48077100  0.47061500  1
  O  O5  1  0.75016900  0.51922900  0.02938500  1
  O  O6  1  0.74983100  0.51922900  0.52938500  1
  O  O7  1  0.24983100  0.48077100  0.97061500  1
  O  O8  1  0.45867800  0.28691500  0.75048400  1
  O  O9  1  0.95867800  0.71308500  0.74951600  1
  O  O10  1  0.54132200  0.71308500  0.24951600  1
  O  O11  1  0.04132200  0.28691500  0.25048400  1
  O  O12  1  0.22793200  0.98129400  0.54359700  1
  O  O13  1  0.72793200  0.01870600  0.95640300  1
  O  O14  1  0.77206800  0.01870600  0.45640300  1
  O  O15  1  0.27206800  0.98129400  0.04359700  1
  O  O16  1  0.96091700  0.23821000  0.03505200  1
  O  O17  1  0.46091700  0.76179000  0.46494800  1
  O  O18  1  0.03908300  0.76179000  0.96494800  1
  O  O19  1  0.53908300  0.23821000  0.53505200  1
  O  O20  1  0.96382000  0.69266100  0.27227700  1
  O  O21  1  0.46382000  0.30733900  0.22772300  1
  O  O22  1  0.03618000  0.30733900  0.72772300  1
  O  O23  1  0.53618000  0.69266100  0.77227700  1
loop_
_geom_bond_atom_site_label_1
_geom_bond_atom_site_label_2
_geom_bond_distance
_geom_bond_site_symmetry_2
Na0 O12 2.270134 1_545
Na0 O14 2.270134 1_555
Na0 O23 2.282789 1_545
Na0 O21 2.282789 1_555
Na0 O19 2.287094 1_555
Na0 O17 2.287094 1_545
Na1 O15 2.270134 1_545
Na1 O13 2.270134 1_454
Na1 O22 2.282789 1_554
Na1 O20 2.282789 1_445
Na1 O16 2.287094 1_455
Na1 O18 2.287094 1_544
O0 Sb3 2.106297 1_566
O0 Sb1 2.107739 1_556
O0 Sr1 2.566272 1_565
O0 Sr6 2.794535 1_556
O0 Sr0 2.839991 1_555
O1 Sb2 2.106297 1_655
O1 Sb0 2.107739 1_655
O1 Sr0 2.566272 1_545
O1 Sr7 2.794535 1_555
O1 Sr1 2.839991 1_655
O2 Sb3 2.106297 1_555
O2 Sb1 2.107739 1_555
O2 Sr5 2.566272 1_545
O2 Sr3 2.794535 1_554
O2 Sr4 2.839991 1_555
O3 Sb2 2.106297 1_565
O3 Sb0 2.107739 1_555
O3 Sr4 2.566272 1_565
O3 Sr2 2.794535 1_555
O3 Sr5 2.839991 1_455
O4 Sb5 2.102225 1_555
O4 Sb0 2.104930 1_555
O4 Sr6 2.534111 1_555
O4 Sr1 2.672191 1_555
O5 Sb4 2.102225 1_655
O5 Sb1 2.104930 1_555
O5 Sr7 2.534111 1_555
O5 Sr0 2.672191 1_554
O6 Sb5 2.102225 1_555
O6 Sb0 2.104930 1_655
O6 Sr3 2.534111 1_555
O6 Sr5 2.672191 1_555
O7 Sb4 2.102225 1_556
O7 Sb1 2.104930 1_556
O7 Sr2 2.534111 1_555
O7 Sr4 2.672191 1_556
O8 Sb3 2.108090 1_556
O8 Sb5 2.109199 1_555
O8 Sr2 2.532862 1_555
O8 Sr1 2.825921 1_555
O8 Sr3 2.922655 1_555
O9 Sb2 2.108090 1_665
O9 Sb4 2.109199 1_656
O9 Sr3 2.532862 1_555
O9 Sr0 2.825921 1_555
O9 Sr2 2.922655 1_655
O10 Sb3 2.108090 1_565
O10 Sb5 2.109199 1_555
O10 Sr7 2.532862 1_555
O10 Sr5 2.825921 1_555
O10 Sr6 2.922655 1_555
O11 Sb2 2.108090 1_555
O11 Sb4 2.109199 1_555
O11 Sr6 2.532862 1_555
O11 Sr4 2.825921 1_555
O11 Sr7 2.922655 1_455
O12 Sb2 1.915078 1_565
O12 Sr1 2.547159 1_565
O12 Sr2 2.614673 1_555
O13 Sb3 1.915078 1_556
O13 Sr0 2.547159 1_545
O13 Sr3 2.614673 1_555
O14 Sb2 1.915078 1_655
O14 Sr5 2.547159 1_545
O14 Sr7 2.614673 1_555
O15 Sb3 1.915078 1_565
O15 Sr4 2.547159 1_565
O15 Sr6 2.614673 1_555
O16 Sb4 1.918634 1_655
O16 Sr5 2.554133 1_545
O16 Sr3 2.733977 1_554
O16 Sr4 2.928699 1_655
O17 Sb5 1.918634 1_555
O17 Sr4 2.554133 1_565
O17 Sr2 2.733977 1_555
O17 Sr5 2.928699 1_555
O18 Sb4 1.918634 1_556
O18 Sr1 2.554133 1_565
O18 Sr6 2.733977 1_556
O18 Sr0 2.928699 1_455
O19 Sb5 1.918634 1_555
O19 Sr0 2.554133 1_545
O19 Sr7 2.733977 1_555
O19 Sr1 2.928699 1_555
O20 Sb0 1.916944 1_655
O20 Sr7 2.611141 1_555
O20 Sr5 2.787048 1_555
O20 Sr6 2.860923 1_655
O21 Sb1 1.916944 1_555
O21 Sr6 2.611141 1_555
O21 Sr4 2.787048 1_555
O21 Sr7 2.860923 1_555
O22 Sb0 1.916944 1_555
O22 Sr2 2.611141 1_555
O22 Sr1 2.787048 1_555
O22 Sr3 2.860923 1_455
O23 Sb1 1.916944 1_556
O23 Sr3 2.611141 1_555
O23 Sr0 2.787048 1_555
O23 Sr2 2.860923 1_555
