# generated using pymatgen
data_SrRuO3
_symmetry_space_group_name_H-M   'P 1'
_cell_length_a   5.36079374
_cell_length_b   5.36079374
_cell_length_c   7.47387800
_cell_angle_alpha   90.00000000
_cell_angle_beta   90.00000000
_cell_angle_gamma   144.55919477
_symmetry_Int_Tables_number   1
_chemical_formula_structural   SrRuO3
_chemical_formula_sum   'Sr2 Ru2 O6'
_cell_volume   124.54563471
_cell_formula_units_Z   2
loop_
 _symmetry_equiv_pos_site_id
 _symmetry_equiv_pos_as_xyz
  1  'x, y, z'
loop_
 _atom_site_type_symbol
 _atom_site_label
 _atom_site_symmetry_multiplicity
 _atom_site_fract_x
 _atom_site_fract_y
 _atom_site_fract_z
 _atom_site_occupancy
  Sr  Sr0  1  0.75015300  0.24984700  0.25000000  1
  Sr  Sr1  1  0.24984700  0.75015300  0.75000000  1
  Ru  Ru0  1  0.00000000  0.00000000  0.50000000  1
  Ru  Ru1  1  0.00000000  0.00000000  0.00000000  1
  O  O0  1  0.05406700  0.94593300  0.25000000  1
  O  O1  1  0.94593300  0.05406700  0.75000000  1
  O  O2  1  0.37765700  0.62234300  0.04527800  1
  O  O3  1  0.62234300  0.37765700  0.95472200  1
  O  O4  1  0.37765700  0.62234300  0.45472200  1
  O  O5  1  0.62234300  0.37765700  0.54527800  1
loop_
_geom_bond_atom_site_label_1
_geom_bond_atom_site_label_2
_geom_bond_distance
_geom_bond_site_symmetry_2
O0 Ru1 1.948353 1_565
O0 Ru0 1.948353 1_565
O0 Sr0 2.583174 1_565
O0 Sr0 2.583174 1_455
O1 Ru0 1.948353 1_655
O1 Ru1 1.948353 1_656
O1 Sr1 2.583174 1_545
O1 Sr1 2.583174 1_655
O2 Ru1 2.082804 1_555
O2 Ru1 2.082804 1_665
O2 Sr1 2.564003 1_554
O2 Sr0 2.588273 1_455
O2 Sr0 2.588273 1_565
O3 Ru1 2.082804 1_556
O3 Ru1 2.082804 1_666
O3 Sr0 2.564003 1_556
O3 Sr1 2.588273 1_655
O3 Sr1 2.588273 1_545
O4 Ru0 2.082804 1_555
O4 Ru0 2.082804 1_665
O4 Sr1 2.564003 1_555
O4 Sr0 2.588273 1_565
O4 Sr0 2.588273 1_455
O5 Ru0 2.082804 1_555
O5 Ru0 2.082804 1_665
O5 Sr0 2.564003 1_555
O5 Sr1 2.588273 1_545
O5 Sr1 2.588273 1_655
