# generated using pymatgen
data_Mn2Nb4Zn3O16
_symmetry_space_group_name_H-M   'P 1'
_cell_length_a   5.19068332
_cell_length_b   11.88965974
_cell_length_c   10.44235107
_cell_angle_alpha   111.41288427
_cell_angle_beta   90.56279332
_cell_angle_gamma   88.52302166
_symmetry_Int_Tables_number   1
_chemical_formula_structural   Mn2Nb4Zn3O16
_chemical_formula_sum   'Mn4 Nb8 Zn6 O32'
_cell_volume   599.77081020
_cell_formula_units_Z   2
loop_
 _symmetry_equiv_pos_site_id
 _symmetry_equiv_pos_as_xyz
  1  'x, y, z'
loop_
 _atom_site_type_symbol
 _atom_site_label
 _atom_site_symmetry_multiplicity
 _atom_site_fract_x
 _atom_site_fract_y
 _atom_site_fract_z
 _atom_site_occupancy
  Mn  Mn0  1  0.75379200  0.82269700  0.00583300  1
  Mn  Mn1  1  0.24222400  0.17475800  0.00283000  1
  Mn  Mn2  1  0.75376900  0.32259900  0.00599800  1
  Mn  Mn3  1  0.24205700  0.67466500  0.00287100  1
  Nb  Nb0  1  0.74536100  0.13877800  0.22297400  1
  Nb  Nb1  1  0.74516500  0.63885300  0.22292200  1
  Nb  Nb2  1  0.76071300  0.01782600  0.74809000  1
  Nb  Nb3  1  0.76059000  0.51779800  0.74807600  1
  Nb  Nb4  1  0.26823100  0.36374000  0.78081700  1
  Nb  Nb5  1  0.26830600  0.86372400  0.78079300  1
  Nb  Nb6  1  0.24018300  0.47867700  0.25282400  1
  Nb  Nb7  1  0.24025000  0.97863200  0.25276900  1
  Zn  Zn0  1  0.76733800  0.20336300  0.53427200  1
  Zn  Zn1  1  0.76733900  0.70335700  0.53426500  1
  Zn  Zn2  1  0.22339500  0.28762900  0.44452600  1
  Zn  Zn3  1  0.22333800  0.78769700  0.44455000  1
  Zn  Zn4  1  0.27989600  0.05975500  0.56455900  1
  Zn  Zn5  1  0.27982100  0.55972700  0.56459900  1
  O  O0  1  0.06970200  0.08564900  0.13259800  1
  O  O1  1  0.06961200  0.58563800  0.13262800  1
  O  O2  1  0.42210600  0.03288800  0.86775900  1
  O  O3  1  0.42206200  0.53288400  0.86776400  1
  O  O4  1  0.94086600  0.41118600  0.86387900  1
  O  O5  1  0.94087400  0.91118100  0.86386600  1
  O  O6  1  0.58453300  0.46670400  0.13520800  1
  O  O7  1  0.58455300  0.96668700  0.13517200  1
  O  O8  1  0.55335200  0.21341800  0.11425100  1
  O  O9  1  0.55331100  0.71348500  0.11409700  1
  O  O10  1  0.92033400  0.16388100  0.89498500  1
  O  O11  1  0.92038800  0.66384700  0.89494700  1
  O  O12  1  0.44026900  0.28927300  0.88979000  1
  O  O13  1  0.44025300  0.78926100  0.88976000  1
  O  O14  1  0.07737100  0.33349000  0.11102500  1
  O  O15  1  0.07732400  0.83348700  0.11100100  1
  O  O16  1  0.43409300  0.13807800  0.35482900  1
  O  O17  1  0.43396100  0.63814400  0.35478600  1
  O  O18  1  0.08347600  0.46483200  0.65053300  1
  O  O19  1  0.08352600  0.96483600  0.65049600  1
  O  O20  1  0.34973200  0.41679400  0.38886800  1
  O  O21  1  0.34973700  0.91680600  0.38884900  1
  O  O22  1  0.14432800  0.22706100  0.61269100  1
  O  O23  1  0.14433900  0.72705100  0.61268600  1
  O  O24  1  0.63779800  0.09965900  0.63390700  1
  O  O25  1  0.63778900  0.59966400  0.63390100  1
  O  O26  1  0.85948400  0.26965800  0.38142900  1
  O  O27  1  0.85945400  0.76965600  0.38141900  1
  O  O28  1  0.93574800  0.04484500  0.35183600  1
  O  O29  1  0.93570600  0.54487300  0.35186900  1
  O  O30  1  0.58149700  0.36163800  0.65142500  1
  O  O31  1  0.58152600  0.86167900  0.65145800  1
loop_
_geom_bond_atom_site_label_1
_geom_bond_atom_site_label_2
_geom_bond_distance
_geom_bond_site_symmetry_2
Mn0 O7 1.945304 1_555
Mn0 O15 1.978568 1_655
Mn0 O13 1.979553 1_554
Mn0 O11 1.998570 1_554
Mn0 O9 2.282927 1_555
Mn0 O5 2.338216 1_554
Mn1 O8 1.945245 1_555
Mn1 O2 1.978371 1_554
Mn1 O10 1.986065 1_454
Mn1 O14 1.987286 1_555
Mn1 O0 2.209460 1_555
Mn1 O12 2.360809 1_554
Mn2 O6 1.945631 1_555
Mn2 O14 1.977967 1_655
Mn2 O12 1.980138 1_554
Mn2 O10 1.997687 1_554
Mn2 O8 2.282407 1_555
Mn2 O4 2.340371 1_554
Mn3 O9 1.944840 1_555
Mn3 O3 1.978203 1_554
Mn3 O11 1.985631 1_454
Mn3 O15 1.987659 1_555
Mn3 O1 2.208503 1_555
Mn3 O13 2.362438 1_554
Nb0 O26 1.912710 1_555
Nb0 O0 1.914449 1_655
Nb0 O8 1.933312 1_555
Nb0 O7 2.104071 1_545
Nb0 O16 2.135202 1_555
Nb0 O28 2.246983 1_555
Nb1 O27 1.912773 1_555
Nb1 O1 1.914735 1_655
Nb1 O9 1.933648 1_555
Nb1 O6 2.104187 1_555
Nb1 O17 2.135037 1_555
Nb1 O29 2.248402 1_555
Nb2 O24 1.890907 1_555
Nb2 O19 1.937403 1_645
Nb2 O31 2.008165 1_545
Nb2 O10 2.039418 1_555
Nb2 O2 2.132210 1_555
Nb2 O5 2.231563 1_545
Nb3 O25 1.890939 1_555
Nb3 O18 1.937477 1_655
Nb3 O30 2.008078 1_555
Nb3 O11 2.039653 1_555
Nb3 O3 2.131939 1_555
Nb3 O4 2.231715 1_555
Nb4 O12 1.884458 1_555
Nb4 O4 1.892157 1_455
Nb4 O22 2.021191 1_555
Nb4 O3 2.059518 1_555
Nb4 O30 2.118194 1_555
Nb4 O18 2.307421 1_555
Nb5 O13 1.884162 1_555
Nb5 O5 1.892524 1_455
Nb5 O23 2.021152 1_555
Nb5 O2 2.059664 1_565
Nb5 O31 2.117791 1_555
Nb5 O19 2.307751 1_555
Nb6 O29 1.886946 1_455
Nb6 O20 1.899640 1_555
Nb6 O14 2.017632 1_555
Nb6 O17 2.084095 1_555
Nb6 O6 2.150790 1_555
Nb6 O1 2.249924 1_555
Nb7 O28 1.887186 1_465
Nb7 O21 1.899440 1_555
Nb7 O15 2.017454 1_555
Nb7 O16 2.084259 1_565
Nb7 O7 2.150531 1_555
Nb7 O0 2.250186 1_565
O16 Zn2 1.984664 1_555
O16 Zn0 2.459530 1_555
O17 Zn3 1.984579 1_555
O17 Zn1 2.460209 1_555
O18 Zn5 1.983291 1_555
O18 Zn2 2.497302 1_555
O19 Zn4 1.983594 1_565
O19 Zn3 2.496397 1_555
O20 Zn2 1.958935 1_555
O20 Zn5 2.022709 1_555
O21 Zn3 1.958713 1_555
O21 Zn4 2.022613 1_565
O22 Zn4 1.977251 1_555
O22 Zn0 2.099436 1_455
O22 Zn2 2.173351 1_555
O23 Zn5 1.977348 1_555
O23 Zn1 2.099490 1_455
O23 Zn3 2.173582 1_555
O24 Zn4 1.992210 1_555
O24 Zn0 2.011986 1_555
O25 Zn5 1.992452 1_555
O25 Zn1 2.011907 1_555
O26 Zn2 1.985311 1_655
O26 Zn0 2.085769 1_555
O27 Zn3 1.985288 1_655
O27 Zn1 2.085789 1_555
O28 Zn0 2.296017 1_555
O29 Zn1 2.295506 1_555
O30 Zn0 2.053551 1_555
O31 Zn1 2.053980 1_555
