# generated using pymatgen
data_NaTb(SiO3)2
_symmetry_space_group_name_H-M   'P 1'
_cell_length_a   5.47971900
_cell_length_b   9.34676771
_cell_length_c   9.68287427
_cell_angle_alpha   117.30998939
_cell_angle_beta   97.04150297
_cell_angle_gamma   100.09080878
_symmetry_Int_Tables_number   1
_chemical_formula_structural   NaTb(SiO3)2
_chemical_formula_sum   'Na3 Tb3 Si6 O18'
_cell_volume   421.99992222
_cell_formula_units_Z   3
loop_
 _symmetry_equiv_pos_site_id
 _symmetry_equiv_pos_as_xyz
  1  'x, y, z'
loop_
 _atom_site_type_symbol
 _atom_site_label
 _atom_site_symmetry_multiplicity
 _atom_site_fract_x
 _atom_site_fract_y
 _atom_site_fract_z
 _atom_site_occupancy
  Na  Na0  1  -0.00000000  -0.00000000  0.00000000  1
  Na  Na1  1  0.16521646  0.60391735  0.93714969  1
  Na  Na2  1  0.83478354  0.39608265  0.06285031  1
  Tb  Tb0  1  -0.00000000  0.50000000  0.50000000  1
  Tb  Tb1  1  0.32016148  0.77687953  0.36471212  1
  Tb  Tb2  1  0.67983852  0.22312047  0.63528788  1
  Si  Si0  1  0.77201557  0.75949483  0.12405477  1
  Si  Si1  1  0.22798443  0.24050517  0.87594523  1
  Si  Si2  1  0.89397553  0.88241275  0.63403794  1
  Si  Si3  1  0.10602447  0.11758725  0.36596206  1
  Si  Si4  1  0.60432465  0.63883452  0.74910325  1
  Si  Si5  1  0.39567535  0.36116548  0.25089675  1
  O  O0  1  0.50007450  0.71538390  0.15793654  1
  O  O1  1  0.49992550  0.28461610  0.84206346  1
  O  O2  1  0.98057036  0.67610969  0.16535043  1
  O  O3  1  0.01942964  0.32389031  0.83464957  1
  O  O4  1  0.89405469  0.96317033  0.21173709  1
  O  O5  1  0.10594531  0.03682967  0.78826291  1
  O  O6  1  0.03287794  0.75605694  0.51542839  1
  O  O7  1  0.96712206  0.24394306  0.48457161  1
  O  O8  1  0.70143751  0.94979391  0.55288843  1
  O  O9  1  0.29856249  0.05020609  0.44711157  1
  O  O10  1  0.73879491  0.78903826  0.71723131  1
  O  O11  1  0.26120509  0.21096174  0.28276869  1
  O  O12  1  0.30477102  0.61434074  0.72796559  1
  O  O13  1  0.69522898  0.38565926  0.27203441  1
  O  O14  1  0.69416710  0.47377392  0.63885199  1
  O  O15  1  0.30583290  0.52622608  0.36114801  1
  O  O16  1  0.75493405  0.71111014  0.93533058  1
  O  O17  1  0.24506595  0.28888986  0.06466942  1
loop_
_geom_bond_atom_site_label_1
_geom_bond_atom_site_label_2
_geom_bond_distance
_geom_bond_site_symmetry_2
Na0 O5 2.351248 1_554
Na0 O4 2.351248 1_445
Na0 O17 2.541291 1_555
Na0 O16 2.541291 1_444
Na0 O11 2.555308 1_555
Na0 O10 2.555308 1_444
Na1 O3 2.272220 1_555
Na1 O12 2.287288 1_555
Na1 O0 2.312430 1_556
Na1 O2 2.404333 1_456
Na1 O16 2.618106 1_455
Na2 O2 2.272220 1_555
Na2 O13 2.287288 1_555
Na2 O1 2.312430 1_554
Na2 O3 2.404333 1_654
Na2 O17 2.618106 1_655
O0 Si0 1.589618 1_555
O0 Tb1 2.222065 1_555
O1 Si1 1.589618 1_555
O1 Tb2 2.222065 1_555
O2 Si0 1.599815 1_555
O2 Tb1 2.216546 1_655
O3 Si1 1.599815 1_555
O3 Tb2 2.216546 1_455
O4 Si3 1.634581 1_665
O4 Si0 1.650369 1_555
O5 Si2 1.634581 1_445
O5 Si1 1.650369 1_555
O6 Si2 1.605571 1_455
O6 Tb0 2.301502 1_555
O6 Tb1 2.315679 1_555
O7 Si3 1.605571 1_655
O7 Tb0 2.301502 1_655
O7 Tb2 2.315679 1_555
O8 Si2 1.615823 1_555
O8 Tb2 2.331505 1_565
O8 Tb1 2.340593 1_555
O9 Si3 1.615823 1_555
O9 Tb1 2.331505 1_545
O9 Tb2 2.340593 1_555
O10 Si2 1.639115 1_555
O10 Si4 1.643171 1_555
O11 Si3 1.639115 1_555
O11 Si5 1.643171 1_555
O12 Si4 1.591123 1_555
O12 Tb0 2.260479 1_555
O13 Si5 1.591123 1_555
O13 Tb0 2.260479 1_655
O14 Si4 1.626629 1_555
O14 Tb2 2.314466 1_555
O14 Tb0 2.321033 1_655
O15 Si5 1.626629 1_555
O15 Tb1 2.314466 1_555
O15 Tb0 2.321033 1_555
O16 Si4 1.646524 1_555
O16 Si0 1.654553 1_556
O17 Si5 1.646524 1_555
O17 Si1 1.654553 1_554
