# generated using pymatgen
data_BaHfMg6
_symmetry_space_group_name_H-M   'P 1'
_cell_length_a   6.70058500
_cell_length_b   6.70058500
_cell_length_c   4.76652700
_cell_angle_alpha   90.00000000
_cell_angle_beta   90.00000000
_cell_angle_gamma   90.00000000
_symmetry_Int_Tables_number   1
_chemical_formula_structural   BaHfMg6
_chemical_formula_sum   'Ba1 Hf1 Mg6'
_cell_volume   214.00676347
_cell_formula_units_Z   1
loop_
 _symmetry_equiv_pos_site_id
 _symmetry_equiv_pos_as_xyz
  1  'x, y, z'
loop_
 _atom_site_type_symbol
 _atom_site_label
 _atom_site_symmetry_multiplicity
 _atom_site_fract_x
 _atom_site_fract_y
 _atom_site_fract_z
 _atom_site_occupancy
  Ba  Ba0  1  0.50000000  0.50000000  0.50000000  1
  Hf  Hf0  1  0.00000000  0.00000000  0.50000000  1
  Mg  Mg0  1  0.50000000  0.00000000  0.50000000  1
  Mg  Mg1  1  0.00000000  0.50000000  0.50000000  1
  Mg  Mg2  1  0.22085800  0.77914200  0.00000000  1
  Mg  Mg3  1  0.77914200  0.22085800  0.00000000  1
  Mg  Mg4  1  0.22085800  0.22085800  0.00000000  1
  Mg  Mg5  1  0.77914200  0.77914200  0.00000000  1
loop_
_geom_bond_atom_site_label_1
_geom_bond_atom_site_label_2
_geom_bond_distance
_geom_bond_site_symmetry_2
Ba0 Mg1 3.350293 1_655
Ba0 Mg0 3.350293 1_555
Ba0 Mg0 3.350293 1_565
Ba0 Mg1 3.350293 1_555
Ba0 Mg3 3.560456 1_555
Ba0 Mg3 3.560456 1_556
Ba0 Mg4 3.560456 1_555
Ba0 Mg5 3.560456 1_556
Ba0 Mg2 3.560456 1_555
Ba0 Mg5 3.560456 1_555
Ba0 Mg2 3.560456 1_556
Ba0 Mg4 3.560456 1_556
Hf0 Mg4 3.171754 1_555
Hf0 Mg3 3.171754 1_456
Hf0 Mg5 3.171754 1_446
Hf0 Mg4 3.171754 1_556
Hf0 Mg5 3.171754 1_445
Hf0 Mg3 3.171754 1_455
Hf0 Mg2 3.171754 1_545
Hf0 Mg2 3.171754 1_546
Hf0 Mg0 3.350293 1_455
Hf0 Mg0 3.350293 1_555
Hf0 Mg1 3.350293 1_545
Hf0 Mg1 3.350293 1_555
Mg0 Mg2 3.371711 1_545
Mg0 Mg2 3.371711 1_546
Mg0 Mg3 3.371711 1_556
Mg0 Mg3 3.371711 1_555
Mg0 Mg5 3.371711 1_546
Mg0 Mg4 3.371711 1_555
Mg0 Mg5 3.371711 1_545
Mg0 Mg4 3.371711 1_556
Mg1 Mg5 3.371711 1_456
Mg1 Mg4 3.371711 1_555
Mg1 Mg3 3.371711 1_456
Mg1 Mg5 3.371711 1_455
Mg1 Mg2 3.371711 1_555
Mg1 Mg2 3.371711 1_556
Mg1 Mg4 3.371711 1_556
Mg1 Mg3 3.371711 1_455
Mg2 Mg5 2.959756 1_455
Mg2 Mg4 2.959756 1_565
Mg3 Mg4 2.959756 1_655
Mg3 Mg5 2.959756 1_545
