# generated using pymatgen
data_NaBiTe2
_symmetry_space_group_name_H-M   'P 1'
_cell_length_a   8.01413904
_cell_length_b   8.01413904
_cell_length_c   8.01413849
_cell_angle_alpha   32.47339993
_cell_angle_beta   32.47339993
_cell_angle_gamma   32.47340175
_symmetry_Int_Tables_number   1
_chemical_formula_structural   NaBiTe2
_chemical_formula_sum   'Na1 Bi1 Te2'
_cell_volume   131.93214699
_cell_formula_units_Z   1
loop_
 _symmetry_equiv_pos_site_id
 _symmetry_equiv_pos_as_xyz
  1  'x, y, z'
loop_
 _atom_site_type_symbol
 _atom_site_label
 _atom_site_symmetry_multiplicity
 _atom_site_fract_x
 _atom_site_fract_y
 _atom_site_fract_z
 _atom_site_occupancy
  Na  Na0  1  0.50000000  0.50000000  0.50000000  1
  Bi  Bi0  1  0.00000000  0.00000000  -0.00000000  1
  Te  Te0  1  0.25395160  0.25395160  0.25395160  1
  Te  Te1  1  0.74604840  0.74604840  0.74604840  1
loop_
_geom_bond_atom_site_label_1
_geom_bond_atom_site_label_2
_geom_bond_distance
_geom_bond_site_symmetry_2
Na0 Te0 3.261862 1_556
Na0 Te1 3.261862 1_554
Na0 Te0 3.261862 1_565
Na0 Te0 3.261862 1_655
Na0 Te1 3.261862 1_545
Na0 Te1 3.261862 1_455
Bi0 Te1 3.155585 1_445
Bi0 Te0 3.155585 1_554
Bi0 Te1 3.155586 1_544
Bi0 Te1 3.155586 1_454
Bi0 Te0 3.155586 1_455
Bi0 Te0 3.155586 1_545
