# generated using pymatgen
data_BeO
_symmetry_space_group_name_H-M   'P 1'
_cell_length_a   9.45068061
_cell_length_b   9.48171777
_cell_length_c   9.59736709
_cell_angle_alpha   89.28889606
_cell_angle_beta   89.66927079
_cell_angle_gamma   89.17409147
_symmetry_Int_Tables_number   1
_chemical_formula_structural   BeO
_chemical_formula_sum   'Be50 O50'
_cell_volume   859.83842571
_cell_formula_units_Z   50
loop_
 _symmetry_equiv_pos_site_id
 _symmetry_equiv_pos_as_xyz
  1  'x, y, z'
loop_
 _atom_site_type_symbol
 _atom_site_label
 _atom_site_symmetry_multiplicity
 _atom_site_fract_x
 _atom_site_fract_y
 _atom_site_fract_z
 _atom_site_occupancy
  Be  Be0  1  0.38659600  0.96264700  0.01472100  1
  Be  Be1  1  0.02174400  0.20541700  0.40897800  1
  Be  Be2  1  0.32110100  0.63292700  0.17216500  1
  Be  Be3  1  0.73857000  0.72992700  0.11986200  1
  Be  Be4  1  0.25504500  0.52919300  0.68502100  1
  Be  Be5  1  0.47652200  0.47267900  0.72483000  1
  Be  Be6  1  0.74925600  0.54630800  0.64545900  1
  Be  Be7  1  0.34037000  0.56662600  0.43387900  1
  Be  Be8  1  0.30264000  0.11358000  0.81588800  1
  Be  Be9  1  0.61425900  0.99084400  0.20351100  1
  Be  Be10  1  0.61804100  0.59546700  0.30882800  1
  Be  Be11  1  0.86651800  0.10599900  0.24389400  1
  Be  Be12  1  0.11351400  0.68897400  0.34241500  1
  Be  Be13  1  0.12108000  0.72781400  0.56757700  1
  Be  Be14  1  0.53655100  0.76094300  0.03856600  1
  Be  Be15  1  0.08194600  0.88317600  0.81776300  1
  Be  Be16  1  0.51623800  0.00639300  0.51693300  1
  Be  Be17  1  0.03946700  0.65150200  0.07907700  1
  Be  Be18  1  0.75165200  0.31382900  0.60614700  1
  Be  Be19  1  0.98245600  0.48002800  0.73036600  1
  Be  Be20  1  0.64581000  0.11421200  0.76230200  1
  Be  Be21  1  0.55444100  0.20527000  0.39634000  1
  Be  Be22  1  0.90775900  0.55339600  0.25763000  1
  Be  Be23  1  0.78630000  0.08934300  0.52931300  1
  Be  Be24  1  0.64573200  0.37016800  0.85949200  1
  Be  Be25  1  0.47325700  0.95469700  0.73700000  1
  Be  Be26  1  0.77504800  0.68128700  0.84249900  1
  Be  Be27  1  0.23146900  0.97512800  0.58642000  1
  Be  Be28  1  0.58400600  0.47817700  0.06102400  1
  Be  Be29  1  0.31486900  0.12451900  0.34357800  1
  Be  Be30  1  0.02355400  0.46603700  0.50176300  1
  Be  Be31  1  0.02273400  0.18309400  0.87945600  1
  Be  Be32  1  0.22551800  0.17097200  0.07897800  1
  Be  Be33  1  0.02645200  0.32512500  0.14971800  1
  Be  Be34  1  0.90267800  0.84069300  0.25511000  1
  Be  Be35  1  0.24910100  0.66579600  0.91805000  1
  Be  Be36  1  0.38164100  0.34946200  0.25682400  1
  Be  Be37  1  0.12934300  0.24825700  0.64617900  1
  Be  Be38  1  0.20619400  0.82562300  0.07478200  1
  Be  Be39  1  0.23249400  0.36517100  0.83969600  1
  Be  Be40  1  0.87845400  0.47015300  0.98344800  1
  Be  Be41  1  0.65804200  0.82843300  0.40026800  1
  Be  Be42  1  0.65947600  0.23849800  0.06820700  1
  Be  Be43  1  0.79098300  0.34209600  0.33994900  1
  Be  Be44  1  0.69592000  0.85789300  0.66382100  1
  Be  Be45  1  0.39597300  0.25173100  0.58839600  1
  Be  Be46  1  0.45844200  0.30080100  0.96630900  1
  Be  Be47  1  0.04418900  0.02897900  0.05102300  1
  Be  Be48  1  0.41738600  0.74142300  0.52925900  1
  Be  Be49  1  0.04823500  0.96460300  0.39916400  1
  O  O0  1  0.23318200  0.52791800  0.85300400  1
  O  O1  1  0.89885500  0.69804300  0.15919000  1
  O  O2  1  0.12716700  0.85751100  0.66314200  1
  O  O3  1  0.50375000  0.13252600  0.63510800  1
  O  O4  1  0.73810300  0.70295400  0.68375300  1
  O  O5  1  0.59199400  0.62346000  0.14938600  1
  O  O6  1  0.03195600  0.54342000  0.35995900  1
  O  O7  1  0.05525900  0.20518500  0.04168700  1
  O  O8  1  0.75715800  0.49734400  0.31350800  1
  O  O9  1  0.36720900  0.97301800  0.85672500  1
  O  O10  1  0.87174500  0.44565300  0.59457900  1
  O  O11  1  0.41272300  0.28837000  0.42513100  1
  O  O12  1  0.00155400  0.47760200  0.09133300  1
  O  O13  1  0.70458000  0.25155800  0.44558700  1
  O  O14  1  0.40764200  0.89551200  0.59045000  1
  O  O15  1  0.36353900  0.71561000  0.02597400  1
  O  O16  1  0.30436700  0.23614300  0.93425900  1
  O  O17  1  0.68575200  0.94022200  0.51747800  1
  O  O18  1  0.72478000  0.85454600  0.25582200  1
  O  O19  1  0.63121500  0.94717400  0.77630700  1
  O  O20  1  0.19726000  0.03329400  0.42284800  1
  O  O21  1  0.25042100  0.70536700  0.44891600  1
  O  O22  1  0.78393000  0.16642600  0.67782400  1
  O  O23  1  0.16892100  0.70263100  0.18407800  1
  O  O24  1  0.51031100  0.33209900  0.12938200  1
  O  O25  1  0.26300900  0.23413600  0.22149400  1
  O  O26  1  0.50376900  0.46012200  0.90228200  1
  O  O27  1  0.36132900  0.51714200  0.28161200  1
  O  O28  1  0.11236400  0.76395500  0.94391100  1
  O  O29  1  0.02004500  0.01945600  0.88271200  1
  O  O30  1  0.92268100  0.07330700  0.43357900  1
  O  O31  1  0.59841100  0.20988400  0.90267600  1
  O  O32  1  0.71461000  0.12722100  0.17668900  1
  O  O33  1  0.89018500  0.55670200  0.84861800  1
  O  O34  1  0.51595500  0.92027200  0.09573700  1
  O  O35  1  0.09864600  0.56551400  0.62679400  1
  O  O36  1  0.40009600  0.58965700  0.61358700  1
  O  O37  1  0.64067500  0.42303700  0.69233000  1
  O  O38  1  0.33340900  0.36429100  0.69302700  1
  O  O39  1  0.96459700  0.98201000  0.18514700  1
  O  O40  1  0.49505800  0.05491200  0.35308000  1
  O  O41  1  0.93403500  0.27034400  0.27520700  1
  O  O42  1  0.55649300  0.70290300  0.42195900  1
  O  O43  1  0.22980800  0.99043000  0.08304300  1
  O  O44  1  0.22518600  0.11957200  0.67512200  1
  O  O45  1  0.69559600  0.74371000  0.96337600  1
  O  O46  1  0.06470200  0.31782800  0.78584600  1
  O  O47  1  0.08870100  0.30753900  0.50624900  1
  O  O48  1  0.74032900  0.39105400  0.00807300  1
  O  O49  1  0.00469400  0.80887300  0.39478100  1
loop_
_geom_bond_atom_site_label_1
_geom_bond_atom_site_label_2
_geom_bond_distance
_geom_bond_site_symmetry_2
Be0 O34 1.499881 1_555
Be0 O9 1.530206 1_554
Be0 O43 1.636082 1_555
Be1 O47 1.502145 1_555
Be1 O30 1.589099 1_455
Be1 O41 1.640824 1_455
Be2 O27 1.554700 1_555
Be2 O23 1.578254 1_555
Be2 O15 1.649026 1_555
Be3 O45 1.561482 1_554
Be3 O1 1.587152 1_555
Be3 O5 1.745548 1_555
Be3 O18 1.774173 1_555
Be4 O35 1.614213 1_555
Be4 O0 1.624116 1_555
Be4 O36 1.637046 1_555
Be4 O38 1.721446 1_555
Be5 O37 1.643946 1_555
Be5 O36 1.687653 1_555
Be5 O26 1.726292 1_555
Be5 O38 1.741051 1_555
Be6 O4 1.536492 1_555
Be6 O10 1.569247 1_555
Be6 O37 1.624102 1_555
Be7 O27 1.551114 1_555
Be7 O21 1.563671 1_555
Be7 O36 1.834422 1_555
Be8 O9 1.506187 1_545
Be8 O44 1.540295 1_555
Be8 O16 1.635512 1_555
Be9 O34 1.557863 1_555
Be9 O32 1.631579 1_565
Be9 O18 1.721687 1_555
Be9 O40 1.918831 1_565
Be10 O5 1.570036 1_555
Be10 O42 1.599375 1_555
Be10 O8 1.600176 1_555
Be11 O32 1.586407 1_555
Be11 O39 1.593162 1_545
Be11 O41 1.722840 1_555
Be11 O30 1.919466 1_555
Be12 O6 1.597038 1_555
Be12 O49 1.605357 1_555
Be12 O23 1.608752 1_555
Be12 O21 1.663731 1_555
Be13 O2 1.545136 1_555
Be13 O35 1.649974 1_555
Be13 O21 1.678943 1_555
Be13 O49 2.125053 1_555
Be14 O34 1.622364 1_555
Be14 O45 1.670338 1_554
Be14 O15 1.701965 1_555
Be14 O5 1.748539 1_555
Be15 O29 1.547409 1_565
Be15 O2 1.562891 1_555
Be15 O28 1.669412 1_555
Be16 O14 1.631192 1_545
Be16 O40 1.645498 1_555
Be16 O3 1.660914 1_555
Be16 O17 1.712072 1_545
Be17 O1 1.591082 1_455
Be17 O23 1.670564 1_555
Be17 O12 1.694911 1_555
Be17 O28 1.808551 1_554
Be18 O22 1.576681 1_555
Be18 O37 1.684131 1_555
Be18 O10 1.702573 1_555
Be18 O13 1.720210 1_555
Be19 O33 1.602420 1_555
Be19 O35 1.686386 1_655
Be19 O10 1.713302 1_555
Be19 O46 1.789669 1_655
Be20 O19 1.595725 1_545
Be20 O22 1.613312 1_555
Be20 O31 1.688257 1_555
Be20 O3 1.824759 1_555
Be21 O13 1.568496 1_555
Be21 O11 1.568982 1_555
Be21 O40 1.600083 1_555
Be22 O6 1.535880 1_655
Be22 O8 1.612982 1_555
Be22 O1 1.657138 1_555
Be22 O12 1.960421 1_655
Be23 O30 1.585148 1_555
Be23 O22 1.609728 1_555
Be23 O17 1.720179 1_545
Be23 O13 1.884165 1_555
Be24 O26 1.632630 1_555
Be24 O31 1.638074 1_555
Be24 O37 1.675600 1_555
Be24 O48 1.702567 1_556
Be25 O9 1.530221 1_555
Be25 O19 1.542287 1_555
Be25 O14 1.648444 1_555
Be25 O3 1.962694 1_565
Be26 O45 1.501380 1_555
Be26 O4 1.575311 1_555
Be26 O33 1.595256 1_555
Be27 O44 1.621728 1_565
Be27 O2 1.661463 1_555
Be27 O20 1.688899 1_565
Be27 O14 1.818577 1_555
Be28 O5 1.629480 1_555
Be28 O24 1.683413 1_555
Be28 O26 1.717247 1_554
Be28 O48 1.757788 1_555
Be29 O20 1.601244 1_555
Be29 O25 1.629428 1_555
Be29 O40 1.819809 1_555
Be29 O11 1.990336 1_555
Be30 O6 1.540284 1_555
Be30 O47 1.615999 1_555
Be30 O10 1.696522 1_455
Be30 O35 1.700126 1_555
Be31 O29 1.552068 1_555
Be31 O7 1.605632 1_556
Be31 O46 1.605767 1_555
Be32 O25 1.545020 1_555
Be32 O7 1.676642 1_555
Be32 O16 1.687085 1_554
Be32 O43 1.711710 1_545
Be33 O12 1.559209 1_555
Be33 O7 1.568276 1_555
Be33 O41 1.571155 1_455
Be34 O39 1.607617 1_555
Be34 O1 1.646484 1_555
Be34 O49 1.677475 1_655
Be34 O18 1.684473 1_555
Be35 O0 1.465758 1_555
Be35 O15 1.582853 1_556
Be35 O28 1.601600 1_555
Be36 O25 1.617593 1_555
Be36 O27 1.619034 1_555
Be36 O24 1.727384 1_555
Be36 O11 1.734468 1_555
Be37 O47 1.499338 1_555
Be37 O44 1.532648 1_555
Be37 O46 1.614307 1_555
Be38 O43 1.584711 1_555
Be38 O23 1.600489 1_555
Be38 O28 1.658870 1_554
Be38 O15 1.864966 1_555
Be39 O0 1.550087 1_555
Be39 O16 1.654497 1_555
Be39 O38 1.695773 1_555
Be39 O46 1.737511 1_555
Be40 O33 1.528008 1_555
Be40 O48 1.530560 1_556
Be40 O12 1.564803 1_656
Be41 O18 1.538451 1_555
Be41 O42 1.550974 1_555
Be41 O17 1.580662 1_555
Be42 O32 1.559439 1_555
Be42 O31 1.719390 1_554
Be42 O48 1.736474 1_555
Be42 O24 1.756974 1_555
Be43 O8 1.520368 1_555
Be43 O13 1.555847 1_555
Be43 O41 1.628173 1_555
Be44 O19 1.502057 1_555
Be44 O4 1.526683 1_555
Be44 O17 1.601070 1_555
Be45 O3 1.573363 1_555
Be45 O38 1.580692 1_555
Be45 O11 1.608159 1_555
Be46 O16 1.620593 1_555
Be46 O24 1.674033 1_556
Be46 O26 1.683953 1_555
Be46 O31 1.684271 1_555
Be47 O39 1.550924 1_445
Be47 O29 1.636465 1_554
Be47 O7 1.676766 1_555
Be47 O43 1.813917 1_545
Be48 O14 1.582646 1_555
Be48 O36 1.651903 1_555
Be48 O42 1.703545 1_555
Be48 O21 1.799293 1_555
Be49 O49 1.539696 1_555
Be49 O20 1.579000 1_565
Be49 O30 1.596263 1_465
