# generated using pymatgen
data_TePb3(ClO2)2
_symmetry_space_group_name_H-M   'P 1'
_cell_length_a   7.00605436
_cell_length_b   7.00605436
_cell_length_c   5.63700300
_cell_angle_alpha   90.00000000
_cell_angle_beta   90.00000000
_cell_angle_gamma   132.39979053
_symmetry_Int_Tables_number   1
_chemical_formula_structural   TePb3(ClO2)2
_chemical_formula_sum   'Te1 Pb3 Cl2 O4'
_cell_volume   204.32474078
_cell_formula_units_Z   1
loop_
 _symmetry_equiv_pos_site_id
 _symmetry_equiv_pos_as_xyz
  1  'x, y, z'
loop_
 _atom_site_type_symbol
 _atom_site_label
 _atom_site_symmetry_multiplicity
 _atom_site_fract_x
 _atom_site_fract_y
 _atom_site_fract_z
 _atom_site_occupancy
  Te  Te0  1  0.06986200  0.93013800  0.50000000  1
  Pb  Pb0  1  0.61220000  0.38780000  0.00000000  1
  Pb  Pb1  1  0.39188700  0.60811300  0.50000000  1
  Pb  Pb2  1  0.89806700  0.10193300  0.00000000  1
  Cl  Cl0  1  0.25663900  0.74336100  0.00000000  1
  Cl  Cl1  1  0.74782000  0.25218000  0.50000000  1
  O  O0  1  0.77388900  0.76212700  0.26758000  1
  O  O1  1  0.77388900  0.76212700  0.73242000  1
  O  O2  1  0.23787300  0.22611100  0.26758000  1
  O  O3  1  0.23787300  0.22611100  0.73242000  1
loop_
_geom_bond_atom_site_label_1
_geom_bond_atom_site_label_2
_geom_bond_distance
_geom_bond_site_symmetry_2
O0 Te0 2.027358 1_655
O0 Pb2 2.430333 1_565
O0 Pb1 2.479717 1_555
O0 Pb0 2.535683 1_555
O1 Te0 2.027358 1_655
O1 Pb2 2.430333 1_566
O1 Pb1 2.479717 1_555
O1 Pb0 2.535683 1_556
O2 Te0 2.027358 1_545
O2 Pb2 2.430333 1_455
O2 Pb1 2.479717 1_555
O2 Pb0 2.535683 1_555
O3 Te0 2.027358 1_545
O3 Pb2 2.430333 1_456
O3 Pb1 2.479717 1_555
O3 Pb0 2.535683 1_556
