# generated using pymatgen
data_Na7Fe4P9O32
_symmetry_space_group_name_H-M   'P 1'
_cell_length_a   6.46555053
_cell_length_b   14.30755476
_cell_length_c   14.30764290
_cell_angle_alpha   90.00000000
_cell_angle_beta   89.89411953
_cell_angle_gamma   90.00000000
_symmetry_Int_Tables_number   1
_chemical_formula_structural   Na7Fe4P9O32
_chemical_formula_sum   'Na14 Fe8 P18 O64'
_cell_volume   1323.54367674
_cell_formula_units_Z   2
loop_
 _symmetry_equiv_pos_site_id
 _symmetry_equiv_pos_as_xyz
  1  'x, y, z'
loop_
 _atom_site_type_symbol
 _atom_site_label
 _atom_site_symmetry_multiplicity
 _atom_site_fract_x
 _atom_site_fract_y
 _atom_site_fract_z
 _atom_site_occupancy
  Na  Na0  1  0.61087691  0.25749152  0.09285368  1
  Na  Na1  1  0.88912309  0.75749152  0.40714632  1
  Na  Na2  1  0.61141426  0.74228003  0.90734208  1
  Na  Na3  1  0.88858574  0.24228003  0.59265792  1
  Na  Na4  1  0.38857516  0.09273621  0.74233123  1
  Na  Na5  1  0.11087299  0.40722702  0.24245817  1
  Na  Na6  1  0.38912701  0.90722702  0.25754183  1
  Na  Na7  1  0.11142484  0.59273621  0.75766877  1
  Na  Na8  1  0.49999824  0.00004288  0.00002380  1
  Na  Na9  1  0.00000176  0.50004288  0.49997620  1
  Na  Na10  1  0.83167876  0.48394749  0.98499802  1
  Na  Na11  1  0.66832124  0.98394749  0.51500198  1
  Na  Na12  1  0.33166164  0.51500017  0.01606584  1
  Na  Na13  1  0.16833836  0.01500017  0.48393416  1
  Fe  Fe0  1  0.87480287  0.19080696  0.88033417  1
  Fe  Fe1  1  0.62519713  0.69080696  0.61966583  1
  Fe  Fe2  1  0.87465376  0.80876751  0.11978752  1
  Fe  Fe3  1  0.62534624  0.30876751  0.38021248  1
  Fe  Fe4  1  0.12533078  0.88024778  0.80876977  1
  Fe  Fe5  1  0.37478762  0.61969143  0.30918396  1
  Fe  Fe6  1  0.12521238  0.11969143  0.19081604  1
  Fe  Fe7  1  0.37466922  0.38024778  0.69123023  1
  P  P0  1  0.10690673  0.30034465  0.05538484  1
  P  P1  1  0.39309327  0.80034465  0.44461516  1
  P  P2  1  0.10501796  0.69967526  0.94449047  1
  P  P3  1  0.39498204  0.19967526  0.55550953  1
  P  P4  1  0.89512788  0.05551851  0.69965826  1
  P  P5  1  0.60705570  0.44462962  0.19967697  1
  P  P6  1  0.89294430  0.94462962  0.30032303  1
  P  P7  1  0.60487212  0.55551851  0.80034174  1
  P  P8  1  0.35983013  0.24869488  0.88667066  1
  P  P9  1  0.14016987  0.74869488  0.61332934  1
  P  P10  1  0.35971877  0.75156092  0.11322799  1
  P  P11  1  0.14028123  0.25156092  0.38677201  1
  P  P12  1  0.64030520  0.88673538  0.75158103  1
  P  P13  1  0.85985332  0.61329228  0.25128428  1
  P  P14  1  0.64014668  0.11329228  0.24871572  1
  P  P15  1  0.85969480  0.38673538  0.74841897  1
  P  P16  1  0.00000117  0.99993561  0.00000875  1
  P  P17  1  0.49999883  0.49993561  0.49999125  1
  O  O0  1  0.37828647  0.33499398  0.82570006  1
  O  O1  1  0.12171353  0.83499398  0.67429994  1
  O  O2  1  0.37787031  0.66447212  0.17355414  1
  O  O3  1  0.12212969  0.16447212  0.32644586  1
  O  O4  1  0.62218941  0.82643303  0.66447760  1
  O  O5  1  0.87834814  0.67428612  0.16500022  1
  O  O6  1  0.62165186  0.17428612  0.33499978  1
  O  O7  1  0.87781059  0.32643303  0.83552240  1
  O  O8  1  0.56048581  0.19290627  0.90035579  1
  O  O9  1  0.93951419  0.69290627  0.59964421  1
  O  O10  1  0.56033811  0.80717464  0.09964054  1
  O  O11  1  0.93966189  0.30717464  0.40035946  1
  O  O12  1  0.43957913  0.90032957  0.80721265  1
  O  O13  1  0.06040094  0.59961316  0.30705606  1
  O  O14  1  0.43959906  0.09961316  0.19294394  1
  O  O15  1  0.06042087  0.40032957  0.69278735  1
  O  O16  1  0.31350778  0.28661253  0.99141476  1
  O  O17  1  0.18649222  0.78661253  0.50858524  1
  O  O18  1  0.31303266  0.71263849  0.00862339  1
  O  O19  1  0.18696734  0.21263849  0.49137661  1
  O  O20  1  0.68698240  0.99137527  0.71266771  1
  O  O21  1  0.81351963  0.50858310  0.21335931  1
  O  O22  1  0.68648037  0.00858310  0.28664069  1
  O  O23  1  0.81301760  0.49137527  0.78733229  1
  O  O24  1  0.16894987  0.25358166  0.14835003  1
  O  O25  1  0.33105013  0.75358166  0.35164997  1
  O  O26  1  0.16891190  0.74639410  0.85170450  1
  O  O27  1  0.33108810  0.24639410  0.64829550  1
  O  O28  1  0.83121117  0.14833545  0.74641145  1
  O  O29  1  0.66907119  0.35169039  0.24639917  1
  O  O30  1  0.83092881  0.85169039  0.25360083  1
  O  O31  1  0.66878883  0.64833545  0.75358855  1
  O  O32  1  0.18552229  0.18141263  0.85928340  1
  O  O33  1  0.31447771  0.68141263  0.64071660  1
  O  O34  1  0.18561942  0.81869820  0.14080898  1
  O  O35  1  0.31438058  0.31869820  0.35919102  1
  O  O36  1  0.81421656  0.85920866  0.81864848  1
  O  O37  1  0.68535829  0.64073332  0.31863691  1
  O  O38  1  0.81464171  0.14073332  0.18136309  1
  O  O39  1  0.68578344  0.35920866  0.68135152  1
  O  O40  1  0.07999515  0.40483657  0.06854591  1
  O  O41  1  0.42000485  0.90483657  0.43145409  1
  O  O42  1  0.07867278  0.59510250  0.93164271  1
  O  O43  1  0.42132722  0.09510250  0.56835729  1
  O  O44  1  0.92141082  0.06837887  0.59509886  1
  O  O45  1  0.58008084  0.43147515  0.09516707  1
  O  O46  1  0.91991916  0.93147515  0.40483293  1
  O  O47  1  0.57858918  0.56837887  0.90490114  1
  O  O48  1  0.92513458  0.25155265  0.00741328  1
  O  O49  1  0.57486542  0.75155265  0.49258672  1
  O  O50  1  0.92492628  0.74920194  0.99262989  1
  O  O51  1  0.57507372  0.24920194  0.50737011  1
  O  O52  1  0.07493140  0.00741929  0.74916147  1
  O  O53  1  0.42499999  0.49263405  0.24848644  1
  O  O54  1  0.07500001  0.99263405  0.25151356  1
  O  O55  1  0.42506860  0.50741929  0.75083853  1
  O  O56  1  0.85488589  0.06386368  0.94088876  1
  O  O57  1  0.64511411  0.56386368  0.55911124  1
  O  O58  1  0.85478201  0.93614186  0.05921230  1
  O  O59  1  0.64521799  0.43614186  0.44078770  1
  O  O60  1  0.14521156  0.94083492  0.93609340  1
  O  O61  1  0.35487824  0.55915972  0.43618315  1
  O  O62  1  0.14512176  0.05915972  0.06381685  1
  O  O63  1  0.35478844  0.44083492  0.56390660  1
loop_
_geom_bond_atom_site_label_1
_geom_bond_atom_site_label_2
_geom_bond_distance
_geom_bond_site_symmetry_2
Na0 O48 2.370830 1_555
Na0 O16 2.446822 1_554
Na0 O38 2.477129 1_555
Na0 O45 2.497445 1_555
Na0 O29 2.605250 1_555
Na0 O14 2.893732 1_555
Na0 O8 2.923853 1_554
Na0 O24 2.964690 1_555
Na1 O49 2.370830 1_555
Na1 O17 2.446822 1_655
Na1 O37 2.477129 1_555
Na1 O46 2.497445 1_555
Na1 O30 2.605250 1_555
Na1 O13 2.893732 1_655
Na1 O9 2.923853 1_555
Na1 O25 2.964690 1_655
Na2 O50 2.369988 1_555
Na2 O18 2.447698 1_556
Na2 O36 2.474334 1_555
Na2 O47 2.497385 1_555
Na2 O31 2.603956 1_555
Na2 O12 2.899328 1_555
Na2 O10 2.921924 1_556
Na2 O26 2.971701 1_555
Na3 O51 2.369988 1_555
Na3 O19 2.447698 1_655
Na3 O39 2.474334 1_555
Na3 O44 2.497385 1_555
Na3 O28 2.603956 1_555
Na3 O15 2.899328 1_655
Na3 O11 2.921924 1_555
Na3 O27 2.971701 1_655
Na4 O52 2.368790 1_555
Na4 O20 2.450044 1_545
Na4 O32 2.474899 1_555
Na4 O43 2.497988 1_555
Na4 O27 2.604505 1_555
Na4 O8 2.900117 1_555
Na4 O12 2.924022 1_545
Na4 O28 2.971063 1_555
Na5 O53 2.371975 1_555
Na5 O21 2.444476 1_455
Na5 O35 2.476540 1_555
Na5 O40 2.496873 1_555
Na5 O24 2.604722 1_555
Na5 O11 2.892977 1_455
Na5 O13 2.921690 1_555
Na5 O29 2.965385 1_455
Na6 O54 2.371975 1_555
Na6 O22 2.444476 1_565
Na6 O34 2.476540 1_555
Na6 O41 2.496873 1_555
Na6 O25 2.604722 1_555
Na6 O10 2.892977 1_555
Na6 O14 2.921690 1_565
Na6 O30 2.965385 1_555
Na7 O55 2.368790 1_555
Na7 O23 2.450044 1_455
Na7 O33 2.474899 1_555
Na7 O42 2.497988 1_555
Na7 O26 2.604505 1_555
Na7 O9 2.900117 1_455
Na7 O15 2.924022 1_555
Na7 O31 2.971063 1_455
Na8 O62 2.608705 1_555
Na8 O56 2.609100 1_554
Na8 O58 2.611909 1_545
Na8 O60 2.612273 1_544
Na9 O61 2.608705 1_555
Na9 O57 2.609100 1_455
Na9 O59 2.611909 1_455
Na9 O63 2.612273 1_555
Na10 O40 2.301045 1_656
Na10 O47 2.336066 1_555
Na10 O42 2.378602 1_655
Na10 O45 2.384315 1_556
Na10 O23 2.832920 1_555
Na11 O41 2.301045 1_555
Na11 O44 2.336066 1_565
Na11 O43 2.378602 1_565
Na11 O46 2.384315 1_555
Na11 O20 2.832920 1_555
Na12 O45 2.301189 1_555
Na12 O42 2.335667 1_554
Na12 O47 2.377493 1_554
Na12 O40 2.385636 1_555
Na12 O18 2.832296 1_555
Na13 O46 2.301189 1_445
Na13 O43 2.335667 1_555
Na13 O44 2.377493 1_455
Na13 O41 2.385636 1_545
Na13 O19 2.832296 1_555
Fe0 O56 2.016325 1_555
Fe0 O28 2.030319 1_555
Fe0 O32 2.035316 1_655
Fe0 O48 2.041891 1_556
Fe0 O7 2.043737 1_555
Fe0 O8 2.052019 1_555
Fe1 O57 2.016325 1_555
Fe1 O31 2.030319 1_555
Fe1 O33 2.035316 1_555
Fe1 O49 2.041891 1_555
Fe1 O4 2.043737 1_555
Fe1 O9 2.052019 1_555
Fe2 O58 2.022193 1_555
Fe2 O30 2.029921 1_555
Fe2 O5 2.030086 1_555
Fe2 O50 2.034630 1_554
Fe2 O34 2.038444 1_655
Fe2 O10 2.053219 1_555
Fe3 O59 2.022193 1_555
Fe3 O29 2.029921 1_555
Fe3 O6 2.030086 1_555
Fe3 O51 2.034630 1_555
Fe3 O35 2.038444 1_555
Fe3 O11 2.053219 1_555
Fe4 O60 2.021736 1_555
Fe4 O1 2.030148 1_555
Fe4 O26 2.031028 1_555
Fe4 O52 2.035977 1_565
Fe4 O36 2.038571 1_455
Fe4 O12 2.052084 1_555
Fe5 O61 2.016797 1_555
Fe5 O25 2.029330 1_555
Fe5 O37 2.035200 1_555
Fe5 O53 2.040400 1_555
Fe5 O2 2.043639 1_555
Fe5 O13 2.053163 1_555
Fe6 O62 2.016797 1_555
Fe6 O24 2.029330 1_555
Fe6 O38 2.035200 1_455
Fe6 O54 2.040400 1_545
Fe6 O3 2.043639 1_555
Fe6 O14 2.053163 1_555
Fe7 O63 2.021736 1_555
Fe7 O0 2.030148 1_555
Fe7 O27 2.031028 1_555
Fe7 O55 2.035977 1_555
Fe7 O39 2.038571 1_555
Fe7 O15 2.052084 1_555
O0 P8 1.516377 1_555
O1 P9 1.516377 1_555
O2 P10 1.520433 1_555
O3 P11 1.520433 1_555
O4 P12 1.520451 1_555
O5 P13 1.516362 1_555
O6 P14 1.516362 1_555
O7 P15 1.520451 1_555
O8 P8 1.536071 1_555
O9 P9 1.536071 1_655
O10 P10 1.533786 1_555
O11 P11 1.533786 1_655
O12 P12 1.533577 1_555
O13 P13 1.536286 1_455
O14 P14 1.536286 1_555
O15 P15 1.533577 1_455
O16 P8 1.621198 1_555
O16 P0 1.629761 1_556
O17 P9 1.621198 1_555
O17 P1 1.629761 1_555
O18 P10 1.625685 1_555
O18 P2 1.640052 1_554
O19 P11 1.625685 1_555
O19 P3 1.640052 1_555
O20 P12 1.625383 1_555
O20 P4 1.639227 1_565
O21 P13 1.621474 1_555
O21 P5 1.630495 1_555
O22 P14 1.621474 1_555
O22 P6 1.630495 1_545
O23 P15 1.625383 1_555
O23 P7 1.639227 1_555
O24 P0 1.542639 1_555
O25 P1 1.542639 1_555
O26 P2 1.542018 1_555
O27 P3 1.542018 1_555
O28 P4 1.542972 1_555
O29 P5 1.541695 1_555
O30 P6 1.541695 1_555
O31 P7 1.542972 1_555
O32 P8 1.533617 1_555
O33 P9 1.533617 1_555
O34 P10 1.530967 1_555
O35 P11 1.530967 1_555
O36 P12 1.531089 1_555
O37 P13 1.533497 1_555
O38 P14 1.533497 1_555
O39 P15 1.531089 1_555
O40 P0 1.516809 1_555
O41 P1 1.516809 1_555
O42 P2 1.517062 1_555
O43 P3 1.517062 1_555
O44 P4 1.516511 1_555
O45 P5 1.517464 1_555
O46 P6 1.517464 1_555
O47 P7 1.516511 1_555
O48 P0 1.530567 1_655
O49 P1 1.530567 1_555
O50 P2 1.526224 1_655
O51 P3 1.526224 1_555
O52 P4 1.526356 1_455
O53 P5 1.530335 1_555
O54 P6 1.530335 1_455
O55 P7 1.526356 1_555
O56 P16 1.560555 1_646
O57 P17 1.560555 1_555
O58 P16 1.558599 1_655
O59 P17 1.558599 1_555
O60 P16 1.558711 1_556
O61 P17 1.560454 1_555
O62 P16 1.560454 1_545
O63 P17 1.558711 1_555
