# generated using pymatgen
data_Ca(CoO2)2
_symmetry_space_group_name_H-M   'P 1'
_cell_length_a   6.53102658
_cell_length_b   6.53102658
_cell_length_c   6.53102658
_cell_angle_alpha   127.19463611
_cell_angle_beta   127.19463611
_cell_angle_gamma   77.93336791
_symmetry_Int_Tables_number   1
_chemical_formula_structural   Ca(CoO2)2
_chemical_formula_sum   'Ca2 Co4 O8'
_cell_volume   171.31715579
_cell_formula_units_Z   2
loop_
 _symmetry_equiv_pos_site_id
 _symmetry_equiv_pos_as_xyz
  1  'x, y, z'
loop_
 _atom_site_type_symbol
 _atom_site_label
 _atom_site_symmetry_multiplicity
 _atom_site_fract_x
 _atom_site_fract_y
 _atom_site_fract_z
 _atom_site_occupancy
  Ca  Ca0  1  0.50000000  0.50000000  0.00000000  1
  Ca  Ca1  1  0.25000000  0.75000000  0.50000000  1
  Co  Co0  1  0.87500000  0.12500000  0.25000000  1
  Co  Co1  1  0.37500000  0.12500000  0.25000000  1
  Co  Co2  1  0.87500000  0.62500000  0.75000000  1
  Co  Co3  1  0.87500000  0.12500000  0.75000000  1
  O  O0  1  0.67848500  0.89070700  0.78777800  1
  O  O1  1  0.10929300  0.89707100  0.78777800  1
  O  O2  1  0.10929300  0.32151500  0.21222200  1
  O  O3  1  0.07151500  0.35929300  0.71222200  1
  O  O4  1  0.64707100  0.35929300  0.28777800  1
  O  O5  1  0.64070700  0.35292900  0.71222200  1
  O  O6  1  0.10292900  0.89070700  0.21222200  1
  O  O7  1  0.64070700  0.92848500  0.28777800  1
loop_
_geom_bond_atom_site_label_1
_geom_bond_atom_site_label_2
_geom_bond_distance
_geom_bond_site_symmetry_2
Ca0 O5 2.199106 1_554
Ca0 O4 2.199106 1_555
Ca0 O7 2.199106 1_555
Ca0 O3 2.199106 1_554
Ca1 O6 2.199106 1_555
Ca1 O0 2.199106 1_555
Ca1 O2 2.199106 1_555
Ca1 O1 2.199106 1_555
Co0 O6 1.911416 1_645
Co0 O0 1.911416 1_544
Co0 O4 1.911416 1_555
Co0 O3 1.911416 1_655
Co0 O7 2.389553 1_545
Co0 O2 2.389553 1_655
Co1 O7 1.911416 1_545
Co1 O5 1.911416 1_555
Co1 O1 1.911416 1_544
Co1 O2 1.911416 1_555
Co1 O4 2.389553 1_555
Co1 O6 2.389553 1_545
Co2 O0 1.911416 1_555
Co2 O6 1.911416 1_656
Co2 O3 1.911416 1_655
Co2 O4 1.911416 1_555
Co2 O5 2.389553 1_555
Co2 O1 2.389553 1_655
Co3 O2 1.911416 1_656
Co3 O5 1.911416 1_555
Co3 O7 1.911416 1_545
Co3 O1 1.911416 1_645
Co3 O3 2.389553 1_655
Co3 O0 2.389553 1_545
