# generated using pymatgen
data_MgSi
_symmetry_space_group_name_H-M   'P 1'
_cell_length_a   4.30988700
_cell_length_b   5.43870000
_cell_length_c   9.50517173
_cell_angle_alpha   89.25443600
_cell_angle_beta   90.00000000
_cell_angle_gamma   90.00000000
_symmetry_Int_Tables_number   1
_chemical_formula_structural   MgSi
_chemical_formula_sum   'Mg6 Si6'
_cell_volume   222.78409633
_cell_formula_units_Z   6
loop_
 _symmetry_equiv_pos_site_id
 _symmetry_equiv_pos_as_xyz
  1  'x, y, z'
loop_
 _atom_site_type_symbol
 _atom_site_label
 _atom_site_symmetry_multiplicity
 _atom_site_fract_x
 _atom_site_fract_y
 _atom_site_fract_z
 _atom_site_occupancy
  Mg  Mg0  1  0.25000000  0.65759300  0.56826900  1
  Mg  Mg1  1  0.25000000  0.89405800  0.87940600  1
  Mg  Mg2  1  0.75000000  0.10594200  0.12059400  1
  Mg  Mg3  1  0.25000000  0.58951500  0.23683100  1
  Mg  Mg4  1  0.75000000  0.41048500  0.76316900  1
  Mg  Mg5  1  0.75000000  0.34240700  0.43173100  1
  Si  Si0  1  0.75000000  0.83862700  0.40292900  1
  Si  Si1  1  0.25000000  0.38912000  0.95838900  1
  Si  Si2  1  0.25000000  0.16137300  0.59707100  1
  Si  Si3  1  0.75000000  0.92583500  0.66362200  1
  Si  Si4  1  0.25000000  0.07416500  0.33637800  1
  Si  Si5  1  0.75000000  0.61088000  0.04161100  1
loop_
_geom_bond_atom_site_label_1
_geom_bond_atom_site_label_2
_geom_bond_distance
_geom_bond_site_symmetry_2
Mg0 Si2 2.709095 1_555
Mg0 Si2 2.757094 1_565
Mg0 Si3 2.761885 1_555
Mg0 Si3 2.761885 1_455
Mg0 Si0 2.835985 1_555
Mg0 Si0 2.835985 1_455
Mg0 Si4 3.140281 1_565
Mg1 Si1 2.804594 1_565
Mg1 Si1 2.837537 1_555
Mg1 Si3 2.978471 1_555
Mg1 Si3 2.978471 1_455
Mg1 Si2 3.035469 1_565
Mg1 Si5 3.054679 1_556
Mg1 Si5 3.054679 1_456
Mg2 Si5 2.804594 1_545
Mg2 Si5 2.837537 1_555
Mg2 Si4 2.978471 1_655
Mg2 Si4 2.978471 1_555
Mg2 Si0 3.035469 1_545
Mg2 Si1 3.054679 1_654
Mg2 Si1 3.054679 1_554
Mg3 Si4 2.812119 1_565
Mg3 Si5 2.845158 1_555
Mg3 Si5 2.845158 1_455
Mg3 Si1 2.875347 1_554
Mg3 Si4 2.946553 1_555
Mg3 Si0 3.004602 1_455
Mg3 Si0 3.004602 1_555
Mg4 Si3 2.812119 1_545
Mg4 Si1 2.845158 1_555
Mg4 Si1 2.845158 1_655
Mg4 Si5 2.875347 1_556
Mg4 Si3 2.946553 1_555
Mg4 Si2 3.004602 1_555
Mg4 Si2 3.004602 1_655
Mg5 Si0 2.709095 1_555
Mg5 Si0 2.757094 1_545
Mg5 Si4 2.761885 1_655
Mg5 Si4 2.761885 1_555
Mg5 Si2 2.835985 1_555
Mg5 Si2 2.835985 1_655
Mg5 Si3 3.140281 1_545
Si0 Si3 2.528970 1_555
Si0 Si4 2.581446 1_665
Si0 Si4 2.581446 1_565
Si1 Si5 2.597883 1_456
Si1 Si5 2.597883 1_556
Si2 Si4 2.528970 1_555
Si2 Si3 2.581446 1_545
Si2 Si3 2.581446 1_445
