# generated using pymatgen
data_Zr2Sn
_symmetry_space_group_name_H-M   'P 1'
_cell_length_a   5.35543300
_cell_length_b   8.39285500
_cell_length_c   12.69563856
_cell_angle_alpha   79.84388415
_cell_angle_beta   90.00000000
_cell_angle_gamma   90.00000000
_symmetry_Int_Tables_number   1
_chemical_formula_structural   Zr2Sn
_chemical_formula_sum   'Zr16 Sn8'
_cell_volume   561.69428103
_cell_formula_units_Z   8
loop_
 _symmetry_equiv_pos_site_id
 _symmetry_equiv_pos_as_xyz
  1  'x, y, z'
loop_
 _atom_site_type_symbol
 _atom_site_label
 _atom_site_symmetry_multiplicity
 _atom_site_fract_x
 _atom_site_fract_y
 _atom_site_fract_z
 _atom_site_occupancy
  Zr  Zr0  1  0.25000000  0.27244400  0.39737700  1
  Zr  Zr1  1  0.25000000  0.26276200  0.15464700  1
  Zr  Zr2  1  0.75000000  0.04937300  0.43239100  1
  Zr  Zr3  1  0.75000000  0.02864500  0.18526800  1
  Zr  Zr4  1  0.75000000  0.06777200  0.67872300  1
  Zr  Zr5  1  0.75000000  0.06823000  0.93053700  1
  Zr  Zr6  1  0.25000000  0.95062700  0.56760900  1
  Zr  Zr7  1  0.25000000  0.93222800  0.32127700  1
  Zr  Zr8  1  0.25000000  0.97135500  0.81473200  1
  Zr  Zr9  1  0.25000000  0.93177000  0.06946300  1
  Zr  Zr10  1  0.75000000  0.73723800  0.84535300  1
  Zr  Zr11  1  0.75000000  0.72755600  0.60262300  1
  Zr  Zr12  1  0.25000000  0.60659300  0.98236100  1
  Zr  Zr13  1  0.25000000  0.61017600  0.48951200  1
  Zr  Zr14  1  0.75000000  0.39340700  0.01763900  1
  Zr  Zr15  1  0.75000000  0.38982400  0.51048800  1
  Sn  Sn0  1  0.25000000  0.27232700  0.91893100  1
  Sn  Sn1  1  0.25000000  0.27849400  0.63624600  1
  Sn  Sn2  1  0.75000000  0.72767300  0.08106900  1
  Sn  Sn3  1  0.75000000  0.72150600  0.36375400  1
  Sn  Sn4  1  0.25000000  0.63832400  0.73483300  1
  Sn  Sn5  1  0.25000000  0.60241600  0.23539000  1
  Sn  Sn6  1  0.75000000  0.36167600  0.26516700  1
  Sn  Sn7  1  0.75000000  0.39758400  0.76461000  1
loop_
_geom_bond_atom_site_label_1
_geom_bond_atom_site_label_2
_geom_bond_distance
_geom_bond_site_symmetry_2
Zr0 Zr1 3.096974 1_555
Zr0 Zr6 3.147603 1_545
Zr0 Zr7 3.171675 1_545
Zr0 Zr13 3.251477 1_555
Zr0 Zr2 3.252601 1_555
Zr0 Zr2 3.252601 1_455
Zr0 Zr15 3.271352 1_555
Zr0 Zr15 3.271352 1_455
Zr1 Zr9 3.153754 1_545
Zr1 Zr7 3.178265 1_545
Zr1 Zr14 3.274960 1_455
Zr1 Zr14 3.274960 1_555
Zr1 Zr12 3.299339 1_554
Zr1 Zr3 3.303450 1_555
Zr1 Zr3 3.303450 1_455
Zr2 Zr4 3.158231 1_555
Zr2 Zr3 3.172685 1_555
Zr2 Zr6 3.209713 1_645
Zr2 Zr6 3.209713 1_545
Zr2 Zr7 3.258205 1_545
Zr2 Zr7 3.258205 1_645
Zr3 Zr5 3.192185 1_554
Zr3 Zr7 3.211509 1_645
Zr3 Zr7 3.211509 1_545
Zr3 Zr9 3.227125 1_545
Zr3 Zr9 3.227125 1_645
Zr4 Zr5 3.197620 1_555
Zr4 Zr8 3.211509 1_545
Zr4 Zr8 3.211509 1_645
Zr4 Zr6 3.258205 1_645
Zr4 Zr6 3.258205 1_545
Zr5 Zr8 3.227125 1_645
Zr5 Zr8 3.227125 1_545
Zr5 Zr9 3.298530 1_646
Zr5 Zr9 3.298530 1_546
Zr6 Zr7 3.158231 1_555
Zr6 Zr8 3.172685 1_555
Zr7 Zr9 3.197620 1_555
Zr8 Zr9 3.192185 1_556
Zr10 Zr11 3.096974 1_555
Zr10 Zr5 3.153754 1_565
Zr10 Zr4 3.178265 1_565
Zr10 Zr12 3.274960 1_555
Zr10 Zr12 3.274960 1_655
Zr10 Zr14 3.299339 1_556
Zr10 Zr8 3.303450 1_555
Zr10 Zr8 3.303450 1_655
Zr11 Zr2 3.147603 1_565
Zr11 Zr4 3.171675 1_565
Zr11 Zr15 3.251477 1_555
Zr11 Zr6 3.252601 1_655
Zr11 Zr6 3.252601 1_555
Zr11 Zr13 3.271352 1_555
Zr11 Zr13 3.271352 1_655
Zr12 Zr9 3.120173 1_556
Zr12 Zr14 3.207729 1_456
Zr12 Zr14 3.207729 1_556
Zr12 Zr8 3.406399 1_555
Zr13 Zr7 3.135567 1_555
Zr13 Zr6 3.185380 1_555
Zr13 Zr15 3.238459 1_455
Zr13 Zr15 3.238459 1_555
Zr14 Zr5 3.120173 1_554
Zr14 Zr3 3.406399 1_555
Zr15 Zr4 3.135567 1_555
Zr15 Zr2 3.185380 1_555
Sn0 Zr1 2.979458 1_556
Sn0 Zr8 3.051097 1_545
Sn0 Zr12 3.052169 1_555
Sn0 Zr9 3.145710 1_546
Sn0 Zr5 3.168136 1_555
Sn0 Zr5 3.168136 1_455
Sn0 Zr14 3.197242 1_556
Sn0 Zr14 3.197242 1_456
Sn0 Sn7 3.374529 1_455
Sn0 Sn7 3.374529 1_555
Sn0 Sn4 3.516602 1_555
Sn1 Zr6 3.029360 1_545
Sn1 Zr0 3.041959 1_555
Sn1 Zr13 3.064442 1_555
Sn1 Zr8 3.117638 1_545
Sn1 Zr15 3.172725 1_455
Sn1 Zr15 3.172725 1_555
Sn1 Zr4 3.201943 1_455
Sn1 Zr4 3.201943 1_555
Sn1 Sn7 3.376302 1_455
Sn1 Sn7 3.376302 1_555
Sn1 Sn4 3.466987 1_555
Sn2 Zr10 2.979458 1_554
Sn2 Zr3 3.051097 1_565
Sn2 Zr14 3.052169 1_555
Sn2 Zr5 3.145710 1_564
Sn2 Zr9 3.168136 1_555
Sn2 Zr9 3.168136 1_655
Sn2 Zr12 3.197242 1_654
Sn2 Zr12 3.197242 1_554
Sn2 Sn5 3.374529 1_655
Sn2 Sn5 3.374529 1_555
Sn2 Sn6 3.516602 1_555
Sn3 Zr2 3.029360 1_565
Sn3 Zr11 3.041959 1_555
Sn3 Zr15 3.064442 1_555
Sn3 Zr3 3.117638 1_565
Sn3 Zr13 3.172725 1_555
Sn3 Zr13 3.172725 1_655
Sn3 Zr7 3.201943 1_555
Sn3 Zr7 3.201943 1_655
Sn3 Sn5 3.376302 1_555
Sn3 Sn5 3.376302 1_655
Sn3 Sn6 3.466987 1_555
Sn4 Zr6 3.068385 1_555
Sn4 Zr12 3.106646 1_555
Sn4 Zr8 3.137085 1_555
Sn4 Zr13 3.164719 1_555
Sn4 Zr11 3.178845 1_455
Sn4 Zr11 3.178845 1_555
Sn4 Zr10 3.199827 1_555
Sn4 Zr10 3.199827 1_455
Sn4 Sn7 3.335582 1_555
Sn4 Sn7 3.335582 1_455
Sn5 Zr0 3.144899 1_555
Sn5 Zr7 3.148898 1_555
Sn5 Zr9 3.166216 1_555
Sn5 Zr1 3.194939 1_555
Sn5 Zr12 3.206369 1_554
Sn5 Zr13 3.238360 1_555
Sn5 Sn6 3.335582 1_555
Sn5 Sn6 3.335582 1_455
Sn6 Zr2 3.068385 1_555
Sn6 Zr14 3.106646 1_555
Sn6 Zr3 3.137085 1_555
Sn6 Zr15 3.164719 1_555
Sn6 Zr0 3.178845 1_655
Sn6 Zr0 3.178845 1_555
Sn6 Zr1 3.199827 1_655
Sn6 Zr1 3.199827 1_555
Sn7 Zr11 3.144899 1_555
Sn7 Zr4 3.148898 1_555
Sn7 Zr5 3.166216 1_555
Sn7 Zr10 3.194939 1_555
Sn7 Zr14 3.206369 1_556
Sn7 Zr15 3.238360 1_555
