# generated using pymatgen
data_K3CrO4
_symmetry_space_group_name_H-M   'P 1'
_cell_length_a   6.14423983
_cell_length_b   8.50865562
_cell_length_c   6.14424008
_cell_angle_alpha   89.99999225
_cell_angle_beta   89.99999519
_cell_angle_gamma   89.99998945
_symmetry_Int_Tables_number   1
_chemical_formula_structural   K3CrO4
_chemical_formula_sum   'K6 Cr2 O8'
_cell_volume   321.21608365
_cell_formula_units_Z   2
loop_
 _symmetry_equiv_pos_site_id
 _symmetry_equiv_pos_as_xyz
  1  'x, y, z'
loop_
 _atom_site_type_symbol
 _atom_site_label
 _atom_site_symmetry_multiplicity
 _atom_site_fract_x
 _atom_site_fract_y
 _atom_site_fract_z
 _atom_site_occupancy
  K  K0  1  0.00000000  0.25002600  0.50000000  1
  K  K1  1  0.50000000  0.74997400  0.00000000  1
  K  K2  1  0.50000000  0.25002600  0.00000000  1
  K  K3  1  0.00000000  0.74997400  0.50000000  1
  K  K4  1  0.00000000  0.50000000  0.00000000  1
  K  K5  1  0.50000000  0.00000000  0.50000000  1
  Cr  Cr0  1  0.00000000  0.00000000  0.00000000  1
  Cr  Cr1  1  0.50000000  0.50000000  0.50000000  1
  O  O0  1  0.33111400  0.60844600  0.66888600  1
  O  O1  1  0.83112700  0.10845000  0.16887300  1
  O  O2  1  0.83112700  0.89155000  0.83112700  1
  O  O3  1  0.33111400  0.39155400  0.33111400  1
  O  O4  1  0.66888600  0.39155400  0.66888600  1
  O  O5  1  0.16887300  0.89155000  0.16887300  1
  O  O6  1  0.16887300  0.10845000  0.83112700  1
  O  O7  1  0.66888600  0.60844600  0.33111400  1
loop_
_geom_bond_atom_site_label_1
_geom_bond_atom_site_label_2
_geom_bond_distance
_geom_bond_site_symmetry_2
K0 O4 2.581833 1_455
K0 O3 2.581833 1_555
K0 O6 2.582054 1_555
K0 O1 2.582055 1_455
K1 O7 2.581833 1_555
K1 O0 2.581833 1_554
K1 O5 2.582054 1_555
K1 O2 2.582055 1_554
K2 O4 2.581833 1_554
K2 O3 2.581833 1_555
K2 O1 2.582054 1_555
K2 O6 2.582055 1_554
K3 O0 2.581833 1_555
K3 O7 2.581833 1_455
K3 O5 2.582054 1_555
K3 O2 2.582055 1_455
K4 O7 3.021482 1_455
K4 O0 3.021482 1_554
K4 O3 3.021482 1_555
K4 O4 3.021482 1_454
K5 O6 3.021600 1_555
K5 O1 3.021600 1_555
K5 O2 3.021600 1_545
K5 O5 3.021600 1_545
Cr0 O5 1.733408 1_545
Cr0 O1 1.733408 1_455
Cr0 O6 1.733408 1_554
Cr0 O2 1.733409 1_444
Cr1 O4 1.733486 1_555
Cr1 O0 1.733486 1_555
Cr1 O7 1.733486 1_555
Cr1 O3 1.733486 1_555
