# generated using pymatgen
data_Li9Mn2Co5O16
_symmetry_space_group_name_H-M   'P 1'
_cell_length_a   5.07375300
_cell_length_b   5.17642476
_cell_length_c   11.13244155
_cell_angle_alpha   86.35919137
_cell_angle_beta   80.42904364
_cell_angle_gamma   82.65787690
_symmetry_Int_Tables_number   1
_chemical_formula_structural   Li9Mn2Co5O16
_chemical_formula_sum   'Li9 Mn2 Co5 O16'
_cell_volume   285.68058927
_cell_formula_units_Z   1
loop_
 _symmetry_equiv_pos_site_id
 _symmetry_equiv_pos_as_xyz
  1  'x, y, z'
loop_
 _atom_site_type_symbol
 _atom_site_label
 _atom_site_symmetry_multiplicity
 _atom_site_fract_x
 _atom_site_fract_y
 _atom_site_fract_z
 _atom_site_occupancy
  Li  Li0  1  0.43782900  0.25242100  0.06544800  1
  Li  Li1  1  0.56669700  0.73583900  0.93741200  1
  Li  Li2  1  0.31466500  0.75034100  0.18807000  1
  Li  Li3  1  0.18893200  0.24440400  0.31512200  1
  Li  Li4  1  0.06255800  0.76106800  0.43977700  1
  Li  Li5  1  0.94491000  0.24811300  0.56602100  1
  Li  Li6  1  0.79973000  0.73855900  0.68645100  1
  Li  Li7  1  0.67338600  0.27087000  0.80441600  1
  Li  Li8  1  0.37532300  0.50142900  0.62468400  1
  Mn  Mn0  1  0.99703600  0.99886100  0.99953000  1
  Mn  Mn1  1  0.12625700  0.50073400  0.87045000  1
  Co  Co0  1  0.25598200  0.00853500  0.74306000  1
  Co  Co1  1  0.50551600  0.99929500  0.49987000  1
  Co  Co2  1  0.62626800  0.49920400  0.37771900  1
  Co  Co3  1  0.74483200  0.99757400  0.25324700  1
  Co  Co4  1  0.87442400  0.49885300  0.12549500  1
  O  O0  1  0.66965100  0.88445400  0.09150700  1
  O  O1  1  0.79793700  0.39222600  0.97348500  1
  O  O2  1  0.55828000  0.37739800  0.22407500  1
  O  O3  1  0.41834700  0.88854200  0.34834700  1
  O  O4  1  0.32669400  0.34917800  0.46717600  1
  O  O5  1  0.19152800  0.90140200  0.59235100  1
  O  O6  1  0.03044100  0.37606100  0.72891600  1
  O  O7  1  0.94008400  0.85353000  0.84622000  1
  O  O8  1  0.20020600  0.60270200  0.03014200  1
  O  O9  1  0.31238300  0.14525200  0.89845900  1
  O  O10  1  0.07805700  0.10919000  0.15441500  1
  O  O11  1  0.94246100  0.62027000  0.27762800  1
  O  O12  1  0.82400400  0.11372600  0.41071000  1
  O  O13  1  0.69497500  0.65513100  0.51916600  1
  O  O14  1  0.57918900  0.10111200  0.65212800  1
  O  O15  1  0.44141800  0.62372600  0.78849900  1
loop_
_geom_bond_atom_site_label_1
_geom_bond_atom_site_label_2
_geom_bond_distance
_geom_bond_site_symmetry_2
Li0 O8 2.098593 1_555
Li0 O10 2.124655 1_555
Li0 O2 2.124961 1_555
Li0 O1 2.128840 1_554
Li0 O0 2.136910 1_545
Li0 O9 2.187100 1_554
Li1 O15 2.013925 1_555
Li1 O1 2.057695 1_555
Li1 O0 2.091830 1_556
Li1 O7 2.137211 1_555
Li1 O8 2.144100 1_556
Li1 O9 2.390570 1_565
Li2 O0 2.112461 1_555
Li2 O10 2.126802 1_565
Li2 O3 2.131332 1_555
Li2 O11 2.151114 1_455
Li2 O8 2.153120 1_555
Li2 O2 2.207245 1_555
Li3 O4 2.062762 1_555
Li3 O3 2.096093 1_545
Li3 O12 2.142825 1_455
Li3 O10 2.145099 1_555
Li3 O2 2.150015 1_555
Li3 O11 2.229831 1_455
Li4 O13 2.052279 1_455
Li4 O3 2.082848 1_555
Li4 O12 2.095867 1_465
Li4 O5 2.118645 1_555
Li4 O11 2.192554 1_455
Li4 O4 2.399587 1_555
Li5 O5 2.086583 1_645
Li5 O6 2.098371 1_655
Li5 O12 2.112859 1_555
Li5 O14 2.148914 1_555
Li5 O4 2.171150 1_655
Li5 O13 2.390964 1_555
Li6 O13 2.104062 1_555
Li6 O14 2.105843 1_565
Li6 O15 2.110131 1_555
Li6 O6 2.150515 1_655
Li6 O7 2.165350 1_555
Li6 O5 2.320190 1_655
Li7 O6 1.993118 1_655
Li7 O15 2.057092 1_555
Li7 O14 2.107310 1_555
Li7 O9 2.110467 1_555
Li7 O1 2.232400 1_555
Li7 O7 2.459515 1_545
Li8 O4 2.031172 1_555
Li8 O13 2.054461 1_555
Li8 O15 2.059907 1_555
Li8 O6 2.085411 1_555
Li8 O5 2.193024 1_555
Li8 O14 2.221297 1_555
Mn0 O0 1.940911 1_556
Mn0 O10 1.972044 1_666
Mn0 O7 1.986189 1_555
Mn0 O9 2.000789 1_665
Mn0 O1 2.178859 1_565
Mn0 O8 2.207226 1_656
Mn1 O15 1.869739 1_555
Mn1 O6 1.897222 1_555
Mn1 O7 1.970120 1_455
Mn1 O1 1.981927 1_455
Mn1 O9 1.988970 1_555
Mn1 O8 1.992841 1_556
Co0 O14 1.879041 1_555
Co0 O5 1.891120 1_545
Co0 O9 1.986809 1_555
Co0 O7 2.032530 1_445
Co0 O6 2.102175 1_555
Co0 O15 2.158747 1_545
Co1 O5 1.857243 1_555
Co1 O12 1.893119 1_565
Co1 O14 1.914431 1_565
Co1 O13 1.930394 1_555
Co1 O3 1.950733 1_555
Co1 O4 1.960102 1_565
Co2 O4 1.898756 1_555
Co2 O13 1.915307 1_555
Co2 O11 1.944705 1_555
Co2 O2 1.957266 1_555
Co2 O12 2.154259 1_555
Co2 O3 2.183844 1_555
Co3 O3 1.939915 1_555
Co3 O10 1.988260 1_665
Co3 O12 2.006349 1_565
Co3 O0 2.037103 1_555
Co3 O2 2.100599 1_565
Co3 O11 2.101499 1_555
Co4 O1 1.926314 1_554
Co4 O8 1.928509 1_655
Co4 O2 1.938379 1_555
Co4 O11 1.941020 1_555
Co4 O0 2.170608 1_555
Co4 O10 2.176040 1_655
