# generated using pymatgen
data_SrBiS2F
_symmetry_space_group_name_H-M   'P 1'
_cell_length_a   4.06504500
_cell_length_b   4.06504500
_cell_length_c   14.25333300
_cell_angle_alpha   90.00000000
_cell_angle_beta   90.00000000
_cell_angle_gamma   90.00000000
_symmetry_Int_Tables_number   1
_chemical_formula_structural   SrBiS2F
_chemical_formula_sum   'Sr2 Bi2 S4 F2'
_cell_volume   235.53049610
_cell_formula_units_Z   2
loop_
 _symmetry_equiv_pos_site_id
 _symmetry_equiv_pos_as_xyz
  1  'x, y, z'
loop_
 _atom_site_type_symbol
 _atom_site_label
 _atom_site_symmetry_multiplicity
 _atom_site_fract_x
 _atom_site_fract_y
 _atom_site_fract_z
 _atom_site_occupancy
  Sr  Sr0  1  0.00000000  0.50000000  0.89714300  1
  Sr  Sr1  1  0.50000000  0.00000000  0.10285700  1
  Bi  Bi0  1  0.00000000  0.50000000  0.36716300  1
  Bi  Bi1  1  0.50000000  0.00000000  0.63283700  1
  S  S0  1  0.00000000  0.50000000  0.61097100  1
  S  S1  1  0.50000000  0.00000000  0.38902900  1
  S  S2  1  0.00000000  0.50000000  0.19083100  1
  S  S3  1  0.50000000  0.00000000  0.80916900  1
  F  F0  1  0.00000000  0.00000000  0.00000000  1
  F  F1  1  0.50000000  0.50000000  0.00000000  1
loop_
_geom_bond_atom_site_label_1
_geom_bond_atom_site_label_2
_geom_bond_distance
_geom_bond_site_symmetry_2
Bi0 S2 2.513319 1_555
Bi0 S1 2.891268 1_455
Bi0 S1 2.891268 1_465
Bi0 S1 2.891268 1_555
Bi0 S1 2.891268 1_565
Bi1 S3 2.513319 1_555
Bi1 S0 2.891268 1_645
Bi1 S0 2.891268 1_555
Bi1 S0 2.891268 1_655
Bi1 S0 2.891268 1_545
S2 Sr1 3.136019 1_555
S2 Sr1 3.136019 1_455
S2 Sr1 3.136019 1_565
S2 Sr1 3.136019 1_465
S3 Sr0 3.136019 1_645
S3 Sr0 3.136019 1_655
S3 Sr0 3.136019 1_545
S3 Sr0 3.136019 1_555
F0 Sr0 2.506086 1_554
F0 Sr0 2.506086 1_544
F0 Sr1 2.506086 1_455
F0 Sr1 2.506086 1_555
F1 Sr0 2.506086 1_554
F1 Sr0 2.506086 1_654
F1 Sr1 2.506086 1_565
F1 Sr1 2.506086 1_555
