# generated using pymatgen
data_AlSb3F15
_symmetry_space_group_name_H-M   'P 1'
_cell_length_a   10.86756900
_cell_length_b   5.90721200
_cell_length_c   10.50539850
_cell_angle_alpha   75.55086758
_cell_angle_beta   90.00000000
_cell_angle_gamma   90.00000000
_symmetry_Int_Tables_number   1
_chemical_formula_structural   AlSb3F15
_chemical_formula_sum   'Al2 Sb6 F30'
_cell_volume   653.08336024
_cell_formula_units_Z   2
loop_
 _symmetry_equiv_pos_site_id
 _symmetry_equiv_pos_as_xyz
  1  'x, y, z'
loop_
 _atom_site_type_symbol
 _atom_site_label
 _atom_site_symmetry_multiplicity
 _atom_site_fract_x
 _atom_site_fract_y
 _atom_site_fract_z
 _atom_site_occupancy
  Al  Al0  1  0.75000000  0.47654900  0.75995800  1
  Al  Al1  1  0.25000000  0.52345100  0.24004200  1
  Sb  Sb0  1  0.50000000  0.00000000  0.50000000  1
  Sb  Sb1  1  0.55732600  0.94253200  0.16302700  1
  Sb  Sb2  1  0.44267400  0.05746800  0.83697300  1
  Sb  Sb3  1  0.00000000  0.00000000  0.50000000  1
  Sb  Sb4  1  0.94267400  0.94253200  0.16302700  1
  Sb  Sb5  1  0.05732600  0.05746800  0.83697300  1
  F  F0  1  0.75000000  0.58951400  0.59783200  1
  F  F1  1  0.75000000  0.84568800  0.17723700  1
  F  F2  1  0.75000000  0.64578300  0.86460500  1
  F  F3  1  0.25000000  0.41048600  0.40216800  1
  F  F4  1  0.25000000  0.35421700  0.13539500  1
  F  F5  1  0.25000000  0.15431200  0.82276300  1
  F  F6  1  0.38118500  0.13152800  0.60062700  1
  F  F7  1  0.41941100  0.08879100  0.32837800  1
  F  F8  1  0.41562700  0.10979700  0.02542900  1
  F  F9  1  0.61881500  0.86847200  0.39937300  1
  F  F10  1  0.58437300  0.89020300  0.97457100  1
  F  F11  1  0.58058900  0.91120900  0.67162200  1
  F  F12  1  0.08729500  0.71436700  0.54240300  1
  F  F13  1  0.11839100  0.69944900  0.20402000  1
  F  F14  1  0.11359100  0.74132800  0.86975900  1
  F  F15  1  0.91270500  0.28563300  0.45759700  1
  F  F16  1  0.88640900  0.25867200  0.13024100  1
  F  F17  1  0.88160900  0.30055100  0.79598000  1
  F  F18  1  0.58729500  0.28563300  0.45759700  1
  F  F19  1  0.61359100  0.25867200  0.13024100  1
  F  F20  1  0.61839100  0.30055100  0.79598000  1
  F  F21  1  0.41270500  0.71436700  0.54240300  1
  F  F22  1  0.38160900  0.69944900  0.20402000  1
  F  F23  1  0.38640900  0.74132800  0.86975900  1
  F  F24  1  0.11881500  0.13152800  0.60062700  1
  F  F25  1  0.08058900  0.08879100  0.32837800  1
  F  F26  1  0.08437300  0.10979700  0.02542900  1
  F  F27  1  0.88118500  0.86847200  0.39937300  1
  F  F28  1  0.91562700  0.89020300  0.97457100  1
  F  F29  1  0.91941100  0.91120900  0.67162200  1
loop_
_geom_bond_atom_site_label_1
_geom_bond_atom_site_label_2
_geom_bond_distance
_geom_bond_site_symmetry_2
Al0 F2 1.660257 1_555
Al0 F0 1.667032 1_555
Al0 F20 1.753119 1_555
Al0 F17 1.753119 1_555
Al1 F4 1.660257 1_555
Al1 F3 1.667032 1_555
Al1 F22 1.753119 1_555
Al1 F13 1.753119 1_555
F1 Sb4 2.165952 1_555
F1 Sb1 2.165952 1_555
F5 Sb2 2.165952 1_555
F5 Sb5 2.165952 1_555
F6 Sb0 1.948936 1_555
F6 Sb2 2.502138 1_555
F7 Sb0 1.954706 1_555
F7 Sb1 2.599860 1_545
F8 Sb2 2.099284 1_554
F8 Sb1 2.173571 1_545
F9 Sb0 1.948936 1_565
F9 Sb1 2.502138 1_555
F10 Sb1 2.099284 1_556
F10 Sb2 2.173571 1_565
F11 Sb0 1.954706 1_565
F11 Sb2 2.599860 1_565
F12 Sb3 1.889526 1_565
F13 Sb4 2.363350 1_455
F14 Sb5 1.912878 1_565
F15 Sb3 1.889526 1_655
F16 Sb4 1.912878 1_545
F17 Sb5 2.363350 1_655
F18 Sb0 1.889526 1_555
F19 Sb1 1.912878 1_545
F20 Sb2 2.363350 1_555
F21 Sb0 1.889526 1_565
F22 Sb1 2.363350 1_555
F23 Sb2 1.912878 1_565
F24 Sb3 1.948936 1_555
F24 Sb5 2.502138 1_555
F25 Sb3 1.954706 1_555
F25 Sb4 2.599860 1_445
F26 Sb5 2.099284 1_554
F26 Sb4 2.173571 1_445
F27 Sb3 1.948936 1_665
F27 Sb4 2.502138 1_555
F28 Sb4 2.099284 1_556
F28 Sb5 2.173571 1_665
F29 Sb3 1.954706 1_665
F29 Sb5 2.599860 1_665
