# generated using pymatgen
data_Na4CrH6ClO7
_symmetry_space_group_name_H-M   'P 1'
_cell_length_a   5.94360512
_cell_length_b   8.85692358
_cell_length_c   8.85772504
_cell_angle_alpha   98.81490761
_cell_angle_beta   99.39340352
_cell_angle_gamma   100.40910873
_symmetry_Int_Tables_number   1
_chemical_formula_structural   Na4CrH6ClO7
_chemical_formula_sum   'Na8 Cr2 H12 Cl2 O14'
_cell_volume   444.37031737
_cell_formula_units_Z   2
loop_
 _symmetry_equiv_pos_site_id
 _symmetry_equiv_pos_as_xyz
  1  'x, y, z'
loop_
 _atom_site_type_symbol
 _atom_site_label
 _atom_site_symmetry_multiplicity
 _atom_site_fract_x
 _atom_site_fract_y
 _atom_site_fract_z
 _atom_site_occupancy
  Na  Na0  1  0.73356900  0.43555100  0.04208600  1
  Na  Na1  1  0.76423400  0.95442100  0.56730800  1
  Na  Na2  1  0.26643100  0.56444900  0.95791400  1
  Na  Na3  1  0.23576600  0.04557900  0.43269200  1
  Na  Na4  1  0.24651100  0.68384600  0.31414100  1
  Na  Na5  1  0.75348900  0.31615400  0.68585900  1
  Na  Na6  1  0.25031400  0.93862000  0.05758800  1
  Na  Na7  1  0.74968600  0.06138000  0.94241200  1
  Cr  Cr0  1  0.24917600  0.18777600  0.81311700  1
  Cr  Cr1  1  0.75082400  0.81222400  0.18688300  1
  H  H0  1  0.41216200  0.96232000  0.68956600  1
  H  H1  1  0.08185300  0.30720400  0.03861600  1
  H  H2  1  0.58783800  0.03768000  0.31043400  1
  H  H3  1  0.91814700  0.69279600  0.96138400  1
  H  H4  1  0.40259000  0.43966900  0.72121000  1
  H  H5  1  0.08657200  0.27968600  0.55752600  1
  H  H6  1  0.59741000  0.56033100  0.27879000  1
  H  H7  1  0.91342800  0.72031400  0.44247400  1
  H  H8  1  0.41385100  0.23600500  0.10937800  1
  H  H9  1  0.07468500  0.88797600  0.76868900  1
  H  H10  1  0.58614900  0.76399500  0.89062200  1
  H  H11  1  0.92531500  0.11202400  0.23131100  1
  Cl  Cl0  1  0.98937300  0.37186700  0.29978800  1
  Cl  Cl1  1  0.01062700  0.62813300  0.70021200  1
  O  O0  1  0.45634900  0.18851000  0.01402500  1
  O  O1  1  0.03799400  0.98853600  0.81083200  1
  O  O2  1  0.54365100  0.81149000  0.98597500  1
  O  O3  1  0.96200600  0.01146400  0.18916800  1
  O  O4  1  0.46868400  0.07538000  0.70450500  1
  O  O5  1  0.03424300  0.29991000  0.92588000  1
  O  O6  1  0.53131600  0.92462000  0.29549500  1
  O  O7  1  0.96575700  0.70009000  0.07412000  1
  O  O8  1  0.45773800  0.39179700  0.80817200  1
  O  O9  1  0.04704500  0.19126200  0.60891400  1
  O  O10  1  0.54226200  0.60820300  0.19182800  1
  O  O11  1  0.95295500  0.80873800  0.39108600  1
  O  O12  1  0.46800700  0.73267500  0.57580700  1
  O  O13  1  0.53199300  0.26732500  0.42419300  1
loop_
_geom_bond_atom_site_label_1
_geom_bond_atom_site_label_2
_geom_bond_distance
_geom_bond_site_symmetry_2
Na0 O8 2.355080 1_554
Na0 O10 2.426823 1_555
Na0 O0 2.441515 1_555
Na0 O7 2.444316 1_555
Na0 O5 2.587220 1_654
Na1 O9 2.376613 1_665
Na1 O12 2.408711 1_555
Na1 O11 2.415942 1_555
Na1 O1 2.422533 1_655
Na1 O6 2.523510 1_555
Na1 O4 2.586152 1_565
Na2 O10 2.355080 1_556
Na2 O8 2.426823 1_555
Na2 O2 2.441515 1_555
Na2 O5 2.444316 1_555
Na2 O7 2.587220 1_456
Na3 O11 2.376613 1_445
Na3 O13 2.408711 1_555
Na3 O9 2.415942 1_555
Na3 O3 2.422533 1_455
Na3 O4 2.523510 1_555
Na3 O6 2.586152 1_545
Na4 O10 2.353158 1_555
Na4 O11 2.363660 1_455
Na4 O12 2.404836 1_555
Na4 O6 2.516973 1_555
Na4 O7 2.519467 1_455
Na5 O8 2.353158 1_555
Na5 O9 2.363660 1_655
Na5 O13 2.404836 1_555
Na5 O4 2.516973 1_555
Na5 O5 2.519467 1_655
Na6 O3 2.352018 1_465
Na6 O2 2.358263 1_554
Na6 O0 2.446147 1_565
Na6 O1 2.482466 1_554
Na6 O7 2.495936 1_455
Na6 O6 2.500330 1_555
Na7 O1 2.352018 1_645
Na7 O0 2.358263 1_556
Na7 O2 2.446147 1_545
Na7 O3 2.482466 1_556
Na7 O5 2.495936 1_655
Na7 O4 2.500330 1_555
Cr0 O1 1.967302 1_545
Cr0 O0 1.990345 1_556
Cr0 O8 2.009070 1_555
Cr0 O9 2.009262 1_555
Cr0 O5 2.046193 1_555
Cr0 O4 2.050415 1_555
Cr1 O3 1.967302 1_565
Cr1 O2 1.990345 1_554
Cr1 O10 2.009070 1_555
Cr1 O11 2.009262 1_555
Cr1 O7 2.046193 1_555
Cr1 O6 2.050415 1_555
H0 O4 0.977966 1_565
H0 Na1 2.515134 1_555
H0 Na3 2.614381 1_565
H1 O5 0.981225 1_554
H1 Na0 2.537460 1_455
H1 Na2 2.599534 1_554
H2 O6 0.977966 1_545
H2 Na3 2.515134 1_555
H2 Na1 2.614381 1_545
H3 O7 0.981225 1_556
H3 Na2 2.537460 1_655
H3 Na0 2.599534 1_556
H4 O8 0.973886 1_555
H4 Na2 2.537554 1_555
H4 Na5 2.564604 1_555
H5 O9 0.976426 1_555
H5 Na5 2.483725 1_455
H5 Na3 2.567108 1_555
H6 O10 0.973886 1_555
H6 Na0 2.537554 1_555
H6 Na4 2.564604 1_555
H7 O11 0.976426 1_555
H7 Na4 2.483725 1_655
H7 Na1 2.567108 1_555
H8 O0 0.976354 1_555
H8 Na0 2.562990 1_555
H9 O1 0.987434 1_555
H9 Na1 2.563722 1_455
H10 O2 0.976354 1_555
H10 Na2 2.562990 1_555
H11 O3 0.987434 1_555
H11 Na3 2.563722 1_655
Cl0 Na0 2.722477 1_555
Cl0 Na4 2.879234 1_655
Cl1 Na2 2.722477 1_555
Cl1 Na5 2.879234 1_455
