# generated using pymatgen
data_Ce10(NiSn)3
_symmetry_space_group_name_H-M   'P 1'
_cell_length_a   8.70720912
_cell_length_b   8.36320006
_cell_length_c   7.97909428
_cell_angle_alpha   64.33964811
_cell_angle_beta   59.97015221
_cell_angle_gamma   55.69019968
_symmetry_Int_Tables_number   1
_chemical_formula_structural   Ce10(NiSn)3
_chemical_formula_sum   'Ce10 Ni3 Sn3'
_cell_volume   406.15240457
_cell_formula_units_Z   1
loop_
 _symmetry_equiv_pos_site_id
 _symmetry_equiv_pos_as_xyz
  1  'x, y, z'
loop_
 _atom_site_type_symbol
 _atom_site_label
 _atom_site_symmetry_multiplicity
 _atom_site_fract_x
 _atom_site_fract_y
 _atom_site_fract_z
 _atom_site_occupancy
  Ce  Ce0  1  0.52971300  0.17625900  0.45776400  1
  Ce  Ce1  1  0.16373600  0.54223600  0.82374100  1
  Ce  Ce2  1  0.01977500  0.70935700  0.29064300  1
  Ce  Ce3  1  0.70958100  0.00022100  0.99977900  1
  Ce  Ce4  1  0.45776400  0.83626400  0.52971300  1
  Ce  Ce5  1  0.82374100  0.47028700  0.16373600  1
  Ce  Ce6  1  0.99977900  0.29041900  0.70958100  1
  Ce  Ce7  1  0.29064300  0.98022500  0.01977500  1
  Ce  Ce8  1  0.44242700  0.55757300  0.04921900  1
  Ce  Ce9  1  0.04921900  0.95078100  0.44242700  1
  Ni  Ni0  1  0.86478100  0.13521900  0.11561000  1
  Ni  Ni1  1  0.11561000  0.88439000  0.86478100  1
  Ni  Ni2  1  0.40666200  0.59333800  0.40666200  1
  Sn  Sn0  1  0.63891200  0.36108800  0.63891200  1
  Sn  Sn1  1  0.24382700  0.25617300  0.24382700  1
  Sn  Sn2  1  0.74382700  0.75617300  0.74382700  1
loop_
_geom_bond_atom_site_label_1
_geom_bond_atom_site_label_2
_geom_bond_distance
_geom_bond_site_symmetry_2
Ce0 Ni0 2.791673 1_555
Ce0 Ni2 2.910926 1_555
Ce0 Ce4 3.006937 1_545
Ce0 Sn0 3.217150 1_555
Ce0 Sn1 3.308558 1_555
Ce0 Sn2 3.310417 1_545
Ce0 Ce8 3.481081 1_555
Ce0 Ce9 3.749958 1_645
Ce1 Ni1 2.791673 1_555
Ce1 Ni2 2.910926 1_555
Ce1 Ce5 3.006937 1_456
Ce1 Sn0 3.217150 1_555
Ce1 Sn2 3.308558 1_455
Ce1 Sn1 3.310417 1_556
Ce1 Ce9 3.481081 1_555
Ce1 Ce8 3.749958 1_556
Ce2 Ni0 2.935400 1_465
Ce2 Ni1 2.935400 1_554
Ce2 Ce8 2.936204 1_555
Ce2 Ce9 2.936204 1_555
Ce2 Sn2 3.235951 1_455
Ce2 Sn1 3.235951 1_555
Ce3 Ni0 2.798004 1_556
Ce3 Ni1 2.798004 1_645
Ce3 Sn0 3.151435 1_555
Ce3 Sn2 3.277187 1_545
Ce3 Sn1 3.277187 1_556
Ce3 Ce9 3.967927 1_645
Ce3 Ce8 3.967927 1_556
Ce4 Ni1 2.791673 1_555
Ce4 Ni2 2.910926 1_555
Ce4 Sn0 3.217150 1_555
Ce4 Sn1 3.308558 1_565
Ce4 Sn2 3.310417 1_555
Ce4 Ce9 3.481081 1_555
Ce4 Ce8 3.749958 1_556
Ce5 Ni0 2.791673 1_555
Ce5 Ni2 2.910926 1_555
Ce5 Sn0 3.217150 1_555
Ce5 Sn2 3.308558 1_554
Ce5 Sn1 3.310417 1_655
Ce5 Ce8 3.481081 1_555
Ce5 Ce9 3.749958 1_645
Ce6 Ni1 2.798004 1_645
Ce6 Ni0 2.798004 1_556
Ce6 Sn0 3.151435 1_555
Ce6 Sn1 3.277187 1_655
Ce6 Sn2 3.277187 1_555
Ce6 Ce8 3.967927 1_556
Ce6 Ce9 3.967927 1_645
Ce7 Ni1 2.935400 1_554
Ce7 Ni0 2.935400 1_465
Ce7 Ce8 2.936204 1_555
Ce7 Ce9 2.936204 1_555
Ce7 Sn2 3.235951 1_554
Ce7 Sn1 3.235951 1_565
Ce8 Ni2 2.840001 1_555
Ce8 Ni1 3.110275 1_554
Ce8 Sn1 3.254488 1_555
Ce8 Sn2 3.254488 1_554
Ce8 Ni0 3.459316 1_555
Ce8 Sn0 3.497047 1_554
Ce9 Ni2 2.840001 1_555
Ce9 Ni0 3.110275 1_465
Ce9 Sn2 3.254488 1_455
Ce9 Sn1 3.254488 1_565
Ce9 Ni1 3.459316 1_555
Ce9 Sn0 3.497047 1_465
Ni0 Ni1 2.696699 1_644
Ni2 Sn0 2.738942 1_555
