# generated using pymatgen
data_CaSn3S7
_symmetry_space_group_name_H-M   'P 1'
_cell_length_a   6.81769500
_cell_length_b   13.42190300
_cell_length_c   13.44960200
_cell_angle_alpha   90.00000000
_cell_angle_beta   90.00000000
_cell_angle_gamma   90.00000000
_symmetry_Int_Tables_number   1
_chemical_formula_structural   CaSn3S7
_chemical_formula_sum   'Ca4 Sn12 S28'
_cell_volume   1230.72521153
_cell_formula_units_Z   4
loop_
 _symmetry_equiv_pos_site_id
 _symmetry_equiv_pos_as_xyz
  1  'x, y, z'
loop_
 _atom_site_type_symbol
 _atom_site_label
 _atom_site_symmetry_multiplicity
 _atom_site_fract_x
 _atom_site_fract_y
 _atom_site_fract_z
 _atom_site_occupancy
  Ca  Ca0  1  0.18114600  0.55739900  0.25000000  1
  Ca  Ca1  1  0.31885400  0.05739900  0.25000000  1
  Ca  Ca2  1  0.81885400  0.44260100  0.75000000  1
  Ca  Ca3  1  0.68114600  0.94260100  0.75000000  1
  Sn  Sn0  1  0.69936100  0.79346600  0.25000000  1
  Sn  Sn1  1  0.80063900  0.29346600  0.25000000  1
  Sn  Sn2  1  0.30063900  0.20653400  0.75000000  1
  Sn  Sn3  1  0.19936100  0.70653400  0.75000000  1
  Sn  Sn4  1  0.71805200  0.68381800  0.52281700  1
  Sn  Sn5  1  0.78194800  0.18381800  0.97718300  1
  Sn  Sn6  1  0.28194800  0.31618200  0.02281700  1
  Sn  Sn7  1  0.21805200  0.81618200  0.47718300  1
  Sn  Sn8  1  0.28194800  0.31618200  0.47718300  1
  Sn  Sn9  1  0.21805200  0.81618200  0.02281700  1
  Sn  Sn10  1  0.71805200  0.68381800  0.97718300  1
  Sn  Sn11  1  0.78194800  0.18381800  0.52281700  1
  S  S0  1  0.69111800  0.96606900  0.25000000  1
  S  S1  1  0.80888200  0.46606900  0.25000000  1
  S  S2  1  0.30888200  0.03393100  0.75000000  1
  S  S3  1  0.19111800  0.53393100  0.75000000  1
  S  S4  1  0.72584200  0.51615600  0.56562300  1
  S  S5  1  0.77415800  0.01615600  0.93437700  1
  S  S6  1  0.27415800  0.48384400  0.06562300  1
  S  S7  1  0.22584200  0.98384400  0.43437700  1
  S  S8  1  0.27415800  0.48384400  0.43437700  1
  S  S9  1  0.22584200  0.98384400  0.06562300  1
  S  S10  1  0.72584200  0.51615600  0.93437700  1
  S  S11  1  0.77415800  0.01615600  0.56562300  1
  S  S12  1  0.46416900  0.70609400  0.37805700  1
  S  S13  1  0.03583100  0.20609400  0.12194300  1
  S  S14  1  0.53583100  0.29390600  0.87805700  1
  S  S15  1  0.96416900  0.79390600  0.62194300  1
  S  S16  1  0.53583100  0.29390600  0.62194300  1
  S  S17  1  0.96416900  0.79390600  0.87805700  1
  S  S18  1  0.46416900  0.70609400  0.12194300  1
  S  S19  1  0.03583100  0.20609400  0.37805700  1
  S  S20  1  0.95881700  0.71464900  0.37629800  1
  S  S21  1  0.54118300  0.21464900  0.12370200  1
  S  S22  1  0.04118300  0.28535100  0.87629800  1
  S  S23  1  0.45881700  0.78535100  0.62370200  1
  S  S24  1  0.04118300  0.28535100  0.62370200  1
  S  S25  1  0.45881700  0.78535100  0.87629800  1
  S  S26  1  0.95881700  0.71464900  0.12370200  1
  S  S27  1  0.54118300  0.21464900  0.37629800  1
loop_
_geom_bond_atom_site_label_1
_geom_bond_atom_site_label_2
_geom_bond_distance
_geom_bond_site_symmetry_2
Ca0 S8 2.743387 1_555
Ca0 S6 2.743387 1_555
Ca0 S1 2.818509 1_455
Ca0 S20 3.104450 1_455
Ca0 S26 3.104450 1_455
Ca0 S12 3.266908 1_555
Ca0 S18 3.266908 1_555
Ca1 S7 2.743387 1_545
Ca1 S9 2.743387 1_545
Ca1 S0 2.818509 1_545
Ca1 S27 3.104450 1_555
Ca1 S21 3.104450 1_555
Ca1 S19 3.266908 1_555
Ca1 S13 3.266908 1_555
Ca2 S10 2.743387 1_555
Ca2 S4 2.743387 1_555
Ca2 S3 2.818509 1_655
Ca2 S22 3.104450 1_655
Ca2 S24 3.104450 1_655
Ca2 S14 3.266908 1_555
Ca2 S16 3.266908 1_555
Ca3 S5 2.743387 1_565
Ca3 S11 2.743387 1_565
Ca3 S2 2.818509 1_565
Ca3 S25 3.104450 1_555
Ca3 S23 3.104450 1_555
Ca3 S17 3.266908 1_555
Ca3 S15 3.266908 1_555
S0 Sn0 2.317342 1_555
S1 Sn1 2.317342 1_555
S2 Sn2 2.317342 1_555
S3 Sn3 2.317342 1_555
S4 Sn4 2.323429 1_555
S5 Sn5 2.323429 1_555
S6 Sn6 2.323429 1_555
S7 Sn7 2.323429 1_555
S8 Sn8 2.323429 1_555
S9 Sn9 2.323429 1_555
S10 Sn10 2.323429 1_555
S11 Sn11 2.323429 1_555
S12 Sn7 2.603119 1_555
S12 Sn4 2.622226 1_555
S12 Sn0 2.629202 1_555
S13 Sn6 2.603119 1_555
S13 Sn5 2.622226 1_454
S13 Sn1 2.629202 1_455
S14 Sn5 2.603119 1_555
S14 Sn6 2.622226 1_556
S14 Sn2 2.629202 1_555
S15 Sn4 2.603119 1_555
S15 Sn7 2.622226 1_655
S15 Sn3 2.629202 1_655
S16 Sn11 2.603119 1_555
S16 Sn8 2.622226 1_555
S16 Sn2 2.629202 1_555
S17 Sn10 2.603119 1_555
S17 Sn9 2.622226 1_656
S17 Sn3 2.629202 1_655
S18 Sn9 2.603119 1_555
S18 Sn10 2.622226 1_554
S18 Sn0 2.629202 1_555
S19 Sn8 2.603119 1_555
S19 Sn11 2.622226 1_455
S19 Sn1 2.629202 1_455
S20 Sn4 2.597882 1_555
S20 Sn7 2.611869 1_655
S20 Sn0 2.670864 1_555
S21 Sn5 2.597882 1_554
S21 Sn6 2.611869 1_555
S21 Sn1 2.670864 1_555
S22 Sn6 2.597882 1_556
S22 Sn5 2.611869 1_455
S22 Sn2 2.670864 1_555
S23 Sn7 2.597882 1_555
S23 Sn4 2.611869 1_555
S23 Sn3 2.670864 1_555
S24 Sn8 2.597882 1_555
S24 Sn11 2.611869 1_455
S24 Sn2 2.670864 1_555
S25 Sn9 2.597882 1_556
S25 Sn10 2.611869 1_555
S25 Sn3 2.670864 1_555
S26 Sn10 2.597882 1_554
S26 Sn9 2.611869 1_655
S26 Sn0 2.670864 1_555
S27 Sn11 2.597882 1_555
S27 Sn8 2.611869 1_555
S27 Sn1 2.670864 1_555
