# generated using pymatgen
data_Ba2CaAl2(Fe4O7)2
_symmetry_space_group_name_H-M   'P 1'
_cell_length_a   6.47300087
_cell_length_b   6.27143206
_cell_length_c   10.06275724
_cell_angle_alpha   89.61861384
_cell_angle_beta   88.73339095
_cell_angle_gamma   119.70806326
_symmetry_Int_Tables_number   1
_chemical_formula_structural   Ba2CaAl2(Fe4O7)2
_chemical_formula_sum   'Ba2 Ca1 Al2 Fe8 O14'
_cell_volume   354.64564726
_cell_formula_units_Z   1
loop_
 _symmetry_equiv_pos_site_id
 _symmetry_equiv_pos_as_xyz
  1  'x, y, z'
loop_
 _atom_site_type_symbol
 _atom_site_label
 _atom_site_symmetry_multiplicity
 _atom_site_fract_x
 _atom_site_fract_y
 _atom_site_fract_z
 _atom_site_occupancy
  Ba  Ba0  1  0.51983900  0.26087100  0.44216500  1
  Ba  Ba1  1  0.29154200  0.64841100  0.03195800  1
  Ca  Ca0  1  0.93272200  0.48044900  0.62936400  1
  Al  Al0  1  0.65946300  0.32374000  0.89942100  1
  Al  Al1  1  0.29555300  0.65170500  0.37798400  1
  Fe  Fe0  1  0.79526400  0.15487700  0.20290600  1
  Fe  Fe1  1  0.69473300  0.84767600  0.69010000  1
  Fe  Fe2  1  0.28297100  0.37014400  0.69902500  1
  Fe  Fe3  1  0.79438100  0.63578000  0.19769100  1
  Fe  Fe4  1  0.29758600  0.14911300  0.16285500  1
  Fe  Fe5  1  0.29448200  0.93565300  0.72152000  1
  Fe  Fe6  1  0.94473300  0.96530500  0.45481000  1
  Fe  Fe7  1  0.95215000  0.97434900  0.94237700  1
  O  O0  1  0.80907900  0.17943900  0.99744200  1
  O  O1  1  0.59245300  0.80403000  0.48908700  1
  O  O2  1  0.15766000  0.35189100  0.50188100  1
  O  O3  1  0.80469600  0.61766400  0.99449500  1
  O  O4  1  0.35045800  0.15526500  0.96752900  1
  O  O5  1  0.16461300  0.81956400  0.49901800  1
  O  O6  1  0.04050100  0.01726400  0.74035300  1
  O  O7  1  0.98119300  0.98797700  0.25212800  1
  O  O8  1  0.44306200  0.49729900  0.25150900  1
  O  O9  1  0.18368400  0.59179100  0.78581900  1
  O  O10  1  0.64056800  0.12047500  0.74716000  1
  O  O11  1  0.44307800  0.94837800  0.25300400  1
  O  O12  1  0.62360800  0.50988800  0.74451400  1
  O  O13  1  0.99951700  0.50100800  0.27313300  1
loop_
_geom_bond_atom_site_label_1
_geom_bond_atom_site_label_2
_geom_bond_distance
_geom_bond_site_symmetry_2
Ba0 O11 2.614799 1_545
Ba0 O8 2.619333 1_555
Ba0 O5 2.624382 1_545
Ba0 O2 2.729792 1_555
Ba1 O9 2.567232 1_554
Ba1 O8 2.780325 1_555
Ba1 O11 2.787830 1_555
Ba1 O13 2.890127 1_455
Ba1 O4 3.070833 1_564
Ba1 O0 3.079209 1_454
Ba1 O3 3.092171 1_454
Ba1 O0 3.362941 1_564
Ba1 O4 3.363860 1_554
Ba1 O3 3.434106 1_554
Ca0 O9 2.146753 1_655
Ca0 O5 2.282157 1_655
Ca0 O2 2.347427 1_655
Ca0 O12 2.376303 1_555
Ca0 O10 2.389902 1_555
Al0 O4 1.849839 1_555
Al0 O3 1.882170 1_555
Al0 O0 1.904953 1_555
Al0 O10 1.966535 1_555
Al0 O12 2.026542 1_555
Al1 O13 1.996506 1_455
Al1 O11 2.027315 1_555
Al1 O2 2.035339 1_555
Al1 O1 2.036045 1_555
Al1 O5 2.041020 1_555
Al1 O8 2.085242 1_555
Fe0 O7 2.014303 1_545
Fe0 O11 2.035337 1_545
Fe0 O13 2.043677 1_555
Fe0 O0 2.068902 1_554
Fe1 O10 1.994568 1_565
Fe1 O12 2.001547 1_555
Fe1 O6 2.023374 1_665
Fe1 O1 2.119363 1_555
Fe2 O12 1.993493 1_555
Fe2 O9 1.996217 1_555
Fe2 O6 2.012492 1_555
Fe2 O2 2.142123 1_555
Fe3 O7 2.009749 1_555
Fe3 O8 2.049578 1_555
Fe3 O13 2.049949 1_555
Fe3 O3 2.050071 1_554
Fe4 O7 1.969218 1_445
Fe4 O4 1.984450 1_554
Fe4 O8 2.115609 1_555
Fe4 O11 2.119515 1_545
Fe5 O6 1.955042 1_565
Fe5 O10 1.970912 1_565
Fe5 O9 2.002867 1_555
Fe5 O5 2.397513 1_555
Fe6 O1 2.004087 1_555
Fe6 O7 2.043829 1_555
Fe6 O5 2.090695 1_655
Fe6 O2 2.175793 1_665
Fe7 O0 1.996610 1_565
Fe7 O3 2.008965 1_555
Fe7 O6 2.078706 1_665
Fe7 O4 2.265388 1_665
