# generated using pymatgen
data_ZnAu3
_symmetry_space_group_name_H-M   'P 1'
_cell_length_a   5.65198212
_cell_length_b   5.63266373
_cell_length_c   8.83833433
_cell_angle_alpha   90.00000000
_cell_angle_beta   108.64734051
_cell_angle_gamma   90.00000000
_symmetry_Int_Tables_number   1
_chemical_formula_structural   ZnAu3
_chemical_formula_sum   'Zn4 Au12'
_cell_volume   266.60379809
_cell_formula_units_Z   4
loop_
 _symmetry_equiv_pos_site_id
 _symmetry_equiv_pos_as_xyz
  1  'x, y, z'
loop_
 _atom_site_type_symbol
 _atom_site_label
 _atom_site_symmetry_multiplicity
 _atom_site_fract_x
 _atom_site_fract_y
 _atom_site_fract_z
 _atom_site_occupancy
  Zn  Zn0  1  0.63646812  0.00000000  0.27293725  1
  Zn  Zn1  1  0.36353188  0.00000000  0.72706275  1
  Zn  Zn2  1  0.13646812  0.50000000  0.27293725  1
  Zn  Zn3  1  0.86353188  0.50000000  0.72706275  1
  Au  Au0  1  0.31999645  0.18092051  0.00000000  1
  Au  Au1  1  0.81999645  0.31907949  0.00000000  1
  Au  Au2  1  0.18000355  0.68092051  1.00000000  1
  Au  Au3  1  0.38106587  0.50000000  0.76213074  1
  Au  Au4  1  0.50308052  0.75000000  0.50000000  1
  Au  Au5  1  0.88106587  0.00000000  0.76213074  1
  Au  Au6  1  0.49691948  0.25000000  0.50000000  1
  Au  Au7  1  0.68000355  0.81907949  1.00000000  1
  Au  Au8  1  0.61893413  0.50000000  0.23786926  1
  Au  Au9  1  0.11893413  0.00000000  0.23786926  1
  Au  Au10  1  0.99691948  0.25000000  0.50000000  1
  Au  Au11  1  0.00308052  0.75000000  0.50000000  1
loop_
_geom_bond_atom_site_label_1
_geom_bond_atom_site_label_2
_geom_bond_distance
_geom_bond_site_symmetry_2
Au0 Zn0 2.701454 1_555
Au0 Zn1 2.701456 1_554
Au0 Au8 2.869372 1_555
Au0 Au3 2.869374 1_554
Au0 Au5 2.877090 1_454
Au0 Au9 2.877093 1_555
Au0 Au7 2.879964 1_544
Au0 Au2 2.925369 1_544
Au0 Au2 2.925369 1_554
Au0 Au1 2.931182 1_555
Au0 Au1 2.931182 1_455
Au1 Zn2 2.701454 1_655
Au1 Zn3 2.701456 1_554
Au1 Au9 2.869372 1_655
Au1 Au5 2.869374 1_554
Au1 Au3 2.877090 1_554
Au1 Au8 2.877093 1_555
Au1 Au2 2.879964 1_654
Au1 Au7 2.925369 1_544
Au1 Au7 2.925369 1_554
Au2 Zn3 2.701454 1_455
Au2 Zn2 2.701456 1_556
Au2 Au5 2.869372 1_465
Au2 Au9 2.869374 1_566
Au2 Au8 2.877090 1_556
Au2 Au3 2.877093 1_555
Au2 Au7 2.931182 1_455
Au2 Au7 2.931182 1_555
Au3 Zn1 2.831602 1_565
Au3 Zn1 2.831602 1_555
Au3 Zn3 2.841209 1_555
Au3 Zn3 2.841209 1_455
Au3 Au7 2.869372 1_555
Au3 Au6 2.957936 1_555
Au3 Au4 2.974523 1_555
Au4 Zn0 2.747053 1_565
Au4 Zn3 2.747057 1_555
Au4 Zn1 2.764907 1_565
Au4 Zn2 2.764910 1_555
Au4 Au6 2.816547 1_555
Au4 Au6 2.816547 1_565
Au4 Au8 2.957936 1_555
Au4 Au5 2.957939 1_565
Au4 Au9 2.974527 1_565
Au5 Zn3 2.831602 1_545
Au5 Zn3 2.831602 1_555
Au5 Zn1 2.841209 1_655
Au5 Zn1 2.841209 1_555
Au5 Au7 2.877093 1_545
Au5 Au6 2.974527 1_555
Au6 Zn1 2.747053 1_555
Au6 Zn2 2.747057 1_555
Au6 Zn0 2.764907 1_555
Au6 Zn3 2.764910 1_555
Au6 Au9 2.957939 1_555
Au6 Au8 2.974523 1_555
Au7 Zn1 2.701454 1_565
Au7 Zn0 2.701456 1_566
Au7 Au8 2.869374 1_556
Au7 Au9 2.877090 1_666
Au8 Zn0 2.831602 1_555
Au8 Zn0 2.831602 1_565
Au8 Zn2 2.841209 1_555
Au8 Zn2 2.841209 1_655
Au9 Zn2 2.831602 1_545
Au9 Zn2 2.831602 1_555
Au9 Zn0 2.841209 1_455
Au9 Zn0 2.841209 1_555
Au10 Zn3 2.747053 1_555
Au10 Zn0 2.747057 1_555
Au10 Zn2 2.764907 1_655
Au10 Zn1 2.764910 1_655
Au10 Au11 2.816547 1_655
Au10 Au11 2.816547 1_645
Au10 Au6 2.825991 1_555
Au10 Au6 2.825991 1_655
Au10 Au5 2.957936 1_555
Au10 Au8 2.957939 1_555
Au10 Au9 2.974523 1_655
Au10 Au3 2.974527 1_655
Au11 Zn2 2.747053 1_555
Au11 Zn1 2.747057 1_565
Au11 Zn3 2.764907 1_455
Au11 Zn0 2.764910 1_465
Au11 Au4 2.825991 1_455
Au11 Au4 2.825991 1_555
Au11 Au9 2.957936 1_565
Au11 Au3 2.957939 1_555
Au11 Au5 2.974523 1_465
Au11 Au8 2.974527 1_455
