# generated using pymatgen
data_Ti2Si(H2O3)3
_symmetry_space_group_name_H-M   'P 1'
_cell_length_a   11.14219600
_cell_length_b   11.14219600
_cell_length_c   12.10426000
_cell_angle_alpha   90.00000000
_cell_angle_beta   90.00000000
_cell_angle_gamma   90.00000000
_symmetry_Int_Tables_number   1
_chemical_formula_structural   Ti2Si(H2O3)3
_chemical_formula_sum   'Ti16 Si8 H48 O72'
_cell_volume   1502.72610634
_cell_formula_units_Z   8
loop_
 _symmetry_equiv_pos_site_id
 _symmetry_equiv_pos_as_xyz
  1  'x, y, z'
loop_
 _atom_site_type_symbol
 _atom_site_label
 _atom_site_symmetry_multiplicity
 _atom_site_fract_x
 _atom_site_fract_y
 _atom_site_fract_z
 _atom_site_occupancy
  Ti  Ti0  1  0.84856000  0.01816200  0.85041400  1
  Ti  Ti1  1  0.34856000  0.48183800  0.85041400  1
  Ti  Ti2  1  0.65144000  0.51816200  0.85041400  1
  Ti  Ti3  1  0.15144000  0.98183800  0.85041400  1
  Ti  Ti4  1  0.51816200  0.34856000  0.64958600  1
  Ti  Ti5  1  0.01816200  0.15144000  0.64958600  1
  Ti  Ti6  1  0.98183800  0.84856000  0.64958600  1
  Ti  Ti7  1  0.48183800  0.65144000  0.64958600  1
  Ti  Ti8  1  0.51816200  0.34856000  0.35041400  1
  Ti  Ti9  1  0.01816200  0.15144000  0.35041400  1
  Ti  Ti10  1  0.98183800  0.84856000  0.35041400  1
  Ti  Ti11  1  0.48183800  0.65144000  0.35041400  1
  Ti  Ti12  1  0.84856000  0.01816200  0.14958600  1
  Ti  Ti13  1  0.34856000  0.48183800  0.14958600  1
  Ti  Ti14  1  0.65144000  0.51816200  0.14958600  1
  Ti  Ti15  1  0.15144000  0.98183800  0.14958600  1
  Si  Si0  1  0.77797000  0.27797000  0.75000000  1
  Si  Si1  1  0.72203000  0.77797000  0.75000000  1
  Si  Si2  1  0.27797000  0.22203000  0.75000000  1
  Si  Si3  1  0.22203000  0.72203000  0.75000000  1
  Si  Si4  1  0.77797000  0.27797000  0.25000000  1
  Si  Si5  1  0.72203000  0.77797000  0.25000000  1
  Si  Si6  1  0.27797000  0.22203000  0.25000000  1
  Si  Si7  1  0.22203000  0.72203000  0.25000000  1
  H  H0  1  0.52434300  0.32081800  0.88413300  1
  H  H1  1  0.02434300  0.17918200  0.88413300  1
  H  H2  1  0.97565700  0.82081800  0.88413300  1
  H  H3  1  0.93117500  0.47961300  0.84211100  1
  H  H4  1  0.56882500  0.97961300  0.84211100  1
  H  H5  1  0.47565700  0.67918200  0.88413300  1
  H  H6  1  0.43117500  0.02038700  0.84211100  1
  H  H7  1  0.06882500  0.52038700  0.84211100  1
  H  H8  1  0.52038700  0.93117500  0.65788900  1
  H  H9  1  0.97961300  0.43117500  0.65788900  1
  H  H10  1  0.02038700  0.56882500  0.65788900  1
  H  H11  1  0.47961300  0.06882500  0.65788900  1
  H  H12  1  0.82081800  0.02434300  0.61586700  1
  H  H13  1  0.32081800  0.47565700  0.61586700  1
  H  H14  1  0.67918200  0.52434300  0.61586700  1
  H  H15  1  0.17918200  0.97565700  0.61586700  1
  H  H16  1  0.71795600  0.14312500  0.50000000  1
  H  H17  1  0.64409300  0.02610900  0.50000000  1
  H  H18  1  0.14409300  0.47389100  0.50000000  1
  H  H19  1  0.21795600  0.35687500  0.50000000  1
  H  H20  1  0.78204400  0.64312500  0.50000000  1
  H  H21  1  0.85590700  0.52610900  0.50000000  1
  H  H22  1  0.35590700  0.97389100  0.50000000  1
  H  H23  1  0.28204400  0.85687500  0.50000000  1
  H  H24  1  0.82081800  0.02434300  0.38413300  1
  H  H25  1  0.32081800  0.47565700  0.38413300  1
  H  H26  1  0.67918200  0.52434300  0.38413300  1
  H  H27  1  0.17918200  0.97565700  0.38413300  1
  H  H28  1  0.52038700  0.93117500  0.34211100  1
  H  H29  1  0.97961300  0.43117500  0.34211100  1
  H  H30  1  0.02038700  0.56882500  0.34211100  1
  H  H31  1  0.47961300  0.06882500  0.34211100  1
  H  H32  1  0.93117500  0.47961300  0.15788900  1
  H  H33  1  0.56882500  0.97961300  0.15788900  1
  H  H34  1  0.52434300  0.32081800  0.11586700  1
  H  H35  1  0.43117500  0.02038700  0.15788900  1
  H  H36  1  0.06882500  0.52038700  0.15788900  1
  H  H37  1  0.02434300  0.17918200  0.11586700  1
  H  H38  1  0.97565700  0.82081800  0.11586700  1
  H  H39  1  0.47565700  0.67918200  0.11586700  1
  H  H40  1  0.52610900  0.14409300  0.00000000  1
  H  H41  1  0.64312500  0.21795600  0.00000000  1
  H  H42  1  0.02610900  0.35590700  0.00000000  1
  H  H43  1  0.14312500  0.28204400  0.00000000  1
  H  H44  1  0.85687500  0.71795600  0.00000000  1
  H  H45  1  0.97389100  0.64409300  0.00000000  1
  H  H46  1  0.35687500  0.78204400  0.00000000  1
  H  H47  1  0.47389100  0.85590700  0.00000000  1
  O  O0  1  0.50000000  0.00000000  0.88864000  1
  O  O1  1  0.00000000  0.50000000  0.88864000  1
  O  O2  1  0.51526500  0.38819600  0.82969900  1
  O  O3  1  0.77073300  0.16347100  0.83510800  1
  O  O4  1  0.77102600  0.40531600  0.81816900  1
  O  O5  1  0.27073300  0.33652900  0.83510800  1
  O  O6  1  0.72926700  0.66347100  0.83510800  1
  O  O7  1  0.01526500  0.11180400  0.82969900  1
  O  O8  1  0.72897400  0.90531600  0.81816900  1
  O  O9  1  0.98473500  0.88819600  0.82969900  1
  O  O10  1  0.22926700  0.83652900  0.83510800  1
  O  O11  1  0.27102600  0.09468400  0.81816900  1
  O  O12  1  0.48473500  0.61180400  0.82969900  1
  O  O13  1  0.22897400  0.59468400  0.81816900  1
  O  O14  1  0.90531600  0.27102600  0.68183100  1
  O  O15  1  0.59468400  0.77102600  0.68183100  1
  O  O16  1  0.66347100  0.27073300  0.66489200  1
  O  O17  1  0.88819600  0.01526500  0.67030100  1
  O  O18  1  0.40531600  0.22897400  0.68183100  1
  O  O19  1  0.38819600  0.48473500  0.67030100  1
  O  O20  1  0.61180400  0.51526500  0.67030100  1
  O  O21  1  0.09468400  0.72897400  0.68183100  1
  O  O22  1  0.11180400  0.98473500  0.67030100  1
  O  O23  1  0.16347100  0.22926700  0.66489200  1
  O  O24  1  0.83652900  0.77073300  0.66489200  1
  O  O25  1  0.33652900  0.72926700  0.66489200  1
  O  O26  1  0.50000000  0.00000000  0.61136000  1
  O  O27  1  0.00000000  0.50000000  0.61136000  1
  O  O28  1  0.50766500  0.35603500  0.50000000  1
  O  O29  1  0.72834600  0.05602700  0.50000000  1
  O  O30  1  0.00766500  0.14396500  0.50000000  1
  O  O31  1  0.99233500  0.85603500  0.50000000  1
  O  O32  1  0.77165400  0.55602700  0.50000000  1
  O  O33  1  0.27165400  0.94397300  0.50000000  1
  O  O34  1  0.22834600  0.44397300  0.50000000  1
  O  O35  1  0.49233500  0.64396500  0.50000000  1
  O  O36  1  0.50000000  0.00000000  0.38864000  1
  O  O37  1  0.00000000  0.50000000  0.38864000  1
  O  O38  1  0.66347100  0.27073300  0.33510800  1
  O  O39  1  0.16347100  0.22926700  0.33510800  1
  O  O40  1  0.83652900  0.77073300  0.33510800  1
  O  O41  1  0.88819600  0.01526500  0.32969900  1
  O  O42  1  0.90531600  0.27102600  0.31816900  1
  O  O43  1  0.38819600  0.48473500  0.32969900  1
  O  O44  1  0.61180400  0.51526500  0.32969900  1
  O  O45  1  0.59468400  0.77102600  0.31816900  1
  O  O46  1  0.11180400  0.98473500  0.32969900  1
  O  O47  1  0.33652900  0.72926700  0.33510800  1
  O  O48  1  0.40531600  0.22897400  0.31816900  1
  O  O49  1  0.09468400  0.72897400  0.31816900  1
  O  O50  1  0.77102600  0.40531600  0.18183100  1
  O  O51  1  0.51526500  0.38819600  0.17030100  1
  O  O52  1  0.72897400  0.90531600  0.18183100  1
  O  O53  1  0.77073300  0.16347100  0.16489200  1
  O  O54  1  0.01526500  0.11180400  0.17030100  1
  O  O55  1  0.27102600  0.09468400  0.18183100  1
  O  O56  1  0.98473500  0.88819600  0.17030100  1
  O  O57  1  0.27073300  0.33652900  0.16489200  1
  O  O58  1  0.72926700  0.66347100  0.16489200  1
  O  O59  1  0.22897400  0.59468400  0.18183100  1
  O  O60  1  0.22926700  0.83652900  0.16489200  1
  O  O61  1  0.48473500  0.61180400  0.17030100  1
  O  O62  1  0.50000000  0.00000000  0.11136000  1
  O  O63  1  0.00000000  0.50000000  0.11136000  1
  O  O64  1  0.55602700  0.22834600  0.00000000  1
  O  O65  1  0.44397300  0.77165400  0.00000000  1
  O  O66  1  0.05602700  0.27165400  0.00000000  1
  O  O67  1  0.85603500  0.00766500  0.00000000  1
  O  O68  1  0.35603500  0.49233500  0.00000000  1
  O  O69  1  0.64396500  0.50766500  0.00000000  1
  O  O70  1  0.14396500  0.99233500  0.00000000  1
  O  O71  1  0.94397300  0.72834600  0.00000000  1
loop_
_geom_bond_atom_site_label_1
_geom_bond_atom_site_label_2
_geom_bond_distance
_geom_bond_site_symmetry_2
H0 O2 1.003976 1_555
H1 O7 1.003976 1_555
H2 O9 1.003976 1_555
H3 O1 0.978197 1_655
H4 O0 0.978197 1_565
H5 O12 1.003976 1_555
H6 O0 0.978197 1_555
H7 O1 0.978197 1_555
H8 O26 0.978197 1_565
H9 O27 0.978197 1_655
H10 O27 0.978197 1_555
H11 O26 0.978197 1_555
H12 O17 1.003976 1_555
H13 O19 1.003976 1_555
H14 O20 1.003976 1_555
H15 O22 1.003976 1_555
H16 O29 0.977344 1_555
H17 O29 0.996193 1_555
H18 O34 0.996193 1_555
H19 O34 0.977344 1_555
H20 O32 0.977344 1_555
H21 O32 0.996193 1_555
H22 O33 0.996193 1_555
H23 O33 0.977344 1_555
H24 O41 1.003976 1_555
H25 O43 1.003976 1_555
H26 O44 1.003976 1_555
H27 O46 1.003976 1_555
H28 O36 0.978197 1_565
H29 O37 0.978197 1_655
H30 O37 0.978197 1_555
H31 O36 0.978197 1_555
H32 O63 0.978197 1_655
H33 O62 0.978197 1_565
H34 O51 1.003976 1_555
H35 O62 0.978197 1_555
H36 O63 0.978197 1_555
H37 O54 1.003976 1_555
H38 O56 1.003976 1_555
H39 O61 1.003976 1_555
H40 O64 0.996193 1_555
H41 O64 0.977344 1_555
H42 O66 0.996193 1_555
H43 O66 0.977344 1_555
H44 O71 0.977344 1_555
H45 O71 0.996193 1_555
H46 O65 0.977344 1_555
H47 O65 0.996193 1_555
O2 Ti2 2.112356 1_555
O2 Ti1 2.145149 1_555
O2 Ti4 2.224650 1_555
O3 Si0 1.641749 1_555
O3 Ti0 1.845984 1_555
O4 Si0 1.643214 1_555
O4 Ti2 1.873151 1_555
O5 Si2 1.641749 1_555
O5 Ti1 1.845984 1_555
O6 Si1 1.641749 1_555
O6 Ti2 1.845984 1_555
O7 Ti3 2.112356 1_545
O7 Ti0 2.145149 1_455
O7 Ti5 2.224650 1_555
O8 Si1 1.643214 1_555
O8 Ti0 1.873151 1_565
O9 Ti0 2.112356 1_565
O9 Ti3 2.145149 1_655
O9 Ti6 2.224650 1_555
O10 Si3 1.641749 1_555
O10 Ti3 1.845984 1_555
O11 Si2 1.643214 1_555
O11 Ti3 1.873151 1_545
O12 Ti1 2.112356 1_555
O12 Ti2 2.145149 1_555
O12 Ti7 2.224650 1_555
O13 Si3 1.643214 1_555
O13 Ti1 1.873151 1_555
O14 Si0 1.643214 1_555
O14 Ti5 1.873151 1_655
O15 Si1 1.643214 1_555
O15 Ti7 1.873151 1_555
O16 Si0 1.641749 1_555
O16 Ti4 1.845984 1_555
O17 Ti5 2.112356 1_655
O17 Ti6 2.145149 1_545
O17 Ti0 2.224650 1_555
O18 Si2 1.643214 1_555
O18 Ti4 1.873151 1_555
O19 Ti4 2.112356 1_555
O19 Ti7 2.145149 1_555
O19 Ti1 2.224650 1_555
O20 Ti7 2.112356 1_555
O20 Ti4 2.145149 1_555
O20 Ti2 2.224650 1_555
O21 Si3 1.643214 1_555
O21 Ti6 1.873151 1_455
O22 Ti6 2.112356 1_455
O22 Ti5 2.145149 1_565
O22 Ti3 2.224650 1_555
O23 Si2 1.641749 1_555
O23 Ti5 1.845984 1_555
O24 Si1 1.641749 1_555
O24 Ti6 1.845984 1_555
O25 Si3 1.641749 1_555
O25 Ti7 1.845984 1_555
O28 Ti4 1.816312 1_555
O28 Ti8 1.816312 1_555
O30 Ti5 1.816312 1_555
O30 Ti9 1.816312 1_555
O31 Ti10 1.816312 1_555
O31 Ti6 1.816312 1_555
O35 Ti11 1.816312 1_555
O35 Ti7 1.816312 1_555
O38 Si4 1.641749 1_555
O38 Ti8 1.845984 1_555
O39 Si6 1.641749 1_555
O39 Ti9 1.845984 1_555
O40 Si5 1.641749 1_555
O40 Ti10 1.845984 1_555
O41 Ti9 2.112356 1_655
O41 Ti10 2.145149 1_545
O41 Ti12 2.224650 1_555
O42 Si4 1.643214 1_555
O42 Ti9 1.873151 1_655
O43 Ti8 2.112356 1_555
O43 Ti11 2.145149 1_555
O43 Ti13 2.224650 1_555
O44 Ti11 2.112356 1_555
O44 Ti8 2.145149 1_555
O44 Ti14 2.224650 1_555
O45 Si5 1.643214 1_555
O45 Ti11 1.873151 1_555
O46 Ti10 2.112356 1_455
O46 Ti9 2.145149 1_565
O46 Ti15 2.224650 1_555
O47 Si7 1.641749 1_555
O47 Ti11 1.845984 1_555
O48 Si6 1.643214 1_555
O48 Ti8 1.873151 1_555
O49 Si7 1.643214 1_555
O49 Ti10 1.873151 1_455
O50 Si4 1.643214 1_555
O50 Ti14 1.873151 1_555
O51 Ti14 2.112356 1_555
O51 Ti13 2.145149 1_555
O51 Ti8 2.224650 1_555
O52 Si5 1.643214 1_555
O52 Ti12 1.873151 1_565
O53 Si4 1.641749 1_555
O53 Ti12 1.845984 1_555
O54 Ti15 2.112356 1_545
O54 Ti12 2.145149 1_455
O54 Ti9 2.224650 1_555
O55 Si6 1.643214 1_555
O55 Ti15 1.873151 1_545
O56 Ti12 2.112356 1_565
O56 Ti15 2.145149 1_655
O56 Ti10 2.224650 1_555
O57 Si6 1.641749 1_555
O57 Ti13 1.845984 1_555
O58 Si5 1.641749 1_555
O58 Ti14 1.845984 1_555
O59 Si7 1.643214 1_555
O59 Ti13 1.873151 1_555
O60 Si7 1.641749 1_555
O60 Ti15 1.845984 1_555
O61 Ti13 2.112356 1_555
O61 Ti14 2.145149 1_555
O61 Ti11 2.224650 1_555
O67 Ti12 1.816312 1_555
O67 Ti0 1.816312 1_554
O68 Ti13 1.816312 1_555
O68 Ti1 1.816312 1_554
O69 Ti2 1.816312 1_554
O69 Ti14 1.816312 1_555
O70 Ti15 1.816312 1_555
O70 Ti3 1.816312 1_554
