# generated using pymatgen
data_Mg(P2Rh3)2
_symmetry_space_group_name_H-M   'P 1'
_cell_length_a   7.11157112
_cell_length_b   7.11157112
_cell_length_c   3.54038100
_cell_angle_alpha   90.00000000
_cell_angle_beta   90.00000000
_cell_angle_gamma   119.99999184
_symmetry_Int_Tables_number   1
_chemical_formula_structural   Mg(P2Rh3)2
_chemical_formula_sum   'Mg1 P4 Rh6'
_cell_volume   155.06428620
_cell_formula_units_Z   1
loop_
 _symmetry_equiv_pos_site_id
 _symmetry_equiv_pos_as_xyz
  1  'x, y, z'
loop_
 _atom_site_type_symbol
 _atom_site_label
 _atom_site_symmetry_multiplicity
 _atom_site_fract_x
 _atom_site_fract_y
 _atom_site_fract_z
 _atom_site_occupancy
  Mg  Mg0  1  0.00000000  0.00000000  0.00000000  1
  P  P0  1  0.81223000  0.18777000  0.50000000  1
  P  P1  1  0.37554000  0.18777000  0.50000000  1
  P  P2  1  0.33333300  0.66666700  0.00000000  1
  P  P3  1  0.81223000  0.62446000  0.50000000  1
  Rh  Rh0  1  0.19128800  0.80871200  0.50000000  1
  Rh  Rh1  1  0.19128800  0.38257700  0.50000000  1
  Rh  Rh2  1  0.53429700  0.06859500  0.00000000  1
  Rh  Rh3  1  0.93140500  0.46570300  0.00000000  1
  Rh  Rh4  1  0.53429700  0.46570300  0.00000000  1
  Rh  Rh5  1  0.61742300  0.80871200  0.50000000  1
loop_
_geom_bond_atom_site_label_1
_geom_bond_atom_site_label_2
_geom_bond_distance
_geom_bond_site_symmetry_2
Mg0 P0 2.912554 1_455
Mg0 P0 2.912554 1_454
Mg0 P1 2.912554 1_555
Mg0 P3 2.912554 1_444
Mg0 P3 2.912554 1_445
Mg0 P1 2.912554 1_554
Mg0 Rh0 2.947083 1_544
Mg0 Rh0 2.947083 1_545
Mg0 Rh5 2.947088 1_444
Mg0 Rh5 2.947088 1_445
Mg0 Rh1 2.947088 1_555
Mg0 Rh1 2.947088 1_554
P0 Rh5 2.334845 1_545
P0 Rh1 2.334845 1_655
P0 Rh2 2.466459 1_556
P0 Rh3 2.466459 1_556
P0 Rh3 2.466459 1_555
P0 Rh2 2.466459 1_555
P1 Rh0 2.334845 1_545
P1 Rh1 2.334851 1_555
P1 Rh2 2.466454 1_556
P1 Rh2 2.466454 1_555
P1 Rh4 2.466458 1_556
P1 Rh4 2.466458 1_555
P2 Rh4 2.475395 1_555
P2 Rh3 2.475395 1_455
P2 Rh2 2.475395 1_565
P2 Rh0 2.488948 1_555
P2 Rh0 2.488948 1_554
P2 Rh1 2.488948 1_554
P2 Rh5 2.488948 1_555
P2 Rh1 2.488948 1_555
P2 Rh5 2.488948 1_554
P3 Rh0 2.334845 1_655
P3 Rh5 2.334851 1_555
P3 Rh3 2.466454 1_556
P3 Rh3 2.466454 1_555
P3 Rh4 2.466458 1_556
P3 Rh4 2.466458 1_555
