# generated using pymatgen
data_Rb
_symmetry_space_group_name_H-M   'P 1'
_cell_length_a   10.29514853
_cell_length_b   10.29514853
_cell_length_c   10.29514853
_cell_angle_alpha   60.00000000
_cell_angle_beta   60.00000000
_cell_angle_gamma   60.00000000
_symmetry_Int_Tables_number   1
_chemical_formula_structural   Rb
_chemical_formula_sum   Rb8
_cell_volume   771.58335866
_cell_formula_units_Z   8
loop_
 _symmetry_equiv_pos_site_id
 _symmetry_equiv_pos_as_xyz
  1  'x, y, z'
loop_
 _atom_site_type_symbol
 _atom_site_label
 _atom_site_symmetry_multiplicity
 _atom_site_fract_x
 _atom_site_fract_y
 _atom_site_fract_z
 _atom_site_occupancy
  Rb  Rb0_0  1  0.00000000  0.00000000  0.00000000  1
  Rb  Rb0_1  1  0.00000000  0.00000000  0.50000000  1
  Rb  Rb0_2  1  0.00000000  0.50000000  0.00000000  1
  Rb  Rb0_3  1  0.00000000  0.50000000  0.50000000  1
  Rb  Rb0_4  1  0.50000000  0.00000000  0.00000000  1
  Rb  Rb0_5  1  0.50000000  0.00000000  0.50000000  1
  Rb  Rb0_6  1  0.50000000  0.50000000  0.00000000  1
  Rb  Rb0_7  1  0.50000000  0.50000000  0.50000000  1
loop_
_geom_bond_atom_site_label_1
_geom_bond_atom_site_label_2
_geom_bond_distance
_geom_bond_site_symmetry_2
Rb0_0 Rb0_1 5.147574 1_554
Rb0_0 Rb0_4 5.147574 1_555
Rb0_0 Rb0_5 5.147574 1_554
Rb0_0 Rb0_6 5.147574 1_455
Rb0_0 Rb0_3 5.147574 1_554
Rb0_0 Rb0_2 5.147574 1_545
Rb0_0 Rb0_2 5.147574 1_555
Rb0_0 Rb0_4 5.147574 1_455
Rb0_0 Rb0_6 5.147574 1_545
Rb0_0 Rb0_3 5.147574 1_545
Rb0_0 Rb0_5 5.147574 1_455
Rb0_0 Rb0_1 5.147574 1_555
Rb0_1 Rb0_3 5.147574 1_555
Rb0_1 Rb0_5 5.147574 1_455
Rb0_1 Rb0_5 5.147574 1_555
Rb0_1 Rb0_7 5.147574 1_545
Rb0_1 Rb0_2 5.147574 1_546
Rb0_1 Rb0_7 5.147574 1_455
Rb0_1 Rb0_4 5.147574 1_456
Rb0_1 Rb0_3 5.147574 1_545
Rb0_1 Rb0_2 5.147574 1_555
Rb0_1 Rb0_4 5.147574 1_555
Rb0_2 Rb0_3 5.147574 1_554
Rb0_2 Rb0_4 5.147574 1_555
Rb0_2 Rb0_6 5.147574 1_555
Rb0_2 Rb0_7 5.147574 1_554
Rb0_2 Rb0_6 5.147574 1_455
Rb0_2 Rb0_4 5.147574 1_465
Rb0_2 Rb0_7 5.147574 1_455
Rb0_2 Rb0_3 5.147574 1_555
Rb0_3 Rb0_5 5.147574 1_555
Rb0_3 Rb0_7 5.147574 1_555
Rb0_3 Rb0_6 5.147574 1_555
Rb0_3 Rb0_6 5.147574 1_456
Rb0_3 Rb0_7 5.147574 1_455
Rb0_3 Rb0_5 5.147574 1_465
Rb0_4 Rb0_5 5.147574 1_554
Rb0_4 Rb0_6 5.147574 1_555
Rb0_4 Rb0_7 5.147574 1_554
Rb0_4 Rb0_6 5.147574 1_545
Rb0_4 Rb0_7 5.147574 1_545
Rb0_4 Rb0_5 5.147574 1_555
Rb0_5 Rb0_7 5.147574 1_555
Rb0_5 Rb0_6 5.147574 1_555
Rb0_5 Rb0_6 5.147574 1_546
Rb0_5 Rb0_7 5.147574 1_545
Rb0_6 Rb0_7 5.147574 1_554
Rb0_6 Rb0_7 5.147574 1_555
