# generated using pymatgen
data_BaThN2
_symmetry_space_group_name_H-M   'P 1'
_cell_length_a   3.76375571
_cell_length_b   3.76375533
_cell_length_c   12.90490497
_cell_angle_alpha   89.99999375
_cell_angle_beta   89.99999857
_cell_angle_gamma   120.00000281
_symmetry_Int_Tables_number   1
_chemical_formula_structural   BaThN2
_chemical_formula_sum   'Ba2 Th2 N4'
_cell_volume   158.31725132
_cell_formula_units_Z   2
loop_
 _symmetry_equiv_pos_site_id
 _symmetry_equiv_pos_as_xyz
  1  'x, y, z'
loop_
 _atom_site_type_symbol
 _atom_site_label
 _atom_site_symmetry_multiplicity
 _atom_site_fract_x
 _atom_site_fract_y
 _atom_site_fract_z
 _atom_site_occupancy
  Ba  Ba0  1  0.66666703  0.33333307  0.75000409  1
  Ba  Ba1  1  0.33333298  0.66666700  0.24999591  1
  Th  Th0  1  -0.00000007  -0.00000004  -0.00000956  1
  Th  Th1  1  0.00000005  0.00000003  0.50000969  1
  N  N0  1  0.66666683  0.33333313  0.40242816  1
  N  N1  1  0.33333312  0.66666681  0.59757924  1
  N  N2  1  0.33333315  0.66666687  0.90242487  1
  N  N3  1  0.66666691  0.33333314  0.09756860  1
loop_
_geom_bond_atom_site_label_1
_geom_bond_atom_site_label_2
_geom_bond_distance
_geom_bond_site_symmetry_2
Ba0 N2 2.931030 1_545
Ba0 N2 2.931030 1_655
Ba0 N2 2.931034 1_555
Ba0 N1 2.931065 1_655
Ba0 N1 2.931066 1_545
Ba0 N1 2.931069 1_555
Ba1 N3 2.931086 1_565
Ba1 N3 2.931087 1_455
Ba1 N3 2.931091 1_555
Ba1 N0 2.931129 1_455
Ba1 N0 2.931130 1_565
Ba1 N0 2.931133 1_555
N0 Th1 2.511520 1_655
N0 Th1 2.511521 1_555
N0 Th1 2.511522 1_665
N1 Th1 2.511443 1_565
N1 Th1 2.511444 1_555
N1 Th1 2.511444 1_665
N2 Th0 2.511417 1_566
N2 Th0 2.511418 1_556
N2 Th0 2.511418 1_666
N3 Th0 2.511498 1_655
N3 Th0 2.511500 1_665
N3 Th0 2.511500 1_555
