# generated using pymatgen
data_Rb2MnFe(CN)6
_symmetry_space_group_name_H-M   'P 1'
_cell_length_a   7.10091337
_cell_length_b   7.10091337
_cell_length_c   7.10091337
_cell_angle_alpha   60.00000000
_cell_angle_beta   60.00000000
_cell_angle_gamma   60.00000000
_symmetry_Int_Tables_number   1
_chemical_formula_structural   Rb2MnFe(CN)6
_chemical_formula_sum   'Rb2 Mn1 Fe1 C6 N6'
_cell_volume   253.17898016
_cell_formula_units_Z   1
loop_
 _symmetry_equiv_pos_site_id
 _symmetry_equiv_pos_as_xyz
  1  'x, y, z'
loop_
 _atom_site_type_symbol
 _atom_site_label
 _atom_site_symmetry_multiplicity
 _atom_site_fract_x
 _atom_site_fract_y
 _atom_site_fract_z
 _atom_site_occupancy
  Rb  Rb0  1  0.25000000  0.25000000  0.25000000  1
  Rb  Rb1  1  0.75000000  0.75000000  0.75000000  1
  Mn  Mn0  1  0.50000000  0.50000000  0.50000000  1
  Fe  Fe0  1  0.00000000  0.00000000  0.00000000  1
  C  C0  1  0.81193000  0.18807000  0.18807000  1
  C  C1  1  0.18807000  0.81193000  0.81193000  1
  C  C2  1  0.18807000  0.81193000  0.18807000  1
  C  C3  1  0.81193000  0.18807000  0.81193000  1
  C  C4  1  0.18807000  0.18807000  0.81193000  1
  C  C5  1  0.81193000  0.81193000  0.18807000  1
  N  N0  1  0.69403700  0.30596300  0.30596300  1
  N  N1  1  0.30596300  0.69403700  0.69403700  1
  N  N2  1  0.30596300  0.69403700  0.30596300  1
  N  N3  1  0.69403700  0.30596300  0.69403700  1
  N  N4  1  0.30596300  0.30596300  0.69403700  1
  N  N5  1  0.69403700  0.69403700  0.30596300  1
loop_
_geom_bond_atom_site_label_1
_geom_bond_atom_site_label_2
_geom_bond_distance
_geom_bond_site_symmetry_2
Mn0 N2 1.948560 1_555
Mn0 N3 1.948560 1_555
Mn0 N1 1.948560 1_555
Mn0 N0 1.948560 1_555
Mn0 N4 1.948560 1_555
Mn0 N5 1.948560 1_555
C0 N0 1.183906 1_555
C0 Fe0 1.888638 1_655
C0 Rb0 3.604514 1_655
C0 Rb1 3.604514 1_545
C0 Rb1 3.604514 1_554
C0 Rb0 3.604514 1_555
C1 N1 1.183906 1_555
C1 Fe0 1.888638 1_566
C1 Rb0 3.604514 1_565
C1 Rb0 3.604514 1_556
C1 Rb1 3.604514 1_555
C1 Rb1 3.604514 1_455
C2 N2 1.183906 1_555
C2 Fe0 1.888638 1_565
C2 Rb0 3.604514 1_565
C2 Rb1 3.604514 1_455
C2 Rb1 3.604514 1_554
C2 Rb0 3.604514 1_555
C3 N3 1.183906 1_555
C3 Fe0 1.888638 1_656
C3 Rb0 3.604514 1_655
C3 Rb0 3.604514 1_556
C3 Rb1 3.604514 1_555
C3 Rb1 3.604514 1_545
C4 N4 1.183906 1_555
C4 Fe0 1.888638 1_556
C4 Rb1 3.604514 1_455
C4 Rb0 3.604514 1_556
C4 Rb1 3.604514 1_545
C4 Rb0 3.604514 1_555
C5 N5 1.183906 1_555
C5 Fe0 1.888638 1_665
C5 Rb1 3.604514 1_555
C5 Rb1 3.604514 1_554
C5 Rb0 3.604514 1_565
C5 Rb0 3.604514 1_655
N0 Rb1 3.594660 1_554
N0 Rb0 3.594660 1_655
N0 Rb1 3.594660 1_545
N0 Rb0 3.594660 1_555
N1 Rb0 3.594660 1_565
N1 Rb0 3.594660 1_556
N1 Rb1 3.594660 1_555
N1 Rb1 3.594660 1_455
N2 Rb1 3.594660 1_554
N2 Rb0 3.594660 1_565
N2 Rb0 3.594660 1_555
N2 Rb1 3.594660 1_455
N3 Rb0 3.594660 1_655
N3 Rb1 3.594660 1_545
N3 Rb0 3.594660 1_556
N3 Rb1 3.594660 1_555
N4 Rb1 3.594660 1_545
N4 Rb0 3.594660 1_555
N4 Rb0 3.594660 1_556
N4 Rb1 3.594660 1_455
N5 Rb1 3.594660 1_554
N5 Rb0 3.594660 1_565
N5 Rb0 3.594660 1_655
N5 Rb1 3.594660 1_555
