# generated using pymatgen
data_Na3V5O10
_symmetry_space_group_name_H-M   'P 1'
_cell_length_a   5.13375502
_cell_length_b   8.06019793
_cell_length_c   11.24824434
_cell_angle_alpha   81.99556590
_cell_angle_beta   86.61040647
_cell_angle_gamma   71.46089750
_symmetry_Int_Tables_number   1
_chemical_formula_structural   Na3V5O10
_chemical_formula_sum   'Na6 V10 O20'
_cell_volume   436.93476913
_cell_formula_units_Z   2
loop_
 _symmetry_equiv_pos_site_id
 _symmetry_equiv_pos_as_xyz
  1  'x, y, z'
loop_
 _atom_site_type_symbol
 _atom_site_label
 _atom_site_symmetry_multiplicity
 _atom_site_fract_x
 _atom_site_fract_y
 _atom_site_fract_z
 _atom_site_occupancy
  Na  Na0  1  0.15240000  0.45003600  0.74947000  1
  Na  Na1  1  0.65236300  0.94979700  0.24976900  1
  Na  Na2  1  0.44786800  0.34588700  0.25148800  1
  Na  Na3  1  0.94831100  0.84590600  0.75146700  1
  Na  Na4  1  0.84960800  0.55389500  0.24889400  1
  Na  Na5  1  0.34973600  0.05377900  0.74888300  1
  V  V0  1  0.90185400  0.69898800  0.49895900  1
  V  V1  1  0.20541900  0.60258100  0.00324400  1
  V  V2  1  0.70589500  0.10281500  0.50339300  1
  V  V3  1  0.59631100  0.79965600  0.99747400  1
  V  V4  1  0.09667400  0.29852700  0.49731400  1
  V  V5  1  0.40219700  0.19851900  0.99898500  1
  V  V6  1  0.79936200  0.40143500  0.99582500  1
  V  V7  1  0.29935100  0.90191300  0.49598800  1
  V  V8  1  0.50023000  0.49647800  0.50367700  1
  V  V9  1  0.00026000  0.99694900  0.00388100  1
  O  O0  1  0.70653400  0.18541400  0.09353900  1
  O  O1  1  0.20693800  0.68554900  0.59322900  1
  O  O2  1  0.09245500  0.21715300  0.90634200  1
  O  O3  1  0.59190300  0.71728800  0.40656900  1
  O  O4  1  0.16757800  0.52130700  0.40406300  1
  O  O5  1  0.66873600  0.02117800  0.90357000  1
  O  O6  1  0.12967100  0.38575300  0.09416000  1
  O  O7  1  0.63021600  0.88576600  0.59403600  1
  O  O8  1  0.92672400  0.77844900  0.09620800  1
  O  O9  1  0.42640300  0.27820000  0.59626100  1
  O  O10  1  0.89309400  0.61758900  0.90687900  1
  O  O11  1  0.39295700  0.11772900  0.40673300  1
  O  O12  1  0.46013700  0.41984000  0.90959500  1
  O  O13  1  0.95978900  0.91978200  0.40989200  1
  O  O14  1  0.84012300  0.48386800  0.58942300  1
  O  O15  1  0.33911200  0.98374600  0.09044000  1
  O  O16  1  0.51383200  0.57674700  0.09667200  1
  O  O17  1  0.01378300  0.07655300  0.59717700  1
  O  O18  1  0.26595000  0.81569300  0.90339500  1
  O  O19  1  0.76622500  0.31523500  0.40310800  1
loop_
_geom_bond_atom_site_label_1
_geom_bond_atom_site_label_2
_geom_bond_distance
_geom_bond_site_symmetry_2
Na0 O12 2.401892 1_555
Na0 O14 2.410792 1_455
Na0 O10 2.444367 1_455
Na0 O9 2.450727 1_555
Na0 O2 2.472329 1_555
Na0 O1 2.474093 1_555
Na1 O13 2.401115 1_555
Na1 O15 2.407762 1_555
Na1 O11 2.442157 1_565
Na1 O8 2.452453 1_555
Na1 O3 2.470592 1_555
Na1 O0 2.474016 1_565
Na2 O19 2.365644 1_555
Na2 O6 2.398566 1_555
Na2 O0 2.421085 1_555
Na2 O11 2.426482 1_555
Na2 O16 2.457276 1_555
Na2 O4 2.470843 1_555
Na3 O18 2.366421 1_655
Na3 O7 2.399098 1_555
Na3 O1 2.423109 1_655
Na3 O10 2.429007 1_555
Na3 O17 2.451701 1_665
Na3 O5 2.465021 1_565
Na4 O4 2.390937 1_655
Na4 O8 2.427308 1_555
Na4 O3 2.428036 1_555
Na4 O16 2.448754 1_555
Na4 O6 2.460718 1_655
Na4 O19 2.529654 1_555
Na5 O5 2.390486 1_555
Na5 O9 2.425306 1_555
Na5 O2 2.425368 1_555
Na5 O17 2.445330 1_555
Na5 O7 2.461976 1_545
Na5 O18 2.529012 1_545
O0 V5 1.908838 1_554
O0 V9 2.094910 1_645
O0 V6 2.097515 1_554
O1 V0 1.909372 1_455
O1 V8 2.095999 1_555
O1 V7 2.096735 1_555
O2 V5 1.907223 1_555
O2 V6 2.073511 1_455
O2 V9 2.123309 1_546
O3 V0 1.907172 1_555
O3 V7 2.073351 1_555
O3 V8 2.124294 1_555
O4 V0 2.015576 1_455
O4 V8 2.039227 1_555
O4 V4 2.074372 1_555
O5 V5 2.019219 1_555
O5 V9 2.040168 1_646
O5 V3 2.071823 1_545
O6 V1 2.034404 1_555
O6 V6 2.039968 1_454
O6 V5 2.076343 1_554
O7 V2 2.034625 1_565
O7 V7 2.039460 1_555
O7 V0 2.071681 1_555
O8 V1 2.023882 1_655
O8 V3 2.031115 1_554
O8 V9 2.046888 1_655
O9 V2 2.022999 1_555
O9 V4 2.031404 1_555
O9 V8 2.047102 1_555
O10 V1 1.950924 1_656
O10 V6 2.063656 1_555
O10 V3 2.079527 1_555
O11 V2 1.955738 1_555
O11 V7 2.062266 1_545
O11 V4 2.072690 1_555
O12 V6 1.997744 1_555
O12 V1 2.008366 1_556
O12 V5 2.020954 1_555
O13 V7 1.999642 1_655
O13 V2 2.007168 1_565
O13 V0 2.015961 1_555
O14 V0 1.990535 1_555
O14 V8 2.011039 1_555
O14 V4 2.014526 1_655
O15 V5 1.995255 1_564
O15 V9 2.009763 1_555
O15 V3 2.015341 1_554
O16 V1 1.892302 1_555
O16 V6 2.089206 1_554
O16 V3 2.126497 1_554
O17 V2 1.891618 1_455
O17 V7 2.088731 1_545
O17 V4 2.124110 1_555
O18 V3 2.011880 1_555
O18 V1 2.017284 1_556
O18 V9 2.069497 1_556
O19 V4 2.011584 1_655
O19 V2 2.014409 1_555
O19 V8 2.070633 1_555
