# generated using pymatgen
data_LiPr(MoO4)2
_symmetry_space_group_name_H-M   'P 1'
_cell_length_a   6.00898600
_cell_length_b   5.11774100
_cell_length_c   11.20337589
_cell_angle_alpha   67.96636885
_cell_angle_beta   90.00000000
_cell_angle_gamma   90.00000000
_symmetry_Int_Tables_number   1
_chemical_formula_structural   LiPr(MoO4)2
_chemical_formula_sum   'Li2 Pr2 Mo4 O16'
_cell_volume   319.36784061
_cell_formula_units_Z   2
loop_
 _symmetry_equiv_pos_site_id
 _symmetry_equiv_pos_as_xyz
  1  'x, y, z'
loop_
 _atom_site_type_symbol
 _atom_site_label
 _atom_site_symmetry_multiplicity
 _atom_site_fract_x
 _atom_site_fract_y
 _atom_site_fract_z
 _atom_site_occupancy
  Li  Li0  1  0.71631100  0.00000000  0.75000000  1
  Li  Li1  1  0.28368900  0.00000000  0.25000000  1
  Pr  Pr0  1  0.28487500  0.50000000  0.75000000  1
  Pr  Pr1  1  0.71512500  0.50000000  0.25000000  1
  Mo  Mo0  1  0.81925300  0.73553300  0.52325300  1
  Mo  Mo1  1  0.18074700  0.26446700  0.47674700  1
  Mo  Mo2  1  0.81925300  0.26446700  0.97674700  1
  Mo  Mo3  1  0.18074700  0.73553300  0.02325300  1
  O  O0  1  0.89862600  0.86314900  0.09209400  1
  O  O1  1  0.10137400  0.13685100  0.90790600  1
  O  O2  1  0.89862600  0.13685100  0.40790600  1
  O  O3  1  0.10137400  0.86314900  0.59209400  1
  O  O4  1  0.36412800  0.72344300  0.89752800  1
  O  O5  1  0.63587200  0.27655700  0.10247200  1
  O  O6  1  0.36412800  0.27655700  0.60247200  1
  O  O7  1  0.63587200  0.72344300  0.39752800  1
  O  O8  1  0.91336100  0.63156400  0.88680800  1
  O  O9  1  0.08663900  0.36843600  0.11319200  1
  O  O10  1  0.91336100  0.36843600  0.61319200  1
  O  O11  1  0.08663900  0.63156400  0.38680800  1
  O  O12  1  0.63075700  0.78015600  0.63774200  1
  O  O13  1  0.36924300  0.21984400  0.36225800  1
  O  O14  1  0.63075700  0.21984400  0.86225800  1
  O  O15  1  0.36924300  0.78015600  0.13774200  1
loop_
_geom_bond_atom_site_label_1
_geom_bond_atom_site_label_2
_geom_bond_distance
_geom_bond_site_symmetry_2
Li0 O14 2.042931 1_555
Li0 O12 2.042931 1_545
Li0 O8 2.266755 1_545
Li0 O10 2.266755 1_555
Li1 O15 2.042931 1_545
Li1 O13 2.042931 1_555
Li1 O11 2.266755 1_545
Li1 O9 2.266755 1_555
Mo0 O12 1.788882 1_555
Mo0 O7 1.807616 1_555
Mo0 O10 1.855878 1_555
Mo0 O2 2.030844 1_565
Mo0 O3 2.067177 1_655
Mo0 O11 2.410744 1_655
Mo1 O13 1.788882 1_555
Mo1 O6 1.807616 1_555
Mo1 O11 1.855878 1_555
Mo1 O3 2.030844 1_545
Mo1 O2 2.067177 1_455
Mo1 O10 2.410744 1_455
Mo2 O14 1.788882 1_555
Mo2 O5 1.807616 1_556
Mo2 O8 1.855878 1_555
Mo2 O0 2.030844 1_546
Mo2 O1 2.067177 1_655
Mo2 O9 2.410744 1_656
Mo3 O15 1.788882 1_555
Mo3 O4 1.807616 1_554
Mo3 O9 1.855878 1_555
Mo3 O1 2.030844 1_564
Mo3 O0 2.067177 1_455
Mo3 O8 2.410744 1_454
O0 Pr1 2.309254 1_555
O1 Pr0 2.309254 1_555
O2 Pr1 2.309254 1_555
O3 Pr0 2.309254 1_555
O4 Pr0 2.384181 1_555
O5 Pr1 2.384181 1_555
O6 Pr0 2.384181 1_555
O7 Pr1 2.384181 1_555
O8 Pr0 2.925844 1_655
O9 Pr1 2.925844 1_455
O10 Pr0 2.925844 1_655
O11 Pr1 2.925844 1_455
O12 Pr0 2.569867 1_555
O13 Pr1 2.569867 1_555
O14 Pr0 2.569867 1_555
O15 Pr1 2.569867 1_555
