# generated using pymatgen
data_La3AlO6
_symmetry_space_group_name_H-M   'P 1'
_cell_length_a   7.51472382
_cell_length_b   7.51472382
_cell_length_c   5.63031083
_cell_angle_alpha   90.00000000
_cell_angle_beta   90.00000000
_cell_angle_gamma   103.00556414
_symmetry_Int_Tables_number   1
_chemical_formula_structural   La3AlO6
_chemical_formula_sum   'La6 Al2 O12'
_cell_volume   309.79372270
_cell_formula_units_Z   2
loop_
 _symmetry_equiv_pos_site_id
 _symmetry_equiv_pos_as_xyz
  1  'x, y, z'
loop_
 _atom_site_type_symbol
 _atom_site_label
 _atom_site_symmetry_multiplicity
 _atom_site_fract_x
 _atom_site_fract_y
 _atom_site_fract_z
 _atom_site_occupancy
  La  La0  1  0.08532571  0.30054680  0.46770036  1
  La  La1  1  0.30054680  0.08532571  0.96770036  1
  La  La2  1  0.60614783  0.39385217  0.43185222  1
  La  La3  1  0.39385217  0.60614783  0.93185222  1
  La  La4  1  0.69945320  0.91467429  0.46770036  1
  La  La5  1  0.91467429  0.69945320  0.96770036  1
  Al  Al0  1  0.80689949  0.19310051  0.00816868  1
  Al  Al1  1  0.19310051  0.80689949  0.50816868  1
  O  O0  1  0.33008430  0.35186007  0.20327016  1
  O  O1  1  0.35186007  0.33008430  0.70327016  1
  O  O2  1  0.11126306  0.59452447  0.65809874  1
  O  O3  1  0.59452447  0.11126306  0.15809874  1
  O  O4  1  0.94870336  0.05129664  0.11983406  1
  O  O5  1  0.78760541  0.21239459  0.69595650  1
  O  O6  1  0.21239459  0.78760541  0.19595650  1
  O  O7  1  0.05129664  0.94870336  0.61983406  1
  O  O8  1  0.88873694  0.40547553  0.15809874  1
  O  O9  1  0.40547553  0.88873694  0.65809874  1
  O  O10  1  0.64813993  0.66991570  0.20327016  1
  O  O11  1  0.66991570  0.64813993  0.70327016  1
loop_
_geom_bond_atom_site_label_1
_geom_bond_atom_site_label_2
_geom_bond_distance
_geom_bond_site_symmetry_2
La0 O0 2.330035 1_555
La0 O1 2.370666 1_555
La0 O2 2.423585 1_555
La0 O8 2.523307 1_455
La0 O5 2.535513 1_455
La0 O7 2.735971 1_545
La0 O4 2.744619 1_455
La1 O1 2.330035 1_555
La1 O0 2.370666 1_556
La1 O3 2.423585 1_556
La1 O9 2.523307 1_545
La1 O6 2.535513 1_546
La1 O4 2.735971 1_456
La1 O7 2.744619 1_545
La2 O10 2.401039 1_555
La2 O0 2.401039 1_555
La2 O1 2.409217 1_555
La2 O11 2.409217 1_555
La2 O5 2.601321 1_555
La2 O3 2.609481 1_555
La2 O8 2.609481 1_555
La3 O11 2.401039 1_555
La3 O1 2.401039 1_555
La3 O10 2.409217 1_556
La3 O0 2.409217 1_556
La3 O6 2.601321 1_556
La3 O2 2.609481 1_555
La3 O9 2.609481 1_555
La4 O10 2.330035 1_555
La4 O11 2.370666 1_555
La4 O9 2.423585 1_555
La4 O3 2.523307 1_565
La4 O5 2.535513 1_565
La4 O7 2.735971 1_655
La4 O4 2.744619 1_565
La5 O11 2.330035 1_555
La5 O10 2.370666 1_556
La5 O8 2.423585 1_556
La5 O2 2.523307 1_655
La5 O6 2.535513 1_656
La5 O4 2.735971 1_566
La5 O7 2.744619 1_655
Al0 O5 1.772441 1_554
Al0 O4 1.782541 1_555
Al0 O8 1.787755 1_555
Al0 O3 1.787755 1_555
Al1 O6 1.772441 1_555
Al1 O7 1.782541 1_555
Al1 O9 1.787755 1_555
Al1 O2 1.787755 1_555
