# generated using pymatgen
data_Ni3Rh
_symmetry_space_group_name_H-M   'P 1'
_cell_length_a   5.08780856
_cell_length_b   5.08781942
_cell_length_c   4.11086450
_cell_angle_alpha   90.00000002
_cell_angle_beta   90.00000049
_cell_angle_gamma   119.99908710
_symmetry_Int_Tables_number   1
_chemical_formula_structural   Ni3Rh
_chemical_formula_sum   'Ni6 Rh2'
_cell_volume   92.15740524
_cell_formula_units_Z   2
loop_
 _symmetry_equiv_pos_site_id
 _symmetry_equiv_pos_as_xyz
  1  'x, y, z'
loop_
 _atom_site_type_symbol
 _atom_site_label
 _atom_site_symmetry_multiplicity
 _atom_site_fract_x
 _atom_site_fract_y
 _atom_site_fract_z
 _atom_site_occupancy
  Ni  Ni0  1  0.16326567  0.32649786  0.24999998  1
  Ni  Ni1  1  0.67349069  0.83674330  0.25000002  1
  Ni  Ni2  1  0.16326291  0.83676642  0.25000002  1
  Ni  Ni3  1  0.83673851  0.67349931  0.75000000  1
  Ni  Ni4  1  0.32650758  0.16325485  0.74999998  1
  Ni  Ni5  1  0.83673975  0.16324012  0.74999999  1
  Rh  Rh0  1  0.33333547  0.66666809  0.75000002  1
  Rh  Rh1  1  0.66665943  0.33333006  0.24999998  1
loop_
_geom_bond_atom_site_label_1
_geom_bond_atom_site_label_2
_geom_bond_distance
_geom_bond_site_symmetry_2
Ni0 Ni2 2.491658 1_545
Ni0 Ni1 2.491866 1_445
Ni0 Ni4 2.508826 1_555
Ni0 Ni4 2.508826 1_554
Ni0 Ni5 2.508940 1_454
Ni0 Ni5 2.508940 1_455
Ni0 Rh0 2.543894 1_554
Ni0 Rh0 2.543895 1_555
Ni0 Rh1 2.543969 1_555
Ni0 Rh1 2.544196 1_455
Ni0 Ni1 2.596018 1_555
Ni0 Ni2 2.596161 1_555
Ni1 Ni2 2.491808 1_655
Ni1 Ni3 2.508844 1_555
Ni1 Ni3 2.508844 1_554
Ni1 Ni5 2.508868 1_565
Ni1 Ni5 2.508869 1_564
Ni1 Rh0 2.543854 1_554
Ni1 Rh0 2.543854 1_555
Ni1 Rh1 2.544076 1_555
Ni1 Rh1 2.544099 1_565
Ni1 Ni2 2.596000 1_555
Ni2 Ni4 2.508847 1_565
Ni2 Ni4 2.508847 1_564
Ni2 Ni3 2.508936 1_455
Ni2 Ni3 2.508937 1_454
Ni2 Rh0 2.543883 1_555
Ni2 Rh0 2.543883 1_554
Ni2 Rh1 2.544019 1_565
Ni2 Rh1 2.544222 1_455
Ni3 Ni5 2.491710 1_565
Ni3 Ni4 2.491854 1_665
Ni3 Rh1 2.543892 1_556
Ni3 Rh1 2.543892 1_555
Ni3 Rh0 2.544019 1_555
Ni3 Rh0 2.544146 1_655
Ni3 Ni4 2.596030 1_555
Ni3 Ni5 2.596110 1_555
Ni4 Ni5 2.491807 1_455
Ni4 Rh1 2.543845 1_556
Ni4 Rh1 2.543845 1_555
Ni4 Rh0 2.544085 1_555
Ni4 Rh0 2.544091 1_545
Ni4 Ni5 2.596001 1_555
Ni5 Rh1 2.543881 1_556
Ni5 Rh1 2.543881 1_555
Ni5 Rh0 2.544060 1_545
Ni5 Rh0 2.544181 1_655
