# generated using pymatgen
data_Nd2Ni12P7
_symmetry_space_group_name_H-M   'P 1'
_cell_length_a   9.09636900
_cell_length_b   3.73033100
_cell_length_c   9.09867124
_cell_angle_alpha   90.00000000
_cell_angle_beta   119.92455499
_cell_angle_gamma   90.00000000
_symmetry_Int_Tables_number   1
_chemical_formula_structural   Nd2Ni12P7
_chemical_formula_sum   'Nd2 Ni12 P7'
_cell_volume   267.58003557
_cell_formula_units_Z   1
loop_
 _symmetry_equiv_pos_site_id
 _symmetry_equiv_pos_as_xyz
  1  'x, y, z'
loop_
 _atom_site_type_symbol
 _atom_site_label
 _atom_site_symmetry_multiplicity
 _atom_site_fract_x
 _atom_site_fract_y
 _atom_site_fract_z
 _atom_site_occupancy
  Nd  Nd0  1  0.66673800  0.00000000  0.33333500  1
  Nd  Nd1  1  0.33348600  0.50000000  0.66660100  1
  Ni  Ni0  1  0.37580300  0.00000000  0.43437200  1
  Ni  Ni1  1  0.05871300  0.00000000  0.62459700  1
  Ni  Ni2  1  0.56580600  0.00000000  0.94138300  1
  Ni  Ni3  1  0.87522000  0.00000000  0.14727100  1
  Ni  Ni4  1  0.27197700  0.00000000  0.12466700  1
  Ni  Ni5  1  0.85254100  0.00000000  0.72796700  1
  Ni  Ni6  1  0.95184400  0.50000000  0.37801900  1
  Ni  Ni7  1  0.42589300  0.50000000  0.04824700  1
  Ni  Ni8  1  0.62198300  0.50000000  0.57373900  1
  Ni  Ni9  1  0.11871600  0.50000000  0.21341300  1
  Ni  Ni10  1  0.09466400  0.50000000  0.88130300  1
  Ni  Ni11  1  0.78665000  0.50000000  0.90512400  1
  P  P0  1  0.10787600  0.00000000  0.40143000  1
  P  P1  1  0.29355800  0.00000000  0.89193100  1
  P  P2  1  0.59842300  0.00000000  0.70656300  1
  P  P3  1  0.70267900  0.50000000  0.10305600  1
  P  P4  1  0.40037500  0.50000000  0.29745900  1
  P  P5  1  0.89707200  0.50000000  0.59965100  1
  P  P6  1  0.99998300  0.00000000  0.99987100  1
loop_
_geom_bond_atom_site_label_1
_geom_bond_atom_site_label_2
_geom_bond_distance
_geom_bond_site_symmetry_2
Nd0 P3 2.942646 1_545
Nd0 P3 2.942646 1_555
Nd0 P4 2.943962 1_555
Nd0 P4 2.943962 1_545
Nd0 P5 2.945316 1_545
Nd0 P5 2.945316 1_555
Nd0 Ni8 3.052469 1_545
Nd0 Ni8 3.052469 1_555
Nd0 Ni6 3.052543 1_555
Nd0 Ni6 3.052543 1_545
Nd0 Ni7 3.055668 1_555
Nd0 Ni7 3.055668 1_545
Nd0 Ni3 3.108968 1_555
Nd0 Ni5 3.113577 1_555
Nd0 Ni4 3.114012 1_555
Nd0 Ni0 3.205646 1_555
Nd0 Ni2 3.208469 1_554
Nd0 Ni1 3.210711 1_655
Nd1 P2 2.923134 1_565
Nd1 P2 2.923134 1_555
Nd1 P1 2.925239 1_565
Nd1 P1 2.925239 1_555
Nd1 P0 2.927714 1_555
Nd1 P0 2.927714 1_565
Nd1 Ni0 2.983819 1_555
Nd1 Ni0 2.983819 1_565
Nd1 Ni1 2.986475 1_555
Nd1 Ni1 2.986475 1_565
Nd1 Ni2 2.987317 1_555
Nd1 Ni2 2.987317 1_565
Nd1 Ni8 3.132564 1_555
Nd1 Ni6 3.138719 1_455
Nd1 Ni7 3.138857 1_556
Ni0 P2 2.287025 1_555
Ni0 P0 2.302342 1_555
Ni0 P4 2.314831 1_555
Ni0 P4 2.314831 1_545
Ni1 P0 2.286702 1_555
Ni1 P1 2.301240 1_555
Ni1 P5 2.315018 1_445
Ni1 P5 2.315018 1_455
Ni2 P1 2.285522 1_555
Ni2 P2 2.298986 1_555
Ni2 P3 2.316367 1_556
Ni2 P3 2.316367 1_546
Ni3 P6 2.145978 1_554
Ni3 P0 2.223438 1_655
Ni3 P3 2.339667 1_555
Ni3 P3 2.339667 1_545
Ni4 P6 2.146585 1_454
Ni4 P1 2.222042 1_554
Ni4 P4 2.341508 1_555
Ni4 P4 2.341508 1_545
Ni5 P6 2.146813 1_555
Ni5 P2 2.220822 1_555
Ni5 P5 2.340478 1_555
Ni5 P5 2.340478 1_545
Ni6 P0 2.288462 1_655
Ni6 P0 2.288462 1_665
Ni6 P5 2.305892 1_555
Ni6 P3 2.395542 1_555
Ni7 P1 2.289666 1_564
Ni7 P1 2.289666 1_554
Ni7 P3 2.309770 1_555
Ni7 P4 2.391769 1_555
Ni8 P2 2.289914 1_565
Ni8 P2 2.289914 1_555
Ni8 P4 2.308001 1_555
Ni8 P5 2.393436 1_555
Ni9 P4 2.279086 1_555
Ni9 P6 2.515294 1_464
Ni9 P6 2.515294 1_454
Ni9 P0 2.565809 1_555
Ni9 P0 2.565809 1_565
Ni10 P5 2.280838 1_455
Ni10 P6 2.512259 1_455
Ni10 P6 2.512259 1_465
Ni10 P1 2.566494 1_565
Ni10 P1 2.566494 1_555
Ni11 P3 2.280176 1_556
Ni11 P6 2.513699 1_555
Ni11 P6 2.513699 1_565
Ni11 P2 2.566734 1_565
Ni11 P2 2.566734 1_555
