# generated using pymatgen
data_BHN4
_symmetry_space_group_name_H-M   'P 1'
_cell_length_a   9.61444700
_cell_length_b   9.82416783
_cell_length_c   13.15091059
_cell_angle_alpha   83.74892428
_cell_angle_beta   75.54533890
_cell_angle_gamma   70.48509858
_symmetry_Int_Tables_number   1
_chemical_formula_structural   BHN4
_chemical_formula_sum   'B12 H12 N48'
_cell_volume   1133.29555425
_cell_formula_units_Z   12
loop_
 _symmetry_equiv_pos_site_id
 _symmetry_equiv_pos_as_xyz
  1  'x, y, z'
loop_
 _atom_site_type_symbol
 _atom_site_label
 _atom_site_symmetry_multiplicity
 _atom_site_fract_x
 _atom_site_fract_y
 _atom_site_fract_z
 _atom_site_occupancy
  B  B0  1  0.11055600  0.57363600  0.64762600  1
  B  B1  1  0.88944400  0.42636400  0.35237400  1
  B  B2  1  0.92522400  0.47463000  0.77546600  1
  B  B3  1  0.07477600  0.52537000  0.22453400  1
  B  B4  1  0.18408800  0.42956100  0.80574000  1
  B  B5  1  0.81591200  0.57043900  0.19426000  1
  B  B6  1  0.20086100  0.03881500  0.67840300  1
  B  B7  1  0.79913900  0.96118500  0.32159700  1
  B  B8  1  0.94120900  0.01580900  0.71801700  1
  B  B9  1  0.05879100  0.98419100  0.28198300  1
  B  B10  1  0.11551500  0.89818600  0.83805200  1
  B  B11  1  0.88448500  0.10181400  0.16194800  1
  H  H0  1  0.32209500  0.52399600  0.68872900  1
  H  H1  1  0.67790500  0.47600400  0.31127100  1
  H  H2  1  0.88764300  0.59504400  0.63561300  1
  H  H3  1  0.11235700  0.40495600  0.36438700  1
  H  H4  1  0.00959500  0.35820000  0.90478100  1
  H  H5  1  0.99040500  0.64180000  0.09521900  1
  H  H6  1  0.33044800  0.92965200  0.78880700  1
  H  H7  1  0.66955200  0.07034800  0.21119300  1
  H  H8  1  0.03636300  0.12950200  0.58742700  1
  H  H9  1  0.96363700  0.87049800  0.41257300  1
  H  H10  1  0.89063000  0.89416700  0.85693000  1
  H  H11  1  0.10937000  0.10583300  0.14307000  1
  N  N0  1  0.14410800  0.65750500  0.55025900  1
  N  N1  1  0.85589200  0.34249500  0.44974100  1
  N  N2  1  0.26706300  0.67847900  0.51865300  1
  N  N3  1  0.73293700  0.32152100  0.48134700  1
  N  N4  1  0.37707500  0.70478700  0.48212000  1
  N  N5  1  0.62292500  0.29521300  0.51788000  1
  N  N6  1  0.77775500  0.45238800  0.81309000  1
  N  N7  1  0.22224500  0.54761200  0.18691000  1
  N  N8  1  0.66864000  0.50393600  0.77298100  1
  N  N9  1  0.33136000  0.49606400  0.22701900  1
  N  N10  1  0.55873100  0.54596200  0.74329100  1
  N  N11  1  0.44126900  0.45403800  0.25670900  1
  N  N12  1  0.30050400  0.36582100  0.86631400  1
  N  N13  1  0.69949600  0.63417900  0.13368600  1
  N  N14  1  0.28672600  0.28435600  0.94259500  1
  N  N15  1  0.71327400  0.71564400  0.05740500  1
  N  N16  1  0.28644000  0.20644200  0.01448000  1
  N  N17  1  0.71356000  0.79355800  0.98552000  1
  N  N18  1  0.32093100  0.09254500  0.61392600  1
  N  N19  1  0.67906900  0.90745500  0.38607400  1
  N  N20  1  0.30766800  0.17071300  0.53572200  1
  N  N21  1  0.69233200  0.82928700  0.46427800  1
  N  N22  1  0.30791100  0.24456400  0.46149700  1
  N  N23  1  0.69208900  0.75543600  0.53850300  1
  N  N24  1  0.79719200  0.04977800  0.68674000  1
  N  N25  1  0.20280800  0.95022200  0.31326000  1
  N  N26  1  0.68899800  0.01303500  0.73693100  1
  N  N27  1  0.31100200  0.98696500  0.26306900  1
  N  N28  1  0.58091900  0.98506600  0.77670200  1
  N  N29  1  0.41908100  0.01493400  0.22329800  1
  N  N30  1  0.14109800  0.81005000  0.93351000  1
  N  N31  1  0.85890200  0.18995000  0.06649000  1
  N  N32  1  0.25834300  0.78367700  0.96423200  1
  N  N33  1  0.74165700  0.21632300  0.03576800  1
  N  N34  1  0.36210300  0.75273100  0.00063400  1
  N  N35  1  0.63789700  0.24726900  0.99936600  1
  N  N36  1  0.21805800  0.51133200  0.71140600  1
  N  N37  1  0.78194200  0.48866800  0.28859400  1
  N  N38  1  0.96511600  0.55295300  0.68032600  1
  N  N39  1  0.03488400  0.44704700  0.31967400  1
  N  N40  1  0.03638400  0.41383600  0.83706700  1
  N  N41  1  0.96361600  0.58616400  0.16293300  1
  N  N42  1  0.22804000  0.95292200  0.77085300  1
  N  N43  1  0.77196000  0.04707800  0.22914700  1
  N  N44  1  0.05692400  0.06886200  0.65296200  1
  N  N45  1  0.94307600  0.93113800  0.34703800  1
  N  N46  1  0.97262100  0.93123300  0.81029100  1
  N  N47  1  0.02737900  0.06876700  0.18970900  1
loop_
_geom_bond_atom_site_label_1
_geom_bond_atom_site_label_2
_geom_bond_distance
_geom_bond_site_symmetry_2
B0 N36 1.429955 1_555
B0 N38 1.432526 1_455
B0 N0 1.471103 1_555
B1 N37 1.429955 1_555
B1 N39 1.432526 1_655
B1 N1 1.471103 1_555
B2 N38 1.432676 1_555
B2 N40 1.433738 1_655
B2 N6 1.461517 1_555
B3 N39 1.432676 1_555
B3 N41 1.433738 1_455
B3 N7 1.461517 1_555
B4 N36 1.430745 1_555
B4 N40 1.432094 1_555
B4 N12 1.465503 1_555
B5 N37 1.430745 1_555
B5 N41 1.432094 1_555
B5 N13 1.465503 1_555
B6 N42 1.430515 1_545
B6 N44 1.432096 1_555
B6 N18 1.466711 1_555
B7 N43 1.430515 1_565
B7 N45 1.432096 1_555
B7 N19 1.466711 1_555
B8 N46 1.431737 1_545
B8 N44 1.434033 1_655
B8 N24 1.464072 1_555
B9 N47 1.431737 1_565
B9 N45 1.434033 1_455
B9 N25 1.464072 1_555
B10 N42 1.431243 1_555
B10 N46 1.432736 1_455
B10 N30 1.470135 1_555
B11 N43 1.431243 1_555
B11 N47 1.432736 1_655
B11 N31 1.470135 1_555
H0 N36 1.015419 1_555
H1 N37 1.015419 1_555
H2 N38 1.015626 1_555
H3 N39 1.015626 1_555
H4 N40 1.015693 1_555
H5 N41 1.015693 1_555
H6 N42 1.015560 1_555
H7 N43 1.015560 1_555
H8 N44 1.015540 1_555
H9 N45 1.015540 1_555
H10 N46 1.015861 1_555
H11 N47 1.015861 1_555
N0 N2 1.229421 1_555
N1 N3 1.229421 1_555
N2 N4 1.148159 1_555
N3 N5 1.148159 1_555
N6 N8 1.224087 1_555
N7 N9 1.224087 1_555
N10 N8 1.148454 1_555
N11 N9 1.148454 1_555
N12 N14 1.222317 1_555
N13 N15 1.222317 1_555
N14 N16 1.149837 1_556
N15 N17 1.149837 1_554
N18 N20 1.221375 1_555
N19 N21 1.221375 1_555
N20 N22 1.151079 1_555
N21 N23 1.151079 1_555
N24 N26 1.226479 1_555
N25 N27 1.226479 1_555
N26 N28 1.147590 1_545
N27 N29 1.147590 1_565
N30 N32 1.229019 1_555
N31 N33 1.229019 1_555
N32 N34 1.149299 1_556
N33 N35 1.149299 1_554
