# generated using pymatgen
data_Ca21(Cd2Bi9)2
_symmetry_space_group_name_H-M   'P 1'
_cell_length_a   12.42880169
_cell_length_b   12.42880169
_cell_length_c   17.72765183
_cell_angle_alpha   88.35196403
_cell_angle_beta   88.35196403
_cell_angle_gamma   87.43274754
_symmetry_Int_Tables_number   1
_chemical_formula_structural   Ca21(Cd2Bi9)2
_chemical_formula_sum   'Ca42 Cd8 Bi36'
_cell_volume   2733.56584233
_cell_formula_units_Z   2
loop_
 _symmetry_equiv_pos_site_id
 _symmetry_equiv_pos_as_xyz
  1  'x, y, z'
loop_
 _atom_site_type_symbol
 _atom_site_label
 _atom_site_symmetry_multiplicity
 _atom_site_fract_x
 _atom_site_fract_y
 _atom_site_fract_z
 _atom_site_occupancy
  Ca  Ca0  1  0.73430700  0.73430700  0.09230600  1
  Ca  Ca1  1  0.26569300  0.26569300  0.90769400  1
  Ca  Ca2  1  0.74978700  0.07683500  0.14508600  1
  Ca  Ca3  1  0.25021300  0.92316500  0.85491400  1
  Ca  Ca4  1  0.92316500  0.25021300  0.85491400  1
  Ca  Ca5  1  0.07683500  0.74978700  0.14508600  1
  Ca  Ca6  1  0.40383900  0.74006300  0.15390900  1
  Ca  Ca7  1  0.59616100  0.25993700  0.84609100  1
  Ca  Ca8  1  0.25993700  0.59616100  0.84609100  1
  Ca  Ca9  1  0.74006300  0.40383900  0.15390900  1
  Ca  Ca10  1  0.75660300  0.07286300  0.35276300  1
  Ca  Ca11  1  0.24339700  0.92713700  0.64723700  1
  Ca  Ca12  1  0.92713700  0.24339700  0.64723700  1
  Ca  Ca13  1  0.07286300  0.75660300  0.35276300  1
  Ca  Ca14  1  0.51107900  0.25792400  0.05604200  1
  Ca  Ca15  1  0.48892100  0.74207600  0.94395800  1
  Ca  Ca16  1  0.74207600  0.48892100  0.94395800  1
  Ca  Ca17  1  0.25792400  0.51107900  0.05604200  1
  Ca  Ca18  1  0.26991400  0.00325000  0.06063500  1
  Ca  Ca19  1  0.73008600  0.99675000  0.93936500  1
  Ca  Ca20  1  0.99675000  0.73008600  0.93936500  1
  Ca  Ca21  1  0.00325000  0.26991400  0.06063500  1
  Ca  Ca22  1  0.42926000  0.67752600  0.38450600  1
  Ca  Ca23  1  0.57074000  0.32247400  0.61549400  1
  Ca  Ca24  1  0.32247400  0.57074000  0.61549400  1
  Ca  Ca25  1  0.67752600  0.42926000  0.38450600  1
  Ca  Ca26  1  0.76987600  0.00774100  0.57548600  1
  Ca  Ca27  1  0.23012400  0.99225900  0.42451400  1
  Ca  Ca28  1  0.99225900  0.23012400  0.42451400  1
  Ca  Ca29  1  0.00774100  0.76987600  0.57548600  1
  Ca  Ca30  1  0.42475000  0.07015500  0.24304900  1
  Ca  Ca31  1  0.57525000  0.92984500  0.75695100  1
  Ca  Ca32  1  0.92984500  0.57525000  0.75695100  1
  Ca  Ca33  1  0.07015500  0.42475000  0.24304900  1
  Ca  Ca34  1  0.40415700  0.40415700  0.25471700  1
  Ca  Ca35  1  0.59584300  0.59584300  0.74528300  1
  Ca  Ca36  1  0.50633300  0.18139500  0.43507500  1
  Ca  Ca37  1  0.49366700  0.81860500  0.56492500  1
  Ca  Ca38  1  0.81860500  0.49366700  0.56492500  1
  Ca  Ca39  1  0.18139500  0.50633300  0.43507500  1
  Ca  Ca40  1  0.74678300  0.74678300  0.42054300  1
  Ca  Ca41  1  0.25321700  0.25321700  0.57945700  1
  Cd  Cd0  1  0.84081300  0.84081300  0.75415600  1
  Cd  Cd1  1  0.15918700  0.15918700  0.24584400  1
  Cd  Cd2  1  0.99411600  0.99411600  0.79679300  1
  Cd  Cd3  1  0.00588400  0.00588400  0.20320700  1
  Cd  Cd4  1  0.60712500  0.85376900  0.24650100  1
  Cd  Cd5  1  0.39287500  0.14623100  0.75349900  1
  Cd  Cd6  1  0.14623100  0.39287500  0.75349900  1
  Cd  Cd7  1  0.85376900  0.60712500  0.24650100  1
  Bi  Bi0  1  0.74897600  0.74897600  0.61896800  1
  Bi  Bi1  1  0.25102400  0.25102400  0.38103200  1
  Bi  Bi2  1  0.53713800  0.53713800  0.07834000  1
  Bi  Bi3  1  0.46286200  0.46286200  0.92166000  1
  Bi  Bi4  1  0.84733300  0.84733300  0.25830800  1
  Bi  Bi5  1  0.15266700  0.15266700  0.74169200  1
  Bi  Bi6  1  0.57665600  0.57665600  0.53693900  1
  Bi  Bi7  1  0.42334400  0.42334400  0.46306100  1
  Bi  Bi8  1  0.22538000  0.91518100  0.24421700  1
  Bi  Bi9  1  0.77462000  0.08481900  0.75578300  1
  Bi  Bi10  1  0.08481900  0.77462000  0.75578300  1
  Bi  Bi11  1  0.91518100  0.22538000  0.24421700  1
  Bi  Bi12  1  0.53298800  0.92907400  0.39678500  1
  Bi  Bi13  1  0.46701200  0.07092600  0.60321500  1
  Bi  Bi14  1  0.07092600  0.46701200  0.60321500  1
  Bi  Bi15  1  0.92907400  0.53298800  0.39678500  1
  Bi  Bi16  1  0.75551300  0.24448700  0.50000000  1
  Bi  Bi17  1  0.24448700  0.75551300  0.50000000  1
  Bi  Bi18  1  0.93348300  0.93348300  0.05561100  1
  Bi  Bi19  1  0.06651700  0.06651700  0.94438900  1
  Bi  Bi20  1  0.26330000  0.26330000  0.10957000  1
  Bi  Bi21  1  0.73670000  0.73670000  0.89043000  1
  Bi  Bi22  1  0.75658900  0.24341100  0.00000000  1
  Bi  Bi23  1  0.24341100  0.75658900  0.00000000  1
  Bi  Bi24  1  0.54373600  0.94273300  0.09038100  1
  Bi  Bi25  1  0.45626400  0.05726700  0.90961900  1
  Bi  Bi26  1  0.05726700  0.45626400  0.90961900  1
  Bi  Bi27  1  0.94273300  0.54373600  0.09038100  1
  Bi  Bi28  1  0.60814400  0.60814400  0.25804500  1
  Bi  Bi29  1  0.39185600  0.39185600  0.74195500  1
  Bi  Bi30  1  0.94979800  0.94979800  0.43199200  1
  Bi  Bi31  1  0.05020200  0.05020200  0.56800800  1
  Bi  Bi32  1  0.60232600  0.23985800  0.25563100  1
  Bi  Bi33  1  0.39767400  0.76014200  0.74436900  1
  Bi  Bi34  1  0.76014200  0.39767400  0.74436900  1
  Bi  Bi35  1  0.23985800  0.60232600  0.25563100  1
loop_
_geom_bond_atom_site_label_1
_geom_bond_atom_site_label_2
_geom_bond_distance
_geom_bond_site_symmetry_2
Ca0 Cd7 3.456874 1_555
Ca0 Cd4 3.456874 1_555
Ca1 Cd6 3.456874 1_555
Ca1 Cd5 3.456874 1_555
Ca2 Cd3 3.443187 1_655
Ca3 Cd2 3.443187 1_455
Ca4 Cd2 3.443187 1_545
Ca5 Cd3 3.443187 1_565
Ca6 Cd4 3.430321 1_555
Ca7 Cd5 3.430321 1_555
Ca8 Cd6 3.430321 1_555
Ca9 Cd7 3.430321 1_555
Ca30 Cd1 3.433314 1_555
Ca30 Cd4 3.439049 1_545
Ca31 Cd0 3.433314 1_555
Ca31 Cd5 3.439049 1_565
Ca32 Cd0 3.433314 1_555
Ca32 Cd6 3.439049 1_655
Ca33 Cd1 3.433314 1_555
Ca33 Cd7 3.439049 1_455
Cd0 Cd2 2.884980 1_555
Cd1 Cd3 2.884980 1_555
Bi0 Cd0 2.963212 1_555
Bi0 Ca29 3.305441 1_655
Bi0 Ca26 3.305441 1_565
Bi0 Ca37 3.408382 1_555
Bi0 Ca38 3.408382 1_555
Bi0 Bi6 3.472445 1_555
Bi0 Ca35 3.477548 1_555
Bi0 Ca40 3.519397 1_555
Bi1 Cd1 2.963212 1_555
Bi1 Ca27 3.305441 1_545
Bi1 Ca28 3.305441 1_455
Bi1 Ca36 3.408382 1_555
Bi1 Ca39 3.408382 1_555
Bi1 Bi7 3.472445 1_555
Bi1 Ca34 3.477548 1_555
Bi1 Ca41 3.519397 1_555
Bi2 Bi3 3.129004 1_554
Bi2 Ca6 3.254676 1_555
Bi2 Ca9 3.254676 1_555
Bi2 Bi28 3.478487 1_555
Bi2 Ca15 3.481180 1_554
Bi2 Ca16 3.481180 1_554
Bi2 Ca17 3.534270 1_555
Bi2 Ca14 3.534270 1_555
Bi2 Ca0 3.560857 1_555
Bi2 Ca34 3.858787 1_555
Bi3 Ca7 3.254676 1_555
Bi3 Ca8 3.254676 1_555
Bi3 Ca14 3.481180 1_556
Bi3 Ca17 3.481180 1_556
Bi3 Ca15 3.534270 1_555
Bi3 Ca16 3.534270 1_555
Bi3 Ca1 3.560857 1_555
Bi3 Ca35 3.858787 1_555
Bi4 Cd3 2.974411 1_665
Bi4 Cd4 2.996163 1_555
Bi4 Cd7 2.996163 1_555
Bi4 Ca40 3.334914 1_555
Bi4 Ca13 3.436691 1_655
Bi4 Ca10 3.436691 1_565
Bi4 Ca2 3.624334 1_565
Bi4 Ca5 3.624334 1_655
Bi4 Ca0 3.641343 1_555
Bi5 Cd2 2.974411 1_445
Bi5 Cd6 2.996163 1_555
Bi5 Cd5 2.996163 1_555
Bi5 Ca41 3.334914 1_555
Bi5 Ca12 3.436691 1_455
Bi5 Ca11 3.436691 1_545
Bi5 Ca3 3.624334 1_545
Bi5 Ca4 3.624334 1_455
Bi5 Ca1 3.641343 1_555
Bi6 Bi7 3.096671 1_555
Bi6 Ca38 3.182989 1_555
Bi6 Ca37 3.182989 1_555
Bi6 Ca23 3.418625 1_555
Bi6 Ca24 3.418625 1_555
Bi6 Ca22 3.480554 1_555
Bi6 Ca25 3.480554 1_555
Bi6 Ca40 3.619164 1_555
Bi6 Ca35 3.723134 1_555
Bi7 Ca39 3.182989 1_555
Bi7 Ca36 3.182989 1_555
Bi7 Ca25 3.418625 1_555
Bi7 Ca22 3.418625 1_555
Bi7 Ca24 3.480554 1_555
Bi7 Ca23 3.480554 1_555
Bi7 Ca41 3.619164 1_555
Bi7 Ca34 3.723134 1_555
Bi8 Cd3 3.005532 1_565
Bi8 Cd1 3.107266 1_565
Bi8 Ca30 3.205138 1_565
Bi8 Ca13 3.329780 1_555
Bi8 Ca27 3.365888 1_555
Bi8 Ca5 3.384819 1_555
Bi8 Ca6 3.432723 1_555
Bi8 Ca18 3.441204 1_565
Bi9 Cd2 3.005532 1_545
Bi9 Cd0 3.107266 1_545
Bi9 Ca31 3.205138 1_545
Bi9 Ca12 3.329780 1_555
Bi9 Ca26 3.365888 1_555
Bi9 Ca4 3.384819 1_555
Bi9 Ca7 3.432723 1_555
Bi9 Ca19 3.441204 1_545
Bi10 Cd2 3.005532 1_455
Bi10 Cd0 3.107266 1_455
Bi10 Ca32 3.205138 1_455
Bi10 Ca11 3.329780 1_555
Bi10 Ca29 3.365888 1_555
Bi10 Ca3 3.384819 1_555
Bi10 Ca8 3.432723 1_555
Bi10 Ca20 3.441204 1_455
Bi11 Cd3 3.005532 1_655
Bi11 Cd1 3.107266 1_655
Bi11 Ca33 3.205138 1_655
Bi11 Ca10 3.329780 1_555
Bi11 Ca28 3.365888 1_555
Bi11 Ca2 3.384819 1_555
Bi11 Ca9 3.432723 1_555
Bi11 Ca21 3.441204 1_655
Bi12 Cd4 2.957681 1_555
Bi12 Ca36 3.228272 1_565
Bi12 Ca37 3.278661 1_555
Bi12 Ca10 3.430328 1_565
Bi12 Ca40 3.441155 1_555
Bi12 Ca22 3.449704 1_555
Bi12 Ca30 3.469406 1_565
Bi12 Ca27 3.831291 1_555
Bi13 Cd5 2.957681 1_555
Bi13 Ca37 3.228272 1_545
Bi13 Ca36 3.278661 1_555
Bi13 Ca11 3.430328 1_545
Bi13 Ca41 3.441155 1_555
Bi13 Ca23 3.449704 1_555
Bi13 Ca31 3.469406 1_545
Bi13 Ca26 3.831291 1_555
Bi14 Cd6 2.957681 1_555
Bi14 Ca38 3.228272 1_455
Bi14 Ca39 3.278661 1_555
Bi14 Ca12 3.430328 1_455
Bi14 Ca41 3.441155 1_555
Bi14 Ca24 3.449704 1_555
Bi14 Ca32 3.469406 1_455
Bi14 Ca29 3.831291 1_555
Bi15 Cd7 2.957681 1_555
Bi15 Ca39 3.228272 1_655
Bi15 Ca38 3.278661 1_555
Bi15 Ca13 3.430328 1_655
Bi15 Ca40 3.441155 1_555
Bi15 Ca25 3.449704 1_555
Bi15 Ca33 3.469406 1_655
Bi15 Ca28 3.831291 1_555
Bi16 Ca23 3.170133 1_555
Bi16 Ca25 3.170133 1_555
Bi16 Ca26 3.197021 1_555
Bi16 Ca28 3.197021 1_555
Bi16 Ca10 3.417428 1_555
Bi16 Ca12 3.417428 1_555
Bi16 Ca38 3.464909 1_555
Bi16 Ca36 3.464909 1_555
Bi17 Ca24 3.170133 1_555
Bi17 Ca22 3.170133 1_555
Bi17 Ca29 3.197021 1_555
Bi17 Ca27 3.197021 1_555
Bi17 Ca13 3.417428 1_555
Bi17 Ca11 3.417428 1_555
Bi17 Ca37 3.464909 1_555
Bi17 Ca39 3.464909 1_555
Bi18 Cd3 2.968016 1_665
Bi18 Bi19 3.037319 1_664
Bi18 Ca5 3.239272 1_655
Bi18 Ca2 3.239272 1_565
Bi18 Ca19 3.359188 1_554
Bi18 Ca20 3.359188 1_554
Bi18 Ca0 3.611550 1_555
Bi19 Cd2 2.968016 1_445
Bi19 Ca4 3.239272 1_455
Bi19 Ca3 3.239272 1_545
Bi19 Ca21 3.359188 1_556
Bi19 Ca18 3.359188 1_556
Bi19 Ca1 3.611550 1_555
Bi20 Cd1 2.995902 1_555
Bi20 Ca17 3.194677 1_555
Bi20 Ca14 3.194677 1_555
Bi20 Ca21 3.367377 1_555
Bi20 Ca18 3.367377 1_555
Bi20 Ca1 3.577335 1_554
Bi20 Ca34 3.680148 1_555
Bi20 Ca30 3.860485 1_555
Bi20 Ca33 3.860485 1_555
Bi21 Cd0 2.995902 1_555
Bi21 Ca15 3.194677 1_555
Bi21 Ca16 3.194677 1_555
Bi21 Ca19 3.367377 1_555
Bi21 Ca20 3.367377 1_555
Bi21 Ca0 3.577335 1_556
Bi21 Ca35 3.680148 1_555
Bi21 Ca31 3.860485 1_555
Bi21 Ca32 3.860485 1_555
Bi22 Ca14 3.180755 1_555
Bi22 Ca16 3.180755 1_554
Bi22 Ca2 3.256639 1_555
Bi22 Ca4 3.256639 1_554
Bi22 Ca21 3.311019 1_655
Bi22 Ca19 3.311019 1_544
Bi22 Ca9 3.421454 1_555
Bi22 Ca7 3.421454 1_554
Bi23 Ca17 3.180755 1_555
Bi23 Ca15 3.180755 1_554
Bi23 Ca5 3.256639 1_555
Bi23 Ca3 3.256639 1_554
Bi23 Ca18 3.311019 1_565
Bi23 Ca20 3.311019 1_454
Bi23 Ca6 3.421454 1_555
Bi23 Ca8 3.421454 1_554
Bi24 Cd4 3.061782 1_555
Bi24 Ca6 3.279212 1_555
Bi24 Ca2 3.300794 1_565
Bi24 Ca0 3.431006 1_555
Bi24 Ca30 3.438965 1_565
Bi24 Ca18 3.503886 1_565
Bi24 Ca19 3.558304 1_554
Bi24 Bi25 3.643686 1_564
Bi24 Ca15 3.748059 1_554
Bi24 Ca14 3.951747 1_565
Bi25 Cd5 3.061782 1_555
Bi25 Ca7 3.279212 1_555
Bi25 Ca3 3.300794 1_545
Bi25 Ca1 3.431006 1_555
Bi25 Ca31 3.438965 1_545
Bi25 Ca19 3.503886 1_545
Bi25 Ca18 3.558304 1_556
Bi25 Ca14 3.748059 1_556
Bi25 Ca15 3.951747 1_545
Bi26 Cd6 3.061782 1_555
Bi26 Ca8 3.279212 1_555
Bi26 Ca4 3.300794 1_455
Bi26 Ca1 3.431006 1_555
Bi26 Ca32 3.438965 1_455
Bi26 Ca20 3.503886 1_455
Bi26 Ca21 3.558304 1_556
Bi26 Bi27 3.643686 1_456
Bi26 Ca17 3.748059 1_556
Bi26 Ca16 3.951747 1_455
Bi27 Cd7 3.061782 1_555
Bi27 Ca9 3.279212 1_555
Bi27 Ca5 3.300794 1_655
Bi27 Ca0 3.431006 1_555
Bi27 Ca33 3.438965 1_655
Bi27 Ca21 3.503886 1_655
Bi27 Ca20 3.558304 1_554
Bi27 Ca16 3.748059 1_554
Bi27 Ca17 3.951747 1_655
Bi28 Cd7 3.053282 1_555
Bi28 Cd4 3.053282 1_555
Bi28 Ca25 3.219536 1_555
Bi28 Ca22 3.219536 1_555
Bi28 Ca9 3.502391 1_555
Bi28 Ca6 3.502391 1_555
Bi28 Ca0 3.638772 1_555
Bi28 Ca34 3.667717 1_555
Bi28 Ca40 3.882494 1_555
Bi29 Cd5 3.053282 1_555
Bi29 Cd6 3.053282 1_555
Bi29 Ca23 3.219536 1_555
Bi29 Ca24 3.219536 1_555
Bi29 Bi3 3.478487 1_555
Bi29 Ca8 3.502391 1_555
Bi29 Ca7 3.502391 1_555
Bi29 Ca1 3.638772 1_555
Bi29 Ca35 3.667717 1_555
Bi29 Ca41 3.882494 1_555
Bi30 Bi31 3.068268 1_665
Bi30 Ca10 3.133583 1_565
Bi30 Ca13 3.133583 1_655
Bi30 Ca29 3.409424 1_655
Bi30 Ca26 3.409424 1_565
Bi30 Ca27 3.545318 1_655
Bi30 Ca28 3.545318 1_565
Bi30 Bi4 3.649708 1_555
Bi30 Ca40 3.661130 1_555
Bi31 Ca12 3.133583 1_455
Bi31 Ca11 3.133583 1_545
Bi31 Ca27 3.409424 1_545
Bi31 Ca28 3.409424 1_455
Bi31 Ca26 3.545318 1_455
Bi31 Ca29 3.545318 1_545
Bi31 Bi5 3.649708 1_555
Bi31 Ca41 3.661130 1_555
Bi32 Ca34 3.128322 1_555
Bi32 Ca30 3.137196 1_555
Bi32 Ca9 3.203105 1_555
Bi32 Ca10 3.252300 1_555
Bi32 Ca2 3.315720 1_555
Bi32 Ca36 3.434727 1_555
Bi32 Ca25 3.501995 1_555
Bi32 Ca14 3.744069 1_555
Bi33 Ca35 3.128322 1_555
Bi33 Ca31 3.137196 1_555
Bi33 Ca8 3.203105 1_555
Bi33 Ca11 3.252300 1_555
Bi33 Ca3 3.315720 1_555
Bi33 Ca37 3.434727 1_555
Bi33 Ca24 3.501995 1_555
Bi33 Ca15 3.744069 1_555
Bi34 Ca35 3.128322 1_555
Bi34 Ca32 3.137196 1_555
Bi34 Ca7 3.203105 1_555
Bi34 Ca12 3.252300 1_555
Bi34 Ca4 3.315720 1_555
Bi34 Ca38 3.434727 1_555
Bi34 Ca23 3.501995 1_555
Bi34 Ca16 3.744069 1_555
Bi35 Ca34 3.128322 1_555
Bi35 Ca33 3.137196 1_555
Bi35 Ca6 3.203105 1_555
Bi35 Ca13 3.252300 1_555
Bi35 Ca5 3.315720 1_555
Bi35 Ca39 3.434727 1_555
Bi35 Ca22 3.501995 1_555
Bi35 Ca17 3.744069 1_555
