# generated using pymatgen
data_Na3MnO4
_symmetry_space_group_name_H-M   'P 1'
_cell_length_a   5.46141937
_cell_length_b   7.02580050
_cell_length_c   12.17812366
_cell_angle_alpha   89.99998270
_cell_angle_beta   89.99981510
_cell_angle_gamma   89.99999247
_symmetry_Int_Tables_number   1
_chemical_formula_structural   Na3MnO4
_chemical_formula_sum   'Na12 Mn4 O16'
_cell_volume   467.28487027
_cell_formula_units_Z   4
loop_
 _symmetry_equiv_pos_site_id
 _symmetry_equiv_pos_as_xyz
  1  'x, y, z'
loop_
 _atom_site_type_symbol
 _atom_site_label
 _atom_site_symmetry_multiplicity
 _atom_site_fract_x
 _atom_site_fract_y
 _atom_site_fract_z
 _atom_site_occupancy
  Na  Na0  1  0.71635551  0.50468495  0.66295763  1
  Na  Na1  1  0.28364833  0.49531598  0.33704162  1
  Na  Na2  1  0.21636973  0.49532891  0.83704221  1
  Na  Na3  1  0.28364841  0.00468385  0.33704167  1
  Na  Na4  1  0.78362826  0.50467070  0.16295647  1
  Na  Na5  1  0.71635549  0.99531503  0.66295761  1
  Na  Na6  1  0.78362833  0.99532926  0.16295646  1
  Na  Na7  1  0.21636965  0.00467104  0.83704217  1
  Na  Na8  1  0.27471483  0.75000007  0.57387391  1
  Na  Na9  1  0.72529017  0.24999921  0.42612282  1
  Na  Na10  1  0.77469043  0.24999993  0.92613779  1
  Na  Na11  1  0.22530735  0.75000000  0.07386237  1
  Mn  Mn0  1  0.70314767  0.75000088  0.90997648  1
  Mn  Mn1  1  0.29684480  0.24999908  0.09005305  1
  Mn  Mn2  1  0.20319932  0.25000013  0.59001916  1
  Mn  Mn3  1  0.79681609  0.75000002  0.40995438  1
  O  O0  1  0.39328095  0.75000011  0.90744104  1
  O  O1  1  0.60672704  0.24999978  0.09255798  1
  O  O2  1  0.89329338  0.24999997  0.59254742  1
  O  O3  1  0.10672205  0.75000001  0.40744662  1
  O  O4  1  0.79959790  0.94975117  0.84371191  1
  O  O5  1  0.20040442  0.05023157  0.15629559  1
  O  O6  1  0.29961677  0.05021773  0.65629374  1
  O  O7  1  0.20040444  0.44976792  0.15629559  1
  O  O8  1  0.70037515  0.94978451  0.34370136  1
  O  O9  1  0.79959806  0.55024929  0.84371191  1
  O  O10  1  0.70037529  0.55021506  0.34370132  1
  O  O11  1  0.29961685  0.44978289  0.65629388  1
  O  O12  1  0.70267771  0.74999997  0.54276486  1
  O  O13  1  0.29731814  0.25000005  0.45724769  1
  O  O14  1  0.20272672  0.24999977  0.95725455  1
  O  O15  1  0.79724873  0.75000015  0.04273873  1
loop_
_geom_bond_atom_site_label_1
_geom_bond_atom_site_label_2
_geom_bond_distance
_geom_bond_site_symmetry_2
Na0 O2 2.207004 1_555
Na0 O12 2.262440 1_555
Na0 O9 2.270388 1_555
Na0 O11 2.309866 1_555
Na1 O3 2.206946 1_555
Na1 O13 2.262548 1_555
Na1 O7 2.270276 1_555
Na1 O10 2.309798 1_555
Na2 O0 2.206811 1_555
Na2 O14 2.262663 1_555
Na2 O11 2.270302 1_555
Na2 O9 2.310067 1_455
Na3 O3 2.206945 1_545
Na3 O13 2.262550 1_555
Na3 O5 2.270276 1_555
Na3 O8 2.309797 1_545
Na4 O1 2.206784 1_555
Na4 O15 2.262703 1_555
Na4 O10 2.270265 1_555
Na4 O7 2.310067 1_655
Na5 O2 2.207004 1_565
Na5 O12 2.262440 1_555
Na5 O4 2.270387 1_555
Na5 O6 2.309867 1_565
Na6 O1 2.206781 1_565
Na6 O15 2.262702 1_555
Na6 O8 2.270266 1_555
Na6 O5 2.310066 1_665
Na7 O0 2.206809 1_545
Na7 O14 2.262662 1_555
Na7 O6 2.270303 1_555
Na7 O4 2.310067 1_445
Na8 O3 2.224766 1_555
Na8 O11 2.339862 1_555
Na8 O6 2.339865 1_565
Na8 O12 2.367788 1_555
Na9 O2 2.224760 1_555
Na9 O8 2.339859 1_545
Na9 O10 2.339866 1_555
Na9 O13 2.367868 1_555
Na10 O1 2.224616 1_556
Na10 O4 2.340095 1_545
Na10 O9 2.340098 1_555
Na10 O14 2.368202 1_655
Na11 O0 2.224652 1_554
Na11 O5 2.340023 1_565
Na11 O7 2.340025 1_555
Na11 O15 2.368335 1_455
Mn0 O0 1.692594 1_555
Mn0 O15 1.696511 1_556
Mn0 O4 1.702419 1_555
Mn0 O9 1.702427 1_555
Mn1 O1 1.692672 1_555
Mn1 O14 1.696960 1_554
Mn1 O5 1.702375 1_555
Mn1 O7 1.702382 1_555
Mn2 O2 1.692806 1_455
Mn2 O13 1.696645 1_555
Mn2 O6 1.702608 1_555
Mn2 O11 1.702612 1_555
Mn3 O3 1.692802 1_655
Mn3 O12 1.697130 1_555
Mn3 O8 1.702536 1_555
Mn3 O10 1.702539 1_555
