# generated using pymatgen
data_Ho2Cr2Co15
_symmetry_space_group_name_H-M   'P 1'
_cell_length_a   8.08925500
_cell_length_b   8.26235514
_cell_length_c   8.26235514
_cell_angle_alpha   119.96618328
_cell_angle_beta   90.00000000
_cell_angle_gamma   90.00000000
_symmetry_Int_Tables_number   1
_chemical_formula_structural   Ho2Cr2Co15
_chemical_formula_sum   'Ho4 Cr4 Co30'
_cell_volume   478.40395777
_cell_formula_units_Z   2
loop_
 _symmetry_equiv_pos_site_id
 _symmetry_equiv_pos_as_xyz
  1  'x, y, z'
loop_
 _atom_site_type_symbol
 _atom_site_label
 _atom_site_symmetry_multiplicity
 _atom_site_fract_x
 _atom_site_fract_y
 _atom_site_fract_z
 _atom_site_occupancy
  Ho  Ho0  1  0.75000000  0.99986500  0.00013500  1
  Ho  Ho1  1  0.25000000  0.00013500  0.99986500  1
  Ho  Ho2  1  0.25000000  0.66646200  0.33353800  1
  Ho  Ho3  1  0.75000000  0.33353800  0.66646200  1
  Cr  Cr0  1  0.62430800  0.66674500  0.33325500  1
  Cr  Cr1  1  0.37569200  0.33325500  0.66674500  1
  Cr  Cr2  1  0.12430800  0.33325500  0.66674500  1
  Cr  Cr3  1  0.87569200  0.66674500  0.33325500  1
  Co  Co0  1  0.50000000  0.50000000  0.00000000  1
  Co  Co1  1  0.50000000  0.50000000  0.50000000  1
  Co  Co2  1  0.50000000  0.00000000  0.50000000  1
  Co  Co3  1  0.00000000  0.50000000  0.00000000  1
  Co  Co4  1  0.00000000  0.50000000  0.50000000  1
  Co  Co5  1  0.00000000  0.00000000  0.50000000  1
  Co  Co6  1  0.75000000  0.67100300  0.03629500  1
  Co  Co7  1  0.75000000  0.36533000  0.32895500  1
  Co  Co8  1  0.75000000  0.96367000  0.63474500  1
  Co  Co9  1  0.75000000  0.36525500  0.03633000  1
  Co  Co10  1  0.75000000  0.96370500  0.32899700  1
  Co  Co11  1  0.75000000  0.67104500  0.63467000  1
  Co  Co12  1  0.25000000  0.32899700  0.96370500  1
  Co  Co13  1  0.25000000  0.63467000  0.67104500  1
  Co  Co14  1  0.25000000  0.03633000  0.36525500  1
  Co  Co15  1  0.25000000  0.63474500  0.96367000  1
  Co  Co16  1  0.25000000  0.03629500  0.67100300  1
  Co  Co17  1  0.25000000  0.32895500  0.36533000  1
  Co  Co18  1  0.48345400  0.83309300  0.66622400  1
  Co  Co19  1  0.48368700  0.83328500  0.16671500  1
  Co  Co20  1  0.48345400  0.33377600  0.16690700  1
  Co  Co21  1  0.51654600  0.16690700  0.33377600  1
  Co  Co22  1  0.51631300  0.16671500  0.83328500  1
  Co  Co23  1  0.51654600  0.66622400  0.83309300  1
  Co  Co24  1  0.98345400  0.16690700  0.33377600  1
  Co  Co25  1  0.98368700  0.16671500  0.83328500  1
  Co  Co26  1  0.98345400  0.66622400  0.83309300  1
  Co  Co27  1  0.01654600  0.83309300  0.66622400  1
  Co  Co28  1  0.01631300  0.83328500  0.16671500  1
  Co  Co29  1  0.01654600  0.33377600  0.16690700  1
loop_
_geom_bond_atom_site_label_1
_geom_bond_atom_site_label_2
_geom_bond_distance
_geom_bond_site_symmetry_2
Cr0 Cr3 2.033509 1_555
Cr0 Ho2 3.027876 1_555
Cr1 Cr2 2.033509 1_555
Cr1 Ho3 3.027876 1_555
Cr2 Ho3 3.027876 1_455
Cr3 Ho2 3.027876 1_655
Co0 Co20 2.387040 1_555
Co0 Co23 2.387040 1_554
Co0 Co22 2.389251 1_554
Co0 Co19 2.389251 1_555
Co0 Co12 2.398472 1_554
Co0 Co6 2.398472 1_555
Co0 Co9 2.398575 1_555
Co0 Co15 2.398575 1_554
Co0 Cr1 2.588674 1_554
Co0 Cr0 2.588674 1_555
Co0 Ho3 3.128817 1_554
Co0 Ho2 3.128817 1_555
Co1 Co23 2.387983 1_555
Co1 Co20 2.387983 1_555
Co1 Co21 2.387983 1_555
Co1 Co18 2.387983 1_555
Co1 Co7 2.398787 1_555
Co1 Co13 2.398787 1_555
Co1 Co11 2.398787 1_555
Co1 Co17 2.398787 1_555
Co1 Cr0 2.589099 1_555
Co1 Cr1 2.589099 1_555
Co1 Ho3 3.124537 1_555
Co1 Ho2 3.124537 1_555
Co2 Co21 2.387040 1_555
Co2 Co22 2.389251 1_555
Co2 Co8 2.398575 1_545
Co2 Cr0 2.588674 1_545
Co2 Cr1 2.588674 1_555
Co2 Ho2 3.128817 1_545
Co2 Ho3 3.128817 1_555
Co3 Co6 2.398472 1_455
Co3 Co9 2.398575 1_455
Co3 Cr2 2.588674 1_554
Co3 Cr3 2.588674 1_455
Co3 Ho3 3.128817 1_454
Co3 Ho2 3.128817 1_555
Co4 Co7 2.398787 1_455
Co4 Cr3 2.589099 1_455
Co4 Cr2 2.589099 1_555
Co4 Ho3 3.124537 1_455
Co4 Ho2 3.124537 1_555
Co5 Co8 2.398575 1_445
Co5 Cr3 2.588674 1_445
Co5 Cr2 2.588674 1_555
Co5 Ho2 3.128817 1_545
Co5 Ho3 3.128817 1_455
Co6 Co9 2.526343 1_555
Co6 Cr3 2.672332 1_555
Co6 Cr0 2.672332 1_555
Co6 Ho0 2.878067 1_555
Co6 Ho3 2.932624 1_554
Co7 Co9 2.417462 1_555
Co7 Cr0 2.673714 1_555
Co7 Cr3 2.673714 1_555
Co7 Ho0 2.881631 1_545
Co7 Ho3 2.928661 1_555
Co8 Cr3 2.674448 1_555
Co8 Cr0 2.674448 1_555
Co8 Ho0 2.881278 1_556
Co8 Ho3 2.933883 1_565
Co9 Cr0 2.674448 1_555
Co9 Cr3 2.674448 1_555
Co9 Ho0 2.881278 1_545
Co9 Ho3 2.933883 1_554
Co10 Co2 2.398472 1_565
Co10 Co5 2.398472 1_665
Co10 Co6 2.419644 1_555
Co10 Co19 2.481234 1_555
Co10 Co28 2.481234 1_655
Co10 Co24 2.514049 1_565
Co10 Co21 2.514049 1_565
Co10 Co8 2.526343 1_555
Co10 Cr3 2.672332 1_555
Co10 Cr0 2.672332 1_555
Co10 Ho0 2.878067 1_555
Co10 Ho3 2.932624 1_565
Co11 Co4 2.398787 1_655
Co11 Co8 2.417462 1_555
Co11 Co27 2.482122 1_655
Co11 Co18 2.482122 1_555
Co11 Co23 2.514141 1_555
Co11 Co26 2.514141 1_555
Co11 Co7 2.527217 1_555
Co11 Cr0 2.673714 1_555
Co11 Cr3 2.673714 1_555
Co11 Ho0 2.881631 1_556
Co11 Ho3 2.928661 1_555
Co12 Co3 2.398472 1_556
Co12 Co16 2.419644 1_555
Co12 Co22 2.481234 1_555
Co12 Co25 2.481234 1_455
Co12 Co29 2.514049 1_556
Co12 Co20 2.514049 1_556
Co12 Co15 2.526343 1_555
Co12 Cr1 2.672332 1_555
Co12 Cr2 2.672332 1_555
Co12 Ho1 2.878067 1_555
Co12 Ho2 2.932624 1_556
Co13 Co4 2.398787 1_555
Co13 Co15 2.417462 1_555
Co13 Co26 2.482122 1_455
Co13 Co23 2.482122 1_555
Co13 Co27 2.514141 1_555
Co13 Co18 2.514141 1_555
Co13 Co17 2.527217 1_555
Co13 Cr2 2.673714 1_555
Co13 Cr1 2.673714 1_555
Co13 Ho1 2.881631 1_565
Co13 Ho2 2.928661 1_555
Co14 Co2 2.398575 1_555
Co14 Co5 2.398575 1_555
Co14 Co17 2.417462 1_555
Co14 Co24 2.482127 1_455
Co14 Co21 2.482127 1_555
Co14 Co19 2.515876 1_545
Co14 Co28 2.515876 1_545
Co14 Co16 2.526343 1_555
Co14 Cr1 2.674448 1_555
Co14 Cr2 2.674448 1_555
Co14 Ho1 2.881278 1_554
Co14 Ho2 2.933883 1_545
Co15 Co3 2.398575 1_556
Co15 Co23 2.482127 1_555
Co15 Co26 2.482127 1_455
Co15 Co19 2.515876 1_556
Co15 Co28 2.515876 1_556
Co15 Cr2 2.674448 1_555
Co15 Cr1 2.674448 1_555
Co15 Ho1 2.881278 1_565
Co15 Ho2 2.933883 1_556
Co16 Co5 2.398472 1_555
Co16 Co2 2.398472 1_555
Co16 Co22 2.481234 1_555
Co16 Co25 2.481234 1_455
Co16 Co27 2.514049 1_545
Co16 Co18 2.514049 1_545
Co16 Cr1 2.672332 1_555
Co16 Cr2 2.672332 1_555
Co16 Ho1 2.878067 1_555
Co16 Ho2 2.932624 1_545
Co17 Co4 2.398787 1_555
Co17 Co21 2.482122 1_555
Co17 Co24 2.482122 1_455
Co17 Co20 2.514141 1_555
Co17 Co29 2.514141 1_555
Co17 Cr1 2.673714 1_555
Co17 Cr2 2.673714 1_555
Co17 Ho1 2.881631 1_554
Co17 Ho2 2.928661 1_555
Co18 Co2 2.387040 1_565
Co18 Co23 2.402584 1_555
Co18 Co22 2.402765 1_565
Co18 Co8 2.482127 1_555
Co18 Cr0 2.641696 1_555
Co18 Ho2 3.039242 1_555
Co18 Ho1 3.044600 1_565
Co18 Ho0 3.218931 1_556
Co19 Co2 2.389251 1_565
Co19 Co21 2.402765 1_565
Co19 Co23 2.402765 1_554
Co19 Co6 2.481234 1_555
Co19 Cr0 2.640501 1_555
Co19 Ho2 3.044840 1_555
Co19 Ho1 3.045142 1_564
Co19 Ho0 3.212774 1_555
Co20 Co21 2.402584 1_555
Co20 Co22 2.402765 1_554
Co20 Co7 2.482122 1_555
Co20 Co9 2.482127 1_555
Co20 Cr0 2.641696 1_555
Co20 Ho2 3.039242 1_555
Co20 Ho1 3.044600 1_554
Co20 Ho0 3.218931 1_545
Co21 Co7 2.514141 1_555
Co21 Cr1 2.641696 1_555
Co21 Ho3 3.039242 1_555
Co21 Ho0 3.044600 1_545
Co21 Ho1 3.218931 1_554
Co22 Co9 2.515876 1_556
Co22 Co8 2.515876 1_545
Co22 Cr1 2.640501 1_555
Co22 Ho3 3.044840 1_555
Co22 Ho0 3.045142 1_546
Co22 Ho1 3.212774 1_555
Co23 Co6 2.514049 1_556
Co23 Cr1 2.641696 1_555
Co23 Ho3 3.039242 1_555
Co23 Ho0 3.044600 1_556
Co23 Ho1 3.218931 1_565
Co24 Co5 2.387040 1_655
Co24 Co4 2.387983 1_655
Co24 Co29 2.402584 1_655
Co24 Co28 2.402765 1_645
Co24 Co7 2.514141 1_555
Co24 Cr2 2.641696 1_655
Co24 Ho3 3.039242 1_555
Co24 Ho0 3.044600 1_545
Co24 Ho1 3.218931 1_654
Co25 Co3 2.389251 1_656
Co25 Co5 2.389251 1_655
Co25 Co29 2.402765 1_656
Co25 Co27 2.402765 1_645
Co25 Co9 2.515876 1_556
Co25 Co8 2.515876 1_545
Co25 Cr2 2.640501 1_655
Co25 Ho3 3.044840 1_555
Co25 Ho0 3.045142 1_546
Co25 Ho1 3.212774 1_655
Co26 Co3 2.387040 1_656
Co26 Co4 2.387983 1_655
Co26 Co27 2.402584 1_655
Co26 Co28 2.402765 1_656
Co26 Co6 2.514049 1_556
Co26 Cr2 2.641696 1_655
Co26 Ho3 3.039242 1_555
Co26 Ho0 3.044600 1_556
Co26 Ho1 3.218931 1_665
Co27 Co5 2.387040 1_565
Co27 Co4 2.387983 1_555
Co27 Co8 2.482127 1_455
Co27 Cr3 2.641696 1_455
Co27 Ho2 3.039242 1_555
Co27 Ho1 3.044600 1_565
Co27 Ho0 3.218931 1_456
Co28 Co5 2.389251 1_565
Co28 Co3 2.389251 1_555
Co28 Co6 2.481234 1_455
Co28 Cr3 2.640501 1_455
Co28 Ho2 3.044840 1_555
Co28 Ho1 3.045142 1_564
Co28 Ho0 3.212774 1_455
Co29 Co3 2.387040 1_555
Co29 Co4 2.387983 1_555
Co29 Co7 2.482122 1_455
Co29 Co9 2.482127 1_455
Co29 Cr3 2.641696 1_455
Co29 Ho2 3.039242 1_555
Co29 Ho1 3.044600 1_554
Co29 Ho0 3.218931 1_445
