# generated using pymatgen
data_ErFe5P3
_symmetry_space_group_name_H-M   'P 1'
_cell_length_a   3.63624200
_cell_length_b   10.23429200
_cell_length_c   11.77239800
_cell_angle_alpha   90.00000000
_cell_angle_beta   90.00000000
_cell_angle_gamma   90.00000000
_symmetry_Int_Tables_number   1
_chemical_formula_structural   ErFe5P3
_chemical_formula_sum   'Er4 Fe20 P12'
_cell_volume   438.10228561
_cell_formula_units_Z   4
loop_
 _symmetry_equiv_pos_site_id
 _symmetry_equiv_pos_as_xyz
  1  'x, y, z'
loop_
 _atom_site_type_symbol
 _atom_site_label
 _atom_site_symmetry_multiplicity
 _atom_site_fract_x
 _atom_site_fract_y
 _atom_site_fract_z
 _atom_site_occupancy
  Er  Er0  1  0.25000000  0.58121300  0.70453400  1
  Er  Er1  1  0.25000000  0.91878700  0.20453400  1
  Er  Er2  1  0.75000000  0.41878700  0.29546600  1
  Er  Er3  1  0.75000000  0.08121300  0.79546600  1
  Fe  Fe0  1  0.25000000  0.70775900  0.98806800  1
  Fe  Fe1  1  0.25000000  0.79224100  0.48806800  1
  Fe  Fe2  1  0.75000000  0.29224100  0.01193200  1
  Fe  Fe3  1  0.75000000  0.20775900  0.51193200  1
  Fe  Fe4  1  0.25000000  0.40502500  0.48990200  1
  Fe  Fe5  1  0.25000000  0.09497600  0.98990200  1
  Fe  Fe6  1  0.75000000  0.59497500  0.51009800  1
  Fe  Fe7  1  0.75000000  0.90502500  0.01009800  1
  Fe  Fe8  1  0.25000000  0.21973200  0.17625300  1
  Fe  Fe9  1  0.25000000  0.28026800  0.67625300  1
  Fe  Fe10  1  0.75000000  0.78026800  0.82374700  1
  Fe  Fe11  1  0.75000000  0.71973200  0.32374700  1
  Fe  Fe12  1  0.25000000  0.87674800  0.70102700  1
  Fe  Fe13  1  0.25000000  0.62325200  0.20102700  1
  Fe  Fe14  1  0.75000000  0.12325200  0.29897300  1
  Fe  Fe15  1  0.75000000  0.37674800  0.79897300  1
  Fe  Fe16  1  0.25000000  0.46373400  0.93319100  1
  Fe  Fe17  1  0.25000000  0.03626600  0.43319100  1
  Fe  Fe18  1  0.75000000  0.53626600  0.06680900  1
  Fe  Fe19  1  0.75000000  0.96373400  0.56680900  1
  P  P0  1  0.25000000  0.42124600  0.11292800  1
  P  P1  1  0.25000000  0.07875400  0.61292800  1
  P  P2  1  0.75000000  0.57875400  0.88707200  1
  P  P3  1  0.75000000  0.92124600  0.38707200  1
  P  P4  1  0.25000000  0.26522000  0.87147400  1
  P  P5  1  0.25000000  0.23478000  0.37147400  1
  P  P6  1  0.75000000  0.73478000  0.12852600  1
  P  P7  1  0.75000000  0.76522000  0.62852600  1
  P  P8  1  0.25000000  0.60051000  0.39582300  1
  P  P9  1  0.25000000  0.89949000  0.89582300  1
  P  P10  1  0.75000000  0.39949000  0.60417700  1
  P  P11  1  0.75000000  0.10051000  0.10417700  1
loop_
_geom_bond_atom_site_label_1
_geom_bond_atom_site_label_2
_geom_bond_distance
_geom_bond_site_symmetry_2
Er0 P7 2.766333 1_455
Er0 P7 2.766333 1_555
Er0 P2 2.814962 1_455
Er0 P2 2.814962 1_555
Er0 P10 2.856615 1_555
Er0 P10 2.856615 1_455
Er0 Fe6 2.926572 1_555
Er0 Fe6 2.926572 1_455
Er0 Fe16 2.948147 1_555
Er0 Fe15 2.986702 1_455
Er0 Fe15 2.986702 1_555
Er0 Fe12 3.024873 1_555
Er0 Fe10 3.070064 1_555
Er0 Fe10 3.070064 1_455
Er0 Fe9 3.097901 1_555
Er0 Fe4 3.104153 1_555
Er1 P6 2.766333 1_555
Er1 P6 2.766333 1_455
Er1 P3 2.814962 1_455
Er1 P3 2.814962 1_555
Er1 P11 2.856615 1_465
Er1 P11 2.856615 1_565
Er1 Fe7 2.926572 1_555
Er1 Fe7 2.926572 1_455
Er1 Fe17 2.948147 1_565
Er1 Fe14 2.986702 1_565
Er1 Fe14 2.986702 1_465
Er1 Fe13 3.024873 1_555
Er1 Fe11 3.070064 1_555
Er1 Fe11 3.070064 1_455
Er1 Fe8 3.097901 1_565
Er1 Fe5 3.104159 1_564
Er2 P5 2.766333 1_555
Er2 P5 2.766333 1_655
Er2 P0 2.814962 1_555
Er2 P0 2.814962 1_655
Er2 P8 2.856615 1_655
Er2 P8 2.856615 1_555
Er2 Fe4 2.926572 1_655
Er2 Fe4 2.926572 1_555
Er2 Fe18 2.948147 1_555
Er2 Fe13 2.986702 1_555
Er2 Fe13 2.986702 1_655
Er2 Fe14 3.024873 1_555
Er2 Fe8 3.070064 1_555
Er2 Fe8 3.070064 1_655
Er2 Fe11 3.097901 1_555
Er2 Fe6 3.104153 1_555
Er3 P4 2.766333 1_555
Er3 P4 2.766333 1_655
Er3 P1 2.814962 1_555
Er3 P1 2.814962 1_655
Er3 P9 2.856615 1_545
Er3 P9 2.856615 1_645
Er3 Fe5 2.926572 1_555
Er3 Fe5 2.926572 1_655
Er3 Fe19 2.948147 1_545
Er3 Fe12 2.986702 1_645
Er3 Fe12 2.986702 1_545
Er3 Fe15 3.024873 1_555
Er3 Fe9 3.070064 1_655
Er3 Fe9 3.070064 1_555
Er3 Fe10 3.097901 1_545
Er3 Fe7 3.104153 1_546
Fe0 P9 2.242683 1_555
Fe0 P6 2.473094 1_456
Fe0 P6 2.473094 1_556
Fe0 P2 2.542111 1_555
Fe0 P2 2.542111 1_455
Fe1 P8 2.242683 1_555
Fe1 P7 2.473094 1_455
Fe1 P7 2.473094 1_555
Fe1 P3 2.542111 1_555
Fe1 P3 2.542111 1_455
Fe2 P11 2.242683 1_555
Fe2 P4 2.473094 1_654
Fe2 P4 2.473094 1_554
Fe2 P0 2.542111 1_555
Fe2 P0 2.542111 1_655
Fe3 P10 2.242683 1_555
Fe3 P5 2.473094 1_555
Fe3 P5 2.473094 1_655
Fe3 P1 2.542111 1_655
Fe3 P1 2.542111 1_555
Fe4 P5 2.231475 1_555
Fe4 P10 2.262428 1_555
Fe4 P10 2.262428 1_455
Fe4 P8 2.286753 1_555
Fe5 P4 2.231467 1_555
Fe5 P11 2.262428 1_556
Fe5 P11 2.262428 1_456
Fe5 P9 2.286762 1_545
Fe6 P7 2.231475 1_555
Fe6 P8 2.262428 1_655
Fe6 P8 2.262428 1_555
Fe6 P10 2.286753 1_555
Fe7 P6 2.231475 1_555
Fe7 P9 2.262428 1_654
Fe7 P9 2.262428 1_554
Fe7 P11 2.286753 1_565
Fe8 P0 2.192955 1_555
Fe8 P5 2.303374 1_555
Fe8 P11 2.348255 1_555
Fe8 P11 2.348255 1_455
Fe9 P1 2.192955 1_555
Fe9 P4 2.303374 1_555
Fe9 P10 2.348255 1_555
Fe9 P10 2.348255 1_455
Fe10 P2 2.192955 1_555
Fe10 P7 2.303374 1_555
Fe10 P9 2.348255 1_555
Fe10 P9 2.348255 1_655
Fe11 P3 2.192955 1_555
Fe11 P6 2.303374 1_555
Fe11 P8 2.348255 1_655
Fe11 P8 2.348255 1_555
Fe12 P9 2.304997 1_555
Fe12 P7 2.310165 1_555
Fe12 P7 2.310165 1_455
Fe12 P1 2.312952 1_565
Fe13 P8 2.304997 1_555
Fe13 P6 2.310165 1_455
Fe13 P6 2.310165 1_555
Fe13 P0 2.312952 1_555
Fe14 P11 2.304997 1_555
Fe14 P5 2.310165 1_555
Fe14 P5 2.310165 1_655
Fe14 P3 2.312952 1_545
Fe15 P10 2.304997 1_555
Fe15 P4 2.310165 1_555
Fe15 P4 2.310165 1_655
Fe15 P2 2.312952 1_555
Fe16 P4 2.157658 1_555
Fe16 P0 2.160154 1_556
Fe16 P2 2.232939 1_555
Fe16 P2 2.232939 1_455
Fe17 P5 2.157658 1_555
Fe17 P1 2.160154 1_555
Fe17 P3 2.232939 1_445
Fe17 P3 2.232939 1_545
Fe18 P6 2.157658 1_555
Fe18 P2 2.160154 1_554
Fe18 P0 2.232939 1_655
Fe18 P0 2.232939 1_555
Fe19 P7 2.157658 1_555
Fe19 P3 2.160154 1_555
Fe19 P1 2.232939 1_665
Fe19 P1 2.232939 1_565
