# generated using pymatgen
data_HfSiPt
_symmetry_space_group_name_H-M   'P 1'
_cell_length_a   3.88441596
_cell_length_b   6.55725777
_cell_length_c   7.51744379
_cell_angle_alpha   90.00000000
_cell_angle_beta   90.00000000
_cell_angle_gamma   90.00000000
_symmetry_Int_Tables_number   1
_chemical_formula_structural   HfSiPt
_chemical_formula_sum   'Hf4 Si4 Pt4'
_cell_volume   191.47768833
_cell_formula_units_Z   4
loop_
 _symmetry_equiv_pos_site_id
 _symmetry_equiv_pos_as_xyz
  1  'x, y, z'
loop_
 _atom_site_type_symbol
 _atom_site_label
 _atom_site_symmetry_multiplicity
 _atom_site_fract_x
 _atom_site_fract_y
 _atom_site_fract_z
 _atom_site_occupancy
  Hf  Hf0  1  0.75000000  0.47478814  0.67713749  1
  Hf  Hf1  1  0.25000000  0.02521186  0.17713749  1
  Hf  Hf2  1  0.75000000  0.97478814  0.82286251  1
  Hf  Hf3  1  0.25000000  0.52521186  0.32286251  1
  Si  Si0  1  0.25000000  0.26102155  0.87756288  1
  Si  Si1  1  0.25000000  0.76102155  0.62243712  1
  Si  Si2  1  0.75000000  0.73897845  0.12243712  1
  Si  Si3  1  0.75000000  0.23897845  0.37756288  1
  Pt  Pt0  1  0.25000000  0.64553081  0.93417776  1
  Pt  Pt1  1  0.25000000  0.14553081  0.56582224  1
  Pt  Pt2  1  0.75000000  0.85446919  0.43417776  1
  Pt  Pt3  1  0.75000000  0.35446919  0.06582224  1
loop_
_geom_bond_atom_site_label_1
_geom_bond_atom_site_label_2
_geom_bond_distance
_geom_bond_site_symmetry_2
Hf0 Si3 2.731776 1_555
Hf0 Si1 2.732040 1_655
Hf0 Si1 2.732040 1_555
Hf0 Si0 2.829682 1_655
Hf0 Si0 2.829682 1_555
Hf0 Pt0 2.959630 1_555
Hf0 Pt0 2.959630 1_655
Hf0 Pt1 3.022219 1_555
Hf0 Pt1 3.022219 1_655
Hf0 Pt3 3.026558 1_556
Hf0 Pt2 3.087768 1_555
Hf1 Si0 2.731776 1_554
Hf1 Si2 2.732040 1_445
Hf1 Si2 2.732040 1_545
Hf1 Si3 2.829682 1_555
Hf1 Si3 2.829682 1_455
Hf1 Pt2 2.959630 1_445
Hf1 Pt2 2.959630 1_545
Hf1 Pt3 3.022219 1_555
Hf1 Pt3 3.022219 1_455
Hf1 Pt1 3.026558 1_555
Hf1 Pt0 3.087768 1_544
Hf2 Si2 2.731776 1_556
Hf2 Si0 2.732040 1_565
Hf2 Si0 2.732040 1_665
Hf2 Si1 2.829682 1_555
Hf2 Si1 2.829682 1_655
Hf2 Pt1 2.959630 1_565
Hf2 Pt1 2.959630 1_665
Hf2 Pt0 3.022219 1_655
Hf2 Pt0 3.022219 1_555
Hf2 Pt2 3.026558 1_555
Hf2 Pt3 3.087768 1_566
Hf3 Si1 2.731776 1_555
Hf3 Si3 2.732040 1_555
Hf3 Si3 2.732040 1_455
Hf3 Si2 2.829682 1_555
Hf3 Si2 2.829682 1_455
Hf3 Pt3 2.959630 1_555
Hf3 Pt3 2.959630 1_455
Hf3 Pt2 3.022219 1_555
Hf3 Pt2 3.022219 1_455
Hf3 Pt0 3.026558 1_554
Hf3 Pt1 3.087768 1_555
Pt0 Si1 2.462817 1_555
Pt0 Si2 2.480024 1_556
Pt0 Si2 2.480024 1_456
Pt0 Si0 2.556995 1_555
Pt1 Si0 2.462817 1_555
Pt1 Si3 2.480024 1_455
Pt1 Si3 2.480024 1_555
Pt1 Si1 2.556995 1_545
Pt2 Si2 2.462817 1_555
Pt2 Si1 2.480024 1_555
Pt2 Si1 2.480024 1_655
Pt2 Si3 2.556995 1_565
Pt3 Si3 2.462817 1_555
Pt3 Si0 2.480024 1_654
Pt3 Si0 2.480024 1_554
Pt3 Si2 2.556995 1_555
