# generated using pymatgen
data_LiSbO2
_symmetry_space_group_name_H-M   'P 1'
_cell_length_a   4.87542661
_cell_length_b   5.55536980
_cell_length_c   17.93134325
_cell_angle_alpha   90.00000000
_cell_angle_beta   90.00000000
_cell_angle_gamma   90.10095525
_symmetry_Int_Tables_number   1
_chemical_formula_structural   LiSbO2
_chemical_formula_sum   'Li8 Sb8 O16'
_cell_volume   485.66605130
_cell_formula_units_Z   8
loop_
 _symmetry_equiv_pos_site_id
 _symmetry_equiv_pos_as_xyz
  1  'x, y, z'
loop_
 _atom_site_type_symbol
 _atom_site_label
 _atom_site_symmetry_multiplicity
 _atom_site_fract_x
 _atom_site_fract_y
 _atom_site_fract_z
 _atom_site_occupancy
  Li  Li0  1  0.73345301  0.45898304  0.71335335  1
  Li  Li1  1  0.26654699  0.04101696  0.21335335  1
  Li  Li2  1  0.26654699  0.54101696  0.28664665  1
  Li  Li3  1  0.73345301  0.95898304  0.78664665  1
  Li  Li4  1  0.23356970  0.12286809  0.71349321  1
  Li  Li5  1  0.76643030  0.37713191  0.21349321  1
  Li  Li6  1  0.76643030  0.87713191  0.28650679  1
  Li  Li7  1  0.23356970  0.62286809  0.78650679  1
  Sb  Sb0  1  0.74554441  0.92526615  0.10030183  1
  Sb  Sb1  1  0.25445559  0.57473385  0.60030183  1
  Sb  Sb2  1  0.25445559  0.07473385  0.89969817  1
  Sb  Sb3  1  0.74554441  0.42526615  0.39969817  1
  Sb  Sb4  1  0.75537244  0.50514310  0.89946859  1
  Sb  Sb5  1  0.24462756  0.99485690  0.39946859  1
  Sb  Sb6  1  0.24462756  0.49485690  0.10053141  1
  Sb  Sb7  1  0.75537244  0.00514310  0.60053141  1
  O  O0  1  0.66487170  0.04302535  0.19709232  1
  O  O1  1  0.33512830  0.45697465  0.69709232  1
  O  O2  1  0.33512830  0.95697465  0.80290768  1
  O  O3  1  0.66487170  0.54302535  0.30290768  1
  O  O4  1  0.83510240  0.62500958  0.80288938  1
  O  O5  1  0.16489760  0.87499042  0.30288938  1
  O  O6  1  0.16489760  0.37499042  0.19711062  1
  O  O7  1  0.83510240  0.12500958  0.69711062  1
  O  O8  1  0.63888616  0.58087867  0.12004510  1
  O  O9  1  0.36111384  0.91912133  0.62004510  1
  O  O10  1  0.36111384  0.41912133  0.87995490  1
  O  O11  1  0.63888616  0.08087867  0.37995490  1
  O  O12  1  0.86093338  0.16162403  0.87979154  1
  O  O13  1  0.13906662  0.33837597  0.37979154  1
  O  O14  1  0.13906662  0.83837597  0.12020846  1
  O  O15  1  0.86093338  0.66162403  0.62020846  1
loop_
_geom_bond_atom_site_label_1
_geom_bond_atom_site_label_2
_geom_bond_distance
_geom_bond_site_symmetry_2
Li0 O4 1.916334 1_555
Li0 O7 1.943189 1_555
Li0 O1 1.963783 1_555
Li0 O15 2.107306 1_555
Li1 O5 1.916334 1_545
Li1 O6 1.943189 1_555
Li1 O0 1.963783 1_555
Li1 O14 2.107306 1_545
Li2 O6 1.916334 1_555
Li2 O5 1.943189 1_555
Li2 O3 1.963783 1_555
Li2 O13 2.107306 1_555
Li3 O7 1.916334 1_565
Li3 O4 1.943189 1_555
Li3 O2 1.963783 1_555
Li3 O12 2.107306 1_565
Li4 O2 1.914878 1_545
Li4 O1 1.942542 1_555
Li4 O7 1.964840 1_455
Li4 O9 2.116159 1_545
Li5 O3 1.914878 1_555
Li5 O0 1.942542 1_555
Li5 O6 1.964840 1_655
Li5 O8 2.116159 1_555
Li6 O0 1.914878 1_565
Li6 O3 1.942542 1_555
Li6 O5 1.964840 1_655
Li6 O11 2.116159 1_565
Li7 O1 1.914878 1_555
Li7 O2 1.942542 1_555
Li7 O4 1.964840 1_455
Li7 O10 2.116159 1_555
O0 Sb0 1.896266 1_545
O1 Sb1 1.896266 1_555
O2 Sb2 1.896266 1_565
O3 Sb3 1.896266 1_555
O4 Sb4 1.895450 1_555
O5 Sb5 1.895450 1_555
O6 Sb6 1.895450 1_555
O7 Sb7 1.895450 1_555
O8 Sb6 2.010557 1_555
O8 Sb0 2.013098 1_555
O9 Sb7 2.010557 1_565
O9 Sb1 2.013098 1_555
O10 Sb4 2.010557 1_555
O10 Sb2 2.013098 1_555
O11 Sb5 2.010557 1_545
O11 Sb3 2.013098 1_555
O12 Sb4 2.008661 1_555
O12 Sb2 2.011136 1_655
O13 Sb5 2.008661 1_545
O13 Sb3 2.011136 1_455
O14 Sb6 2.008661 1_555
O14 Sb0 2.011136 1_455
O15 Sb7 2.008661 1_565
O15 Sb1 2.011136 1_655
