# generated using pymatgen
data_SiO2
_symmetry_space_group_name_H-M   'P 1'
_cell_length_a   13.00152069
_cell_length_b   11.13348100
_cell_length_c   9.29804768
_cell_angle_alpha   92.30469030
_cell_angle_beta   107.56189540
_cell_angle_gamma   103.36720593
_symmetry_Int_Tables_number   1
_chemical_formula_structural   SiO2
_chemical_formula_sum   'Si20 O40'
_cell_volume   1239.61300399
_cell_formula_units_Z   20
loop_
 _symmetry_equiv_pos_site_id
 _symmetry_equiv_pos_as_xyz
  1  'x, y, z'
loop_
 _atom_site_type_symbol
 _atom_site_label
 _atom_site_symmetry_multiplicity
 _atom_site_fract_x
 _atom_site_fract_y
 _atom_site_fract_z
 _atom_site_occupancy
  Si  Si0  1  0.26411258  0.49337474  0.22878415  1
  Si  Si1  1  0.73372809  0.49204107  0.77240959  1
  Si  Si2  1  0.26629068  0.54706328  0.91105247  1
  Si  Si3  1  0.73150191  0.43848380  0.09027499  1
  Si  Si4  1  0.32354424  0.38527411  0.68894712  1
  Si  Si5  1  0.67423406  0.60014596  0.31215578  1
  Si  Si6  1  0.12145584  0.42022891  0.42393625  1
  Si  Si7  1  0.87637473  0.56507645  0.57729510  1
  Si  Si8  1  0.41023757  0.14120558  0.73780758  1
  Si  Si9  1  0.58766671  0.84422450  0.26343583  1
  Si  Si10  1  0.32286240  0.86684007  0.64930844  1
  Si  Si11  1  0.67488219  0.11850021  0.35195935  1
  Si  Si12  1  0.12242409  0.64754140  0.62925933  1
  Si  Si13  1  0.87537120  0.33787127  0.37207209  1
  Si  Si14  1  0.46934992  0.37513107  0.29836853  1
  Si  Si15  1  0.52837175  0.61025481  0.70252397  1
  Si  Si16  1  0.46688014  0.76398998  0.92946269  1
  Si  Si17  1  0.53092841  0.22131779  0.07182966  1
  Si  Si18  1  0.41843547  0.74262290  0.43047995  1
  Si  Si19  1  0.57940205  0.24291929  0.57062932  1
  O  O0  1  0.22331127  0.50294005  0.04924039  1
  O  O1  1  0.77440874  0.48235961  0.95192987  1
  O  O2  1  0.35266048  0.40971290  0.27221753  1
  O  O3  1  0.64505218  0.57555200  0.72887693  1
  O  O4  1  0.32080013  0.62939216  0.32334588  1
  O  O5  1  0.67717412  0.35607400  0.67767589  1
  O  O6  1  0.15402349  0.42915796  0.27025983  1
  O  O7  1  0.84383279  0.55643884  0.73103584  1
  O  O8  1  0.37399828  0.66416572  0.97594309  1
  O  O9  1  0.62391925  0.32121875  0.02566759  1
  O  O10  1  0.16981479  0.58814388  0.78389055  1
  O  O11  1  0.82796300  0.39759291  0.21769444  1
  O  O12  1  0.30173041  0.43411046  0.84034486  1
  O  O13  1  0.69606294  0.55160920  0.16063249  1
  O  O14  1  0.35073662  0.25291037  0.70544244  1
  O  O15  1  0.64729295  0.73264755  0.29608965  1
  O  O16  1  0.42678619  0.48556517  0.66369583  1
  O  O17  1  0.57081681  0.49990146  0.33699865  1
  O  O18  1  0.21235229  0.36853215  0.54663314  1
  O  O19  1  0.78533522  0.61641403  0.45442131  1
  O  O20  1  0.12068314  0.55754371  0.48724381  1
  O  O21  1  0.87742605  0.42773792  0.51443746  1
  O  O22  1  0.99963648  0.32676243  0.38884585  1
  O  O23  1  0.99811301  0.65866411  0.61214456  1
  O  O24  1  0.32226533  0.01132217  0.65611045  1
  O  O25  1  0.67565093  0.97408988  0.34511879  1
  O  O26  1  0.51411792  0.16362773  0.67207688  1
  O  O27  1  0.48372483  0.82199506  0.32906130  1
  O  O28  1  0.45148153  0.13353022  0.91895092  1
  O  O29  1  0.54650244  0.85181284  0.08225866  1
  O  O30  1  0.40919409  0.84564338  0.80631037  1
  O  O31  1  0.58838745  0.13957225  0.19501476  1
  O  O32  1  0.19933877  0.78372269  0.63094124  1
  O  O33  1  0.79835014  0.20171525  0.37018821  1
  O  O34  1  0.36200023  0.82987734  0.50824029  1
  O  O35  1  0.63579010  0.15548418  0.49304343  1
  O  O36  1  0.46152100  0.29484169  0.14497178  1
  O  O37  1  0.53613210  0.69047651  0.85595989  1
  O  O38  1  0.49206827  0.29503078  0.44030887  1
  O  O39  1  0.50584719  0.69048949  0.56070009  1
loop_
_geom_bond_atom_site_label_1
_geom_bond_atom_site_label_2
_geom_bond_distance
_geom_bond_site_symmetry_2
O0 Si2 1.600503 1_554
O0 Si0 1.607999 1_555
O1 Si3 1.600648 1_556
O1 Si1 1.607983 1_555
O2 Si14 1.601273 1_555
O2 Si0 1.612944 1_555
O3 Si15 1.601556 1_555
O3 Si1 1.613019 1_555
O4 Si18 1.609005 1_555
O4 Si0 1.610992 1_555
O5 Si19 1.608983 1_555
O5 Si1 1.611000 1_555
O6 Si6 1.608722 1_555
O6 Si0 1.609560 1_555
O7 Si7 1.609013 1_555
O7 Si1 1.609738 1_555
O8 Si2 1.614776 1_555
O8 Si16 1.616567 1_555
O9 Si3 1.614719 1_555
O9 Si17 1.616425 1_555
O10 Si2 1.610676 1_555
O10 Si12 1.616913 1_555
O11 Si3 1.610739 1_555
O11 Si13 1.617024 1_555
O12 Si4 1.615045 1_555
O12 Si2 1.615621 1_555
O13 Si5 1.615072 1_555
O13 Si3 1.615708 1_555
O14 Si4 1.595799 1_555
O14 Si8 1.603181 1_555
O15 Si5 1.595715 1_555
O15 Si9 1.603092 1_555
O16 Si4 1.619236 1_555
O16 Si15 1.620522 1_555
O17 Si5 1.619000 1_555
O17 Si14 1.620375 1_555
O18 Si4 1.605243 1_555
O18 Si6 1.607211 1_555
O19 Si5 1.604927 1_555
O19 Si7 1.606939 1_555
O20 Si12 1.616536 1_555
O20 Si6 1.619287 1_555
O21 Si13 1.616721 1_555
O21 Si7 1.619381 1_555
O22 Si13 1.609903 1_555
O22 Si6 1.611404 1_655
O23 Si12 1.609902 1_655
O23 Si7 1.611414 1_555
O24 Si10 1.609194 1_545
O24 Si8 1.612108 1_555
O25 Si11 1.608951 1_565
O25 Si9 1.611992 1_555
O26 Si19 1.610337 1_555
O26 Si8 1.616934 1_555
O27 Si18 1.610574 1_555
O27 Si9 1.617095 1_555
O28 Si17 1.605676 1_556
O28 Si8 1.618448 1_555
O29 Si16 1.605868 1_554
O29 Si9 1.618549 1_555
O30 Si16 1.606506 1_555
O30 Si10 1.614926 1_555
O31 Si17 1.606281 1_555
O31 Si11 1.615045 1_555
O32 Si12 1.608302 1_555
O32 Si10 1.612242 1_555
O33 Si13 1.608228 1_555
O33 Si11 1.612290 1_555
O34 Si18 1.611858 1_555
O34 Si10 1.613977 1_555
O35 Si19 1.611889 1_555
O35 Si11 1.613812 1_555
O36 Si14 1.616013 1_555
O36 Si17 1.616799 1_555
O37 Si15 1.616236 1_555
O37 Si16 1.617017 1_555
O38 Si14 1.614169 1_555
O38 Si19 1.620195 1_555
O39 Si15 1.614099 1_555
O39 Si18 1.620382 1_555
