# generated using pymatgen
data_Ba2AlTlCo2O7
_symmetry_space_group_name_H-M   'P 1'
_cell_length_a   4.01893885
_cell_length_b   4.32259299
_cell_length_c   11.54127734
_cell_angle_alpha   89.79999567
_cell_angle_beta   81.16261785
_cell_angle_gamma   89.96888194
_symmetry_Int_Tables_number   1
_chemical_formula_structural   Ba2AlTlCo2O7
_chemical_formula_sum   'Ba2 Al1 Tl1 Co2 O7'
_cell_volume   198.11635900
_cell_formula_units_Z   1
loop_
 _symmetry_equiv_pos_site_id
 _symmetry_equiv_pos_as_xyz
  1  'x, y, z'
loop_
 _atom_site_type_symbol
 _atom_site_label
 _atom_site_symmetry_multiplicity
 _atom_site_fract_x
 _atom_site_fract_y
 _atom_site_fract_z
 _atom_site_occupancy
  Ba  Ba0  1  0.38821400  0.51383500  0.22167500  1
  Ba  Ba1  1  0.61074500  0.51789100  0.77815200  1
  Al  Al0  1  0.50252100  0.37576700  0.50027700  1
  Tl  Tl0  1  0.00023900  0.07626100  0.00012000  1
  Co  Co0  1  0.86069300  0.98562600  0.37843000  1
  Co  Co1  1  0.13925700  0.98573800  0.61760800  1
  O  O0  1  0.91784200  0.97863500  0.18603300  1
  O  O1  1  0.79930400  0.53492200  0.38772600  1
  O  O2  1  0.32826000  0.08609200  0.41106300  1
  O  O3  1  0.66899300  0.08586300  0.59191800  1
  O  O4  1  0.50001600  0.34686500  0.00041600  1
  O  O5  1  0.20115800  0.53531200  0.61100300  1
  O  O6  1  0.08275300  0.97718900  0.81557700  1
loop_
_geom_bond_atom_site_label_1
_geom_bond_atom_site_label_2
_geom_bond_distance
_geom_bond_site_symmetry_2
Ba0 O4 2.627490 1_555
Ba0 O1 2.717514 1_555
Ba0 O1 2.808926 1_455
Ba0 O0 2.829929 1_455
Ba0 O2 2.839856 1_555
Ba0 O0 2.909707 1_555
Ba0 O0 3.056992 1_445
Ba0 O0 3.127975 1_545
Ba0 O2 3.290871 1_565
Ba1 O4 2.638415 1_556
Ba1 O5 2.722384 1_555
Ba1 O5 2.819608 1_655
Ba1 O6 2.826402 1_655
Ba1 O3 2.834618 1_555
Ba1 O6 2.889767 1_555
Ba1 O6 3.080199 1_645
Ba1 O6 3.141448 1_545
Ba1 O3 3.242126 1_565
Al0 O1 1.761221 1_555
Al0 O5 1.762180 1_555
Al0 O3 1.828622 1_555
Al0 O2 1.830312 1_555
Co0 O1 1.964391 1_555
Co0 O2 2.020156 1_665
Co0 O2 2.159111 1_565
Co0 O0 2.197288 1_555
Co0 O1 2.388113 1_565
Co0 O3 2.505203 1_565
Co1 O5 1.962963 1_555
Co1 O3 2.004389 1_465
Co1 O3 2.148003 1_565
Co1 O6 2.261263 1_555
Co1 O5 2.388442 1_565
Co1 O2 2.425778 1_565
O0 Tl0 2.160362 1_665
O4 Tl0 2.324902 1_655
O4 Tl0 2.325358 1_555
O6 Tl0 2.149156 1_566
