# generated using pymatgen
data_U3TaSb5
_symmetry_space_group_name_H-M   'P 1'
_cell_length_a   9.28268650
_cell_length_b   9.28387682
_cell_length_c   6.18127542
_cell_angle_alpha   89.74758684
_cell_angle_beta   90.50043768
_cell_angle_gamma   119.99459587
_symmetry_Int_Tables_number   1
_chemical_formula_structural   U3TaSb5
_chemical_formula_sum   'U6 Ta2 Sb10'
_cell_volume   461.33760953
_cell_formula_units_Z   2
loop_
 _symmetry_equiv_pos_site_id
 _symmetry_equiv_pos_as_xyz
  1  'x, y, z'
loop_
 _atom_site_type_symbol
 _atom_site_label
 _atom_site_symmetry_multiplicity
 _atom_site_fract_x
 _atom_site_fract_y
 _atom_site_fract_z
 _atom_site_occupancy
  U  U0  1  0.61376716  0.00016402  0.75295695  1
  U  U1  1  0.38628044  0.00006367  0.24704554  1
  U  U2  1  0.00021396  0.61340020  0.74713453  1
  U  U3  1  0.00008882  0.38590539  0.25316781  1
  U  U4  1  0.38582771  0.38579985  0.74683097  1
  U  U5  1  0.61305767  0.61339329  0.25285262  1
  Ta  Ta0  1  -0.00000035  -0.00005092  0.50001021  1
  Ta  Ta1  1  -0.00008067  -0.00020036  0.00000389  1
  Sb  Sb0  1  0.26191928  0.00007338  0.75232013  1
  Sb  Sb1  1  0.73825761  0.00012504  0.24762324  1
  Sb  Sb2  1  0.00007681  0.26210275  0.74846464  1
  Sb  Sb3  1  -0.00000235  0.73813561  0.25171175  1
  Sb  Sb4  1  0.73813683  0.73822664  0.74838254  1
  Sb  Sb5  1  0.26206735  0.26205893  0.25151631  1
  Sb  Sb6  1  0.33388325  0.66783369  0.50006707  1
  Sb  Sb7  1  0.66631428  0.33257300  0.49991783  1
  Sb  Sb8  1  0.66750925  0.33497271  0.00002181  1
  Sb  Sb9  1  0.33268296  0.66542311  -0.00002781  1
loop_
_geom_bond_atom_site_label_1
_geom_bond_atom_site_label_2
_geom_bond_distance
_geom_bond_site_symmetry_2
Sb0 Ta0 2.876565 1_555
Sb0 Ta1 2.884048 1_556
Sb0 U4 3.166908 1_555
Sb0 U2 3.173283 1_545
Sb0 U1 3.259242 1_556
Sb0 U0 3.265641 1_555
Sb0 U1 3.339218 1_555
Sb1 Ta0 2.876605 1_655
Sb1 Ta1 2.883530 1_655
Sb1 U3 3.167338 1_655
Sb1 U5 3.173343 1_545
Sb1 U0 3.259363 1_554
Sb1 U1 3.266980 1_555
Sb1 U0 3.340034 1_555
Sb2 Ta1 2.882842 1_556
Sb2 Ta0 2.883252 1_555
Sb2 U4 3.167034 1_555
Sb2 U0 3.171107 1_455
Sb2 U2 3.260740 1_555
Sb2 U3 3.265442 1_555
Sb2 U3 3.329428 1_556
Sb3 Ta1 2.879320 1_565
Sb3 Ta0 2.880359 1_565
Sb3 U1 3.170917 1_565
Sb3 U5 3.175520 1_455
Sb3 U2 3.269550 1_555
Sb3 U3 3.270458 1_555
Sb3 U2 3.332119 1_554
Sb4 Ta1 2.878968 1_666
Sb4 Ta0 2.880388 1_665
Sb4 U0 3.171032 1_565
Sb4 U2 3.175011 1_655
Sb4 U5 3.270626 1_555
Sb4 U4 3.271371 1_555
Sb4 U5 3.331791 1_556
Sb5 Ta1 2.882728 1_555
Sb5 Ta0 2.883112 1_555
Sb5 U3 3.167370 1_555
Sb5 U1 3.170446 1_555
Sb5 U5 3.260182 1_555
Sb5 U4 3.265485 1_555
Sb5 U4 3.329101 1_554
Sb6 Sb9 3.090111 1_556
Sb6 Sb9 3.091286 1_555
Sb6 U3 3.259530 1_555
Sb6 U4 3.260250 1_555
Sb6 U1 3.266021 1_565
Sb6 U0 3.266447 1_565
Sb6 U5 3.269848 1_555
Sb6 U2 3.269876 1_555
Sb7 Sb8 3.090054 1_555
Sb7 Sb8 3.091342 1_556
Sb7 U2 3.257618 1_655
Sb7 U5 3.257917 1_555
Sb7 U0 3.267072 1_555
Sb7 U1 3.267752 1_555
Sb7 U3 3.273097 1_655
Sb7 U4 3.273399 1_555
Sb8 U4 3.265676 1_554
Sb8 U3 3.265830 1_655
Sb8 U0 3.274282 1_554
Sb8 U1 3.275089 1_555
Sb8 U2 3.275697 1_654
Sb8 U5 3.276413 1_555
Sb9 U5 3.260309 1_555
Sb9 U2 3.260757 1_554
Sb9 U1 3.273379 1_565
Sb9 U0 3.273769 1_564
Sb9 U3 3.279259 1_555
Sb9 U4 3.280344 1_554
