# generated using pymatgen
data_LiVPO5
_symmetry_space_group_name_H-M   'P 1'
_cell_length_a   5.49145158
_cell_length_b   7.27631266
_cell_length_c   11.50534388
_cell_angle_alpha   86.02593176
_cell_angle_beta   75.08300600
_cell_angle_gamma   109.67915975
_symmetry_Int_Tables_number   1
_chemical_formula_structural   LiVPO5
_chemical_formula_sum   'Li4 V4 P4 O20'
_cell_volume   412.09261766
_cell_formula_units_Z   4
loop_
 _symmetry_equiv_pos_site_id
 _symmetry_equiv_pos_as_xyz
  1  'x, y, z'
loop_
 _atom_site_type_symbol
 _atom_site_label
 _atom_site_symmetry_multiplicity
 _atom_site_fract_x
 _atom_site_fract_y
 _atom_site_fract_z
 _atom_site_occupancy
  Li  Li0  1  0.98869600  0.40881400  0.19598900  1
  Li  Li1  1  0.48887400  0.90864700  0.69637400  1
  Li  Li2  1  0.51111000  0.09141700  0.30362900  1
  Li  Li3  1  0.01133500  0.59123600  0.80400800  1
  V  V0  1  0.38553200  0.34163200  0.94280600  1
  V  V1  1  0.61472300  0.65816700  0.05711100  1
  V  V2  1  0.88523300  0.84176200  0.44290500  1
  V  V3  1  0.11462300  0.15833700  0.55714500  1
  P  P0  1  0.04120400  0.99474200  0.16406500  1
  P  P1  1  0.54129000  0.49478900  0.66410300  1
  P  P2  1  0.45866700  0.50525600  0.33588400  1
  P  P3  1  0.95874900  0.00524100  0.83596100  1
  O  O0  1  0.63816000  0.38597800  0.30088800  1
  O  O1  1  0.13836400  0.88606700  0.80116900  1
  O  O2  1  0.86162600  0.11394300  0.19884300  1
  O  O3  1  0.36186100  0.61410500  0.69912700  1
  O  O4  1  0.77091000  0.01103100  0.51211200  1
  O  O5  1  0.27112900  0.51084600  0.01197600  1
  O  O6  1  0.72920700  0.48896200  0.98793400  1
  O  O7  1  0.22893300  0.98904400  0.48793800  1
  O  O8  1  0.90459000  0.79961700  0.12104100  1
  O  O9  1  0.40440900  0.29991300  0.62094800  1
  O  O10  1  0.59547700  0.70013500  0.37904200  1
  O  O11  1  0.09539100  0.20036400  0.87899400  1
  O  O12  1  0.13476200  0.93905300  0.27680500  1
  O  O13  1  0.63496400  0.43868800  0.77671500  1
  O  O14  1  0.36511700  0.56132500  0.22321900  1
  O  O15  1  0.86512500  0.06095000  0.72324400  1
  O  O16  1  0.31283200  0.12109100  0.06387000  1
  O  O17  1  0.81279100  0.62124600  0.56392200  1
  O  O18  1  0.18710400  0.37878100  0.43605300  1
  O  O19  1  0.68721200  0.87882300  0.93617800  1
loop_
_geom_bond_atom_site_label_1
_geom_bond_atom_site_label_2
_geom_bond_distance
_geom_bond_site_symmetry_2
Li0 O0 1.936582 1_555
Li0 O2 2.015333 1_555
Li0 O14 2.106933 1_655
Li0 O5 2.180601 1_655
Li1 O1 1.936580 1_555
Li1 O3 2.013242 1_555
Li1 O15 2.104024 1_565
Li1 O4 2.182127 1_565
Li2 O2 1.936684 1_555
Li2 O0 2.013390 1_555
Li2 O12 2.104334 1_545
Li2 O7 2.182804 1_545
Li3 O3 1.936392 1_555
Li3 O1 2.015086 1_555
Li3 O13 2.107075 1_455
Li3 O6 2.179317 1_455
O0 P2 1.518952 1_555
O1 P3 1.518537 1_465
O2 P0 1.518517 1_645
O3 P1 1.518948 1_555
O4 V2 1.715946 1_545
O4 V3 2.048851 1_655
O5 V0 1.715632 1_554
O5 V1 2.048965 1_555
O6 V1 1.715826 1_556
O6 V0 2.049298 1_555
O7 V3 1.716063 1_565
O7 V2 2.048753 1_455
O8 P0 1.547539 1_655
O8 V1 1.933502 1_555
O9 P1 1.547280 1_555
O9 V3 1.932511 1_555
O10 P2 1.547214 1_555
O10 V2 1.932928 1_555
O11 P3 1.547620 1_455
O11 V0 1.933393 1_555
O12 P0 1.587801 1_555
O12 V2 1.960061 1_455
O13 P1 1.587822 1_555
O13 V0 1.959708 1_555
O14 P2 1.587865 1_555
O14 V1 1.960083 1_555
O15 P3 1.587837 1_555
O15 V3 1.960037 1_655
O16 P0 1.563104 1_545
O16 V0 1.909727 1_554
O17 P1 1.562807 1_555
O17 V2 1.909633 1_555
O18 P2 1.562965 1_555
O18 V3 1.909733 1_555
O19 P3 1.563044 1_565
O19 V1 1.909702 1_556
