# generated using pymatgen
data_RbAg3Se2
_symmetry_space_group_name_H-M   'P 1'
_cell_length_a   4.39589355
_cell_length_b   8.60401972
_cell_length_c   8.99789529
_cell_angle_alpha   112.78455539
_cell_angle_beta   90.00000000
_cell_angle_gamma   104.80058810
_symmetry_Int_Tables_number   1
_chemical_formula_structural   RbAg3Se2
_chemical_formula_sum   'Rb2 Ag6 Se4'
_cell_volume   301.48086761
_cell_formula_units_Z   2
loop_
 _symmetry_equiv_pos_site_id
 _symmetry_equiv_pos_as_xyz
  1  'x, y, z'
loop_
 _atom_site_type_symbol
 _atom_site_label
 _atom_site_symmetry_multiplicity
 _atom_site_fract_x
 _atom_site_fract_y
 _atom_site_fract_z
 _atom_site_occupancy
  Rb  Rb0  1  0.86394157  0.72788313  0.95122409  1
  Rb  Rb1  1  0.13605843  0.27211687  0.04877591  1
  Ag  Ag0  1  0.31157771  0.62315643  0.56221369  1
  Ag  Ag1  1  0.94222637  0.88445273  0.59591004  1
  Ag  Ag2  1  0.68842229  0.37684357  0.43778631  1
  Ag  Ag3  1  0.41000430  0.82000761  0.35889159  1
  Ag  Ag4  1  0.58999570  0.17999239  0.64110841  1
  Ag  Ag5  1  0.05777363  0.11554727  0.40408996  1
  Se  Se0  1  0.48023888  0.96047676  0.78197327  1
  Se  Se1  1  0.19857146  0.39714292  0.69819810  1
  Se  Se2  1  0.80142854  0.60285708  0.30180190  1
  Se  Se3  1  0.51976112  0.03952324  0.21802673  1
loop_
_geom_bond_atom_site_label_1
_geom_bond_atom_site_label_2
_geom_bond_distance
_geom_bond_site_symmetry_2
Rb0 Se3 3.511258 1_666
Rb0 Se3 3.511261 1_566
Rb0 Se1 3.544829 1_655
Rb0 Se1 3.544830 1_555
Rb0 Se0 3.640651 1_555
Rb0 Se0 3.640653 1_655
Rb0 Se2 3.696020 1_556
Rb1 Se0 3.511258 1_444
Rb1 Se0 3.511261 1_544
Rb1 Se2 3.544829 1_455
Rb1 Se2 3.544830 1_555
Rb1 Se3 3.640651 1_555
Rb1 Se3 3.640653 1_455
Rb1 Se1 3.696020 1_554
Ag0 Se1 2.621992 1_555
Ag0 Se0 2.709005 1_555
Ag0 Se2 3.167474 1_455
Ag0 Se2 3.167477 1_555
Ag1 Se0 2.680593 1_555
Ag1 Se0 2.680597 1_655
Ag1 Se2 2.743034 1_555
Ag2 Se2 2.621992 1_555
Ag2 Se3 2.709005 1_555
Ag2 Se1 3.167474 1_655
Ag2 Se1 3.167477 1_555
Ag3 Se3 2.606753 1_565
Ag3 Se2 2.759432 1_555
Ag3 Se2 2.759436 1_455
Ag4 Se0 2.606753 1_545
Ag4 Se1 2.759432 1_555
Ag4 Se1 2.759436 1_655
Ag5 Se3 2.680593 1_555
Ag5 Se3 2.680597 1_455
Ag5 Se1 2.743034 1_555
