# generated using pymatgen
data_BiH14C4N8Cl5O2
_symmetry_space_group_name_H-M   'P 1'
_cell_length_a   7.86906600
_cell_length_b   21.08326900
_cell_length_c   11.02948000
_cell_angle_alpha   90.00000000
_cell_angle_beta   90.00000000
_cell_angle_gamma   90.00000000
_symmetry_Int_Tables_number   1
_chemical_formula_structural   BiH14C4N8Cl5O2
_chemical_formula_sum   'Bi4 H56 C16 N32 Cl20 O8'
_cell_volume   1829.85288595
_cell_formula_units_Z   4
loop_
 _symmetry_equiv_pos_site_id
 _symmetry_equiv_pos_as_xyz
  1  'x, y, z'
loop_
 _atom_site_type_symbol
 _atom_site_label
 _atom_site_symmetry_multiplicity
 _atom_site_fract_x
 _atom_site_fract_y
 _atom_site_fract_z
 _atom_site_occupancy
  Bi  Bi0  1  0.14446000  0.75000000  0.92654700  1
  Bi  Bi1  1  0.64446000  0.75000000  0.57345300  1
  Bi  Bi2  1  0.85554000  0.25000000  0.07345300  1
  Bi  Bi3  1  0.35554000  0.25000000  0.42654700  1
  H  H0  1  0.67123000  0.90828100  0.77865700  1
  H  H1  1  0.17123000  0.59171900  0.72134300  1
  H  H2  1  0.32877000  0.40828100  0.22134300  1
  H  H3  1  0.82877000  0.09171900  0.27865700  1
  H  H4  1  0.32877000  0.09171900  0.22134300  1
  H  H5  1  0.82877000  0.40828100  0.27865700  1
  H  H6  1  0.67123000  0.59171900  0.77865700  1
  H  H7  1  0.17123000  0.90828100  0.72134300  1
  H  H8  1  0.58166900  0.84739600  0.86108000  1
  H  H9  1  0.08166900  0.65260400  0.63892000  1
  H  H10  1  0.41833100  0.34739600  0.13892000  1
  H  H11  1  0.91833100  0.15260400  0.36108000  1
  H  H12  1  0.41833100  0.15260400  0.13892000  1
  H  H13  1  0.91833100  0.34739600  0.36108000  1
  H  H14  1  0.58166900  0.65260400  0.86108000  1
  H  H15  1  0.08166900  0.84739600  0.63892000  1
  H  H16  1  0.54166400  0.85064300  0.05597100  1
  H  H17  1  0.04166400  0.64935700  0.44402900  1
  H  H18  1  0.45833600  0.35064300  0.94402900  1
  H  H19  1  0.95833600  0.14935700  0.55597100  1
  H  H20  1  0.45833600  0.14935700  0.94402900  1
  H  H21  1  0.95833600  0.35064300  0.55597100  1
  H  H22  1  0.54166400  0.64935700  0.05597100  1
  H  H23  1  0.04166400  0.85064300  0.44402900  1
  H  H24  1  0.69785300  0.98485000  0.29721200  1
  H  H25  1  0.19785300  0.51515000  0.20278800  1
  H  H26  1  0.30214700  0.48485000  0.70278800  1
  H  H27  1  0.80214700  0.01515000  0.79721200  1
  H  H28  1  0.30214700  0.01515000  0.70278800  1
  H  H29  1  0.80214700  0.48485000  0.79721200  1
  H  H30  1  0.69785300  0.51515000  0.29721200  1
  H  H31  1  0.19785300  0.98485000  0.20278800  1
  H  H32  1  0.72285800  0.99584600  0.13628500  1
  H  H33  1  0.22285800  0.50415400  0.36371500  1
  H  H34  1  0.27714200  0.49584600  0.86371500  1
  H  H35  1  0.77714200  0.00415400  0.63628500  1
  H  H36  1  0.27714200  0.00415400  0.86371500  1
  H  H37  1  0.77714200  0.49584600  0.63628500  1
  H  H38  1  0.72285800  0.50415400  0.13628500  1
  H  H39  1  0.22285800  0.99584600  0.36371500  1
  H  H40  1  0.57265400  0.88390400  0.36056400  1
  H  H41  1  0.07265400  0.61609600  0.13943600  1
  H  H42  1  0.42734600  0.38390400  0.63943600  1
  H  H43  1  0.92734600  0.11609600  0.86056400  1
  H  H44  1  0.42734600  0.11609600  0.63943600  1
  H  H45  1  0.92734600  0.38390400  0.86056400  1
  H  H46  1  0.57265400  0.61609600  0.36056400  1
  H  H47  1  0.07265400  0.88390400  0.13943600  1
  H  H48  1  0.50336300  0.83230700  0.24826400  1
  H  H49  1  0.00336300  0.66769300  0.25173600  1
  H  H50  1  0.49663700  0.33230700  0.75173600  1
  H  H51  1  0.99663700  0.16769300  0.74826400  1
  H  H52  1  0.49663700  0.16769300  0.75173600  1
  H  H53  1  0.99663700  0.33230700  0.74826400  1
  H  H54  1  0.50336300  0.66769300  0.24826400  1
  H  H55  1  0.00336300  0.83230700  0.25173600  1
  C  C0  1  0.65679600  0.92551300  0.96223400  1
  C  C1  1  0.15679600  0.57448700  0.53776600  1
  C  C2  1  0.34320400  0.42551300  0.03776600  1
  C  C3  1  0.84320400  0.07448700  0.46223400  1
  C  C4  1  0.34320400  0.07448700  0.03776600  1
  C  C5  1  0.84320400  0.42551300  0.46223400  1
  C  C6  1  0.65679600  0.57448700  0.96223400  1
  C  C7  1  0.15679600  0.92551300  0.53776600  1
  C  C8  1  0.61073700  0.91421600  0.18442800  1
  C  C9  1  0.11073700  0.58578400  0.31557200  1
  C  C10  1  0.38926300  0.41421600  0.81557200  1
  C  C11  1  0.88926300  0.08578400  0.68442800  1
  C  C12  1  0.38926300  0.08578400  0.81557200  1
  C  C13  1  0.88926300  0.41421600  0.68442800  1
  C  C14  1  0.61073700  0.58578400  0.18442800  1
  C  C15  1  0.11073700  0.91421600  0.31557200  1
  N  N0  1  0.63042500  0.89224800  0.86056000  1
  N  N1  1  0.13042500  0.60775200  0.63944000  1
  N  N2  1  0.36957500  0.39224800  0.13944000  1
  N  N3  1  0.86957500  0.10775200  0.36056000  1
  N  N4  1  0.36957500  0.10775200  0.13944000  1
  N  N5  1  0.86957500  0.39224800  0.36056000  1
  N  N6  1  0.63042500  0.60775200  0.86056000  1
  N  N7  1  0.13042500  0.89224800  0.63944000  1
  N  N8  1  0.59834800  0.89396000  0.06711200  1
  N  N9  1  0.09834800  0.60604000  0.43288800  1
  N  N10  1  0.40165200  0.39396000  0.93288800  1
  N  N11  1  0.90165200  0.10604000  0.56711200  1
  N  N12  1  0.40165200  0.10604000  0.93288800  1
  N  N13  1  0.90165200  0.39396000  0.56711200  1
  N  N14  1  0.59834800  0.60604000  0.06711200  1
  N  N15  1  0.09834800  0.89396000  0.43288800  1
  N  N16  1  0.68094200  0.97006700  0.20943300  1
  N  N17  1  0.18094200  0.52993300  0.29056700  1
  N  N18  1  0.31905800  0.47006700  0.79056700  1
  N  N19  1  0.81905800  0.02993300  0.70943300  1
  N  N20  1  0.31905800  0.02993300  0.79056700  1
  N  N21  1  0.81905800  0.47006700  0.70943300  1
  N  N22  1  0.68094200  0.52993300  0.20943300  1
  N  N23  1  0.18094200  0.97006700  0.29056700  1
  N  N24  1  0.54799000  0.87631500  0.27020000  1
  N  N25  1  0.04799000  0.62368500  0.22980000  1
  N  N26  1  0.45201000  0.37631500  0.72980000  1
  N  N27  1  0.95201000  0.12368500  0.77020000  1
  N  N28  1  0.45201000  0.12368500  0.72980000  1
  N  N29  1  0.95201000  0.37631500  0.77020000  1
  N  N30  1  0.54799000  0.62368500  0.27020000  1
  N  N31  1  0.04799000  0.87631500  0.22980000  1
  Cl  Cl0  1  0.13946400  0.87927800  0.93966900  1
  Cl  Cl1  1  0.63946400  0.62072200  0.56033100  1
  Cl  Cl2  1  0.86053600  0.37927800  0.06033100  1
  Cl  Cl3  1  0.36053600  0.12072200  0.43966900  1
  Cl  Cl4  1  0.86053600  0.12072200  0.06033100  1
  Cl  Cl5  1  0.36053600  0.37927800  0.43966900  1
  Cl  Cl6  1  0.13946400  0.62072200  0.93966900  1
  Cl  Cl7  1  0.63946400  0.87927800  0.56033100  1
  Cl  Cl8  1  0.46618000  0.75000000  0.79514500  1
  Cl  Cl9  1  0.96618000  0.75000000  0.70485500  1
  Cl  Cl10  1  0.53382000  0.25000000  0.20485500  1
  Cl  Cl11  1  0.03382000  0.25000000  0.29514500  1
  Cl  Cl12  1  0.88020900  0.75000000  0.06188100  1
  Cl  Cl13  1  0.38020900  0.75000000  0.43811900  1
  Cl  Cl14  1  0.11979100  0.25000000  0.93811900  1
  Cl  Cl15  1  0.61979100  0.25000000  0.56188100  1
  Cl  Cl16  1  0.36687700  0.75000000  0.11139100  1
  Cl  Cl17  1  0.86687700  0.75000000  0.38860900  1
  Cl  Cl18  1  0.63312300  0.25000000  0.88860900  1
  Cl  Cl19  1  0.13312300  0.25000000  0.61139100  1
  O  O0  1  0.72388800  0.97913900  0.96646700  1
  O  O1  1  0.22388800  0.52086100  0.53353300  1
  O  O2  1  0.27611200  0.47913900  0.03353300  1
  O  O3  1  0.77611200  0.02086100  0.46646700  1
  O  O4  1  0.27611200  0.02086100  0.03353300  1
  O  O5  1  0.77611200  0.47913900  0.46646700  1
  O  O6  1  0.72388800  0.52086100  0.96646700  1
  O  O7  1  0.22388800  0.97913900  0.53353300  1
loop_
_geom_bond_atom_site_label_1
_geom_bond_atom_site_label_2
_geom_bond_distance
_geom_bond_site_symmetry_2
Bi0 Cl12 2.559684 1_456
Bi0 Cl16 2.686947 1_556
Bi0 Cl6 2.729726 1_555
Bi0 Cl0 2.729726 1_555
Bi0 Cl9 2.819019 1_455
Bi0 Cl8 2.917128 1_555
Bi1 Cl13 2.559684 1_555
Bi1 Cl17 2.686947 1_555
Bi1 Cl1 2.729726 1_555
Bi1 Cl7 2.729726 1_555
Bi1 Cl8 2.819019 1_555
Bi1 Cl9 2.917128 1_555
Bi2 Cl14 2.559684 1_654
Bi2 Cl18 2.686947 1_554
Bi2 Cl4 2.729726 1_555
Bi2 Cl2 2.729726 1_555
Bi2 Cl11 2.819019 1_655
Bi2 Cl10 2.917128 1_555
Bi3 Cl15 2.559684 1_555
Bi3 Cl19 2.686947 1_555
Bi3 Cl3 2.729726 1_555
Bi3 Cl5 2.729726 1_555
Bi3 Cl10 2.819019 1_555
Bi3 Cl11 2.917128 1_555
H0 N0 1.016564 1_555
H1 N1 1.016564 1_555
H2 N2 1.016564 1_555
H3 N3 1.016564 1_555
H4 N4 1.016564 1_555
H5 N5 1.016564 1_555
H6 N6 1.016564 1_555
H7 N7 1.016564 1_555
H8 N0 1.020510 1_555
H9 N1 1.020510 1_555
H10 N2 1.020510 1_555
H11 N3 1.020510 1_555
H12 N4 1.020510 1_555
H13 N5 1.020510 1_555
H14 N6 1.020510 1_555
H15 N7 1.020510 1_555
H16 N8 1.023773 1_555
H17 N9 1.023773 1_555
H18 N10 1.023773 1_555
H19 N11 1.023773 1_555
H20 N12 1.023773 1_555
H21 N13 1.023773 1_555
H22 N14 1.023773 1_555
H23 N15 1.023773 1_555
H24 N16 1.025757 1_555
H25 N17 1.025757 1_555
H26 N18 1.025757 1_555
H27 N19 1.025757 1_555
H28 N20 1.025757 1_555
H29 N21 1.025757 1_555
H30 N22 1.025757 1_555
H31 N23 1.025757 1_555
H32 N16 1.027178 1_555
H33 N17 1.027178 1_555
H34 N18 1.027178 1_555
H35 N19 1.027178 1_555
H36 N20 1.027178 1_555
H37 N21 1.027178 1_555
H38 N22 1.027178 1_555
H39 N23 1.027178 1_555
H40 N24 1.027918 1_555
H41 N25 1.027918 1_555
H42 N26 1.027918 1_555
H43 N27 1.027918 1_555
H44 N28 1.027918 1_555
H45 N29 1.027918 1_555
H46 N30 1.027918 1_555
H47 N31 1.027918 1_555
H48 N24 1.021142 1_555
H49 N25 1.021142 1_555
H50 N26 1.021142 1_555
H51 N27 1.021142 1_555
H52 N28 1.021142 1_555
H53 N29 1.021142 1_555
H54 N30 1.021142 1_555
H55 N31 1.021142 1_555
C0 O0 1.248677 1_555
C0 N0 1.338842 1_555
C0 N8 1.411436 1_556
C1 O1 1.248677 1_555
C1 N1 1.338842 1_555
C1 N9 1.411436 1_555
C2 O2 1.248677 1_555
C2 N2 1.338842 1_555
C2 N10 1.411436 1_554
C3 O3 1.248677 1_555
C3 N3 1.338842 1_555
C3 N11 1.411436 1_555
C4 O4 1.248677 1_555
C4 N4 1.338842 1_555
C4 N12 1.411436 1_554
C5 O5 1.248677 1_555
C5 N5 1.338842 1_555
C5 N13 1.411436 1_555
C6 O6 1.248677 1_555
C6 N6 1.338842 1_555
C6 N14 1.411436 1_556
C7 O7 1.248677 1_555
C7 N7 1.338842 1_555
C7 N15 1.411436 1_555
C8 N16 1.329593 1_555
C8 N24 1.333146 1_555
C8 N8 1.366072 1_555
C9 N17 1.329593 1_555
C9 N25 1.333146 1_555
C9 N9 1.366072 1_555
C10 N18 1.329593 1_555
C10 N26 1.333146 1_555
C10 N10 1.366072 1_555
C11 N19 1.329593 1_555
C11 N27 1.333146 1_555
C11 N11 1.366072 1_555
C12 N20 1.329593 1_555
C12 N28 1.333146 1_555
C12 N12 1.366072 1_555
C13 N21 1.329593 1_555
C13 N29 1.333146 1_555
C13 N13 1.366072 1_555
C14 N22 1.329593 1_555
C14 N30 1.333146 1_555
C14 N14 1.366072 1_555
C15 N23 1.329593 1_555
C15 N31 1.333146 1_555
C15 N15 1.366072 1_555
