# generated using pymatgen
data_RbSm(SO6)2
_symmetry_space_group_name_H-M   'P 1'
_cell_length_a   20.11377400
_cell_length_b   6.30221700
_cell_length_c   9.02054724
_cell_angle_alpha   85.45401647
_cell_angle_beta   90.00000000
_cell_angle_gamma   90.00000000
_symmetry_Int_Tables_number   1
_chemical_formula_structural   RbSm(SO6)2
_chemical_formula_sum   'Rb4 Sm4 S8 O48'
_cell_volume   1139.85964766
_cell_formula_units_Z   4
loop_
 _symmetry_equiv_pos_site_id
 _symmetry_equiv_pos_as_xyz
  1  'x, y, z'
loop_
 _atom_site_type_symbol
 _atom_site_label
 _atom_site_symmetry_multiplicity
 _atom_site_fract_x
 _atom_site_fract_y
 _atom_site_fract_z
 _atom_site_occupancy
  Rb  Rb0  1  0.21183100  0.84625500  0.63358900  1
  Rb  Rb1  1  0.78816900  0.15374500  0.36641100  1
  Rb  Rb2  1  0.71183100  0.15374500  0.86641100  1
  Rb  Rb3  1  0.28816900  0.84625500  0.13358900  1
  Sm  Sm0  1  0.36244700  0.37441000  0.78873100  1
  Sm  Sm1  1  0.63755300  0.62559000  0.21126900  1
  Sm  Sm2  1  0.86244700  0.62559000  0.71126900  1
  Sm  Sm3  1  0.13755300  0.37441000  0.28873100  1
  S  S0  1  0.21884700  0.37809400  0.90982700  1
  S  S1  1  0.78115300  0.62190600  0.09017300  1
  S  S2  1  0.71884700  0.62190600  0.59017300  1
  S  S3  1  0.28115300  0.37809400  0.40982700  1
  S  S4  1  0.42690300  0.80801400  0.77240700  1
  S  S5  1  0.57309700  0.19198600  0.22759300  1
  S  S6  1  0.92690300  0.19198600  0.72759300  1
  S  S7  1  0.07309700  0.80801400  0.27240700  1
  O  O0  1  0.12118400  0.17679400  0.52537800  1
  O  O1  1  0.87881600  0.82320600  0.47462200  1
  O  O2  1  0.62118400  0.82320600  0.97462200  1
  O  O3  1  0.37881600  0.17679400  0.02537800  1
  O  O4  1  0.42222200  0.64905900  0.90579900  1
  O  O5  1  0.57777800  0.35094100  0.09420100  1
  O  O6  1  0.92222200  0.35094100  0.59420100  1
  O  O7  1  0.07777800  0.64905900  0.40579900  1
  O  O8  1  0.76019300  0.81700100  0.61787300  1
  O  O9  1  0.23980700  0.18299900  0.38212700  1
  O  O10  1  0.26019300  0.18299900  0.88212700  1
  O  O11  1  0.73980700  0.81700100  0.11787300  1
  O  O12  1  0.47376000  0.32597000  0.63585100  1
  O  O13  1  0.52624000  0.67403000  0.36414900  1
  O  O14  1  0.97376000  0.67403000  0.86414900  1
  O  O15  1  0.02624000  0.32597000  0.13585100  1
  O  O16  1  0.07818300  0.76534100  0.82634700  1
  O  O17  1  0.92181700  0.23465900  0.17365300  1
  O  O18  1  0.57818300  0.23465900  0.67365300  1
  O  O19  1  0.42181700  0.76534100  0.32634700  1
  O  O20  1  0.16378000  0.40581800  0.80564800  1
  O  O21  1  0.83622000  0.59418200  0.19435200  1
  O  O22  1  0.66378000  0.59418200  0.69435200  1
  O  O23  1  0.33622000  0.40581800  0.30564800  1
  O  O24  1  0.38535200  0.71429100  0.65494900  1
  O  O25  1  0.61464800  0.28570900  0.34505100  1
  O  O26  1  0.88535200  0.28570900  0.84505100  1
  O  O27  1  0.11464800  0.71429100  0.15494900  1
  O  O28  1  0.30314400  0.35761300  0.56757700  1
  O  O29  1  0.69685600  0.64238700  0.43242300  1
  O  O30  1  0.80314400  0.64238700  0.93242300  1
  O  O31  1  0.19685600  0.35761300  0.06757700  1
  O  O32  1  0.26816900  0.56051800  0.88785600  1
  O  O33  1  0.73183100  0.43948200  0.11214400  1
  O  O34  1  0.76816900  0.43948200  0.61214400  1
  O  O35  1  0.23183100  0.56051800  0.38785600  1
  O  O36  1  0.49448800  0.85697900  0.72739900  1
  O  O37  1  0.50551200  0.14302100  0.27260100  1
  O  O38  1  0.99448800  0.14302100  0.77260100  1
  O  O39  1  0.00551200  0.85697900  0.22739900  1
  O  O40  1  0.02413100  0.70711900  0.77188200  1
  O  O41  1  0.97586900  0.29288100  0.22811800  1
  O  O42  1  0.52413100  0.29288100  0.72811800  1
  O  O43  1  0.47586900  0.70711900  0.27188200  1
  O  O44  1  0.39005400  0.01038700  0.80770200  1
  O  O45  1  0.60994600  0.98961300  0.19229800  1
  O  O46  1  0.89005400  0.98961300  0.69229800  1
  O  O47  1  0.10994600  0.01038700  0.30770200  1
loop_
_geom_bond_atom_site_label_1
_geom_bond_atom_site_label_2
_geom_bond_distance
_geom_bond_site_symmetry_2
O0 Sm3 2.407263 1_555
O0 Rb0 2.879959 1_545
O1 Sm2 2.407263 1_555
O1 Rb1 2.879959 1_565
O2 Sm1 2.407263 1_556
O2 Rb2 2.879959 1_565
O3 Sm0 2.407263 1_554
O3 Rb3 2.879959 1_545
O4 S4 1.506381 1_555
O4 Sm0 2.417944 1_555
O5 S5 1.506381 1_555
O5 Sm1 2.417944 1_555
O6 S6 1.506381 1_555
O6 Sm2 2.417944 1_555
O7 S7 1.506381 1_555
O7 Sm3 2.417944 1_555
O8 S2 1.521342 1_555
O8 Sm2 2.496786 1_555
O8 Rb1 3.033598 1_565
O8 Rb2 3.351217 1_565
O9 S3 1.521342 1_555
O9 Sm3 2.496786 1_555
O9 Rb0 3.033598 1_545
O9 Rb3 3.351217 1_545
O10 S0 1.521342 1_555
O10 Sm0 2.496786 1_555
O10 Rb3 3.033598 1_546
O10 Rb0 3.351217 1_545
O11 S1 1.521342 1_555
O11 Sm1 2.496786 1_555
O11 Rb2 3.033598 1_564
O11 Rb1 3.351217 1_565
O12 O42 1.317258 1_555
O12 Sm0 2.659798 1_555
O13 O43 1.317258 1_555
O13 Sm1 2.659798 1_555
O14 O40 1.317258 1_655
O14 Sm2 2.659798 1_555
O15 O41 1.317258 1_455
O15 Sm3 2.659798 1_555
O16 O40 1.259593 1_555
O16 Rb0 3.220106 1_555
O17 O41 1.259593 1_555
O17 Rb1 3.220106 1_555
O18 O42 1.259593 1_555
O18 Rb2 3.220106 1_555
O19 O43 1.259593 1_555
O19 Rb3 3.220106 1_555
O20 S0 1.454105 1_555
O20 Rb0 3.219436 1_555
O21 S1 1.454105 1_555
O21 Rb1 3.219436 1_555
O22 S2 1.454105 1_555
O22 Rb2 3.219436 1_555
O23 S3 1.454105 1_555
O23 Rb3 3.219436 1_555
O24 S4 1.506379 1_555
O24 Sm0 2.418058 1_555
O25 S5 1.506379 1_555
O25 Sm1 2.418058 1_555
O26 S6 1.506379 1_555
O26 Sm2 2.418058 1_555
O27 S7 1.506379 1_555
O27 Sm3 2.418058 1_555
O28 S3 1.485967 1_555
O28 Sm0 2.333927 1_555
O29 S2 1.485967 1_555
O29 Sm1 2.333927 1_555
O30 S1 1.485967 1_556
O30 Sm2 2.333927 1_555
O31 S0 1.485967 1_554
O31 Sm3 2.333927 1_555
O32 S0 1.519566 1_555
O32 Sm0 2.436668 1_555
O32 Rb3 2.991805 1_556
O32 Rb0 3.022063 1_555
O33 S1 1.519566 1_555
O33 Sm1 2.436668 1_555
O33 Rb2 2.991805 1_554
O33 Rb1 3.022063 1_555
O34 S2 1.519566 1_555
O34 Sm2 2.436668 1_555
O34 Rb1 2.991805 1_555
O34 Rb2 3.022063 1_555
O35 S3 1.519566 1_555
O35 Sm3 2.436668 1_555
O35 Rb0 2.991805 1_555
O35 Rb3 3.022063 1_555
O36 S4 1.445040 1_555
O37 S5 1.445040 1_555
O38 S6 1.445040 1_555
O39 S7 1.445040 1_555
O44 S4 1.530265 1_545
O44 Sm0 2.353406 1_555
O45 S5 1.530265 1_565
O45 Sm1 2.353406 1_555
O46 S6 1.530265 1_565
O46 Sm2 2.353406 1_555
O47 S7 1.530265 1_545
O47 Sm3 2.353406 1_555
