# generated using pymatgen
data_Sr3Tb2(BO3)4
_symmetry_space_group_name_H-M   'P 1'
_cell_length_a   7.40603200
_cell_length_b   8.72203200
_cell_length_c   16.43287100
_cell_angle_alpha   90.00000000
_cell_angle_beta   90.00000000
_cell_angle_gamma   90.00000000
_symmetry_Int_Tables_number   1
_chemical_formula_structural   Sr3Tb2(BO3)4
_chemical_formula_sum   'Sr12 Tb8 B16 O48'
_cell_volume   1061.49195234
_cell_formula_units_Z   4
loop_
 _symmetry_equiv_pos_site_id
 _symmetry_equiv_pos_as_xyz
  1  'x, y, z'
loop_
 _atom_site_type_symbol
 _atom_site_label
 _atom_site_symmetry_multiplicity
 _atom_site_fract_x
 _atom_site_fract_y
 _atom_site_fract_z
 _atom_site_occupancy
  Sr  Sr0  1  0.02923900  0.33095900  0.45774400  1
  Sr  Sr1  1  0.97076100  0.66904100  0.95774400  1
  Sr  Sr2  1  0.52923900  0.16904100  0.45774400  1
  Sr  Sr3  1  0.47076100  0.83095900  0.95774400  1
  Sr  Sr4  1  0.17933200  0.84792200  0.41388200  1
  Sr  Sr5  1  0.82066800  0.15207800  0.91388200  1
  Sr  Sr6  1  0.67933200  0.65207800  0.41388200  1
  Sr  Sr7  1  0.32066800  0.34792200  0.91388200  1
  Sr  Sr8  1  0.31579100  0.35409600  0.66417500  1
  Sr  Sr9  1  0.68420900  0.64590400  0.16417500  1
  Sr  Sr10  1  0.81579100  0.14590400  0.66417500  1
  Sr  Sr11  1  0.18420900  0.85409600  0.16417500  1
  Tb  Tb0  1  0.31741600  0.46656900  0.28937300  1
  Tb  Tb1  1  0.68258400  0.53343100  0.78937300  1
  Tb  Tb2  1  0.81741600  0.03343100  0.28937300  1
  Tb  Tb3  1  0.18258400  0.96656900  0.78937300  1
  Tb  Tb4  1  0.02764000  0.32944700  0.11989700  1
  Tb  Tb5  1  0.97236000  0.67055300  0.61989700  1
  Tb  Tb6  1  0.52764000  0.17055300  0.11989700  1
  Tb  Tb7  1  0.47236000  0.82944700  0.61989700  1
  B  B0  1  0.16971600  0.06444100  0.99869000  1
  B  B1  1  0.83028400  0.93555900  0.49869000  1
  B  B2  1  0.66971600  0.43555900  0.99869000  1
  B  B3  1  0.33028400  0.56444100  0.49869000  1
  B  B4  1  0.00690400  0.37373300  0.78552400  1
  B  B5  1  0.99309600  0.62626700  0.28552400  1
  B  B6  1  0.50690400  0.12626700  0.78552400  1
  B  B7  1  0.49309600  0.87373300  0.28552400  1
  B  B8  1  0.16114500  0.04448100  0.58625000  1
  B  B9  1  0.83885500  0.95551900  0.08625000  1
  B  B10  1  0.66114500  0.45551900  0.58625000  1
  B  B11  1  0.33885500  0.54448100  0.08625000  1
  B  B12  1  0.21304100  0.15068800  0.28651500  1
  B  B13  1  0.78695900  0.84931200  0.78651500  1
  B  B14  1  0.71304100  0.34931200  0.28651500  1
  B  B15  1  0.28695900  0.65068800  0.78651500  1
  O  O0  1  0.23866300  0.22400600  0.21234500  1
  O  O1  1  0.76133700  0.77599400  0.71234500  1
  O  O2  1  0.73866300  0.27599400  0.21234500  1
  O  O3  1  0.26133700  0.72400600  0.71234500  1
  O  O4  1  0.09519200  0.19227900  0.58391400  1
  O  O5  1  0.90480800  0.80772100  0.08391400  1
  O  O6  1  0.59519200  0.30772100  0.58391400  1
  O  O7  1  0.40480800  0.69227900  0.08391400  1
  O  O8  1  0.08773000  0.20816800  0.00259800  1
  O  O9  1  0.91227000  0.79183200  0.50259800  1
  O  O10  1  0.58773000  0.29183200  0.00259800  1
  O  O11  1  0.41227000  0.70816800  0.50259800  1
  O  O12  1  0.12525600  0.01271100  0.29209200  1
  O  O13  1  0.87474400  0.98728900  0.79209200  1
  O  O14  1  0.62525600  0.48728900  0.29209200  1
  O  O15  1  0.37474400  0.51271100  0.79209200  1
  O  O16  1  0.19716500  0.49982600  0.03643600  1
  O  O17  1  0.80283500  0.50017400  0.53643600  1
  O  O18  1  0.69716500  0.00017400  0.03643600  1
  O  O19  1  0.30283500  0.99982600  0.53643600  1
  O  O20  1  0.11105900  0.24143500  0.78295800  1
  O  O21  1  0.88894100  0.75856500  0.28295800  1
  O  O22  1  0.61105900  0.25856500  0.78295800  1
  O  O23  1  0.38894100  0.74143500  0.28295800  1
  O  O24  1  0.04820400  0.54882100  0.21440800  1
  O  O25  1  0.95179600  0.45117900  0.71440800  1
  O  O26  1  0.54820400  0.95117900  0.21440800  1
  O  O27  1  0.45179600  0.04882100  0.71440800  1
  O  O28  1  0.27155800  0.22926200  0.35445200  1
  O  O29  1  0.72844200  0.77073800  0.85445200  1
  O  O30  1  0.77155800  0.27073800  0.35445200  1
  O  O31  1  0.22844200  0.72926200  0.85445200  1
  O  O32  1  0.38288700  0.46559100  0.43764500  1
  O  O33  1  0.61711300  0.53440900  0.93764500  1
  O  O34  1  0.88288700  0.03440900  0.43764500  1
  O  O35  1  0.11711300  0.96559100  0.93764500  1
  O  O36  1  0.41022800  0.43989200  0.14214800  1
  O  O37  1  0.58977200  0.56010800  0.64214800  1
  O  O38  1  0.91022800  0.06010800  0.14214800  1
  O  O39  1  0.08977200  0.93989200  0.64214800  1
  O  O40  1  0.30680900  0.03115900  0.05357100  1
  O  O41  1  0.69319100  0.96884100  0.55357100  1
  O  O42  1  0.80680900  0.46884100  0.05357100  1
  O  O43  1  0.19319100  0.53115900  0.55357100  1
  O  O44  1  0.06087700  0.57027900  0.35838200  1
  O  O45  1  0.93912300  0.42972100  0.85838200  1
  O  O46  1  0.56087700  0.92972100  0.35838200  1
  O  O47  1  0.43912300  0.07027900  0.85838200  1
loop_
_geom_bond_atom_site_label_1
_geom_bond_atom_site_label_2
_geom_bond_distance
_geom_bond_site_symmetry_2
B0 O35 1.378917 1_545
B0 O40 1.388693 1_556
B0 O8 1.394380 1_556
B1 O34 1.378917 1_565
B1 O41 1.388693 1_555
B1 O9 1.394380 1_555
B2 O33 1.378917 1_555
B2 O42 1.388693 1_556
B2 O10 1.394380 1_556
B3 O32 1.378917 1_555
B3 O43 1.388693 1_555
B3 O11 1.394380 1_555
B4 O45 1.387049 1_455
B4 O20 1.388632 1_555
B4 O25 1.410168 1_455
B5 O44 1.387049 1_655
B5 O21 1.388632 1_555
B5 O24 1.410168 1_655
B6 O47 1.387049 1_555
B6 O22 1.388632 1_555
B6 O27 1.410168 1_555
B7 O46 1.387049 1_555
B7 O23 1.388632 1_555
B7 O26 1.410168 1_555
B8 O4 1.379070 1_555
B8 O19 1.386701 1_545
B8 O39 1.398331 1_545
B9 O5 1.379070 1_555
B9 O18 1.386701 1_565
B9 O38 1.398331 1_565
B10 O6 1.379070 1_555
B10 O17 1.386701 1_555
B10 O37 1.398331 1_555
B11 O7 1.379070 1_555
B11 O16 1.386701 1_555
B11 O36 1.398331 1_555
B12 O12 1.370893 1_555
B12 O28 1.379796 1_555
B12 O0 1.389418 1_555
B13 O13 1.370893 1_555
B13 O29 1.379796 1_555
B13 O1 1.389418 1_555
B14 O14 1.370893 1_555
B14 O30 1.379796 1_555
B14 O2 1.389418 1_555
B15 O15 1.370893 1_555
B15 O31 1.379796 1_555
B15 O3 1.389418 1_555
O0 Tb4 2.365624 1_555
O0 Tb0 2.533446 1_555
O0 Tb6 2.665638 1_555
O1 Tb5 2.365624 1_555
O1 Tb1 2.533446 1_555
O1 Tb7 2.665638 1_555
O2 Tb6 2.365624 1_555
O2 Tb2 2.533446 1_555
O2 Tb4 2.665638 1_655
O3 Tb7 2.365624 1_555
O3 Tb3 2.533446 1_555
O3 Tb5 2.665638 1_455
O4 Sr0 2.449564 1_555
O4 Sr10 2.486958 1_455
O4 Sr8 2.529961 1_555
O5 Sr1 2.449564 1_554
O5 Sr11 2.486958 1_655
O5 Sr9 2.529961 1_555
O6 Sr2 2.449564 1_555
O6 Sr8 2.486958 1_555
O6 Sr10 2.529961 1_555
O7 Sr3 2.449564 1_554
O7 Sr9 2.486958 1_555
O7 Sr11 2.529961 1_555
O8 Tb4 2.243318 1_555
O8 Sr5 2.505325 1_454
O8 Sr7 2.566572 1_554
O9 Tb5 2.243318 1_555
O9 Sr4 2.505325 1_655
O9 Sr6 2.566572 1_555
O10 Tb6 2.243318 1_555
O10 Sr7 2.505325 1_554
O10 Sr5 2.566572 1_554
O11 Tb7 2.243318 1_555
O11 Sr6 2.505325 1_555
O11 Sr4 2.566572 1_555
O12 Tb2 2.287461 1_455
O12 Sr4 2.496327 1_545
O12 Sr11 2.554043 1_545
O13 Tb3 2.287461 1_655
O13 Sr5 2.496327 1_565
O13 Sr10 2.554043 1_565
O14 Tb0 2.287461 1_555
O14 Sr6 2.496327 1_555
O14 Sr9 2.554043 1_555
O15 Tb1 2.287461 1_555
O15 Sr7 2.496327 1_555
O15 Sr8 2.554043 1_555
O16 Tb4 2.380267 1_555
O16 Sr7 2.578344 1_554
O16 Sr1 2.581082 1_454
O17 Tb5 2.380267 1_555
O17 Sr6 2.578344 1_555
O17 Sr0 2.581082 1_655
O18 Tb6 2.380267 1_555
O18 Sr5 2.578344 1_554
O18 Sr3 2.581082 1_544
O19 Tb7 2.380267 1_555
O19 Sr4 2.578344 1_555
O19 Sr2 2.581082 1_565
O20 Tb3 2.457477 1_545
O20 Sr8 2.659827 1_555
O20 Sr7 2.810918 1_555
O20 Sr10 3.047342 1_455
O21 Tb2 2.457477 1_565
O21 Sr9 2.659827 1_555
O21 Sr6 2.810918 1_555
O21 Sr11 3.047342 1_655
O22 Tb1 2.457477 1_555
O22 Sr10 2.659827 1_555
O22 Sr5 2.810918 1_555
O22 Sr8 3.047342 1_555
O23 Tb0 2.457477 1_555
O23 Sr11 2.659827 1_555
O23 Sr4 2.810918 1_555
O23 Sr9 3.047342 1_555
O24 Tb0 2.451006 1_555
O24 Tb4 2.469074 1_555
O24 Sr9 2.943726 1_455
O24 Sr11 2.964036 1_555
O25 Tb1 2.451006 1_555
O25 Tb5 2.469074 1_555
O25 Sr8 2.943726 1_655
O25 Sr10 2.964036 1_555
O26 Tb2 2.451006 1_565
O26 Tb6 2.469074 1_565
O26 Sr11 2.943726 1_555
O26 Sr9 2.964036 1_555
O27 Tb3 2.451006 1_545
O27 Tb7 2.469074 1_545
O27 Sr10 2.943726 1_555
O27 Sr8 2.964036 1_555
O28 Tb0 2.354380 1_555
O28 Sr2 2.607483 1_555
O28 Sr0 2.624606 1_555
O29 Tb1 2.354380 1_555
O29 Sr3 2.607483 1_555
O29 Sr1 2.624606 1_555
O30 Tb2 2.354380 1_555
O30 Sr0 2.607483 1_655
O30 Sr2 2.624606 1_555
O31 Tb3 2.354380 1_555
O31 Sr1 2.607483 1_455
O31 Sr3 2.624606 1_555
O32 Tb0 2.484327 1_555
O32 Sr6 2.760122 1_555
O32 Sr2 2.823823 1_555
O32 Sr0 2.889259 1_555
O33 Tb1 2.484327 1_555
O33 Sr7 2.760122 1_555
O33 Sr3 2.823823 1_555
O33 Sr1 2.889259 1_555
O34 Tb2 2.484327 1_555
O34 Sr4 2.760122 1_645
O34 Sr0 2.823823 1_655
O34 Sr2 2.889259 1_555
O35 Tb3 2.484327 1_555
O35 Sr5 2.760122 1_465
O35 Sr1 2.823823 1_455
O35 Sr3 2.889259 1_555
O36 Tb0 2.525821 1_555
O36 Tb6 2.531500 1_555
O36 Sr9 2.734403 1_555
O37 Tb1 2.525821 1_555
O37 Tb7 2.531500 1_555
O37 Sr8 2.734403 1_555
O38 Tb2 2.525821 1_555
O38 Tb4 2.531500 1_655
O38 Sr11 2.734403 1_645
O39 Tb3 2.525821 1_555
O39 Tb5 2.531500 1_455
O39 Sr10 2.734403 1_465
O40 Tb6 2.311040 1_555
O40 Sr11 2.552038 1_545
O40 Sr3 2.646342 1_544
O41 Tb7 2.311040 1_555
O41 Sr10 2.552038 1_565
O41 Sr2 2.646342 1_565
O42 Tb4 2.311040 1_655
O42 Sr9 2.552038 1_555
O42 Sr1 2.646342 1_554
O43 Tb5 2.311040 1_455
O43 Sr8 2.552038 1_555
O43 Sr0 2.646342 1_555
O44 Tb0 2.390394 1_555
O44 Sr0 2.660452 1_555
O44 Sr4 2.732327 1_555
O45 Tb1 2.390394 1_555
O45 Sr1 2.660452 1_555
O45 Sr5 2.732327 1_555
O46 Tb2 2.390394 1_565
O46 Sr2 2.660452 1_565
O46 Sr6 2.732327 1_555
O47 Tb3 2.390394 1_545
O47 Sr3 2.660452 1_545
O47 Sr7 2.732327 1_555
