# generated using pymatgen
data_K10LiZr6H4O2F35
_symmetry_space_group_name_H-M   'P 1'
_cell_length_a   7.66171300
_cell_length_b   11.24552800
_cell_length_c   20.82494722
_cell_angle_alpha   90.00000000
_cell_angle_beta   97.36543356
_cell_angle_gamma   90.00000000
_symmetry_Int_Tables_number   1
_chemical_formula_structural   K10LiZr6H4O2F35
_chemical_formula_sum   'K20 Li2 Zr12 H8 O4 F70'
_cell_volume   1779.47246890
_cell_formula_units_Z   2
loop_
 _symmetry_equiv_pos_site_id
 _symmetry_equiv_pos_as_xyz
  1  'x, y, z'
loop_
 _atom_site_type_symbol
 _atom_site_label
 _atom_site_symmetry_multiplicity
 _atom_site_fract_x
 _atom_site_fract_y
 _atom_site_fract_z
 _atom_site_occupancy
  K  K0  1  0.25545400  0.66941900  0.00750800  1
  K  K1  1  0.74454600  0.16941900  0.99249200  1
  K  K2  1  0.88463500  0.67188900  0.28378300  1
  K  K3  1  0.11536500  0.17188900  0.71621700  1
  K  K4  1  0.22057200  0.68860400  0.45665900  1
  K  K5  1  0.77942800  0.18860400  0.54334100  1
  K  K6  1  0.71338600  0.67169800  0.73421100  1
  K  K7  1  0.28661400  0.17169800  0.26578900  1
  K  K8  1  0.79444700  0.82186000  0.05060900  1
  K  K9  1  0.20555300  0.32186000  0.94939100  1
  K  K10  1  0.49404800  0.86646100  0.87823200  1
  K  K11  1  0.50595200  0.36646100  0.12176800  1
  K  K12  1  0.17348200  0.82241600  0.71237600  1
  K  K13  1  0.82651800  0.32241600  0.28762400  1
  K  K14  1  0.80740000  0.84214400  0.55329100  1
  K  K15  1  0.19260000  0.34214400  0.44670900  1
  K  K16  1  0.53891000  0.88155000  0.36894100  1
  K  K17  1  0.46109000  0.38155000  0.63105900  1
  K  K18  1  0.23300300  0.82461400  0.19200600  1
  K  K19  1  0.76699700  0.32461400  0.80799400  1
  Li  Li0  1  0.98653800  0.66988900  0.87036300  1
  Li  Li1  1  0.01346200  0.16988900  0.12963700  1
  Zr  Zr0  1  0.01096100  0.46911800  0.12832800  1
  Zr  Zr1  1  0.98903900  0.96911800  0.87167200  1
  Zr  Zr2  1  0.70008800  0.52679400  0.94684000  1
  Zr  Zr3  1  0.29991200  0.02679400  0.05316000  1
  Zr  Zr4  1  0.27690900  0.51836100  0.79872500  1
  Zr  Zr5  1  0.72309100  0.01836100  0.20127500  1
  Zr  Zr6  1  0.37673600  0.52905100  0.29855500  1
  Zr  Zr7  1  0.62326400  0.02905100  0.70144500  1
  Zr  Zr8  1  0.00226800  0.50689200  0.60596600  1
  Zr  Zr9  1  0.99773200  0.00689200  0.39403400  1
  Zr  Zr10  1  0.70662300  0.51636300  0.44798200  1
  Zr  Zr11  1  0.29337700  0.01636300  0.55201800  1
  H  H0  1  0.44004100  0.73045800  0.60170900  1
  H  H1  1  0.55995900  0.23045800  0.39829100  1
  H  H2  1  0.53506300  0.62165300  0.57400300  1
  H  H3  1  0.46493700  0.12165300  0.42599700  1
  H  H4  1  0.52910000  0.64840300  0.16230800  1
  H  H5  1  0.47090000  0.14840300  0.83769200  1
  H  H6  1  0.63748000  0.61402400  0.10621300  1
  H  H7  1  0.36252000  0.11402400  0.89378700  1
  O  O0  1  0.54849000  0.68230300  0.60778500  1
  O  O1  1  0.45151000  0.18230300  0.39221500  1
  O  O2  1  0.52867800  0.65203400  0.11468300  1
  O  O3  1  0.47132200  0.15203400  0.88531700  1
  F  F0  1  0.80422200  0.52471000  0.05127900  1
  F  F1  1  0.19577800  0.02471000  0.94872100  1
  F  F2  1  0.19790000  0.53859400  0.20981500  1
  F  F3  1  0.80210000  0.03859400  0.79018500  1
  F  F4  1  0.17655600  0.45877600  0.05928000  1
  F  F5  1  0.82344400  0.95877600  0.94072000  1
  F  F6  1  0.83262500  0.49094900  0.19372600  1
  F  F7  1  0.16737500  0.99094900  0.80627400  1
  F  F8  1  0.15716800  0.32473500  0.16730500  1
  F  F9  1  0.84283200  0.82473500  0.83269500  1
  F  F10  1  0.85849900  0.31820600  0.10142000  1
  F  F11  1  0.14150100  0.81820600  0.89858000  1
  F  F12  1  0.02603200  0.65232600  0.12028200  1
  F  F13  1  0.97396800  0.15232600  0.87971800  1
  F  F14  1  0.48754600  0.46548400  0.87366200  1
  F  F15  1  0.51245400  0.96548400  0.12633800  1
  F  F16  1  0.55733000  0.67785200  0.95635400  1
  F  F17  1  0.44267000  0.17785200  0.04364600  1
  F  F18  1  0.83988000  0.37365900  0.93938300  1
  F  F19  1  0.16012000  0.87365900  0.06061700  1
  F  F20  1  0.52345400  0.43524600  0.99496400  1
  F  F21  1  0.47654600  0.93524600  0.00503600  1
  F  F22  1  0.91026500  0.64679100  0.96074000  1
  F  F23  1  0.08973500  0.14679100  0.03926000  1
  F  F24  1  0.77429200  0.56048500  0.85488100  1
  F  F25  1  0.22570800  0.06048500  0.14511900  1
  F  F26  1  0.18870100  0.51828500  0.69296400  1
  F  F27  1  0.81129900  0.01828500  0.30703600  1
  F  F28  1  0.40753600  0.67502900  0.79319400  1
  F  F29  1  0.59246400  0.17502900  0.20680600  1
  F  F30  1  0.13934400  0.36135300  0.79727500  1
  F  F31  1  0.86065600  0.86135300  0.20272500  1
  F  F32  1  0.47359100  0.44019700  0.75269900  1
  F  F33  1  0.52640900  0.94019700  0.24730100  1
  F  F34  1  0.18867300  0.54552600  0.88848000  1
  F  F35  1  0.81132700  0.04552600  0.11152000  1
  F  F36  1  0.05725200  0.63066000  0.78192600  1
  F  F37  1  0.94274800  0.13066000  0.21807400  1
  F  F38  1  0.65110500  0.55351400  0.34201100  1
  F  F39  1  0.34889500  0.05351400  0.65798900  1
  F  F40  1  0.41706000  0.49401000  0.40114300  1
  F  F41  1  0.58294000  0.99401000  0.59885700  1
  F  F42  1  0.25495100  0.68164900  0.32534300  1
  F  F43  1  0.74504900  0.18164900  0.67465700  1
  F  F44  1  0.48560800  0.38637200  0.26034600  1
  F  F45  1  0.51439200  0.88637200  0.73965400  1
  F  F46  1  0.49302400  0.64855100  0.24010700  1
  F  F47  1  0.50697600  0.14855100  0.75989300  1
  F  F48  1  0.16768600  0.42461500  0.31508800  1
  F  F49  1  0.83231400  0.92461500  0.68491200  1
  F  F50  1  0.85115300  0.61256400  0.52932700  1
  F  F51  1  0.14884700  0.11256400  0.47067300  1
  F  F52  1  0.89727600  0.40332300  0.52025600  1
  F  F53  1  0.10272400  0.90332300  0.47974400  1
  F  F54  1  0.79666800  0.46212800  0.65348000  1
  F  F55  1  0.20333200  0.96212800  0.34652000  1
  F  F56  1  0.21290900  0.53613000  0.55656100  1
  F  F57  1  0.78709100  0.03613000  0.44343900  1
  F  F58  1  0.98164700  0.67757200  0.63860600  1
  F  F59  1  0.01835300  0.17757200  0.36139400  1
  F  F60  1  0.09731600  0.33600300  0.62336900  1
  F  F61  1  0.90268400  0.83600300  0.37663100  1
  F  F62  1  0.94707800  0.54543600  0.41716300  1
  F  F63  1  0.05292200  0.04543600  0.58283700  1
  F  F64  1  0.56399400  0.46439600  0.51992000  1
  F  F65  1  0.43600600  0.96439600  0.48008000  1
  F  F66  1  0.70835700  0.34691700  0.40976700  1
  F  F67  1  0.29164300  0.84691700  0.59023300  1
  F  F68  1  0.59617600  0.68425100  0.44592000  1
  F  F69  1  0.40382400  0.18425100  0.55408000  1
loop_
_geom_bond_atom_site_label_1
_geom_bond_atom_site_label_2
_geom_bond_distance
_geom_bond_site_symmetry_2
K0 O2 2.864246 1_555
K1 O3 2.864246 1_555
K6 O0 2.772949 1_555
K7 O1 2.772949 1_555
K14 O0 3.005174 1_555
K15 O1 3.005174 1_555
H0 O0 0.986261 1_555
H1 O1 0.986261 1_555
H2 O0 0.975772 1_555
H3 O1 0.975772 1_555
H4 O2 0.992219 1_555
H5 O3 0.992219 1_555
H6 O2 0.972844 1_555
H6 K8 2.933745 1_555
H7 O3 0.972844 1_555
H7 K9 2.933745 1_555
F0 Zr0 2.196068 1_655
F0 Zr2 2.218681 1_554
F1 Zr1 2.196068 1_445
F1 Zr3 2.218681 1_556
F2 Zr6 2.157508 1_555
F2 Zr0 2.217733 1_555
F3 Zr7 2.157508 1_555
F3 Zr1 2.217733 1_545
F4 Zr0 2.039265 1_555
F4 K0 2.702979 1_555
F4 K9 2.790572 1_554
F4 K11 2.880682 1_555
F5 Zr1 2.039265 1_555
F5 K1 2.702979 1_565
F5 K8 2.790572 1_556
F5 K10 2.880682 1_555
F6 Zr0 2.063764 1_655
F6 K13 2.727868 1_555
F6 K2 2.761285 1_555
F6 K11 3.083525 1_555
F7 Zr1 2.063764 1_455
F7 K12 2.727868 1_555
F7 K3 2.761285 1_565
F7 K10 3.083525 1_555
F8 Zr0 2.077701 1_555
F8 Li1 2.153690 1_555
F8 K7 2.762276 1_555
F8 K11 2.985012 1_555
F9 Zr1 2.077701 1_555
F9 Li0 2.153690 1_555
F9 K6 2.762276 1_555
F9 K10 2.985012 1_555
F10 Li1 2.087572 1_655
F10 Zr0 2.095418 1_655
F10 K11 2.839633 1_555
F10 K1 2.863522 1_554
F11 Li0 2.087572 1_455
F11 Zr1 2.095418 1_455
F11 K10 2.839633 1_555
F11 K0 2.863522 1_556
F12 Zr0 2.071493 1_555
F12 K18 2.809288 1_555
F12 K8 2.868476 1_455
F12 K0 3.114584 1_555
F13 Zr1 2.071493 1_545
F13 K19 2.809288 1_555
F13 K9 2.868476 1_655
F13 K1 3.114584 1_555
F14 Zr4 2.178918 1_555
F14 Zr2 2.193911 1_555
F15 Zr5 2.178918 1_565
F15 Zr3 2.193911 1_565
F16 Zr2 2.043728 1_555
F16 K0 2.669267 1_556
F16 K10 2.679229 1_555
F16 K8 2.976843 1_556
F17 Zr3 2.043728 1_555
F17 K1 2.669267 1_554
F17 K11 2.679229 1_555
F17 K9 2.976843 1_554
F18 Zr2 2.044376 1_555
F18 K1 2.690556 1_555
F18 K19 2.776849 1_555
F18 K9 2.842967 1_655
F19 Zr3 2.044376 1_565
F19 K0 2.690556 1_555
F19 K18 2.776849 1_555
F19 K8 2.842967 1_455
F20 Zr2 2.059966 1_555
F20 K11 2.771342 1_556
F20 K9 2.804700 1_555
F21 Zr3 2.059966 1_565
F21 K10 2.771342 1_554
F21 K8 2.804700 1_555
F22 Li0 2.057488 1_555
F22 Zr2 2.092452 1_555
F22 K0 2.710633 1_656
F22 K8 2.931167 1_556
F23 Li1 2.057488 1_555
F23 Zr3 2.092452 1_555
F23 K1 2.710633 1_454
F23 K9 2.931167 1_554
F24 Li0 2.031649 1_555
F24 Zr2 2.100787 1_555
F24 K6 2.792153 1_555
F24 K19 2.824580 1_555
F25 Li1 2.031649 1_555
F25 Zr3 2.100787 1_555
F25 K7 2.792153 1_555
F25 K18 2.824580 1_545
F26 Zr8 2.162308 1_555
F26 Zr4 2.219451 1_555
F26 K17 3.011908 1_555
F27 Zr9 2.162308 1_555
F27 Zr5 2.219451 1_555
F27 K16 3.011908 1_545
F28 Zr4 2.036779 1_555
F28 K6 2.781975 1_555
F28 K10 2.812270 1_555
F28 K12 2.832252 1_555
F29 Zr5 2.036779 1_555
F29 K7 2.781975 1_555
F29 K11 2.812270 1_555
F29 K13 2.832252 1_555
F30 Zr4 2.054534 1_555
F30 K3 2.709840 1_555
F30 K19 2.919307 1_455
F30 K9 3.174518 1_555
F31 Zr5 2.054534 1_565
F31 K2 2.709840 1_555
F31 K18 2.919307 1_655
F31 K8 3.174518 1_555
F32 Zr4 2.081459 1_555
F32 K17 2.607443 1_555
F32 K19 2.721252 1_555
F32 K6 3.237667 1_555
F33 Zr5 2.081459 1_565
F33 K16 2.607443 1_555
F33 K18 2.721252 1_555
F33 K7 3.237667 1_565
F34 Li0 2.084918 1_455
F34 Zr4 2.089983 1_555
F34 K9 2.812494 1_555
F34 K0 2.832305 1_556
F35 Li1 2.084918 1_655
F35 Zr5 2.089983 1_555
F35 K8 2.812494 1_545
F35 K1 2.832305 1_554
F36 Li0 2.033674 1_455
F36 Zr4 2.097276 1_555
F36 K6 2.733177 1_455
F36 K12 2.805631 1_555
F37 Li1 2.033674 1_655
F37 Zr5 2.097276 1_555
F37 K7 2.733177 1_655
F37 K13 2.805631 1_555
F38 Zr6 2.196786 1_555
F38 Zr10 2.232698 1_555
F38 K2 2.645772 1_555
F39 Zr7 2.196786 1_555
F39 Zr11 2.232698 1_555
F39 K3 2.645772 1_555
F40 Zr6 2.155379 1_555
F40 Zr10 2.319859 1_555
F40 K15 2.681976 1_555
F40 K4 2.972860 1_555
F41 Zr7 2.155379 1_565
F41 Zr11 2.319859 1_565
F41 K14 2.681976 1_555
F41 K5 2.972860 1_565
F42 Zr6 2.064006 1_555
F42 K4 2.781813 1_555
F42 K2 2.860336 1_455
F42 K16 3.178779 1_555
F43 Zr7 2.064006 1_555
F43 K5 2.781813 1_555
F43 K3 2.860336 1_655
F43 K17 3.178779 1_555
F44 Zr6 2.018301 1_555
F44 K13 2.698491 1_555
F44 K7 2.865250 1_555
F44 K11 2.918572 1_555
F45 Zr7 2.018301 1_565
F45 K12 2.698491 1_555
F45 K6 2.865250 1_555
F45 K10 2.918572 1_555
F46 Zr6 2.087893 1_555
F46 K18 2.894947 1_555
F46 K2 3.032972 1_555
F47 Zr7 2.087893 1_555
F47 K19 2.894947 1_555
F47 K3 3.032972 1_555
F48 Zr6 2.050517 1_555
F48 K13 2.845573 1_455
F48 K15 2.876716 1_555
F48 K7 3.195860 1_555
F49 Zr7 2.050517 1_565
F49 K12 2.845573 1_655
F49 K14 2.876716 1_555
F49 K6 3.195860 1_555
F50 Zr10 2.187527 1_555
F50 Zr8 2.196837 1_655
F50 K14 2.658899 1_555
F51 Zr11 2.187527 1_555
F51 Zr9 2.196837 1_455
F51 K15 2.658899 1_555
F52 Zr8 2.195756 1_655
F52 Zr10 2.334802 1_555
F52 K5 2.643501 1_555
F52 K15 2.971106 1_655
F53 Zr9 2.195756 1_465
F53 Zr11 2.334802 1_565
F53 K4 2.643501 1_555
F53 K14 2.971106 1_455
F54 Zr8 2.028179 1_655
F54 K17 2.709589 1_555
F54 K6 3.010457 1_555
F55 Zr9 2.028179 1_465
F55 K16 2.709589 1_555
F55 K7 3.010457 1_565
F56 Zr8 2.048648 1_555
F56 K4 2.702421 1_555
F56 K17 2.878889 1_555
F56 K15 3.150425 1_555
F57 Zr9 2.048648 1_555
F57 K5 2.702421 1_555
F57 K16 2.878889 1_545
F57 K14 3.150425 1_545
F58 Zr8 2.049041 1_655
F58 K12 2.567988 1_655
F58 K14 2.784931 1_555
F58 K6 3.040055 1_555
F59 Zr9 2.049041 1_455
F59 K13 2.567988 1_455
F59 K15 2.784931 1_555
F59 K7 3.040055 1_555
F60 Zr8 2.070524 1_555
F60 K3 2.663691 1_555
F60 K17 2.818095 1_555
F61 Zr9 2.070524 1_565
F61 K2 2.663691 1_555
F61 K16 2.818095 1_555
F62 Zr10 2.053295 1_555
F62 K4 2.686550 1_655
F62 K15 2.974358 1_655
F62 K2 3.102511 1_555
F63 Zr11 2.053295 1_555
F63 K5 2.686550 1_455
F63 K14 2.974358 1_445
F63 K3 3.102511 1_555
F64 Zr10 2.049331 1_555
F64 K17 2.704474 1_555
F65 Zr11 2.049331 1_565
F65 K16 2.704474 1_555
F66 Zr10 2.065718 1_555
F66 K13 2.820628 1_555
F67 Zr11 2.065718 1_565
F67 K12 2.820628 1_555
F68 Zr10 2.067150 1_555
F68 K16 2.739492 1_555
F68 K4 2.915301 1_555
F68 K14 3.137455 1_555
F69 Zr11 2.067150 1_555
F69 K17 2.739492 1_555
F69 K5 2.915301 1_555
F69 K15 3.137455 1_555
