# generated using pymatgen
data_Li6Mn3Co(PO4)6
_symmetry_space_group_name_H-M   'P 1'
_cell_length_a   8.50678500
_cell_length_b   8.53489256
_cell_length_c   8.55515111
_cell_angle_alpha   62.52890478
_cell_angle_beta   61.64000897
_cell_angle_gamma   61.86073051
_symmetry_Int_Tables_number   1
_chemical_formula_structural   Li6Mn3Co(PO4)6
_chemical_formula_sum   'Li6 Mn3 Co1 P6 O24'
_cell_volume   458.90133138
_cell_formula_units_Z   1
loop_
 _symmetry_equiv_pos_site_id
 _symmetry_equiv_pos_as_xyz
  1  'x, y, z'
loop_
 _atom_site_type_symbol
 _atom_site_label
 _atom_site_symmetry_multiplicity
 _atom_site_fract_x
 _atom_site_fract_y
 _atom_site_fract_z
 _atom_site_occupancy
  Li  Li0  1  0.99095400  0.00777800  0.00686800  1
  Li  Li1  1  0.34871200  0.75073400  0.14892300  1
  Li  Li2  1  0.50712500  0.47248400  0.50865000  1
  Li  Li3  1  0.66257800  0.21819300  0.85216300  1
  Li  Li4  1  0.83372600  0.66275400  0.22523500  1
  Li  Li5  1  0.22389700  0.84940700  0.65772400  1
  Mn  Mn0  1  0.14043100  0.14384700  0.13942200  1
  Mn  Mn1  1  0.35402800  0.36037700  0.36175900  1
  Mn  Mn2  1  0.64677800  0.64090300  0.65247000  1
  Co  Co0  1  0.85307700  0.85496500  0.85020600  1
  P  P0  1  0.44821900  0.05299200  0.74691200  1
  P  P1  1  0.75124800  0.44321000  0.05974700  1
  P  P2  1  0.04693300  0.74419100  0.45555800  1
  P  P3  1  0.96245000  0.25110900  0.53815000  1
  P  P4  1  0.25462400  0.55086400  0.96532100  1
  P  P5  1  0.53173600  0.96389700  0.24516000  1
  O  O0  1  0.47865300  0.13643000  0.29737700  1
  O  O1  1  0.11624200  0.32398600  0.49857300  1
  O  O2  1  0.25984500  0.05618600  0.91486900  1
  O  O3  1  0.30839900  0.53599000  0.12364800  1
  O  O4  1  0.42827900  0.24156300  0.58491400  1
  O  O5  1  0.60709100  0.03569700  0.79812400  1
  O  O6  1  0.91039900  0.25176500  0.07949800  1
  O  O7  1  0.57843300  0.43944200  0.24863500  1
  O  O8  1  0.24444200  0.58121800  0.43943700  1
  O  O9  1  0.99801500  0.19220500  0.37825600  1
  O  O10  1  0.95325600  0.09101100  0.72648100  1
  O  O11  1  0.21826200  0.37887200  0.00166400  1
  O  O12  1  0.80327000  0.60482700  0.03562300  1
  O  O13  1  0.07200200  0.88585800  0.25865200  1
  O  O14  1  0.02812800  0.80585900  0.60719200  1
  O  O15  1  0.76198100  0.40590300  0.56673200  1
  O  O16  1  0.41484400  0.57591200  0.76717500  1
  O  O17  1  0.08832200  0.73707700  0.94632100  1
  O  O18  1  0.37480000  0.97506900  0.19248300  1
  O  O19  1  0.56351300  0.77368500  0.39947300  1
  O  O20  1  0.69516100  0.47103000  0.90119700  1
  O  O21  1  0.72272300  0.95813800  0.08094700  1
  O  O22  1  0.88138300  0.68531500  0.49896900  1
  O  O23  1  0.48704400  0.88925700  0.68849400  1
loop_
_geom_bond_atom_site_label_1
_geom_bond_atom_site_label_2
_geom_bond_distance
_geom_bond_site_symmetry_2
Li0 O6 2.152986 1_555
Li0 O13 2.205518 1_645
Li0 O2 2.214363 1_654
Li0 O21 2.253439 1_545
Li0 O17 2.276803 1_644
Li0 O10 2.303320 1_554
Li1 O13 2.022657 1_555
Li1 O3 2.133663 1_555
Li1 O8 2.203571 1_555
Li1 O18 2.234228 1_555
Li1 O2 2.477986 1_564
Li1 O7 2.490145 1_555
Li2 O4 2.098742 1_555
Li2 O7 2.128671 1_555
Li2 O15 2.207022 1_555
Li2 O8 2.235898 1_555
Li2 O16 2.405284 1_555
Li2 O19 2.496657 1_555
Li3 O5 2.104218 1_555
Li3 O10 2.113766 1_555
Li3 O21 2.211627 1_546
Li3 O15 2.225178 1_555
Li3 O20 2.533635 1_555
Li4 O12 2.050114 1_555
Li4 O19 2.096728 1_555
Li4 O21 2.182193 1_555
Li4 O17 2.403441 1_654
Li5 O17 2.121099 1_555
Li5 O14 2.124742 1_555
Li5 O16 2.194548 1_555
Li5 O10 2.291981 1_465
Li5 O23 2.560582 1_555
Mn0 O6 1.938484 1_455
Mn0 O9 1.941060 1_455
Mn0 O18 1.950291 1_545
Mn0 O2 2.009348 1_554
Mn0 O11 2.044832 1_555
Mn0 O13 2.190990 1_545
Mn1 O1 1.888406 1_555
Mn1 O0 1.893634 1_555
Mn1 O8 1.942437 1_555
Mn1 O4 1.956364 1_555
Mn1 O7 1.973203 1_555
Mn1 O3 1.983016 1_555
Mn2 O22 1.901480 1_555
Mn2 O16 1.963199 1_555
Mn2 O23 1.980530 1_555
Mn2 O20 2.054808 1_555
Mn2 O15 2.083665 1_555
Mn2 O19 2.215187 1_555
Co0 O14 1.997377 1_655
Co0 O5 2.040533 1_565
Co0 O12 2.084191 1_556
Co0 O21 2.122486 1_556
Co0 O17 2.143358 1_655
Co0 O10 2.168041 1_565
O0 P5 1.536210 1_545
O1 P3 1.538028 1_455
O2 P0 1.562286 1_555
O3 P4 1.560550 1_554
O4 P0 1.564528 1_555
O5 P0 1.534588 1_555
O6 P1 1.551565 1_555
O7 P1 1.585347 1_555
O8 P2 1.590351 1_555
O9 P3 1.520960 1_555
O10 P3 1.555344 1_555
O11 P4 1.504333 1_554
O12 P1 1.538667 1_555
O13 P2 1.538806 1_555
O14 P2 1.529328 1_555
O15 P3 1.578039 1_555
O16 P4 1.588230 1_555
O17 P4 1.553400 1_555
O18 P5 1.551232 1_555
O19 P5 1.548947 1_555
O20 P1 1.527981 1_556
O21 P5 1.560662 1_555
O22 P2 1.540187 1_655
O23 P0 1.537515 1_565
