# generated using pymatgen
data_Zn(SnO2)4
_symmetry_space_group_name_H-M   'P 1'
_cell_length_a   7.81023952
_cell_length_b   7.81023952
_cell_length_c   10.48907172
_cell_angle_alpha   48.75305751
_cell_angle_beta   48.75305751
_cell_angle_gamma   23.81383865
_symmetry_Int_Tables_number   1
_chemical_formula_structural   Zn(SnO2)4
_chemical_formula_sum   'Zn1 Sn4 O8'
_cell_volume   190.89205403
_cell_formula_units_Z   1
loop_
 _symmetry_equiv_pos_site_id
 _symmetry_equiv_pos_as_xyz
  1  'x, y, z'
loop_
 _atom_site_type_symbol
 _atom_site_label
 _atom_site_symmetry_multiplicity
 _atom_site_fract_x
 _atom_site_fract_y
 _atom_site_fract_z
 _atom_site_occupancy
  Zn  Zn0  1  0.52706500  0.52706500  0.95696400  1
  Sn  Sn0  1  0.36869900  0.36869900  0.44252100  1
  Sn  Sn1  1  0.85649400  0.85649400  0.78382800  1
  Sn  Sn2  1  0.17338000  0.17338000  0.15150100  1
  Sn  Sn3  1  0.66085200  0.66085200  0.49232100  1
  O  O0  1  0.15583600  0.15583600  0.36767500  1
  O  O1  1  0.55390900  0.55390900  0.24431000  1
  O  O2  1  0.47559100  0.47559100  0.69079200  1
  O  O3  1  0.87272000  0.87272000  0.56853400  1
  O  O4  1  0.85011300  0.85011300  0.33206800  1
  O  O5  1  0.23578100  0.23578100  0.89568000  1
  O  O6  1  0.17903900  0.17903900  0.60353300  1
  O  O7  1  0.79359900  0.79359900  0.03962600  1
loop_
_geom_bond_atom_site_label_1
_geom_bond_atom_site_label_2
_geom_bond_distance
_geom_bond_site_symmetry_2
O0 Sn2 2.096170 1_555
O0 Sn3 2.108792 1_455
O0 Sn3 2.108792 1_545
O1 Sn0 2.098755 1_555
O1 Sn2 2.117372 1_655
O1 Sn2 2.117372 1_565
O2 Sn3 2.099510 1_555
O2 Sn1 2.113934 1_545
O2 Sn1 2.113934 1_455
O3 Sn1 2.099142 1_555
O3 Sn0 2.111159 1_565
O3 Sn0 2.111159 1_655
O4 Sn0 2.112617 1_565
O4 Sn0 2.112617 1_655
O4 Sn3 2.154241 1_555
O5 Sn1 2.111919 1_455
O5 Sn1 2.111919 1_545
O5 Sn2 2.158942 1_556
O6 Sn3 2.114638 1_455
O6 Sn3 2.114638 1_545
O6 Sn0 2.158237 1_555
O7 Sn2 2.108152 1_565
O7 Sn2 2.108152 1_655
O7 Sn1 2.155737 1_554
