# generated using pymatgen
data_Er2BPt6
_symmetry_space_group_name_H-M   'P 1'
_cell_length_a   4.27709065
_cell_length_b   4.27709065
_cell_length_c   7.97560614
_cell_angle_alpha   90.00000000
_cell_angle_beta   90.00000000
_cell_angle_gamma   90.00000000
_symmetry_Int_Tables_number   1
_chemical_formula_structural   Er2BPt6
_chemical_formula_sum   'Er2 B1 Pt6'
_cell_volume   145.90178624
_cell_formula_units_Z   1
loop_
 _symmetry_equiv_pos_site_id
 _symmetry_equiv_pos_as_xyz
  1  'x, y, z'
loop_
 _atom_site_type_symbol
 _atom_site_label
 _atom_site_symmetry_multiplicity
 _atom_site_fract_x
 _atom_site_fract_y
 _atom_site_fract_z
 _atom_site_occupancy
  Er  Er0  1  -0.00000000  -0.00000000  0.99125801  1
  Er  Er1  1  0.00000000  0.00000000  0.50874199  1
  B  B0  1  0.50000000  0.50000000  0.25000000  1
  Pt  Pt0  1  0.50000000  0.50000000  0.98688851  1
  Pt  Pt1  1  0.50000000  0.50000000  0.51311149  1
  Pt  Pt2  1  0.50000000  -0.00000000  0.25000000  1
  Pt  Pt3  1  0.50000000  -0.00000000  0.75000000  1
  Pt  Pt4  1  0.00000000  0.50000000  0.25000000  1
  Pt  Pt5  1  0.00000000  0.50000000  0.75000000  1
loop_
_geom_bond_atom_site_label_1
_geom_bond_atom_site_label_2
_geom_bond_distance
_geom_bond_site_symmetry_2
Er0 Pt5 2.876776 1_555
Er0 Pt3 2.876776 1_455
Er0 Pt3 2.876776 1_555
Er0 Pt5 2.876776 1_545
Er0 Pt4 2.971855 1_546
Er0 Pt4 2.971855 1_556
Er0 Pt2 2.971855 1_556
Er0 Pt2 2.971855 1_456
Er0 Pt0 3.024561 1_455
Er0 Pt0 3.024561 1_555
Er0 Pt0 3.024561 1_445
Er0 Pt0 3.024561 1_545
Er1 Pt5 2.876776 1_555
Er1 Pt3 2.876776 1_455
Er1 Pt3 2.876776 1_555
Er1 Pt5 2.876776 1_545
Er1 Pt4 2.971855 1_555
Er1 Pt2 2.971855 1_455
Er1 Pt4 2.971855 1_545
Er1 Pt2 2.971855 1_555
Er1 Pt1 3.024561 1_555
Er1 Pt1 3.024561 1_545
Er1 Pt1 3.024561 1_445
Er1 Pt1 3.024561 1_455
B0 Pt0 2.098474 1_554
B0 Pt1 2.098474 1_555
B0 Pt2 2.138545 1_555
B0 Pt2 2.138545 1_565
B0 Pt4 2.138545 1_555
B0 Pt4 2.138545 1_655
