# generated using pymatgen
data_Cd4HgSe5
_symmetry_space_group_name_H-M   'P 1'
_cell_length_a   4.41062809
_cell_length_b   4.41062809
_cell_length_c   35.93631200
_cell_angle_alpha   90.00000000
_cell_angle_beta   90.00000000
_cell_angle_gamma   120.00000137
_symmetry_Int_Tables_number   1
_chemical_formula_structural   Cd4HgSe5
_chemical_formula_sum   'Cd8 Hg2 Se10'
_cell_volume   605.43149451
_cell_formula_units_Z   2
loop_
 _symmetry_equiv_pos_site_id
 _symmetry_equiv_pos_as_xyz
  1  'x, y, z'
loop_
 _atom_site_type_symbol
 _atom_site_label
 _atom_site_symmetry_multiplicity
 _atom_site_fract_x
 _atom_site_fract_y
 _atom_site_fract_z
 _atom_site_occupancy
  Cd  Cd0  1  0.00000000  0.00000000  0.10023800  1
  Cd  Cd1  1  0.00000000  0.00000000  0.30008100  1
  Cd  Cd2  1  0.00000000  0.00000000  0.50009200  1
  Cd  Cd3  1  0.00000000  0.00000000  0.70005700  1
  Cd  Cd4  1  0.00000000  0.00000000  0.90021400  1
  Cd  Cd5  1  0.33333300  0.66666700  0.20006400  1
  Cd  Cd6  1  0.33333300  0.66666700  0.40008900  1
  Cd  Cd7  1  0.33333300  0.66666700  0.60007900  1
  Hg  Hg0  1  0.33333300  0.66666700  0.79996400  1
  Hg  Hg1  1  0.33333300  0.66666700  0.99994400  1
  Se  Se0  1  0.00000000  0.00000000  0.02541900  1
  Se  Se1  1  0.00000000  0.00000000  0.22492000  1
  Se  Se2  1  0.00000000  0.00000000  0.42491000  1
  Se  Se3  1  0.00000000  0.00000000  0.62488600  1
  Se  Se4  1  0.00000000  0.00000000  0.82538500  1
  Se  Se5  1  0.33333300  0.66666700  0.12494100  1
  Se  Se6  1  0.33333300  0.66666700  0.32491200  1
  Se  Se7  1  0.33333300  0.66666700  0.52490600  1
  Se  Se8  1  0.33333300  0.66666700  0.72443100  1
  Se  Se9  1  0.33333300  0.66666700  0.92446700  1
loop_
_geom_bond_atom_site_label_1
_geom_bond_atom_site_label_2
_geom_bond_distance
_geom_bond_site_symmetry_2
Cd0 Se0 2.688719 1_555
Cd0 Se5 2.696777 1_545
Cd0 Se5 2.696781 1_555
Cd0 Se5 2.696781 1_445
Cd1 Se6 2.698295 1_545
Cd1 Se6 2.698298 1_555
Cd1 Se6 2.698298 1_445
Cd1 Se1 2.701009 1_555
Cd2 Se7 2.698093 1_545
Cd2 Se7 2.698096 1_445
Cd2 Se7 2.698096 1_555
Cd2 Se2 2.701764 1_555
Cd3 Se8 2.692908 1_545
Cd3 Se8 2.692912 1_555
Cd3 Se8 2.692912 1_445
Cd3 Se3 2.701369 1_555
Cd4 Se4 2.689078 1_555
Cd4 Se9 2.691497 1_545
Cd4 Se9 2.691501 1_555
Cd4 Se9 2.691501 1_445
Cd5 Se1 2.698592 1_565
Cd5 Se1 2.698596 1_555
Cd5 Se1 2.698596 1_665
Cd5 Se5 2.699644 1_555
Cd6 Se2 2.698176 1_565
Cd6 Se2 2.698180 1_555
Cd6 Se2 2.698180 1_665
Cd6 Se6 2.701584 1_555
Cd7 Se3 2.698010 1_565
Cd7 Se3 2.698013 1_665
Cd7 Se3 2.698013 1_555
Cd7 Se7 2.701440 1_555
Hg0 Se4 2.705381 1_565
Hg0 Se4 2.705384 1_555
Hg0 Se4 2.705384 1_665
Hg0 Se8 2.714377 1_555
Hg1 Se0 2.706036 1_566
Hg1 Se0 2.706040 1_666
Hg1 Se0 2.706040 1_556
Hg1 Se9 2.712365 1_555
