# generated using pymatgen
data_BaMg14Ni
_symmetry_space_group_name_H-M   'P 1'
_cell_length_a   6.46107741
_cell_length_b   6.46107741
_cell_length_c   10.60918300
_cell_angle_alpha   90.00000000
_cell_angle_beta   90.00000000
_cell_angle_gamma   119.99999394
_symmetry_Int_Tables_number   1
_chemical_formula_structural   BaMg14Ni
_chemical_formula_sum   'Ba1 Mg14 Ni1'
_cell_volume   383.55044180
_cell_formula_units_Z   1
loop_
 _symmetry_equiv_pos_site_id
 _symmetry_equiv_pos_as_xyz
  1  'x, y, z'
loop_
 _atom_site_type_symbol
 _atom_site_label
 _atom_site_symmetry_multiplicity
 _atom_site_fract_x
 _atom_site_fract_y
 _atom_site_fract_z
 _atom_site_occupancy
  Ba  Ba0  1  0.00000000  0.00000000  0.50000000  1
  Mg  Mg0  1  0.98729100  0.49364600  0.00000000  1
  Mg  Mg1  1  0.01191500  0.50595700  0.50000000  1
  Mg  Mg2  1  0.50635400  0.01270900  0.00000000  1
  Mg  Mg3  1  0.49404300  0.98808500  0.50000000  1
  Mg  Mg4  1  0.50635400  0.49364600  0.00000000  1
  Mg  Mg5  1  0.49404300  0.50595700  0.50000000  1
  Mg  Mg6  1  0.16120300  0.83879700  0.22023700  1
  Mg  Mg7  1  0.16120300  0.83879700  0.77976300  1
  Mg  Mg8  1  0.16120300  0.32240600  0.22023700  1
  Mg  Mg9  1  0.16120300  0.32240600  0.77976300  1
  Mg  Mg10  1  0.67759400  0.83879700  0.22023700  1
  Mg  Mg11  1  0.67759400  0.83879700  0.77976300  1
  Mg  Mg12  1  0.66666700  0.33333300  0.26680500  1
  Mg  Mg13  1  0.66666700  0.33333300  0.73319500  1
  Ni  Ni0  1  0.00000000  0.00000000  0.00000000  1
loop_
_geom_bond_atom_site_label_1
_geom_bond_atom_site_label_2
_geom_bond_distance
_geom_bond_site_symmetry_2
Ba0 Mg1 3.231223 1_555
Ba0 Mg3 3.231223 1_445
Ba0 Mg5 3.231227 1_555
Ba0 Mg5 3.231227 1_445
Ba0 Mg3 3.231230 1_545
Ba0 Mg1 3.231230 1_545
Ba0 Mg6 3.473300 1_545
Ba0 Mg7 3.473300 1_545
Ba0 Mg8 3.473300 1_555
Ba0 Mg9 3.473300 1_555
Ba0 Mg11 3.473300 1_445
Ba0 Mg10 3.473300 1_445
Mg0 Mg7 3.031386 1_654
Mg0 Mg6 3.031386 1_655
Mg0 Mg8 3.031390 1_655
Mg0 Mg9 3.031390 1_654
Mg0 Mg4 3.107371 1_555
Mg0 Mg2 3.107371 1_555
Mg0 Ni0 3.231318 1_665
Mg0 Ni0 3.231325 1_655
Mg0 Mg12 3.351235 1_555
Mg0 Mg13 3.351235 1_554
Mg0 Mg4 3.353706 1_655
Mg0 Mg2 3.353707 1_665
Mg1 Mg5 3.115066 1_555
Mg1 Mg3 3.115067 1_555
Mg1 Mg13 3.138893 1_455
Mg1 Mg12 3.138893 1_455
Mg1 Mg5 3.346011 1_455
Mg1 Mg3 3.346011 1_445
Mg1 Mg8 3.505723 1_555
Mg1 Mg9 3.505723 1_555
Mg1 Mg6 3.505727 1_555
Mg1 Mg7 3.505727 1_555
Mg2 Mg6 3.031386 1_545
Mg2 Mg7 3.031386 1_544
Mg2 Mg4 3.107371 1_555
Mg2 Ni0 3.231318 1_555
Mg2 Ni0 3.231325 1_655
Mg2 Mg4 3.353706 1_545
Mg3 Mg5 3.115066 1_555
Mg3 Mg5 3.346011 1_565
Mg3 Mg6 3.505727 1_555
Mg3 Mg7 3.505727 1_555
Mg4 Mg8 3.031386 1_555
Mg4 Mg9 3.031386 1_554
Mg4 Ni0 3.231321 1_665
Mg4 Ni0 3.231321 1_555
Mg5 Mg9 3.505726 1_555
Mg5 Mg8 3.505726 1_555
Mg6 Ni0 2.951922 1_565
Mg6 Mg8 3.124635 1_565
Mg6 Mg8 3.336442 1_555
Mg7 Ni0 2.951922 1_566
Mg7 Mg9 3.124635 1_565
Mg7 Mg9 3.336442 1_555
Mg8 Ni0 2.951922 1_555
Mg9 Ni0 2.951922 1_556
Mg10 Ni0 2.951922 1_665
Mg10 Mg4 3.031386 1_555
Mg10 Mg2 3.031390 1_565
Mg10 Mg6 3.124635 1_655
Mg10 Mg8 3.124635 1_665
Mg10 Mg12 3.268667 1_565
Mg10 Mg12 3.268673 1_555
Mg10 Mg6 3.336442 1_555
Mg10 Mg8 3.336443 1_555
Mg10 Mg3 3.505723 1_555
Mg10 Mg5 3.505726 1_555
Mg11 Ni0 2.951922 1_666
Mg11 Mg4 3.031386 1_556
Mg11 Mg2 3.031390 1_566
Mg11 Mg7 3.124635 1_655
Mg11 Mg9 3.124635 1_665
Mg11 Mg13 3.268667 1_565
Mg11 Mg13 3.268673 1_555
Mg11 Mg7 3.336442 1_555
Mg11 Mg9 3.336443 1_555
Mg11 Mg3 3.505723 1_555
Mg11 Mg5 3.505726 1_555
Mg12 Mg5 3.138893 1_555
Mg12 Mg3 3.138893 1_545
Mg12 Mg8 3.268667 1_655
Mg12 Mg6 3.268670 1_655
Mg12 Mg6 3.268670 1_545
Mg12 Mg8 3.268673 1_555
Mg12 Mg2 3.351235 1_555
Mg12 Mg4 3.351240 1_555
Mg13 Mg5 3.138893 1_555
Mg13 Mg3 3.138893 1_545
Mg13 Mg9 3.268667 1_655
Mg13 Mg7 3.268670 1_655
Mg13 Mg7 3.268670 1_545
Mg13 Mg9 3.268673 1_555
Mg13 Mg2 3.351235 1_556
Mg13 Mg4 3.351240 1_556
