# generated using pymatgen
data_Mg2Mn3InS8
_symmetry_space_group_name_H-M   'P 1'
_cell_length_a   7.47440178
_cell_length_b   7.42378215
_cell_length_c   7.41746404
_cell_angle_alpha   59.80332766
_cell_angle_beta   59.02297517
_cell_angle_gamma   59.01240840
_symmetry_Int_Tables_number   1
_chemical_formula_structural   Mg2Mn3InS8
_chemical_formula_sum   'Mg2 Mn3 In1 S8'
_cell_volume   286.22127859
_cell_formula_units_Z   1
loop_
 _symmetry_equiv_pos_site_id
 _symmetry_equiv_pos_as_xyz
  1  'x, y, z'
loop_
 _atom_site_type_symbol
 _atom_site_label
 _atom_site_symmetry_multiplicity
 _atom_site_fract_x
 _atom_site_fract_y
 _atom_site_fract_z
 _atom_site_occupancy
  Mg  Mg0  1  0.87391200  0.87430800  0.87422100  1
  Mg  Mg1  1  0.12610400  0.12570600  0.12575000  1
  Mn  Mn0  1  0.49996400  0.49993900  0.00012000  1
  Mn  Mn1  1  0.99998600  0.49998700  0.50005700  1
  Mn  Mn2  1  0.49995100  0.99989700  0.50011500  1
  In  In0  1  0.50000600  0.50010900  0.49988900  1
  S  S0  1  0.74114900  0.73918400  0.73915700  1
  S  S1  1  0.25249700  0.25309600  0.71730600  1
  S  S2  1  0.25252200  0.71745400  0.25285700  1
  S  S3  1  0.71717800  0.24879700  0.24886200  1
  S  S4  1  0.74748800  0.28255300  0.74706900  1
  S  S5  1  0.28283400  0.75121600  0.75110700  1
  S  S6  1  0.25886800  0.26080400  0.26083800  1
  S  S7  1  0.74754600  0.74694700  0.28265400  1
loop_
_geom_bond_atom_site_label_1
_geom_bond_atom_site_label_2
_geom_bond_distance
_geom_bond_site_symmetry_2
Mg0 S0 2.460476 1_555
Mg0 S7 2.461049 1_556
Mg0 S4 2.461871 1_565
Mg0 S5 2.470051 1_655
Mg1 S6 2.460470 1_555
Mg1 S1 2.461099 1_554
Mg1 S2 2.461930 1_545
Mg1 S3 2.470078 1_455
Mn0 S2 2.437902 1_555
Mn0 S4 2.438943 1_554
Mn0 S3 2.454059 1_555
Mn0 S5 2.455116 1_554
Mn0 S6 2.528269 1_555
Mn0 S0 2.529363 1_554
Mn1 S1 2.473035 1_655
Mn1 S7 2.473432 1_555
Mn1 S4 2.475213 1_555
Mn1 S2 2.475609 1_655
Mn1 S0 2.477914 1_555
Mn1 S6 2.478454 1_655
Mn2 S1 2.438965 1_565
Mn2 S7 2.438989 1_555
Mn2 S5 2.454656 1_555
Mn2 S3 2.456430 1_565
Mn2 S0 2.526937 1_555
Mn2 S6 2.527611 1_565
In0 S2 2.612345 1_555
In0 S4 2.613007 1_555
In0 S7 2.613355 1_555
In0 S1 2.614027 1_555
In0 S5 2.616694 1_555
In0 S3 2.616773 1_555
