# generated using pymatgen
data_Na3B2PO5F4
_symmetry_space_group_name_H-M   'P 1'
_cell_length_a   7.07407459
_cell_length_b   7.07407459
_cell_length_c   9.17001900
_cell_angle_alpha   90.00000000
_cell_angle_beta   90.00000000
_cell_angle_gamma   122.17475338
_symmetry_Int_Tables_number   1
_chemical_formula_structural   Na3B2PO5F4
_chemical_formula_sum   'Na6 B4 P2 O10 F8'
_cell_volume   388.41810940
_cell_formula_units_Z   2
loop_
 _symmetry_equiv_pos_site_id
 _symmetry_equiv_pos_as_xyz
  1  'x, y, z'
loop_
 _atom_site_type_symbol
 _atom_site_label
 _atom_site_symmetry_multiplicity
 _atom_site_fract_x
 _atom_site_fract_y
 _atom_site_fract_z
 _atom_site_occupancy
  Na  Na0  1  0.19455300  0.80544700  0.00000000  1
  Na  Na1  1  0.19455300  0.80544700  0.50000000  1
  Na  Na2  1  0.80900200  0.19099800  0.00000000  1
  Na  Na3  1  0.80900200  0.19099800  0.50000000  1
  Na  Na4  1  0.49157100  0.50842900  0.00000000  1
  Na  Na5  1  0.49157100  0.50842900  0.50000000  1
  B  B0  1  0.93474400  0.92339600  0.25000000  1
  B  B1  1  0.07660400  0.06525600  0.75000000  1
  B  B2  1  0.36250300  0.14938000  0.25000000  1
  B  B3  1  0.85062000  0.63749700  0.75000000  1
  P  P0  1  0.61545100  0.84785300  0.75000000  1
  P  P1  1  0.15214700  0.38454900  0.25000000  1
  O  O0  1  0.14959400  0.94968400  0.25000000  1
  O  O1  1  0.05031600  0.85040600  0.75000000  1
  O  O2  1  0.86494800  0.06221300  0.75000000  1
  O  O3  1  0.93778700  0.13505200  0.25000000  1
  O  O4  1  0.36377700  0.35787000  0.25000000  1
  O  O5  1  0.64213000  0.63622300  0.75000000  1
  O  O6  1  0.50601300  0.84583100  0.89212800  1
  O  O7  1  0.15416900  0.49398700  0.10787200  1
  O  O8  1  0.50601300  0.84583100  0.60787200  1
  O  O9  1  0.15416900  0.49398700  0.39212800  1
  F  F0  1  0.80973400  0.79880100  0.12268400  1
  F  F1  1  0.20119900  0.19026600  0.87731600  1
  F  F2  1  0.80973400  0.79880100  0.37731600  1
  F  F3  1  0.20119900  0.19026600  0.62268400  1
  F  F4  1  0.49132300  0.15787700  0.12276700  1
  F  F5  1  0.84212300  0.50867700  0.87723300  1
  F  F6  1  0.49132300  0.15787700  0.37723300  1
  F  F7  1  0.84212300  0.50867700  0.62276700  1
loop_
_geom_bond_atom_site_label_1
_geom_bond_atom_site_label_2
_geom_bond_distance
_geom_bond_site_symmetry_2
Na0 O6 2.290032 1_554
Na0 O7 2.290032 1_555
Na0 O1 2.596813 1_554
Na0 O0 2.596813 1_555
Na1 O8 2.290032 1_555
Na1 O9 2.290032 1_555
Na1 O1 2.596813 1_555
Na1 O0 2.596813 1_555
Na2 O7 2.441483 1_655
Na2 O6 2.441483 1_544
Na2 O3 2.574138 1_555
Na2 O2 2.574138 1_554
Na3 O9 2.441483 1_655
Na3 O8 2.441483 1_545
Na3 O3 2.574138 1_555
Na3 O2 2.574138 1_555
Na4 O5 2.486316 1_554
Na4 O4 2.486316 1_555
Na4 O7 2.534972 1_555
Na4 O6 2.534972 1_554
Na5 O5 2.486316 1_555
Na5 O4 2.486316 1_555
Na5 O9 2.534972 1_555
Na5 O8 2.534972 1_555
B0 O0 1.429531 1_655
B0 F0 1.446311 1_555
B0 F2 1.446311 1_555
B0 O3 1.485919 1_565
B1 O1 1.429531 1_545
B1 F1 1.446311 1_555
B1 F3 1.446311 1_555
B1 O2 1.485919 1_455
B2 O0 1.413537 1_545
B2 F6 1.461837 1_555
B2 F4 1.461837 1_555
B2 O4 1.470094 1_555
B3 O1 1.413537 1_655
B3 F5 1.461837 1_555
B3 F7 1.461837 1_555
B3 O5 1.470094 1_555
O2 P0 1.601307 1_545
O3 P1 1.601307 1_655
O4 P1 1.605552 1_555
O5 P0 1.605552 1_555
O6 P0 1.512081 1_555
O7 P1 1.512081 1_555
O8 P0 1.512081 1_555
O9 P1 1.512081 1_555
F0 Na4 2.372125 1_555
F1 Na4 2.372125 1_556
F2 Na5 2.372125 1_555
F3 Na5 2.372125 1_555
F4 Na2 2.410765 1_555
F4 Na0 2.513193 1_545
F4 Na4 2.722554 1_555
F5 Na2 2.410765 1_556
F5 Na0 2.513193 1_656
F5 Na4 2.722554 1_556
F6 Na3 2.410765 1_555
F6 Na1 2.513193 1_545
F6 Na5 2.722554 1_555
F7 Na3 2.410765 1_555
F7 Na1 2.513193 1_655
F7 Na5 2.722554 1_555
