# generated using pymatgen
data_CaTi2(PO5)2
_symmetry_space_group_name_H-M   'P 1'
_cell_length_a   10.09886380
_cell_length_b   8.93157344
_cell_length_c   6.97908803
_cell_angle_alpha   77.73036119
_cell_angle_beta   59.79287039
_cell_angle_gamma   42.47676842
_symmetry_Int_Tables_number   1
_chemical_formula_structural   CaTi2(PO5)2
_chemical_formula_sum   'Ca2 Ti4 P4 O20'
_cell_volume   353.55471397
_cell_formula_units_Z   2
loop_
 _symmetry_equiv_pos_site_id
 _symmetry_equiv_pos_as_xyz
  1  'x, y, z'
loop_
 _atom_site_type_symbol
 _atom_site_label
 _atom_site_symmetry_multiplicity
 _atom_site_fract_x
 _atom_site_fract_y
 _atom_site_fract_z
 _atom_site_occupancy
  Ca  Ca0  1  0.49982700  0.00017300  0.00017300  1
  Ca  Ca1  1  0.24982700  0.75017300  0.75017300  1
  Ti  Ti0  1  0.87505500  0.38435500  0.39329500  1
  Ti  Ti1  1  0.34729500  0.39329500  0.38435500  1
  Ti  Ti2  1  0.86564500  0.37494500  0.90270500  1
  Ti  Ti3  1  0.85670500  0.90270500  0.37494500  1
  P  P0  1  0.03693700  0.54619900  0.96320600  1
  P  P1  1  0.70380100  0.21306300  0.79634200  1
  P  P2  1  0.45365800  0.96320600  0.54619900  1
  P  P3  1  0.28679400  0.79634200  0.21306300  1
  O  O0  1  0.58418600  0.72087600  0.44786700  1
  O  O1  1  0.66203200  0.16941100  0.33788200  1
  O  O2  1  0.31373500  0.65588300  0.39444200  1
  O  O3  1  0.80213300  0.00292900  0.66581400  1
  O  O4  1  0.21622800  0.08375100  0.75686900  1
  O  O5  1  0.42147900  0.10461100  0.36538100  1
  O  O6  1  0.08058900  0.58796800  0.41932600  1
  O  O7  1  0.83067400  0.33788200  0.16941100  1
  O  O8  1  0.91211800  0.41932600  0.58796800  1
  O  O9  1  0.16624900  0.03377200  0.30684800  1
  O  O10  1  0.24707100  0.44786700  0.72087600  1
  O  O11  1  0.49313100  0.30684800  0.03377200  1
  O  O12  1  0.94315200  0.75686900  0.08375100  1
  O  O13  1  0.14538900  0.82852100  0.14147000  1
  O  O14  1  0.10853000  0.36538100  0.10461100  1
  O  O15  1  0.88461900  0.14147000  0.82852100  1
  O  O16  1  0.85555800  0.61406000  0.93626500  1
  O  O17  1  0.63594000  0.39444200  0.65588300  1
  O  O18  1  0.52912400  0.66581400  0.00292900  1
  O  O19  1  0.59411700  0.93626500  0.61406000  1
loop_
_geom_bond_atom_site_label_1
_geom_bond_atom_site_label_2
_geom_bond_distance
_geom_bond_site_symmetry_2
Ca0 O19 2.400835 1_544
Ca0 O16 2.400835 1_544
Ca0 O14 2.425923 1_555
Ca0 O5 2.425928 1_555
Ca0 O9 2.746996 1_555
Ca0 O11 2.746996 1_555
Ca0 O3 2.772034 1_554
Ca0 O18 2.772034 1_545
Ca1 O17 2.400835 1_555
Ca1 O2 2.400835 1_555
Ca1 O13 2.425921 1_556
Ca1 O15 2.425924 1_465
Ca1 O4 2.746996 1_565
Ca1 O12 2.746996 1_456
Ca1 O0 2.772034 1_555
Ca1 O10 2.772034 1_555
O0 P2 1.551005 1_555
O0 Ti0 2.035878 1_555
O1 Ti3 1.716996 1_545
O1 Ti1 2.017259 1_555
O2 P3 1.555109 1_555
O2 Ti1 2.119909 1_555
O3 P1 1.551005 1_555
O3 Ti3 2.035878 1_545
O4 P2 1.545154 1_545
O4 Ti2 2.061865 1_455
O5 P2 1.556610 1_545
O5 Ti1 2.103053 1_555
O6 Ti1 1.716993 1_555
O6 Ti3 2.017262 1_455
O7 Ti2 1.716994 1_554
O7 Ti0 2.017267 1_555
O8 Ti0 1.717000 1_555
O8 Ti2 2.017260 1_555
O9 P3 1.545154 1_545
O9 Ti0 2.061865 1_455
O10 P0 1.551005 1_555
O10 Ti1 2.035878 1_555
O11 P1 1.545154 1_554
O11 Ti1 2.061865 1_555
O12 P0 1.545154 1_654
O12 Ti3 2.061865 1_555
O13 P3 1.556615 1_555
O13 Ti3 2.103054 1_455
O14 P0 1.556610 1_554
O14 Ti0 2.103059 1_455
O15 P1 1.556606 1_555
O15 Ti2 2.103062 1_555
O16 P0 1.555109 1_655
O16 Ti2 2.119909 1_555
O17 P1 1.555109 1_555
O17 Ti0 2.119909 1_555
O18 P3 1.551005 1_555
O18 Ti2 2.035878 1_554
O19 P2 1.555109 1_555
O19 Ti3 2.119909 1_555
