# generated using pymatgen
data_K4Na4NbW7O20
_symmetry_space_group_name_H-M   'P 1'
_cell_length_a   11.59414559
_cell_length_b   11.78575927
_cell_length_c   17.53771535
_cell_angle_alpha   109.29072725
_cell_angle_beta   109.15169296
_cell_angle_gamma   89.68877163
_symmetry_Int_Tables_number   1
_chemical_formula_structural   K4Na4NbW7O20
_chemical_formula_sum   'K16 Na16 Nb4 W28 O80'
_cell_volume   2122.42479521
_cell_formula_units_Z   4
loop_
 _symmetry_equiv_pos_site_id
 _symmetry_equiv_pos_as_xyz
  1  'x, y, z'
loop_
 _atom_site_type_symbol
 _atom_site_label
 _atom_site_symmetry_multiplicity
 _atom_site_fract_x
 _atom_site_fract_y
 _atom_site_fract_z
 _atom_site_occupancy
  K  K0  1  0.30043560  0.06181613  0.11084130  1
  K  K1  1  0.30269634  0.56127823  0.10974133  1
  K  K2  1  0.80309252  0.06054148  0.11066099  1
  K  K3  1  0.79917033  0.55948961  0.10893789  1
  K  K4  1  0.20530375  0.93758350  0.39203784  1
  K  K5  1  0.18620393  0.93571657  0.87998040  1
  K  K6  1  0.70053945  0.44264129  0.39493912  1
  K  K7  1  0.69441622  0.42726037  0.88134518  1
  K  K8  1  0.69739157  0.93388645  0.39066105  1
  K  K9  1  0.05599022  0.29273149  0.11199125  1
  K  K10  1  0.05491987  0.79591004  0.10791616  1
  K  K11  1  0.54977934  0.29377148  0.10887361  1
  K  K12  1  0.55155090  0.79453490  0.10634017  1
  K  K13  1  0.45349700  0.71320305  0.39500773  1
  K  K14  1  0.44181148  0.70436038  0.88084514  1
  K  K15  1  0.94128898  0.70151393  0.87801856  1
  Na  Na0  1  0.29387905  0.07103627  0.60169547  1
  Na  Na1  1  0.30601253  0.56635330  0.60299760  1
  Na  Na2  1  0.79951776  0.06104471  0.59780654  1
  Na  Na3  1  0.81534477  0.56465398  0.60345845  1
  Na  Na4  1  0.20282546  0.44156931  0.40656235  1
  Na  Na5  1  0.19506883  0.42609120  0.89838434  1
  Na  Na6  1  0.70420672  0.93747262  0.89754780  1
  Na  Na7  1  0.04734485  0.27525031  0.59862998  1
  Na  Na8  1  0.05295956  0.79295590  0.60512504  1
  Na  Na9  1  0.56409220  0.28663919  0.60052301  1
  Na  Na10  1  0.55487474  0.78652112  0.60184128  1
  Na  Na11  1  0.44898286  0.21093497  0.40495190  1
  Na  Na12  1  0.43886787  0.21298309  0.89543728  1
  Na  Na13  1  0.95284245  0.22037154  0.40365707  1
  Na  Na14  1  0.94313725  0.21341319  0.89915667  1
  Na  Na15  1  0.95143390  0.71679115  0.40487091  1
  Nb  Nb0  1  0.12367603  0.57391724  0.74282992  1
  Nb  Nb1  1  0.60454758  0.57811962  0.74204236  1
  Nb  Nb2  1  0.32236082  0.41319048  0.74485338  1
  Nb  Nb3  1  0.34602490  0.91768778  0.74212974  1
  W  W0  1  0.00149198  0.99812512  0.99573571  1
  W  W1  1  0.01264613  0.00120524  0.50124173  1
  W  W2  1  0.00095300  0.49544582  0.99701158  1
  W  W3  1  0.01517504  0.50394563  0.50307178  1
  W  W4  1  0.49942619  0.99681029  0.99377048  1
  W  W5  1  0.51403352  0.00838923  0.50864391  1
  W  W6  1  0.49845948  0.49660990  0.99342486  1
  W  W7  1  0.51672968  0.50283556  0.50837454  1
  W  W8  1  0.25191369  0.24810866  0.99725367  1
  W  W9  1  0.26206805  0.25633236  0.50634202  1
  W  W10  1  0.24847603  0.74483233  0.99238818  1
  W  W11  1  0.26574033  0.75273329  0.50607894  1
  W  W12  1  0.74930146  0.24437779  0.99333783  1
  W  W13  1  0.76451474  0.25011113  0.50259580  1
  W  W14  1  0.75077888  0.74584731  0.99315890  1
  W  W15  1  0.76577060  0.75396551  0.50756716  1
  W  W16  1  0.10684619  0.10497106  0.26032306  1
  W  W17  1  0.06983762  0.12177178  0.74711168  1
  W  W18  1  0.09972966  0.59508417  0.25779223  1
  W  W19  1  0.59814209  0.10360559  0.25575376  1
  W  W20  1  0.59621775  0.08587070  0.74541221  1
  W  W21  1  0.59709378  0.60485682  0.25093108  1
  W  W22  1  0.34913533  0.40030510  0.26124200  1
  W  W23  1  0.36460723  0.89403481  0.24962880  1
  W  W24  1  0.85150459  0.40506986  0.25114555  1
  W  W25  1  0.87611488  0.39275123  0.74329141  1
  W  W26  1  0.85623443  0.90642155  0.24935658  1
  W  W27  1  0.83845977  0.91363572  0.74373249  1
  O  O0  1  0.12722111  0.12781340  0.48785847  1
  O  O1  1  0.11871734  0.12084207  0.98638735  1
  O  O2  1  0.13245458  0.62064993  0.48888908  1
  O  O3  1  0.11899585  0.61189839  0.98030327  1
  O  O4  1  0.62918580  0.12694684  0.49221129  1
  O  O5  1  0.61607844  0.11114746  0.97513311  1
  O  O6  1  0.63437092  0.62517146  0.49892920  1
  O  O7  1  0.61894857  0.61604688  0.98105839  1
  O  O8  1  0.13031782  0.37787475  0.00595085  1
  O  O9  1  0.14895919  0.39107483  0.52129221  1
  O  O10  1  0.12761672  0.87315302  0.00095292  1
  O  O11  1  0.14458609  0.88082291  0.51795838  1
  O  O12  1  0.62379223  0.37001260  0.99736354  1
  O  O13  1  0.65201601  0.38901316  0.52737269  1
  O  O14  1  0.62866057  0.87411153  0.99726514  1
  O  O15  1  0.64839455  0.88905346  0.52786224  1
  O  O16  1  0.38439781  0.13018771  0.49894062  1
  O  O17  1  0.37274647  0.11786759  0.98566953  1
  O  O18  1  0.38328977  0.61962610  0.49658517  1
  O  O19  1  0.36730079  0.61472258  0.98251169  1
  O  O20  1  0.88056772  0.11942593  0.48364620  1
  O  O21  1  0.86921822  0.11596688  0.98355120  1
  O  O22  1  0.88515428  0.62341366  0.49389715  1
  O  O23  1  0.87013946  0.61589429  0.98455092  1
  O  O24  1  0.37854353  0.37771962  0.00255933  1
  O  O25  1  0.40181372  0.39020117  0.52896208  1
  O  O26  1  0.37767459  0.87529086  0.00208550  1
  O  O27  1  0.40017637  0.89183702  0.52961388  1
  O  O28  1  0.88159248  0.37685344  0.00870097  1
  O  O29  1  0.89977524  0.38501220  0.52074592  1
  O  O30  1  0.87576863  0.87542652  0.00038161  1
  O  O31  1  0.89625941  0.88268658  0.51998579  1
  O  O32  1  0.06646332  0.07780158  0.13571829  1
  O  O33  1  0.07970556  0.09638117  0.63269457  1
  O  O34  1  0.06824997  0.58626465  0.14063250  1
  O  O35  1  0.09513405  0.60923802  0.64211970  1
  O  O36  1  0.56940309  0.07607267  0.13275592  1
  O  O37  1  0.59278329  0.11763827  0.64386996  1
  O  O38  1  0.57411726  0.58297554  0.13071823  1
  O  O39  1  0.59145672  0.61907597  0.64655894  1
  O  O40  1  0.44880846  0.39451478  0.37300700  1
  O  O41  1  0.41920089  0.40827774  0.85291126  1
  O  O42  1  0.44216264  0.92660127  0.37356447  1
  O  O43  1  0.42957829  0.90907772  0.85106740  1
  O  O44  1  0.95390352  0.40245141  0.36592030  1
  O  O45  1  0.93722771  0.39463541  0.86117554  1
  O  O46  1  0.94963914  0.90122485  0.36481699  1
  O  O47  1  0.93711722  0.91231952  0.85698932  1
  O  O48  1  0.31883776  0.30609027  0.13817090  1
  O  O49  1  0.31424227  0.28809254  0.64324396  1
  O  O50  1  0.31511282  0.79832226  0.13062311  1
  O  O51  1  0.34453706  0.78420900  0.64580344  1
  O  O52  1  0.81968559  0.29440933  0.13562519  1
  O  O53  1  0.84212005  0.26364081  0.63472315  1
  O  O54  1  0.82388857  0.79676767  0.13428897  1
  O  O55  1  0.84420495  0.78277080  0.64486662  1
  O  O56  1  0.20728529  0.22603502  0.36905456  1
  O  O57  1  0.19424445  0.20066285  0.86161261  1
  O  O58  1  0.21036579  0.70670336  0.36845201  1
  O  O59  1  0.18749024  0.69503280  0.85086456  1
  O  O60  1  0.70169054  0.21508235  0.36594904  1
  O  O61  1  0.69720318  0.19977265  0.85581510  1
  O  O62  1  0.69980389  0.70405660  0.36917391  1
  O  O63  1  0.68096903  0.69910100  0.84951771  1
  O  O64  1  0.44912930  0.07218676  0.27311957  1
  O  O65  1  0.42005287  0.06586536  0.74243545  1
  O  O66  1  0.44651359  0.53670656  0.25320532  1
  O  O67  1  0.44371090  0.53065083  0.73503392  1
  O  O68  1  0.95444065  0.07101299  0.27642493  1
  O  O69  1  0.90488561  0.07587043  0.74834782  1
  O  O70  1  0.94447638  0.56784518  0.27213414  1
  O  O71  1  0.94680439  0.53509451  0.73319618  1
  O  O72  1  0.19521055  0.45016623  0.27408152  1
  O  O73  1  0.15026899  0.40415836  0.74547504  1
  O  O74  1  0.20367036  0.95980720  0.24639096  1
  O  O75  1  0.18532348  0.93536678  0.73218956  1
  O  O76  1  0.69286409  0.45468280  0.25023266  1
  O  O77  1  0.70179557  0.44726869  0.73484865  1
  O  O78  1  0.69818852  0.95915707  0.24639483  1
  O  O79  1  0.66580808  0.92980607  0.74665181  1
loop_
_geom_bond_atom_site_label_1
_geom_bond_atom_site_label_2
_geom_bond_distance
_geom_bond_site_symmetry_2
K0 O10 2.712260 1_545
K0 O48 2.755267 1_555
K0 O26 2.757084 1_545
K0 O64 2.764027 1_555
K0 O1 2.767089 1_554
K0 O17 2.851331 1_554
K0 O32 2.881201 1_555
K0 O36 3.012854 1_555
K0 O50 3.234295 1_545
K1 O66 2.630224 1_555
K1 O8 2.653342 1_555
K1 O50 2.693255 1_555
K1 O24 2.713661 1_555
K1 O3 2.784596 1_554
K1 O19 2.822580 1_554
K1 O34 2.936154 1_555
K1 O38 3.048056 1_555
K1 O48 3.201972 1_555
K2 O52 2.641799 1_555
K2 O14 2.719372 1_544
K2 O30 2.733461 1_545
K2 O68 2.822035 1_555
K2 O21 2.841279 1_554
K2 O36 2.856797 1_555
K2 O5 2.871867 1_554
K2 O32 2.936995 1_655
K2 O54 3.266769 1_545
K3 O54 2.683996 1_555
K3 O28 2.686363 1_555
K3 O12 2.738950 1_554
K3 O38 2.758120 1_555
K3 O70 2.773318 1_555
K3 O7 2.781720 1_554
K3 O23 2.831891 1_554
K3 O34 2.983012 1_655
K4 O58 2.617141 1_555
K4 O74 2.646457 1_555
K4 O0 2.675247 1_565
K4 O16 2.768461 1_565
K4 O11 2.796641 1_555
K4 O46 2.854509 1_455
K4 O42 2.866253 1_555
K4 O27 2.913136 1_555
K5 O75 2.587222 1_555
K5 O1 2.665416 1_565
K5 O59 2.712010 1_555
K5 O10 2.736941 1_556
K5 O17 2.740982 1_565
K5 O47 2.783883 1_455
K5 O26 2.809331 1_556
K5 O43 3.023537 1_555
K5 O57 3.248156 1_565
K6 O60 2.560211 1_555
K6 O76 2.560907 1_555
K6 O6 2.617317 1_555
K6 O22 2.702179 1_555
K6 O13 2.818071 1_555
K6 O40 2.850469 1_555
K6 O29 2.879983 1_555
K6 O44 3.149450 1_555
K6 O62 3.257869 1_555
K7 O61 2.570075 1_555
K7 O7 2.680723 1_555
K7 O77 2.684873 1_555
K7 O12 2.696651 1_555
K7 O23 2.709316 1_555
K7 O28 2.780912 1_556
K7 O45 2.958048 1_555
K7 O41 3.061124 1_555
K8 O62 2.609907 1_555
K8 O78 2.646404 1_555
K8 O4 2.683562 1_565
K8 O20 2.715398 1_565
K8 O15 2.851646 1_555
K8 O42 2.873585 1_555
K8 O31 2.877913 1_555
K8 O46 3.106302 1_555
K9 O28 2.667285 1_455
K9 O32 2.695276 1_555
K9 O8 2.738993 1_555
K9 O1 2.751721 1_554
K9 O72 2.768751 1_555
K9 O21 2.802005 1_454
K9 O52 2.901296 1_455
K9 O48 2.926120 1_555
K10 O74 2.606140 1_555
K10 O10 2.689286 1_555
K10 O30 2.706595 1_455
K10 O34 2.707853 1_555
K10 O23 2.783376 1_454
K10 O3 2.851413 1_554
K10 O54 2.863301 1_455
K10 O50 2.909496 1_555
K10 O32 3.191406 1_565
K11 O76 2.593051 1_555
K11 O24 2.676853 1_555
K11 O17 2.712228 1_554
K11 O36 2.729728 1_555
K11 O12 2.763840 1_554
K11 O48 2.881603 1_555
K11 O5 2.924783 1_554
K11 O52 3.007905 1_555
K12 O78 2.614390 1_555
K12 O26 2.650165 1_555
K12 O38 2.663096 1_555
K12 O14 2.766729 1_554
K12 O19 2.781209 1_554
K12 O7 2.813918 1_554
K12 O50 2.906919 1_555
K12 O54 3.031135 1_555
K12 O36 3.193176 1_565
K13 O66 2.640059 1_555
K13 O42 2.659537 1_555
K13 O58 2.699320 1_555
K13 O18 2.704028 1_555
K13 O6 2.741134 1_555
K13 O27 2.836734 1_555
K13 O15 2.869839 1_555
K13 O62 3.030732 1_555
K14 O43 2.625721 1_555
K14 O7 2.684622 1_555
K14 O19 2.703076 1_555
K14 O67 2.703426 1_555
K14 O14 2.703766 1_555
K14 O26 2.706175 1_556
K14 O59 2.816217 1_555
K14 O63 2.994909 1_555
K15 O47 2.627456 1_555
K15 O71 2.667525 1_555
K15 O3 2.716909 1_655
K15 O23 2.730459 1_555
K15 O10 2.741739 1_656
K15 O30 2.744079 1_556
K15 O63 2.891675 1_555
K15 O59 3.040770 1_655
Na0 O49 2.406866 1_555
Na0 O65 2.442391 1_555
Na0 O11 2.525369 1_545
Na0 O0 2.550423 1_555
Na0 O27 2.609100 1_545
Na0 O16 2.629431 1_555
Na0 O33 2.705787 1_555
Na1 O51 2.423737 1_555
Na1 O9 2.451422 1_555
Na1 O67 2.509731 1_555
Na1 O25 2.523868 1_555
Na1 O18 2.560702 1_555
Na1 O2 2.579420 1_555
Na1 O35 2.749937 1_555
Na2 O53 2.268492 1_555
Na2 O15 2.380985 1_545
Na2 O69 2.464669 1_555
Na2 O4 2.543011 1_555
Na2 O31 2.573471 1_545
Na2 O20 2.741645 1_555
Na2 O37 2.782050 1_555
Na3 O71 2.421562 1_555
Na3 O55 2.421598 1_555
Na3 O13 2.492226 1_555
Na3 O29 2.534763 1_555
Na3 O6 2.568222 1_555
Na3 O22 2.594686 1_555
Na3 O39 2.944468 1_555
Na4 O72 2.331770 1_555
Na4 O56 2.409360 1_555
Na4 O2 2.438385 1_555
Na4 O9 2.532288 1_555
Na4 O18 2.639211 1_555
Na4 O44 2.738139 1_455
Na4 O25 2.809121 1_555
Na5 O8 2.467284 1_556
Na5 O73 2.481435 1_555
Na5 O24 2.512565 1_556
Na5 O57 2.517729 1_555
Na5 O3 2.523735 1_555
Na5 O19 2.656069 1_555
Na5 O45 2.841175 1_455
Na5 O41 2.945526 1_555
Na6 O5 2.476792 1_565
Na6 O30 2.499121 1_556
Na6 O14 2.501643 1_555
Na6 O79 2.505804 1_555
Na6 O21 2.532699 1_565
Na6 O63 2.640178 1_555
Na7 O33 2.370287 1_555
Na7 O73 2.404705 1_555
Na7 O29 2.465065 1_455
Na7 O20 2.492263 1_455
Na7 O0 2.565869 1_555
Na7 O53 2.670202 1_455
Na7 O9 2.716676 1_555
Na7 O49 2.923853 1_555
Na8 O75 2.334722 1_555
Na8 O31 2.427174 1_455
Na8 O35 2.461078 1_555
Na8 O22 2.561209 1_455
Na8 O11 2.580971 1_555
Na8 O55 2.742896 1_455
Na8 O2 2.757941 1_555
Na9 O37 2.341620 1_555
Na9 O13 2.456609 1_555
Na9 O25 2.458173 1_555
Na9 O4 2.506623 1_555
Na9 O77 2.510164 1_555
Na9 O16 2.519980 1_555
Na10 O39 2.341956 1_555
Na10 O27 2.426128 1_555
Na10 O79 2.450002 1_555
Na10 O15 2.508473 1_555
Na10 O18 2.543248 1_555
Na10 O6 2.554979 1_555
Na10 O51 2.791174 1_555
Na11 O64 2.350336 1_555
Na11 O40 2.407335 1_555
Na11 O16 2.457135 1_555
Na11 O4 2.562700 1_555
Na11 O56 2.681757 1_555
Na11 O25 2.687896 1_555
Na11 O13 2.883752 1_555
Na12 O24 2.495110 1_556
Na12 O17 2.515155 1_555
Na12 O12 2.561239 1_555
Na12 O65 2.607695 1_555
Na12 O5 2.610130 1_555
Na12 O41 2.631151 1_555
Na12 O57 2.694558 1_555
Na13 O68 2.347237 1_555
Na13 O20 2.443441 1_555
Na13 O44 2.446887 1_555
Na13 O0 2.557273 1_655
Na13 O29 2.558090 1_555
Na13 O60 2.762527 1_555
Na13 O9 2.775492 1_655
Na14 O45 2.432832 1_555
Na14 O21 2.492043 1_555
Na14 O69 2.495005 1_555
Na14 O28 2.519910 1_556
Na14 O1 2.590375 1_655
Na14 O8 2.637186 1_656
Na14 O61 2.690020 1_555
Na15 O70 2.384425 1_555
Na15 O22 2.484173 1_555
Na15 O46 2.493511 1_555
Na15 O31 2.556080 1_555
Na15 O2 2.628332 1_655
Na15 O11 2.699151 1_655
Na15 O62 2.769505 1_555
Nb0 O59 1.865351 1_555
Nb0 O35 1.871672 1_555
Nb0 O73 2.036026 1_555
Nb0 O71 2.043271 1_455
Nb1 O39 1.851135 1_555
Nb1 O63 1.874319 1_555
Nb1 O77 1.900367 1_555
Nb1 O67 1.902880 1_555
Nb2 O49 1.874477 1_555
Nb2 O41 1.879102 1_555
Nb2 O73 2.002461 1_555
Nb2 O67 2.064769 1_555
Nb3 O75 1.830837 1_555
Nb3 O43 1.873892 1_555
Nb3 O51 1.885264 1_555
Nb3 O65 1.947725 1_565
O0 W9 2.052433 1_555
O0 W1 2.122224 1_555
O1 W0 2.071270 1_545
O1 W8 2.077059 1_555
O2 W3 2.066626 1_555
O2 W11 2.076691 1_555
O3 W10 2.085805 1_555
O3 W2 2.095691 1_555
O4 W13 2.065110 1_555
O4 W5 2.087280 1_555
O5 W12 2.079634 1_555
O5 W4 2.086340 1_545
O6 W7 2.072212 1_555
O6 W15 2.090404 1_555
O7 W14 2.078359 1_555
O7 W6 2.098075 1_555
O8 W2 2.039837 1_554
O8 W8 2.076868 1_554
O9 W3 2.052048 1_555
O9 W9 2.058706 1_555
O10 W10 2.058714 1_554
O10 W0 2.072192 1_554
O11 W11 2.063177 1_555
O11 W1 2.096664 1_565
O12 W12 2.071212 1_555
O12 W6 2.078756 1_555
O13 W7 2.073747 1_555
O13 W13 2.109205 1_555
O14 W14 2.065616 1_555
O14 W4 2.077212 1_555
O15 W15 2.105553 1_555
O15 W5 2.112672 1_565
O16 W9 2.051619 1_555
O16 W5 2.078167 1_555
O17 W4 2.046280 1_545
O17 W8 2.077854 1_555
O18 W7 2.070268 1_555
O18 W11 2.073475 1_555
O19 W10 2.058532 1_555
O19 W6 2.061297 1_555
O20 W13 2.055696 1_555
O20 W1 2.081443 1_655
O21 W12 2.053049 1_555
O21 W0 2.069888 1_645
O22 W3 2.061162 1_655
O22 W15 2.071635 1_555
O23 W14 2.060338 1_555
O23 W2 2.080230 1_655
O24 W6 2.058561 1_554
O24 W8 2.082890 1_554
O25 W7 2.078286 1_555
O25 W9 2.112888 1_555
O26 W10 2.078926 1_554
O26 W4 2.088088 1_554
O27 W5 2.106374 1_565
O27 W11 2.108586 1_555
O28 W2 2.075382 1_654
O28 W12 2.083217 1_554
O29 W3 2.104900 1_655
O29 W13 2.110368 1_555
O30 W14 2.055279 1_554
O30 W0 2.097920 1_654
O31 W15 2.056274 1_555
O31 W1 2.120146 1_665
O32 W16 1.991271 1_555
O32 W0 2.178817 1_544
O33 W17 1.970446 1_555
O33 W1 2.074201 1_555
O34 W18 1.932124 1_555
O34 W2 2.244324 1_554
O35 W3 2.208117 1_555
O36 W19 1.984059 1_555
O36 W4 2.162969 1_544
O37 W20 1.925338 1_555
O37 W5 2.165695 1_555
O38 W21 1.963476 1_555
O38 W6 2.146537 1_554
O39 W7 2.223089 1_555
O40 W22 1.945096 1_555
O40 W7 2.160495 1_555
O41 W6 2.197827 1_555
O42 W23 1.962226 1_555
O42 W5 2.107204 1_565
O43 W4 2.226629 1_555
O44 W24 1.983634 1_555
O44 W3 2.169822 1_655
O45 W25 1.945619 1_555
O45 W2 2.148767 1_655
O46 W26 1.979693 1_555
O46 W1 2.155540 1_665
O47 W27 1.945072 1_555
O47 W0 2.165957 1_655
O48 W22 1.984498 1_555
O48 W8 2.192804 1_554
O49 W9 2.174001 1_555
O50 W23 1.903511 1_555
O50 W10 2.153648 1_554
O51 W11 2.216104 1_555
O52 W24 1.926293 1_555
O52 W12 2.222050 1_554
O53 W25 1.922489 1_555
O53 W13 2.143334 1_555
O54 W26 1.915403 1_555
O54 W14 2.202790 1_554
O55 W27 1.922845 1_555
O55 W15 2.183294 1_555
O56 W16 1.947179 1_555
O56 W9 2.181510 1_555
O57 W17 1.964145 1_555
O57 W8 2.121353 1_555
O58 W18 1.959704 1_555
O58 W11 2.157340 1_555
O59 W10 2.212524 1_555
O60 W19 1.928599 1_555
O60 W13 2.155992 1_555
O61 W20 1.932390 1_555
O61 W12 2.160554 1_555
O62 W21 1.969309 1_555
O62 W15 2.159949 1_555
O63 W14 2.248263 1_555
O64 W19 1.908257 1_555
O64 W23 2.173598 1_545
O65 W20 2.038917 1_555
O66 W21 1.943400 1_555
O66 W22 2.037828 1_555
O68 W16 1.942168 1_655
O68 W26 2.084625 1_545
O69 W17 1.999224 1_655
O69 W27 2.031869 1_545
O70 W18 1.939879 1_655
O70 W24 2.067207 1_555
O71 W25 1.955474 1_555
O72 W22 1.935402 1_555
O72 W18 2.078123 1_555
O74 W23 2.007399 1_555
O74 W16 2.032213 1_565
O75 W17 2.550659 1_565
O76 W24 1.923634 1_555
O76 W21 2.083010 1_555
O77 W25 2.090920 1_555
O78 W26 1.921775 1_555
O78 W19 2.046842 1_565
O79 W20 2.008339 1_565
O79 W27 2.025486 1_555
