# generated using pymatgen
data_Na4LuC3O9F
_symmetry_space_group_name_H-M   'P 1'
_cell_length_a   8.84007090
_cell_length_b   8.84007090
_cell_length_c   13.66198228
_cell_angle_alpha   85.03061238
_cell_angle_beta   85.03061238
_cell_angle_gamma   126.75144125
_symmetry_Int_Tables_number   1
_chemical_formula_structural   Na4LuC3O9F
_chemical_formula_sum   'Na16 Lu4 C12 O36 F4'
_cell_volume   839.30212561
_cell_formula_units_Z   4
loop_
 _symmetry_equiv_pos_site_id
 _symmetry_equiv_pos_as_xyz
  1  'x, y, z'
loop_
 _atom_site_type_symbol
 _atom_site_label
 _atom_site_symmetry_multiplicity
 _atom_site_fract_x
 _atom_site_fract_y
 _atom_site_fract_z
 _atom_site_occupancy
  Na  Na0  1  0.58684055  0.58636937  0.19359985  1
  Na  Na1  1  0.58636937  0.58684055  0.69359985  1
  Na  Na2  1  0.14352766  0.50747428  0.61014059  1
  Na  Na3  1  0.50747428  0.14352766  0.11014059  1
  Na  Na4  1  0.17466551  0.52875422  0.08899128  1
  Na  Na5  1  0.52875422  0.17466551  0.58899128  1
  Na  Na6  1  0.07717086  0.86073501  0.52833655  1
  Na  Na7  1  0.86073501  0.07717086  0.02833655  1
  Na  Na8  1  0.06077484  0.86291071  0.27468936  1
  Na  Na9  1  0.86291071  0.06077484  0.77468936  1
  Na  Na10  1  0.84417006  0.06802039  0.27662830  1
  Na  Na11  1  0.06802039  0.84417006  0.77662830  1
  Na  Na12  1  0.83500540  0.07903708  0.53249042  1
  Na  Na13  1  0.07903708  0.83500540  0.03249042  1
  Na  Na14  1  0.50100227  0.17466249  0.35047518  1
  Na  Na15  1  0.17466249  0.50100227  0.85047518  1
  Lu  Lu0  1  0.12938577  0.54248830  0.33831949  1
  Lu  Lu1  1  0.54248830  0.12938577  0.83831949  1
  Lu  Lu2  1  0.57489360  0.61510523  0.44791116  1
  Lu  Lu3  1  0.61510523  0.57489360  0.94791116  1
  C  C0  1  0.22271185  0.24822033  0.36998394  1
  C  C1  1  0.24822033  0.22271185  0.86998394  1
  C  C2  1  0.45427278  0.83880588  0.21566775  1
  C  C3  1  0.83880588  0.45427278  0.71566775  1
  C  C4  1  0.84187320  0.48122544  0.45902156  1
  C  C5  1  0.48122544  0.84187320  0.95902156  1
  C  C6  1  0.22238214  0.23062978  0.61455619  1
  C  C7  1  0.23062978  0.22238214  0.11455619  1
  C  C8  1  0.44537618  0.84688559  0.72361670  1
  C  C9  1  0.84688559  0.44537618  0.22361670  1
  C  C10  1  0.44532895  0.83498033  0.45771293  1
  C  C11  1  0.83498033  0.44532895  0.95771293  1
  O  O0  1  0.40077219  0.39979556  0.35498454  1
  O  O1  1  0.39979556  0.40077219  0.85498454  1
  O  O2  1  0.37959453  0.40462575  0.58101087  1
  O  O3  1  0.40462575  0.37959453  0.08101087  1
  O  O4  1  0.08893066  0.26964128  0.37391289  1
  O  O5  1  0.26964128  0.08893066  0.87391289  1
  O  O6  1  0.32511062  0.64924628  0.45134284  1
  O  O7  1  0.64924628  0.32511062  0.95134284  1
  O  O8  1  0.37194793  0.65625378  0.21608984  1
  O  O9  1  0.65625378  0.37194793  0.71608984  1
  O  O10  1  0.18123535  0.08259597  0.37978354  1
  O  O11  1  0.08259597  0.18123535  0.87978354  1
  O  O12  1  0.87755432  0.36894147  0.49541190  1
  O  O13  1  0.36894147  0.87755432  0.99541190  1
  O  O14  1  0.38730389  0.92419378  0.48956001  1
  O  O15  1  0.92419378  0.38730389  0.98956001  1
  O  O16  1  0.62296962  0.90787708  0.43171108  1
  O  O17  1  0.90787708  0.62296962  0.93171108  1
  O  O18  1  0.35596525  0.87512861  0.27170550  1
  O  O19  1  0.87512861  0.35596525  0.77170550  1
  O  O20  1  0.40079226  0.69694732  0.69232969  1
  O  O21  1  0.69694732  0.40079226  0.19232969  1
  O  O22  1  0.98640951  0.65012761  0.41036868  1
  O  O23  1  0.65012761  0.98640951  0.91036868  1
  O  O24  1  0.06268135  0.20519756  0.62813759  1
  O  O25  1  0.20519756  0.06268135  0.12813759  1
  O  O26  1  0.32767556  0.84185018  0.79169539  1
  O  O27  1  0.84185018  0.32767556  0.29169539  1
  O  O28  1  0.23019724  0.09106178  0.63389832  1
  O  O29  1  0.09106178  0.23019724  0.13389832  1
  O  O30  1  0.67124140  0.42922801  0.46426751  1
  O  O31  1  0.42922801  0.67124140  0.96426751  1
  O  O32  1  0.61835751  0.96978663  0.16517247  1
  O  O33  1  0.96978663  0.61835751  0.66517247  1
  O  O34  1  0.61048160  0.01529659  0.69425271  1
  O  O35  1  0.01529659  0.61048160  0.19425171  1
  F  F0  1  0.77065616  0.77113917  0.54322579  1
  F  F1  1  0.77113917  0.77065616  0.04322579  1
  F  F2  1  0.75796935  0.76181424  0.30807357  1
  F  F3  1  0.76181424  0.75796935  0.80807357  1
loop_
_geom_bond_atom_site_label_1
_geom_bond_atom_site_label_2
_geom_bond_distance
_geom_bond_site_symmetry_2
Na0 O8 2.328298 1_555
Na0 O21 2.356243 1_555
Na0 O3 2.386373 1_555
Na0 O0 2.404643 1_555
Na1 O9 2.328298 1_555
Na1 O20 2.356243 1_555
Na1 O2 2.386373 1_555
Na1 O1 2.404643 1_555
Na2 O24 2.298251 1_555
Na2 O6 2.317809 1_555
Na2 O20 2.334143 1_555
Na2 O33 2.369444 1_455
Na2 O12 2.647656 1_455
Na2 O19 2.659546 1_455
Na2 O2 2.743951 1_555
Na3 O25 2.298251 1_555
Na3 O7 2.317809 1_554
Na3 O21 2.334143 1_555
Na3 O32 2.369444 1_545
Na3 O13 2.647656 1_544
Na3 O18 2.659546 1_545
Na3 O3 2.743951 1_555
Na4 O31 2.264060 1_554
Na4 O29 2.279257 1_555
Na4 O35 2.371047 1_555
Na4 O15 2.411151 1_454
Na4 O8 2.416287 1_555
Na4 O13 2.586709 1_554
Na5 O30 2.264060 1_555
Na5 O28 2.279257 1_555
Na5 O34 2.371055 1_555
Na5 O14 2.411151 1_545
Na5 O9 2.416287 1_555
Na5 O12 2.586709 1_555
Na6 O33 2.356149 1_455
Na6 O28 2.367738 1_565
Na6 O10 2.374797 1_565
Na6 O22 2.379866 1_455
Na6 O14 2.442972 1_555
Na7 O32 2.356149 1_545
Na7 O29 2.367738 1_655
Na7 O11 2.374797 1_654
Na7 O23 2.379866 1_544
Na7 O15 2.442972 1_554
Na8 O25 2.236941 1_565
Na8 O22 2.260848 1_455
Na8 O10 2.289135 1_565
Na8 O35 2.403467 1_555
Na8 O18 2.542905 1_555
Na9 O24 2.236941 1_655
Na9 O23 2.260848 1_545
Na9 O11 2.289135 1_655
Na9 O34 2.403459 1_555
Na9 O19 2.542905 1_555
Na10 O27 2.334304 1_555
Na10 O29 2.378055 1_655
Na10 O32 2.395580 1_545
Na10 O16 2.401403 1_545
Na10 O4 2.432797 1_655
Na11 O26 2.334304 1_555
Na11 O28 2.378055 1_565
Na11 O33 2.395580 1_455
Na11 O17 2.401403 1_455
Na11 O5 2.432797 1_565
Na12 O24 2.241465 1_655
Na12 O16 2.261101 1_545
Na12 O12 2.356784 1_555
Na12 O4 2.563270 1_655
Na12 O34 2.612853 1_555
Na13 O25 2.241465 1_565
Na13 O17 2.261101 1_454
Na13 O13 2.356784 1_554
Na13 O5 2.563270 1_564
Na13 O35 2.612843 1_555
Na14 O14 2.408411 1_545
Na14 O10 2.409899 1_555
Na14 O27 2.463475 1_555
Na14 O21 2.474718 1_555
Na14 O18 2.546240 1_545
Na14 O30 2.589312 1_555
Na14 O0 2.621402 1_555
Na15 O15 2.408411 1_455
Na15 O11 2.409899 1_555
Na15 O26 2.463475 1_555
Na15 O20 2.474718 1_555
Na15 O19 2.546240 1_455
Na15 O31 2.589312 1_555
Na15 O1 2.621402 1_555
Lu0 O22 2.204039 1_455
Lu0 O8 2.214934 1_555
Lu0 O4 2.217310 1_555
Lu0 O6 2.242744 1_555
Lu0 O27 2.277398 1_455
Lu0 O18 2.378924 1_555
Lu0 O35 2.473232 1_555
Lu0 O12 2.535840 1_455
Lu1 O23 2.204039 1_545
Lu1 O9 2.214934 1_555
Lu1 O5 2.217310 1_555
Lu1 O7 2.242744 1_555
Lu1 O26 2.277398 1_545
Lu1 O19 2.378924 1_555
Lu1 O34 2.473221 1_555
Lu1 O13 2.535840 1_545
Lu2 O2 2.185190 1_555
Lu2 O0 2.203414 1_555
Lu2 O30 2.262635 1_555
Lu2 O16 2.344391 1_555
Lu2 O6 2.398126 1_555
Lu3 O3 2.185190 1_556
Lu3 O1 2.203414 1_555
Lu3 O31 2.262635 1_555
Lu3 O17 2.344391 1_555
Lu3 O7 2.398126 1_555
C0 O10 1.269313 1_555
C0 O0 1.299099 1_555
C0 O4 1.302353 1_555
C1 O11 1.269313 1_555
C1 O1 1.299099 1_555
C1 O5 1.302353 1_555
C2 O32 1.264511 1_555
C2 O18 1.306032 1_555
C2 O8 1.313832 1_555
C3 O33 1.264511 1_555
C3 O19 1.306032 1_555
C3 O9 1.313832 1_555
C4 O30 1.279658 1_555
C4 O12 1.283846 1_555
C4 O22 1.304477 1_555
C5 O31 1.279658 1_555
C5 O13 1.283846 1_555
C5 O23 1.304477 1_555
C6 O28 1.282780 1_555
C6 O24 1.282818 1_555
C6 O2 1.310258 1_555
C7 O29 1.282780 1_555
C7 O25 1.282818 1_555
C7 O3 1.310258 1_555
C8 O20 1.263761 1_555
C8 O34 1.304763 1_565
C8 O26 1.311257 1_555
C9 O21 1.263761 1_555
C9 O35 1.304765 1_655
C9 O27 1.311257 1_555
C10 O14 1.256694 1_555
C10 O16 1.288478 1_555
C10 O6 1.336222 1_555
C11 O15 1.256694 1_555
C11 O17 1.288478 1_555
C11 O7 1.336222 1_555
F0 Lu2 2.106695 1_555
F0 Na1 2.278817 1_555
F0 Na6 2.306311 1_655
F0 Na12 2.411853 1_565
F1 Lu3 2.106695 1_554
F1 Na0 2.278817 1_555
F1 Na7 2.306311 1_565
F1 Na13 2.411853 1_655
F2 Lu2 2.115274 1_555
F2 Na8 2.242132 1_655
F2 Na0 2.272056 1_555
F2 Na10 2.316433 1_565
F3 Lu3 2.115274 1_555
F3 Na9 2.242132 1_565
F3 Na1 2.272056 1_555
F3 Na11 2.316433 1_655
