# generated using pymatgen
data_KU(TeO4)2
_symmetry_space_group_name_H-M   'P 1'
_cell_length_a   6.02697165
_cell_length_b   6.02697165
_cell_length_c   11.90853900
_cell_angle_alpha   90.00000000
_cell_angle_beta   90.00000000
_cell_angle_gamma   100.02339574
_symmetry_Int_Tables_number   1
_chemical_formula_structural   KU(TeO4)2
_chemical_formula_sum   'K2 U2 Te4 O16'
_cell_volume   425.96795924
_cell_formula_units_Z   2
loop_
 _symmetry_equiv_pos_site_id
 _symmetry_equiv_pos_as_xyz
  1  'x, y, z'
loop_
 _atom_site_type_symbol
 _atom_site_label
 _atom_site_symmetry_multiplicity
 _atom_site_fract_x
 _atom_site_fract_y
 _atom_site_fract_z
 _atom_site_occupancy
  K  K0  1  0.50000000  0.50000000  0.50000000  1
  K  K1  1  0.50000000  0.50000000  0.00000000  1
  U  U0  1  0.00000000  0.00000000  0.50000000  1
  U  U1  1  0.00000000  0.00000000  0.00000000  1
  Te  Te0  1  0.92892100  0.57610400  0.75000000  1
  Te  Te1  1  0.57610400  0.92892100  0.25000000  1
  Te  Te2  1  0.07107900  0.42389600  0.25000000  1
  Te  Te3  1  0.42389600  0.07107900  0.75000000  1
  O  O0  1  0.80861800  0.19138200  0.54475800  1
  O  O1  1  0.19138200  0.80861800  0.45524200  1
  O  O2  1  0.80861800  0.19138200  0.95524200  1
  O  O3  1  0.19138200  0.80861800  0.04475800  1
  O  O4  1  0.84183600  0.74717000  0.62929100  1
  O  O5  1  0.74717000  0.84183600  0.37070900  1
  O  O6  1  0.84183600  0.74717000  0.87070900  1
  O  O7  1  0.74717000  0.84183600  0.12929100  1
  O  O8  1  0.15816400  0.25283000  0.37070900  1
  O  O9  1  0.25283000  0.15816400  0.62929100  1
  O  O10  1  0.15816400  0.25283000  0.12929100  1
  O  O11  1  0.25283000  0.15816400  0.87070900  1
  O  O12  1  0.60698900  0.39301100  0.75000000  1
  O  O13  1  0.39301100  0.60698900  0.25000000  1
  O  O14  1  0.25672200  0.74327800  0.75000000  1
  O  O15  1  0.74327800  0.25672200  0.25000000  1
loop_
_geom_bond_atom_site_label_1
_geom_bond_atom_site_label_2
_geom_bond_distance
_geom_bond_site_symmetry_2
K0 O9 2.786746 1_555
K0 O4 2.786746 1_555
K0 O8 2.786746 1_555
K0 O5 2.786746 1_555
K0 O0 2.899631 1_555
K0 O1 2.899631 1_555
K0 O12 3.136822 1_555
K0 O13 3.136822 1_555
K1 O6 2.786746 1_554
K1 O7 2.786746 1_555
K1 O11 2.786746 1_554
K1 O10 2.786746 1_555
K1 O3 2.899631 1_555
K1 O2 2.899631 1_554
K1 O12 3.136822 1_554
K1 O13 3.136822 1_555
O0 U0 1.846114 1_655
O1 U0 1.846114 1_565
O2 U1 1.846114 1_656
O3 U1 1.846114 1_565
O4 Te0 1.895558 1_555
O4 U0 2.257341 1_665
O5 Te1 1.895558 1_555
O5 U0 2.257341 1_665
O6 Te0 1.895558 1_555
O6 U1 2.257341 1_666
O7 Te1 1.895558 1_555
O7 U1 2.257341 1_665
O8 Te2 1.895558 1_555
O8 U0 2.257341 1_555
O9 Te3 1.895558 1_555
O9 U0 2.257341 1_555
O10 Te2 1.895558 1_555
O10 U1 2.257341 1_555
O11 Te3 1.895558 1_555
O11 U1 2.257341 1_556
O12 Te0 2.058412 1_555
O12 Te3 2.058412 1_555
O13 Te1 2.058412 1_555
O13 Te2 2.058412 1_555
O14 Te0 2.055584 1_455
O14 Te3 2.055584 1_565
O15 Te1 2.055584 1_545
O15 Te2 2.055584 1_655
