# generated using pymatgen
data_NaPrTi2O6
_symmetry_space_group_name_H-M   'P 1'
_cell_length_a   5.48416500
_cell_length_b   5.51320600
_cell_length_c   7.75354200
_cell_angle_alpha   90.00000000
_cell_angle_beta   90.00000000
_cell_angle_gamma   90.00000000
_symmetry_Int_Tables_number   1
_chemical_formula_structural   NaPrTi2O6
_chemical_formula_sum   'Na2 Pr2 Ti4 O12'
_cell_volume   234.43091176
_cell_formula_units_Z   2
loop_
 _symmetry_equiv_pos_site_id
 _symmetry_equiv_pos_as_xyz
  1  'x, y, z'
loop_
 _atom_site_type_symbol
 _atom_site_label
 _atom_site_symmetry_multiplicity
 _atom_site_fract_x
 _atom_site_fract_y
 _atom_site_fract_z
 _atom_site_occupancy
  Na  Na0  1  0.49668700  0.76581200  0.50000000  1
  Na  Na1  1  0.99668700  0.23418800  0.00000000  1
  Pr  Pr0  1  0.00895500  0.27970800  0.50000000  1
  Pr  Pr1  1  0.50895500  0.72029200  0.00000000  1
  Ti  Ti0  1  0.50073700  0.24624900  0.75063900  1
  Ti  Ti1  1  0.00073700  0.75375100  0.25063900  1
  Ti  Ti2  1  0.50073700  0.24624900  0.24936100  1
  Ti  Ti3  1  0.00073700  0.75375100  0.74936100  1
  O  O0  1  0.27176100  0.52269400  0.71556900  1
  O  O1  1  0.21794800  0.03181700  0.28688400  1
  O  O2  1  0.71794800  0.96818300  0.21311600  1
  O  O3  1  0.77176100  0.47730600  0.78443100  1
  O  O4  1  0.71794800  0.96818300  0.78688400  1
  O  O5  1  0.77176100  0.47730600  0.21556900  1
  O  O6  1  0.27176100  0.52269400  0.28443100  1
  O  O7  1  0.21794800  0.03181700  0.71311600  1
  O  O8  1  0.57490800  0.24104200  0.50000000  1
  O  O9  1  0.93855900  0.73807900  0.50000000  1
  O  O10  1  0.43855900  0.26192100  0.00000000  1
  O  O11  1  0.07490800  0.75895800  0.00000000  1
loop_
_geom_bond_atom_site_label_1
_geom_bond_atom_site_label_2
_geom_bond_distance
_geom_bond_site_symmetry_2
Na0 O9 2.428118 1_555
Na0 O6 2.472209 1_555
Na0 O0 2.472209 1_555
Na0 O8 2.654927 1_565
Na0 O7 2.686625 1_565
Na0 O1 2.686625 1_565
Na0 O4 2.768581 1_555
Na0 O2 2.768581 1_555
Na0 O8 2.924795 1_555
Na1 O10 2.428118 1_655
Na1 O5 2.472209 1_555
Na1 O3 2.472209 1_554
Na1 O11 2.654927 1_645
Na1 O2 2.686625 1_545
Na1 O4 2.686625 1_544
Na1 O1 2.768581 1_655
Na1 O7 2.768581 1_654
Na1 O11 2.924795 1_655
O0 Ti3 1.974990 1_555
O0 Ti0 1.993415 1_555
O0 Pr0 2.581769 1_555
O0 Pr1 2.782527 1_556
O1 Ti1 1.961678 1_545
O1 Ti2 1.971657 1_555
O1 Pr0 2.431440 1_555
O1 Pr1 3.231813 1_545
O2 Ti2 1.961678 1_565
O2 Ti1 1.971657 1_655
O2 Pr1 2.431440 1_555
O2 Pr0 3.231813 1_665
O3 Ti0 1.974990 1_555
O3 Ti3 1.993415 1_655
O3 Pr1 2.581769 1_556
O3 Pr0 2.782527 1_655
O4 Ti0 1.961678 1_565
O4 Ti3 1.971657 1_655
O4 Pr1 2.431440 1_556
O4 Pr0 3.231813 1_665
O5 Ti2 1.974990 1_555
O5 Ti1 1.993415 1_655
O5 Pr1 2.581769 1_555
O5 Pr0 2.782527 1_655
O6 Ti1 1.974990 1_555
O6 Ti2 1.993415 1_555
O6 Pr0 2.581769 1_555
O6 Pr1 2.782527 1_555
O7 Ti3 1.961678 1_545
O7 Ti0 1.971657 1_555
O7 Pr0 2.431440 1_555
O7 Pr1 3.231813 1_546
O8 Ti0 1.985662 1_555
O8 Ti2 1.985662 1_555
O8 Pr0 2.389912 1_655
O8 Pr0 3.111092 1_555
O9 Ti3 1.965171 1_655
O9 Ti1 1.965171 1_655
O9 Pr0 2.556413 1_655
O9 Pr0 3.010965 1_665
O10 Ti2 1.965171 1_555
O10 Ti0 1.965171 1_554
O10 Pr1 2.556413 1_555
O10 Pr1 3.010965 1_545
O11 Ti1 1.985662 1_555
O11 Ti3 1.985662 1_554
O11 Pr1 2.389912 1_555
O11 Pr1 3.111092 1_455
