# generated using pymatgen
data_Ag(BiSe2)3
_symmetry_space_group_name_H-M   'P 1'
_cell_length_a   10.67818961
_cell_length_b   10.67818961
_cell_length_c   52.79667500
_cell_angle_alpha   90.00000000
_cell_angle_beta   90.00000000
_cell_angle_gamma   120.28190287
_symmetry_Int_Tables_number   1
_chemical_formula_structural   Ag(BiSe2)3
_chemical_formula_sum   'Ag1 Bi3 Se6'
_cell_volume   5198.66418100
_cell_formula_units_Z   1
loop_
 _symmetry_equiv_pos_site_id
 _symmetry_equiv_pos_as_xyz
  1  'x, y, z'
loop_
 _atom_site_type_symbol
 _atom_site_label
 _atom_site_symmetry_multiplicity
 _atom_site_fract_x
 _atom_site_fract_y
 _atom_site_fract_z
 _atom_site_occupancy
  Ag  Ag0  1  0.00000000  0.00000000  0.00000000  1
  Bi  Bi0  1  0.00000000  0.00000000  0.50000000  1
  Bi  Bi1  1  0.50000000  0.00000000  0.00000000  1
  Bi  Bi2  1  0.00000000  0.50000000  0.00000000  1
  Se  Se0  1  0.00000000  0.00000000  0.23103200  1
  Se  Se1  1  0.00000000  0.00000000  0.76896800  1
  Se  Se2  1  0.24299100  0.99309700  0.00000000  1
  Se  Se3  1  0.75700900  0.00690300  0.00000000  1
  Se  Se4  1  0.99309700  0.24299100  0.00000000  1
  Se  Se5  1  0.00690300  0.75700900  0.00000000  1
loop_
_geom_bond_atom_site_label_1
_geom_bond_atom_site_label_2
_geom_bond_distance
_geom_bond_site_symmetry_2
Ag0 Se4 2.632643 1_455
Ag0 Se2 2.632643 1_545
Ag0 Se5 2.632643 1_545
Ag0 Se3 2.632643 1_455
Bi1 Se3 2.707970 1_555
Bi1 Se2 2.707970 1_545
Bi2 Se5 2.707970 1_555
Bi2 Se4 2.707970 1_455
Se2 Se5 2.510243 1_555
Se3 Se4 2.510243 1_555
