# generated using pymatgen
data_Sm(ReO5)3
_symmetry_space_group_name_H-M   'P 1'
_cell_length_a   8.74188394
_cell_length_b   11.61850874
_cell_length_c   14.79001465
_cell_angle_alpha   90.00000000
_cell_angle_beta   90.00000000
_cell_angle_gamma   90.00000000
_symmetry_Int_Tables_number   1
_chemical_formula_structural   Sm(ReO5)3
_chemical_formula_sum   'Sm4 Re12 O60'
_cell_volume   1502.18710484
_cell_formula_units_Z   4
loop_
 _symmetry_equiv_pos_site_id
 _symmetry_equiv_pos_as_xyz
  1  'x, y, z'
loop_
 _atom_site_type_symbol
 _atom_site_label
 _atom_site_symmetry_multiplicity
 _atom_site_fract_x
 _atom_site_fract_y
 _atom_site_fract_z
 _atom_site_occupancy
  Sm  Sm0  1  0.76883851  0.72316560  0.82752596  1
  Sm  Sm1  1  0.23116149  0.22316560  0.17247404  1
  Sm  Sm2  1  0.26883851  0.22316560  0.67247404  1
  Sm  Sm3  1  0.73116149  0.72316560  0.32752596  1
  Re  Re0  1  0.80675106  0.86202328  0.58316691  1
  Re  Re1  1  0.19324894  0.36202328  0.41683309  1
  Re  Re2  1  0.30675106  0.36202328  0.91683309  1
  Re  Re3  1  0.69324894  0.86202328  0.08316691  1
  Re  Re4  1  0.60343345  0.46487057  0.67159291  1
  Re  Re5  1  0.39656655  0.96487057  0.32840709  1
  Re  Re6  1  0.10343345  0.96487057  0.82840709  1
  Re  Re7  1  0.89656655  0.46487057  0.17159291  1
  Re  Re8  1  0.60067394  0.05174061  0.81947868  1
  Re  Re9  1  0.39932606  0.55174061  0.18052132  1
  Re  Re10  1  0.10067394  0.55174061  0.68052132  1
  Re  Re11  1  0.89932606  0.05174061  0.31947868  1
  O  O0  1  0.54779763  0.52902651  0.57092064  1
  O  O1  1  0.45220237  0.02902651  0.42907936  1
  O  O2  1  0.04779763  0.02902651  0.92907936  1
  O  O3  1  0.95220237  0.52902651  0.07092064  1
  O  O4  1  0.72638968  0.99425268  0.60929423  1
  O  O5  1  0.27361032  0.49425268  0.39070577  1
  O  O6  1  0.22638968  0.49425268  0.89070577  1
  O  O7  1  0.77361032  0.99425268  0.10929423  1
  O  O8  1  0.00699148  0.69312003  0.92022025  1
  O  O9  1  0.99300852  0.19312003  0.07977975  1
  O  O10  1  0.50699148  0.19312003  0.57977975  1
  O  O11  1  0.49300852  0.69312003  0.42022025  1
  O  O12  1  0.75365742  0.76323212  0.66821894  1
  O  O13  1  0.24634258  0.26323212  0.33178106  1
  O  O14  1  0.25365742  0.26323212  0.83178106  1
  O  O15  1  0.74634258  0.76323212  0.16821894  1
  O  O16  1  0.62684584  0.56928437  0.75828230  1
  O  O17  1  0.37315416  0.06928437  0.24171770  1
  O  O18  1  0.12684584  0.06928437  0.74171770  1
  O  O19  1  0.87315416  0.56928437  0.25828230  1
  O  O20  1  0.74669271  0.55119095  0.93169163  1
  O  O21  1  0.25330729  0.05119095  0.06830837  1
  O  O22  1  0.24669271  0.05119095  0.56830837  1
  O  O23  1  0.75330729  0.55119095  0.43169163  1
  O  O24  1  0.63288817  0.90108704  0.81125066  1
  O  O25  1  0.36711183  0.40108704  0.18874934  1
  O  O26  1  0.13288817  0.40108704  0.68874934  1
  O  O27  1  0.86711183  0.90108704  0.31125066  1
  O  O28  1  0.77653906  0.39638566  0.65421926  1
  O  O29  1  0.22346094  0.89638566  0.34578074  1
  O  O30  1  0.27653906  0.89638566  0.84578074  1
  O  O31  1  0.72346094  0.39638566  0.15421926  1
  O  O32  1  0.00406217  0.87617056  0.58318099  1
  O  O33  1  0.99593783  0.37617056  0.41681901  1
  O  O34  1  0.50406217  0.37617056  0.91681901  1
  O  O35  1  0.49593783  0.87617056  0.08318099  1
  O  O36  1  0.03576219  0.36055933  0.20260714  1
  O  O37  1  0.96423781  0.86055933  0.79739286  1
  O  O38  1  0.53576219  0.86055933  0.29739286  1
  O  O39  1  0.46423781  0.36055933  0.70260714  1
  O  O40  1  0.49391244  0.70941561  0.88227421  1
  O  O41  1  0.50608756  0.20941561  0.11772579  1
  O  O42  1  0.99391244  0.20941561  0.61772579  1
  O  O43  1  0.00608756  0.70941561  0.38227421  1
  O  O44  1  0.54129735  0.08381707  0.92838328  1
  O  O45  1  0.45870265  0.58381707  0.07161672  1
  O  O46  1  0.04129735  0.58381707  0.57161672  1
  O  O47  1  0.95870265  0.08381707  0.42838328  1
  O  O48  1  0.74076329  0.81094378  0.47575547  1
  O  O49  1  0.25923671  0.31094378  0.52424453  1
  O  O50  1  0.24076329  0.31094378  0.02424453  1
  O  O51  1  0.75923671  0.81094378  0.97575547  1
  O  O52  1  0.77182553  0.12303764  0.80096794  1
  O  O53  1  0.22817447  0.62303764  0.19903206  1
  O  O54  1  0.27182553  0.62303764  0.69903206  1
  O  O55  1  0.72817447  0.12303764  0.30096794  1
  O  O56  1  0.45981213  0.10057659  0.74134926  1
  O  O57  1  0.54018787  0.60057659  0.25865074  1
  O  O58  1  0.95981213  0.60057659  0.75865074  1
  O  O59  1  0.04018787  0.10057659  0.24134926  1
loop_
_geom_bond_atom_site_label_1
_geom_bond_atom_site_label_2
_geom_bond_distance
_geom_bond_site_symmetry_2
O0 Re4 1.734681 1_555
O1 Re5 1.734681 1_545
O2 Re6 1.734681 1_545
O3 Re7 1.734681 1_555
O4 Re0 1.732942 1_555
O5 Re1 1.732942 1_555
O6 Re2 1.732942 1_555
O7 Re3 1.732942 1_555
O8 Sm0 2.517081 1_455
O9 Sm1 2.517081 1_655
O10 Sm2 2.517081 1_555
O11 Sm3 2.517081 1_555
O12 Re0 1.765006 1_555
O12 Sm0 2.405363 1_555
O13 Re1 1.765006 1_555
O13 Sm1 2.405363 1_555
O14 Re2 1.765006 1_555
O14 Sm2 2.405363 1_555
O15 Re3 1.765006 1_555
O15 Sm3 2.405363 1_555
O16 Re4 1.776923 1_555
O16 Sm0 2.405426 1_555
O17 Re5 1.776923 1_545
O17 Sm1 2.405426 1_555
O18 Re6 1.776923 1_545
O18 Sm2 2.405426 1_555
O19 Re7 1.776923 1_555
O19 Sm3 2.405426 1_555
O20 Sm0 2.530479 1_555
O21 Sm1 2.530479 1_555
O22 Sm2 2.530479 1_555
O23 Sm3 2.530479 1_555
O24 Re8 1.777051 1_565
O24 Sm0 2.396586 1_555
O25 Re9 1.777051 1_555
O25 Sm1 2.396586 1_555
O26 Re10 1.777051 1_555
O26 Sm2 2.396586 1_555
O27 Re11 1.777051 1_565
O27 Sm3 2.396586 1_555
O28 Re4 1.728912 1_555
O29 Re5 1.728912 1_555
O30 Re6 1.728912 1_555
O31 Re7 1.728912 1_555
O32 Re0 1.732685 1_455
O33 Re1 1.732685 1_655
O34 Re2 1.732685 1_555
O35 Re3 1.732685 1_555
O36 Re7 1.777607 1_455
O36 Sm1 2.380049 1_555
O37 Re6 1.777607 1_655
O37 Sm0 2.380049 1_555
O38 Re5 1.777607 1_555
O38 Sm3 2.380049 1_555
O39 Re4 1.777607 1_555
O39 Sm2 2.380049 1_555
O40 Sm0 2.541137 1_555
O41 Sm1 2.541137 1_555
O42 Sm2 2.541137 1_655
O43 Sm3 2.541137 1_455
O44 Re8 1.732823 1_555
O45 Re9 1.732823 1_555
O46 Re10 1.732823 1_555
O47 Re11 1.732823 1_555
O48 Re0 1.791277 1_555
O48 Sm3 2.419379 1_555
O49 Re1 1.791277 1_555
O49 Sm2 2.419379 1_555
O50 Re2 1.791277 1_554
O50 Sm1 2.419379 1_555
O51 Re3 1.791277 1_556
O51 Sm0 2.419379 1_555
O52 Re8 1.731969 1_555
O53 Re9 1.731969 1_555
O54 Re10 1.731969 1_555
O55 Re11 1.731969 1_555
O56 Re8 1.781445 1_555
O56 Sm2 2.419389 1_555
O57 Re9 1.781445 1_555
O57 Sm3 2.419389 1_555
O58 Re10 1.781445 1_655
O58 Sm0 2.419389 1_555
O59 Re11 1.781445 1_455
O59 Sm1 2.419389 1_555
