# generated using pymatgen
data_MgAl8Fe3Si8(H2O5)8
_symmetry_space_group_name_H-M   'P 1'
_cell_length_a   12.34688442
_cell_length_b   12.34688442
_cell_length_c   5.17762932
_cell_angle_alpha   89.96949729
_cell_angle_beta   89.96949729
_cell_angle_gamma   111.61669102
_symmetry_Int_Tables_number   1
_chemical_formula_structural   MgAl8Fe3Si8(H2O5)8
_chemical_formula_sum   'Mg1 Al8 Fe3 Si8 H16 O40'
_cell_volume   733.79368820
_cell_formula_units_Z   1
loop_
 _symmetry_equiv_pos_site_id
 _symmetry_equiv_pos_as_xyz
  1  'x, y, z'
loop_
 _atom_site_type_symbol
 _atom_site_label
 _atom_site_symmetry_multiplicity
 _atom_site_fract_x
 _atom_site_fract_y
 _atom_site_fract_z
 _atom_site_occupancy
  Mg  Mg0  1  0.12408600  0.87591400  0.00000000  1
  Al  Al0  1  0.46138100  0.53861900  0.50000000  1
  Al  Al1  1  0.96232500  0.03767500  0.00000000  1
  Al  Al2  1  0.53865500  0.46134500  0.00000000  1
  Al  Al3  1  0.03931200  0.96068800  0.50000000  1
  Al  Al4  1  0.44086900  0.94218800  0.00084500  1
  Al  Al5  1  0.55734000  0.05732300  0.50024700  1
  Al  Al6  1  0.94267700  0.44266000  0.49975300  1
  Al  Al7  1  0.05781200  0.55913100  0.99915500  1
  Fe  Fe0  1  0.37468400  0.62531600  0.00000000  1
  Fe  Fe1  1  0.87486200  0.12513800  0.50000000  1
  Fe  Fe2  1  0.62534000  0.37466000  0.50000000  1
  Si  Si0  1  0.57282800  0.81435300  0.33424400  1
  Si  Si1  1  0.68575400  0.92691200  0.83432900  1
  Si  Si2  1  0.81476900  0.57394600  0.83365800  1
  Si  Si3  1  0.92793500  0.68631300  0.33296300  1
  Si  Si4  1  0.42605400  0.18523100  0.16634200  1
  Si  Si5  1  0.31368700  0.07206500  0.66703700  1
  Si  Si6  1  0.18564700  0.42717200  0.66575600  1
  Si  Si7  1  0.07308800  0.31424600  0.16567100  1
  H  H0  1  0.59794700  0.67674600  0.83700600  1
  H  H1  1  0.82328900  0.90197900  0.33763500  1
  H  H2  1  0.67676400  0.59805900  0.33621200  1
  H  H3  1  0.90204000  0.82313700  0.83474500  1
  H  H4  1  0.40194100  0.32323600  0.66378800  1
  H  H5  1  0.17686300  0.09796000  0.16525500  1
  H  H6  1  0.32325400  0.40205300  0.16299400  1
  H  H7  1  0.09802100  0.17671100  0.66236500  1
  H  H8  1  0.20951000  0.61458800  0.31078100  1
  H  H9  1  0.88561800  0.29035900  0.81174400  1
  H  H10  1  0.61427800  0.20950200  0.81121400  1
  H  H11  1  0.28815900  0.88539600  0.30653600  1
  H  H12  1  0.79049800  0.38572200  0.18878600  1
  H  H13  1  0.11460400  0.71184100  0.69346400  1
  H  H14  1  0.38541200  0.79049000  0.68921900  1
  H  H15  1  0.70964100  0.11438200  0.18825600  1
  O  O0  1  0.40923600  0.79253800  0.86818200  1
  O  O1  1  0.70752600  0.09012400  0.36699600  1
  O  O2  1  0.79253200  0.40978400  0.36755100  1
  O  O3  1  0.08910500  0.71015000  0.87131800  1
  O  O4  1  0.59021600  0.20746800  0.63244900  1
  O  O5  1  0.28985000  0.91089500  0.12868200  1
  O  O6  1  0.20746200  0.59076400  0.13181800  1
  O  O7  1  0.90987600  0.29247400  0.63300400  1
  O  O8  1  0.50378100  0.90532300  0.31882700  1
  O  O9  1  0.59457000  0.99558900  0.81904400  1
  O  O10  1  0.90585900  0.50513400  0.81827800  1
  O  O11  1  0.99552500  0.59423100  0.31880600  1
  O  O12  1  0.49486600  0.09414100  0.18172200  1
  O  O13  1  0.40576900  0.00447500  0.68119400  1
  O  O14  1  0.09467700  0.49621900  0.68117300  1
  O  O15  1  0.00441100  0.40543000  0.18095600  1
  O  O16  1  0.53445100  0.60132200  0.82349900  1
  O  O17  1  0.89930500  0.96466800  0.32365200  1
  O  O18  1  0.60140000  0.53443700  0.32341900  1
  O  O19  1  0.96745400  0.89726400  0.82345500  1
  O  O20  1  0.46556300  0.39860000  0.67658100  1
  O  O21  1  0.10273600  0.03254600  0.17654500  1
  O  O22  1  0.39867800  0.46554900  0.17650100  1
  O  O23  1  0.03533200  0.10069500  0.67634800  1
  O  O24  1  0.65737400  0.83334200  0.07617500  1
  O  O25  1  0.66647000  0.84268200  0.57574500  1
  O  O26  1  0.83521200  0.65952300  0.57635400  1
  O  O27  1  0.84232200  0.66668900  0.07671100  1
  O  O28  1  0.34047700  0.16478800  0.42364600  1
  O  O29  1  0.33331100  0.15767800  0.92328900  1
  O  O30  1  0.16665800  0.34262600  0.92382500  1
  O  O31  1  0.15731800  0.33353000  0.42425500  1
  O  O32  1  0.48065700  0.68161100  0.34965300  1
  O  O33  1  0.81907300  0.01824300  0.84917400  1
  O  O34  1  0.68199500  0.48146200  0.84849000  1
  O  O35  1  0.02210000  0.81877600  0.34062600  1
  O  O36  1  0.51853800  0.31800500  0.15151000  1
  O  O37  1  0.18122400  0.97790000  0.65937400  1
  O  O38  1  0.31838900  0.51934300  0.65034700  1
  O  O39  1  0.98175700  0.18092700  0.15082600  1
loop_
_geom_bond_atom_site_label_1
_geom_bond_atom_site_label_2
_geom_bond_distance
_geom_bond_site_symmetry_2
Mg0 O3 2.042001 1_554
Mg0 O5 2.042001 1_555
Mg0 O35 2.129672 1_555
Mg0 O37 2.129672 1_554
Mg0 O21 2.241051 1_565
Mg0 O19 2.241051 1_454
Al0 O32 1.862357 1_555
Al0 O38 1.862357 1_555
Al0 O22 1.925399 1_555
Al0 O16 1.925399 1_555
Al0 O20 1.972673 1_555
Al0 O18 1.972673 1_555
Al1 O39 1.866752 1_555
Al1 O33 1.866752 1_554
Al1 O23 1.925187 1_654
Al1 O17 1.925187 1_545
Al1 O21 1.981812 1_655
Al1 O19 1.981812 1_544
Al2 O36 1.866469 1_555
Al2 O34 1.866469 1_554
Al2 O18 1.925245 1_555
Al2 O20 1.925245 1_554
Al2 O16 1.972117 1_554
Al2 O22 1.972117 1_555
Al3 O37 1.877115 1_555
Al3 O35 1.877115 1_555
Al3 O19 1.920997 1_455
Al3 O21 1.920997 1_565
Al3 O23 1.971942 1_565
Al3 O17 1.971942 1_455
Al4 O0 1.873048 1_554
Al4 O5 1.879302 1_555
Al4 O13 1.939939 1_564
Al4 O8 1.944793 1_555
Al4 O12 1.980508 1_565
Al4 O9 1.999418 1_554
Al5 O4 1.875413 1_555
Al5 O1 1.877118 1_555
Al5 O9 1.942788 1_545
Al5 O12 1.944333 1_555
Al5 O13 1.975734 1_555
Al5 O8 1.982391 1_545
Al6 O2 1.875413 1_555
Al6 O7 1.877118 1_555
Al6 O15 1.942788 1_655
Al6 O10 1.944333 1_555
Al6 O11 1.975734 1_555
Al6 O14 1.982391 1_655
Al7 O6 1.873048 1_556
Al7 O3 1.879302 1_555
Al7 O11 1.939939 1_456
Al7 O14 1.944793 1_555
Al7 O10 1.980508 1_455
Al7 O15 1.999418 1_556
Fe0 O0 2.063951 1_554
Fe0 O6 2.063951 1_555
Fe0 O38 2.192342 1_554
Fe0 O32 2.192342 1_555
Fe0 O22 2.289780 1_555
Fe0 O16 2.289780 1_554
Fe1 O1 2.067255 1_555
Fe1 O7 2.067255 1_555
Fe1 O33 2.193440 1_555
Fe1 O39 2.193440 1_555
Fe1 O17 2.300550 1_545
Fe1 O23 2.300550 1_655
Fe2 O2 2.063557 1_555
Fe2 O4 2.063557 1_555
Fe2 O34 2.192747 1_555
Fe2 O36 2.192747 1_555
Fe2 O18 2.289759 1_555
Fe2 O20 2.289759 1_555
H0 O16 0.974142 1_555
H1 O17 0.974605 1_555
H2 O18 0.974098 1_555
H3 O19 0.973985 1_555
H4 O20 0.974098 1_555
H5 O21 0.973985 1_555
H6 O22 0.974142 1_555
H7 O23 0.974605 1_555
H8 O6 0.969843 1_555
H9 O7 0.969929 1_555
H10 O4 0.969748 1_555
H11 O5 0.970758 1_555
H12 O2 0.969748 1_555
H13 O3 0.970758 1_555
H14 O0 0.969843 1_555
H15 O1 0.969929 1_555
O8 Si0 1.643231 1_555
O9 Si1 1.642008 1_555
O10 Si2 1.642284 1_555
O11 Si3 1.641186 1_555
O12 Si4 1.642284 1_555
O13 Si5 1.641186 1_555
O14 Si6 1.643231 1_555
O15 Si7 1.642008 1_555
O24 Si1 1.650817 1_554
O24 Si0 1.657680 1_555
O25 Si0 1.651260 1_555
O25 Si1 1.658358 1_555
O26 Si3 1.651410 1_555
O26 Si2 1.660301 1_555
O27 Si2 1.650938 1_554
O27 Si3 1.658173 1_555
O28 Si5 1.651410 1_555
O28 Si4 1.660301 1_555
O29 Si4 1.650938 1_556
O29 Si5 1.658173 1_555
O30 Si7 1.650817 1_556
O30 Si6 1.657680 1_555
O31 Si6 1.651260 1_555
O31 Si7 1.658358 1_555
O32 Si0 1.616524 1_555
O33 Si1 1.618538 1_545
O34 Si2 1.617961 1_555
O35 Si3 1.620894 1_455
O36 Si4 1.617961 1_555
O37 Si5 1.620894 1_565
O38 Si6 1.616524 1_555
O39 Si7 1.618538 1_655
