# generated using pymatgen
data_ZnCr2O4
_symmetry_space_group_name_H-M   'P 1'
_cell_length_a   5.11398900
_cell_length_b   5.92920600
_cell_length_c   10.26801700
_cell_angle_alpha   90.00000000
_cell_angle_beta   90.00000000
_cell_angle_gamma   90.00000000
_symmetry_Int_Tables_number   1
_chemical_formula_structural   ZnCr2O4
_chemical_formula_sum   'Zn4 Cr8 O16'
_cell_volume   311.34572576
_cell_formula_units_Z   4
loop_
 _symmetry_equiv_pos_site_id
 _symmetry_equiv_pos_as_xyz
  1  'x, y, z'
loop_
 _atom_site_type_symbol
 _atom_site_label
 _atom_site_symmetry_multiplicity
 _atom_site_fract_x
 _atom_site_fract_y
 _atom_site_fract_z
 _atom_site_occupancy
  Zn  Zn0  1  0.36541400  0.00000000  0.50000000  1
  Zn  Zn1  1  0.63458600  0.50000000  0.00000000  1
  Zn  Zn2  1  0.04185700  0.00000000  0.00000000  1
  Zn  Zn3  1  0.95814300  0.50000000  0.50000000  1
  Cr  Cr0  1  0.00961600  0.50000000  0.23719100  1
  Cr  Cr1  1  0.00961600  0.50000000  0.76280900  1
  Cr  Cr2  1  0.99038400  0.00000000  0.26280900  1
  Cr  Cr3  1  0.99038400  0.00000000  0.73719100  1
  Cr  Cr4  1  0.50000000  0.25000000  0.25000000  1
  Cr  Cr5  1  0.50000000  0.75000000  0.75000000  1
  Cr  Cr6  1  0.50000000  0.75000000  0.25000000  1
  Cr  Cr7  1  0.50000000  0.25000000  0.75000000  1
  O  O0  1  0.35623300  0.50000000  0.14432900  1
  O  O1  1  0.35623300  0.50000000  0.85567100  1
  O  O2  1  0.64376700  0.00000000  0.35567100  1
  O  O3  1  0.64376700  0.00000000  0.64432900  1
  O  O4  1  0.68994900  0.50000000  0.34802600  1
  O  O5  1  0.68994900  0.50000000  0.65197400  1
  O  O6  1  0.31005100  0.00000000  0.15197400  1
  O  O7  1  0.31005100  0.00000000  0.84802600  1
  O  O8  1  0.16588600  0.25182600  0.35914400  1
  O  O9  1  0.16588600  0.74817400  0.64085600  1
  O  O10  1  0.83411400  0.75182600  0.14085600  1
  O  O11  1  0.83411400  0.24817400  0.85914400  1
  O  O12  1  0.83411400  0.24817400  0.14085600  1
  O  O13  1  0.83411400  0.75182600  0.85914400  1
  O  O14  1  0.16588600  0.74817400  0.35914400  1
  O  O15  1  0.16588600  0.25182600  0.64085600  1
loop_
_geom_bond_atom_site_label_1
_geom_bond_atom_site_label_2
_geom_bond_distance
_geom_bond_site_symmetry_2
Cr0 O4 1.991897 1_455
Cr0 O10 2.003353 1_455
Cr0 O12 2.003353 1_455
Cr0 O0 2.012778 1_555
Cr0 O14 2.090919 1_555
Cr0 O8 2.090919 1_555
Cr1 O5 1.991897 1_455
Cr1 O13 2.003353 1_455
Cr1 O11 2.003353 1_455
Cr1 O1 2.012778 1_555
Cr1 O15 2.090919 1_555
Cr1 O9 2.090919 1_555
Cr2 O6 1.991897 1_655
Cr2 O14 2.003353 1_645
Cr2 O8 2.003353 1_655
Cr2 O2 2.012778 1_555
Cr2 O12 2.090919 1_555
Cr2 O10 2.090919 1_545
Cr3 O7 1.991897 1_655
Cr3 O15 2.003353 1_655
Cr3 O9 2.003353 1_645
Cr3 O3 2.012778 1_555
Cr3 O11 2.090919 1_555
Cr3 O13 2.090919 1_545
Cr4 O2 1.978652 1_555
Cr4 O0 1.978652 1_555
Cr4 O4 2.038121 1_555
Cr4 O6 2.038121 1_555
Cr4 O8 2.043422 1_555
Cr4 O12 2.043422 1_555
Cr5 O1 1.978652 1_555
Cr5 O3 1.978652 1_565
Cr5 O5 2.038121 1_555
Cr5 O7 2.038121 1_565
Cr5 O13 2.043422 1_555
Cr5 O9 2.043422 1_555
Cr6 O2 1.978652 1_565
Cr6 O0 1.978652 1_555
Cr6 O4 2.038121 1_555
Cr6 O6 2.038121 1_565
Cr6 O14 2.043422 1_555
Cr6 O10 2.043422 1_555
Cr7 O1 1.978652 1_555
Cr7 O3 1.978652 1_555
Cr7 O5 2.038121 1_555
Cr7 O7 2.038121 1_555
Cr7 O11 2.043422 1_555
Cr7 O15 2.043422 1_555
O0 Zn1 2.054891 1_555
O1 Zn1 2.054891 1_556
O2 Zn0 2.054891 1_555
O3 Zn0 2.054891 1_555
O4 Zn3 2.077546 1_555
O5 Zn3 2.077546 1_555
O6 Zn2 2.077546 1_555
O7 Zn2 2.077546 1_556
O8 Zn0 2.315693 1_555
O8 Zn3 2.320720 1_455
O9 Zn0 2.315693 1_565
O9 Zn3 2.320720 1_455
O10 Zn1 2.315693 1_555
O10 Zn2 2.320720 1_665
O11 Zn1 2.315693 1_556
O11 Zn2 2.320720 1_656
O12 Zn1 2.315693 1_555
O12 Zn2 2.320720 1_655
O13 Zn1 2.315693 1_556
O13 Zn2 2.320720 1_666
O14 Zn0 2.315693 1_565
O14 Zn3 2.320720 1_455
O15 Zn0 2.315693 1_555
O15 Zn3 2.320720 1_455
