# generated using pymatgen
data_Tm(CuS)3
_symmetry_space_group_name_H-M   'P 1'
_cell_length_a   7.35601346
_cell_length_b   7.35601346
_cell_length_c   7.35601392
_cell_angle_alpha   53.48981389
_cell_angle_beta   53.48981392
_cell_angle_gamma   53.48981423
_symmetry_Int_Tables_number   1
_chemical_formula_structural   Tm(CuS)3
_chemical_formula_sum   'Tm2 Cu6 S6'
_cell_volume   238.58033434
_cell_formula_units_Z   2
loop_
 _symmetry_equiv_pos_site_id
 _symmetry_equiv_pos_as_xyz
  1  'x, y, z'
loop_
 _atom_site_type_symbol
 _atom_site_label
 _atom_site_symmetry_multiplicity
 _atom_site_fract_x
 _atom_site_fract_y
 _atom_site_fract_z
 _atom_site_occupancy
  Tm  Tm0  1  0.83354809  0.83354809  0.83354809  1
  Tm  Tm1  1  0.16645191  0.16645191  0.16645191  1
  Cu  Cu0  1  0.28469158  0.96093270  0.62382901  1
  Cu  Cu1  1  0.62382901  0.28469158  0.96093270  1
  Cu  Cu2  1  0.96093270  0.62382901  0.28469158  1
  Cu  Cu3  1  0.03906730  0.37617099  0.71530842  1
  Cu  Cu4  1  0.37617099  0.71530842  0.03906730  1
  Cu  Cu5  1  0.71530842  0.03906730  0.37617099  1
  S  S0  1  0.08263359  0.75086233  0.41845648  1
  S  S1  1  0.75086233  0.41845648  0.08263359  1
  S  S2  1  0.41845648  0.08263359  0.75086233  1
  S  S3  1  0.58154352  0.91736641  0.24913767  1
  S  S4  1  0.24913767  0.58154352  0.91736641  1
  S  S5  1  0.91736641  0.24913767  0.58154352  1
loop_
_geom_bond_atom_site_label_1
_geom_bond_atom_site_label_2
_geom_bond_distance
_geom_bond_site_symmetry_2
Cu0 S5 2.300293 1_465
Cu0 S3 2.350410 1_555
Cu0 S4 2.354843 1_555
Cu0 S2 2.404295 1_565
Cu1 S3 2.300293 1_546
Cu1 S4 2.350410 1_555
Cu1 S5 2.354843 1_555
Cu1 S1 2.404295 1_556
Cu2 S4 2.300293 1_654
Cu2 S5 2.350410 1_555
Cu2 S3 2.354843 1_555
Cu2 S0 2.404295 1_655
Cu3 S1 2.300293 1_456
Cu3 S0 2.350410 1_555
Cu3 S2 2.354843 1_555
Cu3 S5 2.404295 1_455
Cu4 S2 2.300293 1_564
Cu4 S1 2.350410 1_555
Cu4 S0 2.354843 1_555
Cu4 S4 2.404295 1_554
Cu5 S0 2.300293 1_645
Cu5 S2 2.350410 1_555
Cu5 S1 2.354843 1_555
Cu5 S3 2.404295 1_545
S0 Tm0 2.697602 1_455
S0 Tm1 2.702172 1_565
S1 Tm0 2.697602 1_554
S1 Tm1 2.702172 1_655
S2 Tm0 2.697602 1_545
S2 Tm1 2.702172 1_556
S3 Tm1 2.697602 1_565
S3 Tm0 2.702172 1_554
S4 Tm1 2.697602 1_556
S4 Tm0 2.702172 1_455
S5 Tm1 2.697602 1_655
S5 Tm0 2.702172 1_545
