# generated using pymatgen
data_Ta5Al3C
_symmetry_space_group_name_H-M   'P 1'
_cell_length_a   7.79935203
_cell_length_b   7.79935203
_cell_length_c   5.35320900
_cell_angle_alpha   90.00000000
_cell_angle_beta   90.00000000
_cell_angle_gamma   120.00000026
_symmetry_Int_Tables_number   1
_chemical_formula_structural   Ta5Al3C
_chemical_formula_sum   'Ta10 Al6 C2'
_cell_volume   282.00829059
_cell_formula_units_Z   2
loop_
 _symmetry_equiv_pos_site_id
 _symmetry_equiv_pos_as_xyz
  1  'x, y, z'
loop_
 _atom_site_type_symbol
 _atom_site_label
 _atom_site_symmetry_multiplicity
 _atom_site_fract_x
 _atom_site_fract_y
 _atom_site_fract_z
 _atom_site_occupancy
  Ta  Ta0  1  0.23165800  0.00000000  0.25000000  1
  Ta  Ta1  1  0.76834200  0.00000000  0.75000000  1
  Ta  Ta2  1  0.00000000  0.23165800  0.25000000  1
  Ta  Ta3  1  0.00000000  0.76834200  0.75000000  1
  Ta  Ta4  1  0.76834200  0.76834200  0.25000000  1
  Ta  Ta5  1  0.23165800  0.23165800  0.75000000  1
  Ta  Ta6  1  0.33333300  0.66666700  0.00000000  1
  Ta  Ta7  1  0.66666700  0.33333300  0.00000000  1
  Ta  Ta8  1  0.66666700  0.33333300  0.50000000  1
  Ta  Ta9  1  0.33333300  0.66666700  0.50000000  1
  Al  Al0  1  0.59197700  0.00000000  0.25000000  1
  Al  Al1  1  0.40802300  0.00000000  0.75000000  1
  Al  Al2  1  0.00000000  0.59197700  0.25000000  1
  Al  Al3  1  0.00000000  0.40802300  0.75000000  1
  Al  Al4  1  0.40802300  0.40802300  0.25000000  1
  Al  Al5  1  0.59197700  0.59197700  0.75000000  1
  C  C0  1  0.00000000  0.00000000  0.00000000  1
  C  C1  1  0.00000000  0.00000000  0.50000000  1
loop_
_geom_bond_atom_site_label_1
_geom_bond_atom_site_label_2
_geom_bond_distance
_geom_bond_site_symmetry_2
Ta6 Ta9 2.676604 1_555
Ta6 Ta9 2.676604 1_554
Ta7 Ta8 2.676604 1_554
Ta7 Ta8 2.676604 1_555
Al0 Ta7 2.715659 1_555
Al0 Ta8 2.715659 1_555
Al0 Ta9 2.715661 1_545
Al0 Ta6 2.715661 1_545
Al0 Ta2 2.764388 1_655
Al0 Ta4 2.764388 1_545
Al0 Ta0 2.810255 1_555
Al0 Ta1 3.009369 1_554
Al0 Ta1 3.009369 1_555
Al1 Ta9 2.715659 1_545
Al1 Ta6 2.715659 1_546
Al1 Ta8 2.715661 1_555
Al1 Ta7 2.715661 1_556
Al1 Ta3 2.764388 1_545
Al1 Ta5 2.764388 1_555
Al1 Ta1 2.810255 1_555
Al1 Ta0 3.009369 1_556
Al1 Ta0 3.009369 1_555
Al2 Ta6 2.715659 1_555
Al2 Ta9 2.715659 1_555
Al2 Ta8 2.715661 1_455
Al2 Ta7 2.715661 1_455
Al2 Ta0 2.764388 1_565
Al2 Ta4 2.764388 1_455
Al2 Ta2 2.810255 1_555
Al2 Ta3 3.009369 1_555
Al2 Ta3 3.009369 1_554
Al3 Ta8 2.715659 1_455
Al3 Ta7 2.715659 1_456
Al3 Ta9 2.715661 1_555
Al3 Ta6 2.715661 1_556
Al3 Ta1 2.764388 1_455
Al3 Ta5 2.764388 1_555
Al3 Ta3 2.810255 1_555
Al3 Ta2 3.009369 1_555
Al3 Ta2 3.009369 1_556
Al4 Ta8 2.715665 1_555
Al4 Ta9 2.715665 1_555
Al4 Ta6 2.715665 1_555
Al4 Ta7 2.715665 1_555
Al4 Ta2 2.764388 1_555
Al4 Ta0 2.764388 1_555
Al4 Ta4 2.810255 1_555
Al4 Ta5 3.009369 1_555
Al4 Ta5 3.009369 1_554
Al5 Ta8 2.715665 1_555
Al5 Ta9 2.715665 1_555
Al5 Ta6 2.715665 1_556
Al5 Ta7 2.715665 1_556
Al5 Ta3 2.764388 1_655
Al5 Ta1 2.764388 1_565
Al5 Ta5 2.810255 1_555
Al5 Ta4 3.009369 1_555
Al5 Ta4 3.009369 1_556
C0 Ta5 2.248447 1_554
C0 Ta4 2.248447 1_445
C0 Ta2 2.248447 1_555
C0 Ta0 2.248447 1_555
C0 Ta1 2.248447 1_454
C0 Ta3 2.248447 1_544
C1 Ta4 2.248447 1_445
C1 Ta5 2.248447 1_555
C1 Ta2 2.248447 1_555
C1 Ta3 2.248447 1_545
C1 Ta0 2.248447 1_555
C1 Ta1 2.248447 1_455
