# generated using pymatgen
data_Pd2(RhS)15
_symmetry_space_group_name_H-M   'P 1'
_cell_length_a   10.06942058
_cell_length_b   10.06942058
_cell_length_c   10.06942058
_cell_angle_alpha   90.00000000
_cell_angle_beta   90.00000000
_cell_angle_gamma   90.00000000
_symmetry_Int_Tables_number   1
_chemical_formula_structural   Pd2(RhS)15
_chemical_formula_sum   'Pd4 Rh30 S30'
_cell_volume   1020.97108506
_cell_formula_units_Z   2
loop_
 _symmetry_equiv_pos_site_id
 _symmetry_equiv_pos_as_xyz
  1  'x, y, z'
loop_
 _atom_site_type_symbol
 _atom_site_label
 _atom_site_symmetry_multiplicity
 _atom_site_fract_x
 _atom_site_fract_y
 _atom_site_fract_z
 _atom_site_occupancy
  Pd  Pd0  1  0.50000000  0.00000000  0.00000000  1
  Pd  Pd1  1  0.00000000  0.00000000  0.50000000  1
  Pd  Pd2  1  -0.00000000  0.50000000  0.00000000  1
  Pd  Pd3  1  0.50000000  0.50000000  0.50000000  1
  Rh  Rh0  1  0.14288393  0.35623165  0.64376835  1
  Rh  Rh1  1  0.35623165  0.35623165  0.85711607  1
  Rh  Rh2  1  0.35623165  0.14288393  0.64376835  1
  Rh  Rh3  1  0.14288393  0.64376835  0.35623165  1
  Rh  Rh4  1  0.35623165  0.64376835  0.14288393  1
  Rh  Rh5  1  0.35623165  0.85711607  0.35623165  1
  Rh  Rh6  1  0.85711607  0.35623165  0.35623165  1
  Rh  Rh7  1  0.64376835  0.35623165  0.14288393  1
  Rh  Rh8  1  0.64376835  0.14288393  0.35623165  1
  Rh  Rh9  1  0.85711607  0.64376835  0.64376835  1
  Rh  Rh10  1  0.64376835  0.64376835  0.85711607  1
  Rh  Rh11  1  0.64376835  0.85711607  0.64376835  1
  Rh  Rh12  1  0.85711607  0.64376835  0.35623165  1
  Rh  Rh13  1  0.64376835  0.64376835  0.14288393  1
  Rh  Rh14  1  0.64376835  0.85711607  0.35623165  1
  Rh  Rh15  1  0.85711607  0.35623165  0.64376835  1
  Rh  Rh16  1  0.64376835  0.35623165  0.85711607  1
  Rh  Rh17  1  0.64376835  0.14288393  0.64376835  1
  Rh  Rh18  1  0.14288393  0.64376835  0.64376835  1
  Rh  Rh19  1  0.35623165  0.64376835  0.85711607  1
  Rh  Rh20  1  0.35623165  0.85711607  0.64376835  1
  Rh  Rh21  1  0.14288393  0.35623165  0.35623165  1
  Rh  Rh22  1  0.35623165  0.35623165  0.14288393  1
  Rh  Rh23  1  0.35623165  0.14288393  0.35623165  1
  Rh  Rh24  1  0.23754632  0.00000000  0.00000000  1
  Rh  Rh25  1  -0.00000000  0.00000000  0.76245368  1
  Rh  Rh26  1  -0.00000000  0.23754632  0.00000000  1
  Rh  Rh27  1  0.00000000  0.00000000  0.23754632  1
  Rh  Rh28  1  0.00000000  0.76245368  0.00000000  1
  Rh  Rh29  1  0.76245368  0.00000000  0.00000000  1
  S  S0  1  0.50000000  0.17310888  0.82689112  1
  S  S1  1  0.17310888  0.17310888  0.50000000  1
  S  S2  1  0.17310888  0.50000000  0.82689112  1
  S  S3  1  0.50000000  0.82689112  0.17310888  1
  S  S4  1  0.17310888  0.82689112  0.50000000  1
  S  S5  1  0.17310888  0.50000000  0.17310888  1
  S  S6  1  0.50000000  0.17310888  0.17310888  1
  S  S7  1  0.82689112  0.17310888  0.50000000  1
  S  S8  1  0.82689112  0.50000000  0.17310888  1
  S  S9  1  0.50000000  0.82689112  0.82689112  1
  S  S10  1  0.82689112  0.82689112  0.50000000  1
  S  S11  1  0.82689112  0.50000000  0.82689112  1
  S  S12  1  0.00000000  0.22936215  0.77063785  1
  S  S13  1  0.22936215  0.22936215  0.00000000  1
  S  S14  1  0.22936215  0.00000000  0.77063785  1
  S  S15  1  -0.00000000  0.77063785  0.22936215  1
  S  S16  1  0.22936215  0.77063785  0.00000000  1
  S  S17  1  0.22936215  0.00000000  0.22936215  1
  S  S18  1  0.00000000  0.22936215  0.22936215  1
  S  S19  1  0.77063785  0.22936215  0.00000000  1
  S  S20  1  0.77063785  0.00000000  0.22936215  1
  S  S21  1  -0.00000000  0.77063785  0.77063785  1
  S  S22  1  0.77063785  0.77063785  0.00000000  1
  S  S23  1  0.77063785  0.00000000  0.77063785  1
  S  S24  1  0.25824510  0.50000000  0.50000000  1
  S  S25  1  0.50000000  0.50000000  0.74175490  1
  S  S26  1  0.50000000  0.25824510  0.50000000  1
  S  S27  1  0.50000000  0.50000000  0.25824510  1
  S  S28  1  0.50000000  0.74175490  0.50000000  1
  S  S29  1  0.74175490  0.50000000  0.50000000  1
loop_
_geom_bond_atom_site_label_1
_geom_bond_atom_site_label_2
_geom_bond_distance
_geom_bond_site_symmetry_2
Pd0 S6 2.465124 1_555
Pd0 S0 2.465124 1_554
Pd0 S3 2.465124 1_545
Pd0 S9 2.465124 1_544
Pd0 Rh29 2.642756 1_555
Pd0 Rh24 2.642756 1_555
Pd1 S1 2.465124 1_555
Pd1 S4 2.465124 1_545
Pd1 S7 2.465124 1_455
Pd1 S10 2.465124 1_445
Pd1 Rh25 2.642756 1_555
Pd1 Rh27 2.642756 1_555
Pd2 S5 2.465124 1_555
Pd2 S8 2.465124 1_455
Pd2 S2 2.465124 1_554
Pd2 S11 2.465124 1_454
Pd2 Rh26 2.642756 1_555
Pd2 Rh28 2.642756 1_555
Pd3 S26 2.434332 1_555
Pd3 S28 2.434332 1_555
Pd3 S25 2.434332 1_555
Pd3 S29 2.434332 1_555
Pd3 S24 2.434332 1_555
Pd3 S27 2.434332 1_555
Rh0 S12 2.309556 1_555
Rh0 S24 2.353895 1_555
Rh0 S2 2.363995 1_555
Rh0 S1 2.363995 1_555
Rh1 S13 2.309556 1_556
Rh1 S25 2.353895 1_555
Rh1 S2 2.363995 1_555
Rh1 S0 2.363995 1_555
Rh2 S14 2.309556 1_555
Rh2 S26 2.353895 1_555
Rh2 S0 2.363995 1_555
Rh2 S1 2.363995 1_555
Rh3 S15 2.309556 1_555
Rh3 S24 2.353895 1_555
Rh3 S4 2.363995 1_555
Rh3 S5 2.363995 1_555
Rh4 S16 2.309556 1_555
Rh4 S27 2.353895 1_555
Rh4 S5 2.363995 1_555
Rh4 S3 2.363995 1_555
Rh5 S17 2.309556 1_565
Rh5 S28 2.353895 1_555
Rh5 S4 2.363995 1_555
Rh5 S3 2.363995 1_555
Rh6 S18 2.309556 1_655
Rh6 S29 2.353895 1_555
Rh6 S7 2.363995 1_555
Rh6 S8 2.363995 1_555
Rh7 S19 2.309556 1_555
Rh7 S27 2.353895 1_555
Rh7 S8 2.363995 1_555
Rh7 S6 2.363995 1_555
Rh8 S20 2.309556 1_555
Rh8 S26 2.353895 1_555
Rh8 S7 2.363995 1_555
Rh8 S6 2.363995 1_555
Rh9 S21 2.309556 1_655
Rh9 S29 2.353895 1_555
Rh9 S10 2.363995 1_555
Rh9 S11 2.363995 1_555
Rh10 S22 2.309556 1_556
Rh10 S25 2.353895 1_555
Rh10 S11 2.363995 1_555
Rh10 S9 2.363995 1_555
Rh11 S23 2.309556 1_565
Rh11 S28 2.353895 1_555
Rh11 S9 2.363995 1_555
Rh11 S10 2.363995 1_555
Rh12 S15 2.309556 1_655
Rh12 S29 2.353895 1_555
Rh12 S10 2.363995 1_555
Rh12 S8 2.363995 1_555
Rh13 S22 2.309556 1_555
Rh13 S27 2.353895 1_555
Rh13 S3 2.363995 1_555
Rh13 S8 2.363995 1_555
Rh14 S20 2.309556 1_565
Rh14 S28 2.353895 1_555
Rh14 S10 2.363995 1_555
Rh14 S3 2.363995 1_555
Rh15 S12 2.309556 1_655
Rh15 S29 2.353895 1_555
Rh15 S11 2.363995 1_555
Rh15 S7 2.363995 1_555
Rh16 S19 2.309556 1_556
Rh16 S25 2.353895 1_555
Rh16 S11 2.363995 1_555
Rh16 S0 2.363995 1_555
Rh17 S23 2.309556 1_555
Rh17 S26 2.353895 1_555
Rh17 S7 2.363995 1_555
Rh17 S0 2.363995 1_555
Rh18 S21 2.309556 1_555
Rh18 S24 2.353895 1_555
Rh18 S4 2.363995 1_555
Rh18 S2 2.363995 1_555
Rh19 S16 2.309556 1_556
Rh19 S25 2.353895 1_555
Rh19 S9 2.363995 1_555
Rh19 S2 2.363995 1_555
Rh20 S14 2.309556 1_565
Rh20 S28 2.353895 1_555
Rh20 S9 2.363995 1_555
Rh20 S4 2.363995 1_555
Rh21 S18 2.309556 1_555
Rh21 S24 2.353895 1_555
Rh21 S5 2.363995 1_555
Rh21 S1 2.363995 1_555
Rh22 S13 2.309556 1_555
Rh22 S27 2.353895 1_555
Rh22 S6 2.363995 1_555
Rh22 S5 2.363995 1_555
Rh23 S17 2.309556 1_555
Rh23 S26 2.353895 1_555
Rh23 S6 2.363995 1_555
Rh23 S1 2.363995 1_555
Rh24 S17 2.311014 1_555
Rh24 S13 2.311014 1_555
Rh24 S14 2.311014 1_554
Rh24 S16 2.311014 1_545
Rh25 S12 2.311014 1_555
Rh25 S14 2.311014 1_555
Rh25 S21 2.311014 1_545
Rh25 S23 2.311014 1_455
Rh26 S18 2.311014 1_555
Rh26 S13 2.311014 1_555
Rh26 S19 2.311014 1_455
Rh26 S12 2.311014 1_554
Rh27 S17 2.311014 1_555
Rh27 S18 2.311014 1_555
Rh27 S20 2.311014 1_455
Rh27 S15 2.311014 1_545
Rh28 S15 2.311014 1_555
Rh28 S16 2.311014 1_555
Rh28 S22 2.311014 1_455
Rh28 S21 2.311014 1_554
Rh29 S19 2.311014 1_555
Rh29 S20 2.311014 1_555
Rh29 S23 2.311014 1_554
Rh29 S22 2.311014 1_545
