# generated using pymatgen
data_NaMg6Ga
_symmetry_space_group_name_H-M   'P 1'
_cell_length_a   5.11094300
_cell_length_b   6.37553700
_cell_length_c   11.18444700
_cell_angle_alpha   90.00000000
_cell_angle_beta   90.00000000
_cell_angle_gamma   90.00000000
_symmetry_Int_Tables_number   1
_chemical_formula_structural   NaMg6Ga
_chemical_formula_sum   'Na2 Mg12 Ga2'
_cell_volume   364.44527485
_cell_formula_units_Z   2
loop_
 _symmetry_equiv_pos_site_id
 _symmetry_equiv_pos_as_xyz
  1  'x, y, z'
loop_
 _atom_site_type_symbol
 _atom_site_label
 _atom_site_symmetry_multiplicity
 _atom_site_fract_x
 _atom_site_fract_y
 _atom_site_fract_z
 _atom_site_occupancy
  Na  Na0  1  0.50000000  0.00000000  0.16694200  1
  Na  Na1  1  0.50000000  0.50000000  0.66694200  1
  Mg  Mg0  1  0.50000000  0.24836400  0.41664000  1
  Mg  Mg1  1  0.50000000  0.75163600  0.41664000  1
  Mg  Mg2  1  0.00000000  0.74494000  0.08378700  1
  Mg  Mg3  1  0.00000000  0.25506000  0.08378700  1
  Mg  Mg4  1  0.00000000  0.00000000  0.33521800  1
  Mg  Mg5  1  0.00000000  0.50000000  0.33191000  1
  Mg  Mg6  1  0.50000000  0.74836400  0.91664000  1
  Mg  Mg7  1  0.50000000  0.25163600  0.91664000  1
  Mg  Mg8  1  0.00000000  0.24494000  0.58378700  1
  Mg  Mg9  1  0.00000000  0.75506000  0.58378700  1
  Mg  Mg10  1  0.00000000  0.50000000  0.83521800  1
  Mg  Mg11  1  0.00000000  0.00000000  0.83191000  1
  Ga  Ga0  1  0.50000000  0.50000000  0.16507200  1
  Ga  Ga1  1  0.50000000  0.00000000  0.66507200  1
loop_
_geom_bond_atom_site_label_1
_geom_bond_atom_site_label_2
_geom_bond_distance
_geom_bond_site_symmetry_2
Mg0 Mg4 3.141188 1_555
Mg0 Mg4 3.141188 1_655
Mg0 Mg5 3.162644 1_555
Mg0 Mg5 3.162644 1_655
Mg0 Mg8 3.166345 1_655
Mg0 Mg8 3.166345 1_555
Mg0 Mg1 3.166908 1_545
Mg0 Mg1 3.208629 1_555
Mg0 Na0 3.210403 1_555
Mg0 Na1 3.226603 1_555
Mg1 Mg4 3.141188 1_565
Mg1 Mg4 3.141188 1_665
Mg1 Mg5 3.162644 1_555
Mg1 Mg5 3.162644 1_655
Mg1 Mg9 3.166345 1_655
Mg1 Mg9 3.166345 1_555
Mg1 Na0 3.210403 1_565
Mg1 Na1 3.226603 1_555
Mg2 Mg3 3.123248 1_555
Mg2 Mg6 3.166345 1_454
Mg2 Mg6 3.166345 1_554
Mg2 Na0 3.168558 1_565
Mg2 Na0 3.168558 1_465
Mg2 Mg5 3.184329 1_555
Mg2 Mg4 3.248437 1_565
Mg2 Mg3 3.252289 1_565
Mg3 Mg7 3.166345 1_554
Mg3 Mg7 3.166345 1_454
Mg3 Na0 3.168558 1_455
Mg3 Na0 3.168558 1_555
Mg3 Mg5 3.184329 1_555
Mg3 Mg4 3.248437 1_555
Mg4 Na0 3.173742 1_455
Mg4 Na0 3.173742 1_555
Mg4 Mg5 3.187983 1_545
Mg4 Mg5 3.187983 1_555
Mg4 Mg9 3.188677 1_545
Mg4 Mg8 3.188677 1_555
Mg5 Mg9 3.252757 1_555
Mg5 Mg8 3.252757 1_555
Mg6 Mg7 3.166908 1_555
Mg6 Mg7 3.208629 1_565
Mg6 Na1 3.210403 1_555
Mg6 Na0 3.226603 1_566
Mg7 Na1 3.210403 1_555
Mg7 Na0 3.226603 1_556
Mg8 Mg9 3.123248 1_545
Mg8 Na1 3.168558 1_555
Mg8 Na1 3.168558 1_455
Mg8 Mg9 3.252289 1_555
Mg9 Na1 3.168558 1_555
Mg9 Na1 3.168558 1_455
Mg10 Mg7 3.141188 1_555
Mg10 Mg7 3.141188 1_455
Mg10 Mg6 3.141188 1_455
Mg10 Mg6 3.141188 1_555
Mg10 Na1 3.173742 1_455
Mg10 Na1 3.173742 1_555
Mg10 Mg11 3.187983 1_565
Mg10 Mg11 3.187983 1_555
Mg10 Mg3 3.188677 1_556
Mg10 Mg2 3.188677 1_556
Mg10 Mg9 3.248437 1_555
Mg10 Mg8 3.248437 1_555
Mg11 Mg7 3.162644 1_555
Mg11 Mg6 3.162644 1_445
Mg11 Mg7 3.162644 1_455
Mg11 Mg6 3.162644 1_545
Mg11 Mg8 3.184329 1_555
Mg11 Mg9 3.184329 1_545
Mg11 Mg3 3.252757 1_556
Mg11 Mg2 3.252757 1_546
Ga0 Mg2 3.129795 1_655
Ga0 Mg3 3.129795 1_555
Ga0 Mg2 3.129795 1_555
Ga0 Mg3 3.129795 1_655
Ga0 Mg5 3.164231 1_655
Ga0 Mg5 3.164231 1_555
Ga0 Na0 3.187837 1_555
Ga0 Na0 3.187837 1_565
Ga0 Mg6 3.198094 1_554
Ga0 Mg7 3.198094 1_554
Ga0 Mg0 3.238896 1_555
Ga0 Mg1 3.238896 1_555
Ga1 Mg8 3.129795 1_555
Ga1 Mg8 3.129795 1_655
Ga1 Mg9 3.129795 1_645
Ga1 Mg9 3.129795 1_545
Ga1 Mg11 3.164231 1_655
Ga1 Mg11 3.164231 1_555
Ga1 Na1 3.187837 1_545
Ga1 Na1 3.187837 1_555
Ga1 Mg1 3.198094 1_545
Ga1 Mg0 3.198094 1_555
Ga1 Mg6 3.238896 1_545
Ga1 Mg7 3.238896 1_555
