# generated using pymatgen
data_Mg2FeBO5
_symmetry_space_group_name_H-M   'P 1'
_cell_length_a   3.04330100
_cell_length_b   9.37323900
_cell_length_c   12.42583400
_cell_angle_alpha   90.00000000
_cell_angle_beta   90.00000000
_cell_angle_gamma   90.00000000
_symmetry_Int_Tables_number   1
_chemical_formula_structural   Mg2FeBO5
_chemical_formula_sum   'Mg8 Fe4 B4 O20'
_cell_volume   354.45421654
_cell_formula_units_Z   4
loop_
 _symmetry_equiv_pos_site_id
 _symmetry_equiv_pos_as_xyz
  1  'x, y, z'
loop_
 _atom_site_type_symbol
 _atom_site_label
 _atom_site_symmetry_multiplicity
 _atom_site_fract_x
 _atom_site_fract_y
 _atom_site_fract_z
 _atom_site_occupancy
  Mg  Mg0  1  0.50000000  0.00000000  0.50000000  1
  Mg  Mg1  1  0.50000000  0.50000000  0.00000000  1
  Mg  Mg2  1  0.50000000  0.00080500  0.21830200  1
  Mg  Mg3  1  0.50000000  0.99919500  0.78169800  1
  Mg  Mg4  1  0.50000000  0.49919500  0.71830200  1
  Mg  Mg5  1  0.50000000  0.50080500  0.28169800  1
  Mg  Mg6  1  0.00000000  0.00000000  0.00000000  1
  Mg  Mg7  1  0.00000000  0.50000000  0.50000000  1
  Fe  Fe0  1  0.00000000  0.23932700  0.38443400  1
  Fe  Fe1  1  0.00000000  0.76067300  0.61556600  1
  Fe  Fe2  1  0.00000000  0.26067300  0.88443400  1
  Fe  Fe3  1  0.00000000  0.73932700  0.11556600  1
  B  B0  1  0.00000000  0.27201300  0.13986700  1
  B  B1  1  0.00000000  0.72798700  0.86013300  1
  B  B2  1  0.00000000  0.22798700  0.63986700  1
  B  B3  1  0.00000000  0.77201300  0.36013300  1
  O  O0  1  0.00000000  0.34907600  0.23661500  1
  O  O1  1  0.00000000  0.65092400  0.76338500  1
  O  O2  1  0.00000000  0.15092400  0.73661500  1
  O  O3  1  0.00000000  0.84907600  0.26338500  1
  O  O4  1  0.50000000  0.10755800  0.35675400  1
  O  O5  1  0.50000000  0.89244200  0.64324600  1
  O  O6  1  0.50000000  0.39244200  0.85675400  1
  O  O7  1  0.50000000  0.60755800  0.14324600  1
  O  O8  1  0.00000000  0.12455500  0.14206500  1
  O  O9  1  0.00000000  0.87544500  0.85793500  1
  O  O10  1  0.00000000  0.37544500  0.64206500  1
  O  O11  1  0.00000000  0.62455500  0.35793500  1
  O  O12  1  0.00000000  0.34946600  0.04340800  1
  O  O13  1  0.00000000  0.65053400  0.95659200  1
  O  O14  1  0.00000000  0.15053400  0.54340800  1
  O  O15  1  0.00000000  0.84946600  0.45659200  1
  O  O16  1  0.50000000  0.38248800  0.42356900  1
  O  O17  1  0.50000000  0.61751200  0.57643100  1
  O  O18  1  0.50000000  0.11751200  0.92356900  1
  O  O19  1  0.50000000  0.88248800  0.07643100  1
loop_
_geom_bond_atom_site_label_1
_geom_bond_atom_site_label_2
_geom_bond_distance
_geom_bond_site_symmetry_2
Mg0 O4 2.045636 1_555
Mg0 O5 2.045636 1_545
Mg0 O15 2.144119 1_545
Mg0 O15 2.144119 1_645
Mg0 O14 2.144119 1_655
Mg0 O14 2.144119 1_555
Mg1 O6 2.045636 1_554
Mg1 O7 2.045636 1_555
Mg1 O13 2.144119 1_554
Mg1 O13 2.144119 1_654
Mg1 O12 2.144119 1_655
Mg1 O12 2.144119 1_555
Mg2 O4 1.990215 1_555
Mg2 O19 2.082692 1_545
Mg2 O8 2.135011 1_555
Mg2 O8 2.135011 1_655
Mg2 O3 2.156819 1_545
Mg2 O3 2.156819 1_645
Mg3 O5 1.990215 1_555
Mg3 O18 2.082692 1_565
Mg3 O9 2.135011 1_555
Mg3 O9 2.135011 1_655
Mg3 O2 2.156819 1_565
Mg3 O2 2.156819 1_665
Mg4 O6 1.990215 1_555
Mg4 O17 2.082692 1_555
Mg4 O10 2.135011 1_555
Mg4 O10 2.135011 1_655
Mg4 O1 2.156819 1_655
Mg4 O1 2.156819 1_555
Mg5 O7 1.990215 1_555
Mg5 O16 2.082692 1_555
Mg5 O11 2.135011 1_555
Mg5 O11 2.135011 1_655
Mg5 O0 2.156819 1_555
Mg5 O0 2.156819 1_655
Mg6 O19 2.104903 1_445
Mg6 O19 2.104903 1_545
Mg6 O18 2.104903 1_554
Mg6 O18 2.104903 1_454
Mg6 O8 2.116416 1_555
Mg6 O9 2.116416 1_544
Mg7 O17 2.104903 1_455
Mg7 O17 2.104903 1_555
Mg7 O16 2.104903 1_455
Mg7 O16 2.104903 1_555
Mg7 O11 2.116416 1_555
Mg7 O10 2.116416 1_555
Fe0 O4 1.989773 1_555
Fe0 O4 1.989773 1_455
Fe0 O16 2.086275 1_455
Fe0 O16 2.086275 1_555
Fe0 O0 2.105225 1_555
Fe0 O14 2.143556 1_555
Fe1 O5 1.989773 1_455
Fe1 O5 1.989773 1_555
Fe1 O17 2.086275 1_455
Fe1 O17 2.086275 1_555
Fe1 O1 2.105225 1_555
Fe1 O15 2.143556 1_555
Fe2 O6 1.989773 1_455
Fe2 O6 1.989773 1_555
Fe2 O18 2.086275 1_455
Fe2 O18 2.086275 1_555
Fe2 O2 2.105225 1_555
Fe2 O12 2.143556 1_556
Fe3 O7 1.989773 1_555
Fe3 O7 1.989773 1_455
Fe3 O19 2.086275 1_555
Fe3 O19 2.086275 1_455
Fe3 O3 2.105225 1_555
Fe3 O13 2.143556 1_554
B0 O8 1.382429 1_555
B0 O12 1.401306 1_555
B0 O0 1.402492 1_555
B1 O9 1.382429 1_555
B1 O13 1.401306 1_555
B1 O1 1.402492 1_555
B2 O10 1.382429 1_555
B2 O14 1.401306 1_555
B2 O2 1.402492 1_555
B3 O11 1.382429 1_555
B3 O15 1.401306 1_555
B3 O3 1.402492 1_555
