# generated using pymatgen
data_Ca3Al2O6
_symmetry_space_group_name_H-M   'P 1'
_cell_length_a   15.40889798
_cell_length_b   15.40889798
_cell_length_c   15.40889798
_cell_angle_alpha   90.00000000
_cell_angle_beta   90.00000000
_cell_angle_gamma   90.00000000
_symmetry_Int_Tables_number   1
_chemical_formula_structural   Ca3Al2O6
_chemical_formula_sum   'Ca72 Al48 O144'
_cell_volume   3658.59839336
_cell_formula_units_Z   24
loop_
 _symmetry_equiv_pos_site_id
 _symmetry_equiv_pos_as_xyz
  1  'x, y, z'
loop_
 _atom_site_type_symbol
 _atom_site_label
 _atom_site_symmetry_multiplicity
 _atom_site_fract_x
 _atom_site_fract_y
 _atom_site_fract_z
 _atom_site_occupancy
  O  O0  1  0.28449781  0.12307133  0.01128984  1
  O  O1  1  0.01128984  0.28449781  0.12307133  1
  O  O2  1  0.12307133  0.01128984  0.28449781  1
  O  O3  1  0.37692867  0.98871016  0.78449781  1
  O  O4  1  0.51128984  0.21550219  0.87692867  1
  O  O5  1  0.87692867  0.51128984  0.21550219  1
  O  O6  1  0.48871016  0.71550219  0.62307133  1
  O  O7  1  0.98871016  0.78449781  0.37692867  1
  O  O8  1  0.62307133  0.48871016  0.71550219  1
  O  O9  1  0.78449781  0.37692867  0.98871016  1
  O  O10  1  0.71550219  0.62307133  0.48871016  1
  O  O11  1  0.21550219  0.87692867  0.51128984  1
  O  O12  1  0.71550219  0.87692867  0.98871016  1
  O  O13  1  0.98871016  0.71550219  0.87692867  1
  O  O14  1  0.87692867  0.98871016  0.71550219  1
  O  O15  1  0.62307133  0.01128984  0.21550219  1
  O  O16  1  0.48871016  0.78449781  0.12307133  1
  O  O17  1  0.12307133  0.48871016  0.78449781  1
  O  O18  1  0.51128984  0.28449781  0.37692867  1
  O  O19  1  0.01128984  0.21550219  0.62307133  1
  O  O20  1  0.37692867  0.51128984  0.28449781  1
  O  O21  1  0.21550219  0.62307133  0.01128984  1
  O  O22  1  0.28449781  0.37692867  0.51128984  1
  O  O23  1  0.78449781  0.12307133  0.48871016  1
  O  O24  1  0.48256441  0.13104192  0.26057531  1
  O  O25  1  0.26057531  0.48256441  0.13104192  1
  O  O26  1  0.13104192  0.26057531  0.48256441  1
  O  O27  1  0.36895808  0.73942469  0.98256441  1
  O  O28  1  0.76057531  0.01743559  0.86895808  1
  O  O29  1  0.86895808  0.76057531  0.01743559  1
  O  O30  1  0.23942469  0.51743559  0.63104192  1
  O  O31  1  0.73942469  0.98256441  0.36895808  1
  O  O32  1  0.63104192  0.23942469  0.51743559  1
  O  O33  1  0.98256441  0.36895808  0.73942469  1
  O  O34  1  0.51743559  0.63104192  0.23942469  1
  O  O35  1  0.01743559  0.86895808  0.76057531  1
  O  O36  1  0.51743559  0.86895808  0.73942469  1
  O  O37  1  0.73942469  0.51743559  0.86895808  1
  O  O38  1  0.86895808  0.73942469  0.51743559  1
  O  O39  1  0.63104192  0.26057531  0.01743559  1
  O  O40  1  0.23942469  0.98256441  0.13104192  1
  O  O41  1  0.13104192  0.23942469  0.98256441  1
  O  O42  1  0.76057531  0.48256441  0.36895808  1
  O  O43  1  0.26057531  0.01743559  0.63104192  1
  O  O44  1  0.36895808  0.76057531  0.48256441  1
  O  O45  1  0.01743559  0.63104192  0.26057531  1
  O  O46  1  0.48256441  0.36895808  0.76057531  1
  O  O47  1  0.98256441  0.13104192  0.23942469  1
  O  O48  1  0.26360475  0.28313412  0.10430958  1
  O  O49  1  0.10430958  0.26360475  0.28313412  1
  O  O50  1  0.28313412  0.10430958  0.26360475  1
  O  O51  1  0.21686588  0.89569042  0.76360475  1
  O  O52  1  0.60430958  0.23639525  0.71686588  1
  O  O53  1  0.71686588  0.60430958  0.23639525  1
  O  O54  1  0.39569042  0.73639525  0.78313412  1
  O  O55  1  0.89569042  0.76360475  0.21686588  1
  O  O56  1  0.78313412  0.39569042  0.73639525  1
  O  O57  1  0.76360475  0.21686588  0.89569042  1
  O  O58  1  0.73639525  0.78313412  0.39569042  1
  O  O59  1  0.23639525  0.71686588  0.60430958  1
  O  O60  1  0.73639525  0.71686588  0.89569042  1
  O  O61  1  0.89569042  0.73639525  0.71686588  1
  O  O62  1  0.71686588  0.89569042  0.73639525  1
  O  O63  1  0.78313412  0.10430958  0.23639525  1
  O  O64  1  0.39569042  0.76360475  0.28313412  1
  O  O65  1  0.28313412  0.39569042  0.76360475  1
  O  O66  1  0.60430958  0.26360475  0.21686588  1
  O  O67  1  0.10430958  0.23639525  0.78313412  1
  O  O68  1  0.21686588  0.60430958  0.26360475  1
  O  O69  1  0.23639525  0.78313412  0.10430958  1
  O  O70  1  0.26360475  0.21686588  0.60430958  1
  O  O71  1  0.76360475  0.28313412  0.39569042  1
  O  O72  1  0.23637015  0.40387942  0.29039012  1
  O  O73  1  0.29039012  0.23637015  0.40387942  1
  O  O74  1  0.40387942  0.29039012  0.23637015  1
  O  O75  1  0.09612058  0.70960988  0.73637015  1
  O  O76  1  0.79039012  0.26362985  0.59612058  1
  O  O77  1  0.59612058  0.79039012  0.26362985  1
  O  O78  1  0.20960988  0.76362985  0.90387942  1
  O  O79  1  0.70960988  0.73637015  0.09612058  1
  O  O80  1  0.90387942  0.20960988  0.76362985  1
  O  O81  1  0.73637015  0.09612058  0.70960988  1
  O  O82  1  0.76362985  0.90387942  0.20960988  1
  O  O83  1  0.26362985  0.59612058  0.79039012  1
  O  O84  1  0.76362985  0.59612058  0.70960988  1
  O  O85  1  0.70960988  0.76362985  0.59612058  1
  O  O86  1  0.59612058  0.70960988  0.76362985  1
  O  O87  1  0.90387942  0.29039012  0.26362985  1
  O  O88  1  0.20960988  0.73637015  0.40387942  1
  O  O89  1  0.40387942  0.20960988  0.73637015  1
  O  O90  1  0.79039012  0.23637015  0.09612058  1
  O  O91  1  0.29039012  0.26362985  0.90387942  1
  O  O92  1  0.09612058  0.79039012  0.23637015  1
  O  O93  1  0.26362985  0.90387942  0.29039012  1
  O  O94  1  0.23637015  0.09612058  0.79039012  1
  O  O95  1  0.73637015  0.40387942  0.20960988  1
  O  O96  1  0.34747143  0.95632552  0.98832744  1
  O  O97  1  0.98832744  0.34747143  0.95632552  1
  O  O98  1  0.95632552  0.98832744  0.34747143  1
  O  O99  1  0.54367448  0.01167256  0.84747143  1
  O  O100  1  0.48832744  0.15252857  0.04367448  1
  O  O101  1  0.04367448  0.48832744  0.15252857  1
  O  O102  1  0.51167256  0.65252857  0.45632552  1
  O  O103  1  0.01167256  0.84747143  0.54367448  1
  O  O104  1  0.45632552  0.51167256  0.65252857  1
  O  O105  1  0.84747143  0.54367448  0.01167256  1
  O  O106  1  0.65252857  0.45632552  0.51167256  1
  O  O107  1  0.15252857  0.04367448  0.48832744  1
  O  O108  1  0.65252857  0.04367448  0.01167256  1
  O  O109  1  0.01167256  0.65252857  0.04367448  1
  O  O110  1  0.04367448  0.01167256  0.65252857  1
  O  O111  1  0.45632552  0.98832744  0.15252857  1
  O  O112  1  0.51167256  0.84747143  0.95632552  1
  O  O113  1  0.95632552  0.51167256  0.84747143  1
  O  O114  1  0.48832744  0.34747143  0.54367448  1
  O  O115  1  0.98832744  0.15252857  0.45632552  1
  O  O116  1  0.54367448  0.48832744  0.34747143  1
  O  O117  1  0.15252857  0.45632552  0.98832744  1
  O  O118  1  0.34747143  0.54367448  0.48832744  1
  O  O119  1  0.84747143  0.95632552  0.51167256  1
  O  O120  1  0.15129828  0.99454475  0.97022333  1
  O  O121  1  0.97022333  0.15129828  0.99454475  1
  O  O122  1  0.99454475  0.97022333  0.15129828  1
  O  O123  1  0.50545525  0.02977667  0.65129828  1
  O  O124  1  0.47022333  0.34870172  0.00545525  1
  O  O125  1  0.00545525  0.47022333  0.34870172  1
  O  O126  1  0.52977667  0.84870172  0.49454475  1
  O  O127  1  0.02977667  0.65129828  0.50545525  1
  O  O128  1  0.49454475  0.52977667  0.84870172  1
  O  O129  1  0.65129828  0.50545525  0.02977667  1
  O  O130  1  0.84870172  0.49454475  0.52977667  1
  O  O131  1  0.34870172  0.00545525  0.47022333  1
  O  O132  1  0.84870172  0.00545525  0.02977667  1
  O  O133  1  0.02977667  0.84870172  0.00545525  1
  O  O134  1  0.00545525  0.02977667  0.84870172  1
  O  O135  1  0.49454475  0.97022333  0.34870172  1
  O  O136  1  0.52977667  0.65129828  0.99454475  1
  O  O137  1  0.99454475  0.52977667  0.65129828  1
  O  O138  1  0.47022333  0.15129828  0.50545525  1
  O  O139  1  0.97022333  0.34870172  0.49454475  1
  O  O140  1  0.50545525  0.47022333  0.15129828  1
  O  O141  1  0.34870172  0.49454475  0.97022333  1
  O  O142  1  0.15129828  0.50545525  0.47022333  1
  O  O143  1  0.65129828  0.99454475  0.52977667  1
  Al  Al0  1  0.25187912  0.01320770  0.01986388  1
  Al  Al1  1  0.01986388  0.25187912  0.01320770  1
  Al  Al2  1  0.01320770  0.01986388  0.25187912  1
  Al  Al3  1  0.48679230  0.98013612  0.75187912  1
  Al  Al4  1  0.51986388  0.24812088  0.98679230  1
  Al  Al5  1  0.98679230  0.51986388  0.24812088  1
  Al  Al6  1  0.48013612  0.74812088  0.51320770  1
  Al  Al7  1  0.98013612  0.75187912  0.48679230  1
  Al  Al8  1  0.51320770  0.48013612  0.74812088  1
  Al  Al9  1  0.75187912  0.48679230  0.98013612  1
  Al  Al10  1  0.74812088  0.51320770  0.48013612  1
  Al  Al11  1  0.24812088  0.98679230  0.51986388  1
  Al  Al12  1  0.74812088  0.98679230  0.98013612  1
  Al  Al13  1  0.98013612  0.74812088  0.98679230  1
  Al  Al14  1  0.98679230  0.98013612  0.74812088  1
  Al  Al15  1  0.51320770  0.01986388  0.24812088  1
  Al  Al16  1  0.48013612  0.75187912  0.01320770  1
  Al  Al17  1  0.01320770  0.48013612  0.75187912  1
  Al  Al18  1  0.51986388  0.25187912  0.48679230  1
  Al  Al19  1  0.01986388  0.24812088  0.51320770  1
  Al  Al20  1  0.48679230  0.51986388  0.25187912  1
  Al  Al21  1  0.24812088  0.51320770  0.01986388  1
  Al  Al22  1  0.25187912  0.48679230  0.51986388  1
  Al  Al23  1  0.75187912  0.01320770  0.48013612  1
  Al  Al24  1  0.24423183  0.23112262  0.00460553  1
  Al  Al25  1  0.00460553  0.24423183  0.23112262  1
  Al  Al26  1  0.23112262  0.00460553  0.24423183  1
  Al  Al27  1  0.26887738  0.99539447  0.74423183  1
  Al  Al28  1  0.50460553  0.25576817  0.76887738  1
  Al  Al29  1  0.76887738  0.50460553  0.25576817  1
  Al  Al30  1  0.49539447  0.75576817  0.73112262  1
  Al  Al31  1  0.99539447  0.74423183  0.26887738  1
  Al  Al32  1  0.73112262  0.49539447  0.75576817  1
  Al  Al33  1  0.74423183  0.26887738  0.99539447  1
  Al  Al34  1  0.75576817  0.73112262  0.49539447  1
  Al  Al35  1  0.25576817  0.76887738  0.50460553  1
  Al  Al36  1  0.75576817  0.76887738  0.99539447  1
  Al  Al37  1  0.99539447  0.75576817  0.76887738  1
  Al  Al38  1  0.76887738  0.99539447  0.75576817  1
  Al  Al39  1  0.73112262  0.00460553  0.25576817  1
  Al  Al40  1  0.49539447  0.74423183  0.23112262  1
  Al  Al41  1  0.23112262  0.49539447  0.74423183  1
  Al  Al42  1  0.50460553  0.24423183  0.26887738  1
  Al  Al43  1  0.00460553  0.25576817  0.73112262  1
  Al  Al44  1  0.26887738  0.50460553  0.24423183  1
  Al  Al45  1  0.25576817  0.73112262  0.00460553  1
  Al  Al46  1  0.24423183  0.26887738  0.50460553  1
  Al  Al47  1  0.74423183  0.23112262  0.49539447  1
  Ca  Ca0  1  0.00000000  0.00000000  0.00000000  1
  Ca  Ca1  1  0.50000000  0.00000000  0.50000000  1
  Ca  Ca2  1  0.50000000  0.50000000  0.00000000  1
  Ca  Ca3  1  0.00000000  0.50000000  0.50000000  1
  Ca  Ca4  1  0.50000000  0.00000000  0.00000000  1
  Ca  Ca5  1  0.00000000  0.50000000  0.00000000  1
  Ca  Ca6  1  0.00000000  0.00000000  0.50000000  1
  Ca  Ca7  1  0.50000000  0.50000000  0.50000000  1
  Ca  Ca8  1  0.25314376  0.25314376  0.25314376  1
  Ca  Ca9  1  0.24685624  0.74685624  0.75314376  1
  Ca  Ca10  1  0.75314376  0.24685624  0.74685624  1
  Ca  Ca11  1  0.74685624  0.75314376  0.24685624  1
  Ca  Ca12  1  0.74685624  0.74685624  0.74685624  1
  Ca  Ca13  1  0.75314376  0.25314376  0.24685624  1
  Ca  Ca14  1  0.24685624  0.75314376  0.25314376  1
  Ca  Ca15  1  0.25314376  0.24685624  0.75314376  1
  Ca  Ca16  1  0.37047253  0.37047253  0.37047253  1
  Ca  Ca17  1  0.12952747  0.62952747  0.87047253  1
  Ca  Ca18  1  0.87047253  0.12952747  0.62952747  1
  Ca  Ca19  1  0.62952747  0.87047253  0.12952747  1
  Ca  Ca20  1  0.62952747  0.62952747  0.62952747  1
  Ca  Ca21  1  0.87047253  0.37047253  0.12952747  1
  Ca  Ca22  1  0.12952747  0.87047253  0.37047253  1
  Ca  Ca23  1  0.37047253  0.12952747  0.87047253  1
  Ca  Ca24  1  0.14070856  0.37992681  0.12499914  1
  Ca  Ca25  1  0.12499914  0.14070856  0.37992681  1
  Ca  Ca26  1  0.37992681  0.12499914  0.14070856  1
  Ca  Ca27  1  0.12007319  0.87500086  0.64070856  1
  Ca  Ca28  1  0.62499914  0.35929144  0.62007319  1
  Ca  Ca29  1  0.62007319  0.62499914  0.35929144  1
  Ca  Ca30  1  0.37500086  0.85929144  0.87992681  1
  Ca  Ca31  1  0.87500086  0.64070856  0.12007319  1
  Ca  Ca32  1  0.87992681  0.37500086  0.85929144  1
  Ca  Ca33  1  0.64070856  0.12007319  0.87500086  1
  Ca  Ca34  1  0.85929144  0.87992681  0.37500086  1
  Ca  Ca35  1  0.35929144  0.62007319  0.62499914  1
  Ca  Ca36  1  0.85929144  0.62007319  0.87500086  1
  Ca  Ca37  1  0.87500086  0.85929144  0.62007319  1
  Ca  Ca38  1  0.62007319  0.87500086  0.85929144  1
  Ca  Ca39  1  0.87992681  0.12499914  0.35929144  1
  Ca  Ca40  1  0.37500086  0.64070856  0.37992681  1
  Ca  Ca41  1  0.37992681  0.37500086  0.64070856  1
  Ca  Ca42  1  0.62499914  0.14070856  0.12007319  1
  Ca  Ca43  1  0.12499914  0.35929144  0.87992681  1
  Ca  Ca44  1  0.12007319  0.62499914  0.14070856  1
  Ca  Ca45  1  0.35929144  0.87992681  0.12499914  1
  Ca  Ca46  1  0.14070856  0.12007319  0.62499914  1
  Ca  Ca47  1  0.64070856  0.37992681  0.37500086  1
  Ca  Ca48  1  0.38040016  0.37871322  0.12058855  1
  Ca  Ca49  1  0.12058855  0.38040016  0.37871322  1
  Ca  Ca50  1  0.37871322  0.12058855  0.38040016  1
  Ca  Ca51  1  0.12128678  0.87941145  0.88040016  1
  Ca  Ca52  1  0.62058855  0.11959984  0.62128678  1
  Ca  Ca53  1  0.62128678  0.62058855  0.11959984  1
  Ca  Ca54  1  0.37941145  0.61959984  0.87871322  1
  Ca  Ca55  1  0.87941145  0.88040016  0.12128678  1
  Ca  Ca56  1  0.87871322  0.37941145  0.61959984  1
  Ca  Ca57  1  0.88040016  0.12128678  0.87941145  1
  Ca  Ca58  1  0.61959984  0.87871322  0.37941145  1
  Ca  Ca59  1  0.11959984  0.62128678  0.62058855  1
  Ca  Ca60  1  0.61959984  0.62128678  0.87941145  1
  Ca  Ca61  1  0.87941145  0.61959984  0.62128678  1
  Ca  Ca62  1  0.62128678  0.87941145  0.61959984  1
  Ca  Ca63  1  0.87871322  0.12058855  0.11959984  1
  Ca  Ca64  1  0.37941145  0.88040016  0.37871322  1
  Ca  Ca65  1  0.37871322  0.37941145  0.88040016  1
  Ca  Ca66  1  0.62058855  0.38040016  0.12128678  1
  Ca  Ca67  1  0.12058855  0.11959984  0.87871322  1
  Ca  Ca68  1  0.12128678  0.62058855  0.38040016  1
  Ca  Ca69  1  0.11959984  0.87871322  0.12058855  1
  Ca  Ca70  1  0.38040016  0.12128678  0.62058855  1
  Ca  Ca71  1  0.88040016  0.37871322  0.37941145  1
loop_
_geom_bond_atom_site_label_1
_geom_bond_atom_site_label_2
_geom_bond_distance
_geom_bond_site_symmetry_2
Al0 O120 1.752080 1_544
Al0 O0 1.770851 1_555
Al0 O96 1.781579 1_544
Al0 O40 1.787345 1_545
Al1 O121 1.752080 1_454
Al1 O1 1.770851 1_555
Al1 O97 1.781579 1_454
Al1 O41 1.787345 1_554
Al2 O122 1.752080 1_445
Al2 O2 1.770851 1_555
Al2 O98 1.781579 1_445
Al2 O47 1.787345 1_455
Al3 O123 1.752080 1_565
Al3 O3 1.770851 1_555
Al3 O99 1.781579 1_565
Al3 O36 1.787345 1_555
Al4 O124 1.752080 1_556
Al4 O4 1.770851 1_555
Al4 O100 1.781579 1_556
Al4 O39 1.787345 1_556
Al5 O125 1.752080 1_655
Al5 O5 1.770851 1_555
Al5 O101 1.781579 1_655
Al5 O45 1.787345 1_655
Al6 O126 1.752080 1_555
Al6 O6 1.770851 1_555
Al6 O102 1.781579 1_555
Al6 O44 1.787345 1_555
Al7 O127 1.752080 1_655
Al7 O7 1.770851 1_555
Al7 O103 1.781579 1_655
Al7 O38 1.787345 1_555
Al8 O128 1.752080 1_555
Al8 O8 1.770851 1_555
Al8 O104 1.781579 1_555
Al8 O46 1.787345 1_555
Al9 O129 1.752080 1_556
Al9 O9 1.770851 1_555
Al9 O105 1.781579 1_556
Al9 O37 1.787345 1_555
Al10 O130 1.752080 1_555
Al10 O10 1.770851 1_555
Al10 O106 1.781579 1_555
Al10 O42 1.787345 1_555
Al11 O131 1.752080 1_565
Al11 O11 1.770851 1_555
Al11 O107 1.781579 1_565
Al11 O43 1.787345 1_565
Al12 O132 1.752080 1_566
Al12 O12 1.770851 1_555
Al12 O108 1.781579 1_566
Al12 O28 1.787345 1_565
Al13 O133 1.752080 1_656
Al13 O13 1.770851 1_555
Al13 O109 1.781579 1_656
Al13 O29 1.787345 1_556
Al14 O134 1.752080 1_665
Al14 O14 1.770851 1_555
Al14 O110 1.781579 1_665
Al14 O35 1.787345 1_655
Al15 O135 1.752080 1_545
Al15 O15 1.770851 1_555
Al15 O111 1.781579 1_545
Al15 O24 1.787345 1_555
Al16 O136 1.752080 1_554
Al16 O16 1.770851 1_555
Al16 O112 1.781579 1_554
Al16 O27 1.787345 1_554
Al17 O137 1.752080 1_455
Al17 O17 1.770851 1_555
Al17 O113 1.781579 1_455
Al17 O33 1.787345 1_455
Al18 O138 1.752080 1_555
Al18 O18 1.770851 1_555
Al18 O114 1.781579 1_555
Al18 O32 1.787345 1_555
Al19 O139 1.752080 1_455
Al19 O19 1.770851 1_555
Al19 O115 1.781579 1_455
Al19 O26 1.787345 1_555
Al20 O140 1.752080 1_555
Al20 O20 1.770851 1_555
Al20 O116 1.781579 1_555
Al20 O34 1.787345 1_555
Al21 O141 1.752080 1_554
Al21 O21 1.770851 1_555
Al21 O117 1.781579 1_554
Al21 O25 1.787345 1_555
Al22 O142 1.752080 1_555
Al22 O22 1.770851 1_555
Al22 O118 1.781579 1_555
Al22 O30 1.787345 1_555
Al23 O143 1.752080 1_545
Al23 O23 1.770851 1_555
Al23 O119 1.781579 1_545
Al23 O31 1.787345 1_545
Al24 O48 1.758330 1_555
Al24 O91 1.779248 1_554
Al24 O0 1.779785 1_555
Al24 O41 1.781491 1_554
Al25 O49 1.758330 1_555
Al25 O87 1.779248 1_455
Al25 O1 1.779785 1_555
Al25 O47 1.781491 1_455
Al26 O50 1.758330 1_555
Al26 O93 1.779248 1_545
Al26 O2 1.779785 1_555
Al26 O40 1.781491 1_545
Al27 O51 1.758330 1_555
Al27 O94 1.779248 1_565
Al27 O3 1.779785 1_555
Al27 O43 1.781491 1_565
Al28 O52 1.758330 1_555
Al28 O89 1.779248 1_555
Al28 O4 1.779785 1_555
Al28 O46 1.781491 1_555
Al29 O53 1.758330 1_555
Al29 O95 1.779248 1_555
Al29 O5 1.779785 1_555
Al29 O42 1.781491 1_555
Al30 O54 1.758330 1_555
Al30 O86 1.779248 1_555
Al30 O6 1.779785 1_555
Al30 O36 1.781491 1_555
Al31 O55 1.758330 1_555
Al31 O92 1.779248 1_655
Al31 O7 1.779785 1_555
Al31 O45 1.781491 1_655
Al32 O56 1.758330 1_555
Al32 O84 1.779248 1_555
Al32 O8 1.779785 1_555
Al32 O37 1.781491 1_555
Al33 O57 1.758330 1_555
Al33 O90 1.779248 1_556
Al33 O9 1.779785 1_555
Al33 O39 1.781491 1_556
Al34 O58 1.758330 1_555
Al34 O85 1.779248 1_555
Al34 O10 1.779785 1_555
Al34 O38 1.781491 1_555
Al35 O59 1.758330 1_555
Al35 O88 1.779248 1_555
Al35 O11 1.779785 1_555
Al35 O44 1.781491 1_555
Al36 O60 1.758330 1_555
Al36 O79 1.779248 1_556
Al36 O12 1.779785 1_555
Al36 O29 1.781491 1_556
Al37 O61 1.758330 1_555
Al37 O75 1.779248 1_655
Al37 O13 1.779785 1_555
Al37 O35 1.781491 1_655
Al38 O62 1.758330 1_555
Al38 O81 1.779248 1_565
Al38 O14 1.779785 1_555
Al38 O28 1.781491 1_565
Al39 O63 1.758330 1_555
Al39 O82 1.779248 1_545
Al39 O15 1.779785 1_555
Al39 O31 1.781491 1_545
Al40 O64 1.758330 1_555
Al40 O77 1.779248 1_555
Al40 O16 1.779785 1_555
Al40 O34 1.781491 1_555
Al41 O65 1.758330 1_555
Al41 O83 1.779248 1_555
Al41 O17 1.779785 1_555
Al41 O30 1.781491 1_555
Al42 O66 1.758330 1_555
Al42 O74 1.779248 1_555
Al42 O18 1.779785 1_555
Al42 O24 1.781491 1_555
Al43 O67 1.758330 1_555
Al43 O80 1.779248 1_455
Al43 O19 1.779785 1_555
Al43 O33 1.781491 1_455
Al44 O68 1.758330 1_555
Al44 O72 1.779248 1_555
Al44 O20 1.779785 1_555
Al44 O25 1.781491 1_555
Al45 O69 1.758330 1_555
Al45 O78 1.779248 1_554
Al45 O21 1.779785 1_555
Al45 O27 1.781491 1_554
Al46 O70 1.758330 1_555
Al46 O73 1.779248 1_555
Al46 O22 1.779785 1_555
Al46 O26 1.781491 1_555
Al47 O71 1.758330 1_555
Al47 O76 1.779248 1_555
Al47 O23 1.779785 1_555
Al47 O32 1.781491 1_555
Ca0 O122 2.377547 1_445
Ca0 O132 2.377547 1_455
Ca0 O134 2.377547 1_554
Ca0 O121 2.377547 1_454
Ca0 O120 2.377547 1_544
Ca0 O133 2.377547 1_545
Ca1 O135 2.377547 1_545
Ca1 O138 2.377547 1_555
Ca1 O131 2.377547 1_555
Ca1 O123 2.377547 1_555
Ca1 O126 2.377547 1_545
Ca1 O143 2.377547 1_545
Ca2 O141 2.377547 1_554
Ca2 O128 2.377547 1_554
Ca2 O129 2.377547 1_555
Ca2 O140 2.377547 1_555
Ca2 O136 2.377547 1_554
Ca2 O124 2.377547 1_555
Ca3 O139 2.377547 1_455
Ca3 O125 2.377547 1_555
Ca3 O130 2.377547 1_455
Ca3 O142 2.377547 1_555
Ca3 O127 2.377547 1_555
Ca3 O137 2.377547 1_455
Ca4 O112 2.451355 1_544
Ca4 O108 2.451355 1_555
Ca4 O96 2.451355 1_544
Ca4 O99 2.451355 1_554
Ca4 O100 2.451355 1_555
Ca4 O111 2.451355 1_545
Ca5 O97 2.451355 1_454
Ca5 O105 2.451355 1_455
Ca5 O113 2.451355 1_454
Ca5 O109 2.451355 1_555
Ca5 O117 2.451355 1_554
Ca5 O101 2.451355 1_555
Ca6 O103 2.451355 1_545
Ca6 O119 2.451355 1_445
Ca6 O98 2.451355 1_445
Ca6 O110 2.451355 1_555
Ca6 O107 2.451355 1_555
Ca6 O115 2.451355 1_455
Ca7 O114 2.451355 1_555
Ca7 O118 2.451355 1_555
Ca7 O116 2.451355 1_555
Ca7 O102 2.451355 1_555
Ca7 O106 2.451355 1_555
Ca7 O104 2.451355 1_555
Ca8 O48 2.345013 1_555
Ca8 O49 2.345013 1_555
Ca8 O50 2.345013 1_555
Ca8 O74 2.406448 1_555
Ca8 O72 2.406448 1_555
Ca8 O73 2.406448 1_555
Ca9 O51 2.345013 1_555
Ca9 O54 2.345013 1_555
Ca9 O59 2.345013 1_555
Ca9 O78 2.406448 1_555
Ca9 O75 2.406448 1_555
Ca9 O83 2.406448 1_555
Ca10 O57 2.345013 1_555
Ca10 O56 2.345013 1_555
Ca10 O52 2.345013 1_555
Ca10 O80 2.406448 1_555
Ca10 O81 2.406448 1_555
Ca10 O76 2.406448 1_555
Ca11 O55 2.345013 1_555
Ca11 O58 2.345013 1_555
Ca11 O53 2.345013 1_555
Ca11 O82 2.406448 1_555
Ca11 O79 2.406448 1_555
Ca11 O77 2.406448 1_555
Ca12 O60 2.345013 1_555
Ca12 O61 2.345013 1_555
Ca12 O62 2.345013 1_555
Ca12 O85 2.406448 1_555
Ca12 O84 2.406448 1_555
Ca12 O86 2.406448 1_555
Ca13 O71 2.345013 1_555
Ca13 O63 2.345013 1_555
Ca13 O66 2.345013 1_555
Ca13 O87 2.406448 1_555
Ca13 O90 2.406448 1_555
Ca13 O95 2.406448 1_555
Ca14 O69 2.345013 1_555
Ca14 O64 2.345013 1_555
Ca14 O68 2.345013 1_555
Ca14 O93 2.406448 1_555
Ca14 O92 2.406448 1_555
Ca14 O88 2.406448 1_555
Ca15 O65 2.345013 1_555
Ca15 O67 2.345013 1_555
Ca15 O70 2.345013 1_555
Ca15 O91 2.406448 1_555
Ca15 O94 2.406448 1_555
Ca15 O89 2.406448 1_555
Ca16 O72 2.461214 1_555
Ca16 O73 2.461214 1_555
Ca16 O74 2.461214 1_555
Ca16 O18 2.544235 1_555
Ca16 O20 2.544235 1_555
Ca16 O22 2.544235 1_555
Ca17 O75 2.461214 1_555
Ca17 O83 2.461214 1_555
Ca17 O78 2.461214 1_555
Ca17 O17 2.544235 1_555
Ca17 O13 2.544235 1_455
Ca17 O21 2.544235 1_556
Ca18 O76 2.461214 1_555
Ca18 O81 2.461214 1_555
Ca18 O80 2.461214 1_555
Ca18 O23 2.544235 1_555
Ca18 O14 2.544235 1_545
Ca18 O19 2.544235 1_655
Ca19 O79 2.461214 1_555
Ca19 O77 2.461214 1_555
Ca19 O82 2.461214 1_555
Ca19 O16 2.544235 1_555
Ca19 O12 2.544235 1_554
Ca19 O15 2.544235 1_565
Ca20 O84 2.461214 1_555
Ca20 O85 2.461214 1_555
Ca20 O86 2.461214 1_555
Ca20 O10 2.544235 1_555
Ca20 O6 2.544235 1_555
Ca20 O8 2.544235 1_555
Ca21 O95 2.461214 1_555
Ca21 O87 2.461214 1_555
Ca21 O90 2.461214 1_555
Ca21 O5 2.544235 1_555
Ca21 O9 2.544235 1_554
Ca21 O1 2.544235 1_655
Ca22 O88 2.461214 1_555
Ca22 O93 2.461214 1_555
Ca22 O92 2.461214 1_555
Ca22 O11 2.544235 1_555
Ca22 O7 2.544235 1_455
Ca22 O2 2.544235 1_565
Ca23 O89 2.461214 1_555
Ca23 O91 2.461214 1_555
Ca23 O94 2.461214 1_555
Ca23 O4 2.544235 1_555
Ca23 O3 2.544235 1_545
Ca23 O0 2.544235 1_556
Ca24 O101 2.281567 1_555
Ca24 O117 2.419522 1_554
Ca24 O48 2.431500 1_555
Ca24 O25 2.433388 1_555
Ca24 O1 2.477893 1_555
Ca24 O72 2.967125 1_555
Ca25 O107 2.281567 1_555
Ca25 O115 2.419522 1_455
Ca25 O49 2.431500 1_555
Ca25 O26 2.433388 1_555
Ca25 O2 2.477893 1_555
Ca25 O73 2.967125 1_555
Ca26 O100 2.281567 1_555
Ca26 O111 2.419522 1_545
Ca26 O50 2.431500 1_555
Ca26 O24 2.433388 1_555
Ca26 O0 2.477893 1_555
Ca26 O74 2.967125 1_555
Ca27 O103 2.281567 1_555
Ca27 O110 2.419522 1_565
Ca27 O51 2.431500 1_555
Ca27 O35 2.433388 1_555
Ca27 O11 2.477893 1_555
Ca27 O75 2.967125 1_555
Ca28 O106 2.281567 1_555
Ca28 O114 2.419522 1_555
Ca28 O52 2.431500 1_555
Ca28 O32 2.433388 1_555
Ca28 O8 2.477893 1_555
Ca28 O76 2.967125 1_555
Ca29 O102 2.281567 1_555
Ca29 O116 2.419522 1_555
Ca29 O53 2.431500 1_555
Ca29 O34 2.433388 1_555
Ca29 O10 2.477893 1_555
Ca29 O77 2.967125 1_555
Ca30 O96 2.281567 1_555
Ca30 O112 2.419522 1_555
Ca30 O54 2.431500 1_555
Ca30 O27 2.433388 1_555
Ca30 O3 2.477893 1_555
Ca30 O78 2.967125 1_555
Ca31 O105 2.281567 1_555
Ca31 O109 2.419522 1_655
Ca31 O55 2.431500 1_555
Ca31 O29 2.433388 1_555
Ca31 O5 2.477893 1_555
Ca31 O79 2.967125 1_555
Ca32 O97 2.281567 1_555
Ca32 O113 2.419522 1_555
Ca32 O56 2.431500 1_555
Ca32 O33 2.433388 1_555
Ca32 O9 2.477893 1_555
Ca32 O80 2.967125 1_555
Ca33 O99 2.281567 1_555
Ca33 O108 2.419522 1_556
Ca33 O57 2.431500 1_555
Ca33 O28 2.433388 1_555
Ca33 O4 2.477893 1_555
Ca33 O81 2.967125 1_555
Ca34 O98 2.281567 1_555
Ca34 O119 2.419522 1_555
Ca34 O58 2.431500 1_555
Ca34 O31 2.433388 1_555
Ca34 O7 2.477893 1_555
Ca34 O82 2.967125 1_555
Ca35 O104 2.281567 1_555
Ca35 O118 2.419522 1_555
Ca35 O59 2.431500 1_555
Ca35 O30 2.433388 1_555
Ca35 O6 2.477893 1_555
Ca35 O83 2.967125 1_555
Ca36 O113 2.281567 1_555
Ca36 O105 2.419522 1_556
Ca36 O60 2.431500 1_555
Ca36 O37 2.433388 1_555
Ca36 O13 2.477893 1_555
Ca36 O84 2.967125 1_555
Ca37 O119 2.281567 1_555
Ca37 O103 2.419522 1_655
Ca37 O61 2.431500 1_555
Ca37 O38 2.433388 1_555
Ca37 O14 2.477893 1_555
Ca37 O85 2.967125 1_555
Ca38 O112 2.281567 1_555
Ca38 O99 2.419522 1_565
Ca38 O62 2.431500 1_555
Ca38 O36 2.433388 1_555
Ca38 O12 2.477893 1_555
Ca38 O86 2.967125 1_555
Ca39 O115 2.281567 1_555
Ca39 O98 2.419522 1_545
Ca39 O63 2.431500 1_555
Ca39 O47 2.433388 1_555
Ca39 O23 2.477893 1_555
Ca39 O87 2.967125 1_555
Ca40 O118 2.281567 1_555
Ca40 O102 2.419522 1_555
Ca40 O64 2.431500 1_555
Ca40 O44 2.433388 1_555
Ca40 O20 2.477893 1_555
Ca40 O88 2.967125 1_555
Ca41 O114 2.281567 1_555
Ca41 O104 2.419522 1_555
Ca41 O65 2.431500 1_555
Ca41 O46 2.433388 1_555
Ca41 O22 2.477893 1_555
Ca41 O89 2.967125 1_555
Ca42 O108 2.281567 1_555
Ca42 O100 2.419522 1_555
Ca42 O66 2.431500 1_555
Ca42 O39 2.433388 1_555
Ca42 O15 2.477893 1_555
Ca42 O90 2.967125 1_555
Ca43 O117 2.281567 1_555
Ca43 O97 2.419522 1_455
Ca43 O67 2.431500 1_555
Ca43 O41 2.433388 1_555
Ca43 O17 2.477893 1_555
Ca43 O91 2.967125 1_555
Ca44 O109 2.281567 1_555
Ca44 O101 2.419522 1_555
Ca44 O68 2.431500 1_555
Ca44 O45 2.433388 1_555
Ca44 O21 2.477893 1_555
Ca44 O92 2.967125 1_555
Ca45 O111 2.281567 1_555
Ca45 O96 2.419522 1_554
Ca45 O69 2.431500 1_555
Ca45 O40 2.433388 1_555
Ca45 O16 2.477893 1_555
Ca45 O93 2.967125 1_555
Ca46 O110 2.281567 1_555
Ca46 O107 2.419522 1_555
Ca46 O70 2.431500 1_555
Ca46 O43 2.433388 1_555
Ca46 O19 2.477893 1_555
Ca46 O94 2.967125 1_555
Ca47 O116 2.281567 1_555
Ca47 O106 2.419522 1_555
Ca47 O71 2.431500 1_555
Ca47 O42 2.433388 1_555
Ca47 O18 2.477893 1_555
Ca47 O95 2.967125 1_555
Ca48 O74 2.272884 1_555
Ca48 O124 2.297144 1_555
Ca48 O48 2.338984 1_555
Ca48 O140 2.434214 1_555
Ca48 O25 2.448626 1_555
Ca49 O72 2.272884 1_555
Ca49 O125 2.297144 1_555
Ca49 O49 2.338984 1_555
Ca49 O142 2.434214 1_555
Ca49 O26 2.448626 1_555
Ca50 O73 2.272884 1_555
Ca50 O131 2.297144 1_555
Ca50 O50 2.338984 1_555
Ca50 O138 2.434214 1_555
Ca50 O24 2.448626 1_555
Ca51 O78 2.272884 1_555
Ca51 O120 2.297144 1_555
Ca51 O51 2.338984 1_555
Ca51 O133 2.434214 1_556
Ca51 O35 2.448626 1_555
Ca52 O81 2.272884 1_555
Ca52 O123 2.297144 1_555
Ca52 O52 2.338984 1_555
Ca52 O143 2.434214 1_545
Ca52 O32 2.448626 1_555
Ca53 O79 2.272884 1_555
Ca53 O129 2.297144 1_555
Ca53 O53 2.338984 1_555
Ca53 O136 2.434214 1_554
Ca53 O34 2.448626 1_555
Ca54 O83 2.272884 1_555
Ca54 O128 2.297144 1_555
Ca54 O54 2.338984 1_555
Ca54 O141 2.434214 1_555
Ca54 O27 2.448626 1_555
Ca55 O82 2.272884 1_555
Ca55 O122 2.297144 1_555
Ca55 O55 2.338984 1_555
Ca55 O132 2.434214 1_565
Ca55 O29 2.448626 1_555
Ca56 O76 2.272884 1_555
Ca56 O130 2.297144 1_555
Ca56 O56 2.338984 1_555
Ca56 O139 2.434214 1_555
Ca56 O33 2.448626 1_555
Ca57 O80 2.272884 1_555
Ca57 O121 2.297144 1_555
Ca57 O57 2.338984 1_555
Ca57 O134 2.434214 1_655
Ca57 O28 2.448626 1_555
Ca58 O77 2.272884 1_555
Ca58 O126 2.297144 1_555
Ca58 O58 2.338984 1_555
Ca58 O135 2.434214 1_555
Ca58 O31 2.448626 1_555
Ca59 O75 2.272884 1_555
Ca59 O127 2.297144 1_555
Ca59 O59 2.338984 1_555
Ca59 O137 2.434214 1_455
Ca59 O30 2.448626 1_555
Ca60 O86 2.272884 1_555
Ca60 O136 2.297144 1_555
Ca60 O60 2.338984 1_555
Ca60 O128 2.434214 1_555
Ca60 O37 2.448626 1_555
Ca61 O84 2.272884 1_555
Ca61 O137 2.297144 1_555
Ca61 O61 2.338984 1_555
Ca61 O130 2.434214 1_555
Ca61 O38 2.448626 1_555
Ca62 O85 2.272884 1_555
Ca62 O143 2.297144 1_555
Ca62 O62 2.338984 1_555
Ca62 O126 2.434214 1_555
Ca62 O36 2.448626 1_555
Ca63 O90 2.272884 1_555
Ca63 O132 2.297144 1_555
Ca63 O63 2.338984 1_555
Ca63 O121 2.434214 1_554
Ca63 O47 2.448626 1_555
Ca64 O93 2.272884 1_555
Ca64 O135 2.297144 1_555
Ca64 O64 2.338984 1_555
Ca64 O131 2.434214 1_565
Ca64 O44 2.448626 1_555
Ca65 O91 2.272884 1_555
Ca65 O141 2.297144 1_555
Ca65 O65 2.338984 1_555
Ca65 O124 2.434214 1_556
Ca65 O46 2.448626 1_555
Ca66 O95 2.272884 1_555
Ca66 O140 2.297144 1_555
Ca66 O66 2.338984 1_555
Ca66 O129 2.434214 1_555
Ca66 O39 2.448626 1_555
Ca67 O94 2.272884 1_555
Ca67 O134 2.297144 1_555
Ca67 O67 2.338984 1_555
Ca67 O120 2.434214 1_545
Ca67 O41 2.448626 1_555
Ca68 O88 2.272884 1_555
Ca68 O142 2.297144 1_555
Ca68 O68 2.338984 1_555
Ca68 O127 2.434214 1_555
Ca68 O45 2.448626 1_555
Ca69 O92 2.272884 1_555
Ca69 O133 2.297144 1_555
Ca69 O69 2.338984 1_555
Ca69 O122 2.434214 1_455
Ca69 O40 2.448626 1_555
Ca70 O89 2.272884 1_555
Ca70 O138 2.297144 1_555
Ca70 O70 2.338984 1_555
Ca70 O123 2.434214 1_555
Ca70 O43 2.448626 1_555
Ca71 O87 2.272884 1_555
Ca71 O139 2.297144 1_555
Ca71 O71 2.338984 1_555
Ca71 O125 2.434214 1_655
Ca71 O42 2.448626 1_555
