# generated using pymatgen
data_Rb2InGe4As7
_symmetry_space_group_name_H-M   'P 1'
_cell_length_a   8.71840277
_cell_length_b   8.71840277
_cell_length_c   12.66386822
_cell_angle_alpha   89.85075871
_cell_angle_beta   89.85075871
_cell_angle_gamma   25.82534469
_symmetry_Int_Tables_number   1
_chemical_formula_structural   Rb2InGe4As7
_chemical_formula_sum   'Rb2 In1 Ge4 As7'
_cell_volume   419.32985368
_cell_formula_units_Z   1
loop_
 _symmetry_equiv_pos_site_id
 _symmetry_equiv_pos_as_xyz
  1  'x, y, z'
loop_
 _atom_site_type_symbol
 _atom_site_label
 _atom_site_symmetry_multiplicity
 _atom_site_fract_x
 _atom_site_fract_y
 _atom_site_fract_z
 _atom_site_occupancy
  Rb  Rb0  1  0.26921400  0.26921400  0.66506900  1
  Rb  Rb1  1  0.73562300  0.73562300  0.14597400  1
  In  In0  1  0.46810100  0.46810100  0.08902900  1
  Ge  Ge0  1  0.02582700  0.02582700  0.86396500  1
  Ge  Ge1  1  0.97076500  0.97076500  0.37073100  1
  Ge  Ge2  1  0.34071800  0.34071800  0.95915900  1
  Ge  Ge3  1  0.53014600  0.53014600  0.60073100  1
  As  As0  1  0.59533700  0.59533700  0.77586500  1
  As  As1  1  0.40496400  0.40496400  0.28930200  1
  As  As2  1  0.07327300  0.07327300  0.04804700  1
  As  As3  1  0.94281800  0.94281800  0.56324500  1
  As  As4  1  0.88057000  0.88057000  0.84304200  1
  As  As5  1  0.11706000  0.11706000  0.35264100  1
  As  As6  1  0.64558400  0.64558400  0.47246000  1
loop_
_geom_bond_atom_site_label_1
_geom_bond_atom_site_label_2
_geom_bond_distance
_geom_bond_site_symmetry_2
Ge2 In0 2.722330 1_556
Ge2 Rb1 3.544093 1_456
Ge2 Rb1 3.544093 1_546
As0 Ge3 2.481877 1_555
As0 Ge0 2.535569 1_655
As0 Ge0 2.535569 1_565
As0 Rb0 3.804658 1_565
As0 Rb0 3.804658 1_655
As1 Ge1 2.473050 1_455
As1 Ge1 2.473050 1_545
As1 In0 2.751253 1_555
As1 Rb1 3.924491 1_455
As1 Rb1 3.924491 1_545
As2 Ge0 2.468755 1_554
As2 In0 2.693555 1_545
As2 In0 2.693555 1_455
As2 Rb1 3.600773 1_455
As2 Rb1 3.600773 1_545
As3 Ge1 2.482565 1_555
As3 Ge3 2.495546 1_655
As3 Ge3 2.495546 1_565
As3 Rb0 3.760839 1_565
As3 Rb0 3.760839 1_655
As4 Ge0 2.483650 1_665
As4 Ge2 2.532096 1_655
As4 Ge2 2.532096 1_565
As4 Rb0 3.532728 1_565
As4 Rb0 3.532728 1_655
As5 Ge1 2.496331 1_445
As5 As6 2.517360 1_545
As5 As6 2.517360 1_455
As5 Rb1 3.831168 1_455
As5 Rb1 3.831168 1_545
As6 Ge3 2.543813 1_555
As6 Rb0 3.766661 1_655
As6 Rb0 3.766661 1_565
