# generated using pymatgen
data_Li3MnFeCo(PO4)3
_symmetry_space_group_name_H-M   'P 1'
_cell_length_a   6.08959700
_cell_length_b   10.45985600
_cell_length_c   14.30035113
_cell_angle_alpha   89.97721847
_cell_angle_beta   90.00000000
_cell_angle_gamma   90.00000000
_symmetry_Int_Tables_number   1
_chemical_formula_structural   Li3MnFeCo(PO4)3
_chemical_formula_sum   'Li12 Mn4 Fe4 Co4 P12 O48'
_cell_volume   910.87949408
_cell_formula_units_Z   4
loop_
 _symmetry_equiv_pos_site_id
 _symmetry_equiv_pos_as_xyz
  1  'x, y, z'
loop_
 _atom_site_type_symbol
 _atom_site_label
 _atom_site_symmetry_multiplicity
 _atom_site_fract_x
 _atom_site_fract_y
 _atom_site_fract_z
 _atom_site_occupancy
  Li  Li0  1  0.74948100  0.99889800  0.66699400  1
  Li  Li1  1  0.25090700  0.99959400  0.99947700  1
  Li  Li2  1  0.74909300  0.99959400  0.99947700  1
  Li  Li3  1  0.24991300  0.99873600  0.33355000  1
  Li  Li4  1  0.75008700  0.99873600  0.33355000  1
  Li  Li5  1  0.25051900  0.99889800  0.66699400  1
  Li  Li6  1  0.24979400  0.50120400  0.50042900  1
  Li  Li7  1  0.75020600  0.50120400  0.50042900  1
  Li  Li8  1  0.25025900  0.50111800  0.16702400  1
  Li  Li9  1  0.74974100  0.50111800  0.16702400  1
  Li  Li10  1  0.25061700  0.50085600  0.83297500  1
  Li  Li11  1  0.74938300  0.50085600  0.83297500  1
  Mn  Mn0  1  0.00000000  0.21866500  0.15989100  1
  Mn  Mn1  1  0.00000000  0.21876000  0.82556900  1
  Mn  Mn2  1  0.50000000  0.28078000  0.32676400  1
  Mn  Mn3  1  0.00000000  0.71995000  0.00713000  1
  Fe  Fe0  1  0.00000000  0.21830100  0.49266700  1
  Fe  Fe1  1  0.50000000  0.28143400  0.65897300  1
  Fe  Fe2  1  0.50000000  0.28043800  0.99200200  1
  Fe  Fe3  1  0.00000000  0.71993800  0.34179400  1
  Co  Co0  1  0.00000000  0.72282700  0.67382300  1
  Co  Co1  1  0.50000000  0.77821300  0.83960300  1
  Co  Co2  1  0.50000000  0.78096200  0.50644300  1
  Co  Co3  1  0.50000000  0.78108200  0.17263700  1
  P  P0  1  0.50000000  0.09245000  0.80513600  1
  P  P1  1  0.50000000  0.09189800  0.13795700  1
  P  P2  1  0.50000000  0.09202300  0.47376700  1
  P  P3  1  0.00000000  0.40806300  0.30599500  1
  P  P4  1  0.00000000  0.40767800  0.63887500  1
  P  P5  1  0.00000000  0.40682500  0.97278300  1
  P  P6  1  0.50000000  0.59648800  0.36101800  1
  P  P7  1  0.50000000  0.59442900  0.02850700  1
  P  P8  1  0.50000000  0.59609200  0.69380800  1
  P  P9  1  0.00000000  0.90512600  0.85969400  1
  P  P10  1  0.00000000  0.90419500  0.19495500  1
  P  P11  1  0.00000000  0.90393400  0.52788300  1
  O  O0  1  0.00000000  0.04097200  0.23767500  1
  O  O1  1  0.00000000  0.04164500  0.56943100  1
  O  O2  1  0.00000000  0.04158300  0.90248000  1
  O  O3  1  0.50000000  0.09511800  0.58114300  1
  O  O4  1  0.50000000  0.09679300  0.91247500  1
  O  O5  1  0.50000000  0.09512300  0.24542100  1
  O  O6  1  0.29854100  0.16252000  0.09298900  1
  O  O7  1  0.70145900  0.16252000  0.09298900  1
  O  O8  1  0.29707100  0.16272200  0.42955700  1
  O  O9  1  0.70292900  0.16272200  0.42955700  1
  O  O10  1  0.29867800  0.16312000  0.75953400  1
  O  O11  1  0.70132200  0.16312000  0.75953400  1
  O  O12  1  0.79744000  0.33579500  0.59478500  1
  O  O13  1  0.20256000  0.33579500  0.59478500  1
  O  O14  1  0.79794500  0.33774700  0.26115900  1
  O  O15  1  0.20205500  0.33774700  0.26115900  1
  O  O16  1  0.79665900  0.33562700  0.92943000  1
  O  O17  1  0.20334100  0.33562700  0.92943000  1
  O  O18  1  0.00000000  0.40387600  0.41360900  1
  O  O19  1  0.00000000  0.40621100  0.07992900  1
  O  O20  1  0.00000000  0.40489700  0.74636800  1
  O  O21  1  0.50000000  0.45940900  0.40322700  1
  O  O22  1  0.50000000  0.45645900  0.06850000  1
  O  O23  1  0.50000000  0.45835300  0.73509200  1
  O  O24  1  0.00000000  0.54538200  0.26506300  1
  O  O25  1  0.00000000  0.54306500  0.92949500  1
  O  O26  1  0.00000000  0.54520900  0.59809200  1
  O  O27  1  0.50000000  0.59826100  0.25358700  1
  O  O28  1  0.50000000  0.59892300  0.92061000  1
  O  O29  1  0.50000000  0.59899200  0.58623200  1
  O  O30  1  0.29927500  0.66498600  0.07410700  1
  O  O31  1  0.29799100  0.66753000  0.40574100  1
  O  O32  1  0.29657100  0.66683700  0.73829900  1
  O  O33  1  0.70342900  0.66683700  0.73829900  1
  O  O34  1  0.70072500  0.66498600  0.07410700  1
  O  O35  1  0.70200900  0.66753000  0.40574100  1
  O  O36  1  0.79542800  0.83496400  0.90303200  1
  O  O37  1  0.20457200  0.83496400  0.90303200  1
  O  O38  1  0.79578900  0.83332300  0.23822800  1
  O  O39  1  0.79667100  0.83257100  0.57218800  1
  O  O40  1  0.20421100  0.83332300  0.23822800  1
  O  O41  1  0.20332900  0.83257100  0.57218800  1
  O  O42  1  0.00000000  0.90271500  0.75197500  1
  O  O43  1  0.00000000  0.90304700  0.42046900  1
  O  O44  1  0.00000000  0.90497300  0.08727200  1
  O  O45  1  0.50000000  0.95416200  0.76528200  1
  O  O46  1  0.50000000  0.95356400  0.09768800  1
  O  O47  1  0.50000000  0.95442300  0.43221700  1
loop_
_geom_bond_atom_site_label_1
_geom_bond_atom_site_label_2
_geom_bond_distance
_geom_bond_site_symmetry_2
Li0 O1 2.115018 1_665
Li0 O45 2.121816 1_555
Li0 O11 2.188540 1_565
Li0 O42 2.194395 1_655
Li0 O3 2.197109 1_565
Li0 O39 2.224700 1_555
Li1 O2 2.109735 1_565
Li1 O46 2.122421 1_556
Li1 O6 2.185965 1_566
Li1 O4 2.209410 1_565
Li1 O44 2.211196 1_556
Li1 O37 2.224633 1_555
Li2 O2 2.109735 1_665
Li2 O46 2.122421 1_556
Li2 O7 2.185965 1_566
Li2 O4 2.209410 1_565
Li2 O44 2.211196 1_656
Li2 O36 2.224633 1_555
Li3 O0 2.095363 1_565
Li3 O47 2.127082 1_555
Li3 O43 2.204964 1_555
Li3 O8 2.216177 1_565
Li3 O5 2.218795 1_565
Li3 O40 2.220598 1_555
Li4 O0 2.095363 1_665
Li4 O47 2.127082 1_555
Li4 O43 2.204964 1_655
Li4 O9 2.216177 1_565
Li4 O5 2.218795 1_565
Li4 O38 2.220598 1_555
Li5 O1 2.115018 1_565
Li5 O45 2.121816 1_555
Li5 O10 2.188540 1_565
Li5 O42 2.194395 1_555
Li5 O3 2.197109 1_565
Li5 O41 2.224700 1_555
Li6 O21 2.108384 1_555
Li6 O26 2.115843 1_555
Li6 O29 2.207781 1_555
Li6 O18 2.211956 1_555
Li6 O13 2.212462 1_555
Li6 O31 2.223622 1_555
Li7 O21 2.108384 1_555
Li7 O26 2.115843 1_655
Li7 O29 2.207781 1_555
Li7 O18 2.211956 1_655
Li7 O12 2.212462 1_555
Li7 O35 2.223622 1_555
Li8 O24 2.122020 1_555
Li8 O22 2.125255 1_555
Li8 O30 2.188782 1_555
Li8 O15 2.194680 1_555
Li8 O19 2.204589 1_555
Li8 O27 2.208781 1_555
Li9 O24 2.122020 1_655
Li9 O22 2.125255 1_555
Li9 O34 2.188782 1_555
Li9 O14 2.194680 1_555
Li9 O19 2.204589 1_655
Li9 O27 2.208781 1_555
Li10 O25 2.104687 1_555
Li10 O23 2.112758 1_555
Li10 O20 2.207147 1_555
Li10 O32 2.218932 1_555
Li10 O28 2.220367 1_555
Li10 O17 2.229459 1_555
Li11 O25 2.104687 1_655
Li11 O23 2.112758 1_555
Li11 O20 2.207147 1_655
Li11 O33 2.218932 1_555
Li11 O28 2.220367 1_555
Li11 O16 2.229459 1_555
Mn0 O6 2.136762 1_555
Mn0 O7 2.136762 1_455
Mn0 O0 2.165689 1_555
Mn0 O19 2.270255 1_555
Mn0 O15 2.272457 1_555
Mn0 O14 2.272457 1_455
Mn1 O11 2.130500 1_455
Mn1 O10 2.130500 1_555
Mn1 O2 2.154664 1_555
Mn1 O20 2.252046 1_555
Mn1 O16 2.288012 1_455
Mn1 O17 2.288012 1_555
Mn2 O14 2.127605 1_555
Mn2 O15 2.127605 1_555
Mn2 O21 2.165248 1_555
Mn2 O5 2.264081 1_555
Mn2 O9 2.282845 1_555
Mn2 O8 2.282845 1_555
Mn3 O30 2.137484 1_555
Mn3 O34 2.137484 1_455
Mn3 O25 2.158102 1_554
Mn3 O44 2.249590 1_555
Mn3 O37 2.283379 1_554
Mn3 O36 2.283379 1_454
Fe0 O8 2.103691 1_555
Fe0 O9 2.103691 1_455
Fe0 O1 2.148906 1_555
Fe0 O18 2.245938 1_555
Fe0 O13 2.272858 1_555
Fe0 O12 2.272858 1_455
Fe1 O12 2.108609 1_555
Fe1 O13 2.108609 1_555
Fe1 O23 2.147329 1_555
Fe1 O3 2.244651 1_555
Fe1 O10 2.258566 1_555
Fe1 O11 2.258566 1_555
Fe2 O17 2.096917 1_555
Fe2 O16 2.096917 1_555
Fe2 O22 2.142002 1_556
Fe2 O4 2.232703 1_555
Fe2 O7 2.260639 1_556
Fe2 O6 2.260639 1_556
Fe3 O31 2.104587 1_555
Fe3 O35 2.104587 1_455
Fe3 O24 2.130557 1_555
Fe3 O43 2.221682 1_555
Fe3 O40 2.268276 1_555
Fe3 O38 2.268276 1_455
Co0 O32 2.110526 1_555
Co0 O33 2.110526 1_455
Co0 O26 2.150833 1_555
Co0 O42 2.188866 1_555
Co0 O41 2.227532 1_555
Co0 O39 2.227532 1_455
Co1 O36 2.100497 1_555
Co1 O37 2.100497 1_555
Co1 O45 2.124876 1_555
Co1 O28 2.203896 1_555
Co1 O33 2.234239 1_555
Co1 O32 2.234239 1_555
Co2 O47 2.101696 1_555
Co2 O39 2.107029 1_555
Co2 O41 2.107029 1_555
Co2 O29 2.218791 1_555
Co2 O31 2.235216 1_555
Co2 O35 2.235216 1_555
Co3 O46 2.098123 1_555
Co3 O40 2.103151 1_555
Co3 O38 2.103151 1_555
Co3 O34 2.226077 1_555
Co3 O30 2.226077 1_555
Co3 O27 2.234978 1_555
O0 P10 1.555865 1_545
O1 P11 1.558382 1_545
O2 P9 1.553160 1_545
O3 P2 1.535869 1_555
O4 P0 1.535675 1_555
O5 P1 1.537157 1_555
O6 P1 1.569671 1_555
O7 P1 1.569671 1_555
O8 P2 1.572668 1_555
O9 P2 1.572668 1_555
O10 P0 1.572990 1_555
O11 P0 1.572990 1_555
O12 P4 1.576321 1_655
O13 P4 1.576321 1_555
O14 P3 1.570476 1_655
O15 P3 1.570476 1_555
O16 P5 1.572460 1_655
O17 P5 1.572460 1_555
O18 P3 1.539524 1_555
O19 P5 1.532236 1_554
O20 P4 1.537451 1_555
O21 P6 1.555477 1_555
O22 P7 1.552128 1_555
O23 P8 1.556782 1_555
O24 P3 1.550813 1_555
O25 P5 1.553471 1_555
O26 P4 1.552065 1_555
O27 P6 1.536406 1_555
O28 P7 1.543662 1_556
O29 P8 1.538662 1_555
O30 P7 1.569835 1_555
O31 P6 1.573171 1_555
O32 P8 1.577141 1_555
O33 P8 1.577141 1_555
O34 P7 1.569835 1_555
O35 P6 1.573171 1_555
O36 P9 1.572970 1_655
O37 P9 1.572970 1_555
O38 P10 1.574345 1_655
O39 P11 1.578400 1_655
O40 P10 1.574345 1_555
O41 P11 1.578400 1_555
O42 P9 1.540636 1_555
O43 P11 1.536090 1_555
O44 P10 1.539923 1_555
O45 P0 1.554913 1_565
O46 P1 1.557547 1_565
O47 P2 1.557320 1_565
