# generated using pymatgen
data_MnGeO3
_symmetry_space_group_name_H-M   'P 1'
_cell_length_a   5.25893102
_cell_length_b   6.77870172
_cell_length_c   6.77870173
_cell_angle_alpha   85.86152995
_cell_angle_beta   81.69676187
_cell_angle_gamma   81.69680816
_symmetry_Int_Tables_number   1
_chemical_formula_structural   MnGeO3
_chemical_formula_sum   'Mn4 Ge4 O12'
_cell_volume   236.28735003
_cell_formula_units_Z   4
loop_
 _symmetry_equiv_pos_site_id
 _symmetry_equiv_pos_as_xyz
  1  'x, y, z'
loop_
 _atom_site_type_symbol
 _atom_site_label
 _atom_site_symmetry_multiplicity
 _atom_site_fract_x
 _atom_site_fract_y
 _atom_site_fract_z
 _atom_site_occupancy
  Mn  Mn0  1  0.24999964  0.90501343  0.09498651  1
  Mn  Mn1  1  0.25000038  0.27439219  0.72560797  1
  Mn  Mn2  1  0.74999995  0.09498376  0.90501583  1
  Mn  Mn3  1  0.74999992  0.72560704  0.27439316  1
  Ge  Ge0  1  0.71761471  0.60908929  0.79317613  1
  Ge  Ge1  1  0.78238486  0.20682382  0.39091079  1
  Ge  Ge2  1  0.28238751  0.39090988  0.20682258  1
  Ge  Ge3  1  0.21761223  0.79317821  0.60908967  1
  O  O0  1  0.64078559  0.78965621  0.97164070  1
  O  O1  1  0.85921386  0.02835865  0.21034308  1
  O  O2  1  0.35921611  0.21034170  0.02835784  1
  O  O3  1  0.14078489  0.97164220  0.78965782  1
  O  O4  1  0.87862451  0.37943838  0.85835799  1
  O  O5  1  0.62137503  0.14164184  0.62056167  1
  O  O6  1  0.12137583  0.62056012  0.14164262  1
  O  O7  1  0.37862381  0.85835740  0.37943913  1
  O  O8  1  0.41725687  0.57811363  0.70630078  1
  O  O9  1  0.08274321  0.29369820  0.42188682  1
  O  O10  1  0.58274407  0.42188862  0.29369668  1
  O  O11  1  0.91725600  0.70630341  0.57811123  1
loop_
_geom_bond_atom_site_label_1
_geom_bond_atom_site_label_2
_geom_bond_distance
_geom_bond_site_symmetry_2
Mn0 O7 2.121912 1_555
Mn0 O6 2.121915 1_555
Mn0 O1 2.160555 1_465
Mn0 O0 2.160558 1_554
Mn0 O2 2.225120 1_565
Mn0 O3 2.225120 1_554
Mn1 O5 2.077109 1_555
Mn1 O4 2.077114 1_455
Mn1 O3 2.206795 1_545
Mn1 O2 2.206795 1_556
Mn1 O8 2.341050 1_555
Mn1 O9 2.341051 1_555
Mn2 O5 2.121924 1_555
Mn2 O4 2.121926 1_555
Mn2 O2 2.160543 1_556
Mn2 O3 2.160547 1_645
Mn2 O1 2.225107 1_556
Mn2 O0 2.225109 1_545
Mn3 O7 2.077115 1_555
Mn3 O6 2.077116 1_655
Mn3 O1 2.206802 1_565
Mn3 O0 2.206808 1_554
Mn3 O11 2.341030 1_555
Mn3 O10 2.341031 1_555
Ge0 O4 1.721537 1_555
Ge0 O0 1.747763 1_555
Ge0 O8 1.807821 1_555
Ge0 O11 1.811352 1_555
Ge1 O5 1.721536 1_555
Ge1 O1 1.747769 1_555
Ge1 O9 1.807821 1_655
Ge1 O10 1.811351 1_555
Ge2 O6 1.721534 1_555
Ge2 O2 1.747769 1_555
Ge2 O10 1.807816 1_555
Ge2 O9 1.811351 1_555
Ge3 O7 1.721533 1_555
Ge3 O3 1.747765 1_555
Ge3 O11 1.807816 1_455
Ge3 O8 1.811353 1_555
