# generated using pymatgen
data_Fe3(CoN)8
_symmetry_space_group_name_H-M   'P 1'
_cell_length_a   7.31689313
_cell_length_b   3.91458846
_cell_length_c   6.36453237
_cell_angle_alpha   90.00000645
_cell_angle_beta   73.00407454
_cell_angle_gamma   74.48425039
_symmetry_Int_Tables_number   1
_chemical_formula_structural   Fe3(CoN)8
_chemical_formula_sum   'Fe3 Co8 N8'
_cell_volume   167.37602507
_cell_formula_units_Z   1
loop_
 _symmetry_equiv_pos_site_id
 _symmetry_equiv_pos_as_xyz
  1  'x, y, z'
loop_
 _atom_site_type_symbol
 _atom_site_label
 _atom_site_symmetry_multiplicity
 _atom_site_fract_x
 _atom_site_fract_y
 _atom_site_fract_z
 _atom_site_occupancy
  Fe  Fe0  1  0.00000000  0.50000000  0.50000000  1
  Fe  Fe1  1  0.44099500  0.77950200  0.82755700  1
  Fe  Fe2  1  0.55900500  0.22049800  0.17244300  1
  Co  Co0  1  0.05201200  0.97399400  0.78186400  1
  Co  Co1  1  0.94798800  0.02600600  0.21813600  1
  Co  Co2  1  0.64986300  0.67506900  0.43563600  1
  Co  Co3  1  0.35013700  0.32493100  0.56436400  1
  Co  Co4  1  0.80624800  0.59687600  0.98600600  1
  Co  Co5  1  0.19375200  0.40312400  0.01399400  1
  Co  Co6  1  0.70908100  0.14546000  0.68390300  1
  Co  Co7  1  0.29091900  0.85454000  0.31609700  1
  N  N0  1  0.21553800  0.89223200  0.05744800  1
  N  N1  1  0.78446200  0.10776800  0.94255200  1
  N  N2  1  0.35940500  0.82029800  0.58787200  1
  N  N3  1  0.64059500  0.17970200  0.41212800  1
  N  N4  1  0.71819500  0.64090300  0.71497000  1
  N  N5  1  0.28180500  0.35909700  0.28503000  1
  N  N6  1  0.08707400  0.45646300  0.76416000  1
  N  N7  1  0.91292600  0.54353700  0.23584000  1
loop_
_geom_bond_atom_site_label_1
_geom_bond_atom_site_label_2
_geom_bond_distance
_geom_bond_site_symmetry_2
Fe0 N6 1.956957 1_555
Fe0 N7 1.956957 1_455
Fe0 N4 2.042066 1_455
Fe0 N5 2.042066 1_555
Fe1 N2 1.786165 1_555
Fe1 N0 1.804535 1_556
Fe1 N4 1.866336 1_555
Fe2 N3 1.786165 1_555
Fe2 N1 1.804535 1_554
Fe2 N5 1.866336 1_555
Co0 N1 1.852995 1_465
Co0 N6 1.971777 1_565
Co0 N6 1.971777 1_555
Co0 N2 2.144226 1_555
Co0 N0 2.373274 1_556
Co1 N0 1.852995 1_645
Co1 N7 1.971777 1_545
Co1 N7 1.971777 1_555
Co1 N3 2.144226 1_555
Co1 N1 2.373274 1_554
Co2 N7 1.904169 1_555
Co2 N3 1.965597 1_565
Co2 N3 1.965605 1_555
Co2 N4 1.977982 1_555
Co2 N2 1.982034 1_555
Co3 N6 1.904169 1_555
Co3 N2 1.965597 1_545
Co3 N2 1.965605 1_555
Co3 N5 1.977982 1_555
Co3 N3 1.982034 1_555
Co4 N7 1.954376 1_556
Co4 N1 1.989180 1_565
Co4 N1 1.989188 1_555
Co4 N4 2.002697 1_555
Co4 N6 2.053651 1_655
Co5 N6 1.954376 1_554
Co5 N0 1.989180 1_545
Co5 N0 1.989188 1_555
Co5 N5 2.002697 1_555
Co5 N7 2.053651 1_455
Co6 N1 1.877006 1_555
Co6 N3 1.931785 1_555
Co6 N4 1.970262 1_555
Co6 N4 1.970262 1_545
Co7 N0 1.877006 1_555
Co7 N2 1.931785 1_555
Co7 N5 1.970262 1_555
Co7 N5 1.970262 1_565
