# generated using pymatgen
data_SrY
_symmetry_space_group_name_H-M   'P 1'
_cell_length_a   7.65614743
_cell_length_b   7.65614743
_cell_length_c   12.75938800
_cell_angle_alpha   90.00000000
_cell_angle_beta   90.00000000
_cell_angle_gamma   119.99999504
_symmetry_Int_Tables_number   1
_chemical_formula_structural   SrY
_chemical_formula_sum   'Sr8 Y8'
_cell_volume   647.71070163
_cell_formula_units_Z   8
loop_
 _symmetry_equiv_pos_site_id
 _symmetry_equiv_pos_as_xyz
  1  'x, y, z'
loop_
 _atom_site_type_symbol
 _atom_site_label
 _atom_site_symmetry_multiplicity
 _atom_site_fract_x
 _atom_site_fract_y
 _atom_site_fract_z
 _atom_site_occupancy
  Sr  Sr0_0  1  0.33333350  0.16666650  0.25000000  1
  Sr  Sr0_1  1  0.33333350  0.16666650  0.75000000  1
  Sr  Sr0_2  1  0.33333350  0.66666650  0.25000000  1
  Sr  Sr0_3  1  0.33333350  0.66666650  0.75000000  1
  Sr  Sr0_4  1  0.83333350  0.16666650  0.25000000  1
  Sr  Sr0_5  1  0.83333350  0.16666650  0.75000000  1
  Sr  Sr0_6  1  0.83333350  0.66666650  0.25000000  1
  Sr  Sr0_7  1  0.83333350  0.66666650  0.75000000  1
  Y  Y0_0  1  0.16666650  0.33333350  0.00000000  1
  Y  Y0_1  1  0.16666650  0.33333350  0.50000000  1
  Y  Y0_2  1  0.16666650  0.83333350  0.00000000  1
  Y  Y0_3  1  0.16666650  0.83333350  0.50000000  1
  Y  Y0_4  1  0.66666650  0.33333350  0.00000000  1
  Y  Y0_5  1  0.66666650  0.33333350  0.50000000  1
  Y  Y0_6  1  0.66666650  0.83333350  0.00000000  1
  Y  Y0_7  1  0.66666650  0.83333350  0.50000000  1
loop_
_geom_bond_atom_site_label_1
_geom_bond_atom_site_label_2
_geom_bond_distance
_geom_bond_site_symmetry_2
Sr0_0 Sr0_2 3.828074 1_555
Sr0_0 Sr0_4 3.828074 1_455
Sr0_0 Sr0_2 3.828074 1_545
Sr0_0 Sr0_4 3.828074 1_555
Sr0_0 Sr0_6 3.828074 1_555
Sr0_0 Sr0_6 3.828074 1_445
Sr0_0 Y0_2 3.880700 1_545
Sr0_0 Y0_3 3.880700 1_545
Sr0_0 Y0_4 3.880700 1_555
Sr0_0 Y0_5 3.880700 1_555
Sr0_0 Y0_1 3.880703 1_555
Sr0_0 Y0_0 3.880703 1_555
Sr0_1 Sr0_3 3.828074 1_555
Sr0_1 Sr0_5 3.828074 1_455
Sr0_1 Sr0_5 3.828074 1_555
Sr0_1 Sr0_3 3.828074 1_545
Sr0_1 Sr0_7 3.828074 1_555
Sr0_1 Sr0_7 3.828074 1_445
Sr0_1 Y0_2 3.880700 1_546
Sr0_1 Y0_3 3.880700 1_545
Sr0_1 Y0_5 3.880700 1_555
Sr0_1 Y0_4 3.880700 1_556
Sr0_1 Y0_1 3.880703 1_555
Sr0_1 Y0_0 3.880703 1_556
Sr0_2 Sr0_6 3.828074 1_455
Sr0_2 Sr0_6 3.828074 1_555
Sr0_2 Sr0_4 3.828074 1_455
Sr0_2 Sr0_4 3.828074 1_565
Sr0_2 Y0_0 3.880700 1_555
Sr0_2 Y0_1 3.880700 1_555
Sr0_2 Y0_6 3.880700 1_555
Sr0_2 Y0_7 3.880700 1_555
Sr0_2 Y0_3 3.880703 1_555
Sr0_2 Y0_2 3.880703 1_555
Sr0_3 Sr0_7 3.828074 1_455
Sr0_3 Sr0_7 3.828074 1_555
Sr0_3 Sr0_5 3.828074 1_455
Sr0_3 Sr0_5 3.828074 1_565
Sr0_3 Y0_0 3.880700 1_556
Sr0_3 Y0_1 3.880700 1_555
Sr0_3 Y0_7 3.880700 1_555
Sr0_3 Y0_6 3.880700 1_556
Sr0_3 Y0_3 3.880703 1_555
Sr0_3 Y0_2 3.880703 1_556
Sr0_4 Sr0_6 3.828074 1_555
Sr0_4 Sr0_6 3.828074 1_545
Sr0_4 Y0_0 3.880700 1_655
Sr0_4 Y0_1 3.880700 1_655
Sr0_4 Y0_6 3.880700 1_545
Sr0_4 Y0_7 3.880700 1_545
Sr0_4 Y0_4 3.880703 1_555
Sr0_4 Y0_5 3.880703 1_555
Sr0_5 Sr0_7 3.828074 1_555
Sr0_5 Sr0_7 3.828074 1_545
Sr0_5 Y0_0 3.880700 1_656
Sr0_5 Y0_1 3.880700 1_655
Sr0_5 Y0_6 3.880700 1_546
Sr0_5 Y0_7 3.880700 1_545
Sr0_5 Y0_4 3.880703 1_556
Sr0_5 Y0_5 3.880703 1_555
Sr0_6 Y0_5 3.880700 1_555
Sr0_6 Y0_4 3.880700 1_555
Sr0_6 Y0_2 3.880700 1_655
Sr0_6 Y0_3 3.880700 1_655
Sr0_6 Y0_7 3.880703 1_555
Sr0_6 Y0_6 3.880703 1_555
Sr0_7 Y0_5 3.880700 1_555
Sr0_7 Y0_4 3.880700 1_556
Sr0_7 Y0_2 3.880700 1_656
Sr0_7 Y0_3 3.880700 1_655
Sr0_7 Y0_7 3.880703 1_555
Sr0_7 Y0_6 3.880703 1_556
Y0_0 Y0_2 3.828074 1_545
Y0_0 Y0_4 3.828074 1_455
Y0_0 Y0_4 3.828074 1_555
Y0_0 Y0_2 3.828074 1_555
Y0_0 Y0_6 3.828074 1_445
Y0_0 Y0_6 3.828074 1_555
Y0_1 Y0_3 3.828074 1_545
Y0_1 Y0_5 3.828074 1_455
Y0_1 Y0_3 3.828074 1_555
Y0_1 Y0_5 3.828074 1_555
Y0_1 Y0_7 3.828074 1_445
Y0_1 Y0_7 3.828074 1_555
Y0_2 Y0_6 3.828074 1_455
Y0_2 Y0_6 3.828074 1_555
Y0_2 Y0_4 3.828074 1_455
Y0_2 Y0_4 3.828074 1_565
Y0_3 Y0_7 3.828074 1_455
Y0_3 Y0_7 3.828074 1_555
Y0_3 Y0_5 3.828074 1_455
Y0_3 Y0_5 3.828074 1_565
Y0_4 Y0_6 3.828074 1_555
Y0_4 Y0_6 3.828074 1_545
Y0_5 Y0_7 3.828074 1_555
Y0_5 Y0_7 3.828074 1_545
