# generated using pymatgen
data_Tb2Al6Si4Au
_symmetry_space_group_name_H-M   'P 1'
_cell_length_a   17.01191608
_cell_length_b   17.01191608
_cell_length_c   17.01191662
_cell_angle_alpha   14.12458620
_cell_angle_beta   14.12458620
_cell_angle_gamma   14.12458688
_symmetry_Int_Tables_number   1
_chemical_formula_structural   Tb2Al6Si4Au
_chemical_formula_sum   'Tb2 Al6 Si4 Au1'
_cell_volume   255.19648571
_cell_formula_units_Z   1
loop_
 _symmetry_equiv_pos_site_id
 _symmetry_equiv_pos_as_xyz
  1  'x, y, z'
loop_
 _atom_site_type_symbol
 _atom_site_label
 _atom_site_symmetry_multiplicity
 _atom_site_fract_x
 _atom_site_fract_y
 _atom_site_fract_z
 _atom_site_occupancy
  Tb  Tb0  1  0.56588425  0.56588425  0.56588425  1
  Tb  Tb1  1  0.43411575  0.43411575  0.43411575  1
  Al  Al0  1  0.94880757  0.94880757  0.94880757  1
  Al  Al1  1  0.05119243  0.05119243  0.05119243  1
  Al  Al2  1  0.18521427  0.18521427  0.18521427  1
  Al  Al3  1  0.81478573  0.81478573  0.81478573  1
  Al  Al4  1  0.31742167  0.31742167  0.31742167  1
  Al  Al5  1  0.68257833  0.68257833  0.68257833  1
  Si  Si0  1  0.73357846  0.73357846  0.73357846  1
  Si  Si1  1  0.13534997  0.13534997  0.13534997  1
  Si  Si2  1  0.26642154  0.26642154  0.26642154  1
  Si  Si3  1  0.86465003  0.86465003  0.86465003  1
  Au  Au0  1  0.00000000  0.00000000  -0.00000000  1
loop_
_geom_bond_atom_site_label_1
_geom_bond_atom_site_label_2
_geom_bond_distance
_geom_bond_site_symmetry_2
Al0 Si2 2.542365 1_566
Al0 Si2 2.542365 1_656
Al0 Si2 2.542365 1_665
Al0 Au0 2.586181 1_666
Al1 Si0 2.542365 1_544
Al1 Si0 2.542365 1_454
Al1 Si0 2.542365 1_445
Al1 Au0 2.586181 1_555
Al2 Si3 2.499823 1_454
Al2 Si3 2.499823 1_544
Al2 Si3 2.499823 1_445
Al2 Si1 2.519085 1_555
Al3 Si1 2.499823 1_656
Al3 Si1 2.499823 1_566
Al3 Si1 2.499823 1_665
Al3 Si3 2.519085 1_555
Al4 Au0 2.545416 1_565
Al4 Au0 2.545416 1_655
Al4 Au0 2.545416 1_556
Al4 Si2 2.576466 1_555
Al5 Au0 2.545416 1_566
Al5 Au0 2.545416 1_656
Al5 Au0 2.545416 1_665
Al5 Si0 2.576466 1_555
Si0 Tb1 2.959875 1_565
Si0 Tb1 2.959875 1_655
Si0 Tb1 2.959875 1_556
Si1 Tb1 2.980367 1_455
Si1 Tb1 2.980367 1_545
Si1 Tb1 2.980368 1_554
Si2 Tb0 2.959875 1_455
Si2 Tb0 2.959875 1_545
Si2 Tb0 2.959875 1_554
Si3 Tb0 2.980367 1_565
Si3 Tb0 2.980367 1_655
Si3 Tb0 2.980368 1_556
