# generated using pymatgen
data_Nb2Al
_symmetry_space_group_name_H-M   'P 1'
_cell_length_a   5.18377702
_cell_length_b   9.99224409
_cell_length_c   9.99224409
_cell_angle_alpha   90.00040471
_cell_angle_beta   90.00000000
_cell_angle_gamma   90.00000000
_symmetry_Int_Tables_number   1
_chemical_formula_structural   Nb2Al
_chemical_formula_sum   'Nb20 Al10'
_cell_volume   517.57391566
_cell_formula_units_Z   10
loop_
 _symmetry_equiv_pos_site_id
 _symmetry_equiv_pos_as_xyz
  1  'x, y, z'
loop_
 _atom_site_type_symbol
 _atom_site_label
 _atom_site_symmetry_multiplicity
 _atom_site_fract_x
 _atom_site_fract_y
 _atom_site_fract_z
 _atom_site_occupancy
  Nb  Nb0  1  -0.00000000  0.39649940  0.39649940  1
  Nb  Nb1  1  0.50000000  0.10351182  0.89648818  1
  Nb  Nb2  1  0.50000000  0.89648818  0.10351182  1
  Nb  Nb3  1  0.00000000  0.60350060  0.60350060  1
  Nb  Nb4  1  -0.00000000  0.46478468  0.12780853  1
  Nb  Nb5  1  0.50000000  0.37220148  0.96477653  1
  Nb  Nb6  1  0.50000000  0.62779852  0.03522347  1
  Nb  Nb7  1  -0.00000000  0.53521532  0.87219147  1
  Nb  Nb8  1  0.50000000  0.96477653  0.37220148  1
  Nb  Nb9  1  0.50000000  0.03522347  0.62779852  1
  Nb  Nb10  1  0.00000000  0.12780853  0.46478468  1
  Nb  Nb11  1  0.00000000  0.87219147  0.53521532  1
  Nb  Nb12  1  0.25245403  0.18141554  0.18141554  1
  Nb  Nb13  1  0.75248141  0.31859435  0.68140565  1
  Nb  Nb14  1  0.75248141  0.68140565  0.31859435  1
  Nb  Nb15  1  0.25245403  0.81858446  0.81858446  1
  Nb  Nb16  1  0.24751859  0.68140565  0.31859435  1
  Nb  Nb17  1  0.24751859  0.31859435  0.68140565  1
  Nb  Nb18  1  0.74754597  0.18141554  0.18141554  1
  Nb  Nb19  1  0.74754597  0.81858446  0.81858446  1
  Al  Al0  1  0.00000000  0.00000000  0.00000000  1
  Al  Al1  1  0.50000000  0.50000000  0.50000000  1
  Al  Al2  1  0.00000000  0.93293246  0.26127676  1
  Al  Al3  1  0.50000000  0.23872086  0.43293042  1
  Al  Al4  1  0.50000000  0.76127914  0.56706958  1
  Al  Al5  1  -0.00000000  0.06706754  0.73872324  1
  Al  Al6  1  0.50000000  0.43293042  0.23872086  1
  Al  Al7  1  0.50000000  0.56706958  0.76127914  1
  Al  Al8  1  -0.00000000  0.26127676  0.93293246  1
  Al  Al9  1  -0.00000000  0.73872324  0.06706754  1
loop_
_geom_bond_atom_site_label_1
_geom_bond_atom_site_label_2
_geom_bond_distance
_geom_bond_site_symmetry_2
Nb0 Nb4 2.770176 1_555
Nb0 Nb10 2.770176 1_555
Nb0 Nb3 2.925158 1_555
Nb0 Nb13 3.218210 1_455
Nb0 Nb16 3.218210 1_555
Nb0 Nb14 3.218210 1_455
Nb0 Nb17 3.218210 1_555
Nb0 Nb18 3.309140 1_455
Nb0 Nb12 3.309140 1_555
Nb1 Nb9 2.770162 1_555
Nb1 Nb5 2.770162 1_555
Nb1 Nb2 2.925496 1_546
Nb1 Nb18 3.218441 1_556
Nb1 Nb12 3.218441 1_556
Nb1 Nb19 3.218441 1_545
Nb1 Nb15 3.218441 1_545
Nb1 Nb17 3.309198 1_555
Nb1 Nb13 3.309198 1_555
Nb2 Nb6 2.770162 1_555
Nb2 Nb8 2.770162 1_555
Nb3 Nb7 2.770176 1_555
Nb4 Nb7 2.649374 1_554
Nb4 Nb6 3.197969 1_555
Nb4 Nb6 3.197969 1_455
Nb4 Nb5 3.198050 1_454
Nb4 Nb5 3.198050 1_554
Nb5 Nb6 2.649214 1_556
Nb5 Nb7 3.197969 1_555
Nb5 Nb7 3.197969 1_655
Nb6 Nb7 3.198050 1_654
Nb6 Nb7 3.198050 1_554
Nb8 Nb9 2.649214 1_565
Nb10 Nb11 2.649374 1_545
Nb10 Nb17 3.156851 1_555
Nb10 Nb13 3.156851 1_455
Nb10 Nb18 3.164950 1_455
Nb10 Nb12 3.164950 1_555
Nb10 Nb9 3.197969 1_455
Nb10 Nb9 3.197969 1_555
Nb10 Nb8 3.198050 1_445
Nb10 Nb8 3.198050 1_545
Nb11 Nb3 2.770176 1_555
Nb11 Nb16 3.156851 1_555
Nb11 Nb14 3.156851 1_455
Nb11 Nb19 3.164950 1_455
Nb11 Nb15 3.164950 1_555
Nb11 Nb8 3.197969 1_455
Nb11 Nb8 3.197969 1_555
Nb11 Nb9 3.198050 1_465
Nb11 Nb9 3.198050 1_565
Nb12 Nb18 2.566446 1_555
Nb12 Nb18 2.617331 1_455
Nb12 Nb8 3.157051 1_545
Nb12 Nb5 3.157051 1_554
Nb12 Nb4 3.164950 1_555
Nb12 Nb2 3.218441 1_545
Nb13 Nb17 2.566162 1_655
Nb13 Nb17 2.617615 1_555
Nb13 Nb7 3.156851 1_655
Nb13 Nb5 3.165018 1_555
Nb13 Nb9 3.165018 1_555
Nb13 Nb3 3.218210 1_655
Nb14 Nb16 2.566162 1_655
Nb14 Nb16 2.617615 1_555
Nb14 Nb4 3.156851 1_655
Nb14 Nb8 3.165018 1_555
Nb14 Nb6 3.165018 1_555
Nb14 Nb3 3.218210 1_655
Nb14 Nb2 3.309198 1_555
Nb15 Nb19 2.566446 1_555
Nb15 Nb19 2.617331 1_455
Nb15 Nb6 3.157051 1_556
Nb15 Nb9 3.157051 1_565
Nb15 Nb7 3.164950 1_555
Nb15 Nb2 3.218441 1_556
Nb15 Nb3 3.309140 1_555
Nb16 Nb4 3.156851 1_555
Nb16 Nb8 3.165018 1_555
Nb16 Nb6 3.165018 1_555
Nb16 Nb3 3.218210 1_555
Nb16 Nb2 3.309198 1_555
Nb17 Nb7 3.156851 1_555
Nb17 Nb5 3.165018 1_555
Nb17 Nb9 3.165018 1_555
Nb17 Nb3 3.218210 1_555
Nb18 Nb8 3.157051 1_545
Nb18 Nb5 3.157051 1_554
Nb18 Nb4 3.164950 1_655
Nb18 Nb2 3.218441 1_545
Nb19 Nb9 3.157051 1_565
Nb19 Nb6 3.157051 1_556
Nb19 Nb7 3.164950 1_655
Nb19 Nb2 3.218441 1_556
Nb19 Nb3 3.309140 1_655
Al0 Al2 2.695385 1_545
Al0 Al9 2.695385 1_545
Al0 Al5 2.695385 1_554
Al0 Al8 2.695385 1_554
Al0 Nb15 2.878311 1_544
Al0 Nb19 2.878311 1_444
Al0 Nb18 2.878311 1_455
Al0 Nb12 2.878311 1_555
Al0 Nb2 2.976158 1_545
Al0 Nb2 2.976158 1_445
Al0 Nb1 2.976158 1_454
Al0 Nb1 2.976158 1_554
Al1 Al6 2.695404 1_555
Al1 Al7 2.695404 1_555
Al1 Al4 2.695404 1_555
Al1 Al3 2.695404 1_555
Al1 Nb16 2.878267 1_555
Al1 Nb13 2.878267 1_555
Al1 Nb14 2.878267 1_555
Al1 Nb17 2.878267 1_555
Al1 Nb3 2.976075 1_655
Al1 Nb3 2.976075 1_555
Al1 Nb0 2.976075 1_555
Al1 Nb0 2.976075 1_655
Al2 Al9 2.744393 1_555
Al2 Nb11 2.803747 1_555
Al2 Nb10 2.815466 1_565
Al2 Nb8 2.836838 1_455
Al2 Nb8 2.836838 1_555
Al2 Nb14 2.879427 1_455
Al2 Nb16 2.879427 1_555
Al2 Nb18 2.917916 1_465
Al2 Nb12 2.917916 1_565
Al2 Nb2 3.055423 1_555
Al2 Nb2 3.055423 1_455
Al3 Al6 2.744417 1_555
Al3 Nb8 2.803769 1_545
Al3 Nb9 2.815355 1_555
Al3 Nb10 2.836803 1_655
Al3 Nb10 2.836803 1_555
Al3 Nb18 2.879355 1_555
Al3 Nb12 2.879355 1_555
Al3 Nb13 2.917937 1_555
Al3 Nb17 2.917937 1_555
Al3 Nb0 3.055480 1_555
Al3 Nb0 3.055480 1_655
Al4 Al7 2.744417 1_555
Al4 Nb9 2.803769 1_565
Al4 Nb8 2.815355 1_555
Al4 Nb11 2.836803 1_555
Al4 Nb11 2.836803 1_655
Al4 Nb15 2.879355 1_555
Al4 Nb19 2.879355 1_555
Al4 Nb14 2.917937 1_555
Al4 Nb16 2.917937 1_555
Al4 Nb3 3.055480 1_555
Al4 Nb3 3.055480 1_655
Al5 Al8 2.744393 1_555
Al5 Nb10 2.803747 1_555
Al5 Nb11 2.815466 1_545
Al5 Nb9 2.836838 1_455
Al5 Nb9 2.836838 1_555
Al5 Nb13 2.879427 1_455
Al5 Nb17 2.879427 1_555
Al5 Nb15 2.917916 1_545
Al5 Nb19 2.917916 1_445
Al5 Nb1 3.055423 1_455
Al5 Nb1 3.055423 1_555
Al6 Nb5 2.803769 1_554
Al6 Nb6 2.815355 1_555
Al6 Nb4 2.836803 1_655
Al6 Nb4 2.836803 1_555
Al6 Nb18 2.879355 1_555
Al6 Nb12 2.879355 1_555
Al6 Nb16 2.917937 1_555
Al6 Nb14 2.917937 1_555
Al6 Nb0 3.055480 1_555
Al6 Nb0 3.055480 1_655
Al7 Nb6 2.803769 1_556
Al7 Nb5 2.815355 1_555
Al7 Nb7 2.836803 1_655
Al7 Nb7 2.836803 1_555
Al7 Nb15 2.879355 1_555
Al7 Nb19 2.879355 1_555
Al7 Nb17 2.917937 1_555
Al7 Nb13 2.917937 1_555
Al7 Nb3 3.055480 1_555
Al7 Nb3 3.055480 1_655
Al8 Nb7 2.803747 1_555
Al8 Nb4 2.815466 1_556
Al8 Nb5 2.836838 1_455
Al8 Nb5 2.836838 1_555
Al8 Nb13 2.879427 1_455
Al8 Nb17 2.879427 1_555
Al8 Nb18 2.917916 1_456
Al8 Nb12 2.917916 1_556
Al8 Nb1 3.055423 1_455
Al8 Nb1 3.055423 1_555
Al9 Nb4 2.803747 1_555
Al9 Nb7 2.815466 1_554
Al9 Nb6 2.836838 1_455
Al9 Nb6 2.836838 1_555
Al9 Nb14 2.879427 1_455
Al9 Nb16 2.879427 1_555
Al9 Nb19 2.917916 1_454
Al9 Nb15 2.917916 1_554
Al9 Nb2 3.055423 1_555
Al9 Nb2 3.055423 1_455
