# generated using pymatgen
data_BaFe(Si2O5)2
_symmetry_space_group_name_H-M   'P 1'
_cell_length_a   7.51335695
_cell_length_b   7.51335695
_cell_length_c   16.22246110
_cell_angle_alpha   90.00000000
_cell_angle_beta   90.00000000
_cell_angle_gamma   90.00000000
_symmetry_Int_Tables_number   1
_chemical_formula_structural   BaFe(Si2O5)2
_chemical_formula_sum   'Ba4 Fe4 Si16 O40'
_cell_volume   915.76657012
_cell_formula_units_Z   4
loop_
 _symmetry_equiv_pos_site_id
 _symmetry_equiv_pos_as_xyz
  1  'x, y, z'
loop_
 _atom_site_type_symbol
 _atom_site_label
 _atom_site_symmetry_multiplicity
 _atom_site_fract_x
 _atom_site_fract_y
 _atom_site_fract_z
 _atom_site_occupancy
  Ba  Ba0  1  0.25000000  0.75000000  0.50000000  1
  Ba  Ba1  1  0.75000000  0.25000000  0.50000000  1
  Ba  Ba2  1  0.75000000  0.25000000  -0.00000000  1
  Ba  Ba3  1  0.25000000  0.75000000  -0.00000000  1
  Fe  Fe0  1  0.25000000  0.25000000  0.59166633  1
  Fe  Fe1  1  0.75000000  0.75000000  0.90835977  1
  Fe  Fe2  1  0.75000000  0.75000000  0.40833367  1
  Fe  Fe3  1  0.25000000  0.25000000  0.09164023  1
  Si  Si0  1  0.93406313  0.51689001  0.65482124  1
  Si  Si1  1  0.56593687  0.98310999  0.65482124  1
  Si  Si2  1  0.01689132  0.43406579  0.84520169  1
  Si  Si3  1  0.51689001  0.56593687  0.65482124  1
  Si  Si4  1  0.98310999  0.93406313  0.65482124  1
  Si  Si5  1  0.06593421  0.01689132  0.84520169  1
  Si  Si6  1  0.43406579  0.48310868  0.84520169  1
  Si  Si7  1  0.48310868  0.06593421  0.84520169  1
  Si  Si8  1  0.06593687  0.48310999  0.34517876  1
  Si  Si9  1  0.43406313  0.01689001  0.34517876  1
  Si  Si10  1  0.98310868  0.56593421  0.15479831  1
  Si  Si11  1  0.48310999  0.43406313  0.34517876  1
  Si  Si12  1  0.01689001  0.06593687  0.34517876  1
  Si  Si13  1  0.93406579  0.98310868  0.15479831  1
  Si  Si14  1  0.56593421  0.51689132  0.15479831  1
  Si  Si15  1  0.51689132  0.93406579  0.15479831  1
  O  O0  1  0.02532596  0.38554246  0.59086426  1
  O  O1  1  0.47467404  0.11445754  0.59086426  1
  O  O2  1  0.88554784  0.52532404  0.90914638  1
  O  O3  1  0.38554246  0.47467404  0.59086426  1
  O  O4  1  0.11445754  0.02532596  0.59086426  1
  O  O5  1  0.97467596  0.88554784  0.90914638  1
  O  O6  1  0.52532404  0.61445216  0.90914638  1
  O  O7  1  0.61445216  0.97467596  0.90914638  1
  O  O8  1  0.97467404  0.61445754  0.40913574  1
  O  O9  1  0.52532596  0.88554246  0.40913574  1
  O  O10  1  0.11445216  0.47467596  0.09085362  1
  O  O11  1  0.61445754  0.52532596  0.40913574  1
  O  O12  1  0.88554246  0.97467404  0.40913574  1
  O  O13  1  0.02532404  0.11445216  0.09085362  1
  O  O14  1  0.47467596  0.38554784  0.09085362  1
  O  O15  1  0.00275845  0.27949390  0.36265443  1
  O  O16  1  0.38554784  0.02532404  0.09085362  1
  O  O17  1  0.50275845  0.77949390  0.63734557  1
  O  O18  1  0.22050902  0.49723990  0.86266597  1
  O  O19  1  0.72050610  0.50275845  0.63734557  1
  O  O20  1  0.77949390  0.99724155  0.63734557  1
  O  O21  1  0.00276010  0.22050902  0.86266597  1
  O  O22  1  0.49723990  0.27949098  0.86266597  1
  O  O23  1  0.27949098  0.00276010  0.86266597  1
  O  O24  1  0.47075596  0.97076475  0.25000242  1
  O  O25  1  0.52923525  0.47075596  0.25000242  1
  O  O26  1  0.97076475  0.02924404  0.25000242  1
  O  O27  1  0.02924404  0.52923525  0.25000242  1
  O  O28  1  0.52924404  0.02923525  0.74999758  1
  O  O29  1  0.47076475  0.52924404  0.74999758  1
  O  O30  1  0.02923525  0.97075596  0.74999758  1
  O  O31  1  0.97075596  0.47076475  0.74999758  1
  O  O32  1  0.72050902  0.99723990  0.13733403  1
  O  O33  1  0.50276010  0.72050902  0.13733403  1
  O  O34  1  0.99723990  0.77949098  0.13733403  1
  O  O35  1  0.22050610  0.00275845  0.36265443  1
  O  O36  1  0.27949390  0.49724155  0.36265443  1
  O  O37  1  0.77949098  0.50276010  0.13733403  1
  O  O38  1  0.49724155  0.22050610  0.36265443  1
  O  O39  1  0.99724155  0.72050610  0.63734557  1
loop_
_geom_bond_atom_site_label_1
_geom_bond_atom_site_label_2
_geom_bond_distance
_geom_bond_site_symmetry_2
Ba0 O9 2.736621 1_555
Ba0 O3 2.736621 1_555
Ba0 O8 2.736621 1_455
Ba0 O4 2.736621 1_565
Ba0 O35 2.935968 1_565
Ba0 O39 2.935968 1_455
Ba0 O36 2.935968 1_555
Ba0 O17 2.935968 1_555
Ba1 O12 2.736621 1_545
Ba1 O11 2.736621 1_555
Ba1 O0 2.736621 1_655
Ba1 O1 2.736621 1_555
Ba1 O15 2.935968 1_655
Ba1 O20 2.935968 1_545
Ba1 O38 2.935968 1_555
Ba1 O19 2.935968 1_555
Ba2 O14 2.736532 1_555
Ba2 O7 2.736532 1_544
Ba2 O2 2.736532 1_554
Ba2 O13 2.736532 1_655
Ba2 O21 2.935832 1_654
Ba2 O37 2.935832 1_555
Ba2 O22 2.935832 1_554
Ba2 O32 2.935832 1_545
Ba3 O6 2.736532 1_554
Ba3 O10 2.736532 1_555
Ba3 O5 2.736532 1_454
Ba3 O16 2.736532 1_565
Ba3 O23 2.935832 1_564
Ba3 O33 2.935832 1_555
Ba3 O34 2.935832 1_455
Ba3 O18 2.935832 1_554
Fe0 O0 1.971497 1_555
Fe0 O3 1.971497 1_555
Fe0 O4 1.971497 1_555
Fe0 O1 1.971497 1_555
Fe1 O2 1.971528 1_555
Fe1 O5 1.971528 1_555
Fe1 O6 1.971528 1_555
Fe1 O7 1.971528 1_555
Fe2 O12 1.971497 1_555
Fe2 O11 1.971497 1_555
Fe2 O9 1.971497 1_555
Fe2 O8 1.971497 1_555
Fe3 O14 1.971528 1_555
Fe3 O16 1.971528 1_555
Fe3 O13 1.971528 1_555
Fe3 O10 1.971528 1_555
O0 Si0 1.587625 1_455
O1 Si1 1.587625 1_545
O2 Si2 1.587461 1_655
O3 Si3 1.587625 1_555
O4 Si4 1.587625 1_445
O5 Si5 1.587461 1_665
O6 Si6 1.587461 1_555
O7 Si7 1.587461 1_565
O8 Si8 1.587625 1_655
O9 Si9 1.587625 1_565
O10 Si10 1.587461 1_455
O11 Si11 1.587625 1_555
O12 Si12 1.587625 1_665
O13 Si13 1.587461 1_445
O14 Si14 1.587461 1_555
O15 Si8 1.626686 1_555
O15 Si12 1.632839 1_555
O16 Si15 1.587461 1_545
O17 Si1 1.626686 1_555
O17 Si3 1.632839 1_555
O18 Si2 1.626655 1_555
O18 Si6 1.632804 1_555
O19 Si3 1.626686 1_555
O19 Si0 1.632839 1_555
O20 Si4 1.626686 1_555
O20 Si1 1.632839 1_555
O21 Si5 1.626655 1_555
O21 Si2 1.632804 1_555
O22 Si6 1.626655 1_555
O22 Si7 1.632804 1_555
O23 Si7 1.626655 1_555
O23 Si5 1.632804 1_555
O24 Si9 1.606245 1_565
O24 Si15 1.606702 1_555
O25 Si11 1.606245 1_555
O25 Si14 1.606702 1_555
O26 Si12 1.606245 1_655
O26 Si13 1.606702 1_545
O27 Si8 1.606245 1_555
O27 Si10 1.606702 1_455
O28 Si1 1.606245 1_545
O28 Si7 1.606702 1_555
O29 Si3 1.606245 1_555
O29 Si6 1.606702 1_555
O30 Si4 1.606245 1_455
O30 Si5 1.606702 1_565
O31 Si0 1.606245 1_555
O31 Si2 1.606702 1_655
O32 Si15 1.626655 1_555
O32 Si13 1.632804 1_555
O33 Si14 1.626655 1_555
O33 Si15 1.632804 1_555
O34 Si13 1.626655 1_555
O34 Si10 1.632804 1_555
O35 Si12 1.626686 1_555
O35 Si9 1.632839 1_555
O36 Si11 1.626686 1_555
O36 Si8 1.632839 1_555
O37 Si10 1.626655 1_555
O37 Si14 1.632804 1_555
O38 Si9 1.626686 1_555
O38 Si11 1.632839 1_555
O39 Si0 1.626686 1_555
O39 Si4 1.632839 1_555
