# generated using pymatgen
data_La5P12Ir19
_symmetry_space_group_name_H-M   'P 1'
_cell_length_a   12.85023839
_cell_length_b   12.85023839
_cell_length_c   4.04629700
_cell_angle_alpha   90.00000000
_cell_angle_beta   90.00000000
_cell_angle_gamma   120.00000199
_symmetry_Int_Tables_number   1
_chemical_formula_structural   La5P12Ir19
_chemical_formula_sum   'La5 P12 Ir19'
_cell_volume   578.64306012
_cell_formula_units_Z   1
loop_
 _symmetry_equiv_pos_site_id
 _symmetry_equiv_pos_as_xyz
  1  'x, y, z'
loop_
 _atom_site_type_symbol
 _atom_site_label
 _atom_site_symmetry_multiplicity
 _atom_site_fract_x
 _atom_site_fract_y
 _atom_site_fract_z
 _atom_site_occupancy
  La  La0  1  0.00000000  0.81372000  0.50000000  1
  La  La1  1  0.18628000  0.18628000  0.50000000  1
  La  La2  1  0.81372000  0.00000000  0.50000000  1
  La  La3  1  0.33333300  0.66666700  0.00000000  1
  La  La4  1  0.66666700  0.33333300  0.00000000  1
  P  P0  1  0.00000000  0.18188700  0.00000000  1
  P  P1  1  0.81811300  0.81811300  0.00000000  1
  P  P2  1  0.18188700  0.00000000  0.00000000  1
  P  P3  1  0.51885300  0.68946400  0.50000000  1
  P  P4  1  0.31053600  0.82938900  0.50000000  1
  P  P5  1  0.17061100  0.48114700  0.50000000  1
  P  P6  1  0.48114700  0.17061100  0.50000000  1
  P  P7  1  0.68946400  0.51885300  0.50000000  1
  P  P8  1  0.82938900  0.31053600  0.50000000  1
  P  P9  1  0.00000000  0.63708500  0.00000000  1
  P  P10  1  0.36291500  0.36291500  0.00000000  1
  P  P11  1  0.63708500  0.00000000  0.00000000  1
  Ir  Ir0  1  0.00000000  0.28683600  0.50000000  1
  Ir  Ir1  1  0.71316400  0.71316400  0.50000000  1
  Ir  Ir2  1  0.28683600  0.00000000  0.50000000  1
  Ir  Ir3  1  0.62070600  0.80131400  0.00000000  1
  Ir  Ir4  1  0.19868600  0.81939200  0.00000000  1
  Ir  Ir5  1  0.18060800  0.37929400  0.00000000  1
  Ir  Ir6  1  0.37929400  0.18060800  0.00000000  1
  Ir  Ir7  1  0.80131400  0.62070600  0.00000000  1
  Ir  Ir8  1  0.81939200  0.19868600  0.00000000  1
  Ir  Ir9  1  0.50870100  0.87119500  0.50000000  1
  Ir  Ir10  1  0.12880500  0.63750600  0.50000000  1
  Ir  Ir11  1  0.36249400  0.49129900  0.50000000  1
  Ir  Ir12  1  0.49129900  0.36249400  0.50000000  1
  Ir  Ir13  1  0.87119500  0.50870100  0.50000000  1
  Ir  Ir14  1  0.63750600  0.12880500  0.50000000  1
  Ir  Ir15  1  0.00000000  0.00000000  0.00000000  1
  Ir  Ir16  1  0.00000000  0.45988000  0.00000000  1
  Ir  Ir17  1  0.54012000  0.54012000  0.00000000  1
  Ir  Ir18  1  0.45988000  0.00000000  0.00000000  1
loop_
_geom_bond_atom_site_label_1
_geom_bond_atom_site_label_2
_geom_bond_distance
_geom_bond_site_symmetry_2
La0 P9 3.040581 1_556
La0 P9 3.040581 1_555
La0 P2 3.113068 1_565
La0 P2 3.113068 1_566
La0 P1 3.113068 1_456
La0 P1 3.113068 1_455
La1 P10 3.040581 1_556
La1 P10 3.040581 1_555
La1 P0 3.113068 1_556
La1 P2 3.113068 1_555
La1 P0 3.113068 1_555
La1 P2 3.113068 1_556
La2 P11 3.040581 1_556
La2 P11 3.040581 1_555
La2 P0 3.113068 1_656
La2 P0 3.113068 1_655
La2 P1 3.113068 1_545
La2 P1 3.113068 1_546
La3 P4 3.027186 1_554
La3 P4 3.027186 1_555
La3 P5 3.027192 1_554
La3 P5 3.027192 1_555
La3 P3 3.027195 1_555
La3 P3 3.027195 1_554
La4 P8 3.027186 1_554
La4 P8 3.027186 1_555
La4 P6 3.027192 1_554
La4 P6 3.027192 1_555
La4 P7 3.027195 1_555
La4 P7 3.027195 1_554
Ir0 P5 2.359455 1_555
Ir0 P8 2.359455 1_455
Ir0 P0 2.431441 1_556
Ir0 P0 2.431441 1_555
Ir0 Ir5 2.851960 1_556
Ir0 Ir5 2.851960 1_555
Ir0 Ir8 2.851960 1_455
Ir0 Ir8 2.851960 1_456
Ir0 Ir16 3.006290 1_555
Ir0 Ir16 3.006290 1_556
Ir0 La2 3.239262 1_455
Ir0 La1 3.239262 1_555
Ir1 P3 2.359455 1_555
Ir1 P7 2.359455 1_555
Ir1 P1 2.431441 1_556
Ir1 P1 2.431441 1_555
Ir1 Ir3 2.851960 1_556
Ir1 Ir3 2.851960 1_555
Ir1 Ir7 2.851960 1_556
Ir1 Ir7 2.851960 1_555
Ir1 Ir17 3.006290 1_555
Ir1 Ir17 3.006290 1_556
Ir1 La2 3.239262 1_565
Ir1 La0 3.239262 1_655
Ir2 P6 2.359455 1_555
Ir2 P4 2.359455 1_545
Ir2 P2 2.431441 1_556
Ir2 P2 2.431441 1_555
Ir2 Ir6 2.851960 1_555
Ir2 Ir6 2.851960 1_556
Ir2 Ir4 2.851960 1_545
Ir2 Ir4 2.851960 1_546
Ir2 La0 3.239262 1_545
Ir2 La1 3.239262 1_555
Ir3 P1 2.435976 1_555
Ir3 P3 2.447615 1_554
Ir3 P3 2.447615 1_555
Ir3 P11 2.454702 1_565
Ir3 Ir9 2.874637 1_555
Ir3 Ir9 2.874637 1_554
Ir3 La3 3.200177 1_555
Ir3 La2 3.229704 1_564
Ir3 La2 3.229704 1_565
Ir4 P2 2.435976 1_565
Ir4 P4 2.447615 1_554
Ir4 P4 2.447615 1_555
Ir4 P9 2.454702 1_555
Ir4 La3 3.200166 1_555
Ir4 La0 3.229704 1_554
Ir4 La0 3.229704 1_555
Ir5 P0 2.435976 1_555
Ir5 P5 2.447615 1_555
Ir5 P5 2.447615 1_554
Ir5 P10 2.454702 1_555
Ir5 La3 3.200177 1_555
Ir5 La1 3.229704 1_555
Ir5 La1 3.229704 1_554
Ir6 P2 2.435976 1_555
Ir6 P6 2.447615 1_555
Ir6 P6 2.447615 1_554
Ir6 P10 2.454702 1_555
Ir6 La4 3.200177 1_555
Ir6 La1 3.229704 1_555
Ir6 La1 3.229704 1_554
Ir7 P1 2.435976 1_555
Ir7 P7 2.447615 1_555
Ir7 P7 2.447615 1_554
Ir7 P9 2.454702 1_655
Ir7 La4 3.200177 1_555
Ir7 La0 3.229704 1_655
Ir7 La0 3.229704 1_654
Ir8 P0 2.435976 1_655
Ir8 P8 2.447615 1_554
Ir8 P8 2.447615 1_555
Ir8 P11 2.454702 1_555
Ir8 La4 3.200166 1_555
Ir8 La2 3.229704 1_555
Ir8 La2 3.229704 1_554
Ir9 P4 2.324886 1_555
Ir9 P3 2.403172 1_555
Ir9 P11 2.612242 1_566
Ir9 P11 2.612242 1_565
Ir9 La3 3.186898 1_555
Ir9 La3 3.186898 1_556
Ir9 La2 3.408084 1_565
Ir10 P5 2.324886 1_555
Ir10 P4 2.403172 1_555
Ir10 P9 2.612242 1_555
Ir10 P9 2.612242 1_556
Ir10 Ir13 2.866847 1_455
Ir10 Ir4 2.874637 1_555
Ir10 Ir4 2.874637 1_556
Ir10 Ir16 2.874841 1_556
Ir10 Ir16 2.874841 1_555
Ir10 La3 3.186894 1_556
Ir10 La3 3.186894 1_555
Ir10 La0 3.408084 1_555
Ir11 P3 2.324886 1_555
Ir11 P5 2.403172 1_555
Ir11 P10 2.612242 1_556
Ir11 P10 2.612242 1_555
Ir11 Ir12 2.866847 1_555
Ir11 Ir5 2.874636 1_555
Ir11 Ir5 2.874636 1_556
Ir11 Ir17 2.874841 1_555
Ir11 Ir17 2.874841 1_556
Ir11 La3 3.186904 1_556
Ir11 La3 3.186904 1_555
Ir11 La1 3.408084 1_555
Ir12 P7 2.324886 1_555
Ir12 P6 2.403172 1_555
Ir12 P10 2.612242 1_556
Ir12 P10 2.612242 1_555
Ir12 Ir6 2.874636 1_556
Ir12 Ir6 2.874636 1_555
Ir12 Ir17 2.874841 1_555
Ir12 Ir17 2.874841 1_556
Ir12 La4 3.186904 1_556
Ir12 La4 3.186904 1_555
Ir12 La1 3.408084 1_555
Ir13 P8 2.324886 1_555
Ir13 P7 2.403172 1_555
Ir13 P9 2.612242 1_656
Ir13 P9 2.612242 1_655
Ir13 Ir7 2.874637 1_556
Ir13 Ir7 2.874637 1_555
Ir13 Ir16 2.874841 1_656
Ir13 Ir16 2.874841 1_655
Ir13 La4 3.186898 1_555
Ir13 La4 3.186898 1_556
Ir13 La0 3.408084 1_655
Ir14 P6 2.324886 1_555
Ir14 P8 2.403172 1_555
Ir14 P11 2.612242 1_556
Ir14 P11 2.612242 1_555
Ir14 Ir9 2.866847 1_545
Ir14 Ir8 2.874637 1_556
Ir14 Ir8 2.874637 1_555
Ir14 Ir18 2.874841 1_555
Ir14 Ir18 2.874841 1_556
Ir14 La4 3.186894 1_555
Ir14 La4 3.186894 1_556
Ir14 La2 3.408084 1_555
Ir15 P1 2.337291 1_445
Ir15 P0 2.337291 1_555
Ir15 P2 2.337291 1_555
Ir15 La1 3.134188 1_555
Ir15 La1 3.134188 1_554
Ir15 La0 3.134188 1_545
Ir15 La0 3.134188 1_544
Ir15 La2 3.134188 1_455
Ir15 La2 3.134188 1_454
Ir16 P9 2.277126 1_555
Ir16 P8 2.894002 1_455
Ir16 P8 2.894002 1_454
Ir16 P5 2.894002 1_555
Ir16 P5 2.894002 1_554
Ir16 Ir8 2.976927 1_455
Ir16 Ir5 2.976927 1_555
Ir17 P10 2.277126 1_555
Ir17 P3 2.894002 1_555
Ir17 P3 2.894002 1_554
Ir17 P7 2.894002 1_554
Ir17 P7 2.894002 1_555
Ir17 Ir3 2.976927 1_555
Ir17 Ir7 2.976927 1_555
Ir18 P11 2.277126 1_555
Ir18 Ir9 2.874841 1_544
Ir18 Ir9 2.874841 1_545
Ir18 P4 2.894002 1_545
Ir18 P4 2.894002 1_544
Ir18 P6 2.894002 1_554
Ir18 P6 2.894002 1_555
Ir18 Ir4 2.976927 1_545
Ir18 Ir6 2.976927 1_555
Ir18 Ir2 3.006290 1_554
Ir18 Ir2 3.006290 1_555
