# generated using pymatgen
data_CuP7I
_symmetry_space_group_name_H-M   'P 1'
_cell_length_a   9.84757400
_cell_length_b   9.97824100
_cell_length_c   16.59953820
_cell_angle_alpha   74.77985565
_cell_angle_beta   90.00000000
_cell_angle_gamma   90.00000000
_symmetry_Int_Tables_number   1
_chemical_formula_structural   CuP7I
_chemical_formula_sum   'Cu8 P56 I8'
_cell_volume   1573.88309479
_cell_formula_units_Z   8
loop_
 _symmetry_equiv_pos_site_id
 _symmetry_equiv_pos_as_xyz
  1  'x, y, z'
loop_
 _atom_site_type_symbol
 _atom_site_label
 _atom_site_symmetry_multiplicity
 _atom_site_fract_x
 _atom_site_fract_y
 _atom_site_fract_z
 _atom_site_occupancy
  Cu  Cu0  1  0.14175800  0.69162000  0.17877700  1
  Cu  Cu1  1  0.64175800  0.30838000  0.32122300  1
  Cu  Cu2  1  0.85824200  0.30838000  0.82122300  1
  Cu  Cu3  1  0.35824200  0.69162000  0.67877700  1
  Cu  Cu4  1  0.42618700  0.04135200  0.11246100  1
  Cu  Cu5  1  0.92618700  0.95864800  0.38753900  1
  Cu  Cu6  1  0.57381300  0.95864800  0.88753900  1
  Cu  Cu7  1  0.07381300  0.04135200  0.61246100  1
  P  P0  1  0.07597900  0.16570900  0.18905000  1
  P  P1  1  0.57597900  0.83429100  0.31095000  1
  P  P2  1  0.92402100  0.83429100  0.81095000  1
  P  P3  1  0.42402100  0.16570900  0.68905000  1
  P  P4  1  0.34191300  0.17986400  0.99046400  1
  P  P5  1  0.84191300  0.82013600  0.50953600  1
  P  P6  1  0.65808700  0.82013600  0.00953600  1
  P  P7  1  0.15808700  0.17986400  0.49046400  1
  P  P8  1  0.81515500  0.54175900  0.14572100  1
  P  P9  1  0.31515500  0.45824100  0.35427900  1
  P  P10  1  0.18484500  0.45824100  0.85427900  1
  P  P11  1  0.68484500  0.54175900  0.64572100  1
  P  P12  1  0.53487600  0.69838100  0.22702500  1
  P  P13  1  0.03487600  0.30161900  0.27297500  1
  P  P14  1  0.46512400  0.30161900  0.77297500  1
  P  P15  1  0.96512400  0.69838100  0.72702500  1
  P  P16  1  0.82451700  0.91941900  0.16371300  1
  P  P17  1  0.32451700  0.08058100  0.33628700  1
  P  P18  1  0.17548300  0.08058100  0.83628700  1
  P  P19  1  0.67548300  0.91941900  0.66371300  1
  P  P20  1  0.11454900  0.14687000  0.00103900  1
  P  P21  1  0.61454900  0.85313000  0.49896100  1
  P  P22  1  0.88545100  0.85313000  0.99896100  1
  P  P23  1  0.38545100  0.14687000  0.50103900  1
  P  P24  1  0.35427200  0.38096900  0.16269600  1
  P  P25  1  0.85427200  0.61903100  0.33730400  1
  P  P26  1  0.64572800  0.61903100  0.83730400  1
  P  P27  1  0.14572800  0.38096900  0.66269600  1
  P  P28  1  0.22845700  0.45820800  0.04807900  1
  P  P29  1  0.72845700  0.54179200  0.45192100  1
  P  P30  1  0.77154300  0.54179200  0.95192100  1
  P  P31  1  0.27154300  0.45820800  0.54807900  1
  P  P32  1  0.05133900  0.30734000  0.06351600  1
  P  P33  1  0.55133900  0.69266000  0.43648400  1
  P  P34  1  0.94866100  0.69266000  0.93648400  1
  P  P35  1  0.44866100  0.30734000  0.56351600  1
  P  P36  1  0.30406300  0.15391200  0.19702300  1
  P  P37  1  0.80406300  0.84608800  0.30297700  1
  P  P38  1  0.69593700  0.84608800  0.80297700  1
  P  P39  1  0.19593700  0.15391200  0.69702300  1
  P  P40  1  0.19955100  0.46448900  0.23660900  1
  P  P41  1  0.69955100  0.53551100  0.26339100  1
  P  P42  1  0.80044900  0.53551100  0.76339100  1
  P  P43  1  0.30044900  0.46448900  0.73660900  1
  P  P44  1  0.64487800  0.59118500  0.05110200  1
  P  P45  1  0.14487800  0.40881500  0.44889800  1
  P  P46  1  0.35512200  0.40881500  0.94889800  1
  P  P47  1  0.85512200  0.59118500  0.55110200  1
  P  P48  1  0.60932100  0.88497500  0.12680800  1
  P  P49  1  0.10932100  0.11502500  0.37319200  1
  P  P50  1  0.39067900  0.11502500  0.87319200  1
  P  P51  1  0.89067900  0.88497500  0.62680800  1
  P  P52  1  0.92896000  0.74063400  0.12960600  1
  P  P53  1  0.42896000  0.25936600  0.37039400  1
  P  P54  1  0.07104000  0.25936600  0.87039400  1
  P  P55  1  0.57104000  0.74063400  0.62960600  1
  I  I0  1  0.29845100  0.81771000  0.05255500  1
  I  I1  1  0.79845100  0.18229000  0.44744500  1
  I  I2  1  0.70154900  0.18229000  0.94744500  1
  I  I3  1  0.20154900  0.81771000  0.55255500  1
  I  I4  1  0.68461100  0.20486400  0.19412300  1
  I  I5  1  0.18461100  0.79513600  0.30587700  1
  I  I6  1  0.31538900  0.79513600  0.80587700  1
  I  I7  1  0.81538900  0.20486400  0.69412300  1
loop_
_geom_bond_atom_site_label_1
_geom_bond_atom_site_label_2
_geom_bond_distance
_geom_bond_site_symmetry_2
Cu0 P52 2.255462 1_455
Cu0 P40 2.289004 1_555
Cu0 I5 2.615428 1_555
Cu0 I0 2.640040 1_555
Cu1 P53 2.255462 1_555
Cu1 P41 2.289004 1_555
Cu1 I4 2.615428 1_555
Cu1 I1 2.640040 1_555
Cu2 P54 2.255462 1_655
Cu2 P42 2.289004 1_555
Cu2 I7 2.615428 1_555
Cu2 I2 2.640040 1_555
Cu3 P55 2.255462 1_555
Cu3 P43 2.289004 1_555
Cu3 I6 2.615428 1_555
Cu3 I3 2.640040 1_555
Cu4 P4 2.287000 1_554
Cu4 P36 2.346466 1_555
Cu4 P48 2.355566 1_545
Cu4 I0 2.952307 1_545
Cu5 P5 2.287000 1_555
Cu5 P37 2.346466 1_555
Cu5 P49 2.355566 1_665
Cu5 I1 2.952307 1_565
Cu6 P6 2.287000 1_556
Cu6 P38 2.346466 1_555
Cu6 P50 2.355566 1_565
Cu6 I2 2.952307 1_565
Cu7 P7 2.287000 1_555
Cu7 P39 2.346466 1_555
Cu7 P51 2.355566 1_445
Cu7 I3 2.952307 1_545
P0 P32 2.202749 1_555
P0 P13 2.221644 1_555
P0 P36 2.251231 1_555
P1 P33 2.202749 1_555
P1 P12 2.221644 1_555
P1 P37 2.251231 1_555
P2 P34 2.202749 1_555
P2 P38 2.251231 1_555
P3 P35 2.202749 1_555
P3 P39 2.251231 1_555
P4 P46 2.210074 1_555
P4 P50 2.258312 1_555
P5 P51 2.258312 1_555
P10 P54 2.233103 1_555
P10 P43 2.247488 1_555
P10 P46 2.261661 1_555
P11 P55 2.233103 1_555
P11 P42 2.247488 1_555
P11 P47 2.261661 1_555
P12 P41 2.262782 1_555
P12 P48 2.268298 1_555
P13 P40 2.262782 1_555
P13 P49 2.268298 1_555
P14 P3 2.221644 1_555
P14 P43 2.262782 1_555
P14 P50 2.268298 1_555
P15 P2 2.221644 1_555
P15 P42 2.262782 1_555
P15 P51 2.268298 1_555
P16 P37 2.243184 1_555
P16 P52 2.256368 1_555
P16 P48 2.257164 1_555
P17 P36 2.243184 1_555
P17 P53 2.256368 1_555
P17 P49 2.257164 1_555
P18 P39 2.243184 1_555
P18 P54 2.256368 1_555
P18 P50 2.257164 1_555
P19 P38 2.243184 1_555
P19 P55 2.256368 1_555
P19 P51 2.257164 1_555
P20 P54 2.206462 1_554
P20 P32 2.213322 1_555
P20 P4 2.263163 1_554
P21 P55 2.206462 1_555
P21 P33 2.213322 1_555
P21 P5 2.263163 1_555
P22 P52 2.206462 1_556
P22 P34 2.213322 1_555
P22 P6 2.263163 1_556
P23 P53 2.206462 1_555
P23 P35 2.213322 1_555
P23 P7 2.263163 1_555
P24 P28 2.231362 1_555
P24 P36 2.241515 1_555
P24 P40 2.249037 1_555
P25 P29 2.231362 1_555
P25 P37 2.241515 1_555
P25 P41 2.249037 1_555
P26 P30 2.231362 1_555
P26 P38 2.241515 1_555
P26 P42 2.249037 1_555
P27 P31 2.231362 1_555
P27 P39 2.241515 1_555
P27 P43 2.249037 1_555
P28 P46 2.221555 1_554
P28 P32 2.274096 1_555
P29 P47 2.221555 1_555
P29 P33 2.274096 1_555
P30 P44 2.221555 1_556
P30 P34 2.274096 1_555
P31 P45 2.221555 1_555
P31 P35 2.274096 1_555
P40 P9 2.247488 1_555
P41 P8 2.247488 1_555
P44 P6 2.210074 1_555
P44 P8 2.261661 1_555
P45 P7 2.210074 1_555
P45 P9 2.261661 1_555
P47 P5 2.210074 1_555
P48 P6 2.258312 1_555
P49 P7 2.258312 1_555
P52 P8 2.233103 1_555
P53 P9 2.233103 1_555
