# generated using pymatgen
data_Ge3Os2
_symmetry_space_group_name_H-M   'P 1'
_cell_length_a   5.77654176
_cell_length_b   9.26105943
_cell_length_c   11.54499700
_cell_angle_alpha   90.00000000
_cell_angle_beta   90.00000000
_cell_angle_gamma   90.00000000
_symmetry_Int_Tables_number   1
_chemical_formula_structural   Ge3Os2
_chemical_formula_sum   'Ge24 Os16'
_cell_volume   617.62151005
_cell_formula_units_Z   8
loop_
 _symmetry_equiv_pos_site_id
 _symmetry_equiv_pos_as_xyz
  1  'x, y, z'
loop_
 _atom_site_type_symbol
 _atom_site_label
 _atom_site_symmetry_multiplicity
 _atom_site_fract_x
 _atom_site_fract_y
 _atom_site_fract_z
 _atom_site_occupancy
  Ge  Ge0  1  0.59887087  0.10402393  0.63222720  1
  Ge  Ge1  1  0.09887087  0.39597607  0.86777280  1
  Ge  Ge2  1  0.90112913  0.10402393  0.36777280  1
  Ge  Ge3  1  0.40112913  0.39597607  0.13222720  1
  Ge  Ge4  1  0.40112913  0.89597607  0.36777280  1
  Ge  Ge5  1  0.90112913  0.60402393  0.13222720  1
  Ge  Ge6  1  0.09887087  0.89597607  0.63222720  1
  Ge  Ge7  1  0.59887087  0.60402393  0.86777280  1
  Ge  Ge8  1  0.90939069  0.06584892  0.82171888  1
  Ge  Ge9  1  0.40939069  0.43415108  0.67828112  1
  Ge  Ge10  1  0.59060931  0.06584892  0.17828112  1
  Ge  Ge11  1  0.09060931  0.43415108  0.32171888  1
  Ge  Ge12  1  0.09060931  0.93415108  0.17828112  1
  Ge  Ge13  1  0.59060931  0.56584892  0.32171888  1
  Ge  Ge14  1  0.40939069  0.93415108  0.82171888  1
  Ge  Ge15  1  0.90939069  0.56584892  0.67828112  1
  Ge  Ge16  1  0.54341017  0.71230485  0.57371709  1
  Ge  Ge17  1  0.04341017  0.78769515  0.92628291  1
  Ge  Ge18  1  0.95658983  0.71230485  0.42628291  1
  Ge  Ge19  1  0.45658983  0.78769515  0.07371709  1
  Ge  Ge20  1  0.45658983  0.28769515  0.42628291  1
  Ge  Ge21  1  0.95658983  0.21230485  0.07371709  1
  Ge  Ge22  1  0.04341017  0.28769515  0.57371709  1
  Ge  Ge23  1  0.54341017  0.21230485  0.92628291  1
  Os  Os0  1  0.75000000  0.92445729  0.50000000  1
  Os  Os1  1  0.25000000  0.57554271  -0.00000000  1
  Os  Os2  1  0.25000000  0.07554271  0.50000000  1
  Os  Os3  1  0.75000000  0.42445729  -0.00000000  1
  Os  Os4  1  0.75000000  0.46094645  0.50000000  1
  Os  Os5  1  0.25000000  0.03905355  -0.00000000  1
  Os  Os6  1  0.25000000  0.53905355  0.50000000  1
  Os  Os7  1  0.75000000  0.96094645  -0.00000000  1
  Os  Os8  1  0.75907806  0.31310918  0.74518120  1
  Os  Os9  1  0.25907806  0.18689082  0.75481880  1
  Os  Os10  1  0.74092194  0.31310918  0.25481880  1
  Os  Os11  1  0.24092194  0.18689082  0.24518120  1
  Os  Os12  1  0.24092194  0.68689082  0.25481880  1
  Os  Os13  1  0.74092194  0.81310918  0.24518120  1
  Os  Os14  1  0.25907806  0.68689082  0.74518120  1
  Os  Os15  1  0.75907806  0.81310918  0.75481880  1
loop_
_geom_bond_atom_site_label_1
_geom_bond_atom_site_label_2
_geom_bond_distance
_geom_bond_site_symmetry_2
Ge0 Os0 2.420335 1_545
Ge0 Os8 2.511266 1_555
Ge0 Os9 2.538657 1_555
Ge0 Os2 2.541902 1_555
Ge1 Os1 2.420335 1_556
Ge1 Os9 2.511266 1_555
Ge1 Os8 2.538657 1_455
Ge1 Os3 2.541902 1_456
Ge2 Os0 2.420335 1_545
Ge2 Os10 2.511266 1_555
Ge2 Os11 2.538657 1_655
Ge2 Os2 2.541902 1_655
Ge3 Os1 2.420335 1_555
Ge3 Os11 2.511266 1_555
Ge3 Os10 2.538657 1_555
Ge3 Os3 2.541902 1_555
Ge4 Os2 2.420335 1_565
Ge4 Os12 2.511266 1_555
Ge4 Os13 2.538657 1_555
Ge4 Os0 2.541902 1_555
Ge5 Os3 2.420335 1_555
Ge5 Os13 2.511266 1_555
Ge5 Os12 2.538657 1_655
Ge5 Os1 2.541902 1_655
Ge6 Os2 2.420335 1_565
Ge6 Os14 2.511266 1_555
Ge6 Os15 2.538657 1_455
Ge6 Os0 2.541902 1_455
Ge7 Os3 2.420335 1_556
Ge7 Os15 2.511266 1_555
Ge7 Os14 2.538657 1_555
Ge7 Os1 2.541902 1_556
Ge8 Os9 2.435870 1_655
Ge8 Os7 2.455194 1_546
Ge8 Os8 2.603522 1_555
Ge8 Os15 2.613245 1_545
Ge8 Os5 2.858185 1_656
Ge9 Os8 2.435870 1_555
Ge9 Os6 2.455194 1_555
Ge9 Os9 2.603522 1_555
Ge9 Os14 2.613245 1_555
Ge9 Os4 2.858185 1_555
Ge10 Os11 2.435870 1_555
Ge10 Os7 2.455194 1_545
Ge10 Os10 2.603522 1_555
Ge10 Os13 2.613245 1_545
Ge10 Os5 2.858185 1_555
Ge11 Os10 2.435870 1_455
Ge11 Os6 2.455194 1_555
Ge11 Os11 2.603522 1_555
Ge11 Os12 2.613245 1_555
Ge11 Os4 2.858185 1_455
Ge12 Os13 2.435870 1_455
Ge12 Os5 2.455194 1_565
Ge12 Os12 2.603522 1_555
Ge12 Os11 2.613245 1_565
Ge12 Os7 2.858185 1_455
Ge13 Os12 2.435870 1_555
Ge13 Os4 2.455194 1_555
Ge13 Os13 2.603522 1_555
Ge13 Os10 2.613245 1_555
Ge13 Os6 2.858185 1_555
Ge14 Os15 2.435870 1_555
Ge14 Os5 2.455194 1_566
Ge14 Os14 2.603522 1_555
Ge14 Os9 2.613245 1_565
Ge14 Os7 2.858185 1_556
Ge15 Os14 2.435870 1_655
Ge15 Os4 2.455194 1_555
Ge15 Os15 2.603522 1_555
Ge15 Os8 2.613245 1_555
Ge15 Os6 2.858185 1_655
Ge16 Os0 2.451269 1_555
Ge16 Os6 2.484225 1_555
Ge16 Os14 2.582961 1_555
Ge16 Os15 2.606742 1_555
Ge16 Os4 2.750875 1_555
Ge17 Os1 2.451269 1_556
Ge17 Os7 2.484225 1_456
Ge17 Os15 2.582961 1_455
Ge17 Os14 2.606742 1_555
Ge17 Os5 2.750875 1_566
Ge18 Os0 2.451269 1_555
Ge18 Os6 2.484225 1_655
Ge18 Os12 2.582961 1_655
Ge18 Os13 2.606742 1_555
Ge18 Os4 2.750875 1_555
Ge19 Os1 2.451269 1_555
Ge19 Os7 2.484225 1_555
Ge19 Os13 2.582961 1_555
Ge19 Os12 2.606742 1_555
Ge19 Os5 2.750875 1_565
Ge20 Os2 2.451269 1_555
Ge20 Os4 2.484225 1_555
Ge20 Os10 2.582961 1_555
Ge20 Os11 2.606742 1_555
Ge20 Os6 2.750875 1_555
Ge21 Os3 2.451269 1_555
Ge21 Os5 2.484225 1_655
Ge21 Os11 2.582961 1_655
Ge21 Os10 2.606742 1_555
Ge21 Os7 2.750875 1_545
Ge22 Os2 2.451269 1_555
Ge22 Os4 2.484225 1_455
Ge22 Os8 2.582961 1_455
Ge22 Os9 2.606742 1_555
Ge22 Os6 2.750875 1_555
Ge23 Os3 2.451269 1_556
Ge23 Os5 2.484225 1_556
Ge23 Os9 2.582961 1_555
Ge23 Os8 2.606742 1_555
Ge23 Os7 2.750875 1_546
