# generated using pymatgen
data_Ca(AlS2)2
_symmetry_space_group_name_H-M   'P 1'
_cell_length_a   14.32597878
_cell_length_b   11.85515436
_cell_length_c   11.75970548
_cell_angle_alpha   74.69425687
_cell_angle_beta   52.95634769
_cell_angle_gamma   52.34939545
_symmetry_Int_Tables_number   1
_chemical_formula_structural   Ca(AlS2)2
_chemical_formula_sum   'Ca8 Al16 S32'
_cell_volume   1244.94827690
_cell_formula_units_Z   8
loop_
 _symmetry_equiv_pos_site_id
 _symmetry_equiv_pos_as_xyz
  1  'x, y, z'
loop_
 _atom_site_type_symbol
 _atom_site_label
 _atom_site_symmetry_multiplicity
 _atom_site_fract_x
 _atom_site_fract_y
 _atom_site_fract_z
 _atom_site_occupancy
  Ca  Ca0  1  0.99819800  0.99819800  0.50180200  1
  Ca  Ca1  1  0.50180200  0.50180200  0.99819800  1
  Ca  Ca2  1  0.25180200  0.25180200  0.74819800  1
  Ca  Ca3  1  0.74819800  0.74819800  0.25180200  1
  Ca  Ca4  1  0.75000000  0.75000000  0.75000000  1
  Ca  Ca5  1  0.50000000  0.50000000  0.50000000  1
  Ca  Ca6  1  0.25000000  0.25000000  0.25000000  1
  Ca  Ca7  1  0.00000000  0.00000000  0.00000000  1
  Al  Al0  1  0.73524200  0.01363700  0.99112800  1
  Al  Al1  1  0.25999300  0.99112800  0.01363700  1
  Al  Al2  1  0.99112800  0.25999300  0.73524200  1
  Al  Al3  1  0.01363700  0.73524200  0.25999300  1
  Al  Al4  1  0.51475800  0.23636300  0.25887200  1
  Al  Al5  1  0.99000700  0.25887200  0.23636300  1
  Al  Al6  1  0.25887200  0.99000700  0.51475800  1
  Al  Al7  1  0.23636300  0.51475800  0.99000700  1
  Al  Al8  1  0.59440100  0.15589200  0.76276100  1
  Al  Al9  1  0.48694700  0.76276100  0.15589200  1
  Al  Al10  1  0.76276100  0.48694700  0.59440100  1
  Al  Al11  1  0.15589200  0.59440100  0.48694700  1
  Al  Al12  1  0.65560000  0.09410800  0.48723900  1
  Al  Al13  1  0.76305300  0.48723900  0.09410800  1
  Al  Al14  1  0.48723900  0.76305300  0.65559900  1
  Al  Al15  1  0.09410800  0.65559900  0.76305300  1
  S  S0  1  0.31177400  0.44006000  0.27981700  1
  S  S1  1  0.96834800  0.27981700  0.44006000  1
  S  S2  1  0.27981700  0.96834800  0.31177400  1
  S  S3  1  0.44006000  0.31177400  0.96834800  1
  S  S4  1  0.93822600  0.80994000  0.97018300  1
  S  S5  1  0.28165200  0.97018300  0.80994000  1
  S  S6  1  0.97018300  0.28165200  0.93822600  1
  S  S7  1  0.80994000  0.93822600  0.28165200  1
  S  S8  1  0.04241100  0.03957700  0.20805600  1
  S  S9  1  0.70995600  0.20805600  0.03957700  1
  S  S10  1  0.20805600  0.70995600  0.04241100  1
  S  S11  1  0.03957700  0.04241100  0.70995600  1
  S  S12  1  0.20758900  0.21042300  0.04194400  1
  S  S13  1  0.54004400  0.04194400  0.21042300  1
  S  S14  1  0.04194400  0.54004400  0.20758900  1
  S  S15  1  0.21042300  0.20758900  0.54004400  1
  S  S16  1  0.54129300  0.53950800  0.20843200  1
  S  S17  1  0.71076700  0.20843200  0.53950800  1
  S  S18  1  0.20843200  0.71076700  0.54129300  1
  S  S19  1  0.53950800  0.54129300  0.71076700  1
  S  S20  1  0.70870700  0.71049200  0.04156800  1
  S  S21  1  0.53923300  0.04156800  0.71049200  1
  S  S22  1  0.04156800  0.53923300  0.70870700  1
  S  S23  1  0.71049200  0.70870700  0.53923300  1
  S  S24  1  0.97192500  0.77604400  0.46734000  1
  S  S25  1  0.78469100  0.46734000  0.77604400  1
  S  S26  1  0.46734000  0.78469100  0.97192500  1
  S  S27  1  0.77604400  0.97192500  0.78469100  1
  S  S28  1  0.27807500  0.47395600  0.78266000  1
  S  S29  1  0.46530900  0.78266000  0.47395600  1
  S  S30  1  0.78266000  0.46530900  0.27807500  1
  S  S31  1  0.47395600  0.27807500  0.46530900  1
loop_
_geom_bond_atom_site_label_1
_geom_bond_atom_site_label_2
_geom_bond_distance
_geom_bond_site_symmetry_2
Ca0 S24 3.033220 1_555
Ca0 S27 3.033220 1_555
Ca0 S2 3.034246 1_655
Ca0 S1 3.034247 1_565
Ca0 S18 3.034752 1_655
Ca0 S17 3.034752 1_565
Ca0 S8 3.069736 1_665
Ca0 S11 3.069736 1_665
Ca1 S26 3.033220 1_555
Ca1 S25 3.033220 1_555
Ca1 S0 3.034252 1_556
Ca1 S3 3.034258 1_555
Ca1 S19 3.034752 1_555
Ca1 S16 3.034752 1_556
Ca1 S10 3.069736 1_556
Ca1 S9 3.069736 1_556
Ca2 S31 3.033220 1_555
Ca2 S28 3.033220 1_555
Ca2 S6 3.034246 1_455
Ca2 S5 3.034247 1_545
Ca2 S21 3.034752 1_555
Ca2 S22 3.034752 1_555
Ca2 S12 3.069736 1_556
Ca2 S15 3.069736 1_555
Ca3 S30 3.033220 1_555
Ca3 S29 3.033220 1_555
Ca3 S4 3.034252 1_554
Ca3 S7 3.034258 1_555
Ca3 S23 3.034752 1_555
Ca3 S20 3.034752 1_555
Ca3 S14 3.069736 1_655
Ca3 S13 3.069736 1_565
Ca4 S25 3.029329 1_555
Ca4 S26 3.029329 1_555
Ca4 S27 3.029329 1_555
Ca4 S24 3.029329 1_555
Ca4 S22 3.061456 1_655
Ca4 S23 3.061456 1_555
Ca4 S20 3.061456 1_556
Ca4 S21 3.061456 1_565
Ca5 S30 3.029329 1_555
Ca5 S29 3.029329 1_555
Ca5 S28 3.029329 1_555
Ca5 S31 3.029329 1_555
Ca5 S16 3.061456 1_555
Ca5 S18 3.061456 1_555
Ca5 S17 3.061456 1_555
Ca5 S19 3.061456 1_555
Ca6 S0 3.034803 1_555
Ca6 S3 3.034809 1_554
Ca6 S2 3.034815 1_545
Ca6 S1 3.034815 1_455
Ca6 S13 3.053016 1_555
Ca6 S14 3.053016 1_555
Ca6 S15 3.053016 1_555
Ca6 S12 3.053016 1_555
Ca7 S4 3.034803 1_444
Ca7 S7 3.034809 1_445
Ca7 S6 3.034815 1_454
Ca7 S5 3.034815 1_544
Ca7 S9 3.053016 1_455
Ca7 S11 3.053016 1_554
Ca7 S10 3.053016 1_545
Ca7 S8 3.053016 1_555
Al0 S27 2.247348 1_545
Al0 S9 2.278780 1_556
Al0 S13 2.281361 1_556
Al0 S4 2.284811 1_545
Al1 S26 2.247348 1_554
Al1 S8 2.278780 1_565
Al1 S12 2.281361 1_565
Al1 S5 2.284803 1_554
Al2 S25 2.247348 1_555
Al2 S11 2.278780 1_655
Al2 S15 2.281361 1_655
Al2 S6 2.284815 1_555
Al3 S24 2.247348 1_455
Al3 S10 2.278780 1_555
Al3 S14 2.281361 1_555
Al3 S7 2.284807 1_455
Al4 S31 2.247348 1_555
Al4 S13 2.278780 1_555
Al4 S9 2.281361 1_555
Al4 S0 2.284811 1_555
Al5 S30 2.247348 1_555
Al5 S12 2.278780 1_655
Al5 S8 2.281361 1_655
Al5 S1 2.284803 1_555
Al6 S29 2.247348 1_555
Al6 S15 2.278780 1_565
Al6 S11 2.281361 1_565
Al6 S2 2.284815 1_555
Al7 S28 2.247348 1_555
Al7 S14 2.278780 1_556
Al7 S10 2.281361 1_556
Al7 S3 2.284807 1_555
Al8 S3 2.252813 1_555
Al8 S27 2.274366 1_545
Al8 S21 2.274448 1_555
Al8 S17 2.278535 1_555
Al9 S2 2.252818 1_555
Al9 S26 2.274375 1_554
Al9 S20 2.274436 1_555
Al9 S16 2.278538 1_555
Al10 S1 2.252825 1_555
Al10 S25 2.274363 1_555
Al10 S23 2.274438 1_555
Al10 S19 2.278540 1_555
Al11 S0 2.252829 1_555
Al11 S24 2.274373 1_455
Al11 S22 2.274441 1_555
Al11 S18 2.278527 1_555
Al12 S7 2.252815 1_545
Al12 S31 2.274375 1_555
Al12 S17 2.274436 1_555
Al12 S21 2.278538 1_555
Al13 S6 2.252818 1_554
Al13 S30 2.274375 1_555
Al13 S16 2.274436 1_555
Al13 S20 2.278538 1_555
Al14 S5 2.252825 1_555
Al14 S29 2.274363 1_555
Al14 S19 2.274438 1_555
Al14 S23 2.278540 1_555
Al15 S4 2.252829 1_455
Al15 S28 2.274373 1_555
Al15 S18 2.274441 1_555
Al15 S22 2.278527 1_555
