# generated using pymatgen
data_Ba6Ti2Nb10Si8O51
_symmetry_space_group_name_H-M   'P 1'
_cell_length_a   12.03307322
_cell_length_b   12.03307322
_cell_length_c   9.12137306
_cell_angle_alpha   67.87368188
_cell_angle_beta   67.87368188
_cell_angle_gamma   81.85743716
_symmetry_Int_Tables_number   1
_chemical_formula_structural   Ba6Ti2Nb10Si8O51
_chemical_formula_sum   'Ba6 Ti2 Nb10 Si8 O51'
_cell_volume   1133.36264824
_cell_formula_units_Z   1
loop_
 _symmetry_equiv_pos_site_id
 _symmetry_equiv_pos_as_xyz
  1  'x, y, z'
loop_
 _atom_site_type_symbol
 _atom_site_label
 _atom_site_symmetry_multiplicity
 _atom_site_fract_x
 _atom_site_fract_y
 _atom_site_fract_z
 _atom_site_occupancy
  Ba  Ba0  1  0.94606700  0.94606700  0.00012900  1
  Ba  Ba1  1  0.55008300  0.55008300  0.40588400  1
  Ba  Ba2  1  0.75294800  0.75294800  0.58964200  1
  Ba  Ba3  1  0.44718400  0.44718400  0.99968800  1
  Ba  Ba4  1  0.04771800  0.04771800  0.40980100  1
  Ba  Ba5  1  0.25247400  0.25247400  0.59531100  1
  Ti  Ti0  1  0.48044500  0.77083600  0.99988900  1
  Ti  Ti1  1  0.77083600  0.48044500  0.99988900  1
  Nb  Nb0  1  0.87401100  0.61870200  0.23573000  1
  Nb  Nb1  1  0.61870200  0.87401100  0.23573000  1
  Nb  Nb2  1  0.24248500  0.49980600  0.75964200  1
  Nb  Nb3  1  0.00747900  0.25537600  0.00023500  1
  Nb  Nb4  1  0.25537600  0.00747900  0.00023500  1
  Nb  Nb5  1  0.37955200  0.12217800  0.24056900  1
  Nb  Nb6  1  0.12217800  0.37955200  0.24056900  1
  Nb  Nb7  1  0.73625200  0.99164100  0.76430800  1
  Nb  Nb8  1  0.99164100  0.73625200  0.76430800  1
  Nb  Nb9  1  0.49980600  0.24248500  0.75964200  1
  Si  Si0  1  0.27622900  0.56803800  0.32613400  1
  Si  Si1  1  0.43898000  0.73091000  0.67362100  1
  Si  Si2  1  0.76811700  0.06469000  0.33130100  1
  Si  Si3  1  0.06469000  0.76811700  0.33130100  1
  Si  Si4  1  0.93403400  0.23050500  0.66890600  1
  Si  Si5  1  0.23050500  0.93403400  0.66890600  1
  Si  Si6  1  0.56803800  0.27622900  0.32613400  1
  Si  Si7  1  0.73091000  0.43898000  0.67362100  1
  O  O0  1  0.40654200  0.61679300  0.17511400  1
  O  O1  1  0.97254200  0.70493700  0.00042900  1
  O  O2  1  0.78858500  0.53377500  0.16855500  1
  O  O3  1  0.53377500  0.78858500  0.16855500  1
  O  O4  1  0.70493700  0.97254200  0.00042900  1
  O  O5  1  0.29953400  0.51424700  0.50595000  1
  O  O6  1  0.74926800  0.74926800  0.23152100  1
  O  O7  1  0.35347900  0.85976600  0.99983400  1
  O  O8  1  0.13771500  0.13771500  0.99952200  1
  O  O9  1  0.95025200  0.73195100  0.30448300  1
  O  O10  1  0.76542600  0.55087700  0.49293600  1
  O  O11  1  0.73195100  0.95025200  0.30448300  1
  O  O12  1  0.55087700  0.76542600  0.49293600  1
  O  O13  1  0.89859500  0.11330200  0.18269600  1
  O  O14  1  0.38803800  0.60212900  0.70174500  1
  O  O15  1  0.11330200  0.89859500  0.18269600  1
  O  O16  1  0.17178700  0.66959800  0.32673000  1
  O  O17  1  0.02855700  0.29495300  0.17629100  1
  O  O18  1  0.47209100  0.20462900  0.99965000  1
  O  O19  1  0.29495300  0.02855700  0.17629100  1
  O  O20  1  0.20462900  0.47209100  0.99965000  1
  O  O21  1  0.01094800  0.79242000  0.51062000  1
  O  O22  1  0.49383100  0.70458100  0.82460000  1
  O  O23  1  0.79242000  0.01094800  0.51062000  1
  O  O24  1  0.24973300  0.24973300  0.23093700  1
  O  O25  1  0.49809400  0.99823600  0.28069400  1
  O  O26  1  0.87273800  0.61748300  0.83312800  1
  O  O27  1  0.61748300  0.87273800  0.83312800  1
  O  O28  1  0.13869600  0.63830800  0.71934800  1
  O  O29  1  0.85976600  0.35347900  0.99983400  1
  O  O30  1  0.86514000  0.86514000  0.76943500  1
  O  O31  1  0.45277500  0.23880900  0.29969200  1
  O  O32  1  0.26795400  0.04937400  0.49042100  1
  O  O33  1  0.04937400  0.26795400  0.49042100  1
  O  O34  1  0.23880900  0.45277500  0.29969200  1
  O  O35  1  0.10291800  0.88478000  0.69410700  1
  O  O36  1  0.88478000  0.10291800  0.69410700  1
  O  O37  1  0.61679300  0.40654200  0.17511400  1
  O  O38  1  0.33514500  0.83298000  0.67320900  1
  O  O39  1  0.66959800  0.17178700  0.32673000  1
  O  O40  1  0.51424700  0.29953400  0.50595000  1
  O  O41  1  0.20447800  0.99015700  0.81739900  1
  O  O42  1  0.99015700  0.20447800  0.81739900  1
  O  O43  1  0.99823600  0.49809400  0.28069400  1
  O  O44  1  0.38311200  0.11722600  0.82199200  1
  O  O45  1  0.11722600  0.38311200  0.82199200  1
  O  O46  1  0.63830800  0.13869600  0.71934800  1
  O  O47  1  0.36497800  0.36497800  0.76821600  1
  O  O48  1  0.60212900  0.38803800  0.70174500  1
  O  O49  1  0.83298000  0.33514500  0.67320900  1
  O  O50  1  0.70458100  0.49383100  0.82460000  1
loop_
_geom_bond_atom_site_label_1
_geom_bond_atom_site_label_2
_geom_bond_distance
_geom_bond_site_symmetry_2
Ba0 O1 2.872844 1_555
Ba0 O4 2.872844 1_555
Ba0 O41 2.936908 1_654
Ba0 O42 2.936908 1_564
Ba0 O15 2.937878 1_655
Ba0 O13 2.937878 1_565
Ba0 O11 3.004684 1_555
Ba0 O9 3.004684 1_555
Ba0 O35 3.014210 1_654
Ba0 O36 3.014210 1_564
Ba0 O30 3.111310 1_554
Ba0 O6 3.119107 1_555
Ba1 O5 2.847344 1_555
Ba1 O40 2.847344 1_555
Ba1 O48 2.905230 1_555
Ba1 O14 2.905230 1_555
Ba1 O2 2.905438 1_555
Ba1 O3 2.905438 1_555
Ba1 O12 2.984587 1_555
Ba1 O10 2.984587 1_555
Ba1 O37 3.021869 1_555
Ba1 O0 3.021869 1_555
Ba1 O6 3.146914 1_555
Ba1 O47 3.340648 1_555
Ba2 O12 2.850527 1_555
Ba2 O10 2.850527 1_555
Ba2 O11 2.852930 1_555
Ba2 O9 2.852930 1_555
Ba2 O26 2.947238 1_555
Ba2 O27 2.947238 1_555
Ba2 O21 2.976138 1_655
Ba2 O23 2.976138 1_565
Ba2 O22 3.032201 1_555
Ba2 O50 3.032201 1_555
Ba2 O30 3.191612 1_555
Ba2 O6 3.300422 1_555
Ba3 O18 2.891612 1_555
Ba3 O20 2.891612 1_555
Ba3 O22 2.923995 1_555
Ba3 O50 2.923995 1_555
Ba3 O37 2.924511 1_556
Ba3 O0 2.924511 1_556
Ba3 O48 2.938121 1_555
Ba3 O14 2.938121 1_555
Ba3 O31 2.949904 1_556
Ba3 O34 2.949904 1_556
Ba3 O24 3.128582 1_556
Ba3 O47 3.136640 1_555
Ba4 O35 2.847606 1_545
Ba4 O36 2.847606 1_455
Ba4 O21 2.903303 1_545
Ba4 O23 2.903303 1_455
Ba4 O19 2.973667 1_555
Ba4 O17 2.973667 1_555
Ba4 O33 3.009702 1_555
Ba4 O32 3.009702 1_555
Ba4 O13 3.049809 1_455
Ba4 O15 3.049809 1_545
Ba4 O24 3.190417 1_555
Ba4 O8 3.252201 1_554
Ba4 O30 3.305080 1_445
Ba5 O33 2.901885 1_555
Ba5 O32 2.901885 1_555
Ba5 O31 2.903980 1_555
Ba5 O34 2.903980 1_555
Ba5 O44 2.929802 1_555
Ba5 O45 2.929802 1_555
Ba5 O40 3.021692 1_555
Ba5 O5 3.021692 1_555
Ba5 O42 3.036261 1_455
Ba5 O41 3.036261 1_545
Ba5 O47 3.144610 1_555
Ba5 O8 3.205781 1_555
Ba5 O24 3.348716 1_555
Nb0 O2 1.928773 1_555
Nb0 O1 1.960322 1_555
Nb0 O43 1.976817 1_555
Nb0 O6 2.013186 1_555
Nb0 O10 2.104262 1_555
Nb0 O9 2.126801 1_555
Nb1 O3 1.928773 1_555
Nb1 O4 1.960322 1_555
Nb1 O25 1.976817 1_555
Nb1 O6 2.013186 1_555
Nb1 O12 2.104262 1_555
Nb1 O11 2.126801 1_555
Nb2 O28 1.940914 1_555
Nb2 O20 1.962949 1_555
Nb2 O45 1.979702 1_555
Nb2 O47 2.030938 1_555
Nb2 O14 2.070452 1_555
Nb2 O5 2.095325 1_555
Nb3 O17 1.946045 1_555
Nb3 O45 1.955748 1_554
Nb3 O8 1.957360 1_554
Nb3 O29 1.990004 1_454
Nb3 O13 2.063435 1_455
Nb3 O42 2.065738 1_454
Nb4 O19 1.946045 1_555
Nb4 O44 1.955748 1_554
Nb4 O8 1.957360 1_554
Nb4 O7 1.990004 1_544
Nb4 O15 2.063435 1_545
Nb4 O41 2.065738 1_544
Nb5 O25 1.942261 1_545
Nb5 O18 1.969926 1_554
Nb5 O19 1.980197 1_555
Nb5 O24 2.031355 1_555
Nb5 O32 2.070859 1_555
Nb5 O31 2.077288 1_555
Nb6 O43 1.942261 1_455
Nb6 O20 1.969926 1_554
Nb6 O17 1.980197 1_555
Nb6 O24 2.031355 1_555
Nb6 O33 2.070859 1_555
Nb6 O34 2.077288 1_555
Nb7 O27 1.926264 1_555
Nb7 O4 1.968185 1_556
Nb7 O46 1.978657 1_565
Nb7 O30 2.014169 1_555
Nb7 O23 2.080067 1_565
Nb7 O36 2.137087 1_565
Nb8 O26 1.926264 1_555
Nb8 O1 1.968185 1_556
Nb8 O28 1.978657 1_655
Nb8 O30 2.014169 1_555
Nb8 O21 2.080067 1_655
Nb8 O35 2.137087 1_655
Nb9 O46 1.940914 1_555
Nb9 O18 1.962949 1_555
Nb9 O44 1.979702 1_555
Nb9 O47 2.030938 1_555
Nb9 O48 2.070452 1_555
Nb9 O40 2.095325 1_555
O0 Si0 1.650824 1_555
O0 Ti0 1.986391 1_554
O2 Ti1 1.963250 1_554
O3 Ti0 1.963250 1_554
O5 Si0 1.638014 1_555
O7 Ti0 1.736754 1_555
O9 Si3 1.627625 1_655
O10 Si7 1.634874 1_555
O11 Si2 1.627625 1_565
O12 Si1 1.634874 1_555
O13 Si2 1.644470 1_555
O14 Si1 1.641368 1_555
O15 Si3 1.644470 1_555
O16 Si3 1.622304 1_555
O16 Si0 1.624112 1_555
O21 Si3 1.639811 1_555
O22 Si1 1.652065 1_555
O22 Ti0 1.986911 1_555
O23 Si2 1.639811 1_555
O26 Ti1 1.953129 1_555
O27 Ti0 1.953129 1_555
O29 Ti1 1.736754 1_555
O31 Si6 1.641741 1_555
O32 Si5 1.643839 1_545
O33 Si4 1.643839 1_455
O34 Si0 1.641741 1_555
O35 Si5 1.628012 1_555
O36 Si4 1.628012 1_555
O37 Si6 1.650824 1_555
O37 Ti1 1.986391 1_554
O38 Si5 1.622703 1_555
O38 Si1 1.623272 1_555
O39 Si2 1.622304 1_555
O39 Si6 1.624112 1_555
O40 Si6 1.638014 1_555
O41 Si5 1.642654 1_555
O42 Si4 1.642654 1_555
O48 Si7 1.641368 1_555
O49 Si4 1.622703 1_555
O49 Si7 1.623272 1_555
O50 Si7 1.652065 1_555
O50 Ti1 1.986911 1_555
