# generated using pymatgen
data_Mn6Zn2CN
_symmetry_space_group_name_H-M   'P 1'
_cell_length_a   3.88002900
_cell_length_b   3.88002900
_cell_length_c   7.60355000
_cell_angle_alpha   90.00000000
_cell_angle_beta   90.00000000
_cell_angle_gamma   90.00000000
_symmetry_Int_Tables_number   1
_chemical_formula_structural   Mn6Zn2CN
_chemical_formula_sum   'Mn6 Zn2 C1 N1'
_cell_volume   114.46859423
_cell_formula_units_Z   1
loop_
 _symmetry_equiv_pos_site_id
 _symmetry_equiv_pos_as_xyz
  1  'x, y, z'
loop_
 _atom_site_type_symbol
 _atom_site_label
 _atom_site_symmetry_multiplicity
 _atom_site_fract_x
 _atom_site_fract_y
 _atom_site_fract_z
 _atom_site_occupancy
  Mn  Mn0  1  0.00000000  0.00000000  0.24878300  1
  Mn  Mn1  1  0.00000000  0.00000000  0.75121700  1
  Mn  Mn2  1  0.00000000  0.50000000  0.00000000  1
  Mn  Mn3  1  0.00000000  0.50000000  0.50000000  1
  Mn  Mn4  1  0.50000000  0.00000000  0.00000000  1
  Mn  Mn5  1  0.50000000  0.00000000  0.50000000  1
  Zn  Zn0  1  0.50000000  0.50000000  0.25150200  1
  Zn  Zn1  1  0.50000000  0.50000000  0.74849800  1
  C  C0  1  0.00000000  0.00000000  0.50000000  1
  N  N0  1  0.00000000  0.00000000  0.00000000  1
loop_
_geom_bond_atom_site_label_1
_geom_bond_atom_site_label_2
_geom_bond_distance
_geom_bond_site_symmetry_2
Mn0 N0 1.891634 1_555
Mn0 Zn0 2.743673 1_545
Mn0 Zn0 2.743673 1_455
Mn0 Zn0 2.743673 1_445
Mn0 Zn0 2.743673 1_555
Mn1 N0 1.891634 1_556
Mn1 Zn1 2.743673 1_545
Mn1 Zn1 2.743673 1_555
Mn1 Zn1 2.743673 1_455
Mn1 Zn1 2.743673 1_445
Mn2 N0 1.940014 1_555
Mn2 N0 1.940014 1_565
Mn2 Zn0 2.724074 1_455
Mn2 Zn1 2.724074 1_554
Mn2 Zn0 2.724074 1_555
Mn2 Zn1 2.724074 1_454
Mn3 Zn1 2.708088 1_555
Mn3 Zn0 2.708088 1_455
Mn3 Zn0 2.708088 1_555
Mn3 Zn1 2.708088 1_455
Mn4 N0 1.940014 1_655
Mn4 N0 1.940014 1_555
Mn4 Zn0 2.724074 1_555
Mn4 Zn0 2.724074 1_545
Mn4 Zn1 2.724074 1_554
Mn4 Zn1 2.724074 1_544
Mn5 Zn1 2.708088 1_545
Mn5 Zn1 2.708088 1_555
Mn5 Zn0 2.708088 1_545
Mn5 Zn0 2.708088 1_555
C0 Mn1 1.910141 1_555
C0 Mn0 1.910141 1_555
C0 Mn3 1.940014 1_545
C0 Mn5 1.940014 1_555
C0 Mn5 1.940014 1_455
C0 Mn3 1.940014 1_555
