# generated using pymatgen
data_Bi4(TeS)3
_symmetry_space_group_name_H-M   'P 1'
_cell_length_a   20.26763536
_cell_length_b   20.26763536
_cell_length_c   20.26763584
_cell_angle_alpha   11.98224993
_cell_angle_beta   11.98224993
_cell_angle_gamma   11.98225264
_symmetry_Int_Tables_number   1
_chemical_formula_structural   Bi4(TeS)3
_chemical_formula_sum   'Bi4 Te3 S3'
_cell_volume   311.89668236
_cell_formula_units_Z   1
loop_
 _symmetry_equiv_pos_site_id
 _symmetry_equiv_pos_as_xyz
  1  'x, y, z'
loop_
 _atom_site_type_symbol
 _atom_site_label
 _atom_site_symmetry_multiplicity
 _atom_site_fract_x
 _atom_site_fract_y
 _atom_site_fract_z
 _atom_site_occupancy
  Bi  Bi0  1  0.80312900  0.80312900  0.80312900  1
  Bi  Bi1  1  0.30595900  0.30595900  0.30595900  1
  Bi  Bi2  1  0.69840000  0.69840000  0.69840000  1
  Bi  Bi3  1  0.19533400  0.19533400  0.19533400  1
  Te  Te0  1  0.89218700  0.89218700  0.89218700  1
  Te  Te1  1  0.10654800  0.10654800  0.10654800  1
  Te  Te2  1  0.60920100  0.60920100  0.60920100  1
  S  S0  1  0.00223800  0.00223800  0.00223800  1
  S  S1  1  0.49975000  0.49975000  0.49975000  1
  S  S2  1  0.38725400  0.38725400  0.38725400  1
loop_
_geom_bond_atom_site_label_1
_geom_bond_atom_site_label_2
_geom_bond_distance
_geom_bond_site_symmetry_2
Bi0 Te1 3.037589 1_665
Bi0 Te1 3.037589 1_566
Bi0 Te1 3.037589 1_656
Bi0 S1 3.039025 1_556
Bi0 S1 3.039025 1_655
Bi0 S1 3.039025 1_565
Bi1 S0 3.026789 1_556
Bi1 S0 3.026789 1_565
Bi1 S0 3.026789 1_655
Bi1 Te2 3.043952 1_554
Bi1 Te2 3.043952 1_545
Bi1 Te2 3.043952 1_455
Bi2 S2 2.785713 1_556
Bi2 S2 2.785713 1_655
Bi2 S2 2.785713 1_565
Bi2 S0 3.022624 1_665
Bi2 S0 3.022624 1_566
Bi2 S0 3.022624 1_656
Bi3 S1 3.002208 1_554
Bi3 S1 3.002208 1_545
Bi3 S1 3.002208 1_455
Bi3 Te0 3.047377 1_445
Bi3 Te0 3.047377 1_544
Bi3 Te0 3.047377 1_454
