# generated using pymatgen
data_Ti4Zn3SnO12
_symmetry_space_group_name_H-M   'P 1'
_cell_length_a   6.70262959
_cell_length_b   6.70262959
_cell_length_c   6.70262959
_cell_angle_alpha   109.47122063
_cell_angle_beta   109.47122063
_cell_angle_gamma   109.47122063
_symmetry_Int_Tables_number   1
_chemical_formula_structural   Ti4Zn3SnO12
_chemical_formula_sum   'Ti4 Zn3 Sn1 O12'
_cell_volume   231.80017971
_cell_formula_units_Z   1
loop_
 _symmetry_equiv_pos_site_id
 _symmetry_equiv_pos_as_xyz
  1  'x, y, z'
loop_
 _atom_site_type_symbol
 _atom_site_label
 _atom_site_symmetry_multiplicity
 _atom_site_fract_x
 _atom_site_fract_y
 _atom_site_fract_z
 _atom_site_occupancy
  Ti  Ti0  1  0.50000000  0.00000000  0.00000000  1
  Ti  Ti1  1  0.00000000  0.00000000  0.50000000  1
  Ti  Ti2  1  0.50000000  0.50000000  0.50000000  1
  Ti  Ti3  1  0.00000000  0.50000000  0.00000000  1
  Zn  Zn0  1  0.50000000  0.50000000  0.00000000  1
  Zn  Zn1  1  0.00000000  0.50000000  0.50000000  1
  Zn  Zn2  1  0.50000000  0.00000000  0.50000000  1
  Sn  Sn0  1  0.00000000  0.00000000  0.00000000  1
  O  O0  1  0.74855700  0.25144300  0.00000000  1
  O  O1  1  0.49711300  0.74855700  0.74855700  1
  O  O2  1  0.74855700  0.00000000  0.25144300  1
  O  O3  1  0.74855700  0.74855700  0.49711300  1
  O  O4  1  0.00000000  0.25144300  0.74855700  1
  O  O5  1  0.25144300  0.00000000  0.74855700  1
  O  O6  1  0.25144300  0.25144300  0.50288700  1
  O  O7  1  0.50288700  0.25144300  0.25144300  1
  O  O8  1  0.25144300  0.50288700  0.25144300  1
  O  O9  1  0.25144300  0.74855700  0.00000000  1
  O  O10  1  0.00000000  0.74855700  0.25144300  1
  O  O11  1  0.74855700  0.49711300  0.74855700  1
loop_
_geom_bond_atom_site_label_1
_geom_bond_atom_site_label_2
_geom_bond_distance
_geom_bond_site_symmetry_2
O0 Ti3 1.934947 1_655
O0 Ti0 1.934947 1_555
O0 Sn0 2.752131 1_655
O1 Ti0 1.934943 1_566
O1 Ti2 1.934951 1_555
O1 Sn0 2.752137 1_666
O2 Ti1 1.934947 1_655
O2 Ti0 1.934947 1_555
O2 Sn0 2.752131 1_655
O3 Ti1 1.934943 1_665
O3 Ti2 1.934951 1_555
O3 Sn0 2.752137 1_666
O4 Ti3 1.934947 1_556
O4 Ti1 1.934947 1_555
O4 Sn0 2.752131 1_556
O5 Ti0 1.934947 1_556
O5 Ti1 1.934947 1_555
O5 Sn0 2.752131 1_556
O6 Ti1 1.934943 1_555
O6 Ti2 1.934951 1_555
O6 Sn0 2.752137 1_555
O7 Ti0 1.934943 1_555
O7 Ti2 1.934951 1_555
O7 Sn0 2.752137 1_555
O8 Ti3 1.934943 1_555
O8 Ti2 1.934951 1_555
O8 Sn0 2.752137 1_555
O9 Ti0 1.934947 1_565
O9 Ti3 1.934947 1_555
O9 Sn0 2.752131 1_565
O10 Ti1 1.934947 1_565
O10 Ti3 1.934947 1_555
O10 Sn0 2.752131 1_565
O11 Ti3 1.934943 1_656
O11 Ti2 1.934951 1_555
O11 Sn0 2.752137 1_666
