# generated using pymatgen
data_CsP(HO2)2
_symmetry_space_group_name_H-M   'P 1'
_cell_length_a   4.87504251
_cell_length_b   6.26146570
_cell_length_c   15.05462001
_cell_angle_alpha   90.00000000
_cell_angle_beta   88.54196972
_cell_angle_gamma   90.00000000
_symmetry_Int_Tables_number   1
_chemical_formula_structural   CsP(HO2)2
_chemical_formula_sum   'Cs4 P4 H8 O16'
_cell_volume   459.39215817
_cell_formula_units_Z   4
loop_
 _symmetry_equiv_pos_site_id
 _symmetry_equiv_pos_as_xyz
  1  'x, y, z'
loop_
 _atom_site_type_symbol
 _atom_site_label
 _atom_site_symmetry_multiplicity
 _atom_site_fract_x
 _atom_site_fract_y
 _atom_site_fract_z
 _atom_site_occupancy
  Cs  Cs0  1  0.10699797  0.24895151  0.13236551  1
  Cs  Cs1  1  0.89300203  0.74895151  0.86763449  1
  Cs  Cs2  1  0.60692855  0.24430690  0.63235675  1
  Cs  Cs3  1  0.39307145  0.74430690  0.36764325  1
  P  P0  1  0.58966340  0.75889072  0.11904999  1
  P  P1  1  0.41033660  0.25889072  0.88095001  1
  P  P2  1  0.08967582  0.73421355  0.61905541  1
  P  P3  1  0.91032418  0.23421355  0.38094459  1
  H  H0  1  0.00391531  0.75276324  0.17730486  1
  H  H1  1  -0.00391531  0.25276324  0.82269514  1
  H  H2  1  0.47520904  0.01160031  0.98751079  1
  H  H3  1  0.52479096  0.51160031  0.01248921  1
  H  H4  1  0.50384040  0.74027963  0.67731377  1
  H  H5  1  0.49615960  0.24027963  0.32268623  1
  H  H6  1  0.02490591  0.98162725  0.51257796  1
  H  H7  1  0.97509409  0.48162725  0.48742204  1
  O  O0  1  0.31045507  0.75291964  0.16298550  1
  O  O1  1  0.68954493  0.25291964  0.83701450  1
  O  O2  1  0.80276575  0.74932324  0.19530145  1
  O  O3  1  0.19723425  0.24932324  0.80469855  1
  O  O4  1  0.64602898  0.95158708  0.06080821  1
  O  O5  1  0.35397102  0.45158708  0.93919179  1
  O  O6  1  0.64918751  0.54755660  0.06529339  1
  O  O7  1  0.35081249  0.04755660  0.93470661  1
  O  O8  1  0.81045671  0.74014491  0.66296915  1
  O  O9  1  0.18954329  0.24014491  0.33703085  1
  O  O10  1  0.30275241  0.74365842  0.69532072  1
  O  O11  1  0.69724759  0.24365842  0.30467928  1
  O  O12  1  0.14920955  0.94562326  0.56537342  1
  O  O13  1  0.85079045  0.44562326  0.43462658  1
  O  O14  1  0.14595904  0.54165272  0.56074646  1
  O  O15  1  0.85404096  0.04165272  0.43925354  1
loop_
_geom_bond_atom_site_label_1
_geom_bond_atom_site_label_2
_geom_bond_distance
_geom_bond_site_symmetry_2
Cs0 O6 3.100194 1_455
Cs0 O9 3.117950 1_555
Cs0 O4 3.130594 1_445
Cs0 O11 3.233737 1_455
Cs1 O7 3.100194 1_665
Cs1 O8 3.117950 1_555
Cs1 O5 3.130594 1_655
Cs1 O10 3.233737 1_655
Cs2 O12 3.099706 1_545
Cs2 O1 3.117869 1_555
Cs2 O14 3.130815 1_555
Cs2 O3 3.233888 1_555
Cs3 O13 3.099706 1_555
Cs3 O0 3.117869 1_555
Cs3 O15 3.130815 1_565
Cs3 O2 3.233888 1_555
H0 O2 1.010915 1_455
H0 O0 1.504424 1_555
H1 O3 1.010915 1_555
H1 O1 1.504424 1_455
H2 O7 1.036788 1_555
H2 O4 1.448821 1_546
H3 O6 1.036788 1_555
H3 O5 1.448821 1_554
H4 O10 1.010656 1_555
H4 O8 1.504839 1_555
H5 O11 1.010656 1_555
H5 O9 1.504839 1_555
H6 O12 1.036476 1_555
H6 O15 1.449286 1_465
H7 O13 1.036476 1_555
H7 O14 1.449286 1_655
O0 P0 1.498603 1_555
O1 P1 1.498603 1_555
O2 P0 1.568858 1_555
O3 P1 1.568858 1_555
O4 P0 1.512557 1_555
O5 P1 1.512557 1_555
O6 P0 1.574236 1_555
O7 P1 1.574236 1_555
O8 P2 1.498507 1_655
O9 P3 1.498507 1_455
O10 P2 1.568899 1_555
O11 P3 1.568899 1_555
O12 P2 1.574070 1_555
O13 P3 1.574070 1_555
O14 P2 1.512395 1_555
O15 P3 1.512395 1_555
