# generated using pymatgen
data_Li6SeN4
_symmetry_space_group_name_H-M   'P 1'
_cell_length_a   6.56640600
_cell_length_b   6.56640600
_cell_length_c   4.89734700
_cell_angle_alpha   90.00000000
_cell_angle_beta   90.00000000
_cell_angle_gamma   90.00000000
_symmetry_Int_Tables_number   1
_chemical_formula_structural   Li6SeN4
_chemical_formula_sum   'Li12 Se2 N8'
_cell_volume   211.16227878
_cell_formula_units_Z   2
loop_
 _symmetry_equiv_pos_site_id
 _symmetry_equiv_pos_as_xyz
  1  'x, y, z'
loop_
 _atom_site_type_symbol
 _atom_site_label
 _atom_site_symmetry_multiplicity
 _atom_site_fract_x
 _atom_site_fract_y
 _atom_site_fract_z
 _atom_site_occupancy
  Li  Li0  1  0.00000000  0.50000000  0.60795800  1
  Li  Li1  1  0.50000000  0.00000000  0.89204200  1
  Li  Li2  1  0.50000000  0.00000000  0.39204200  1
  Li  Li3  1  0.00000000  0.50000000  0.10795800  1
  Li  Li4  1  0.21292000  0.21292000  0.50000000  1
  Li  Li5  1  0.78708000  0.78708000  0.50000000  1
  Li  Li6  1  0.71292000  0.71292000  0.00000000  1
  Li  Li7  1  0.28708000  0.28708000  0.00000000  1
  Li  Li8  1  0.78708000  0.21292000  0.50000000  1
  Li  Li9  1  0.21292000  0.78708000  0.50000000  1
  Li  Li10  1  0.28708000  0.71292000  0.00000000  1
  Li  Li11  1  0.71292000  0.28708000  0.00000000  1
  Se  Se0  1  0.50000000  0.50000000  0.50000000  1
  Se  Se1  1  0.00000000  0.00000000  0.00000000  1
  N  N0  1  0.26474600  0.50000000  0.31139400  1
  N  N1  1  0.73525400  0.50000000  0.31139400  1
  N  N2  1  0.76474600  0.00000000  0.18860600  1
  N  N3  1  0.23525400  0.00000000  0.18860600  1
  N  N4  1  0.50000000  0.26474600  0.68860600  1
  N  N5  1  0.50000000  0.73525400  0.68860600  1
  N  N6  1  0.00000000  0.76474600  0.81139400  1
  N  N7  1  0.00000000  0.23525400  0.81139400  1
loop_
_geom_bond_atom_site_label_1
_geom_bond_atom_site_label_2
_geom_bond_distance
_geom_bond_site_symmetry_2
Li0 N6 2.003683 1_555
Li0 N7 2.003683 1_555
Li0 N0 2.265289 1_555
Li0 N1 2.265289 1_455
Li1 N4 2.003683 1_555
Li1 N5 2.003683 1_545
Li1 N2 2.265289 1_556
Li1 N3 2.265289 1_556
Li2 N2 2.003683 1_555
Li2 N3 2.003683 1_555
Li2 N4 2.265289 1_555
Li2 N5 2.265289 1_545
Li3 N0 2.003683 1_555
Li3 N1 2.003683 1_455
Li3 N6 2.265289 1_554
Li3 N7 2.265289 1_554
Li4 N3 2.074098 1_555
Li4 N7 2.074098 1_555
Li4 N4 2.126621 1_555
Li4 N0 2.126621 1_555
Li5 N6 2.074098 1_655
Li5 N2 2.074098 1_565
Li5 N5 2.126621 1_555
Li5 N1 2.126621 1_555
Li6 N1 2.074098 1_555
Li6 N5 2.074098 1_554
Li6 N2 2.126621 1_565
Li6 N6 2.126621 1_654
Li7 N0 2.074098 1_555
Li7 N4 2.074098 1_554
Li7 N3 2.126621 1_555
Li7 N7 2.126621 1_554
Li8 N7 2.074098 1_655
Li8 N2 2.074098 1_555
Li8 N4 2.126621 1_555
Li8 N1 2.126621 1_555
Li9 N3 2.074098 1_565
Li9 N6 2.074098 1_555
Li9 N5 2.126621 1_555
Li9 N0 2.126621 1_555
Li10 N0 2.074098 1_555
Li10 N5 2.074098 1_554
Li10 N6 2.126621 1_554
Li10 N3 2.126621 1_565
Li11 N1 2.074098 1_555
Li11 N4 2.074098 1_554
Li11 N2 2.126621 1_555
Li11 N7 2.126621 1_654
N0 Se0 1.799858 1_555
N1 Se0 1.799858 1_555
N2 Se1 1.799858 1_655
N3 Se1 1.799858 1_555
N4 Se0 1.799858 1_555
N5 Se0 1.799858 1_555
N6 Se1 1.799858 1_566
N7 Se1 1.799858 1_556
