# generated using pymatgen
data_RbScAsO4F
_symmetry_space_group_name_H-M   'P 1'
_cell_length_a   6.89715100
_cell_length_b   11.42323000
_cell_length_c   13.91489000
_cell_angle_alpha   90.00000000
_cell_angle_beta   90.00000000
_cell_angle_gamma   90.00000000
_symmetry_Int_Tables_number   1
_chemical_formula_structural   RbScAsO4F
_chemical_formula_sum   'Rb8 Sc8 As8 O32 F8'
_cell_volume   1096.32276631
_cell_formula_units_Z   8
loop_
 _symmetry_equiv_pos_site_id
 _symmetry_equiv_pos_as_xyz
  1  'x, y, z'
loop_
 _atom_site_type_symbol
 _atom_site_label
 _atom_site_symmetry_multiplicity
 _atom_site_fract_x
 _atom_site_fract_y
 _atom_site_fract_z
 _atom_site_occupancy
  Rb  Rb0  1  0.20070500  0.54405200  0.39331100  1
  Rb  Rb1  1  0.79929500  0.04405200  0.60668900  1
  Rb  Rb2  1  0.29929500  0.54405200  0.89331100  1
  Rb  Rb3  1  0.70070500  0.04405200  0.10668900  1
  Rb  Rb4  1  0.27321000  0.78493300  0.12369500  1
  Rb  Rb5  1  0.72679000  0.28493300  0.87630500  1
  Rb  Rb6  1  0.22679000  0.78493300  0.62369500  1
  Rb  Rb7  1  0.77321000  0.28493300  0.37630500  1
  Sc  Sc0  1  0.99472900  0.48216300  0.11184100  1
  Sc  Sc1  1  0.49472900  0.98216300  0.38815900  1
  Sc  Sc2  1  0.50527100  0.48216300  0.61184100  1
  Sc  Sc3  1  0.00527100  0.98216300  0.88815900  1
  Sc  Sc4  1  0.25147400  0.23123000  0.24582600  1
  Sc  Sc5  1  0.74852600  0.73123000  0.75417400  1
  Sc  Sc6  1  0.24852600  0.23123000  0.74582600  1
  Sc  Sc7  1  0.75147400  0.73123000  0.25417400  1
  As  As0  1  0.99833100  0.98508700  0.31786200  1
  As  As1  1  0.67575300  0.73367200  0.50150000  1
  As  As2  1  0.17575300  0.23367200  0.99850000  1
  As  As3  1  0.82424700  0.73367200  0.00150000  1
  As  As4  1  0.32424700  0.23367200  0.49850000  1
  As  As5  1  0.49833100  0.48508700  0.18213800  1
  As  As6  1  0.50166900  0.98508700  0.81786200  1
  As  As7  1  0.00166900  0.48508700  0.68213800  1
  O  O0  1  0.53446500  0.60419400  0.25652100  1
  O  O1  1  0.31641300  0.21211100  0.09837000  1
  O  O2  1  0.81641300  0.71211100  0.40163000  1
  O  O3  1  0.18358700  0.21211100  0.59837000  1
  O  O4  1  0.68641800  0.75240700  0.10301300  1
  O  O5  1  0.31358200  0.25240700  0.89698700  1
  O  O6  1  0.81358200  0.75240700  0.60301300  1
  O  O7  1  0.18641800  0.25240700  0.39698700  1
  O  O8  1  0.95268100  0.86814900  0.24300600  1
  O  O9  1  0.04731900  0.36814900  0.75699400  1
  O  O10  1  0.54731900  0.86814900  0.74300600  1
  O  O11  1  0.45268100  0.36814900  0.25699400  1
  O  O12  1  0.03446500  0.10419400  0.24347900  1
  O  O13  1  0.96553500  0.60419400  0.75652100  1
  O  O14  1  0.46553500  0.10419400  0.74347900  1
  O  O15  1  0.68358700  0.71211100  0.90163000  1
  O  O16  1  0.19767800  0.95700300  0.38750200  1
  O  O17  1  0.80232200  0.45700300  0.61249800  1
  O  O18  1  0.30232200  0.95700300  0.88750200  1
  O  O19  1  0.96728000  0.85669700  0.99020000  1
  O  O20  1  0.80035900  0.01587400  0.38845900  1
  O  O21  1  0.19964100  0.51587400  0.61154100  1
  O  O22  1  0.69964100  0.01587400  0.88845900  1
  O  O23  1  0.30035900  0.51587400  0.11154100  1
  O  O24  1  0.48562000  0.12018200  0.48385600  1
  O  O25  1  0.51438000  0.62018200  0.51614400  1
  O  O26  1  0.01438000  0.12018200  0.98385600  1
  O  O27  1  0.98562000  0.62018200  0.01614400  1
  O  O28  1  0.46728000  0.35669700  0.50980000  1
  O  O29  1  0.53272000  0.85669700  0.49020000  1
  O  O30  1  0.03272000  0.35669700  0.00980000  1
  O  O31  1  0.69767800  0.45700300  0.11249800  1
  F  F0  1  0.46608300  0.10947800  0.27533800  1
  F  F1  1  0.53391700  0.60947800  0.72466200  1
  F  F2  1  0.03391700  0.10947800  0.77533800  1
  F  F3  1  0.96608300  0.60947800  0.22466200  1
  F  F4  1  0.03962500  0.35996700  0.22393900  1
  F  F5  1  0.96037500  0.85996700  0.77606100  1
  F  F6  1  0.46037500  0.35996700  0.72393900  1
  F  F7  1  0.53962500  0.85996700  0.27606100  1
loop_
_geom_bond_atom_site_label_1
_geom_bond_atom_site_label_2
_geom_bond_distance
_geom_bond_site_symmetry_2
As0 O16 1.712415 1_655
As0 O20 1.718467 1_565
As0 O8 1.722927 1_555
As0 O12 1.727599 1_665
As1 O2 1.712621 1_555
As1 O6 1.716033 1_555
As1 O25 1.720765 1_555
As1 O29 1.724220 1_555
As2 O1 1.712621 1_556
As2 O5 1.716033 1_555
As2 O26 1.720765 1_555
As2 O30 1.724220 1_556
As3 O15 1.712621 1_554
As3 O4 1.716033 1_555
As3 O27 1.720765 1_555
As3 O19 1.724220 1_554
As4 O3 1.712621 1_555
As4 O7 1.716033 1_555
As4 O24 1.720765 1_555
As4 O28 1.724220 1_555
As5 O31 1.712415 1_555
As5 O23 1.718467 1_555
As5 O11 1.722927 1_555
As5 O0 1.727599 1_555
As6 O18 1.712415 1_555
As6 O22 1.718467 1_565
As6 O10 1.722927 1_555
As6 O14 1.727599 1_565
As7 O17 1.712415 1_455
As7 O21 1.718467 1_555
As7 O9 1.722927 1_555
As7 O13 1.727599 1_455
O0 Sc7 2.084989 1_555
O0 Rb0 3.064990 1_555
O0 Rb4 3.305394 1_555
O1 Sc4 2.111476 1_555
O1 Rb3 3.274782 1_555
O2 Sc7 2.111476 1_555
O2 Rb0 3.274782 1_655
O3 Sc6 2.111476 1_555
O3 Rb1 3.274782 1_455
O4 Sc7 2.164277 1_555
O4 Rb4 2.888448 1_555
O4 Rb3 3.333377 1_565
O5 Sc6 2.164277 1_555
O5 Rb5 2.888448 1_555
O5 Rb2 3.333377 1_555
O6 Sc5 2.164277 1_555
O6 Rb6 2.888448 1_655
O6 Rb1 3.333377 1_565
O7 Sc4 2.164277 1_555
O7 Rb7 2.888448 1_455
O7 Rb0 3.333377 1_555
O8 Sc7 2.096733 1_555
O8 Rb4 2.923568 1_655
O8 Rb3 3.264345 1_565
O9 Sc6 2.096733 1_555
O9 Rb5 2.923568 1_455
O9 Rb2 3.264345 1_555
O10 Sc5 2.096733 1_555
O10 Rb6 2.923568 1_555
O10 Rb1 3.264345 1_565
O11 Sc4 2.096733 1_555
O11 Rb7 2.923568 1_555
O11 Rb0 3.264345 1_555
O12 Sc4 2.084989 1_555
O12 Rb3 3.064990 1_455
O12 Rb7 3.305394 1_455
O13 Sc5 2.084989 1_555
O13 Rb2 3.064990 1_655
O13 Rb6 3.305394 1_655
O14 Sc6 2.084989 1_555
O14 Rb1 3.064990 1_555
O14 Rb5 3.305394 1_555
O15 Sc5 2.111476 1_555
O15 Rb2 3.274782 1_555
O16 Sc1 2.068887 1_555
O17 Sc2 2.068887 1_555
O18 Sc3 2.068887 1_555
O19 Sc3 2.034425 1_655
O19 Rb4 2.928290 1_656
O19 Rb3 3.253975 1_566
O20 Sc1 2.142866 1_545
O20 Rb1 3.053667 1_555
O20 Rb7 3.083862 1_555
O21 Sc2 2.142866 1_555
O21 Rb0 3.053667 1_555
O21 Rb6 3.083862 1_555
O22 Sc3 2.142866 1_645
O22 Rb3 3.053667 1_556
O22 Rb5 3.083862 1_555
O23 Sc0 2.142866 1_455
O23 Rb2 3.053667 1_554
O23 Rb4 3.083862 1_555
O24 Sc1 2.064674 1_545
O24 Rb1 2.891065 1_555
O24 Rb7 3.117058 1_555
O25 Sc2 2.064674 1_555
O25 Rb0 2.891065 1_555
O25 Rb6 3.117058 1_555
O26 Sc3 2.064674 1_545
O26 Rb3 2.891065 1_456
O26 Rb5 3.117058 1_455
O27 Sc0 2.064674 1_555
O27 Rb2 2.891065 1_654
O27 Rb4 3.117058 1_655
O28 Sc2 2.034425 1_555
O28 Rb7 2.928290 1_555
O28 Rb0 3.253975 1_555
O29 Sc1 2.034425 1_555
O29 Rb6 2.928290 1_555
O29 Rb1 3.253975 1_565
O30 Sc0 2.034425 1_455
O30 Rb5 2.928290 1_454
O30 Rb2 3.253975 1_554
O31 Sc0 2.068887 1_555
F0 Sc4 2.072180 1_555
F0 Sc1 2.149122 1_545
F0 Rb3 2.946926 1_555
F0 Rb7 3.236995 1_555
F1 Sc5 2.072180 1_555
F1 Sc2 2.149122 1_555
F1 Rb2 2.946926 1_555
F1 Rb6 3.236995 1_555
F2 Sc6 2.072180 1_555
F2 Sc3 2.149122 1_545
F2 Rb1 2.946926 1_455
F2 Rb5 3.236995 1_455
F3 Sc7 2.072180 1_555
F3 Sc0 2.149122 1_555
F3 Rb0 2.946926 1_655
F3 Rb4 3.236995 1_655
F4 Sc4 2.095321 1_555
F4 Sc0 2.115992 1_455
F4 Rb7 2.933625 1_455
F4 Rb0 3.348244 1_555
F5 Sc5 2.095321 1_555
F5 Sc3 2.115992 1_655
F5 Rb6 2.933625 1_655
F5 Rb1 3.348244 1_565
F6 Sc6 2.095321 1_555
F6 Sc2 2.115992 1_555
F6 Rb5 2.933625 1_555
F6 Rb2 3.348244 1_555
F7 Sc7 2.095321 1_555
F7 Sc1 2.115992 1_555
F7 Rb4 2.933625 1_555
F7 Rb3 3.348244 1_565
