# generated using pymatgen
data_ZnCrO2
_symmetry_space_group_name_H-M   'P 1'
_cell_length_a   3.06629000
_cell_length_b   7.91239125
_cell_length_c   7.97579435
_cell_angle_alpha   101.95326895
_cell_angle_beta   99.61747727
_cell_angle_gamma   95.10696870
_symmetry_Int_Tables_number   1
_chemical_formula_structural   ZnCrO2
_chemical_formula_sum   'Zn4 Cr4 O8'
_cell_volume   185.11048041
_cell_formula_units_Z   4
loop_
 _symmetry_equiv_pos_site_id
 _symmetry_equiv_pos_as_xyz
  1  'x, y, z'
loop_
 _atom_site_type_symbol
 _atom_site_label
 _atom_site_symmetry_multiplicity
 _atom_site_fract_x
 _atom_site_fract_y
 _atom_site_fract_z
 _atom_site_occupancy
  Zn  Zn0  1  0.92277100  0.83945600  0.10981000  1
  Zn  Zn1  1  0.30057100  0.05980700  0.83432000  1
  Zn  Zn2  1  0.24337400  0.20427500  0.19305100  1
  Zn  Zn3  1  0.90873800  0.39804400  0.41834800  1
  Cr  Cr0  1  0.83795800  0.46602100  0.09956300  1
  Cr  Cr1  1  0.59743800  0.76123600  0.47354600  1
  Cr  Cr2  1  0.36529500  0.12171900  0.50751100  1
  Cr  Cr3  1  0.19673000  0.50546000  0.77569600  1
  O  O0  1  0.60746600  0.36644000  0.63864200  1
  O  O1  1  0.43628800  0.99475500  0.05978200  1
  O  O2  1  0.11407500  0.63695000  0.56940200  1
  O  O3  1  0.43874000  0.58850500  0.24357600  1
  O  O4  1  0.24699300  0.32987300  0.95269200  1
  O  O5  1  0.08452100  0.88210200  0.37122800  1
  O  O6  1  0.78713200  0.63035600  0.91817400  1
  O  O7  1  0.71952800  0.98938400  0.67399800  1
loop_
_geom_bond_atom_site_label_1
_geom_bond_atom_site_label_2
_geom_bond_distance
_geom_bond_site_symmetry_2
Cr0 O3 1.994226 1_555
Cr0 O3 2.041123 1_655
Cr0 O4 2.058342 1_554
Cr0 O4 2.077137 1_654
Cr0 O6 2.132602 1_554
Cr1 O3 2.003482 1_555
Cr1 O2 2.044226 1_555
Cr1 O5 2.053362 1_555
Cr1 O2 2.060395 1_655
Cr1 O5 2.070617 1_655
Cr1 O7 2.106924 1_555
Cr2 O0 2.010041 1_555
Cr2 O5 2.015035 1_545
Cr2 O7 2.082281 1_545
Cr3 O6 2.018466 1_555
Cr3 O6 2.019411 1_455
Cr3 O0 2.039048 1_455
Cr3 O0 2.049296 1_555
Cr3 O2 2.114371 1_555
Cr3 O4 2.173621 1_555
O0 Zn3 2.164775 1_555
O1 Zn1 1.960424 1_564
O1 Zn2 1.970480 1_565
O1 Zn0 2.053543 1_455
O1 Zn0 2.055440 1_555
O2 Zn3 2.003121 1_455
O4 Zn1 2.182472 1_555
O4 Zn2 2.336048 1_556
O5 Zn0 2.010070 1_455
O6 Zn0 1.965715 1_556
O7 Zn1 1.971472 1_665
O7 Zn1 1.994251 1_565
