# generated using pymatgen
data_Mg3AsN
_symmetry_space_group_name_H-M   'P 1'
_cell_length_a   4.20628578
_cell_length_b   4.20628578
_cell_length_c   4.20628578
_cell_angle_alpha   90.00000000
_cell_angle_beta   90.00000000
_cell_angle_gamma   90.00000000
_symmetry_Int_Tables_number   1
_chemical_formula_structural   Mg3AsN
_chemical_formula_sum   'Mg3 As1 N1'
_cell_volume   74.42114156
_cell_formula_units_Z   1
loop_
 _symmetry_equiv_pos_site_id
 _symmetry_equiv_pos_as_xyz
  1  'x, y, z'
loop_
 _atom_site_type_symbol
 _atom_site_label
 _atom_site_symmetry_multiplicity
 _atom_site_fract_x
 _atom_site_fract_y
 _atom_site_fract_z
 _atom_site_occupancy
  Mg  Mg0  1  0.50000000  -0.00000000  -0.00000000  1
  Mg  Mg1  1  -0.00000000  0.50000000  -0.00000000  1
  Mg  Mg2  1  -0.00000000  0.00000000  0.50000000  1
  As  As0  1  0.50000000  0.50000000  0.50000000  1
  N  N0  1  0.00000000  -0.00000000  0.00000000  1
loop_
_geom_bond_atom_site_label_1
_geom_bond_atom_site_label_2
_geom_bond_distance
_geom_bond_site_symmetry_2
Mg0 N0 2.103143 1_555
Mg0 N0 2.103143 1_655
Mg1 N0 2.103143 1_555
Mg1 N0 2.103143 1_565
Mg2 N0 2.103143 1_555
Mg2 N0 2.103143 1_556
As0 Mg2 2.974293 1_665
As0 Mg1 2.974293 1_556
As0 Mg0 2.974293 1_566
As0 Mg1 2.974293 1_555
As0 Mg2 2.974293 1_555
As0 Mg2 2.974293 1_565
As0 Mg1 2.974293 1_655
As0 Mg0 2.974293 1_555
As0 Mg1 2.974293 1_656
As0 Mg0 2.974293 1_556
As0 Mg0 2.974293 1_565
As0 Mg2 2.974293 1_655
