# generated using pymatgen
data_Rb5NO5
_symmetry_space_group_name_H-M   'P 1'
_cell_length_a   9.98928776
_cell_length_b   9.06718176
_cell_length_c   38.41632200
_cell_angle_alpha   90.00000000
_cell_angle_beta   90.00000000
_cell_angle_gamma   115.26560648
_symmetry_Int_Tables_number   1
_chemical_formula_structural   Rb5NO5
_chemical_formula_sum   'Rb40 N8 O40'
_cell_volume   3146.68921124
_cell_formula_units_Z   8
loop_
 _symmetry_equiv_pos_site_id
 _symmetry_equiv_pos_as_xyz
  1  'x, y, z'
loop_
 _atom_site_type_symbol
 _atom_site_label
 _atom_site_symmetry_multiplicity
 _atom_site_fract_x
 _atom_site_fract_y
 _atom_site_fract_z
 _atom_site_occupancy
  Rb  Rb0_0  1  0.11239550  0.09742250  0.47788050  1
  Rb  Rb0_1  1  0.11239550  0.09742250  0.97788050  1
  Rb  Rb0_2  1  0.11239550  0.59742250  0.47788050  1
  Rb  Rb0_3  1  0.11239550  0.59742250  0.97788050  1
  Rb  Rb0_4  1  0.61239550  0.09742250  0.47788050  1
  Rb  Rb0_5  1  0.61239550  0.09742250  0.97788050  1
  Rb  Rb0_6  1  0.61239550  0.59742250  0.47788050  1
  Rb  Rb0_7  1  0.61239550  0.59742250  0.97788050  1
  Rb  Rb1_0  1  0.48294650  0.46904150  0.10000000  1
  Rb  Rb1_1  1  0.48294650  0.46904150  0.60000000  1
  Rb  Rb1_2  1  0.48294650  0.96904150  0.10000000  1
  Rb  Rb1_3  1  0.48294650  0.96904150  0.60000000  1
  Rb  Rb1_4  1  0.98294650  0.46904150  0.10000000  1
  Rb  Rb1_5  1  0.98294650  0.46904150  0.60000000  1
  Rb  Rb1_6  1  0.98294650  0.96904150  0.10000000  1
  Rb  Rb1_7  1  0.98294650  0.96904150  0.60000000  1
  Rb  Rb2_0  1  0.11239550  0.09742250  0.22211950  1
  Rb  Rb2_1  1  0.11239550  0.09742250  0.72211950  1
  Rb  Rb2_2  1  0.11239550  0.59742250  0.22211950  1
  Rb  Rb2_3  1  0.11239550  0.59742250  0.72211950  1
  Rb  Rb2_4  1  0.61239550  0.09742250  0.22211950  1
  Rb  Rb2_5  1  0.61239550  0.09742250  0.72211950  1
  Rb  Rb2_6  1  0.61239550  0.59742250  0.22211950  1
  Rb  Rb2_7  1  0.61239550  0.59742250  0.72211950  1
  Rb  Rb3_0  1  0.35954800  0.39423200  0.40530200  1
  Rb  Rb3_1  1  0.35954800  0.39423200  0.90530200  1
  Rb  Rb3_2  1  0.35954800  0.89423200  0.40530200  1
  Rb  Rb3_3  1  0.35954800  0.89423200  0.90530200  1
  Rb  Rb3_4  1  0.85954800  0.39423200  0.40530200  1
  Rb  Rb3_5  1  0.85954800  0.39423200  0.90530200  1
  Rb  Rb3_6  1  0.85954800  0.89423200  0.40530200  1
  Rb  Rb3_7  1  0.85954800  0.89423200  0.90530200  1
  Rb  Rb4_0  1  0.35954800  0.39423200  0.29469800  1
  Rb  Rb4_1  1  0.35954800  0.39423200  0.79469800  1
  Rb  Rb4_2  1  0.35954800  0.89423200  0.29469800  1
  Rb  Rb4_3  1  0.35954800  0.89423200  0.79469800  1
  Rb  Rb4_4  1  0.85954800  0.39423200  0.29469800  1
  Rb  Rb4_5  1  0.85954800  0.39423200  0.79469800  1
  Rb  Rb4_6  1  0.85954800  0.89423200  0.29469800  1
  Rb  Rb4_7  1  0.85954800  0.89423200  0.79469800  1
  N  N0_0  1  0.08823700  0.44638600  0.35000000  1
  N  N0_1  1  0.08823700  0.44638600  0.85000000  1
  N  N0_2  1  0.08823700  0.94638600  0.35000000  1
  N  N0_3  1  0.08823700  0.94638600  0.85000000  1
  N  N0_4  1  0.58823700  0.44638600  0.35000000  1
  N  N0_5  1  0.58823700  0.44638600  0.85000000  1
  N  N0_6  1  0.58823700  0.94638600  0.35000000  1
  N  N0_7  1  0.58823700  0.94638600  0.85000000  1
  O  O0_0  1  0.20561200  0.10644400  0.35000000  1
  O  O0_1  1  0.20561200  0.10644400  0.85000000  1
  O  O0_2  1  0.20561200  0.60644400  0.35000000  1
  O  O0_3  1  0.20561200  0.60644400  0.85000000  1
  O  O0_4  1  0.70561200  0.10644400  0.35000000  1
  O  O0_5  1  0.70561200  0.10644400  0.85000000  1
  O  O0_6  1  0.70561200  0.60644400  0.35000000  1
  O  O0_7  1  0.70561200  0.60644400  0.85000000  1
  O  O1_0  1  0.34643950  0.11477500  0.35000000  1
  O  O1_1  1  0.34643950  0.11477500  0.85000000  1
  O  O1_2  1  0.34643950  0.61477500  0.35000000  1
  O  O1_3  1  0.34643950  0.61477500  0.85000000  1
  O  O1_4  1  0.84643950  0.11477500  0.35000000  1
  O  O1_5  1  0.84643950  0.11477500  0.85000000  1
  O  O1_6  1  0.84643950  0.61477500  0.35000000  1
  O  O1_7  1  0.84643950  0.61477500  0.85000000  1
  O  O2_0  1  0.13188300  0.33969700  0.35000000  1
  O  O2_1  1  0.13188300  0.33969700  0.85000000  1
  O  O2_2  1  0.13188300  0.83969700  0.35000000  1
  O  O2_3  1  0.13188300  0.83969700  0.85000000  1
  O  O2_4  1  0.63188300  0.33969700  0.35000000  1
  O  O2_5  1  0.63188300  0.33969700  0.85000000  1
  O  O2_6  1  0.63188300  0.83969700  0.35000000  1
  O  O2_7  1  0.63188300  0.83969700  0.85000000  1
  O  O3_0  1  0.42574750  0.24392400  0.24065500  1
  O  O3_1  1  0.42574750  0.24392400  0.74065500  1
  O  O3_2  1  0.42574750  0.74392400  0.24065500  1
  O  O3_3  1  0.42574750  0.74392400  0.74065500  1
  O  O3_4  1  0.92574750  0.24392400  0.24065500  1
  O  O3_5  1  0.92574750  0.24392400  0.74065500  1
  O  O3_6  1  0.92574750  0.74392400  0.24065500  1
  O  O3_7  1  0.92574750  0.74392400  0.74065500  1
  O  O4_0  1  0.42574750  0.24392400  0.45934500  1
  O  O4_1  1  0.42574750  0.24392400  0.95934500  1
  O  O4_2  1  0.42574750  0.74392400  0.45934500  1
  O  O4_3  1  0.42574750  0.74392400  0.95934500  1
  O  O4_4  1  0.92574750  0.24392400  0.45934500  1
  O  O4_5  1  0.92574750  0.24392400  0.95934500  1
  O  O4_6  1  0.92574750  0.74392400  0.45934500  1
  O  O4_7  1  0.92574750  0.74392400  0.95934500  1
loop_
_geom_bond_atom_site_label_1
_geom_bond_atom_site_label_2
_geom_bond_distance
_geom_bond_site_symmetry_2
Rb0_0 Rb1_7 4.873529 1_445
Rb0_1 Rb1_6 4.873529 1_446
Rb0_2 Rb1_5 4.873529 1_455
Rb0_3 Rb1_4 4.873529 1_456
Rb0_4 Rb1_3 4.873529 1_545
Rb0_5 Rb1_2 4.873529 1_546
Rb0_6 Rb1_1 4.873529 1_555
Rb0_7 Rb1_0 4.873529 1_556
Rb1_0 Rb1_2 4.533591 1_545
Rb1_0 Rb1_2 4.533591 1_555
Rb1_0 Rb2_6 4.873529 1_555
Rb1_0 Rb1_4 4.994644 1_455
Rb1_0 Rb1_4 4.994644 1_555
Rb1_0 Rb1_6 5.115720 1_555
Rb1_0 Rb1_6 5.115720 1_445
Rb1_1 Rb1_3 4.533591 1_545
Rb1_1 Rb1_3 4.533591 1_555
Rb1_1 Rb2_7 4.873529 1_555
Rb1_1 Rb1_5 4.994644 1_455
Rb1_1 Rb1_5 4.994644 1_555
Rb1_1 Rb1_7 5.115720 1_555
Rb1_1 Rb1_7 5.115720 1_445
Rb1_2 Rb2_4 4.873529 1_565
Rb1_2 Rb1_6 4.994644 1_555
Rb1_2 Rb1_6 4.994644 1_455
Rb1_2 Rb1_4 5.115720 1_565
Rb1_2 Rb1_4 5.115720 1_455
Rb1_3 Rb2_5 4.873529 1_565
Rb1_3 Rb1_7 4.994644 1_555
Rb1_3 Rb1_7 4.994644 1_455
Rb1_3 Rb1_5 5.115720 1_565
Rb1_3 Rb1_5 5.115720 1_455
Rb1_4 Rb1_6 4.533591 1_545
Rb1_4 Rb1_6 4.533591 1_555
Rb1_4 Rb2_2 4.873529 1_655
Rb1_5 Rb1_7 4.533591 1_545
Rb1_5 Rb1_7 4.533591 1_555
Rb1_5 Rb2_3 4.873529 1_655
Rb1_6 Rb2_0 4.873529 1_665
Rb1_7 Rb2_1 4.873529 1_665
N0_0 O2_0 1.218984 1_555
N0_0 O0_2 1.424217 1_555
N0_0 Rb4_4 3.005599 1_455
N0_0 Rb3_4 3.005599 1_455
N0_1 O2_1 1.218984 1_555
N0_1 O0_3 1.424217 1_555
N0_1 Rb4_5 3.005599 1_455
N0_1 Rb3_5 3.005599 1_455
N0_2 O2_2 1.218984 1_555
N0_2 O0_0 1.424217 1_565
N0_2 Rb4_6 3.005599 1_455
N0_2 Rb3_6 3.005599 1_455
N0_3 O2_3 1.218984 1_555
N0_3 O0_1 1.424217 1_565
N0_3 Rb4_7 3.005599 1_455
N0_3 Rb3_7 3.005599 1_455
N0_4 O2_4 1.218984 1_555
N0_4 O0_6 1.424217 1_555
N0_4 Rb4_0 3.005599 1_555
N0_4 Rb3_0 3.005599 1_555
N0_5 O2_5 1.218984 1_555
N0_5 O0_7 1.424217 1_555
N0_5 Rb4_1 3.005599 1_555
N0_5 Rb3_1 3.005599 1_555
N0_6 O2_6 1.218984 1_555
N0_6 O0_4 1.424217 1_565
N0_6 Rb4_2 3.005599 1_555
N0_6 Rb3_2 3.005599 1_555
N0_7 O2_7 1.218984 1_555
N0_7 O0_5 1.424217 1_565
N0_7 Rb4_3 3.005599 1_555
N0_7 Rb3_3 3.005599 1_555
O0_0 O1_0 1.376222 1_555
O0_1 O1_1 1.376222 1_555
O0_2 O1_2 1.376222 1_555
O0_3 O1_3 1.376222 1_555
O0_4 O1_4 1.376222 1_555
O0_5 O1_5 1.376222 1_555
O0_6 O1_6 1.376222 1_555
O0_7 O1_7 1.376222 1_555
O1_0 Rb4_2 2.958544 1_545
O1_0 Rb3_2 2.958544 1_545
O1_0 Rb4_0 3.266190 1_555
O1_0 Rb3_0 3.266190 1_555
O1_1 Rb4_3 2.958544 1_545
O1_1 Rb3_3 2.958544 1_545
O1_1 Rb4_1 3.266190 1_555
O1_1 Rb3_1 3.266190 1_555
O1_2 Rb4_0 2.958544 1_555
O1_2 Rb3_0 2.958544 1_555
O1_2 Rb4_2 3.266190 1_555
O1_2 Rb3_2 3.266190 1_555
O1_3 Rb4_1 2.958544 1_555
O1_3 Rb3_1 2.958544 1_555
O1_3 Rb4_3 3.266190 1_555
O1_3 Rb3_3 3.266190 1_555
O1_4 Rb4_6 2.958544 1_545
O1_4 Rb3_6 2.958544 1_545
O1_4 Rb4_4 3.266190 1_555
O1_4 Rb3_4 3.266190 1_555
O1_5 Rb4_7 2.958544 1_545
O1_5 Rb3_7 2.958544 1_545
O1_5 Rb4_5 3.266190 1_555
O1_5 Rb3_5 3.266190 1_555
O1_6 Rb4_4 2.958544 1_555
O1_6 Rb3_4 2.958544 1_555
O1_6 Rb4_6 3.266190 1_555
O1_6 Rb3_6 3.266190 1_555
O1_7 Rb4_5 2.958544 1_555
O1_7 Rb3_5 2.958544 1_555
O1_7 Rb4_7 3.266190 1_555
O1_7 Rb3_7 3.266190 1_555
O2_0 Rb4_0 2.995012 1_555
O2_0 Rb3_0 2.995012 1_555
O2_1 Rb4_1 2.995012 1_555
O2_1 Rb3_1 2.995012 1_555
O2_2 Rb4_2 2.995012 1_555
O2_2 Rb3_2 2.995012 1_555
O2_3 Rb4_3 2.995012 1_555
O2_3 Rb3_3 2.995012 1_555
O2_4 Rb4_4 2.995012 1_555
O2_4 Rb3_4 2.995012 1_555
O2_5 Rb4_5 2.995012 1_555
O2_5 Rb3_5 2.995012 1_555
O2_6 Rb4_6 2.995012 1_555
O2_6 Rb3_6 2.995012 1_555
O2_7 Rb4_7 2.995012 1_555
O2_7 Rb3_7 2.995012 1_555
O3_0 Rb4_0 2.715580 1_555
O3_0 Rb2_4 2.803932 1_555
O3_0 Rb2_0 2.918924 1_555
O3_0 Rb2_6 3.025802 1_555
O3_1 Rb4_1 2.715580 1_555
O3_1 Rb2_5 2.803932 1_555
O3_1 Rb2_1 2.918924 1_555
O3_1 Rb2_7 3.025802 1_555
O3_2 Rb4_2 2.715580 1_555
O3_2 Rb2_6 2.803932 1_555
O3_2 Rb2_2 2.918924 1_555
O3_2 Rb2_4 3.025802 1_565
O3_3 Rb4_3 2.715580 1_555
O3_3 Rb2_7 2.803932 1_555
O3_3 Rb2_3 2.918924 1_555
O3_3 Rb2_5 3.025802 1_565
O3_4 Rb4_4 2.715580 1_555
O3_4 Rb2_0 2.803932 1_655
O3_4 Rb2_4 2.918924 1_555
O3_4 Rb2_2 3.025802 1_655
O3_5 Rb4_5 2.715580 1_555
O3_5 Rb2_1 2.803932 1_655
O3_5 Rb2_5 2.918924 1_555
O3_5 Rb2_3 3.025802 1_655
O3_6 Rb4_6 2.715580 1_555
O3_6 Rb2_2 2.803932 1_655
O3_6 Rb2_6 2.918924 1_555
O3_6 Rb2_0 3.025802 1_665
O3_7 Rb4_7 2.715580 1_555
O3_7 Rb2_3 2.803932 1_655
O3_7 Rb2_7 2.918924 1_555
O3_7 Rb2_1 3.025802 1_665
O4_0 Rb3_0 2.715580 1_555
O4_0 Rb0_4 2.803932 1_555
O4_0 Rb0_0 2.918924 1_555
O4_0 Rb0_6 3.025802 1_555
O4_1 Rb3_1 2.715580 1_555
O4_1 Rb0_5 2.803932 1_555
O4_1 Rb0_1 2.918924 1_555
O4_1 Rb0_7 3.025802 1_555
O4_2 Rb3_2 2.715580 1_555
O4_2 Rb0_6 2.803932 1_555
O4_2 Rb0_2 2.918924 1_555
O4_2 Rb0_4 3.025802 1_565
O4_3 Rb3_3 2.715580 1_555
O4_3 Rb0_7 2.803932 1_555
O4_3 Rb0_3 2.918924 1_555
O4_3 Rb0_5 3.025802 1_565
O4_4 Rb3_4 2.715580 1_555
O4_4 Rb0_0 2.803932 1_655
O4_4 Rb0_4 2.918924 1_555
O4_4 Rb0_2 3.025802 1_655
O4_5 Rb3_5 2.715580 1_555
O4_5 Rb0_1 2.803932 1_655
O4_5 Rb0_5 2.918924 1_555
O4_5 Rb0_3 3.025802 1_655
O4_6 Rb3_6 2.715580 1_555
O4_6 Rb0_2 2.803932 1_655
O4_6 Rb0_6 2.918924 1_555
O4_6 Rb0_0 3.025802 1_665
O4_7 Rb3_7 2.715580 1_555
O4_7 Rb0_3 2.803932 1_655
O4_7 Rb0_7 2.918924 1_555
O4_7 Rb0_1 3.025802 1_665
