# generated using pymatgen
data_CaGaBiB2O7
_symmetry_space_group_name_H-M   'P 1'
_cell_length_a   7.48629671
_cell_length_b   7.48629671
_cell_length_c   4.83304200
_cell_angle_alpha   90.00000000
_cell_angle_beta   90.00000000
_cell_angle_gamma   90.02889894
_symmetry_Int_Tables_number   1
_chemical_formula_structural   CaGaBiB2O7
_chemical_formula_sum   'Ca2 Ga2 Bi2 B4 O14'
_cell_volume   270.86605682
_cell_formula_units_Z   2
loop_
 _symmetry_equiv_pos_site_id
 _symmetry_equiv_pos_as_xyz
  1  'x, y, z'
loop_
 _atom_site_type_symbol
 _atom_site_label
 _atom_site_symmetry_multiplicity
 _atom_site_fract_x
 _atom_site_fract_y
 _atom_site_fract_z
 _atom_site_occupancy
  Ca  Ca0  1  0.66264100  0.33735900  0.49405400  1
  Ca  Ca1  1  0.33735900  0.66264100  0.49405400  1
  Ga  Ga0  1  0.50000000  0.00000000  0.99700800  1
  Ga  Ga1  1  0.00000000  0.50000000  0.99700800  1
  Bi  Bi0  1  0.83278700  0.83278700  0.50097200  1
  Bi  Bi1  1  0.16721300  0.16721300  0.50097200  1
  B  B0  1  0.86525900  0.13474100  0.05268000  1
  B  B1  1  0.36952200  0.36952200  0.94233700  1
  B  B2  1  0.13474100  0.86525900  0.05268000  1
  B  B3  1  0.63047800  0.63047800  0.94233700  1
  O  O0  1  0.00000000  0.00000000  0.15143100  1
  O  O1  1  0.50000000  0.50000000  0.83891500  1
  O  O2  1  0.85203500  0.14796500  0.76077400  1
  O  O3  1  0.35669400  0.35669400  0.23763100  1
  O  O4  1  0.14796500  0.85203500  0.76077400  1
  O  O5  1  0.64330600  0.64330600  0.23763100  1
  O  O6  1  0.57801500  0.80632000  0.79082700  1
  O  O7  1  0.07791800  0.69402600  0.20166000  1
  O  O8  1  0.42198500  0.19368000  0.79082700  1
  O  O9  1  0.92208200  0.30597400  0.20166000  1
  O  O10  1  0.69402600  0.07791800  0.20166000  1
  O  O11  1  0.19368000  0.42198500  0.79082700  1
  O  O12  1  0.30597400  0.92208200  0.20166000  1
  O  O13  1  0.80632000  0.57801500  0.79082700  1
loop_
_geom_bond_atom_site_label_1
_geom_bond_atom_site_label_2
_geom_bond_distance
_geom_bond_site_symmetry_2
Ca0 O2 2.384194 1_555
Ca0 O1 2.396763 1_555
Ca0 O9 2.413506 1_555
Ca0 O10 2.413506 1_555
Ca0 O13 2.541283 1_555
Ca0 O8 2.541283 1_555
Ca0 O3 2.608282 1_555
Ca0 O5 2.608282 1_555
Ca1 O4 2.384194 1_555
Ca1 O1 2.396763 1_555
Ca1 O12 2.413506 1_555
Ca1 O7 2.413506 1_555
Ca1 O6 2.541283 1_555
Ca1 O11 2.541283 1_555
Ca1 O3 2.608282 1_555
Ca1 O5 2.608282 1_555
Ga0 O12 1.851369 1_546
Ga0 O10 1.851369 1_556
Ga0 O6 1.853990 1_545
Ga0 O8 1.853990 1_555
Ga1 O9 1.851369 1_456
Ga1 O7 1.851369 1_556
Ga1 O11 1.853990 1_555
Ga1 O13 1.853990 1_455
Bi0 O6 2.374686 1_555
Bi0 O13 2.374686 1_555
Bi0 O5 2.375327 1_555
Bi0 O0 2.446701 1_665
Bi0 O7 2.557603 1_655
Bi0 O10 2.557603 1_565
Bi0 O4 2.676631 1_655
Bi0 O2 2.676631 1_565
Bi1 O11 2.374686 1_555
Bi1 O8 2.374686 1_555
Bi1 O3 2.375327 1_555
Bi1 O0 2.446701 1_555
Bi1 O12 2.557603 1_545
Bi1 O9 2.557603 1_455
Bi1 O2 2.676631 1_455
Bi1 O4 2.676631 1_545
B0 O2 1.417727 1_554
B0 O0 1.504595 1_655
B0 O10 1.530398 1_555
B0 O9 1.530398 1_555
B1 O3 1.433613 1_556
B1 O1 1.468722 1_555
B1 O11 1.556887 1_555
B1 O8 1.556887 1_555
B2 O4 1.417727 1_554
B2 O0 1.504595 1_565
B2 O7 1.530398 1_555
B2 O12 1.530398 1_555
B3 O5 1.433613 1_556
B3 O1 1.468722 1_555
B3 O13 1.556887 1_555
B3 O6 1.556887 1_555
