# generated using pymatgen
data_KBa(Fe2Se3)2
_symmetry_space_group_name_H-M   'P 1'
_cell_length_a   5.46133800
_cell_length_b   9.21492900
_cell_length_c   12.18637400
_cell_angle_alpha   90.00000000
_cell_angle_beta   90.00000000
_cell_angle_gamma   90.00000000
_symmetry_Int_Tables_number   1
_chemical_formula_structural   KBa(Fe2Se3)2
_chemical_formula_sum   'K2 Ba2 Fe8 Se12'
_cell_volume   613.28953144
_cell_formula_units_Z   2
loop_
 _symmetry_equiv_pos_site_id
 _symmetry_equiv_pos_as_xyz
  1  'x, y, z'
loop_
 _atom_site_type_symbol
 _atom_site_label
 _atom_site_symmetry_multiplicity
 _atom_site_fract_x
 _atom_site_fract_y
 _atom_site_fract_z
 _atom_site_occupancy
  K  K0  1  0.00000000  0.75129000  0.67253100  1
  K  K1  1  0.00000000  0.24871000  0.17253100  1
  Ba  Ba0  1  0.50000000  0.75201000  0.32616700  1
  Ba  Ba1  1  0.50000000  0.24799000  0.82616700  1
  Fe  Fe0  1  0.74834200  0.88963700  0.99755300  1
  Fe  Fe1  1  0.25165800  0.11036300  0.49755300  1
  Fe  Fe2  1  0.25450800  0.61060100  0.00203400  1
  Fe  Fe3  1  0.74549200  0.38939900  0.50203400  1
  Fe  Fe4  1  0.74549200  0.61060100  0.00203400  1
  Fe  Fe5  1  0.25450800  0.38939900  0.50203400  1
  Fe  Fe6  1  0.25165800  0.88963700  0.99755300  1
  Fe  Fe7  1  0.74834200  0.11036300  0.49755300  1
  Se  Se0  1  0.00000000  0.45642900  0.88997500  1
  Se  Se1  1  0.00000000  0.54357100  0.38997500  1
  Se  Se2  1  0.50000000  0.03911300  0.11179700  1
  Se  Se3  1  0.50000000  0.96088700  0.61179700  1
  Se  Se4  1  0.00000000  0.03066100  0.87552100  1
  Se  Se5  1  0.00000000  0.96933900  0.37552100  1
  Se  Se6  1  0.50000000  0.47512700  0.12598800  1
  Se  Se7  1  0.50000000  0.52487300  0.62598800  1
  Se  Se8  1  0.00000000  0.75196200  0.12898700  1
  Se  Se9  1  0.00000000  0.24803800  0.62898700  1
  Se  Se10  1  0.50000000  0.74813200  0.86986000  1
  Se  Se11  1  0.50000000  0.25186800  0.36986000  1
loop_
_geom_bond_atom_site_label_1
_geom_bond_atom_site_label_2
_geom_bond_distance
_geom_bond_site_symmetry_2
K0 Se3 3.425599 1_455
K0 Se3 3.425599 1_555
K0 Se7 3.483015 1_555
K0 Se7 3.483015 1_455
K0 Se4 3.570253 1_565
K0 Se10 3.638695 1_455
K0 Se10 3.638695 1_555
K0 Se0 3.795324 1_555
K1 Se2 3.425599 1_555
K1 Se2 3.425599 1_455
K1 Se6 3.483015 1_555
K1 Se6 3.483015 1_455
K1 Se5 3.570253 1_545
K1 Se11 3.638695 1_555
K1 Se11 3.638695 1_455
K1 Se1 3.795324 1_555
Ba0 Se1 3.427897 1_655
Ba0 Se1 3.427897 1_555
Ba0 Se5 3.439329 1_655
Ba0 Se5 3.439329 1_555
Ba0 Se6 3.529997 1_555
Ba0 Se8 3.637379 1_655
Ba0 Se8 3.637379 1_555
Ba0 Se2 3.718061 1_565
Ba0 Se3 3.977528 1_555
Ba1 Se0 3.427897 1_555
Ba1 Se0 3.427897 1_655
Ba1 Se4 3.439329 1_655
Ba1 Se4 3.439329 1_555
Ba1 Se7 3.529997 1_555
Ba1 Se9 3.637379 1_555
Ba1 Se9 3.637379 1_655
Ba1 Se3 3.718061 1_545
Ba1 Se2 3.977528 1_556
Fe0 Se2 2.382232 1_566
Fe0 Se4 2.406089 1_665
Fe0 Se10 2.441576 1_555
Fe0 Se8 2.462501 1_656
Fe1 Se3 2.382232 1_545
Fe1 Se5 2.406089 1_545
Fe1 Se11 2.441576 1_555
Fe1 Se9 2.462501 1_555
Fe2 Se6 2.374392 1_555
Fe2 Se0 2.411464 1_554
Fe2 Se10 2.449099 1_554
Fe2 Se8 2.454044 1_555
Fe3 Se7 2.374392 1_555
Fe3 Se1 2.411464 1_655
Fe3 Se11 2.449099 1_555
Fe3 Se9 2.454044 1_655
Fe4 Se6 2.374392 1_555
Fe4 Se0 2.411464 1_654
Fe4 Se10 2.449099 1_554
Fe4 Se8 2.454044 1_655
Fe5 Se7 2.374392 1_555
Fe5 Se1 2.411464 1_555
Fe5 Se11 2.449099 1_555
Fe5 Se9 2.454044 1_555
Fe6 Se2 2.382232 1_566
Fe6 Se4 2.406089 1_565
Fe6 Se10 2.441576 1_555
Fe6 Se8 2.462501 1_556
Fe7 Se3 2.382232 1_545
Fe7 Se5 2.406089 1_645
Fe7 Se11 2.441576 1_555
Fe7 Se9 2.462501 1_655
