# generated using pymatgen
data_Ba4Nd2Cu6O13
_symmetry_space_group_name_H-M   'P 1'
_cell_length_a   12.66339587
_cell_length_b   12.63692518
_cell_length_c   5.57537332
_cell_angle_alpha   77.53485070
_cell_angle_beta   77.00416664
_cell_angle_gamma   25.46098266
_symmetry_Int_Tables_number   1
_chemical_formula_structural   Ba4Nd2Cu6O13
_chemical_formula_sum   'Ba4 Nd2 Cu6 O13'
_cell_volume   373.55751596
_cell_formula_units_Z   1
loop_
 _symmetry_equiv_pos_site_id
 _symmetry_equiv_pos_as_xyz
  1  'x, y, z'
loop_
 _atom_site_type_symbol
 _atom_site_label
 _atom_site_symmetry_multiplicity
 _atom_site_fract_x
 _atom_site_fract_y
 _atom_site_fract_z
 _atom_site_occupancy
  Ba  Ba0  1  0.16250600  0.64838700  0.83749400  1
  Ba  Ba1  1  0.64838700  0.16250600  0.35161300  1
  Ba  Ba2  1  0.83749400  0.35161300  0.16250600  1
  Ba  Ba3  1  0.35161300  0.83749400  0.64838700  1
  Nd  Nd0  1  0.00000000  0.50000000  0.00000000  1
  Nd  Nd1  1  0.50000000  0.00000000  0.50000000  1
  Cu  Cu0  1  0.57394600  0.07088400  0.92911600  1
  Cu  Cu1  1  0.07088400  0.57394600  0.42605400  1
  Cu  Cu2  1  0.42605400  0.92911600  0.07088400  1
  Cu  Cu3  1  0.92911600  0.42605400  0.57394600  1
  Cu  Cu4  1  0.26148800  0.73851200  0.26148800  1
  Cu  Cu5  1  0.73851200  0.26148800  0.73851200  1
  O  O0  1  0.69655600  0.15257800  0.84742200  1
  O  O1  1  0.15257800  0.69655600  0.30344400  1
  O  O2  1  0.30344400  0.84742200  0.15257800  1
  O  O3  1  0.84742200  0.30344400  0.69655600  1
  O  O4  1  0.31342800  0.31342800  0.18657200  1
  O  O5  1  0.81342800  0.81342800  0.68657200  1
  O  O6  1  0.31530700  0.31530700  0.68469300  1
  O  O7  1  0.81358500  0.81358500  0.18641500  1
  O  O8  1  0.18657200  0.18657200  0.31342800  1
  O  O9  1  0.68657200  0.68657200  0.81342800  1
  O  O10  1  0.18641500  0.18641500  0.81358500  1
  O  O11  1  0.68469300  0.68469300  0.31530700  1
  O  O12  1  0.50000000  0.50000000  0.50000000  1
loop_
_geom_bond_atom_site_label_1
_geom_bond_atom_site_label_2
_geom_bond_distance
_geom_bond_site_symmetry_2
Ba0 O1 2.744575 1_556
Ba0 O0 2.744575 1_465
Ba0 O6 2.878544 1_555
Ba0 O0 2.915435 1_555
Ba0 O1 2.915435 1_555
Ba0 O12 2.959252 1_555
Ba0 O5 2.977579 1_455
Ba0 O4 2.977579 1_556
Ba0 O7 2.982713 1_456
Ba1 O0 2.744575 1_554
Ba1 O1 2.744575 1_645
Ba1 O6 2.878544 1_555
Ba1 O0 2.915435 1_555
Ba1 O1 2.915435 1_555
Ba1 O12 2.959252 1_555
Ba1 O5 2.977579 1_545
Ba1 O4 2.977579 1_555
Ba1 O7 2.982713 1_545
Ba2 O3 2.744575 1_554
Ba2 O2 2.744575 1_645
Ba2 O11 2.878544 1_555
Ba2 O2 2.915435 1_555
Ba2 O3 2.915435 1_555
Ba2 O12 2.959252 1_555
Ba2 O9 2.977579 1_554
Ba2 O8 2.977579 1_655
Ba2 O10 2.982713 1_654
Ba3 O3 2.744575 1_465
Ba3 O2 2.744575 1_556
Ba3 O11 2.878544 1_555
Ba3 O3 2.915435 1_555
Ba3 O2 2.915435 1_555
Ba3 O12 2.959252 1_555
Ba3 O9 2.977579 1_555
Ba3 O8 2.977579 1_565
Ba3 O10 2.982713 1_565
Nd0 O7 2.477603 1_455
Nd0 O10 2.477603 1_554
Nd0 O11 2.503356 1_455
Nd0 O6 2.503356 1_554
Nd0 O4 2.508868 1_555
Nd0 O8 2.508868 1_555
Nd0 O9 2.508868 1_454
Nd0 O5 2.508868 1_454
Nd1 O7 2.477603 1_545
Nd1 O10 2.477603 1_555
Nd1 O11 2.503356 1_545
Nd1 O6 2.503356 1_555
Nd1 O4 2.508868 1_555
Nd1 O8 2.508868 1_555
Nd1 O5 2.508868 1_545
Nd1 O9 2.508868 1_545
Cu0 O4 1.961813 1_556
Cu0 O5 1.961813 1_545
Cu0 O7 1.991458 1_546
Cu0 O6 2.011785 1_555
Cu0 O0 2.461173 1_555
Cu1 O5 1.961813 1_455
Cu1 O4 1.961813 1_555
Cu1 O7 1.991458 1_455
Cu1 O6 2.011785 1_555
Cu1 O1 2.461173 1_555
Cu2 O8 1.961813 1_565
Cu2 O9 1.961813 1_554
Cu2 O10 1.991458 1_564
Cu2 O11 2.011785 1_555
Cu2 O2 2.461173 1_555
Cu3 O8 1.961813 1_655
Cu3 O9 1.961813 1_555
Cu3 O10 1.991458 1_655
Cu3 O11 2.011785 1_555
Cu3 O3 2.461173 1_555
Cu4 O1 1.832953 1_555
Cu4 O2 1.832953 1_555
Cu4 O12 1.900763 1_555
Cu5 O0 1.832953 1_555
Cu5 O3 1.832953 1_555
Cu5 O12 1.900763 1_555
