# generated using pymatgen
data_YMg6Ni
_symmetry_space_group_name_H-M   'P 1'
_cell_length_a   6.58703385
_cell_length_b   6.58703385
_cell_length_c   4.84106900
_cell_angle_alpha   90.00000000
_cell_angle_beta   90.00000000
_cell_angle_gamma   124.15996829
_symmetry_Int_Tables_number   1
_chemical_formula_structural   YMg6Ni
_chemical_formula_sum   'Y1 Mg6 Ni1'
_cell_volume   173.81007363
_cell_formula_units_Z   1
loop_
 _symmetry_equiv_pos_site_id
 _symmetry_equiv_pos_as_xyz
  1  'x, y, z'
loop_
 _atom_site_type_symbol
 _atom_site_label
 _atom_site_symmetry_multiplicity
 _atom_site_fract_x
 _atom_site_fract_y
 _atom_site_fract_z
 _atom_site_occupancy
  Y  Y0  1  0.19924100  0.80075900  0.00000000  1
  Mg  Mg0  1  0.18008400  0.32597900  0.00000000  1
  Mg  Mg1  1  0.67402100  0.81991600  0.00000000  1
  Mg  Mg2  1  0.65814100  0.34185900  0.00000000  1
  Mg  Mg3  1  0.31489600  0.19009500  0.50000000  1
  Mg  Mg4  1  0.80990500  0.68510400  0.50000000  1
  Mg  Mg5  1  0.81313200  0.18686800  0.50000000  1
  Ni  Ni0  1  0.35058100  0.64941900  0.50000000  1
loop_
_geom_bond_atom_site_label_1
_geom_bond_atom_site_label_2
_geom_bond_distance
_geom_bond_site_symmetry_2
Mg0 Mg3 2.888133 1_554
Mg0 Mg3 2.888133 1_555
Mg0 Ni0 2.995381 1_554
Mg0 Ni0 2.995381 1_555
Mg0 Mg1 3.046903 1_555
Mg0 Y0 3.058320 1_555
Mg0 Mg2 3.091455 1_555
Mg0 Mg1 3.121703 1_445
Mg0 Mg5 3.170773 1_455
Mg0 Mg5 3.170773 1_454
Mg0 Y0 3.532041 1_545
Mg1 Mg4 2.888133 1_555
Mg1 Mg4 2.888133 1_554
Mg1 Ni0 2.995381 1_554
Mg1 Ni0 2.995381 1_555
Mg1 Y0 3.058320 1_555
Mg1 Mg2 3.091455 1_555
Mg1 Mg5 3.170773 1_565
Mg1 Mg5 3.170773 1_564
Mg1 Y0 3.532041 1_655
Mg2 Mg5 3.018957 1_555
Mg2 Mg5 3.018957 1_554
Mg2 Mg3 3.071163 1_554
Mg2 Mg4 3.071163 1_555
Mg2 Mg4 3.071163 1_554
Mg2 Mg3 3.071163 1_555
Mg2 Y0 3.121189 1_545
Mg2 Y0 3.121189 1_655
Mg3 Ni0 2.900126 1_555
Mg3 Mg4 3.053515 1_555
Mg3 Mg4 3.115091 1_445
Mg3 Y0 3.289726 1_545
Mg3 Y0 3.289726 1_546
Mg3 Mg5 3.293248 1_455
Mg3 Mg5 3.293880 1_555
Mg4 Ni0 2.900126 1_555
Mg4 Y0 3.289726 1_655
Mg4 Y0 3.289726 1_656
Mg4 Mg5 3.293248 1_565
Mg4 Mg5 3.293880 1_555
Mg5 Ni0 3.114957 1_545
Mg5 Ni0 3.114957 1_655
Ni0 Y0 2.993752 1_556
Ni0 Y0 2.993752 1_555
