# generated using pymatgen
data_Y2CdCu2
_symmetry_space_group_name_H-M   'P 1'
_cell_length_a   7.47171262
_cell_length_b   7.47171262
_cell_length_c   3.76936200
_cell_angle_alpha   90.00000000
_cell_angle_beta   90.00000000
_cell_angle_gamma   89.99470239
_symmetry_Int_Tables_number   1
_chemical_formula_structural   Y2CdCu2
_chemical_formula_sum   'Y4 Cd2 Cu4'
_cell_volume   210.43024701
_cell_formula_units_Z   2
loop_
 _symmetry_equiv_pos_site_id
 _symmetry_equiv_pos_as_xyz
  1  'x, y, z'
loop_
 _atom_site_type_symbol
 _atom_site_label
 _atom_site_symmetry_multiplicity
 _atom_site_fract_x
 _atom_site_fract_y
 _atom_site_fract_z
 _atom_site_occupancy
  Y  Y0  1  0.67590210  0.17590210  0.50000000  1
  Y  Y1  1  0.32409790  0.82409790  0.50000000  1
  Y  Y2  1  0.17590971  0.32409029  0.50000000  1
  Y  Y3  1  0.82409029  0.67590971  0.50000000  1
  Cd  Cd0  1  0.00000000  0.00000000  -0.00000000  1
  Cd  Cd1  1  0.50000000  0.50000000  -0.00000000  1
  Cu  Cu0  1  0.11863998  0.61863998  0.00000000  1
  Cu  Cu1  1  0.88136002  0.38136002  0.00000000  1
  Cu  Cu2  1  0.61869335  0.88130665  -0.00000000  1
  Cu  Cu3  1  0.38130665  0.11869335  -0.00000000  1
loop_
_geom_bond_atom_site_label_1
_geom_bond_atom_site_label_2
_geom_bond_distance
_geom_bond_site_symmetry_2
Cd0 Cu3 2.983930 1_555
Cd0 Cu2 2.983930 1_445
Cd0 Cu1 2.984035 1_455
Cd0 Cu0 2.984035 1_545
Cd0 Y1 3.338080 1_545
Cd0 Y1 3.338080 1_544
Cd0 Y0 3.338080 1_455
Cd0 Y0 3.338080 1_454
Cd0 Y3 3.338237 1_444
Cd0 Y2 3.338237 1_554
Cd0 Y3 3.338237 1_445
Cd0 Y2 3.338237 1_555
Cd1 Cu3 2.983930 1_555
Cd1 Cu2 2.983930 1_555
Cd1 Cu1 2.984035 1_555
Cd1 Cu0 2.984035 1_555
Cd1 Y0 3.338080 1_555
Cd1 Y0 3.338080 1_554
Cd1 Y1 3.338080 1_554
Cd1 Y1 3.338080 1_555
Cd1 Y3 3.338237 1_554
Cd1 Y3 3.338237 1_555
Cd1 Y2 3.338237 1_554
Cd1 Y2 3.338237 1_555
Cu0 Cu1 2.507358 1_455
Cu0 Y1 2.875006 1_555
Cu0 Y1 2.875006 1_554
Cu0 Y3 2.928895 1_455
Cu0 Y2 2.928895 1_555
Cu0 Y3 2.928895 1_454
Cu0 Y2 2.928895 1_554
Cu1 Y0 2.875006 1_554
Cu1 Y0 2.875006 1_555
Cu1 Y3 2.928895 1_554
Cu1 Y2 2.928895 1_655
Cu1 Y3 2.928895 1_555
Cu1 Y2 2.928895 1_654
Cu2 Cu3 2.508254 1_565
Cu2 Y3 2.874368 1_554
Cu2 Y3 2.874368 1_555
Cu2 Y0 2.929145 1_564
Cu2 Y1 2.929145 1_555
Cu2 Y1 2.929145 1_554
Cu2 Y0 2.929145 1_565
Cu3 Y2 2.874368 1_555
Cu3 Y2 2.874368 1_554
Cu3 Y0 2.929145 1_554
Cu3 Y0 2.929145 1_555
Cu3 Y1 2.929145 1_544
Cu3 Y1 2.929145 1_545
