# generated using pymatgen
data_DyB2Ru
_symmetry_space_group_name_H-M   'P 1'
_cell_length_a   5.91799100
_cell_length_b   5.33574400
_cell_length_c   6.36608100
_cell_angle_alpha   90.00000000
_cell_angle_beta   90.00000000
_cell_angle_gamma   90.00000000
_symmetry_Int_Tables_number   1
_chemical_formula_structural   DyB2Ru
_chemical_formula_sum   'Dy4 B8 Ru4'
_cell_volume   201.02100745
_cell_formula_units_Z   4
loop_
 _symmetry_equiv_pos_site_id
 _symmetry_equiv_pos_as_xyz
  1  'x, y, z'
loop_
 _atom_site_type_symbol
 _atom_site_label
 _atom_site_symmetry_multiplicity
 _atom_site_fract_x
 _atom_site_fract_y
 _atom_site_fract_z
 _atom_site_occupancy
  Dy  Dy0  1  0.01024100  0.25000000  0.33734400  1
  Dy  Dy1  1  0.51024100  0.25000000  0.16265600  1
  Dy  Dy2  1  0.98975900  0.75000000  0.66265600  1
  Dy  Dy3  1  0.48975900  0.75000000  0.83734400  1
  B  B0  1  0.36952500  0.08436900  0.53861000  1
  B  B1  1  0.86952500  0.41563100  0.96139000  1
  B  B2  1  0.63047500  0.58436900  0.46139000  1
  B  B3  1  0.13047500  0.91563100  0.03861000  1
  B  B4  1  0.63047500  0.91563100  0.46139000  1
  B  B5  1  0.13047500  0.58436900  0.03861000  1
  B  B6  1  0.36952500  0.41563100  0.53861000  1
  B  B7  1  0.86952500  0.08436900  0.96139000  1
  Ru  Ru0  1  0.18182900  0.25000000  0.81822200  1
  Ru  Ru1  1  0.68182900  0.25000000  0.68177800  1
  Ru  Ru2  1  0.81817100  0.75000000  0.18177800  1
  Ru  Ru3  1  0.31817100  0.75000000  0.31822200  1
loop_
_geom_bond_atom_site_label_1
_geom_bond_atom_site_label_2
_geom_bond_distance
_geom_bond_site_symmetry_2
Dy0 Ru1 2.930061 1_455
Dy1 Ru0 2.930061 1_554
Dy2 Ru3 2.930061 1_655
Dy3 Ru2 2.930061 1_556
B0 B6 1.767529 1_555
B0 B4 1.853952 1_545
B0 Ru1 2.242234 1_555
B0 Ru0 2.276707 1_555
B0 Ru3 2.289942 1_545
B0 Dy0 2.635071 1_555
B0 Dy1 2.683778 1_555
B0 Dy3 2.702969 1_545
B0 Dy2 2.976186 1_445
B1 B7 1.767529 1_555
B1 B5 1.853952 1_656
B1 Ru0 2.242234 1_655
B1 Ru1 2.276707 1_555
B1 Ru2 2.289942 1_556
B1 Dy1 2.635071 1_556
B1 Dy0 2.683778 1_656
B1 Dy2 2.702969 1_555
B1 Dy3 2.976186 1_555
B2 B4 1.767529 1_555
B2 B6 1.853952 1_555
B2 Ru3 2.242234 1_555
B2 Ru2 2.276707 1_555
B2 Ru1 2.289942 1_555
B2 Dy2 2.635071 1_555
B2 Dy3 2.683778 1_555
B2 Dy1 2.702969 1_555
B2 Dy0 2.976186 1_655
B3 B5 1.767529 1_555
B3 B7 1.853952 1_464
B3 Ru2 2.242234 1_455
B3 Ru3 2.276707 1_555
B3 Ru0 2.289942 1_564
B3 Dy3 2.635071 1_554
B3 Dy2 2.683778 1_454
B3 Dy0 2.702969 1_565
B3 Dy1 2.976186 1_565
B4 Ru3 2.242234 1_555
B4 Ru2 2.276707 1_555
B4 Ru1 2.289942 1_565
B4 Dy2 2.635071 1_555
B4 Dy3 2.683778 1_555
B4 Dy1 2.702969 1_565
B4 Dy0 2.976186 1_665
B5 Ru2 2.242234 1_455
B5 Ru3 2.276707 1_555
B5 Ru0 2.289942 1_554
B5 Dy3 2.635071 1_554
B5 Dy2 2.683778 1_454
B5 Dy0 2.702969 1_555
B5 Dy1 2.976186 1_555
B6 Ru1 2.242234 1_555
B6 Ru0 2.276707 1_555
B6 Ru3 2.289942 1_555
B6 Dy0 2.635071 1_555
B6 Dy1 2.683778 1_555
B6 Dy3 2.702969 1_555
B6 Dy2 2.976186 1_455
B7 Ru0 2.242234 1_655
B7 Ru1 2.276707 1_555
B7 Ru2 2.289942 1_546
B7 Dy1 2.635071 1_556
B7 Dy0 2.683778 1_656
B7 Dy2 2.702969 1_545
B7 Dy3 2.976186 1_545
