# generated using pymatgen
data_Li4Pr3Ge4
_symmetry_space_group_name_H-M   'P 1'
_cell_length_a   4.46831700
_cell_length_b   6.89944600
_cell_length_c   8.49238395
_cell_angle_alpha   113.96720838
_cell_angle_beta   105.25277578
_cell_angle_gamma   90.00000000
_symmetry_Int_Tables_number   1
_chemical_formula_structural   Li4Pr3Ge4
_chemical_formula_sum   'Li4 Pr3 Ge4'
_cell_volume   229.10783303
_cell_formula_units_Z   1
loop_
 _symmetry_equiv_pos_site_id
 _symmetry_equiv_pos_as_xyz
  1  'x, y, z'
loop_
 _atom_site_type_symbol
 _atom_site_label
 _atom_site_symmetry_multiplicity
 _atom_site_fract_x
 _atom_site_fract_y
 _atom_site_fract_z
 _atom_site_occupancy
  Li  Li0  1  0.67083600  0.98056500  0.34167100  1
  Li  Li1  1  0.32916400  0.01943500  0.65832900  1
  Li  Li2  1  0.32916400  0.63889400  0.65832900  1
  Li  Li3  1  0.67083600  0.36110600  0.34167100  1
  Pr  Pr0  1  0.00000000  0.00000000  0.00000000  1
  Pr  Pr1  1  0.13128400  0.63128400  0.26256800  1
  Pr  Pr2  1  0.86871600  0.36871600  0.73743200  1
  Ge  Ge0  1  0.50000000  0.68403600  0.00000000  1
  Ge  Ge1  1  0.50000000  0.31596400  0.00000000  1
  Ge  Ge2  1  0.78688600  0.78688600  0.57377100  1
  Ge  Ge3  1  0.21311400  0.21311400  0.42622900  1
loop_
_geom_bond_atom_site_label_1
_geom_bond_atom_site_label_2
_geom_bond_distance
_geom_bond_site_symmetry_2
Li0 Pr1 3.147005 1_655
Li0 Pr1 3.147008 1_555
Li0 Pr2 3.220809 1_565
Li1 Pr2 3.147005 1_455
Li1 Pr2 3.147008 1_555
Li1 Pr1 3.220809 1_545
Li2 Pr2 3.147005 1_455
Li2 Pr2 3.147008 1_555
Li2 Pr1 3.220809 1_555
Li3 Pr1 3.147005 1_655
Li3 Pr1 3.147008 1_555
Li3 Pr2 3.220809 1_555
Ge0 Ge1 2.539493 1_555
Ge0 Li2 2.683168 1_554
Ge0 Li0 2.683168 1_555
Ge0 Pr0 3.121500 1_665
Ge0 Pr0 3.121500 1_565
Ge0 Pr2 3.226652 1_454
Ge0 Pr1 3.226652 1_655
Ge0 Pr1 3.226652 1_555
Ge0 Pr2 3.226652 1_554
Ge1 Li1 2.683168 1_554
Ge1 Li3 2.683168 1_555
Ge1 Pr0 3.121500 1_555
Ge1 Pr0 3.121500 1_655
Ge1 Pr1 3.226652 1_655
Ge1 Pr2 3.226652 1_454
Ge1 Pr1 3.226652 1_555
Ge1 Pr2 3.226652 1_554
Ge2 Li1 2.666395 1_665
Ge2 Li2 2.666399 1_655
Ge2 Li1 2.666403 1_565
Ge2 Li2 2.666406 1_555
Ge2 Li0 2.746229 1_555
Ge2 Li3 2.746235 1_555
Ge2 Pr0 3.167559 1_666
Ge2 Pr1 3.215616 1_655
Ge2 Pr1 3.215619 1_555
Ge3 Li0 2.666395 1_445
Ge3 Li3 2.666399 1_455
Ge3 Li0 2.666403 1_545
Ge3 Li3 2.666406 1_555
Ge3 Li1 2.746229 1_555
Ge3 Li2 2.746235 1_555
Ge3 Pr0 3.167559 1_555
Ge3 Pr2 3.215616 1_455
Ge3 Pr2 3.215619 1_555
