# generated using pymatgen
data_BaTi(S2O7)3
_symmetry_space_group_name_H-M   'P 1'
_cell_length_a   13.38856300
_cell_length_b   7.31776100
_cell_length_c   18.44396993
_cell_angle_alpha   87.06856109
_cell_angle_beta   90.00000000
_cell_angle_gamma   90.00000000
_symmetry_Int_Tables_number   1
_chemical_formula_structural   BaTi(S2O7)3
_chemical_formula_sum   'Ba4 Ti4 S24 O84'
_cell_volume   1804.67051700
_cell_formula_units_Z   4
loop_
 _symmetry_equiv_pos_site_id
 _symmetry_equiv_pos_as_xyz
  1  'x, y, z'
loop_
 _atom_site_type_symbol
 _atom_site_label
 _atom_site_symmetry_multiplicity
 _atom_site_fract_x
 _atom_site_fract_y
 _atom_site_fract_z
 _atom_site_occupancy
  Ba  Ba0  1  0.74579000  0.93867800  0.50902700  1
  Ba  Ba1  1  0.24579000  0.06132200  0.99097300  1
  Ba  Ba2  1  0.25421000  0.06132200  0.49097300  1
  Ba  Ba3  1  0.75421000  0.93867800  0.00902700  1
  Ti  Ti0  1  0.13227100  0.70100400  0.75401700  1
  Ti  Ti1  1  0.63227100  0.29899600  0.74598300  1
  Ti  Ti2  1  0.86772900  0.29899600  0.24598300  1
  Ti  Ti3  1  0.36772900  0.70100400  0.25401700  1
  S  S0  1  0.19551200  0.55888100  0.59467400  1
  S  S1  1  0.69551200  0.44111900  0.90532600  1
  S  S2  1  0.80448800  0.44111900  0.40532600  1
  S  S3  1  0.30448800  0.55888100  0.09467400  1
  S  S4  1  0.02202900  0.78499900  0.59814700  1
  S  S5  1  0.52202900  0.21500100  0.90185300  1
  S  S6  1  0.97797100  0.21500100  0.40185300  1
  S  S7  1  0.47797100  0.78499900  0.09814700  1
  S  S8  1  0.26694300  0.06018000  0.76809400  1
  S  S9  1  0.76694300  0.93982000  0.73190600  1
  S  S10  1  0.73305700  0.93982000  0.23190600  1
  S  S11  1  0.23305700  0.06018000  0.26809400  1
  S  S12  1  0.35205700  0.73788100  0.83661100  1
  S  S13  1  0.85205700  0.26211900  0.66338900  1
  S  S14  1  0.64794300  0.26211900  0.16338900  1
  S  S15  1  0.14794300  0.73788100  0.33661100  1
  S  S16  1  0.01140400  0.78595400  0.90109900  1
  S  S17  1  0.51140400  0.21404600  0.59890100  1
  S  S18  1  0.98859600  0.21404600  0.09890100  1
  S  S19  1  0.48859600  0.78595400  0.40109900  1
  S  S20  1  0.04827500  0.39954400  0.87615900  1
  S  S21  1  0.54827500  0.60045600  0.62384100  1
  S  S22  1  0.95172500  0.60045600  0.12384100  1
  S  S23  1  0.45172500  0.39954400  0.37615900  1
  O  O0  1  0.02909800  0.76210900  0.67976600  1
  O  O1  1  0.52909800  0.23789100  0.82023400  1
  O  O2  1  0.97090200  0.23789100  0.32023400  1
  O  O3  1  0.47090200  0.76210900  0.17976600  1
  O  O4  1  0.19324300  0.56378000  0.67626100  1
  O  O5  1  0.69324300  0.43622000  0.82373900  1
  O  O6  1  0.80675700  0.43622000  0.32373900  1
  O  O7  1  0.30675700  0.56378000  0.17626100  1
  O  O8  1  0.92137400  0.76136000  0.57389500  1
  O  O9  1  0.42137400  0.23864000  0.92610500  1
  O  O10  1  0.07862600  0.23864000  0.42610500  1
  O  O11  1  0.57862600  0.76136000  0.07389500  1
  O  O12  1  0.07760800  0.59892800  0.57149800  1
  O  O13  1  0.57760800  0.40107200  0.92850200  1
  O  O14  1  0.92239200  0.40107200  0.42850200  1
  O  O15  1  0.42239200  0.59892800  0.07149800  1
  O  O16  1  0.07764700  0.94216900  0.57036600  1
  O  O17  1  0.57764700  0.05783100  0.92963400  1
  O  O18  1  0.92235300  0.05783100  0.42963400  1
  O  O19  1  0.42235300  0.94216900  0.07036600  1
  O  O20  1  0.25510500  0.70581100  0.56329300  1
  O  O21  1  0.75510500  0.29418900  0.93670700  1
  O  O22  1  0.74489500  0.29418900  0.43670700  1
  O  O23  1  0.24489500  0.70581100  0.06329300  1
  O  O24  1  0.25035200  0.66429500  0.81585300  1
  O  O25  1  0.75035200  0.33570500  0.68414700  1
  O  O26  1  0.74964800  0.33570500  0.18414700  1
  O  O27  1  0.24964800  0.66429500  0.31585300  1
  O  O28  1  0.19537400  0.93912700  0.72759200  1
  O  O29  1  0.69537400  0.06087300  0.77240800  1
  O  O30  1  0.80462600  0.06087300  0.27240800  1
  O  O31  1  0.30462600  0.93912700  0.22759200  1
  O  O32  1  0.22652900  0.09717800  0.83846500  1
  O  O33  1  0.72652900  0.90282200  0.66153500  1
  O  O34  1  0.77347100  0.90282200  0.16153500  1
  O  O35  1  0.27347100  0.09717800  0.33846500  1
  O  O36  1  0.36397300  0.92277900  0.78145800  1
  O  O37  1  0.86397300  0.07722100  0.71854200  1
  O  O38  1  0.63602700  0.07722100  0.21854200  1
  O  O39  1  0.13602700  0.92277900  0.28145800  1
  O  O40  1  0.34836200  0.79992200  0.90958700  1
  O  O41  1  0.84836200  0.20007800  0.59041300  1
  O  O42  1  0.65163800  0.20007800  0.09041300  1
  O  O43  1  0.15163800  0.79992200  0.40958700  1
  O  O44  1  0.21021400  0.37678700  0.57182000  1
  O  O45  1  0.71021400  0.62321300  0.92818000  1
  O  O46  1  0.78978600  0.62321300  0.42818000  1
  O  O47  1  0.28978600  0.37678700  0.07182000  1
  O  O48  1  0.30500300  0.20556000  0.72198900  1
  O  O49  1  0.80500300  0.79444000  0.77801100  1
  O  O50  1  0.69499700  0.79444000  0.27801100  1
  O  O51  1  0.19499700  0.20556000  0.22198900  1
  O  O52  1  0.43175100  0.62286000  0.81605200  1
  O  O53  1  0.93175100  0.37714000  0.68394800  1
  O  O54  1  0.56824900  0.37714000  0.18394800  1
  O  O55  1  0.06824900  0.62286000  0.31605200  1
  O  O56  1  0.08280600  0.47707600  0.80221400  1
  O  O57  1  0.58280600  0.52292400  0.69778600  1
  O  O58  1  0.91719400  0.52292400  0.19778600  1
  O  O59  1  0.41719400  0.47707600  0.30221400  1
  O  O60  1  0.97786300  0.56939400  0.90423700  1
  O  O61  1  0.47786300  0.43060600  0.59576300  1
  O  O62  1  0.02213700  0.43060600  0.09576300  1
  O  O63  1  0.52213700  0.56939400  0.40423700  1
  O  O64  1  0.04447900  0.82246500  0.82351700  1
  O  O65  1  0.54447900  0.17753500  0.67648300  1
  O  O66  1  0.95552100  0.17753500  0.17648300  1
  O  O67  1  0.45552100  0.82246500  0.32351700  1
  O  O68  1  0.91856600  0.87371500  0.91636100  1
  O  O69  1  0.41856600  0.12628500  0.58363900  1
  O  O70  1  0.08143400  0.12628500  0.08363900  1
  O  O71  1  0.58143400  0.87371500  0.41636100  1
  O  O72  1  0.09378600  0.80856700  0.95015700  1
  O  O73  1  0.59378600  0.19143300  0.54984300  1
  O  O74  1  0.90621400  0.19143300  0.04984300  1
  O  O75  1  0.40621400  0.80856700  0.45015700  1
  O  O76  1  0.97844500  0.25494900  0.86911100  1
  O  O77  1  0.47844500  0.74505100  0.63088900  1
  O  O78  1  0.02155500  0.74505100  0.13088900  1
  O  O79  1  0.52155500  0.25494900  0.36911100  1
  O  O80  1  0.13065900  0.37670400  0.92620700  1
  O  O81  1  0.63065900  0.62329600  0.57379300  1
  O  O82  1  0.86934100  0.62329600  0.07379300  1
  O  O83  1  0.36934100  0.37670400  0.42620700  1
loop_
_geom_bond_atom_site_label_1
_geom_bond_atom_site_label_2
_geom_bond_distance
_geom_bond_site_symmetry_2
Ba0 O33 2.823473 1_555
Ba0 O71 2.841192 1_555
Ba0 O41 2.844628 1_565
Ba0 O22 2.862246 1_565
Ba0 O46 2.872580 1_555
Ba0 O73 2.876083 1_565
Ba0 O18 2.891722 1_565
Ba0 O8 2.912503 1_555
Ba0 O81 2.974448 1_555
Ba1 O32 2.823473 1_555
Ba1 O70 2.841192 1_556
Ba1 O40 2.844628 1_545
Ba1 O23 2.862246 1_546
Ba1 O47 2.872580 1_556
Ba1 O72 2.876083 1_545
Ba1 O19 2.891722 1_546
Ba1 O9 2.912503 1_555
Ba1 O80 2.974448 1_555
Ba2 O35 2.823473 1_555
Ba2 O69 2.841192 1_555
Ba2 O43 2.844628 1_545
Ba2 O20 2.862246 1_545
Ba2 O44 2.872580 1_555
Ba2 O75 2.876083 1_545
Ba2 O16 2.891722 1_545
Ba2 O10 2.912503 1_555
Ba2 O83 2.974448 1_555
Ba3 O34 2.823473 1_555
Ba3 O68 2.841192 1_554
Ba3 O42 2.844628 1_565
Ba3 O21 2.862246 1_564
Ba3 O45 2.872580 1_554
Ba3 O74 2.876083 1_565
Ba3 O17 2.891722 1_564
Ba3 O11 2.912503 1_555
Ba3 O82 2.974448 1_555
O0 S4 1.509102 1_555
O0 Ti0 1.980124 1_555
O1 S5 1.509102 1_555
O1 Ti1 1.980124 1_555
O2 S6 1.509102 1_555
O2 Ti2 1.980124 1_555
O3 S7 1.509102 1_555
O3 Ti3 1.980124 1_555
O4 S0 1.507353 1_555
O4 Ti0 1.969461 1_555
O5 S1 1.507353 1_555
O5 Ti1 1.969461 1_555
O6 S2 1.507353 1_555
O6 Ti2 1.969461 1_555
O7 S3 1.507353 1_555
O7 Ti3 1.969461 1_555
O8 S4 1.433183 1_655
O9 S5 1.433183 1_555
O10 S6 1.433183 1_455
O11 S7 1.433183 1_555
O12 S4 1.648567 1_555
O12 S0 1.657605 1_555
O13 S5 1.648567 1_555
O13 S1 1.657605 1_555
O14 S6 1.648567 1_555
O14 S2 1.657605 1_555
O15 S7 1.648567 1_555
O15 S3 1.657605 1_555
O16 S4 1.442071 1_555
O17 S5 1.442071 1_555
O18 S6 1.442071 1_555
O19 S7 1.442071 1_555
O20 S0 1.436658 1_555
O21 S1 1.436658 1_555
O22 S2 1.436658 1_555
O23 S3 1.436658 1_555
O24 S12 1.520466 1_555
O24 Ti0 1.959827 1_555
O25 S13 1.520466 1_555
O25 Ti1 1.959827 1_555
O26 S14 1.520466 1_555
O26 Ti2 1.959827 1_555
O27 S15 1.520466 1_555
O27 Ti3 1.959827 1_555
O28 S8 1.525970 1_565
O28 Ti0 1.975060 1_555
O29 S9 1.525970 1_545
O29 Ti1 1.975060 1_555
O30 S10 1.525970 1_545
O30 Ti2 1.975060 1_555
O31 S11 1.525970 1_565
O31 Ti3 1.975060 1_555
O32 S8 1.444512 1_555
O33 S9 1.444512 1_555
O34 S10 1.444512 1_555
O35 S11 1.444512 1_555
O36 S8 1.653485 1_565
O36 S12 1.658363 1_555
O37 S9 1.653485 1_545
O37 S13 1.658363 1_555
O38 S10 1.653485 1_545
O38 S14 1.658363 1_555
O39 S11 1.653485 1_565
O39 S15 1.658363 1_555
O40 S12 1.443154 1_555
O41 S13 1.443154 1_555
O42 S14 1.443154 1_555
O43 S15 1.443154 1_555
O44 S0 1.431602 1_555
O45 S1 1.431602 1_555
O46 S2 1.431602 1_555
O47 S3 1.431602 1_555
O48 S8 1.421981 1_555
O49 S9 1.421981 1_555
O50 S10 1.421981 1_555
O51 S11 1.421981 1_555
O52 S12 1.422443 1_555
O53 S13 1.422443 1_555
O54 S14 1.422443 1_555
O55 S15 1.422443 1_555
O56 S20 1.522022 1_555
O56 Ti0 1.940362 1_555
O57 S21 1.522022 1_555
O57 Ti1 1.940362 1_555
O58 S22 1.522022 1_555
O58 Ti2 1.940362 1_555
O59 S23 1.522022 1_555
O59 Ti3 1.940362 1_555
O60 S16 1.645300 1_655
O60 S20 1.663608 1_655
O61 S17 1.645300 1_555
O61 S21 1.663608 1_555
O62 S18 1.645300 1_455
O62 S22 1.663608 1_455
O63 S19 1.645300 1_555
O63 S23 1.663608 1_555
O64 S16 1.508612 1_555
O64 Ti0 1.982746 1_555
O65 S17 1.508612 1_555
O65 Ti1 1.982746 1_555
O66 S18 1.508612 1_555
O66 Ti2 1.982746 1_555
O67 S19 1.508612 1_555
O67 Ti3 1.982746 1_555
O68 S16 1.433574 1_655
O69 S17 1.433574 1_555
O70 S18 1.433574 1_455
O71 S19 1.433574 1_555
O72 S16 1.441514 1_555
O73 S17 1.441514 1_555
O74 S18 1.441514 1_555
O75 S19 1.441514 1_555
O76 S20 1.422902 1_655
O77 S21 1.422902 1_555
O78 S22 1.422902 1_455
O79 S23 1.422902 1_555
O80 S20 1.442517 1_555
O81 S21 1.442517 1_555
O82 S22 1.442517 1_555
O83 S23 1.442517 1_555
