# generated using pymatgen
data_Mg(Hg11N3)2
_symmetry_space_group_name_H-M   'P 1'
_cell_length_a   11.45427325
_cell_length_b   11.45427325
_cell_length_c   11.45427325
_cell_angle_alpha   136.56118541
_cell_angle_beta   136.56118541
_cell_angle_gamma   63.11391677
_symmetry_Int_Tables_number   1
_chemical_formula_structural   Mg(Hg11N3)2
_chemical_formula_sum   'Mg1 Hg22 N6'
_cell_volume   701.47343790
_cell_formula_units_Z   1
loop_
 _symmetry_equiv_pos_site_id
 _symmetry_equiv_pos_as_xyz
  1  'x, y, z'
loop_
 _atom_site_type_symbol
 _atom_site_label
 _atom_site_symmetry_multiplicity
 _atom_site_fract_x
 _atom_site_fract_y
 _atom_site_fract_z
 _atom_site_occupancy
  Mg  Mg0  1  0.00000000  0.00000000  0.00000000  1
  Hg  Hg0  1  0.71728300  0.71728300  0.00000000  1
  Hg  Hg1  1  0.28271700  0.28271700  0.00000000  1
  Hg  Hg2  1  0.91714100  0.50661400  0.26768900  1
  Hg  Hg3  1  0.23892500  0.64945200  0.73231100  1
  Hg  Hg4  1  0.64945200  0.91714100  0.41052700  1
  Hg  Hg5  1  0.50661400  0.23892500  0.58947300  1
  Hg  Hg6  1  0.08285900  0.49338600  0.73231100  1
  Hg  Hg7  1  0.76107500  0.35054800  0.26768900  1
  Hg  Hg8  1  0.35054800  0.08285900  0.58947300  1
  Hg  Hg9  1  0.49338600  0.76107500  0.41052700  1
  Hg  Hg10  1  0.88201300  0.26208800  0.86131200  1
  Hg  Hg11  1  0.40077600  0.02070000  0.13868800  1
  Hg  Hg12  1  0.02070000  0.88201300  0.61992400  1
  Hg  Hg13  1  0.26208800  0.40077600  0.38007600  1
  Hg  Hg14  1  0.11798700  0.73791200  0.13868800  1
  Hg  Hg15  1  0.59922400  0.97930000  0.86131200  1
  Hg  Hg16  1  0.97930000  0.11798700  0.38007600  1
  Hg  Hg17  1  0.73791200  0.59922400  0.61992400  1
  Hg  Hg18  1  0.57423200  0.57423200  0.00000000  1
  Hg  Hg19  1  0.42576800  0.42576800  0.00000000  1
  Hg  Hg20  1  0.25000000  0.75000000  0.50000000  1
  Hg  Hg21  1  0.75000000  0.25000000  0.50000000  1
  N  N0  1  0.83104500  0.83104500  0.00000000  1
  N  N1  1  0.16895500  0.16895500  0.00000000  1
  N  N2  1  0.10120300  0.75483600  0.85603900  1
  N  N3  1  0.89879700  0.24516400  0.14396100  1
  N  N4  1  0.24516400  0.10120300  0.34636800  1
  N  N5  1  0.75483600  0.89879700  0.65363200  1
loop_
_geom_bond_atom_site_label_1
_geom_bond_atom_site_label_2
_geom_bond_distance
_geom_bond_site_symmetry_2
Mg0 N3 2.248514 1_455
Mg0 N2 2.248514 1_544
Mg0 N5 2.248519 1_444
Mg0 N4 2.248519 1_555
Hg0 N0 2.220730 1_555
Hg0 Hg18 2.792475 1_555
Hg1 N1 2.220730 1_555
Hg1 Hg19 2.792475 1_555
Hg2 N3 2.234774 1_555
Hg3 N2 2.234774 1_555
Hg4 N5 2.234763 1_555
Hg5 N4 2.234776 1_555
Hg6 N2 2.234774 1_555
Hg7 N3 2.234774 1_555
Hg8 N4 2.234763 1_555
Hg9 N5 2.234776 1_555
Hg10 N1 2.484277 1_656
Hg10 Hg21 3.114906 1_555
Hg11 N1 2.484284 1_555
Hg11 Hg21 3.114911 1_555
Hg12 N1 2.484280 1_566
Hg12 Hg20 3.114909 1_555
Hg13 N1 2.484284 1_555
Hg13 Hg20 3.114911 1_555
Hg14 N0 2.484277 1_455
Hg14 Hg20 3.114906 1_555
Hg15 N0 2.484284 1_556
Hg15 Hg20 3.114911 1_555
Hg16 N0 2.484280 1_545
Hg16 Hg21 3.114909 1_555
Hg17 N0 2.484284 1_556
Hg17 Hg21 3.114911 1_555
Hg18 Hg19 2.898142 1_555
Hg18 Hg4 2.938814 1_555
Hg18 Hg5 2.938814 1_554
Hg18 Hg2 2.938814 1_555
Hg18 Hg3 2.938814 1_554
Hg19 Hg8 2.938814 1_554
Hg19 Hg9 2.938814 1_555
Hg19 Hg7 2.938814 1_555
Hg19 Hg6 2.938814 1_554
