# generated using pymatgen
data_Gd2MgIrO6
_symmetry_space_group_name_H-M   'P 1'
_cell_length_a   5.74251800
_cell_length_b   5.41981200
_cell_length_c   9.46273809
_cell_angle_alpha   55.22723394
_cell_angle_beta   90.00000000
_cell_angle_gamma   90.00000000
_symmetry_Int_Tables_number   1
_chemical_formula_structural   Gd2MgIrO6
_chemical_formula_sum   'Gd4 Mg2 Ir2 O12'
_cell_volume   241.91839114
_cell_formula_units_Z   2
loop_
 _symmetry_equiv_pos_site_id
 _symmetry_equiv_pos_as_xyz
  1  'x, y, z'
loop_
 _atom_site_type_symbol
 _atom_site_label
 _atom_site_symmetry_multiplicity
 _atom_site_fract_x
 _atom_site_fract_y
 _atom_site_fract_z
 _atom_site_occupancy
  Gd  Gd0  1  0.93165500  0.73219000  0.74872300  1
  Gd  Gd1  1  0.56834500  0.73219000  0.24872300  1
  Gd  Gd2  1  0.06834500  0.26781000  0.25127700  1
  Gd  Gd3  1  0.43165500  0.26781000  0.75127700  1
  Mg  Mg0  1  0.00000000  0.00000000  0.00000000  1
  Mg  Mg1  1  0.50000000  0.00000000  0.50000000  1
  Ir  Ir0  1  0.50000000  0.50000000  0.00000000  1
  Ir  Ir1  1  0.00000000  0.50000000  0.50000000  1
  O  O0  1  0.69519300  0.24801800  0.94424300  1
  O  O1  1  0.80480700  0.24801800  0.44424300  1
  O  O2  1  0.30480700  0.75198200  0.05575700  1
  O  O3  1  0.19519300  0.75198200  0.55575700  1
  O  O4  1  0.53948100  0.85923900  0.75215000  1
  O  O5  1  0.96051900  0.85923900  0.25215000  1
  O  O6  1  0.46051900  0.14076100  0.24785000  1
  O  O7  1  0.03948100  0.14076100  0.74785000  1
  O  O8  1  0.19941300  0.37067500  0.94213000  1
  O  O9  1  0.30058700  0.37067500  0.44213000  1
  O  O10  1  0.80058700  0.62932500  0.05787000  1
  O  O11  1  0.69941300  0.62932500  0.55787000  1
loop_
_geom_bond_atom_site_label_1
_geom_bond_atom_site_label_2
_geom_bond_distance
_geom_bond_site_symmetry_2
Gd0 O7 2.294792 1_665
Gd0 O3 2.326501 1_655
Gd0 O8 2.337196 1_655
Gd0 O4 2.360608 1_555
Gd0 O11 2.549416 1_555
Gd0 O0 2.571978 1_555
Gd0 O1 2.731300 1_565
Gd0 O10 2.752242 1_556
Gd1 O6 2.294792 1_565
Gd1 O2 2.326501 1_555
Gd1 O9 2.337196 1_555
Gd1 O5 2.360608 1_555
Gd1 O10 2.549416 1_555
Gd1 O1 2.571978 1_555
Gd1 O0 2.731300 1_564
Gd1 O11 2.752242 1_555
Gd2 O5 2.294792 1_445
Gd2 O1 2.326501 1_455
Gd2 O10 2.337196 1_455
Gd2 O6 2.360608 1_555
Gd2 O9 2.549416 1_555
Gd2 O2 2.571978 1_555
Gd2 O3 2.731300 1_545
Gd2 O8 2.752242 1_554
Gd3 O4 2.294792 1_545
Gd3 O0 2.326501 1_555
Gd3 O11 2.337196 1_555
Gd3 O7 2.360608 1_555
Gd3 O8 2.549416 1_555
Gd3 O3 2.571978 1_555
Gd3 O2 2.731300 1_546
Gd3 O9 2.752242 1_555
Mg0 O7 2.061610 1_554
Mg0 O5 2.061610 1_445
Mg0 O0 2.083282 1_454
Mg0 O2 2.083282 1_545
Mg0 O8 2.095798 1_554
Mg0 O10 2.095798 1_445
Mg1 O6 2.061610 1_555
Mg1 O4 2.061610 1_545
Mg1 O1 2.083282 1_555
Mg1 O3 2.083282 1_545
Mg1 O11 2.095798 1_545
Mg1 O9 2.095798 1_555
Ir0 O4 2.033278 1_554
Ir0 O6 2.033278 1_555
Ir0 O10 2.051459 1_555
Ir0 O8 2.051459 1_554
Ir0 O2 2.054706 1_555
Ir0 O0 2.054706 1_554
Ir1 O7 2.033278 1_555
Ir1 O5 2.033278 1_455
Ir1 O9 2.051459 1_555
Ir1 O11 2.051459 1_455
Ir1 O3 2.054706 1_555
Ir1 O1 2.054706 1_455
