# generated using pymatgen
data_AlGa3N4
_symmetry_space_group_name_H-M   'P 1'
_cell_length_a   4.47168536
_cell_length_b   4.47168536
_cell_length_c   4.47168536
_cell_angle_alpha   90.00000000
_cell_angle_beta   90.00000000
_cell_angle_gamma   90.00000000
_symmetry_Int_Tables_number   1
_chemical_formula_structural   AlGa3N4
_chemical_formula_sum   'Al1 Ga3 N4'
_cell_volume   89.41568612
_cell_formula_units_Z   1
loop_
 _symmetry_equiv_pos_site_id
 _symmetry_equiv_pos_as_xyz
  1  'x, y, z'
loop_
 _atom_site_type_symbol
 _atom_site_label
 _atom_site_symmetry_multiplicity
 _atom_site_fract_x
 _atom_site_fract_y
 _atom_site_fract_z
 _atom_site_occupancy
  Al  Al0  1  0.00000000  -0.00000000  0.00000000  1
  Ga  Ga0  1  0.50000000  0.50000000  0.00000000  1
  Ga  Ga1  1  0.50000000  -0.00000000  0.50000000  1
  Ga  Ga2  1  -0.00000000  0.50000000  0.50000000  1
  N  N0  1  0.75571442  0.75571442  0.24428558  1
  N  N1  1  0.75571442  0.24428558  0.75571442  1
  N  N2  1  0.24428558  0.75571442  0.75571442  1
  N  N3  1  0.24428558  0.24428558  0.24428558  1
loop_
_geom_bond_atom_site_label_1
_geom_bond_atom_site_label_2
_geom_bond_distance
_geom_bond_site_symmetry_2
Al0 N2 1.892037 1_544
Al0 N3 1.892037 1_555
Al0 N1 1.892037 1_454
Al0 N0 1.892037 1_445
Ga0 N3 1.951496 1_555
Ga0 N1 1.951496 1_554
Ga0 N2 1.951496 1_554
Ga0 N0 1.951496 1_555
Ga1 N0 1.951496 1_545
Ga1 N3 1.951496 1_555
Ga1 N2 1.951496 1_545
Ga1 N1 1.951496 1_555
Ga2 N0 1.951496 1_455
Ga2 N3 1.951496 1_555
Ga2 N1 1.951496 1_455
Ga2 N2 1.951496 1_555
