# generated using pymatgen
data_CaCuSb2O7
_symmetry_space_group_name_H-M   'P 1'
_cell_length_a   9.21492300
_cell_length_b   10.51164100
_cell_length_c   10.85026743
_cell_angle_alpha   86.00896390
_cell_angle_beta   90.00000000
_cell_angle_gamma   90.00000000
_symmetry_Int_Tables_number   1
_chemical_formula_structural   CaCuSb2O7
_chemical_formula_sum   'Ca6 Cu6 Sb12 O42'
_cell_volume   1048.45117034
_cell_formula_units_Z   6
loop_
 _symmetry_equiv_pos_site_id
 _symmetry_equiv_pos_as_xyz
  1  'x, y, z'
loop_
 _atom_site_type_symbol
 _atom_site_label
 _atom_site_symmetry_multiplicity
 _atom_site_fract_x
 _atom_site_fract_y
 _atom_site_fract_z
 _atom_site_occupancy
  Ca  Ca0  1  0.44888500  0.83278400  0.57415300  1
  Ca  Ca1  1  0.94366000  0.50000000  0.75000000  1
  Ca  Ca2  1  0.44888500  0.16721600  0.92584700  1
  Ca  Ca3  1  0.05634000  0.50000000  0.25000000  1
  Ca  Ca4  1  0.55111500  0.16721600  0.42584700  1
  Ca  Ca5  1  0.55111500  0.83278400  0.07415300  1
  Cu  Cu0  1  0.92933700  0.19851600  0.40986300  1
  Cu  Cu1  1  0.07066300  0.80148400  0.59013700  1
  Cu  Cu2  1  0.43245700  0.50000000  0.25000000  1
  Cu  Cu3  1  0.92933700  0.80148400  0.09013700  1
  Cu  Cu4  1  0.56754300  0.50000000  0.75000000  1
  Cu  Cu5  1  0.07066300  0.19851600  0.90986300  1
  Sb  Sb0  1  0.20250300  0.82968500  0.29343200  1
  Sb  Sb1  1  0.75661200  0.84280300  0.38089600  1
  Sb  Sb2  1  0.24338800  0.84280300  0.88089600  1
  Sb  Sb3  1  0.79749700  0.82968500  0.79343200  1
  Sb  Sb4  1  0.29405200  0.51561900  0.96159900  1
  Sb  Sb5  1  0.75661200  0.15719700  0.11910400  1
  Sb  Sb6  1  0.70594800  0.51561900  0.46159900  1
  Sb  Sb7  1  0.24338800  0.15719700  0.61910400  1
  Sb  Sb8  1  0.29405200  0.48438100  0.53840100  1
  Sb  Sb9  1  0.70594800  0.48438100  0.03840100  1
  Sb  Sb10  1  0.79749700  0.17031500  0.70656800  1
  Sb  Sb11  1  0.20250300  0.17031500  0.20656800  1
  O  O0  1  0.77393600  0.79753500  0.96858300  1
  O  O1  1  0.76875400  0.16479300  0.29443600  1
  O  O2  1  0.87603700  0.00000000  0.75000000  1
  O  O3  1  0.89076300  0.48731500  0.10452300  1
  O  O4  1  0.39105800  0.04971100  0.56656200  1
  O  O5  1  0.93804700  0.72899700  0.71415700  1
  O  O6  1  0.35896000  0.69335600  0.94240200  1
  O  O7  1  0.10923700  0.48731500  0.60452300  1
  O  O8  1  0.72365900  0.52653200  0.86504700  1
  O  O9  1  0.39105800  0.95028900  0.93343800  1
  O  O10  1  0.72365900  0.47346800  0.63495300  1
  O  O11  1  0.44019100  0.42348000  0.87988600  1
  O  O12  1  0.94005000  0.14251200  0.04285400  1
  O  O13  1  0.06195300  0.72899700  0.21415700  1
  O  O14  1  0.64104000  0.30664400  0.05759800  1
  O  O15  1  0.35896000  0.30664400  0.55759800  1
  O  O16  1  0.93804700  0.27100300  0.78584300  1
  O  O17  1  0.60894200  0.95028900  0.43343800  1
  O  O18  1  0.22606400  0.79753500  0.46858300  1
  O  O19  1  0.55980900  0.57652000  0.12011400  1
  O  O20  1  0.38707400  0.18719200  0.27353100  1
  O  O21  1  0.27634100  0.47346800  0.13495300  1
  O  O22  1  0.05995000  0.14251200  0.54285400  1
  O  O23  1  0.27634100  0.52653200  0.36504700  1
  O  O24  1  0.89076300  0.51268500  0.39547700  1
  O  O25  1  0.55980900  0.42348000  0.37988600  1
  O  O26  1  0.10923700  0.51268500  0.89547700  1
  O  O27  1  0.61292600  0.18719200  0.77353100  1
  O  O28  1  0.61292600  0.81280800  0.72646900  1
  O  O29  1  0.05995000  0.85748800  0.95714600  1
  O  O30  1  0.06195300  0.27100300  0.28584300  1
  O  O31  1  0.77393600  0.20246500  0.53141700  1
  O  O32  1  0.12396300  0.00000000  0.25000000  1
  O  O33  1  0.23124600  0.16479300  0.79443600  1
  O  O34  1  0.60894200  0.04971100  0.06656200  1
  O  O35  1  0.94005000  0.85748800  0.45714600  1
  O  O36  1  0.22606400  0.20246500  0.03141700  1
  O  O37  1  0.76875400  0.83520700  0.20556400  1
  O  O38  1  0.44019100  0.57652000  0.62011400  1
  O  O39  1  0.64104000  0.69335600  0.44240200  1
  O  O40  1  0.23124600  0.83520700  0.70556400  1
  O  O41  1  0.38707400  0.81280800  0.22646900  1
loop_
_geom_bond_atom_site_label_1
_geom_bond_atom_site_label_2
_geom_bond_distance
_geom_bond_site_symmetry_2
Ca0 O28 2.238775 1_555
Ca0 O4 2.337557 1_565
Ca0 O18 2.392573 1_555
Ca0 O17 2.402000 1_555
Ca0 O40 2.461884 1_555
Ca0 O38 2.706369 1_555
Ca0 O39 2.760181 1_555
Ca1 O26 2.206044 1_655
Ca1 O7 2.206044 1_655
Ca1 O10 2.407153 1_555
Ca1 O8 2.407153 1_555
Ca1 O16 2.412034 1_555
Ca1 O5 2.412034 1_555
Ca2 O27 2.238775 1_555
Ca2 O9 2.337557 1_545
Ca2 O36 2.392573 1_556
Ca2 O34 2.402000 1_556
Ca2 O33 2.461884 1_555
Ca2 O11 2.706369 1_555
Ca2 O14 2.760181 1_556
Ca3 O24 2.206044 1_455
Ca3 O3 2.206044 1_455
Ca3 O23 2.407153 1_555
Ca3 O21 2.407153 1_555
Ca3 O13 2.412034 1_555
Ca3 O30 2.412034 1_555
Ca4 O20 2.238775 1_555
Ca4 O17 2.337557 1_545
Ca4 O31 2.392573 1_555
Ca4 O4 2.402000 1_555
Ca4 O1 2.461884 1_555
Ca4 O25 2.706369 1_555
Ca4 O15 2.760181 1_555
Ca5 O41 2.238775 1_555
Ca5 O34 2.337557 1_565
Ca5 O0 2.392573 1_554
Ca5 O9 2.402000 1_554
Ca5 O37 2.461884 1_555
Ca5 O19 2.706369 1_555
Ca5 O6 2.760181 1_554
Cu0 O30 1.934431 1_655
Cu0 O22 1.938853 1_655
Cu0 O31 1.949223 1_555
Cu0 O1 1.986376 1_555
Cu1 O5 1.934431 1_455
Cu1 O35 1.938853 1_455
Cu1 O18 1.949223 1_555
Cu1 O40 1.986376 1_555
Cu2 O23 1.937533 1_555
Cu2 O21 1.937533 1_555
Cu2 O19 1.962779 1_555
Cu2 O25 1.962779 1_555
Cu3 O13 1.934431 1_655
Cu3 O29 1.938853 1_654
Cu3 O0 1.949223 1_554
Cu3 O37 1.986376 1_555
Cu4 O10 1.937533 1_555
Cu4 O8 1.937533 1_555
Cu4 O11 1.962779 1_555
Cu4 O38 1.962779 1_555
Cu5 O16 1.934431 1_455
Cu5 O12 1.938853 1_456
Cu5 O36 1.949223 1_556
Cu5 O33 1.986376 1_555
O0 Sb3 1.919271 1_555
O1 Sb5 1.912893 1_555
O2 Sb3 1.957951 1_545
O2 Sb10 1.957951 1_555
O3 Sb9 1.849095 1_555
O4 Sb7 1.882267 1_555
O5 Sb3 1.914217 1_555
O6 Sb4 1.958964 1_555
O6 Sb2 1.975211 1_555
O7 Sb8 1.849095 1_555
O8 Sb9 1.909154 1_556
O9 Sb2 1.882267 1_555
O10 Sb6 1.909154 1_555
O11 Sb4 1.912368 1_555
O12 Sb5 1.892994 1_555
O13 Sb0 1.914217 1_555
O14 Sb9 1.958964 1_555
O14 Sb5 1.975211 1_555
O15 Sb8 1.958964 1_555
O15 Sb7 1.975211 1_555
O16 Sb10 1.914217 1_555
O17 Sb1 1.882267 1_555
O18 Sb0 1.919271 1_555
O19 Sb9 1.912368 1_555
O20 Sb11 1.862810 1_555
O21 Sb4 1.909154 1_554
O22 Sb7 1.892994 1_555
O23 Sb8 1.909154 1_555
O24 Sb6 1.849095 1_555
O25 Sb6 1.912368 1_555
O26 Sb4 1.849095 1_555
O27 Sb10 1.862810 1_555
O28 Sb3 1.862810 1_555
O29 Sb2 1.892994 1_555
O30 Sb11 1.914217 1_555
O31 Sb10 1.919271 1_555
O32 Sb0 1.957951 1_545
O32 Sb11 1.957951 1_555
O33 Sb7 1.912893 1_555
O34 Sb5 1.882267 1_555
O35 Sb1 1.892994 1_555
O36 Sb11 1.919271 1_555
O37 Sb1 1.912893 1_555
O38 Sb8 1.912368 1_555
O39 Sb6 1.958964 1_555
O39 Sb1 1.975211 1_555
O40 Sb2 1.912893 1_555
O41 Sb0 1.862810 1_555
