# generated using pymatgen
data_LiLu2W2(ClO4)2
_symmetry_space_group_name_H-M   'P 1'
_cell_length_a   6.00297735
_cell_length_b   6.64226592
_cell_length_c   7.01464837
_cell_angle_alpha   73.97834921
_cell_angle_beta   83.18556621
_cell_angle_gamma   71.40499578
_symmetry_Int_Tables_number   1
_chemical_formula_structural   LiLu2W2(ClO4)2
_chemical_formula_sum   'Li1 Lu2 W2 Cl2 O8'
_cell_volume   254.65519189
_cell_formula_units_Z   1
loop_
 _symmetry_equiv_pos_site_id
 _symmetry_equiv_pos_as_xyz
  1  'x, y, z'
loop_
 _atom_site_type_symbol
 _atom_site_label
 _atom_site_symmetry_multiplicity
 _atom_site_fract_x
 _atom_site_fract_y
 _atom_site_fract_z
 _atom_site_occupancy
  Li  Li0  1  0.11202400  0.64507700  0.86103200  1
  Lu  Lu0  1  0.25509600  0.18066100  0.85305000  1
  Lu  Lu1  1  0.72629000  0.79592700  0.17273600  1
  W  W0  1  0.36965100  0.35997600  0.26190800  1
  W  W1  1  0.62912800  0.62775300  0.74679200  1
  Cl  Cl0  1  0.01408000  0.02089800  0.19838700  1
  Cl  Cl1  1  0.97237700  0.00388500  0.73449900  1
  O  O0  1  0.33776100  0.26237300  0.52632500  1
  O  O1  1  0.65817600  0.74821000  0.47788400  1
  O  O2  1  0.41637900  0.46222600  0.83040200  1
  O  O3  1  0.58343200  0.50768900  0.21762300  1
  O  O4  1  0.94394300  0.46754400  0.81402800  1
  O  O5  1  0.08654300  0.54857800  0.16580200  1
  O  O6  1  0.46063100  0.12462000  0.14637500  1
  O  O7  1  0.52824000  0.85458300  0.89130600  1
loop_
_geom_bond_atom_site_label_1
_geom_bond_atom_site_label_2
_geom_bond_distance
_geom_bond_site_symmetry_2
Li0 O2 1.869505 1_555
Li0 O4 1.889368 1_455
Li0 O5 2.057469 1_556
Lu0 O4 2.181368 1_455
Lu0 O7 2.229427 1_545
Lu0 O0 2.238011 1_555
Lu0 O2 2.326939 1_555
Lu0 O6 2.404421 1_556
Lu1 O1 2.085634 1_555
Lu1 O6 2.229503 1_565
Lu1 O5 2.265316 1_655
Lu1 O3 2.269439 1_555
Lu1 O7 2.302053 1_554
Cl0 Lu1 2.668061 1_445
Cl0 Lu0 2.795703 1_554
Cl1 Li0 2.214806 1_645
Cl1 Lu0 2.663728 1_655
O0 W0 1.796754 1_555
O1 W1 1.845673 1_555
O2 W1 1.882999 1_555
O3 W0 1.801732 1_555
O4 W1 1.891617 1_555
O5 W0 1.833036 1_555
O6 W0 1.857085 1_555
O7 W1 1.944197 1_555
