# generated using pymatgen
data_NaNdV4O12
_symmetry_space_group_name_H-M   'P 1'
_cell_length_a   5.31300817
_cell_length_b   5.31300817
_cell_length_c   7.53354434
_cell_angle_alpha   90.00000000
_cell_angle_beta   90.00000000
_cell_angle_gamma   90.00000000
_symmetry_Int_Tables_number   1
_chemical_formula_structural   NaNdV4O12
_chemical_formula_sum   'Na1 Nd1 V4 O12'
_cell_volume   212.65731011
_cell_formula_units_Z   1
loop_
 _symmetry_equiv_pos_site_id
 _symmetry_equiv_pos_as_xyz
  1  'x, y, z'
loop_
 _atom_site_type_symbol
 _atom_site_label
 _atom_site_symmetry_multiplicity
 _atom_site_fract_x
 _atom_site_fract_y
 _atom_site_fract_z
 _atom_site_occupancy
  Na  Na0  1  0.50000000  0.50000000  -0.00000000  1
  Nd  Nd0  1  0.00000000  -0.00000000  0.50000000  1
  V  V0  1  -0.00000000  0.50000000  0.75549518  1
  V  V1  1  0.00000000  0.50000000  0.24450482  1
  V  V2  1  0.50000000  -0.00000000  0.75549518  1
  V  V3  1  0.50000000  -0.00000000  0.24450482  1
  O  O0  1  0.24526153  0.24526153  0.25508321  1
  O  O1  1  0.24526153  0.24526153  0.74491679  1
  O  O2  1  0.75473847  0.75473847  0.74491679  1
  O  O3  1  0.75473847  0.75473847  0.25508321  1
  O  O4  1  0.75473847  0.24526153  0.74491679  1
  O  O5  1  0.75473847  0.24526153  0.25508321  1
  O  O6  1  0.24526153  0.75473847  0.74491679  1
  O  O7  1  0.24526153  0.75473847  0.25508321  1
  O  O8  1  0.00000000  0.50000000  0.50000000  1
  O  O9  1  0.00000000  0.50000000  0.00000000  1
  O  O10  1  0.50000000  -0.00000000  0.50000000  1
  O  O11  1  0.50000000  -0.00000000  0.00000000  1
loop_
_geom_bond_atom_site_label_1
_geom_bond_atom_site_label_2
_geom_bond_distance
_geom_bond_site_symmetry_2
Na0 O11 2.656504 1_555
Na0 O11 2.656504 1_565
Na0 O9 2.656504 1_555
Na0 O9 2.656504 1_655
Na0 O4 2.712266 1_554
Na0 O1 2.712266 1_554
Na0 O7 2.712266 1_555
Na0 O0 2.712266 1_555
Na0 O5 2.712266 1_555
Na0 O2 2.712266 1_554
Na0 O6 2.712266 1_554
Na0 O3 2.712266 1_555
Nd0 O3 2.607754 1_445
Nd0 O2 2.607754 1_445
Nd0 O7 2.607754 1_545
Nd0 O4 2.607754 1_455
Nd0 O1 2.607754 1_555
Nd0 O5 2.607754 1_455
Nd0 O0 2.607754 1_555
Nd0 O6 2.607754 1_545
Nd0 O10 2.656504 1_555
Nd0 O8 2.656504 1_545
Nd0 O8 2.656504 1_555
Nd0 O10 2.656504 1_455
O0 V1 1.880459 1_555
O0 V3 1.880459 1_555
O1 V0 1.880459 1_555
O1 V2 1.880459 1_555
O2 V2 1.880459 1_565
O2 V0 1.880459 1_655
O3 V3 1.880459 1_565
O3 V1 1.880459 1_655
O4 V0 1.880459 1_655
O4 V2 1.880459 1_555
O5 V1 1.880459 1_655
O5 V3 1.880459 1_555
O6 V2 1.880459 1_565
O6 V0 1.880459 1_555
O7 V3 1.880459 1_565
O7 V1 1.880459 1_555
O8 V1 1.924784 1_555
O8 V0 1.924784 1_555
O9 V0 1.841988 1_554
O9 V1 1.841988 1_555
O10 V3 1.924784 1_555
O10 V2 1.924784 1_555
O11 V2 1.841988 1_554
O11 V3 1.841988 1_555
