# generated using pymatgen
data_Zr3Pd4
_symmetry_space_group_name_H-M   'P 1'
_cell_length_a   7.48380300
_cell_length_b   7.48380396
_cell_length_c   7.48380394
_cell_angle_alpha   114.07970058
_cell_angle_beta   114.07971019
_cell_angle_gamma   114.07970565
_symmetry_Int_Tables_number   1
_chemical_formula_structural   Zr3Pd4
_chemical_formula_sum   'Zr6 Pd8'
_cell_volume   253.14196192
_cell_formula_units_Z   2
loop_
 _symmetry_equiv_pos_site_id
 _symmetry_equiv_pos_as_xyz
  1  'x, y, z'
loop_
 _atom_site_type_symbol
 _atom_site_label
 _atom_site_symmetry_multiplicity
 _atom_site_fract_x
 _atom_site_fract_y
 _atom_site_fract_z
 _atom_site_occupancy
  Zr  Zr0  1  0.26621989  0.39728551  0.00668230  1
  Zr  Zr1  1  0.39728551  0.00668230  0.26621989  1
  Zr  Zr2  1  0.00668230  0.26621989  0.39728551  1
  Zr  Zr3  1  0.73378011  0.60271449  0.99331770  1
  Zr  Zr4  1  0.60271449  0.99331770  0.73378011  1
  Zr  Zr5  1  0.99331770  0.73378011  0.60271449  1
  Pd  Pd0  1  0.92317849  0.43893217  0.76216453  1
  Pd  Pd1  1  0.76216453  0.92317849  0.43893217  1
  Pd  Pd2  1  0.43893217  0.76216453  0.92317849  1
  Pd  Pd3  1  0.23783547  0.07682151  0.56106783  1
  Pd  Pd4  1  0.07682151  0.56106783  0.23783547  1
  Pd  Pd5  1  0.56106783  0.23783547  0.07682151  1
  Pd  Pd6  1  0.50000000  0.50000000  0.50000000  1
  Pd  Pd7  1  -0.00000000  0.00000000  -0.00000000  1
loop_
_geom_bond_atom_site_label_1
_geom_bond_atom_site_label_2
_geom_bond_distance
_geom_bond_site_symmetry_2
Pd0 Zr0 2.705801 1_656
Pd0 Zr1 2.761027 1_555
Pd0 Zr3 2.862228 1_555
Pd0 Zr5 2.878040 1_555
Pd0 Zr1 2.927369 1_666
Pd0 Zr2 2.947767 1_655
Pd0 Zr4 3.065634 1_545
Pd1 Zr2 2.705801 1_665
Pd1 Zr0 2.761027 1_555
Pd1 Zr5 2.862228 1_555
Pd1 Zr4 2.878040 1_555
Pd1 Zr0 2.927368 1_666
Pd1 Zr1 2.947766 1_565
Pd1 Zr3 3.065635 1_554
Pd2 Zr1 2.705802 1_566
Pd2 Zr2 2.761027 1_555
Pd2 Zr4 2.862228 1_555
Pd2 Zr3 2.878039 1_555
Pd2 Zr2 2.927368 1_666
Pd2 Zr0 2.947766 1_556
Pd2 Zr5 3.065634 1_455
Pd3 Zr5 2.705801 1_445
Pd3 Zr3 2.761027 1_555
Pd3 Zr2 2.862228 1_555
Pd3 Zr1 2.878040 1_555
Pd3 Zr3 2.927368 1_444
Pd3 Zr4 2.947766 1_545
Pd3 Zr0 3.065635 1_556
Pd4 Zr3 2.705801 1_454
Pd4 Zr4 2.761027 1_555
Pd4 Zr0 2.862228 1_555
Pd4 Zr2 2.878040 1_555
Pd4 Zr4 2.927369 1_444
Pd4 Zr5 2.947767 1_455
Pd4 Zr1 3.065634 1_565
Pd5 Zr4 2.705802 1_544
Pd5 Zr5 2.761027 1_555
Pd5 Zr1 2.862228 1_555
Pd5 Zr0 2.878039 1_555
Pd5 Zr5 2.927368 1_444
Pd5 Zr3 2.947766 1_554
Pd5 Zr2 3.065634 1_655
Pd6 Zr5 2.932217 1_555
Pd6 Zr2 2.932217 1_555
Pd6 Zr3 2.932217 1_555
Pd6 Zr0 2.932217 1_555
Pd6 Zr4 2.932217 1_555
Pd6 Zr1 2.932217 1_555
Pd7 Zr4 2.788452 1_444
Pd7 Zr1 2.788452 1_555
Pd7 Zr3 2.788452 1_444
Pd7 Zr0 2.788452 1_555
Pd7 Zr5 2.788453 1_444
Pd7 Zr2 2.788453 1_555
