# generated using pymatgen
data_Ca2TaSbO6
_symmetry_space_group_name_H-M   'P 1'
_cell_length_a   8.03606500
_cell_length_b   5.71925400
_cell_length_c   5.92354690
_cell_angle_alpha   89.03685924
_cell_angle_beta   90.00000000
_cell_angle_gamma   90.00000000
_symmetry_Int_Tables_number   1
_chemical_formula_structural   Ca2TaSbO6
_chemical_formula_sum   'Ca4 Ta2 Sb2 O12'
_cell_volume   272.20951003
_cell_formula_units_Z   2
loop_
 _symmetry_equiv_pos_site_id
 _symmetry_equiv_pos_as_xyz
  1  'x, y, z'
loop_
 _atom_site_type_symbol
 _atom_site_label
 _atom_site_symmetry_multiplicity
 _atom_site_fract_x
 _atom_site_fract_y
 _atom_site_fract_z
 _atom_site_occupancy
  Ca  Ca0  1  0.75000000  0.48944300  0.55201300  1
  Ca  Ca1  1  0.25000000  0.51055700  0.44798700  1
  Ca  Ca2  1  0.75000000  0.00528300  0.05670000  1
  Ca  Ca3  1  0.25000000  0.99471700  0.94330000  1
  Ta  Ta0  1  0.50000000  0.50000000  0.00000000  1
  Ta  Ta1  1  0.00000000  0.50000000  0.00000000  1
  Sb  Sb0  1  0.50000000  0.00000000  0.50000000  1
  Sb  Sb1  1  0.00000000  0.00000000  0.50000000  1
  O  O0  1  0.44302300  0.66462700  0.71140400  1
  O  O1  1  0.05718300  0.78810800  0.16814600  1
  O  O2  1  0.94302300  0.33537300  0.28859600  1
  O  O3  1  0.55718300  0.21189200  0.83185400  1
  O  O4  1  0.44281700  0.78810800  0.16814600  1
  O  O5  1  0.94281700  0.21189200  0.83185400  1
  O  O6  1  0.25000000  0.12880700  0.55953300  1
  O  O7  1  0.05697700  0.66462700  0.71140400  1
  O  O8  1  0.75000000  0.60172000  0.95912000  1
  O  O9  1  0.55697700  0.33537300  0.28859600  1
  O  O10  1  0.75000000  0.87119300  0.44046700  1
  O  O11  1  0.25000000  0.39828000  0.04088000  1
loop_
_geom_bond_atom_site_label_1
_geom_bond_atom_site_label_2
_geom_bond_distance
_geom_bond_site_symmetry_2
Ca0 O10 2.270462 1_555
Ca0 O2 2.379803 1_555
Ca0 O9 2.379803 1_555
Ca0 O8 2.505957 1_555
Ca0 O5 2.753190 1_555
Ca0 O3 2.753190 1_555
Ca0 O0 2.830657 1_555
Ca0 O7 2.830657 1_655
Ca1 O6 2.270462 1_555
Ca1 O0 2.379803 1_555
Ca1 O7 2.379803 1_555
Ca1 O11 2.505957 1_555
Ca1 O1 2.753190 1_555
Ca1 O4 2.753190 1_555
Ca1 O2 2.830657 1_455
Ca1 O9 2.830657 1_555
Ca2 O5 2.349090 1_554
Ca2 O3 2.349090 1_554
Ca2 O10 2.386889 1_545
Ca2 O8 2.388763 1_544
Ca2 O2 2.818543 1_555
Ca2 O9 2.818543 1_555
Ca2 O4 2.836318 1_545
Ca2 O1 2.836318 1_645
Ca3 O4 2.349090 1_556
Ca3 O1 2.349090 1_556
Ca3 O6 2.386889 1_565
Ca3 O11 2.388763 1_566
Ca3 O0 2.818543 1_555
Ca3 O7 2.818543 1_555
Ca3 O3 2.836318 1_565
Ca3 O5 2.836318 1_465
O0 Ta0 1.991098 1_556
O0 Sb0 2.318642 1_565
O1 Ta1 1.993369 1_555
O1 Sb1 2.371508 1_565
O2 Ta1 1.991098 1_655
O2 Sb1 2.318642 1_655
O3 Ta0 1.993369 1_556
O3 Sb0 2.371508 1_555
O4 Ta0 1.993369 1_555
O4 Sb0 2.371508 1_565
O5 Ta1 1.993369 1_656
O5 Sb1 2.371508 1_655
O6 Sb1 2.170700 1_555
O6 Sb0 2.170700 1_555
O7 Ta1 1.991098 1_556
O7 Sb1 2.318642 1_565
O8 Ta0 2.104399 1_556
O8 Ta1 2.104399 1_656
O9 Ta0 1.991098 1_555
O9 Sb0 2.318642 1_555
O10 Sb1 2.170700 1_665
O10 Sb0 2.170700 1_565
O11 Ta0 2.104399 1_555
O11 Ta1 2.104399 1_555
