# generated using pymatgen
data_Cd(RhO2)2
_symmetry_space_group_name_H-M   'P 1'
_cell_length_a   6.23126621
_cell_length_b   6.23126621
_cell_length_c   6.23126621
_cell_angle_alpha   60.00000000
_cell_angle_beta   60.00000000
_cell_angle_gamma   60.00000000
_symmetry_Int_Tables_number   1
_chemical_formula_structural   Cd(RhO2)2
_chemical_formula_sum   'Cd2 Rh4 O8'
_cell_volume   171.08578142
_cell_formula_units_Z   2
loop_
 _symmetry_equiv_pos_site_id
 _symmetry_equiv_pos_as_xyz
  1  'x, y, z'
loop_
 _atom_site_type_symbol
 _atom_site_label
 _atom_site_symmetry_multiplicity
 _atom_site_fract_x
 _atom_site_fract_y
 _atom_site_fract_z
 _atom_site_occupancy
  Cd  Cd0  1  0.75000000  0.75000000  0.75000000  1
  Cd  Cd1  1  -0.00000000  -0.00000000  -0.00000000  1
  Rh  Rh0  1  0.87500000  0.37500000  0.37500000  1
  Rh  Rh1  1  0.37500000  0.87500000  0.37500000  1
  Rh  Rh2  1  0.37500000  0.37500000  0.87500000  1
  Rh  Rh3  1  0.37500000  0.37500000  0.37500000  1
  O  O0  1  0.57058742  0.14313686  0.14313686  1
  O  O1  1  0.14313686  0.57058742  0.14313686  1
  O  O2  1  0.14313686  0.14313686  0.57058742  1
  O  O3  1  0.14313686  0.14313686  0.14313686  1
  O  O4  1  0.17941258  0.60686314  0.60686314  1
  O  O5  1  0.60686314  0.17941258  0.60686314  1
  O  O6  1  0.60686314  0.60686314  0.17941258  1
  O  O7  1  0.60686314  0.60686314  0.60686314  1
loop_
_geom_bond_atom_site_label_1
_geom_bond_atom_site_label_2
_geom_bond_distance
_geom_bond_site_symmetry_2
Cd0 O7 2.184758 1_555
Cd0 O6 2.184769 1_556
Cd0 O5 2.184769 1_565
Cd0 O4 2.184769 1_655
Cd1 O3 2.184758 1_555
Cd1 O1 2.184769 1_545
Cd1 O0 2.184769 1_455
Cd1 O2 2.184769 1_554
O0 Rh2 2.055713 1_554
O0 Rh1 2.055713 1_545
O0 Rh3 2.055723 1_555
O1 Rh0 2.055713 1_455
O1 Rh2 2.055713 1_554
O1 Rh3 2.055723 1_555
O2 Rh0 2.055713 1_455
O2 Rh1 2.055713 1_545
O2 Rh3 2.055723 1_555
O3 Rh1 2.055721 1_545
O3 Rh2 2.055721 1_554
O3 Rh0 2.055721 1_455
O4 Rh1 2.055713 1_555
O4 Rh2 2.055713 1_555
O4 Rh3 2.055723 1_555
O5 Rh0 2.055713 1_555
O5 Rh2 2.055713 1_555
O5 Rh3 2.055723 1_555
O6 Rh1 2.055713 1_555
O6 Rh0 2.055713 1_555
O6 Rh3 2.055723 1_555
O7 Rh1 2.055721 1_555
O7 Rh2 2.055721 1_555
O7 Rh0 2.055721 1_555
