# generated using pymatgen
data_Nb2Sb
_symmetry_space_group_name_H-M   'P 1'
_cell_length_a   6.58968461
_cell_length_b   68.34446431
_cell_length_c   9.79370241
_cell_angle_alpha   59.31073718
_cell_angle_beta   109.71582889
_cell_angle_gamma   109.69947912
_symmetry_Int_Tables_number   1
_chemical_formula_structural   Nb2Sb
_chemical_formula_sum   'Nb112 Sb56'
_cell_volume   3495.80976052
_cell_formula_units_Z   56
loop_
 _symmetry_equiv_pos_site_id
 _symmetry_equiv_pos_as_xyz
  1  'x, y, z'
loop_
 _atom_site_type_symbol
 _atom_site_label
 _atom_site_symmetry_multiplicity
 _atom_site_fract_x
 _atom_site_fract_y
 _atom_site_fract_z
 _atom_site_occupancy
  Nb  Nb0_0  1  0.02762850  0.43172350  0.03255750  1
  Nb  Nb0_1  1  0.02762850  0.43172350  0.53255750  1
  Nb  Nb0_2  1  0.02762850  0.93172350  0.03255750  1
  Nb  Nb0_3  1  0.02762850  0.93172350  0.53255750  1
  Nb  Nb0_4  1  0.52762850  0.43172350  0.03255750  1
  Nb  Nb0_5  1  0.52762850  0.43172350  0.53255750  1
  Nb  Nb0_6  1  0.52762850  0.93172350  0.03255750  1
  Nb  Nb0_7  1  0.52762850  0.93172350  0.53255750  1
  Nb  Nb1_0  1  0.43320600  0.38287400  0.18706900  1
  Nb  Nb1_1  1  0.43320600  0.38287400  0.68706900  1
  Nb  Nb1_2  1  0.43320600  0.88287400  0.18706900  1
  Nb  Nb1_3  1  0.43320600  0.88287400  0.68706900  1
  Nb  Nb1_4  1  0.93320600  0.38287400  0.18706900  1
  Nb  Nb1_5  1  0.93320600  0.38287400  0.68706900  1
  Nb  Nb1_6  1  0.93320600  0.88287400  0.18706900  1
  Nb  Nb1_7  1  0.93320600  0.88287400  0.68706900  1
  Nb  Nb2_0  1  0.03686750  0.36071600  0.04839300  1
  Nb  Nb2_1  1  0.03686750  0.36071600  0.54839300  1
  Nb  Nb2_2  1  0.03686750  0.86071600  0.04839300  1
  Nb  Nb2_3  1  0.03686750  0.86071600  0.54839300  1
  Nb  Nb2_4  1  0.53686750  0.36071600  0.04839300  1
  Nb  Nb2_5  1  0.53686750  0.36071600  0.54839300  1
  Nb  Nb2_6  1  0.53686750  0.86071600  0.04839300  1
  Nb  Nb2_7  1  0.53686750  0.86071600  0.54839300  1
  Nb  Nb3_0  1  0.12086450  0.47989650  0.38295000  1
  Nb  Nb3_1  1  0.12086450  0.47989650  0.88295000  1
  Nb  Nb3_2  1  0.12086450  0.97989650  0.38295000  1
  Nb  Nb3_3  1  0.12086450  0.97989650  0.88295000  1
  Nb  Nb3_4  1  0.62086450  0.47989650  0.38295000  1
  Nb  Nb3_5  1  0.62086450  0.47989650  0.88295000  1
  Nb  Nb3_6  1  0.62086450  0.97989650  0.38295000  1
  Nb  Nb3_7  1  0.62086450  0.97989650  0.88295000  1
  Nb  Nb4_0  1  0.04133050  0.28944500  0.05633550  1
  Nb  Nb4_1  1  0.04133050  0.28944500  0.55633550  1
  Nb  Nb4_2  1  0.04133050  0.78944500  0.05633550  1
  Nb  Nb4_3  1  0.04133050  0.78944500  0.55633550  1
  Nb  Nb4_4  1  0.54133050  0.28944500  0.05633550  1
  Nb  Nb4_5  1  0.54133050  0.28944500  0.55633550  1
  Nb  Nb4_6  1  0.54133050  0.78944500  0.05633550  1
  Nb  Nb4_7  1  0.54133050  0.78944500  0.55633550  1
  Nb  Nb5_0  1  0.03775400  0.21771150  0.05179250  1
  Nb  Nb5_1  1  0.03775400  0.21771150  0.55179250  1
  Nb  Nb5_2  1  0.03775400  0.71771150  0.05179250  1
  Nb  Nb5_3  1  0.03775400  0.71771150  0.55179250  1
  Nb  Nb5_4  1  0.53775400  0.21771150  0.05179250  1
  Nb  Nb5_5  1  0.53775400  0.21771150  0.55179250  1
  Nb  Nb5_6  1  0.53775400  0.71771150  0.05179250  1
  Nb  Nb5_7  1  0.53775400  0.71771150  0.55179250  1
  Nb  Nb6_0  1  0.43232050  0.16718400  0.19413350  1
  Nb  Nb6_1  1  0.43232050  0.16718400  0.69413350  1
  Nb  Nb6_2  1  0.43232050  0.66718400  0.19413350  1
  Nb  Nb6_3  1  0.43232050  0.66718400  0.69413350  1
  Nb  Nb6_4  1  0.93232050  0.16718400  0.19413350  1
  Nb  Nb6_5  1  0.93232050  0.16718400  0.69413350  1
  Nb  Nb6_6  1  0.93232050  0.66718400  0.19413350  1
  Nb  Nb6_7  1  0.93232050  0.66718400  0.69413350  1
  Nb  Nb7_0  1  0.44010350  0.31086200  0.20413300  1
  Nb  Nb7_1  1  0.44010350  0.31086200  0.70413300  1
  Nb  Nb7_2  1  0.44010350  0.81086200  0.20413300  1
  Nb  Nb7_3  1  0.44010350  0.81086200  0.70413300  1
  Nb  Nb7_4  1  0.94010350  0.31086200  0.20413300  1
  Nb  Nb7_5  1  0.94010350  0.31086200  0.70413300  1
  Nb  Nb7_6  1  0.94010350  0.81086200  0.20413300  1
  Nb  Nb7_7  1  0.94010350  0.81086200  0.70413300  1
  Nb  Nb8_0  1  0.03051150  0.14593250  0.03937050  1
  Nb  Nb8_1  1  0.03051150  0.14593250  0.53937050  1
  Nb  Nb8_2  1  0.03051150  0.64593250  0.03937050  1
  Nb  Nb8_3  1  0.03051150  0.64593250  0.53937050  1
  Nb  Nb8_4  1  0.53051150  0.14593250  0.03937050  1
  Nb  Nb8_5  1  0.53051150  0.14593250  0.53937050  1
  Nb  Nb8_6  1  0.53051150  0.64593250  0.03937050  1
  Nb  Nb8_7  1  0.53051150  0.64593250  0.53937050  1
  Nb  Nb9_0  1  0.43981950  0.23893100  0.20674050  1
  Nb  Nb9_1  1  0.43981950  0.23893100  0.70674050  1
  Nb  Nb9_2  1  0.43981950  0.73893100  0.20674050  1
  Nb  Nb9_3  1  0.43981950  0.73893100  0.70674050  1
  Nb  Nb9_4  1  0.93981950  0.23893100  0.20674050  1
  Nb  Nb9_5  1  0.93981950  0.23893100  0.70674050  1
  Nb  Nb9_6  1  0.93981950  0.73893100  0.20674050  1
  Nb  Nb9_7  1  0.93981950  0.73893100  0.70674050  1
  Nb  Nb10_0  1  0.02513450  0.07384800  0.03345900  1
  Nb  Nb10_1  1  0.02513450  0.07384800  0.53345900  1
  Nb  Nb10_2  1  0.02513450  0.57384800  0.03345900  1
  Nb  Nb10_3  1  0.02513450  0.57384800  0.53345900  1
  Nb  Nb10_4  1  0.52513450  0.07384800  0.03345900  1
  Nb  Nb10_5  1  0.52513450  0.07384800  0.53345900  1
  Nb  Nb10_6  1  0.52513450  0.57384800  0.03345900  1
  Nb  Nb10_7  1  0.52513450  0.57384800  0.53345900  1
  Nb  Nb11_0  1  0.02325000  0.00219100  0.03048750  1
  Nb  Nb11_1  1  0.02325000  0.00219100  0.53048750  1
  Nb  Nb11_2  1  0.02325000  0.50219100  0.03048750  1
  Nb  Nb11_3  1  0.02325000  0.50219100  0.53048750  1
  Nb  Nb11_4  1  0.52325000  0.00219100  0.03048750  1
  Nb  Nb11_5  1  0.52325000  0.00219100  0.53048750  1
  Nb  Nb11_6  1  0.52325000  0.50219100  0.03048750  1
  Nb  Nb11_7  1  0.52325000  0.50219100  0.53048750  1
  Nb  Nb12_0  1  0.42555950  0.09575900  0.18102600  1
  Nb  Nb12_1  1  0.42555950  0.09575900  0.68102600  1
  Nb  Nb12_2  1  0.42555950  0.59575900  0.18102600  1
  Nb  Nb12_3  1  0.42555950  0.59575900  0.68102600  1
  Nb  Nb12_4  1  0.92555950  0.09575900  0.18102600  1
  Nb  Nb12_5  1  0.92555950  0.09575900  0.68102600  1
  Nb  Nb12_6  1  0.92555950  0.59575900  0.18102600  1
  Nb  Nb12_7  1  0.92555950  0.59575900  0.68102600  1
  Nb  Nb13_0  1  0.42368350  0.02410950  0.17892950  1
  Nb  Nb13_1  1  0.42368350  0.02410950  0.67892950  1
  Nb  Nb13_2  1  0.42368350  0.52410950  0.17892950  1
  Nb  Nb13_3  1  0.42368350  0.52410950  0.67892950  1
  Nb  Nb13_4  1  0.92368350  0.02410950  0.17892950  1
  Nb  Nb13_5  1  0.92368350  0.02410950  0.67892950  1
  Nb  Nb13_6  1  0.92368350  0.52410950  0.17892950  1
  Nb  Nb13_7  1  0.92368350  0.52410950  0.67892950  1
  Sb  Sb0_0  1  0.21848500  0.45819600  0.22933700  1
  Sb  Sb0_1  1  0.21848500  0.45819600  0.72933700  1
  Sb  Sb0_2  1  0.21848500  0.95819600  0.22933700  1
  Sb  Sb0_3  1  0.21848500  0.95819600  0.72933700  1
  Sb  Sb0_4  1  0.71848500  0.45819600  0.22933700  1
  Sb  Sb0_5  1  0.71848500  0.45819600  0.72933700  1
  Sb  Sb0_6  1  0.71848500  0.95819600  0.22933700  1
  Sb  Sb0_7  1  0.71848500  0.95819600  0.72933700  1
  Sb  Sb1_0  1  0.33485650  0.40449500  0.33829900  1
  Sb  Sb1_1  1  0.33485650  0.40449500  0.83829900  1
  Sb  Sb1_2  1  0.33485650  0.90449500  0.33829900  1
  Sb  Sb1_3  1  0.33485650  0.90449500  0.83829900  1
  Sb  Sb1_4  1  0.83485650  0.40449500  0.33829900  1
  Sb  Sb1_5  1  0.83485650  0.40449500  0.83829900  1
  Sb  Sb1_6  1  0.83485650  0.90449500  0.33829900  1
  Sb  Sb1_7  1  0.83485650  0.90449500  0.83829900  1
  Sb  Sb2_0  1  0.34186000  0.33278700  0.35438500  1
  Sb  Sb2_1  1  0.34186000  0.33278700  0.85438500  1
  Sb  Sb2_2  1  0.34186000  0.83278700  0.35438500  1
  Sb  Sb2_3  1  0.34186000  0.83278700  0.85438500  1
  Sb  Sb2_4  1  0.84186000  0.33278700  0.35438500  1
  Sb  Sb2_5  1  0.84186000  0.33278700  0.85438500  1
  Sb  Sb2_6  1  0.84186000  0.83278700  0.35438500  1
  Sb  Sb2_7  1  0.84186000  0.83278700  0.85438500  1
  Sb  Sb3_0  1  0.34290600  0.26103150  0.35877200  1
  Sb  Sb3_1  1  0.34290600  0.26103150  0.85877200  1
  Sb  Sb3_2  1  0.34290600  0.76103150  0.35877200  1
  Sb  Sb3_3  1  0.34290600  0.76103150  0.85877200  1
  Sb  Sb3_4  1  0.84290600  0.26103150  0.35877200  1
  Sb  Sb3_5  1  0.84290600  0.26103150  0.85877200  1
  Sb  Sb3_6  1  0.84290600  0.76103150  0.35877200  1
  Sb  Sb3_7  1  0.84290600  0.76103150  0.85877200  1
  Sb  Sb4_0  1  0.33558650  0.18903550  0.34816700  1
  Sb  Sb4_1  1  0.33558650  0.18903550  0.84816700  1
  Sb  Sb4_2  1  0.33558650  0.68903550  0.34816700  1
  Sb  Sb4_3  1  0.33558650  0.68903550  0.84816700  1
  Sb  Sb4_4  1  0.83558650  0.18903550  0.34816700  1
  Sb  Sb4_5  1  0.83558650  0.18903550  0.84816700  1
  Sb  Sb4_6  1  0.83558650  0.68903550  0.34816700  1
  Sb  Sb4_7  1  0.83558650  0.68903550  0.84816700  1
  Sb  Sb5_0  1  0.32824500  0.11717600  0.33631550  1
  Sb  Sb5_1  1  0.32824500  0.11717600  0.83631550  1
  Sb  Sb5_2  1  0.32824500  0.61717600  0.33631550  1
  Sb  Sb5_3  1  0.32824500  0.61717600  0.83631550  1
  Sb  Sb5_4  1  0.82824500  0.11717600  0.33631550  1
  Sb  Sb5_5  1  0.82824500  0.11717600  0.83631550  1
  Sb  Sb5_6  1  0.82824500  0.61717600  0.33631550  1
  Sb  Sb5_7  1  0.82824500  0.61717600  0.83631550  1
  Sb  Sb6_0  1  0.32669550  0.04585750  0.33234700  1
  Sb  Sb6_1  1  0.32669550  0.04585750  0.83234700  1
  Sb  Sb6_2  1  0.32669550  0.54585750  0.33234700  1
  Sb  Sb6_3  1  0.32669550  0.54585750  0.83234700  1
  Sb  Sb6_4  1  0.82669550  0.04585750  0.33234700  1
  Sb  Sb6_5  1  0.82669550  0.04585750  0.83234700  1
  Sb  Sb6_6  1  0.82669550  0.54585750  0.33234700  1
  Sb  Sb6_7  1  0.82669550  0.54585750  0.83234700  1
loop_
_geom_bond_atom_site_label_1
_geom_bond_atom_site_label_2
_geom_bond_distance
_geom_bond_site_symmetry_2
Nb0_0 Nb3_1 2.771903 1_554
Nb0_0 Nb1_4 2.810883 1_455
Nb0_0 Sb0_0 2.993160 1_555
Nb0_0 Sb1_5 3.014272 1_454
Nb0_0 Sb0_5 3.026695 1_454
Nb0_0 Sb0_1 3.029107 1_554
Nb0_0 Sb1_0 3.047895 1_555
Nb0_0 Sb1_4 3.054107 1_455
Nb0_0 Nb0_4 3.294842 1_555
Nb0_0 Nb0_4 3.294842 1_455
Nb0_1 Nb3_0 2.771903 1_555
Nb0_1 Nb1_5 2.810883 1_455
Nb0_1 Sb0_1 2.993160 1_555
Nb0_1 Sb1_4 3.014272 1_455
Nb0_1 Sb0_4 3.026695 1_455
Nb0_1 Sb0_0 3.029107 1_555
Nb0_1 Sb1_1 3.047895 1_555
Nb0_1 Sb1_5 3.054107 1_455
Nb0_1 Nb0_5 3.294842 1_455
Nb0_1 Nb0_5 3.294842 1_555
Nb0_2 Nb3_3 2.771903 1_554
Nb0_2 Nb1_6 2.810883 1_455
Nb0_2 Sb0_2 2.993160 1_555
Nb0_2 Sb1_7 3.014272 1_454
Nb0_2 Sb0_7 3.026695 1_454
Nb0_2 Sb0_3 3.029107 1_554
Nb0_2 Sb1_2 3.047895 1_555
Nb0_2 Sb1_6 3.054107 1_455
Nb0_2 Nb0_6 3.294842 1_455
Nb0_2 Nb0_6 3.294842 1_555
Nb0_3 Nb3_2 2.771903 1_555
Nb0_3 Nb1_7 2.810883 1_455
Nb0_3 Sb0_3 2.993160 1_555
Nb0_3 Sb1_6 3.014272 1_455
Nb0_3 Sb0_6 3.026695 1_455
Nb0_3 Sb0_2 3.029107 1_555
Nb0_3 Sb1_3 3.047895 1_555
Nb0_3 Sb1_7 3.054107 1_455
Nb0_3 Nb0_7 3.294842 1_555
Nb0_3 Nb0_7 3.294842 1_455
Nb0_4 Nb3_5 2.771903 1_554
Nb0_4 Nb1_0 2.810883 1_555
Nb0_4 Sb0_4 2.993160 1_555
Nb0_4 Sb1_1 3.014272 1_554
Nb0_4 Sb0_1 3.026695 1_554
Nb0_4 Sb0_5 3.029107 1_554
Nb0_4 Sb1_4 3.047895 1_555
Nb0_4 Sb1_0 3.054107 1_555
Nb0_5 Nb3_4 2.771903 1_555
Nb0_5 Nb1_1 2.810883 1_555
Nb0_5 Sb0_5 2.993160 1_555
Nb0_5 Sb1_0 3.014272 1_555
Nb0_5 Sb0_0 3.026695 1_555
Nb0_5 Sb0_4 3.029107 1_555
Nb0_5 Sb1_5 3.047895 1_555
Nb0_5 Sb1_1 3.054107 1_555
Nb0_6 Nb3_7 2.771903 1_554
Nb0_6 Nb1_2 2.810883 1_555
Nb0_6 Sb0_6 2.993160 1_555
Nb0_6 Sb1_3 3.014272 1_554
Nb0_6 Sb0_3 3.026695 1_554
Nb0_6 Sb0_7 3.029107 1_554
Nb0_6 Sb1_6 3.047895 1_555
Nb0_6 Sb1_2 3.054107 1_555
Nb0_7 Nb3_6 2.771903 1_555
Nb0_7 Nb1_3 2.810883 1_555
Nb0_7 Sb0_7 2.993160 1_555
Nb0_7 Sb1_2 3.014272 1_555
Nb0_7 Sb0_2 3.026695 1_555
Nb0_7 Sb0_6 3.029107 1_555
Nb0_7 Sb1_7 3.047895 1_555
Nb0_7 Sb1_3 3.054107 1_555
Nb1_0 Nb2_0 2.828219 1_555
Nb1_0 Nb2_4 2.833260 1_555
Nb1_0 Sb1_1 2.875889 1_554
Nb1_0 Sb2_0 2.883764 1_555
Nb1_0 Sb1_0 2.885225 1_555
Nb1_0 Sb1_4 2.887014 1_555
Nb1_0 Nb2_5 2.979699 1_555
Nb1_1 Nb2_1 2.828219 1_555
Nb1_1 Nb2_5 2.833260 1_555
Nb1_1 Sb1_0 2.875889 1_555
Nb1_1 Sb2_1 2.883764 1_555
Nb1_1 Sb1_1 2.885225 1_555
Nb1_1 Sb1_5 2.887014 1_555
Nb1_1 Nb2_4 2.979699 1_556
Nb1_2 Nb2_2 2.828219 1_555
Nb1_2 Nb2_6 2.833260 1_555
Nb1_2 Sb1_3 2.875889 1_554
Nb1_2 Sb2_2 2.883764 1_555
Nb1_2 Sb1_2 2.885225 1_555
Nb1_2 Sb1_6 2.887014 1_555
Nb1_2 Nb2_7 2.979699 1_555
Nb1_3 Nb2_3 2.828219 1_555
Nb1_3 Nb2_7 2.833260 1_555
Nb1_3 Sb1_2 2.875889 1_555
Nb1_3 Sb2_3 2.883764 1_555
Nb1_3 Sb1_3 2.885225 1_555
Nb1_3 Sb1_7 2.887014 1_555
Nb1_3 Nb2_6 2.979699 1_556
Nb1_4 Nb2_4 2.828219 1_555
Nb1_4 Nb2_0 2.833260 1_655
Nb1_4 Sb1_5 2.875889 1_554
Nb1_4 Sb2_4 2.883764 1_555
Nb1_4 Sb1_4 2.885225 1_555
Nb1_4 Sb1_0 2.887014 1_655
Nb1_4 Nb2_1 2.979699 1_655
Nb1_5 Nb2_5 2.828219 1_555
Nb1_5 Nb2_1 2.833260 1_655
Nb1_5 Sb1_4 2.875889 1_555
Nb1_5 Sb2_5 2.883764 1_555
Nb1_5 Sb1_5 2.885225 1_555
Nb1_5 Sb1_1 2.887014 1_655
Nb1_5 Nb2_0 2.979699 1_656
Nb1_6 Nb2_6 2.828219 1_555
Nb1_6 Nb2_2 2.833260 1_655
Nb1_6 Sb1_7 2.875889 1_554
Nb1_6 Sb2_6 2.883764 1_555
Nb1_6 Sb1_6 2.885225 1_555
Nb1_6 Sb1_2 2.887014 1_655
Nb1_6 Nb2_3 2.979699 1_655
Nb1_7 Nb2_7 2.828219 1_555
Nb1_7 Nb2_3 2.833260 1_655
Nb1_7 Sb1_6 2.875889 1_555
Nb1_7 Sb2_7 2.883764 1_555
Nb1_7 Sb1_7 2.885225 1_555
Nb1_7 Sb1_3 2.887014 1_655
Nb1_7 Nb2_2 2.979699 1_656
Nb2_0 Nb7_4 2.868619 1_455
Nb2_0 Sb2_5 3.050587 1_454
Nb2_0 Sb2_0 3.057305 1_555
Nb2_0 Sb2_4 3.062875 1_455
Nb2_0 Sb1_5 3.083997 1_454
Nb2_0 Sb1_1 3.085912 1_554
Nb2_0 Nb2_4 3.294842 1_455
Nb2_0 Nb2_4 3.294842 1_555
Nb2_1 Nb7_5 2.868619 1_455
Nb2_1 Sb2_4 3.050587 1_455
Nb2_1 Sb2_1 3.057305 1_555
Nb2_1 Sb2_5 3.062875 1_455
Nb2_1 Sb1_4 3.083997 1_455
Nb2_1 Sb1_0 3.085912 1_555
Nb2_1 Nb2_5 3.294842 1_455
Nb2_1 Nb2_5 3.294842 1_555
Nb2_2 Nb7_6 2.868619 1_455
Nb2_2 Sb2_7 3.050587 1_454
Nb2_2 Sb2_2 3.057305 1_555
Nb2_2 Sb2_6 3.062875 1_455
Nb2_2 Sb1_7 3.083997 1_454
Nb2_2 Sb1_3 3.085912 1_554
Nb2_2 Nb2_6 3.294842 1_555
Nb2_2 Nb2_6 3.294842 1_455
Nb2_3 Nb7_7 2.868619 1_455
Nb2_3 Sb2_6 3.050587 1_455
Nb2_3 Sb2_3 3.057305 1_555
Nb2_3 Sb2_7 3.062875 1_455
Nb2_3 Sb1_6 3.083997 1_455
Nb2_3 Sb1_2 3.085912 1_555
Nb2_3 Nb2_7 3.294842 1_555
Nb2_3 Nb2_7 3.294842 1_455
Nb2_4 Nb7_0 2.868619 1_555
Nb2_4 Sb2_1 3.050587 1_554
Nb2_4 Sb2_4 3.057305 1_555
Nb2_4 Sb2_0 3.062875 1_555
Nb2_4 Sb1_1 3.083997 1_554
Nb2_4 Sb1_5 3.085912 1_554
Nb2_5 Nb7_1 2.868619 1_555
Nb2_5 Sb2_0 3.050587 1_555
Nb2_5 Sb2_5 3.057305 1_555
Nb2_5 Sb2_1 3.062875 1_555
Nb2_5 Sb1_0 3.083997 1_555
Nb2_5 Sb1_4 3.085912 1_555
Nb2_6 Nb7_2 2.868619 1_555
Nb2_6 Sb2_3 3.050587 1_554
Nb2_6 Sb2_6 3.057305 1_555
Nb2_6 Sb2_2 3.062875 1_555
Nb2_6 Sb1_3 3.083997 1_554
Nb2_6 Sb1_7 3.085912 1_554
Nb2_7 Nb7_3 2.868619 1_555
Nb2_7 Sb2_2 3.050587 1_555
Nb2_7 Sb2_7 3.057305 1_555
Nb2_7 Sb2_3 3.062875 1_555
Nb2_7 Sb1_2 3.083997 1_555
Nb2_7 Sb1_6 3.085912 1_555
Nb3_0 Sb0_1 2.856027 1_555
Nb3_0 Sb0_4 2.903198 1_455
Nb3_0 Sb0_0 2.906980 1_555
Nb3_1 Sb0_0 2.856027 1_556
Nb3_1 Sb0_5 2.903198 1_455
Nb3_1 Sb0_1 2.906980 1_555
Nb3_2 Sb0_3 2.856027 1_555
Nb3_2 Sb0_6 2.903198 1_455
Nb3_2 Sb0_2 2.906980 1_555
Nb3_3 Sb0_2 2.856027 1_556
Nb3_3 Sb0_7 2.903198 1_455
Nb3_3 Sb0_3 2.906980 1_555
Nb3_4 Sb0_5 2.856027 1_555
Nb3_4 Sb0_0 2.903198 1_555
Nb3_4 Sb0_4 2.906980 1_555
Nb3_5 Sb0_4 2.856027 1_556
Nb3_5 Sb0_1 2.903198 1_555
Nb3_5 Sb0_5 2.906980 1_555
Nb3_6 Sb0_7 2.856027 1_555
Nb3_6 Sb0_2 2.903198 1_555
Nb3_6 Sb0_6 2.906980 1_555
Nb3_7 Sb0_6 2.856027 1_556
Nb3_7 Sb0_3 2.903198 1_555
Nb3_7 Sb0_7 2.906980 1_555
Nb4_0 Nb7_0 2.854156 1_555
Nb4_0 Nb7_4 2.855720 1_455
Nb4_0 Nb7_5 2.904759 1_454
Nb4_0 Nb9_4 2.907390 1_455
Nb4_0 Sb3_0 3.041787 1_555
Nb4_0 Sb3_4 3.046961 1_455
Nb4_0 Sb2_5 3.050359 1_454
Nb4_0 Sb2_1 3.052190 1_554
Nb4_0 Sb3_5 3.104996 1_454
Nb4_0 Nb4_4 3.294842 1_455
Nb4_0 Nb4_4 3.294842 1_555
Nb4_1 Nb7_1 2.854156 1_555
Nb4_1 Nb7_5 2.855720 1_455
Nb4_1 Nb7_4 2.904759 1_455
Nb4_1 Nb9_5 2.907390 1_455
Nb4_1 Sb3_1 3.041787 1_555
Nb4_1 Sb3_5 3.046961 1_455
Nb4_1 Sb2_4 3.050359 1_455
Nb4_1 Sb2_0 3.052190 1_555
Nb4_1 Sb3_4 3.104996 1_455
Nb4_1 Nb4_5 3.294842 1_555
Nb4_1 Nb4_5 3.294842 1_455
Nb4_2 Nb7_2 2.854156 1_555
Nb4_2 Nb7_6 2.855720 1_455
Nb4_2 Nb7_7 2.904759 1_454
Nb4_2 Nb9_6 2.907390 1_455
Nb4_2 Sb3_2 3.041787 1_555
Nb4_2 Sb3_6 3.046961 1_455
Nb4_2 Sb2_7 3.050359 1_454
Nb4_2 Sb2_3 3.052190 1_554
Nb4_2 Sb3_7 3.104996 1_454
Nb4_2 Nb4_6 3.294842 1_455
Nb4_2 Nb4_6 3.294842 1_555
Nb4_3 Nb7_3 2.854156 1_555
Nb4_3 Nb7_7 2.855720 1_455
Nb4_3 Nb7_6 2.904759 1_455
Nb4_3 Nb9_7 2.907390 1_455
Nb4_3 Sb3_3 3.041787 1_555
Nb4_3 Sb3_7 3.046961 1_455
Nb4_3 Sb2_6 3.050359 1_455
Nb4_3 Sb2_2 3.052190 1_555
Nb4_3 Sb3_6 3.104996 1_455
Nb4_3 Nb4_7 3.294842 1_555
Nb4_3 Nb4_7 3.294842 1_455
Nb4_4 Nb7_4 2.854156 1_555
Nb4_4 Nb7_0 2.855720 1_555
Nb4_4 Nb7_1 2.904759 1_554
Nb4_4 Nb9_0 2.907390 1_555
Nb4_4 Sb3_4 3.041787 1_555
Nb4_4 Sb3_0 3.046961 1_555
Nb4_4 Sb2_1 3.050359 1_554
Nb4_4 Sb2_5 3.052190 1_554
Nb4_4 Sb3_1 3.104996 1_554
Nb4_5 Nb7_5 2.854156 1_555
Nb4_5 Nb7_1 2.855720 1_555
Nb4_5 Nb7_0 2.904759 1_555
Nb4_5 Nb9_1 2.907390 1_555
Nb4_5 Sb3_5 3.041787 1_555
Nb4_5 Sb3_1 3.046961 1_555
Nb4_5 Sb2_0 3.050359 1_555
Nb4_5 Sb2_4 3.052190 1_555
Nb4_5 Sb3_0 3.104996 1_555
Nb4_6 Nb7_6 2.854156 1_555
Nb4_6 Nb7_2 2.855720 1_555
Nb4_6 Nb7_3 2.904759 1_554
Nb4_6 Nb9_2 2.907390 1_555
Nb4_6 Sb3_6 3.041787 1_555
Nb4_6 Sb3_2 3.046961 1_555
Nb4_6 Sb2_3 3.050359 1_554
Nb4_6 Sb2_7 3.052190 1_554
Nb4_6 Sb3_3 3.104996 1_554
Nb4_7 Nb7_7 2.854156 1_555
Nb4_7 Nb7_3 2.855720 1_555
Nb4_7 Nb7_2 2.904759 1_555
Nb4_7 Nb9_3 2.907390 1_555
Nb4_7 Sb3_7 3.041787 1_555
Nb4_7 Sb3_3 3.046961 1_555
Nb4_7 Sb2_2 3.050359 1_555
Nb4_7 Sb2_6 3.052190 1_555
Nb4_7 Sb3_2 3.104996 1_555
Nb5_0 Nb9_5 2.845435 1_454
Nb5_0 Nb9_4 2.891489 1_455
Nb5_0 Nb9_0 2.892933 1_555
Nb5_0 Nb6_4 2.910873 1_455
Nb5_0 Sb4_0 3.010108 1_555
Nb5_0 Sb4_4 3.013794 1_455
Nb5_0 Sb3_5 3.033143 1_454
Nb5_0 Sb3_1 3.036573 1_554
Nb5_0 Sb4_5 3.166957 1_454
Nb5_0 Nb5_4 3.294842 1_455
Nb5_0 Nb5_4 3.294842 1_555
Nb5_1 Nb9_4 2.845435 1_455
Nb5_1 Nb9_5 2.891489 1_455
Nb5_1 Nb9_1 2.892933 1_555
Nb5_1 Nb6_5 2.910873 1_455
Nb5_1 Sb4_1 3.010108 1_555
Nb5_1 Sb4_5 3.013794 1_455
Nb5_1 Sb3_4 3.033143 1_455
Nb5_1 Sb3_0 3.036573 1_555
Nb5_1 Sb4_4 3.166957 1_455
Nb5_1 Nb5_5 3.294842 1_455
Nb5_1 Nb5_5 3.294842 1_555
Nb5_2 Nb9_7 2.845435 1_454
Nb5_2 Nb9_6 2.891489 1_455
Nb5_2 Nb9_2 2.892933 1_555
Nb5_2 Nb6_6 2.910873 1_455
Nb5_2 Sb4_2 3.010108 1_555
Nb5_2 Sb4_6 3.013794 1_455
Nb5_2 Sb3_7 3.033143 1_454
Nb5_2 Sb3_3 3.036573 1_554
Nb5_2 Sb4_7 3.166957 1_454
Nb5_2 Nb5_6 3.294842 1_455
Nb5_2 Nb5_6 3.294842 1_555
Nb5_3 Nb9_6 2.845435 1_455
Nb5_3 Nb9_7 2.891489 1_455
Nb5_3 Nb9_3 2.892933 1_555
Nb5_3 Nb6_7 2.910873 1_455
Nb5_3 Sb4_3 3.010108 1_555
Nb5_3 Sb4_7 3.013794 1_455
Nb5_3 Sb3_6 3.033143 1_455
Nb5_3 Sb3_2 3.036573 1_555
Nb5_3 Sb4_6 3.166957 1_455
Nb5_3 Nb5_7 3.294842 1_555
Nb5_3 Nb5_7 3.294842 1_455
Nb5_4 Nb9_1 2.845435 1_554
Nb5_4 Nb9_0 2.891489 1_555
Nb5_4 Nb9_4 2.892933 1_555
Nb5_4 Nb6_0 2.910873 1_555
Nb5_4 Sb4_4 3.010108 1_555
Nb5_4 Sb4_0 3.013794 1_555
Nb5_4 Sb3_1 3.033143 1_554
Nb5_4 Sb3_5 3.036573 1_554
Nb5_4 Sb4_1 3.166957 1_554
Nb5_5 Nb9_0 2.845435 1_555
Nb5_5 Nb9_1 2.891489 1_555
Nb5_5 Nb9_5 2.892933 1_555
Nb5_5 Nb6_1 2.910873 1_555
Nb5_5 Sb4_5 3.010108 1_555
Nb5_5 Sb4_1 3.013794 1_555
Nb5_5 Sb3_0 3.033143 1_555
Nb5_5 Sb3_4 3.036573 1_555
Nb5_5 Sb4_0 3.166957 1_555
Nb5_6 Nb9_3 2.845435 1_554
Nb5_6 Nb9_2 2.891489 1_555
Nb5_6 Nb9_6 2.892933 1_555
Nb5_6 Nb6_2 2.910873 1_555
Nb5_6 Sb4_6 3.010108 1_555
Nb5_6 Sb4_2 3.013794 1_555
Nb5_6 Sb3_3 3.033143 1_554
Nb5_6 Sb3_7 3.036573 1_554
Nb5_6 Sb4_3 3.166957 1_554
Nb5_7 Nb9_2 2.845435 1_555
Nb5_7 Nb9_3 2.891489 1_555
Nb5_7 Nb9_7 2.892933 1_555
Nb5_7 Nb6_3 2.910873 1_555
Nb5_7 Sb4_7 3.010108 1_555
Nb5_7 Sb4_3 3.013794 1_555
Nb5_7 Sb3_2 3.033143 1_555
Nb5_7 Sb3_6 3.036573 1_555
Nb5_7 Sb4_2 3.166957 1_555
Nb6_0 Nb8_5 2.846931 1_555
Nb6_0 Sb4_1 2.852451 1_554
Nb6_0 Sb5_0 2.880382 1_555
Nb6_0 Nb8_0 2.892123 1_555
Nb6_0 Nb8_4 2.892749 1_555
Nb6_0 Sb4_4 2.913277 1_555
Nb6_0 Sb4_0 2.915946 1_555
Nb6_1 Nb8_4 2.846931 1_556
Nb6_1 Sb4_0 2.852451 1_555
Nb6_1 Sb5_1 2.880382 1_555
Nb6_1 Nb8_1 2.892123 1_555
Nb6_1 Nb8_5 2.892749 1_555
Nb6_1 Sb4_5 2.913277 1_555
Nb6_1 Sb4_1 2.915946 1_555
Nb6_2 Nb8_7 2.846931 1_555
Nb6_2 Sb4_3 2.852451 1_554
Nb6_2 Sb5_2 2.880382 1_555
Nb6_2 Nb8_2 2.892123 1_555
Nb6_2 Nb8_6 2.892749 1_555
Nb6_2 Sb4_6 2.913277 1_555
Nb6_2 Sb4_2 2.915946 1_555
Nb6_3 Nb8_6 2.846931 1_556
Nb6_3 Sb4_2 2.852451 1_555
Nb6_3 Sb5_3 2.880382 1_555
Nb6_3 Nb8_3 2.892123 1_555
Nb6_3 Nb8_7 2.892749 1_555
Nb6_3 Sb4_7 2.913277 1_555
Nb6_3 Sb4_3 2.915946 1_555
Nb6_4 Nb8_1 2.846931 1_655
Nb6_4 Sb4_5 2.852451 1_554
Nb6_4 Sb5_4 2.880382 1_555
Nb6_4 Nb8_4 2.892123 1_555
Nb6_4 Nb8_0 2.892749 1_655
Nb6_4 Sb4_0 2.913277 1_655
Nb6_4 Sb4_4 2.915946 1_555
Nb6_5 Nb8_0 2.846931 1_656
Nb6_5 Sb4_4 2.852451 1_555
Nb6_5 Sb5_5 2.880382 1_555
Nb6_5 Nb8_5 2.892123 1_555
Nb6_5 Nb8_1 2.892749 1_655
Nb6_5 Sb4_1 2.913277 1_655
Nb6_5 Sb4_5 2.915946 1_555
Nb6_6 Nb8_3 2.846931 1_655
Nb6_6 Sb4_7 2.852451 1_554
Nb6_6 Sb5_6 2.880382 1_555
Nb6_6 Nb8_6 2.892123 1_555
Nb6_6 Nb8_2 2.892749 1_655
Nb6_6 Sb4_2 2.913277 1_655
Nb6_6 Sb4_6 2.915946 1_555
Nb6_7 Nb8_2 2.846931 1_656
Nb6_7 Sb4_6 2.852451 1_555
Nb6_7 Sb5_7 2.880382 1_555
Nb6_7 Nb8_7 2.892123 1_555
Nb6_7 Nb8_3 2.892749 1_655
Nb6_7 Sb4_3 2.913277 1_655
Nb6_7 Sb4_7 2.915946 1_555
Nb7_0 Sb3_0 2.867282 1_555
Nb7_0 Sb2_1 2.883730 1_554
Nb7_0 Sb2_4 2.892662 1_555
Nb7_0 Sb2_0 2.894378 1_555
Nb7_1 Sb3_1 2.867282 1_555
Nb7_1 Sb2_0 2.883730 1_555
Nb7_1 Sb2_5 2.892662 1_555
Nb7_1 Sb2_1 2.894378 1_555
Nb7_2 Sb3_2 2.867282 1_555
Nb7_2 Sb2_3 2.883730 1_554
Nb7_2 Sb2_6 2.892662 1_555
Nb7_2 Sb2_2 2.894378 1_555
Nb7_3 Sb3_3 2.867282 1_555
Nb7_3 Sb2_2 2.883730 1_555
Nb7_3 Sb2_7 2.892662 1_555
Nb7_3 Sb2_3 2.894378 1_555
Nb7_4 Sb3_4 2.867282 1_555
Nb7_4 Sb2_5 2.883730 1_554
Nb7_4 Sb2_0 2.892662 1_655
Nb7_4 Sb2_4 2.894378 1_555
Nb7_5 Sb3_5 2.867282 1_555
Nb7_5 Sb2_4 2.883730 1_555
Nb7_5 Sb2_1 2.892662 1_655
Nb7_5 Sb2_5 2.894378 1_555
Nb7_6 Sb3_6 2.867282 1_555
Nb7_6 Sb2_7 2.883730 1_554
Nb7_6 Sb2_2 2.892662 1_655
Nb7_6 Sb2_6 2.894378 1_555
Nb7_7 Sb3_7 2.867282 1_555
Nb7_7 Sb2_6 2.883730 1_555
Nb7_7 Sb2_3 2.892662 1_655
Nb7_7 Sb2_7 2.894378 1_555
Nb8_0 Sb5_0 3.014140 1_555
Nb8_0 Sb5_4 3.018566 1_455
Nb8_0 Sb4_5 3.021882 1_454
Nb8_0 Sb4_1 3.023678 1_554
Nb8_0 Sb5_5 3.166864 1_454
Nb8_0 Nb8_4 3.294842 1_455
Nb8_0 Nb8_4 3.294842 1_555
Nb8_1 Sb5_1 3.014140 1_555
Nb8_1 Sb5_5 3.018566 1_455
Nb8_1 Sb4_4 3.021882 1_455
Nb8_1 Sb4_0 3.023678 1_555
Nb8_1 Sb5_4 3.166864 1_455
Nb8_1 Nb8_5 3.294842 1_455
Nb8_1 Nb8_5 3.294842 1_555
Nb8_2 Sb5_2 3.014140 1_555
Nb8_2 Sb5_6 3.018566 1_455
Nb8_2 Sb4_7 3.021882 1_454
Nb8_2 Sb4_3 3.023678 1_554
Nb8_2 Sb5_7 3.166864 1_454
Nb8_2 Nb8_6 3.294842 1_455
Nb8_2 Nb8_6 3.294842 1_555
Nb8_3 Sb5_3 3.014140 1_555
Nb8_3 Sb5_7 3.018566 1_455
Nb8_3 Sb4_6 3.021882 1_455
Nb8_3 Sb4_2 3.023678 1_555
Nb8_3 Sb5_6 3.166864 1_455
Nb8_3 Nb8_7 3.294842 1_555
Nb8_3 Nb8_7 3.294842 1_455
Nb8_4 Sb5_4 3.014140 1_555
Nb8_4 Sb5_0 3.018566 1_555
Nb8_4 Sb4_1 3.021882 1_554
Nb8_4 Sb4_5 3.023678 1_554
Nb8_4 Sb5_1 3.166864 1_554
Nb8_5 Sb5_5 3.014140 1_555
Nb8_5 Sb5_1 3.018566 1_555
Nb8_5 Sb4_0 3.021882 1_555
Nb8_5 Sb4_4 3.023678 1_555
Nb8_5 Sb5_0 3.166864 1_555
Nb8_6 Sb5_6 3.014140 1_555
Nb8_6 Sb5_2 3.018566 1_555
Nb8_6 Sb4_3 3.021882 1_554
Nb8_6 Sb4_7 3.023678 1_554
Nb8_6 Sb5_3 3.166864 1_554
Nb8_7 Sb5_7 3.014140 1_555
Nb8_7 Sb5_3 3.018566 1_555
Nb8_7 Sb4_2 3.021882 1_555
Nb8_7 Sb4_6 3.023678 1_555
Nb8_7 Sb5_2 3.166864 1_555
Nb9_0 Sb3_1 2.868909 1_554
Nb9_0 Sb4_0 2.874087 1_555
Nb9_0 Sb3_4 2.911405 1_555
Nb9_0 Sb3_0 2.914420 1_555
Nb9_1 Sb3_0 2.868909 1_555
Nb9_1 Sb4_1 2.874087 1_555
Nb9_1 Sb3_5 2.911405 1_555
Nb9_1 Sb3_1 2.914420 1_555
Nb9_2 Sb3_3 2.868909 1_554
Nb9_2 Sb4_2 2.874087 1_555
Nb9_2 Sb3_6 2.911405 1_555
Nb9_2 Sb3_2 2.914420 1_555
Nb9_3 Sb3_2 2.868909 1_555
Nb9_3 Sb4_3 2.874087 1_555
Nb9_3 Sb3_7 2.911405 1_555
Nb9_3 Sb3_3 2.914420 1_555
Nb9_4 Sb3_5 2.868909 1_554
Nb9_4 Sb4_4 2.874087 1_555
Nb9_4 Sb3_0 2.911405 1_655
Nb9_4 Sb3_4 2.914420 1_555
Nb9_5 Sb3_4 2.868909 1_555
Nb9_5 Sb4_5 2.874087 1_555
Nb9_5 Sb3_1 2.911405 1_655
Nb9_5 Sb3_5 2.914420 1_555
Nb9_6 Sb3_7 2.868909 1_554
Nb9_6 Sb4_6 2.874087 1_555
Nb9_6 Sb3_2 2.911405 1_655
Nb9_6 Sb3_6 2.914420 1_555
Nb9_7 Sb3_6 2.868909 1_555
Nb9_7 Sb4_7 2.874087 1_555
Nb9_7 Sb3_3 2.911405 1_655
Nb9_7 Sb3_7 2.914420 1_555
Nb10_0 Nb13_4 2.863425 1_455
Nb10_0 Nb12_0 2.875066 1_555
Nb10_0 Nb12_4 2.876313 1_455
Nb10_0 Nb12_5 2.906024 1_454
Nb10_0 Sb6_0 3.016484 1_555
Nb10_0 Sb6_4 3.019647 1_455
Nb10_0 Sb5_5 3.040383 1_454
Nb10_0 Sb5_1 3.043789 1_554
Nb10_0 Sb6_5 3.109797 1_454
Nb10_0 Nb10_4 3.294842 1_455
Nb10_0 Nb10_4 3.294842 1_555
Nb10_1 Nb13_5 2.863425 1_455
Nb10_1 Nb12_1 2.875066 1_555
Nb10_1 Nb12_5 2.876313 1_455
Nb10_1 Nb12_4 2.906024 1_455
Nb10_1 Sb6_1 3.016484 1_555
Nb10_1 Sb6_5 3.019647 1_455
Nb10_1 Sb5_4 3.040383 1_455
Nb10_1 Sb5_0 3.043789 1_555
Nb10_1 Sb6_4 3.109797 1_455
Nb10_1 Nb10_5 3.294842 1_455
Nb10_1 Nb10_5 3.294842 1_555
Nb10_2 Nb13_6 2.863425 1_455
Nb10_2 Nb12_2 2.875066 1_555
Nb10_2 Nb12_6 2.876313 1_455
Nb10_2 Nb12_7 2.906024 1_454
Nb10_2 Sb6_2 3.016484 1_555
Nb10_2 Sb6_6 3.019647 1_455
Nb10_2 Sb5_7 3.040383 1_454
Nb10_2 Sb5_3 3.043789 1_554
Nb10_2 Sb6_7 3.109797 1_454
Nb10_2 Nb10_6 3.294842 1_455
Nb10_2 Nb10_6 3.294842 1_555
Nb10_3 Nb13_7 2.863425 1_455
Nb10_3 Nb12_3 2.875066 1_555
Nb10_3 Nb12_7 2.876313 1_455
Nb10_3 Nb12_6 2.906024 1_455
Nb10_3 Sb6_3 3.016484 1_555
Nb10_3 Sb6_7 3.019647 1_455
Nb10_3 Sb5_6 3.040383 1_455
Nb10_3 Sb5_2 3.043789 1_555
Nb10_3 Sb6_6 3.109797 1_455
Nb10_3 Nb10_7 3.294842 1_455
Nb10_3 Nb10_7 3.294842 1_555
Nb10_4 Nb13_0 2.863425 1_555
Nb10_4 Nb12_4 2.875066 1_555
Nb10_4 Nb12_0 2.876313 1_555
Nb10_4 Nb12_1 2.906024 1_554
Nb10_4 Sb6_4 3.016484 1_555
Nb10_4 Sb6_0 3.019647 1_555
Nb10_4 Sb5_1 3.040383 1_554
Nb10_4 Sb5_5 3.043789 1_554
Nb10_4 Sb6_1 3.109797 1_554
Nb10_5 Nb13_1 2.863425 1_555
Nb10_5 Nb12_5 2.875066 1_555
Nb10_5 Nb12_1 2.876313 1_555
Nb10_5 Nb12_0 2.906024 1_555
Nb10_5 Sb6_5 3.016484 1_555
Nb10_5 Sb6_1 3.019647 1_555
Nb10_5 Sb5_0 3.040383 1_555
Nb10_5 Sb5_4 3.043789 1_555
Nb10_5 Sb6_0 3.109797 1_555
Nb10_6 Nb13_2 2.863425 1_555
Nb10_6 Nb12_6 2.875066 1_555
Nb10_6 Nb12_2 2.876313 1_555
Nb10_6 Nb12_3 2.906024 1_554
Nb10_6 Sb6_6 3.016484 1_555
Nb10_6 Sb6_2 3.019647 1_555
Nb10_6 Sb5_3 3.040383 1_554
Nb10_6 Sb5_7 3.043789 1_554
Nb10_6 Sb6_3 3.109797 1_554
Nb10_7 Nb13_3 2.863425 1_555
Nb10_7 Nb12_7 2.875066 1_555
Nb10_7 Nb12_3 2.876313 1_555
Nb10_7 Nb12_2 2.906024 1_555
Nb10_7 Sb6_7 3.016484 1_555
Nb10_7 Sb6_3 3.019647 1_555
Nb10_7 Sb5_2 3.040383 1_555
Nb10_7 Sb5_6 3.043789 1_555
Nb10_7 Sb6_2 3.109797 1_555
Nb11_0 Nb13_0 2.879281 1_555
Nb11_0 Nb13_4 2.883964 1_455
Nb11_0 Nb3_3 2.891117 1_544
Nb11_0 Nb3_7 2.894640 1_444
Nb11_0 Nb13_5 2.898749 1_454
Nb11_0 Nb3_2 2.906004 1_545
Nb11_0 Sb6_5 3.057507 1_454
Nb11_0 Sb6_1 3.058421 1_554
Nb11_0 Sb0_2 3.070661 1_545
Nb11_0 Sb0_6 3.075290 1_445
Nb11_0 Nb11_4 3.294842 1_455
Nb11_0 Nb11_4 3.294842 1_555
Nb11_1 Nb13_1 2.879281 1_555
Nb11_1 Nb13_5 2.883964 1_455
Nb11_1 Nb3_2 2.891117 1_545
Nb11_1 Nb3_6 2.894640 1_445
Nb11_1 Nb13_4 2.898749 1_455
Nb11_1 Nb3_3 2.906004 1_545
Nb11_1 Sb6_4 3.057507 1_455
Nb11_1 Sb6_0 3.058421 1_555
Nb11_1 Sb0_3 3.070661 1_545
Nb11_1 Sb0_7 3.075290 1_445
Nb11_1 Nb11_5 3.294842 1_455
Nb11_1 Nb11_5 3.294842 1_555
Nb11_2 Nb13_2 2.879281 1_555
Nb11_2 Nb13_6 2.883964 1_455
Nb11_2 Nb3_1 2.891117 1_554
Nb11_2 Nb3_5 2.894640 1_454
Nb11_2 Nb13_7 2.898749 1_454
Nb11_2 Nb3_0 2.906004 1_555
Nb11_2 Sb6_7 3.057507 1_454
Nb11_2 Sb6_3 3.058421 1_554
Nb11_2 Sb0_0 3.070661 1_555
Nb11_2 Sb0_4 3.075290 1_455
Nb11_2 Nb11_6 3.294842 1_455
Nb11_2 Nb11_6 3.294842 1_555
Nb11_3 Nb13_3 2.879281 1_555
Nb11_3 Nb13_7 2.883964 1_455
Nb11_3 Nb3_0 2.891117 1_555
Nb11_3 Nb3_4 2.894640 1_455
Nb11_3 Nb13_6 2.898749 1_455
Nb11_3 Nb3_1 2.906004 1_555
Nb11_3 Sb6_6 3.057507 1_455
Nb11_3 Sb6_2 3.058421 1_555
Nb11_3 Sb0_1 3.070661 1_555
Nb11_3 Sb0_5 3.075290 1_455
Nb11_3 Nb11_7 3.294842 1_555
Nb11_3 Nb11_7 3.294842 1_455
Nb11_4 Nb13_4 2.879281 1_555
Nb11_4 Nb13_0 2.883964 1_555
Nb11_4 Nb3_7 2.891117 1_544
Nb11_4 Nb3_3 2.894640 1_544
Nb11_4 Nb13_1 2.898749 1_554
Nb11_4 Nb3_6 2.906004 1_545
Nb11_4 Sb6_1 3.057507 1_554
Nb11_4 Sb6_5 3.058421 1_554
Nb11_4 Sb0_6 3.070661 1_545
Nb11_4 Sb0_2 3.075290 1_545
Nb11_5 Nb13_5 2.879281 1_555
Nb11_5 Nb13_1 2.883964 1_555
Nb11_5 Nb3_6 2.891117 1_545
Nb11_5 Nb3_2 2.894640 1_545
Nb11_5 Nb13_0 2.898749 1_555
Nb11_5 Nb3_7 2.906004 1_545
Nb11_5 Sb6_0 3.057507 1_555
Nb11_5 Sb6_4 3.058421 1_555
Nb11_5 Sb0_7 3.070661 1_545
Nb11_5 Sb0_3 3.075290 1_545
Nb11_6 Nb13_6 2.879281 1_555
Nb11_6 Nb13_2 2.883964 1_555
Nb11_6 Nb3_5 2.891117 1_554
Nb11_6 Nb3_1 2.894640 1_554
Nb11_6 Nb13_3 2.898749 1_554
Nb11_6 Nb3_4 2.906004 1_555
Nb11_6 Sb6_3 3.057507 1_554
Nb11_6 Sb6_7 3.058421 1_554
Nb11_6 Sb0_4 3.070661 1_555
Nb11_6 Sb0_0 3.075290 1_555
Nb11_7 Nb13_7 2.879281 1_555
Nb11_7 Nb13_3 2.883964 1_555
Nb11_7 Nb3_4 2.891117 1_555
Nb11_7 Nb3_0 2.894640 1_555
Nb11_7 Nb13_2 2.898749 1_555
Nb11_7 Nb3_5 2.906004 1_555
Nb11_7 Sb6_2 3.057507 1_555
Nb11_7 Sb6_6 3.058421 1_555
Nb11_7 Sb0_5 3.070661 1_555
Nb11_7 Sb0_1 3.075290 1_555
Nb12_0 Sb5_1 2.842362 1_554
Nb12_0 Sb6_0 2.871657 1_555
Nb12_0 Nb8_4 2.890342 1_555
Nb12_0 Sb5_4 2.903070 1_555
Nb12_0 Sb5_0 2.903439 1_555
Nb12_1 Sb5_0 2.842362 1_555
Nb12_1 Sb6_1 2.871657 1_555
Nb12_1 Nb8_5 2.890342 1_555
Nb12_1 Sb5_5 2.903070 1_555
Nb12_1 Sb5_1 2.903439 1_555
Nb12_2 Sb5_3 2.842362 1_554
Nb12_2 Sb6_2 2.871657 1_555
Nb12_2 Nb8_6 2.890342 1_555
Nb12_2 Sb5_6 2.903070 1_555
Nb12_2 Sb5_2 2.903439 1_555
Nb12_3 Sb5_2 2.842362 1_555
Nb12_3 Sb6_3 2.871657 1_555
Nb12_3 Nb8_7 2.890342 1_555
Nb12_3 Sb5_7 2.903070 1_555
Nb12_3 Sb5_3 2.903439 1_555
Nb12_4 Sb5_5 2.842362 1_554
Nb12_4 Sb6_4 2.871657 1_555
Nb12_4 Nb8_0 2.890342 1_655
Nb12_4 Sb5_0 2.903070 1_655
Nb12_4 Sb5_4 2.903439 1_555
Nb12_5 Sb5_4 2.842362 1_555
Nb12_5 Sb6_5 2.871657 1_555
Nb12_5 Nb8_1 2.890342 1_655
Nb12_5 Sb5_1 2.903070 1_655
Nb12_5 Sb5_5 2.903439 1_555
Nb12_6 Sb5_7 2.842362 1_554
Nb12_6 Sb6_6 2.871657 1_555
Nb12_6 Nb8_2 2.890342 1_655
Nb12_6 Sb5_2 2.903070 1_655
Nb12_6 Sb5_6 2.903439 1_555
Nb12_7 Sb5_6 2.842362 1_555
Nb12_7 Sb6_7 2.871657 1_555
Nb12_7 Nb8_3 2.890342 1_655
Nb12_7 Sb5_3 2.903070 1_655
Nb12_7 Sb5_7 2.903439 1_555
Nb13_0 Sb6_1 2.857617 1_554
Nb13_0 Sb6_0 2.905740 1_555
Nb13_0 Sb6_4 2.906177 1_555
Nb13_1 Sb6_0 2.857617 1_555
Nb13_1 Sb6_1 2.905740 1_555
Nb13_1 Sb6_5 2.906177 1_555
Nb13_2 Sb6_3 2.857617 1_554
Nb13_2 Sb6_2 2.905740 1_555
Nb13_2 Sb6_6 2.906177 1_555
Nb13_3 Sb6_2 2.857617 1_555
Nb13_3 Sb6_3 2.905740 1_555
Nb13_3 Sb6_7 2.906177 1_555
Nb13_4 Sb6_5 2.857617 1_554
Nb13_4 Sb6_4 2.905740 1_555
Nb13_4 Sb6_0 2.906177 1_655
Nb13_5 Sb6_4 2.857617 1_555
Nb13_5 Sb6_5 2.905740 1_555
Nb13_5 Sb6_1 2.906177 1_655
Nb13_6 Sb6_7 2.857617 1_554
Nb13_6 Sb6_6 2.905740 1_555
Nb13_6 Sb6_2 2.906177 1_655
Nb13_7 Sb6_6 2.857617 1_555
Nb13_7 Sb6_7 2.905740 1_555
Nb13_7 Sb6_3 2.906177 1_655
