# generated using pymatgen
data_Ca3Al7Cu2
_symmetry_space_group_name_H-M   'P 1'
_cell_length_a   9.13917997
_cell_length_b   9.13917997
_cell_length_c   9.13917989
_cell_angle_alpha   35.36963118
_cell_angle_beta   35.36963147
_cell_angle_gamma   35.36962834
_symmetry_Int_Tables_number   1
_chemical_formula_structural   Ca3Al7Cu2
_chemical_formula_sum   'Ca3 Al7 Cu2'
_cell_volume   228.51847534
_cell_formula_units_Z   1
loop_
 _symmetry_equiv_pos_site_id
 _symmetry_equiv_pos_as_xyz
  1  'x, y, z'
loop_
 _atom_site_type_symbol
 _atom_site_label
 _atom_site_symmetry_multiplicity
 _atom_site_fract_x
 _atom_site_fract_y
 _atom_site_fract_z
 _atom_site_occupancy
  Ca  Ca0  1  0.00000000  0.00000000  0.00000000  1
  Ca  Ca1  1  0.14317709  0.14317709  0.14317709  1
  Ca  Ca2  1  0.85682291  0.85682291  0.85682291  1
  Al  Al0  1  0.50000000  0.50000000  0.50000000  1
  Al  Al1  1  0.57829290  0.07302806  0.57829290  1
  Al  Al2  1  0.57829290  0.57829290  0.07302806  1
  Al  Al3  1  0.07302806  0.57829290  0.57829290  1
  Al  Al4  1  0.92697194  0.42170710  0.42170710  1
  Al  Al5  1  0.42170710  0.92697194  0.42170710  1
  Al  Al6  1  0.42170710  0.42170710  0.92697194  1
  Cu  Cu0  1  0.33483932  0.33483932  0.33483932  1
  Cu  Cu1  1  0.66516068  0.66516068  0.66516068  1
loop_
_geom_bond_atom_site_label_1
_geom_bond_atom_site_label_2
_geom_bond_distance
_geom_bond_site_symmetry_2
Ca0 Cu1 3.206034 1_454
Ca0 Cu0 3.206034 1_545
Ca0 Cu0 3.206034 1_455
Ca0 Cu1 3.206034 1_544
Ca0 Cu1 3.206035 1_445
Ca0 Cu0 3.206035 1_554
Al0 Al2 2.824660 1_555
Al0 Al6 2.824660 1_555
Al0 Al1 2.824660 1_555
Al0 Al5 2.824660 1_555
Al0 Al3 2.824660 1_555
Al0 Al4 2.824660 1_555
Al0 Ca2 3.262039 1_545
Al0 Ca1 3.262039 1_565
Al0 Ca2 3.262039 1_455
Al0 Ca1 3.262039 1_655
Al0 Ca1 3.262039 1_556
Al0 Ca2 3.262039 1_554
Al1 Cu0 2.516942 1_555
Al1 Cu1 2.555528 1_545
Al1 Al3 2.747072 1_645
Al1 Al2 2.747072 1_546
Al1 Al3 2.805539 1_555
Al1 Al2 2.805539 1_555
Al1 Ca1 3.261232 1_556
Al1 Ca1 3.261232 1_655
Al1 Ca2 3.320468 1_545
Al1 Ca0 3.401462 1_655
Al1 Ca0 3.401463 1_556
Al2 Cu0 2.516942 1_555
Al2 Cu1 2.555528 1_554
Al2 Al3 2.747072 1_654
Al2 Al3 2.805539 1_555
Al2 Ca1 3.261232 1_655
Al2 Ca1 3.261232 1_565
Al2 Ca2 3.320468 1_554
Al2 Ca0 3.401462 1_565
Al2 Ca0 3.401462 1_655
Al3 Cu0 2.516942 1_555
Al3 Cu1 2.555528 1_455
Al3 Ca1 3.261232 1_556
Al3 Ca1 3.261232 1_565
Al3 Ca2 3.320468 1_455
Al3 Ca0 3.401462 1_565
Al3 Ca0 3.401462 1_556
Al4 Cu1 2.516942 1_555
Al4 Cu0 2.555528 1_655
Al4 Al5 2.747072 1_645
Al4 Al6 2.747072 1_654
Al4 Al5 2.805539 1_555
Al4 Al6 2.805539 1_555
Al4 Ca2 3.261232 1_554
Al4 Ca2 3.261232 1_545
Al4 Ca1 3.320468 1_655
Al4 Ca0 3.401462 1_656
Al4 Ca0 3.401462 1_665
Al5 Cu1 2.516942 1_555
Al5 Cu0 2.555528 1_565
Al5 Al6 2.747072 1_564
Al5 Al6 2.805539 1_555
Al5 Ca2 3.261232 1_554
Al5 Ca2 3.261232 1_455
Al5 Ca1 3.320468 1_565
Al5 Ca0 3.401462 1_566
Al5 Ca0 3.401463 1_665
Al6 Cu1 2.516942 1_555
Al6 Cu0 2.555528 1_556
Al6 Ca2 3.261232 1_455
Al6 Ca2 3.261232 1_545
Al6 Ca1 3.320468 1_556
Al6 Ca0 3.401462 1_656
Al6 Ca0 3.401462 1_566
