# generated using pymatgen
data_KV2SbO8
_symmetry_space_group_name_H-M   'P 1'
_cell_length_a   5.64322800
_cell_length_b   8.65679100
_cell_length_c   14.89038200
_cell_angle_alpha   90.00000000
_cell_angle_beta   90.00000000
_cell_angle_gamma   90.00000000
_symmetry_Int_Tables_number   1
_chemical_formula_structural   KV2SbO8
_chemical_formula_sum   'K4 V8 Sb4 O32'
_cell_volume   727.42859499
_cell_formula_units_Z   4
loop_
 _symmetry_equiv_pos_site_id
 _symmetry_equiv_pos_as_xyz
  1  'x, y, z'
loop_
 _atom_site_type_symbol
 _atom_site_label
 _atom_site_symmetry_multiplicity
 _atom_site_fract_x
 _atom_site_fract_y
 _atom_site_fract_z
 _atom_site_occupancy
  K  K0  1  0.75000000  0.44981700  0.61891200  1
  K  K1  1  0.25000000  0.55018300  0.38108800  1
  K  K2  1  0.75000000  0.05018300  0.11891200  1
  K  K3  1  0.25000000  0.94981700  0.88108800  1
  V  V0  1  0.25000000  0.50854900  0.78404800  1
  V  V1  1  0.75000000  0.70708600  0.97265400  1
  V  V2  1  0.75000000  0.79291400  0.47265400  1
  V  V3  1  0.25000000  0.29291400  0.02734600  1
  V  V4  1  0.25000000  0.20708600  0.52734600  1
  V  V5  1  0.25000000  0.99145100  0.28404800  1
  V  V6  1  0.75000000  0.49145100  0.21595200  1
  V  V7  1  0.75000000  0.00854900  0.71595200  1
  Sb  Sb0  1  0.25000000  0.68681200  0.11774400  1
  Sb  Sb1  1  0.75000000  0.31318800  0.88225600  1
  Sb  Sb2  1  0.75000000  0.18681200  0.38225600  1
  Sb  Sb3  1  0.25000000  0.81318800  0.61774400  1
  O  O0  1  0.00314500  0.72474100  0.53595100  1
  O  O1  1  0.75000000  0.39170600  0.32125800  1
  O  O2  1  0.75000000  0.36492800  0.13504300  1
  O  O3  1  0.75000000  0.99266500  0.45457200  1
  O  O4  1  0.75000000  0.69777000  0.37778900  1
  O  O5  1  0.25000000  0.63507200  0.86495700  1
  O  O6  1  0.25000000  0.19777000  0.12221100  1
  O  O7  1  0.50314500  0.27525900  0.46404900  1
  O  O8  1  0.00958600  0.60873700  0.20498300  1
  O  O9  1  0.25000000  0.49266500  0.04542800  1
  O  O10  1  0.49685500  0.77525900  0.03595100  1
  O  O11  1  0.99685500  0.27525900  0.46404900  1
  O  O12  1  0.00314500  0.77525900  0.03595100  1
  O  O13  1  0.25000000  0.60829400  0.67874200  1
  O  O14  1  0.49041400  0.89126300  0.70498300  1
  O  O15  1  0.99041400  0.10873700  0.29501700  1
  O  O16  1  0.50958600  0.39126300  0.79501700  1
  O  O17  1  0.75000000  0.50733500  0.95457200  1
  O  O18  1  0.99041400  0.39126300  0.79501700  1
  O  O19  1  0.75000000  0.13507200  0.63504300  1
  O  O20  1  0.50958600  0.10873700  0.29501700  1
  O  O21  1  0.25000000  0.00733500  0.54542800  1
  O  O22  1  0.50314500  0.22474100  0.96404900  1
  O  O23  1  0.00958600  0.89126300  0.70498300  1
  O  O24  1  0.99685500  0.22474100  0.96404900  1
  O  O25  1  0.75000000  0.10829400  0.82125800  1
  O  O26  1  0.25000000  0.86492800  0.36495700  1
  O  O27  1  0.75000000  0.80223000  0.87778900  1
  O  O28  1  0.49041400  0.60873700  0.20498300  1
  O  O29  1  0.25000000  0.30223000  0.62221100  1
  O  O30  1  0.49685500  0.72474100  0.53595100  1
  O  O31  1  0.25000000  0.89170600  0.17874200  1
loop_
_geom_bond_atom_site_label_1
_geom_bond_atom_site_label_2
_geom_bond_distance
_geom_bond_site_symmetry_2
K0 O19 2.735249 1_555
K0 O18 2.995648 1_555
K0 O16 2.995648 1_555
K0 O0 3.038255 1_655
K0 O30 3.038255 1_555
K0 O11 3.088943 1_555
K0 O7 3.088943 1_555
K0 O29 3.097783 1_555
K0 O29 3.097783 1_655
K0 O13 3.261489 1_655
K0 O13 3.261489 1_555
K1 O26 2.735249 1_555
K1 O28 2.995648 1_555
K1 O8 2.995648 1_555
K1 O7 3.038255 1_555
K1 O11 3.038255 1_455
K1 O30 3.088943 1_555
K1 O0 3.088943 1_555
K1 O4 3.097783 1_555
K1 O4 3.097783 1_455
K1 O1 3.261489 1_555
K1 O1 3.261489 1_455
K2 O2 2.735249 1_555
K2 O15 2.995648 1_555
K2 O20 2.995648 1_555
K2 O12 3.038255 1_645
K2 O10 3.038255 1_545
K2 O24 3.088943 1_554
K2 O22 3.088943 1_554
K2 O6 3.097783 1_555
K2 O6 3.097783 1_655
K2 O31 3.261489 1_645
K2 O31 3.261489 1_545
K3 O5 2.735249 1_555
K3 O14 2.995648 1_555
K3 O23 2.995648 1_555
K3 O22 3.038255 1_565
K3 O24 3.038255 1_465
K3 O10 3.088943 1_556
K3 O12 3.088943 1_556
K3 O27 3.097783 1_455
K3 O27 3.097783 1_555
K3 O25 3.261489 1_465
K3 O25 3.261489 1_565
O0 V2 1.810358 1_455
O0 Sb3 2.002551 1_555
O1 V6 1.790071 1_555
O1 Sb2 1.992756 1_555
O2 V6 1.628222 1_555
O3 V2 1.750039 1_555
O3 Sb2 1.996057 1_565
O4 V2 1.635163 1_555
O5 V0 1.628222 1_555
O6 V3 1.635163 1_555
O7 V4 1.810358 1_555
O7 Sb2 2.002551 1_555
O8 V6 1.789831 1_455
O8 Sb0 1.996230 1_555
O9 V3 1.750039 1_555
O9 Sb0 1.996057 1_555
O10 V1 1.810358 1_554
O10 Sb0 2.002551 1_555
O11 V4 1.810358 1_655
O11 Sb2 2.002551 1_555
O12 V1 1.810358 1_454
O12 Sb0 2.002551 1_555
O13 V0 1.790071 1_555
O13 Sb3 1.992756 1_555
O14 V7 1.789831 1_565
O14 Sb3 1.996230 1_555
O15 V5 1.789831 1_645
O15 Sb2 1.996230 1_555
O16 V0 1.789831 1_555
O16 Sb1 1.996230 1_555
O17 V1 1.750039 1_555
O17 Sb1 1.996057 1_555
O18 V0 1.789831 1_655
O18 Sb1 1.996230 1_555
O19 V7 1.628222 1_555
O20 V5 1.789831 1_545
O20 Sb2 1.996230 1_555
O21 V4 1.750039 1_555
O21 Sb3 1.996057 1_545
O22 V3 1.810358 1_556
O22 Sb1 2.002551 1_555
O23 V7 1.789831 1_465
O23 Sb3 1.996230 1_555
O24 V3 1.810358 1_656
O24 Sb1 2.002551 1_555
O25 V7 1.790071 1_555
O25 Sb1 1.992756 1_555
O26 V5 1.628222 1_555
O27 V1 1.635163 1_555
O28 V6 1.789831 1_555
O28 Sb0 1.996230 1_555
O29 V4 1.635163 1_555
O30 V2 1.810358 1_555
O30 Sb3 2.002551 1_555
O31 V5 1.790071 1_555
O31 Sb0 1.992756 1_555
