# generated using pymatgen
data_EuCo9Si2
_symmetry_space_group_name_H-M   'P 1'
_cell_length_a   6.31893100
_cell_length_b   7.57907509
_cell_length_c   7.57907509
_cell_angle_alpha   79.99244961
_cell_angle_beta   65.36306526
_cell_angle_gamma   65.36306526
_symmetry_Int_Tables_number   1
_chemical_formula_structural   EuCo9Si2
_chemical_formula_sum   'Eu2 Co18 Si4'
_cell_volume   299.89747693
_cell_formula_units_Z   2
loop_
 _symmetry_equiv_pos_site_id
 _symmetry_equiv_pos_as_xyz
  1  'x, y, z'
loop_
 _atom_site_type_symbol
 _atom_site_label
 _atom_site_symmetry_multiplicity
 _atom_site_fract_x
 _atom_site_fract_y
 _atom_site_fract_z
 _atom_site_occupancy
  Eu  Eu0  1  0.37500000  0.25000000  0.75000000  1
  Eu  Eu1  1  0.62500000  0.75000000  0.25000000  1
  Co  Co0  1  0.12500000  0.75000000  0.25000000  1
  Co  Co1  1  0.87500000  0.25000000  0.75000000  1
  Co  Co2  1  0.56124900  0.57975000  0.66884100  1
  Co  Co3  1  0.56124900  0.16884100  0.07975000  1
  Co  Co4  1  0.14099900  0.42025000  0.16884100  1
  Co  Co5  1  0.14099900  0.66884100  0.92025000  1
  Co  Co6  1  0.80984100  0.33115900  0.42025000  1
  Co  Co7  1  0.80984100  0.92025000  0.83115900  1
  Co  Co8  1  0.73009000  0.83115900  0.57975000  1
  Co  Co9  1  0.73009000  0.07975000  0.33115900  1
  Co  Co10  1  0.43875100  0.42025000  0.33115900  1
  Co  Co11  1  0.43875100  0.83115900  0.92025000  1
  Co  Co12  1  0.85900100  0.57975000  0.83115900  1
  Co  Co13  1  0.85900100  0.33115900  0.07975000  1
  Co  Co14  1  0.19015900  0.66884100  0.57975000  1
  Co  Co15  1  0.19015900  0.07975000  0.16884100  1
  Co  Co16  1  0.26991000  0.16884100  0.42025000  1
  Co  Co17  1  0.26991000  0.92025000  0.66884100  1
  Si  Si0  1  0.50000000  0.50000000  0.00000000  1
  Si  Si1  1  0.00000000  0.50000000  0.50000000  1
  Si  Si2  1  0.00000000  0.00000000  0.00000000  1
  Si  Si3  1  0.00000000  0.00000000  0.50000000  1
loop_
_geom_bond_atom_site_label_1
_geom_bond_atom_site_label_2
_geom_bond_distance
_geom_bond_site_symmetry_2
Co0 Si3 2.560548 1_565
Co0 Si1 2.560549 1_555
Co0 Si2 2.560549 1_565
Co0 Si0 2.560549 1_555
Co0 Co14 2.627996 1_555
Co0 Co15 2.627996 1_565
Co0 Co5 2.627998 1_554
Co0 Co4 2.627998 1_555
Co0 Co11 2.627999 1_554
Co0 Co10 2.627999 1_555
Co0 Co9 2.627999 1_465
Co0 Co8 2.627999 1_455
Co0 Eu1 3.159466 1_455
Co0 Eu1 3.159466 1_555
Co1 Si3 2.560548 1_655
Co1 Si2 2.560549 1_656
Co1 Si1 2.560549 1_655
Co1 Si0 2.560549 1_556
Co1 Co6 2.627996 1_555
Co1 Co7 2.627996 1_545
Co1 Co13 2.627998 1_556
Co1 Co12 2.627998 1_555
Co1 Co3 2.627999 1_556
Co1 Co2 2.627999 1_555
Co1 Co17 2.627999 1_645
Co1 Co16 2.627999 1_655
Co1 Eu0 3.159466 1_555
Co1 Eu0 3.159466 1_655
Co2 Si1 2.367080 1_655
Co2 Si0 2.381704 1_556
Co2 Co6 2.421949 1_555
Co2 Co8 2.423231 1_555
Co2 Co5 2.423231 1_555
Co2 Eu0 3.053498 1_555
Co2 Eu1 3.138125 1_555
Co3 Si2 2.367080 1_655
Co3 Si0 2.381704 1_555
Co3 Co7 2.421949 1_544
Co3 Co9 2.423231 1_555
Co3 Co4 2.423231 1_555
Co3 Eu0 3.053498 1_554
Co3 Eu1 3.138125 1_545
Co4 Si0 2.367080 1_555
Co4 Si1 2.381704 1_555
Co4 Co5 2.421949 1_554
Co4 Co6 2.423227 1_455
Co4 Eu1 3.053498 1_455
Co4 Eu0 3.138125 1_554
Co5 Si0 2.367080 1_556
Co5 Si2 2.381704 1_566
Co5 Co7 2.423227 1_455
Co5 Eu1 3.053498 1_456
Co5 Eu0 3.138125 1_555
Co6 Si1 2.367075 1_655
Co6 Si3 2.381703 1_655
Co6 Co9 2.423235 1_555
Co6 Eu0 3.053502 1_555
Co6 Eu1 3.138126 1_555
Co7 Si2 2.367075 1_666
Co7 Si3 2.381703 1_665
Co7 Co8 2.423235 1_555
Co7 Eu0 3.053502 1_565
Co7 Eu1 3.138126 1_556
Co8 Si3 2.367080 1_665
Co8 Si1 2.381704 1_655
Co8 Co9 2.421949 1_565
Co8 Eu1 3.053498 1_555
Co8 Eu0 3.138125 1_565
Co9 Si3 2.367080 1_655
Co9 Si2 2.381704 1_655
Co9 Eu1 3.053498 1_545
Co9 Eu0 3.138125 1_555
Co10 Si1 2.367080 1_555
Co10 Si0 2.381704 1_555
Co10 Co14 2.421949 1_555
Co10 Co16 2.423231 1_555
Co10 Co13 2.423231 1_555
Co10 Co9 2.467388 1_555
Co10 Co6 2.500384 1_555
Co10 Co3 2.581302 1_555
Co10 Co4 2.642569 1_555
Co10 Eu1 3.053498 1_555
Co10 Eu0 3.138125 1_555
Co11 Si2 2.367080 1_566
Co11 Si0 2.381704 1_556
Co11 Co15 2.421949 1_566
Co11 Co17 2.423231 1_555
Co11 Co12 2.423231 1_555
Co11 Co8 2.467388 1_555
Co11 Co7 2.500384 1_555
Co11 Co2 2.581302 1_555
Co11 Co5 2.642569 1_555
Co11 Eu1 3.053498 1_556
Co11 Eu0 3.138125 1_565
Co12 Si0 2.367080 1_556
Co12 Si1 2.381704 1_655
Co12 Co13 2.421949 1_556
Co12 Co14 2.423227 1_655
Co12 Co7 2.467390 1_555
Co12 Co5 2.500378 1_655
Co12 Co8 2.581302 1_555
Co12 Co2 2.642569 1_555
Co12 Eu0 3.053498 1_655
Co12 Eu1 3.138125 1_556
Co13 Si0 2.367080 1_555
Co13 Si2 2.381704 1_655
Co13 Co15 2.423227 1_655
Co13 Co6 2.467390 1_555
Co13 Co4 2.500378 1_655
Co13 Co9 2.581302 1_555
Co13 Co3 2.642569 1_555
Co13 Eu0 3.053498 1_654
Co13 Eu1 3.138125 1_555
Co14 Si1 2.367075 1_555
Co14 Si3 2.381703 1_565
Co14 Co17 2.423235 1_555
Co14 Co5 2.467390 1_555
Co14 Co2 2.500384 1_555
Co14 Co7 2.581298 1_455
Co14 Co8 2.642563 1_455
Co14 Eu1 3.053502 1_555
Co14 Eu0 3.138126 1_555
Co15 Si2 2.367075 1_555
Co15 Si3 2.381703 1_555
Co15 Co16 2.423235 1_555
Co15 Co4 2.467390 1_555
Co15 Co3 2.500384 1_555
Co15 Co6 2.581298 1_455
Co15 Co9 2.642563 1_455
Co15 Eu1 3.053502 1_545
Co15 Eu0 3.138126 1_554
Co16 Si3 2.367080 1_555
Co16 Si1 2.381704 1_555
Co16 Co17 2.421949 1_545
Co16 Co3 2.467388 1_555
Co16 Co9 2.500378 1_555
Co16 Co4 2.581302 1_555
Co16 Co6 2.642563 1_455
Co16 Eu0 3.053498 1_555
Co16 Eu1 3.138125 1_545
Co17 Si3 2.367080 1_565
Co17 Si2 2.381704 1_566
Co17 Co2 2.467388 1_555
Co17 Co8 2.500378 1_555
Co17 Co5 2.581302 1_555
Co17 Co7 2.642563 1_455
Co17 Eu0 3.053498 1_565
Co17 Eu1 3.138125 1_555
