# generated using pymatgen
data_Sm2Si2O7
_symmetry_space_group_name_H-M   'P 1'
_cell_length_a   6.77073900
_cell_length_b   6.66276300
_cell_length_c   12.78995248
_cell_angle_alpha   71.66697570
_cell_angle_beta   90.00000000
_cell_angle_gamma   90.00000000
_symmetry_Int_Tables_number   1
_chemical_formula_structural   Sm2Si2O7
_chemical_formula_sum   'Sm8 Si8 O28'
_cell_volume   547.69324595
_cell_formula_units_Z   4
loop_
 _symmetry_equiv_pos_site_id
 _symmetry_equiv_pos_as_xyz
  1  'x, y, z'
loop_
 _atom_site_type_symbol
 _atom_site_label
 _atom_site_symmetry_multiplicity
 _atom_site_fract_x
 _atom_site_fract_y
 _atom_site_fract_z
 _atom_site_occupancy
  Sm  Sm0  1  0.82465700  0.15046900  0.15336500  1
  Sm  Sm1  1  0.32465700  0.84953100  0.34663500  1
  Sm  Sm2  1  0.17534300  0.84953100  0.84663500  1
  Sm  Sm3  1  0.67534300  0.15046900  0.65336500  1
  Sm  Sm4  1  0.60940300  0.47183300  0.86208500  1
  Sm  Sm5  1  0.10940300  0.52816700  0.63791500  1
  Sm  Sm6  1  0.39059700  0.52816700  0.13791500  1
  Sm  Sm7  1  0.89059700  0.47183300  0.36208500  1
  Si  Si0  1  0.92068100  0.70886800  0.10994000  1
  Si  Si1  1  0.42068100  0.29113200  0.39006000  1
  Si  Si2  1  0.07931900  0.29113200  0.89006000  1
  Si  Si3  1  0.57931900  0.70886800  0.60994000  1
  Si  Si4  1  0.67247000  0.89615400  0.91457800  1
  Si  Si5  1  0.17247000  0.10384600  0.58542200  1
  Si  Si6  1  0.32753000  0.10384600  0.08542200  1
  Si  Si7  1  0.82753000  0.89615400  0.41457800  1
  O  O0  1  0.10567000  0.66302500  0.04058100  1
  O  O1  1  0.60567000  0.33697500  0.45941900  1
  O  O2  1  0.89433000  0.33697500  0.95941900  1
  O  O3  1  0.39433000  0.66302500  0.54058100  1
  O  O4  1  0.82944100  0.79041300  0.85018900  1
  O  O5  1  0.32944100  0.20958700  0.64981100  1
  O  O6  1  0.17055900  0.20958700  0.14981100  1
  O  O7  1  0.67055900  0.79041300  0.35018900  1
  O  O8  1  0.59144100  0.12570600  0.84020500  1
  O  O9  1  0.09144100  0.87429400  0.65979500  1
  O  O10  1  0.40855900  0.87429400  0.15979500  1
  O  O11  1  0.90855900  0.12570600  0.34020500  1
  O  O12  1  0.98555500  0.79657500  0.21083900  1
  O  O13  1  0.48555500  0.20342500  0.28916100  1
  O  O14  1  0.01444500  0.20342500  0.78916100  1
  O  O15  1  0.51444500  0.79657500  0.71083900  1
  O  O16  1  0.71984100  0.90517800  0.53091100  1
  O  O17  1  0.21984100  0.09482200  0.96908900  1
  O  O18  1  0.28015900  0.09482200  0.46908900  1
  O  O19  1  0.78015900  0.90517800  0.03091100  1
  O  O20  1  0.01256300  0.72453700  0.45023300  1
  O  O21  1  0.51256300  0.27546300  0.04976700  1
  O  O22  1  0.98743700  0.27546300  0.54976700  1
  O  O23  1  0.48743700  0.72453700  0.95023300  1
  O  O24  1  0.72173100  0.50145400  0.66709400  1
  O  O25  1  0.22173100  0.49854600  0.83290600  1
  O  O26  1  0.27826900  0.49854600  0.33290600  1
  O  O27  1  0.77826900  0.50145400  0.16709400  1
loop_
_geom_bond_atom_site_label_1
_geom_bond_atom_site_label_2
_geom_bond_distance
_geom_bond_site_symmetry_2
O0 Si0 1.618480 1_455
O0 Sm6 2.318433 1_555
O0 Sm2 2.445562 1_554
O1 Si1 1.618480 1_555
O1 Sm7 2.318433 1_555
O1 Sm3 2.445562 1_555
O2 Si2 1.618480 1_655
O2 Sm4 2.318433 1_555
O2 Sm0 2.445562 1_556
O3 Si3 1.618480 1_555
O3 Sm5 2.318433 1_555
O3 Sm1 2.445562 1_555
O4 Si4 1.633744 1_555
O4 Sm2 2.372967 1_655
O4 Sm4 2.558335 1_555
O5 Si5 1.633744 1_555
O5 Sm3 2.372967 1_555
O5 Sm5 2.558335 1_555
O6 Si6 1.633744 1_555
O6 Sm0 2.372967 1_455
O6 Sm6 2.558335 1_555
O7 Si7 1.633744 1_555
O7 Sm1 2.372967 1_555
O7 Sm7 2.558335 1_555
O8 Si4 1.621673 1_545
O8 Sm3 2.410903 1_555
O8 Sm4 2.411944 1_555
O9 Si5 1.621673 1_565
O9 Sm2 2.410903 1_555
O9 Sm5 2.411944 1_555
O10 Si6 1.621673 1_565
O10 Sm1 2.410903 1_555
O10 Sm6 2.411944 1_555
O11 Si7 1.621673 1_545
O11 Sm0 2.410903 1_555
O11 Sm7 2.411944 1_555
O12 Si0 1.635299 1_555
O12 Sm0 2.489282 1_565
O12 Sm7 2.490761 1_555
O13 Si1 1.635299 1_555
O13 Sm1 2.489282 1_545
O13 Sm6 2.490761 1_555
O14 Si2 1.635299 1_555
O14 Sm2 2.489282 1_545
O14 Sm5 2.490761 1_555
O15 Si3 1.635299 1_555
O15 Sm3 2.489282 1_565
O15 Sm4 2.490761 1_555
O16 Si7 1.674920 1_555
O16 Si3 1.675112 1_555
O16 Sm3 2.612450 1_565
O17 Si6 1.674920 1_556
O17 Si2 1.675112 1_555
O17 Sm2 2.612450 1_545
O18 Si5 1.674920 1_555
O18 Si1 1.675112 1_555
O18 Sm1 2.612450 1_545
O19 Si4 1.674920 1_554
O19 Si0 1.675112 1_555
O19 Sm0 2.612450 1_565
O20 Si7 1.660400 1_455
O20 Sm5 2.434778 1_555
O20 Sm7 2.445813 1_455
O20 Sm1 2.494047 1_555
O21 Si6 1.660400 1_555
O21 Sm4 2.434778 1_554
O21 Sm6 2.445813 1_555
O21 Sm0 2.494047 1_555
O22 Si5 1.660400 1_655
O22 Sm7 2.434778 1_555
O22 Sm5 2.445813 1_655
O22 Sm3 2.494047 1_555
O23 Si4 1.660400 1_555
O23 Sm6 2.434778 1_556
O23 Sm4 2.445813 1_555
O23 Sm2 2.494047 1_555
O24 Si3 1.654810 1_555
O24 Sm3 2.420025 1_555
O24 Sm4 2.554880 1_555
O24 Sm5 2.649317 1_655
O25 Si2 1.654810 1_555
O25 Sm2 2.420025 1_555
O25 Sm5 2.554880 1_555
O25 Sm4 2.649317 1_555
O26 Si1 1.654810 1_555
O26 Sm1 2.420025 1_555
O26 Sm6 2.554880 1_555
O26 Sm7 2.649317 1_455
O27 Si0 1.654810 1_555
O27 Sm0 2.420025 1_555
O27 Sm7 2.554880 1_555
O27 Sm6 2.649317 1_555
