# generated using pymatgen
data_Mg3Si4
_symmetry_space_group_name_H-M   'P 1'
_cell_length_a   4.13883500
_cell_length_b   6.00438200
_cell_length_c   10.05157624
_cell_angle_alpha   82.56810151
_cell_angle_beta   90.00000000
_cell_angle_gamma   90.00000000
_symmetry_Int_Tables_number   1
_chemical_formula_structural   Mg3Si4
_chemical_formula_sum   'Mg6 Si8'
_cell_volume   247.69475568
_cell_formula_units_Z   2
loop_
 _symmetry_equiv_pos_site_id
 _symmetry_equiv_pos_as_xyz
  1  'x, y, z'
loop_
 _atom_site_type_symbol
 _atom_site_label
 _atom_site_symmetry_multiplicity
 _atom_site_fract_x
 _atom_site_fract_y
 _atom_site_fract_z
 _atom_site_occupancy
  Mg  Mg0  1  0.50000000  0.08019000  0.20010500  1
  Mg  Mg1  1  0.50000000  0.27807800  0.63507600  1
  Mg  Mg2  1  0.50000000  0.65188800  0.04294100  1
  Mg  Mg3  1  0.00000000  0.45948100  0.83923300  1
  Mg  Mg4  1  0.50000000  0.85195400  0.47836300  1
  Mg  Mg5  1  0.50000000  0.46637700  0.33878600  1
  Si  Si0  1  0.00000000  0.90902900  0.64918800  1
  Si  Si1  1  0.50000000  0.80130000  0.77441800  1
  Si  Si2  1  0.00000000  0.15338200  0.40409900  1
  Si  Si3  1  0.00000000  0.38753700  0.14752900  1
  Si  Si4  1  0.00000000  0.02430800  0.02998900  1
  Si  Si5  1  0.00000000  0.77945100  0.27540200  1
  Si  Si6  1  0.00000000  0.54423500  0.52975800  1
  Si  Si7  1  0.50000000  0.11266300  0.90186600  1
loop_
_geom_bond_atom_site_label_1
_geom_bond_atom_site_label_2
_geom_bond_distance
_geom_bond_site_symmetry_2
Mg0 Si4 2.732649 1_655
Mg0 Si4 2.732649 1_555
Mg0 Si3 2.777604 1_555
Mg0 Si3 2.777604 1_655
Mg0 Si5 2.786126 1_645
Mg0 Si5 2.786126 1_545
Mg0 Si7 2.978833 1_554
Mg0 Si2 2.985487 1_655
Mg0 Si2 2.985487 1_555
Mg1 Si7 2.736558 1_555
Mg1 Si6 2.742160 1_555
Mg1 Si6 2.742160 1_655
Mg1 Si1 3.019903 1_545
Mg1 Si0 3.021847 1_645
Mg1 Si0 3.021847 1_545
Mg1 Mg3 3.202845 1_555
Mg1 Mg3 3.202845 1_655
Mg2 Si1 2.731933 1_554
Mg2 Si3 2.734118 1_555
Mg2 Si3 2.734118 1_655
Mg2 Si7 2.941146 1_564
Mg2 Si4 3.037186 1_665
Mg2 Si4 3.037186 1_565
Mg2 Mg3 3.228272 1_554
Mg2 Mg3 3.228272 1_654
Mg3 Si1 2.928040 1_555
Mg3 Si1 2.928040 1_455
Mg3 Si7 2.945537 1_455
Mg3 Si7 2.945537 1_555
Mg3 Si4 3.034439 1_556
Mg3 Si3 3.072986 1_556
Mg3 Si6 3.086419 1_555
Mg3 Si0 3.098573 1_555
Mg4 Si0 2.738696 1_655
Mg4 Si0 2.738696 1_555
Mg4 Si6 2.777822 1_655
Mg4 Si6 2.777822 1_555
Mg4 Si2 2.786736 1_565
Mg4 Si2 2.786736 1_665
Mg4 Si1 2.951926 1_555
Mg4 Si5 2.977193 1_555
Mg4 Si5 2.977193 1_655
Mg5 Si5 2.812877 1_655
Mg5 Si5 2.812877 1_555
Mg5 Si2 2.815356 1_655
Mg5 Si2 2.815356 1_555
Mg5 Si6 2.901367 1_655
Mg5 Si6 2.901367 1_555
Mg5 Si3 2.904783 1_555
Mg5 Si3 2.904783 1_655
Si0 Si1 2.464698 1_455
Si0 Si1 2.464698 1_555
Si0 Si6 2.630402 1_555
Si0 Si2 2.699367 1_565
Si1 Si7 2.399137 1_565
Si2 Si5 2.732365 1_545
Si2 Si3 2.773015 1_555
Si2 Si6 2.805315 1_555
Si3 Si4 2.611331 1_555
Si3 Si5 2.823486 1_555
Si4 Si7 2.458804 1_454
Si4 Si7 2.458804 1_554
Si4 Si5 2.703398 1_545
Si5 Si6 2.756294 1_555
