# generated using pymatgen
data_Mo
_symmetry_space_group_name_H-M   'P 1'
_cell_length_a   5.63517364
_cell_length_b   5.63517364
_cell_length_c   18.33140200
_cell_angle_alpha   90.00000000
_cell_angle_beta   90.00000000
_cell_angle_gamma   120.00001925
_symmetry_Int_Tables_number   1
_chemical_formula_structural   Mo
_chemical_formula_sum   Mo32
_cell_volume   504.12801729
_cell_formula_units_Z   32
loop_
 _symmetry_equiv_pos_site_id
 _symmetry_equiv_pos_as_xyz
  1  'x, y, z'
loop_
 _atom_site_type_symbol
 _atom_site_label
 _atom_site_symmetry_multiplicity
 _atom_site_fract_x
 _atom_site_fract_y
 _atom_site_fract_z
 _atom_site_occupancy
  Mo  Mo0_0  1  0.00000000  0.00000000  0.25000000  1
  Mo  Mo0_1  1  0.00000000  0.00000000  0.75000000  1
  Mo  Mo0_2  1  0.00000000  0.50000000  0.25000000  1
  Mo  Mo0_3  1  0.00000000  0.50000000  0.75000000  1
  Mo  Mo0_4  1  0.50000000  0.00000000  0.25000000  1
  Mo  Mo0_5  1  0.50000000  0.00000000  0.75000000  1
  Mo  Mo0_6  1  0.50000000  0.50000000  0.25000000  1
  Mo  Mo0_7  1  0.50000000  0.50000000  0.75000000  1
  Mo  Mo1_0  1  0.00000000  0.00000000  0.00000000  1
  Mo  Mo1_1  1  0.00000000  0.00000000  0.50000000  1
  Mo  Mo1_2  1  0.00000000  0.50000000  0.00000000  1
  Mo  Mo1_3  1  0.00000000  0.50000000  0.50000000  1
  Mo  Mo1_4  1  0.50000000  0.00000000  0.00000000  1
  Mo  Mo1_5  1  0.50000000  0.00000000  0.50000000  1
  Mo  Mo1_6  1  0.50000000  0.50000000  0.00000000  1
  Mo  Mo1_7  1  0.50000000  0.50000000  0.50000000  1
  Mo  Mo2_0  1  0.16666650  0.33333350  0.12500000  1
  Mo  Mo2_1  1  0.16666650  0.33333350  0.62500000  1
  Mo  Mo2_2  1  0.16666650  0.83333350  0.12500000  1
  Mo  Mo2_3  1  0.16666650  0.83333350  0.62500000  1
  Mo  Mo2_4  1  0.66666650  0.33333350  0.12500000  1
  Mo  Mo2_5  1  0.66666650  0.33333350  0.62500000  1
  Mo  Mo2_6  1  0.66666650  0.83333350  0.12500000  1
  Mo  Mo2_7  1  0.66666650  0.83333350  0.62500000  1
  Mo  Mo3_0  1  0.33333350  0.16666650  0.37500000  1
  Mo  Mo3_1  1  0.33333350  0.16666650  0.87500000  1
  Mo  Mo3_2  1  0.33333350  0.66666650  0.37500000  1
  Mo  Mo3_3  1  0.33333350  0.66666650  0.87500000  1
  Mo  Mo3_4  1  0.83333350  0.16666650  0.37500000  1
  Mo  Mo3_5  1  0.83333350  0.16666650  0.87500000  1
  Mo  Mo3_6  1  0.83333350  0.66666650  0.37500000  1
  Mo  Mo3_7  1  0.83333350  0.66666650  0.87500000  1
loop_
_geom_bond_atom_site_label_1
_geom_bond_atom_site_label_2
_geom_bond_distance
_geom_bond_site_symmetry_2
Mo0_0 Mo2_2 2.810141 1_545
Mo0_0 Mo3_4 2.810141 1_455
Mo0_0 Mo2_6 2.810142 1_445
Mo0_0 Mo2_0 2.810142 1_555
Mo0_0 Mo3_6 2.810142 1_445
Mo0_0 Mo3_0 2.810142 1_555
Mo0_0 Mo0_6 2.817586 1_445
Mo0_0 Mo0_6 2.817586 1_555
Mo0_0 Mo0_4 2.817587 1_455
Mo0_0 Mo0_4 2.817587 1_555
Mo0_0 Mo0_2 2.817587 1_555
Mo0_0 Mo0_2 2.817587 1_545
Mo0_1 Mo3_5 2.810141 1_455
Mo0_1 Mo2_3 2.810141 1_545
Mo0_1 Mo3_7 2.810142 1_445
Mo0_1 Mo3_1 2.810142 1_555
Mo0_1 Mo2_1 2.810142 1_555
Mo0_1 Mo2_7 2.810142 1_445
Mo0_1 Mo0_7 2.817586 1_445
Mo0_1 Mo0_7 2.817586 1_555
Mo0_1 Mo0_3 2.817587 1_545
Mo0_1 Mo0_3 2.817587 1_555
Mo0_1 Mo0_5 2.817587 1_555
Mo0_1 Mo0_5 2.817587 1_455
Mo0_2 Mo2_0 2.810141 1_555
Mo0_2 Mo3_6 2.810141 1_455
Mo0_2 Mo2_4 2.810142 1_455
Mo0_2 Mo2_2 2.810142 1_555
Mo0_2 Mo3_2 2.810142 1_555
Mo0_2 Mo3_4 2.810142 1_455
Mo0_2 Mo0_4 2.817586 1_565
Mo0_2 Mo0_4 2.817586 1_455
Mo0_2 Mo0_6 2.817587 1_455
Mo0_2 Mo0_6 2.817587 1_555
Mo0_3 Mo3_7 2.810141 1_455
Mo0_3 Mo2_1 2.810141 1_555
Mo0_3 Mo3_5 2.810142 1_455
Mo0_3 Mo3_3 2.810142 1_555
Mo0_3 Mo2_5 2.810142 1_455
Mo0_3 Mo2_3 2.810142 1_555
Mo0_3 Mo0_5 2.817586 1_455
Mo0_3 Mo0_5 2.817586 1_565
Mo0_3 Mo0_7 2.817587 1_455
Mo0_3 Mo0_7 2.817587 1_555
Mo0_4 Mo2_6 2.810141 1_545
Mo0_4 Mo3_0 2.810141 1_555
Mo0_4 Mo2_2 2.810142 1_545
Mo0_4 Mo2_4 2.810142 1_555
Mo0_4 Mo3_2 2.810142 1_545
Mo0_4 Mo3_4 2.810142 1_555
Mo0_4 Mo0_6 2.817587 1_545
Mo0_4 Mo0_6 2.817587 1_555
Mo0_5 Mo3_1 2.810141 1_555
Mo0_5 Mo2_7 2.810141 1_545
Mo0_5 Mo3_5 2.810142 1_555
Mo0_5 Mo3_3 2.810142 1_545
Mo0_5 Mo2_3 2.810142 1_545
Mo0_5 Mo2_5 2.810142 1_555
Mo0_5 Mo0_7 2.817587 1_545
Mo0_5 Mo0_7 2.817587 1_555
Mo0_6 Mo2_4 2.810141 1_555
Mo0_6 Mo3_2 2.810141 1_555
Mo0_6 Mo2_0 2.810142 1_555
Mo0_6 Mo2_6 2.810142 1_555
Mo0_6 Mo3_6 2.810142 1_555
Mo0_6 Mo3_0 2.810142 1_555
Mo0_7 Mo3_3 2.810141 1_555
Mo0_7 Mo2_5 2.810141 1_555
Mo0_7 Mo3_7 2.810142 1_555
Mo0_7 Mo3_1 2.810142 1_555
Mo0_7 Mo2_7 2.810142 1_555
Mo0_7 Mo2_1 2.810142 1_555
Mo1_0 Mo3_5 2.810141 1_454
Mo1_0 Mo2_2 2.810141 1_545
Mo1_0 Mo3_7 2.810142 1_444
Mo1_0 Mo3_1 2.810142 1_554
Mo1_0 Mo2_6 2.810142 1_445
Mo1_0 Mo2_0 2.810142 1_555
Mo1_0 Mo1_6 2.817586 1_445
Mo1_0 Mo1_6 2.817586 1_555
Mo1_0 Mo1_4 2.817587 1_555
Mo1_0 Mo1_4 2.817587 1_455
Mo1_0 Mo1_2 2.817587 1_545
Mo1_0 Mo1_2 2.817587 1_555
Mo1_1 Mo2_3 2.810141 1_545
Mo1_1 Mo3_4 2.810141 1_455
Mo1_1 Mo3_6 2.810142 1_445
Mo1_1 Mo3_0 2.810142 1_555
Mo1_1 Mo2_1 2.810142 1_555
Mo1_1 Mo2_7 2.810142 1_445
Mo1_1 Mo1_7 2.817586 1_555
Mo1_1 Mo1_7 2.817586 1_445
Mo1_1 Mo1_3 2.817587 1_555
Mo1_1 Mo1_5 2.817587 1_555
Mo1_1 Mo1_5 2.817587 1_455
Mo1_1 Mo1_3 2.817587 1_545
Mo1_2 Mo3_7 2.810141 1_454
Mo1_2 Mo2_0 2.810141 1_555
Mo1_2 Mo3_5 2.810142 1_454
Mo1_2 Mo3_3 2.810142 1_554
Mo1_2 Mo2_4 2.810142 1_455
Mo1_2 Mo2_2 2.810142 1_555
Mo1_2 Mo1_4 2.817586 1_455
Mo1_2 Mo1_4 2.817586 1_565
Mo1_2 Mo1_6 2.817587 1_455
Mo1_2 Mo1_6 2.817587 1_555
Mo1_3 Mo3_6 2.810141 1_455
Mo1_3 Mo2_1 2.810141 1_555
Mo1_3 Mo3_4 2.810142 1_455
Mo1_3 Mo3_2 2.810142 1_555
Mo1_3 Mo2_5 2.810142 1_455
Mo1_3 Mo2_3 2.810142 1_555
Mo1_3 Mo1_5 2.817586 1_455
Mo1_3 Mo1_5 2.817586 1_565
Mo1_3 Mo1_7 2.817587 1_555
Mo1_3 Mo1_7 2.817587 1_455
Mo1_4 Mo3_1 2.810141 1_554
Mo1_4 Mo2_6 2.810141 1_545
Mo1_4 Mo3_5 2.810142 1_554
Mo1_4 Mo3_3 2.810142 1_544
Mo1_4 Mo2_2 2.810142 1_545
Mo1_4 Mo2_4 2.810142 1_555
Mo1_4 Mo1_6 2.817587 1_545
Mo1_4 Mo1_6 2.817587 1_555
Mo1_5 Mo3_0 2.810141 1_555
Mo1_5 Mo2_7 2.810141 1_545
Mo1_5 Mo3_4 2.810142 1_555
Mo1_5 Mo3_2 2.810142 1_545
Mo1_5 Mo2_5 2.810142 1_555
Mo1_5 Mo2_3 2.810142 1_545
Mo1_5 Mo1_7 2.817587 1_555
Mo1_5 Mo1_7 2.817587 1_545
Mo1_6 Mo3_3 2.810141 1_554
Mo1_6 Mo2_4 2.810141 1_555
Mo1_6 Mo3_7 2.810142 1_554
Mo1_6 Mo3_1 2.810142 1_554
Mo1_6 Mo2_0 2.810142 1_555
Mo1_6 Mo2_6 2.810142 1_555
Mo1_7 Mo3_2 2.810141 1_555
Mo1_7 Mo2_5 2.810141 1_555
Mo1_7 Mo3_6 2.810142 1_555
Mo1_7 Mo3_0 2.810142 1_555
Mo1_7 Mo2_1 2.810142 1_555
Mo1_7 Mo2_7 2.810142 1_555
Mo2_0 Mo2_6 2.817586 1_555
Mo2_0 Mo2_6 2.817586 1_445
Mo2_0 Mo2_4 2.817587 1_555
Mo2_0 Mo2_2 2.817587 1_545
Mo2_0 Mo2_2 2.817587 1_555
Mo2_0 Mo2_4 2.817587 1_455
Mo2_1 Mo2_7 2.817586 1_555
Mo2_1 Mo2_7 2.817586 1_445
Mo2_1 Mo2_5 2.817587 1_555
Mo2_1 Mo2_3 2.817587 1_545
Mo2_1 Mo2_3 2.817587 1_555
Mo2_1 Mo2_5 2.817587 1_455
Mo2_2 Mo2_4 2.817586 1_565
Mo2_2 Mo2_4 2.817586 1_455
Mo2_2 Mo2_6 2.817587 1_555
Mo2_2 Mo2_6 2.817587 1_455
Mo2_3 Mo2_5 2.817586 1_565
Mo2_3 Mo2_5 2.817586 1_455
Mo2_3 Mo2_7 2.817587 1_555
Mo2_3 Mo2_7 2.817587 1_455
Mo2_4 Mo2_6 2.817587 1_545
Mo2_4 Mo2_6 2.817587 1_555
Mo2_5 Mo2_7 2.817587 1_545
Mo2_5 Mo2_7 2.817587 1_555
Mo3_0 Mo3_6 2.817586 1_555
Mo3_0 Mo3_6 2.817586 1_445
Mo3_0 Mo3_4 2.817587 1_555
Mo3_0 Mo3_2 2.817587 1_545
Mo3_0 Mo3_4 2.817587 1_455
Mo3_0 Mo3_2 2.817587 1_555
Mo3_1 Mo3_7 2.817586 1_555
Mo3_1 Mo3_7 2.817586 1_445
Mo3_1 Mo3_5 2.817587 1_555
Mo3_1 Mo3_3 2.817587 1_545
Mo3_1 Mo3_3 2.817587 1_555
Mo3_1 Mo3_5 2.817587 1_455
Mo3_2 Mo3_4 2.817586 1_565
Mo3_2 Mo3_4 2.817586 1_455
Mo3_2 Mo3_6 2.817587 1_555
Mo3_2 Mo3_6 2.817587 1_455
Mo3_3 Mo3_5 2.817586 1_565
Mo3_3 Mo3_5 2.817586 1_455
Mo3_3 Mo3_7 2.817587 1_555
Mo3_3 Mo3_7 2.817587 1_455
Mo3_4 Mo3_6 2.817587 1_555
Mo3_4 Mo3_6 2.817587 1_545
Mo3_5 Mo3_7 2.817587 1_555
Mo3_5 Mo3_7 2.817587 1_545
