# generated using pymatgen
data_S2N(O2F)2
_symmetry_space_group_name_H-M   'P 1'
_cell_length_a   5.50256329
_cell_length_b   7.12093958
_cell_length_c   8.24463100
_cell_angle_alpha   90.00000000
_cell_angle_beta   90.00000000
_cell_angle_gamma   98.60699376
_symmetry_Int_Tables_number   1
_chemical_formula_structural   S2N(O2F)2
_chemical_formula_sum   'S4 N2 O8 F4'
_cell_volume   319.41466286
_cell_formula_units_Z   2
loop_
 _symmetry_equiv_pos_site_id
 _symmetry_equiv_pos_as_xyz
  1  'x, y, z'
loop_
 _atom_site_type_symbol
 _atom_site_label
 _atom_site_symmetry_multiplicity
 _atom_site_fract_x
 _atom_site_fract_y
 _atom_site_fract_z
 _atom_site_occupancy
  S  S0  1  0.80976400  0.10624400  0.97835300  1
  S  S1  1  0.19023600  0.89375600  0.47835300  1
  S  S2  1  0.72436200  0.35619300  0.24502000  1
  S  S3  1  0.27563800  0.64380700  0.74502000  1
  N  N0  1  0.66472000  0.26677300  0.05837000  1
  N  N1  1  0.33528000  0.73322700  0.55837000  1
  O  O0  1  0.06459600  0.19089100  0.98939100  1
  O  O1  1  0.93540400  0.80910900  0.48939100  1
  O  O2  1  0.69770900  0.04298100  0.82930700  1
  O  O3  1  0.30229100  0.95701900  0.32930700  1
  O  O4  1  0.50978900  0.43135000  0.29292300  1
  O  O5  1  0.49021100  0.56865000  0.79292300  1
  O  O6  1  0.85376300  0.24627100  0.34929300  1
  O  O7  1  0.14623700  0.75372900  0.84929300  1
  F  F0  1  0.77183000  0.93102800  0.09791800  1
  F  F1  1  0.22817000  0.06897200  0.59791800  1
  F  F2  1  0.91824400  0.52926900  0.18242500  1
  F  F3  1  0.08175600  0.47073100  0.68242500  1
loop_
_geom_bond_atom_site_label_1
_geom_bond_atom_site_label_2
_geom_bond_distance
_geom_bond_site_symmetry_2
N0 S0 1.628495 1_554
N0 S2 1.678900 1_555
N1 S1 1.628495 1_555
N1 S3 1.678900 1_555
O0 S0 1.443909 1_455
O1 S1 1.443909 1_655
O2 S0 1.417747 1_555
O3 S1 1.417747 1_555
O4 S2 1.423235 1_555
O5 S3 1.423235 1_555
O6 S2 1.423230 1_555
O7 S3 1.423230 1_555
F0 S0 1.579278 1_564
F1 S1 1.579278 1_545
F2 S2 1.590570 1_555
F3 S3 1.590570 1_555
