# generated using pymatgen
data_V(PO3)3
_symmetry_space_group_name_H-M   'P 1'
_cell_length_a   11.62958045
_cell_length_b   11.62958045
_cell_length_c   9.44441852
_cell_angle_alpha   69.93189844
_cell_angle_beta   69.93189844
_cell_angle_gamma   110.81457162
_symmetry_Int_Tables_number   1
_chemical_formula_structural   V(PO3)3
_chemical_formula_sum   'V6 P18 O54'
_cell_volume   951.21754849
_cell_formula_units_Z   6
loop_
 _symmetry_equiv_pos_site_id
 _symmetry_equiv_pos_as_xyz
  1  'x, y, z'
loop_
 _atom_site_type_symbol
 _atom_site_label
 _atom_site_symmetry_multiplicity
 _atom_site_fract_x
 _atom_site_fract_y
 _atom_site_fract_z
 _atom_site_occupancy
  V  V0  1  0.17090497  0.33070323  0.49966731  1
  V  V1  1  0.33070323  0.17090497  0.99966731  1
  V  V2  1  0.84216541  0.66573369  0.49643741  1
  V  V3  1  0.66573369  0.84216541  0.99643741  1
  V  V4  1  0.47687931  0.98688165  0.53255435  1
  V  V5  1  0.98688165  0.47687931  0.03255435  1
  P  P0  1  0.83146515  0.12116453  0.28922893  1
  P  P1  1  0.12116453  0.83146515  0.78922893  1
  P  P2  1  0.53498174  0.49592346  0.22626522  1
  P  P3  1  0.49592346  0.53498174  0.72626522  1
  P  P4  1  0.18953163  0.81657983  0.24540128  1
  P  P5  1  0.81657983  0.18953163  0.74540128  1
  P  P6  1  0.80057798  0.40550041  0.84591750  1
  P  P7  1  0.40550041  0.80057798  0.34591750  1
  P  P8  1  0.46139567  0.73513237  0.84570179  1
  P  P9  1  0.73513237  0.46139567  0.34570179  1
  P  P10  1  0.14736427  0.08529296  0.81824206  1
  P  P11  1  0.08529296  0.14736427  0.31824206  1
  P  P12  1  0.18229722  0.57487607  0.19704051  1
  P  P13  1  0.57487607  0.18229722  0.69704051  1
  P  P14  1  0.51634243  0.24324296  0.19115050  1
  P  P15  1  0.24324296  0.51634243  0.69115050  1
  P  P16  1  0.86990789  0.92383140  0.16156719  1
  P  P17  1  0.92383140  0.86990789  0.66156719  1
  O  O0  1  0.38511889  0.42326375  0.37669578  1
  O  O1  1  0.42326375  0.38511889  0.87669578  1
  O  O2  1  0.95733924  0.22434582  0.61198961  1
  O  O3  1  0.22434582  0.95733924  0.11198961  1
  O  O4  1  0.14922149  0.14755244  0.64981407  1
  O  O5  1  0.14755244  0.14922149  0.14981407  1
  O  O6  1  0.17096731  0.27921047  0.31412225  1
  O  O7  1  0.27921047  0.17096731  0.81412225  1
  O  O8  1  0.18596833  0.51314236  0.36154136  1
  O  O9  1  0.51314236  0.18596833  0.86154136  1
  O  O10  1  0.16818003  0.38827570  0.68262937  1
  O  O11  1  0.38827570  0.16818003  0.18262937  1
  O  O12  1  0.63903331  0.59815192  0.56901546  1
  O  O13  1  0.59815192  0.63903331  0.06901546  1
  O  O14  1  0.04726350  0.72258238  0.41748638  1
  O  O15  1  0.72258238  0.04726350  0.91748638  1
  O  O16  1  0.76627959  0.48260315  0.72118332  1
  O  O17  1  0.48260315  0.76627959  0.22118332  1
  O  O18  1  0.84123842  0.57079498  0.35618485  1
  O  O19  1  0.57079498  0.84123842  0.85618485  1
  O  O20  1  0.91090388  0.84970159  0.27909593  1
  O  O21  1  0.84970159  0.91090388  0.77909593  1
  O  O22  1  0.83338883  0.76274803  0.63390717  1
  O  O23  1  0.76274803  0.83338883  0.13390717  1
  O  O24  1  0.26688839  0.91375675  0.62601889  1
  O  O25  1  0.91375675  0.26688839  0.12601889  1
  O  O26  1  0.68821554  0.07033592  0.43548063  1
  O  O27  1  0.07033592  0.68821554  0.93548063  1
  O  O28  1  0.49455413  0.91365011  0.36773005  1
  O  O29  1  0.91365011  0.49455413  0.86773005  1
  O  O30  1  0.41967190  0.79550785  0.71972312  1
  O  O31  1  0.79550785  0.41967190  0.21972312  1
  O  O32  1  0.48149060  0.05309724  0.70215945  1
  O  O33  1  0.05309724  0.48149060  0.20215945  1
  O  O34  1  0.51295725  0.17178528  0.35800636  1
  O  O35  1  0.17178528  0.51295725  0.85800636  1
  O  O36  1  0.85305194  0.31420206  0.78444991  1
  O  O37  1  0.31420206  0.85305194  0.28444991  1
  O  O38  1  0.27988106  0.65779552  0.53259112  1
  O  O39  1  0.65779552  0.27988106  0.03259112  1
  O  O40  1  0.51543234  0.63876724  0.80039894  1
  O  O41  1  0.63876724  0.51543234  0.30039894  1
  O  O42  1  0.61392302  0.32258214  0.53671909  1
  O  O43  1  0.32258214  0.61392302  0.03671909  1
  O  O44  1  0.10820496  0.92402838  0.87755414  1
  O  O45  1  0.92402838  0.10820496  0.37755414  1
  O  O46  1  0.05594907  0.00975791  0.47458557  1
  O  O47  1  0.00975791  0.05594907  0.97458557  1
  O  O48  1  0.20728288  0.73056319  0.14809407  1
  O  O49  1  0.73056319  0.20728288  0.64809407  1
  O  O50  1  0.55258373  0.40134775  0.14438243  1
  O  O51  1  0.40134775  0.55258373  0.64438243  1
  O  O52  1  0.80790718  0.00548003  0.23356861  1
  O  O53  1  0.00548003  0.80790718  0.73356861  1
loop_
_geom_bond_atom_site_label_1
_geom_bond_atom_site_label_2
_geom_bond_distance
_geom_bond_site_symmetry_2
O0 P2 1.483304 1_555
O0 V0 1.991071 1_555
O1 P3 1.483304 1_555
O1 V1 1.991071 1_555
O2 P5 1.481412 1_555
O2 V0 1.982931 1_655
O3 P4 1.481412 1_555
O3 V1 1.982931 1_564
O4 P10 1.493301 1_555
O4 V0 1.977692 1_555
O5 P11 1.493301 1_555
O5 V1 1.977692 1_554
O6 P11 1.480543 1_555
O6 V0 2.036908 1_555
O7 P10 1.480543 1_555
O7 V1 2.036908 1_555
O8 P12 1.494259 1_555
O8 V0 1.978280 1_555
O9 P13 1.494259 1_555
O9 V1 1.978280 1_555
O10 P15 1.480943 1_555
O10 V0 2.051014 1_555
O11 P14 1.480943 1_555
O11 V1 2.051014 1_554
O12 P3 1.483668 1_555
O12 V2 1.966649 1_555
O13 P2 1.483668 1_555
O13 V3 1.966649 1_554
O14 P4 1.491242 1_555
O14 V2 2.000679 1_455
O15 P5 1.491242 1_555
O15 V3 2.000679 1_545
O16 P6 1.484131 1_555
O16 V2 2.023945 1_555
O17 P7 1.484131 1_555
O17 V3 2.023945 1_554
O18 P9 1.485159 1_555
O18 V2 1.994676 1_555
O19 P8 1.485159 1_555
O19 V3 1.994676 1_555
O20 P16 1.483636 1_555
O20 V2 2.018504 1_555
O21 P17 1.483636 1_555
O21 V3 2.018504 1_555
O22 P17 1.485948 1_555
O22 V2 1.991265 1_555
O23 P16 1.485948 1_555
O23 V3 1.991265 1_554
O24 P1 1.485316 1_555
O24 V4 1.998939 1_555
O25 P0 1.485316 1_555
O25 V5 1.998939 1_555
O26 P0 1.480969 1_555
O26 V4 1.992680 1_545
O27 P1 1.480969 1_555
O27 V5 1.992680 1_456
O28 P7 1.486156 1_555
O28 V4 2.001356 1_555
O29 P6 1.486156 1_555
O29 V5 2.001356 1_556
O30 P8 1.486298 1_555
O30 V4 1.990312 1_555
O31 P9 1.486298 1_555
O31 V5 1.990312 1_555
O32 P13 1.481163 1_555
O32 V4 2.009433 1_545
O33 P12 1.481163 1_555
O33 V5 2.009433 1_455
O34 P14 1.486917 1_555
O34 V4 1.992234 1_545
O35 P15 1.486917 1_555
O35 V5 1.992234 1_456
O36 P5 1.566930 1_555
O36 P6 1.573887 1_555
O37 P4 1.566930 1_555
O37 P7 1.573887 1_555
O38 P7 1.580854 1_555
O38 P15 1.582273 1_555
O39 P6 1.580854 1_554
O39 P14 1.582273 1_555
O40 P8 1.574476 1_555
O40 P3 1.578872 1_555
O41 P9 1.574476 1_555
O41 P2 1.578872 1_555
O42 P13 1.570617 1_555
O42 P9 1.576891 1_555
O43 P12 1.570617 1_555
O43 P8 1.576891 1_554
O44 P1 1.588282 1_555
O44 P10 1.592301 1_565
O45 P0 1.588282 1_555
O45 P11 1.592301 1_655
O46 P11 1.581813 1_555
O46 P17 1.585988 1_445
O47 P10 1.581813 1_555
O47 P16 1.585988 1_446
O48 P4 1.592275 1_555
O48 P12 1.592431 1_555
O49 P5 1.592275 1_555
O49 P13 1.592431 1_555
O50 P2 1.576317 1_555
O50 P14 1.586713 1_555
O51 P3 1.576317 1_555
O51 P15 1.586713 1_555
O52 P16 1.573898 1_545
O52 P0 1.575955 1_555
O53 P17 1.573898 1_455
O53 P1 1.575955 1_555
