# generated using pymatgen
data_Nd2Co3
_symmetry_space_group_name_H-M   'P 1'
_cell_length_a   4.82755015
_cell_length_b   5.64696331
_cell_length_c   7.86100406
_cell_angle_alpha   90.00745958
_cell_angle_beta   89.99930919
_cell_angle_gamma   115.30286256
_symmetry_Int_Tables_number   1
_chemical_formula_structural   Nd2Co3
_chemical_formula_sum   'Nd4 Co6'
_cell_volume   193.73924634
_cell_formula_units_Z   2
loop_
 _symmetry_equiv_pos_site_id
 _symmetry_equiv_pos_as_xyz
  1  'x, y, z'
loop_
 _atom_site_type_symbol
 _atom_site_label
 _atom_site_symmetry_multiplicity
 _atom_site_fract_x
 _atom_site_fract_y
 _atom_site_fract_z
 _atom_site_occupancy
  Nd  Nd0  1  0.34224384  0.68460506  0.90914767  1
  Nd  Nd1  1  0.65775778  0.31534543  0.09091562  1
  Nd  Nd2  1  0.15773413  0.31531583  0.40920318  1
  Nd  Nd3  1  0.84224278  0.68465049  0.59073906  1
  Co  Co0  1  0.50003754  0.00004441  0.50000346  1
  Co  Co1  1  0.00000560  0.00003740  -0.00000453  1
  Co  Co2  1  0.81980873  0.13960109  0.74995466  1
  Co  Co3  1  0.68020148  0.86038738  0.24990748  1
  Co  Co4  1  0.18017182  0.86039757  0.25004326  1
  Co  Co5  1  0.31979731  0.13961333  0.75009213  1
loop_
_geom_bond_atom_site_label_1
_geom_bond_atom_site_label_2
_geom_bond_distance
_geom_bond_site_symmetry_2
Co0 Co2 2.413412 1_555
Co0 Co4 2.413725 1_545
Co0 Co5 2.414329 1_555
Co0 Co3 2.414431 1_545
Co0 Nd2 2.987462 1_555
Co0 Nd3 2.987533 1_545
Co0 Nd2 2.988048 1_655
Co0 Nd3 2.988407 1_445
Co1 Co5 2.413298 1_554
Co1 Co3 2.413405 1_445
Co1 Co2 2.414088 1_454
Co1 Co4 2.414265 1_545
Co1 Nd1 2.987522 1_455
Co1 Nd0 2.987933 1_544
Co1 Nd1 2.988427 1_555
Co1 Nd0 2.988428 1_444
Co2 Co5 2.413691 1_655
Co2 Co5 2.413860 1_555
Co2 Nd3 2.900937 1_545
Co2 Nd0 2.901733 1_545
Co2 Nd2 3.072122 1_655
Co2 Nd1 3.073077 1_556
Co2 Nd0 3.280661 1_655
Co2 Nd3 3.281400 1_555
Co3 Co4 2.413608 1_655
Co3 Co4 2.413943 1_555
Co3 Nd1 2.900526 1_565
Co3 Nd2 2.901543 1_665
Co3 Nd0 3.072086 1_554
Co3 Nd3 3.072396 1_555
Co3 Nd1 3.280369 1_555
Co3 Nd2 3.281541 1_555
Co4 Nd2 2.900591 1_565
Co4 Nd1 2.901405 1_565
Co4 Nd3 3.071765 1_455
Co4 Nd0 3.072787 1_554
Co4 Nd1 3.280593 1_455
Co4 Nd2 3.281395 1_555
Co5 Nd0 2.901003 1_545
Co5 Nd3 2.901888 1_445
Co5 Nd1 3.072501 1_556
Co5 Nd2 3.072747 1_555
Co5 Nd0 3.280293 1_555
Co5 Nd3 3.281556 1_555
