# generated using pymatgen
data_Nd2FeSi2Ru
_symmetry_space_group_name_H-M   'P 1'
_cell_length_a   4.16557000
_cell_length_b   4.16557000
_cell_length_c   6.95224900
_cell_angle_alpha   90.00000000
_cell_angle_beta   90.00000000
_cell_angle_gamma   90.00000000
_symmetry_Int_Tables_number   1
_chemical_formula_structural   Nd2FeSi2Ru
_chemical_formula_sum   'Nd2 Fe1 Si2 Ru1'
_cell_volume   120.63523989
_cell_formula_units_Z   1
loop_
 _symmetry_equiv_pos_site_id
 _symmetry_equiv_pos_as_xyz
  1  'x, y, z'
loop_
 _atom_site_type_symbol
 _atom_site_label
 _atom_site_symmetry_multiplicity
 _atom_site_fract_x
 _atom_site_fract_y
 _atom_site_fract_z
 _atom_site_occupancy
  Nd  Nd0  1  0.50000000  0.00000000  0.31820900  1
  Nd  Nd1  1  0.00000000  0.50000000  0.68179100  1
  Fe  Fe0  1  0.00000000  0.00000000  0.00000000  1
  Si  Si0  1  0.50000000  0.00000000  0.82912900  1
  Si  Si1  1  0.00000000  0.50000000  0.17087100  1
  Ru  Ru0  1  0.50000000  0.50000000  0.00000000  1
loop_
_geom_bond_atom_site_label_1
_geom_bond_atom_site_label_2
_geom_bond_distance
_geom_bond_site_symmetry_2
Nd0 Ru0 3.038441 1_555
Nd0 Ru0 3.038441 1_545
Nd0 Si1 3.118532 1_555
Nd0 Si1 3.118532 1_655
Nd0 Si1 3.118532 1_645
Nd0 Si1 3.118532 1_545
Nd0 Si0 3.552043 1_555
Nd1 Ru0 3.038441 1_556
Nd1 Ru0 3.038441 1_456
Nd1 Si0 3.118532 1_465
Nd1 Si0 3.118532 1_565
Nd1 Si0 3.118532 1_555
Nd1 Si0 3.118532 1_455
Nd1 Si1 3.552043 1_555
Fe0 Si1 2.397747 1_545
Fe0 Si1 2.397747 1_555
Fe0 Si0 2.397747 1_554
Fe0 Si0 2.397747 1_454
Fe0 Ru0 2.945503 1_445
Fe0 Ru0 2.945503 1_555
Fe0 Ru0 2.945503 1_455
Fe0 Ru0 2.945503 1_545
Fe0 Nd0 3.038441 1_455
Fe0 Nd0 3.038441 1_555
Fe0 Nd1 3.038441 1_554
Fe0 Nd1 3.038441 1_544
Ru0 Si0 2.397747 1_564
Ru0 Si1 2.397747 1_655
Ru0 Si1 2.397747 1_555
Ru0 Si0 2.397747 1_554
