# generated using pymatgen
data_Sr2La2MnZnO8
_symmetry_space_group_name_H-M   'P 1'
_cell_length_a   3.90164770
_cell_length_b   15.57714247
_cell_length_c   6.92097221
_cell_angle_alpha   106.65736036
_cell_angle_beta   106.32711024
_cell_angle_gamma   89.95764597
_symmetry_Int_Tables_number   1
_chemical_formula_structural   Sr2La2MnZnO8
_chemical_formula_sum   'Sr4 La4 Mn2 Zn2 O16'
_cell_volume   385.26889804
_cell_formula_units_Z   2
loop_
 _symmetry_equiv_pos_site_id
 _symmetry_equiv_pos_as_xyz
  1  'x, y, z'
loop_
 _atom_site_type_symbol
 _atom_site_label
 _atom_site_symmetry_multiplicity
 _atom_site_fract_x
 _atom_site_fract_y
 _atom_site_fract_z
 _atom_site_occupancy
  Sr  Sr0  1  0.36016900  0.59073900  0.71519400  1
  Sr  Sr1  1  0.35648800  0.83757600  0.71265800  1
  Sr  Sr2  1  0.64325500  0.41250400  0.28736000  1
  Sr  Sr3  1  0.63960500  0.65908100  0.28455800  1
  La  La0  1  0.35603800  0.08839700  0.72200500  1
  La  La1  1  0.36430800  0.33965500  0.72380700  1
  La  La2  1  0.64375200  0.16154900  0.27796100  1
  La  La3  1  0.63567700  0.91045000  0.27647700  1
  Mn  Mn0  1  0.00168800  0.50198900  0.00171600  1
  Mn  Mn1  1  0.99824000  0.74795700  0.99813300  1
  Zn  Zn0  1  0.99275800  0.99685400  0.99035800  1
  Zn  Zn1  1  0.00737800  0.25315400  0.01005100  1
  O  O0  1  0.17223300  0.04336400  0.36092800  1
  O  O1  1  0.18330600  0.28714700  0.35968700  1
  O  O2  1  0.16191800  0.54006800  0.31498500  1
  O  O3  1  0.15882900  0.79572300  0.31795700  1
  O  O4  1  0.50222500  0.00019300  0.00959600  1
  O  O5  1  0.49767100  0.24981800  0.99032900  1
  O  O6  1  0.49772400  0.49857500  0.99298800  1
  O  O7  1  0.50257300  0.75147200  0.00722700  1
  O  O8  1  0.82780100  0.20644000  0.63877800  1
  O  O9  1  0.84110500  0.45452500  0.68222500  1
  O  O10  1  0.83838100  0.70974300  0.68478900  1
  O  O11  1  0.81674900  0.96286100  0.64032100  1
  O  O12  1  0.99997600  0.12507500  0.00008100  1
  O  O13  1  0.99745000  0.37954900  0.99588500  1
  O  O14  1  0.00035300  0.62506100  0.00032700  1
  O  O15  1  0.00235300  0.87048200  0.00361700  1
loop_
_geom_bond_atom_site_label_1
_geom_bond_atom_site_label_2
_geom_bond_distance
_geom_bond_site_symmetry_2
La0 O0 2.289001 1_555
La0 O5 2.612412 1_555
La0 O12 2.613806 1_456
La0 O12 2.644945 1_556
La0 O4 2.665183 1_556
La0 O11 2.697101 1_445
La0 O11 2.703155 1_545
La0 O8 2.809753 1_455
La0 O8 2.882568 1_555
La1 O1 2.310196 1_555
La1 O5 2.563346 1_555
La1 O6 2.585073 1_555
La1 O13 2.598161 1_555
La1 O13 2.612285 1_455
La1 O9 2.710429 1_555
La1 O9 2.722356 1_455
La1 O8 2.765478 1_455
La1 O8 2.795596 1_555
La2 O8 2.287375 1_555
La2 O4 2.611745 1_555
La2 O12 2.613135 1_555
La2 O12 2.643909 1_455
La2 O5 2.666157 1_554
La2 O1 2.698427 1_655
La2 O1 2.703103 1_555
La2 O0 2.811637 1_655
La2 O0 2.882435 1_555
La3 O11 2.308407 1_555
La3 O4 2.564280 1_565
La3 O7 2.585939 1_555
La3 O15 2.600837 1_555
La3 O15 2.616155 1_655
La3 O3 2.708688 1_555
La3 O3 2.720624 1_655
La3 O0 2.763241 1_665
La3 O0 2.791549 1_565
Mn0 O13 1.896077 1_454
Mn0 O14 1.919884 1_555
Mn0 O6 1.950463 1_454
Mn0 O6 1.953413 1_554
Mn0 O2 1.986107 1_555
Mn0 O9 2.028067 1_454
Mn1 O15 1.898048 1_656
Mn1 O14 1.918770 1_656
Mn1 O7 1.951274 1_656
Mn1 O7 1.952768 1_556
Mn1 O10 1.986544 1_555
Mn1 O3 2.030388 1_656
O0 Zn0 2.349192 1_444
O1 Zn1 2.222422 1_555
O1 Sr2 2.890449 1_555
O1 Sr2 2.909419 1_455
O2 Sr0 2.536976 1_555
O2 Sr3 2.721110 1_555
O2 Sr2 2.736882 1_555
O2 Sr3 2.758828 1_455
O2 Sr2 2.766004 1_455
O3 Sr1 2.505458 1_555
O3 Sr3 2.838737 1_555
O3 Sr3 2.854631 1_455
O4 Zn0 1.954227 1_444
O4 Zn0 1.955135 1_544
O4 Sr1 2.706299 1_544
O5 Zn1 1.954409 1_656
O5 Zn1 1.955327 1_556
O5 Sr2 2.707351 1_556
O6 Sr0 2.654555 1_555
O6 Sr3 2.666683 1_556
O6 Sr2 2.680521 1_556
O7 Sr3 2.654572 1_555
O7 Sr0 2.670600 1_554
O7 Sr1 2.682036 1_554
O8 Zn1 2.353650 1_656
O9 Sr2 2.506378 1_555
O9 Sr0 2.834171 1_555
O9 Sr0 2.850375 1_655
O10 Sr3 2.537113 1_555
O10 Sr0 2.722390 1_555
O10 Sr1 2.741461 1_555
O10 Sr0 2.757253 1_655
O10 Sr1 2.766814 1_655
O11 Zn0 2.225014 1_555
O11 Sr1 2.890489 1_555
O11 Sr1 2.907801 1_655
O12 Zn1 1.976381 1_655
O12 Zn0 1.979030 1_544
O13 Zn1 1.998997 1_656
O13 Sr2 2.686155 1_556
O13 Sr2 2.689286 1_656
O14 Sr3 2.648963 1_555
O14 Sr0 2.654200 1_454
O14 Sr3 2.662632 1_455
O14 Sr0 2.665084 1_554
O15 Zn0 1.996595 1_454
O15 Sr1 2.683001 1_554
O15 Sr1 2.687933 1_454
