# generated using pymatgen
data_H2W2O7
_symmetry_space_group_name_H-M   'P 1'
_cell_length_a   7.06331199
_cell_length_b   7.06331199
_cell_length_c   7.06331199
_cell_angle_alpha   118.12292090
_cell_angle_beta   118.12292090
_cell_angle_gamma   93.28315618
_symmetry_Int_Tables_number   1
_chemical_formula_structural   H2W2O7
_chemical_formula_sum   'H4 W4 O14'
_cell_volume   255.79369832
_cell_formula_units_Z   2
loop_
 _symmetry_equiv_pos_site_id
 _symmetry_equiv_pos_as_xyz
  1  'x, y, z'
loop_
 _atom_site_type_symbol
 _atom_site_label
 _atom_site_symmetry_multiplicity
 _atom_site_fract_x
 _atom_site_fract_y
 _atom_site_fract_z
 _atom_site_occupancy
  H  H0  1  0.33407200  0.33407200  0.00000000  1
  H  H1  1  0.66592800  0.66592800  0.00000000  1
  H  H2  1  0.41592800  0.91592800  0.50000000  1
  H  H3  1  0.08407200  0.58407200  0.50000000  1
  W  W0  1  0.87500000  0.12500000  0.25000000  1
  W  W1  1  0.87500000  0.62500000  0.75000000  1
  W  W2  1  0.87500000  0.12500000  0.75000000  1
  W  W3  1  0.37500000  0.12500000  0.25000000  1
  O  O0  1  0.23329700  0.23329700  0.00000000  1
  O  O1  1  0.76670300  0.76670300  0.00000000  1
  O  O2  1  0.21804400  0.78195600  0.00000000  1
  O  O3  1  0.78195600  0.21804400  0.00000000  1
  O  O4  1  0.21804400  0.21804400  0.43608800  1
  O  O5  1  0.78195600  0.78195600  0.56391200  1
  O  O6  1  0.51670300  0.01670300  0.50000000  1
  O  O7  1  0.98329700  0.48329700  0.50000000  1
  O  O8  1  0.53195600  0.46804400  0.50000000  1
  O  O9  1  0.96804400  0.03195600  0.50000000  1
  O  O10  1  0.53195600  0.03195600  0.06391200  1
  O  O11  1  0.96804400  0.46804400  0.93608800  1
  O  O12  1  0.00000000  0.00000000  0.00000000  1
  O  O13  1  0.75000000  0.25000000  0.50000000  1
loop_
_geom_bond_atom_site_label_1
_geom_bond_atom_site_label_2
_geom_bond_distance
_geom_bond_site_symmetry_2
H0 O0 0.977394 1_555
H1 O1 0.977394 1_555
H2 O6 0.977394 1_565
H3 O7 0.977394 1_455
O0 W3 2.097608 1_555
O0 W2 2.097608 1_454
O1 W1 2.097608 1_554
O1 W0 2.097608 1_565
O2 W3 2.007845 1_565
O2 W1 2.007845 1_454
O3 W2 2.007845 1_554
O3 W0 2.007845 1_555
O4 W0 2.007845 1_455
O4 W3 2.007845 1_555
O5 W2 2.007845 1_565
O5 W1 2.007845 1_555
O6 W3 2.097608 1_555
O6 W2 2.097608 1_555
O7 W0 2.097608 1_555
O7 W1 2.097608 1_555
O8 W3 2.007845 1_555
O8 W1 2.007845 1_555
O9 W2 2.007845 1_555
O9 W0 2.007845 1_555
O10 W3 2.007845 1_555
O10 W0 2.007845 1_555
O11 W2 2.007845 1_555
O11 W1 2.007845 1_555
O12 W1 2.183234 1_444
O12 W2 2.183234 1_454
O12 W3 2.183234 1_555
O12 W0 2.183234 1_455
O13 W0 2.183234 1_555
O13 W3 2.183234 1_555
O13 W1 2.183234 1_555
O13 W2 2.183234 1_555
