# generated using pymatgen
data_Ca3UO6
_symmetry_space_group_name_H-M   'P 1'
_cell_length_a   6.73993896
_cell_length_b   6.73993802
_cell_length_c   6.73993772
_cell_angle_alpha   91.34315377
_cell_angle_beta   91.34314532
_cell_angle_gamma   91.34315104
_symmetry_Int_Tables_number   1
_chemical_formula_structural   Ca3UO6
_chemical_formula_sum   'Ca6 U2 O12'
_cell_volume   305.91721739
_cell_formula_units_Z   2
loop_
 _symmetry_equiv_pos_site_id
 _symmetry_equiv_pos_as_xyz
  1  'x, y, z'
loop_
 _atom_site_type_symbol
 _atom_site_label
 _atom_site_symmetry_multiplicity
 _atom_site_fract_x
 _atom_site_fract_y
 _atom_site_fract_z
 _atom_site_occupancy
  Ca  Ca0  1  0.06060058  0.55709558  0.25083112  1
  Ca  Ca1  1  0.25083112  0.06060058  0.55709558  1
  Ca  Ca2  1  0.44290442  0.74916888  0.93939942  1
  Ca  Ca3  1  0.74916888  0.93939942  0.44290442  1
  Ca  Ca4  1  0.93939942  0.44290442  0.74916888  1
  Ca  Ca5  1  0.55709558  0.25083112  0.06060058  1
  U  U0  1  -0.00000000  0.00000000  -0.00000000  1
  U  U1  1  0.50000000  0.50000000  0.50000000  1
  O  O0  1  0.70688341  0.93519444  0.07514417  1
  O  O1  1  0.93519444  0.07514417  0.70688341  1
  O  O2  1  0.07514417  0.70688341  0.93519444  1
  O  O3  1  0.29311659  0.06480556  0.92485583  1
  O  O4  1  0.06480556  0.92485583  0.29311659  1
  O  O5  1  0.92485583  0.29311659  0.06480556  1
  O  O6  1  0.79409912  0.58728904  0.45886436  1
  O  O7  1  0.58728904  0.45886436  0.79409912  1
  O  O8  1  0.54113564  0.20590088  0.41271096  1
  O  O9  1  0.41271096  0.54113564  0.20590088  1
  O  O10  1  0.20590088  0.41271096  0.54113564  1
  O  O11  1  0.45886436  0.79409912  0.58728904  1
loop_
_geom_bond_atom_site_label_1
_geom_bond_atom_site_label_2
_geom_bond_distance
_geom_bond_site_symmetry_2
Ca0 O5 2.310837 1_455
Ca0 O6 2.314208 1_455
Ca0 O2 2.379150 1_554
Ca0 O10 2.403871 1_555
Ca0 O9 2.404059 1_555
Ca0 O4 2.487790 1_555
Ca1 O4 2.310837 1_545
Ca1 O11 2.314208 1_545
Ca1 O1 2.379150 1_455
Ca1 O8 2.403871 1_555
Ca1 O10 2.404058 1_555
Ca1 O3 2.487790 1_555
Ca2 O0 2.310838 1_556
Ca2 O9 2.314208 1_556
Ca2 O3 2.379150 1_565
Ca2 O7 2.403871 1_555
Ca2 O11 2.404058 1_555
Ca2 O2 2.487791 1_555
Ca3 O1 2.310837 1_565
Ca3 O8 2.314208 1_565
Ca3 O4 2.379150 1_655
Ca3 O11 2.403871 1_555
Ca3 O6 2.404058 1_555
Ca3 O0 2.487790 1_555
Ca4 O2 2.310837 1_655
Ca4 O10 2.314208 1_655
Ca4 O5 2.379150 1_556
Ca4 O6 2.403871 1_555
Ca4 O7 2.404059 1_555
Ca4 O1 2.487790 1_555
Ca5 O3 2.310838 1_554
Ca5 O7 2.314208 1_554
Ca5 O0 2.379150 1_545
Ca5 O9 2.403871 1_555
Ca5 O8 2.404058 1_555
Ca5 O5 2.487791 1_555
O0 U0 2.089752 1_665
O1 U0 2.089752 1_656
O2 U0 2.089752 1_566
O3 U0 2.089752 1_556
O4 U0 2.089752 1_565
O5 U0 2.089752 1_655
O6 U1 2.081079 1_555
O7 U1 2.081079 1_555
O8 U1 2.081079 1_555
O9 U1 2.081079 1_555
O10 U1 2.081079 1_555
O11 U1 2.081079 1_555
