# generated using pymatgen
data_Co2Ge
_symmetry_space_group_name_H-M   'P 1'
_cell_length_a   4.00527980
_cell_length_b   4.00527980
_cell_length_c   5.01504900
_cell_angle_alpha   90.00000000
_cell_angle_beta   90.00000000
_cell_angle_gamma   119.99999672
_symmetry_Int_Tables_number   1
_chemical_formula_structural   Co2Ge
_chemical_formula_sum   'Co4 Ge2'
_cell_volume   69.67412891
_cell_formula_units_Z   2
loop_
 _symmetry_equiv_pos_site_id
 _symmetry_equiv_pos_as_xyz
  1  'x, y, z'
loop_
 _atom_site_type_symbol
 _atom_site_label
 _atom_site_symmetry_multiplicity
 _atom_site_fract_x
 _atom_site_fract_y
 _atom_site_fract_z
 _atom_site_occupancy
  Co  Co0  1  0.33333300  0.66666700  0.75000000  1
  Co  Co1  1  0.00000000  0.00000000  0.00000000  1
  Co  Co2  1  0.00000000  0.00000000  0.50000000  1
  Co  Co3  1  0.66666700  0.33333300  0.25000000  1
  Ge  Ge0  1  0.66666700  0.33333300  0.75000000  1
  Ge  Ge1  1  0.33333300  0.66666700  0.25000000  1
loop_
_geom_bond_atom_site_label_1
_geom_bond_atom_site_label_2
_geom_bond_distance
_geom_bond_site_symmetry_2
Co0 Ge0 2.312447 1_455
Co0 Ge0 2.312447 1_565
Co0 Ge0 2.312454 1_555
Co0 Ge1 2.507525 1_555
Co0 Ge1 2.507525 1_556
Co0 Co1 2.630462 1_566
Co0 Co2 2.630462 1_565
Co0 Co1 2.630465 1_666
Co0 Co2 2.630465 1_555
Co0 Co2 2.630465 1_665
Co0 Co1 2.630465 1_556
Co1 Co2 2.507525 1_555
Co1 Co2 2.507525 1_554
Co1 Ge0 2.630462 1_454
Co1 Co3 2.630462 1_455
Co1 Ge1 2.630462 1_545
Co1 Ge1 2.630465 1_445
Co1 Co3 2.630465 1_555
Co1 Ge0 2.630465 1_554
Co1 Ge1 2.630465 1_555
Co1 Ge0 2.630465 1_444
Co1 Co3 2.630465 1_445
Co2 Co3 2.630462 1_455
Co2 Ge1 2.630462 1_545
Co2 Ge0 2.630462 1_455
Co2 Ge1 2.630465 1_445
Co2 Co3 2.630465 1_555
Co2 Ge0 2.630465 1_445
Co2 Ge0 2.630465 1_555
Co2 Ge1 2.630465 1_555
Co2 Co3 2.630465 1_445
Co3 Ge1 2.312447 1_545
Co3 Ge1 2.312447 1_655
Co3 Ge1 2.312454 1_555
Co3 Ge0 2.507525 1_554
Co3 Ge0 2.507525 1_555
