# generated using pymatgen
data_Sr(Cd2Pt)2
_symmetry_space_group_name_H-M   'P 1'
_cell_length_a   8.28731679
_cell_length_b   8.28731679
_cell_length_c   4.49598236
_cell_angle_alpha   90.00000000
_cell_angle_beta   90.00000000
_cell_angle_gamma   90.00000000
_symmetry_Int_Tables_number   1
_chemical_formula_structural   Sr(Cd2Pt)2
_chemical_formula_sum   'Sr2 Cd8 Pt4'
_cell_volume   308.78235811
_cell_formula_units_Z   2
loop_
 _symmetry_equiv_pos_site_id
 _symmetry_equiv_pos_as_xyz
  1  'x, y, z'
loop_
 _atom_site_type_symbol
 _atom_site_label
 _atom_site_symmetry_multiplicity
 _atom_site_fract_x
 _atom_site_fract_y
 _atom_site_fract_z
 _atom_site_occupancy
  Sr  Sr0  1  0.50000000  0.50000000  0.50000000  1
  Sr  Sr1  1  -0.00000000  0.00000000  0.00000000  1
  Cd  Cd0  1  0.34294668  0.09206060  0.50000000  1
  Cd  Cd1  1  0.65705332  0.90793940  0.50000000  1
  Cd  Cd2  1  0.84294668  0.40793940  0.00000000  1
  Cd  Cd3  1  0.15705332  0.59206060  -0.00000000  1
  Cd  Cd4  1  0.09206060  0.34294668  0.50000000  1
  Cd  Cd5  1  0.90793940  0.65705332  0.50000000  1
  Cd  Cd6  1  0.40793940  0.84294668  -0.00000000  1
  Cd  Cd7  1  0.59206060  0.15705332  -0.00000000  1
  Pt  Pt0  1  0.78100680  0.21899320  0.50000000  1
  Pt  Pt1  1  0.21899320  0.78100680  0.50000000  1
  Pt  Pt2  1  0.28100680  0.28100680  0.00000000  1
  Pt  Pt3  1  0.71899320  0.71899320  0.00000000  1
loop_
_geom_bond_atom_site_label_1
_geom_bond_atom_site_label_2
_geom_bond_distance
_geom_bond_site_symmetry_2
Cd0 Pt1 2.774939 1_545
Cd0 Pt2 2.787268 1_556
Cd0 Pt2 2.787268 1_555
Cd0 Cd4 2.940394 1_555
Cd0 Cd1 3.017353 1_545
Cd0 Cd6 3.099302 1_546
Cd0 Cd6 3.099302 1_545
Cd0 Cd7 3.099302 1_555
Cd0 Cd7 3.099302 1_556
Cd0 Sr0 3.622613 1_555
Cd0 Sr1 3.703122 1_555
Cd0 Sr1 3.703122 1_556
Cd1 Pt0 2.774939 1_565
Cd1 Pt3 2.787268 1_555
Cd1 Pt3 2.787268 1_556
Cd1 Cd5 2.940394 1_555
Cd1 Cd6 3.099302 1_555
Cd1 Cd6 3.099302 1_556
Cd1 Cd7 3.099302 1_565
Cd1 Cd7 3.099302 1_566
Cd1 Sr0 3.622613 1_555
Cd1 Sr1 3.703122 1_666
Cd1 Sr1 3.703122 1_665
Cd2 Pt3 2.774939 1_555
Cd2 Pt0 2.787268 1_555
Cd2 Pt0 2.787268 1_554
Cd2 Cd7 2.940394 1_555
Cd2 Cd3 3.017353 1_655
Cd2 Cd4 3.099302 1_655
Cd2 Cd4 3.099302 1_654
Cd2 Cd5 3.099302 1_555
Cd2 Cd5 3.099302 1_554
Cd2 Sr1 3.622613 1_655
Cd2 Sr0 3.703122 1_554
Cd2 Sr0 3.703122 1_555
Cd3 Pt2 2.774939 1_555
Cd3 Pt1 2.787268 1_555
Cd3 Pt1 2.787268 1_554
Cd3 Cd6 2.940394 1_555
Cd3 Cd4 3.099302 1_554
Cd3 Cd4 3.099302 1_555
Cd3 Cd5 3.099302 1_454
Cd3 Cd5 3.099302 1_455
Cd3 Sr1 3.622613 1_565
Cd3 Sr0 3.703122 1_555
Cd3 Sr0 3.703122 1_554
Cd4 Pt0 2.774939 1_455
Cd4 Pt2 2.787268 1_556
Cd4 Pt2 2.787268 1_555
Cd4 Cd5 3.017353 1_455
Cd4 Sr0 3.622613 1_555
Cd4 Sr1 3.703122 1_555
Cd4 Sr1 3.703122 1_556
Cd5 Pt1 2.774939 1_655
Cd5 Pt3 2.787268 1_555
Cd5 Pt3 2.787268 1_556
Cd5 Sr0 3.622613 1_555
Cd5 Sr1 3.703122 1_666
Cd5 Sr1 3.703122 1_665
Cd6 Pt3 2.774939 1_555
Cd6 Pt1 2.787268 1_555
Cd6 Pt1 2.787268 1_554
Cd6 Cd7 3.017353 1_565
Cd6 Sr1 3.622613 1_565
Cd6 Sr0 3.703122 1_555
Cd6 Sr0 3.703122 1_554
Cd7 Pt2 2.774939 1_555
Cd7 Pt0 2.787268 1_555
Cd7 Pt0 2.787268 1_554
Cd7 Sr1 3.622613 1_655
Cd7 Sr0 3.703122 1_555
Cd7 Sr0 3.703122 1_554
Pt0 Sr0 3.293410 1_555
Pt0 Sr1 3.411882 1_655
Pt0 Sr1 3.411882 1_656
Pt1 Sr0 3.293410 1_555
Pt1 Sr1 3.411882 1_566
Pt1 Sr1 3.411882 1_565
Pt2 Sr1 3.293410 1_555
Pt2 Sr0 3.411882 1_555
Pt2 Sr0 3.411882 1_554
Pt3 Sr1 3.293410 1_665
Pt3 Sr0 3.411882 1_555
Pt3 Sr0 3.411882 1_554
