# generated using pymatgen
data_Te4MoW3S4
_symmetry_space_group_name_H-M   'P 1'
_cell_length_a   3.35655707
_cell_length_b   3.35655707
_cell_length_c   38.36234900
_cell_angle_alpha   90.00000000
_cell_angle_beta   90.00000000
_cell_angle_gamma   120.00002108
_symmetry_Int_Tables_number   1
_chemical_formula_structural   Te4MoW3S4
_chemical_formula_sum   'Te4 Mo1 W3 S4'
_cell_volume   374.30342638
_cell_formula_units_Z   1
loop_
 _symmetry_equiv_pos_site_id
 _symmetry_equiv_pos_as_xyz
  1  'x, y, z'
loop_
 _atom_site_type_symbol
 _atom_site_label
 _atom_site_symmetry_multiplicity
 _atom_site_fract_x
 _atom_site_fract_y
 _atom_site_fract_z
 _atom_site_occupancy
  Te  Te0  1  0.33333300  0.66666700  0.33108800  1
  Te  Te1  1  0.33333300  0.66666700  0.70714300  1
  Te  Te2  1  0.33333300  0.66666700  0.23251200  1
  Te  Te3  1  0.33333300  0.66666700  0.60793800  1
  Mo  Mo0  1  0.66666700  0.33333300  0.28179200  1
  W  W0  1  0.33333300  0.66666700  0.09391800  1
  W  W1  1  0.33333300  0.66666700  0.46965500  1
  W  W2  1  0.66666700  0.33333300  0.65754500  1
  S  S0  1  0.66666700  0.33333300  0.05431900  1
  S  S1  1  0.66666700  0.33333300  0.43005400  1
  S  S2  1  0.66666700  0.33333300  0.13353300  1
  S  S3  1  0.66666700  0.33333300  0.50925200  1
loop_
_geom_bond_atom_site_label_1
_geom_bond_atom_site_label_2
_geom_bond_distance
_geom_bond_site_symmetry_2
Te1 W2 2.715830 1_455
Te1 W2 2.715830 1_565
Te1 W2 2.715835 1_555
Te3 W2 2.716072 1_455
Te3 W2 2.716072 1_565
Te3 W2 2.716077 1_555
Mo0 Te2 2.707298 1_655
Mo0 Te2 2.707298 1_545
Mo0 Te2 2.707302 1_555
Mo0 Te0 2.707726 1_545
Mo0 Te0 2.707726 1_655
Mo0 Te0 2.707731 1_555
S0 W0 2.462353 1_545
S0 W0 2.462353 1_655
S0 W0 2.462358 1_555
S1 W1 2.462400 1_655
S1 W1 2.462400 1_545
S1 W1 2.462405 1_555
S2 W0 2.462731 1_545
S2 W0 2.462731 1_655
S2 W0 2.462736 1_555
S3 W1 2.462305 1_655
S3 W1 2.462305 1_545
S3 W1 2.462310 1_555
