# generated using pymatgen
data_ErCuSi
_symmetry_space_group_name_H-M   'P 1'
_cell_length_a   4.11342291
_cell_length_b   4.11342291
_cell_length_c   3.68280700
_cell_angle_alpha   90.00000000
_cell_angle_beta   90.00000000
_cell_angle_gamma   120.00001465
_symmetry_Int_Tables_number   1
_chemical_formula_structural   ErCuSi
_chemical_formula_sum   'Er1 Cu1 Si1'
_cell_volume   53.96550591
_cell_formula_units_Z   1
loop_
 _symmetry_equiv_pos_site_id
 _symmetry_equiv_pos_as_xyz
  1  'x, y, z'
loop_
 _atom_site_type_symbol
 _atom_site_label
 _atom_site_symmetry_multiplicity
 _atom_site_fract_x
 _atom_site_fract_y
 _atom_site_fract_z
 _atom_site_occupancy
  Er  Er0  1  0.66666700  0.33333300  0.00000000  1
  Cu  Cu0  1  0.00000000  0.00000000  0.50000000  1
  Si  Si0  1  0.33333300  0.66666700  0.50000000  1
loop_
_geom_bond_atom_site_label_1
_geom_bond_atom_site_label_2
_geom_bond_distance
_geom_bond_site_symmetry_2
Er0 Si0 3.005135 1_545
Er0 Si0 3.005135 1_544
Er0 Si0 3.005135 1_655
Er0 Si0 3.005135 1_654
Er0 Si0 3.005141 1_555
Er0 Si0 3.005141 1_554
Cu0 Si0 2.374884 1_545
Cu0 Si0 2.374887 1_555
Cu0 Si0 2.374887 1_445
Cu0 Er0 3.005135 1_456
Cu0 Er0 3.005135 1_455
Cu0 Er0 3.005138 1_445
Cu0 Er0 3.005138 1_556
Cu0 Er0 3.005138 1_555
Cu0 Er0 3.005138 1_446
