# generated using pymatgen
data_Rb5GaO4
_symmetry_space_group_name_H-M   'P 1'
_cell_length_a   6.94585495
_cell_length_b   11.78795240
_cell_length_c   21.37134880
_cell_angle_alpha   90.00000000
_cell_angle_beta   90.00000000
_cell_angle_gamma   90.00000000
_symmetry_Int_Tables_number   1
_chemical_formula_structural   Rb5GaO4
_chemical_formula_sum   'Rb40 Ga8 O32'
_cell_volume   1749.83063512
_cell_formula_units_Z   8
loop_
 _symmetry_equiv_pos_site_id
 _symmetry_equiv_pos_as_xyz
  1  'x, y, z'
loop_
 _atom_site_type_symbol
 _atom_site_label
 _atom_site_symmetry_multiplicity
 _atom_site_fract_x
 _atom_site_fract_y
 _atom_site_fract_z
 _atom_site_occupancy
  Rb  Rb0  1  0.57238580  0.29605887  0.36962464  1
  Rb  Rb1  1  0.07238580  0.70394113  0.13037536  1
  Rb  Rb2  1  0.42761420  0.20394113  0.86962464  1
  Rb  Rb3  1  0.92761420  0.79605887  0.63037536  1
  Rb  Rb4  1  0.42761420  0.70394113  0.63037536  1
  Rb  Rb5  1  0.92761420  0.29605887  0.86962464  1
  Rb  Rb6  1  0.57238580  0.79605887  0.13037536  1
  Rb  Rb7  1  0.07238580  0.20394113  0.36962464  1
  Rb  Rb8  1  0.57590534  0.36089288  0.00371291  1
  Rb  Rb9  1  0.07590534  0.63910712  0.49628709  1
  Rb  Rb10  1  0.42409466  0.13910712  0.50371291  1
  Rb  Rb11  1  0.92409466  0.86089288  0.99628709  1
  Rb  Rb12  1  0.42409466  0.63910712  0.99628709  1
  Rb  Rb13  1  0.92409466  0.36089288  0.50371291  1
  Rb  Rb14  1  0.57590534  0.86089288  0.49628709  1
  Rb  Rb15  1  0.07590534  0.13910712  0.00371291  1
  Rb  Rb16  1  0.58300420  0.07002637  0.06614978  1
  Rb  Rb17  1  0.08300420  0.92997363  0.43385022  1
  Rb  Rb18  1  0.41699580  0.42997363  0.56614978  1
  Rb  Rb19  1  0.91699580  0.57002637  0.93385022  1
  Rb  Rb20  1  0.41699580  0.92997363  0.93385022  1
  Rb  Rb21  1  0.91699580  0.07002637  0.56614978  1
  Rb  Rb22  1  0.58300420  0.57002637  0.43385022  1
  Rb  Rb23  1  0.08300420  0.42997363  0.06614978  1
  Rb  Rb24  1  0.88061849  0.41283383  0.25499402  1
  Rb  Rb25  1  0.38061849  0.58716617  0.24500598  1
  Rb  Rb26  1  0.11938151  0.08716617  0.75499402  1
  Rb  Rb27  1  0.61938151  0.91283383  0.74500598  1
  Rb  Rb28  1  0.11938151  0.58716617  0.74500598  1
  Rb  Rb29  1  0.61938151  0.41283383  0.75499402  1
  Rb  Rb30  1  0.88061849  0.91283383  0.24500598  1
  Rb  Rb31  1  0.38061849  0.08716617  0.25499402  1
  Rb  Rb32  1  0.88697414  0.17101554  0.17764075  1
  Rb  Rb33  1  0.38697414  0.82898446  0.32235925  1
  Rb  Rb34  1  0.11302586  0.32898446  0.67764075  1
  Rb  Rb35  1  0.61302586  0.67101554  0.82235925  1
  Rb  Rb36  1  0.11302586  0.82898446  0.82235925  1
  Rb  Rb37  1  0.61302586  0.17101554  0.67764075  1
  Rb  Rb38  1  0.88697414  0.67101554  0.32235925  1
  Rb  Rb39  1  0.38697414  0.32898446  0.17764075  1
  Ga  Ga0  1  0.67655448  0.53142904  0.12480401  1
  Ga  Ga1  1  0.17655448  0.46857096  0.37519599  1
  Ga  Ga2  1  0.32344552  0.96857096  0.62480401  1
  Ga  Ga3  1  0.82344552  0.03142904  0.87519599  1
  Ga  Ga4  1  0.32344552  0.46857096  0.87519599  1
  Ga  Ga5  1  0.82344552  0.53142904  0.62480401  1
  Ga  Ga6  1  0.67655448  0.03142904  0.37519599  1
  Ga  Ga7  1  0.17655448  0.96857096  0.12480401  1
  O  O0  1  0.74659817  0.37576660  0.13025952  1
  O  O1  1  0.24659817  0.62423340  0.36974048  1
  O  O2  1  0.25340183  0.12423340  0.63025952  1
  O  O3  1  0.75340183  0.87576660  0.86974048  1
  O  O4  1  0.25340183  0.62423340  0.86974048  1
  O  O5  1  0.75340183  0.37576660  0.63025952  1
  O  O6  1  0.74659817  0.87576660  0.36974048  1
  O  O7  1  0.24659817  0.12423340  0.13025952  1
  O  O8  1  0.75623854  0.10974753  0.30149910  1
  O  O9  1  0.25623854  0.89025247  0.19850090  1
  O  O10  1  0.24376146  0.39025247  0.80149910  1
  O  O11  1  0.74376146  0.60974753  0.69850090  1
  O  O12  1  0.24376146  0.89025247  0.69850090  1
  O  O13  1  0.74376146  0.10974753  0.80149910  1
  O  O14  1  0.75623854  0.60974753  0.19850090  1
  O  O15  1  0.25623854  0.39025247  0.30149910  1
  O  O16  1  0.78837620  0.09968678  0.44665008  1
  O  O17  1  0.28837620  0.90031322  0.05334992  1
  O  O18  1  0.21162380  0.40031322  0.94665008  1
  O  O19  1  0.71162380  0.59968678  0.55334992  1
  O  O20  1  0.21162380  0.90031322  0.55334992  1
  O  O21  1  0.71162380  0.09968678  0.94665008  1
  O  O22  1  0.78837620  0.59968678  0.05334992  1
  O  O23  1  0.28837620  0.40031322  0.44665008  1
  O  O24  1  0.90514692  0.45933212  0.38409440  1
  O  O25  1  0.40514692  0.54066788  0.11590560  1
  O  O26  1  0.09485308  0.04066788  0.88409440  1
  O  O27  1  0.59485308  0.95933212  0.61590560  1
  O  O28  1  0.09485308  0.54066788  0.61590560  1
  O  O29  1  0.59485308  0.45933212  0.88409440  1
  O  O30  1  0.90514692  0.95933212  0.11590560  1
  O  O31  1  0.40514692  0.04066788  0.38409440  1
loop_
_geom_bond_atom_site_label_1
_geom_bond_atom_site_label_2
_geom_bond_distance
_geom_bond_site_symmetry_2
Ga0 O22 1.892780 1_555
Ga0 O25 1.897853 1_555
Ga0 O0 1.901920 1_555
Ga0 O14 1.907692 1_555
Ga1 O23 1.892780 1_555
Ga1 O24 1.897853 1_455
Ga1 O1 1.901920 1_555
Ga1 O15 1.907692 1_555
Ga2 O20 1.892780 1_555
Ga2 O27 1.897853 1_555
Ga2 O2 1.901920 1_565
Ga2 O12 1.907692 1_555
Ga3 O21 1.892780 1_555
Ga3 O26 1.897853 1_655
Ga3 O3 1.901920 1_545
Ga3 O13 1.907692 1_555
Ga4 O18 1.892780 1_555
Ga4 O29 1.897853 1_555
Ga4 O4 1.901920 1_555
Ga4 O10 1.907692 1_555
Ga5 O19 1.892780 1_555
Ga5 O28 1.897853 1_655
Ga5 O5 1.901920 1_555
Ga5 O11 1.907692 1_555
Ga6 O16 1.892780 1_555
Ga6 O31 1.897853 1_555
Ga6 O6 1.901920 1_545
Ga6 O8 1.907692 1_555
Ga7 O17 1.892780 1_555
Ga7 O30 1.897853 1_455
Ga7 O7 1.901920 1_565
Ga7 O9 1.907692 1_555
O0 Rb39 2.751174 1_555
O0 Rb23 2.783045 1_655
O0 Rb32 2.793115 1_555
O0 Rb24 2.857213 1_555
O0 Rb8 2.958137 1_555
O1 Rb38 2.751174 1_455
O1 Rb22 2.783045 1_555
O1 Rb33 2.793115 1_555
O1 Rb25 2.857213 1_555
O1 Rb9 2.958137 1_555
O2 Rb37 2.751174 1_555
O2 Rb21 2.783045 1_455
O2 Rb34 2.793115 1_555
O2 Rb26 2.857213 1_555
O2 Rb10 2.958137 1_555
O3 Rb36 2.751174 1_655
O3 Rb20 2.783045 1_555
O3 Rb35 2.793115 1_555
O3 Rb27 2.857213 1_555
O3 Rb11 2.958137 1_555
O4 Rb35 2.751174 1_555
O4 Rb19 2.783045 1_455
O4 Rb36 2.793115 1_555
O4 Rb28 2.857213 1_555
O4 Rb12 2.958137 1_555
O5 Rb34 2.751174 1_655
O5 Rb18 2.783045 1_555
O5 Rb37 2.793115 1_555
O5 Rb29 2.857213 1_555
O5 Rb13 2.958137 1_555
O6 Rb33 2.751174 1_555
O6 Rb17 2.783045 1_655
O6 Rb38 2.793115 1_555
O6 Rb30 2.857213 1_555
O6 Rb14 2.958137 1_555
O7 Rb32 2.751174 1_455
O7 Rb16 2.783045 1_555
O7 Rb39 2.793115 1_555
O7 Rb31 2.857213 1_555
O7 Rb15 2.958137 1_555
O8 Rb30 2.755365 1_545
O8 Rb31 2.804557 1_555
O8 Rb7 2.859136 1_655
O8 Rb32 2.890141 1_555
O8 Rb0 2.928128 1_555
O9 Rb31 2.755365 1_565
O9 Rb30 2.804557 1_455
O9 Rb6 2.859136 1_555
O9 Rb33 2.890141 1_555
O9 Rb1 2.928128 1_555
O10 Rb28 2.755365 1_555
O10 Rb29 2.804557 1_555
O10 Rb5 2.859136 1_455
O10 Rb34 2.890141 1_555
O10 Rb2 2.928128 1_555
O11 Rb29 2.755365 1_555
O11 Rb28 2.804557 1_655
O11 Rb4 2.859136 1_555
O11 Rb35 2.890141 1_555
O11 Rb3 2.928128 1_555
O12 Rb26 2.755365 1_565
O12 Rb27 2.804557 1_555
O12 Rb3 2.859136 1_455
O12 Rb36 2.890141 1_555
O12 Rb4 2.928128 1_555
O13 Rb27 2.755365 1_545
O13 Rb26 2.804557 1_655
O13 Rb2 2.859136 1_555
O13 Rb37 2.890141 1_555
O13 Rb5 2.928128 1_555
O14 Rb24 2.755365 1_555
O14 Rb25 2.804557 1_555
O14 Rb1 2.859136 1_655
O14 Rb38 2.890141 1_555
O14 Rb6 2.928128 1_555
O15 Rb25 2.755365 1_555
O15 Rb24 2.804557 1_455
O15 Rb0 2.859136 1_555
O15 Rb39 2.890141 1_555
O15 Rb7 2.928128 1_555
O16 Rb21 2.728115 1_555
O16 Rb10 2.846978 1_555
O16 Rb7 2.848083 1_655
O16 Rb17 2.874899 1_645
O16 Rb0 3.212304 1_555
O17 Rb20 2.728115 1_554
O17 Rb11 2.846978 1_454
O17 Rb6 2.848083 1_555
O17 Rb16 2.874899 1_565
O17 Rb1 3.212304 1_555
O18 Rb23 2.728115 1_556
O18 Rb8 2.846978 1_556
O18 Rb5 2.848083 1_455
O18 Rb19 2.874899 1_455
O18 Rb2 3.212304 1_555
O19 Rb22 2.728115 1_555
O19 Rb9 2.846978 1_655
O19 Rb4 2.848083 1_555
O19 Rb18 2.874899 1_555
O19 Rb3 3.212304 1_555
O20 Rb17 2.728115 1_555
O20 Rb14 2.846978 1_555
O20 Rb3 2.848083 1_455
O20 Rb21 2.874899 1_465
O20 Rb4 3.212304 1_555
O21 Rb16 2.728115 1_556
O21 Rb15 2.846978 1_656
O21 Rb2 2.848083 1_555
O21 Rb20 2.874899 1_545
O21 Rb5 3.212304 1_555
O22 Rb19 2.728115 1_554
O22 Rb12 2.846978 1_554
O22 Rb1 2.848083 1_655
O22 Rb23 2.874899 1_655
O22 Rb6 3.212304 1_555
O23 Rb18 2.728115 1_555
O23 Rb13 2.846978 1_455
O23 Rb0 2.848083 1_555
O23 Rb22 2.874899 1_555
O23 Rb7 3.212304 1_555
O24 Rb22 2.800005 1_555
O24 Rb13 2.810528 1_555
O24 Rb24 2.818122 1_555
O24 Rb38 2.825464 1_555
O24 Rb0 3.023589 1_555
O24 Rb7 3.241653 1_655
O25 Rb23 2.800005 1_555
O25 Rb12 2.810528 1_554
O25 Rb25 2.818122 1_555
O25 Rb39 2.825464 1_555
O25 Rb1 3.023589 1_555
O25 Rb6 3.241653 1_555
O26 Rb20 2.800005 1_545
O26 Rb15 2.810528 1_556
O26 Rb26 2.818122 1_555
O26 Rb36 2.825464 1_545
O26 Rb2 3.023589 1_555
O26 Rb5 3.241653 1_455
O27 Rb21 2.800005 1_565
O27 Rb14 2.810528 1_555
O27 Rb27 2.818122 1_555
O27 Rb37 2.825464 1_565
O27 Rb3 3.023589 1_555
O27 Rb4 3.241653 1_555
O28 Rb18 2.800005 1_555
O28 Rb9 2.810528 1_555
O28 Rb28 2.818122 1_555
O28 Rb34 2.825464 1_555
O28 Rb4 3.023589 1_555
O28 Rb3 3.241653 1_455
O29 Rb19 2.800005 1_555
O29 Rb8 2.810528 1_556
O29 Rb29 2.818122 1_555
O29 Rb35 2.825464 1_555
O29 Rb5 3.023589 1_555
O29 Rb2 3.241653 1_555
O30 Rb16 2.800005 1_565
O30 Rb11 2.810528 1_554
O30 Rb30 2.818122 1_555
O30 Rb32 2.825464 1_565
O30 Rb6 3.023589 1_555
O30 Rb1 3.241653 1_655
O31 Rb17 2.800005 1_545
O31 Rb10 2.810528 1_555
O31 Rb31 2.818122 1_555
O31 Rb33 2.825464 1_545
O31 Rb7 3.023589 1_555
O31 Rb0 3.241653 1_555
