# generated using pymatgen
data_LaMnAlNi3
_symmetry_space_group_name_H-M   'P 1'
_cell_length_a   5.23543277
_cell_length_b   5.23543277
_cell_length_c   3.92715200
_cell_angle_alpha   90.00000000
_cell_angle_beta   90.00000000
_cell_angle_gamma   120.00000972
_symmetry_Int_Tables_number   1
_chemical_formula_structural   LaMnAlNi3
_chemical_formula_sum   'La1 Mn1 Al1 Ni3'
_cell_volume   93.22093918
_cell_formula_units_Z   1
loop_
 _symmetry_equiv_pos_site_id
 _symmetry_equiv_pos_as_xyz
  1  'x, y, z'
loop_
 _atom_site_type_symbol
 _atom_site_label
 _atom_site_symmetry_multiplicity
 _atom_site_fract_x
 _atom_site_fract_y
 _atom_site_fract_z
 _atom_site_occupancy
  La  La0  1  0.00000000  0.00000000  0.00000000  1
  Mn  Mn0  1  0.66666700  0.33333300  0.00000000  1
  Al  Al0  1  0.33333300  0.66666700  0.00000000  1
  Ni  Ni0  1  0.50050800  0.00101600  0.50000000  1
  Ni  Ni1  1  0.99898400  0.49949200  0.50000000  1
  Ni  Ni2  1  0.50050800  0.49949200  0.50000000  1
loop_
_geom_bond_atom_site_label_1
_geom_bond_atom_site_label_2
_geom_bond_distance
_geom_bond_site_symmetry_2
La0 Mn0 3.022676 1_455
La0 Mn0 3.022680 1_555
La0 Mn0 3.022680 1_445
La0 Ni2 3.272322 1_444
La0 Ni2 3.272322 1_445
La0 Ni2 3.272322 1_555
La0 Ni2 3.272322 1_554
La0 Ni1 3.272322 1_444
La0 Ni0 3.272322 1_554
La0 Ni1 3.272322 1_445
La0 Ni0 3.272322 1_555
La0 Ni0 3.272322 1_455
La0 Ni0 3.272322 1_454
La0 Ni1 3.272322 1_454
La0 Ni1 3.272322 1_455
Mn0 Ni1 2.475049 1_554
Mn0 Ni0 2.475049 1_555
Mn0 Ni1 2.475049 1_555
Mn0 Ni0 2.475049 1_554
Mn0 Ni2 2.475052 1_554
Mn0 Ni2 2.475052 1_555
Al0 Ni0 2.480669 1_565
Al0 Ni0 2.480669 1_564
Al0 Ni1 2.480669 1_455
Al0 Ni1 2.480669 1_454
Al0 Ni2 2.480672 1_555
Al0 Ni2 2.480672 1_554
Al0 La0 3.022676 1_565
Al0 La0 3.022680 1_665
Al0 La0 3.022680 1_555
