# generated using pymatgen
data_Th2Te3MoO13
_symmetry_space_group_name_H-M   'P 1'
_cell_length_a   7.19103200
_cell_length_b   11.50721000
_cell_length_c   14.22629756
_cell_angle_alpha   89.42976734
_cell_angle_beta   90.00000000
_cell_angle_gamma   90.00000000
_symmetry_Int_Tables_number   1
_chemical_formula_structural   Th2Te3MoO13
_chemical_formula_sum   'Th8 Te12 Mo4 O52'
_cell_volume   1177.14954571
_cell_formula_units_Z   4
loop_
 _symmetry_equiv_pos_site_id
 _symmetry_equiv_pos_as_xyz
  1  'x, y, z'
loop_
 _atom_site_type_symbol
 _atom_site_label
 _atom_site_symmetry_multiplicity
 _atom_site_fract_x
 _atom_site_fract_y
 _atom_site_fract_z
 _atom_site_occupancy
  Th  Th0  1  0.60805100  0.74711700  0.24720900  1
  Th  Th1  1  0.10805100  0.25288300  0.25279100  1
  Th  Th2  1  0.39194900  0.25288300  0.75279100  1
  Th  Th3  1  0.89194900  0.74711700  0.74720900  1
  Th  Th4  1  0.24396600  0.08069500  0.00301300  1
  Th  Th5  1  0.74396600  0.91930500  0.49698700  1
  Th  Th6  1  0.75603400  0.91930500  0.99698700  1
  Th  Th7  1  0.25603400  0.08069500  0.50301300  1
  Te  Te0  1  0.74321900  0.23199900  0.97933800  1
  Te  Te1  1  0.24321900  0.76800100  0.52066200  1
  Te  Te2  1  0.25678100  0.76800100  0.02066200  1
  Te  Te3  1  0.75678100  0.23199900  0.47933800  1
  Te  Te4  1  0.68526300  0.05593500  0.24571500  1
  Te  Te5  1  0.18526300  0.94406500  0.25428500  1
  Te  Te6  1  0.31473700  0.94406500  0.75428500  1
  Te  Te7  1  0.81473700  0.05593500  0.74571500  1
  Te  Te8  1  0.27834100  0.38722900  0.99774700  1
  Te  Te9  1  0.77834100  0.61277100  0.50225300  1
  Te  Te10  1  0.72165900  0.61277100  0.00225300  1
  Te  Te11  1  0.22165900  0.38722900  0.49774700  1
  Mo  Mo0  1  0.62994400  0.41767100  0.23861600  1
  Mo  Mo1  1  0.12994400  0.58232900  0.26138400  1
  Mo  Mo2  1  0.37005600  0.58232900  0.76138400  1
  Mo  Mo3  1  0.87005600  0.41767100  0.73861600  1
  O  O0  1  0.73947400  0.73783400  0.08966300  1
  O  O1  1  0.23947400  0.26216600  0.41033700  1
  O  O2  1  0.26052600  0.26216600  0.91033700  1
  O  O3  1  0.76052600  0.73783400  0.58966300  1
  O  O4  1  0.42441200  0.88694400  0.97632300  1
  O  O5  1  0.92441200  0.11305600  0.52367700  1
  O  O6  1  0.57558800  0.11305600  0.02367700  1
  O  O7  1  0.07558800  0.88694400  0.47632300  1
  O  O8  1  0.46683900  0.63185300  0.97530800  1
  O  O9  1  0.96683900  0.36814700  0.52469200  1
  O  O10  1  0.53316100  0.36814700  0.02469200  1
  O  O11  1  0.03316100  0.63185300  0.47530800  1
  O  O12  1  0.33149000  0.77400300  0.14744400  1
  O  O13  1  0.83149000  0.22599700  0.35255600  1
  O  O14  1  0.66851000  0.22599700  0.85255600  1
  O  O15  1  0.16851000  0.77400300  0.64744400  1
  O  O16  1  0.18201200  0.27136600  0.08592200  1
  O  O17  1  0.68201200  0.72863400  0.41407800  1
  O  O18  1  0.81798800  0.72863400  0.91407800  1
  O  O19  1  0.31798800  0.27136600  0.58592200  1
  O  O20  1  0.66276000  0.35472500  0.68874100  1
  O  O21  1  0.16276000  0.64527500  0.81125900  1
  O  O22  1  0.33724000  0.64527500  0.31125900  1
  O  O23  1  0.83724000  0.35472500  0.18874100  1
  O  O24  1  0.21454000  0.05632100  0.66744700  1
  O  O25  1  0.71454000  0.94367900  0.83255300  1
  O  O26  1  0.78546000  0.94367900  0.33255300  1
  O  O27  1  0.28546000  0.05632100  0.16744700  1
  O  O28  1  0.92537800  0.09854300  0.96354000  1
  O  O29  1  0.42537800  0.90145700  0.53646000  1
  O  O30  1  0.07462200  0.90145700  0.03646000  1
  O  O31  1  0.57462200  0.09854300  0.46354000  1
  O  O32  1  0.06735800  0.32066600  0.73709200  1
  O  O33  1  0.56735800  0.67933400  0.76290800  1
  O  O34  1  0.93264200  0.67933400  0.26290800  1
  O  O35  1  0.43264200  0.32066600  0.23709200  1
  O  O36  1  0.66524800  0.92981100  0.15797500  1
  O  O37  1  0.16524800  0.07018900  0.34202500  1
  O  O38  1  0.33475200  0.07018900  0.84202500  1
  O  O39  1  0.83475200  0.92981100  0.65797500  1
  O  O40  1  0.91096600  0.10520500  0.18820600  1
  O  O41  1  0.41096600  0.89479500  0.31179400  1
  O  O42  1  0.08903400  0.89479500  0.81179400  1
  O  O43  1  0.58903400  0.10520500  0.68820600  1
  O  O44  1  0.91052700  0.55405000  0.67543800  1
  O  O45  1  0.41052700  0.44595000  0.82456200  1
  O  O46  1  0.08947300  0.44595000  0.32456200  1
  O  O47  1  0.58947300  0.55405000  0.17543800  1
  O  O48  1  0.66513200  0.46381200  0.35536800  1
  O  O49  1  0.16513200  0.53618800  0.14463200  1
  O  O50  1  0.33486800  0.53618800  0.64463200  1
  O  O51  1  0.83486800  0.46381200  0.85536800  1
loop_
_geom_bond_atom_site_label_1
_geom_bond_atom_site_label_2
_geom_bond_distance
_geom_bond_site_symmetry_2
Mo0 O48 1.766987 1_555
Mo0 O35 1.805544 1_555
Mo0 O23 1.805667 1_555
Mo0 O47 1.824083 1_555
Mo1 O49 1.766987 1_555
Mo1 O34 1.805544 1_455
Mo1 O22 1.805667 1_555
Mo1 O46 1.824083 1_555
Mo2 O50 1.766987 1_555
Mo2 O33 1.805544 1_555
Mo2 O21 1.805667 1_555
Mo2 O45 1.824083 1_555
Mo3 O51 1.766987 1_555
Mo3 O32 1.805544 1_655
Mo3 O20 1.805667 1_555
Mo3 O44 1.824083 1_555
O0 Te10 1.915584 1_555
O0 Th0 2.435721 1_555
O0 Th6 2.461369 1_554
O1 Te11 1.915584 1_555
O1 Th1 2.435721 1_555
O1 Th7 2.461369 1_555
O2 Te8 1.915584 1_555
O2 Th2 2.435721 1_555
O2 Th4 2.461369 1_556
O3 Te9 1.915584 1_555
O3 Th3 2.435721 1_555
O3 Th5 2.461369 1_555
O4 Te2 1.925391 1_556
O4 Th6 2.431889 1_555
O4 Th4 2.610668 1_566
O5 Te3 1.925391 1_555
O5 Th7 2.431889 1_655
O5 Th5 2.610668 1_545
O6 Te0 1.925391 1_554
O6 Th4 2.431889 1_555
O6 Th6 2.610668 1_544
O7 Te1 1.925391 1_555
O7 Th5 2.431889 1_455
O7 Th7 2.610668 1_565
O8 Te10 1.884473 1_556
O8 Te2 2.274344 1_556
O9 Te11 1.884473 1_655
O9 Te3 2.274344 1_555
O10 Te8 1.884473 1_554
O10 Te0 2.274344 1_554
O11 Te9 1.884473 1_455
O11 Te1 2.274344 1_555
O12 Te2 1.883874 1_555
O12 Th0 2.460999 1_555
O13 Te3 1.883874 1_555
O13 Th1 2.460999 1_655
O14 Te0 1.883874 1_555
O14 Th2 2.460999 1_555
O15 Te1 1.883874 1_555
O15 Th3 2.460999 1_455
O16 Te8 1.948759 1_554
O16 Th1 2.439998 1_555
O16 Th4 2.540713 1_555
O17 Te9 1.948759 1_555
O17 Th0 2.439998 1_555
O17 Th5 2.540713 1_555
O18 Te10 1.948759 1_556
O18 Th3 2.439998 1_555
O18 Th6 2.540713 1_555
O19 Te11 1.948759 1_555
O19 Th2 2.439998 1_555
O19 Th7 2.540713 1_555
O20 Th2 2.444344 1_555
O21 Th3 2.444344 1_455
O22 Th0 2.444344 1_555
O23 Th1 2.444344 1_655
O24 Te6 1.918902 1_545
O24 Th7 2.372110 1_555
O24 Th2 2.876182 1_555
O25 Te7 1.918902 1_565
O25 Th6 2.372110 1_555
O25 Th3 2.876182 1_555
O26 Te4 1.918902 1_565
O26 Th5 2.372110 1_555
O26 Th0 2.876182 1_555
O27 Te5 1.918902 1_545
O27 Th4 2.372110 1_555
O27 Th1 2.876182 1_555
O28 Te0 2.032644 1_555
O28 Th4 2.367235 1_656
O28 Th6 2.437999 1_545
O29 Te1 2.032644 1_555
O29 Th5 2.367235 1_555
O29 Th7 2.437999 1_565
O30 Te2 2.032644 1_555
O30 Th6 2.367235 1_454
O30 Th4 2.437999 1_565
O31 Te3 2.032644 1_555
O31 Th7 2.367235 1_555
O31 Th5 2.437999 1_545
O32 Th2 2.470431 1_555
O33 Th3 2.470431 1_555
O34 Th0 2.470431 1_555
O35 Th1 2.470431 1_555
O36 Te4 1.929039 1_565
O36 Th6 2.385716 1_554
O36 Th0 2.479367 1_555
O37 Te5 1.929039 1_545
O37 Th7 2.385716 1_555
O37 Th1 2.479367 1_555
O38 Te6 1.929039 1_545
O38 Th4 2.385716 1_556
O38 Th2 2.479367 1_555
O39 Te7 1.929039 1_565
O39 Th5 2.385716 1_555
O39 Th3 2.479367 1_555
O40 Te4 1.901530 1_555
O40 Th1 2.402435 1_655
O41 Te5 1.901530 1_555
O41 Th0 2.402435 1_555
O42 Te6 1.901530 1_555
O42 Th3 2.402435 1_455
O43 Te7 1.901530 1_555
O43 Th2 2.402435 1_555
O44 Th3 2.457905 1_555
O45 Th2 2.457905 1_555
O46 Th1 2.457905 1_555
O47 Th0 2.457905 1_555
