# generated using pymatgen
data_Li3(FeO3)2
_symmetry_space_group_name_H-M   'P 1'
_cell_length_a   5.13323942
_cell_length_b   5.11489883
_cell_length_c   8.63873334
_cell_angle_alpha   89.87573181
_cell_angle_beta   89.87614920
_cell_angle_gamma   111.73030004
_symmetry_Int_Tables_number   1
_chemical_formula_structural   Li3(FeO3)2
_chemical_formula_sum   'Li6 Fe4 O12'
_cell_volume   210.69858621
_cell_formula_units_Z   2
loop_
 _symmetry_equiv_pos_site_id
 _symmetry_equiv_pos_as_xyz
  1  'x, y, z'
loop_
 _atom_site_type_symbol
 _atom_site_label
 _atom_site_symmetry_multiplicity
 _atom_site_fract_x
 _atom_site_fract_y
 _atom_site_fract_z
 _atom_site_occupancy
  Li  Li0  1  0.00003100  0.25004800  0.25014800  1
  Li  Li1  1  0.00010800  0.75011100  0.75013500  1
  Li  Li2  1  0.99914400  0.75089200  0.09493700  1
  Li  Li3  1  0.99977600  0.25055400  0.59940500  1
  Li  Li4  1  0.00022900  0.24946200  0.90079000  1
  Li  Li5  1  0.00077200  0.74911800  0.40543000  1
  Fe  Fe0  1  0.50150100  0.24935500  0.41671600  1
  Fe  Fe1  1  0.50080100  0.74881800  0.57996200  1
  Fe  Fe2  1  0.49916400  0.75124000  0.91994300  1
  Fe  Fe3  1  0.49851600  0.25072800  0.08311100  1
  O  O0  1  0.26494500  0.55128600  0.74992700  1
  O  O1  1  0.26200700  0.05146300  0.24852400  1
  O  O2  1  0.73813300  0.44860900  0.25142100  1
  O  O3  1  0.73504800  0.94867600  0.74987400  1
  O  O4  1  0.26104600  0.49262400  0.05736200  1
  O  O5  1  0.27960800  0.98323500  0.56257000  1
  O  O6  1  0.72227600  0.51975700  0.56457700  1
  O  O7  1  0.73755800  0.00565200  0.05701800  1
  O  O8  1  0.72036100  0.51675600  0.93739200  1
  O  O9  1  0.73909100  0.00720200  0.44255300  1
  O  O10  1  0.26231400  0.49444700  0.44287100  1
  O  O11  1  0.27757100  0.97996700  0.93533600  1
loop_
_geom_bond_atom_site_label_1
_geom_bond_atom_site_label_2
_geom_bond_distance
_geom_bond_site_symmetry_2
Li0 O2 1.962140 1_455
Li0 O1 1.962604 1_555
Li0 O9 2.202085 1_455
Li0 O4 2.204250 1_555
Li0 O10 2.218033 1_555
Li0 O7 2.221067 1_455
Li1 O3 1.976378 1_455
Li1 O0 1.976393 1_555
Li1 O11 2.179126 1_555
Li1 O6 2.183023 1_455
Li1 O8 2.194541 1_455
Li1 O5 2.195570 1_555
Li2 O11 2.015188 1_654
Li2 O8 2.020119 1_554
Li2 O1 2.103610 1_665
Li2 O2 2.112415 1_555
Li2 O7 2.214511 1_565
Li2 O4 2.230004 1_655
Li3 O10 1.985183 1_655
Li3 O9 1.989428 1_555
Li3 O3 2.085760 1_545
Li3 O0 2.091809 1_655
Li3 O6 2.338391 1_555
Li3 O5 2.342738 1_645
Li4 O7 1.983535 1_456
Li4 O4 1.987707 1_556
Li4 O0 2.087712 1_555
Li4 O3 2.094097 1_445
Li4 O11 2.338624 1_545
Li4 O8 2.342515 1_455
Li5 O6 2.013157 1_455
Li5 O5 2.017855 1_555
Li5 O2 2.105338 1_455
Li5 O1 2.115312 1_565
Li5 O10 2.213348 1_555
Li5 O9 2.227738 1_465
Fe0 O5 1.891053 1_545
Fe0 O2 1.903334 1_555
Fe0 O6 1.918882 1_555
Fe0 O1 1.933831 1_555
Fe0 O9 2.046922 1_555
Fe0 O10 2.066371 1_555
Fe1 O10 1.851372 1_555
Fe1 O9 1.855209 1_565
Fe1 O6 1.915518 1_555
Fe1 O0 1.929398 1_555
Fe1 O3 1.936319 1_555
Fe1 O5 1.938423 1_555
Fe2 O7 1.851187 1_566
Fe2 O4 1.855470 1_556
Fe2 O11 1.914599 1_555
Fe2 O3 1.930000 1_555
Fe2 O0 1.937088 1_555
Fe2 O8 1.938764 1_555
Fe3 O8 1.889964 1_554
Fe3 O1 1.903836 1_555
Fe3 O11 1.919595 1_544
Fe3 O2 1.934863 1_555
Fe3 O4 2.045249 1_555
Fe3 O7 2.065636 1_555
