# generated using pymatgen
data_MgMn2O4
_symmetry_space_group_name_H-M   'P 1'
_cell_length_a   7.91097181
_cell_length_b   7.91097181
_cell_length_c   9.58883580
_cell_angle_alpha   53.83958230
_cell_angle_beta   53.83958230
_cell_angle_gamma   20.90997879
_symmetry_Int_Tables_number   1
_chemical_formula_structural   MgMn2O4
_chemical_formula_sum   'Mg2 Mn4 O8'
_cell_volume   171.34011475
_cell_formula_units_Z   2
loop_
 _symmetry_equiv_pos_site_id
 _symmetry_equiv_pos_as_xyz
  1  'x, y, z'
loop_
 _atom_site_type_symbol
 _atom_site_label
 _atom_site_symmetry_multiplicity
 _atom_site_fract_x
 _atom_site_fract_y
 _atom_site_fract_z
 _atom_site_occupancy
  Mg  Mg0  1  0.69281100  0.69281100  0.82914000  1
  Mg  Mg1  1  0.30718900  0.30718900  0.17086000  1
  Mn  Mn0  1  0.38839700  0.38839700  0.81518900  1
  Mn  Mn1  1  0.84956100  0.84956100  0.48166800  1
  Mn  Mn2  1  0.15043900  0.15043900  0.51833200  1
  Mn  Mn3  1  0.61160300  0.61160300  0.18481100  1
  O  O0  1  0.14312700  0.14312700  0.28153200  1
  O  O1  1  0.55474300  0.55474300  0.65355600  1
  O  O2  1  0.44525700  0.44525700  0.34644400  1
  O  O3  1  0.85687300  0.85687300  0.71846800  1
  O  O4  1  0.86529000  0.86529000  0.98304900  1
  O  O5  1  0.23677700  0.23677700  0.64013800  1
  O  O6  1  0.13471000  0.13471000  0.01695100  1
  O  O7  1  0.76322300  0.76322300  0.35986200  1
loop_
_geom_bond_atom_site_label_1
_geom_bond_atom_site_label_2
_geom_bond_distance
_geom_bond_site_symmetry_2
Mg0 O6 2.041465 1_566
Mg0 O6 2.041465 1_656
Mg0 O5 2.079781 1_655
Mg0 O5 2.079781 1_565
Mg0 O3 2.095611 1_555
Mg1 O4 2.041465 1_544
Mg1 O4 2.041465 1_454
Mg1 O7 2.079781 1_545
Mg1 O7 2.079781 1_455
Mg1 O0 2.095611 1_555
Mn0 O3 1.925466 1_545
Mn0 O3 1.925466 1_455
Mn0 O4 2.021479 1_545
Mn0 O4 2.021479 1_455
Mn0 O1 2.070561 1_555
Mn1 O2 1.908472 1_655
Mn1 O2 1.908472 1_565
Mn1 O5 2.061396 1_565
Mn1 O5 2.061396 1_655
Mn1 O7 2.247580 1_555
Mn1 O3 2.340669 1_555
Mn2 O1 1.908472 1_455
Mn2 O1 1.908472 1_545
Mn2 O7 2.061396 1_545
Mn2 O7 2.061396 1_455
Mn2 O5 2.247580 1_555
Mn2 O0 2.340669 1_555
Mn3 O0 1.925466 1_655
Mn3 O0 1.925466 1_565
Mn3 O6 2.021479 1_565
Mn3 O6 2.021479 1_655
Mn3 O2 2.070561 1_555
