# generated using pymatgen
data_Zr2P7Rh12
_symmetry_space_group_name_H-M   'P 1'
_cell_length_a   9.57300070
_cell_length_b   9.57300070
_cell_length_c   3.82606000
_cell_angle_alpha   90.00000000
_cell_angle_beta   90.00000000
_cell_angle_gamma   120.00000485
_symmetry_Int_Tables_number   1
_chemical_formula_structural   Zr2P7Rh12
_chemical_formula_sum   'Zr2 P7 Rh12'
_cell_volume   303.65369365
_cell_formula_units_Z   1
loop_
 _symmetry_equiv_pos_site_id
 _symmetry_equiv_pos_as_xyz
  1  'x, y, z'
loop_
 _atom_site_type_symbol
 _atom_site_label
 _atom_site_symmetry_multiplicity
 _atom_site_fract_x
 _atom_site_fract_y
 _atom_site_fract_z
 _atom_site_occupancy
  Zr  Zr0  1  0.33333300  0.66666700  0.75486300  1
  Zr  Zr1  1  0.66666700  0.33333300  0.24513700  1
  P  P0  1  0.00000000  0.00000000  0.50000000  1
  P  P1  1  0.40641600  0.28504900  0.75376900  1
  P  P2  1  0.71495100  0.12136700  0.75376900  1
  P  P3  1  0.87863300  0.59358400  0.75376900  1
  P  P4  1  0.59358400  0.71495100  0.24623100  1
  P  P5  1  0.28504900  0.87863300  0.24623100  1
  P  P6  1  0.12136700  0.40641600  0.24623100  1
  Rh  Rh0  1  0.45722900  0.07493100  0.75021000  1
  Rh  Rh1  1  0.92506900  0.38229700  0.75021000  1
  Rh  Rh2  1  0.61770300  0.54277100  0.75021000  1
  Rh  Rh3  1  0.54277100  0.92506900  0.24979000  1
  Rh  Rh4  1  0.07493100  0.61770300  0.24979000  1
  Rh  Rh5  1  0.38229700  0.45722900  0.24979000  1
  Rh  Rh6  1  0.15250200  0.26470500  0.75080200  1
  Rh  Rh7  1  0.73529500  0.88779800  0.75080200  1
  Rh  Rh8  1  0.11220200  0.84749800  0.75080200  1
  Rh  Rh9  1  0.84749800  0.73529500  0.24919800  1
  Rh  Rh10  1  0.26470500  0.11220200  0.24919800  1
  Rh  Rh11  1  0.88779800  0.15250200  0.24919800  1
loop_
_geom_bond_atom_site_label_1
_geom_bond_atom_site_label_2
_geom_bond_distance
_geom_bond_site_symmetry_2
P0 Rh8 2.402898 1_545
P0 Rh11 2.402898 1_455
P0 Rh9 2.402905 1_445
P0 Rh6 2.402905 1_555
P0 Rh7 2.402906 1_445
P0 Rh10 2.402906 1_555
P1 Rh2 2.277721 1_555
P1 Rh0 2.293733 1_555
P1 Rh6 2.339458 1_555
P1 Rh10 2.434468 1_556
P1 Rh10 2.461801 1_555
P1 Rh5 2.598534 1_556
P1 Rh5 2.620853 1_555
P1 Zr1 2.967066 1_556
P1 Zr1 3.009352 1_555
P2 Rh0 2.277718 1_555
P2 Rh1 2.293727 1_555
P2 Rh7 2.339448 1_545
P2 Rh11 2.434470 1_556
P2 Rh11 2.461803 1_555
P2 Rh3 2.598530 1_546
P2 Rh3 2.620849 1_545
P2 Zr1 2.967058 1_556
P2 Zr1 3.009345 1_555
P3 Rh1 2.277727 1_555
P3 Rh2 2.293724 1_555
P3 Rh8 2.339453 1_655
P3 Rh9 2.434464 1_556
P3 Rh9 2.461797 1_555
P3 Rh4 2.598527 1_656
P3 Rh4 2.620847 1_655
P3 Zr1 2.967063 1_556
P3 Zr1 3.009350 1_555
P4 Rh5 2.277721 1_555
P4 Rh3 2.293733 1_555
P4 Rh9 2.339458 1_555
P4 Rh7 2.434468 1_554
P4 Rh7 2.461801 1_555
P4 Rh2 2.598534 1_554
P4 Rh2 2.620853 1_555
P4 Zr0 2.967066 1_554
P4 Zr0 3.009352 1_555
P5 Rh3 2.277718 1_555
P5 Rh4 2.293727 1_555
P5 Rh10 2.339448 1_565
P5 Rh8 2.434470 1_554
P5 Rh8 2.461803 1_555
P5 Rh0 2.598530 1_564
P5 Rh0 2.620849 1_565
P5 Zr0 2.967058 1_554
P5 Zr0 3.009345 1_555
P6 Rh4 2.277727 1_555
P6 Rh5 2.293724 1_555
P6 Rh11 2.339453 1_455
P6 Rh6 2.434464 1_554
P6 Rh6 2.461797 1_555
P6 Rh1 2.598527 1_454
P6 Rh1 2.620847 1_455
P6 Zr0 2.967063 1_554
P6 Zr0 3.009350 1_555
Rh0 Zr1 2.960594 1_556
Rh0 Zr1 2.985572 1_555
Rh1 Zr1 2.960594 1_556
Rh1 Zr1 2.985572 1_555
Rh2 Zr1 2.960594 1_556
Rh2 Zr1 2.985572 1_555
Rh3 Zr0 2.960594 1_554
Rh3 Zr0 2.985572 1_555
Rh4 Zr0 2.960594 1_554
Rh4 Zr0 2.985572 1_555
Rh5 Zr0 2.960594 1_554
Rh5 Zr0 2.985572 1_555
