# generated using pymatgen
data_Li4Nb3Cr3(NiO8)2
_symmetry_space_group_name_H-M   'P 1'
_cell_length_a   6.05338903
_cell_length_b   6.05338903
_cell_length_c   9.81569658
_cell_angle_alpha   89.88931276
_cell_angle_beta   89.88931276
_cell_angle_gamma   60.62041383
_symmetry_Int_Tables_number   1
_chemical_formula_structural   Li4Nb3Cr3(NiO8)2
_chemical_formula_sum   'Li4 Nb3 Cr3 Ni2 O16'
_cell_volume   313.42173594
_cell_formula_units_Z   1
loop_
 _symmetry_equiv_pos_site_id
 _symmetry_equiv_pos_as_xyz
  1  'x, y, z'
loop_
 _atom_site_type_symbol
 _atom_site_label
 _atom_site_symmetry_multiplicity
 _atom_site_fract_x
 _atom_site_fract_y
 _atom_site_fract_z
 _atom_site_occupancy
  Li  Li0  1  0.33246600  0.33246600  0.09894800  1
  Li  Li1  1  0.99238900  0.99238900  0.99428000  1
  Li  Li2  1  0.98916000  0.98916000  0.50860700  1
  Li  Li3  1  0.66433600  0.66433600  0.62730500  1
  Nb  Nb0  1  0.17151400  0.17151400  0.78489200  1
  Nb  Nb1  1  0.83353900  0.33891700  0.28471600  1
  Nb  Nb2  1  0.33891700  0.83353900  0.28471600  1
  Cr  Cr0  1  0.66230100  0.16956800  0.78522600  1
  Cr  Cr1  1  0.16956800  0.66230100  0.78522600  1
  Cr  Cr2  1  0.83206500  0.83206500  0.28475400  1
  Ni  Ni0  1  0.34136700  0.34136700  0.52413000  1
  Ni  Ni1  1  0.67262300  0.67262300  0.98561500  1
  O  O0  1  0.68639700  0.16126400  0.39372600  1
  O  O1  1  0.48199300  0.48199300  0.66748800  1
  O  O2  1  0.33240400  0.33240400  0.89774300  1
  O  O3  1  0.99982400  0.99982400  0.68849000  1
  O  O4  1  0.00030500  0.00030500  0.18098400  1
  O  O5  1  0.16126400  0.68639700  0.39372600  1
  O  O6  1  0.47804300  0.03469700  0.66298400  1
  O  O7  1  0.03469700  0.47804300  0.66298400  1
  O  O8  1  0.84123200  0.84123200  0.89453400  1
  O  O9  1  0.15836500  0.15836500  0.39615800  1
  O  O10  1  0.96776600  0.51210400  0.16961700  1
  O  O11  1  0.51210400  0.96776600  0.16961700  1
  O  O12  1  0.66494200  0.66494200  0.39743000  1
  O  O13  1  0.84611600  0.32066000  0.89805000  1
  O  O14  1  0.51364500  0.51364500  0.17216800  1
  O  O15  1  0.32066000  0.84611600  0.89805000  1
loop_
_geom_bond_atom_site_label_1
_geom_bond_atom_site_label_2
_geom_bond_distance
_geom_bond_site_symmetry_2
Li0 O2 1.974969 1_554
Li0 O14 2.026958 1_555
Li0 O10 2.044251 1_455
Li0 O11 2.044251 1_545
Li1 O4 1.834681 1_666
Li1 O8 1.860512 1_555
Li1 O15 1.973463 1_655
Li1 O13 1.973463 1_565
Li2 O3 1.769440 1_555
Li2 O5 1.961091 1_655
Li2 O0 1.961091 1_565
Li2 O9 2.082588 1_665
Li3 O1 1.945344 1_555
Li3 O6 1.985318 1_565
Li3 O7 1.985318 1_655
Li3 O12 2.256378 1_555
Nb0 O6 2.012020 1_555
Nb0 O7 2.012020 1_555
Nb0 O2 2.015721 1_555
Nb0 O3 2.030553 1_445
Nb0 O13 2.044330 1_455
Nb0 O15 2.044330 1_545
Nb1 O10 1.965542 1_555
Nb1 O0 2.006612 1_555
Nb1 O14 2.020666 1_555
Nb1 O9 2.037769 1_655
Nb1 O12 2.046546 1_555
Nb1 O4 2.056964 1_655
Nb2 O11 1.965542 1_555
Nb2 O5 2.006612 1_555
Nb2 O14 2.020666 1_555
Nb2 O9 2.037769 1_565
Nb2 O12 2.046546 1_555
Nb2 O4 2.056964 1_565
Cr0 O3 2.016999 1_545
Cr0 O1 2.018589 1_555
Cr0 O8 2.039284 1_545
Cr0 O2 2.060011 1_555
Cr0 O6 2.062239 1_555
Cr0 O13 2.075645 1_555
Cr1 O3 2.016999 1_455
Cr1 O1 2.018589 1_555
Cr1 O8 2.039284 1_455
Cr1 O2 2.060011 1_555
Cr1 O7 2.062239 1_555
Cr1 O15 2.075645 1_555
Cr2 O4 2.030152 1_665
Cr2 O11 2.036462 1_555
Cr2 O10 2.036462 1_555
Cr2 O5 2.042854 1_655
Cr2 O0 2.042854 1_565
Cr2 O12 2.065355 1_555
Ni0 O1 2.037074 1_555
Ni0 O6 2.115637 1_555
Ni0 O7 2.115637 1_555
Ni0 O0 2.224886 1_555
Ni0 O5 2.224886 1_555
Ni0 O9 2.290651 1_555
Ni1 O8 1.974296 1_555
Ni1 O13 2.046745 1_555
Ni1 O15 2.046745 1_555
Ni1 O11 2.387574 1_556
Ni1 O10 2.387574 1_556
Ni1 O14 2.469908 1_556
