# generated using pymatgen
data_Dy(Mg4Al3)4
_symmetry_space_group_name_H-M   'P 1'
_cell_length_a   9.25721818
_cell_length_b   9.25721818
_cell_length_c   9.25721818
_cell_angle_alpha   110.40511184
_cell_angle_beta   110.40511184
_cell_angle_gamma   110.40511050
_symmetry_Int_Tables_number   1
_chemical_formula_structural   Dy(Mg4Al3)4
_chemical_formula_sum   'Dy1 Mg16 Al12'
_cell_volume   588.62766078
_cell_formula_units_Z   1
loop_
 _symmetry_equiv_pos_site_id
 _symmetry_equiv_pos_as_xyz
  1  'x, y, z'
loop_
 _atom_site_type_symbol
 _atom_site_label
 _atom_site_symmetry_multiplicity
 _atom_site_fract_x
 _atom_site_fract_y
 _atom_site_fract_z
 _atom_site_occupancy
  Dy  Dy0  1  0.37221600  0.37221600  0.37221600  1
  Mg  Mg0  1  0.65454600  0.99545800  0.99545800  1
  Mg  Mg1  1  0.71660500  0.31465600  0.31465600  1
  Mg  Mg2  1  0.99716900  0.99716900  0.99716900  1
  Mg  Mg3  1  0.28017400  0.61077300  0.61077300  1
  Mg  Mg4  1  0.00179900  0.68897500  0.39420800  1
  Mg  Mg5  1  0.39420800  0.00179900  0.68897500  1
  Mg  Mg6  1  0.61077300  0.61077300  0.28017400  1
  Mg  Mg7  1  0.99545800  0.99545800  0.65454600  1
  Mg  Mg8  1  0.68897500  0.39420800  0.00179900  1
  Mg  Mg9  1  0.31465600  0.71660500  0.31465600  1
  Mg  Mg10  1  0.31465600  0.31465600  0.71660500  1
  Mg  Mg11  1  0.68897500  0.00179900  0.39420800  1
  Mg  Mg12  1  0.99545800  0.65454600  0.99545800  1
  Mg  Mg13  1  0.61077300  0.28017400  0.61077300  1
  Mg  Mg14  1  0.39420800  0.68897500  0.00179900  1
  Mg  Mg15  1  0.00179900  0.39420800  0.68897500  1
  Al  Al0  1  0.80996400  0.62988900  0.62988900  1
  Al  Al1  1  0.17493500  0.81035200  0.81035200  1
  Al  Al2  1  0.00224000  0.36394900  0.18490300  1
  Al  Al3  1  0.62988900  0.80996400  0.62988900  1
  Al  Al4  1  0.36394900  0.18490300  0.00224000  1
  Al  Al5  1  0.81035200  0.17493500  0.81035200  1
  Al  Al6  1  0.18490300  0.36394900  0.00224000  1
  Al  Al7  1  0.18490300  0.00224000  0.36394900  1
  Al  Al8  1  0.81035200  0.81035200  0.17493500  1
  Al  Al9  1  0.36394900  0.00224000  0.18490300  1
  Al  Al10  1  0.62988900  0.62988900  0.80996400  1
  Al  Al11  1  0.00224000  0.18490300  0.36394900  1
loop_
_geom_bond_atom_site_label_1
_geom_bond_atom_site_label_2
_geom_bond_distance
_geom_bond_site_symmetry_2
Dy0 Mg3 3.115011 1_555
Dy0 Mg13 3.115011 1_555
Dy0 Mg6 3.115011 1_555
Dy0 Mg2 3.308453 1_444
Dy0 Mg1 3.592056 1_555
Dy0 Mg9 3.592056 1_555
Dy0 Mg10 3.592056 1_555
Mg0 Mg5 3.050900 1_565
Mg0 Mg14 3.050900 1_556
Mg0 Mg1 3.055620 1_566
Mg0 Mg2 3.160723 1_555
Mg0 Mg3 3.364366 1_555
Mg1 Mg15 3.163119 1_655
Mg1 Mg4 3.163119 1_655
Mg1 Mg8 3.177686 1_555
Mg1 Mg11 3.177686 1_555
Mg1 Mg6 3.292537 1_555
Mg1 Mg13 3.292537 1_555
Mg2 Mg7 3.160723 1_555
Mg3 Mg5 3.117166 1_565
Mg3 Mg4 3.145547 1_555
Mg3 Mg9 3.292537 1_555
Mg4 Mg8 3.044713 1_455
Mg4 Mg5 3.044713 1_565
Mg4 Mg7 3.050900 1_455
Mg4 Mg6 3.117166 1_455
Mg4 Mg9 3.177686 1_555
Mg5 Mg8 3.044713 1_556
Mg5 Mg9 3.163119 1_545
Mg6 Mg8 3.145547 1_555
Mg6 Mg9 3.292537 1_555
Mg6 Mg7 3.364366 1_555
Mg10 Mg7 3.055620 1_445
Mg10 Mg14 3.163119 1_556
Mg10 Mg8 3.163119 1_556
Mg10 Mg15 3.177686 1_555
Mg10 Mg5 3.177686 1_555
Mg10 Mg3 3.292537 1_555
Mg10 Mg13 3.292537 1_555
Mg11 Mg14 3.044713 1_545
Mg11 Mg15 3.044713 1_655
Mg11 Mg7 3.050900 1_545
Mg11 Mg6 3.117166 1_545
Mg11 Mg13 3.145547 1_555
Mg11 Mg9 3.163119 1_545
Mg12 Mg15 3.050900 1_655
Mg12 Mg8 3.050900 1_556
Mg12 Mg9 3.055620 1_656
Mg12 Mg2 3.160723 1_555
Mg12 Mg13 3.364366 1_555
Mg13 Mg8 3.117166 1_556
Mg13 Mg15 3.117166 1_655
Mg13 Mg5 3.145547 1_555
Mg14 Mg15 3.044713 1_554
Mg14 Mg3 3.117166 1_554
Mg14 Mg6 3.145547 1_555
Mg14 Mg9 3.177686 1_555
Mg15 Mg3 3.145547 1_555
Al0 Al1 2.679373 1_655
Al0 Al3 2.737786 1_555
Al0 Al10 2.737786 1_555
Al0 Mg1 2.884971 1_555
Al0 Mg6 3.020344 1_555
Al0 Mg13 3.020344 1_555
Al0 Mg12 3.096628 1_555
Al0 Mg7 3.096628 1_555
Al0 Mg2 3.137662 1_555
Al0 Dy0 3.217575 1_555
Al0 Mg15 3.327073 1_655
Al0 Mg4 3.327073 1_655
Al1 Al9 2.747088 1_566
Al1 Al4 2.747088 1_566
Al1 Mg3 2.811751 1_555
Al1 Mg14 2.999035 1_556
Al1 Mg5 2.999035 1_565
Al1 Mg7 3.132848 1_455
Al1 Mg12 3.132848 1_455
Al1 Mg4 3.176833 1_555
Al1 Mg15 3.176833 1_555
Al1 Mg2 3.251648 1_455
Al2 Al5 2.747088 1_454
Al2 Al6 2.777133 1_555
Al2 Mg9 2.953688 1_555
Al2 Mg4 2.959085 1_555
Al2 Mg8 2.971743 1_455
Al2 Mg0 3.050890 1_444
Al2 Mg3 3.151051 1_555
Al2 Mg2 3.204411 1_444
Al2 Dy0 3.213462 1_555
Al2 Mg1 3.224632 1_455
Al3 Al5 2.679373 1_565
Al3 Mg9 2.884971 1_555
Al3 Mg6 3.020344 1_555
Al3 Mg3 3.020344 1_555
Al3 Mg0 3.096628 1_555
Al3 Mg7 3.096628 1_555
Al3 Mg2 3.137662 1_555
Al3 Dy0 3.217575 1_555
Al3 Mg5 3.327073 1_565
Al3 Mg11 3.327073 1_565
Al4 Al6 2.722141 1_555
Al4 Al9 2.777133 1_555
Al4 Mg1 2.953688 1_555
Al4 Mg8 2.959085 1_555
Al4 Mg5 2.971743 1_554
Al4 Mg7 3.050890 1_444
Al4 Mg6 3.151051 1_555
Al4 Mg2 3.204411 1_444
Al4 Dy0 3.213462 1_555
Al4 Mg10 3.224632 1_554
Al5 Al6 2.747088 1_656
Al5 Mg13 2.811751 1_555
Al5 Mg8 2.999035 1_556
Al5 Mg15 2.999035 1_655
Al5 Mg7 3.132848 1_545
Al5 Mg0 3.132848 1_545
Al5 Mg11 3.176833 1_555
Al5 Mg5 3.176833 1_555
Al5 Mg2 3.251648 1_545
Al6 Mg9 2.953688 1_555
Al6 Mg14 2.959085 1_555
Al6 Mg15 2.971743 1_554
Al6 Mg7 3.050890 1_444
Al6 Mg6 3.151051 1_555
Al6 Mg2 3.204411 1_444
Al6 Dy0 3.213462 1_555
Al6 Mg10 3.224632 1_554
Al7 Al9 2.722141 1_555
Al7 Al8 2.747088 1_445
Al7 Mg10 2.953688 1_555
Al7 Mg5 2.959085 1_555
Al7 Mg4 2.971743 1_545
Al7 Mg12 3.050890 1_444
Al7 Mg13 3.151051 1_555
Al7 Mg2 3.204411 1_444
Al7 Dy0 3.213463 1_555
Al7 Mg9 3.224632 1_545
Al8 Mg6 2.811751 1_555
Al8 Mg11 2.999035 1_565
Al8 Mg4 2.999035 1_655
Al8 Mg12 3.132848 1_554
Al8 Mg0 3.132848 1_554
Al8 Mg14 3.176833 1_555
Al8 Mg8 3.176833 1_555
Al8 Mg2 3.251648 1_554
Al9 Mg1 2.953688 1_555
Al9 Mg11 2.959085 1_555
Al9 Mg14 2.971743 1_545
Al9 Mg12 3.050890 1_444
Al9 Mg13 3.151051 1_555
Al9 Mg2 3.204411 1_444
Al9 Dy0 3.213462 1_555
Al9 Mg9 3.224632 1_545
Al10 Al8 2.679373 1_556
Al10 Al3 2.737786 1_555
Al10 Mg10 2.884971 1_555
Al10 Mg13 3.020344 1_555
Al10 Mg3 3.020344 1_555
Al10 Mg0 3.096628 1_555
Al10 Mg12 3.096628 1_555
Al10 Mg2 3.137662 1_555
Al10 Dy0 3.217575 1_555
Al10 Mg14 3.327073 1_556
Al10 Mg8 3.327073 1_556
Al11 Al2 2.722141 1_555
Al11 Al8 2.747088 1_445
Al11 Al7 2.777133 1_555
Al11 Mg10 2.953688 1_555
Al11 Mg15 2.959085 1_555
Al11 Mg11 2.971743 1_455
Al11 Mg0 3.050890 1_444
Al11 Mg3 3.151051 1_555
Al11 Mg2 3.204411 1_444
Al11 Dy0 3.213463 1_555
Al11 Mg1 3.224632 1_455
