# generated using pymatgen
data_ErTa5Ag2O15
_symmetry_space_group_name_H-M   'P 1'
_cell_length_a   12.59337300
_cell_length_b   12.59337300
_cell_length_c   3.91627400
_cell_angle_alpha   90.00000000
_cell_angle_beta   90.00000000
_cell_angle_gamma   90.00000000
_symmetry_Int_Tables_number   1
_chemical_formula_structural   ErTa5Ag2O15
_chemical_formula_sum   'Er2 Ta10 Ag4 O30'
_cell_volume   621.09381291
_cell_formula_units_Z   2
loop_
 _symmetry_equiv_pos_site_id
 _symmetry_equiv_pos_as_xyz
  1  'x, y, z'
loop_
 _atom_site_type_symbol
 _atom_site_label
 _atom_site_symmetry_multiplicity
 _atom_site_fract_x
 _atom_site_fract_y
 _atom_site_fract_z
 _atom_site_occupancy
  Er  Er0  1  0.00000000  0.00000000  0.50000000  1
  Er  Er1  1  0.50000000  0.50000000  0.50000000  1
  Ta  Ta0  1  0.50000000  0.00000000  0.00000000  1
  Ta  Ta1  1  0.00000000  0.50000000  0.00000000  1
  Ta  Ta2  1  0.21076500  0.07856700  0.00000000  1
  Ta  Ta3  1  0.78923500  0.92143300  0.00000000  1
  Ta  Ta4  1  0.07856700  0.78923500  0.00000000  1
  Ta  Ta5  1  0.71076500  0.42143300  0.00000000  1
  Ta  Ta6  1  0.92143300  0.21076500  0.00000000  1
  Ta  Ta7  1  0.28923500  0.57856700  0.00000000  1
  Ta  Ta8  1  0.57856700  0.71076500  0.00000000  1
  Ta  Ta9  1  0.42143300  0.28923500  0.00000000  1
  Ag  Ag0  1  0.67206800  0.17206800  0.50000000  1
  Ag  Ag1  1  0.32793200  0.82793200  0.50000000  1
  Ag  Ag2  1  0.17206800  0.32793200  0.50000000  1
  Ag  Ag3  1  0.82793200  0.67206800  0.50000000  1
  O  O0  1  0.18796600  0.07972500  0.50000000  1
  O  O1  1  0.81203400  0.92027500  0.50000000  1
  O  O2  1  0.07972500  0.81203400  0.50000000  1
  O  O3  1  0.68796600  0.42027500  0.50000000  1
  O  O4  1  0.92027500  0.18796600  0.50000000  1
  O  O5  1  0.31203400  0.57972500  0.50000000  1
  O  O6  1  0.57972500  0.68796600  0.50000000  1
  O  O7  1  0.42027500  0.31203400  0.50000000  1
  O  O8  1  0.22458900  0.72458900  0.00000000  1
  O  O9  1  0.77541100  0.27541100  0.00000000  1
  O  O10  1  0.72458900  0.77541100  0.00000000  1
  O  O11  1  0.27541100  0.22458900  0.00000000  1
  O  O12  1  0.50000000  0.00000000  0.50000000  1
  O  O13  1  0.00000000  0.50000000  0.50000000  1
  O  O14  1  0.05659400  0.12958900  0.00000000  1
  O  O15  1  0.94340600  0.87041100  0.00000000  1
  O  O16  1  0.12958900  0.94340600  0.00000000  1
  O  O17  1  0.55659400  0.37041100  0.00000000  1
  O  O18  1  0.87041100  0.05659400  0.00000000  1
  O  O19  1  0.44340600  0.62958900  0.00000000  1
  O  O20  1  0.62958900  0.55659400  0.00000000  1
  O  O21  1  0.37041100  0.44340600  0.00000000  1
  O  O22  1  0.34090100  0.99924000  0.00000000  1
  O  O23  1  0.65909900  0.00076000  0.00000000  1
  O  O24  1  0.99924000  0.65909900  0.00000000  1
  O  O25  1  0.84090100  0.50076000  0.00000000  1
  O  O26  1  0.00076000  0.34090100  0.00000000  1
  O  O27  1  0.15909900  0.49924000  0.00000000  1
  O  O28  1  0.49924000  0.84090100  0.00000000  1
  O  O29  1  0.50076000  0.15909900  0.00000000  1
loop_
_geom_bond_atom_site_label_1
_geom_bond_atom_site_label_2
_geom_bond_distance
_geom_bond_site_symmetry_2
Er0 O2 2.571248 1_545
Er0 O1 2.571248 1_445
Er0 O0 2.571248 1_555
Er0 O4 2.571248 1_455
Er0 O18 2.646801 1_456
Er0 O18 2.646801 1_455
Er0 O14 2.646801 1_555
Er0 O15 2.646801 1_445
Er0 O16 2.646801 1_545
Er0 O16 2.646801 1_546
Er0 O15 2.646801 1_446
Er0 O14 2.646801 1_556
Er1 O3 2.571248 1_555
Er1 O6 2.571248 1_555
Er1 O7 2.571248 1_555
Er1 O5 2.571248 1_555
Er1 O19 2.646801 1_555
Er1 O19 2.646801 1_556
Er1 O17 2.646801 1_555
Er1 O20 2.646801 1_555
Er1 O21 2.646801 1_556
Er1 O20 2.646801 1_556
Er1 O17 2.646801 1_556
Er1 O21 2.646801 1_555
Ag0 O9 2.687336 1_556
Ag0 O9 2.687336 1_555
Ag1 O8 2.687336 1_555
Ag1 O8 2.687336 1_556
Ag2 O11 2.687336 1_556
Ag2 O11 2.687336 1_555
Ag3 O10 2.687336 1_555
Ag3 O10 2.687336 1_556
O0 Ta2 1.979128 1_555
O0 Ta2 1.979128 1_556
O1 Ta3 1.979128 1_555
O1 Ta3 1.979128 1_556
O2 Ta4 1.979128 1_556
O2 Ta4 1.979128 1_555
O3 Ta5 1.979128 1_555
O3 Ta5 1.979128 1_556
O4 Ta6 1.979128 1_556
O4 Ta6 1.979128 1_555
O5 Ta7 1.979128 1_555
O5 Ta7 1.979128 1_556
O6 Ta8 1.979128 1_556
O6 Ta8 1.979128 1_555
O7 Ta9 1.979128 1_556
O7 Ta9 1.979128 1_555
O8 Ta4 2.011061 1_555
O8 Ta7 2.011061 1_555
O9 Ta5 2.011061 1_555
O9 Ta6 2.011061 1_555
O10 Ta8 2.011061 1_555
O10 Ta3 2.011061 1_555
O11 Ta9 2.011061 1_555
O11 Ta2 2.011061 1_555
O12 Ta0 1.958137 1_555
O12 Ta0 1.958137 1_556
O13 Ta1 1.958137 1_555
O13 Ta1 1.958137 1_556
O14 Ta6 1.985526 1_455
O14 Ta2 2.045093 1_555
O15 Ta4 1.985526 1_655
O15 Ta3 2.045093 1_555
O16 Ta2 1.985526 1_565
O16 Ta4 2.045093 1_555
O17 Ta9 1.985526 1_555
O17 Ta5 2.045093 1_555
O18 Ta3 1.985526 1_545
O18 Ta6 2.045093 1_555
O19 Ta8 1.985526 1_555
O19 Ta7 2.045093 1_555
O20 Ta5 1.985526 1_555
O20 Ta8 2.045093 1_555
O21 Ta7 1.985526 1_555
O21 Ta9 2.045093 1_555
O22 Ta2 1.919329 1_565
O22 Ta0 2.003616 1_565
O23 Ta3 1.919329 1_545
O23 Ta0 2.003616 1_555
O24 Ta4 1.919329 1_655
O24 Ta1 2.003616 1_655
O25 Ta5 1.919329 1_555
O25 Ta1 2.003616 1_655
O26 Ta6 1.919329 1_455
O26 Ta1 2.003616 1_555
O27 Ta7 1.919329 1_555
O27 Ta1 2.003616 1_555
O28 Ta8 1.919329 1_555
O28 Ta0 2.003616 1_565
O29 Ta9 1.919329 1_555
O29 Ta0 2.003616 1_555
