# generated using pymatgen
data_Ti8In4CoNi3
_symmetry_space_group_name_H-M   'P 1'
_cell_length_a   15.02762246
_cell_length_b   15.02762246
_cell_length_c   15.02762351
_cell_angle_alpha   17.48609271
_cell_angle_beta   17.48609271
_cell_angle_gamma   17.48609107
_symmetry_Int_Tables_number   1
_chemical_formula_structural   Ti8In4CoNi3
_chemical_formula_sum   'Ti8 In4 Co1 Ni3'
_cell_volume   267.40741533
_cell_formula_units_Z   1
loop_
 _symmetry_equiv_pos_site_id
 _symmetry_equiv_pos_as_xyz
  1  'x, y, z'
loop_
 _atom_site_type_symbol
 _atom_site_label
 _atom_site_symmetry_multiplicity
 _atom_site_fract_x
 _atom_site_fract_y
 _atom_site_fract_z
 _atom_site_occupancy
  Ti  Ti0  1  0.56253400  0.56253400  0.56253400  1
  Ti  Ti1  1  0.81237100  0.81237100  0.81237100  1
  Ti  Ti2  1  0.06194700  0.06194700  0.06194700  1
  Ti  Ti3  1  0.31259700  0.31259700  0.31259700  1
  Ti  Ti4  1  0.18762900  0.18762900  0.18762900  1
  Ti  Ti5  1  0.43746600  0.43746600  0.43746600  1
  Ti  Ti6  1  0.68740300  0.68740300  0.68740300  1
  Ti  Ti7  1  0.93805300  0.93805300  0.93805300  1
  In  In0  1  0.87515600  0.87515600  0.87515600  1
  In  In1  1  0.12484400  0.12484400  0.12484400  1
  In  In2  1  0.37473700  0.37473700  0.37473700  1
  In  In3  1  0.62526300  0.62526300  0.62526300  1
  Co  Co0  1  0.00000000  0.00000000  0.00000000  1
  Ni  Ni0  1  0.24999200  0.24999200  0.24999200  1
  Ni  Ni1  1  0.50000000  0.50000000  0.50000000  1
  Ni  Ni2  1  0.75000800  0.75000800  0.75000800  1
loop_
_geom_bond_atom_site_label_1
_geom_bond_atom_site_label_2
_geom_bond_distance
_geom_bond_site_symmetry_2
In0 Ti1 2.786587 1_555
In0 Ti7 2.791558 1_555
In0 Ti0 2.793215 1_565
In0 Ti0 2.793215 1_655
In0 Ti0 2.793216 1_556
In0 Ti4 2.795398 1_566
In0 Ti4 2.795398 1_656
In0 Ti4 2.795399 1_665
In1 Ti4 2.786587 1_555
In1 Ti2 2.791558 1_555
In1 Ti5 2.793215 1_455
In1 Ti5 2.793215 1_545
In1 Ti5 2.793216 1_554
In1 Ti1 2.795398 1_454
In1 Ti1 2.795398 1_544
In1 Ti1 2.795399 1_445
In2 Ti3 2.757960 1_555
In2 Ti5 2.784102 1_555
In2 Ti2 2.790770 1_565
In2 Ti2 2.790770 1_655
In2 Ti2 2.790771 1_556
In2 Ti6 2.792573 1_455
In2 Ti6 2.792573 1_545
In2 Ti6 2.792574 1_554
In3 Ti6 2.757960 1_555
In3 Ti0 2.784102 1_555
In3 Ti7 2.790770 1_545
In3 Ti7 2.790770 1_455
In3 Ti7 2.790771 1_554
In3 Ti3 2.792573 1_655
In3 Ti3 2.792573 1_565
In3 Ti3 2.792574 1_556
Co0 Ti7 2.749394 1_444
Co0 Ti2 2.749394 1_555
Co0 Ti3 2.793580 1_545
Co0 Ti6 2.793580 1_454
Co0 Ti3 2.793580 1_455
Co0 Ti6 2.793580 1_544
Co0 Ti6 2.793581 1_445
Co0 Ti3 2.793581 1_554
Ni0 Ti4 2.767858 1_555
Ni0 Ti3 2.778598 1_555
Ni0 Ti0 2.794386 1_545
Ni0 Ti0 2.794386 1_455
Ni0 Ti0 2.794386 1_554
Ni0 Ti7 2.803337 1_454
Ni0 Ti7 2.803337 1_544
Ni0 Ti7 2.803338 1_445
Ni1 Ti5 2.775447 1_555
Ni1 Ti0 2.775447 1_555
Ni1 Ti4 2.796901 1_565
Ni1 Ti4 2.796901 1_655
Ni1 Ti1 2.796901 1_455
Ni1 Ti1 2.796901 1_545
Ni1 Ti4 2.796902 1_556
Ni1 Ti1 2.796902 1_554
Ni2 Ti1 2.767858 1_555
Ni2 Ti6 2.778598 1_555
Ni2 Ti5 2.794386 1_565
Ni2 Ti5 2.794386 1_655
Ni2 Ti5 2.794386 1_556
Ni2 Ti2 2.803337 1_656
Ni2 Ti2 2.803337 1_566
Ni2 Ti2 2.803338 1_665
