# generated using pymatgen
data_V3Cd
_symmetry_space_group_name_H-M   'P 1'
_cell_length_a   3.93287700
_cell_length_b   3.93287700
_cell_length_c   3.93287700
_cell_angle_alpha   90.00000000
_cell_angle_beta   90.00000000
_cell_angle_gamma   90.00000000
_symmetry_Int_Tables_number   1
_chemical_formula_structural   V3Cd
_chemical_formula_sum   'V3 Cd1'
_cell_volume   60.83185954
_cell_formula_units_Z   1
loop_
 _symmetry_equiv_pos_site_id
 _symmetry_equiv_pos_as_xyz
  1  'x, y, z'
loop_
 _atom_site_type_symbol
 _atom_site_label
 _atom_site_symmetry_multiplicity
 _atom_site_fract_x
 _atom_site_fract_y
 _atom_site_fract_z
 _atom_site_occupancy
  V  V0  1  0.00000000  0.50000000  0.50000000  1
  V  V1  1  0.50000000  0.00000000  0.50000000  1
  V  V2  1  0.50000000  0.50000000  0.00000000  1
  Cd  Cd0  1  0.00000000  0.00000000  0.00000000  1
loop_
_geom_bond_atom_site_label_1
_geom_bond_atom_site_label_2
_geom_bond_distance
_geom_bond_site_symmetry_2
V0 V2 2.780964 1_555
V0 V2 2.780964 1_456
V0 V2 2.780964 1_455
V0 V1 2.780964 1_565
V0 V1 2.780964 1_555
V0 V2 2.780964 1_556
V0 V1 2.780964 1_455
V0 V1 2.780964 1_465
V1 V2 2.780964 1_555
V1 V2 2.780964 1_556
V1 V2 2.780964 1_545
V1 V2 2.780964 1_546
Cd0 V2 2.780964 1_555
Cd0 V1 2.780964 1_554
Cd0 V0 2.780964 1_544
Cd0 V0 2.780964 1_545
Cd0 V0 2.780964 1_555
Cd0 V2 2.780964 1_455
Cd0 V0 2.780964 1_554
Cd0 V1 2.780964 1_555
Cd0 V1 2.780964 1_454
Cd0 V1 2.780964 1_455
Cd0 V2 2.780964 1_445
Cd0 V2 2.780964 1_545
