# generated using pymatgen
data_Ca(AgO2)2
_symmetry_space_group_name_H-M   'P 1'
_cell_length_a   6.63805366
_cell_length_b   6.63805366
_cell_length_c   16.21592600
_cell_angle_alpha   90.00000000
_cell_angle_beta   90.00000000
_cell_angle_gamma   119.99999658
_symmetry_Int_Tables_number   1
_chemical_formula_structural   Ca(AgO2)2
_chemical_formula_sum   'Ca6 Ag12 O24'
_cell_volume   618.80514750
_cell_formula_units_Z   6
loop_
 _symmetry_equiv_pos_site_id
 _symmetry_equiv_pos_as_xyz
  1  'x, y, z'
loop_
 _atom_site_type_symbol
 _atom_site_label
 _atom_site_symmetry_multiplicity
 _atom_site_fract_x
 _atom_site_fract_y
 _atom_site_fract_z
 _atom_site_occupancy
  Ca  Ca0  1  0.66666700  0.33333300  0.94201500  1
  Ca  Ca1  1  0.33333300  0.66666700  0.61433300  1
  Ca  Ca2  1  0.00000000  0.00000000  0.66701400  1
  Ca  Ca3  1  0.00000000  0.00000000  0.27096300  1
  Ca  Ca4  1  0.33333300  0.66666700  0.00279500  1
  Ca  Ca5  1  0.33333300  0.66666700  0.38546800  1
  Ag  Ag0  1  0.16731500  0.33463100  0.83397200  1
  Ag  Ag1  1  0.66536900  0.83268500  0.83397200  1
  Ag  Ag2  1  0.83554900  0.67109700  0.50010500  1
  Ag  Ag3  1  0.16731500  0.83268500  0.83397200  1
  Ag  Ag4  1  0.32890300  0.16445100  0.50010500  1
  Ag  Ag5  1  0.66666700  0.33333300  0.33475600  1
  Ag  Ag6  1  0.66666700  0.33333300  0.71589500  1
  Ag  Ag7  1  0.50029600  0.00059100  0.16600500  1
  Ag  Ag8  1  0.83554900  0.16445100  0.50010500  1
  Ag  Ag9  1  0.99940900  0.49970400  0.16600500  1
  Ag  Ag10  1  0.50029600  0.49970400  0.16600500  1
  Ag  Ag11  1  0.00000000  0.00000000  0.04632500  1
  O  O0  1  0.47890300  0.95780600  0.90182500  1
  O  O1  1  0.33333300  0.66666700  0.75092400  1
  O  O2  1  0.04219400  0.52109700  0.90182500  1
  O  O3  1  0.47890300  0.52109700  0.90182500  1
  O  O4  1  0.14815000  0.29630000  0.56648200  1
  O  O5  1  0.85123300  0.14876700  0.76985400  1
  O  O6  1  0.00000000  0.00000000  0.41095700  1
  O  O7  1  0.29753400  0.14876700  0.76985400  1
  O  O8  1  0.00000000  0.00000000  0.91632900  1
  O  O9  1  0.70370000  0.85185000  0.56648200  1
  O  O10  1  0.14815000  0.85185000  0.56648200  1
  O  O11  1  0.85123300  0.70246600  0.76985400  1
  O  O12  1  0.80801400  0.61602800  0.23549700  1
  O  O13  1  0.52280600  0.47719400  0.43334900  1
  O  O14  1  0.95438800  0.47719400  0.43334900  1
  O  O15  1  0.66666700  0.33333300  0.08211900  1
  O  O16  1  0.66666700  0.33333300  0.58512000  1
  O  O17  1  0.38397200  0.19198600  0.23549700  1
  O  O18  1  0.80801400  0.19198600  0.23549700  1
  O  O19  1  0.52280600  0.04561200  0.43334900  1
  O  O20  1  0.18096500  0.81903500  0.10200100  1
  O  O21  1  0.63807000  0.81903500  0.10200100  1
  O  O22  1  0.33333300  0.66666700  0.24709700  1
  O  O23  1  0.18096500  0.36193000  0.10200100  1
loop_
_geom_bond_atom_site_label_1
_geom_bond_atom_site_label_2
_geom_bond_distance
_geom_bond_site_symmetry_2
Ca0 O2 2.255029 1_655
Ca0 O0 2.255029 1_545
Ca0 O3 2.255035 1_555
Ca0 O15 2.271916 1_556
Ca1 O1 2.214950 1_555
Ca1 O10 2.266119 1_555
Ca1 O4 2.266125 1_555
Ca1 O9 2.266125 1_555
Ca2 O10 2.357754 1_545
Ca2 O4 2.357754 1_555
Ca2 O9 2.357754 1_445
Ca2 O5 2.388859 1_455
Ca2 O7 2.388860 1_555
Ca2 O11 2.388860 1_445
Ca3 O6 2.270132 1_555
Ca3 O18 2.281040 1_455
Ca3 O17 2.281040 1_555
Ca3 O12 2.281040 1_445
Ca4 O0 2.341371 1_554
Ca4 O2 2.341371 1_554
Ca4 O3 2.341375 1_554
Ca4 O20 2.378429 1_555
Ca4 O23 2.378433 1_555
Ca4 O21 2.378433 1_555
Ca5 O22 2.243814 1_555
Ca5 O19 2.312681 1_565
Ca5 O14 2.312681 1_455
Ca5 O13 2.312687 1_555
Ag0 O5 2.101640 1_455
Ag0 O7 2.101645 1_555
Ag0 O2 2.112015 1_555
Ag0 O3 2.112020 1_555
Ag0 O1 2.336034 1_555
Ag0 O8 2.341831 1_555
Ag1 O5 2.101640 1_565
Ag1 O11 2.101645 1_555
Ag1 O0 2.112015 1_555
Ag1 O3 2.112020 1_555
Ag1 O1 2.336034 1_555
Ag1 O8 2.341831 1_665
Ag2 O10 2.101028 1_655
Ag2 O9 2.101033 1_555
Ag2 O14 2.113345 1_555
Ag2 O13 2.113349 1_555
Ag2 O6 2.380090 1_665
Ag2 O16 2.381339 1_555
Ag3 O7 2.101639 1_565
Ag3 O11 2.101639 1_455
Ag3 O0 2.112021 1_555
Ag3 O2 2.112021 1_555
Ag3 O1 2.336034 1_555
Ag3 O8 2.341826 1_565
Ag4 O10 2.101028 1_545
Ag4 O4 2.101033 1_555
Ag4 O19 2.113345 1_555
Ag4 O13 2.113349 1_555
Ag4 O6 2.380090 1_555
Ag4 O16 2.381339 1_555
Ag5 O18 2.287309 1_555
Ag5 O17 2.287313 1_555
Ag5 O12 2.287313 1_555
Ag5 O14 2.300412 1_555
Ag5 O19 2.300412 1_555
Ag5 O13 2.300416 1_555
Ag6 O16 2.120638 1_555
Ag6 O5 2.295356 1_555
Ag6 O11 2.295362 1_555
Ag6 O7 2.295362 1_555
Ag7 O18 2.112166 1_555
Ag7 O17 2.112171 1_555
Ag7 O21 2.113826 1_545
Ag7 O20 2.113831 1_545
Ag7 O22 2.326840 1_545
Ag7 O15 2.347200 1_555
Ag8 O9 2.101028 1_545
Ag8 O4 2.101028 1_655
Ag8 O19 2.113350 1_555
Ag8 O14 2.113350 1_555
Ag8 O6 2.380086 1_655
Ag8 O16 2.381339 1_555
Ag9 O18 2.112166 1_555
Ag9 O12 2.112171 1_555
Ag9 O23 2.113826 1_655
Ag9 O20 2.113831 1_655
Ag9 O22 2.326840 1_655
Ag9 O15 2.347200 1_555
Ag10 O17 2.112165 1_555
Ag10 O12 2.112165 1_555
Ag10 O23 2.113831 1_555
Ag10 O21 2.113831 1_555
Ag10 O22 2.326849 1_555
Ag10 O15 2.347200 1_555
Ag11 O8 2.108006 1_554
Ag11 O20 2.268074 1_545
Ag11 O23 2.268074 1_555
Ag11 O21 2.268074 1_445
