# generated using pymatgen
data_Zn9(InSb3)2
_symmetry_space_group_name_H-M   'P 1'
_cell_length_a   7.23005678
_cell_length_b   17.40125122
_cell_length_c   26.31757914
_cell_angle_alpha   90.00000000
_cell_angle_beta   90.00000000
_cell_angle_gamma   90.00000000
_symmetry_Int_Tables_number   1
_chemical_formula_structural   Zn9(InSb3)2
_chemical_formula_sum   'Zn72 In16 Sb48'
_cell_volume   3311.06817113
_cell_formula_units_Z   8
loop_
 _symmetry_equiv_pos_site_id
 _symmetry_equiv_pos_as_xyz
  1  'x, y, z'
loop_
 _atom_site_type_symbol
 _atom_site_label
 _atom_site_symmetry_multiplicity
 _atom_site_fract_x
 _atom_site_fract_y
 _atom_site_fract_z
 _atom_site_occupancy
  Zn  Zn0  1  0.37650381  0.93986041  0.45785376  1
  Zn  Zn1  1  0.12349619  0.06013959  0.95785376  1
  Zn  Zn2  1  0.87650381  0.56013959  0.54214624  1
  Zn  Zn3  1  0.62349619  0.43986041  0.04214624  1
  Zn  Zn4  1  0.89045260  0.05855003  0.20976947  1
  Zn  Zn5  1  0.60954740  0.94144997  0.70976947  1
  Zn  Zn6  1  0.39045260  0.44144997  0.79023053  1
  Zn  Zn7  1  0.10954740  0.55855003  0.29023053  1
  Zn  Zn8  1  0.61584745  0.19443935  0.29029369  1
  Zn  Zn9  1  0.88415255  0.80556065  0.79029369  1
  Zn  Zn10  1  0.11584745  0.30556065  0.70970631  1
  Zn  Zn11  1  0.38415255  0.69443935  0.20970631  1
  Zn  Zn12  1  0.38147805  0.06341998  0.29373698  1
  Zn  Zn13  1  0.11852195  0.93658002  0.79373698  1
  Zn  Zn14  1  0.88147805  0.43658002  0.70626302  1
  Zn  Zn15  1  0.61852195  0.56341998  0.20626302  1
  Zn  Zn16  1  0.60345785  0.05776585  0.54140355  1
  Zn  Zn17  1  0.89654215  0.94223415  0.04140355  1
  Zn  Zn18  1  0.10345785  0.44223415  0.45859645  1
  Zn  Zn19  1  0.39654215  0.55776585  0.95859645  1
  Zn  Zn20  1  0.86692743  0.80777239  0.45816560  1
  Zn  Zn21  1  0.63307257  0.19222761  0.95816560  1
  Zn  Zn22  1  0.36692743  0.69222761  0.54183440  1
  Zn  Zn23  1  0.13307257  0.30777239  0.04183440  1
  Zn  Zn24  1  0.12699750  0.18707138  0.20509701  1
  Zn  Zn25  1  0.37300250  0.81292862  0.70509701  1
  Zn  Zn26  1  0.62699750  0.31292862  0.79490299  1
  Zn  Zn27  1  0.87300250  0.68707138  0.29490299  1
  Zn  Zn28  1  0.61736883  0.31103345  0.45911042  1
  Zn  Zn29  1  0.88263117  0.68896655  0.95911042  1
  Zn  Zn30  1  0.11736883  0.18896655  0.54088958  1
  Zn  Zn31  1  0.38263117  0.81103345  0.04088958  1
  Zn  Zn32  1  0.11448537  0.94139059  0.12747468  1
  Zn  Zn33  1  0.38551463  0.05860941  0.62747468  1
  Zn  Zn34  1  0.61448537  0.55860941  0.87252532  1
  Zn  Zn35  1  0.88551463  0.44139059  0.37252532  1
  Zn  Zn36  1  0.01505693  0.05714042  0.43342074  1
  Zn  Zn37  1  0.48494307  0.94285958  0.93342074  1
  Zn  Zn38  1  0.51505693  0.44285958  0.56657926  1
  Zn  Zn39  1  0.98494307  0.55714042  0.06657926  1
  Zn  Zn40  1  0.51931152  0.69601105  0.43318947  1
  Zn  Zn41  1  0.98068848  0.30398895  0.93318947  1
  Zn  Zn42  1  0.01931152  0.80398895  0.56681053  1
  Zn  Zn43  1  0.48068848  0.19601105  0.06681053  1
  Zn  Zn44  1  0.39462743  0.31536750  0.36957732  1
  Zn  Zn45  1  0.10537257  0.68463250  0.86957732  1
  Zn  Zn46  1  0.89462743  0.18463250  0.63042268  1
  Zn  Zn47  1  0.60537257  0.81536750  0.13042268  1
  Zn  Zn48  1  0.96544916  0.14211582  0.35260616  1
  Zn  Zn49  1  0.53455084  0.85788418  0.85260616  1
  Zn  Zn50  1  0.46544916  0.35788418  0.64739384  1
  Zn  Zn51  1  0.03455084  0.64211582  0.14739384  1
  Zn  Zn52  1  0.93922123  0.20457629  0.44044732  1
  Zn  Zn53  1  0.56077877  0.79542371  0.94044732  1
  Zn  Zn54  1  0.43922123  0.29542371  0.55955268  1
  Zn  Zn55  1  0.06077877  0.70457629  0.05955268  1
  Zn  Zn56  1  0.87522040  0.93135943  0.36863623  1
  Zn  Zn57  1  0.62477960  0.06864057  0.86863623  1
  Zn  Zn58  1  0.37522040  0.56864057  0.63136377  1
  Zn  Zn59  1  0.12477960  0.43135943  0.13136377  1
  Zn  Zn60  1  0.54147469  0.11222923  0.14760237  1
  Zn  Zn61  1  0.95852531  0.88777077  0.64760237  1
  Zn  Zn62  1  0.04147469  0.38777077  0.85239763  1
  Zn  Zn63  1  0.45852531  0.61222923  0.35239763  1
  Zn  Zn64  1  0.94289504  0.95120871  0.56054320  1
  Zn  Zn65  1  0.55710496  0.04879129  0.06054320  1
  Zn  Zn66  1  0.44289504  0.54879129  0.43945680  1
  Zn  Zn67  1  0.05710496  0.45120871  0.93945680  1
  Zn  Zn68  1  0.87059954  0.67834016  0.63171984  1
  Zn  Zn69  1  0.62940046  0.32165984  0.13171984  1
  Zn  Zn70  1  0.37059954  0.82165984  0.36828016  1
  Zn  Zn71  1  0.12940046  0.17834016  0.86828016  1
  In  In0  1  0.52360505  0.88522971  0.25325602  1
  In  In1  1  0.97639495  0.11477029  0.75325602  1
  In  In2  1  0.02360505  0.61477029  0.74674398  1
  In  In3  1  0.47639495  0.38522971  0.24674398  1
  In  In4  1  0.98713966  0.14179499  0.08142795  1
  In  In5  1  0.51286034  0.85820501  0.58142795  1
  In  In6  1  0.48713966  0.35820501  0.91857205  1
  In  In7  1  0.01286034  0.64179499  0.41857205  1
  In  In8  1  0.46614723  0.12134378  0.41762202  1
  In  In9  1  0.03385277  0.87865622  0.91762202  1
  In  In10  1  0.96614723  0.37865622  0.58237798  1
  In  In11  1  0.53385277  0.62134378  0.08237798  1
  In  In12  1  0.98166652  0.36745589  0.24878187  1
  In  In13  1  0.51833348  0.63254411  0.74878187  1
  In  In14  1  0.48166652  0.13254411  0.75121813  1
  In  In15  1  0.01833348  0.86745589  0.25121813  1
  Sb  Sb0  1  0.23752432  0.96613736  0.36234205  1
  Sb  Sb1  1  0.26247568  0.03386264  0.86234205  1
  Sb  Sb2  1  0.73752432  0.53386264  0.63765795  1
  Sb  Sb3  1  0.76247568  0.46613736  0.13765795  1
  Sb  Sb4  1  0.26859549  0.03785247  0.19646372  1
  Sb  Sb5  1  0.23140451  0.96214753  0.69646372  1
  Sb  Sb6  1  0.76859549  0.46214753  0.80353628  1
  Sb  Sb7  1  0.73140451  0.53785247  0.30353628  1
  Sb  Sb8  1  0.74671016  0.95666394  0.47028897  1
  Sb  Sb9  1  0.75328984  0.04333606  0.97028897  1
  Sb  Sb10  1  0.24671016  0.54333606  0.52971103  1
  Sb  Sb11  1  0.25328984  0.45666394  0.02971103  1
  Sb  Sb12  1  0.77113364  0.29196309  0.36169537  1
  Sb  Sb13  1  0.72886636  0.70803691  0.86169537  1
  Sb  Sb14  1  0.27113364  0.20803691  0.63830463  1
  Sb  Sb15  1  0.22886636  0.79196309  0.13830463  1
  Sb  Sb16  1  0.75576088  0.21442211  0.19742138  1
  Sb  Sb17  1  0.74423912  0.78557789  0.69742138  1
  Sb  Sb18  1  0.25576088  0.28557789  0.80257862  1
  Sb  Sb19  1  0.24423912  0.71442211  0.30257862  1
  Sb  Sb20  1  0.23830449  0.79652515  0.47165019  1
  Sb  Sb21  1  0.26169551  0.20347485  0.97165019  1
  Sb  Sb22  1  0.73830449  0.70347485  0.52834981  1
  Sb  Sb23  1  0.76169551  0.29652515  0.02834981  1
  Sb  Sb24  1  0.22289533  0.04132307  0.52857689  1
  Sb  Sb25  1  0.27710467  0.95867693  0.02857689  1
  Sb  Sb26  1  0.72289533  0.45867693  0.47142311  1
  Sb  Sb27  1  0.77710467  0.54132307  0.97142311  1
  Sb  Sb28  1  0.73241181  0.20158378  0.53066693  1
  Sb  Sb29  1  0.76758819  0.79841622  0.03066693  1
  Sb  Sb30  1  0.23241181  0.29841622  0.46933307  1
  Sb  Sb31  1  0.26758819  0.70158378  0.96933307  1
  Sb  Sb32  1  0.73579284  0.96238935  0.13795458  1
  Sb  Sb33  1  0.76420716  0.03761065  0.63795458  1
  Sb  Sb34  1  0.23579284  0.53761065  0.86204542  1
  Sb  Sb35  1  0.26420716  0.46238935  0.36204542  1
  Sb  Sb36  1  0.75299376  0.03936343  0.30279868  1
  Sb  Sb37  1  0.74700624  0.96063657  0.80279868  1
  Sb  Sb38  1  0.25299376  0.46063657  0.69720132  1
  Sb  Sb39  1  0.24700624  0.53936343  0.19720132  1
  Sb  Sb40  1  0.73420826  0.78839509  0.36158284  1
  Sb  Sb41  1  0.76579174  0.21160491  0.86158284  1
  Sb  Sb42  1  0.23420826  0.71160491  0.63841716  1
  Sb  Sb43  1  0.26579174  0.28839509  0.13841716  1
  Sb  Sb44  1  0.23939637  0.21425426  0.30285918  1
  Sb  Sb45  1  0.26060363  0.78574574  0.80285918  1
  Sb  Sb46  1  0.73939637  0.28574574  0.69714082  1
  Sb  Sb47  1  0.76060363  0.71425426  0.19714082  1
loop_
_geom_bond_atom_site_label_1
_geom_bond_atom_site_label_2
_geom_bond_distance
_geom_bond_site_symmetry_2
Zn16 Zn33 2.759390 1_555
Zn17 Zn32 2.759390 1_655
Zn18 Zn35 2.759390 1_455
Zn19 Zn34 2.759390 1_555
Zn20 Zn42 3.064900 1_655
Zn21 Zn43 3.064900 1_556
Zn22 Zn40 3.064900 1_555
Zn23 Zn41 3.064900 1_454
Zn28 Zn54 2.953019 1_555
Zn28 Zn52 3.014621 1_555
Zn29 Zn55 2.953019 1_656
Zn29 Zn53 3.014621 1_555
Zn30 Zn52 2.953019 1_455
Zn30 Zn54 3.014621 1_555
Zn31 Zn53 2.953019 1_554
Zn31 Zn55 3.014621 1_555
Zn36 Zn48 2.615071 1_455
Zn36 Zn52 2.630013 1_455
Zn36 Zn56 2.952916 1_445
Zn37 Zn49 2.615071 1_555
Zn37 Zn53 2.630013 1_555
Zn37 Zn57 2.952916 1_565
Zn38 Zn50 2.615071 1_555
Zn38 Zn54 2.630013 1_555
Zn38 Zn58 2.952916 1_555
Zn39 Zn51 2.615071 1_655
Zn39 Zn55 2.630013 1_655
Zn39 Zn59 2.952916 1_655
Zn40 Zn63 2.615257 1_555
Zn40 Zn66 2.625894 1_555
Zn40 Zn70 2.975690 1_555
Zn41 Zn62 2.615257 1_655
Zn41 Zn67 2.625894 1_655
Zn41 Zn71 2.975690 1_655
Zn42 Zn61 2.615257 1_455
Zn42 Zn64 2.625894 1_455
Zn42 Zn68 2.975690 1_455
Zn43 Zn60 2.615257 1_555
Zn43 Zn65 2.625894 1_555
Zn43 Zn69 2.975690 1_555
Zn48 Zn52 2.561553 1_555
Zn49 Zn53 2.561553 1_555
Zn50 Zn54 2.561553 1_555
Zn51 Zn55 2.561553 1_555
Zn60 Zn65 2.545761 1_555
Zn61 Zn64 2.545761 1_555
Zn62 Zn67 2.545761 1_555
Zn63 Zn66 2.545761 1_555
In0 Sb36 3.412385 1_565
In1 Sb37 3.412385 1_545
In2 Sb38 3.412385 1_555
In3 Sb39 3.412385 1_555
In4 Zn23 3.246660 1_655
In4 Sb23 3.443495 1_555
In5 Zn22 3.246660 1_555
In5 Sb22 3.443495 1_555
In6 Zn21 3.246660 1_555
In6 Sb21 3.443495 1_555
In7 Zn20 3.246660 1_455
In7 Sb20 3.443495 1_555
In8 Zn0 3.393278 1_545
In8 Sb0 3.484689 1_545
In9 Zn1 3.393278 1_565
In9 Sb1 3.484689 1_565
In10 Zn2 3.393278 1_555
In10 Sb2 3.484689 1_555
In11 Zn3 3.393278 1_555
In11 Sb3 3.484689 1_555
In12 Sb16 3.403852 1_555
In13 Sb17 3.403852 1_555
In14 Sb18 3.403852 1_555
In15 Sb19 3.403852 1_555
Sb0 Zn12 2.684931 1_565
Sb0 Zn56 2.693575 1_455
Sb0 Zn70 2.696439 1_555
Sb0 Zn0 2.745384 1_555
Sb0 Zn36 2.931556 1_565
Sb1 Zn13 2.684931 1_545
Sb1 Zn57 2.693575 1_555
Sb1 Zn71 2.696439 1_555
Sb1 Zn1 2.745384 1_555
Sb1 Zn37 2.931556 1_545
Sb2 Zn14 2.684931 1_555
Sb2 Zn58 2.693575 1_555
Sb2 Zn68 2.696439 1_555
Sb2 Zn2 2.745384 1_555
Sb2 Zn38 2.931556 1_555
Sb3 Zn15 2.684931 1_555
Sb3 Zn59 2.693575 1_655
Sb3 Zn69 2.696439 1_555
Sb3 Zn3 2.745384 1_555
Sb3 Zn39 2.931556 1_555
Sb4 Zn60 2.687213 1_555
Sb4 Zn32 2.712111 1_545
Sb4 Zn12 2.723531 1_555
Sb4 Zn4 2.779760 1_455
Sb4 Zn24 2.800361 1_555
Sb5 Zn61 2.687213 1_455
Sb5 Zn33 2.712111 1_565
Sb5 Zn13 2.723531 1_555
Sb5 Zn5 2.779760 1_555
Sb5 Zn25 2.800361 1_555
Sb6 Zn62 2.687213 1_655
Sb6 Zn34 2.712111 1_555
Sb6 Zn14 2.723531 1_555
Sb6 Zn6 2.779760 1_555
Sb6 Zn26 2.800361 1_555
Sb7 Zn63 2.687213 1_555
Sb7 Zn35 2.712111 1_555
Sb7 Zn15 2.723531 1_555
Sb7 Zn7 2.779760 1_655
Sb7 Zn27 2.800361 1_555
Sb8 Zn0 2.712353 1_555
Sb8 Zn20 2.751368 1_555
Sb8 Zn64 2.768189 1_555
Sb8 Zn16 2.769586 1_565
Sb8 Zn36 2.786151 1_665
Sb8 Zn56 2.866037 1_555
Sb9 Zn1 2.712353 1_655
Sb9 Zn21 2.751368 1_555
Sb9 Zn65 2.768189 1_556
Sb9 Zn17 2.769586 1_546
Sb9 Zn37 2.786151 1_545
Sb9 Zn57 2.866037 1_555
Sb10 Zn2 2.712353 1_455
Sb10 Zn22 2.751368 1_555
Sb10 Zn66 2.768189 1_555
Sb10 Zn18 2.769586 1_555
Sb10 Zn38 2.786151 1_555
Sb10 Zn58 2.866037 1_555
Sb11 Zn3 2.712353 1_555
Sb11 Zn23 2.751368 1_555
Sb11 Zn67 2.768189 1_554
Sb11 Zn19 2.769586 1_554
Sb11 Zn39 2.786151 1_455
Sb11 Zn59 2.866037 1_555
Sb12 Zn35 2.743411 1_555
Sb12 Zn44 2.760264 1_555
Sb12 Zn8 2.769754 1_555
Sb12 Zn28 2.814030 1_555
Sb12 Zn52 2.843372 1_555
Sb12 Zn48 2.971567 1_555
Sb13 Zn34 2.743411 1_555
Sb13 Zn45 2.760264 1_655
Sb13 Zn9 2.769754 1_555
Sb13 Zn29 2.814030 1_555
Sb13 Zn53 2.843372 1_555
Sb13 Zn49 2.971567 1_555
Sb14 Zn33 2.743411 1_555
Sb14 Zn46 2.760264 1_455
Sb14 Zn10 2.769754 1_555
Sb14 Zn30 2.814030 1_555
Sb14 Zn54 2.843372 1_555
Sb14 Zn50 2.971567 1_555
Sb15 Zn32 2.743411 1_555
Sb15 Zn47 2.760264 1_555
Sb15 Zn11 2.769754 1_555
Sb15 Zn31 2.814030 1_555
Sb15 Zn55 2.843372 1_555
Sb15 Zn51 2.971567 1_555
Sb16 Zn8 2.667995 1_555
Sb16 Zn60 2.698454 1_555
Sb16 Zn69 2.703087 1_555
Sb16 Zn24 2.733406 1_655
Sb16 Zn4 2.900154 1_555
Sb17 Zn9 2.667995 1_555
Sb17 Zn61 2.698454 1_555
Sb17 Zn68 2.703087 1_555
Sb17 Zn25 2.733406 1_555
Sb17 Zn5 2.900154 1_555
Sb18 Zn10 2.667995 1_555
Sb18 Zn62 2.698454 1_555
Sb18 Zn71 2.703087 1_555
Sb18 Zn26 2.733406 1_555
Sb18 Zn6 2.900154 1_555
Sb19 Zn11 2.667995 1_555
Sb19 Zn63 2.698454 1_555
Sb19 Zn70 2.703087 1_555
Sb19 Zn27 2.733406 1_455
Sb19 Zn7 2.900154 1_555
Sb20 Zn0 2.711330 1_555
Sb20 Zn20 2.715490 1_455
Sb20 Zn22 2.751436 1_555
Sb20 Zn40 2.865585 1_555
Sb20 Zn70 2.916682 1_555
Sb20 Zn42 2.965767 1_555
Sb21 Zn1 2.711330 1_555
Sb21 Zn21 2.715490 1_555
Sb21 Zn23 2.751436 1_556
Sb21 Zn41 2.865585 1_455
Sb21 Zn71 2.916682 1_555
Sb21 Zn43 2.965767 1_556
Sb22 Zn2 2.711330 1_555
Sb22 Zn22 2.715490 1_555
Sb22 Zn20 2.751436 1_555
Sb22 Zn42 2.865585 1_655
Sb22 Zn68 2.916682 1_555
Sb22 Zn40 2.965767 1_555
Sb23 Zn3 2.711330 1_555
Sb23 Zn23 2.715490 1_655
Sb23 Zn21 2.751436 1_554
Sb23 Zn43 2.865585 1_555
Sb23 Zn69 2.916682 1_555
Sb23 Zn41 2.965767 1_554
Sb24 Zn64 2.695359 1_445
Sb24 Zn30 2.699594 1_555
Sb24 Zn16 2.786846 1_555
Sb24 Zn0 2.795530 1_545
Sb24 Zn33 2.871789 1_555
Sb24 Zn36 2.933467 1_555
Sb25 Zn65 2.695359 1_565
Sb25 Zn31 2.699594 1_555
Sb25 Zn17 2.786846 1_455
Sb25 Zn1 2.795530 1_564
Sb25 Zn32 2.871789 1_555
Sb25 Zn37 2.933467 1_554
Sb26 Zn66 2.695359 1_555
Sb26 Zn28 2.699594 1_555
Sb26 Zn18 2.786846 1_655
Sb26 Zn2 2.795530 1_555
Sb26 Zn35 2.871789 1_555
Sb26 Zn38 2.933467 1_555
Sb27 Zn67 2.695359 1_655
Sb27 Zn29 2.699594 1_555
Sb27 Zn19 2.786846 1_555
Sb27 Zn3 2.795530 1_556
Sb27 Zn34 2.871789 1_555
Sb27 Zn39 2.933467 1_556
Sb28 Zn16 2.685549 1_555
Sb28 Zn54 2.781701 1_555
Sb28 Zn28 2.804570 1_555
Sb28 Zn30 2.804840 1_655
Sb28 Zn52 2.806432 1_555
Sb28 Zn46 2.890483 1_555
Sb29 Zn17 2.685549 1_555
Sb29 Zn55 2.781701 1_655
Sb29 Zn29 2.804570 1_554
Sb29 Zn31 2.804840 1_555
Sb29 Zn53 2.806432 1_554
Sb29 Zn47 2.890483 1_555
Sb30 Zn18 2.685549 1_555
Sb30 Zn52 2.781701 1_455
Sb30 Zn30 2.804570 1_555
Sb30 Zn28 2.804840 1_555
Sb30 Zn54 2.806432 1_555
Sb30 Zn44 2.890483 1_555
Sb31 Zn19 2.685549 1_555
Sb31 Zn53 2.781701 1_555
Sb31 Zn31 2.804570 1_556
Sb31 Zn29 2.804840 1_455
Sb31 Zn55 2.806432 1_556
Sb31 Zn45 2.890483 1_555
Sb32 Zn47 2.733801 1_555
Sb32 Zn4 2.760875 1_565
Sb32 Zn32 2.775979 1_655
Sb32 Zn17 2.816098 1_555
Sb32 Zn65 2.842551 1_565
Sb32 Zn60 2.972683 1_565
Sb33 Zn46 2.733801 1_555
Sb33 Zn5 2.760875 1_545
Sb33 Zn33 2.775979 1_555
Sb33 Zn16 2.816098 1_555
Sb33 Zn64 2.842551 1_545
Sb33 Zn61 2.972683 1_545
Sb34 Zn45 2.733801 1_555
Sb34 Zn6 2.760875 1_555
Sb34 Zn34 2.775979 1_555
Sb34 Zn19 2.816098 1_555
Sb34 Zn67 2.842551 1_555
Sb34 Zn62 2.972683 1_555
Sb35 Zn44 2.733801 1_555
Sb35 Zn7 2.760875 1_555
Sb35 Zn35 2.775979 1_455
Sb35 Zn18 2.816098 1_555
Sb35 Zn66 2.842551 1_555
Sb35 Zn63 2.972683 1_555
Sb36 Zn4 2.663338 1_555
Sb36 Zn48 2.697172 1_555
Sb36 Zn56 2.704680 1_545
Sb36 Zn12 2.728944 1_555
Sb36 Zn8 2.893702 1_555
Sb37 Zn5 2.663338 1_555
Sb37 Zn49 2.697172 1_555
Sb37 Zn57 2.704680 1_565
Sb37 Zn13 2.728944 1_655
Sb37 Zn9 2.893702 1_555
Sb38 Zn6 2.663338 1_555
Sb38 Zn50 2.697172 1_555
Sb38 Zn58 2.704680 1_555
Sb38 Zn14 2.728944 1_455
Sb38 Zn10 2.893702 1_555
Sb39 Zn7 2.663338 1_555
Sb39 Zn51 2.697172 1_555
Sb39 Zn59 2.704680 1_555
Sb39 Zn15 2.728944 1_555
Sb39 Zn11 2.893702 1_555
Sb40 Zn27 2.682393 1_555
Sb40 Zn56 2.694964 1_555
Sb40 Zn70 2.697649 1_555
Sb40 Zn20 2.737761 1_555
Sb40 Zn40 2.924003 1_555
Sb41 Zn26 2.682393 1_555
Sb41 Zn57 2.694964 1_555
Sb41 Zn71 2.697649 1_655
Sb41 Zn21 2.737761 1_555
Sb41 Zn41 2.924003 1_555
Sb42 Zn25 2.682393 1_555
Sb42 Zn58 2.694964 1_555
Sb42 Zn68 2.697649 1_455
Sb42 Zn22 2.737761 1_555
Sb42 Zn42 2.924003 1_555
Sb43 Zn24 2.682393 1_555
Sb43 Zn59 2.694964 1_555
Sb43 Zn69 2.697649 1_555
Sb43 Zn23 2.737761 1_555
Sb43 Zn43 2.924003 1_555
Sb44 Zn48 2.685670 1_455
Sb44 Zn44 2.727361 1_555
Sb44 Zn24 2.739301 1_555
Sb44 Zn8 2.763375 1_555
Sb44 Zn12 2.828776 1_555
Sb45 Zn49 2.685670 1_555
Sb45 Zn45 2.727361 1_555
Sb45 Zn25 2.739301 1_555
Sb45 Zn9 2.763375 1_455
Sb45 Zn13 2.828776 1_555
Sb46 Zn50 2.685670 1_555
Sb46 Zn46 2.727361 1_555
Sb46 Zn26 2.739301 1_555
Sb46 Zn10 2.763375 1_655
Sb46 Zn14 2.828776 1_555
Sb47 Zn51 2.685670 1_655
Sb47 Zn47 2.727361 1_555
Sb47 Zn27 2.739301 1_555
Sb47 Zn11 2.763375 1_555
Sb47 Zn15 2.828776 1_555
