# generated using pymatgen
data_Mn2VSn
_symmetry_space_group_name_H-M   'P 1'
_cell_length_a   4.26057433
_cell_length_b   4.26057433
_cell_length_c   4.26057433
_cell_angle_alpha   60.00000000
_cell_angle_beta   60.00000000
_cell_angle_gamma   60.00000000
_symmetry_Int_Tables_number   1
_chemical_formula_structural   Mn2VSn
_chemical_formula_sum   'Mn2 V1 Sn1'
_cell_volume   54.68767262
_cell_formula_units_Z   1
loop_
 _symmetry_equiv_pos_site_id
 _symmetry_equiv_pos_as_xyz
  1  'x, y, z'
loop_
 _atom_site_type_symbol
 _atom_site_label
 _atom_site_symmetry_multiplicity
 _atom_site_fract_x
 _atom_site_fract_y
 _atom_site_fract_z
 _atom_site_occupancy
  Mn  Mn0  1  0.25000000  0.25000000  0.25000000  1
  Mn  Mn1  1  0.75000000  0.75000000  0.75000000  1
  V  V0  1  0.00000000  0.00000000  0.00000000  1
  Sn  Sn0  1  0.50000000  0.50000000  0.50000000  1
loop_
_geom_bond_atom_site_label_1
_geom_bond_atom_site_label_2
_geom_bond_distance
_geom_bond_site_symmetry_2
Mn0 Sn0 2.609058 1_455
Mn0 V0 2.609058 1_655
Mn0 V0 2.609058 1_556
Mn0 V0 2.609058 1_565
Mn0 V0 2.609058 1_555
Mn0 Sn0 2.609058 1_545
Mn0 Sn0 2.609058 1_555
Mn0 Sn0 2.609058 1_554
Mn1 V0 2.609058 1_566
Mn1 Sn0 2.609058 1_655
Mn1 Sn0 2.609058 1_565
Mn1 V0 2.609058 1_665
Mn1 V0 2.609058 1_656
Mn1 Sn0 2.609058 1_555
Mn1 Sn0 2.609058 1_556
Mn1 V0 2.609058 1_666
Sn0 V0 3.012681 1_556
Sn0 V0 3.012681 1_655
Sn0 V0 3.012681 1_665
Sn0 V0 3.012681 1_565
Sn0 V0 3.012681 1_656
Sn0 V0 3.012681 1_566
