# generated using pymatgen
data_LiMnPO4
_symmetry_space_group_name_H-M   'P 1'
_cell_length_a   4.99582701
_cell_length_b   8.50466111
_cell_length_c   7.95004642
_cell_angle_alpha   101.52091287
_cell_angle_beta   90.00670835
_cell_angle_gamma   89.99721154
_symmetry_Int_Tables_number   1
_chemical_formula_structural   LiMnPO4
_chemical_formula_sum   'Li4 Mn4 P4 O16'
_cell_volume   330.97446733
_cell_formula_units_Z   4
loop_
 _symmetry_equiv_pos_site_id
 _symmetry_equiv_pos_as_xyz
  1  'x, y, z'
loop_
 _atom_site_type_symbol
 _atom_site_label
 _atom_site_symmetry_multiplicity
 _atom_site_fract_x
 _atom_site_fract_y
 _atom_site_fract_z
 _atom_site_occupancy
  Li  Li0  1  0.03093000  0.54341600  0.13705300  1
  Li  Li1  1  0.53085700  0.45658100  0.86291300  1
  Li  Li2  1  0.96317000  0.95725900  0.65719200  1
  Li  Li3  1  0.46345700  0.04268700  0.34271500  1
  Mn  Mn0  1  0.98135500  0.17772000  0.03065700  1
  Mn  Mn1  1  0.48119200  0.82235500  0.96943500  1
  Mn  Mn2  1  0.39848700  0.72463200  0.48774700  1
  Mn  Mn3  1  0.89879900  0.27530900  0.51240600  1
  P  P0  1  0.54219800  0.37953600  0.22948000  1
  P  P1  1  0.04200800  0.62050200  0.77050900  1
  P  P2  1  0.99290600  0.90224400  0.25995200  1
  P  P3  1  0.49280100  0.09771300  0.74005000  1
  O  O0  1  0.15044600  0.96408300  0.11460400  1
  O  O1  1  0.65030600  0.03599400  0.88551100  1
  O  O2  1  0.09562600  0.47453600  0.62578400  1
  O  O3  1  0.59564400  0.52554700  0.37416200  1
  O  O4  1  0.20967300  0.60392700  0.93222400  1
  O  O5  1  0.70987300  0.39609100  0.06778100  1
  O  O6  1  0.69569300  0.87279000  0.20993600  1
  O  O7  1  0.19554500  0.12715200  0.78997100  1
  O  O8  1  0.53518200  0.96572500  0.57436200  1
  O  O9  1  0.03513800  0.03417800  0.42569400  1
  O  O10  1  0.74100200  0.64463400  0.81483800  1
  O  O11  1  0.24123500  0.35536800  0.18502400  1
  O  O12  1  0.15557400  0.77284300  0.71055300  1
  O  O13  1  0.65580700  0.22722300  0.28951300  1
  O  O14  1  0.61984400  0.25405500  0.70515600  1
  O  O15  1  0.12002200  0.74589900  0.29477700  1
loop_
_geom_bond_atom_site_label_1
_geom_bond_atom_site_label_2
_geom_bond_distance
_geom_bond_site_symmetry_2
Li0 O15 1.968061 1_555
Li0 O4 2.012226 1_554
Li0 O11 2.012559 1_555
Li0 O5 2.042099 1_455
Li1 O14 1.968366 1_555
Li1 O10 2.012593 1_555
Li1 O5 2.012832 1_556
Li1 O4 2.042749 1_555
Li2 O12 1.956860 1_655
Li2 O7 1.985020 1_665
Li2 O9 2.103675 1_665
Li2 O8 2.242567 1_555
Li2 O1 2.387720 1_565
Li3 O13 1.957237 1_555
Li3 O6 1.984697 1_545
Li3 O8 2.104671 1_545
Li3 O9 2.244686 1_555
Li3 O0 2.386658 1_545
Mn0 O7 2.159408 1_654
Mn0 O11 2.175663 1_655
Mn0 O0 2.223566 1_645
Mn0 O1 2.227955 1_554
Mn0 O5 2.270810 1_555
Mn0 O13 2.590757 1_555
Mn1 O6 2.158708 1_556
Mn1 O10 2.176678 1_555
Mn1 O1 2.223667 1_565
Mn1 O0 2.227027 1_556
Mn1 O4 2.271348 1_555
Mn1 O12 2.590857 1_555
Mn2 O3 2.010384 1_555
Mn2 O15 2.105205 1_555
Mn2 O12 2.118663 1_555
Mn2 O8 2.140271 1_555
Mn3 O2 2.010002 1_655
Mn3 O14 2.105743 1_555
Mn3 O13 2.119198 1_555
Mn3 O9 2.140081 1_655
O0 P2 1.572980 1_455
O1 P3 1.572961 1_555
O2 P1 1.538219 1_555
O3 P0 1.538095 1_555
O4 P1 1.564126 1_555
O5 P0 1.564171 1_555
O6 P2 1.544562 1_555
O7 P3 1.544651 1_555
O8 P3 1.565044 1_565
O9 P2 1.564965 1_445
O10 P1 1.548825 1_655
O11 P0 1.548785 1_555
O12 P1 1.573058 1_555
O13 P0 1.573125 1_555
O14 P3 1.547635 1_555
O15 P2 1.547535 1_455
