# generated using pymatgen
data_K7Mo12H31Pt2O59
_symmetry_space_group_name_H-M   'P 1'
_cell_length_a   10.35339100
_cell_length_b   12.37143876
_cell_length_c   12.75897263
_cell_angle_alpha   112.37085838
_cell_angle_beta   111.51287217
_cell_angle_gamma   83.83247098
_symmetry_Int_Tables_number   1
_chemical_formula_structural   K7Mo12H31Pt2O59
_chemical_formula_sum   'K7 Mo12 H31 Pt2 O59'
_cell_volume   1404.99360181
_cell_formula_units_Z   1
loop_
 _symmetry_equiv_pos_site_id
 _symmetry_equiv_pos_as_xyz
  1  'x, y, z'
loop_
 _atom_site_type_symbol
 _atom_site_label
 _atom_site_symmetry_multiplicity
 _atom_site_fract_x
 _atom_site_fract_y
 _atom_site_fract_z
 _atom_site_occupancy
  K  K0  1  0.06363400  0.42002600  0.13693000  1
  K  K1  1  0.93051000  0.57644600  0.85967200  1
  K  K2  1  0.26270100  0.09346900  0.87820300  1
  K  K3  1  0.75049100  0.90523400  0.13339900  1
  K  K4  1  0.59790700  0.35585400  0.16615700  1
  K  K5  1  0.39742100  0.63568300  0.82633300  1
  K  K6  1  0.00086600  0.00118800  0.50482900  1
  Mo  Mo0  1  0.70482000  0.22925300  0.68078400  1
  Mo  Mo1  1  0.29745300  0.77305300  0.32319500  1
  Mo  Mo2  1  0.60530700  0.14014400  0.37412800  1
  Mo  Mo3  1  0.39242900  0.85886700  0.62083600  1
  Mo  Mo4  1  0.26247600  0.14013400  0.20398800  1
  Mo  Mo5  1  0.73592600  0.86218100  0.79786200  1
  Mo  Mo6  1  0.47271000  0.32433400  0.80998700  1
  Mo  Mo7  1  0.52725500  0.67606900  0.19066600  1
  Mo  Mo8  1  0.12791600  0.31441800  0.64356400  1
  Mo  Mo9  1  0.87168900  0.68501300  0.35751100  1
  Mo  Mo10  1  0.02025900  0.22417500  0.33684700  1
  Mo  Mo11  1  0.97833100  0.77601600  0.66416000  1
  H  H0  1  0.24289900  0.47703000  0.00172700  1
  H  H1  1  0.75684800  0.52379100  0.99933400  1
  H  H2  1  0.96361500  0.18600100  0.85566500  1
  H  H3  1  0.04272100  0.81293800  0.14313500  1
  H  H4  1  0.42085000  0.53698400  0.35318400  1
  H  H5  1  0.57775300  0.46405400  0.64618400  1
  H  H6  1  0.78941100  0.41661700  0.45072900  1
  H  H7  1  0.20991900  0.58245900  0.54736500  1
  H  H8  1  0.41685500  0.41018900  0.35771700  1
  H  H9  1  0.58401400  0.59066300  0.64173800  1
  H  H10  1  0.14570700  0.37228600  0.89585200  1
  H  H11  1  0.85495900  0.62762600  0.10559400  1
  H  H12  1  0.69345100  0.47344000  0.53064500  1
  H  H13  1  0.30790300  0.52545000  0.46941300  1
  H  H14  1  0.24423700  0.41112000  0.51801900  1
  H  H15  1  0.75786900  0.58848800  0.48224000  1
  H  H16  1  0.97857900  0.11159100  0.93202700  1
  H  H17  1  0.02494600  0.89135600  0.07004600  1
  H  H18  1  0.21073700  0.02297600  0.34845400  1
  H  H19  1  0.78649400  0.97551900  0.65136800  1
  H  H20  1  0.81043800  0.16958900  0.05497900  1
  H  H21  1  0.18164400  0.83125800  0.94686000  1
  H  H22  1  0.72953200  0.21831900  0.95499300  1
  H  H23  1  0.27420400  0.78678600  0.04850700  1
  H  H24  1  0.41800000  0.94851300  0.23309000  1
  H  H25  1  0.58179600  0.05150500  0.76978500  1
  H  H26  1  0.31258800  0.10636000  0.62821200  1
  H  H27  1  0.68545400  0.89219300  0.37318500  1
  H  H28  1  0.50048700  0.01633500  0.50119600  1
  H  H29  1  0.41343500  0.91772700  0.01009600  1
  H  H30  1  0.49685000  0.90595400  0.92761500  1
  Pt  Pt0  1  0.36966300  0.21181000  0.50431900  1
  Pt  Pt1  1  0.62805500  0.78592300  0.49628200  1
  O  O0  1  0.02674500  0.20017600  0.48192300  1
  O  O1  1  0.97333900  0.79973400  0.51960600  1
  O  O2  1  0.52578100  0.09893700  0.50792800  1
  O  O3  1  0.47020800  0.89520500  0.49326700  1
  O  O4  1  0.30209900  0.40450000  0.75516400  1
  O  O5  1  0.69785800  0.59524700  0.24500500  1
  O  O6  1  0.70454400  0.24547900  0.53110700  1
  O  O7  1  0.28702100  0.75138800  0.46798400  1
  O  O8  1  0.12551100  0.24922800  0.24533900  1
  O  O9  1  0.87300100  0.75242100  0.75729000  1
  O  O10  1  0.10379300  0.24196300  0.72998500  1
  O  O11  1  0.89608000  0.75830300  0.27164200  1
  O  O12  1  0.71085900  0.46747800  0.45645600  1
  O  O13  1  0.28828200  0.53111700  0.54285800  1
  O  O14  1  0.14667300  0.44492500  0.96353700  1
  O  O15  1  0.85268600  0.55643100  0.03600200  1
  O  O16  1  0.61429200  0.20196200  0.78171500  1
  O  O17  1  0.38780000  0.79983000  0.22052400  1
  O  O18  1  0.21197900  0.32740700  0.50325500  1
  O  O19  1  0.79031700  0.67172900  0.49755200  1
  O  O20  1  0.21769900  0.10740900  0.35419900  1
  O  O21  1  0.77967900  0.89206600  0.64635000  1
  O  O22  1  0.51621700  0.32228500  0.64961400  1
  O  O23  1  0.48296600  0.67531000  0.35024900  1
  O  O24  1  0.80902500  0.10415800  0.67123500  1
  O  O25  1  0.19115400  0.89728800  0.32911800  1
  O  O26  1  0.81626300  0.34649900  0.78661500  1
  O  O27  1  0.18810900  0.65455200  0.21598700  1
  O  O28  1  0.01503000  0.42854400  0.65277900  1
  O  O29  1  0.98491900  0.57115400  0.34800300  1
  O  O30  1  0.70689600  0.01267800  0.36569400  1
  O  O31  1  0.29159900  0.98752600  0.63381900  1
  O  O32  1  0.91180000  0.34162100  0.34263100  1
  O  O33  1  0.08784100  0.65918500  0.66129100  1
  O  O34  1  0.63931500  0.19663300  0.28179100  1
  O  O35  1  0.36744300  0.80297700  0.71873000  1
  O  O36  1  0.43132900  0.27001500  0.90270400  1
  O  O37  1  0.57004100  0.73070200  0.09876000  1
  O  O38  1  0.36015700  0.47650100  0.34702100  1
  O  O39  1  0.64000100  0.52474200  0.65515400  1
  O  O40  1  0.42276100  0.23623900  0.37719900  1
  O  O41  1  0.57721500  0.76231600  0.62450800  1
  O  O42  1  0.43119100  0.03064500  0.24198100  1
  O  O43  1  0.56714300  0.96946600  0.75925300  1
  O  O44  1  0.58090400  0.44867400  0.90592500  1
  O  O45  1  0.41817400  0.55245400  0.09293500  1
  O  O46  1  0.76623100  0.23994800  0.04325700  1
  O  O47  1  0.25713700  0.77914700  0.96493600  1
  O  O48  1  0.91775400  0.10151100  0.22666300  1
  O  O49  1  0.08032900  0.89936300  0.77352900  1
  O  O50  1  0.32250600  0.20262600  0.12829900  1
  O  O51  1  0.67410200  0.80519000  0.87754900  1
  O  O52  1  0.16166900  0.01538900  0.09408900  1
  O  O53  1  0.83761600  0.98734200  0.90483000  1
  O  O54  1  0.02259500  0.17803400  0.93199700  1
  O  O55  1  0.98546300  0.82057600  0.06613300  1
  O  O56  1  0.31841500  0.19075500  0.63459700  1
  O  O57  1  0.68022100  0.80828200  0.36654600  1
  O  O58  1  0.47541400  0.96193100  0.99698600  1
loop_
_geom_bond_atom_site_label_1
_geom_bond_atom_site_label_2
_geom_bond_distance
_geom_bond_site_symmetry_2
K0 O14 2.774705 1_554
K0 O8 2.841207 1_555
K0 O15 2.841743 1_455
K0 O27 2.952771 1_555
K0 O29 2.976912 1_455
K0 O54 3.078962 1_554
K0 O38 3.177770 1_555
K1 O15 2.751093 1_556
K1 O14 2.845357 1_655
K1 O9 2.848913 1_555
K1 O26 2.873437 1_555
K1 O28 2.958963 1_655
K1 O55 3.098165 1_556
K1 O39 3.106682 1_555
K2 O49 2.792660 1_545
K2 O36 2.795630 1_555
K2 O50 2.799957 1_556
K2 O54 2.809149 1_555
K2 O58 2.907662 1_545
K2 O31 3.003155 1_545
K2 O10 3.061232 1_555
K3 O48 2.739330 1_565
K3 O37 2.807626 1_555
K3 O55 2.837503 1_555
K3 O51 2.838119 1_554
K3 O58 2.914938 1_554
K3 O11 2.930749 1_555
K3 O30 2.933995 1_565
K4 O46 2.703298 1_555
K4 O34 2.794178 1_555
K4 O5 2.912263 1_555
K4 O36 2.970796 1_554
K4 O45 3.119837 1_555
K4 O12 3.204734 1_555
K4 O32 3.236426 1_555
K4 O50 3.378048 1_555
K5 O47 2.706967 1_555
K5 O4 2.819728 1_555
K5 O35 2.824374 1_555
K5 O44 3.069494 1_555
K5 O37 3.072918 1_556
K5 O13 3.128420 1_555
K5 O33 3.179272 1_555
K6 O1 2.622579 1_445
K6 O0 2.639001 1_555
K6 O31 2.875207 1_545
K6 O30 2.927705 1_455
K6 O10 3.191281 1_555
K6 O24 3.250546 1_455
K6 O11 3.253607 1_445
K6 O25 3.325867 1_545
Mo0 O26 1.727598 1_555
Mo0 O24 1.779890 1_555
Mo0 O16 1.983692 1_555
Mo0 O6 1.993750 1_555
Mo0 O22 2.142836 1_555
Mo0 O2 2.415892 1_555
Mo1 O27 1.730991 1_555
Mo1 O25 1.785587 1_555
Mo1 O17 1.999088 1_555
Mo1 O7 2.006414 1_555
Mo1 O23 2.145423 1_555
Mo1 O3 2.330147 1_555
Mo2 O34 1.727476 1_555
Mo2 O30 1.789421 1_555
Mo2 O6 1.886011 1_555
Mo2 O42 2.117669 1_555
Mo2 O40 2.126715 1_555
Mo2 O2 2.373969 1_555
Mo3 O35 1.742952 1_555
Mo3 O31 1.794387 1_555
Mo3 O7 1.881315 1_555
Mo3 O41 2.138921 1_555
Mo3 O43 2.147701 1_555
Mo3 O3 2.257405 1_555
Mo4 O50 1.740218 1_555
Mo4 O52 1.750056 1_555
Mo4 O8 1.925158 1_555
Mo4 O42 2.119282 1_555
Mo4 O40 2.187613 1_555
Mo4 O20 2.309664 1_555
Mo5 O53 1.748300 1_555
Mo5 O51 1.749427 1_555
Mo5 O9 1.927590 1_555
Mo5 O43 2.103797 1_555
Mo5 O41 2.192984 1_555
Mo5 O21 2.302434 1_555
Mo6 O44 1.746627 1_555
Mo6 O36 1.753077 1_555
Mo6 O4 1.959211 1_555
Mo6 O16 2.016449 1_555
Mo6 O22 2.241542 1_555
Mo6 O56 2.328311 1_555
Mo7 O45 1.748076 1_555
Mo7 O37 1.754058 1_555
Mo7 O5 1.962238 1_555
Mo7 O17 2.014561 1_555
Mo7 O23 2.248632 1_555
Mo7 O57 2.318490 1_555
Mo8 O28 1.730065 1_555
Mo8 O10 1.756166 1_555
Mo8 O4 1.965272 1_555
Mo8 O0 1.965461 1_555
Mo8 O18 2.319455 1_555
Mo8 O56 2.372249 1_555
Mo9 O29 1.729913 1_555
Mo9 O11 1.759119 1_555
Mo9 O5 1.963198 1_555
Mo9 O1 1.972176 1_555
Mo9 O19 2.299273 1_555
Mo9 O57 2.377571 1_555
Mo10 O32 1.733813 1_455
Mo10 O48 1.741677 1_455
Mo10 O0 1.960057 1_555
Mo10 O8 1.981885 1_555
Mo10 O18 2.338533 1_555
Mo10 O20 2.364623 1_555
Mo11 O33 1.736080 1_655
Mo11 O49 1.742303 1_655
Mo11 O1 1.956837 1_555
Mo11 O9 1.992276 1_555
Mo11 O19 2.321566 1_555
Mo11 O21 2.369403 1_555
H0 O14 0.984581 1_554
H1 O15 0.984030 1_556
H2 O54 0.977280 1_655
H3 O55 0.978299 1_455
H4 O38 0.990425 1_555
H5 O39 0.988238 1_555
H6 O12 0.980467 1_555
H7 O13 0.980144 1_555
H8 O38 0.979397 1_555
H9 O39 0.980978 1_555
H10 O14 0.978936 1_555
H11 O15 0.979060 1_555
H12 O12 1.001524 1_555
H13 O13 1.005412 1_555
H14 O18 1.048464 1_555
H14 O13 1.481072 1_555
H15 O19 1.041439 1_555
H15 O12 1.500189 1_555
H16 O54 0.981942 1_655
H17 O55 0.982358 1_455
H18 O20 1.027468 1_555
H18 O25 1.502951 1_545
H19 O21 1.018342 1_555
H19 O24 1.542955 1_565
H20 O46 0.976119 1_555
H21 O47 0.975922 1_555
H22 O46 0.981245 1_556
H23 O47 0.982754 1_554
H24 O42 0.997335 1_565
H25 O43 0.992720 1_545
H26 O56 1.022536 1_555
H26 O31 1.540708 1_545
H27 O57 1.014665 1_555
H27 O30 1.573319 1_565
H28 O2 1.046155 1_555
H28 O3 1.521990 1_545
H29 O58 0.981106 1_554
H30 O58 0.978115 1_555
O2 Pt0 2.018421 1_555
O3 Pt1 2.004701 1_555
O18 Pt0 2.051218 1_555
O19 Pt1 2.075060 1_555
O20 Pt0 2.038532 1_555
O21 Pt1 2.044354 1_555
O22 Pt0 2.015155 1_555
O23 Pt1 2.012175 1_555
O40 Pt0 2.021622 1_555
O41 Pt1 2.016750 1_555
O56 Pt0 2.029397 1_555
O57 Pt1 2.035819 1_555
