# generated using pymatgen
data_Li2H6PtO6
_symmetry_space_group_name_H-M   'P 1'
_cell_length_a   5.55466748
_cell_length_b   5.55466748
_cell_length_c   4.52438300
_cell_angle_alpha   90.00000000
_cell_angle_beta   90.00000000
_cell_angle_gamma   119.99999384
_symmetry_Int_Tables_number   1
_chemical_formula_structural   Li2H6PtO6
_chemical_formula_sum   'Li2 H6 Pt1 O6'
_cell_volume   120.89439120
_cell_formula_units_Z   1
loop_
 _symmetry_equiv_pos_site_id
 _symmetry_equiv_pos_as_xyz
  1  'x, y, z'
loop_
 _atom_site_type_symbol
 _atom_site_label
 _atom_site_symmetry_multiplicity
 _atom_site_fract_x
 _atom_site_fract_y
 _atom_site_fract_z
 _atom_site_occupancy
  Li  Li0  1  0.66666700  0.33333300  0.00000000  1
  Li  Li1  1  0.33333300  0.66666700  0.00000000  1
  H  H0  1  0.30244200  0.30244200  0.43832100  1
  H  H1  1  0.69755800  0.69755800  0.56167900  1
  H  H2  1  0.69755800  0.00000000  0.43832100  1
  H  H3  1  0.30244200  0.00000000  0.56167900  1
  H  H4  1  0.00000000  0.69755800  0.43832100  1
  H  H5  1  0.00000000  0.30244200  0.56167900  1
  Pt  Pt0  1  0.00000000  0.00000000  0.00000000  1
  O  O0  1  0.31985700  0.31985700  0.22352700  1
  O  O1  1  0.68014300  0.68014300  0.77647300  1
  O  O2  1  0.68014300  0.00000000  0.22352700  1
  O  O3  1  0.31985700  0.00000000  0.77647300  1
  O  O4  1  0.00000000  0.68014300  0.22352700  1
  O  O5  1  0.00000000  0.31985700  0.77647300  1
loop_
_geom_bond_atom_site_label_1
_geom_bond_atom_site_label_2
_geom_bond_distance
_geom_bond_site_symmetry_2
Li0 O2 2.143647 1_555
Li0 O5 2.143647 1_654
Li0 O4 2.143650 1_655
Li0 O3 2.143650 1_554
Li0 O1 2.143652 1_554
Li0 O0 2.143652 1_555
Li1 O4 2.143647 1_555
Li1 O3 2.143647 1_564
Li1 O2 2.143650 1_565
Li1 O5 2.143650 1_554
Li1 O1 2.143652 1_554
Li1 O0 2.143652 1_555
H0 O0 0.976613 1_555
H1 O1 0.976613 1_555
H2 O2 0.976613 1_555
H3 O3 0.976613 1_555
H4 O4 0.976613 1_555
H5 O5 0.976613 1_555
O0 Pt0 2.044366 1_555
O1 Pt0 2.044366 1_666
O2 Pt0 2.044366 1_655
O3 Pt0 2.044366 1_556
O4 Pt0 2.044366 1_565
O5 Pt0 2.044366 1_556
