# generated using pymatgen
data_Mg6VFe
_symmetry_space_group_name_H-M   'P 1'
_cell_length_a   4.75520500
_cell_length_b   6.02132200
_cell_length_c   10.93798900
_cell_angle_alpha   90.00000000
_cell_angle_beta   90.00000000
_cell_angle_gamma   90.00000000
_symmetry_Int_Tables_number   1
_chemical_formula_structural   Mg6VFe
_chemical_formula_sum   'Mg12 V2 Fe2'
_cell_volume   313.18328786
_cell_formula_units_Z   2
loop_
 _symmetry_equiv_pos_site_id
 _symmetry_equiv_pos_as_xyz
  1  'x, y, z'
loop_
 _atom_site_type_symbol
 _atom_site_label
 _atom_site_symmetry_multiplicity
 _atom_site_fract_x
 _atom_site_fract_y
 _atom_site_fract_z
 _atom_site_occupancy
  Mg  Mg0  1  0.00000000  0.74036900  0.08205600  1
  Mg  Mg1  1  0.00000000  0.25963100  0.08205600  1
  Mg  Mg2  1  0.00000000  0.00000000  0.32898400  1
  Mg  Mg3  1  0.50000000  0.25946000  0.42105000  1
  Mg  Mg4  1  0.50000000  0.74054000  0.42105000  1
  Mg  Mg5  1  0.50000000  0.00000000  0.16850200  1
  Mg  Mg6  1  0.00000000  0.24036900  0.58205600  1
  Mg  Mg7  1  0.00000000  0.75963100  0.58205600  1
  Mg  Mg8  1  0.00000000  0.50000000  0.82898400  1
  Mg  Mg9  1  0.50000000  0.75946000  0.92105000  1
  Mg  Mg10  1  0.50000000  0.24054000  0.92105000  1
  Mg  Mg11  1  0.50000000  0.50000000  0.66850200  1
  V  V0  1  0.50000000  0.50000000  0.19177500  1
  V  V1  1  0.50000000  0.00000000  0.69177500  1
  Fe  Fe0  1  0.00000000  0.50000000  0.30452800  1
  Fe  Fe1  1  0.00000000  0.00000000  0.80452800  1
loop_
_geom_bond_atom_site_label_1
_geom_bond_atom_site_label_2
_geom_bond_distance
_geom_bond_site_symmetry_2
Mg0 Mg1 2.894678 1_555
Mg0 Mg9 2.961016 1_554
Mg0 Mg9 2.961016 1_454
Mg0 Mg5 2.998504 1_465
Mg0 Mg5 2.998504 1_565
Mg0 V0 3.031177 1_555
Mg0 V0 3.031177 1_455
Mg0 Mg2 3.120707 1_565
Mg0 Mg8 3.123646 1_554
Mg0 Mg1 3.126644 1_565
Mg1 Mg10 2.961016 1_554
Mg1 Mg10 2.961016 1_454
Mg1 Mg5 2.998504 1_455
Mg1 Mg5 2.998504 1_555
Mg1 V0 3.031177 1_555
Mg1 V0 3.031177 1_455
Mg1 Mg2 3.120707 1_555
Mg1 Mg8 3.123646 1_554
Mg2 Mg5 2.955376 1_555
Mg2 Mg5 2.955376 1_455
Mg2 Mg4 3.017919 1_545
Mg2 Mg3 3.017919 1_455
Mg2 Mg3 3.017919 1_555
Mg2 Mg4 3.017919 1_445
Mg2 Mg6 3.123646 1_555
Mg2 Mg7 3.123646 1_545
Mg3 V0 2.896009 1_555
Mg3 Mg4 2.896738 1_555
Mg3 Mg6 2.961016 1_655
Mg3 Mg6 2.961016 1_555
Mg3 Mg4 3.124584 1_545
Mg3 Mg5 3.173552 1_555
Mg3 V1 3.348042 1_555
Mg4 V0 2.896009 1_555
Mg4 Mg7 2.961016 1_555
Mg4 Mg7 2.961016 1_655
Mg4 Mg5 3.173552 1_565
Mg4 V1 3.348042 1_565
Mg5 V0 3.021404 1_545
Mg5 V0 3.021404 1_555
Mg5 Mg9 3.069789 1_544
Mg6 Mg7 2.894678 1_545
Mg6 V1 3.031177 1_555
Mg6 V1 3.031177 1_455
Mg6 Mg8 3.120707 1_555
Mg6 Mg7 3.126644 1_555
Mg7 V1 3.031177 1_465
Mg7 V1 3.031177 1_565
Mg7 Mg8 3.120707 1_555
Mg8 Mg9 3.017919 1_455
Mg8 Mg9 3.017919 1_555
Mg9 V1 2.896009 1_565
Mg9 V0 3.348042 1_556
Mg10 V1 2.896009 1_555
Mg10 Mg9 2.896738 1_545
Mg10 Mg8 3.017919 1_655
Mg10 Mg8 3.017919 1_555
Mg10 Mg5 3.069789 1_556
Mg10 Mg9 3.124584 1_555
Mg10 Mg11 3.173552 1_555
Mg10 V0 3.348042 1_556
Mg11 Mg8 2.955376 1_655
Mg11 Mg8 2.955376 1_555
Mg11 Mg7 2.998504 1_655
Mg11 Mg7 2.998504 1_555
Mg11 Mg6 2.998504 1_555
Mg11 Mg6 2.998504 1_655
Mg11 V1 3.021404 1_565
Mg11 V1 3.021404 1_555
Mg11 Mg3 3.069789 1_555
Mg11 Mg4 3.069789 1_555
Mg11 Mg9 3.173552 1_555
Fe0 V0 2.678432 1_455
Fe0 V0 2.678432 1_555
Fe0 Mg0 2.831291 1_555
Fe0 Mg1 2.831291 1_555
Fe0 Mg2 3.022521 1_555
Fe0 Mg2 3.022521 1_565
Fe0 Mg4 3.061888 1_455
Fe0 Mg4 3.061888 1_555
Fe0 Mg3 3.061888 1_555
Fe0 Mg3 3.061888 1_455
Fe0 Mg7 3.414503 1_555
Fe0 Mg6 3.414503 1_555
Fe1 V1 2.678432 1_555
Fe1 V1 2.678432 1_455
Fe1 Mg7 2.831291 1_545
Fe1 Mg6 2.831291 1_555
Fe1 Mg8 3.022521 1_555
Fe1 Mg8 3.022521 1_545
Fe1 Mg10 3.061888 1_455
Fe1 Mg9 3.061888 1_445
Fe1 Mg9 3.061888 1_545
Fe1 Mg10 3.061888 1_555
Fe1 Mg0 3.414503 1_546
Fe1 Mg1 3.414503 1_556
