# generated using pymatgen
data_Sm4Fe3Co(AsO)4
_symmetry_space_group_name_H-M   'P 1'
_cell_length_a   4.01216900
_cell_length_b   4.01216900
_cell_length_c   18.33828900
_cell_angle_alpha   90.00000000
_cell_angle_beta   90.00000000
_cell_angle_gamma   90.00000000
_symmetry_Int_Tables_number   1
_chemical_formula_structural   Sm4Fe3Co(AsO)4
_chemical_formula_sum   'Sm4 Fe3 Co1 As4 O4'
_cell_volume   295.20060873
_cell_formula_units_Z   1
loop_
 _symmetry_equiv_pos_site_id
 _symmetry_equiv_pos_as_xyz
  1  'x, y, z'
loop_
 _atom_site_type_symbol
 _atom_site_label
 _atom_site_symmetry_multiplicity
 _atom_site_fract_x
 _atom_site_fract_y
 _atom_site_fract_z
 _atom_site_occupancy
  Sm  Sm0  1  0.50000000  0.00000000  0.18641400  1
  Sm  Sm1  1  0.50000000  0.00000000  0.68851500  1
  Sm  Sm2  1  0.00000000  0.50000000  0.81358600  1
  Sm  Sm3  1  0.00000000  0.50000000  0.31148500  1
  Fe  Fe0  1  0.50000000  0.50000000  0.50000000  1
  Fe  Fe1  1  0.00000000  0.00000000  0.00000000  1
  Fe  Fe2  1  0.00000000  0.00000000  0.50000000  1
  Co  Co0  1  0.50000000  0.50000000  0.00000000  1
  As  As0  1  0.50000000  0.00000000  0.91205600  1
  As  As1  1  0.50000000  0.00000000  0.40904800  1
  As  As2  1  0.00000000  0.50000000  0.08794400  1
  As  As3  1  0.00000000  0.50000000  0.59095200  1
  O  O0  1  0.50000000  0.50000000  0.75103000  1
  O  O1  1  0.50000000  0.50000000  0.24897000  1
  O  O2  1  0.00000000  0.00000000  0.75078500  1
  O  O3  1  0.00000000  0.00000000  0.24921500  1
loop_
_geom_bond_atom_site_label_1
_geom_bond_atom_site_label_2
_geom_bond_distance
_geom_bond_site_symmetry_2
As0 Fe1 2.573968 1_656
As0 Fe1 2.573968 1_556
As0 Co0 2.573968 1_556
As0 Co0 2.573968 1_546
As0 Sm2 3.362969 1_545
As0 Sm2 3.362969 1_645
As0 Sm2 3.362969 1_555
As0 Sm2 3.362969 1_655
As1 Fe2 2.608885 1_555
As1 Fe0 2.608885 1_545
As1 Fe0 2.608885 1_555
As1 Fe2 2.608885 1_655
As1 Sm3 3.354067 1_545
As1 Sm3 3.354067 1_645
As1 Sm3 3.354067 1_555
As1 Sm3 3.354067 1_655
As2 Fe1 2.573968 1_555
As2 Co0 2.573968 1_455
As2 Fe1 2.573968 1_565
As2 Co0 2.573968 1_555
As2 Sm0 3.362969 1_455
As2 Sm0 3.362969 1_555
As2 Sm0 3.362969 1_465
As2 Sm0 3.362969 1_565
As3 Fe2 2.608885 1_555
As3 Fe0 2.608885 1_555
As3 Fe0 2.608885 1_455
As3 Fe2 2.608885 1_565
As3 Sm1 3.354067 1_555
As3 Sm1 3.354067 1_455
As3 Sm1 3.354067 1_465
As3 Sm1 3.354067 1_565
O0 Sm1 2.310552 1_565
O0 Sm1 2.310552 1_555
O0 Sm2 2.310925 1_655
O0 Sm2 2.310925 1_555
O1 Sm3 2.310552 1_655
O1 Sm3 2.310552 1_555
O1 Sm0 2.310925 1_555
O1 Sm0 2.310925 1_565
O2 Sm1 2.308326 1_455
O2 Sm1 2.308326 1_555
O2 Sm2 2.313159 1_555
O2 Sm2 2.313159 1_545
O3 Sm3 2.308326 1_545
O3 Sm3 2.308326 1_555
O3 Sm0 2.313159 1_455
O3 Sm0 2.313159 1_555
