# generated using pymatgen
data_Mn(FeO2)2
_symmetry_space_group_name_H-M   'P 1'
_cell_length_a   6.10730908
_cell_length_b   6.05589572
_cell_length_c   6.11314752
_cell_angle_alpha   59.84436160
_cell_angle_beta   59.34137478
_cell_angle_gamma   60.17587797
_symmetry_Int_Tables_number   1
_chemical_formula_structural   Mn(FeO2)2
_chemical_formula_sum   'Mn2 Fe4 O8'
_cell_volume   159.08457002
_cell_formula_units_Z   2
loop_
 _symmetry_equiv_pos_site_id
 _symmetry_equiv_pos_as_xyz
  1  'x, y, z'
loop_
 _atom_site_type_symbol
 _atom_site_label
 _atom_site_symmetry_multiplicity
 _atom_site_fract_x
 _atom_site_fract_y
 _atom_site_fract_z
 _atom_site_occupancy
  Mn  Mn0  1  0.12319800  0.12905700  0.12151600  1
  Mn  Mn1  1  0.87679500  0.87110800  0.87821300  1
  Fe  Fe0  1  0.49984500  0.49988600  0.50003200  1
  Fe  Fe1  1  0.49993300  0.50004200  0.00008300  1
  Fe  Fe2  1  0.00011000  0.49997100  0.49986400  1
  Fe  Fe3  1  0.50008800  0.99989700  0.50006700  1
  O  O0  1  0.73368500  0.73963500  0.73690800  1
  O  O1  1  0.26676200  0.26911700  0.70664700  1
  O  O2  1  0.26139900  0.71361900  0.24796600  1
  O  O3  1  0.70725000  0.27277900  0.25490100  1
  O  O4  1  0.73854400  0.28653200  0.75195600  1
  O  O5  1  0.29279600  0.72718700  0.74505700  1
  O  O6  1  0.26638200  0.26033700  0.26314600  1
  O  O7  1  0.73320800  0.73083800  0.29364000  1
loop_
_geom_bond_atom_site_label_1
_geom_bond_atom_site_label_2
_geom_bond_distance
_geom_bond_site_symmetry_2
Mn0 O1 2.056925 1_554
Mn0 O2 2.058822 1_545
Mn0 O3 2.068081 1_455
Mn0 O6 2.074029 1_555
Mn1 O4 2.058784 1_565
Mn1 O7 2.059690 1_556
Mn1 O5 2.068385 1_655
Mn1 O0 2.072956 1_555
Fe0 O1 1.986562 1_555
Fe0 O7 1.988767 1_555
Fe0 O3 2.035584 1_555
Fe0 O5 2.036152 1_555
Fe0 O2 2.140148 1_555
Fe0 O4 2.140860 1_555
Fe1 O2 1.983689 1_555
Fe1 O4 1.984497 1_554
Fe1 O3 2.011973 1_555
Fe1 O5 2.012190 1_554
Fe1 O6 2.025510 1_555
Fe1 O0 2.025913 1_554
Fe2 O2 2.034114 1_555
Fe2 O4 2.034551 1_455
Fe2 O6 2.051129 1_555
Fe2 O0 2.052635 1_455
Fe2 O7 2.063765 1_455
Fe2 O1 2.064902 1_555
Fe3 O0 2.047677 1_555
Fe3 O6 2.048529 1_565
Fe3 O7 2.049498 1_555
Fe3 O1 2.050837 1_565
Fe3 O5 2.057715 1_555
Fe3 O3 2.057990 1_565
