# generated using pymatgen
data_NdEr3Fe34
_symmetry_space_group_name_H-M   'P 1'
_cell_length_a   8.24254400
_cell_length_b   8.49786564
_cell_length_c   8.49786564
_cell_angle_alpha   119.99256976
_cell_angle_beta   90.00000000
_cell_angle_gamma   90.00000000
_symmetry_Int_Tables_number   1
_chemical_formula_structural   NdEr3Fe34
_chemical_formula_sum   'Nd1 Er3 Fe34'
_cell_volume   515.51836067
_cell_formula_units_Z   1
loop_
 _symmetry_equiv_pos_site_id
 _symmetry_equiv_pos_as_xyz
  1  'x, y, z'
loop_
 _atom_site_type_symbol
 _atom_site_label
 _atom_site_symmetry_multiplicity
 _atom_site_fract_x
 _atom_site_fract_y
 _atom_site_fract_z
 _atom_site_occupancy
  Nd  Nd0  1  0.25000000  0.66663400  0.33336600  1
  Er  Er0  1  0.75000000  0.33326300  0.66673700  1
  Er  Er1  1  0.75000000  0.00004700  0.99995300  1
  Er  Er2  1  0.25000000  0.00001200  0.99998800  1
  Fe  Fe0  1  0.48468800  0.83496000  0.66997000  1
  Fe  Fe1  1  0.48463000  0.83499800  0.16500200  1
  Fe  Fe2  1  0.48468800  0.33003000  0.16504000  1
  Fe  Fe3  1  0.51725100  0.16596300  0.33184400  1
  Fe  Fe4  1  0.51725900  0.16590800  0.83409200  1
  Fe  Fe5  1  0.51725100  0.66815600  0.83403700  1
  Fe  Fe6  1  0.98274900  0.16596300  0.33184400  1
  Fe  Fe7  1  0.98274100  0.16590800  0.83409200  1
  Fe  Fe8  1  0.98274900  0.66815600  0.83403700  1
  Fe  Fe9  1  0.01531200  0.83496000  0.66997000  1
  Fe  Fe10  1  0.01537000  0.83499800  0.16500200  1
  Fe  Fe11  1  0.01531200  0.33003000  0.16504000  1
  Fe  Fe12  1  0.75000000  0.67126600  0.04017800  1
  Fe  Fe13  1  0.75000000  0.36896600  0.32877400  1
  Fe  Fe14  1  0.75000000  0.95974900  0.63106700  1
  Fe  Fe15  1  0.75000000  0.36893300  0.04025100  1
  Fe  Fe16  1  0.75000000  0.95982200  0.32873400  1
  Fe  Fe17  1  0.75000000  0.67122600  0.63103400  1
  Fe  Fe18  1  0.25000000  0.32751000  0.95792100  1
  Fe  Fe19  1  0.25000000  0.63037700  0.67244700  1
  Fe  Fe20  1  0.25000000  0.04213800  0.36960400  1
  Fe  Fe21  1  0.25000000  0.63039600  0.95786200  1
  Fe  Fe22  1  0.25000000  0.04207900  0.67249000  1
  Fe  Fe23  1  0.25000000  0.32755300  0.36962300  1
  Fe  Fe24  1  0.60737500  0.66666600  0.33333400  1
  Fe  Fe25  1  0.39409200  0.33333900  0.66666100  1
  Fe  Fe26  1  0.10590800  0.33333900  0.66666100  1
  Fe  Fe27  1  0.89262500  0.66666600  0.33333400  1
  Fe  Fe28  1  0.50118500  0.49921600  0.99844000  1
  Fe  Fe29  1  0.50120400  0.49921900  0.50078100  1
  Fe  Fe30  1  0.50118500  0.00156000  0.50078400  1
  Fe  Fe31  1  0.99881500  0.49921600  0.99844000  1
  Fe  Fe32  1  0.99879600  0.49921900  0.50078100  1
  Fe  Fe33  1  0.99881500  0.00156000  0.50078400  1
loop_
_geom_bond_atom_site_label_1
_geom_bond_atom_site_label_2
_geom_bond_distance
_geom_bond_site_symmetry_2
Er0 Fe26 2.933588 1_655
Er0 Fe25 2.933588 1_555
Er0 Fe15 3.033926 1_556
Er0 Fe14 3.033926 1_545
Er0 Fe12 3.034445 1_556
Er0 Fe16 3.034445 1_545
Er0 Fe13 3.035026 1_555
Er0 Fe17 3.035026 1_555
Er0 Fe4 3.122073 1_555
Er0 Fe7 3.122073 1_555
Er0 Fe5 3.123395 1_555
Er0 Fe8 3.123395 1_555
Er0 Fe6 3.123395 1_555
Er0 Fe3 3.123395 1_555
Er0 Fe33 3.188423 1_555
Er0 Fe30 3.188423 1_555
Er0 Fe28 3.188423 1_555
Er0 Fe31 3.188423 1_555
Er0 Fe32 3.189290 1_555
Er0 Fe29 3.189290 1_555
Er1 Fe15 2.978363 1_556
Er1 Fe14 2.978363 1_545
Er1 Fe16 2.979556 1_546
Er1 Fe12 2.979556 1_546
Er1 Fe13 2.979631 1_556
Er1 Fe17 2.979631 1_545
Er1 Fe4 3.104754 1_555
Er1 Fe7 3.104754 1_555
Er1 Fe5 3.105989 1_545
Er1 Fe8 3.105989 1_545
Er1 Fe6 3.105989 1_556
Er1 Fe3 3.105989 1_556
Er1 Fe9 3.268123 1_645
Er1 Fe11 3.268123 1_656
Er1 Fe0 3.268123 1_545
Er1 Fe2 3.268123 1_556
Er1 Fe1 3.268869 1_546
Er1 Fe10 3.268869 1_646
Er2 Fe22 2.977873 1_555
Er2 Fe18 2.977873 1_555
Er2 Fe21 2.978179 1_545
Er2 Fe20 2.978179 1_556
Er2 Fe19 2.978738 1_545
Er2 Fe23 2.978738 1_556
Er2 Fe10 3.104637 1_546
Er2 Fe1 3.104637 1_546
Er2 Fe0 3.105091 1_545
Er2 Fe2 3.105091 1_556
Er2 Fe9 3.105091 1_545
Er2 Fe11 3.105091 1_556
Er2 Fe7 3.288553 1_455
Er2 Fe4 3.288553 1_555
Er2 Fe6 3.289062 1_456
Er2 Fe5 3.289062 1_545
Er2 Fe8 3.289062 1_445
Er2 Fe3 3.289062 1_556
Fe0 Fe5 2.449686 1_555
Fe0 Fe4 2.450526 1_565
Fe0 Fe29 2.474800 1_555
Fe0 Fe30 2.474843 1_565
Fe0 Fe14 2.523215 1_555
Fe0 Fe17 2.523384 1_555
Fe0 Fe19 2.607965 1_555
Fe0 Fe22 2.608184 1_565
Fe0 Fe24 2.676042 1_555
Fe0 Nd0 3.143152 1_555
Fe1 Fe5 2.450699 1_554
Fe1 Fe3 2.450699 1_565
Fe1 Fe28 2.475117 1_554
Fe1 Fe30 2.475117 1_565
Fe1 Fe12 2.523870 1_555
Fe1 Fe16 2.523870 1_555
Fe1 Fe21 2.608029 1_554
Fe1 Fe20 2.608029 1_565
Fe1 Fe24 2.676156 1_555
Fe1 Nd0 3.143358 1_555
Fe2 Fe3 2.449686 1_555
Fe2 Fe4 2.450526 1_554
Fe2 Fe29 2.474800 1_555
Fe2 Fe28 2.474843 1_554
Fe2 Fe23 2.607965 1_555
Fe2 Fe24 2.676042 1_555
Fe2 Nd0 3.143152 1_555
Fe3 Fe30 2.456749 1_555
Fe7 Fe9 2.450526 1_645
Fe8 Fe9 2.449686 1_655
Fe9 Nd0 3.143152 1_555
Fe10 Fe8 2.450699 1_454
Fe10 Fe6 2.450699 1_465
Fe10 Fe31 2.475117 1_454
Fe10 Fe33 2.475117 1_465
Fe10 Fe12 2.523870 1_455
Fe10 Fe16 2.523870 1_455
Fe10 Fe21 2.608029 1_554
Fe10 Fe20 2.608029 1_565
Fe10 Fe27 2.676156 1_455
Fe10 Nd0 3.143358 1_555
Fe11 Fe6 2.449686 1_455
Fe11 Fe7 2.450526 1_454
Fe11 Fe32 2.474800 1_455
Fe11 Fe31 2.474843 1_454
Fe11 Fe15 2.523215 1_455
Fe11 Fe13 2.523384 1_455
Fe11 Fe23 2.607965 1_555
Fe11 Fe18 2.608184 1_554
Fe11 Fe27 2.676042 1_455
Fe11 Nd0 3.143152 1_555
Fe12 Fe31 2.439472 1_554
Fe12 Fe28 2.439472 1_554
Fe12 Fe16 2.452386 1_555
Fe12 Fe15 2.569495 1_555
Fe12 Fe8 2.589111 1_554
Fe12 Fe5 2.589111 1_554
Fe12 Fe24 2.772541 1_555
Fe12 Fe27 2.772541 1_555
Fe13 Fe32 2.439178 1_555
Fe13 Fe29 2.439178 1_555
Fe13 Fe15 2.451690 1_555
Fe13 Fe2 2.523384 1_555
Fe13 Fe17 2.568853 1_555
Fe13 Fe6 2.588831 1_555
Fe13 Fe3 2.588831 1_555
Fe13 Fe27 2.772269 1_555
Fe13 Fe24 2.772269 1_555
Fe14 Fe30 2.439531 1_565
Fe14 Fe33 2.439531 1_565
Fe14 Fe17 2.451690 1_555
Fe14 Fe9 2.523215 1_655
Fe14 Fe16 2.569495 1_555
Fe14 Fe7 2.589227 1_565
Fe14 Fe4 2.589227 1_565
Fe14 Fe27 2.772436 1_555
Fe14 Fe24 2.772436 1_555
Fe15 Fe31 2.439531 1_554
Fe15 Fe28 2.439531 1_554
Fe15 Fe2 2.523215 1_555
Fe15 Fe7 2.589227 1_554
Fe15 Fe4 2.589227 1_554
Fe15 Fe27 2.772436 1_555
Fe15 Fe24 2.772436 1_555
Fe16 Fe30 2.439472 1_565
Fe16 Fe33 2.439472 1_565
Fe16 Fe6 2.589111 1_565
Fe16 Fe3 2.589111 1_565
Fe16 Fe27 2.772541 1_555
Fe16 Fe24 2.772541 1_555
Fe17 Fe32 2.439178 1_555
Fe17 Fe29 2.439178 1_555
Fe17 Fe9 2.523384 1_655
Fe17 Fe8 2.588831 1_555
Fe17 Fe5 2.588831 1_555
Fe17 Fe24 2.772269 1_555
Fe17 Fe27 2.772269 1_555
Fe18 Fe22 2.425827 1_555
Fe18 Fe28 2.455993 1_555
Fe18 Fe31 2.455993 1_455
Fe18 Fe4 2.530054 1_555
Fe18 Fe7 2.530054 1_455
Fe18 Fe21 2.574135 1_555
Fe18 Fe2 2.608184 1_556
Fe18 Fe25 2.767975 1_555
Fe18 Fe26 2.767975 1_555
Fe18 Nd0 3.048238 1_556
Fe19 Fe21 2.425338 1_555
Fe19 Fe29 2.456013 1_555
Fe19 Fe32 2.456013 1_455
Fe19 Fe5 2.529895 1_555
Fe19 Fe8 2.529895 1_455
Fe19 Fe23 2.573647 1_555
Fe19 Fe9 2.607965 1_555
Fe19 Fe26 2.767754 1_555
Fe19 Fe25 2.767754 1_555
Fe19 Nd0 3.047190 1_555
Fe20 Fe23 2.425338 1_555
Fe20 Fe30 2.456105 1_555
Fe20 Fe33 2.456105 1_455
Fe20 Fe3 2.529864 1_555
Fe20 Fe6 2.529864 1_455
Fe20 Fe22 2.574135 1_555
Fe20 Fe25 2.767887 1_555
Fe20 Fe26 2.767887 1_555
Fe20 Nd0 3.048733 1_545
Fe21 Fe28 2.456105 1_555
Fe21 Fe31 2.456105 1_455
Fe21 Fe8 2.529864 1_455
Fe21 Fe5 2.529864 1_555
Fe21 Fe25 2.767887 1_555
Fe21 Fe26 2.767887 1_555
Fe21 Nd0 3.048733 1_556
Fe22 Fe33 2.455993 1_455
Fe22 Fe30 2.455993 1_555
Fe22 Fe7 2.530054 1_455
Fe22 Fe4 2.530054 1_555
Fe22 Fe9 2.608184 1_545
Fe22 Fe25 2.767975 1_555
Fe22 Fe26 2.767975 1_555
Fe22 Nd0 3.048238 1_545
Fe23 Fe29 2.456013 1_555
Fe23 Fe32 2.456013 1_455
Fe23 Fe6 2.529895 1_455
Fe23 Fe3 2.529895 1_555
Fe23 Fe26 2.767754 1_555
Fe23 Fe25 2.767754 1_555
Fe23 Nd0 3.047190 1_555
Fe24 Fe27 2.351186 1_555
Fe24 Fe29 2.615277 1_555
Fe24 Fe28 2.615590 1_554
Fe24 Fe30 2.615590 1_565
Fe24 Nd0 2.945679 1_555
Fe25 Fe26 2.375369 1_555
Fe25 Fe29 2.596182 1_555
Fe25 Fe30 2.596518 1_555
Fe25 Fe28 2.596518 1_555
Fe25 Fe5 2.665131 1_555
Fe25 Fe3 2.665131 1_555
Fe25 Fe4 2.665207 1_555
Fe26 Fe32 2.596182 1_455
Fe26 Fe33 2.596518 1_455
Fe26 Fe31 2.596518 1_455
Fe26 Fe6 2.665131 1_455
Fe26 Fe8 2.665131 1_455
Fe26 Fe7 2.665207 1_455
Fe27 Fe32 2.615277 1_555
Fe27 Fe31 2.615590 1_554
Fe27 Fe33 2.615590 1_565
Fe27 Fe9 2.676042 1_655
Fe27 Nd0 2.945679 1_655
Fe28 Fe5 2.456749 1_555
Fe28 Fe4 2.456771 1_555
Fe28 Nd0 3.219151 1_556
Fe29 Fe5 2.456382 1_555
Fe29 Fe3 2.456382 1_555
Fe29 Nd0 3.218499 1_555
Fe30 Fe4 2.456771 1_555
Fe30 Nd0 3.219151 1_545
Fe31 Fe8 2.456749 1_555
Fe31 Fe7 2.456771 1_555
Fe31 Nd0 3.219151 1_656
Fe32 Fe6 2.456382 1_555
Fe32 Fe8 2.456382 1_555
Fe32 Fe9 2.474800 1_655
Fe32 Nd0 3.218499 1_655
Fe33 Fe6 2.456749 1_555
Fe33 Fe7 2.456771 1_555
Fe33 Fe9 2.474843 1_645
Fe33 Nd0 3.219151 1_645
