# generated using pymatgen
data_Lu4Ge6Os7
_symmetry_space_group_name_H-M   'P 1'
_cell_length_a   7.14372933
_cell_length_b   7.14372933
_cell_length_c   7.14372933
_cell_angle_alpha   109.47122063
_cell_angle_beta   109.47122063
_cell_angle_gamma   109.47122063
_symmetry_Int_Tables_number   1
_chemical_formula_structural   Lu4Ge6Os7
_chemical_formula_sum   'Lu4 Ge6 Os7'
_cell_volume   280.64226844
_cell_formula_units_Z   1
loop_
 _symmetry_equiv_pos_site_id
 _symmetry_equiv_pos_as_xyz
  1  'x, y, z'
loop_
 _atom_site_type_symbol
 _atom_site_label
 _atom_site_symmetry_multiplicity
 _atom_site_fract_x
 _atom_site_fract_y
 _atom_site_fract_z
 _atom_site_occupancy
  Lu  Lu0  1  0.00000000  -0.00000000  0.50000000  1
  Lu  Lu1  1  0.00000000  0.50000000  -0.00000000  1
  Lu  Lu2  1  0.50000000  -0.00000000  -0.00000000  1
  Lu  Lu3  1  0.50000000  0.50000000  0.50000000  1
  Ge  Ge0  1  0.69038526  0.69038526  0.00000000  1
  Ge  Ge1  1  0.30961474  -0.00000000  0.30961474  1
  Ge  Ge2  1  -0.00000000  0.30961474  0.30961474  1
  Ge  Ge3  1  0.30961474  0.30961474  -0.00000000  1
  Ge  Ge4  1  0.69038526  0.00000000  0.69038526  1
  Ge  Ge5  1  0.00000000  0.69038526  0.69038526  1
  Os  Os0  1  0.75000000  0.25000000  0.50000000  1
  Os  Os1  1  0.75000000  0.50000000  0.25000000  1
  Os  Os2  1  0.50000000  0.25000000  0.75000000  1
  Os  Os3  1  0.25000000  0.50000000  0.75000000  1
  Os  Os4  1  0.25000000  0.75000000  0.50000000  1
  Os  Os5  1  0.50000000  0.75000000  0.25000000  1
  Os  Os6  1  0.00000000  -0.00000000  -0.00000000  1
loop_
_geom_bond_atom_site_label_1
_geom_bond_atom_site_label_2
_geom_bond_distance
_geom_bond_site_symmetry_2
Lu0 Os1 2.916415 1_445
Lu0 Os3 2.916415 1_555
Lu0 Os4 2.916415 1_545
Lu0 Os5 2.916415 1_445
Lu0 Os2 2.916415 1_555
Lu0 Os0 2.916415 1_455
Lu1 Os0 2.916415 1_454
Lu1 Os3 2.916415 1_554
Lu1 Os4 2.916415 1_555
Lu1 Os2 2.916415 1_454
Lu1 Os5 2.916415 1_555
Lu1 Os1 2.916415 1_455
Lu2 Os0 2.916415 1_555
Lu2 Os3 2.916415 1_544
Lu2 Os2 2.916415 1_554
Lu2 Os1 2.916415 1_555
Lu2 Os4 2.916415 1_544
Lu2 Os5 2.916415 1_545
Lu3 Os0 2.916415 1_555
Lu3 Os3 2.916415 1_555
Lu3 Os4 2.916415 1_555
Lu3 Os1 2.916415 1_555
Lu3 Os2 2.916415 1_555
Lu3 Os5 2.916415 1_555
Ge0 Os6 2.553971 1_665
Ge0 Os5 2.592121 1_555
Ge0 Os2 2.592121 1_554
Ge0 Os3 2.592121 1_554
Ge0 Os1 2.592121 1_555
Ge0 Lu2 2.957584 1_565
Ge0 Lu3 2.957584 1_554
Ge0 Lu1 2.957584 1_655
Ge0 Lu0 2.957584 1_665
Ge1 Os6 2.553971 1_555
Ge1 Os0 2.592121 1_555
Ge1 Os2 2.592121 1_555
Ge1 Os5 2.592121 1_545
Ge1 Os4 2.592121 1_545
Ge1 Lu2 2.957584 1_555
Ge1 Lu3 2.957584 1_555
Ge1 Lu0 2.957584 1_555
Ge1 Lu1 2.957584 1_545
Ge2 Os6 2.553971 1_555
Ge2 Os0 2.592121 1_455
Ge2 Os1 2.592121 1_455
Ge2 Os3 2.592121 1_555
Ge2 Os4 2.592121 1_555
Ge2 Lu1 2.957584 1_555
Ge2 Lu3 2.957584 1_555
Ge2 Lu0 2.957584 1_555
Ge2 Lu2 2.957584 1_455
Ge3 Os6 2.553971 1_555
Ge3 Os5 2.592121 1_555
Ge3 Os2 2.592121 1_554
Ge3 Os3 2.592121 1_554
Ge3 Os1 2.592121 1_555
Ge3 Lu0 2.957584 1_554
Ge3 Lu2 2.957584 1_555
Ge3 Lu3 2.957584 1_555
Ge3 Lu1 2.957584 1_555
Ge4 Os6 2.553971 1_656
Ge4 Os4 2.592121 1_545
Ge4 Os2 2.592121 1_555
Ge4 Os5 2.592121 1_545
Ge4 Os0 2.592121 1_555
Ge4 Lu3 2.957584 1_545
Ge4 Lu0 2.957584 1_655
Ge4 Lu2 2.957584 1_556
Ge4 Lu1 2.957584 1_656
Ge5 Os6 2.553971 1_566
Ge5 Os0 2.592121 1_455
Ge5 Os1 2.592121 1_455
Ge5 Os3 2.592121 1_555
Ge5 Os4 2.592121 1_555
Ge5 Lu1 2.957584 1_556
Ge5 Lu3 2.957584 1_455
Ge5 Lu2 2.957584 1_566
Ge5 Lu0 2.957584 1_565
