# generated using pymatgen
data_TbCrO4
_symmetry_space_group_name_H-M   'P 1'
_cell_length_a   5.93592459
_cell_length_b   5.93593654
_cell_length_c   5.93589976
_cell_angle_alpha   106.16675626
_cell_angle_beta   106.16661000
_cell_angle_gamma   116.30426565
_symmetry_Int_Tables_number   1
_chemical_formula_structural   TbCrO4
_chemical_formula_sum   'Tb2 Cr2 O8'
_cell_volume   159.26849162
_cell_formula_units_Z   2
loop_
 _symmetry_equiv_pos_site_id
 _symmetry_equiv_pos_as_xyz
  1  'x, y, z'
loop_
 _atom_site_type_symbol
 _atom_site_label
 _atom_site_symmetry_multiplicity
 _atom_site_fract_x
 _atom_site_fract_y
 _atom_site_fract_z
 _atom_site_occupancy
  Tb  Tb0  1  0.12499598  0.87500221  0.25000111  1
  Tb  Tb1  1  0.87500170  0.12499859  0.74999811  1
  Cr  Cr0  1  0.37499650  0.62500752  0.75000060  1
  Cr  Cr1  1  0.62499650  0.37499795  0.24999926  1
  O  O0  1  0.79421086  0.73148338  0.42770811  1
  O  O1  1  0.36651376  0.79421000  0.56271465  1
  O  O2  1  0.73148903  0.80378467  0.93727642  1
  O  O3  1  0.80377509  0.36649920  0.07230287  1
  O  O4  1  0.63349988  0.19622635  0.42769829  1
  O  O5  1  0.19621043  0.26850866  0.56271851  1
  O  O6  1  0.26852141  0.20579580  0.07229411  1
  O  O7  1  0.20579187  0.63348866  0.93728795  1
loop_
_geom_bond_atom_site_label_1
_geom_bond_atom_site_label_2
_geom_bond_distance
_geom_bond_site_symmetry_2
Cr0 O1 1.697834 1_555
Cr0 O7 1.697846 1_555
Cr0 O2 1.697859 1_555
Cr0 O5 1.697889 1_555
Cr1 O4 1.697763 1_555
Cr1 O3 1.697777 1_555
Cr1 O6 1.697780 1_555
Cr1 O0 1.697825 1_555
O0 Tb1 2.313871 1_565
O0 Tb0 2.421809 1_655
O1 Tb0 2.313889 1_555
O1 Tb1 2.421781 1_565
O2 Tb0 2.313860 1_656
O2 Tb1 2.421809 1_565
O3 Tb1 2.313942 1_554
O3 Tb0 2.421865 1_655
O4 Tb1 2.313932 1_555
O4 Tb0 2.421869 1_545
O5 Tb0 2.313847 1_545
O5 Tb1 2.421786 1_455
O6 Tb1 2.313889 1_454
O6 Tb0 2.421856 1_545
O7 Tb0 2.313888 1_556
O7 Tb1 2.421790 1_455
