# generated using pymatgen
data_BH
_symmetry_space_group_name_H-M   'P 1'
_cell_length_a   7.11935317
_cell_length_b   7.11935317
_cell_length_c   10.82884391
_cell_angle_alpha   89.73188219
_cell_angle_beta   89.73188219
_cell_angle_gamma   117.91767792
_symmetry_Int_Tables_number   1
_chemical_formula_structural   BH
_chemical_formula_sum   'B24 H24'
_cell_volume   484.96614214
_cell_formula_units_Z   24
loop_
 _symmetry_equiv_pos_site_id
 _symmetry_equiv_pos_as_xyz
  1  'x, y, z'
loop_
 _atom_site_type_symbol
 _atom_site_label
 _atom_site_symmetry_multiplicity
 _atom_site_fract_x
 _atom_site_fract_y
 _atom_site_fract_z
 _atom_site_occupancy
  B  B0  1  0.81627100  0.16668500  0.59446500  1
  B  B1  1  0.83331500  0.18372900  0.90553500  1
  B  B2  1  0.18372900  0.83331500  0.40553500  1
  B  B3  1  0.16668500  0.81627100  0.09446500  1
  B  B4  1  0.87803000  0.98935000  0.68236700  1
  B  B5  1  0.01065000  0.12197000  0.81763300  1
  B  B6  1  0.12197000  0.01065000  0.31763300  1
  B  B7  1  0.98935000  0.87803000  0.18236700  1
  B  B8  1  0.63711000  0.22479500  0.68285100  1
  B  B9  1  0.77520500  0.36289000  0.81714900  1
  B  B10  1  0.36289000  0.77520500  0.31714900  1
  B  B11  1  0.22479500  0.63711000  0.18285100  1
  B  B12  1  0.73696600  0.94142400  0.82425800  1
  B  B13  1  0.05857600  0.26303400  0.67574200  1
  B  B14  1  0.26303400  0.05857600  0.17574200  1
  B  B15  1  0.94142400  0.73696600  0.32425800  1
  B  B16  1  0.59144800  0.08668300  0.82379400  1
  B  B17  1  0.91331700  0.40855200  0.67620600  1
  B  B18  1  0.40855200  0.91331700  0.17620600  1
  B  B19  1  0.08668300  0.59144800  0.32379400  1
  B  B20  1  0.60904200  0.96139900  0.68544500  1
  B  B21  1  0.03860100  0.39095800  0.81455500  1
  B  B22  1  0.39095800  0.03860100  0.31455500  1
  B  B23  1  0.96139900  0.60904200  0.18544500  1
  H  H0  1  0.85525400  0.90481300  0.12973800  1
  H  H1  1  0.09518700  0.14474600  0.37026200  1
  H  H2  1  0.14474600  0.09518700  0.87026200  1
  H  H3  1  0.90481300  0.85525400  0.62973800  1
  H  H4  1  0.50572700  0.26067200  0.63241700  1
  H  H5  1  0.73932800  0.49427300  0.86758300  1
  H  H6  1  0.49427300  0.73932800  0.36758300  1
  H  H7  1  0.26067200  0.50572700  0.13241700  1
  H  H8  1  0.66564100  0.76807800  0.87520600  1
  H  H9  1  0.23192200  0.33435900  0.62479400  1
  H  H10  1  0.33435900  0.23192200  0.12479400  1
  H  H11  1  0.76807800  0.66564100  0.37520600  1
  H  H12  1  0.43058900  0.03180900  0.88558700  1
  H  H13  1  0.96819100  0.56941100  0.61441300  1
  H  H14  1  0.56941100  0.96819100  0.11441300  1
  H  H15  1  0.03180900  0.43058900  0.38558700  1
  H  H16  1  0.46487000  0.81232100  0.63868800  1
  H  H17  1  0.18767900  0.53513000  0.86131200  1
  H  H18  1  0.53513000  0.18767900  0.36131200  1
  H  H19  1  0.81232100  0.46487000  0.13868800  1
  H  H20  1  0.19125700  0.84425800  0.51719400  1
  H  H21  1  0.15574200  0.80874300  0.98280600  1
  H  H22  1  0.80874300  0.15574200  0.48280600  1
  H  H23  1  0.84425800  0.19125700  0.01719400  1
loop_
_geom_bond_atom_site_label_1
_geom_bond_atom_site_label_2
_geom_bond_distance
_geom_bond_site_symmetry_2
B0 H22 1.211831 1_555
B1 H23 1.211831 1_556
B2 H20 1.211831 1_555
B3 H21 1.211831 1_554
B4 H3 1.202954 1_555
B5 H2 1.202954 1_555
B6 H1 1.202954 1_555
B7 H0 1.202954 1_555
B8 H4 1.210622 1_555
B9 H5 1.210622 1_555
B10 H6 1.210622 1_555
B11 H7 1.210622 1_555
B12 H8 1.220431 1_555
B13 H9 1.220431 1_555
B14 H10 1.220431 1_555
B15 H11 1.220431 1_555
B16 H12 1.217919 1_555
B17 H13 1.217919 1_555
B18 H14 1.217919 1_555
B19 H15 1.217919 1_555
B20 H16 1.194205 1_555
B21 H17 1.194205 1_555
B22 H18 1.194205 1_555
B23 H19 1.194205 1_555
