# generated using pymatgen
data_HoZrCo4
_symmetry_space_group_name_H-M   'P 1'
_cell_length_a   4.96236726
_cell_length_b   4.96244765
_cell_length_c   4.96248639
_cell_angle_alpha   59.99980057
_cell_angle_beta   59.99928569
_cell_angle_gamma   59.99898115
_symmetry_Int_Tables_number   1
_chemical_formula_structural   HoZrCo4
_chemical_formula_sum   'Ho1 Zr1 Co4'
_cell_volume   86.40976601
_cell_formula_units_Z   1
loop_
 _symmetry_equiv_pos_site_id
 _symmetry_equiv_pos_as_xyz
  1  'x, y, z'
loop_
 _atom_site_type_symbol
 _atom_site_label
 _atom_site_symmetry_multiplicity
 _atom_site_fract_x
 _atom_site_fract_y
 _atom_site_fract_z
 _atom_site_occupancy
  Ho  Ho0  1  0.24999617  0.25000161  0.25000111  1
  Zr  Zr0  1  0.00000577  0.99999700  -0.00000075  1
  Co  Co0  1  0.62511271  0.62511317  0.12466175  1
  Co  Co1  1  0.62511271  0.12466194  0.62511274  1
  Co  Co2  1  0.12466112  0.62511343  0.62511228  1
  Co  Co3  1  0.62511252  0.62511285  0.62511287  1
loop_
_geom_bond_atom_site_label_1
_geom_bond_atom_site_label_2
_geom_bond_distance
_geom_bond_site_symmetry_2
Ho0 Zr0 3.038818 1_645
Ho0 Zr0 3.038825 1_555
Ho0 Zr0 3.038860 1_545
Ho0 Zr0 3.038869 1_546
Co0 Co2 2.478948 1_654
Co0 Co1 2.478987 1_564
Co0 Co3 2.479006 1_554
Co0 Co2 2.483425 1_555
Co0 Co1 2.483465 1_555
Co0 Co3 2.483481 1_555
Co0 Zr0 2.909166 1_555
Co0 Zr0 2.909240 1_645
Co0 Zr0 2.909248 1_655
Co0 Ho0 2.909653 1_655
Co0 Ho0 2.909708 1_565
Co0 Ho0 2.909725 1_555
Co1 Co2 2.478925 1_645
Co1 Co3 2.478986 1_545
Co1 Co2 2.483406 1_555
Co1 Co3 2.483461 1_555
Co1 Zr0 2.909181 1_546
Co1 Zr0 2.909260 1_645
Co1 Zr0 2.909262 1_646
Co1 Ho0 2.909663 1_655
Co1 Ho0 2.909732 1_555
Co1 Ho0 2.909735 1_556
Co2 Co3 2.478944 1_455
Co2 Co3 2.483424 1_555
Co2 Zr0 2.909252 1_546
Co2 Zr0 2.909254 1_555
Co2 Zr0 2.909261 1_556
Co2 Ho0 2.909725 1_565
Co2 Ho0 2.909738 1_555
Co2 Ho0 2.909743 1_556
Co3 Zr0 2.909170 1_556
Co3 Zr0 2.909242 1_646
Co3 Zr0 2.909251 1_655
Co3 Ho0 2.909655 1_655
Co3 Ho0 2.909710 1_565
Co3 Ho0 2.909727 1_556
