# generated using pymatgen
data_Ca4Cd3Au5
_symmetry_space_group_name_H-M   'P 1'
_cell_length_a   4.25070689
_cell_length_b   7.41004286
_cell_length_c   8.85585103
_cell_angle_alpha   90.26640017
_cell_angle_beta   90.00000000
_cell_angle_gamma   90.00000000
_symmetry_Int_Tables_number   1
_chemical_formula_structural   Ca4Cd3Au5
_chemical_formula_sum   'Ca4 Cd3 Au5'
_cell_volume   278.93787419
_cell_formula_units_Z   1
loop_
 _symmetry_equiv_pos_site_id
 _symmetry_equiv_pos_as_xyz
  1  'x, y, z'
loop_
 _atom_site_type_symbol
 _atom_site_label
 _atom_site_symmetry_multiplicity
 _atom_site_fract_x
 _atom_site_fract_y
 _atom_site_fract_z
 _atom_site_occupancy
  Ca  Ca0  1  0.50000000  0.54336944  0.81466973  1
  Ca  Ca1  1  0.50000000  0.03931268  0.67639568  1
  Ca  Ca2  1  0.00000000  0.46360153  0.19344547  1
  Ca  Ca3  1  0.00000000  0.94217327  0.32515492  1
  Cd  Cd0  1  0.50000000  0.14390452  0.06311484  1
  Cd  Cd1  1  0.00000000  0.36439382  0.55993649  1
  Cd  Cd2  1  0.00000000  0.86277535  0.93694025  1
  Au  Au0  1  0.50000000  0.74997164  0.12418394  1
  Au  Au1  1  0.50000000  0.24534534  0.37114533  1
  Au  Au2  1  0.00000000  0.25070423  0.86839658  1
  Au  Au3  1  0.00000000  0.74711830  0.63389160  1
  Au  Au4  1  0.50000000  0.64732987  0.43272317  1
loop_
_geom_bond_atom_site_label_1
_geom_bond_atom_site_label_2
_geom_bond_distance
_geom_bond_site_symmetry_2
Ca2 Cd1 3.331135 1_555
Ca2 Cd0 3.381696 1_455
Ca2 Cd0 3.381696 1_555
Au0 Cd2 2.824597 1_654
Au0 Cd2 2.824597 1_554
Au0 Au4 2.839664 1_555
Au0 Cd0 2.971207 1_565
Au0 Ca2 3.067312 1_655
Au0 Ca2 3.067312 1_555
Au0 Ca3 3.112803 1_655
Au0 Ca3 3.112803 1_555
Au0 Ca0 3.133349 1_554
Au1 Cd0 2.826171 1_555
Au1 Cd1 2.841985 1_555
Au1 Cd1 2.841985 1_655
Au1 Au4 3.025733 1_555
Au1 Ca2 3.103690 1_555
Au1 Ca2 3.103690 1_655
Au1 Ca1 3.110754 1_555
Au1 Ca3 3.117907 1_645
Au1 Ca3 3.117907 1_545
Au2 Cd0 2.851255 1_556
Au2 Cd0 2.851255 1_456
Au2 Cd1 2.862371 1_555
Au2 Cd2 2.940721 1_545
Au2 Ca0 3.075093 1_455
Au2 Ca0 3.075093 1_555
Au2 Ca1 3.136425 1_455
Au2 Ca1 3.136425 1_555
Au2 Ca2 3.276091 1_556
Au3 Cd2 2.813474 1_555
Au3 Au4 2.868004 1_555
Au3 Au4 2.868004 1_455
Au3 Cd1 2.907678 1_555
Au3 Ca1 3.056012 1_465
Au3 Ca1 3.056012 1_565
Au3 Ca0 3.063019 1_455
Au3 Ca0 3.063019 1_555
Au3 Ca3 3.098592 1_555
Au4 Cd1 3.194351 1_555
Au4 Cd1 3.194351 1_655
Au4 Ca3 3.196452 1_555
Au4 Ca3 3.196452 1_655
Au4 Ca2 3.291504 1_555
Au4 Ca2 3.291504 1_655
Au4 Ca0 3.472567 1_555
Au4 Ca1 3.610418 1_565
