# generated using pymatgen
data_ErTiFe11N
_symmetry_space_group_name_H-M   'P 1'
_cell_length_a   4.77752400
_cell_length_b   6.52223015
_cell_length_c   6.52223015
_cell_angle_alpha   97.29555604
_cell_angle_beta   111.48448484
_cell_angle_gamma   68.51551516
_symmetry_Int_Tables_number   1
_chemical_formula_structural   ErTiFe11N
_chemical_formula_sum   'Er1 Ti1 Fe11 N1'
_cell_volume   175.96598450
_cell_formula_units_Z   1
loop_
 _symmetry_equiv_pos_site_id
 _symmetry_equiv_pos_as_xyz
  1  'x, y, z'
loop_
 _atom_site_type_symbol
 _atom_site_label
 _atom_site_symmetry_multiplicity
 _atom_site_fract_x
 _atom_site_fract_y
 _atom_site_fract_z
 _atom_site_occupancy
  Er  Er0  1  0.00673200  0.99326800  0.00673200  1
  Ti  Ti0  1  0.63501500  0.36498500  0.63501500  1
  Fe  Fe0  1  0.72582900  0.77417100  0.22582900  1
  Fe  Fe1  1  0.27744500  0.22255500  0.77744500  1
  Fe  Fe2  1  0.49738800  0.78000100  0.77477700  1
  Fe  Fe3  1  0.49738800  0.22522300  0.21999900  1
  Fe  Fe4  1  0.49996100  0.99747200  0.49857900  1
  Fe  Fe5  1  0.00114600  0.99747200  0.49857900  1
  Fe  Fe6  1  0.49996100  0.50142100  0.00252800  1
  Fe  Fe7  1  0.00114600  0.50142100  0.00252800  1
  Fe  Fe8  1  0.35698400  0.64301600  0.35698400  1
  Fe  Fe9  1  0.99982200  0.35912100  0.35876400  1
  Fe  Fe10  1  0.99982200  0.64123600  0.64087900  1
  N  N0  1  0.50136100  0.99863900  0.00136100  1
loop_
_geom_bond_atom_site_label_1
_geom_bond_atom_site_label_2
_geom_bond_distance
_geom_bond_site_symmetry_2
Er0 N0 2.389203 1_455
Er0 N0 2.389203 1_555
Er0 Fe10 3.094036 1_454
Er0 Fe9 3.094036 1_465
Er0 Ti0 3.177218 1_464
Er0 Fe7 3.214370 1_555
Er0 Fe6 3.214370 1_555
Er0 Fe4 3.214370 1_555
Er0 Fe5 3.214370 1_555
Er0 Fe4 3.308133 1_454
Er0 Fe5 3.308133 1_554
Er0 Fe6 3.308133 1_465
Er0 Fe7 3.308133 1_565
Fe0 N0 1.918620 1_555
Fe0 Fe7 2.459090 1_655
Fe0 Fe6 2.459090 1_555
Fe0 Fe5 2.459090 1_655
Fe0 Fe4 2.459090 1_555
Fe0 Fe9 2.638652 1_555
Fe0 Fe10 2.638652 1_555
Fe1 N0 1.913902 1_546
Fe1 Fe4 2.487655 1_545
Fe1 Fe6 2.487655 1_556
Fe1 Fe5 2.487655 1_545
Fe1 Fe7 2.487655 1_556
Fe1 Fe10 2.666236 1_455
Fe1 Fe9 2.666236 1_455
Fe1 Ti0 2.681094 1_555
Fe1 Ti0 2.681094 1_455
Fe2 N0 1.918828 1_556
Fe2 Fe4 2.436200 1_555
Fe2 Fe5 2.436200 1_555
Fe2 Fe7 2.482699 1_656
Fe2 Fe6 2.482699 1_556
Fe2 Ti0 2.664371 1_555
Fe3 N0 1.918828 1_545
Fe3 Fe6 2.436200 1_555
Fe3 Fe7 2.436200 1_555
Fe3 Fe5 2.482699 1_645
Fe3 Fe4 2.482699 1_545
Fe3 Fe9 2.662161 1_455
Fe3 Fe9 2.662165 1_555
Fe3 Ti0 2.664371 1_555
Fe4 Fe5 2.383101 1_555
Fe4 Fe5 2.394423 1_655
Fe4 Fe8 2.610844 1_555
Fe4 Fe9 2.631820 1_465
Fe4 Ti0 2.669154 1_565
Fe5 Fe8 2.610844 1_555
Fe5 Fe9 2.631822 1_465
Fe5 Ti0 2.669154 1_465
Fe6 Fe7 2.383101 1_555
Fe6 Fe7 2.394423 1_655
Fe6 Fe8 2.610844 1_555
Fe6 Fe9 2.612016 1_555
Fe6 Ti0 2.669154 1_554
Fe7 Fe8 2.610844 1_555
Fe7 Fe9 2.612013 1_455
Fe7 Ti0 2.669154 1_454
Fe8 Ti0 2.376445 1_555
Fe8 Fe9 2.945269 1_455
Fe8 Fe9 2.945273 1_555
Fe9 Ti0 2.918792 1_655
Fe9 Ti0 2.918795 1_555
Fe10 Fe9 2.431350 1_555
Fe10 Fe5 2.612013 1_655
Fe10 Fe4 2.612016 1_555
Fe10 Fe6 2.631820 1_656
Fe10 Fe7 2.631822 1_656
Fe10 Fe2 2.662161 1_655
Fe10 Fe2 2.662165 1_555
Fe10 Ti0 2.918792 1_655
Fe10 Ti0 2.918795 1_555
Fe10 Fe8 2.945269 1_655
Fe10 Fe8 2.945273 1_555
