# generated using pymatgen
data_K3Ta2AsS11
_symmetry_space_group_name_H-M   'P 1'
_cell_length_a   9.73403259
_cell_length_b   9.73403259
_cell_length_c   9.66299525
_cell_angle_alpha   82.84427111
_cell_angle_beta   82.84427111
_cell_angle_gamma   82.55610423
_symmetry_Int_Tables_number   1
_chemical_formula_structural   K3Ta2AsS11
_chemical_formula_sum   'K6 Ta4 As2 S22'
_cell_volume   895.30756527
_cell_formula_units_Z   2
loop_
 _symmetry_equiv_pos_site_id
 _symmetry_equiv_pos_as_xyz
  1  'x, y, z'
loop_
 _atom_site_type_symbol
 _atom_site_label
 _atom_site_symmetry_multiplicity
 _atom_site_fract_x
 _atom_site_fract_y
 _atom_site_fract_z
 _atom_site_occupancy
  K  K0  1  0.90819100  0.07452200  0.07639000  1
  K  K1  1  0.07452200  0.90819100  0.57639000  1
  K  K2  1  0.53959300  0.68976500  0.66706300  1
  K  K3  1  0.68976500  0.53959300  0.16706300  1
  K  K4  1  0.30102500  0.43481500  0.33234100  1
  K  K5  1  0.43481500  0.30102500  0.83234100  1
  Ta  Ta0  1  0.34015200  0.79879700  0.05437100  1
  Ta  Ta1  1  0.79879700  0.34015200  0.55437100  1
  Ta  Ta2  1  0.46747100  0.04644300  0.23855700  1
  Ta  Ta3  1  0.04644300  0.46747100  0.73855700  1
  As  As0  1  0.68340800  0.98481700  0.50111900  1
  As  As1  1  0.98481700  0.68340800  0.00111900  1
  S  S0  1  0.36799600  0.77866400  0.30749300  1
  S  S1  1  0.77866400  0.36799600  0.80749300  1
  S  S2  1  0.67418100  0.87306400  0.30624100  1
  S  S3  1  0.87306400  0.67418100  0.80624100  1
  S  S4  1  0.56949500  0.89937500  0.02830600  1
  S  S5  1  0.89937500  0.56949500  0.52830600  1
  S  S6  1  0.94889700  0.45375800  0.35747400  1
  S  S7  1  0.45375800  0.94889700  0.85747400  1
  S  S8  1  0.21843600  0.12648300  0.29538400  1
  S  S9  1  0.12648300  0.21843600  0.79538400  1
  S  S10  1  0.45933100  0.07796100  0.49129400  1
  S  S11  1  0.07796100  0.45933100  0.99129400  1
  S  S12  1  0.16523800  0.77085100  0.25989300  1
  S  S13  1  0.77085100  0.16523800  0.75989300  1
  S  S14  1  0.42060600  0.58284700  0.00150100  1
  S  S15  1  0.58284700  0.42060600  0.50150100  1
  S  S16  1  0.57277000  0.23430900  0.15042000  1
  S  S17  1  0.23430900  0.57277000  0.65042000  1
  S  S18  1  0.27374900  0.08110800  0.09056700  1
  S  S19  1  0.08110800  0.27374900  0.59056700  1
  S  S20  1  0.83524900  0.14141500  0.40688600  1
  S  S21  1  0.14141500  0.83524900  0.90688600  1
loop_
_geom_bond_atom_site_label_1
_geom_bond_atom_site_label_2
_geom_bond_distance
_geom_bond_site_symmetry_2
K0 S20 3.310654 1_555
K0 S21 3.451849 1_644
K0 S13 3.458343 1_554
K0 S16 3.459856 1_555
K0 S9 3.498115 1_654
K0 S2 3.574790 1_545
K0 S18 3.587129 1_655
K1 S21 3.310654 1_555
K1 S20 3.451849 1_465
K1 S12 3.458343 1_555
K1 S17 3.459856 1_555
K1 S8 3.498115 1_565
K1 S3 3.574790 1_455
K1 S19 3.587129 1_565
K2 S15 3.192450 1_555
K2 S7 3.266978 1_555
K2 S17 3.345900 1_555
K2 S14 3.377906 1_556
K2 S3 3.643832 1_555
K2 S5 3.686748 1_555
K3 S14 3.192450 1_555
K3 S6 3.266978 1_555
K3 S16 3.345900 1_555
K3 S15 3.377906 1_555
K3 S2 3.643832 1_555
K3 S4 3.686748 1_555
K4 S8 3.278025 1_555
K4 S15 3.343505 1_555
K4 S12 3.387663 1_555
K4 S6 3.388451 1_455
K4 S19 3.439626 1_555
K4 S17 3.460785 1_555
K4 S14 3.465734 1_555
K4 S0 3.465751 1_555
K4 S16 3.500718 1_555
K5 S9 3.278025 1_555
K5 S14 3.343505 1_556
K5 S13 3.387663 1_555
K5 S7 3.388451 1_545
K5 S18 3.439626 1_556
K5 S16 3.460785 1_556
K5 S15 3.465734 1_555
K5 S1 3.465751 1_555
K5 S17 3.500718 1_555
As0 S10 2.259713 1_565
As0 S20 2.289097 1_565
As0 S2 2.305486 1_555
As0 K2 3.480633 1_555
As1 S11 2.259713 1_654
As1 S21 2.289097 1_654
As1 S3 2.305486 1_554
As1 K3 3.480633 1_555
S0 S12 2.094379 1_555
S0 Ta0 2.475146 1_555
S0 Ta2 2.869884 1_565
S1 S13 2.094379 1_555
S1 Ta1 2.475146 1_555
S1 Ta3 2.869884 1_655
S2 Ta2 2.549042 1_565
S3 Ta3 2.549042 1_655
S4 S7 2.085881 1_554
S4 Ta0 2.523983 1_555
S4 Ta2 2.648925 1_565
S5 S6 2.085881 1_555
S5 Ta1 2.523983 1_555
S5 Ta3 2.648925 1_655
S6 Ta1 2.485861 1_555
S7 Ta0 2.485861 1_556
S8 Ta2 2.463832 1_555
S9 Ta3 2.463832 1_555
S10 Ta2 2.489354 1_555
S11 Ta3 2.489354 1_555
S12 Ta0 2.461698 1_555
S13 Ta1 2.461698 1_555
S14 Ta0 2.243726 1_555
S15 Ta1 2.243726 1_555
S16 Ta2 2.236120 1_555
S17 Ta3 2.236120 1_555
S18 S8 2.071878 1_555
S18 Ta2 2.470104 1_555
S18 Ta0 2.795470 1_545
S19 S9 2.071878 1_555
S19 Ta3 2.470104 1_555
S19 Ta1 2.795470 1_455
S20 Ta1 2.506451 1_555
S21 Ta0 2.506451 1_556
