# generated using pymatgen
data_Ag3Bi8S13
_symmetry_space_group_name_H-M   'P 1'
_cell_length_a   6.92208031
_cell_length_b   6.92208031
_cell_length_c   21.84405501
_cell_angle_alpha   86.82055069
_cell_angle_beta   86.82055069
_cell_angle_gamma   35.07074555
_symmetry_Int_Tables_number   1
_chemical_formula_structural   Ag3Bi8S13
_chemical_formula_sum   'Ag3 Bi8 S13'
_cell_volume   600.38071492
_cell_formula_units_Z   1
loop_
 _symmetry_equiv_pos_site_id
 _symmetry_equiv_pos_as_xyz
  1  'x, y, z'
loop_
 _atom_site_type_symbol
 _atom_site_label
 _atom_site_symmetry_multiplicity
 _atom_site_fract_x
 _atom_site_fract_y
 _atom_site_fract_z
 _atom_site_occupancy
  Ag  Ag0  1  0.41817200  0.41817200  0.37544100  1
  Ag  Ag1  1  0.58182800  0.58182800  0.62455900  1
  Ag  Ag2  1  0.00000000  0.00000000  0.00000000  1
  Bi  Bi0  1  0.69895600  0.69895600  0.29620400  1
  Bi  Bi1  1  0.30104400  0.30104400  0.70379600  1
  Bi  Bi2  1  0.85948400  0.85948400  0.54168100  1
  Bi  Bi3  1  0.14051600  0.14051600  0.45831900  1
  Bi  Bi4  1  0.97722500  0.97722500  0.21351000  1
  Bi  Bi5  1  0.02277500  0.02277500  0.78649000  1
  Bi  Bi6  1  0.25965600  0.25965600  0.08092900  1
  Bi  Bi7  1  0.74034400  0.74034400  0.91907100  1
  S  S0  1  0.77739900  0.77739900  0.42301300  1
  S  S1  1  0.22260100  0.22260100  0.57698700  1
  S  S2  1  0.64454600  0.64454600  0.02780300  1
  S  S3  1  0.35545400  0.35545400  0.97219700  1
  S  S4  1  0.61546500  0.61546500  0.18610200  1
  S  S5  1  0.38453500  0.38453500  0.81389800  1
  S  S6  1  0.93578500  0.93578500  0.65822300  1
  S  S7  1  0.06421500  0.06421500  0.34177700  1
  S  S8  1  0.34149300  0.34149300  0.26493300  1
  S  S9  1  0.65850700  0.65850700  0.73506700  1
  S  S10  1  0.50000000  0.50000000  0.50000000  1
  S  S11  1  0.90150800  0.90150800  0.10306300  1
  S  S12  1  0.09849200  0.09849200  0.89693700  1
loop_
_geom_bond_atom_site_label_1
_geom_bond_atom_site_label_2
_geom_bond_distance
_geom_bond_site_symmetry_2
Ag0 S8 2.671325 1_555
Ag0 S7 2.905556 1_655
Ag0 S7 2.905556 1_565
Ag0 S0 2.942488 1_455
Ag0 S0 2.942488 1_545
Ag0 S10 2.985279 1_555
Ag1 S9 2.671325 1_555
Ag1 S6 2.905556 1_545
Ag1 S6 2.905556 1_455
Ag1 S1 2.942488 1_565
Ag1 S1 2.942488 1_655
Ag1 S10 2.985279 1_555
Ag2 S11 2.533447 1_445
Ag2 S12 2.533447 1_554
Ag2 S2 2.914495 1_455
Ag2 S2 2.914495 1_545
Ag2 S3 2.914495 1_454
Ag2 S3 2.914495 1_544
Bi0 S4 2.703237 1_555
Bi0 S8 2.864820 1_565
Bi0 S8 2.864820 1_655
Bi0 S7 2.880703 1_655
Bi0 S7 2.880703 1_565
Bi0 S0 3.013138 1_555
Bi1 S5 2.703237 1_555
Bi1 S9 2.864820 1_545
Bi1 S9 2.864820 1_455
Bi1 S6 2.880703 1_545
Bi1 S6 2.880703 1_455
Bi1 S1 3.013138 1_555
Bi2 S6 2.791714 1_555
Bi2 S1 2.836808 1_565
Bi2 S1 2.836808 1_655
Bi2 S0 2.867121 1_555
Bi2 S10 2.902229 1_655
Bi2 S10 2.902229 1_565
Bi3 S7 2.791714 1_555
Bi3 S0 2.836808 1_545
Bi3 S0 2.836808 1_455
Bi3 S1 2.867121 1_555
Bi3 S10 2.902229 1_545
Bi3 S10 2.902229 1_455
Bi4 S11 2.664635 1_555
Bi4 S4 2.812687 1_565
Bi4 S4 2.812687 1_655
Bi4 S8 2.930488 1_565
Bi4 S8 2.930488 1_655
Bi4 S7 3.089251 1_665
Bi5 S12 2.664635 1_555
Bi5 S5 2.812687 1_545
Bi5 S5 2.812687 1_455
Bi5 S9 2.930488 1_455
Bi5 S9 2.930488 1_545
Bi5 S6 3.089251 1_445
Bi6 S3 2.625101 1_554
Bi6 S11 2.862736 1_545
Bi6 S11 2.862736 1_455
Bi6 S2 2.865409 1_545
Bi6 S2 2.865409 1_455
Bi7 S2 2.625101 1_556
Bi7 S12 2.862736 1_655
Bi7 S12 2.862736 1_565
Bi7 S3 2.865409 1_565
Bi7 S3 2.865409 1_655
