# generated using pymatgen
data_Li2HClO
_symmetry_space_group_name_H-M   'P 1'
_cell_length_a   5.55775100
_cell_length_b   5.84402300
_cell_length_c   9.53079200
_cell_angle_alpha   90.00000000
_cell_angle_beta   90.00000000
_cell_angle_gamma   90.00000000
_symmetry_Int_Tables_number   1
_chemical_formula_structural   Li2HClO
_chemical_formula_sum   'Li8 H4 Cl4 O4'
_cell_volume   309.55654699
_cell_formula_units_Z   4
loop_
 _symmetry_equiv_pos_site_id
 _symmetry_equiv_pos_as_xyz
  1  'x, y, z'
loop_
 _atom_site_type_symbol
 _atom_site_label
 _atom_site_symmetry_multiplicity
 _atom_site_fract_x
 _atom_site_fract_y
 _atom_site_fract_z
 _atom_site_occupancy
  Li  Li0  1  0.00005100  0.56991600  0.87693900  1
  Li  Li1  1  0.49994900  0.93008400  0.37693900  1
  Li  Li2  1  0.50005100  0.43008400  0.12306100  1
  Li  Li3  1  0.99994900  0.06991600  0.62306100  1
  Li  Li4  1  0.99994900  0.43008400  0.12306100  1
  Li  Li5  1  0.50005100  0.06991600  0.62306100  1
  Li  Li6  1  0.49994900  0.56991600  0.87693900  1
  Li  Li7  1  0.00005100  0.93008400  0.37693900  1
  H  H0  1  0.25000000  0.74439300  0.55437800  1
  H  H1  1  0.25000000  0.75560700  0.05437800  1
  H  H2  1  0.75000000  0.25560700  0.44562200  1
  H  H3  1  0.75000000  0.24439300  0.94562200  1
  Cl  Cl0  1  0.25000000  0.40185300  0.69202100  1
  Cl  Cl1  1  0.25000000  0.09814700  0.19202100  1
  Cl  Cl2  1  0.75000000  0.59814700  0.30797900  1
  Cl  Cl3  1  0.75000000  0.90185300  0.80797900  1
  O  O0  1  0.25000000  0.90274400  0.52084800  1
  O  O1  1  0.25000000  0.59725600  0.02084800  1
  O  O2  1  0.75000000  0.09725600  0.47915200  1
  O  O3  1  0.75000000  0.40274400  0.97915200  1
loop_
_geom_bond_atom_site_label_1
_geom_bond_atom_site_label_2
_geom_bond_distance
_geom_bond_site_symmetry_2
Li0 O3 1.958259 1_455
Li0 O1 1.958692 1_556
Li1 O2 1.958259 1_565
Li1 O0 1.958692 1_555
Li2 O1 1.958259 1_555
Li2 O3 1.958692 1_554
Li3 O0 1.958259 1_645
Li3 O2 1.958692 1_555
Li4 O1 1.958259 1_655
Li4 O3 1.958692 1_554
Li5 O0 1.958259 1_545
Li5 O2 1.958692 1_555
Li6 O3 1.958259 1_555
Li6 O1 1.958692 1_556
Li7 O2 1.958259 1_465
Li7 O0 1.958692 1_555
H0 O0 0.979031 1_555
H1 O1 0.979031 1_555
H2 O2 0.979031 1_555
H3 O3 0.979031 1_555
Cl0 Li6 2.449592 1_555
Cl0 Li0 2.449592 1_555
Cl0 Li5 2.475137 1_555
Cl0 Li3 2.475137 1_455
Cl1 Li1 2.449592 1_545
Cl1 Li7 2.449592 1_545
Cl1 Li2 2.475137 1_555
Cl1 Li4 2.475137 1_455
Cl2 Li2 2.449592 1_555
Cl2 Li4 2.449592 1_555
Cl2 Li1 2.475137 1_555
Cl2 Li7 2.475137 1_655
Cl3 Li5 2.449592 1_565
Cl3 Li3 2.449592 1_565
Cl3 Li0 2.475137 1_655
Cl3 Li6 2.475137 1_555
