# generated using pymatgen
data_SrEuCoO4
_symmetry_space_group_name_H-M   'P 1'
_cell_length_a   6.73387023
_cell_length_b   6.73387023
_cell_length_c   6.73387023
_cell_angle_alpha   147.12009091
_cell_angle_beta   147.12009091
_cell_angle_gamma   47.18600087
_symmetry_Int_Tables_number   1
_chemical_formula_structural   SrEuCoO4
_chemical_formula_sum   'Sr1 Eu1 Co1 O4'
_cell_volume   89.64982835
_cell_formula_units_Z   1
loop_
 _symmetry_equiv_pos_site_id
 _symmetry_equiv_pos_as_xyz
  1  'x, y, z'
loop_
 _atom_site_type_symbol
 _atom_site_label
 _atom_site_symmetry_multiplicity
 _atom_site_fract_x
 _atom_site_fract_y
 _atom_site_fract_z
 _atom_site_occupancy
  Sr  Sr0  1  0.64380700  0.64380700  0.00000000  1
  Eu  Eu0  1  0.35852400  0.35852400  0.00000000  1
  Co  Co0  1  0.00267200  0.00267200  0.00000000  1
  O  O0  1  0.84072300  0.84072300  0.00000000  1
  O  O1  1  0.16740800  0.16740800  0.00000000  1
  O  O2  1  0.49343300  0.99343300  0.50000000  1
  O  O3  1  0.99343300  0.49343300  0.50000000  1
loop_
_geom_bond_atom_site_label_1
_geom_bond_atom_site_label_2
_geom_bond_distance
_geom_bond_site_symmetry_2
Eu0 O1 2.358753 1_555
Eu0 O3 2.530668 1_555
Eu0 O2 2.530668 1_555
Eu0 O3 2.530668 1_454
Eu0 O2 2.530668 1_544
Eu0 O0 2.704084 1_545
Eu0 O0 2.704084 1_455
Eu0 O0 2.704084 1_556
Eu0 O0 2.704084 1_444
Co0 O3 1.909163 1_444
Co0 O3 1.909163 1_455
Co0 O2 1.909163 1_444
Co0 O2 1.909163 1_545
Co0 O0 1.998774 1_445
Co0 O1 2.033171 1_555
O0 Sr0 2.430336 1_555
O1 Sr0 2.710839 1_455
O1 Sr0 2.710839 1_556
O1 Sr0 2.710839 1_444
O1 Sr0 2.710839 1_545
O2 Sr0 2.660136 1_566
O2 Sr0 2.660136 1_555
O3 Sr0 2.660136 1_656
O3 Sr0 2.660136 1_555
