# generated using pymatgen
data_AgAsS2
_symmetry_space_group_name_H-M   'P 1'
_cell_length_a   8.70629545
_cell_length_b   8.70629545
_cell_length_c   8.70629570
_cell_angle_alpha   106.81611232
_cell_angle_beta   106.81611232
_cell_angle_gamma   106.81611372
_symmetry_Int_Tables_number   1
_chemical_formula_structural   AgAsS2
_chemical_formula_sum   'Ag6 As6 S12'
_cell_volume   552.33271393
_cell_formula_units_Z   6
loop_
 _symmetry_equiv_pos_site_id
 _symmetry_equiv_pos_as_xyz
  1  'x, y, z'
loop_
 _atom_site_type_symbol
 _atom_site_label
 _atom_site_symmetry_multiplicity
 _atom_site_fract_x
 _atom_site_fract_y
 _atom_site_fract_z
 _atom_site_occupancy
  Ag  Ag0  1  0.32214300  0.72954100  0.90323300  1
  Ag  Ag1  1  0.72954100  0.90323300  0.32214300  1
  Ag  Ag2  1  0.90323300  0.32214300  0.72954100  1
  Ag  Ag3  1  0.67785700  0.27045900  0.09676700  1
  Ag  Ag4  1  0.27045900  0.09676700  0.67785700  1
  Ag  Ag5  1  0.09676700  0.67785700  0.27045900  1
  As  As0  1  0.12938700  0.34065400  0.41740800  1
  As  As1  1  0.58259200  0.87061300  0.65934600  1
  As  As2  1  0.87061300  0.65934600  0.58259200  1
  As  As3  1  0.34065400  0.41740800  0.12938700  1
  As  As4  1  0.41740800  0.12938700  0.34065400  1
  As  As5  1  0.65934600  0.58259200  0.87061300  1
  S  S0  1  0.14229500  0.06458300  0.34784800  1
  S  S1  1  0.06458300  0.34784800  0.14229500  1
  S  S2  1  0.34784800  0.14229500  0.06458300  1
  S  S3  1  0.85770500  0.93541700  0.65215200  1
  S  S4  1  0.93541700  0.65215200  0.85770500  1
  S  S5  1  0.65215200  0.85770500  0.93541700  1
  S  S6  1  0.84814900  0.24221500  0.38544700  1
  S  S7  1  0.24221500  0.38544700  0.84814900  1
  S  S8  1  0.61455300  0.15185100  0.75778500  1
  S  S9  1  0.15185100  0.75778500  0.61455300  1
  S  S10  1  0.75778500  0.61455300  0.15185100  1
  S  S11  1  0.38544700  0.84814900  0.24221500  1
loop_
_geom_bond_atom_site_label_1
_geom_bond_atom_site_label_2
_geom_bond_distance
_geom_bond_site_symmetry_2
Ag0 S9 2.643472 1_555
Ag0 S11 2.654496 1_556
Ag0 S5 2.660249 1_555
Ag0 S7 2.731002 1_555
Ag0 S4 3.115787 1_455
Ag1 S10 2.643472 1_555
Ag1 S6 2.654496 1_565
Ag1 S3 2.660249 1_555
Ag1 S11 2.731002 1_555
Ag1 S5 3.115787 1_554
Ag2 S8 2.643472 1_555
Ag2 S7 2.654496 1_655
Ag2 S4 2.660249 1_555
Ag2 S6 2.731002 1_555
Ag2 S3 3.115787 1_545
Ag3 S6 2.643472 1_555
Ag3 S8 2.654496 1_554
Ag3 S2 2.660249 1_555
Ag3 S10 2.731002 1_555
Ag3 S1 3.115787 1_655
Ag4 S7 2.643472 1_555
Ag4 S9 2.654496 1_545
Ag4 S0 2.660249 1_555
Ag4 S8 2.731002 1_555
Ag4 S2 3.115787 1_556
Ag5 S11 2.643472 1_555
Ag5 S10 2.654496 1_455
Ag5 S1 2.660249 1_555
Ag5 S9 2.731002 1_555
Ag5 S0 3.115787 1_565
As0 S6 2.249644 1_455
As0 S1 2.320482 1_555
As0 S0 2.347321 1_555
As1 S8 2.249644 1_565
As1 S3 2.320482 1_555
As1 S5 2.347321 1_555
As2 S9 2.249644 1_655
As2 S4 2.320482 1_555
As2 S3 2.347321 1_555
As3 S7 2.249644 1_554
As3 S2 2.320482 1_555
As3 S1 2.347321 1_555
As4 S11 2.249644 1_545
As4 S0 2.320482 1_555
As4 S2 2.347321 1_555
As5 S10 2.249644 1_556
As5 S5 2.320482 1_555
As5 S4 2.347321 1_555
