# generated using pymatgen
data_BaAlPO5F
_symmetry_space_group_name_H-M   'P 1'
_cell_length_a   12.90503000
_cell_length_b   5.20492300
_cell_length_c   7.88049571
_cell_angle_alpha   61.20845215
_cell_angle_beta   90.00000000
_cell_angle_gamma   90.00000000
_symmetry_Int_Tables_number   1
_chemical_formula_structural   BaAlPO5F
_chemical_formula_sum   'Ba4 Al4 P4 O20 F4'
_cell_volume   463.89340800
_cell_formula_units_Z   4
loop_
 _symmetry_equiv_pos_site_id
 _symmetry_equiv_pos_as_xyz
  1  'x, y, z'
loop_
 _atom_site_type_symbol
 _atom_site_label
 _atom_site_symmetry_multiplicity
 _atom_site_fract_x
 _atom_site_fract_y
 _atom_site_fract_z
 _atom_site_occupancy
  Ba  Ba0  1  0.70150700  0.36296400  0.18649600  1
  Ba  Ba1  1  0.29849300  0.63703600  0.81350400  1
  Ba  Ba2  1  0.20150700  0.63703600  0.31350400  1
  Ba  Ba3  1  0.79849300  0.36296400  0.68649600  1
  Al  Al0  1  0.00000000  0.50000000  0.00000000  1
  Al  Al1  1  0.50000000  0.50000000  0.50000000  1
  Al  Al2  1  0.00000000  0.00000000  0.50000000  1
  Al  Al3  1  0.50000000  0.00000000  0.00000000  1
  P  P0  1  0.88961100  0.87215900  0.19592200  1
  P  P1  1  0.11038900  0.12784100  0.80407800  1
  P  P2  1  0.38961100  0.12784100  0.30407800  1
  P  P3  1  0.61038900  0.87215900  0.69592200  1
  O  O0  1  0.91231500  0.71801200  0.07227600  1
  O  O1  1  0.08768500  0.28198800  0.92772400  1
  O  O2  1  0.41231500  0.28198800  0.42772400  1
  O  O3  1  0.58768500  0.71801200  0.57227600  1
  O  O4  1  0.54345000  0.68383000  0.24007300  1
  O  O5  1  0.45655000  0.31617000  0.75992700  1
  O  O6  1  0.04345000  0.31617000  0.25992700  1
  O  O7  1  0.95655000  0.68383000  0.74007300  1
  O  O8  1  0.38721700  0.78870700  0.44498600  1
  O  O9  1  0.61278300  0.21129300  0.55501400  1
  O  O10  1  0.88721700  0.21129300  0.05501400  1
  O  O11  1  0.11278300  0.78870700  0.94498600  1
  O  O12  1  0.97477400  0.79793500  0.35254100  1
  O  O13  1  0.02522600  0.20206500  0.64745900  1
  O  O14  1  0.47477400  0.20206500  0.14745900  1
  O  O15  1  0.52522600  0.79793500  0.85254100  1
  O  O16  1  0.78268600  0.77302700  0.28958200  1
  O  O17  1  0.21731400  0.22697300  0.71041800  1
  O  O18  1  0.28268600  0.22697300  0.21041800  1
  O  O19  1  0.71731400  0.77302700  0.78958200  1
  F  F0  1  0.36719700  0.85771900  0.03919100  1
  F  F1  1  0.63280300  0.14228100  0.96080900  1
  F  F2  1  0.86719700  0.14228100  0.46080900  1
  F  F3  1  0.13280300  0.85771900  0.53919100  1
loop_
_geom_bond_atom_site_label_1
_geom_bond_atom_site_label_2
_geom_bond_distance
_geom_bond_site_symmetry_2
Ba0 F1 2.690062 1_554
Ba0 O4 2.794129 1_555
Ba0 O19 2.819583 1_554
Ba0 O16 2.825426 1_555
Ba0 O9 2.856515 1_555
Ba0 F2 2.858790 1_555
Ba0 O10 2.868513 1_555
Ba0 O16 2.963633 1_545
Ba0 O14 3.099291 1_555
Ba0 O0 3.166079 1_555
Ba1 F0 2.690062 1_556
Ba1 O5 2.794129 1_555
Ba1 O18 2.819583 1_556
Ba1 O17 2.825426 1_555
Ba1 O8 2.856515 1_555
Ba1 F3 2.858790 1_555
Ba1 O11 2.868513 1_555
Ba1 O17 2.963633 1_565
Ba1 O15 3.099291 1_555
Ba1 O1 3.166079 1_555
Ba2 F3 2.690062 1_555
Ba2 O6 2.794129 1_555
Ba2 O17 2.819583 1_555
Ba2 O18 2.825426 1_555
Ba2 O11 2.856515 1_554
Ba2 F0 2.858790 1_555
Ba2 O8 2.868513 1_555
Ba2 O18 2.963633 1_565
Ba2 O12 3.099291 1_455
Ba2 O2 3.166079 1_555
Ba3 F2 2.690062 1_555
Ba3 O7 2.794129 1_555
Ba3 O16 2.819583 1_555
Ba3 O19 2.825426 1_555
Ba3 O10 2.856515 1_556
Ba3 F1 2.858790 1_555
Ba3 O9 2.868513 1_555
Ba3 O19 2.963633 1_545
Ba3 O13 3.099291 1_655
Ba3 O3 3.166079 1_555
Al0 O0 1.874850 1_455
Al0 O1 1.874850 1_554
Al0 O6 1.880902 1_555
Al0 O7 1.880902 1_454
Al0 O11 1.984165 1_554
Al0 O10 1.984165 1_455
Al1 O3 1.874850 1_555
Al1 O2 1.874850 1_555
Al1 O5 1.880902 1_555
Al1 O4 1.880902 1_555
Al1 O8 1.984165 1_555
Al1 O9 1.984165 1_555
Al2 F2 1.833223 1_455
Al2 F3 1.833223 1_545
Al2 O7 1.898117 1_445
Al2 O6 1.898117 1_555
Al2 O13 1.933838 1_555
Al2 O12 1.933838 1_445
Al3 F1 1.833223 1_554
Al3 F0 1.833223 1_545
Al3 O4 1.898117 1_545
Al3 O5 1.898117 1_554
Al3 O14 1.933838 1_555
Al3 O15 1.933838 1_544
O0 P0 1.559505 1_555
O1 P1 1.559505 1_555
O2 P2 1.559505 1_555
O3 P3 1.559505 1_555
O8 P2 1.569000 1_565
O9 P3 1.569000 1_545
O10 P0 1.569000 1_545
O11 P1 1.569000 1_565
O12 P0 1.556007 1_555
O13 P1 1.556007 1_555
O14 P2 1.556007 1_555
O15 P3 1.556007 1_555
O16 P0 1.532386 1_555
O17 P1 1.532386 1_555
O18 P2 1.532386 1_555
O19 P3 1.532386 1_555
