# generated using pymatgen
data_NbCr3(CuS4)2
_symmetry_space_group_name_H-M   'P 1'
_cell_length_a   6.29910345
_cell_length_b   7.29083565
_cell_length_c   12.41578911
_cell_angle_alpha   82.37724197
_cell_angle_beta   85.52299381
_cell_angle_gamma   90.24971093
_symmetry_Int_Tables_number   1
_chemical_formula_structural   NbCr3(CuS4)2
_chemical_formula_sum   'Nb2 Cr6 Cu4 S16'
_cell_volume   563.37829449
_cell_formula_units_Z   2
loop_
 _symmetry_equiv_pos_site_id
 _symmetry_equiv_pos_as_xyz
  1  'x, y, z'
loop_
 _atom_site_type_symbol
 _atom_site_label
 _atom_site_symmetry_multiplicity
 _atom_site_fract_x
 _atom_site_fract_y
 _atom_site_fract_z
 _atom_site_occupancy
  Nb  Nb0  1  0.14296800  0.70178300  0.70365000  1
  Nb  Nb1  1  0.79512100  0.11264200  0.00267100  1
  Cr  Cr0  1  0.84705200  0.29900700  0.29576400  1
  Cr  Cr1  1  0.24013300  0.88305200  0.00423800  1
  Cr  Cr2  1  0.37105300  0.55043600  0.28672100  1
  Cr  Cr3  1  0.63710000  0.43962900  0.71194200  1
  Cr  Cr4  1  0.37693000  0.05461500  0.29264100  1
  Cr  Cr5  1  0.63544600  0.95572000  0.70976700  1
  Cu  Cu0  1  0.11403500  0.19946300  0.70290000  1
  Cu  Cu1  1  0.87543000  0.79572100  0.29963800  1
  Cu  Cu2  1  0.25124500  0.37210800  0.00151300  1
  Cu  Cu3  1  0.73473500  0.62481200  0.00574300  1
  S  S0  1  0.10125100  0.65714700  0.89397300  1
  S  S1  1  0.88444900  0.35290600  0.11325800  1
  S  S2  1  0.11639600  0.15027800  0.89007600  1
  S  S3  1  0.90180100  0.83963400  0.11101600  1
  S  S4  1  0.20790700  0.78556300  0.35736900  1
  S  S5  1  0.79848900  0.21921200  0.62695700  1
  S  S6  1  0.18083700  0.28657000  0.35823700  1
  S  S7  1  0.80612400  0.71482400  0.63117700  1
  S  S8  1  0.31412600  0.97623900  0.62995600  1
  S  S9  1  0.68875200  0.03031800  0.36804900  1
  S  S10  1  0.31682600  0.45579000  0.63350100  1
  S  S11  1  0.68224000  0.53537700  0.36311400  1
  S  S12  1  0.40419700  0.09866200  0.10751700  1
  S  S13  1  0.58293100  0.90650900  0.89825300  1
  S  S14  1  0.38460900  0.60883700  0.10454200  1
  S  S15  1  0.60781600  0.39314800  0.89581700  1
loop_
_geom_bond_atom_site_label_1
_geom_bond_atom_site_label_2
_geom_bond_distance
_geom_bond_site_symmetry_2
Nb0 S8 2.311942 1_555
Nb0 S0 2.336038 1_555
Nb0 S10 2.336057 1_555
Nb0 S7 2.365993 1_455
Nb1 S2 2.361532 1_654
Nb1 S3 2.380220 1_545
Nb1 S1 2.453664 1_555
Nb1 S13 2.548692 1_544
Nb1 S15 2.623021 1_554
Nb1 S12 2.689027 1_555
Cr0 S11 2.238144 1_555
Cr0 S9 2.239230 1_555
Cr0 S1 2.241450 1_555
Cr0 S6 2.295248 1_655
Cr1 S3 2.416904 1_455
Cr1 S2 2.421883 1_564
Cr1 S14 2.430723 1_555
Cr1 S12 2.431237 1_565
Cr1 S13 2.432478 1_554
Cr1 S0 2.474858 1_554
Cr2 S11 2.240213 1_555
Cr2 S14 2.240264 1_555
Cr2 S4 2.244502 1_555
Cr2 S6 2.299070 1_555
Cr3 S5 2.241875 1_555
Cr3 S15 2.255926 1_555
Cr3 S10 2.304519 1_555
Cr3 S7 2.333601 1_555
Cr4 S9 2.238784 1_555
Cr4 S4 2.248852 1_545
Cr4 S12 2.271038 1_555
Cr4 S6 2.296860 1_555
Cr5 S5 2.257510 1_565
Cr5 S13 2.317338 1_555
Cr5 S8 2.318925 1_555
Cr5 S7 2.345214 1_555
Cu0 S5 2.262658 1_455
Cu0 S10 2.290609 1_555
Cu0 S8 2.299618 1_545
Cu0 S2 2.305179 1_555
Cu1 S4 2.264288 1_655
Cu1 S11 2.266752 1_555
Cu1 S9 2.297110 1_565
Cu1 S3 2.313965 1_555
Cu2 S2 2.452901 1_554
Cu2 S14 2.462075 1_555
Cu2 S12 2.480658 1_555
Cu2 S15 2.504786 1_554
Cu2 S0 2.544044 1_554
Cu2 S1 2.593845 1_455
Cu3 S14 2.433088 1_555
Cu3 S3 2.452021 1_555
Cu3 S1 2.472255 1_555
Cu3 S15 2.474842 1_554
Cu3 S13 2.530367 1_554
Cu3 S0 2.592259 1_654
