# generated using pymatgen
data_CaFe3O7
_symmetry_space_group_name_H-M   'P 1'
_cell_length_a   5.33172900
_cell_length_b   10.48452300
_cell_length_c   11.21685500
_cell_angle_alpha   90.00000000
_cell_angle_beta   90.00000000
_cell_angle_gamma   90.00000000
_symmetry_Int_Tables_number   1
_chemical_formula_structural   CaFe3O7
_chemical_formula_sum   'Ca4 Fe12 O28'
_cell_volume   627.02932091
_cell_formula_units_Z   4
loop_
 _symmetry_equiv_pos_site_id
 _symmetry_equiv_pos_as_xyz
  1  'x, y, z'
loop_
 _atom_site_type_symbol
 _atom_site_label
 _atom_site_symmetry_multiplicity
 _atom_site_fract_x
 _atom_site_fract_y
 _atom_site_fract_z
 _atom_site_occupancy
  Ca  Ca0  1  0.68555500  0.75000000  0.08187200  1
  Ca  Ca1  1  0.18555500  0.25000000  0.41812800  1
  Ca  Ca2  1  0.31444500  0.25000000  0.91812800  1
  Ca  Ca3  1  0.81444500  0.75000000  0.58187200  1
  Fe  Fe0  1  0.30529500  0.02447400  0.69032600  1
  Fe  Fe1  1  0.80529500  0.97552600  0.80967400  1
  Fe  Fe2  1  0.69470500  0.52447400  0.30967400  1
  Fe  Fe3  1  0.19470500  0.47552600  0.19032600  1
  Fe  Fe4  1  0.31284300  0.75000000  0.78406100  1
  Fe  Fe5  1  0.81284300  0.25000000  0.71593900  1
  Fe  Fe6  1  0.68715700  0.25000000  0.21593900  1
  Fe  Fe7  1  0.18715700  0.75000000  0.28406100  1
  Fe  Fe8  1  0.80529500  0.52447400  0.80967400  1
  Fe  Fe9  1  0.30529500  0.47552600  0.69032600  1
  Fe  Fe10  1  0.19470500  0.02447400  0.19032600  1
  Fe  Fe11  1  0.69470500  0.97552600  0.30967400  1
  O  O0  1  0.93234400  0.12074200  0.27534500  1
  O  O1  1  0.43234400  0.87925800  0.22465500  1
  O  O2  1  0.06765600  0.62074200  0.72465500  1
  O  O3  1  0.56765600  0.37925800  0.77534500  1
  O  O4  1  0.06765600  0.87925800  0.72465500  1
  O  O5  1  0.56765600  0.12074200  0.77534500  1
  O  O6  1  0.93234400  0.37925800  0.27534500  1
  O  O7  1  0.43234400  0.62074200  0.22465500  1
  O  O8  1  0.45255300  0.11905200  0.28161900  1
  O  O9  1  0.95255300  0.88094800  0.21838100  1
  O  O10  1  0.54744700  0.61905200  0.71838100  1
  O  O11  1  0.04744700  0.38094800  0.78161900  1
  O  O12  1  0.54744700  0.88094800  0.71838100  1
  O  O13  1  0.04744700  0.11905200  0.78161900  1
  O  O14  1  0.45255300  0.38094800  0.28161900  1
  O  O15  1  0.95255300  0.61905200  0.21838100  1
  O  O16  1  0.13582300  0.75000000  0.44215100  1
  O  O17  1  0.63582300  0.25000000  0.05784900  1
  O  O18  1  0.86417700  0.25000000  0.55784900  1
  O  O19  1  0.36417700  0.75000000  0.94215100  1
  O  O20  1  0.22011500  0.41789300  0.04163000  1
  O  O21  1  0.72011500  0.58210700  0.45837000  1
  O  O22  1  0.77988500  0.91789300  0.95837000  1
  O  O23  1  0.27988500  0.08210700  0.54163000  1
  O  O24  1  0.77988500  0.58210700  0.95837000  1
  O  O25  1  0.27988500  0.41789300  0.54163000  1
  O  O26  1  0.22011500  0.08210700  0.04163000  1
  O  O27  1  0.72011500  0.91789300  0.45837000  1
loop_
_geom_bond_atom_site_label_1
_geom_bond_atom_site_label_2
_geom_bond_distance
_geom_bond_site_symmetry_2
Ca0 O22 2.295778 1_554
Ca0 O24 2.295778 1_554
Ca0 O19 2.322131 1_554
Ca0 O1 2.494850 1_555
Ca0 O7 2.494850 1_555
Ca0 O9 2.501206 1_555
Ca0 O15 2.501206 1_555
Ca1 O25 2.295778 1_555
Ca1 O23 2.295778 1_555
Ca1 O18 2.322131 1_455
Ca1 O6 2.494850 1_455
Ca1 O0 2.494850 1_455
Ca1 O8 2.501206 1_555
Ca1 O14 2.501206 1_555
Ca2 O26 2.295778 1_556
Ca2 O20 2.295778 1_556
Ca2 O17 2.322131 1_556
Ca2 O3 2.494850 1_555
Ca2 O5 2.494850 1_555
Ca2 O13 2.501206 1_555
Ca2 O11 2.501206 1_555
Ca3 O21 2.295778 1_555
Ca3 O27 2.295778 1_555
Ca3 O16 2.322131 1_655
Ca3 O4 2.494850 1_655
Ca3 O2 2.494850 1_655
Ca3 O12 2.501206 1_555
Ca3 O10 2.501206 1_555
Fe0 O23 1.779150 1_555
Fe0 O5 1.971021 1_555
Fe0 O13 1.980380 1_555
Fe0 O12 2.007578 1_545
Fe0 O4 2.017845 1_545
Fe1 O22 1.779150 1_555
Fe1 O4 1.971021 1_655
Fe1 O12 1.980380 1_555
Fe1 O13 2.007578 1_665
Fe1 O5 2.017845 1_565
Fe2 O21 1.779150 1_555
Fe2 O7 1.971021 1_555
Fe2 O15 1.980380 1_555
Fe2 O14 2.007578 1_555
Fe2 O6 2.017845 1_555
Fe3 O20 1.779150 1_555
Fe3 O6 1.971021 1_455
Fe3 O14 1.980380 1_555
Fe3 O15 2.007578 1_455
Fe3 O7 2.017845 1_555
Fe4 O19 1.794271 1_555
Fe4 O4 1.997390 1_555
Fe4 O2 1.997390 1_555
Fe4 O12 1.998075 1_555
Fe4 O10 1.998075 1_555
Fe5 O18 1.794271 1_555
Fe5 O3 1.997390 1_555
Fe5 O5 1.997390 1_555
Fe5 O13 1.998075 1_655
Fe5 O11 1.998075 1_655
Fe6 O17 1.794271 1_555
Fe6 O6 1.997390 1_555
Fe6 O0 1.997390 1_555
Fe6 O8 1.998075 1_555
Fe6 O14 1.998075 1_555
Fe7 O16 1.794271 1_555
Fe7 O7 1.997390 1_555
Fe7 O1 1.997390 1_555
Fe7 O15 1.998075 1_455
Fe7 O9 1.998075 1_455
Fe8 O24 1.779150 1_555
Fe8 O2 1.971021 1_655
Fe8 O10 1.980380 1_555
Fe8 O11 2.007578 1_655
Fe8 O3 2.017845 1_555
Fe9 O25 1.779150 1_555
Fe9 O3 1.971021 1_555
Fe9 O11 1.980380 1_555
Fe9 O10 2.007578 1_555
Fe9 O2 2.017845 1_555
Fe10 O26 1.779150 1_555
Fe10 O0 1.971021 1_455
Fe10 O8 1.980380 1_555
Fe10 O9 2.007578 1_445
Fe10 O1 2.017845 1_545
Fe11 O27 1.779150 1_555
Fe11 O1 1.971021 1_555
Fe11 O9 1.980380 1_555
Fe11 O8 2.007578 1_565
Fe11 O0 2.017845 1_565
