# generated using pymatgen
data_Yb5Si3
_symmetry_space_group_name_H-M   'P 1'
_cell_length_a   6.18789392
_cell_length_b   8.23644568
_cell_length_c   8.23645825
_cell_angle_alpha   119.99995641
_cell_angle_beta   90.00000000
_cell_angle_gamma   90.00000000
_symmetry_Int_Tables_number   1
_chemical_formula_structural   Yb5Si3
_chemical_formula_sum   'Yb10 Si6'
_cell_volume   363.54152292
_cell_formula_units_Z   2
loop_
 _symmetry_equiv_pos_site_id
 _symmetry_equiv_pos_as_xyz
  1  'x, y, z'
loop_
 _atom_site_type_symbol
 _atom_site_label
 _atom_site_symmetry_multiplicity
 _atom_site_fract_x
 _atom_site_fract_y
 _atom_site_fract_z
 _atom_site_occupancy
  Yb  Yb0  1  0.49999985  0.33333835  0.66667717  1
  Yb  Yb1  1  0.49999985  0.66666118  0.33332283  1
  Yb  Yb2  1  0.99999985  0.66666165  0.33332283  1
  Yb  Yb3  1  0.99999985  0.33333882  0.66667717  1
  Yb  Yb4  1  0.74999959  0.24207212  1.00000000  1
  Yb  Yb5  1  0.75000047  0.75789076  0.75789545  1
  Yb  Yb6  1  0.75000047  0.99999531  0.24210455  1
  Yb  Yb7  1  0.24999959  0.75792788  0.00000000  1
  Yb  Yb8  1  0.25000047  0.24210924  0.24210455  1
  Yb  Yb9  1  0.25000047  0.00000469  0.75789545  1
  Si  Si0  1  0.75000001  0.60560171  0.00000000  1
  Si  Si1  1  0.74999988  0.39438387  0.39439079  1
  Si  Si2  1  0.74999988  0.99999408  0.60560921  1
  Si  Si3  1  0.25000001  0.39439829  1.00000000  1
  Si  Si4  1  0.24999988  0.60561613  0.60560921  1
  Si  Si5  1  0.24999988  0.00000592  0.39439079  1
loop_
_geom_bond_atom_site_label_1
_geom_bond_atom_site_label_2
_geom_bond_distance
_geom_bond_site_symmetry_2
Si0 Yb6 2.837412 1_555
Si0 Yb5 2.837412 1_554
Si0 Yb3 2.966911 1_554
Si0 Yb2 2.966911 1_555
Si0 Yb0 2.966913 1_554
Si0 Yb1 2.966913 1_555
Si0 Yb4 2.994192 1_554
Si0 Yb7 3.338649 1_655
Si0 Yb7 3.338654 1_555
Si1 Yb4 2.837370 1_554
Si1 Yb6 2.837375 1_545
Si1 Yb3 2.967006 1_555
Si1 Yb0 2.967008 1_555
Si1 Yb1 2.967044 1_555
Si1 Yb2 2.967047 1_555
Si1 Yb5 2.994000 1_555
Si1 Yb8 3.338507 1_555
Si1 Yb8 3.338514 1_655
Si2 Yb4 2.837369 1_565
Si2 Yb5 2.837383 1_555
Si2 Yb2 2.967010 1_555
Si2 Yb1 2.967012 1_555
Si2 Yb0 2.967037 1_565
Si2 Yb3 2.967040 1_565
Si2 Yb6 2.993996 1_555
Si2 Yb9 3.338509 1_565
Si2 Yb9 3.338516 1_665
Si3 Yb9 2.837412 1_555
Si3 Yb8 2.837412 1_556
Si3 Yb1 2.966911 1_556
Si3 Yb0 2.966911 1_555
Si3 Yb2 2.966913 1_456
Si3 Yb3 2.966913 1_455
Si3 Yb7 2.994192 1_556
Si3 Yb4 3.338649 1_555
Si3 Yb4 3.338654 1_455
Si4 Yb7 2.837370 1_556
Si4 Yb9 2.837375 1_565
Si4 Yb1 2.967006 1_555
Si4 Yb2 2.967008 1_455
Si4 Yb3 2.967044 1_455
Si4 Yb0 2.967047 1_555
Si4 Yb8 2.994000 1_555
Si4 Yb5 3.338507 1_455
Si4 Yb5 3.338514 1_555
Si5 Yb7 2.837369 1_545
Si5 Yb8 2.837383 1_555
Si5 Yb0 2.967010 1_555
Si5 Yb3 2.967012 1_455
Si5 Yb2 2.967037 1_445
Si5 Yb1 2.967040 1_545
Si5 Yb9 2.993996 1_555
Si5 Yb6 3.338509 1_445
Si5 Yb6 3.338516 1_545
