# generated using pymatgen
data_AlFe3O
_symmetry_space_group_name_H-M   'P 1'
_cell_length_a   4.11363400
_cell_length_b   4.11363400
_cell_length_c   4.11363400
_cell_angle_alpha   90.00000000
_cell_angle_beta   90.00000000
_cell_angle_gamma   90.00000000
_symmetry_Int_Tables_number   1
_chemical_formula_structural   AlFe3O
_chemical_formula_sum   'Al1 Fe3 O1'
_cell_volume   69.61085155
_cell_formula_units_Z   1
loop_
 _symmetry_equiv_pos_site_id
 _symmetry_equiv_pos_as_xyz
  1  'x, y, z'
loop_
 _atom_site_type_symbol
 _atom_site_label
 _atom_site_symmetry_multiplicity
 _atom_site_fract_x
 _atom_site_fract_y
 _atom_site_fract_z
 _atom_site_occupancy
  Al  Al0  1  0.50000000  0.50000000  0.50000000  1
  Fe  Fe0  1  0.50000000  0.00000000  0.00000000  1
  Fe  Fe1  1  0.00000000  0.50000000  0.00000000  1
  Fe  Fe2  1  0.00000000  0.00000000  0.50000000  1
  O  O0  1  0.00000000  0.00000000  0.00000000  1
loop_
_geom_bond_atom_site_label_1
_geom_bond_atom_site_label_2
_geom_bond_distance
_geom_bond_site_symmetry_2
Al0 Fe1 2.908778 1_555
Al0 Fe1 2.908778 1_556
Al0 Fe1 2.908778 1_656
Al0 Fe0 2.908778 1_566
Al0 Fe1 2.908778 1_655
Al0 Fe2 2.908778 1_555
Al0 Fe2 2.908778 1_565
Al0 Fe0 2.908778 1_556
Al0 Fe2 2.908778 1_655
Al0 Fe2 2.908778 1_665
Al0 Fe0 2.908778 1_555
Al0 Fe0 2.908778 1_565
Fe0 O0 2.056817 1_555
Fe0 O0 2.056817 1_655
Fe1 O0 2.056817 1_555
Fe1 O0 2.056817 1_565
Fe2 O0 2.056817 1_555
Fe2 O0 2.056817 1_556
