# generated using pymatgen
data_Ag2MoO4
_symmetry_space_group_name_H-M   'P 1'
_cell_length_a   6.56630227
_cell_length_b   6.56630179
_cell_length_c   6.56630246
_cell_angle_alpha   59.99999662
_cell_angle_beta   59.99999904
_cell_angle_gamma   60.00000290
_symmetry_Int_Tables_number   1
_chemical_formula_structural   Ag2MoO4
_chemical_formula_sum   'Ag4 Mo2 O8'
_cell_volume   200.19240228
_cell_formula_units_Z   2
loop_
 _symmetry_equiv_pos_site_id
 _symmetry_equiv_pos_as_xyz
  1  'x, y, z'
loop_
 _atom_site_type_symbol
 _atom_site_label
 _atom_site_symmetry_multiplicity
 _atom_site_fract_x
 _atom_site_fract_y
 _atom_site_fract_z
 _atom_site_occupancy
  Ag  Ag0  1  0.50000000  0.50000000  0.50000000  1
  Ag  Ag1  1  0.50000000  0.50000000  0.00000000  1
  Ag  Ag2  1  -0.00000000  0.50000000  0.50000000  1
  Ag  Ag3  1  0.50000000  -0.00000000  0.50000000  1
  Mo  Mo0  1  0.87500000  0.87500000  0.87500000  1
  Mo  Mo1  1  0.12500000  0.12500000  0.12500000  1
  O  O0  1  0.23547417  0.79357548  0.23547417  1
  O  O1  1  0.76452583  0.76452583  0.76452583  1
  O  O2  1  0.23547417  0.23547417  0.23547417  1
  O  O3  1  0.76452583  0.76452583  0.20642452  1
  O  O4  1  0.20642452  0.76452583  0.76452583  1
  O  O5  1  0.76452583  0.20642452  0.76452583  1
  O  O6  1  0.79357548  0.23547417  0.23547417  1
  O  O7  1  0.23547417  0.23547417  0.79357548  1
loop_
_geom_bond_atom_site_label_1
_geom_bond_atom_site_label_2
_geom_bond_distance
_geom_bond_site_symmetry_2
Ag0 O3 2.463822 1_555
Ag0 O7 2.463822 1_555
Ag0 O0 2.463823 1_555
Ag0 O5 2.463823 1_555
Ag0 O4 2.463823 1_555
Ag0 O6 2.463823 1_555
Ag1 O5 2.463814 1_554
Ag1 O0 2.463814 1_555
Ag1 O4 2.463814 1_554
Ag1 O6 2.463814 1_555
Ag1 O2 2.463823 1_555
Ag1 O1 2.463823 1_554
Ag2 O5 2.463813 1_455
Ag2 O0 2.463813 1_555
Ag2 O3 2.463814 1_455
Ag2 O7 2.463814 1_555
Ag2 O1 2.463824 1_455
Ag2 O2 2.463824 1_555
Ag3 O6 2.463813 1_555
Ag3 O4 2.463813 1_545
Ag3 O7 2.463814 1_555
Ag3 O3 2.463814 1_545
Ag3 O2 2.463824 1_555
Ag3 O1 2.463824 1_545
Mo0 O1 1.776876 1_555
Mo0 O5 1.776887 1_565
Mo0 O3 1.776887 1_556
Mo0 O4 1.776887 1_655
Mo1 O2 1.776876 1_555
Mo1 O0 1.776887 1_545
Mo1 O7 1.776887 1_554
Mo1 O6 1.776887 1_455
