# generated using pymatgen
data_Ca8Mn8O23
_symmetry_space_group_name_H-M   'P 1'
_cell_length_a   7.61723600
_cell_length_b   7.61723600
_cell_length_c   7.67320600
_cell_angle_alpha   90.00000000
_cell_angle_beta   90.00000000
_cell_angle_gamma   90.00000000
_symmetry_Int_Tables_number   1
_chemical_formula_structural   Ca8Mn8O23
_chemical_formula_sum   'Ca8 Mn8 O23'
_cell_volume   445.21693987
_cell_formula_units_Z   1
loop_
 _symmetry_equiv_pos_site_id
 _symmetry_equiv_pos_as_xyz
  1  'x, y, z'
loop_
 _atom_site_type_symbol
 _atom_site_label
 _atom_site_symmetry_multiplicity
 _atom_site_fract_x
 _atom_site_fract_y
 _atom_site_fract_z
 _atom_site_occupancy
  Ca  Ca0  1  0.25568700  0.25568700  0.25000000  1
  Ca  Ca1  1  0.26456300  0.26456300  0.75000000  1
  Ca  Ca2  1  0.25568700  0.74431300  0.25000000  1
  Ca  Ca3  1  0.26456300  0.73543700  0.75000000  1
  Ca  Ca4  1  0.74431300  0.25568700  0.25000000  1
  Ca  Ca5  1  0.73543700  0.26456300  0.75000000  1
  Ca  Ca6  1  0.74431300  0.74431300  0.25000000  1
  Ca  Ca7  1  0.73543700  0.73543700  0.75000000  1
  Mn  Mn0  1  0.00000000  0.00000000  0.99170600  1
  Mn  Mn1  1  0.00000000  0.00000000  0.50829400  1
  Mn  Mn2  1  0.00000000  0.50000000  0.00368300  1
  Mn  Mn3  1  0.00000000  0.50000000  0.49631700  1
  Mn  Mn4  1  0.50000000  0.00000000  0.00368300  1
  Mn  Mn5  1  0.50000000  0.00000000  0.49631700  1
  Mn  Mn6  1  0.50000000  0.50000000  0.00134800  1
  Mn  Mn7  1  0.50000000  0.50000000  0.49865200  1
  O  O0  1  0.00000000  0.00000000  0.75000000  1
  O  O1  1  0.00000000  0.50000000  0.25000000  1
  O  O2  1  0.00000000  0.50000000  0.75000000  1
  O  O3  1  0.50000000  0.00000000  0.25000000  1
  O  O4  1  0.50000000  0.00000000  0.75000000  1
  O  O5  1  0.50000000  0.50000000  0.25000000  1
  O  O6  1  0.50000000  0.50000000  0.75000000  1
  O  O7  1  0.24575100  0.00000000  0.03178600  1
  O  O8  1  0.24575100  0.00000000  0.46821400  1
  O  O9  1  0.25011400  0.50000000  0.99143400  1
  O  O10  1  0.25011400  0.50000000  0.50856600  1
  O  O11  1  0.75424900  0.00000000  0.03178600  1
  O  O12  1  0.75424900  0.00000000  0.46821400  1
  O  O13  1  0.74988600  0.50000000  0.99143400  1
  O  O14  1  0.74988600  0.50000000  0.50856600  1
  O  O15  1  0.00000000  0.24575100  0.03178600  1
  O  O16  1  0.00000000  0.24575100  0.46821400  1
  O  O17  1  0.00000000  0.75424900  0.03178600  1
  O  O18  1  0.00000000  0.75424900  0.46821400  1
  O  O19  1  0.50000000  0.25011400  0.99143400  1
  O  O20  1  0.50000000  0.25011400  0.50856600  1
  O  O21  1  0.50000000  0.74988600  0.99143400  1
  O  O22  1  0.50000000  0.74988600  0.50856600  1
loop_
_geom_bond_atom_site_label_1
_geom_bond_atom_site_label_2
_geom_bond_distance
_geom_bond_site_symmetry_2
Ca0 O15 2.569553 1_555
Ca0 O8 2.569553 1_555
Ca0 O7 2.569553 1_555
Ca0 O16 2.569553 1_555
Ca0 O5 2.631837 1_555
Ca0 O3 2.693796 1_555
Ca0 O1 2.693796 1_555
Ca0 O19 2.720563 1_554
Ca0 O10 2.720563 1_555
Ca0 O20 2.720563 1_555
Ca0 O9 2.720563 1_554
Ca1 O6 2.536221 1_555
Ca1 O19 2.580765 1_555
Ca1 O20 2.580765 1_555
Ca1 O9 2.580765 1_555
Ca1 O10 2.580765 1_555
Ca1 O2 2.697665 1_555
Ca1 O4 2.697665 1_555
Ca1 O0 2.849978 1_555
Ca1 O8 2.959196 1_555
Ca1 O16 2.959196 1_555
Ca1 O7 2.959196 1_556
Ca1 O15 2.959196 1_556
Ca2 O17 2.569553 1_555
Ca2 O7 2.569553 1_565
Ca2 O8 2.569553 1_565
Ca2 O18 2.569553 1_555
Ca2 O5 2.631837 1_555
Ca2 O3 2.693796 1_565
Ca2 O1 2.693796 1_555
Ca2 O22 2.720563 1_555
Ca2 O10 2.720563 1_555
Ca2 O21 2.720563 1_554
Ca2 O9 2.720563 1_554
Ca3 O6 2.536221 1_555
Ca3 O21 2.580765 1_555
Ca3 O10 2.580765 1_555
Ca3 O9 2.580765 1_555
Ca3 O22 2.580765 1_555
Ca3 O2 2.697665 1_555
Ca3 O4 2.697665 1_565
Ca3 O0 2.849978 1_565
Ca3 O8 2.959196 1_565
Ca3 O18 2.959196 1_555
Ca3 O17 2.959196 1_556
Ca3 O7 2.959196 1_566
Ca4 O15 2.569553 1_655
Ca4 O11 2.569553 1_555
Ca4 O16 2.569553 1_655
Ca4 O12 2.569553 1_555
Ca4 O5 2.631837 1_555
Ca4 O3 2.693796 1_555
Ca4 O1 2.693796 1_655
Ca4 O19 2.720563 1_554
Ca4 O13 2.720563 1_554
Ca4 O20 2.720563 1_555
Ca4 O14 2.720563 1_555
Ca5 O6 2.536221 1_555
Ca5 O19 2.580765 1_555
Ca5 O20 2.580765 1_555
Ca5 O14 2.580765 1_555
Ca5 O13 2.580765 1_555
Ca5 O4 2.697665 1_555
Ca5 O2 2.697665 1_655
Ca5 O0 2.849978 1_655
Ca5 O16 2.959196 1_655
Ca5 O12 2.959196 1_555
Ca5 O15 2.959196 1_656
Ca5 O11 2.959196 1_556
Ca6 O18 2.569553 1_655
Ca6 O12 2.569553 1_565
Ca6 O17 2.569553 1_655
Ca6 O11 2.569553 1_565
Ca6 O5 2.631837 1_555
Ca6 O3 2.693796 1_565
Ca6 O1 2.693796 1_655
Ca6 O22 2.720563 1_555
Ca6 O13 2.720563 1_554
Ca6 O21 2.720563 1_554
Ca6 O14 2.720563 1_555
Ca7 O6 2.536221 1_555
Ca7 O21 2.580765 1_555
Ca7 O14 2.580765 1_555
Ca7 O13 2.580765 1_555
Ca7 O22 2.580765 1_555
Ca7 O4 2.697665 1_565
Ca7 O2 2.697665 1_655
Ca7 O0 2.849978 1_665
Ca7 O18 2.959196 1_655
Ca7 O12 2.959196 1_565
Ca7 O17 2.959196 1_656
Ca7 O11 2.959196 1_566
Mn0 O0 1.854660 1_555
Mn0 O7 1.897038 1_556
Mn0 O15 1.897038 1_556
Mn0 O17 1.897038 1_546
Mn0 O11 1.897038 1_456
Mn1 O0 1.854660 1_555
Mn1 O8 1.897038 1_555
Mn1 O16 1.897038 1_555
Mn1 O18 1.897038 1_545
Mn1 O12 1.897038 1_455
Mn2 O1 1.890041 1_555
Mn2 O13 1.907494 1_454
Mn2 O9 1.907494 1_554
Mn2 O2 1.946562 1_554
Mn2 O17 1.948643 1_555
Mn2 O15 1.948643 1_555
Mn3 O1 1.890041 1_555
Mn3 O14 1.907494 1_455
Mn3 O10 1.907494 1_555
Mn3 O2 1.946562 1_555
Mn3 O18 1.948643 1_555
Mn3 O16 1.948643 1_555
Mn4 O3 1.890041 1_555
Mn4 O21 1.907494 1_544
Mn4 O19 1.907494 1_554
Mn4 O4 1.946562 1_554
Mn4 O11 1.948643 1_555
Mn4 O7 1.948643 1_555
Mn5 O3 1.890041 1_555
Mn5 O22 1.907494 1_545
Mn5 O20 1.907494 1_555
Mn5 O4 1.946562 1_555
Mn5 O12 1.948643 1_555
Mn5 O8 1.948643 1_555
Mn6 O9 1.904960 1_554
Mn6 O19 1.904960 1_554
Mn6 O21 1.904960 1_554
Mn6 O13 1.904960 1_554
Mn6 O5 1.907958 1_555
Mn6 O6 1.928645 1_554
Mn7 O10 1.904960 1_555
Mn7 O20 1.904960 1_555
Mn7 O14 1.904960 1_555
Mn7 O22 1.904960 1_555
Mn7 O5 1.907958 1_555
Mn7 O6 1.928645 1_555
