# generated using pymatgen
data_Ba3SbN
_symmetry_space_group_name_H-M   'P 1'
_cell_length_a   7.62952326
_cell_length_b   7.62952438
_cell_length_c   6.73699565
_cell_angle_alpha   90.00000000
_cell_angle_beta   90.00000000
_cell_angle_gamma   119.99999516
_symmetry_Int_Tables_number   1
_chemical_formula_structural   Ba3SbN
_chemical_formula_sum   'Ba6 Sb2 N2'
_cell_volume   339.61884922
_cell_formula_units_Z   2
loop_
 _symmetry_equiv_pos_site_id
 _symmetry_equiv_pos_as_xyz
  1  'x, y, z'
loop_
 _atom_site_type_symbol
 _atom_site_label
 _atom_site_symmetry_multiplicity
 _atom_site_fract_x
 _atom_site_fract_y
 _atom_site_fract_z
 _atom_site_occupancy
  Ba  Ba0  1  0.68012726  0.84006313  0.25000000  1
  Ba  Ba1  1  0.84006313  0.15993687  0.75000000  1
  Ba  Ba2  1  0.15993687  0.31987274  0.25000000  1
  Ba  Ba3  1  0.84006313  0.68012726  0.75000000  1
  Ba  Ba4  1  0.31987274  0.15993687  0.75000000  1
  Ba  Ba5  1  0.15993687  0.84006313  0.25000000  1
  Sb  Sb0  1  0.66666700  0.33333300  0.25000000  1
  Sb  Sb1  1  0.33333300  0.66666700  0.75000000  1
  N  N0  1  -0.00000000  0.00000000  0.50000000  1
  N  N1  1  -0.00000000  0.00000000  -0.00000000  1
loop_
_geom_bond_atom_site_label_1
_geom_bond_atom_site_label_2
_geom_bond_distance
_geom_bond_site_symmetry_2
Ba0 N0 2.702525 1_665
Ba0 N1 2.702525 1_665
Ba0 Sb0 3.815799 1_565
Ba0 Sb0 3.815799 1_555
Ba0 Sb1 4.073975 1_554
Ba0 Sb1 4.073975 1_555
Ba1 N0 2.702530 1_655
Ba1 N1 2.702530 1_656
Ba1 Sb1 3.815799 1_545
Ba1 Sb1 3.815799 1_655
Ba1 Sb0 4.073967 1_556
Ba1 Sb0 4.073967 1_555
Ba2 N0 2.702525 1_555
Ba2 N1 2.702525 1_555
Ba2 Sb0 3.815798 1_455
Ba2 Sb0 3.815798 1_555
Ba2 Sb1 4.073975 1_554
Ba2 Sb1 4.073975 1_555
Ba3 N0 2.702525 1_665
Ba3 N1 2.702525 1_666
Ba3 Sb1 3.815798 1_555
Ba3 Sb1 3.815798 1_655
Ba3 Sb0 4.073975 1_555
Ba3 Sb0 4.073975 1_556
Ba4 N0 2.702525 1_555
Ba4 N1 2.702525 1_556
Ba4 Sb1 3.815799 1_545
Ba4 Sb1 3.815799 1_555
Ba4 Sb0 4.073975 1_555
Ba4 Sb0 4.073975 1_556
Ba5 N1 2.702530 1_565
Ba5 N0 2.702530 1_565
Ba5 Sb0 3.815799 1_565
Ba5 Sb0 3.815799 1_455
Ba5 Sb1 4.073967 1_555
Ba5 Sb1 4.073967 1_554
