# generated using pymatgen
data_Li6Ti3Fe(PO4)6
_symmetry_space_group_name_H-M   'P 1'
_cell_length_a   8.55078600
_cell_length_b   8.61186826
_cell_length_c   8.61303123
_cell_angle_alpha   62.33537646
_cell_angle_beta   62.44497844
_cell_angle_gamma   62.54884980
_symmetry_Int_Tables_number   1
_chemical_formula_structural   Li6Ti3Fe(PO4)6
_chemical_formula_sum   'Li6 Ti3 Fe1 P6 O24'
_cell_volume   472.90606341
_cell_formula_units_Z   1
loop_
 _symmetry_equiv_pos_site_id
 _symmetry_equiv_pos_as_xyz
  1  'x, y, z'
loop_
 _atom_site_type_symbol
 _atom_site_label
 _atom_site_symmetry_multiplicity
 _atom_site_fract_x
 _atom_site_fract_y
 _atom_site_fract_z
 _atom_site_occupancy
  Li  Li0  1  0.98034600  0.01108300  0.00423000  1
  Li  Li1  1  0.24545100  0.65473900  0.85238100  1
  Li  Li2  1  0.52219600  0.50201900  0.49131200  1
  Li  Li3  1  0.77384100  0.34033000  0.16054100  1
  Li  Li4  1  0.33824400  0.16229500  0.77527500  1
  Li  Li5  1  0.16273400  0.77461300  0.33786400  1
  Ti  Ti0  1  0.85426400  0.86414300  0.85516500  1
  Ti  Ti1  1  0.64635500  0.64492700  0.63806400  1
  Ti  Ti2  1  0.35246600  0.35130800  0.35084500  1
  Fe  Fe0  1  0.14890800  0.15064000  0.15070500  1
  P  P0  1  0.94544200  0.55259500  0.24656900  1
  P  P1  1  0.55203700  0.24975900  0.94308900  1
  P  P2  1  0.24916900  0.94612500  0.54811800  1
  P  P3  1  0.74645600  0.04279000  0.45898500  1
  P  P4  1  0.45684800  0.74702100  0.03906400  1
  P  P5  1  0.04451000  0.46226100  0.74739500  1
  O  O0  1  0.87875600  0.51423500  0.68746700  1
  O  O1  1  0.67797800  0.88491000  0.50610300  1
  O  O2  1  0.94990200  0.73442500  0.07930700  1
  O  O3  1  0.48537100  0.68596800  0.88261600  1
  O  O4  1  0.75829900  0.58260800  0.40466000  1
  O  O5  1  0.95975300  0.39719500  0.19477200  1
  O  O6  1  0.74067900  0.09260400  0.92977200  1
  O  O7  1  0.56525100  0.41697100  0.76125900  1
  O  O8  1  0.40406100  0.75508500  0.58033600  1
  O  O9  1  0.80654900  0.00567500  0.61909400  1
  O  O10  1  0.90367600  0.05591400  0.27036500  1
  O  O11  1  0.62607900  0.79821800  0.99624200  1
  O  O12  1  0.39509000  0.19495100  0.96246500  1
  O  O13  1  0.09485600  0.92825200  0.74142400  1
  O  O14  1  0.19270300  0.96310600  0.39558500  1
  O  O15  1  0.58989100  0.23404600  0.43685200  1
  O  O16  1  0.43883600  0.58823900  0.22988300  1
  O  O17  1  0.27116600  0.90602400  0.05822500  1
  O  O18  1  0.02424400  0.62155200  0.79972700  1
  O  O19  1  0.23382100  0.43424800  0.58793100  1
  O  O20  1  0.51047600  0.30469600  0.11024500  1
  O  O21  1  0.05367900  0.27556800  0.90624800  1
  O  O22  1  0.30662100  0.11052700  0.50705100  1
  O  O23  1  0.11299800  0.50733800  0.30376500  1
loop_
_geom_bond_atom_site_label_1
_geom_bond_atom_site_label_2
_geom_bond_distance
_geom_bond_site_symmetry_2
Li0 O6 2.139003 1_554
Li0 O10 2.243042 1_555
Li0 O2 2.268894 1_545
Li0 O21 2.309900 1_654
Li0 O13 2.322946 1_644
Li0 O17 2.413221 1_645
Li1 O8 2.082453 1_555
Li1 O13 2.090801 1_555
Li1 O18 2.297287 1_555
Li1 O3 2.327406 1_555
Li1 O2 2.398810 1_456
Li1 O7 2.575001 1_555
Li2 O4 2.128684 1_555
Li2 O7 2.244976 1_555
Li2 O8 2.272307 1_555
Li2 O15 2.324468 1_555
Li2 O16 2.360928 1_555
Li2 O19 2.467959 1_555
Li3 O5 2.034537 1_555
Li3 O10 2.107052 1_555
Li3 O15 2.194751 1_555
Li3 O21 2.426700 1_654
Li4 O12 2.046199 1_555
Li4 O21 2.106821 1_555
Li4 O19 2.186730 1_555
Li4 O17 2.453232 1_546
Li5 O14 2.049059 1_555
Li5 O17 2.076459 1_555
Li5 O16 2.208141 1_555
Li5 O10 2.459591 1_465
Fe0 O14 2.051131 1_545
Fe0 O12 2.052793 1_554
Fe0 O5 2.069431 1_455
Fe0 O10 2.218492 1_455
Fe0 O17 2.218649 1_545
Fe0 O21 2.220085 1_554
O0 P5 1.533949 1_655
O0 Ti1 1.916329 1_555
O1 P3 1.535566 1_565
O1 Ti1 1.919857 1_555
O2 P0 1.561520 1_555
O2 Ti0 2.063845 1_554
O3 P4 1.545077 1_556
O3 Ti1 2.004141 1_555
O4 P0 1.552774 1_555
O4 Ti1 1.998377 1_555
O5 P0 1.535553 1_555
O6 P1 1.551431 1_555
O6 Ti0 2.015430 1_545
O7 P1 1.559235 1_555
O7 Ti1 2.025048 1_555
O8 P2 1.563645 1_555
O8 Ti1 2.035317 1_555
O9 P3 1.537132 1_555
O9 Ti0 1.947833 1_545
O10 P3 1.551863 1_555
O11 P4 1.538780 1_556
O11 Ti0 1.947572 1_555
O12 P1 1.534702 1_555
O13 P2 1.566377 1_555
O13 Ti0 2.043801 1_455
O14 P2 1.524428 1_555
O15 P3 1.566208 1_555
O15 Ti2 2.120539 1_555
O16 P4 1.570924 1_555
O16 Ti2 2.120765 1_555
O17 P4 1.544690 1_555
O18 P5 1.548462 1_555
O18 Ti0 2.046886 1_455
O19 P5 1.567039 1_555
O19 Ti2 2.116340 1_555
O20 P1 1.557894 1_554
O20 Ti2 1.990723 1_555
O21 P5 1.550297 1_555
O22 P2 1.544809 1_545
O22 Ti2 1.983533 1_555
O23 P0 1.551516 1_455
O23 Ti2 1.971873 1_555
