# generated using pymatgen
data_Mg6ZnFe
_symmetry_space_group_name_H-M   'P 1'
_cell_length_a   6.10143573
_cell_length_b   6.10143573
_cell_length_c   4.75408300
_cell_angle_alpha   90.00000000
_cell_angle_beta   90.00000000
_cell_angle_gamma   119.48144367
_symmetry_Int_Tables_number   1
_chemical_formula_structural   Mg6ZnFe
_chemical_formula_sum   'Mg6 Zn1 Fe1'
_cell_volume   154.06612714
_cell_formula_units_Z   1
loop_
 _symmetry_equiv_pos_site_id
 _symmetry_equiv_pos_as_xyz
  1  'x, y, z'
loop_
 _atom_site_type_symbol
 _atom_site_label
 _atom_site_symmetry_multiplicity
 _atom_site_fract_x
 _atom_site_fract_y
 _atom_site_fract_z
 _atom_site_occupancy
  Mg  Mg0  1  0.33243400  0.16511600  0.50000000  1
  Mg  Mg1  1  0.83488400  0.66756600  0.50000000  1
  Mg  Mg2  1  0.16822900  0.34595900  0.00000000  1
  Mg  Mg3  1  0.65404100  0.83177100  0.00000000  1
  Mg  Mg4  1  0.67030400  0.32969600  0.00000000  1
  Mg  Mg5  1  0.17493400  0.82506600  0.00000000  1
  Zn  Zn0  1  0.83298000  0.16702000  0.50000000  1
  Fe  Fe0  1  0.33219800  0.66780200  0.50000000  1
loop_
_geom_bond_atom_site_label_1
_geom_bond_atom_site_label_2
_geom_bond_distance
_geom_bond_site_symmetry_2
Mg0 Mg4 2.978402 1_555
Mg0 Mg4 2.978402 1_556
Mg0 Mg5 2.985980 1_546
Mg0 Mg5 2.985980 1_545
Mg0 Mg2 2.993277 1_556
Mg0 Mg2 2.993277 1_555
Mg0 Zn0 3.048349 1_555
Mg0 Zn0 3.053121 1_455
Mg0 Mg1 3.059532 1_445
Mg0 Mg1 3.089664 1_555
Mg1 Mg4 2.978402 1_555
Mg1 Mg4 2.978402 1_556
Mg1 Mg5 2.985980 1_656
Mg1 Mg5 2.985980 1_655
Mg1 Mg3 2.993277 1_555
Mg1 Mg3 2.993277 1_556
Mg1 Zn0 3.048349 1_555
Mg1 Zn0 3.053121 1_565
Mg2 Mg5 2.903325 1_555
Mg2 Zn0 2.971236 1_454
Mg2 Zn0 2.971236 1_455
Mg2 Mg3 2.987353 1_555
Mg2 Mg4 2.990471 1_455
Mg2 Mg4 3.113411 1_555
Mg2 Mg3 3.161843 1_445
Mg2 Mg5 3.198527 1_545
Mg3 Mg5 2.903325 1_555
Mg3 Zn0 2.971236 1_564
Mg3 Zn0 2.971236 1_565
Mg3 Mg4 2.990471 1_565
Mg3 Mg4 3.113411 1_555
Mg3 Mg5 3.198527 1_655
Mg4 Zn0 2.930930 1_554
Mg4 Zn0 2.930930 1_555
Mg4 Mg5 3.074985 1_655
Mg4 Mg5 3.074985 1_545
Fe0 Mg5 2.897928 1_556
Fe0 Mg5 2.897928 1_555
Fe0 Mg3 2.928080 1_556
Fe0 Mg3 2.928080 1_555
Fe0 Mg2 2.928080 1_555
Fe0 Mg2 2.928080 1_556
Fe0 Mg0 3.033621 1_565
Fe0 Mg1 3.033621 1_455
Fe0 Mg1 3.067815 1_555
Fe0 Mg0 3.067815 1_555
Fe0 Zn0 3.074609 1_565
Fe0 Zn0 3.074609 1_455
