# generated using pymatgen
data_Al9Ir2
_symmetry_space_group_name_H-M   'P 1'
_cell_length_a   6.35064287
_cell_length_b   6.43313335
_cell_length_c   8.69609087
_cell_angle_alpha   90.00031294
_cell_angle_beta   95.14059433
_cell_angle_gamma   90.00058290
_symmetry_Int_Tables_number   1
_chemical_formula_structural   Al9Ir2
_chemical_formula_sum   'Al18 Ir4'
_cell_volume   353.84575216
_cell_formula_units_Z   2
loop_
 _symmetry_equiv_pos_site_id
 _symmetry_equiv_pos_as_xyz
  1  'x, y, z'
loop_
 _atom_site_type_symbol
 _atom_site_label
 _atom_site_symmetry_multiplicity
 _atom_site_fract_x
 _atom_site_fract_y
 _atom_site_fract_z
 _atom_site_occupancy
  Al  Al0  1  0.00000000  0.50000000  0.50000000  1
  Al  Al1  1  0.00000000  0.00000000  -0.00000000  1
  Al  Al2  1  0.78663394  0.39629287  0.96113071  1
  Al  Al3  1  0.21337065  0.89633697  0.53886771  1
  Al  Al4  1  0.59698479  0.47999531  0.22776747  1
  Al  Al5  1  0.40301310  0.97997256  0.27219258  1
  Al  Al6  1  0.40301521  0.52000469  0.77223253  1
  Al  Al7  1  0.59698690  0.02002744  0.72780742  1
  Al  Al8  1  0.61204877  0.69313765  0.50195046  1
  Al  Al9  1  0.38797789  0.19311099  0.99804791  1
  Al  Al10  1  0.38795123  0.30686235  0.49804954  1
  Al  Al11  1  0.61202211  0.80688901  0.00195209  1
  Al  Al12  1  0.90072402  0.78523050  0.27389045  1
  Al  Al13  1  0.09926704  0.28522298  0.22611004  1
  Al  Al14  1  0.09927598  0.21476950  0.72610955  1
  Al  Al15  1  0.90073296  0.71477802  0.77388996  1
  Al  Al16  1  0.78662935  0.10366303  0.46113229  1
  Al  Al17  1  0.21336606  0.60370713  0.03886929  1
  Ir  Ir0  1  0.73635189  0.37669346  0.66891616  1
  Ir  Ir1  1  0.26363947  0.87669681  0.83109600  1
  Ir  Ir2  1  0.26364811  0.62330654  0.33108384  1
  Ir  Ir3  1  0.73636053  0.12330319  0.16890400  1
loop_
_geom_bond_atom_site_label_1
_geom_bond_atom_site_label_2
_geom_bond_distance
_geom_bond_site_symmetry_2
Al0 Ir0 2.455821 1_455
Al0 Ir2 2.455821 1_555
Al1 Ir3 2.455709 1_455
Al1 Ir1 2.455709 1_544
Al2 Ir0 2.535698 1_555
Al2 Ir3 2.560093 1_556
Al3 Ir1 2.535828 1_555
Al3 Ir2 2.560334 1_555
Al4 Ir3 2.528260 1_555
Al4 Ir2 2.545450 1_555
Al5 Ir2 2.528128 1_555
Al5 Ir3 2.545439 1_565
Al6 Ir1 2.528260 1_555
Al6 Ir0 2.545450 1_555
Al7 Ir0 2.528128 1_555
Al7 Ir1 2.545439 1_545
Al8 Ir0 2.582668 1_555
Al8 Ir2 2.591509 1_555
Al9 Ir1 2.582484 1_545
Al9 Ir3 2.591356 1_556
Al10 Ir2 2.582668 1_555
Al10 Ir0 2.591509 1_555
Al11 Ir3 2.582484 1_565
Al11 Ir1 2.591356 1_554
Al12 Ir2 2.537559 1_655
Al12 Ir3 2.546057 1_565
Al13 Ir3 2.537439 1_455
Al13 Ir2 2.546097 1_555
Al14 Ir0 2.537559 1_455
Al14 Ir1 2.546057 1_545
Al15 Ir1 2.537437 1_655
Al15 Ir0 2.546102 1_555
Al16 Ir3 2.535828 1_555
Al16 Ir0 2.560334 1_555
Al17 Ir2 2.535698 1_555
Al17 Ir1 2.560093 1_554
