# generated using pymatgen
data_Zn(SnO2)2
_symmetry_space_group_name_H-M   'P 1'
_cell_length_a   6.40075442
_cell_length_b   6.40075442
_cell_length_c   17.19519387
_cell_angle_alpha   88.90036393
_cell_angle_beta   88.90036393
_cell_angle_gamma   59.82047500
_symmetry_Int_Tables_number   1
_chemical_formula_structural   Zn(SnO2)2
_chemical_formula_sum   'Zn6 Sn12 O24'
_cell_volume   608.84266838
_cell_formula_units_Z   6
loop_
 _symmetry_equiv_pos_site_id
 _symmetry_equiv_pos_as_xyz
  1  'x, y, z'
loop_
 _atom_site_type_symbol
 _atom_site_label
 _atom_site_symmetry_multiplicity
 _atom_site_fract_x
 _atom_site_fract_y
 _atom_site_fract_z
 _atom_site_occupancy
  Zn  Zn0  1  0.84459800  0.84459800  0.94596700  1
  Zn  Zn1  1  0.16530700  0.16530700  0.66507100  1
  Zn  Zn2  1  0.33402700  0.33402700  0.82733600  1
  Zn  Zn3  1  0.83324400  0.83324400  0.33456200  1
  Zn  Zn4  1  0.00008000  0.00008000  0.49886200  1
  Zn  Zn5  1  0.65977100  0.65977100  0.17423900  1
  Sn  Sn0  1  0.84293900  0.33487800  0.83247900  1
  Sn  Sn1  1  0.50384800  0.50384800  0.62580900  1
  Sn  Sn2  1  0.49893800  0.49893800  0.99443900  1
  Sn  Sn3  1  0.33487800  0.84293900  0.83247900  1
  Sn  Sn4  1  0.50013500  0.00058800  0.49912500  1
  Sn  Sn5  1  0.16629700  0.16629700  0.29029500  1
  Sn  Sn6  1  0.00058800  0.50013500  0.49912500  1
  Sn  Sn7  1  0.15541900  0.66499900  0.16784400  1
  Sn  Sn8  1  0.83367400  0.83367400  0.70543500  1
  Sn  Sn9  1  0.66499900  0.15541900  0.16784400  1
  Sn  Sn10  1  0.49685900  0.49685900  0.37221200  1
  Sn  Sn11  1  0.15635500  0.15635500  0.04809700  1
  O  O0  1  0.67939400  0.18454700  0.90663800  1
  O  O1  1  0.50439700  0.50439700  0.78146100  1
  O  O2  1  0.18454700  0.67939400  0.90663800  1
  O  O3  1  0.66982200  0.66982200  0.90124200  1
  O  O4  1  0.32718400  0.86913100  0.57474800  1
  O  O5  1  0.02032400  0.02032400  0.76116300  1
  O  O6  1  0.16956200  0.16956200  0.44082100  1
  O  O7  1  0.46334700  0.00641800  0.75212500  1
  O  O8  1  0.86913100  0.32718400  0.57474800  1
  O  O9  1  0.17420100  0.17420100  0.88791500  1
  O  O10  1  0.31944600  0.31944600  0.56890300  1
  O  O11  1  0.00641800  0.46334700  0.75212500  1
  O  O12  1  0.97917000  0.54000200  0.24289200  1
  O  O13  1  0.68368600  0.68368600  0.42987600  1
  O  O14  1  0.12945800  0.67305500  0.42327200  1
  O  O15  1  0.54000200  0.97917000  0.24289200  1
  O  O16  1  0.84565600  0.84565600  0.09387400  1
  O  O17  1  0.83080200  0.83080200  0.55821300  1
  O  O18  1  0.97329400  0.97329400  0.24138900  1
  O  O19  1  0.67305500  0.12945800  0.42327200  1
  O  O20  1  0.33323500  0.33323500  0.10499700  1
  O  O21  1  0.81995000  0.33394500  0.11040100  1
  O  O22  1  0.48200300  0.48200300  0.22879600  1
  O  O23  1  0.33394500  0.81995000  0.11040100  1
loop_
_geom_bond_atom_site_label_1
_geom_bond_atom_site_label_2
_geom_bond_distance
_geom_bond_site_symmetry_2
O0 Zn0 1.991926 1_545
O0 Sn0 2.135928 1_555
O0 Sn2 2.318563 1_555
O0 Zn2 2.366590 1_555
O1 Zn2 2.032293 1_555
O1 Sn3 2.077245 1_555
O1 Sn0 2.077245 1_555
O1 Sn1 2.676608 1_555
O2 Zn0 1.991926 1_455
O2 Sn3 2.135928 1_555
O2 Sn2 2.318563 1_555
O2 Zn2 2.366590 1_555
O3 Zn0 2.102078 1_555
O3 Sn3 2.209230 1_555
O3 Sn0 2.209230 1_555
O3 Sn2 2.455438 1_555
O4 Sn4 2.112740 1_565
O4 Sn1 2.194840 1_555
O4 Zn4 2.255513 1_565
O4 Zn1 2.270676 1_565
O5 Sn0 2.142329 1_455
O5 Sn3 2.142329 1_545
O5 Zn1 2.280500 1_555
O5 Sn8 2.301261 1_445
O6 Sn4 2.095443 1_555
O6 Sn6 2.095443 1_555
O6 Zn4 2.109451 1_555
O6 Sn5 2.589379 1_555
O7 Sn3 2.108605 1_545
O7 Sn8 2.193557 1_545
O7 Zn1 2.239379 1_555
O7 Zn2 2.252273 1_555
O8 Sn6 2.112740 1_655
O8 Sn1 2.194840 1_555
O8 Zn4 2.255513 1_655
O8 Zn1 2.270676 1_655
O9 Zn2 2.036805 1_555
O9 Sn3 2.075963 1_545
O9 Sn0 2.075963 1_455
O10 Sn4 2.147121 1_555
O10 Sn6 2.147121 1_555
O10 Sn1 2.287598 1_555
O10 Zn1 2.352593 1_555
O11 Sn0 2.108605 1_455
O11 Sn8 2.193557 1_455
O11 Zn1 2.239379 1_555
O11 Zn2 2.252273 1_555
O12 Sn7 2.095248 1_655
O12 Zn5 2.154755 1_555
O12 Sn5 2.214210 1_655
O12 Zn3 2.274751 1_555
O13 Sn6 2.134391 1_655
O13 Sn4 2.134391 1_565
O13 Zn3 2.306478 1_555
O13 Sn10 2.317755 1_555
O14 Sn6 2.104255 1_555
O14 Sn10 2.205723 1_555
O14 Zn3 2.251513 1_455
O14 Zn4 2.253226 1_565
O15 Sn9 2.095248 1_565
O15 Zn5 2.154755 1_555
O15 Sn5 2.214210 1_565
O15 Zn3 2.274751 1_555
O16 Sn9 2.149723 1_565
O16 Sn7 2.149723 1_655
O16 Zn5 2.457232 1_555
O16 Zn0 2.543577 1_554
O17 Sn6 2.102511 1_655
O17 Sn4 2.102511 1_565
O17 Zn4 2.117775 1_665
O17 Sn8 2.532417 1_555
O18 Sn9 2.139756 1_565
O18 Sn7 2.139756 1_655
O18 Zn3 2.207184 1_555
O18 Sn5 2.318102 1_665
O19 Sn4 2.104255 1_555
O19 Sn10 2.205723 1_555
O19 Zn3 2.251513 1_545
O19 Zn4 2.253226 1_655
O20 Sn7 2.140913 1_555
O20 Sn9 2.140913 1_555
O20 Sn11 2.212387 1_555
O20 Sn2 2.615367 1_554
O21 Sn9 2.079335 1_555
O21 Zn5 2.121421 1_555
O21 Sn11 2.138606 1_655
O21 Sn2 2.684750 1_554
O22 Sn7 2.101275 1_555
O22 Sn9 2.101275 1_555
O22 Zn5 2.165467 1_555
O22 Sn10 2.475209 1_555
O23 Sn7 2.079335 1_555
O23 Zn5 2.121421 1_555
O23 Sn11 2.138606 1_565
O23 Sn2 2.684750 1_554
