# generated using pymatgen
data_CaCeMg14
_symmetry_space_group_name_H-M   'P 1'
_cell_length_a   6.52293143
_cell_length_b   6.52293143
_cell_length_c   10.50363200
_cell_angle_alpha   90.00000000
_cell_angle_beta   90.00000000
_cell_angle_gamma   118.36554536
_symmetry_Int_Tables_number   1
_chemical_formula_structural   CaCeMg14
_chemical_formula_sum   'Ca1 Ce1 Mg14'
_cell_volume   393.25606977
_cell_formula_units_Z   1
loop_
 _symmetry_equiv_pos_site_id
 _symmetry_equiv_pos_as_xyz
  1  'x, y, z'
loop_
 _atom_site_type_symbol
 _atom_site_label
 _atom_site_symmetry_multiplicity
 _atom_site_fract_x
 _atom_site_fract_y
 _atom_site_fract_z
 _atom_site_occupancy
  Ca  Ca0  1  0.66452700  0.33547300  0.00000000  1
  Ce  Ce0  1  0.16359200  0.83640800  0.00000000  1
  Mg  Mg0  1  0.66640600  0.33359400  0.50000000  1
  Mg  Mg1  1  0.16690000  0.83310000  0.50000000  1
  Mg  Mg2  1  0.66573300  0.82908300  0.00000000  1
  Mg  Mg3  1  0.66598800  0.83274500  0.50000000  1
  Mg  Mg4  1  0.17091700  0.33426700  0.00000000  1
  Mg  Mg5  1  0.16725500  0.33401200  0.50000000  1
  Mg  Mg6  1  0.83529700  0.66942300  0.25380500  1
  Mg  Mg7  1  0.83529700  0.66942300  0.74619500  1
  Mg  Mg8  1  0.33057700  0.16470300  0.25380500  1
  Mg  Mg9  1  0.33057700  0.16470300  0.74619500  1
  Mg  Mg10  1  0.83499900  0.16500100  0.25052800  1
  Mg  Mg11  1  0.83499900  0.16500100  0.74947200  1
  Mg  Mg12  1  0.33347200  0.66652800  0.25008100  1
  Mg  Mg13  1  0.33347200  0.66652800  0.74991900  1
loop_
_geom_bond_atom_site_label_1
_geom_bond_atom_site_label_2
_geom_bond_distance
_geom_bond_site_symmetry_2
Ca0 Mg2 3.216054 1_555
Ca0 Mg4 3.216054 1_555
Ca0 Mg10 3.251529 1_555
Ca0 Mg11 3.251529 1_554
Ca0 Mg8 3.284389 1_555
Ca0 Mg6 3.284389 1_555
Ca0 Mg9 3.284389 1_554
Ca0 Mg7 3.284389 1_554
Ca0 Mg4 3.306892 1_655
Ca0 Mg2 3.306892 1_545
Ca0 Ce0 3.341721 1_545
Ca0 Ce0 3.341721 1_655
Ce0 Mg2 3.225074 1_455
Ce0 Mg4 3.225074 1_565
Ce0 Mg13 3.243834 1_554
Ce0 Mg12 3.243834 1_555
Ce0 Mg6 3.265387 1_455
Ce0 Mg8 3.265387 1_565
Ce0 Mg7 3.265387 1_454
Ce0 Mg9 3.265387 1_564
Ce0 Mg4 3.298400 1_555
Ce0 Mg2 3.298400 1_555
Mg0 Mg9 3.225888 1_555
Mg0 Mg7 3.225888 1_555
Mg0 Mg8 3.225888 1_555
Mg0 Mg6 3.225888 1_555
Mg0 Mg11 3.230203 1_555
Mg0 Mg10 3.230203 1_555
Mg0 Mg5 3.257224 1_555
Mg0 Mg3 3.257224 1_555
Mg0 Mg3 3.265709 1_545
Mg0 Mg5 3.265709 1_655
Mg0 Mg1 3.341710 1_545
Mg0 Mg1 3.341710 1_655
Mg1 Mg9 3.211124 1_565
Mg1 Mg7 3.211124 1_455
Mg1 Mg8 3.211124 1_565
Mg1 Mg6 3.211124 1_455
Mg1 Mg12 3.220841 1_555
Mg1 Mg13 3.220841 1_555
Mg1 Mg3 3.256618 1_555
Mg1 Mg5 3.256618 1_555
Mg1 Mg5 3.266315 1_565
Mg1 Mg3 3.266315 1_455
Mg2 Mg6 3.241819 1_555
Mg2 Mg7 3.241819 1_554
Mg2 Mg4 3.307058 1_555
Mg2 Mg4 3.376352 1_665
Mg3 Mg7 3.187423 1_555
Mg3 Mg6 3.187423 1_555
Mg3 Mg5 3.333237 1_555
Mg3 Mg5 3.350173 1_665
Mg4 Mg8 3.241819 1_555
Mg4 Mg9 3.241819 1_554
Mg5 Mg9 3.187423 1_555
Mg5 Mg8 3.187423 1_555
Mg6 Mg8 3.310159 1_665
Mg6 Mg8 3.373251 1_555
Mg7 Mg9 3.310159 1_665
Mg7 Mg9 3.373251 1_555
Mg10 Mg6 3.233728 1_545
Mg10 Mg8 3.233728 1_655
Mg10 Mg3 3.241682 1_545
Mg10 Mg5 3.241682 1_655
Mg10 Mg2 3.262828 1_545
Mg10 Mg4 3.262828 1_655
Mg10 Mg8 3.289567 1_555
Mg10 Mg6 3.289567 1_555
Mg10 Mg12 3.341752 1_545
Mg10 Mg12 3.341752 1_655
Mg11 Mg7 3.233728 1_545
Mg11 Mg9 3.233728 1_655
Mg11 Mg3 3.241682 1_545
Mg11 Mg5 3.241682 1_655
Mg11 Mg2 3.262828 1_546
Mg11 Mg4 3.262828 1_656
Mg11 Mg9 3.289567 1_555
Mg11 Mg7 3.289567 1_555
Mg11 Mg13 3.341752 1_545
Mg11 Mg13 3.341752 1_655
Mg12 Mg5 3.245984 1_555
Mg12 Mg3 3.245984 1_555
Mg12 Mg2 3.246200 1_555
Mg12 Mg4 3.246200 1_555
Mg12 Mg8 3.258810 1_565
Mg12 Mg6 3.258810 1_455
Mg12 Mg6 3.264675 1_555
Mg12 Mg8 3.264675 1_555
Mg13 Mg5 3.245984 1_555
Mg13 Mg3 3.245984 1_555
Mg13 Mg2 3.246200 1_556
Mg13 Mg4 3.246200 1_556
Mg13 Mg7 3.258810 1_455
Mg13 Mg9 3.258810 1_565
Mg13 Mg9 3.264675 1_555
Mg13 Mg7 3.264675 1_555
