# generated using pymatgen
data_Li12Mn3NiP4(CO7)4
_symmetry_space_group_name_H-M   'P 1'
_cell_length_a   6.58180600
_cell_length_b   8.51523400
_cell_length_c   9.99107530
_cell_angle_alpha   85.51169881
_cell_angle_beta   90.00000000
_cell_angle_gamma   90.00000000
_symmetry_Int_Tables_number   1
_chemical_formula_structural   Li12Mn3NiP4(CO7)4
_chemical_formula_sum   'Li12 Mn3 Ni1 P4 C4 O28'
_cell_volume   558.23879349
_cell_formula_units_Z   1
loop_
 _symmetry_equiv_pos_site_id
 _symmetry_equiv_pos_as_xyz
  1  'x, y, z'
loop_
 _atom_site_type_symbol
 _atom_site_label
 _atom_site_symmetry_multiplicity
 _atom_site_fract_x
 _atom_site_fract_y
 _atom_site_fract_z
 _atom_site_occupancy
  Li  Li0  1  0.00000000  0.90776500  0.61943800  1
  Li  Li1  1  0.00000000  0.90397200  0.11886000  1
  Li  Li2  1  0.22416500  0.72693300  0.87689600  1
  Li  Li3  1  0.77583500  0.72693300  0.87689600  1
  Li  Li4  1  0.22417100  0.72563700  0.37625000  1
  Li  Li5  1  0.77582900  0.72563700  0.37625000  1
  Li  Li6  1  0.72474200  0.27290100  0.62188100  1
  Li  Li7  1  0.27525800  0.27290100  0.62188100  1
  Li  Li8  1  0.72513800  0.27375200  0.12461900  1
  Li  Li9  1  0.27486200  0.27375200  0.12461900  1
  Li  Li10  1  0.50000000  0.09339300  0.88037600  1
  Li  Li11  1  0.50000000  0.09301500  0.37988400  1
  Mn  Mn0  1  0.50000000  0.65970400  0.61122800  1
  Mn  Mn1  1  0.50000000  0.65950800  0.11157200  1
  Mn  Mn2  1  0.00000000  0.33981900  0.88886800  1
  Ni  Ni0  1  0.00000000  0.33316400  0.39657400  1
  P  P0  1  0.00000000  0.59010700  0.63627500  1
  P  P1  1  0.00000000  0.58637700  0.14186300  1
  P  P2  1  0.50000000  0.40909300  0.86055200  1
  P  P3  1  0.50000000  0.40967800  0.35991400  1
  C  C0  1  0.50000000  0.96735900  0.64870000  1
  C  C1  1  0.50000000  0.96716300  0.14871900  1
  C  C2  1  0.00000000  0.03269500  0.85162100  1
  C  C3  1  0.00000000  0.03938600  0.35157700  1
  O  O0  1  0.50000000  0.93002400  0.52578000  1
  O  O1  1  0.00000000  0.88620700  0.82196700  1
  O  O2  1  0.50000000  0.92947600  0.02581400  1
  O  O3  1  0.50000000  0.85579000  0.74615500  1
  O  O4  1  0.00000000  0.89335400  0.32157600  1
  O  O5  1  0.50000000  0.85580500  0.24628200  1
  O  O6  1  0.18401500  0.69102600  0.58368700  1
  O  O7  1  0.81598500  0.69102600  0.58368700  1
  O  O8  1  0.18321300  0.68908400  0.08886900  1
  O  O9  1  0.81678700  0.68908400  0.08886900  1
  O  O10  1  0.50000000  0.57969600  0.90530900  1
  O  O11  1  0.00000000  0.57479500  0.79332400  1
  O  O12  1  0.50000000  0.58011700  0.40486100  1
  O  O13  1  0.00000000  0.56650000  0.29930400  1
  O  O14  1  0.50000000  0.42261700  0.70335000  1
  O  O15  1  0.00000000  0.42067600  0.58863000  1
  O  O16  1  0.50000000  0.42257000  0.20285900  1
  O  O17  1  0.00000000  0.41967700  0.09117200  1
  O  O18  1  0.31608500  0.30949400  0.91478900  1
  O  O19  1  0.68391500  0.30949400  0.91478900  1
  O  O20  1  0.68644600  0.31096900  0.41369000  1
  O  O21  1  0.31355400  0.31096900  0.41369000  1
  O  O22  1  0.00000000  0.14394500  0.75407100  1
  O  O23  1  0.50000000  0.11339000  0.67801100  1
  O  O24  1  0.00000000  0.15373300  0.25689000  1
  O  O25  1  0.00000000  0.06948600  0.97447500  1
  O  O26  1  0.50000000  0.11318800  0.17794400  1
  O  O27  1  0.00000000  0.07716300  0.47484200  1
loop_
_geom_bond_atom_site_label_1
_geom_bond_atom_site_label_2
_geom_bond_distance
_geom_bond_site_symmetry_2
Li0 O27 1.960005 1_565
Li0 O1 2.017435 1_555
Li0 O6 2.259165 1_555
Li0 O7 2.259165 1_455
Li0 O22 2.505475 1_565
Li1 O25 1.936274 1_564
Li1 O4 2.020287 1_555
Li1 O8 2.231138 1_555
Li1 O9 2.231138 1_455
Li2 O1 2.049623 1_555
Li2 O8 2.134229 1_556
Li2 O11 2.172927 1_555
Li2 O10 2.211968 1_555
Li2 O3 2.445795 1_555
Li3 O1 2.049623 1_655
Li3 O9 2.134229 1_556
Li3 O11 2.172927 1_655
Li3 O10 2.211968 1_555
Li3 O3 2.445795 1_555
Li4 O6 2.087211 1_555
Li4 O4 2.095914 1_555
Li4 O13 2.183410 1_555
Li4 O12 2.203997 1_555
Li4 O5 2.446494 1_555
Li5 O7 2.087211 1_555
Li5 O4 2.095914 1_655
Li5 O13 2.183410 1_655
Li5 O12 2.203997 1_555
Li5 O5 2.446494 1_555
Li6 O23 2.056269 1_555
Li6 O20 2.095160 1_555
Li6 O14 2.153669 1_555
Li6 O15 2.215986 1_655
Li6 O22 2.450583 1_655
Li7 O23 2.056269 1_555
Li7 O21 2.095160 1_555
Li7 O14 2.153669 1_555
Li7 O15 2.215986 1_555
Li7 O22 2.450583 1_555
Li8 O26 2.057902 1_555
Li8 O19 2.112200 1_554
Li8 O16 2.137222 1_555
Li8 O17 2.205335 1_655
Li8 O24 2.419157 1_655
Li9 O26 2.057902 1_555
Li9 O18 2.112200 1_554
Li9 O16 2.137222 1_555
Li9 O17 2.205335 1_555
Li9 O24 2.419157 1_555
Li10 O2 1.934489 1_546
Li10 O23 2.015680 1_555
Li10 O18 2.251374 1_555
Li10 O19 2.251374 1_555
Li10 O3 2.513261 1_545
Li11 O0 1.932463 1_545
Li11 O26 2.011458 1_555
Li11 O21 2.272128 1_555
Li11 O20 2.272128 1_555
Li11 O5 2.506740 1_545
Mn0 O6 2.112045 1_555
Mn0 O7 2.112045 1_555
Mn0 O14 2.152225 1_555
Mn0 O12 2.220160 1_555
Mn0 O3 2.226551 1_555
Mn0 O0 2.391595 1_555
Mn1 O9 2.110282 1_555
Mn1 O8 2.110282 1_555
Mn1 O16 2.148134 1_555
Mn1 O10 2.219895 1_554
Mn1 O5 2.226545 1_555
Mn1 O2 2.389670 1_555
Mn2 O19 2.109832 1_455
Mn2 O18 2.109832 1_555
Mn2 O11 2.148442 1_555
Mn2 O17 2.182411 1_556
Mn2 O22 2.224249 1_555
Mn2 O25 2.392147 1_555
Ni0 O21 2.078214 1_555
Ni0 O20 2.078214 1_455
Ni0 O15 2.112123 1_555
Ni0 O13 2.142442 1_555
Ni0 O24 2.148460 1_555
Ni0 O27 2.257587 1_555
C0 O0 1.292445 1_555
C0 O23 1.299622 1_565
C0 O3 1.306080 1_555
C1 O2 1.293263 1_555
C1 O26 1.299314 1_565
C1 O5 1.305622 1_555
C2 O25 1.290329 1_555
C2 O1 1.304445 1_545
C2 O22 1.304919 1_555
C3 O27 1.296996 1_555
C3 O4 1.301716 1_545
C3 O24 1.303407 1_555
O6 P0 1.552661 1_555
O7 P0 1.552661 1_655
O8 P1 1.557841 1_555
O9 P1 1.557841 1_655
O10 P2 1.553075 1_555
O11 P0 1.564295 1_555
O12 P3 1.552424 1_555
O13 P1 1.568860 1_555
O14 P2 1.565820 1_555
O15 P0 1.554220 1_555
O16 P3 1.564390 1_555
O17 P1 1.544010 1_555
O18 P2 1.551223 1_555
O19 P2 1.551223 1_555
O20 P3 1.558968 1_555
O21 P3 1.558968 1_555
