# generated using pymatgen
data_YMg6Zn
_symmetry_space_group_name_H-M   'P 1'
_cell_length_a   5.03715500
_cell_length_b   6.52562300
_cell_length_c   11.28862600
_cell_angle_alpha   90.00000000
_cell_angle_beta   90.00000000
_cell_angle_gamma   90.00000000
_symmetry_Int_Tables_number   1
_chemical_formula_structural   YMg6Zn
_chemical_formula_sum   'Y2 Mg12 Zn2'
_cell_volume   371.06362219
_cell_formula_units_Z   2
loop_
 _symmetry_equiv_pos_site_id
 _symmetry_equiv_pos_as_xyz
  1  'x, y, z'
loop_
 _atom_site_type_symbol
 _atom_site_label
 _atom_site_symmetry_multiplicity
 _atom_site_fract_x
 _atom_site_fract_y
 _atom_site_fract_z
 _atom_site_occupancy
  Y  Y0  1  0.00000000  0.50000000  0.32580800  1
  Y  Y1  1  0.00000000  0.00000000  0.82580800  1
  Mg  Mg0  1  0.00000000  0.25815300  0.08031500  1
  Mg  Mg1  1  0.00000000  0.74184700  0.08031500  1
  Mg  Mg2  1  0.00000000  0.50000000  0.83542600  1
  Mg  Mg3  1  0.50000000  0.25806600  0.92072300  1
  Mg  Mg4  1  0.50000000  0.74193400  0.92072300  1
  Mg  Mg5  1  0.50000000  0.50000000  0.66793900  1
  Mg  Mg6  1  0.00000000  0.75815300  0.58031500  1
  Mg  Mg7  1  0.00000000  0.24184700  0.58031500  1
  Mg  Mg8  1  0.00000000  0.00000000  0.33542600  1
  Mg  Mg9  1  0.50000000  0.75806600  0.42072300  1
  Mg  Mg10  1  0.50000000  0.24193400  0.42072300  1
  Mg  Mg11  1  0.50000000  0.00000000  0.16793900  1
  Zn  Zn0  1  0.50000000  0.50000000  0.16875100  1
  Zn  Zn1  1  0.50000000  0.00000000  0.66875100  1
loop_
_geom_bond_atom_site_label_1
_geom_bond_atom_site_label_2
_geom_bond_distance
_geom_bond_site_symmetry_2
Y0 Zn0 3.080034 1_455
Y0 Zn0 3.080034 1_555
Y1 Zn1 3.080034 1_555
Y1 Zn1 3.080034 1_455
Mg0 Mg3 3.096595 1_454
Mg0 Mg3 3.096595 1_554
Mg0 Zn0 3.135379 1_555
Mg0 Zn0 3.135379 1_455
Mg0 Mg1 3.156405 1_555
Mg0 Mg2 3.183232 1_554
Mg0 Mg11 3.187408 1_555
Mg0 Mg11 3.187408 1_455
Mg0 Y0 3.189155 1_555
Mg0 Y1 3.330501 1_554
Mg0 Mg8 3.336384 1_555
Mg0 Mg1 3.369218 1_545
Mg1 Mg4 3.096595 1_554
Mg1 Mg4 3.096595 1_454
Mg1 Zn0 3.135379 1_455
Mg1 Zn0 3.135379 1_555
Mg1 Mg2 3.183232 1_554
Mg1 Mg11 3.187408 1_565
Mg1 Mg11 3.187408 1_465
Mg1 Y0 3.189155 1_555
Mg1 Y1 3.330501 1_564
Mg1 Mg8 3.336384 1_565
Mg2 Mg4 3.124563 1_455
Mg2 Mg3 3.124563 1_555
Mg2 Mg4 3.124563 1_555
Mg2 Mg3 3.124563 1_455
Mg2 Mg5 3.149281 1_555
Mg2 Mg5 3.149281 1_455
Mg2 Y1 3.264617 1_555
Mg2 Y1 3.264617 1_565
Mg2 Mg7 3.336384 1_555
Mg2 Mg6 3.336384 1_555
Mg3 Mg4 3.157540 1_555
Mg3 Y1 3.213605 1_555
Mg3 Y1 3.213605 1_655
Mg3 Zn0 3.214332 1_556
Mg3 Mg5 3.261205 1_555
Mg3 Zn1 3.305557 1_555
Mg3 Mg4 3.368083 1_545
Mg4 Y1 3.213605 1_565
Mg4 Y1 3.213605 1_665
Mg4 Zn0 3.214332 1_556
Mg4 Mg5 3.261205 1_555
Mg4 Zn1 3.305557 1_565
Mg5 Mg6 3.187408 1_655
Mg5 Mg7 3.187408 1_655
Mg5 Mg6 3.187408 1_555
Mg5 Mg7 3.187408 1_555
Mg5 Mg9 3.259473 1_555
Mg5 Zn1 3.262824 1_565
Mg5 Zn1 3.262824 1_555
Mg6 Mg9 3.096595 1_455
Mg6 Mg9 3.096595 1_555
Mg6 Zn1 3.135379 1_565
Mg6 Zn1 3.135379 1_465
Mg6 Mg7 3.156405 1_565
Mg6 Mg8 3.183232 1_565
Mg6 Y1 3.189155 1_565
Mg6 Y0 3.330501 1_555
Mg6 Mg7 3.369218 1_555
Mg7 Zn1 3.135379 1_455
Mg7 Zn1 3.135379 1_555
Mg7 Mg8 3.183232 1_555
Mg7 Y1 3.189155 1_555
Mg7 Y0 3.330501 1_555
Mg8 Mg9 3.124563 1_445
Mg8 Mg9 3.124563 1_545
Mg8 Y0 3.264617 1_555
Mg8 Y0 3.264617 1_545
Mg9 Y0 3.213605 1_655
Mg9 Y0 3.213605 1_555
Mg9 Zn1 3.214332 1_565
Mg9 Zn0 3.305557 1_555
Mg10 Mg7 3.096595 1_655
Mg10 Mg7 3.096595 1_555
Mg10 Mg8 3.124563 1_555
Mg10 Mg8 3.124563 1_655
Mg10 Mg9 3.157540 1_545
Mg10 Y0 3.213605 1_655
Mg10 Y0 3.213605 1_555
Mg10 Zn1 3.214332 1_555
Mg10 Mg5 3.259473 1_555
Mg10 Mg11 3.261205 1_555
Mg10 Zn0 3.305557 1_555
Mg10 Mg9 3.368083 1_555
Mg11 Mg8 3.149281 1_555
Mg11 Mg8 3.149281 1_655
Mg11 Mg4 3.259473 1_544
Mg11 Mg3 3.259473 1_554
Mg11 Mg9 3.261205 1_545
Mg11 Zn0 3.262824 1_555
Mg11 Zn0 3.262824 1_545
