# generated using pymatgen
data_YbSi3Pd5
_symmetry_space_group_name_H-M   'P 1'
_cell_length_a   4.01056100
_cell_length_b   19.78065100
_cell_length_c   7.28637000
_cell_angle_alpha   90.00000000
_cell_angle_beta   90.00000000
_cell_angle_gamma   90.00000000
_symmetry_Int_Tables_number   1
_chemical_formula_structural   YbSi3Pd5
_chemical_formula_sum   'Yb4 Si12 Pd20'
_cell_volume   578.03871598
_cell_formula_units_Z   4
loop_
 _symmetry_equiv_pos_site_id
 _symmetry_equiv_pos_as_xyz
  1  'x, y, z'
loop_
 _atom_site_type_symbol
 _atom_site_label
 _atom_site_symmetry_multiplicity
 _atom_site_fract_x
 _atom_site_fract_y
 _atom_site_fract_z
 _atom_site_occupancy
  Yb  Yb0  1  0.75000000  0.64251200  0.12014100  1
  Yb  Yb1  1  0.25000000  0.35748800  0.87985900  1
  Yb  Yb2  1  0.25000000  0.85748800  0.62014100  1
  Yb  Yb3  1  0.75000000  0.14251200  0.37985900  1
  Si  Si0  1  0.75000000  0.73965100  0.62337500  1
  Si  Si1  1  0.25000000  0.26034900  0.37662500  1
  Si  Si2  1  0.25000000  0.76034900  0.12337500  1
  Si  Si3  1  0.75000000  0.23965100  0.87662500  1
  Si  Si4  1  0.75000000  0.92433400  0.34757300  1
  Si  Si5  1  0.25000000  0.07566600  0.65242700  1
  Si  Si6  1  0.25000000  0.57566600  0.84757300  1
  Si  Si7  1  0.75000000  0.42433400  0.15242700  1
  Si  Si8  1  0.75000000  0.91543800  0.90806300  1
  Si  Si9  1  0.25000000  0.08456200  0.09193700  1
  Si  Si10  1  0.25000000  0.58456200  0.40806300  1
  Si  Si11  1  0.75000000  0.41543800  0.59193700  1
  Pd  Pd0  1  0.75000000  0.80014700  0.32374100  1
  Pd  Pd1  1  0.25000000  0.19985300  0.67625900  1
  Pd  Pd2  1  0.25000000  0.69985300  0.82374100  1
  Pd  Pd3  1  0.75000000  0.30014700  0.17625900  1
  Pd  Pd4  1  0.75000000  0.99180700  0.62629900  1
  Pd  Pd5  1  0.25000000  0.00819300  0.37370100  1
  Pd  Pd6  1  0.25000000  0.50819300  0.12629900  1
  Pd  Pd7  1  0.75000000  0.49180700  0.87370100  1
  Pd  Pd8  1  0.75000000  0.51423300  0.37858100  1
  Pd  Pd9  1  0.25000000  0.48576700  0.62141900  1
  Pd  Pd10  1  0.25000000  0.98576700  0.87858100  1
  Pd  Pd11  1  0.75000000  0.01423300  0.12141900  1
  Pd  Pd12  1  0.75000000  0.79594400  0.92673300  1
  Pd  Pd13  1  0.25000000  0.20405600  0.07326700  1
  Pd  Pd14  1  0.25000000  0.70405600  0.42673300  1
  Pd  Pd15  1  0.75000000  0.29594400  0.57326700  1
  Pd  Pd16  1  0.75000000  0.61666800  0.65054900  1
  Pd  Pd17  1  0.25000000  0.38333100  0.34945100  1
  Pd  Pd18  1  0.25000000  0.88333200  0.15054900  1
  Pd  Pd19  1  0.75000000  0.11666800  0.84945100  1
loop_
_geom_bond_atom_site_label_1
_geom_bond_atom_site_label_2
_geom_bond_distance
_geom_bond_site_symmetry_2
Si0 Yb2 3.074860 1_555
Si0 Yb2 3.074860 1_655
Si1 Yb3 3.074860 1_555
Si1 Yb3 3.074860 1_455
Si2 Yb0 3.074860 1_555
Si2 Yb0 3.074860 1_455
Si3 Yb1 3.074860 1_555
Si3 Yb1 3.074860 1_655
Si4 Yb2 3.116703 1_555
Si4 Yb2 3.116703 1_655
Si5 Yb3 3.116703 1_555
Si5 Yb3 3.116703 1_455
Si6 Yb0 3.116703 1_456
Si6 Yb0 3.116703 1_556
Si7 Yb1 3.116703 1_554
Si7 Yb1 3.116703 1_654
Si8 Yb2 3.120311 1_655
Si8 Yb2 3.120311 1_555
Si9 Yb3 3.120311 1_455
Si9 Yb3 3.120311 1_555
Si10 Yb0 3.120311 1_455
Si10 Yb0 3.120311 1_555
Si11 Yb1 3.120311 1_655
Si11 Yb1 3.120311 1_555
Pd0 Si4 2.462630 1_555
Pd0 Si0 2.489684 1_555
Pd0 Si2 2.602366 1_555
Pd0 Si2 2.602366 1_655
Pd0 Yb2 3.157827 1_655
Pd0 Yb2 3.157827 1_555
Pd0 Yb0 3.453039 1_555
Pd1 Si5 2.462630 1_555
Pd1 Si1 2.489684 1_555
Pd1 Si3 2.602366 1_455
Pd1 Si3 2.602366 1_555
Pd1 Yb3 3.157827 1_555
Pd1 Yb3 3.157827 1_455
Pd1 Yb1 3.453039 1_555
Pd2 Si6 2.462630 1_555
Pd2 Si2 2.489684 1_556
Pd2 Si0 2.602366 1_455
Pd2 Si0 2.602366 1_555
Pd2 Yb0 3.157827 1_456
Pd2 Yb0 3.157827 1_556
Pd2 Yb2 3.453039 1_555
Pd3 Si7 2.462630 1_555
Pd3 Si3 2.489684 1_554
Pd3 Si1 2.602366 1_555
Pd3 Si1 2.602366 1_655
Pd3 Yb1 3.157827 1_554
Pd3 Yb1 3.157827 1_654
Pd3 Yb3 3.453039 1_555
Pd4 Si4 2.430201 1_555
Pd4 Si8 2.548913 1_555
Pd4 Si5 2.609399 1_665
Pd4 Si5 2.609399 1_565
Pd4 Yb2 3.329020 1_555
Pd4 Yb2 3.329020 1_655
Pd4 Yb3 3.480084 1_565
Pd5 Si5 2.430201 1_555
Pd5 Si9 2.548913 1_555
Pd5 Si4 2.609399 1_545
Pd5 Si4 2.609399 1_445
Pd5 Yb3 3.329020 1_455
Pd5 Yb3 3.329020 1_555
Pd5 Yb2 3.480084 1_545
Pd6 Si6 2.430201 1_554
Pd6 Si10 2.548913 1_555
Pd6 Si7 2.609399 1_555
Pd6 Si7 2.609399 1_455
Pd6 Yb0 3.329020 1_455
Pd6 Yb0 3.329020 1_555
Pd6 Yb1 3.480084 1_554
Pd7 Si7 2.430201 1_556
Pd7 Si11 2.548913 1_555
Pd7 Si6 2.609399 1_655
Pd7 Si6 2.609399 1_555
Pd7 Yb1 3.329020 1_655
Pd7 Yb1 3.329020 1_555
Pd7 Yb0 3.480084 1_556
Pd8 Si7 2.424375 1_555
Pd8 Si10 2.450021 1_555
Pd8 Si10 2.450021 1_655
Pd8 Si11 2.497151 1_555
Pd8 Yb0 3.159848 1_555
Pd9 Si6 2.424375 1_555
Pd9 Si11 2.450021 1_455
Pd9 Si11 2.450021 1_555
Pd9 Si10 2.497151 1_555
Pd9 Yb1 3.159848 1_555
Pd10 Si5 2.424375 1_565
Pd10 Si8 2.450021 1_555
Pd10 Si8 2.450021 1_455
Pd10 Si9 2.497151 1_566
Pd10 Yb2 3.159848 1_555
Pd11 Si4 2.424375 1_545
Pd11 Si9 2.450021 1_655
Pd11 Si9 2.450021 1_555
Pd11 Si8 2.497151 1_544
Pd11 Yb3 3.159848 1_555
Pd12 Si8 2.367581 1_555
Pd12 Si0 2.475012 1_555
Pd12 Si2 2.563168 1_556
Pd12 Si2 2.563168 1_656
Pd12 Yb2 3.239393 1_655
Pd12 Yb2 3.239393 1_555
Pd12 Yb0 3.346206 1_556
Pd13 Si9 2.367581 1_555
Pd13 Si1 2.475012 1_555
Pd13 Si3 2.563168 1_554
Pd13 Si3 2.563168 1_454
Pd13 Yb3 3.239393 1_555
Pd13 Yb3 3.239393 1_455
Pd13 Yb1 3.346206 1_554
Pd14 Si10 2.367581 1_555
Pd14 Si2 2.475012 1_555
Pd14 Si0 2.563168 1_555
Pd14 Si0 2.563168 1_455
Pd14 Yb0 3.239393 1_455
Pd14 Yb0 3.239393 1_555
Pd14 Yb2 3.346206 1_555
Pd15 Si11 2.367581 1_555
Pd15 Si3 2.475012 1_555
Pd15 Si1 2.563168 1_555
Pd15 Si1 2.563168 1_655
Pd15 Yb1 3.239393 1_555
Pd15 Yb1 3.239393 1_655
Pd15 Yb3 3.346206 1_555
Pd16 Si0 2.440728 1_555
Pd16 Si6 2.596125 1_555
Pd16 Si6 2.596125 1_655
Pd16 Si10 2.747036 1_555
Pd16 Si10 2.747036 1_655
Pd16 Yb0 3.459599 1_556
Pd17 Si1 2.440709 1_555
Pd17 Si7 2.596131 1_555
Pd17 Si7 2.596131 1_455
Pd17 Si11 2.747041 1_455
Pd17 Si11 2.747041 1_555
Pd17 Yb1 3.459596 1_554
Pd18 Si2 2.440728 1_555
Pd18 Si4 2.596125 1_455
Pd18 Si4 2.596125 1_555
Pd18 Si8 2.747036 1_454
Pd18 Si8 2.747036 1_554
Pd18 Yb2 3.459599 1_555
Pd19 Si3 2.440728 1_555
Pd19 Si5 2.596125 1_555
Pd19 Si5 2.596125 1_655
Pd19 Si9 2.747036 1_656
Pd19 Si9 2.747036 1_556
Pd19 Yb3 3.459599 1_555
