# generated using pymatgen
data_InGa3N4
_symmetry_space_group_name_H-M   'P 1'
_cell_length_a   3.30560620
_cell_length_b   3.30560620
_cell_length_c   10.82516400
_cell_angle_alpha   90.00000000
_cell_angle_beta   90.00000000
_cell_angle_gamma   120.00000397
_symmetry_Int_Tables_number   1
_chemical_formula_structural   InGa3N4
_chemical_formula_sum   'In1 Ga3 N4'
_cell_volume   102.43947105
_cell_formula_units_Z   1
loop_
 _symmetry_equiv_pos_site_id
 _symmetry_equiv_pos_as_xyz
  1  'x, y, z'
loop_
 _atom_site_type_symbol
 _atom_site_label
 _atom_site_symmetry_multiplicity
 _atom_site_fract_x
 _atom_site_fract_y
 _atom_site_fract_z
 _atom_site_occupancy
  In  In0  1  0.66666700  0.33333300  0.99853400  1
  Ga  Ga0  1  0.33333300  0.66666700  0.25949100  1
  Ga  Ga1  1  0.33333300  0.66666700  0.73800900  1
  Ga  Ga2  1  0.66666700  0.33333300  0.49822400  1
  N  N0  1  0.33333300  0.66666700  0.07996300  1
  N  N1  1  0.33333300  0.66666700  0.55596500  1
  N  N2  1  0.66666700  0.33333300  0.31643600  1
  N  N3  1  0.66666700  0.33333300  0.79517900  1
loop_
_geom_bond_atom_site_label_1
_geom_bond_atom_site_label_2
_geom_bond_distance
_geom_bond_site_symmetry_2
In0 N0 2.102224 1_546
In0 N0 2.102224 1_656
In0 N0 2.102230 1_556
In0 N3 2.201351 1_555
Ga0 N0 1.943420 1_555
Ga0 N2 2.005576 1_455
Ga0 N2 2.005576 1_565
Ga0 N2 2.005581 1_555
Ga1 N1 1.970656 1_555
Ga1 N3 2.006326 1_455
Ga1 N3 2.006326 1_565
Ga1 N3 2.006331 1_555
Ga2 N2 1.967885 1_555
Ga2 N1 2.008241 1_655
Ga2 N1 2.008241 1_545
Ga2 N1 2.008246 1_555
