# generated using pymatgen
data_Tm4CoB13
_symmetry_space_group_name_H-M   'P 1'
_cell_length_a   7.25319900
_cell_length_b   7.25319900
_cell_length_c   6.81258800
_cell_angle_alpha   90.00000000
_cell_angle_beta   90.00000000
_cell_angle_gamma   90.00000000
_symmetry_Int_Tables_number   1
_chemical_formula_structural   Tm4CoB13
_chemical_formula_sum   'Tm8 Co2 B26'
_cell_volume   358.40273177
_cell_formula_units_Z   2
loop_
 _symmetry_equiv_pos_site_id
 _symmetry_equiv_pos_as_xyz
  1  'x, y, z'
loop_
 _atom_site_type_symbol
 _atom_site_label
 _atom_site_symmetry_multiplicity
 _atom_site_fract_x
 _atom_site_fract_y
 _atom_site_fract_z
 _atom_site_occupancy
  Tm  Tm0  1  0.68489400  0.18163100  0.50000000  1
  Tm  Tm1  1  0.31510600  0.81836900  0.50000000  1
  Tm  Tm2  1  0.18489400  0.31836900  0.00000000  1
  Tm  Tm3  1  0.81510600  0.68163100  0.00000000  1
  Tm  Tm4  1  0.81836900  0.68489400  0.50000000  1
  Tm  Tm5  1  0.18163100  0.31510600  0.50000000  1
  Tm  Tm6  1  0.68163100  0.18489400  0.00000000  1
  Tm  Tm7  1  0.31836900  0.81510600  0.00000000  1
  Co  Co0  1  0.50000000  0.50000000  0.50000000  1
  Co  Co1  1  0.00000000  0.00000000  0.00000000  1
  B  B0  1  0.50000000  0.50000000  0.00000000  1
  B  B1  1  0.00000000  0.00000000  0.50000000  1
  B  B2  1  0.90980000  0.40980000  0.25000000  1
  B  B3  1  0.09020000  0.59020000  0.25000000  1
  B  B4  1  0.40980000  0.09020000  0.75000000  1
  B  B5  1  0.59020000  0.90980000  0.75000000  1
  B  B6  1  0.59020000  0.90980000  0.25000000  1
  B  B7  1  0.40980000  0.09020000  0.25000000  1
  B  B8  1  0.90980000  0.40980000  0.75000000  1
  B  B9  1  0.09020000  0.59020000  0.75000000  1
  B  B10  1  0.53895800  0.67059200  0.24586900  1
  B  B11  1  0.46104200  0.32940800  0.24586900  1
  B  B12  1  0.03895800  0.82940800  0.74586900  1
  B  B13  1  0.96104200  0.17059200  0.74586900  1
  B  B14  1  0.32940800  0.53895800  0.24586900  1
  B  B15  1  0.67059200  0.46104200  0.24586900  1
  B  B16  1  0.17059200  0.03895800  0.74586900  1
  B  B17  1  0.82940800  0.96104200  0.74586900  1
  B  B18  1  0.46104200  0.32940800  0.75413100  1
  B  B19  1  0.53895800  0.67059200  0.75413100  1
  B  B20  1  0.96104200  0.17059200  0.25413100  1
  B  B21  1  0.03895800  0.82940800  0.25413100  1
  B  B22  1  0.67059200  0.46104200  0.75413100  1
  B  B23  1  0.32940800  0.53895800  0.75413100  1
  B  B24  1  0.82940800  0.96104200  0.25413100  1
  B  B25  1  0.17059200  0.03895800  0.25413100  1
loop_
_geom_bond_atom_site_label_1
_geom_bond_atom_site_label_2
_geom_bond_distance
_geom_bond_site_symmetry_2
Co0 Tm1 2.670366 1_555
Co0 Tm5 2.670366 1_555
Co0 Tm4 2.670366 1_555
Co0 Tm0 2.670366 1_555
Co1 Tm2 2.670366 1_555
Co1 Tm3 2.670366 1_445
Co1 Tm7 2.670366 1_545
Co1 Tm6 2.670366 1_455
B0 B10 2.101545 1_555
B0 B14 2.101545 1_555
B0 B15 2.101545 1_555
B0 B11 2.101545 1_555
B0 B19 2.101545 1_554
B0 B23 2.101545 1_554
B0 B22 2.101545 1_554
B0 B18 2.101545 1_554
B0 Tm7 2.638028 1_555
B0 Tm2 2.638028 1_555
B0 Tm6 2.638028 1_555
B0 Tm3 2.638028 1_555
B1 B16 2.101545 1_555
B1 B25 2.101545 1_555
B1 B13 2.101545 1_455
B1 B20 2.101545 1_455
B1 B12 2.101545 1_545
B1 B17 2.101545 1_445
B1 B21 2.101545 1_545
B1 B24 2.101545 1_445
B1 Tm0 2.638028 1_455
B1 Tm1 2.638028 1_545
B1 Tm4 2.638028 1_445
B1 Tm5 2.638028 1_555
B2 B20 1.774608 1_555
B2 B3 1.850466 1_655
B2 Tm5 2.694408 1_655
B2 Tm3 2.694408 1_555
B2 Tm2 2.705877 1_655
B2 Tm4 2.705877 1_555
B2 Tm6 2.881091 1_555
B2 Tm0 2.881091 1_555
B3 Tm4 2.694408 1_455
B3 Tm2 2.694408 1_555
B3 Tm3 2.705877 1_455
B3 Tm5 2.705877 1_555
B3 Tm1 2.881091 1_555
B3 Tm7 2.881091 1_555
B4 B5 1.850466 1_545
B4 Tm1 2.694408 1_545
B4 Tm6 2.694408 1_556
B4 Tm0 2.705877 1_555
B4 Tm7 2.705877 1_546
B4 Tm5 2.881091 1_555
B4 Tm2 2.881091 1_556
B5 Tm0 2.694408 1_565
B5 Tm7 2.694408 1_556
B5 Tm6 2.705877 1_566
B5 Tm1 2.705877 1_555
B5 Tm4 2.881091 1_555
B5 Tm3 2.881091 1_556
B6 B7 1.850466 1_565
B6 Tm0 2.694408 1_565
B6 Tm7 2.694408 1_555
B6 Tm6 2.705877 1_565
B6 Tm1 2.705877 1_555
B6 Tm4 2.881091 1_555
B6 Tm3 2.881091 1_555
B7 Tm6 2.694408 1_555
B7 Tm1 2.694408 1_545
B7 Tm0 2.705877 1_555
B7 Tm7 2.705877 1_545
B7 Tm5 2.881091 1_555
B7 Tm2 2.881091 1_555
B8 B9 1.850466 1_655
B8 Tm5 2.694408 1_655
B8 Tm3 2.694408 1_556
B8 Tm2 2.705877 1_656
B8 Tm4 2.705877 1_555
B8 Tm6 2.881091 1_556
B8 Tm0 2.881091 1_555
B9 Tm4 2.694408 1_455
B9 Tm2 2.694408 1_556
B9 Tm3 2.705877 1_456
B9 Tm5 2.705877 1_555
B9 Tm1 2.881091 1_555
B9 Tm7 2.881091 1_556
B10 B6 1.774608 1_555
B10 B14 1.794910 1_555
B10 B15 1.794910 1_555
B10 Co0 2.146675 1_555
B10 Tm7 2.542491 1_555
B10 Tm1 2.604315 1_555
B10 Tm3 2.612257 1_555
B10 Tm4 2.667457 1_555
B11 B7 1.774608 1_555
B11 B14 1.794910 1_555
B11 B15 1.794910 1_555
B11 Co0 2.146675 1_555
B11 Tm6 2.542491 1_555
B11 Tm0 2.604315 1_555
B11 Tm2 2.612257 1_555
B11 Tm5 2.667457 1_555
B12 B9 1.774608 1_555
B12 B16 1.794910 1_565
B12 B17 1.794910 1_455
B12 Co1 2.146675 1_566
B12 Tm4 2.542491 1_455
B12 Tm3 2.604315 1_456
B12 Tm1 2.612257 1_555
B12 Tm7 2.667457 1_556
B13 B8 1.774608 1_555
B13 B16 1.794910 1_655
B13 B17 1.794910 1_545
B13 Co1 2.146675 1_656
B13 Tm5 2.542491 1_655
B13 Tm2 2.604315 1_656
B13 Tm0 2.612257 1_555
B13 Tm6 2.667457 1_556
B14 B3 1.774608 1_555
B14 Co0 2.146675 1_555
B14 Tm2 2.542491 1_555
B14 Tm5 2.604315 1_555
B14 Tm7 2.612257 1_555
B14 Tm1 2.667457 1_555
B15 B2 1.774608 1_555
B15 Co0 2.146675 1_555
B15 Tm3 2.542491 1_555
B15 Tm4 2.604315 1_555
B15 Tm6 2.612257 1_555
B15 Tm0 2.667457 1_555
B16 B4 1.774608 1_555
B16 Co1 2.146675 1_556
B16 Tm1 2.542491 1_545
B16 Tm7 2.604315 1_546
B16 Tm5 2.612257 1_555
B16 Tm2 2.667457 1_556
B17 B5 1.774608 1_555
B17 Co1 2.146675 1_666
B17 Tm0 2.542491 1_565
B17 Tm6 2.604315 1_566
B17 Tm4 2.612257 1_555
B17 Tm3 2.667457 1_556
B18 B4 1.774608 1_555
B18 B23 1.794910 1_555
B18 B22 1.794910 1_555
B18 Co0 2.146675 1_555
B18 Tm6 2.542491 1_556
B18 Tm0 2.604315 1_555
B18 Tm2 2.612257 1_556
B18 Tm5 2.667457 1_555
B19 B5 1.774608 1_555
B19 B23 1.794910 1_555
B19 B22 1.794910 1_555
B19 Co0 2.146675 1_555
B19 Tm7 2.542491 1_556
B19 Tm1 2.604315 1_555
B19 Tm3 2.612257 1_556
B19 Tm4 2.667457 1_555
B20 B25 1.794910 1_655
B20 B24 1.794910 1_545
B20 Co1 2.146675 1_655
B20 Tm5 2.542491 1_655
B20 Tm2 2.604315 1_655
B20 Tm0 2.612257 1_555
B20 Tm6 2.667457 1_555
B21 B3 1.774608 1_555
B21 B25 1.794910 1_565
B21 B24 1.794910 1_455
B21 Co1 2.146675 1_565
B21 Tm4 2.542491 1_455
B21 Tm3 2.604315 1_455
B21 Tm1 2.612257 1_555
B21 Tm7 2.667457 1_555
B22 B8 1.774608 1_555
B22 Co0 2.146675 1_555
B22 Tm3 2.542491 1_556
B22 Tm4 2.604315 1_555
B22 Tm6 2.612257 1_556
B22 Tm0 2.667457 1_555
B23 B9 1.774608 1_555
B23 Co0 2.146675 1_555
B23 Tm2 2.542491 1_556
B23 Tm5 2.604315 1_555
B23 Tm7 2.612257 1_556
B23 Tm1 2.667457 1_555
B24 B6 1.774608 1_555
B24 Co1 2.146675 1_665
B24 Tm0 2.542491 1_565
B24 Tm6 2.604315 1_565
B24 Tm4 2.612257 1_555
B24 Tm3 2.667457 1_555
B25 B7 1.774608 1_555
B25 Co1 2.146675 1_555
B25 Tm1 2.542491 1_545
B25 Tm7 2.604315 1_545
B25 Tm5 2.612257 1_555
B25 Tm2 2.667457 1_555
