# generated using pymatgen
data_MgFe8(OF)8
_symmetry_space_group_name_H-M   'P 1'
_cell_length_a   5.32923535
_cell_length_b   5.09305462
_cell_length_c   11.67544529
_cell_angle_alpha   90.39679502
_cell_angle_beta   89.23224996
_cell_angle_gamma   90.60588540
_symmetry_Int_Tables_number   1
_chemical_formula_structural   MgFe8(OF)8
_chemical_formula_sum   'Mg1 Fe8 O8 F8'
_cell_volume   316.84249015
_cell_formula_units_Z   1
loop_
 _symmetry_equiv_pos_site_id
 _symmetry_equiv_pos_as_xyz
  1  'x, y, z'
loop_
 _atom_site_type_symbol
 _atom_site_label
 _atom_site_symmetry_multiplicity
 _atom_site_fract_x
 _atom_site_fract_y
 _atom_site_fract_z
 _atom_site_occupancy
  Mg  Mg0  1  0.97023800  0.48614000  0.74195100  1
  Fe  Fe0  1  0.92742100  0.93918600  0.99698700  1
  Fe  Fe1  1  0.06899300  0.06758600  0.24810900  1
  Fe  Fe2  1  0.93946200  0.92650500  0.49825300  1
  Fe  Fe3  1  0.20874700  0.99394800  0.74631400  1
  Fe  Fe4  1  0.58022500  0.42656800  0.12782100  1
  Fe  Fe5  1  0.47530300  0.52392500  0.61377800  1
  Fe  Fe6  1  0.43530000  0.55388700  0.88837100  1
  Fe  Fe7  1  0.42413600  0.57176200  0.36927600  1
  O  O0  1  0.15439000  0.81725500  0.36745200  1
  O  O1  1  0.11816000  0.75754500  0.62337900  1
  O  O2  1  0.13721300  0.75704200  0.87983800  1
  O  O3  1  0.33946100  0.31999700  0.24412500  1
  O  O4  1  0.33014600  0.34670900  0.75511100  1
  O  O5  1  0.65674500  0.68528900  0.00488500  1
  O  O6  1  0.64261500  0.71846800  0.48783300  1
  O  O7  1  0.84715500  0.18231900  0.12197300  1
  F  F0  1  0.15771400  0.81157500  0.11948100  1
  F  F1  1  0.36128400  0.27304100  0.99994400  1
  F  F2  1  0.30844300  0.30711800  0.48254700  1
  F  F3  1  0.67006800  0.69091300  0.24635500  1
  F  F4  1  0.67080300  0.70681900  0.76497800  1
  F  F5  1  0.84278800  0.19271700  0.37350900  1
  F  F6  1  0.83494200  0.23473700  0.62058200  1
  F  F7  1  0.87047200  0.20894700  0.86985900  1
loop_
_geom_bond_atom_site_label_1
_geom_bond_atom_site_label_2
_geom_bond_distance
_geom_bond_site_symmetry_2
Mg0 O4 2.060331 1_655
Mg0 O1 2.103059 1_655
Mg0 O2 2.295401 1_655
Fe0 O5 1.928749 1_556
Fe0 O7 1.953265 1_566
Fe0 O2 1.986134 1_655
Fe1 O3 1.921517 1_555
Fe1 O0 1.956527 1_545
Fe1 O7 1.995277 1_455
Fe2 O6 1.899468 1_555
Fe2 O1 1.963079 1_655
Fe2 O0 1.977017 1_655
Fe3 O4 1.905685 1_565
Fe3 O1 1.930075 1_555
Fe3 O2 2.007955 1_555
Fe4 O7 1.899836 1_555
Fe4 O3 1.932252 1_555
Fe4 O5 1.990453 1_555
Fe5 O6 1.976202 1_555
Fe5 O4 2.026727 1_555
Fe5 O1 2.256360 1_555
Fe6 O2 1.909055 1_555
Fe6 O5 1.924802 1_556
Fe6 O4 1.958640 1_555
Fe7 O0 1.915581 1_555
Fe7 O6 1.959701 1_555
Fe7 O3 1.990570 1_555
F0 Fe0 2.012663 1_454
F0 Fe1 2.036151 1_565
F1 Fe6 1.974480 1_555
F1 Fe4 2.052590 1_556
F2 Fe7 1.982693 1_555
F2 Fe5 2.085644 1_555
F3 Fe4 1.983792 1_555
F3 Fe7 2.022503 1_555
F4 Mg0 1.975904 1_555
F4 Fe6 2.050308 1_555
F4 Fe5 2.252893 1_555
F5 Fe1 1.989723 1_655
F5 Fe2 2.070547 1_545
F6 Mg0 2.037166 1_555
F6 Fe2 2.186475 1_545
F6 Fe5 2.431946 1_555
F7 Fe0 2.057168 1_545
F7 Mg0 2.120845 1_555
F7 Fe3 2.545536 1_645
