# generated using pymatgen
data_P3Pb5O13
_symmetry_space_group_name_H-M   'P 1'
_cell_length_a   9.93302836
_cell_length_b   9.93302836
_cell_length_c   7.47620100
_cell_angle_alpha   90.00000000
_cell_angle_beta   90.00000000
_cell_angle_gamma   120.00000240
_symmetry_Int_Tables_number   1
_chemical_formula_structural   P3Pb5O13
_chemical_formula_sum   'P6 Pb10 O26'
_cell_volume   638.81475852
_cell_formula_units_Z   2
loop_
 _symmetry_equiv_pos_site_id
 _symmetry_equiv_pos_as_xyz
  1  'x, y, z'
loop_
 _atom_site_type_symbol
 _atom_site_label
 _atom_site_symmetry_multiplicity
 _atom_site_fract_x
 _atom_site_fract_y
 _atom_site_fract_z
 _atom_site_occupancy
  P  P0  1  0.39905300  0.03016900  0.25000000  1
  P  P1  1  0.60094700  0.96983100  0.75000000  1
  P  P2  1  0.96983100  0.36888400  0.25000000  1
  P  P3  1  0.03016900  0.63111600  0.75000000  1
  P  P4  1  0.63111600  0.60094700  0.25000000  1
  P  P5  1  0.36888400  0.39905300  0.75000000  1
  Pb  Pb0  1  0.33333300  0.66666700  0.00040400  1
  Pb  Pb1  1  0.66666700  0.33333300  0.99959600  1
  Pb  Pb2  1  0.66666700  0.33333300  0.50040400  1
  Pb  Pb3  1  0.33333300  0.66666700  0.49959600  1
  Pb  Pb4  1  0.23288800  0.23601500  0.25000000  1
  Pb  Pb5  1  0.76711200  0.76398500  0.75000000  1
  Pb  Pb6  1  0.76398500  0.99687400  0.25000000  1
  Pb  Pb7  1  0.23601500  0.00312600  0.75000000  1
  Pb  Pb8  1  0.00312600  0.76711200  0.25000000  1
  Pb  Pb9  1  0.99687400  0.23288800  0.75000000  1
  O  O0  1  0.14915600  0.47908300  0.25000000  1
  O  O1  1  0.85084400  0.52091700  0.75000000  1
  O  O2  1  0.52091700  0.67007300  0.25000000  1
  O  O3  1  0.47908300  0.32992700  0.75000000  1
  O  O4  1  0.32992700  0.85084400  0.25000000  1
  O  O5  1  0.67007300  0.14915600  0.75000000  1
  O  O6  1  0.00000000  0.00000000  0.25000000  1
  O  O7  1  0.00000000  0.00000000  0.75000000  1
  O  O8  1  0.58137800  0.11571800  0.25000000  1
  O  O9  1  0.41862200  0.88428200  0.75000000  1
  O  O10  1  0.88428200  0.46566000  0.25000000  1
  O  O11  1  0.11571800  0.53434000  0.75000000  1
  O  O12  1  0.53434000  0.41862200  0.25000000  1
  O  O13  1  0.46566000  0.58137800  0.75000000  1
  O  O14  1  0.34478200  0.08486300  0.08250300  1
  O  O15  1  0.65521800  0.91513700  0.91749700  1
  O  O16  1  0.91513700  0.25991900  0.08250300  1
  O  O17  1  0.65521800  0.91513700  0.58250300  1
  O  O18  1  0.08486300  0.74008100  0.91749700  1
  O  O19  1  0.34478200  0.08486300  0.41749700  1
  O  O20  1  0.74008100  0.65521800  0.08250300  1
  O  O21  1  0.08486300  0.74008100  0.58250300  1
  O  O22  1  0.25991900  0.34478200  0.91749700  1
  O  O23  1  0.91513700  0.25991900  0.41749700  1
  O  O24  1  0.25991900  0.34478200  0.58250300  1
  O  O25  1  0.74008100  0.65521800  0.41749700  1
loop_
_geom_bond_atom_site_label_1
_geom_bond_atom_site_label_2
_geom_bond_distance
_geom_bond_site_symmetry_2
O0 P2 1.556028 1_455
O0 Pb3 2.625254 1_555
O0 Pb0 2.625254 1_555
O1 P3 1.556028 1_655
O1 Pb1 2.625254 1_555
O1 Pb2 2.625254 1_555
O2 P4 1.556028 1_555
O2 Pb0 2.625257 1_555
O2 Pb3 2.625257 1_555
O3 P5 1.556028 1_555
O3 Pb1 2.625257 1_555
O3 Pb2 2.625257 1_555
O4 P0 1.556028 1_565
O4 Pb3 2.625250 1_555
O4 Pb0 2.625250 1_555
O5 P1 1.556028 1_545
O5 Pb1 2.625250 1_555
O5 Pb2 2.625250 1_555
O6 Pb8 2.328964 1_545
O6 Pb4 2.328969 1_555
O6 Pb6 2.328974 1_445
O7 Pb9 2.328964 1_455
O7 Pb5 2.328969 1_445
O7 Pb7 2.328974 1_555
O8 P0 1.569397 1_555
O8 Pb6 2.612423 1_545
O8 Pb2 2.657730 1_555
O8 Pb1 2.657730 1_554
O9 P1 1.569397 1_555
O9 Pb7 2.612423 1_565
O9 Pb3 2.657730 1_555
O9 Pb0 2.657730 1_556
O10 P2 1.569397 1_555
O10 Pb8 2.612433 1_655
O10 Pb2 2.657731 1_555
O10 Pb1 2.657731 1_554
O11 P3 1.569397 1_555
O11 Pb9 2.612433 1_455
O11 Pb3 2.657731 1_555
O11 Pb0 2.657731 1_556
O12 P4 1.569397 1_555
O12 Pb4 2.612431 1_555
O12 Pb2 2.657737 1_555
O12 Pb1 2.657737 1_554
O13 P5 1.569397 1_555
O13 Pb5 2.612431 1_555
O13 Pb3 2.657737 1_555
O13 Pb0 2.657737 1_556
O14 P0 1.564202 1_555
O14 Pb4 2.593518 1_555
O14 Pb7 2.669971 1_554
O15 P1 1.564202 1_555
O15 Pb5 2.593518 1_555
O15 Pb6 2.669971 1_556
O16 P2 1.564202 1_555
O16 Pb6 2.593511 1_545
O16 Pb9 2.669973 1_554
O17 P1 1.564202 1_555
O17 Pb5 2.593518 1_555
O17 Pb6 2.669971 1_555
O18 P3 1.564202 1_555
O18 Pb7 2.593511 1_565
O18 Pb8 2.669973 1_556
O19 P0 1.564202 1_555
O19 Pb4 2.593518 1_555
O19 Pb7 2.669971 1_555
O20 P4 1.564202 1_555
O20 Pb8 2.593510 1_655
O20 Pb5 2.669970 1_554
O21 P3 1.564202 1_555
O21 Pb7 2.593511 1_565
O21 Pb8 2.669973 1_555
O22 P5 1.564202 1_555
O22 Pb9 2.593510 1_455
O22 Pb4 2.669970 1_556
O23 P2 1.564202 1_555
O23 Pb6 2.593511 1_545
O23 Pb9 2.669973 1_555
O24 P5 1.564202 1_555
O24 Pb9 2.593510 1_455
O24 Pb4 2.669970 1_555
O25 P4 1.564202 1_555
O25 Pb8 2.593510 1_655
O25 Pb5 2.669970 1_555
