# generated using pymatgen
data_YbRe3O16
_symmetry_space_group_name_H-M   'P 1'
_cell_length_a   14.24696700
_cell_length_b   7.25827100
_cell_length_c   14.62711059
_cell_angle_alpha   69.15387913
_cell_angle_beta   90.00000000
_cell_angle_gamma   90.00000000
_symmetry_Int_Tables_number   1
_chemical_formula_structural   YbRe3O16
_chemical_formula_sum   'Yb4 Re12 O64'
_cell_volume   1413.55209012
_cell_formula_units_Z   4
loop_
 _symmetry_equiv_pos_site_id
 _symmetry_equiv_pos_as_xyz
  1  'x, y, z'
loop_
 _atom_site_type_symbol
 _atom_site_label
 _atom_site_symmetry_multiplicity
 _atom_site_fract_x
 _atom_site_fract_y
 _atom_site_fract_z
 _atom_site_occupancy
  Yb  Yb0  1  0.84368200  0.24720200  0.25771800  1
  Yb  Yb1  1  0.65631800  0.24720200  0.75771800  1
  Yb  Yb2  1  0.15631800  0.75279800  0.74228200  1
  Yb  Yb3  1  0.34368200  0.75279800  0.24228200  1
  Re  Re0  1  0.63208100  0.40869700  0.06475500  1
  Re  Re1  1  0.86791900  0.40869700  0.56475500  1
  Re  Re2  1  0.36791900  0.59130300  0.93524500  1
  Re  Re3  1  0.13208100  0.59130300  0.43524500  1
  Re  Re4  1  0.74791400  0.79100500  0.71706800  1
  Re  Re5  1  0.75208600  0.79100500  0.21706800  1
  Re  Re6  1  0.25208600  0.20899500  0.28293200  1
  Re  Re7  1  0.24791400  0.20899500  0.78293200  1
  Re  Re8  1  0.38368600  0.85302300  0.58021000  1
  Re  Re9  1  0.11631400  0.85302300  0.08021000  1
  Re  Re10  1  0.61631400  0.14697700  0.41979000  1
  Re  Re11  1  0.88368600  0.14697700  0.91979000  1
  O  O0  1  0.91755100  0.04333500  0.41578800  1
  O  O1  1  0.58244900  0.04333500  0.91578800  1
  O  O2  1  0.08244900  0.95666500  0.58421200  1
  O  O3  1  0.41755100  0.95666500  0.08421200  1
  O  O4  1  0.91454400  0.42702300  0.09358100  1
  O  O5  1  0.58545600  0.42702300  0.59358100  1
  O  O6  1  0.08545600  0.57297700  0.90641900  1
  O  O7  1  0.41454400  0.57297700  0.40641900  1
  O  O8  1  0.98522100  0.39261500  0.29794700  1
  O  O9  1  0.51477900  0.39261500  0.79794700  1
  O  O10  1  0.01477900  0.60738500  0.70205300  1
  O  O11  1  0.48522100  0.60738500  0.20205300  1
  O  O12  1  0.00502400  0.19366600  0.22101500  1
  O  O13  1  0.49497600  0.19366600  0.72101500  1
  O  O14  1  0.99497600  0.80633400  0.77898500  1
  O  O15  1  0.50502400  0.80633400  0.27898500  1
  O  O16  1  0.58838800  0.61133000  0.09399600  1
  O  O17  1  0.91161200  0.61133000  0.59399600  1
  O  O18  1  0.41161200  0.38867000  0.90600400  1
  O  O19  1  0.08838800  0.38867000  0.40600400  1
  O  O20  1  0.54618600  0.22887300  0.08145700  1
  O  O21  1  0.95381400  0.22887300  0.58145700  1
  O  O22  1  0.45381400  0.77112700  0.91854300  1
  O  O23  1  0.04618600  0.77112700  0.41854300  1
  O  O24  1  0.73005300  0.30439600  0.13990500  1
  O  O25  1  0.76994700  0.30439600  0.63990500  1
  O  O26  1  0.26994700  0.69560400  0.86009500  1
  O  O27  1  0.23005300  0.69560400  0.36009500  1
  O  O28  1  0.66702500  0.49704100  0.94269600  1
  O  O29  1  0.83297500  0.49704100  0.44269600  1
  O  O30  1  0.33297500  0.50295900  0.05730400  1
  O  O31  1  0.16702500  0.50295900  0.55730400  1
  O  O32  1  0.69295800  0.57129400  0.72062700  1
  O  O33  1  0.80704200  0.57129400  0.22062700  1
  O  O34  1  0.30704200  0.42870600  0.27937300  1
  O  O35  1  0.19295800  0.42870600  0.77937300  1
  O  O36  1  0.66954700  0.93170200  0.75902900  1
  O  O37  1  0.83045300  0.93170200  0.25902900  1
  O  O38  1  0.33045300  0.06829800  0.24097100  1
  O  O39  1  0.16954700  0.06829800  0.74097100  1
  O  O40  1  0.77753700  0.92918000  0.59702600  1
  O  O41  1  0.72246300  0.92918000  0.09702600  1
  O  O42  1  0.22246300  0.07082000  0.40297400  1
  O  O43  1  0.27753700  0.07082000  0.90297400  1
  O  O44  1  0.84869100  0.73436300  0.79203700  1
  O  O45  1  0.65130900  0.73436300  0.29203700  1
  O  O46  1  0.15130900  0.26563700  0.20796300  1
  O  O47  1  0.34869100  0.26563700  0.70796300  1
  O  O48  1  0.45858300  0.77012400  0.68098400  1
  O  O49  1  0.04141700  0.77012400  0.18098400  1
  O  O50  1  0.54141700  0.22987600  0.31901600  1
  O  O51  1  0.95858300  0.22987600  0.81901600  1
  O  O52  1  0.26749500  0.84704400  0.62512800  1
  O  O53  1  0.23250500  0.84704400  0.12512800  1
  O  O54  1  0.73250500  0.15295600  0.37487200  1
  O  O55  1  0.76749500  0.15295600  0.87487200  1
  O  O56  1  0.39133300  0.69235200  0.51310000  1
  O  O57  1  0.10866700  0.69235200  0.01310000  1
  O  O58  1  0.60866700  0.30764800  0.48690000  1
  O  O59  1  0.89133300  0.30764800  0.98690000  1
  O  O60  1  0.41197600  0.09532400  0.50960700  1
  O  O61  1  0.08802400  0.09532400  0.00960700  1
  O  O62  1  0.58802400  0.90467600  0.49039300  1
  O  O63  1  0.91197600  0.90467600  0.99039300  1
loop_
_geom_bond_atom_site_label_1
_geom_bond_atom_site_label_2
_geom_bond_distance
_geom_bond_site_symmetry_2
O0 Yb0 2.491585 1_555
O1 Yb1 2.491585 1_555
O2 Yb2 2.491585 1_555
O3 Yb3 2.491585 1_555
O4 Yb0 2.501322 1_555
O5 Yb1 2.501322 1_555
O6 Yb2 2.501322 1_555
O7 Yb3 2.501322 1_555
O8 Yb0 2.443056 1_555
O9 Yb1 2.443056 1_555
O10 Yb2 2.443056 1_555
O11 Yb3 2.443056 1_555
O12 Yb0 2.423098 1_455
O13 Yb1 2.423098 1_555
O14 Yb2 2.423098 1_655
O15 Yb3 2.423098 1_555
O16 Re0 1.783620 1_555
O17 Re1 1.783620 1_555
O18 Re2 1.783620 1_555
O19 Re3 1.783620 1_555
O20 Re0 1.741799 1_555
O21 Re1 1.741799 1_555
O22 Re2 1.741799 1_555
O23 Re3 1.741799 1_555
O24 Re0 1.771276 1_555
O24 Yb0 2.292064 1_555
O25 Re1 1.771276 1_555
O25 Yb1 2.292064 1_555
O26 Re2 1.771276 1_555
O26 Yb2 2.292064 1_555
O27 Re3 1.771276 1_555
O27 Yb3 2.292064 1_555
O28 Re0 1.741199 1_556
O29 Re1 1.741199 1_555
O30 Re2 1.741199 1_554
O31 Re3 1.741199 1_555
O32 Re4 1.760620 1_555
O32 Yb1 2.278609 1_555
O33 Re5 1.760620 1_555
O33 Yb0 2.278609 1_555
O34 Re6 1.760620 1_555
O34 Yb3 2.278609 1_555
O35 Re7 1.760620 1_555
O35 Yb2 2.278609 1_555
O36 Re4 1.764157 1_555
O36 Yb1 2.290997 1_565
O37 Re5 1.764157 1_555
O37 Yb0 2.290997 1_565
O38 Re6 1.764157 1_555
O38 Yb3 2.290997 1_545
O39 Re7 1.764157 1_555
O39 Yb2 2.290997 1_545
O40 Re4 1.736000 1_555
O41 Re5 1.736000 1_555
O42 Re6 1.736000 1_555
O43 Re7 1.736000 1_555
O44 Re4 1.764106 1_555
O45 Re5 1.764106 1_555
O46 Re6 1.764106 1_555
O47 Re7 1.764106 1_555
O48 Re8 1.744185 1_555
O49 Re9 1.744185 1_555
O50 Re10 1.744185 1_555
O51 Re11 1.744185 1_555
O52 Re8 1.775814 1_555
O52 Yb2 2.253665 1_555
O53 Re9 1.775814 1_555
O53 Yb3 2.253665 1_555
O54 Re10 1.775814 1_555
O54 Yb0 2.253665 1_555
O55 Re11 1.775814 1_555
O55 Yb1 2.253665 1_555
O56 Re8 1.774885 1_555
O57 Re9 1.774885 1_555
O58 Re10 1.774885 1_555
O59 Re11 1.774885 1_555
O60 Re8 1.740485 1_545
O61 Re9 1.740485 1_545
O62 Re10 1.740485 1_565
O63 Re11 1.740485 1_565
