# generated using pymatgen
data_CeN3O13
_symmetry_space_group_name_H-M   'P 1'
_cell_length_a   11.76675249
_cell_length_b   12.95501494
_cell_length_c   13.48263510
_cell_angle_alpha   90.00000000
_cell_angle_beta   90.00000000
_cell_angle_gamma   90.00000000
_symmetry_Int_Tables_number   1
_chemical_formula_structural   CeN3O13
_chemical_formula_sum   'Ce8 N24 O104'
_cell_volume   2055.27205458
_cell_formula_units_Z   8
loop_
 _symmetry_equiv_pos_site_id
 _symmetry_equiv_pos_as_xyz
  1  'x, y, z'
loop_
 _atom_site_type_symbol
 _atom_site_label
 _atom_site_symmetry_multiplicity
 _atom_site_fract_x
 _atom_site_fract_y
 _atom_site_fract_z
 _atom_site_occupancy
  Ce  Ce0  1  0.66412839  0.21562699  0.38102392  1
  Ce  Ce1  1  0.16412839  0.28437301  0.61897608  1
  Ce  Ce2  1  0.33587161  0.71562699  0.11897608  1
  Ce  Ce3  1  0.83587161  0.78437301  0.88102392  1
  Ce  Ce4  1  0.33587161  0.78437301  0.61897608  1
  Ce  Ce5  1  0.83587161  0.71562699  0.38102392  1
  Ce  Ce6  1  0.66412839  0.28437301  0.88102392  1
  Ce  Ce7  1  0.16412839  0.21562699  0.11897608  1
  N  N0  1  0.53246030  0.01515619  0.36256172  1
  N  N1  1  0.03246030  0.48484381  0.63743828  1
  N  N2  1  0.46753970  0.51515619  0.13743828  1
  N  N3  1  0.96753970  0.98484381  0.86256172  1
  N  N4  1  0.46753970  0.98484381  0.63743828  1
  N  N5  1  0.96753970  0.51515619  0.36256172  1
  N  N6  1  0.53246030  0.48484381  0.86256172  1
  N  N7  1  0.03246030  0.01515619  0.13743828  1
  N  N8  1  0.63081861  0.20333065  0.13602465  1
  N  N9  1  0.13081861  0.29666935  0.86397535  1
  N  N10  1  0.36918139  0.70333065  0.36397535  1
  N  N11  1  0.86918139  0.79666935  0.63602465  1
  N  N12  1  0.36918139  0.79666935  0.86397535  1
  N  N13  1  0.86918139  0.70333065  0.13602465  1
  N  N14  1  0.63081861  0.29666935  0.63602465  1
  N  N15  1  0.13081861  0.20333065  0.36397535  1
  N  N16  1  0.50497603  0.40720469  0.38305321  1
  N  N17  1  0.00497603  0.09279531  0.61694679  1
  N  N18  1  0.49502397  0.90720469  0.11694679  1
  N  N19  1  0.99502397  0.59279531  0.88305321  1
  N  N20  1  0.49502397  0.59279531  0.61694679  1
  N  N21  1  0.99502397  0.90720469  0.38305321  1
  N  N22  1  0.50497603  0.09279531  0.88305321  1
  N  N23  1  0.00497603  0.40720469  0.11694679  1
  O  O0  1  0.47068488  0.94152702  0.34387333  1
  O  O1  1  0.97068488  0.55847298  0.65612667  1
  O  O2  1  0.52931512  0.44152702  0.15612667  1
  O  O3  1  0.02931512  0.05847298  0.84387333  1
  O  O4  1  0.52931512  0.05847298  0.65612667  1
  O  O5  1  0.02931512  0.44152702  0.34387333  1
  O  O6  1  0.47068488  0.55847298  0.84387333  1
  O  O7  1  0.97068488  0.94152702  0.15612667  1
  O  O8  1  0.63613889  0.02038277  0.33371757  1
  O  O9  1  0.13613889  0.47961723  0.66628243  1
  O  O10  1  0.36386111  0.52038277  0.16628243  1
  O  O11  1  0.86386111  0.97961723  0.83371757  1
  O  O12  1  0.36386111  0.97961723  0.66628243  1
  O  O13  1  0.86386111  0.52038277  0.33371757  1
  O  O14  1  0.63613889  0.47961723  0.83371757  1
  O  O15  1  0.13613889  0.02038277  0.16628243  1
  O  O16  1  0.49641840  0.09364893  0.41203201  1
  O  O17  1  0.99641840  0.40635107  0.58796799  1
  O  O18  1  0.50358160  0.59364893  0.08796799  1
  O  O19  1  0.00358160  0.90635107  0.91203201  1
  O  O20  1  0.50358160  0.90635107  0.58796799  1
  O  O21  1  0.00358160  0.59364893  0.41203201  1
  O  O22  1  0.49641840  0.40635107  0.91203201  1
  O  O23  1  0.99641840  0.09364893  0.08796799  1
  O  O24  1  0.73150468  0.17586603  0.14798845  1
  O  O25  1  0.23150468  0.32413397  0.85201155  1
  O  O26  1  0.26849532  0.67586603  0.35201155  1
  O  O27  1  0.76849532  0.82413397  0.64798845  1
  O  O28  1  0.26849532  0.82413397  0.85201155  1
  O  O29  1  0.76849532  0.67586603  0.14798845  1
  O  O30  1  0.73150468  0.32413397  0.64798845  1
  O  O31  1  0.23150468  0.17586603  0.35201155  1
  O  O32  1  0.59081036  0.22441922  0.05180302  1
  O  O33  1  0.09081036  0.27558078  0.94819698  1
  O  O34  1  0.40918964  0.72441922  0.44819698  1
  O  O35  1  0.90918964  0.77558078  0.55180302  1
  O  O36  1  0.40918964  0.77558078  0.94819698  1
  O  O37  1  0.90918964  0.72441922  0.05180302  1
  O  O38  1  0.59081036  0.27558078  0.55180302  1
  O  O39  1  0.09081036  0.22441922  0.44819698  1
  O  O40  1  0.56556565  0.21059936  0.21103146  1
  O  O41  1  0.06556565  0.28940064  0.78896854  1
  O  O42  1  0.43443435  0.71059936  0.28896854  1
  O  O43  1  0.93443435  0.78940064  0.71103146  1
  O  O44  1  0.43443435  0.78940064  0.78896854  1
  O  O45  1  0.93443435  0.71059936  0.21103146  1
  O  O46  1  0.56556565  0.28940064  0.71103146  1
  O  O47  1  0.06556565  0.21059936  0.28896854  1
  O  O48  1  0.47078536  0.31402019  0.37387423  1
  O  O49  1  0.97078536  0.18597981  0.62612577  1
  O  O50  1  0.52921464  0.81402019  0.12612577  1
  O  O51  1  0.02921464  0.68597981  0.87387423  1
  O  O52  1  0.52921464  0.68597981  0.62612577  1
  O  O53  1  0.02921464  0.81402019  0.37387423  1
  O  O54  1  0.47078536  0.18597981  0.87387423  1
  O  O55  1  0.97078536  0.31402019  0.12612577  1
  O  O56  1  0.61156689  0.42232225  0.37841536  1
  O  O57  1  0.11156689  0.07767775  0.62158464  1
  O  O58  1  0.38843311  0.92232225  0.12158464  1
  O  O59  1  0.88843311  0.57767775  0.87841536  1
  O  O60  1  0.38843311  0.57767775  0.62158464  1
  O  O61  1  0.88843311  0.92232225  0.37841536  1
  O  O62  1  0.61156689  0.07767775  0.87841536  1
  O  O63  1  0.11156689  0.42232225  0.12158464  1
  O  O64  1  0.43681654  0.47796170  0.39669258  1
  O  O65  1  0.93681654  0.02203830  0.60330742  1
  O  O66  1  0.56318346  0.97796170  0.10330742  1
  O  O67  1  0.06318346  0.52203830  0.89669258  1
  O  O68  1  0.56318346  0.52203830  0.60330742  1
  O  O69  1  0.06318346  0.97796170  0.39669258  1
  O  O70  1  0.43681654  0.02203830  0.89669258  1
  O  O71  1  0.93681654  0.47796170  0.10330742  1
  O  O72  1  0.74331904  0.10244611  0.48778562  1
  O  O73  1  0.24331904  0.39755389  0.51221438  1
  O  O74  1  0.25668096  0.60244611  0.01221438  1
  O  O75  1  0.75668096  0.89755389  0.98778562  1
  O  O76  1  0.25668096  0.89755389  0.51221438  1
  O  O77  1  0.75668096  0.60244611  0.48778562  1
  O  O78  1  0.74331904  0.39755389  0.98778562  1
  O  O79  1  0.24331904  0.10244611  0.01221438  1
  O  O80  1  0.83622125  0.14230578  0.35491660  1
  O  O81  1  0.33622125  0.35769422  0.64508340  1
  O  O82  1  0.16377875  0.64230578  0.14508340  1
  O  O83  1  0.66377875  0.85769422  0.85491660  1
  O  O84  1  0.16377875  0.85769422  0.64508340  1
  O  O85  1  0.66377875  0.64230578  0.35491660  1
  O  O86  1  0.83622125  0.35769422  0.85491660  1
  O  O87  1  0.33622125  0.14230578  0.14508340  1
  O  O88  1  0.81743726  0.28899744  0.44227031  1
  O  O89  1  0.31743726  0.21100256  0.55772969  1
  O  O90  1  0.18256274  0.78899744  0.05772969  1
  O  O91  1  0.68256274  0.71100256  0.94227031  1
  O  O92  1  0.18256274  0.71100256  0.55772969  1
  O  O93  1  0.68256274  0.78899744  0.44227031  1
  O  O94  1  0.81743726  0.21100256  0.94227031  1
  O  O95  1  0.31743726  0.28899744  0.05772969  1
  O  O96  1  0.77676452  0.31771504  0.28709821  1
  O  O97  1  0.27676452  0.18228496  0.71290179  1
  O  O98  1  0.22323548  0.81771504  0.21290179  1
  O  O99  1  0.72323548  0.68228496  0.78709821  1
  O  O100  1  0.22323548  0.68228496  0.71290179  1
  O  O101  1  0.72323548  0.81771504  0.28709821  1
  O  O102  1  0.77676452  0.18228496  0.78709821  1
  O  O103  1  0.27676452  0.31771504  0.21290179  1
loop_
_geom_bond_atom_site_label_1
_geom_bond_atom_site_label_2
_geom_bond_distance
_geom_bond_site_symmetry_2
Ce0 O88 2.199907 1_555
Ce0 O72 2.256138 1_555
Ce0 O96 2.260400 1_555
Ce0 O80 2.264219 1_555
Ce0 O16 2.562463 1_555
Ce0 O40 2.569496 1_555
Ce0 O38 2.578622 1_555
Ce0 O48 2.609565 1_555
Ce0 O8 2.629277 1_555
Ce0 O56 2.748462 1_555
Ce1 O89 2.199907 1_555
Ce1 O73 2.256138 1_555
Ce1 O97 2.260400 1_555
Ce1 O81 2.264219 1_555
Ce1 O17 2.562463 1_455
Ce1 O41 2.569496 1_555
Ce1 O39 2.578622 1_555
Ce1 O49 2.609565 1_455
Ce1 O9 2.629277 1_555
Ce1 O57 2.748462 1_555
Ce2 O90 2.199907 1_555
Ce2 O74 2.256138 1_555
Ce2 O98 2.260400 1_555
Ce2 O82 2.264219 1_555
Ce2 O18 2.562463 1_555
Ce2 O42 2.569496 1_555
Ce2 O36 2.578622 1_554
Ce2 O50 2.609565 1_555
Ce2 O10 2.629277 1_555
Ce2 O58 2.748462 1_555
Ce3 O91 2.199907 1_555
Ce3 O75 2.256138 1_555
Ce3 O99 2.260400 1_555
Ce3 O83 2.264219 1_555
Ce3 O19 2.562463 1_655
Ce3 O43 2.569496 1_555
Ce3 O37 2.578622 1_556
Ce3 O51 2.609565 1_655
Ce3 O11 2.629277 1_555
Ce3 O59 2.748462 1_555
Ce4 O92 2.199907 1_555
Ce4 O76 2.256138 1_555
Ce4 O100 2.260400 1_555
Ce4 O84 2.264219 1_555
Ce4 O20 2.562463 1_555
Ce4 O44 2.569496 1_555
Ce4 O34 2.578622 1_555
Ce4 O52 2.609565 1_555
Ce4 O12 2.629277 1_555
Ce4 O60 2.748462 1_555
Ce5 O93 2.199907 1_555
Ce5 O77 2.256138 1_555
Ce5 O101 2.260400 1_555
Ce5 O85 2.264219 1_555
Ce5 O21 2.562463 1_655
Ce5 O45 2.569496 1_555
Ce5 O35 2.578622 1_555
Ce5 O53 2.609565 1_655
Ce5 O13 2.629277 1_555
Ce5 O61 2.748462 1_555
Ce6 O94 2.199907 1_555
Ce6 O78 2.256138 1_555
Ce6 O102 2.260400 1_555
Ce6 O86 2.264219 1_555
Ce6 O22 2.562463 1_555
Ce6 O46 2.569496 1_555
Ce6 O32 2.578622 1_556
Ce6 O54 2.609565 1_555
Ce6 O14 2.629277 1_555
Ce6 O62 2.748462 1_555
Ce7 O95 2.199907 1_555
Ce7 O79 2.256138 1_555
Ce7 O103 2.260400 1_555
Ce7 O87 2.264219 1_555
Ce7 O23 2.562463 1_455
Ce7 O47 2.569496 1_555
Ce7 O33 2.578622 1_554
Ce7 O55 2.609565 1_455
Ce7 O15 2.629277 1_555
Ce7 O63 2.748462 1_555
N0 O0 1.225450 1_545
N0 O8 1.282235 1_555
N0 O16 1.287931 1_555
N1 O1 1.225450 1_455
N1 O9 1.282235 1_555
N1 O17 1.287931 1_455
N2 O2 1.225450 1_555
N2 O10 1.282235 1_555
N2 O18 1.287931 1_555
N3 O3 1.225450 1_665
N3 O11 1.282235 1_555
N3 O19 1.287931 1_655
N4 O4 1.225450 1_565
N4 O12 1.282235 1_555
N4 O20 1.287931 1_555
N5 O5 1.225450 1_655
N5 O13 1.282235 1_555
N5 O21 1.287931 1_655
N6 O6 1.225450 1_555
N6 O14 1.282235 1_555
N6 O22 1.287931 1_555
N7 O7 1.225450 1_445
N7 O15 1.282235 1_555
N7 O23 1.287931 1_455
N8 O24 1.247495 1_555
N8 O32 1.259241 1_555
N8 O40 1.273230 1_555
N9 O25 1.247495 1_555
N9 O33 1.259241 1_555
N9 O41 1.273230 1_555
N10 O26 1.247495 1_555
N10 O34 1.259241 1_555
N10 O42 1.273230 1_555
N11 O27 1.247495 1_555
N11 O35 1.259241 1_555
N11 O43 1.273230 1_555
N12 O28 1.247495 1_555
N12 O36 1.259241 1_555
N12 O44 1.273230 1_555
N13 O29 1.247495 1_555
N13 O37 1.259241 1_555
N13 O45 1.273230 1_555
N14 O30 1.247495 1_555
N14 O38 1.259241 1_555
N14 O46 1.273230 1_555
N15 O31 1.247495 1_555
N15 O39 1.259241 1_555
N15 O47 1.273230 1_555
N16 O64 1.231791 1_555
N16 O56 1.270966 1_555
N16 O48 1.278483 1_555
N17 O65 1.231791 1_455
N17 O57 1.270966 1_555
N17 O49 1.278483 1_455
N18 O66 1.231791 1_555
N18 O58 1.270966 1_555
N18 O50 1.278483 1_555
N19 O67 1.231791 1_655
N19 O59 1.270966 1_555
N19 O51 1.278483 1_655
N20 O68 1.231791 1_555
N20 O60 1.270966 1_555
N20 O52 1.278483 1_555
N21 O69 1.231791 1_655
N21 O61 1.270966 1_555
N21 O53 1.278483 1_655
N22 O70 1.231791 1_555
N22 O62 1.270966 1_555
N22 O54 1.278483 1_555
N23 O71 1.231791 1_455
N23 O63 1.270966 1_555
N23 O55 1.278483 1_455
