# generated using pymatgen
data_LiU4As3O20
_symmetry_space_group_name_H-M   'P 1'
_cell_length_a   17.98000541
_cell_length_b   17.98000541
_cell_length_c   17.98000541
_cell_angle_alpha   156.56001464
_cell_angle_beta   156.56001464
_cell_angle_gamma   33.38890091
_symmetry_Int_Tables_number   1
_chemical_formula_structural   LiU4As3O20
_chemical_formula_sum   'Li2 U8 As6 O40'
_cell_volume   918.90546290
_cell_formula_units_Z   2
loop_
 _symmetry_equiv_pos_site_id
 _symmetry_equiv_pos_as_xyz
  1  'x, y, z'
loop_
 _atom_site_type_symbol
 _atom_site_label
 _atom_site_symmetry_multiplicity
 _atom_site_fract_x
 _atom_site_fract_y
 _atom_site_fract_z
 _atom_site_occupancy
  Li  Li0  1  0.54756400  0.04756400  0.50000000  1
  Li  Li1  1  0.79756400  0.79756400  0.00000000  1
  U  U0  1  0.52950400  0.52950400  0.00000000  1
  U  U1  1  0.27950400  0.77950400  0.50000000  1
  U  U2  1  0.97060500  0.47060500  0.50000000  1
  U  U3  1  0.22060500  0.22060500  0.00000000  1
  U  U4  1  0.65383700  0.65383700  0.00000000  1
  U  U5  1  0.40383700  0.90383700  0.50000000  1
  U  U6  1  0.84607500  0.34607500  0.50000000  1
  U  U7  1  0.09607500  0.09607500  0.00000000  1
  As  As0  1  0.43260100  0.43260100  0.00000000  1
  As  As1  1  0.18260100  0.68260100  0.50000000  1
  As  As2  1  0.06775200  0.56775200  0.50000000  1
  As  As3  1  0.31775200  0.31775200  0.00000000  1
  As  As4  1  0.62675800  0.12675800  0.50000000  1
  As  As5  1  0.87675800  0.87675800  0.00000000  1
  O  O0  1  0.29060700  0.46629900  0.82430800  1
  O  O1  1  0.64199000  0.46629900  0.17569200  1
  O  O2  1  0.21629900  0.54060700  0.32430800  1
  O  O3  1  0.21629900  0.89199000  0.67569200  1
  O  O4  1  0.21461700  0.53500800  0.67960800  1
  O  O5  1  0.85540000  0.53500800  0.32039200  1
  O  O6  1  0.28500800  0.46461700  0.17960800  1
  O  O7  1  0.28500800  0.10540000  0.82039200  1
  O  O8  1  0.40487300  0.59755300  0.19268000  1
  O  O9  1  0.34755300  0.65487300  0.69268000  1
  O  O10  1  0.96219300  0.65487300  0.30732000  1
  O  O11  1  0.40487300  0.21219300  0.80732000  1
  O  O12  1  0.09501000  0.40103200  0.30602200  1
  O  O13  1  0.15103200  0.34501000  0.80602200  1
  O  O14  1  0.53898900  0.34501000  0.19397800  1
  O  O15  1  0.09501000  0.78898900  0.69397800  1
  O  O16  1  0.59717300  0.59717300  0.00000000  1
  O  O17  1  0.34717300  0.84717300  0.50000000  1
  O  O18  1  0.90134500  0.40134500  0.50000000  1
  O  O19  1  0.15134500  0.15134500  0.00000000  1
  O  O20  1  0.65422900  0.96005300  0.30582300  1
  O  O21  1  0.71005300  0.90422900  0.80582300  1
  O  O22  1  0.09840600  0.90422900  0.19417700  1
  O  O23  1  0.65422900  0.34840600  0.69417700  1
  O  O24  1  0.84468500  0.02850800  0.18382300  1
  O  O25  1  0.77850800  0.09468500  0.68382300  1
  O  O26  1  0.41086100  0.09468500  0.31617700  1
  O  O27  1  0.84468500  0.66086100  0.81617700  1
  O  O28  1  0.70632200  0.70632200  0.00000000  1
  O  O29  1  0.45632200  0.95632200  0.50000000  1
  O  O30  1  0.79375900  0.29375900  0.50000000  1
  O  O31  1  0.04375900  0.04375900  0.00000000  1
  O  O32  1  0.52946700  0.28082900  0.75136300  1
  O  O33  1  0.03082900  0.77946700  0.25136300  1
  O  O34  1  0.52810400  0.77946700  0.74863700  1
  O  O35  1  0.52946700  0.77810400  0.24863700  1
  O  O36  1  0.97078100  0.71534300  0.74456200  1
  O  O37  1  0.46534300  0.22078100  0.24456200  1
  O  O38  1  0.97621900  0.22078100  0.75543800  1
  O  O39  1  0.97078100  0.22621900  0.25543800  1
loop_
_geom_bond_atom_site_label_1
_geom_bond_atom_site_label_2
_geom_bond_distance
_geom_bond_site_symmetry_2
Li0 O35 1.939011 1_545
Li0 O32 1.939013 1_555
Li0 O26 2.106465 1_555
Li0 O25 2.106476 1_555
Li1 O34 1.939011 1_554
Li1 O33 1.939013 1_655
Li1 O27 2.106465 1_554
Li1 O24 2.106476 1_565
As0 O8 1.700892 1_555
As0 O11 1.700892 1_554
As0 O1 1.730365 1_555
As0 O0 1.730379 1_554
As1 O9 1.700892 1_555
As1 O10 1.700892 1_455
As1 O3 1.730365 1_555
As1 O2 1.730379 1_555
As2 O12 1.699751 1_555
As2 O15 1.699763 1_555
As2 O4 1.730092 1_555
As2 O5 1.730100 1_455
As3 O13 1.699751 1_554
As3 O14 1.699763 1_555
As3 O6 1.730092 1_555
As3 O7 1.730100 1_554
As4 O23 1.705023 1_555
As4 O20 1.705030 1_545
As4 O25 1.738787 1_555
As4 O26 1.738801 1_555
As5 O22 1.705023 1_655
As5 O21 1.705030 1_554
As5 O24 1.738787 1_565
As5 O27 1.738801 1_554
O0 U2 2.373553 1_455
O0 U0 2.527159 1_556
O1 U2 2.373558 1_555
O1 U0 2.527172 1_555
O2 U3 2.373553 1_555
O2 U1 2.527159 1_555
O3 U3 2.373558 1_566
O3 U1 2.527172 1_555
O4 U0 2.347974 1_556
O4 U2 2.577252 1_455
O5 U0 2.347976 1_555
O5 U2 2.577235 1_555
O6 U1 2.347974 1_555
O6 U3 2.577252 1_555
O7 U1 2.347976 1_545
O7 U3 2.577235 1_556
O8 U5 2.245109 1_555
O9 U4 2.245109 1_556
O10 U4 2.245109 1_555
O11 U5 2.245109 1_545
O12 U7 2.235645 1_555
O13 U6 2.235645 1_455
O14 U6 2.235641 1_555
O15 U7 2.235641 1_566
O16 U4 1.951752 1_555
O16 U0 2.330812 1_555
O17 U5 1.951752 1_555
O17 U1 2.330812 1_555
O18 U6 1.903737 1_555
O18 U2 2.385613 1_555
O19 U7 1.903737 1_555
O19 U3 2.385613 1_555
O20 U4 2.233935 1_555
O21 U5 2.233935 1_555
O22 U5 2.233931 1_555
O23 U4 2.233931 1_556
O24 U6 2.310017 1_555
O25 U7 2.310017 1_656
O26 U7 2.310014 1_555
O27 U6 2.310014 1_555
O28 U4 1.807810 1_555
O29 U5 1.807810 1_555
O30 U6 1.801988 1_555
O31 U7 1.801988 1_555
O32 U0 1.816178 1_556
O33 U1 1.816178 1_555
O34 U1 1.816174 1_555
O35 U0 1.816174 1_555
O36 U2 1.786418 1_555
O37 U3 1.786418 1_555
O38 U3 1.786418 1_656
O39 U2 1.786418 1_555
