# generated using pymatgen
data_Eu3SbO7
_symmetry_space_group_name_H-M   'P 1'
_cell_length_a   6.61706329
_cell_length_b   6.61706329
_cell_length_c   7.71273100
_cell_angle_alpha   90.00000000
_cell_angle_beta   90.00000000
_cell_angle_gamma   110.14100347
_symmetry_Int_Tables_number   1
_chemical_formula_structural   Eu3SbO7
_chemical_formula_sum   'Eu6 Sb2 O14'
_cell_volume   317.05461653
_cell_formula_units_Z   2
loop_
 _symmetry_equiv_pos_site_id
 _symmetry_equiv_pos_as_xyz
  1  'x, y, z'
loop_
 _atom_site_type_symbol
 _atom_site_label
 _atom_site_symmetry_multiplicity
 _atom_site_fract_x
 _atom_site_fract_y
 _atom_site_fract_z
 _atom_site_occupancy
  Eu  Eu0  1  0.00267700  0.47181600  0.74910600  1
  Eu  Eu1  1  0.99732300  0.52818400  0.24910600  1
  Eu  Eu2  1  0.52818400  0.99732300  0.75089400  1
  Eu  Eu3  1  0.47181600  0.00267700  0.25089400  1
  Eu  Eu4  1  0.50315000  0.50315000  0.50000000  1
  Eu  Eu5  1  0.49685000  0.49685000  0.00000000  1
  Sb  Sb0  1  0.99783400  0.99783400  0.50000000  1
  Sb  Sb1  1  0.00216600  0.00216600  0.00000000  1
  O  O0  1  0.63762500  0.36237500  0.75000000  1
  O  O1  1  0.36237500  0.63762500  0.25000000  1
  O  O2  1  0.93694900  0.06305100  0.75000000  1
  O  O3  1  0.06305100  0.93694900  0.25000000  1
  O  O4  1  0.92337600  0.67914500  0.52743600  1
  O  O5  1  0.07662400  0.32085500  0.02743600  1
  O  O6  1  0.32085500  0.07662400  0.97256400  1
  O  O7  1  0.67914500  0.92337600  0.47256400  1
  O  O8  1  0.37157500  0.62842500  0.75000000  1
  O  O9  1  0.62842500  0.37157500  0.25000000  1
  O  O10  1  0.93527400  0.68628500  0.96937100  1
  O  O11  1  0.06472600  0.31371500  0.46937100  1
  O  O12  1  0.31371500  0.06472600  0.53062900  1
  O  O13  1  0.68628500  0.93527400  0.03062900  1
loop_
_geom_bond_atom_site_label_1
_geom_bond_atom_site_label_2
_geom_bond_distance
_geom_bond_site_symmetry_2
Eu0 O0 2.270416 1_455
Eu0 O8 2.300105 1_555
Eu0 O10 2.352635 1_455
Eu0 O4 2.361411 1_455
Eu0 O5 2.486388 1_556
Eu0 O11 2.492737 1_555
Eu0 O2 2.587496 1_455
Eu1 O1 2.270416 1_655
Eu1 O9 2.300105 1_555
Eu1 O11 2.352635 1_655
Eu1 O5 2.361411 1_655
Eu1 O4 2.486388 1_555
Eu1 O10 2.492737 1_554
Eu1 O3 2.587496 1_655
Eu2 O0 2.270416 1_565
Eu2 O8 2.300105 1_555
Eu2 O12 2.352635 1_565
Eu2 O6 2.361411 1_565
Eu2 O7 2.486388 1_555
Eu2 O13 2.492737 1_556
Eu2 O2 2.587496 1_565
Eu3 O1 2.270416 1_545
Eu3 O9 2.300105 1_555
Eu3 O13 2.352635 1_545
Eu3 O7 2.361411 1_545
Eu3 O6 2.486388 1_554
Eu3 O12 2.492737 1_555
Eu3 O3 2.587496 1_545
Eu4 O8 2.379094 1_555
Eu4 O9 2.379094 1_555
Eu4 O0 2.438901 1_555
Eu4 O1 2.438901 1_555
Eu4 O7 2.627356 1_555
Eu4 O4 2.627356 1_555
Eu4 O11 2.745725 1_555
Eu4 O12 2.745725 1_555
Eu5 O8 2.379094 1_554
Eu5 O9 2.379094 1_555
Eu5 O0 2.438901 1_554
Eu5 O1 2.438901 1_555
Eu5 O5 2.627356 1_555
Eu5 O6 2.627356 1_554
Eu5 O13 2.745725 1_555
Eu5 O10 2.745725 1_554
O2 Sb0 2.046012 1_545
O2 Sb1 2.046012 1_656
O3 Sb1 2.046012 1_565
O3 Sb0 2.046012 1_455
O4 Sb0 2.004742 1_555
O5 Sb1 2.004742 1_555
O6 Sb1 2.004742 1_556
O7 Sb0 2.004742 1_555
O10 Sb1 1.995881 1_666
O11 Sb0 1.995881 1_445
O12 Sb0 1.995881 1_445
O13 Sb1 1.995881 1_665
