# generated using pymatgen
data_LiV5O7F
_symmetry_space_group_name_H-M   'P 1'
_cell_length_a   6.13716997
_cell_length_b   6.08176415
_cell_length_c   10.43627726
_cell_angle_alpha   89.56075007
_cell_angle_beta   107.09594857
_cell_angle_gamma   120.30403529
_symmetry_Int_Tables_number   1
_chemical_formula_structural   LiV5O7F
_chemical_formula_sum   'Li2 V10 O14 F2'
_cell_volume   316.74166999
_cell_formula_units_Z   2
loop_
 _symmetry_equiv_pos_site_id
 _symmetry_equiv_pos_as_xyz
  1  'x, y, z'
loop_
 _atom_site_type_symbol
 _atom_site_label
 _atom_site_symmetry_multiplicity
 _atom_site_fract_x
 _atom_site_fract_y
 _atom_site_fract_z
 _atom_site_occupancy
  Li  Li0  1  0.76062300  0.88199500  0.63929300  1
  Li  Li1  1  0.76240200  0.38479500  0.14003900  1
  V  V0  1  0.38290400  0.19706900  0.56881300  1
  V  V1  1  0.36569000  0.43062800  0.80321900  1
  V  V2  1  0.37241200  0.94305100  0.30603900  1
  V  V3  1  0.86814400  0.43061800  0.80323800  1
  V  V4  1  0.87662000  0.94304700  0.30604200  1
  V  V5  1  0.98869200  0.98690600  0.99053200  1
  V  V6  1  0.99449000  0.49873100  0.49029500  1
  V  V7  1  0.37490000  0.67916500  0.07065100  1
  V  V8  1  0.36601700  0.92662700  0.80548500  1
  V  V9  1  0.36930300  0.43421700  0.30441000  1
  O  O0  1  0.12458100  0.55876600  0.69026600  1
  O  O1  1  0.12394800  0.06034700  0.18754200  1
  O  O2  1  0.61641200  0.07095800  0.70193700  1
  O  O3  1  0.63120500  0.59409400  0.19350500  1
  O  O4  1  0.15625300  0.07079000  0.70193100  1
  O  O5  1  0.15661300  0.59411700  0.19354400  1
  O  O6  1  0.62822000  0.54969700  0.70660800  1
  O  O7  1  0.62049700  0.04064500  0.20028700  1
  O  O8  1  0.12791200  0.32603900  0.92961900  1
  O  O9  1  0.13215800  0.83761700  0.42699000  1
  O  O10  1  0.13389100  0.79330500  0.93178700  1
  O  O11  1  0.12596100  0.30051600  0.43134600  1
  O  O12  1  0.59126900  0.79341900  0.93178500  1
  O  O13  1  0.60608700  0.30067500  0.43129700  1
  F  F0  1  0.61795100  0.30517100  0.93094500  1
  F  F1  1  0.62484900  0.81699200  0.43255800  1
loop_
_geom_bond_atom_site_label_1
_geom_bond_atom_site_label_2
_geom_bond_distance
_geom_bond_site_symmetry_2
Li0 O6 1.973497 1_555
Li0 O4 1.976347 1_665
Li0 O2 1.977276 1_565
Li1 O3 1.972135 1_555
Li1 O5 1.973342 1_655
Li1 O7 1.999211 1_555
O0 V6 1.965700 1_455
O0 V8 2.072431 1_555
O0 V1 2.076197 1_555
O0 V3 2.076859 1_455
O1 V5 1.937101 1_444
O1 V2 2.083022 1_545
O1 V4 2.083198 1_445
O1 V9 2.105365 1_555
O2 V8 1.974936 1_545
O2 V3 1.988438 1_555
O2 V0 2.120014 1_555
O3 V4 1.980968 1_555
O3 V7 2.002804 1_555
O3 V9 2.089967 1_555
O4 V8 1.974970 1_545
O4 V1 1.989151 1_555
O4 V0 2.120484 1_555
O5 V2 1.980783 1_555
O5 V7 2.001974 1_555
O5 V9 2.089039 1_555
O6 V3 1.975221 1_555
O6 V1 1.975699 1_555
O6 V0 2.109486 1_555
O7 V4 1.988154 1_545
O7 V2 1.988570 1_545
O7 V7 2.106652 1_545
O8 V5 1.977114 1_445
O8 V1 2.111030 1_555
O8 V3 2.111844 1_455
O8 V7 2.127861 1_556
O9 V6 1.986991 1_455
O9 V4 2.074232 1_455
O9 V2 2.075170 1_555
O9 V0 2.157157 1_565
O10 V5 1.986814 1_455
O10 V8 2.084782 1_555
O10 V3 2.110370 1_455
O10 V7 2.128464 1_556
O11 V6 1.941015 1_455
O11 V4 2.070726 1_445
O11 V9 2.137202 1_555
O11 V0 2.144270 1_555
O12 V5 1.986196 1_555
O12 V8 2.085017 1_555
O12 V1 2.110872 1_555
O12 V7 2.128685 1_556
O13 V6 1.939813 1_555
O13 V2 2.071147 1_545
O13 V9 2.137313 1_555
O13 V0 2.145628 1_555
F0 Li1 2.056166 1_556
F0 V8 2.160755 1_545
F0 V1 2.172327 1_555
F0 V3 2.172895 1_555
F1 Li0 2.032053 1_555
F1 V4 2.169593 1_555
F1 V2 2.170665 1_555
F1 V9 2.190354 1_555
