# generated using pymatgen
data_SnSbO4
_symmetry_space_group_name_H-M   'P 1'
_cell_length_a   4.89616790
_cell_length_b   4.89616790
_cell_length_c   3.32889100
_cell_angle_alpha   90.00000000
_cell_angle_beta   90.00000000
_cell_angle_gamma   90.15154258
_symmetry_Int_Tables_number   1
_chemical_formula_structural   SnSbO4
_chemical_formula_sum   'Sn1 Sb1 O4'
_cell_volume   79.80142772
_cell_formula_units_Z   1
loop_
 _symmetry_equiv_pos_site_id
 _symmetry_equiv_pos_as_xyz
  1  'x, y, z'
loop_
 _atom_site_type_symbol
 _atom_site_label
 _atom_site_symmetry_multiplicity
 _atom_site_fract_x
 _atom_site_fract_y
 _atom_site_fract_z
 _atom_site_occupancy
  Sn  Sn0  1  0.50000000  0.50000000  0.50000000  1
  Sb  Sb0  1  0.00000000  0.00000000  0.00000000  1
  O  O0  1  0.19201200  0.19201200  0.50000000  1
  O  O1  1  0.80798800  0.80798800  0.50000000  1
  O  O2  1  0.69135700  0.30864300  0.00000000  1
  O  O3  1  0.30864300  0.69135700  0.00000000  1
loop_
_geom_bond_atom_site_label_1
_geom_bond_atom_site_label_2
_geom_bond_distance
_geom_bond_site_symmetry_2
O0 Sb0 2.129170 1_555
O0 Sb0 2.129170 1_556
O0 Sn0 2.129757 1_555
O1 Sb0 2.129170 1_666
O1 Sb0 2.129170 1_665
O1 Sn0 2.129757 1_555
O2 Sn0 2.128531 1_555
O2 Sn0 2.128531 1_554
O2 Sb0 2.139939 1_655
O3 Sn0 2.128531 1_555
O3 Sn0 2.128531 1_554
O3 Sb0 2.139939 1_565
