# generated using pymatgen
data_BaNb6O17
_symmetry_space_group_name_H-M   'P 1'
_cell_length_a   11.70129156
_cell_length_b   11.70129156
_cell_length_c   11.70129156
_cell_angle_alpha   160.99848239
_cell_angle_beta   135.53826721
_cell_angle_gamma   48.75894948
_symmetry_Int_Tables_number   1
_chemical_formula_structural   BaNb6O17
_chemical_formula_sum   'Ba1 Nb6 O17'
_cell_volume   364.52287073
_cell_formula_units_Z   1
loop_
 _symmetry_equiv_pos_site_id
 _symmetry_equiv_pos_as_xyz
  1  'x, y, z'
loop_
 _atom_site_type_symbol
 _atom_site_label
 _atom_site_symmetry_multiplicity
 _atom_site_fract_x
 _atom_site_fract_y
 _atom_site_fract_z
 _atom_site_occupancy
  Ba  Ba0  1  0.00000000  0.00000000  0.00000000  1
  Nb  Nb0  1  0.17956800  0.37266600  0.80690200  1
  Nb  Nb1  1  0.43423600  0.62733400  0.80690200  1
  Nb  Nb2  1  0.56576400  0.37266600  0.19309800  1
  Nb  Nb3  1  0.82043200  0.62733400  0.19309800  1
  Nb  Nb4  1  0.74011900  0.24011900  0.50000000  1
  Nb  Nb5  1  0.25988100  0.75988100  0.50000000  1
  O  O0  1  0.18575800  0.84823400  0.33752400  1
  O  O1  1  0.48929000  0.15176600  0.33752400  1
  O  O2  1  0.51071000  0.84823400  0.66247600  1
  O  O3  1  0.81424200  0.15176600  0.66247600  1
  O  O4  1  0.09884500  0.43301100  0.66583500  1
  O  O5  1  0.23282400  0.56698900  0.66583500  1
  O  O6  1  0.76717600  0.43301100  0.33416500  1
  O  O7  1  0.90115500  0.56698900  0.33416500  1
  O  O8  1  0.95398200  0.29519200  0.65879000  1
  O  O9  1  0.36359800  0.70480800  0.65879000  1
  O  O10  1  0.63640200  0.29519200  0.34121000  1
  O  O11  1  0.04601800  0.70480800  0.34121000  1
  O  O12  1  0.28824800  0.28824800  0.00000000  1
  O  O13  1  0.71175200  0.71175200  0.00000000  1
  O  O14  1  0.41836900  0.41836900  0.00000000  1
  O  O15  1  0.58163100  0.58163100  0.00000000  1
  O  O16  1  0.50000000  0.00000000  0.50000000  1
loop_
_geom_bond_atom_site_label_1
_geom_bond_atom_site_label_2
_geom_bond_distance
_geom_bond_site_symmetry_2
Ba0 O6 2.815198 1_455
Ba0 O5 2.815198 1_555
Ba0 O6 2.815198 1_444
Ba0 O5 2.815198 1_544
Ba0 O7 2.815199 1_455
Ba0 O4 2.815199 1_544
Ba0 O7 2.815202 1_444
Ba0 O4 2.815202 1_555
Nb0 O4 1.792936 1_555
Nb0 O14 1.967785 1_556
Nb0 O0 2.018694 1_545
Nb0 O0 2.018694 1_556
Nb0 O8 2.108783 1_455
Nb0 O12 2.482156 1_556
Nb1 O5 1.792941 1_555
Nb1 O15 1.967785 1_556
Nb1 O1 2.018694 1_566
Nb1 O1 2.018694 1_555
Nb1 O9 2.108783 1_555
Nb1 O13 2.482156 1_556
Nb2 O6 1.792941 1_555
Nb2 O14 1.967785 1_555
Nb2 O2 2.018694 1_555
Nb2 O2 2.018694 1_544
Nb2 O10 2.108783 1_555
Nb2 O12 2.482156 1_555
Nb3 O7 1.792936 1_555
Nb3 O15 1.967785 1_555
Nb3 O3 2.018694 1_565
Nb3 O3 2.018694 1_554
Nb3 O11 2.108783 1_655
Nb3 O13 2.482156 1_555
Nb4 O10 1.831607 1_555
Nb4 O8 1.831607 1_555
Nb4 O13 2.023861 1_556
Nb4 O13 2.023861 1_545
Nb4 O1 2.369894 1_555
Nb4 O3 2.369894 1_555
Nb5 O9 1.831607 1_555
Nb5 O11 1.831607 1_555
Nb5 O12 2.023861 1_555
Nb5 O12 2.023861 1_566
Nb5 O0 2.369894 1_555
Nb5 O2 2.369894 1_555
