# generated using pymatgen
data_Ba2SmInSe5
_symmetry_space_group_name_H-M   'P 1'
_cell_length_a   9.82445781
_cell_length_b   9.82445781
_cell_length_c   13.50479900
_cell_angle_alpha   90.00000000
_cell_angle_beta   90.00000000
_cell_angle_gamma   154.40701955
_symmetry_Int_Tables_number   1
_chemical_formula_structural   Ba2SmInSe5
_chemical_formula_sum   'Ba4 Sm2 In2 Se10'
_cell_volume   563.07232350
_cell_formula_units_Z   2
loop_
 _symmetry_equiv_pos_site_id
 _symmetry_equiv_pos_as_xyz
  1  'x, y, z'
loop_
 _atom_site_type_symbol
 _atom_site_label
 _atom_site_symmetry_multiplicity
 _atom_site_fract_x
 _atom_site_fract_y
 _atom_site_fract_z
 _atom_site_occupancy
  Ba  Ba0  1  0.86879400  0.13120600  0.18550000  1
  Ba  Ba1  1  0.13120600  0.86879400  0.68550000  1
  Ba  Ba2  1  0.88359200  0.11640800  0.81858100  1
  Ba  Ba3  1  0.11640800  0.88359200  0.31858100  1
  Sm  Sm0  1  0.78877600  0.21122400  0.48233200  1
  Sm  Sm1  1  0.21122400  0.78877600  0.98233200  1
  In  In0  1  0.55159500  0.44840500  0.06322000  1
  In  In1  1  0.44840500  0.55159500  0.56322000  1
  Se  Se0  1  0.64172200  0.35827800  0.49946200  1
  Se  Se1  1  0.35827800  0.64172200  0.99946200  1
  Se  Se2  1  0.70900700  0.29099300  0.83966500  1
  Se  Se3  1  0.29099300  0.70900700  0.33966500  1
  Se  Se4  1  0.68557000  0.31443000  0.13304600  1
  Se  Se5  1  0.31443000  0.68557000  0.63304600  1
  Se  Se6  1  0.49491700  0.50508300  0.23453300  1
  Se  Se7  1  0.50508300  0.49491700  0.73453300  1
  Se  Se8  1  0.95162100  0.04837900  0.45042300  1
  Se  Se9  1  0.04837900  0.95162100  0.95042300  1
loop_
_geom_bond_atom_site_label_1
_geom_bond_atom_site_label_2
_geom_bond_distance
_geom_bond_site_symmetry_2
Ba0 Se6 3.318673 1_545
Ba0 Se6 3.318673 1_655
Ba0 Se1 3.329833 1_544
Ba0 Se1 3.329833 1_654
Ba0 Se3 3.360341 1_655
Ba0 Se3 3.360341 1_545
Ba0 Se4 3.581490 1_555
Ba0 Se8 3.913931 1_555
Ba1 Se7 3.318673 1_455
Ba1 Se7 3.318673 1_565
Ba1 Se0 3.329833 1_565
Ba1 Se0 3.329833 1_455
Ba1 Se2 3.360341 1_565
Ba1 Se2 3.360341 1_455
Ba1 Se5 3.581490 1_555
Ba1 Se9 3.913931 1_555
Ba2 Se1 3.307167 1_655
Ba2 Se1 3.307167 1_545
Ba2 Se2 3.357301 1_555
Ba2 Se7 3.382655 1_545
Ba2 Se7 3.382655 1_655
Ba2 Se5 3.573412 1_545
Ba2 Se5 3.573412 1_655
Ba2 Se9 3.624882 1_645
Ba3 Se0 3.307167 1_565
Ba3 Se0 3.307167 1_455
Ba3 Se3 3.357301 1_555
Ba3 Se6 3.382655 1_455
Ba3 Se6 3.382655 1_565
Ba3 Se4 3.573412 1_455
Ba3 Se4 3.573412 1_565
Ba3 Se8 3.624882 1_465
In0 Se6 2.555758 1_555
In0 Se9 2.656925 1_544
In0 Se9 2.656925 1_654
In0 Se4 2.734799 1_555
In1 Se7 2.555758 1_555
In1 Se8 2.656925 1_455
In1 Se8 2.656925 1_565
In1 Se5 2.734799 1_555
Se0 Sm0 2.827167 1_555
Se1 Sm1 2.827167 1_555
Se2 Sm1 2.906706 1_655
Se2 Sm1 2.906706 1_545
Se3 Sm0 2.906706 1_565
Se3 Sm0 2.906706 1_455
Se4 Sm1 3.019823 1_544
Se4 Sm1 3.019823 1_654
Se5 Sm0 3.019823 1_455
Se5 Sm0 3.019823 1_565
Se8 Sm0 3.149872 1_555
Se9 Sm1 3.149872 1_555
