# generated using pymatgen
data_SrTe(HO2)2
_symmetry_space_group_name_H-M   'P 1'
_cell_length_a   7.25689000
_cell_length_b   7.97914468
_cell_length_c   8.40403632
_cell_angle_alpha   107.27315322
_cell_angle_beta   90.00000000
_cell_angle_gamma   90.00000000
_symmetry_Int_Tables_number   1
_chemical_formula_structural   SrTe(HO2)2
_chemical_formula_sum   'Sr4 Te4 H8 O16'
_cell_volume   464.67864012
_cell_formula_units_Z   4
loop_
 _symmetry_equiv_pos_site_id
 _symmetry_equiv_pos_as_xyz
  1  'x, y, z'
loop_
 _atom_site_type_symbol
 _atom_site_label
 _atom_site_symmetry_multiplicity
 _atom_site_fract_x
 _atom_site_fract_y
 _atom_site_fract_z
 _atom_site_occupancy
  Sr  Sr0  1  0.86103800  0.60075700  0.83704900  1
  Sr  Sr1  1  0.36103800  0.39924300  0.66295100  1
  Sr  Sr2  1  0.13896200  0.39924300  0.16295100  1
  Sr  Sr3  1  0.63896200  0.60075700  0.33704900  1
  Te  Te0  1  0.67241200  0.21915200  0.99372700  1
  Te  Te1  1  0.17241200  0.78084800  0.50627300  1
  Te  Te2  1  0.32758800  0.78084800  0.00627300  1
  Te  Te3  1  0.82758800  0.21915200  0.49372700  1
  H  H0  1  0.94260500  0.80629100  0.20494000  1
  H  H1  1  0.44260500  0.19370900  0.29506000  1
  H  H2  1  0.05739500  0.19370900  0.79506000  1
  H  H3  1  0.55739500  0.80629100  0.70494000  1
  H  H4  1  0.91404500  0.98624000  0.16136900  1
  H  H5  1  0.41404500  0.01376000  0.33863100  1
  H  H6  1  0.08595500  0.01376000  0.83863100  1
  H  H7  1  0.58595500  0.98624000  0.66136900  1
  O  O0  1  0.80293200  0.43526100  0.05032400  1
  O  O1  1  0.30293200  0.56473900  0.44967600  1
  O  O2  1  0.19706800  0.56473900  0.94967600  1
  O  O3  1  0.69706800  0.43526100  0.55032400  1
  O  O4  1  0.47731600  0.30611700  0.14804800  1
  O  O5  1  0.97731600  0.69388300  0.35195200  1
  O  O6  1  0.52268400  0.69388300  0.85195200  1
  O  O7  1  0.02268400  0.30611700  0.64804800  1
  O  O8  1  0.57245200  0.22149000  0.78677600  1
  O  O9  1  0.07245200  0.77851000  0.71322400  1
  O  O10  1  0.42754800  0.77851000  0.21322400  1
  O  O11  1  0.92754800  0.22149000  0.28677600  1
  O  O12  1  0.91260600  0.85604900  0.11214000  1
  O  O13  1  0.41260600  0.14395100  0.38786000  1
  O  O14  1  0.08739400  0.14395100  0.88786000  1
  O  O15  1  0.58739400  0.85604900  0.61214000  1
loop_
_geom_bond_atom_site_label_1
_geom_bond_atom_site_label_2
_geom_bond_distance
_geom_bond_site_symmetry_2
H0 O12 0.998568 1_555
H0 O5 1.747122 1_555
H1 O13 0.998568 1_555
H1 O4 1.747122 1_555
H2 O14 0.998568 1_555
H2 O7 1.747122 1_555
H3 O15 0.998568 1_555
H3 O6 1.747122 1_555
H4 O12 0.997587 1_555
H5 O13 0.997587 1_555
H6 O14 0.997587 1_555
H7 O15 0.997587 1_555
O0 Te0 1.899929 1_554
O0 Sr0 2.557290 1_554
O0 Sr3 2.660154 1_555
O0 Sr2 2.662045 1_655
O1 Te1 1.899929 1_555
O1 Sr1 2.557290 1_555
O1 Sr2 2.660154 1_555
O1 Sr3 2.662045 1_555
O2 Te2 1.899929 1_556
O2 Sr2 2.557290 1_556
O2 Sr1 2.660154 1_555
O2 Sr0 2.662045 1_455
O3 Te3 1.899929 1_555
O3 Sr3 2.557290 1_555
O3 Sr0 2.660154 1_555
O3 Sr1 2.662045 1_555
O4 Te0 1.906183 1_554
O4 Sr2 2.557644 1_555
O4 Sr3 2.684858 1_555
O5 Te1 1.906183 1_655
O5 Sr3 2.557644 1_555
O5 Sr2 2.684858 1_655
O6 Te2 1.906183 1_556
O6 Sr0 2.557644 1_555
O6 Sr1 2.684858 1_555
O7 Te3 1.906183 1_455
O7 Sr1 2.557644 1_555
O7 Sr0 2.684858 1_455
O8 Te0 1.889634 1_555
O8 Sr1 2.514920 1_555
O9 Te1 1.889634 1_555
O9 Sr0 2.514920 1_455
O10 Te2 1.889634 1_555
O10 Sr3 2.514920 1_555
O11 Te3 1.889634 1_555
O11 Sr2 2.514920 1_655
O12 Sr0 2.614876 1_554
O13 Sr1 2.614876 1_555
O14 Sr2 2.614876 1_556
O15 Sr3 2.614876 1_555
