# generated using pymatgen
data_Mg3HgAu2
_symmetry_space_group_name_H-M   'P 1'
_cell_length_a   3.30512809
_cell_length_b   3.30512809
_cell_length_c   10.13032489
_cell_angle_alpha   90.00000000
_cell_angle_beta   90.00000000
_cell_angle_gamma   90.00000000
_symmetry_Int_Tables_number   1
_chemical_formula_structural   Mg3HgAu2
_chemical_formula_sum   'Mg3 Hg1 Au2'
_cell_volume   110.66236929
_cell_formula_units_Z   1
loop_
 _symmetry_equiv_pos_site_id
 _symmetry_equiv_pos_as_xyz
  1  'x, y, z'
loop_
 _atom_site_type_symbol
 _atom_site_label
 _atom_site_symmetry_multiplicity
 _atom_site_fract_x
 _atom_site_fract_y
 _atom_site_fract_z
 _atom_site_occupancy
  Mg  Mg0  1  0.50000000  0.50000000  0.18172860  1
  Mg  Mg1  1  0.50000000  0.50000000  0.50000000  1
  Mg  Mg2  1  0.50000000  0.50000000  0.81827140  1
  Hg  Hg0  1  -0.00000000  0.00000000  -0.00000000  1
  Au  Au0  1  0.00000000  0.00000000  0.33927780  1
  Au  Au1  1  -0.00000000  0.00000000  0.66072220  1
loop_
_geom_bond_atom_site_label_1
_geom_bond_atom_site_label_2
_geom_bond_distance
_geom_bond_site_symmetry_2
Hg0 Mg0 2.975081 1_555
Hg0 Mg0 2.975081 1_445
Hg0 Mg0 2.975081 1_545
Hg0 Mg0 2.975081 1_455
Hg0 Mg2 2.975081 1_454
Hg0 Mg2 2.975081 1_444
Hg0 Mg2 2.975081 1_544
Hg0 Mg2 2.975081 1_554
Au0 Mg0 2.830058 1_455
Au0 Mg0 2.830058 1_555
Au0 Mg0 2.830058 1_445
Au0 Mg0 2.830058 1_545
Au0 Mg1 2.848310 1_545
Au0 Mg1 2.848310 1_555
Au0 Mg1 2.848310 1_445
Au0 Mg1 2.848310 1_455
Au1 Mg2 2.830058 1_455
Au1 Mg2 2.830058 1_555
Au1 Mg2 2.830058 1_445
Au1 Mg2 2.830058 1_545
Au1 Mg1 2.848310 1_545
Au1 Mg1 2.848310 1_555
Au1 Mg1 2.848310 1_445
Au1 Mg1 2.848310 1_455
