# generated using pymatgen
data_NaHfMg14O15
_symmetry_space_group_name_H-M   'P 1'
_cell_length_a   8.61095483
_cell_length_b   8.65011898
_cell_length_c   4.32994133
_cell_angle_alpha   90.00000000
_cell_angle_beta   90.00000000
_cell_angle_gamma   90.00000000
_symmetry_Int_Tables_number   1
_chemical_formula_structural   NaHfMg14O15
_chemical_formula_sum   'Na1 Hf1 Mg14 O15'
_cell_volume   322.51907382
_cell_formula_units_Z   1
loop_
 _symmetry_equiv_pos_site_id
 _symmetry_equiv_pos_as_xyz
  1  'x, y, z'
loop_
 _atom_site_type_symbol
 _atom_site_label
 _atom_site_symmetry_multiplicity
 _atom_site_fract_x
 _atom_site_fract_y
 _atom_site_fract_z
 _atom_site_occupancy
  Na  Na0  1  -0.00006814  0.00000000  -0.00000000  1
  Hf  Hf0  1  0.00759080  0.50000000  -0.00000000  1
  Mg  Mg0  1  0.50030544  0.00000000  -0.00000000  1
  Mg  Mg1  1  0.50067498  0.50000000  -0.00000000  1
  Mg  Mg2  1  0.00080680  0.23572748  0.50000000  1
  Mg  Mg3  1  0.00080680  0.76427252  0.50000000  1
  Mg  Mg4  1  0.49932310  0.24759905  0.50000000  1
  Mg  Mg5  1  0.49932310  0.75240095  0.50000000  1
  Mg  Mg6  1  0.24887618  0.00000000  0.50000000  1
  Mg  Mg7  1  0.25332903  0.50000000  0.50000000  1
  Mg  Mg8  1  0.75137521  0.00000000  0.50000000  1
  Mg  Mg9  1  0.74417985  0.50000000  0.50000000  1
  Mg  Mg10  1  0.25582494  0.24008450  -0.00000000  1
  Mg  Mg11  1  0.25582494  0.75991550  0.00000000  1
  Mg  Mg12  1  0.74484372  0.24287910  -0.00000000  1
  Mg  Mg13  1  0.74484372  0.75712090  -0.00000000  1
  O  O0  1  0.26486595  0.00000000  -0.00000000  1
  O  O1  1  0.73544490  0.00000000  -0.00000000  1
  O  O2  1  0.74575343  0.50000000  -0.00000000  1
  O  O3  1  0.24958174  0.24555001  0.50000000  1
  O  O4  1  0.24958174  0.75444999  0.50000000  1
  O  O5  1  0.75134762  0.25091815  0.50000000  1
  O  O6  1  0.75134762  0.74908185  0.50000000  1
  O  O7  1  0.99921034  0.00000000  0.50000000  1
  O  O8  1  0.99465952  0.50000000  0.50000000  1
  O  O9  1  0.50107124  0.00000000  0.50000000  1
  O  O10  1  0.50018897  0.50000000  0.50000000  1
  O  O11  1  0.99932754  0.26296563  -0.00000000  1
  O  O12  1  0.99932754  0.73703437  -0.00000000  1
  O  O13  1  0.50021568  0.25392645  -0.00000000  1
  O  O14  1  0.50021568  0.74607355  -0.00000000  1
loop_
_geom_bond_atom_site_label_1
_geom_bond_atom_site_label_2
_geom_bond_distance
_geom_bond_site_symmetry_2
Na0 O7 2.164980 1_455
Na0 O7 2.164980 1_454
Na0 O12 2.274690 1_445
Na0 O11 2.274690 1_455
Na0 O1 2.277485 1_455
Na0 O0 2.281335 1_555
Hf0 O11 2.051610 1_455
Hf0 O12 2.051610 1_455
Hf0 O8 2.167832 1_455
Hf0 O8 2.167832 1_454
Hf0 O2 2.254670 1_455
Mg0 O1 2.024775 1_555
Mg0 O0 2.027359 1_555
Mg0 O9 2.164981 1_555
Mg0 O9 2.164981 1_554
Mg0 O14 2.196494 1_545
Mg0 O13 2.196494 1_555
Mg1 O2 2.110359 1_555
Mg1 O13 2.128569 1_555
Mg1 O14 2.128569 1_555
Mg1 O10 2.164975 1_555
Mg1 O10 2.164975 1_554
Mg2 O7 2.039117 1_455
Mg2 O3 2.143874 1_555
Mg2 O5 2.152097 1_455
Mg2 O11 2.177791 1_455
Mg2 O11 2.177791 1_456
Mg2 O8 2.286602 1_455
Mg3 O7 2.039117 1_465
Mg3 O4 2.143874 1_555
Mg3 O6 2.152097 1_455
Mg3 O12 2.177791 1_455
Mg3 O12 2.177791 1_456
Mg3 O8 2.286602 1_455
Mg4 O9 2.141814 1_555
Mg4 O3 2.150585 1_555
Mg4 O13 2.165676 1_555
Mg4 O13 2.165676 1_556
Mg4 O5 2.170362 1_555
Mg4 O10 2.183311 1_555
Mg5 O9 2.141814 1_565
Mg5 O4 2.150585 1_555
Mg5 O14 2.165676 1_555
Mg5 O14 2.165676 1_556
Mg5 O6 2.170362 1_555
Mg5 O10 2.183311 1_555
Mg6 O4 2.124045 1_545
Mg6 O3 2.124045 1_555
Mg6 O7 2.149861 1_455
Mg6 O0 2.169345 1_555
Mg6 O0 2.169345 1_556
Mg6 O9 2.171640 1_555
Mg7 O10 2.125700 1_555
Mg7 O4 2.201259 1_555
Mg7 O3 2.201259 1_555
Mg7 O8 2.227391 1_455
Mg8 O7 2.134097 1_555
Mg8 O9 2.155356 1_555
Mg8 O1 2.169312 1_556
Mg8 O1 2.169312 1_555
Mg8 O6 2.170472 1_545
Mg8 O5 2.170472 1_555
Mg9 O10 2.100994 1_555
Mg9 O5 2.155472 1_555
Mg9 O6 2.155472 1_555
Mg9 O8 2.156869 1_555
Mg9 O2 2.165013 1_555
Mg9 O2 2.165013 1_556
Mg10 O0 2.078218 1_555
Mg10 O13 2.107841 1_555
Mg10 O3 2.166154 1_555
Mg10 O3 2.166154 1_554
Mg10 O11 2.217538 1_455
Mg11 O0 2.078218 1_565
Mg11 O14 2.107841 1_555
Mg11 O4 2.166154 1_554
Mg11 O4 2.166154 1_555
Mg11 O12 2.217538 1_455
Mg12 O1 2.102491 1_555
Mg12 O13 2.108647 1_555
Mg12 O5 2.166811 1_554
Mg12 O5 2.166811 1_555
Mg12 O11 2.198226 1_555
Mg12 O2 2.224140 1_555
Mg13 O1 2.102491 1_565
Mg13 O14 2.108647 1_555
Mg13 O6 2.166811 1_554
Mg13 O6 2.166811 1_555
Mg13 O12 2.198226 1_555
Mg13 O2 2.224140 1_555
