# generated using pymatgen
data_Li2VP2O7
_symmetry_space_group_name_H-M   'P 1'
_cell_length_a   6.73647725
_cell_length_b   8.89611989
_cell_length_c   10.72078473
_cell_angle_alpha   97.97948628
_cell_angle_beta   106.79022942
_cell_angle_gamma   110.37776810
_symmetry_Int_Tables_number   1
_chemical_formula_structural   Li2VP2O7
_chemical_formula_sum   'Li8 V4 P8 O28'
_cell_volume   555.70260608
_cell_formula_units_Z   4
loop_
 _symmetry_equiv_pos_site_id
 _symmetry_equiv_pos_as_xyz
  1  'x, y, z'
loop_
 _atom_site_type_symbol
 _atom_site_label
 _atom_site_symmetry_multiplicity
 _atom_site_fract_x
 _atom_site_fract_y
 _atom_site_fract_z
 _atom_site_occupancy
  Li  Li0  1  0.80864900  0.98388200  0.10897400  1
  Li  Li1  1  0.80877100  0.98372300  0.60893600  1
  Li  Li2  1  0.19136000  0.01612400  0.39101400  1
  Li  Li3  1  0.19123400  0.01626400  0.89104700  1
  Li  Li4  1  0.22221500  0.74689600  0.16388600  1
  Li  Li5  1  0.22211000  0.74691400  0.66388500  1
  Li  Li6  1  0.77781100  0.25312000  0.33612200  1
  Li  Li7  1  0.77791700  0.25310000  0.83610300  1
  V  V0  1  0.59506300  0.36648300  0.54458800  1
  V  V1  1  0.40482800  0.63361100  0.95552900  1
  V  V2  1  0.59512400  0.36649800  0.04430900  1
  V  V3  1  0.40480800  0.63339100  0.45568800  1
  P  P0  1  0.13934900  0.38390300  0.11317600  1
  P  P1  1  0.13921700  0.38390000  0.61318600  1
  P  P2  1  0.86065600  0.61608800  0.38680700  1
  P  P3  1  0.86076500  0.61610300  0.88682800  1
  P  P4  1  0.70359300  0.88000000  0.30816300  1
  P  P5  1  0.70367600  0.88003600  0.80818300  1
  P  P6  1  0.29641900  0.12000200  0.19183900  1
  P  P7  1  0.29633300  0.11996700  0.69181300  1
  O  O0  1  0.89141100  0.33869600  0.02984300  1
  O  O1  1  0.89127900  0.33868000  0.52990200  1
  O  O2  1  0.10859400  0.66129300  0.47014300  1
  O  O3  1  0.10870800  0.66133200  0.97010800  1
  O  O4  1  0.28908200  0.40849300  0.02590400  1
  O  O5  1  0.28893500  0.40842300  0.52591300  1
  O  O6  1  0.71092500  0.59150200  0.47408100  1
  O  O7  1  0.71104900  0.59156000  0.97408800  1
  O  O8  1  0.54087400  0.79512300  0.16185900  1
  O  O9  1  0.54087600  0.79519700  0.66190000  1
  O  O10  1  0.45914600  0.20490200  0.33813800  1
  O  O11  1  0.45914500  0.20479700  0.83809300  1
  O  O12  1  0.41357600  0.13127700  0.08801700  1
  O  O13  1  0.41349300  0.13124900  0.58800100  1
  O  O14  1  0.58641700  0.86869200  0.41197100  1
  O  O15  1  0.58651300  0.86876200  0.91198900  1
  O  O16  1  0.13528500  0.94368800  0.18109700  1
  O  O17  1  0.13512000  0.94367700  0.68104500  1
  O  O18  1  0.86473000  0.05631800  0.31890100  1
  O  O19  1  0.86488800  0.05632200  0.81894600  1
  O  O20  1  0.76401700  0.47412800  0.26001000  1
  O  O21  1  0.76409400  0.47407600  0.76008400  1
  O  O22  1  0.23598900  0.52586700  0.23997600  1
  O  O23  1  0.23593600  0.52593700  0.73992800  1
  O  O24  1  0.87983900  0.79027600  0.34530800  1
  O  O25  1  0.87984300  0.79024400  0.84526600  1
  O  O26  1  0.12016400  0.20971700  0.15467200  1
  O  O27  1  0.12017200  0.20976400  0.65474300  1
loop_
_geom_bond_atom_site_label_1
_geom_bond_atom_site_label_2
_geom_bond_distance
_geom_bond_site_symmetry_2
Li0 O15 2.062629 1_554
Li0 O18 2.135342 1_565
Li0 O26 2.208331 1_665
Li0 O8 2.267344 1_555
Li0 O16 2.282351 1_655
Li1 O14 2.062767 1_555
Li1 O19 2.136278 1_565
Li1 O27 2.208691 1_665
Li1 O9 2.267299 1_555
Li1 O17 2.279849 1_655
Li2 O13 2.062644 1_555
Li2 O16 2.135249 1_545
Li2 O24 2.208402 1_445
Li2 O10 2.267417 1_555
Li2 O18 2.282305 1_455
Li3 O12 2.062770 1_556
Li3 O17 2.136190 1_545
Li3 O25 2.208600 1_445
Li3 O11 2.267334 1_555
Li3 O19 2.279880 1_455
Li4 O3 1.928154 1_554
Li4 O16 2.031892 1_555
Li4 O8 2.044689 1_555
Li4 O22 2.251454 1_555
Li5 O2 1.927855 1_555
Li5 O17 2.031866 1_555
Li5 O9 2.045164 1_555
Li5 O23 2.250867 1_555
Li6 O1 1.928183 1_555
Li6 O18 2.031937 1_555
Li6 O10 2.044701 1_555
Li6 O20 2.251423 1_555
Li7 O0 1.927819 1_556
Li7 O19 2.031912 1_555
Li7 O11 2.045195 1_555
Li7 O21 2.250733 1_555
O0 P0 1.523131 1_655
O0 V2 2.140312 1_555
O1 P1 1.522986 1_655
O1 V0 2.140610 1_555
O2 P2 1.523142 1_455
O2 V3 2.140168 1_555
O3 P3 1.522988 1_455
O3 V1 2.139279 1_555
O4 P0 1.545658 1_555
O4 V2 2.179615 1_555
O4 V1 2.204497 1_554
O5 P1 1.545589 1_555
O5 V0 2.179473 1_555
O5 V3 2.202586 1_555
O6 P2 1.545665 1_555
O6 V3 2.179646 1_555
O6 V0 2.204679 1_555
O7 P3 1.545465 1_555
O7 V1 2.180790 1_555
O7 V2 2.203305 1_556
O8 P4 1.527524 1_555
O8 V1 2.196986 1_554
O9 P5 1.527457 1_555
O9 V3 2.196932 1_555
O10 P6 1.527519 1_555
O10 V0 2.198325 1_555
O11 P7 1.527445 1_555
O11 V2 2.196681 1_556
O12 P6 1.534668 1_555
O12 V2 2.217010 1_555
O13 P7 1.534586 1_555
O13 V0 2.215557 1_555
O14 P4 1.534621 1_555
O14 V3 2.217731 1_555
O15 P5 1.534545 1_555
O15 V1 2.215883 1_555
O16 P6 1.530904 1_565
O17 P7 1.530841 1_565
O18 P4 1.530950 1_545
O19 P5 1.530826 1_545
O20 P2 1.518591 1_555
O20 V2 2.159953 1_555
O21 P3 1.518525 1_555
O21 V0 2.158092 1_555
O22 P0 1.518631 1_555
O22 V3 2.159918 1_555
O23 P1 1.518522 1_555
O23 V1 2.159077 1_555
O24 P4 1.637193 1_555
O24 P2 1.643489 1_555
O25 P5 1.637155 1_555
O25 P3 1.643499 1_555
O26 P6 1.637205 1_555
O26 P0 1.643456 1_555
O27 P7 1.637142 1_555
O27 P1 1.643472 1_555
