# generated using pymatgen
data_KB5(H2O3)4
_symmetry_space_group_name_H-M   'P 1'
_cell_length_a   7.43762618
_cell_length_b   7.43762618
_cell_length_c   10.80177600
_cell_angle_alpha   90.00000000
_cell_angle_beta   90.00000000
_cell_angle_gamma   94.34082198
_symmetry_Int_Tables_number   1
_chemical_formula_structural   KB5(H2O3)4
_chemical_formula_sum   'K2 B10 H16 O24'
_cell_volume   595.82164838
_cell_formula_units_Z   2
loop_
 _symmetry_equiv_pos_site_id
 _symmetry_equiv_pos_as_xyz
  1  'x, y, z'
loop_
 _atom_site_type_symbol
 _atom_site_label
 _atom_site_symmetry_multiplicity
 _atom_site_fract_x
 _atom_site_fract_y
 _atom_site_fract_z
 _atom_site_occupancy
  K  K0  1  0.57958200  0.57958200  0.50000000  1
  K  K1  1  0.07958200  0.07958200  0.00000000  1
  B  B0  1  0.91322300  0.91322300  0.50000000  1
  B  B1  1  0.41322300  0.41322300  0.00000000  1
  B  B2  1  0.92530500  0.74277600  0.69973300  1
  B  B3  1  0.74277600  0.92530500  0.30026700  1
  B  B4  1  0.42530500  0.24277600  0.80026700  1
  B  B5  1  0.24277600  0.42530500  0.19973300  1
  B  B6  1  0.92961000  0.06656300  0.70780700  1
  B  B7  1  0.06656300  0.92961000  0.29219300  1
  B  B8  1  0.42961000  0.56656300  0.79219300  1
  B  B9  1  0.56656300  0.42961000  0.20780700  1
  H  H0  1  0.27294100  0.02317300  0.47350100  1
  H  H1  1  0.02317300  0.27294100  0.52649900  1
  H  H2  1  0.77294100  0.52317300  0.02649900  1
  H  H3  1  0.52317300  0.77294100  0.97350100  1
  H  H4  1  0.43574000  0.15986900  0.43440200  1
  H  H5  1  0.15986900  0.43574000  0.56559800  1
  H  H6  1  0.93574000  0.65986900  0.06559800  1
  H  H7  1  0.65986900  0.93574000  0.93440200  1
  H  H8  1  0.42525100  0.09276600  0.64602800  1
  H  H9  1  0.09276600  0.42525100  0.35397200  1
  H  H10  1  0.92525100  0.59276600  0.85397200  1
  H  H11  1  0.59276600  0.92525100  0.14602800  1
  H  H12  1  0.92960400  0.33592800  0.75067100  1
  H  H13  1  0.33592800  0.92960400  0.24932900  1
  H  H14  1  0.42960400  0.83592800  0.74932900  1
  H  H15  1  0.83592800  0.42960400  0.25067100  1
  O  O0  1  0.90860400  0.74804300  0.57479200  1
  O  O1  1  0.74804300  0.90860400  0.42520800  1
  O  O2  1  0.40860400  0.24804300  0.92520800  1
  O  O3  1  0.24804300  0.40860400  0.07479200  1
  O  O4  1  0.92483300  0.07628600  0.58181300  1
  O  O5  1  0.07628600  0.92483300  0.41818700  1
  O  O6  1  0.42483300  0.57628600  0.91818700  1
  O  O7  1  0.57628600  0.42483300  0.08181300  1
  O  O8  1  0.93392300  0.90224300  0.77037400  1
  O  O9  1  0.90224300  0.93392300  0.22962600  1
  O  O10  1  0.43392300  0.40224300  0.72962600  1
  O  O11  1  0.40224300  0.43392300  0.27037400  1
  O  O12  1  0.92788700  0.58097100  0.76073400  1
  O  O13  1  0.58097100  0.92788700  0.23926600  1
  O  O14  1  0.42788700  0.08097100  0.73926600  1
  O  O15  1  0.08097100  0.42788700  0.26073400  1
  O  O16  1  0.93425900  0.21312900  0.78515900  1
  O  O17  1  0.21312900  0.93425900  0.21484100  1
  O  O18  1  0.43425900  0.71312900  0.71484100  1
  O  O19  1  0.71312900  0.43425900  0.28515900  1
  O  O20  1  0.39327400  0.07811500  0.49998900  1
  O  O21  1  0.07811500  0.39327400  0.50001100  1
  O  O22  1  0.89327400  0.57811500  0.00001100  1
  O  O23  1  0.57811500  0.89327400  0.99998900  1
loop_
_geom_bond_atom_site_label_1
_geom_bond_atom_site_label_2
_geom_bond_distance
_geom_bond_site_symmetry_2
K0 O18 2.775400 1_555
K0 O19 2.775400 1_555
K0 O0 2.783329 1_555
K0 O1 2.783329 1_555
K0 O11 2.974776 1_555
K0 O10 2.974776 1_555
K1 O17 2.775400 1_545
K1 O16 2.775400 1_454
K1 O3 2.783329 1_555
K1 O2 2.783329 1_554
K1 O8 2.974776 1_444
K1 O9 2.974776 1_445
B0 O0 1.468605 1_555
B0 O1 1.468605 1_555
B0 O4 1.497819 1_565
B0 O5 1.497819 1_655
B1 O3 1.468605 1_555
B1 O2 1.468605 1_554
B1 O7 1.497819 1_555
B1 O6 1.497819 1_554
B2 O0 1.356127 1_555
B2 O12 1.373434 1_555
B2 O8 1.407683 1_555
B3 O1 1.356127 1_555
B3 O13 1.373434 1_555
B3 O9 1.407683 1_555
B4 O2 1.356127 1_555
B4 O14 1.373434 1_555
B4 O10 1.407683 1_555
B5 O3 1.356127 1_555
B5 O15 1.373434 1_555
B5 O11 1.407683 1_555
B6 O4 1.363485 1_555
B6 O16 1.371838 1_555
B6 O8 1.399060 1_545
B7 O5 1.363485 1_555
B7 O17 1.371838 1_555
B7 O9 1.399060 1_455
B8 O6 1.363485 1_555
B8 O18 1.371838 1_555
B8 O10 1.399060 1_555
B9 O7 1.363485 1_555
B9 O19 1.371838 1_555
B9 O11 1.399060 1_555
H0 O20 0.997244 1_555
H0 O5 1.693916 1_545
H1 O21 0.997244 1_555
H1 O4 1.693916 1_455
H2 O22 0.997244 1_555
H2 O7 1.693916 1_555
H3 O23 0.997244 1_555
H3 O6 1.693916 1_555
H4 O20 0.970736 1_555
H5 O21 0.970736 1_555
H6 O22 0.970736 1_555
H7 O23 0.970736 1_555
H8 O14 1.011268 1_555
H8 O20 1.597799 1_555
H9 O15 1.011268 1_555
H9 O21 1.597799 1_555
H10 O12 1.011268 1_555
H10 O22 1.597799 1_556
H11 O13 1.011268 1_555
H11 O23 1.597799 1_554
H12 O16 0.989415 1_555
H13 O17 0.989415 1_555
H14 O18 0.989415 1_555
H15 O19 0.989415 1_555
