# generated using pymatgen
data_TmB2Os
_symmetry_space_group_name_H-M   'P 1'
_cell_length_a   5.84186400
_cell_length_b   5.27989500
_cell_length_c   6.32758100
_cell_angle_alpha   90.00000000
_cell_angle_beta   90.00000000
_cell_angle_gamma   90.00000000
_symmetry_Int_Tables_number   1
_chemical_formula_structural   TmB2Os
_chemical_formula_sum   'Tm4 B8 Os4'
_cell_volume   195.17061989
_cell_formula_units_Z   4
loop_
 _symmetry_equiv_pos_site_id
 _symmetry_equiv_pos_as_xyz
  1  'x, y, z'
loop_
 _atom_site_type_symbol
 _atom_site_label
 _atom_site_symmetry_multiplicity
 _atom_site_fract_x
 _atom_site_fract_y
 _atom_site_fract_z
 _atom_site_occupancy
  Tm  Tm0  1  0.01063700  0.25000000  0.33422400  1
  Tm  Tm1  1  0.51063700  0.25000000  0.16577600  1
  Tm  Tm2  1  0.98936300  0.75000000  0.66577600  1
  Tm  Tm3  1  0.48936300  0.75000000  0.83422400  1
  B  B0  1  0.36145200  0.08143600  0.53794500  1
  B  B1  1  0.86145200  0.41856400  0.96205500  1
  B  B2  1  0.63854800  0.58143600  0.46205500  1
  B  B3  1  0.13854800  0.91856400  0.03794500  1
  B  B4  1  0.63854800  0.91856400  0.46205500  1
  B  B5  1  0.13854800  0.58143600  0.03794500  1
  B  B6  1  0.36145200  0.41856400  0.53794500  1
  B  B7  1  0.86145200  0.08143600  0.96205500  1
  Os  Os0  1  0.17684800  0.25000000  0.81771100  1
  Os  Os1  1  0.67684800  0.25000000  0.68228900  1
  Os  Os2  1  0.82315200  0.75000000  0.18228900  1
  Os  Os3  1  0.32315200  0.75000000  0.31771100  1
loop_
_geom_bond_atom_site_label_1
_geom_bond_atom_site_label_2
_geom_bond_distance
_geom_bond_site_symmetry_2
B0 B6 1.780000 1_555
B0 B4 1.894855 1_545
B0 Os1 2.240784 1_555
B0 Os3 2.248189 1_545
B0 Os0 2.255853 1_555
B0 Tm0 2.579511 1_555
B0 Tm1 2.664083 1_555
B0 Tm3 2.671197 1_545
B0 Tm2 2.905428 1_445
B1 B7 1.780000 1_555
B1 B5 1.894855 1_656
B1 Os0 2.240784 1_655
B1 Os2 2.248189 1_556
B1 Os1 2.255853 1_555
B1 Tm1 2.579511 1_556
B1 Tm0 2.664083 1_656
B1 Tm2 2.671197 1_555
B1 Tm3 2.905428 1_555
B2 B4 1.780000 1_555
B2 B6 1.894855 1_555
B2 Os3 2.240784 1_555
B2 Os1 2.248189 1_555
B2 Os2 2.255853 1_555
B2 Tm2 2.579511 1_555
B2 Tm3 2.664083 1_555
B2 Tm1 2.671197 1_555
B2 Tm0 2.905428 1_655
B3 B5 1.780000 1_555
B3 B7 1.894855 1_464
B3 Os2 2.240784 1_455
B3 Os0 2.248189 1_564
B3 Os3 2.255853 1_555
B3 Tm3 2.579511 1_554
B3 Tm2 2.664083 1_454
B3 Tm0 2.671197 1_565
B3 Tm1 2.905428 1_565
B4 Os3 2.240784 1_555
B4 Os1 2.248189 1_565
B4 Os2 2.255853 1_555
B4 Tm2 2.579511 1_555
B4 Tm3 2.664083 1_555
B4 Tm1 2.671197 1_565
B4 Tm0 2.905428 1_665
B5 Os2 2.240784 1_455
B5 Os0 2.248189 1_554
B5 Os3 2.255853 1_555
B5 Tm3 2.579511 1_554
B5 Tm2 2.664083 1_454
B5 Tm0 2.671197 1_555
B5 Tm1 2.905428 1_555
B6 Os1 2.240784 1_555
B6 Os3 2.248189 1_555
B6 Os0 2.255853 1_555
B6 Tm0 2.579511 1_555
B6 Tm1 2.664083 1_555
B6 Tm3 2.671197 1_555
B6 Tm2 2.905428 1_455
B7 Os0 2.240784 1_655
B7 Os2 2.248189 1_546
B7 Os1 2.255853 1_555
B7 Tm1 2.579511 1_556
B7 Tm0 2.664083 1_656
B7 Tm2 2.671197 1_545
B7 Tm3 2.905428 1_545
Os0 Tm1 2.941583 1_556
Os1 Tm0 2.941583 1_655
Os2 Tm3 2.941583 1_554
Os3 Tm2 2.941583 1_455
