# generated using pymatgen
data_Er2CrSbO7
_symmetry_space_group_name_H-M   'P 1'
_cell_length_a   7.23299080
_cell_length_b   7.23299080
_cell_length_c   7.23299080
_cell_angle_alpha   120.17257105
_cell_angle_beta   119.44569718
_cell_angle_gamma   90.33205457
_symmetry_Int_Tables_number   1
_chemical_formula_structural   Er2CrSbO7
_chemical_formula_sum   'Er4 Cr2 Sb2 O14'
_cell_volume   268.32445890
_cell_formula_units_Z   2
loop_
 _symmetry_equiv_pos_site_id
 _symmetry_equiv_pos_as_xyz
  1  'x, y, z'
loop_
 _atom_site_type_symbol
 _atom_site_label
 _atom_site_symmetry_multiplicity
 _atom_site_fract_x
 _atom_site_fract_y
 _atom_site_fract_z
 _atom_site_occupancy
  Er  Er0  1  0.50000000  0.00000000  0.00000000  1
  Er  Er1  1  0.50000000  0.50000000  0.50000000  1
  Er  Er2  1  0.50000000  0.00000000  0.50000000  1
  Er  Er3  1  0.00000000  0.00000000  0.00000000  1
  Cr  Cr0  1  0.00000000  0.50000000  0.00000000  1
  Cr  Cr1  1  0.00000000  0.00000000  0.50000000  1
  Sb  Sb0  1  0.00000000  0.50000000  0.50000000  1
  Sb  Sb1  1  0.50000000  0.50000000  0.00000000  1
  O  O0  1  0.62215100  0.87215100  0.75000000  1
  O  O1  1  0.37784900  0.12784900  0.25000000  1
  O  O2  1  0.90768300  0.15768300  0.75000000  1
  O  O3  1  0.33386400  0.58386400  0.75000000  1
  O  O4  1  0.91040500  0.58112600  0.74348400  1
  O  O5  1  0.33764200  0.16692100  0.75651600  1
  O  O6  1  0.91040500  0.16692100  0.32927900  1
  O  O7  1  0.33764200  0.58112600  0.17072100  1
  O  O8  1  0.09231700  0.84231700  0.25000000  1
  O  O9  1  0.66613600  0.41613600  0.25000000  1
  O  O10  1  0.08959500  0.41887400  0.25651600  1
  O  O11  1  0.66235800  0.83307900  0.24348400  1
  O  O12  1  0.08959500  0.83307900  0.67072100  1
  O  O13  1  0.66235800  0.41887400  0.82927900  1
loop_
_geom_bond_atom_site_label_1
_geom_bond_atom_site_label_2
_geom_bond_distance
_geom_bond_site_symmetry_2
Er0 O1 2.192002 1_555
Er0 O0 2.192002 1_544
Er0 O11 2.461433 1_545
Er0 O5 2.461433 1_554
Er0 O12 2.461433 1_544
Er0 O6 2.461433 1_555
Er0 O3 2.474662 1_544
Er0 O9 2.474662 1_555
Er1 O0 2.192002 1_555
Er1 O1 2.192002 1_555
Er1 O4 2.461433 1_555
Er1 O13 2.461433 1_555
Er1 O7 2.461433 1_555
Er1 O10 2.461433 1_555
Er1 O9 2.474662 1_555
Er1 O3 2.474662 1_555
Er2 O0 2.241661 1_545
Er2 O1 2.241661 1_555
Er2 O2 2.431295 1_555
Er2 O8 2.431295 1_545
Er2 O5 2.487180 1_555
Er2 O7 2.487180 1_545
Er2 O11 2.487180 1_545
Er2 O13 2.487180 1_555
Er3 O0 2.241661 1_444
Er3 O1 2.241661 1_555
Er3 O2 2.431295 1_454
Er3 O8 2.431295 1_545
Er3 O10 2.487180 1_555
Er3 O6 2.487180 1_455
Er3 O12 2.487180 1_544
Er3 O4 2.487180 1_444
Cr0 O4 2.030598 1_454
Cr0 O10 2.030598 1_555
Cr0 O13 2.030598 1_454
Cr0 O7 2.030598 1_555
Cr0 O2 2.034520 1_454
Cr0 O8 2.034520 1_555
Cr1 O6 2.030598 1_455
Cr1 O5 2.030598 1_555
Cr1 O12 2.030598 1_545
Cr1 O11 2.030598 1_445
Cr1 O2 2.034520 1_455
Cr1 O8 2.034520 1_545
O3 Sb0 2.014034 1_555
O3 Sb1 2.014034 1_556
O4 Sb0 1.988348 1_655
O5 Sb1 1.988348 1_556
O6 Sb0 1.988348 1_655
O7 Sb1 1.988348 1_555
O9 Sb1 2.014034 1_555
O9 Sb0 2.014034 1_655
O10 Sb0 1.988348 1_555
O11 Sb1 1.988348 1_555
O12 Sb0 1.988348 1_555
O13 Sb1 1.988348 1_556
