# generated using pymatgen
data_Mg2Mn3CrS8
_symmetry_space_group_name_H-M   'P 1'
_cell_length_a   7.28006363
_cell_length_b   7.27847870
_cell_length_c   7.27933106
_cell_angle_alpha   59.98355274
_cell_angle_beta   59.99209715
_cell_angle_gamma   59.98519247
_symmetry_Int_Tables_number   1
_chemical_formula_structural   Mg2Mn3CrS8
_chemical_formula_sum   'Mg2 Mn3 Cr1 S8'
_cell_volume   272.66142890
_cell_formula_units_Z   1
loop_
 _symmetry_equiv_pos_site_id
 _symmetry_equiv_pos_as_xyz
  1  'x, y, z'
loop_
 _atom_site_type_symbol
 _atom_site_label
 _atom_site_symmetry_multiplicity
 _atom_site_fract_x
 _atom_site_fract_y
 _atom_site_fract_z
 _atom_site_occupancy
  Mg  Mg0  1  0.87431100  0.87703900  0.87430300  1
  Mg  Mg1  1  0.12572500  0.12291600  0.12573000  1
  Mn  Mn0  1  0.50007600  0.50013300  0.49978000  1
  Mn  Mn1  1  0.49998900  0.49997200  0.99998200  1
  Mn  Mn2  1  0.00000800  0.49997300  0.50003100  1
  Cr  Cr0  1  0.49988500  0.00005600  0.50005900  1
  S  S0  1  0.73501300  0.74356400  0.73490900  1
  S  S1  1  0.26506100  0.25642600  0.71346500  1
  S  S2  1  0.26239100  0.71261200  0.26256100  1
  S  S3  1  0.71346700  0.25638700  0.26514600  1
  S  S4  1  0.73759600  0.28737400  0.73745600  1
  S  S5  1  0.28654000  0.74357000  0.73487700  1
  S  S6  1  0.26497400  0.25640500  0.26514100  1
  S  S7  1  0.73496600  0.74356800  0.28656100  1
loop_
_geom_bond_atom_site_label_1
_geom_bond_atom_site_label_2
_geom_bond_distance
_geom_bond_site_symmetry_2
Mg0 S4 2.438033 1_565
Mg0 S7 2.450049 1_556
Mg0 S0 2.450091 1_555
Mg0 S5 2.450163 1_655
Mg1 S2 2.437849 1_545
Mg1 S6 2.449982 1_555
Mg1 S1 2.450088 1_554
Mg1 S3 2.450336 1_455
Mn0 S2 2.450980 1_555
Mn0 S4 2.452406 1_555
Mn0 S7 2.469334 1_555
Mn0 S3 2.469481 1_555
Mn0 S5 2.470198 1_555
Mn0 S1 2.471229 1_555
Mn1 S4 2.452104 1_555
Mn1 S2 2.452595 1_556
Mn1 S5 2.470261 1_555
Mn1 S6 2.470515 1_556
Mn1 S0 2.470634 1_555
Mn1 S3 2.470715 1_556
Mn2 S4 2.451579 1_455
Mn2 S2 2.451617 1_555
Mn2 S6 2.469778 1_555
Mn2 S0 2.469849 1_455
Mn2 S1 2.469951 1_555
Mn2 S7 2.470070 1_455
Cr0 S1 2.422823 1_555
Cr0 S6 2.422986 1_555
Cr0 S5 2.423190 1_545
Cr0 S3 2.423519 1_555
Cr0 S0 2.423784 1_545
Cr0 S7 2.423907 1_545
