# generated using pymatgen
data_Mg5Si6
_symmetry_space_group_name_H-M   'P 1'
_cell_length_a   15.41585900
_cell_length_b   15.41585900
_cell_length_c   6.82448106
_cell_angle_alpha   79.83696291
_cell_angle_beta   79.83696291
_cell_angle_gamma   14.66950230
_symmetry_Int_Tables_number   1
_chemical_formula_structural   Mg5Si6
_chemical_formula_sum   'Mg10 Si12'
_cell_volume   404.16501147
_cell_formula_units_Z   2
loop_
 _symmetry_equiv_pos_site_id
 _symmetry_equiv_pos_as_xyz
  1  'x, y, z'
loop_
 _atom_site_type_symbol
 _atom_site_label
 _atom_site_symmetry_multiplicity
 _atom_site_fract_x
 _atom_site_fract_y
 _atom_site_fract_z
 _atom_site_occupancy
  Mg  Mg0  1  0.24778100  0.24778100  0.14051600  1
  Mg  Mg1  1  0.50880600  0.50880600  0.97801600  1
  Mg  Mg2  1  0.93105200  0.93105200  0.84420800  1
  Mg  Mg3  1  0.08515300  0.08515300  0.10054800  1
  Mg  Mg4  1  0.67708800  0.67708800  0.00100000  1
  Mg  Mg5  1  0.34803900  0.34803900  0.94290700  1
  Mg  Mg6  1  0.97007200  0.97007200  0.32618200  1
  Mg  Mg7  1  0.04608800  0.04608800  0.63912300  1
  Mg  Mg8  1  0.72060300  0.72060300  0.48380000  1
  Mg  Mg9  1  0.30922100  0.30922100  0.50293500  1
  Si  Si0  1  0.80308600  0.80308600  0.20621800  1
  Si  Si1  1  0.23067800  0.23067800  0.76114800  1
  Si  Si2  1  0.53719000  0.53719000  0.33416800  1
  Si  Si3  1  0.47973500  0.47973500  0.61770400  1
  Si  Si4  1  0.77993900  0.77993900  0.84537100  1
  Si  Si5  1  0.15959100  0.15959100  0.33331100  1
  Si  Si6  1  0.60398600  0.60398600  0.78647000  1
  Si  Si7  1  0.41898900  0.41898900  0.15427500  1
  Si  Si8  1  0.87548700  0.87548700  0.34006300  1
  Si  Si9  1  0.15473500  0.15473500  0.70392500  1
  Si  Si10  1  0.61073500  0.61073500  0.41671400  1
  Si  Si11  1  0.40110600  0.40110600  0.54139700  1
loop_
_geom_bond_atom_site_label_1
_geom_bond_atom_site_label_2
_geom_bond_distance
_geom_bond_site_symmetry_2
Mg0 Si0 2.684093 1_455
Mg0 Si0 2.684093 1_545
Mg0 Si1 2.730967 1_554
Mg0 Si5 2.782329 1_555
Mg0 Si4 2.862283 1_544
Mg0 Si4 2.862283 1_454
Mg1 Si2 2.722423 1_556
Mg1 Si3 2.759430 1_555
Mg1 Si7 2.795523 1_556
Mg1 Si6 2.970914 1_555
Mg2 Si3 2.767707 1_565
Mg2 Si3 2.767707 1_655
Mg2 Si7 2.865195 1_566
Mg2 Si7 2.865195 1_656
Mg2 Si11 3.107376 1_655
Mg2 Si11 3.107376 1_565
Mg3 Si2 2.781077 1_545
Mg3 Si2 2.781077 1_455
Mg3 Si6 2.891375 1_544
Mg3 Si6 2.891375 1_454
Mg3 Si5 2.998542 1_555
Mg3 Si10 3.121127 1_545
Mg3 Si10 3.121127 1_455
Mg3 Si9 3.131241 1_554
Mg4 Si1 2.878152 1_654
Mg4 Si1 2.878152 1_564
Mg4 Si6 2.881847 1_554
Mg4 Si5 2.978428 1_565
Mg4 Si5 2.978428 1_655
Mg4 Si9 2.990643 1_564
Mg4 Si9 2.990643 1_654
Mg4 Si4 3.135489 1_554
Mg4 Si10 3.180808 1_555
Mg5 Si7 2.810961 1_556
Mg5 Si0 2.848357 1_456
Mg5 Si0 2.848357 1_546
Mg5 Si11 2.925638 1_555
Mg5 Si4 3.024279 1_455
Mg5 Si4 3.024279 1_545
Mg6 Si3 2.850946 1_565
Mg6 Si3 2.850946 1_655
Mg6 Si2 2.851069 1_565
Mg6 Si2 2.851069 1_655
Mg6 Si8 2.877013 1_555
Mg6 Si7 2.888231 1_655
Mg6 Si7 2.888231 1_565
Mg6 Si11 3.062033 1_655
Mg6 Si11 3.062033 1_565
Mg7 Si3 2.849077 1_455
Mg7 Si3 2.849077 1_545
Mg7 Si2 2.912062 1_455
Mg7 Si2 2.912062 1_545
Mg7 Si6 2.941532 1_455
Mg7 Si6 2.941532 1_545
Mg7 Si10 3.002921 1_545
Mg7 Si10 3.002921 1_455
Mg8 Si1 2.785370 1_565
Mg8 Si1 2.785370 1_655
Mg8 Si0 2.872349 1_555
Mg8 Si5 3.015088 1_565
Mg8 Si5 3.015088 1_655
Mg8 Si9 3.018357 1_655
Mg8 Si9 3.018357 1_565
Mg9 Si1 2.714398 1_555
Mg9 Si0 2.853787 1_455
Mg9 Si0 2.853787 1_545
Mg9 Si11 2.868142 1_555
Mg9 Si8 2.900623 1_455
Mg9 Si8 2.900623 1_545
Mg9 Si4 3.064623 1_545
Mg9 Si4 3.064623 1_455
Si0 Si8 2.540789 1_555
Si0 Si4 2.680594 1_554
Si1 Si9 2.422444 1_555
Si1 Si4 2.604027 1_455
Si1 Si4 2.604027 1_545
Si2 Si3 2.370944 1_555
Si5 Si9 2.507092 1_555
Si6 Si9 2.507579 1_655
Si6 Si9 2.507579 1_565
Si7 Si8 2.578841 1_545
Si7 Si8 2.578841 1_455
Si10 Si2 2.413704 1_555
Si10 Si5 2.475229 1_655
Si10 Si5 2.475229 1_565
Si10 Si6 2.494956 1_555
Si11 Si3 2.549115 1_555
Si11 Si8 2.599609 1_545
Si11 Si8 2.599609 1_455
Si11 Si7 2.600897 1_555
