# generated using pymatgen
data_TiFe
_symmetry_space_group_name_H-M   'P 1'
_cell_length_a   5.41681824
_cell_length_b   5.41681824
_cell_length_c   7.68219758
_cell_angle_alpha   90.00000000
_cell_angle_beta   90.00000000
_cell_angle_gamma   108.87637729
_symmetry_Int_Tables_number   1
_chemical_formula_structural   TiFe
_chemical_formula_sum   'Ti8 Fe8'
_cell_volume   213.28758858
_cell_formula_units_Z   8
loop_
 _symmetry_equiv_pos_site_id
 _symmetry_equiv_pos_as_xyz
  1  'x, y, z'
loop_
 _atom_site_type_symbol
 _atom_site_label
 _atom_site_symmetry_multiplicity
 _atom_site_fract_x
 _atom_site_fract_y
 _atom_site_fract_z
 _atom_site_occupancy
  Ti  Ti0_0  1  0.00000000  0.00000000  0.00000000  1
  Ti  Ti0_1  1  0.00000000  0.00000000  0.50000000  1
  Ti  Ti0_2  1  0.00000000  0.50000000  0.00000000  1
  Ti  Ti0_3  1  0.00000000  0.50000000  0.50000000  1
  Ti  Ti0_4  1  0.50000000  0.00000000  0.00000000  1
  Ti  Ti0_5  1  0.50000000  0.00000000  0.50000000  1
  Ti  Ti0_6  1  0.50000000  0.50000000  0.00000000  1
  Ti  Ti0_7  1  0.50000000  0.50000000  0.50000000  1
  Fe  Fe0_0  1  0.25000000  0.25000000  0.25000000  1
  Fe  Fe0_1  1  0.25000000  0.25000000  0.75000000  1
  Fe  Fe0_2  1  0.25000000  0.75000000  0.25000000  1
  Fe  Fe0_3  1  0.25000000  0.75000000  0.75000000  1
  Fe  Fe0_4  1  0.75000000  0.25000000  0.25000000  1
  Fe  Fe0_5  1  0.75000000  0.25000000  0.75000000  1
  Fe  Fe0_6  1  0.75000000  0.75000000  0.25000000  1
  Fe  Fe0_7  1  0.75000000  0.75000000  0.75000000  1
loop_
_geom_bond_atom_site_label_1
_geom_bond_atom_site_label_2
_geom_bond_distance
_geom_bond_site_symmetry_2
Ti0_0 Ti0_2 2.708409 1_545
Ti0_0 Ti0_4 2.708409 1_455
Ti0_0 Ti0_4 2.708409 1_555
Ti0_0 Ti0_2 2.708409 1_555
Ti0_1 Ti0_5 2.708409 1_455
Ti0_1 Ti0_3 2.708409 1_545
Ti0_1 Ti0_3 2.708409 1_555
Ti0_1 Ti0_5 2.708409 1_555
Ti0_2 Ti0_6 2.708409 1_555
Ti0_2 Ti0_6 2.708409 1_455
Ti0_3 Ti0_7 2.708409 1_555
Ti0_3 Ti0_7 2.708409 1_455
Ti0_4 Ti0_6 2.708409 1_545
Ti0_4 Ti0_6 2.708409 1_555
Ti0_5 Ti0_7 2.708409 1_545
Ti0_5 Ti0_7 2.708409 1_555
Fe0_0 Ti0_6 2.483875 1_555
Fe0_0 Ti0_7 2.483875 1_555
Fe0_0 Ti0_1 2.483875 1_555
Fe0_0 Ti0_0 2.483875 1_555
Fe0_0 Fe0_2 2.708409 1_545
Fe0_0 Fe0_2 2.708409 1_555
Fe0_0 Fe0_4 2.708409 1_455
Fe0_0 Fe0_4 2.708409 1_555
Fe0_1 Ti0_6 2.483875 1_556
Fe0_1 Ti0_0 2.483875 1_556
Fe0_1 Ti0_7 2.483875 1_555
Fe0_1 Ti0_1 2.483875 1_555
Fe0_1 Fe0_5 2.708409 1_555
Fe0_1 Fe0_5 2.708409 1_455
Fe0_1 Fe0_3 2.708409 1_545
Fe0_1 Fe0_3 2.708409 1_555
Fe0_2 Ti0_3 2.483875 1_555
Fe0_2 Ti0_2 2.483875 1_555
Fe0_2 Ti0_4 2.483875 1_565
Fe0_2 Ti0_5 2.483875 1_565
Fe0_2 Fe0_6 2.708409 1_455
Fe0_2 Fe0_6 2.708409 1_555
Fe0_3 Ti0_3 2.483875 1_555
Fe0_3 Ti0_2 2.483875 1_556
Fe0_3 Ti0_4 2.483875 1_566
Fe0_3 Ti0_5 2.483875 1_565
Fe0_3 Fe0_7 2.708409 1_555
Fe0_3 Fe0_7 2.708409 1_455
Fe0_4 Ti0_5 2.483875 1_555
Fe0_4 Ti0_4 2.483875 1_555
Fe0_4 Ti0_3 2.483875 1_655
Fe0_4 Ti0_2 2.483875 1_655
Fe0_4 Fe0_6 2.708409 1_545
Fe0_4 Fe0_6 2.708409 1_555
Fe0_5 Ti0_5 2.483875 1_555
Fe0_5 Ti0_3 2.483875 1_655
Fe0_5 Ti0_2 2.483875 1_656
Fe0_5 Ti0_4 2.483875 1_556
Fe0_5 Fe0_7 2.708409 1_545
Fe0_5 Fe0_7 2.708409 1_555
Fe0_6 Ti0_7 2.483875 1_555
Fe0_6 Ti0_0 2.483875 1_665
Fe0_6 Ti0_1 2.483875 1_665
Fe0_6 Ti0_6 2.483875 1_555
Fe0_7 Ti0_7 2.483875 1_555
Fe0_7 Ti0_6 2.483875 1_556
Fe0_7 Ti0_0 2.483875 1_666
Fe0_7 Ti0_1 2.483875 1_665
