# generated using pymatgen
data_Mg14MnC
_symmetry_space_group_name_H-M   'P 1'
_cell_length_a   6.22663371
_cell_length_b   6.22663322
_cell_length_c   9.80571137
_cell_angle_alpha   90.00000000
_cell_angle_beta   90.00000000
_cell_angle_gamma   120.00000255
_symmetry_Int_Tables_number   1
_chemical_formula_structural   Mg14MnC
_chemical_formula_sum   'Mg14 Mn1 C1'
_cell_volume   329.24283234
_cell_formula_units_Z   1
loop_
 _symmetry_equiv_pos_site_id
 _symmetry_equiv_pos_as_xyz
  1  'x, y, z'
loop_
 _atom_site_type_symbol
 _atom_site_label
 _atom_site_symmetry_multiplicity
 _atom_site_fract_x
 _atom_site_fract_y
 _atom_site_fract_z
 _atom_site_occupancy
  Mg  Mg0  1  0.17168964  0.83584432  0.12500000  1
  Mg  Mg1  1  0.16229617  0.83114758  0.62500000  1
  Mg  Mg2  1  0.66415568  0.32831036  0.12500000  1
  Mg  Mg3  1  0.66885242  0.33770383  0.62500000  1
  Mg  Mg4  1  0.66415568  0.83584432  0.12500000  1
  Mg  Mg5  1  0.66885242  0.83114758  0.62500000  1
  Mg  Mg6  1  0.32567863  0.17432137  0.38338815  1
  Mg  Mg7  1  0.32567863  0.17432137  0.86661185  1
  Mg  Mg8  1  0.32567863  0.65135825  0.38338815  1
  Mg  Mg9  1  0.32567863  0.65135825  0.86661185  1
  Mg  Mg10  1  0.84864175  0.17432137  0.38338815  1
  Mg  Mg11  1  0.84864175  0.17432137  0.86661185  1
  Mg  Mg12  1  0.83333300  0.66666700  0.37067805  1
  Mg  Mg13  1  0.83333300  0.66666700  0.87932195  1
  Mn  Mn0  1  0.16666700  0.33333300  0.12500000  1
  C  C0  1  0.16666700  0.33333300  0.62500000  1
loop_
_geom_bond_atom_site_label_1
_geom_bond_atom_site_label_2
_geom_bond_distance
_geom_bond_site_symmetry_2
Mg0 Mg12 3.022009 1_455
Mg0 Mg13 3.022009 1_454
Mg0 Mg2 3.066405 1_565
Mg0 Mg4 3.066406 1_555
Mg0 Mn0 3.113434 1_555
Mg0 Mn0 3.113434 1_565
Mg0 Mg8 3.124085 1_555
Mg0 Mg9 3.124085 1_554
Mg0 Mg6 3.124091 1_565
Mg0 Mg7 3.124091 1_564
Mg0 Mg2 3.160228 1_455
Mg0 Mg4 3.160228 1_455
Mg1 Mg13 3.060364 1_455
Mg1 Mg12 3.060364 1_455
Mg2 Mg4 3.066405 1_545
Mg2 Mn0 3.113435 1_555
Mg2 Mn0 3.113435 1_655
Mg2 Mg7 3.124091 1_554
Mg2 Mg6 3.124091 1_555
Mg2 Mg4 3.160228 1_555
Mg4 Mn0 3.113434 1_555
Mg4 Mn0 3.113434 1_665
Mg4 Mg9 3.124091 1_554
Mg4 Mg8 3.124091 1_555
Mg6 Mn0 3.059488 1_555
Mg7 Mn0 3.059488 1_556
Mg8 Mn0 3.059494 1_555
Mg9 Mn0 3.059494 1_556
Mg10 Mn0 3.059494 1_655
Mg10 Mg12 3.116904 1_545
Mg10 Mg12 3.116904 1_555
Mg10 Mg2 3.124085 1_555
Mg10 Mg4 3.124091 1_545
Mg11 Mn0 3.059494 1_656
Mg11 Mg13 3.116904 1_545
Mg11 Mg13 3.116904 1_555
Mg11 Mg2 3.124085 1_556
Mg11 Mg4 3.124091 1_546
Mg12 Mg4 3.022003 1_555
Mg12 Mg2 3.022009 1_555
Mg12 Mg5 3.060358 1_555
Mg12 Mg3 3.060364 1_555
Mg12 Mg6 3.116904 1_665
Mg12 Mg6 3.116904 1_555
Mg12 Mg8 3.116904 1_555
Mg12 Mg8 3.116904 1_655
Mg13 Mg4 3.022003 1_556
Mg13 Mg2 3.022009 1_556
Mg13 Mg5 3.060358 1_555
Mg13 Mg3 3.060364 1_555
Mg13 Mg7 3.116904 1_665
Mg13 Mg7 3.116904 1_555
Mg13 Mg9 3.116904 1_555
Mg13 Mg9 3.116904 1_655
