# generated using pymatgen
data_BaMg14TiO16
_symmetry_space_group_name_H-M   'P 1'
_cell_length_a   8.78314618
_cell_length_b   8.79193576
_cell_length_c   4.53147350
_cell_angle_alpha   90.00000000
_cell_angle_beta   90.00000000
_cell_angle_gamma   90.00000000
_symmetry_Int_Tables_number   1
_chemical_formula_structural   BaMg14TiO16
_chemical_formula_sum   'Ba1 Mg14 Ti1 O16'
_cell_volume   349.92426708
_cell_formula_units_Z   1
loop_
 _symmetry_equiv_pos_site_id
 _symmetry_equiv_pos_as_xyz
  1  'x, y, z'
loop_
 _atom_site_type_symbol
 _atom_site_label
 _atom_site_symmetry_multiplicity
 _atom_site_fract_x
 _atom_site_fract_y
 _atom_site_fract_z
 _atom_site_occupancy
  Ba  Ba0  1  0.00000000  0.50000000  -0.00000000  1
  Mg  Mg0  1  0.50000000  0.00000000  -0.00000000  1
  Mg  Mg1  1  0.50000000  0.50000000  -0.00000000  1
  Mg  Mg2  1  0.00000000  0.23877233  0.50000000  1
  Mg  Mg3  1  0.00000000  0.76122767  0.50000000  1
  Mg  Mg4  1  0.50000000  0.24813870  0.50000000  1
  Mg  Mg5  1  0.50000000  0.75186130  0.50000000  1
  Mg  Mg6  1  0.25304998  0.00000000  0.50000000  1
  Mg  Mg7  1  0.26446050  0.50000000  0.50000000  1
  Mg  Mg8  1  0.74695002  0.00000000  0.50000000  1
  Mg  Mg9  1  0.73553950  0.50000000  0.50000000  1
  Mg  Mg10  1  0.26241482  0.24417591  -0.00000000  1
  Mg  Mg11  1  0.26241482  0.75582409  0.00000000  1
  Mg  Mg12  1  0.73758518  0.24417591  -0.00000000  1
  Mg  Mg13  1  0.73758518  0.75582409  0.00000000  1
  Ti  Ti0  1  0.00000000  0.00000000  -0.00000000  1
  O  O0  1  0.25558390  -0.00000000  0.00000000  1
  O  O1  1  0.28092188  0.50000000  0.00000000  1
  O  O2  1  0.74441610  0.00000000  -0.00000000  1
  O  O3  1  0.71907812  0.50000000  -0.00000000  1
  O  O4  1  0.24932790  0.24997570  0.50000000  1
  O  O5  1  0.24932790  0.75002430  0.50000000  1
  O  O6  1  0.75067210  0.24997570  0.50000000  1
  O  O7  1  0.75067210  0.75002430  0.50000000  1
  O  O8  1  0.00000000  0.00000000  0.50000000  1
  O  O9  1  0.00000000  0.50000000  0.50000000  1
  O  O10  1  0.50000000  0.00000000  0.50000000  1
  O  O11  1  0.50000000  0.50000000  0.50000000  1
  O  O12  1  0.00000000  0.22139119  0.00000000  1
  O  O13  1  0.00000000  0.77860881  -0.00000000  1
  O  O14  1  0.50000000  0.24204598  0.00000000  1
  O  O15  1  0.50000000  0.75795402  -0.00000000  1
loop_
_geom_bond_atom_site_label_1
_geom_bond_atom_site_label_2
_geom_bond_distance
_geom_bond_site_symmetry_2
Ba0 O9 2.265737 1_554
Ba0 O9 2.265737 1_555
Ba0 O12 2.449511 1_555
Ba0 O13 2.449511 1_555
Ba0 O3 2.467378 1_455
Ba0 O1 2.467378 1_555
Mg0 O15 2.128053 1_545
Mg0 O14 2.128053 1_555
Mg0 O2 2.146742 1_555
Mg0 O0 2.146742 1_555
Mg0 O10 2.265737 1_555
Mg0 O10 2.265737 1_554
Mg1 O1 1.924195 1_555
Mg1 O3 1.924195 1_555
Mg1 O11 2.265737 1_554
Mg1 O11 2.265737 1_555
Mg1 O14 2.267915 1_555
Mg1 O15 2.267915 1_555
Mg2 O8 2.099271 1_555
Mg2 O4 2.192097 1_555
Mg2 O6 2.192097 1_455
Mg2 O12 2.270884 1_555
Mg2 O12 2.270884 1_556
Mg2 O9 2.296697 1_555
Mg3 O8 2.099271 1_565
Mg3 O5 2.192097 1_555
Mg3 O7 2.192097 1_455
Mg3 O13 2.270884 1_555
Mg3 O13 2.270884 1_556
Mg3 O9 2.296697 1_555
Mg4 O10 2.181620 1_555
Mg4 O6 2.201749 1_555
Mg4 O4 2.201749 1_555
Mg4 O11 2.214348 1_555
Mg4 O14 2.266370 1_556
Mg4 O14 2.266370 1_555
Mg5 O10 2.181620 1_565
Mg5 O7 2.201749 1_555
Mg5 O5 2.201749 1_555
Mg5 O11 2.214348 1_555
Mg5 O15 2.266370 1_556
Mg5 O15 2.266370 1_555
Mg6 O10 2.168998 1_555
Mg6 O5 2.198013 1_545
Mg6 O4 2.198013 1_555
Mg6 O8 2.222575 1_555
Mg6 O0 2.265846 1_555
Mg6 O0 2.265846 1_556
Mg7 O11 2.068778 1_555
Mg7 O4 2.202212 1_555
Mg7 O5 2.202212 1_555
Mg7 O1 2.270345 1_556
Mg7 O1 2.270345 1_555
Mg7 O9 2.322795 1_555
Mg8 O10 2.168998 1_555
Mg8 O7 2.198013 1_545
Mg8 O6 2.198013 1_555
Mg8 O8 2.222575 1_655
Mg8 O2 2.265846 1_556
Mg8 O2 2.265846 1_555
Mg9 O11 2.068778 1_555
Mg9 O6 2.202212 1_555
Mg9 O7 2.202212 1_555
Mg9 O3 2.270345 1_556
Mg9 O3 2.270345 1_555
Mg9 O9 2.322795 1_655
Mg10 O14 2.086829 1_555
Mg10 O0 2.147617 1_555
Mg10 O1 2.255055 1_555
Mg10 O4 2.269224 1_554
Mg10 O4 2.269224 1_555
Mg10 O12 2.313517 1_555
Mg11 O15 2.086829 1_555
Mg11 O0 2.147617 1_565
Mg11 O1 2.255055 1_555
Mg11 O5 2.269224 1_555
Mg11 O5 2.269224 1_554
Mg11 O13 2.313517 1_555
Mg12 O14 2.086829 1_555
Mg12 O2 2.147617 1_555
Mg12 O3 2.255055 1_555
Mg12 O6 2.269224 1_555
Mg12 O6 2.269224 1_554
Mg12 O12 2.313517 1_655
Mg13 O15 2.086829 1_555
Mg13 O2 2.147617 1_565
Mg13 O3 2.255055 1_555
Mg13 O7 2.269224 1_555
Mg13 O7 2.269224 1_554
Mg13 O13 2.313517 1_655
O0 Ti0 2.244831 1_555
O2 Ti0 2.244831 1_655
O8 Ti0 2.265737 1_555
O8 Ti0 2.265737 1_556
O12 Ti0 1.946457 1_555
O13 Ti0 1.946457 1_565
