# generated using pymatgen
data_Li7Mn5O12
_symmetry_space_group_name_H-M   'P 1'
_cell_length_a   5.80004131
_cell_length_b   6.03322164
_cell_length_c   14.48780854
_cell_angle_alpha   94.29428536
_cell_angle_beta   90.37719580
_cell_angle_gamma   118.75169498
_symmetry_Int_Tables_number   1
_chemical_formula_structural   Li7Mn5O12
_chemical_formula_sum   'Li14 Mn10 O24'
_cell_volume   442.69344965
_cell_formula_units_Z   2
loop_
 _symmetry_equiv_pos_site_id
 _symmetry_equiv_pos_as_xyz
  1  'x, y, z'
loop_
 _atom_site_type_symbol
 _atom_site_label
 _atom_site_symmetry_multiplicity
 _atom_site_fract_x
 _atom_site_fract_y
 _atom_site_fract_z
 _atom_site_occupancy
  Li  Li0  1  0.64807700  0.30090300  0.17515700  1
  Li  Li1  1  0.14756700  0.30025600  0.67511200  1
  Li  Li2  1  0.17463700  0.83491200  0.16549100  1
  Li  Li3  1  0.67357000  0.83452600  0.66566000  1
  Li  Li4  1  0.66694600  0.84145000  0.16550100  1
  Li  Li5  1  0.16652600  0.84094800  0.66560100  1
  Li  Li6  1  0.34104400  0.17885200  0.33120500  1
  Li  Li7  1  0.84007100  0.17785500  0.83118400  1
  Li  Li8  1  0.99558100  0.49330400  0.00159800  1
  Li  Li9  1  0.49561300  0.49358200  0.50160200  1
  Li  Li10  1  0.85216800  0.70252500  0.31806000  1
  Li  Li11  1  0.35014300  0.70005200  0.81867300  1
  Li  Li12  1  0.51259000  0.01394200  0.99541000  1
  Li  Li13  1  0.01256500  0.01412700  0.49540900  1
  Mn  Mn0  1  0.16709900  0.33224000  0.16768400  1
  Mn  Mn1  1  0.49163100  0.98776900  0.50253200  1
  Mn  Mn2  1  0.84152700  0.67730600  0.82974500  1
  Mn  Mn3  1  0.49741400  0.49705300  0.00317100  1
  Mn  Mn4  1  0.82995100  0.16619800  0.33230800  1
  Mn  Mn5  1  0.66667500  0.33198100  0.66770000  1
  Mn  Mn6  1  0.99153200  0.98762100  0.00252500  1
  Mn  Mn7  1  0.34187400  0.67777600  0.32982000  1
  Mn  Mn8  1  0.99751500  0.49724700  0.50314400  1
  Mn  Mn9  1  0.32960500  0.16566000  0.83231700  1
  O  O0  1  0.01139700  0.04540800  0.24642700  1
  O  O1  1  0.51087200  0.04496000  0.74636100  1
  O  O2  1  0.32045300  0.61475300  0.09019200  1
  O  O3  1  0.82020300  0.61466300  0.59024600  1
  O  O4  1  0.64627300  0.82706000  0.41916900  1
  O  O5  1  0.14602800  0.82660400  0.91914600  1
  O  O6  1  0.18517900  0.83583500  0.41728900  1
  O  O7  1  0.68504600  0.83553700  0.91733600  1
  O  O8  1  0.48067300  0.49843600  0.25021600  1
  O  O9  1  0.98016800  0.49788000  0.75024100  1
  O  O10  1  0.85587500  0.16353800  0.08226800  1
  O  O11  1  0.35558500  0.16351600  0.58225700  1
  O  O12  1  0.14024500  0.33103900  0.41871800  1
  O  O13  1  0.63995200  0.33051700  0.91872400  1
  O  O14  1  0.66271000  0.29183000  0.42811700  1
  O  O15  1  0.16261500  0.29169700  0.92804900  1
  O  O16  1  0.30278800  0.15054900  0.08754400  1
  O  O17  1  0.80262900  0.15053000  0.58756600  1
  O  O18  1  0.02497800  0.51105400  0.24595300  1
  O  O19  1  0.52442800  0.51053600  0.74601200  1
  O  O20  1  0.83679400  0.69540500  0.07058800  1
  O  O21  1  0.33674400  0.69560900  0.57060100  1
  O  O22  1  0.51847200  0.01272400  0.25516800  1
  O  O23  1  0.01797300  0.01223600  0.75520500  1
loop_
_geom_bond_atom_site_label_1
_geom_bond_atom_site_label_2
_geom_bond_distance
_geom_bond_site_symmetry_2
Li0 O22 1.996907 1_555
Li0 O8 2.116267 1_555
Li0 O16 2.119246 1_555
Li0 O18 2.132521 1_655
Li0 O10 2.183058 1_555
Li1 O23 1.996976 1_555
Li1 O9 2.117136 1_455
Li1 O17 2.117478 1_455
Li1 O19 2.133049 1_555
Li1 O11 2.181452 1_555
Li2 O16 2.103699 1_565
Li2 O22 2.124827 1_565
Li2 O2 2.132024 1_555
Li2 O20 2.154785 1_455
Li2 O18 2.157060 1_555
Li2 O0 2.198308 1_565
Li3 O17 2.106299 1_565
Li3 O23 2.126019 1_665
Li3 O3 2.134737 1_555
Li3 O21 2.152259 1_555
Li3 O19 2.156778 1_555
Li3 O1 2.194114 1_565
Li4 O22 2.041260 1_565
Li4 O2 2.050172 1_555
Li4 O0 2.065962 1_665
Li4 O20 2.075847 1_555
Li4 O10 2.179635 1_565
Li4 O8 2.281058 1_555
Li5 O23 2.041074 1_565
Li5 O3 2.049457 1_455
Li5 O1 2.064337 1_565
Li5 O21 2.075546 1_555
Li5 O11 2.182697 1_565
Li5 O9 2.280651 1_455
Li6 O22 2.029532 1_555
Li6 O0 2.037770 1_555
Li6 O14 2.124966 1_555
Li6 O8 2.144618 1_555
Li6 O12 2.163513 1_555
Li6 O6 2.292825 1_545
Li7 O23 2.029023 1_655
Li7 O1 2.036544 1_555
Li7 O15 2.127417 1_655
Li7 O9 2.146087 1_555
Li7 O13 2.162623 1_555
Li7 O7 2.290432 1_545
Li8 O2 2.057645 1_655
Li8 O20 2.060068 1_555
Li8 O13 2.121948 1_554
Li8 O15 2.122883 1_654
Li8 O10 2.188746 1_555
Li8 O5 2.217517 1_654
Li9 O3 2.057154 1_555
Li9 O21 2.060132 1_555
Li9 O12 2.120965 1_555
Li9 O14 2.123384 1_555
Li9 O11 2.189892 1_555
Li9 O4 2.218115 1_555
Li10 O8 2.088883 1_555
Li10 O18 2.092214 1_655
Li10 O0 2.169240 1_665
Li10 O6 2.177157 1_655
Li10 O4 2.204044 1_555
Li11 O9 2.085264 1_455
Li11 O19 2.093570 1_555
Li11 O7 2.178408 1_555
Li11 O1 2.184008 1_565
Li11 O5 2.197549 1_555
Li12 O7 2.075283 1_545
Li12 O13 2.097444 1_555
Li12 O10 2.104897 1_556
Li12 O5 2.118669 1_545
Li12 O16 2.182482 1_556
Li13 O6 2.075812 1_545
Li13 O12 2.098924 1_555
Li13 O11 2.103774 1_555
Li13 O4 2.117320 1_445
Li13 O17 2.182517 1_455
Mn0 O8 1.944314 1_555
Mn0 O2 1.948847 1_555
Mn0 O18 1.952895 1_555
Mn0 O16 1.954584 1_555
Mn0 O10 1.959647 1_455
Mn0 O0 1.979260 1_555
Mn1 O21 1.906615 1_555
Mn1 O11 1.927310 1_565
Mn1 O6 1.938775 1_555
Mn1 O17 1.954797 1_565
Mn1 O4 1.969461 1_555
Mn1 O14 2.017744 1_565
Mn2 O9 1.951430 1_555
Mn2 O5 1.967960 1_655
Mn2 O19 1.968293 1_555
Mn2 O7 2.003175 1_555
Mn2 O23 2.156089 1_665
Mn2 O13 2.340242 1_555
Mn3 O2 1.931663 1_555
Mn3 O20 1.947879 1_555
Mn3 O13 1.954013 1_554
Mn3 O15 1.986460 1_554
Mn3 O7 2.271841 1_554
Mn3 O16 2.295522 1_555
Mn4 O22 1.891906 1_555
Mn4 O0 1.950892 1_655
Mn4 O12 1.963995 1_655
Mn4 O14 2.002403 1_555
Mn4 O4 2.282833 1_545
Mn4 O18 2.306071 1_655
Mn5 O9 1.944032 1_555
Mn5 O3 1.949244 1_555
Mn5 O19 1.952626 1_555
Mn5 O17 1.954548 1_555
Mn5 O11 1.959316 1_555
Mn5 O1 1.979314 1_555
Mn6 O20 1.906787 1_555
Mn6 O10 1.926648 1_565
Mn6 O7 1.938430 1_554
Mn6 O16 1.955694 1_665
Mn6 O5 1.970242 1_654
Mn6 O15 2.018346 1_664
Mn7 O8 1.952487 1_555
Mn7 O4 1.967098 1_555
Mn7 O18 1.968594 1_555
Mn7 O6 2.002295 1_555
Mn7 O22 2.157126 1_565
Mn7 O12 2.339318 1_555
Mn8 O3 1.932868 1_555
Mn8 O21 1.947521 1_655
Mn8 O12 1.953258 1_655
Mn8 O14 1.985844 1_555
Mn8 O6 2.272475 1_655
Mn8 O17 2.296955 1_555
Mn9 O23 1.892323 1_555
Mn9 O1 1.950491 1_555
Mn9 O13 1.964176 1_555
Mn9 O15 2.002050 1_555
Mn9 O5 2.282169 1_545
Mn9 O19 2.305642 1_555
