# generated using pymatgen
data_HoWBrO4
_symmetry_space_group_name_H-M   'P 1'
_cell_length_a   6.98698800
_cell_length_b   7.29923103
_cell_length_c   11.01997412
_cell_angle_alpha   103.81966789
_cell_angle_beta   108.00225629
_cell_angle_gamma   94.28853847
_symmetry_Int_Tables_number   1
_chemical_formula_structural   HoWBrO4
_chemical_formula_sum   'Ho4 W4 Br4 O16'
_cell_volume   512.26499320
_cell_formula_units_Z   4
loop_
 _symmetry_equiv_pos_site_id
 _symmetry_equiv_pos_as_xyz
  1  'x, y, z'
loop_
 _atom_site_type_symbol
 _atom_site_label
 _atom_site_symmetry_multiplicity
 _atom_site_fract_x
 _atom_site_fract_y
 _atom_site_fract_z
 _atom_site_occupancy
  Ho  Ho0  1  0.65823400  0.11211500  0.73085100  1
  Ho  Ho1  1  0.34176600  0.88788500  0.26914900  1
  Ho  Ho2  1  0.38108600  0.65959300  0.76745300  1
  Ho  Ho3  1  0.61891400  0.34040700  0.23254700  1
  W  W0  1  0.72913700  0.81416900  0.13284400  1
  W  W1  1  0.27086300  0.18583100  0.86715600  1
  W  W2  1  0.76915700  0.59007100  0.62625900  1
  W  W3  1  0.23084300  0.40992900  0.37374100  1
  Br  Br0  1  0.26335100  0.00359300  0.51941700  1
  Br  Br1  1  0.73664900  0.99640700  0.48058300  1
  Br  Br2  1  0.19123000  0.71963200  0.98181200  1
  Br  Br3  1  0.80877000  0.28036800  0.01818800  1
  O  O0  1  0.65767000  0.72951300  0.95545000  1
  O  O1  1  0.34233000  0.27048700  0.04455000  1
  O  O2  1  0.00266700  0.87740100  0.20530900  1
  O  O3  1  0.99733300  0.12259900  0.79469100  1
  O  O4  1  0.63615100  0.63648800  0.20082000  1
  O  O5  1  0.36384900  0.36351200  0.79918000  1
  O  O6  1  0.40077500  0.98438300  0.81661600  1
  O  O7  1  0.59922500  0.01561700  0.18338400  1
  O  O8  1  0.03982700  0.65347900  0.66935600  1
  O  O9  1  0.96017300  0.34652100  0.33064400  1
  O  O10  1  0.72397100  0.40301600  0.70014200  1
  O  O11  1  0.27602900  0.59698400  0.29985800  1
  O  O12  1  0.66426200  0.50221300  0.44625100  1
  O  O13  1  0.33573800  0.49778700  0.55374900  1
  O  O14  1  0.65497600  0.78974900  0.70349100  1
  O  O15  1  0.34502400  0.21025100  0.29650900  1
loop_
_geom_bond_atom_site_label_1
_geom_bond_atom_site_label_2
_geom_bond_distance
_geom_bond_site_symmetry_2
Ho0 O3 2.243026 1_555
Ho0 O10 2.264424 1_555
Ho0 O14 2.297164 1_545
Ho0 O6 2.493885 1_545
Ho0 O5 3.004434 1_555
Ho1 O2 2.243026 1_555
Ho1 O11 2.264424 1_555
Ho1 O15 2.297164 1_565
Ho1 O7 2.493885 1_565
Ho1 O4 3.004434 1_555
Ho2 O5 2.270563 1_555
Ho2 O0 2.271506 1_555
Ho2 O13 2.279346 1_555
Ho2 O8 2.285533 1_555
Ho2 O6 2.285673 1_555
Ho2 O14 2.437882 1_555
Ho3 O4 2.270563 1_555
Ho3 O1 2.271506 1_555
Ho3 O12 2.279346 1_555
Ho3 O9 2.285533 1_555
Ho3 O7 2.285673 1_555
Ho3 O15 2.437882 1_555
Br0 Ho0 2.913164 1_555
Br0 Ho1 2.917219 1_545
Br1 Ho1 2.913164 1_555
Br1 Ho0 2.917219 1_565
Br2 Ho1 2.920849 1_556
Br2 Ho2 3.010167 1_555
Br3 Ho0 2.920849 1_554
Br3 Ho3 3.010167 1_555
O0 W0 1.796140 1_556
O1 W1 1.796140 1_554
O2 W0 1.803297 1_455
O3 W1 1.803297 1_655
O4 W0 1.817750 1_555
O5 W1 1.817750 1_555
O6 W1 1.848533 1_565
O7 W0 1.848533 1_545
O8 W2 1.795884 1_455
O9 W3 1.795884 1_655
O10 W2 1.803406 1_555
O11 W3 1.803406 1_555
O12 W2 1.818444 1_555
O13 W3 1.818444 1_555
O14 W2 1.867107 1_555
O15 W3 1.867107 1_555
