# generated using pymatgen
data_LiCeMg14O16
_symmetry_space_group_name_H-M   'P 1'
_cell_length_a   8.69682338
_cell_length_b   8.70759883
_cell_length_c   4.36289357
_cell_angle_alpha   90.00000000
_cell_angle_beta   90.00000000
_cell_angle_gamma   90.00000000
_symmetry_Int_Tables_number   1
_chemical_formula_structural   LiCeMg14O16
_chemical_formula_sum   'Li1 Ce1 Mg14 O16'
_cell_volume   330.39516359
_cell_formula_units_Z   1
loop_
 _symmetry_equiv_pos_site_id
 _symmetry_equiv_pos_as_xyz
  1  'x, y, z'
loop_
 _atom_site_type_symbol
 _atom_site_label
 _atom_site_symmetry_multiplicity
 _atom_site_fract_x
 _atom_site_fract_y
 _atom_site_fract_z
 _atom_site_occupancy
  Li  Li0  1  -0.00000000  0.00000000  -0.00000000  1
  Ce  Ce0  1  -0.00000000  0.50000000  -0.00000000  1
  Mg  Mg0  1  0.50000000  0.00000000  -0.00000000  1
  Mg  Mg1  1  0.50000000  0.50000000  -0.00000000  1
  Mg  Mg2  1  -0.00000000  0.22585639  0.50000000  1
  Mg  Mg3  1  -0.00000000  0.77414361  0.50000000  1
  Mg  Mg4  1  0.50000000  0.24452491  0.50000000  1
  Mg  Mg5  1  0.50000000  0.75547509  0.50000000  1
  Mg  Mg6  1  0.24672094  0.00000000  0.50000000  1
  Mg  Mg7  1  0.26684836  0.50000000  0.50000000  1
  Mg  Mg8  1  0.75327906  0.00000000  0.50000000  1
  Mg  Mg9  1  0.73315164  0.50000000  0.50000000  1
  Mg  Mg10  1  0.25506803  0.23534796  0.00000000  1
  Mg  Mg11  1  0.25506803  0.76465204  -0.00000000  1
  Mg  Mg12  1  0.74493197  0.23534796  0.00000000  1
  Mg  Mg13  1  0.74493197  0.76465204  -0.00000000  1
  O  O0  1  0.26274883  0.00000000  -0.00000000  1
  O  O1  1  0.26617392  0.50000000  -0.00000000  1
  O  O2  1  0.73725117  0.00000000  0.00000000  1
  O  O3  1  0.73382608  0.50000000  0.00000000  1
  O  O4  1  0.24906575  0.25160602  0.50000000  1
  O  O5  1  0.24906575  0.74839398  0.50000000  1
  O  O6  1  0.75093425  0.25160602  0.50000000  1
  O  O7  1  0.75093425  0.74839398  0.50000000  1
  O  O8  1  -0.00000000  0.00000000  0.50000000  1
  O  O9  1  -0.00000000  0.50000000  0.50000000  1
  O  O10  1  0.50000000  0.00000000  0.50000000  1
  O  O11  1  0.50000000  0.50000000  0.50000000  1
  O  O12  1  -0.00000000  0.23728779  -0.00000000  1
  O  O13  1  -0.00000000  0.76271221  -0.00000000  1
  O  O14  1  0.50000000  0.24959587  -0.00000000  1
  O  O15  1  0.50000000  0.75040413  -0.00000000  1
loop_
_geom_bond_atom_site_label_1
_geom_bond_atom_site_label_2
_geom_bond_distance
_geom_bond_site_symmetry_2
Li0 O13 2.066207 1_545
Li0 O12 2.066207 1_555
Li0 O8 2.181447 1_554
Li0 O8 2.181447 1_555
Li0 O0 2.285080 1_555
Li0 O2 2.285080 1_455
Ce0 O9 2.181447 1_554
Ce0 O9 2.181447 1_555
Ce0 O12 2.287593 1_555
Ce0 O13 2.287593 1_555
Ce0 O3 2.314868 1_455
Ce0 O1 2.314868 1_555
Mg0 O2 2.063332 1_555
Mg0 O0 2.063332 1_555
Mg0 O14 2.173381 1_555
Mg0 O15 2.173381 1_545
Mg0 O10 2.181447 1_554
Mg0 O10 2.181447 1_555
Mg1 O1 2.033544 1_555
Mg1 O3 2.033544 1_555
Mg1 O15 2.180419 1_555
Mg1 O14 2.180419 1_555
Mg1 O11 2.181447 1_554
Mg1 O11 2.181447 1_555
Mg2 O8 1.966667 1_555
Mg2 O6 2.177655 1_455
Mg2 O4 2.177655 1_555
Mg2 O12 2.183717 1_556
Mg2 O12 2.183717 1_555
Mg2 O9 2.387133 1_555
Mg3 O8 1.966667 1_565
Mg3 O7 2.177655 1_455
Mg3 O5 2.177655 1_555
Mg3 O13 2.183717 1_555
Mg3 O13 2.183717 1_556
Mg3 O9 2.387133 1_555
Mg4 O10 2.129225 1_555
Mg4 O14 2.181894 1_556
Mg4 O14 2.181894 1_555
Mg4 O4 2.183202 1_555
Mg4 O6 2.183202 1_555
Mg4 O11 2.224575 1_555
Mg5 O10 2.129225 1_565
Mg5 O15 2.181894 1_556
Mg5 O15 2.181894 1_555
Mg5 O5 2.183202 1_555
Mg5 O7 2.183202 1_555
Mg5 O11 2.224575 1_555
Mg6 O8 2.145688 1_555
Mg6 O0 2.185896 1_556
Mg6 O0 2.185896 1_555
Mg6 O5 2.190979 1_545
Mg6 O4 2.190979 1_555
Mg6 O10 2.202723 1_555
Mg7 O11 2.027679 1_555
Mg7 O5 2.168437 1_555
Mg7 O4 2.168437 1_555
Mg7 O1 2.181455 1_555
Mg7 O1 2.181455 1_556
Mg7 O9 2.320733 1_555
Mg8 O8 2.145688 1_655
Mg8 O2 2.185896 1_555
Mg8 O2 2.185896 1_556
Mg8 O6 2.190979 1_555
Mg8 O7 2.190979 1_545
Mg8 O10 2.202723 1_555
Mg9 O11 2.027679 1_555
Mg9 O6 2.168437 1_555
Mg9 O7 2.168437 1_555
Mg9 O3 2.181455 1_556
Mg9 O3 2.181455 1_555
Mg9 O9 2.320733 1_655
Mg10 O0 2.050404 1_555
Mg10 O14 2.133740 1_555
Mg10 O4 2.186659 1_554
Mg10 O4 2.186659 1_555
Mg10 O12 2.218346 1_555
Mg10 O1 2.306507 1_555
Mg11 O0 2.050404 1_565
Mg11 O15 2.133740 1_555
Mg11 O5 2.186659 1_554
Mg11 O5 2.186659 1_555
Mg11 O13 2.218346 1_555
Mg11 O1 2.306507 1_555
Mg12 O2 2.050404 1_555
Mg12 O14 2.133740 1_555
Mg12 O6 2.186659 1_555
Mg12 O6 2.186659 1_554
Mg12 O12 2.218346 1_655
Mg12 O3 2.306507 1_555
Mg13 O2 2.050404 1_565
Mg13 O15 2.133740 1_555
Mg13 O7 2.186659 1_555
Mg13 O7 2.186659 1_554
Mg13 O13 2.218346 1_655
Mg13 O3 2.306507 1_555
