# generated using pymatgen
data_PbS2(NO4)2
_symmetry_space_group_name_H-M   'P 1'
_cell_length_a   8.26698339
_cell_length_b   8.26698339
_cell_length_c   8.26698347
_cell_angle_alpha   40.11609049
_cell_angle_beta   40.11609049
_cell_angle_gamma   40.11608413
_symmetry_Int_Tables_number   1
_chemical_formula_structural   PbS2(NO4)2
_chemical_formula_sum   'Pb1 S2 N2 O8'
_cell_volume   211.39955709
_cell_formula_units_Z   1
loop_
 _symmetry_equiv_pos_site_id
 _symmetry_equiv_pos_as_xyz
  1  'x, y, z'
loop_
 _atom_site_type_symbol
 _atom_site_label
 _atom_site_symmetry_multiplicity
 _atom_site_fract_x
 _atom_site_fract_y
 _atom_site_fract_z
 _atom_site_occupancy
  Pb  Pb0  1  0.00000000  0.00000000  0.00000000  1
  S  S0  1  0.60849400  0.60849400  0.60849400  1
  S  S1  1  0.39150600  0.39150600  0.39150600  1
  N  N0  1  0.80058500  0.80058500  0.80058500  1
  N  N1  1  0.19941500  0.19941500  0.19941500  1
  O  O0  1  0.67293600  0.67293600  0.67293600  1
  O  O1  1  0.32706400  0.32706400  0.32706400  1
  O  O2  1  0.29984700  0.72735000  0.72735000  1
  O  O3  1  0.72735000  0.29984700  0.72735000  1
  O  O4  1  0.72735000  0.72735000  0.29984700  1
  O  O5  1  0.70015300  0.27265000  0.27265000  1
  O  O6  1  0.27265000  0.70015300  0.27265000  1
  O  O7  1  0.27265000  0.27265000  0.70015300  1
loop_
_geom_bond_atom_site_label_1
_geom_bond_atom_site_label_2
_geom_bond_distance
_geom_bond_site_symmetry_2
O0 S0 1.467548 1_555
O1 S1 1.467548 1_555
O2 S0 1.499641 1_555
O2 Pb0 2.642884 1_566
O3 S0 1.499641 1_555
O3 Pb0 2.642884 1_656
O4 S0 1.499641 1_555
O4 Pb0 2.642885 1_665
O5 S1 1.499641 1_555
O5 Pb0 2.642884 1_655
O6 S1 1.499641 1_555
O6 Pb0 2.642884 1_565
O7 S1 1.499641 1_555
O7 Pb0 2.642885 1_556
