# generated using pymatgen
data_KLiNi2H3(SeO5)2
_symmetry_space_group_name_H-M   'P 1'
_cell_length_a   5.81763952
_cell_length_b   5.76781123
_cell_length_c   8.24102061
_cell_angle_alpha   66.30064550
_cell_angle_beta   65.95348423
_cell_angle_gamma   66.41477568
_symmetry_Int_Tables_number   1
_chemical_formula_structural   KLiNi2H3(SeO5)2
_chemical_formula_sum   'K1 Li1 Ni2 H3 Se2 O10'
_cell_volume   221.80551375
_cell_formula_units_Z   1
loop_
 _symmetry_equiv_pos_site_id
 _symmetry_equiv_pos_as_xyz
  1  'x, y, z'
loop_
 _atom_site_type_symbol
 _atom_site_label
 _atom_site_symmetry_multiplicity
 _atom_site_fract_x
 _atom_site_fract_y
 _atom_site_fract_z
 _atom_site_occupancy
  K  K0  1  0.51451500  0.48758100  0.50634300  1
  Li  Li0  1  0.78400800  0.24832800  0.98523800  1
  Ni  Ni0  1  0.01337600  0.52387300  0.99471700  1
  Ni  Ni1  1  0.47940200  0.99995200  0.98408500  1
  H  H0  1  0.71158200  0.69674500  0.79019400  1
  H  H1  1  0.28510000  0.29402200  0.23511500  1
  H  H2  1  0.43130900  0.49501900  0.04299900  1
  Se  Se0  1  0.92537000  0.90424500  0.28568600  1
  Se  Se1  1  0.10262000  0.09229400  0.68107600  1
  O  O0  1  0.79192200  0.77787300  0.50753800  1
  O  O1  1  0.14098100  0.16651200  0.45122800  1
  O  O2  1  0.25479200  0.80151100  0.23047600  1
  O  O3  1  0.80795800  0.23791400  0.22673200  1
  O  O4  1  0.76249900  0.18307600  0.78030200  1
  O  O5  1  0.19801600  0.75516900  0.75980500  1
  O  O6  1  0.66927200  0.65283000  0.92539200  1
  O  O7  1  0.34183000  0.34997900  0.09423500  1
  O  O8  1  0.82386300  0.81524100  0.15534900  1
  O  O9  1  0.16649000  0.19893400  0.89449100  1
loop_
_geom_bond_atom_site_label_1
_geom_bond_atom_site_label_2
_geom_bond_distance
_geom_bond_site_symmetry_2
K0 O5 2.705274 1_555
K0 O0 2.756195 1_555
K0 O4 2.775331 1_555
K0 O3 2.791440 1_555
K0 O2 2.833917 1_555
K0 O8 3.043387 1_555
K0 O9 3.200223 1_555
K0 O1 3.293126 1_655
K0 Se1 3.454617 1_555
Li0 O4 1.931452 1_555
Li0 O9 1.974726 1_655
Li0 O3 2.026558 1_556
Li0 O6 2.056499 1_555
Li0 O8 2.290247 1_546
Ni0 O5 2.014264 1_555
Ni0 O6 2.070279 1_455
Ni0 O9 2.072951 1_555
Ni0 O7 2.100496 1_556
Ni0 O8 2.215499 1_456
Ni0 O3 2.232582 1_456
Ni1 O9 1.979528 1_565
Ni1 O6 2.008969 1_555
Ni1 O2 2.075273 1_556
Ni1 O4 2.088170 1_565
Ni1 O7 2.264642 1_566
H0 O6 0.982674 1_555
H1 O7 1.016244 1_555
H1 O1 1.624611 1_555
H2 O7 1.017106 1_555
H2 Li0 1.968126 1_554
O0 Se0 1.643612 1_555
O1 Se1 1.703262 1_555
O2 Se0 1.681762 1_455
O3 Se0 1.695087 1_545
O4 Se1 1.747736 1_655
O5 Se1 1.710456 1_565
O8 Se0 1.723006 1_555
O9 Se1 2.279188 1_555
