# generated using pymatgen
data_La4MgRh
_symmetry_space_group_name_H-M   'P 1'
_cell_length_a   10.18166352
_cell_length_b   10.18162882
_cell_length_c   10.18166092
_cell_angle_alpha   60.00201085
_cell_angle_beta   60.00208321
_cell_angle_gamma   60.00200688
_symmetry_Int_Tables_number   1
_chemical_formula_structural   La4MgRh
_chemical_formula_sum   'La16 Mg4 Rh4'
_cell_volume   746.37942049
_cell_formula_units_Z   4
loop_
 _symmetry_equiv_pos_site_id
 _symmetry_equiv_pos_as_xyz
  1  'x, y, z'
loop_
 _atom_site_type_symbol
 _atom_site_label
 _atom_site_symmetry_multiplicity
 _atom_site_fract_x
 _atom_site_fract_y
 _atom_site_fract_z
 _atom_site_occupancy
  La  La0  1  0.34533460  0.34534565  0.34533692  1
  La  La1  1  0.34533925  0.34535096  0.96398072  1
  La  La2  1  0.34534364  0.96397673  0.34534617  1
  La  La3  1  0.96398102  0.34535068  0.34533925  1
  La  La4  1  0.81161391  0.18839046  0.18837737  1
  La  La5  1  0.18839089  0.81161325  0.81161997  1
  La  La6  1  0.18838309  0.81160931  0.18838553  1
  La  La7  1  0.81161808  0.18839839  0.81161610  1
  La  La8  1  0.18837653  0.18839163  0.81161318  1
  La  La9  1  0.81162029  0.81161322  0.18839210  1
  La  La10  1  0.93859399  0.56139858  0.56139611  1
  La  La11  1  0.56140244  0.93859388  0.93860388  1
  La  La12  1  0.56140017  0.93858555  0.56139916  1
  La  La13  1  0.93860021  0.56140268  0.93859970  1
  La  La14  1  0.56139782  0.56139957  0.93859261  1
  La  La15  1  0.93860458  0.93859303  0.56140226  1
  Mg  Mg0  1  0.57785302  0.57786013  0.57785437  1
  Mg  Mg1  1  0.57784300  0.57785043  0.26645354  1
  Mg  Mg2  1  0.57784827  0.26644382  0.57784979  1
  Mg  Mg3  1  0.26645539  0.57784931  0.57784339  1
  Rh  Rh0  1  0.14131655  0.14131117  0.14131573  1
  Rh  Rh1  1  0.14131543  0.14131100  0.57605542  1
  Rh  Rh2  1  0.14131426  0.57605348  0.14131423  1
  Rh  Rh3  1  0.57605560  0.14131010  0.14131749  1
loop_
_geom_bond_atom_site_label_1
_geom_bond_atom_site_label_2
_geom_bond_distance
_geom_bond_site_symmetry_2
La0 Rh2 2.950307 1_555
La0 Rh1 2.950389 1_555
La0 Rh3 2.950399 1_555
La0 Mg3 3.695208 1_555
La0 Mg1 3.695218 1_555
La0 Mg2 3.695259 1_555
La1 Rh2 2.950242 1_556
La1 Rh3 2.950373 1_556
La1 Rh0 2.950432 1_556
La1 Mg3 3.695370 1_555
La1 Mg0 3.695372 1_555
La1 Mg2 3.695419 1_555
La2 Rh1 2.950301 1_565
La2 Rh3 2.950316 1_565
La2 Rh0 2.950397 1_565
La2 Mg3 3.695295 1_555
La2 Mg0 3.695300 1_555
La2 Mg1 3.695304 1_555
La3 Rh2 2.950243 1_655
La3 Rh1 2.950355 1_655
La3 Rh0 2.950435 1_655
La3 Mg1 3.695385 1_555
La3 Mg0 3.695387 1_555
La3 Mg2 3.695435 1_555
La4 Rh3 2.956339 1_555
La4 Rh0 2.956437 1_655
La4 Mg1 3.720684 1_555
La4 Mg2 3.720705 1_555
La5 Rh2 2.956428 1_556
La5 Rh1 2.956462 1_565
La5 Mg0 3.720669 1_555
La5 Mg3 3.720695 1_555
La6 Rh2 2.956308 1_555
La6 Rh0 2.956432 1_565
La6 Mg1 3.720658 1_555
La6 Mg3 3.720658 1_555
La7 Rh1 2.956457 1_655
La7 Rh3 2.956489 1_556
La7 Mg0 3.720695 1_555
La7 Mg2 3.720745 1_555
La8 Rh1 2.956343 1_555
La8 Rh0 2.956437 1_556
La8 Mg3 3.720676 1_555
La8 Mg2 3.720695 1_555
La9 Rh2 2.956427 1_655
La9 Rh3 2.956457 1_565
La9 Mg0 3.720677 1_555
La9 Mg1 3.720705 1_555
La10 Mg0 3.513368 1_555
La10 Mg3 3.513634 1_655
La10 Rh2 3.663136 1_655
La10 Rh1 3.663160 1_655
La11 Mg1 3.513601 1_556
La11 Mg2 3.513663 1_565
La11 Rh3 3.663026 1_566
La11 Rh0 3.663200 1_566
La12 Mg0 3.513251 1_555
La12 Mg2 3.513596 1_565
La12 Rh3 3.663130 1_565
La12 Rh1 3.663156 1_565
La13 Mg1 3.513708 1_556
La13 Mg3 3.513709 1_655
La13 Rh2 3.663005 1_656
La13 Rh0 3.663233 1_656
La14 Mg0 3.513358 1_555
La14 Mg1 3.513618 1_556
La14 Rh2 3.663154 1_556
La14 Rh3 3.663181 1_556
La15 Mg3 3.513608 1_655
La15 Mg2 3.513680 1_565
La15 Rh1 3.663017 1_665
La15 Rh0 3.663207 1_665
Mg0 Mg3 3.170657 1_555
Mg0 Mg1 3.170678 1_555
Mg0 Mg2 3.170773 1_555
Mg1 Mg3 3.170555 1_555
Mg1 Mg2 3.170675 1_555
Mg2 Mg3 3.170652 1_555
