# generated using pymatgen
data_Mg2Mn3WS8
_symmetry_space_group_name_H-M   'P 1'
_cell_length_a   7.32021148
_cell_length_b   7.31842536
_cell_length_c   7.32536780
_cell_angle_alpha   60.02223292
_cell_angle_beta   60.02677173
_cell_angle_gamma   60.03322958
_symmetry_Int_Tables_number   1
_chemical_formula_structural   Mg2Mn3WS8
_chemical_formula_sum   'Mg2 Mn3 W1 S8'
_cell_volume   277.66777636
_cell_formula_units_Z   1
loop_
 _symmetry_equiv_pos_site_id
 _symmetry_equiv_pos_as_xyz
  1  'x, y, z'
loop_
 _atom_site_type_symbol
 _atom_site_label
 _atom_site_symmetry_multiplicity
 _atom_site_fract_x
 _atom_site_fract_y
 _atom_site_fract_z
 _atom_site_occupancy
  Mg  Mg0  1  0.86963473  0.86954437  0.86976237  1
  Mg  Mg1  1  0.13032900  0.13051316  0.13023481  1
  Mn  Mn0  1  0.49998389  0.49995540  0.00005332  1
  Mn  Mn1  1  0.00003556  0.50008647  0.49988409  1
  Mn  Mn2  1  0.50014394  0.99991860  0.49992581  1
  W  W0  1  0.49987751  0.50000693  0.50009725  1
  S  S0  1  0.73410565  0.73404259  0.73406727  1
  S  S1  1  0.26522586  0.26523898  0.72137589  1
  S  S2  1  0.26528644  0.72117053  0.26530151  1
  S  S3  1  0.72121830  0.26538034  0.26531399  1
  S  S4  1  0.73464166  0.27885628  0.73473738  1
  S  S5  1  0.27877569  0.73459440  0.73478231  1
  S  S6  1  0.26600464  0.26600268  0.26585059  1
  S  S7  1  0.73474112  0.73468427  0.27861443  1
loop_
_geom_bond_atom_site_label_1
_geom_bond_atom_site_label_2
_geom_bond_distance
_geom_bond_site_symmetry_2
Mg0 S0 2.430842 1_555
Mg0 S7 2.446172 1_556
Mg0 S5 2.446432 1_655
Mg0 S4 2.446744 1_565
Mg1 S6 2.431170 1_555
Mg1 S1 2.446220 1_554
Mg1 S3 2.446250 1_455
Mg1 S2 2.446928 1_545
Mn0 S6 2.433546 1_555
Mn0 S0 2.435009 1_554
Mn0 S4 2.525165 1_554
Mn0 S2 2.525367 1_555
Mn0 S5 2.525574 1_554
Mn0 S3 2.525660 1_555
Mn1 S6 2.435643 1_555
Mn1 S0 2.435723 1_455
Mn1 S2 2.523300 1_555
Mn1 S4 2.524771 1_455
Mn1 S7 2.525812 1_455
Mn1 S1 2.526312 1_555
Mn2 S0 2.435563 1_555
Mn2 S6 2.436243 1_565
Mn2 S3 2.524304 1_565
Mn2 S5 2.524981 1_555
Mn2 S7 2.525487 1_555
Mn2 S1 2.526599 1_565
S1 W0 2.431673 1_555
S2 W0 2.433008 1_555
S3 W0 2.432920 1_555
S4 W0 2.433104 1_555
S5 W0 2.432259 1_555
S7 W0 2.432260 1_555
