# generated using pymatgen
data_C
_symmetry_space_group_name_H-M   'P 1'
_cell_length_a   3.23593997
_cell_length_b   3.23593997
_cell_length_c   13.10504162
_cell_angle_alpha   90.00000000
_cell_angle_beta   90.00000000
_cell_angle_gamma   90.03539427
_symmetry_Int_Tables_number   1
_chemical_formula_structural   C
_chemical_formula_sum   C16
_cell_volume   137.22689462
_cell_formula_units_Z   16
loop_
 _symmetry_equiv_pos_site_id
 _symmetry_equiv_pos_as_xyz
  1  'x, y, z'
loop_
 _atom_site_type_symbol
 _atom_site_label
 _atom_site_symmetry_multiplicity
 _atom_site_fract_x
 _atom_site_fract_y
 _atom_site_fract_z
 _atom_site_occupancy
  C  C0_0  1  0.25000000  0.25000000  0.25000000  1
  C  C0_1  1  0.25000000  0.25000000  0.75000000  1
  C  C0_2  1  0.25000000  0.75000000  0.25000000  1
  C  C0_3  1  0.25000000  0.75000000  0.75000000  1
  C  C0_4  1  0.75000000  0.25000000  0.25000000  1
  C  C0_5  1  0.75000000  0.25000000  0.75000000  1
  C  C0_6  1  0.75000000  0.75000000  0.25000000  1
  C  C0_7  1  0.75000000  0.75000000  0.75000000  1
  C  C1_0  1  0.00000000  0.00000000  0.00000000  1
  C  C1_1  1  0.00000000  0.00000000  0.50000000  1
  C  C1_2  1  0.00000000  0.50000000  0.00000000  1
  C  C1_3  1  0.00000000  0.50000000  0.50000000  1
  C  C1_4  1  0.50000000  0.00000000  0.00000000  1
  C  C1_5  1  0.50000000  0.00000000  0.50000000  1
  C  C1_6  1  0.50000000  0.50000000  0.00000000  1
  C  C1_7  1  0.50000000  0.50000000  0.50000000  1
loop_
_geom_bond_atom_site_label_1
_geom_bond_atom_site_label_2
_geom_bond_distance
_geom_bond_site_symmetry_2
C0_0 C0_4 1.617970 1_555
C0_0 C0_2 1.617970 1_545
C0_0 C0_2 1.617970 1_555
C0_0 C0_4 1.617970 1_455
C0_1 C0_5 1.617970 1_555
C0_1 C0_5 1.617970 1_455
C0_1 C0_3 1.617970 1_545
C0_1 C0_3 1.617970 1_555
C0_2 C0_6 1.617970 1_455
C0_2 C0_6 1.617970 1_555
C0_3 C0_7 1.617970 1_555
C0_3 C0_7 1.617970 1_455
C0_4 C0_6 1.617970 1_545
C0_4 C0_6 1.617970 1_555
C0_5 C0_7 1.617970 1_555
C0_5 C0_7 1.617970 1_545
C1_0 C1_2 1.617970 1_555
C1_0 C1_4 1.617970 1_455
C1_0 C1_4 1.617970 1_555
C1_0 C1_2 1.617970 1_545
C1_1 C1_5 1.617970 1_455
C1_1 C1_3 1.617970 1_545
C1_1 C1_3 1.617970 1_555
C1_1 C1_5 1.617970 1_555
C1_2 C1_6 1.617970 1_555
C1_2 C1_6 1.617970 1_455
C1_3 C1_7 1.617970 1_555
C1_3 C1_7 1.617970 1_455
C1_4 C1_6 1.617970 1_545
C1_4 C1_6 1.617970 1_555
C1_5 C1_7 1.617970 1_555
C1_5 C1_7 1.617970 1_545
