# generated using pymatgen
data_Ta2MoS6
_symmetry_space_group_name_H-M   'P 1'
_cell_length_a   5.71478607
_cell_length_b   5.71478607
_cell_length_c   6.67229790
_cell_angle_alpha   81.78070404
_cell_angle_beta   81.78070404
_cell_angle_gamma   120.00136691
_symmetry_Int_Tables_number   1
_chemical_formula_structural   Ta2MoS6
_chemical_formula_sum   'Ta2 Mo1 S6'
_cell_volume   180.83356047
_cell_formula_units_Z   1
loop_
 _symmetry_equiv_pos_site_id
 _symmetry_equiv_pos_as_xyz
  1  'x, y, z'
loop_
 _atom_site_type_symbol
 _atom_site_label
 _atom_site_symmetry_multiplicity
 _atom_site_fract_x
 _atom_site_fract_y
 _atom_site_fract_z
 _atom_site_occupancy
  Ta  Ta0  1  0.83340800  0.49994200  0.49993300  1
  Ta  Ta1  1  0.49994200  0.83340800  0.49993300  1
  Mo  Mo0  1  0.16666700  0.16666700  0.49988200  1
  S  S0  1  0.57699700  0.24816700  0.25598000  1
  S  S1  1  0.24816700  0.57699700  0.25598000  1
  S  S2  1  0.91921000  0.91921000  0.25604500  1
  S  S3  1  0.75641100  0.75641100  0.74415000  1
  S  S4  1  0.41391500  0.08518600  0.74419800  1
  S  S5  1  0.08518600  0.41391500  0.74419800  1
loop_
_geom_bond_atom_site_label_1
_geom_bond_atom_site_label_2
_geom_bond_distance
_geom_bond_site_symmetry_2
Mo0 S2 2.441813 1_445
Mo0 S1 2.442137 1_555
Mo0 S0 2.442137 1_555
Mo0 S3 2.442904 1_445
Mo0 S4 2.443402 1_555
Mo0 S5 2.443402 1_555
S0 Ta1 2.471773 1_545
S0 Ta0 2.471865 1_555
S1 Ta0 2.471773 1_455
S1 Ta1 2.471865 1_555
S2 Ta0 2.472159 1_555
S2 Ta1 2.472159 1_555
S3 Ta1 2.473830 1_555
S3 Ta0 2.473830 1_555
S4 Ta1 2.473278 1_545
S4 Ta0 2.473316 1_555
S5 Ta0 2.473278 1_455
S5 Ta1 2.473316 1_555
