# generated using pymatgen
data_NaCa2IO6
_symmetry_space_group_name_H-M   'P 1'
_cell_length_a   5.59378321
_cell_length_b   5.85326500
_cell_length_c   8.07552969
_cell_angle_alpha   90.00000000
_cell_angle_beta   90.68571198
_cell_angle_gamma   90.00000000
_symmetry_Int_Tables_number   1
_chemical_formula_structural   NaCa2IO6
_chemical_formula_sum   'Na2 Ca4 I2 O12'
_cell_volume   264.38921323
_cell_formula_units_Z   2
loop_
 _symmetry_equiv_pos_site_id
 _symmetry_equiv_pos_as_xyz
  1  'x, y, z'
loop_
 _atom_site_type_symbol
 _atom_site_label
 _atom_site_symmetry_multiplicity
 _atom_site_fract_x
 _atom_site_fract_y
 _atom_site_fract_z
 _atom_site_occupancy
  Na  Na0  1  0.50000000  0.50000000  0.00000000  1
  Na  Na1  1  0.00000000  0.00000000  0.50000000  1
  Ca  Ca0  1  0.48295300  0.94386200  0.75660600  1
  Ca  Ca1  1  0.01704700  0.44386200  0.74339400  1
  Ca  Ca2  1  0.51704700  0.05613800  0.24339400  1
  Ca  Ca3  1  0.98295300  0.55613800  0.25660600  1
  I  I0  1  0.50000000  0.50000000  0.50000000  1
  I  I1  1  0.00000000  0.00000000  0.00000000  1
  O  O0  1  0.33597600  0.23203400  0.57401300  1
  O  O1  1  0.16402400  0.73203400  0.92598700  1
  O  O2  1  0.66402400  0.76796600  0.42598700  1
  O  O3  1  0.83597600  0.26796600  0.07401300  1
  O  O4  1  0.61444200  0.55878100  0.71906600  1
  O  O5  1  0.88555800  0.05878100  0.78093400  1
  O  O6  1  0.38555800  0.44121900  0.28093400  1
  O  O7  1  0.11444200  0.94121900  0.21906600  1
  O  O8  1  0.22309000  0.67547000  0.54673300  1
  O  O9  1  0.27691000  0.17547000  0.95326700  1
  O  O10  1  0.77691000  0.32453000  0.45326700  1
  O  O11  1  0.72309000  0.82453000  0.04673300  1
loop_
_geom_bond_atom_site_label_1
_geom_bond_atom_site_label_2
_geom_bond_distance
_geom_bond_site_symmetry_2
Na0 O9 2.301473 1_554
Na0 O11 2.301473 1_555
Na0 O3 2.388933 1_555
Na0 O1 2.388933 1_554
Na0 O6 2.389541 1_555
Na0 O4 2.389541 1_554
Na1 O8 2.301473 1_545
Na1 O10 2.301473 1_455
Na1 O0 2.388933 1_555
Na1 O2 2.388933 1_445
Na1 O5 2.389541 1_455
Na1 O7 2.389541 1_545
Ca0 O5 2.356343 1_565
Ca0 O0 2.380398 1_565
Ca0 O4 2.391372 1_555
Ca0 O9 2.394206 1_565
Ca0 O1 2.578651 1_555
Ca0 O8 2.719273 1_555
Ca0 O11 2.776013 1_556
Ca0 O2 3.046167 1_555
Ca1 O4 2.356343 1_455
Ca1 O1 2.380398 1_555
Ca1 O5 2.391372 1_455
Ca1 O8 2.394206 1_555
Ca1 O0 2.578651 1_555
Ca1 O9 2.719273 1_555
Ca1 O10 2.776013 1_455
Ca1 O3 3.046167 1_456
Ca2 O7 2.356343 1_545
Ca2 O2 2.380398 1_545
Ca2 O6 2.391372 1_555
Ca2 O11 2.394206 1_545
Ca2 O3 2.578651 1_555
Ca2 O10 2.719273 1_555
Ca2 O9 2.776013 1_554
Ca2 O0 3.046167 1_555
Ca3 O6 2.356343 1_655
Ca3 O3 2.380398 1_555
Ca3 O7 2.391372 1_655
Ca3 O10 2.394206 1_555
Ca3 O2 2.578651 1_555
Ca3 O11 2.719273 1_555
Ca3 O8 2.776013 1_655
Ca3 O1 3.046167 1_654
I0 O8 1.900163 1_555
I0 O10 1.900163 1_555
I0 O4 1.905441 1_555
I0 O6 1.905441 1_555
I0 O2 1.916328 1_555
I0 O0 1.916328 1_555
I1 O11 1.900163 1_445
I1 O9 1.900163 1_554
I1 O7 1.905441 1_545
I1 O5 1.905441 1_454
I1 O1 1.916328 1_544
I1 O3 1.916328 1_455
