# generated using pymatgen
data_LiPr2(BrO2)2
_symmetry_space_group_name_H-M   'P 1'
_cell_length_a   4.26922100
_cell_length_b   6.20574881
_cell_length_c   7.32828299
_cell_angle_alpha   117.32317019
_cell_angle_beta   90.00000000
_cell_angle_gamma   90.00000000
_symmetry_Int_Tables_number   1
_chemical_formula_structural   LiPr2(BrO2)2
_chemical_formula_sum   'Li1 Pr2 Br2 O4'
_cell_volume   172.49205624
_cell_formula_units_Z   1
loop_
 _symmetry_equiv_pos_site_id
 _symmetry_equiv_pos_as_xyz
  1  'x, y, z'
loop_
 _atom_site_type_symbol
 _atom_site_label
 _atom_site_symmetry_multiplicity
 _atom_site_fract_x
 _atom_site_fract_y
 _atom_site_fract_z
 _atom_site_occupancy
  Li  Li0  1  0.75000000  0.55171000  0.16368500  1
  Pr  Pr0  1  0.75000000  0.19607700  0.38254200  1
  Pr  Pr1  1  0.25000000  0.86636300  0.62951000  1
  Br  Br0  1  0.75000000  0.74740300  0.93655400  1
  Br  Br1  1  0.25000000  0.29165400  0.06828300  1
  O  O0  1  0.75000000  0.60346000  0.44487000  1
  O  O1  1  0.25000000  0.23467100  0.55002200  1
  O  O2  1  0.75000000  0.01449900  0.61490900  1
  O  O3  1  0.25000000  0.99416300  0.35777400  1
loop_
_geom_bond_atom_site_label_1
_geom_bond_atom_site_label_2
_geom_bond_distance
_geom_bond_site_symmetry_2
Li0 O0 1.934352 1_555
Br0 Li0 2.470016 1_556
Br0 Pr1 3.418985 1_655
Br0 Pr1 3.418985 1_555
Br1 Li0 2.571779 1_455
Br1 Li0 2.571779 1_555
Br1 Pr1 3.084497 1_544
Br1 Pr0 3.386155 1_555
Br1 Pr0 3.386155 1_455
O0 Pr0 2.353706 1_555
O0 Pr1 2.650028 1_555
O0 Pr1 2.650028 1_655
O1 O3 1.510676 1_545
O1 Pr0 2.418767 1_455
O1 Pr0 2.418767 1_555
O1 Pr1 2.604930 1_545
O2 Pr1 2.345936 1_645
O2 Pr1 2.345936 1_545
O2 Pr0 2.435355 1_555
O3 Pr0 2.439426 1_565
O3 Pr0 2.439426 1_465
O3 Pr1 2.458529 1_555
