# generated using pymatgen
data_Cd4GeSe6
_symmetry_space_group_name_H-M   'P 1'
_cell_length_a   7.60393292
_cell_length_b   7.60393292
_cell_length_c   13.18728579
_cell_angle_alpha   72.87277786
_cell_angle_beta   72.87277786
_cell_angle_gamma   60.07958449
_symmetry_Int_Tables_number   1
_chemical_formula_structural   Cd4GeSe6
_chemical_formula_sum   'Cd8 Ge2 Se12'
_cell_volume   621.44553234
_cell_formula_units_Z   2
loop_
 _symmetry_equiv_pos_site_id
 _symmetry_equiv_pos_as_xyz
  1  'x, y, z'
loop_
 _atom_site_type_symbol
 _atom_site_label
 _atom_site_symmetry_multiplicity
 _atom_site_fract_x
 _atom_site_fract_y
 _atom_site_fract_z
 _atom_site_occupancy
  Cd  Cd0  1  0.92902800  0.71604300  0.49392600  1
  Cd  Cd1  1  0.71604300  0.92902800  0.99392600  1
  Cd  Cd2  1  0.40470600  0.19337500  0.30591200  1
  Cd  Cd3  1  0.19337500  0.40470600  0.80591200  1
  Cd  Cd4  1  0.71547300  0.56869500  0.30067500  1
  Cd  Cd5  1  0.56869500  0.71547300  0.80067500  1
  Cd  Cd6  1  0.21213800  0.80207900  0.14377900  1
  Cd  Cd7  1  0.80207900  0.21213800  0.64377900  1
  Ge  Ge0  1  0.34362800  0.80208000  0.55701000  1
  Ge  Ge1  1  0.80208000  0.34362800  0.05701000  1
  Se  Se0  1  0.56531500  0.07138500  0.80832900  1
  Se  Se1  1  0.07138500  0.56531500  0.30832900  1
  Se  Se2  1  0.52159800  0.00535400  0.50279900  1
  Se  Se3  1  0.00535400  0.52159800  0.00279900  1
  Se  Se4  1  0.46526700  0.92002900  0.18668700  1
  Se  Se5  1  0.92002900  0.46526700  0.68668700  1
  Se  Se6  1  0.77092500  0.22486800  0.24595900  1
  Se  Se7  1  0.22486800  0.77092500  0.74595900  1
  Se  Se8  1  0.47677200  0.51929600  0.00382200  1
  Se  Se9  1  0.51929600  0.47677200  0.50382200  1
  Se  Se10  1  0.01059400  0.04335200  0.97610300  1
  Se  Se11  1  0.04335200  0.01059400  0.47610300  1
loop_
_geom_bond_atom_site_label_1
_geom_bond_atom_site_label_2
_geom_bond_distance
_geom_bond_site_symmetry_2
Cd0 Se5 2.697285 1_555
Cd0 Se1 2.707361 1_655
Cd0 Se11 2.709125 1_665
Cd0 Se2 2.755059 1_565
Cd1 Se4 2.697285 1_556
Cd1 Se0 2.707361 1_565
Cd1 Se10 2.709125 1_665
Cd1 Se3 2.755059 1_656
Cd2 Se1 2.697823 1_555
Cd2 Se2 2.735063 1_555
Cd2 Se4 2.747310 1_545
Cd2 Se6 2.773806 1_555
Cd3 Se0 2.697823 1_555
Cd3 Se3 2.735063 1_556
Cd3 Se5 2.747310 1_455
Cd3 Se7 2.773806 1_555
Cd4 Se4 2.695370 1_555
Cd4 Se6 2.714018 1_555
Cd4 Se1 2.724895 1_655
Cd4 Se9 2.733884 1_555
Cd5 Se5 2.695370 1_555
Cd5 Se7 2.714018 1_555
Cd5 Se0 2.724895 1_565
Cd5 Se8 2.733884 1_556
Cd6 Se1 2.710866 1_555
Cd6 Se10 2.721317 1_564
Cd6 Se4 2.737128 1_555
Cd6 Se8 2.812970 1_555
Cd7 Se0 2.710866 1_555
Cd7 Se11 2.721317 1_655
Cd7 Se5 2.737128 1_555
Cd7 Se9 2.812970 1_555
Ge0 Se9 2.359848 1_555
Ge0 Se2 2.365924 1_565
Ge0 Se7 2.370809 1_555
Ge0 Se11 2.385921 1_565
Ge1 Se8 2.359848 1_555
Ge1 Se3 2.365924 1_655
Ge1 Se6 2.370809 1_555
Ge1 Se10 2.385921 1_654
