# generated using pymatgen
data_Ca3GeO4F
_symmetry_space_group_name_H-M   'P 1'
_cell_length_a   5.39807500
_cell_length_b   7.51139800
_cell_length_c   13.30082700
_cell_angle_alpha   90.00000000
_cell_angle_beta   90.00000000
_cell_angle_gamma   90.00000000
_symmetry_Int_Tables_number   1
_chemical_formula_structural   Ca3GeO4F
_chemical_formula_sum   'Ca12 Ge4 O16 F4'
_cell_volume   539.30982624
_cell_formula_units_Z   4
loop_
 _symmetry_equiv_pos_site_id
 _symmetry_equiv_pos_as_xyz
  1  'x, y, z'
loop_
 _atom_site_type_symbol
 _atom_site_label
 _atom_site_symmetry_multiplicity
 _atom_site_fract_x
 _atom_site_fract_y
 _atom_site_fract_z
 _atom_site_occupancy
  Ca  Ca0  1  0.24075000  0.25000000  0.41325900  1
  Ca  Ca1  1  0.75925000  0.75000000  0.58674100  1
  Ca  Ca2  1  0.25925000  0.75000000  0.91325900  1
  Ca  Ca3  1  0.74075000  0.25000000  0.08674100  1
  Ca  Ca4  1  0.26782200  0.00633900  0.16990200  1
  Ca  Ca5  1  0.73217800  0.99366100  0.83009800  1
  Ca  Ca6  1  0.23217800  0.99366100  0.66990200  1
  Ca  Ca7  1  0.73217800  0.50633900  0.83009800  1
  Ca  Ca8  1  0.76782200  0.00633900  0.33009800  1
  Ca  Ca9  1  0.26782200  0.49366100  0.16990200  1
  Ca  Ca10  1  0.76782200  0.49366100  0.33009800  1
  Ca  Ca11  1  0.23217800  0.50633900  0.66990200  1
  Ge  Ge0  1  0.71901600  0.25000000  0.58198600  1
  Ge  Ge1  1  0.28098400  0.75000000  0.41801400  1
  Ge  Ge2  1  0.78098400  0.75000000  0.08198600  1
  Ge  Ge3  1  0.21901600  0.25000000  0.91801400  1
  O  O0  1  0.36472500  0.25000000  0.58230600  1
  O  O1  1  0.63527500  0.75000000  0.41769400  1
  O  O2  1  0.13527500  0.75000000  0.08230600  1
  O  O3  1  0.86472500  0.25000000  0.91769400  1
  O  O4  1  0.20502300  0.54060000  0.34280700  1
  O  O5  1  0.79497700  0.45940000  0.65719300  1
  O  O6  1  0.29497700  0.45940000  0.84280700  1
  O  O7  1  0.79497700  0.04060000  0.65719300  1
  O  O8  1  0.70502300  0.54060000  0.15719300  1
  O  O9  1  0.20502300  0.95940000  0.34280700  1
  O  O10  1  0.70502300  0.95940000  0.15719300  1
  O  O11  1  0.29497700  0.04060000  0.84280700  1
  O  O12  1  0.30403800  0.25000000  0.05996200  1
  O  O13  1  0.69596200  0.75000000  0.94003800  1
  O  O14  1  0.19596200  0.75000000  0.55996200  1
  O  O15  1  0.80403800  0.25000000  0.44003800  1
  F  F0  1  0.99953800  0.25000000  0.23340700  1
  F  F1  1  0.00046200  0.75000000  0.76659300  1
  F  F2  1  0.50046200  0.75000000  0.73340700  1
  F  F3  1  0.49953800  0.25000000  0.26659300  1
loop_
_geom_bond_atom_site_label_1
_geom_bond_atom_site_label_2
_geom_bond_distance
_geom_bond_site_symmetry_2
Ca0 O0 2.345945 1_555
Ca0 O9 2.383267 1_545
Ca0 O4 2.383267 1_555
Ca0 O15 2.384160 1_455
Ca0 F3 2.399381 1_555
Ca0 F0 2.723590 1_455
Ca0 O15 3.061461 1_555
Ca1 O1 2.345945 1_555
Ca1 O7 2.383267 1_565
Ca1 O5 2.383267 1_555
Ca1 O14 2.384160 1_655
Ca1 F2 2.399381 1_555
Ca1 F1 2.723590 1_655
Ca1 O14 3.061461 1_555
Ca2 O2 2.345945 1_556
Ca2 O11 2.383267 1_565
Ca2 O6 2.383267 1_555
Ca2 O13 2.384160 1_555
Ca2 F1 2.399381 1_555
Ca2 F2 2.723590 1_555
Ca2 O13 3.061461 1_455
Ca3 O3 2.345945 1_554
Ca3 O8 2.383267 1_555
Ca3 O10 2.383267 1_545
Ca3 O12 2.384160 1_555
Ca3 F0 2.399381 1_555
Ca3 F3 2.723590 1_555
Ca3 O12 3.061461 1_655
Ca4 O12 2.350804 1_555
Ca4 O9 2.351215 1_545
Ca4 O2 2.361526 1_545
Ca4 O10 2.392215 1_545
Ca4 F0 2.482047 1_455
Ca4 F3 2.562867 1_555
Ca5 O13 2.350804 1_555
Ca5 O7 2.351215 1_565
Ca5 O3 2.361526 1_565
Ca5 O11 2.392215 1_565
Ca5 F1 2.482047 1_655
Ca5 F2 2.562867 1_555
Ca6 O14 2.350804 1_555
Ca6 O11 2.351215 1_565
Ca6 O0 2.361526 1_565
Ca6 O7 2.392215 1_465
Ca6 F2 2.482047 1_555
Ca6 F1 2.562867 1_555
Ca7 O13 2.350804 1_555
Ca7 O5 2.351215 1_555
Ca7 O3 2.361526 1_555
Ca7 O6 2.392215 1_555
Ca7 F1 2.482047 1_655
Ca7 F2 2.562867 1_555
Ca8 O15 2.350804 1_555
Ca8 O10 2.351215 1_545
Ca8 O1 2.361526 1_545
Ca8 O9 2.392215 1_645
Ca8 F3 2.482047 1_555
Ca8 F0 2.562867 1_555
Ca9 O12 2.350804 1_555
Ca9 O4 2.351215 1_555
Ca9 O2 2.361526 1_555
Ca9 O8 2.392215 1_555
Ca9 F0 2.482047 1_455
Ca9 F3 2.562867 1_555
Ca10 O15 2.350804 1_555
Ca10 O8 2.351215 1_555
Ca10 O1 2.361526 1_555
Ca10 O4 2.392215 1_655
Ca10 F3 2.482047 1_555
Ca10 F0 2.562867 1_555
Ca11 O14 2.350804 1_555
Ca11 O6 2.351215 1_555
Ca11 O0 2.361526 1_555
Ca11 O5 2.392215 1_455
Ca11 F2 2.482047 1_555
Ca11 F1 2.562867 1_555
Ge0 O5 1.908596 1_555
Ge0 O7 1.908596 1_555
Ge0 O0 1.912494 1_555
Ge0 O15 1.943008 1_555
Ge1 O9 1.908596 1_555
Ge1 O4 1.908596 1_555
Ge1 O1 1.912494 1_555
Ge1 O14 1.943008 1_555
Ge2 O8 1.908596 1_555
Ge2 O10 1.908596 1_555
Ge2 O2 1.912494 1_655
Ge2 O13 1.943008 1_554
Ge3 O6 1.908596 1_555
Ge3 O11 1.908596 1_555
Ge3 O3 1.912494 1_455
Ge3 O12 1.943008 1_556
