# generated using pymatgen
data_CsMg6Co
_symmetry_space_group_name_H-M   'P 1'
_cell_length_a   16.02860720
_cell_length_b   16.02860720
_cell_length_c   7.81394000
_cell_angle_alpha   90.00000000
_cell_angle_beta   90.00000000
_cell_angle_gamma   111.45359264
_symmetry_Int_Tables_number   1
_chemical_formula_structural   CsMg6Co
_chemical_formula_sum   'Cs8 Mg48 Co8'
_cell_volume   1868.43478823
_cell_formula_units_Z   8
loop_
 _symmetry_equiv_pos_site_id
 _symmetry_equiv_pos_as_xyz
  1  'x, y, z'
loop_
 _atom_site_type_symbol
 _atom_site_label
 _atom_site_symmetry_multiplicity
 _atom_site_fract_x
 _atom_site_fract_y
 _atom_site_fract_z
 _atom_site_occupancy
  Cs  Cs0_0  1  0.08596000  0.41404000  0.00000000  1
  Cs  Cs0_1  1  0.08596000  0.41404000  0.50000000  1
  Cs  Cs0_2  1  0.08596000  0.91404000  0.00000000  1
  Cs  Cs0_3  1  0.08596000  0.91404000  0.50000000  1
  Cs  Cs0_4  1  0.58596000  0.41404000  0.00000000  1
  Cs  Cs0_5  1  0.58596000  0.41404000  0.50000000  1
  Cs  Cs0_6  1  0.58596000  0.91404000  0.00000000  1
  Cs  Cs0_7  1  0.58596000  0.91404000  0.50000000  1
  Mg  Mg0_0  1  0.34256550  0.41694300  0.00000000  1
  Mg  Mg0_1  1  0.34256550  0.41694300  0.50000000  1
  Mg  Mg0_2  1  0.34256550  0.91694300  0.00000000  1
  Mg  Mg0_3  1  0.34256550  0.91694300  0.50000000  1
  Mg  Mg0_4  1  0.84256550  0.41694300  0.00000000  1
  Mg  Mg0_5  1  0.84256550  0.41694300  0.50000000  1
  Mg  Mg0_6  1  0.84256550  0.91694300  0.00000000  1
  Mg  Mg0_7  1  0.84256550  0.91694300  0.50000000  1
  Mg  Mg1_0  1  0.08305700  0.15743450  0.00000000  1
  Mg  Mg1_1  1  0.08305700  0.15743450  0.50000000  1
  Mg  Mg1_2  1  0.08305700  0.65743450  0.00000000  1
  Mg  Mg1_3  1  0.08305700  0.65743450  0.50000000  1
  Mg  Mg1_4  1  0.58305700  0.15743450  0.00000000  1
  Mg  Mg1_5  1  0.58305700  0.15743450  0.50000000  1
  Mg  Mg1_6  1  0.58305700  0.65743450  0.00000000  1
  Mg  Mg1_7  1  0.58305700  0.65743450  0.50000000  1
  Mg  Mg2_0  1  0.38410900  0.27535600  0.25000000  1
  Mg  Mg2_1  1  0.38410900  0.27535600  0.75000000  1
  Mg  Mg2_2  1  0.38410900  0.77535600  0.25000000  1
  Mg  Mg2_3  1  0.38410900  0.77535600  0.75000000  1
  Mg  Mg2_4  1  0.88410900  0.27535600  0.25000000  1
  Mg  Mg2_5  1  0.88410900  0.27535600  0.75000000  1
  Mg  Mg2_6  1  0.88410900  0.77535600  0.25000000  1
  Mg  Mg2_7  1  0.88410900  0.77535600  0.75000000  1
  Mg  Mg3_0  1  0.22464400  0.11589100  0.25000000  1
  Mg  Mg3_1  1  0.22464400  0.11589100  0.75000000  1
  Mg  Mg3_2  1  0.22464400  0.61589100  0.25000000  1
  Mg  Mg3_3  1  0.22464400  0.61589100  0.75000000  1
  Mg  Mg3_4  1  0.72464400  0.11589100  0.25000000  1
  Mg  Mg3_5  1  0.72464400  0.11589100  0.75000000  1
  Mg  Mg3_6  1  0.72464400  0.61589100  0.25000000  1
  Mg  Mg3_7  1  0.72464400  0.61589100  0.75000000  1
  Mg  Mg4_0  1  0.40970900  0.09029100  0.25000000  1
  Mg  Mg4_1  1  0.40970900  0.09029100  0.75000000  1
  Mg  Mg4_2  1  0.40970900  0.59029100  0.25000000  1
  Mg  Mg4_3  1  0.40970900  0.59029100  0.75000000  1
  Mg  Mg4_4  1  0.90970900  0.09029100  0.25000000  1
  Mg  Mg4_5  1  0.90970900  0.09029100  0.75000000  1
  Mg  Mg4_6  1  0.90970900  0.59029100  0.25000000  1
  Mg  Mg4_7  1  0.90970900  0.59029100  0.75000000  1
  Mg  Mg5_0  1  0.20426550  0.29573450  0.25000000  1
  Mg  Mg5_1  1  0.20426550  0.29573450  0.75000000  1
  Mg  Mg5_2  1  0.20426550  0.79573450  0.25000000  1
  Mg  Mg5_3  1  0.20426550  0.79573450  0.75000000  1
  Mg  Mg5_4  1  0.70426550  0.29573450  0.25000000  1
  Mg  Mg5_5  1  0.70426550  0.29573450  0.75000000  1
  Mg  Mg5_6  1  0.70426550  0.79573450  0.25000000  1
  Mg  Mg5_7  1  0.70426550  0.79573450  0.75000000  1
  Co  Co0_0  1  0.26569200  0.23430800  0.00000000  1
  Co  Co0_1  1  0.26569200  0.23430800  0.50000000  1
  Co  Co0_2  1  0.26569200  0.73430800  0.00000000  1
  Co  Co0_3  1  0.26569200  0.73430800  0.50000000  1
  Co  Co0_4  1  0.76569200  0.23430800  0.00000000  1
  Co  Co0_5  1  0.76569200  0.23430800  0.50000000  1
  Co  Co0_6  1  0.76569200  0.73430800  0.00000000  1
  Co  Co0_7  1  0.76569200  0.73430800  0.50000000  1
loop_
_geom_bond_atom_site_label_1
_geom_bond_atom_site_label_2
_geom_bond_distance
_geom_bond_site_symmetry_2
Cs0_0 Mg5_1 3.692986 1_554
Cs0_0 Mg5_0 3.692986 1_555
Cs0_0 Mg3_3 3.736882 1_554
Cs0_0 Mg3_2 3.736882 1_555
Cs0_0 Mg2_5 3.736882 1_454
Cs0_0 Mg2_4 3.736882 1_455
Cs0_0 Cs0_1 3.906970 1_555
Cs0_0 Cs0_1 3.906970 1_554
Cs0_0 Mg1_2 3.918533 1_555
Cs0_0 Mg0_4 3.918533 1_455
Cs0_0 Mg0_0 4.096239 1_555
Cs0_0 Mg1_0 4.096239 1_555
Cs0_1 Mg5_0 3.692986 1_555
Cs0_1 Mg5_1 3.692986 1_555
Cs0_1 Mg3_3 3.736882 1_555
Cs0_1 Mg3_2 3.736882 1_555
Cs0_1 Mg2_4 3.736882 1_455
Cs0_1 Mg2_5 3.736882 1_455
Cs0_1 Mg1_3 3.918533 1_555
Cs0_1 Mg0_5 3.918533 1_455
Cs0_1 Mg0_1 4.096239 1_555
Cs0_1 Mg1_1 4.096239 1_555
Cs0_2 Mg5_3 3.692986 1_554
Cs0_2 Mg5_2 3.692986 1_555
Cs0_2 Mg3_0 3.736882 1_565
Cs0_2 Mg3_1 3.736882 1_564
Cs0_2 Mg2_7 3.736882 1_454
Cs0_2 Mg2_6 3.736882 1_455
Cs0_2 Cs0_3 3.906970 1_555
Cs0_2 Cs0_3 3.906970 1_554
Cs0_2 Mg1_0 3.918533 1_565
Cs0_2 Mg0_6 3.918533 1_455
Cs0_2 Mg0_2 4.096239 1_555
Cs0_2 Mg1_2 4.096239 1_555
Cs0_3 Mg5_2 3.692986 1_555
Cs0_3 Mg5_3 3.692986 1_555
Cs0_3 Mg3_0 3.736882 1_565
Cs0_3 Mg3_1 3.736882 1_565
Cs0_3 Mg2_7 3.736882 1_455
Cs0_3 Mg2_6 3.736882 1_455
Cs0_3 Mg1_1 3.918533 1_565
Cs0_3 Mg0_7 3.918533 1_455
Cs0_3 Mg0_3 4.096239 1_555
Cs0_3 Mg1_3 4.096239 1_555
Cs0_4 Mg5_5 3.692986 1_554
Cs0_4 Mg5_4 3.692986 1_555
Cs0_4 Mg3_6 3.736882 1_555
Cs0_4 Mg3_7 3.736882 1_554
Cs0_4 Mg2_0 3.736882 1_555
Cs0_4 Mg2_1 3.736882 1_554
Cs0_4 Cs0_5 3.906970 1_554
Cs0_4 Cs0_5 3.906970 1_555
Cs0_4 Mg1_6 3.918533 1_555
Cs0_4 Mg0_0 3.918533 1_555
Cs0_4 Mg0_4 4.096239 1_555
Cs0_4 Mg1_4 4.096239 1_555
Cs0_5 Mg5_5 3.692986 1_555
Cs0_5 Mg5_4 3.692986 1_555
Cs0_5 Mg3_6 3.736882 1_555
Cs0_5 Mg3_7 3.736882 1_555
Cs0_5 Mg2_0 3.736882 1_555
Cs0_5 Mg2_1 3.736882 1_555
Cs0_5 Mg1_7 3.918533 1_555
Cs0_5 Mg0_1 3.918533 1_555
Cs0_5 Mg0_5 4.096239 1_555
Cs0_5 Mg1_5 4.096239 1_555
Cs0_6 Mg5_6 3.692986 1_555
Cs0_6 Mg5_7 3.692986 1_554
Cs0_6 Mg2_3 3.736882 1_554
Cs0_6 Mg2_2 3.736882 1_555
Cs0_6 Mg3_5 3.736882 1_564
Cs0_6 Mg3_4 3.736882 1_565
Cs0_6 Cs0_7 3.906970 1_555
Cs0_6 Cs0_7 3.906970 1_554
Cs0_6 Mg1_4 3.918533 1_565
Cs0_6 Mg0_2 3.918533 1_555
Cs0_6 Mg0_6 4.096239 1_555
Cs0_6 Mg1_6 4.096239 1_555
Cs0_7 Mg5_6 3.692986 1_555
Cs0_7 Mg5_7 3.692986 1_555
Cs0_7 Mg2_3 3.736882 1_555
Cs0_7 Mg2_2 3.736882 1_555
Cs0_7 Mg3_5 3.736882 1_565
Cs0_7 Mg3_4 3.736882 1_565
Cs0_7 Mg1_5 3.918533 1_565
Cs0_7 Mg0_3 3.918533 1_555
Cs0_7 Mg0_7 4.096239 1_555
Cs0_7 Mg1_7 4.096239 1_555
Mg0_0 Mg4_3 3.241477 1_554
Mg0_0 Mg4_2 3.241477 1_555
Mg0_1 Mg4_3 3.241477 1_555
Mg0_1 Mg4_2 3.241477 1_555
Mg0_2 Mg4_1 3.241477 1_564
Mg0_2 Mg4_0 3.241477 1_565
Mg0_3 Mg4_1 3.241477 1_565
Mg0_3 Mg4_0 3.241477 1_565
Mg0_4 Mg4_6 3.241477 1_555
Mg0_4 Mg4_7 3.241477 1_554
Mg0_5 Mg4_7 3.241477 1_555
Mg0_5 Mg4_6 3.241477 1_555
Mg0_6 Mg4_4 3.241477 1_565
Mg0_6 Mg4_5 3.241477 1_564
Mg0_7 Mg4_4 3.241477 1_565
Mg0_7 Mg4_5 3.241477 1_565
Mg1_0 Mg4_5 3.241477 1_454
Mg1_0 Mg4_4 3.241477 1_455
Mg1_1 Mg4_5 3.241477 1_455
Mg1_1 Mg4_4 3.241477 1_455
Mg1_2 Mg4_6 3.241477 1_455
Mg1_2 Mg4_7 3.241477 1_454
Mg1_3 Mg4_6 3.241477 1_455
Mg1_3 Mg4_7 3.241477 1_455
Mg1_4 Mg4_1 3.241477 1_554
Mg1_4 Mg4_0 3.241477 1_555
Mg1_5 Mg4_0 3.241477 1_555
Mg1_5 Mg4_1 3.241477 1_555
Mg1_6 Mg4_3 3.241477 1_554
Mg1_6 Mg4_2 3.241477 1_555
Mg1_7 Mg4_2 3.241477 1_555
Mg1_7 Mg4_3 3.241477 1_555
Mg2_0 Mg4_0 3.139725 1_555
Mg2_1 Mg4_1 3.139725 1_555
Mg2_2 Mg4_2 3.139725 1_555
Mg2_3 Mg4_3 3.139725 1_555
Mg2_4 Mg4_4 3.139725 1_555
Mg2_5 Mg4_5 3.139725 1_555
Mg2_6 Mg4_6 3.139725 1_555
Mg2_7 Mg4_7 3.139725 1_555
Mg3_0 Mg4_0 3.139725 1_555
Mg3_1 Mg4_1 3.139725 1_555
Mg3_2 Mg4_2 3.139725 1_555
Mg3_3 Mg4_3 3.139725 1_555
Mg3_4 Mg4_4 3.139725 1_555
Mg3_5 Mg4_5 3.139725 1_555
Mg3_6 Mg4_6 3.139725 1_555
Mg3_7 Mg4_7 3.139725 1_555
Co0_0 Mg5_1 2.542443 1_554
Co0_0 Mg5_0 2.542443 1_555
Co0_0 Mg2_1 2.634031 1_554
Co0_0 Mg2_0 2.634031 1_555
Co0_0 Mg3_1 2.634031 1_554
Co0_0 Mg3_0 2.634031 1_555
Co0_0 Mg0_0 2.729340 1_555
Co0_0 Mg1_0 2.729340 1_555
Co0_1 Mg5_0 2.542443 1_555
Co0_1 Mg5_1 2.542443 1_555
Co0_1 Mg2_1 2.634031 1_555
Co0_1 Mg2_0 2.634031 1_555
Co0_1 Mg3_0 2.634031 1_555
Co0_1 Mg3_1 2.634031 1_555
Co0_1 Mg0_1 2.729340 1_555
Co0_1 Mg1_1 2.729340 1_555
Co0_2 Mg5_2 2.542443 1_555
Co0_2 Mg5_3 2.542443 1_554
Co0_2 Mg3_2 2.634031 1_555
Co0_2 Mg3_3 2.634031 1_554
Co0_2 Mg2_2 2.634031 1_555
Co0_2 Mg2_3 2.634031 1_554
Co0_2 Mg0_2 2.729340 1_555
Co0_2 Mg1_2 2.729340 1_555
Co0_3 Mg5_2 2.542443 1_555
Co0_3 Mg5_3 2.542443 1_555
Co0_3 Mg3_2 2.634031 1_555
Co0_3 Mg3_3 2.634031 1_555
Co0_3 Mg2_3 2.634031 1_555
Co0_3 Mg2_2 2.634031 1_555
Co0_3 Mg0_3 2.729340 1_555
Co0_3 Mg1_3 2.729340 1_555
Co0_4 Mg5_5 2.542443 1_554
Co0_4 Mg5_4 2.542443 1_555
Co0_4 Mg2_4 2.634031 1_555
Co0_4 Mg2_5 2.634031 1_554
Co0_4 Mg3_5 2.634031 1_554
Co0_4 Mg3_4 2.634031 1_555
Co0_4 Mg0_4 2.729340 1_555
Co0_4 Mg1_4 2.729340 1_555
Co0_5 Mg5_5 2.542443 1_555
Co0_5 Mg5_4 2.542443 1_555
Co0_5 Mg2_4 2.634031 1_555
Co0_5 Mg2_5 2.634031 1_555
Co0_5 Mg3_4 2.634031 1_555
Co0_5 Mg3_5 2.634031 1_555
Co0_5 Mg0_5 2.729340 1_555
Co0_5 Mg1_5 2.729340 1_555
Co0_6 Mg5_7 2.542443 1_554
Co0_6 Mg5_6 2.542443 1_555
Co0_6 Mg3_7 2.634031 1_554
Co0_6 Mg3_6 2.634031 1_555
Co0_6 Mg2_7 2.634031 1_554
Co0_6 Mg2_6 2.634031 1_555
Co0_6 Mg0_6 2.729340 1_555
Co0_6 Mg1_6 2.729340 1_555
Co0_7 Mg5_7 2.542443 1_555
Co0_7 Mg5_6 2.542443 1_555
Co0_7 Mg3_7 2.634031 1_555
Co0_7 Mg3_6 2.634031 1_555
Co0_7 Mg2_6 2.634031 1_555
Co0_7 Mg2_7 2.634031 1_555
Co0_7 Mg0_7 2.729340 1_555
Co0_7 Mg1_7 2.729340 1_555
