# generated using pymatgen
data_DyNi3
_symmetry_space_group_name_H-M   'P 1'
_cell_length_a   4.95444282
_cell_length_b   4.95444282
_cell_length_c   8.58990962
_cell_angle_alpha   73.23856615
_cell_angle_beta   73.23856615
_cell_angle_gamma   60.00001579
_symmetry_Int_Tables_number   1
_chemical_formula_structural   DyNi3
_chemical_formula_sum   'Dy3 Ni9'
_cell_volume   172.18160623
_cell_formula_units_Z   3
loop_
 _symmetry_equiv_pos_site_id
 _symmetry_equiv_pos_as_xyz
  1  'x, y, z'
loop_
 _atom_site_type_symbol
 _atom_site_label
 _atom_site_symmetry_multiplicity
 _atom_site_fract_x
 _atom_site_fract_y
 _atom_site_fract_z
 _atom_site_occupancy
  Dy  Dy0  1  0.13931100  0.13931100  0.58206700  1
  Dy  Dy1  1  0.86068900  0.86068900  0.41793300  1
  Dy  Dy2  1  0.00000000  0.00000000  0.00000000  1
  Ni  Ni0  1  0.08159800  0.58225800  0.75388700  1
  Ni  Ni1  1  0.58225800  0.58225800  0.75388700  1
  Ni  Ni2  1  0.58225800  0.08159800  0.75388700  1
  Ni  Ni3  1  0.91840200  0.41774200  0.24611300  1
  Ni  Ni4  1  0.41774200  0.41774200  0.24611300  1
  Ni  Ni5  1  0.41774200  0.91840200  0.24611300  1
  Ni  Ni6  1  0.33323000  0.33323000  0.00030900  1
  Ni  Ni7  1  0.66677000  0.66677000  0.99969100  1
  Ni  Ni8  1  0.50000000  0.50000000  0.50000000  1
loop_
_geom_bond_atom_site_label_1
_geom_bond_atom_site_label_2
_geom_bond_distance
_geom_bond_site_symmetry_2
Dy0 Ni2 2.841372 1_455
Dy0 Ni0 2.841372 1_545
Dy0 Ni1 2.841375 1_455
Dy0 Ni1 2.841375 1_545
Dy0 Ni2 2.841377 1_555
Dy0 Ni0 2.841377 1_555
Dy0 Ni8 2.936667 1_555
Dy0 Ni8 2.936667 1_455
Dy0 Ni8 2.936667 1_545
Dy0 Ni4 3.073204 1_555
Dy0 Ni3 3.073206 1_455
Dy0 Ni5 3.073206 1_545
Dy1 Ni5 2.841372 1_655
Dy1 Ni3 2.841372 1_565
Dy1 Ni4 2.841375 1_655
Dy1 Ni4 2.841375 1_565
Dy1 Ni5 2.841377 1_555
Dy1 Ni3 2.841377 1_555
Dy1 Ni8 2.936667 1_555
Dy1 Ni8 2.936667 1_655
Dy1 Ni8 2.936667 1_565
Dy1 Ni1 3.073204 1_555
Dy1 Ni2 3.073206 1_565
Dy1 Ni0 3.073206 1_655
Dy2 Ni7 2.860447 1_444
Dy2 Ni6 2.860447 1_555
Dy2 Ni6 2.860452 1_455
Dy2 Ni6 2.860452 1_545
Dy2 Ni7 2.860452 1_544
Dy2 Ni7 2.860452 1_454
Dy2 Ni5 3.179682 1_545
Dy2 Ni3 3.179682 1_455
Dy2 Ni0 3.179682 1_544
Dy2 Ni2 3.179682 1_454
Dy2 Ni1 3.179685 1_544
Dy2 Ni4 3.179685 1_455
Dy2 Ni4 3.179685 1_545
Dy2 Ni1 3.179685 1_454
Dy2 Ni2 3.179686 1_554
Dy2 Ni0 3.179686 1_554
Dy2 Ni5 3.179686 1_445
Dy2 Ni3 3.179686 1_445
Ni0 Ni7 2.450293 1_455
Ni0 Ni6 2.456560 1_556
Ni0 Ni1 2.473951 1_455
Ni0 Ni2 2.473952 1_465
Ni0 Ni1 2.480491 1_555
Ni0 Ni2 2.480492 1_555
Ni0 Ni8 2.505935 1_555
Ni1 Ni7 2.450293 1_555
Ni1 Ni6 2.456564 1_556
Ni1 Ni2 2.473951 1_565
Ni1 Ni2 2.480491 1_555
Ni1 Ni8 2.505937 1_555
Ni2 Ni7 2.450293 1_545
Ni2 Ni6 2.456560 1_556
Ni2 Ni8 2.505935 1_555
Ni3 Ni6 2.450293 1_655
Ni3 Ni7 2.456560 1_554
Ni3 Ni4 2.473951 1_655
Ni3 Ni5 2.473952 1_645
Ni3 Ni4 2.480491 1_555
Ni3 Ni5 2.480492 1_555
Ni3 Ni8 2.505935 1_555
Ni4 Ni6 2.450293 1_555
Ni4 Ni7 2.456564 1_554
Ni4 Ni5 2.473951 1_545
Ni4 Ni5 2.480491 1_555
Ni4 Ni8 2.505937 1_555
Ni5 Ni6 2.450293 1_565
Ni5 Ni7 2.456560 1_554
Ni5 Ni8 2.505935 1_555
