# generated using pymatgen
data_U(SO4)2
_symmetry_space_group_name_H-M   'P 1'
_cell_length_a   9.06640400
_cell_length_b   9.52562200
_cell_length_c   13.66665500
_cell_angle_alpha   90.00000000
_cell_angle_beta   90.00000000
_cell_angle_gamma   90.00000000
_symmetry_Int_Tables_number   1
_chemical_formula_structural   U(SO4)2
_chemical_formula_sum   'U8 S16 O64'
_cell_volume   1180.29520361
_cell_formula_units_Z   8
loop_
 _symmetry_equiv_pos_site_id
 _symmetry_equiv_pos_as_xyz
  1  'x, y, z'
loop_
 _atom_site_type_symbol
 _atom_site_label
 _atom_site_symmetry_multiplicity
 _atom_site_fract_x
 _atom_site_fract_y
 _atom_site_fract_z
 _atom_site_occupancy
  U  U0  1  0.78078200  0.03546900  0.10398300  1
  U  U1  1  0.71921800  0.53546900  0.89601700  1
  U  U2  1  0.28078200  0.96453100  0.39601700  1
  U  U3  1  0.21921800  0.46453100  0.60398300  1
  U  U4  1  0.21921800  0.96453100  0.89601700  1
  U  U5  1  0.28078200  0.46453100  0.10398300  1
  U  U6  1  0.71921800  0.03546900  0.60398300  1
  U  U7  1  0.78078200  0.53546900  0.39601700  1
  S  S0  1  0.99644200  0.72288800  0.05729000  1
  S  S1  1  0.50355800  0.22288800  0.94271000  1
  S  S2  1  0.49644200  0.27711200  0.44271000  1
  S  S3  1  0.00355800  0.77711200  0.55729000  1
  S  S4  1  0.00355800  0.27711200  0.94271000  1
  S  S5  1  0.49644200  0.77711200  0.05729000  1
  S  S6  1  0.50355800  0.72288800  0.55729000  1
  S  S7  1  0.99644200  0.22288800  0.44271000  1
  S  S8  1  0.82029000  0.89569300  0.84449100  1
  S  S9  1  0.67971000  0.39569300  0.15550900  1
  S  S10  1  0.32028900  0.10430700  0.65550900  1
  S  S11  1  0.17971000  0.60430700  0.34449100  1
  S  S12  1  0.17971000  0.10430700  0.15550900  1
  S  S13  1  0.32028900  0.60430700  0.84449100  1
  S  S14  1  0.67971000  0.89569300  0.34449100  1
  S  S15  1  0.82029000  0.39569300  0.65550900  1
  O  O0  1  0.89363700  0.80507900  0.11934700  1
  O  O1  1  0.60636300  0.30507900  0.88065300  1
  O  O2  1  0.39363700  0.19492100  0.38065300  1
  O  O3  1  0.10636300  0.69492100  0.61934700  1
  O  O4  1  0.10636300  0.19492100  0.88065300  1
  O  O5  1  0.39363700  0.69492100  0.11934700  1
  O  O6  1  0.60636300  0.80507900  0.61934700  1
  O  O7  1  0.89363700  0.30507900  0.38065300  1
  O  O8  1  0.91645500  0.64273700  0.98115800  1
  O  O9  1  0.58354500  0.14273700  0.01884200  1
  O  O10  1  0.41645500  0.35726300  0.51884200  1
  O  O11  1  0.08354500  0.85726300  0.48115800  1
  O  O12  1  0.08354500  0.35726300  0.01884200  1
  O  O13  1  0.41645500  0.85726300  0.98115800  1
  O  O14  1  0.58354500  0.64273700  0.48115800  1
  O  O15  1  0.91645500  0.14273700  0.51884200  1
  O  O16  1  0.08134100  0.62270900  0.11885500  1
  O  O17  1  0.41865900  0.12270900  0.88114500  1
  O  O18  1  0.58134100  0.37729100  0.38114500  1
  O  O19  1  0.91865900  0.87729100  0.61885500  1
  O  O20  1  0.91865900  0.37729100  0.88114500  1
  O  O21  1  0.58134100  0.87729100  0.11885500  1
  O  O22  1  0.41865900  0.62270900  0.61885500  1
  O  O23  1  0.08134100  0.12270900  0.38114500  1
  O  O24  1  0.10059900  0.82280200  0.00956600  1
  O  O25  1  0.39940100  0.32280200  0.99043400  1
  O  O26  1  0.60059900  0.17719800  0.49043400  1
  O  O27  1  0.89940100  0.67719800  0.50956600  1
  O  O28  1  0.89940100  0.17719800  0.99043400  1
  O  O29  1  0.60059900  0.67719800  0.00956600  1
  O  O30  1  0.39940100  0.82280200  0.50956600  1
  O  O31  1  0.10059900  0.32280200  0.49043400  1
  O  O32  1  0.77116000  0.92703400  0.94528600  1
  O  O33  1  0.72884000  0.42703400  0.05471400  1
  O  O34  1  0.27116000  0.07296600  0.55471400  1
  O  O35  1  0.22884000  0.57296600  0.44528600  1
  O  O36  1  0.22884000  0.07296600  0.05471400  1
  O  O37  1  0.27116000  0.57296600  0.94528600  1
  O  O38  1  0.72884000  0.92703400  0.44528600  1
  O  O39  1  0.77116000  0.42703400  0.55471400  1
  O  O40  1  0.74634000  0.99040400  0.77344000  1
  O  O41  1  0.75366000  0.49040400  0.22656000  1
  O  O42  1  0.24634000  0.00959600  0.72656000  1
  O  O43  1  0.25366000  0.50959600  0.27344000  1
  O  O44  1  0.25366000  0.00959600  0.22656000  1
  O  O45  1  0.24634000  0.50959600  0.77344000  1
  O  O46  1  0.75366000  0.99040400  0.27344000  1
  O  O47  1  0.74634000  0.49040400  0.72656000  1
  O  O48  1  0.77905500  0.74784700  0.82025900  1
  O  O49  1  0.72094500  0.24784700  0.17974100  1
  O  O50  1  0.27905500  0.25215300  0.67974100  1
  O  O51  1  0.22094500  0.75215300  0.32025900  1
  O  O52  1  0.22094500  0.25215300  0.17974100  1
  O  O53  1  0.27905500  0.75215300  0.82025900  1
  O  O54  1  0.72094500  0.74784700  0.32025900  1
  O  O55  1  0.77905500  0.24784700  0.67974100  1
  O  O56  1  0.98247600  0.91452600  0.83580800  1
  O  O57  1  0.51752400  0.41452600  0.16419200  1
  O  O58  1  0.48247600  0.08547400  0.66419200  1
  O  O59  1  0.01752400  0.58547400  0.33580800  1
  O  O60  1  0.01752400  0.08547400  0.16419200  1
  O  O61  1  0.48247600  0.58547400  0.83580800  1
  O  O62  1  0.51752400  0.91452600  0.33580800  1
  O  O63  1  0.98247600  0.41452600  0.66419200  1
loop_
_geom_bond_atom_site_label_1
_geom_bond_atom_site_label_2
_geom_bond_distance
_geom_bond_site_symmetry_2
O0 S0 1.483582 1_555
O0 U0 2.430496 1_565
O1 S1 1.483582 1_555
O1 U1 2.430496 1_555
O2 S2 1.483582 1_555
O2 U2 2.430496 1_545
O3 S3 1.483582 1_555
O3 U3 2.430496 1_555
O4 S4 1.483582 1_555
O4 U4 2.430496 1_545
O5 S5 1.483582 1_555
O5 U5 2.430496 1_555
O6 S6 1.483582 1_555
O6 U6 2.430496 1_565
O7 S7 1.483582 1_555
O7 U7 2.430496 1_555
O8 S0 1.480337 1_556
O8 U1 2.365540 1_555
O9 S1 1.480337 1_554
O9 U0 2.365540 1_555
O10 S2 1.480337 1_555
O10 U3 2.365540 1_555
O11 S3 1.480337 1_555
O11 U2 2.365540 1_555
O12 S4 1.480337 1_554
O12 U5 2.365540 1_555
O13 S5 1.480337 1_556
O13 U4 2.365540 1_555
O14 S6 1.480337 1_555
O14 U7 2.365540 1_555
O15 S7 1.480337 1_555
O15 U6 2.365540 1_555
O16 S0 1.486957 1_455
O16 U5 2.362461 1_555
O17 S1 1.486957 1_555
O17 U4 2.362461 1_545
O18 S2 1.486957 1_555
O18 U7 2.362461 1_555
O19 S3 1.486957 1_655
O19 U6 2.362461 1_565
O20 S4 1.486957 1_655
O20 U1 2.362461 1_555
O21 S5 1.486957 1_555
O21 U0 2.362461 1_565
O22 S6 1.486957 1_555
O22 U3 2.362461 1_555
O23 S7 1.486957 1_455
O23 U2 2.362461 1_545
O24 S0 1.490964 1_455
O24 U4 2.321085 1_554
O25 S1 1.490964 1_555
O25 U5 2.321085 1_556
O26 S2 1.490964 1_555
O26 U6 2.321085 1_555
O27 S3 1.490964 1_655
O27 U7 2.321085 1_555
O28 S4 1.490964 1_655
O28 U0 2.321085 1_556
O29 S5 1.490964 1_555
O29 U1 2.321085 1_554
O30 S6 1.490964 1_555
O30 U2 2.321085 1_555
O31 S7 1.490964 1_455
O31 U3 2.321085 1_555
O32 S8 1.478218 1_555
O32 U0 2.403842 1_566
O33 S9 1.478218 1_555
O33 U1 2.403842 1_554
O34 S10 1.478215 1_555
O34 U2 2.403842 1_545
O35 S11 1.478218 1_555
O35 U3 2.403842 1_555
O36 S12 1.478218 1_555
O36 U4 2.403842 1_544
O37 S13 1.478215 1_555
O37 U5 2.403842 1_556
O38 S14 1.478218 1_555
O38 U6 2.403842 1_565
O39 S15 1.478218 1_555
O39 U7 2.403842 1_555
O40 S8 1.485378 1_555
O40 U6 2.368160 1_565
O41 S9 1.485378 1_555
O41 U7 2.368160 1_555
O42 S10 1.485373 1_555
O42 U4 2.368160 1_545
O43 S11 1.485378 1_555
O43 U5 2.368160 1_555
O44 S12 1.485378 1_555
O44 U2 2.368160 1_545
O45 S13 1.485373 1_555
O45 U3 2.368160 1_555
O46 S14 1.485378 1_555
O46 U0 2.368160 1_565
O47 S15 1.485378 1_555
O47 U1 2.368160 1_555
O48 S8 1.494262 1_555
O48 U1 2.336438 1_555
O49 S9 1.494262 1_555
O49 U0 2.336438 1_555
O50 S10 1.494260 1_555
O50 U3 2.336438 1_555
O51 S11 1.494262 1_555
O51 U2 2.336438 1_555
O52 S12 1.494262 1_555
O52 U5 2.336438 1_555
O53 S13 1.494260 1_555
O53 U4 2.336438 1_555
O54 S14 1.494262 1_555
O54 U7 2.336438 1_555
O55 S15 1.494262 1_555
O55 U6 2.336438 1_555
O56 S8 1.486092 1_555
O56 U4 2.347554 1_655
O57 S9 1.486092 1_555
O57 U5 2.347554 1_555
O58 S10 1.486101 1_555
O58 U6 2.347554 1_555
O59 S11 1.486092 1_555
O59 U7 2.347554 1_455
O60 S12 1.486092 1_555
O60 U0 2.347554 1_455
O61 S13 1.486101 1_555
O61 U1 2.347554 1_555
O62 S14 1.486092 1_555
O62 U2 2.347554 1_555
O63 S15 1.486092 1_555
O63 U3 2.347554 1_655
