# generated using pymatgen
data_Ba3SrO4
_symmetry_space_group_name_H-M   'P 1'
_cell_length_a   5.53246800
_cell_length_b   5.53246800
_cell_length_c   5.53246800
_cell_angle_alpha   90.00000000
_cell_angle_beta   90.00000000
_cell_angle_gamma   90.00000000
_symmetry_Int_Tables_number   1
_chemical_formula_structural   Ba3SrO4
_chemical_formula_sum   'Ba3 Sr1 O4'
_cell_volume   169.33889905
_cell_formula_units_Z   1
loop_
 _symmetry_equiv_pos_site_id
 _symmetry_equiv_pos_as_xyz
  1  'x, y, z'
loop_
 _atom_site_type_symbol
 _atom_site_label
 _atom_site_symmetry_multiplicity
 _atom_site_fract_x
 _atom_site_fract_y
 _atom_site_fract_z
 _atom_site_occupancy
  Ba  Ba0  1  0.00000000  0.00000000  0.50000000  1
  Ba  Ba1  1  0.00000000  0.50000000  0.00000000  1
  Ba  Ba2  1  0.50000000  0.00000000  0.00000000  1
  Sr  Sr0  1  0.50000000  0.50000000  0.50000000  1
  O  O0  1  0.00000000  0.00000000  0.00000000  1
  O  O1  1  0.50000000  0.50000000  0.00000000  1
  O  O2  1  0.50000000  0.00000000  0.50000000  1
  O  O3  1  0.00000000  0.50000000  0.50000000  1
loop_
_geom_bond_atom_site_label_1
_geom_bond_atom_site_label_2
_geom_bond_distance
_geom_bond_site_symmetry_2
Ba0 O3 2.766234 1_555
Ba0 O0 2.766234 1_555
Ba0 O2 2.766234 1_555
Ba0 O0 2.766234 1_556
Ba0 O3 2.766234 1_545
Ba0 O2 2.766234 1_455
Ba1 O0 2.766234 1_565
Ba1 O3 2.766234 1_555
Ba1 O0 2.766234 1_555
Ba1 O3 2.766234 1_554
Ba1 O1 2.766234 1_555
Ba1 O1 2.766234 1_455
Ba2 O2 2.766234 1_554
Ba2 O1 2.766234 1_545
Ba2 O0 2.766234 1_555
Ba2 O2 2.766234 1_555
Ba2 O0 2.766234 1_655
Ba2 O1 2.766234 1_555
O1 Sr0 2.766234 1_554
O1 Sr0 2.766234 1_555
O2 Sr0 2.766234 1_545
O2 Sr0 2.766234 1_555
O3 Sr0 2.766234 1_455
O3 Sr0 2.766234 1_555
