# generated using pymatgen
data_Rb4HfS4O17
_symmetry_space_group_name_H-M   'P 1'
_cell_length_a   9.82579000
_cell_length_b   12.72574500
_cell_length_c   15.25439100
_cell_angle_alpha   90.00000000
_cell_angle_beta   90.00000000
_cell_angle_gamma   90.00000000
_symmetry_Int_Tables_number   1
_chemical_formula_structural   Rb4HfS4O17
_chemical_formula_sum   'Rb16 Hf4 S16 O68'
_cell_volume   1907.41664677
_cell_formula_units_Z   4
loop_
 _symmetry_equiv_pos_site_id
 _symmetry_equiv_pos_as_xyz
  1  'x, y, z'
loop_
 _atom_site_type_symbol
 _atom_site_label
 _atom_site_symmetry_multiplicity
 _atom_site_fract_x
 _atom_site_fract_y
 _atom_site_fract_z
 _atom_site_occupancy
  Rb  Rb0  1  0.89945600  0.23867100  0.29306800  1
  Rb  Rb1  1  0.60054400  0.76132900  0.79306800  1
  Rb  Rb2  1  0.39945600  0.26132900  0.70693200  1
  Rb  Rb3  1  0.10054400  0.73867100  0.20693200  1
  Rb  Rb4  1  0.49707100  0.97008400  0.23534400  1
  Rb  Rb5  1  0.00292900  0.02991600  0.73534400  1
  Rb  Rb6  1  0.99707100  0.52991600  0.76465600  1
  Rb  Rb7  1  0.50292900  0.47008400  0.26465600  1
  Rb  Rb8  1  0.81113500  0.48364200  0.07432600  1
  Rb  Rb9  1  0.68886500  0.51635800  0.57432600  1
  Rb  Rb10  1  0.31113500  0.01635800  0.92567400  1
  Rb  Rb11  1  0.18886500  0.98364200  0.42567400  1
  Rb  Rb12  1  0.80839000  0.95213100  0.04356900  1
  Rb  Rb13  1  0.69161000  0.04786900  0.54356900  1
  Rb  Rb14  1  0.30839000  0.54786900  0.95643100  1
  Rb  Rb15  1  0.19161000  0.45213100  0.45643100  1
  Hf  Hf0  1  0.74902700  0.74315100  0.37633300  1
  Hf  Hf1  1  0.75097300  0.25684900  0.87633300  1
  Hf  Hf2  1  0.24902700  0.75684900  0.62366700  1
  Hf  Hf3  1  0.25097300  0.24315100  0.12366700  1
  S  S0  1  0.40181000  0.72781100  0.41276500  1
  S  S1  1  0.09819000  0.27218900  0.91276500  1
  S  S2  1  0.90181000  0.77218900  0.58723500  1
  S  S3  1  0.59819000  0.22781100  0.08723500  1
  S  S4  1  0.83627400  0.95219000  0.33537600  1
  S  S5  1  0.66372600  0.04781000  0.83537600  1
  S  S6  1  0.33627400  0.54781000  0.66462400  1
  S  S7  1  0.16372600  0.45219000  0.16462400  1
  S  S8  1  0.84103500  0.53208900  0.35057700  1
  S  S9  1  0.65896500  0.46791100  0.85057700  1
  S  S10  1  0.34103500  0.96791100  0.64942300  1
  S  S11  1  0.15896500  0.03208900  0.14942300  1
  S  S12  1  0.66616300  0.72117900  0.15137600  1
  S  S13  1  0.83383700  0.27882100  0.65137600  1
  S  S14  1  0.16616300  0.77882100  0.84862400  1
  S  S15  1  0.33383700  0.22117900  0.34862400  1
  O  O0  1  0.55152500  0.74700400  0.43194200  1
  O  O1  1  0.94847500  0.25299600  0.93194200  1
  O  O2  1  0.05152500  0.75299600  0.56805800  1
  O  O3  1  0.44847500  0.24700400  0.06805800  1
  O  O4  1  0.32934200  0.75644100  0.49831600  1
  O  O5  1  0.17065800  0.24355900  0.99831600  1
  O  O6  1  0.82934200  0.74355900  0.50168400  1
  O  O7  1  0.67065800  0.25644100  0.00168400  1
  O  O8  1  0.37801500  0.61743900  0.39364100  1
  O  O9  1  0.12198500  0.38256100  0.89364100  1
  O  O10  1  0.87801500  0.88256100  0.60635900  1
  O  O11  1  0.62198500  0.11743900  0.10635900  1
  O  O12  1  0.35376100  0.80045100  0.34506600  1
  O  O13  1  0.14623900  0.19954900  0.84506600  1
  O  O14  1  0.85376100  0.69954900  0.65493400  1
  O  O15  1  0.64623900  0.30045100  0.15493400  1
  O  O16  1  0.91393900  0.84740500  0.33144300  1
  O  O17  1  0.58606100  0.15259500  0.83144300  1
  O  O18  1  0.41393900  0.65259500  0.66855700  1
  O  O19  1  0.08606100  0.34740500  0.16855700  1
  O  O20  1  0.70371300  0.91241100  0.37823600  1
  O  O21  1  0.79628700  0.08758900  0.87823600  1
  O  O22  1  0.20371300  0.58758900  0.62176400  1
  O  O23  1  0.29628700  0.41241100  0.12176400  1
  O  O24  1  0.80933900  0.99444800  0.24813500  1
  O  O25  1  0.69066100  0.00555200  0.74813500  1
  O  O26  1  0.30933900  0.50555200  0.75186500  1
  O  O27  1  0.19066100  0.49444800  0.25186500  1
  O  O28  1  0.90450800  0.02723300  0.39297400  1
  O  O29  1  0.59549200  0.97276700  0.89297400  1
  O  O30  1  0.40450800  0.47276700  0.60702600  1
  O  O31  1  0.09549200  0.52723300  0.10702600  1
  O  O32  1  0.91285000  0.63774700  0.33499600  1
  O  O33  1  0.58715000  0.36225300  0.83499600  1
  O  O34  1  0.41285000  0.86225300  0.66500400  1
  O  O35  1  0.08715000  0.13774700  0.16500400  1
  O  O36  1  0.70605700  0.57466800  0.38869900  1
  O  O37  1  0.79394300  0.42533200  0.88869900  1
  O  O38  1  0.20605700  0.92533200  0.61130100  1
  O  O39  1  0.29394300  0.07466800  0.11130100  1
  O  O40  1  0.81544600  0.47672000  0.26842200  1
  O  O41  1  0.68455400  0.52328000  0.76842200  1
  O  O42  1  0.31544600  0.02328000  0.73157800  1
  O  O43  1  0.18455400  0.97672000  0.23157800  1
  O  O44  1  0.91186900  0.46816200  0.41510900  1
  O  O45  1  0.58813100  0.53183800  0.91510900  1
  O  O46  1  0.41186900  0.03183800  0.58489100  1
  O  O47  1  0.08813100  0.96816200  0.08489100  1
  O  O48  1  0.67319000  0.73931500  0.25240400  1
  O  O49  1  0.82681000  0.26068500  0.75240400  1
  O  O50  1  0.17319000  0.76068500  0.74759600  1
  O  O51  1  0.32681000  0.23931500  0.24759600  1
  O  O52  1  0.59409600  0.62218100  0.13745100  1
  O  O53  1  0.90590400  0.37781900  0.63745100  1
  O  O54  1  0.09409600  0.87781900  0.86254900  1
  O  O55  1  0.40590400  0.12218100  0.36254900  1
  O  O56  1  0.59421200  0.81249900  0.11451200  1
  O  O57  1  0.90578800  0.18750100  0.61451200  1
  O  O58  1  0.09421200  0.68750100  0.88548800  1
  O  O59  1  0.40578800  0.31249900  0.38548800  1
  O  O60  1  0.81035300  0.71691000  0.12076100  1
  O  O61  1  0.68964700  0.28309000  0.62076100  1
  O  O62  1  0.31035300  0.78309000  0.87923900  1
  O  O63  1  0.18964700  0.21691000  0.37923900  1
  O  O64  1  0.68475600  0.26678900  0.44382500  1
  O  O65  1  0.81524400  0.73321100  0.94382500  1
  O  O66  1  0.18475600  0.23321100  0.55617500  1
  O  O67  1  0.31524400  0.76678900  0.05617500  1
loop_
_geom_bond_atom_site_label_1
_geom_bond_atom_site_label_2
_geom_bond_distance
_geom_bond_site_symmetry_2
Hf0 O48 2.032606 1_555
Hf0 O6 2.068605 1_555
Hf0 O0 2.118482 1_555
Hf0 O32 2.188133 1_555
Hf0 O36 2.193375 1_555
Hf0 O20 2.199688 1_555
Hf0 O16 2.203346 1_555
Hf1 O49 2.032606 1_555
Hf1 O7 2.068605 1_556
Hf1 O1 2.118482 1_555
Hf1 O33 2.188133 1_555
Hf1 O37 2.193375 1_555
Hf1 O21 2.199688 1_555
Hf1 O17 2.203346 1_555
Hf2 O50 2.032606 1_555
Hf2 O4 2.068605 1_555
Hf2 O2 2.118482 1_555
Hf2 O34 2.188133 1_555
Hf2 O38 2.193375 1_555
Hf2 O22 2.199688 1_555
Hf2 O18 2.203346 1_555
Hf3 O51 2.032606 1_555
Hf3 O5 2.068605 1_554
Hf3 O3 2.118482 1_555
Hf3 O35 2.188133 1_555
Hf3 O39 2.193375 1_555
Hf3 O23 2.199688 1_555
Hf3 O19 2.203346 1_555
O0 S0 1.519629 1_555
O1 S1 1.519629 1_655
O2 S2 1.519629 1_455
O3 S3 1.519629 1_555
O4 S0 1.530642 1_555
O4 Rb11 3.390097 1_555
O5 S1 1.530642 1_555
O5 Rb10 3.390097 1_555
O6 S2 1.530642 1_555
O6 Rb9 3.390097 1_555
O7 S3 1.530642 1_555
O7 Rb8 3.390097 1_555
O8 S0 1.453469 1_555
O8 Rb15 2.949155 1_555
O8 Rb7 2.982322 1_555
O9 S1 1.453469 1_555
O9 Rb14 2.949155 1_555
O9 Rb6 2.982322 1_455
O10 S2 1.453469 1_555
O10 Rb13 2.949155 1_565
O10 Rb5 2.982322 1_665
O11 S3 1.453469 1_555
O11 Rb12 2.949155 1_545
O11 Rb4 2.982322 1_545
O12 S0 1.464204 1_555
O12 Rb4 3.073153 1_555
O12 Rb11 3.093837 1_555
O12 Rb3 3.353895 1_555
O13 S1 1.464204 1_555
O13 Rb5 3.073153 1_555
O13 Rb10 3.093837 1_555
O13 Rb2 3.353895 1_555
O14 S2 1.464204 1_555
O14 Rb6 3.073153 1_555
O14 Rb9 3.093837 1_555
O14 Rb1 3.353895 1_555
O15 S3 1.464204 1_555
O15 Rb7 3.073153 1_555
O15 Rb8 3.093837 1_555
O15 Rb0 3.353895 1_555
O16 S4 1.537559 1_555
O16 Rb3 2.980612 1_655
O16 Rb11 3.517012 1_655
O17 S5 1.537559 1_555
O17 Rb2 2.980612 1_555
O17 Rb10 3.517012 1_555
O18 S6 1.537559 1_555
O18 Rb1 2.980612 1_555
O18 Rb9 3.517012 1_555
O19 S7 1.537559 1_555
O19 Rb0 2.980612 1_455
O19 Rb8 3.517012 1_455
O20 S4 1.542810 1_555
O20 Rb13 3.057188 1_565
O20 Rb4 3.067978 1_555
O21 S5 1.542810 1_555
O21 Rb12 3.057188 1_546
O21 Rb5 3.067978 1_655
O22 S6 1.542810 1_555
O22 Rb15 3.057188 1_555
O22 Rb6 3.067978 1_455
O23 S7 1.542810 1_555
O23 Rb14 3.057188 1_554
O23 Rb7 3.067978 1_555
O24 S4 1.459550 1_555
O24 Rb4 3.090072 1_555
O24 Rb12 3.166669 1_555
O24 Rb0 3.303488 1_565
O25 S5 1.459550 1_555
O25 Rb5 3.090072 1_655
O25 Rb13 3.166669 1_555
O25 Rb1 3.303488 1_545
O26 S6 1.459550 1_555
O26 Rb6 3.090072 1_455
O26 Rb14 3.166669 1_555
O26 Rb2 3.303488 1_555
O27 S7 1.459550 1_555
O27 Rb7 3.090072 1_555
O27 Rb15 3.166669 1_555
O27 Rb3 3.303488 1_555
O28 S4 1.460639 1_545
O28 Rb11 2.891913 1_645
O28 Rb0 3.092726 1_555
O28 Rb13 3.118054 1_555
O29 S5 1.460639 1_565
O29 Rb10 2.891913 1_565
O29 Rb1 3.092726 1_555
O29 Rb12 3.118054 1_556
O30 S6 1.460639 1_555
O30 Rb9 2.891913 1_555
O30 Rb2 3.092726 1_555
O30 Rb15 3.118054 1_555
O31 S7 1.460639 1_555
O31 Rb8 2.891913 1_455
O31 Rb3 3.092726 1_555
O31 Rb14 3.118054 1_554
O32 S8 1.536979 1_555
O32 Rb3 2.977759 1_655
O33 S9 1.536979 1_555
O33 Rb2 2.977759 1_555
O34 S10 1.536979 1_555
O34 Rb1 2.977759 1_555
O35 S11 1.536979 1_555
O35 Rb0 2.977759 1_455
O36 S8 1.546207 1_555
O36 Rb9 2.932110 1_555
O36 Rb7 3.055377 1_555
O37 S9 1.546207 1_555
O37 Rb8 2.932110 1_556
O37 Rb6 3.055377 1_555
O38 S10 1.546207 1_555
O38 Rb11 2.932110 1_555
O38 Rb5 3.055377 1_565
O39 S11 1.546207 1_555
O39 Rb10 2.932110 1_554
O39 Rb4 3.055377 1_545
O40 S8 1.459544 1_555
O40 Rb8 2.962429 1_555
O40 Rb7 3.072425 1_555
O40 Rb0 3.162231 1_555
O41 S9 1.459544 1_555
O41 Rb9 2.962429 1_555
O41 Rb6 3.072425 1_555
O41 Rb1 3.162231 1_555
O42 S10 1.459544 1_545
O42 Rb10 2.962429 1_555
O42 Rb5 3.072425 1_555
O42 Rb2 3.162231 1_555
O43 S11 1.459544 1_565
O43 Rb11 2.962429 1_555
O43 Rb4 3.072425 1_555
O43 Rb3 3.162231 1_555
O44 S8 1.454395 1_555
O44 Rb15 2.827397 1_655
O44 Rb9 3.328116 1_555
O44 Rb0 3.465494 1_555
O45 S9 1.454395 1_555
O45 Rb14 2.827397 1_555
O45 Rb8 3.328116 1_556
O45 Rb1 3.465494 1_555
O46 S10 1.454395 1_545
O46 Rb13 2.827397 1_555
O46 Rb11 3.328116 1_545
O46 Rb2 3.465494 1_555
O47 S11 1.454395 1_565
O47 Rb12 2.827397 1_455
O47 Rb10 3.328116 1_564
O47 Rb3 3.465494 1_555
O48 S12 1.559835 1_555
O49 S13 1.559835 1_555
O50 S14 1.559835 1_555
O51 S15 1.559835 1_555
O52 S12 1.460720 1_555
O52 Rb7 2.883413 1_555
O52 Rb8 2.929735 1_555
O53 S13 1.460720 1_555
O53 Rb6 2.883413 1_555
O53 Rb9 2.929735 1_555
O54 S14 1.460720 1_555
O54 Rb5 2.883413 1_565
O54 Rb10 2.929735 1_565
O55 S15 1.460720 1_555
O55 Rb4 2.883413 1_545
O55 Rb11 2.929735 1_545
O56 S12 1.471920 1_555
O56 Rb4 2.886187 1_555
O56 Rb12 2.959286 1_555
O57 S13 1.471920 1_555
O57 Rb5 2.886187 1_655
O57 Rb13 2.959286 1_555
O58 S14 1.471920 1_555
O58 Rb6 2.886187 1_455
O58 Rb14 2.959286 1_555
O59 S15 1.471920 1_555
O59 Rb7 2.886187 1_555
O59 Rb15 2.959286 1_555
O60 S12 1.492756 1_555
O60 Rb8 3.051860 1_555
O60 Rb3 3.151950 1_655
O60 Rb12 3.216697 1_555
O61 S13 1.492756 1_555
O61 Rb9 3.051860 1_555
O61 Rb2 3.151950 1_555
O61 Rb13 3.216697 1_555
O62 S14 1.492756 1_555
O62 Rb10 3.051860 1_565
O62 Rb1 3.151950 1_555
O62 Rb14 3.216697 1_555
O63 S15 1.492756 1_555
O63 Rb11 3.051860 1_545
O63 Rb0 3.151950 1_455
O63 Rb15 3.216697 1_555
O64 Rb0 3.141192 1_555
O64 Rb13 3.175051 1_555
O65 Rb1 3.141192 1_555
O65 Rb12 3.175051 1_556
O66 Rb2 3.141192 1_555
O66 Rb15 3.175051 1_555
O67 Rb3 3.141192 1_555
O67 Rb14 3.175051 1_554
