# generated using pymatgen
data_Ba5Ce4ZrO15
_symmetry_space_group_name_H-M   'P 1'
_cell_length_a   4.43032500
_cell_length_b   6.27528843
_cell_length_c   16.01639693
_cell_angle_alpha   78.70258177
_cell_angle_beta   90.00000000
_cell_angle_gamma   90.00000000
_symmetry_Int_Tables_number   1
_chemical_formula_structural   Ba5Ce4ZrO15
_chemical_formula_sum   'Ba5 Ce4 Zr1 O15'
_cell_volume   436.65294362
_cell_formula_units_Z   1
loop_
 _symmetry_equiv_pos_site_id
 _symmetry_equiv_pos_as_xyz
  1  'x, y, z'
loop_
 _atom_site_type_symbol
 _atom_site_label
 _atom_site_symmetry_multiplicity
 _atom_site_fract_x
 _atom_site_fract_y
 _atom_site_fract_z
 _atom_site_occupancy
  Ba  Ba0  1  0.50000000  0.69964000  0.60071900  1
  Ba  Ba1  1  0.50000000  0.09501000  0.80998000  1
  Ba  Ba2  1  0.50000000  0.50000000  0.00000000  1
  Ba  Ba3  1  0.50000000  0.90499000  0.19002000  1
  Ba  Ba4  1  0.50000000  0.30036000  0.39928100  1
  Ce  Ce0  1  0.00000000  0.40176600  0.19646800  1
  Ce  Ce1  1  0.00000000  0.80083200  0.39833600  1
  Ce  Ce2  1  0.00000000  0.19916800  0.60166400  1
  Ce  Ce3  1  0.00000000  0.59823400  0.80353200  1
  Zr  Zr0  1  0.00000000  0.00000000  0.00000000  1
  O  O0  1  0.00000000  0.40166100  0.70228200  1
  O  O1  1  0.00000000  0.80844600  0.90463700  1
  O  O2  1  0.00000000  0.19155400  0.09536300  1
  O  O3  1  0.00000000  0.59833900  0.29771800  1
  O  O4  1  0.00000000  0.00000000  0.50000000  1
  O  O5  1  0.00000000  0.50000000  0.50000000  1
  O  O6  1  0.00000000  0.89605700  0.70228200  1
  O  O7  1  0.00000000  0.28691700  0.90463700  1
  O  O8  1  0.00000000  0.71308300  0.09536300  1
  O  O9  1  0.00000000  0.10394300  0.29771800  1
  O  O10  1  0.50000000  0.20024500  0.59951000  1
  O  O11  1  0.50000000  0.59695600  0.80608900  1
  O  O12  1  0.50000000  0.00000000  0.00000000  1
  O  O13  1  0.50000000  0.40304400  0.19391100  1
  O  O14  1  0.50000000  0.79975500  0.40049000  1
loop_
_geom_bond_atom_site_label_1
_geom_bond_atom_site_label_2
_geom_bond_distance
_geom_bond_site_symmetry_2
Ba0 O10 3.137699 1_555
Ba0 O10 3.137705 1_565
Ba0 O0 3.139712 1_555
Ba0 O0 3.139712 1_655
Ba0 O6 3.139715 1_555
Ba0 O6 3.139715 1_655
Ba0 O5 3.141741 1_555
Ba0 O5 3.141741 1_655
Ba0 O4 3.141745 1_565
Ba0 O4 3.141745 1_665
Ba0 O14 3.144808 1_555
Ba0 O11 3.225553 1_555
Ba1 O12 2.984465 1_556
Ba1 O7 3.061209 1_555
Ba1 O7 3.061209 1_655
Ba1 O1 3.061209 1_645
Ba1 O1 3.061209 1_545
Ba1 O11 3.138236 1_545
Ba1 O11 3.138242 1_555
Ba1 O6 3.206998 1_645
Ba1 O6 3.206998 1_545
Ba1 O0 3.206998 1_555
Ba1 O0 3.206998 1_655
Ba1 O10 3.305653 1_555
Ba2 O13 3.045577 1_555
Ba2 O11 3.045577 1_554
Ba2 O8 3.134963 1_555
Ba2 O8 3.134963 1_655
Ba2 O7 3.134963 1_554
Ba2 O7 3.134963 1_654
Ba2 O2 3.134963 1_555
Ba2 O2 3.134963 1_655
Ba2 O1 3.134963 1_554
Ba2 O1 3.134963 1_654
Ba2 O12 3.137644 1_555
Ba2 O12 3.137644 1_565
Ba3 O12 2.984465 1_565
Ba3 O8 3.061209 1_655
Ba3 O8 3.061209 1_555
Ba3 O2 3.061209 1_665
Ba3 O2 3.061209 1_565
Ba3 O13 3.138236 1_565
Ba3 O13 3.138242 1_555
Ba3 O9 3.206998 1_665
Ba3 O9 3.206998 1_565
Ba3 O3 3.206998 1_655
Ba3 O3 3.206998 1_555
Ba3 O14 3.305653 1_555
Ba4 O14 3.137699 1_555
Ba4 O14 3.137705 1_545
Ba4 O3 3.139712 1_555
Ba4 O3 3.139712 1_655
Ba4 O9 3.139715 1_655
Ba4 O9 3.139715 1_555
Ba4 O5 3.141741 1_555
Ba4 O5 3.141741 1_655
Ba4 O4 3.141745 1_655
Ba4 O4 3.141745 1_555
Ba4 O10 3.144808 1_555
Ba4 O13 3.225553 1_555
Ce0 O13 2.215527 1_555
Ce0 O13 2.215527 1_455
Ce0 O3 2.221531 1_555
Ce0 O9 2.221531 1_555
Ce0 O2 2.280205 1_555
Ce0 O8 2.280205 1_555
Ce1 O14 2.215421 1_455
Ce1 O14 2.215421 1_555
Ce1 O4 2.238478 1_565
Ce1 O5 2.238478 1_555
Ce1 O3 2.239211 1_555
Ce1 O9 2.239211 1_565
Ce2 O10 2.215421 1_555
Ce2 O10 2.215421 1_455
Ce2 O4 2.238478 1_555
Ce2 O5 2.238478 1_555
Ce2 O0 2.239211 1_555
Ce2 O6 2.239211 1_545
Ce3 O11 2.215527 1_555
Ce3 O11 2.215527 1_455
Ce3 O0 2.221531 1_555
Ce3 O6 2.221531 1_555
Ce3 O1 2.280205 1_555
Ce3 O7 2.280205 1_555
O1 Zr0 2.120649 1_566
O2 Zr0 2.120649 1_555
O7 Zr0 2.120649 1_556
O8 Zr0 2.120649 1_565
O12 Zr0 2.215162 1_555
O12 Zr0 2.215162 1_655
