# generated using pymatgen
data_HoGePd
_symmetry_space_group_name_H-M   'P 1'
_cell_length_a   11.35181942
_cell_length_b   11.35181942
_cell_length_c   11.35181942
_cell_angle_alpha   157.63124411
_cell_angle_beta   140.70075596
_cell_angle_gamma   45.68502917
_symmetry_Int_Tables_number   1
_chemical_formula_structural   HoGePd
_chemical_formula_sum   'Ho6 Ge6 Pd6'
_cell_volume   351.72198919
_cell_formula_units_Z   6
loop_
 _symmetry_equiv_pos_site_id
 _symmetry_equiv_pos_as_xyz
  1  'x, y, z'
loop_
 _atom_site_type_symbol
 _atom_site_label
 _atom_site_symmetry_multiplicity
 _atom_site_fract_x
 _atom_site_fract_y
 _atom_site_fract_z
 _atom_site_occupancy
  Ho  Ho0  1  0.12413400  0.66701900  0.45711500  1
  Ho  Ho1  1  0.79009600  0.33298100  0.45711500  1
  Ho  Ho2  1  0.36866100  0.83315900  0.53550300  1
  Ho  Ho3  1  0.70234400  0.16684100  0.53550300  1
  Ho  Ho4  1  0.45125900  0.00000000  0.45125900  1
  Ho  Ho5  1  0.03504200  0.50000000  0.53504200  1
  Ge  Ge0  1  0.06142700  0.90625900  0.15516800  1
  Ge  Ge1  1  0.24890900  0.09374100  0.15516800  1
  Ge  Ge2  1  0.57413200  0.73585000  0.83828200  1
  Ge  Ge3  1  0.10243300  0.26415000  0.83828200  1
  Ge  Ge4  1  0.71808100  0.56485800  0.15322300  1
  Ge  Ge5  1  0.58836600  0.43514200  0.15322300  1
  Pd  Pd0  1  0.75006900  0.92770800  0.82236000  1
  Pd  Pd1  1  0.89465200  0.07229200  0.82236000  1
  Pd  Pd2  1  0.93523300  0.76759000  0.16764400  1
  Pd  Pd3  1  0.40005400  0.23241000  0.16764400  1
  Pd  Pd4  1  0.43107500  0.60451600  0.82655900  1
  Pd  Pd5  1  0.22204400  0.39548400  0.82655900  1
loop_
_geom_bond_atom_site_label_1
_geom_bond_atom_site_label_2
_geom_bond_distance
_geom_bond_site_symmetry_2
Ho0 Pd3 3.050171 1_555
Ho0 Pd3 3.050171 1_566
Ho0 Pd2 3.051527 1_455
Ho0 Pd4 3.108946 1_555
Ho0 Pd1 3.136068 1_465
Ho0 Pd1 3.136068 1_454
Ho1 Pd2 3.050172 1_545
Ho1 Pd2 3.050175 1_556
Ho1 Pd3 3.051532 1_555
Ho1 Pd5 3.108954 1_655
Ho1 Pd0 3.136072 1_555
Ho1 Pd0 3.136075 1_544
Ho2 Pd0 2.951230 1_555
Ho2 Pd5 3.015523 1_565
Ho2 Pd5 3.015529 1_554
Ho2 Pd2 3.125593 1_455
Ho2 Pd3 3.210848 1_566
Ho2 Pd3 3.210851 1_555
Ho3 Pd1 2.951210 1_555
Ho3 Pd4 3.015521 1_555
Ho3 Pd4 3.015521 1_544
Ho3 Pd3 3.125593 1_555
Ho3 Pd2 3.210846 1_545
Ho3 Pd2 3.210849 1_556
Ho4 Pd0 3.211652 1_545
Ho4 Pd1 3.211653 1_555
Ho4 Pd5 3.246019 1_555
Ho4 Pd5 3.246022 1_544
Ho4 Pd4 3.246029 1_555
Ho4 Pd4 3.246029 1_544
Ho5 Pd5 3.120143 1_555
Ho5 Pd4 3.120147 1_555
Ho5 Pd0 3.126108 1_455
Ho5 Pd0 3.126111 1_444
Ho5 Pd1 3.126117 1_454
Ho5 Pd1 3.126117 1_465
Ge0 Pd5 2.571228 1_565
Ge0 Pd5 2.571232 1_554
Ge0 Pd0 2.580147 1_454
Ge0 Pd2 2.902961 1_455
Ge0 Ho4 2.992789 1_565
Ge0 Ho1 3.079809 1_465
Ge0 Ho1 3.079809 1_454
Ge0 Ho5 3.088081 1_554
Ge0 Ho5 3.088081 1_565
Ge0 Ho2 3.281857 1_555
Ge1 Pd4 2.571229 1_544
Ge1 Pd4 2.571229 1_555
Ge1 Pd1 2.580149 1_454
Ge1 Pd3 2.902950 1_555
Ge1 Ho4 2.992789 1_555
Ge1 Ho0 3.079809 1_544
Ge1 Ho0 3.079809 1_555
Ge1 Ho5 3.088081 1_544
Ge1 Ho5 3.088081 1_555
Ge1 Ho3 3.281856 1_555
Ge2 Pd3 2.559406 1_566
Ge2 Pd3 2.559406 1_555
Ge2 Pd2 2.600724 1_556
Ge2 Pd4 2.749373 1_555
Ge2 Ho3 3.033173 1_566
Ge2 Ho3 3.033173 1_555
Ge2 Ho2 3.080362 1_555
Ge2 Ho1 3.130735 1_566
Ge2 Ho1 3.130735 1_555
Ge2 Ho0 3.246884 1_555
Ge3 Pd2 2.559406 1_445
Ge3 Pd2 2.559413 1_456
Ge3 Pd3 2.600729 1_556
Ge3 Pd5 2.749373 1_555
Ge3 Ho2 3.033156 1_545
Ge3 Ho2 3.033163 1_556
Ge3 Ho3 3.080376 1_455
Ge3 Ho0 3.130739 1_545
Ge3 Ho0 3.130742 1_556
Ge3 Ho1 3.246882 1_455
Ge4 Pd1 2.557312 1_565
Ge4 Pd1 2.557312 1_554
Ge4 Pd4 2.628331 1_554
Ge4 Ge5 2.714052 1_555
Ge4 Ho4 3.011184 1_565
Ge4 Ho4 3.011184 1_554
Ge4 Ho0 3.154632 1_655
Ge4 Ho3 3.195167 1_554
Ge4 Ho3 3.195167 1_565
Ge4 Ho5 3.215389 1_655
Ge5 Pd0 2.557312 1_544
Ge5 Pd0 2.557312 1_555
Ge5 Pd5 2.628331 1_554
Ge5 Ho4 3.011180 1_554
Ge5 Ho4 3.011183 1_565
Ge5 Ho1 3.154636 1_555
Ge5 Ho2 3.195180 1_544
Ge5 Ho2 3.195186 1_555
Ge5 Ho5 3.215381 1_655
Pd0 Pd1 3.025137 1_565
