# generated using pymatgen
data_MgV2O4
_symmetry_space_group_name_H-M   'P 1'
_cell_length_a   6.06387623
_cell_length_b   6.06387623
_cell_length_c   6.06387623
_cell_angle_alpha   60.00000000
_cell_angle_beta   60.00000000
_cell_angle_gamma   60.00000000
_symmetry_Int_Tables_number   1
_chemical_formula_structural   MgV2O4
_chemical_formula_sum   'Mg2 V4 O8'
_cell_volume   157.66525093
_cell_formula_units_Z   2
loop_
 _symmetry_equiv_pos_site_id
 _symmetry_equiv_pos_as_xyz
  1  'x, y, z'
loop_
 _atom_site_type_symbol
 _atom_site_label
 _atom_site_symmetry_multiplicity
 _atom_site_fract_x
 _atom_site_fract_y
 _atom_site_fract_z
 _atom_site_occupancy
  Mg  Mg0  1  0.75000000  0.75000000  0.75000000  1
  Mg  Mg1  1  0.50000000  0.50000000  0.50000000  1
  V  V0  1  0.62500000  0.12500000  0.12500000  1
  V  V1  1  0.12500000  0.12500000  0.12500000  1
  V  V2  1  0.12500000  0.62500000  0.12500000  1
  V  V3  1  0.12500000  0.12500000  0.62500000  1
  O  O0  1  0.36486400  0.36486400  0.36486400  1
  O  O1  1  0.34459200  0.88513600  0.88513600  1
  O  O2  1  0.88513600  0.88513600  0.34459200  1
  O  O3  1  0.88513600  0.34459200  0.88513600  1
  O  O4  1  0.36486400  0.36486400  0.90540800  1
  O  O5  1  0.36486400  0.90540800  0.36486400  1
  O  O6  1  0.88513600  0.88513600  0.88513600  1
  O  O7  1  0.90540800  0.36486400  0.36486400  1
loop_
_geom_bond_atom_site_label_1
_geom_bond_atom_site_label_2
_geom_bond_distance
_geom_bond_site_symmetry_2
Mg0 O6 2.007229 1_555
Mg0 O3 2.007229 1_555
Mg0 O1 2.007229 1_555
Mg0 O2 2.007229 1_555
Mg1 O7 2.007229 1_555
Mg1 O4 2.007229 1_555
Mg1 O5 2.007229 1_555
Mg1 O0 2.007229 1_555
O0 V3 2.060651 1_555
O0 V2 2.060651 1_555
O0 V0 2.060651 1_555
O1 V3 2.060651 1_565
O1 V2 2.060651 1_556
O1 V1 2.060651 1_566
O2 V2 2.060651 1_655
O2 V0 2.060651 1_565
O2 V1 2.060651 1_665
O3 V3 2.060651 1_655
O3 V0 2.060651 1_556
O3 V1 2.060651 1_656
O4 V1 2.060651 1_556
O4 V0 2.060651 1_556
O4 V2 2.060651 1_556
O5 V1 2.060651 1_565
O5 V3 2.060651 1_565
O5 V0 2.060651 1_565
O6 V3 2.060651 1_665
O6 V2 2.060651 1_656
O6 V0 2.060651 1_566
O7 V1 2.060651 1_655
O7 V2 2.060651 1_655
O7 V3 2.060651 1_655
