# generated using pymatgen
data_Zn7(SbO6)2
_symmetry_space_group_name_H-M   'P 1'
_cell_length_a   6.24726500
_cell_length_b   8.72022655
_cell_length_c   10.56416625
_cell_angle_alpha   113.50044211
_cell_angle_beta   106.17788184
_cell_angle_gamma   92.01471028
_symmetry_Int_Tables_number   1
_chemical_formula_structural   Zn7(SbO6)2
_chemical_formula_sum   'Zn14 Sb4 O24'
_cell_volume   499.83851905
_cell_formula_units_Z   2
loop_
 _symmetry_equiv_pos_site_id
 _symmetry_equiv_pos_as_xyz
  1  'x, y, z'
loop_
 _atom_site_type_symbol
 _atom_site_label
 _atom_site_symmetry_multiplicity
 _atom_site_fract_x
 _atom_site_fract_y
 _atom_site_fract_z
 _atom_site_occupancy
  Zn  Zn0  1  0.88009300  0.80032400  0.81986200  1
  Zn  Zn1  1  0.55178100  0.45759900  0.16510500  1
  Zn  Zn2  1  0.22088500  0.14073200  0.49665400  1
  Zn  Zn3  1  0.44821900  0.54240100  0.83489500  1
  Zn  Zn4  1  0.11990700  0.19967600  0.18013800  1
  Zn  Zn5  1  0.77911500  0.85926800  0.50334600  1
  Zn  Zn6  1  0.66689500  0.17199300  0.33112700  1
  Zn  Zn7  1  0.33310500  0.82800700  0.66887300  1
  Zn  Zn8  1  0.82425900  0.32120700  0.65136500  1
  Zn  Zn9  1  0.50000000  0.00000000  0.00000000  1
  Zn  Zn10  1  0.17574100  0.67879300  0.34863500  1
  Zn  Zn11  1  0.65692700  0.15142600  0.82201800  1
  Zn  Zn12  1  0.34307300  0.84857400  0.17798200  1
  Zn  Zn13  1  0.00000000  0.50000000  0.50000000  1
  Sb  Sb0  1  0.00000000  0.50000000  0.00000000  1
  Sb  Sb1  1  0.16841700  0.16102000  0.82885500  1
  Sb  Sb2  1  0.83158300  0.83898000  0.17114500  1
  Sb  Sb3  1  0.50000000  0.50000000  0.50000000  1
  O  O0  1  0.47408300  0.24340800  0.98213000  1
  O  O1  1  0.14323300  0.90466000  0.31797800  1
  O  O2  1  0.80881400  0.57045400  0.65435300  1
  O  O3  1  0.32328800  0.09752900  0.67851000  1
  O  O4  1  0.98787300  0.73806200  0.00741900  1
  O  O5  1  0.65538500  0.42473800  0.34486100  1
  O  O6  1  0.63091900  0.92857200  0.83403100  1
  O  O7  1  0.29421500  0.59520200  0.16063100  1
  O  O8  1  0.96616700  0.26268800  0.49335200  1
  O  O9  1  0.16152000  0.93680400  0.83668800  1
  O  O10  1  0.84004600  0.58846500  0.15549000  1
  O  O11  1  0.50038900  0.26628400  0.49895200  1
  O  O12  1  0.85676700  0.09534000  0.68202200  1
  O  O13  1  0.52591700  0.75659200  0.01787000  1
  O  O14  1  0.19118600  0.42954600  0.34564700  1
  O  O15  1  0.01212700  0.26193800  0.99258100  1
  O  O16  1  0.67671200  0.90247100  0.32149000  1
  O  O17  1  0.34461500  0.57526200  0.65513900  1
  O  O18  1  0.70578500  0.40479800  0.83936900  1
  O  O19  1  0.36908100  0.07142800  0.16596900  1
  O  O20  1  0.03383300  0.73731200  0.50664800  1
  O  O21  1  0.15995400  0.41153500  0.84451000  1
  O  O22  1  0.83848000  0.06319600  0.16331200  1
  O  O23  1  0.49961100  0.73371600  0.50104800  1
loop_
_geom_bond_atom_site_label_1
_geom_bond_atom_site_label_2
_geom_bond_distance
_geom_bond_site_symmetry_2
O0 Zn1 1.998685 1_556
O0 Sb1 2.009302 1_555
O0 Zn11 2.206407 1_555
O0 Zn9 2.212208 1_556
O1 Sb2 2.013697 1_455
O1 Zn2 2.087264 1_565
O1 Zn12 2.116615 1_555
O1 Zn10 2.127369 1_555
O2 Zn0 1.995431 1_555
O2 Sb3 2.030527 1_555
O2 Zn8 2.167047 1_555
O2 Zn13 2.191080 1_655
O3 Sb1 1.989447 1_555
O3 Zn2 2.037484 1_555
O3 Zn11 2.113230 1_555
O3 Zn7 2.315338 1_545
O4 Sb0 2.050873 1_655
O4 Sb2 2.122959 1_555
O4 Zn0 2.194140 1_554
O4 Zn12 2.310029 1_655
O5 Zn1 1.967040 1_555
O5 Sb3 2.032881 1_555
O5 Zn6 2.155398 1_555
O5 Zn13 2.197363 1_655
O6 Zn0 1.953212 1_555
O6 Zn11 2.001259 1_565
O6 Zn9 2.023612 1_566
O6 Zn7 2.032463 1_555
O7 Sb0 1.994574 1_555
O7 Zn1 2.042014 1_555
O7 Zn12 2.146369 1_555
O7 Zn10 2.173994 1_555
O8 Zn2 1.944753 1_655
O8 Zn8 2.002485 1_555
O8 Zn6 2.021795 1_555
O8 Zn13 2.043808 1_655
O9 Sb1 1.989136 1_565
O9 Zn0 2.012244 1_455
O9 Zn9 2.208740 1_566
O9 Zn7 2.231849 1_555
O10 Sb0 2.061591 1_655
O10 Sb2 2.127736 1_555
O10 Zn1 2.146069 1_555
O10 Zn10 2.323678 1_655
O11 Zn2 2.017181 1_555
O11 Sb3 2.033758 1_555
O11 Zn8 2.101694 1_555
O11 Zn6 2.196955 1_555
O12 Sb1 2.013697 1_655
O12 Zn5 2.087264 1_545
O12 Zn11 2.116615 1_555
O12 Zn8 2.127369 1_555
O13 Zn3 1.998685 1_554
O13 Sb2 2.009302 1_555
O13 Zn12 2.206407 1_555
O13 Zn9 2.212208 1_565
O14 Zn4 1.995431 1_555
O14 Sb3 2.030527 1_555
O14 Zn10 2.167047 1_555
O14 Zn13 2.191080 1_555
O15 Sb0 2.050873 1_556
O15 Sb1 2.122959 1_555
O15 Zn4 2.194140 1_556
O15 Zn11 2.310029 1_455
O16 Sb2 1.989447 1_555
O16 Zn5 2.037484 1_555
O16 Zn12 2.113230 1_555
O16 Zn6 2.315338 1_565
O17 Zn3 1.967040 1_555
O17 Sb3 2.032881 1_555
O17 Zn7 2.155398 1_555
O17 Zn13 2.197363 1_555
O18 Sb0 1.994574 1_656
O18 Zn3 2.042014 1_555
O18 Zn11 2.146369 1_555
O18 Zn8 2.173994 1_555
O19 Zn4 1.953212 1_555
O19 Zn12 2.001259 1_545
O19 Zn9 2.023612 1_555
O19 Zn6 2.032463 1_555
O20 Zn5 1.944753 1_455
O20 Zn10 2.002485 1_555
O20 Zn7 2.021795 1_555
O20 Zn13 2.043808 1_555
O21 Sb0 2.061591 1_556
O21 Sb1 2.127736 1_555
O21 Zn3 2.146069 1_555
O21 Zn8 2.323678 1_455
O22 Sb2 1.989136 1_545
O22 Zn4 2.012244 1_655
O22 Zn9 2.208740 1_555
O22 Zn6 2.231849 1_555
O23 Zn5 2.017181 1_555
O23 Sb3 2.033758 1_555
O23 Zn10 2.101694 1_555
O23 Zn7 2.196955 1_555
