# generated using pymatgen
data_Pr2SiC(NO2)2
_symmetry_space_group_name_H-M   'P 1'
_cell_length_a   6.52102900
_cell_length_b   6.73629784
_cell_length_c   6.76699629
_cell_angle_alpha   85.13608768
_cell_angle_beta   72.92428671
_cell_angle_gamma   74.73801526
_symmetry_Int_Tables_number   1
_chemical_formula_structural   Pr2SiC(NO2)2
_chemical_formula_sum   'Pr4 Si2 C2 N4 O8'
_cell_volume   274.12349655
_cell_formula_units_Z   2
loop_
 _symmetry_equiv_pos_site_id
 _symmetry_equiv_pos_as_xyz
  1  'x, y, z'
loop_
 _atom_site_type_symbol
 _atom_site_label
 _atom_site_symmetry_multiplicity
 _atom_site_fract_x
 _atom_site_fract_y
 _atom_site_fract_z
 _atom_site_occupancy
  Pr  Pr0  1  0.54097500  0.69651800  0.20223000  1
  Pr  Pr1  1  0.45902500  0.30348200  0.79777000  1
  Pr  Pr2  1  0.94304000  0.75552100  0.66793000  1
  Pr  Pr3  1  0.05696000  0.24447900  0.33207000  1
  Si  Si0  1  0.03825800  0.71335800  0.18404200  1
  Si  Si1  1  0.96174200  0.28664200  0.81595800  1
  C  C0  1  0.43932900  0.80911500  0.70605800  1
  C  C1  1  0.56067100  0.19088500  0.29394200  1
  N  N0  1  0.52572900  0.90730900  0.79040600  1
  N  N1  1  0.47427100  0.09269100  0.20959400  1
  N  N2  1  0.36061000  0.70445500  0.62091600  1
  N  N3  1  0.63939000  0.29554500  0.37908400  1
  O  O0  1  0.88535600  0.12778900  0.69520900  1
  O  O1  1  0.11464400  0.87221100  0.30479100  1
  O  O2  1  0.14247600  0.38267700  0.62965600  1
  O  O3  1  0.85752400  0.61732300  0.37034400  1
  O  O4  1  0.90156100  0.79431300  0.01713600  1
  O  O5  1  0.09843900  0.20568700  0.98286400  1
  O  O6  1  0.73288500  0.47107800  0.89557500  1
  O  O7  1  0.26711500  0.52892200  0.10442500  1
loop_
_geom_bond_atom_site_label_1
_geom_bond_atom_site_label_2
_geom_bond_distance
_geom_bond_site_symmetry_2
C0 N2 1.235160 1_555
C0 N0 1.236873 1_555
C1 N3 1.235160 1_555
C1 N1 1.236873 1_555
N0 Pr2 2.547966 1_555
N0 Pr1 2.590856 1_565
N0 Pr0 3.034766 1_556
N1 Pr3 2.547966 1_555
N1 Pr0 2.590856 1_545
N1 Pr1 3.034766 1_554
N2 Pr2 2.578928 1_455
N2 Pr0 2.729302 1_555
N2 Pr1 2.851349 1_555
N3 Pr3 2.578928 1_655
N3 Pr1 2.729302 1_555
N3 Pr0 2.851349 1_555
O0 Si1 1.651902 1_555
O0 Pr2 2.450567 1_545
O0 Pr3 2.535618 1_655
O0 Pr1 2.623998 1_555
O1 Si0 1.651902 1_555
O1 Pr3 2.450567 1_565
O1 Pr2 2.535618 1_455
O1 Pr0 2.623998 1_555
O2 Si1 1.669558 1_455
O2 Pr2 2.501876 1_455
O2 Pr3 2.546289 1_555
O2 Pr1 2.556608 1_555
O3 Si0 1.669558 1_655
O3 Pr3 2.501876 1_655
O3 Pr2 2.546289 1_555
O3 Pr0 2.556608 1_555
O4 Si0 1.612001 1_655
O4 Pr2 2.327597 1_554
O4 Pr0 2.545158 1_555
O5 Si1 1.612001 1_455
O5 Pr3 2.327597 1_556
O5 Pr1 2.545158 1_555
O6 Si1 1.651133 1_555
O6 Pr0 2.487430 1_556
O6 Pr1 2.604645 1_555
O6 Pr2 2.750388 1_555
O7 Si0 1.651133 1_555
O7 Pr1 2.487430 1_554
O7 Pr0 2.604645 1_555
O7 Pr3 2.750388 1_555
