# generated using pymatgen
data_CoCuH28(SO11)2
_symmetry_space_group_name_H-M   'P 1'
_cell_length_a   6.51070000
_cell_length_b   14.12972434
_cell_length_c   10.94428036
_cell_angle_alpha   105.04144226
_cell_angle_beta   90.00000000
_cell_angle_gamma   90.00000000
_symmetry_Int_Tables_number   1
_chemical_formula_structural   CoCuH28(SO11)2
_chemical_formula_sum   'Co2 Cu2 H56 S4 O44'
_cell_volume   972.31742710
_cell_formula_units_Z   2
loop_
 _symmetry_equiv_pos_site_id
 _symmetry_equiv_pos_as_xyz
  1  'x, y, z'
loop_
 _atom_site_type_symbol
 _atom_site_label
 _atom_site_symmetry_multiplicity
 _atom_site_fract_x
 _atom_site_fract_y
 _atom_site_fract_z
 _atom_site_occupancy
  Co  Co0  1  0.00000000  0.50000000  0.00000000  1
  Co  Co1  1  0.50000000  0.50000000  0.50000000  1
  Cu  Cu0  1  0.00000000  0.00000000  0.50000000  1
  Cu  Cu1  1  0.50000000  0.00000000  0.00000000  1
  H  H0  1  0.37392500  0.58819900  0.96858500  1
  H  H1  1  0.62607500  0.41180100  0.03141500  1
  H  H2  1  0.87392500  0.41180100  0.53141500  1
  H  H3  1  0.12607500  0.58819900  0.46858500  1
  H  H4  1  0.48667100  0.92087100  0.18727500  1
  H  H5  1  0.51332900  0.07912900  0.81272500  1
  H  H6  1  0.98667100  0.07912900  0.31272500  1
  H  H7  1  0.01332900  0.92087100  0.68727500  1
  H  H8  1  0.93565400  0.62439100  0.85619900  1
  H  H9  1  0.06434600  0.37560900  0.14380100  1
  H  H10  1  0.43565400  0.37560900  0.64380100  1
  H  H11  1  0.56434600  0.62439100  0.35619900  1
  H  H12  1  0.65395900  0.91424800  0.51192200  1
  H  H13  1  0.34604100  0.08575200  0.48807800  1
  H  H14  1  0.15395900  0.08575200  0.98807800  1
  H  H15  1  0.84604100  0.91424800  0.01192200  1
  H  H16  1  0.47711500  0.96478900  0.75293400  1
  H  H17  1  0.52288500  0.03521100  0.24706600  1
  H  H18  1  0.97711500  0.03521100  0.74706600  1
  H  H19  1  0.02288500  0.96478900  0.25293400  1
  H  H20  1  0.41556600  0.79232800  0.95742400  1
  H  H21  1  0.58443400  0.20767200  0.04257600  1
  H  H22  1  0.91556600  0.20767200  0.54257600  1
  H  H23  1  0.08443400  0.79232800  0.45742400  1
  H  H24  1  0.54667400  0.65343000  0.70018800  1
  H  H25  1  0.45332600  0.34657000  0.29981200  1
  H  H26  1  0.04667400  0.34657000  0.79981200  1
  H  H27  1  0.95332600  0.65343000  0.20018800  1
  H  H28  1  0.76326000  0.87489000  0.87110100  1
  H  H29  1  0.23674000  0.12511000  0.12889900  1
  H  H30  1  0.26326000  0.12511000  0.62889900  1
  H  H31  1  0.73674000  0.87489000  0.37110100  1
  H  H32  1  0.75424900  0.64612800  0.96202000  1
  H  H33  1  0.24575100  0.35387200  0.03798000  1
  H  H34  1  0.25424900  0.35387200  0.53798000  1
  H  H35  1  0.74575100  0.64612800  0.46202000  1
  H  H36  1  0.88129100  0.52010200  0.62048600  1
  H  H37  1  0.11870900  0.47989800  0.37951400  1
  H  H38  1  0.38129100  0.47989800  0.87951400  1
  H  H39  1  0.61870900  0.52010200  0.12048600  1
  H  H40  1  0.26372100  0.82991800  0.86530100  1
  H  H41  1  0.73627900  0.17008200  0.13469900  1
  H  H42  1  0.76372100  0.17008200  0.63469900  1
  H  H43  1  0.23627900  0.82991800  0.36530100  1
  H  H44  1  0.38681600  0.85120800  0.58281900  1
  H  H45  1  0.61318400  0.14879200  0.41718100  1
  H  H46  1  0.88681600  0.14879200  0.91718100  1
  H  H47  1  0.11318400  0.85120800  0.08281900  1
  H  H48  1  0.81339100  0.38290600  0.79916400  1
  H  H49  1  0.18660900  0.61709400  0.20083600  1
  H  H50  1  0.31339100  0.61709400  0.70083600  1
  H  H51  1  0.68660900  0.38290600  0.29916400  1
  H  H52  1  0.59132200  0.82091600  0.64666600  1
  H  H53  1  0.40867800  0.17908400  0.35333400  1
  H  H54  1  0.09132200  0.17908400  0.85333400  1
  H  H55  1  0.90867800  0.82091600  0.14666600  1
  S  S0  1  0.96496400  0.72652300  0.67393600  1
  S  S1  1  0.03503600  0.27347700  0.32606400  1
  S  S2  1  0.46496400  0.27347700  0.82606400  1
  S  S3  1  0.53503600  0.72652300  0.17393600  1
  O  O0  1  0.95723400  0.40486200  0.81737800  1
  O  O1  1  0.04276600  0.59513800  0.18262200  1
  O  O2  1  0.45723400  0.59513800  0.68262200  1
  O  O3  1  0.54276600  0.40486200  0.31737800  1
  O  O4  1  0.78990000  0.47021200  0.56890200  1
  O  O5  1  0.21010000  0.52978800  0.43109800  1
  O  O6  1  0.28990000  0.52978800  0.93109800  1
  O  O7  1  0.71010000  0.47021200  0.06890200  1
  O  O8  1  0.60314600  0.18828600  0.77719300  1
  O  O9  1  0.39685400  0.81171400  0.22280700  1
  O  O10  1  0.10314600  0.81171400  0.72280700  1
  O  O11  1  0.89685400  0.18828600  0.27719300  1
  O  O12  1  0.51920800  0.87528500  0.62253600  1
  O  O13  1  0.48079200  0.12471500  0.37746400  1
  O  O14  1  0.01920800  0.12471500  0.87746400  1
  O  O15  1  0.98079200  0.87528500  0.12253600  1
  O  O16  1  0.77088200  0.93398300  0.94220000  1
  O  O17  1  0.22911800  0.06601700  0.05780000  1
  O  O18  1  0.27088200  0.06601700  0.55780000  1
  O  O19  1  0.72911800  0.93398300  0.44220000  1
  O  O20  1  0.53703000  0.35995600  0.78301100  1
  O  O21  1  0.46297000  0.64004400  0.21699000  1
  O  O22  1  0.03703000  0.64004400  0.71698900  1
  O  O23  1  0.96297000  0.35995600  0.28301000  1
  O  O24  1  0.94679300  0.97962000  0.67095900  1
  O  O25  1  0.05320700  0.02038000  0.32904100  1
  O  O26  1  0.44679300  0.02038000  0.82904100  1
  O  O27  1  0.55320700  0.97962000  0.17095900  1
  O  O28  1  0.96766300  0.69933100  0.53182600  1
  O  O29  1  0.03233700  0.30066900  0.46817400  1
  O  O30  1  0.46766300  0.30066900  0.96817400  1
  O  O31  1  0.53233700  0.69933100  0.03182600  1
  O  O32  1  0.89087100  0.61556300  0.93913000  1
  O  O33  1  0.10912900  0.38443700  0.06087000  1
  O  O34  1  0.39087100  0.38443700  0.56087000  1
  O  O35  1  0.60912900  0.61556300  0.43913000  1
  O  O36  1  0.75067800  0.75212600  0.72138900  1
  O  O37  1  0.24932200  0.24787400  0.27861100  1
  O  O38  1  0.25067800  0.24787400  0.77861100  1
  O  O39  1  0.74932200  0.75212600  0.22138900  1
  O  O40  1  0.32977200  0.84777800  0.94913300  1
  O  O41  1  0.67022800  0.15222200  0.05086700  1
  O  O42  1  0.82977200  0.15222200  0.55086700  1
  O  O43  1  0.17022800  0.84777800  0.44913300  1
loop_
_geom_bond_atom_site_label_1
_geom_bond_atom_site_label_2
_geom_bond_distance
_geom_bond_site_symmetry_2
Co0 O33 2.044379 1_555
Co0 O32 2.044379 1_454
Co0 O6 2.114948 1_554
Co0 O7 2.114948 1_455
Co0 O1 2.117722 1_555
Co0 O0 2.117722 1_454
Co1 O35 2.044379 1_555
Co1 O34 2.044379 1_555
Co1 O5 2.114948 1_555
Co1 O4 2.114948 1_555
Co1 O2 2.117722 1_555
Co1 O3 2.117722 1_555
Cu0 O24 1.995822 1_445
Cu0 O25 1.995822 1_555
Cu0 O18 2.018515 1_555
Cu0 O19 2.018515 1_445
Cu0 O42 2.354346 1_455
Cu0 O43 2.354346 1_545
Cu1 O27 1.995822 1_545
Cu1 O26 1.995822 1_554
Cu1 O17 2.018515 1_555
Cu1 O16 2.018515 1_544
Cu1 O41 2.354346 1_555
Cu1 O40 2.354346 1_544
H0 O6 0.986417 1_555
H1 O7 0.986417 1_555
H2 O4 0.986417 1_555
H3 O5 0.986417 1_555
H4 O27 0.992753 1_555
H5 O26 0.992753 1_555
H6 O25 0.992753 1_655
H7 O24 0.992753 1_455
H8 O32 0.991518 1_555
H9 O33 0.991518 1_555
H10 O34 0.991518 1_555
H11 O35 0.991518 1_555
H12 O19 1.004940 1_555
H13 O18 1.004940 1_555
H14 O17 1.004940 1_556
H15 O16 1.004940 1_554
H16 O26 1.005067 1_565
H17 O27 1.005067 1_545
H18 O24 1.005067 1_545
H19 O25 1.005067 1_565
H20 O40 0.985396 1_555
H21 O41 0.985396 1_555
H22 O42 0.985396 1_555
H23 O43 0.985396 1_555
H24 O2 0.986035 1_555
H25 O3 0.986035 1_555
H26 O0 0.986035 1_455
H27 O1 0.986035 1_655
H28 O16 0.983816 1_555
H29 O17 0.983816 1_555
H30 O18 0.983816 1_555
H31 O19 0.983816 1_555
H32 O32 0.992138 1_555
H32 O31 1.714101 1_556
H33 O33 0.992138 1_555
H33 O30 1.714101 1_554
H34 O34 0.992138 1_555
H34 O29 1.714101 1_555
H35 O35 0.992138 1_555
H35 O28 1.714101 1_555
H36 O4 0.981394 1_555
H37 O5 0.981394 1_555
H38 O6 0.981394 1_555
H39 O7 0.981394 1_555
H40 O40 0.984995 1_555
H41 O41 0.984995 1_555
H42 O42 0.984995 1_555
H43 O43 0.984995 1_555
H44 O12 0.985347 1_555
H45 O13 0.985347 1_555
H46 O14 0.985347 1_655
H47 O15 0.985347 1_455
H48 O0 0.990429 1_555
H49 O1 0.990429 1_555
H50 O2 0.990429 1_555
H51 O3 0.990429 1_555
H52 O12 0.992796 1_555
H53 O13 0.992796 1_555
H54 O14 0.992796 1_555
H55 O15 0.992796 1_555
O8 S2 1.486692 1_555
O9 S3 1.486692 1_555
O10 S0 1.486692 1_455
O11 S1 1.486692 1_655
O20 S2 1.494690 1_555
O21 S3 1.494696 1_555
O22 S0 1.494690 1_455
O23 S1 1.494696 1_655
O28 S0 1.502233 1_555
O29 S1 1.502233 1_555
O30 S2 1.502233 1_555
O31 S3 1.502233 1_555
O36 S0 1.499840 1_555
O37 S1 1.499840 1_555
O38 S2 1.499840 1_555
O39 S3 1.499840 1_555
