# generated using pymatgen
data_Sr2GdCu2RuO8
_symmetry_space_group_name_H-M   'P 1'
_cell_length_a   3.89371218
_cell_length_b   3.89371218
_cell_length_c   11.57097900
_cell_angle_alpha   90.11089192
_cell_angle_beta   89.88910808
_cell_angle_gamma   90.12686613
_symmetry_Int_Tables_number   1
_chemical_formula_structural   Sr2GdCu2RuO8
_chemical_formula_sum   'Sr2 Gd1 Cu2 Ru1 O8'
_cell_volume   175.42646337
_cell_formula_units_Z   1
loop_
 _symmetry_equiv_pos_site_id
 _symmetry_equiv_pos_as_xyz
  1  'x, y, z'
loop_
 _atom_site_type_symbol
 _atom_site_label
 _atom_site_symmetry_multiplicity
 _atom_site_fract_x
 _atom_site_fract_y
 _atom_site_fract_z
 _atom_site_occupancy
  Sr  Sr0  1  0.49969200  0.50066300  0.68928600  1
  Sr  Sr1  1  0.50066300  0.49969200  0.31071400  1
  Gd  Gd0  1  0.50018800  0.50018800  0.00000000  1
  Cu  Cu0  1  0.99974300  0.00030700  0.85686500  1
  Cu  Cu1  1  0.00030700  0.99974300  0.14313500  1
  Ru  Ru0  1  0.98191900  0.98191900  0.50000000  1
  O  O0  1  0.49965100  0.99949800  0.87238500  1
  O  O1  1  0.00008200  0.50059800  0.87257700  1
  O  O2  1  0.50059800  0.00008200  0.12742300  1
  O  O3  1  0.99949800  0.49965100  0.12761500  1
  O  O4  1  0.99809800  0.00510100  0.66876800  1
  O  O5  1  0.00510100  0.99809800  0.33123200  1
  O  O6  1  0.48243400  0.95702500  0.50132900  1
  O  O7  1  0.95702500  0.48243400  0.49867100  1
loop_
_geom_bond_atom_site_label_1
_geom_bond_atom_site_label_2
_geom_bond_distance
_geom_bond_site_symmetry_2
Gd0 O2 2.439552 1_565
Gd0 O1 2.439552 1_654
Gd0 O3 2.443360 1_455
Gd0 O0 2.443360 1_544
Gd0 O0 2.443641 1_554
Gd0 O3 2.443641 1_555
Gd0 O2 2.444765 1_555
Gd0 O1 2.444765 1_554
Cu0 O1 1.954552 1_645
Cu0 O0 1.955120 1_645
Cu0 O0 1.955128 1_545
Cu0 O1 1.956102 1_655
Cu0 O4 2.176605 1_555
Cu1 O2 1.954552 1_465
Cu1 O3 1.955120 1_465
Cu1 O3 1.955128 1_455
Cu1 O2 1.956102 1_565
Cu1 O5 2.176605 1_555
O0 Sr0 2.871461 1_555
O0 Sr0 2.883148 1_565
O1 Sr0 2.875135 1_555
O1 Sr0 2.882741 1_455
O2 Sr1 2.875135 1_555
O2 Sr1 2.882741 1_545
O3 Sr1 2.871461 1_555
O3 Sr1 2.883148 1_655
O4 Ru0 1.955852 1_545
O4 Sr0 2.749323 1_555
O4 Sr0 2.752710 1_655
O4 Sr0 2.768295 1_545
O4 Sr0 2.783745 1_645
O5 Ru0 1.955852 1_455
O5 Sr1 2.749323 1_555
O5 Sr1 2.752710 1_565
O5 Sr1 2.768295 1_455
O5 Sr1 2.783745 1_465
O6 Ru0 1.947083 1_555
O6 Ru0 1.951576 1_455
O6 Sr0 2.812126 1_555
O6 Sr1 2.832921 1_555
O6 Sr0 3.032706 1_565
O6 Sr1 3.057975 1_565
O7 Ru0 1.947083 1_555
O7 Ru0 1.951576 1_545
O7 Sr1 2.812126 1_555
O7 Sr0 2.832921 1_555
O7 Sr1 3.032706 1_655
O7 Sr0 3.057975 1_655
