# generated using pymatgen
data_MgNi2
_symmetry_space_group_name_H-M   'P 1'
_cell_length_a   4.76198726
_cell_length_b   4.76198023
_cell_length_c   4.76221229
_cell_angle_alpha   119.99774648
_cell_angle_beta   60.00232905
_cell_angle_gamma   119.99221747
_symmetry_Int_Tables_number   1
_chemical_formula_structural   MgNi2
_chemical_formula_sum   'Mg2 Ni4'
_cell_volume   76.36777714
_cell_formula_units_Z   2
loop_
 _symmetry_equiv_pos_site_id
 _symmetry_equiv_pos_as_xyz
  1  'x, y, z'
loop_
 _atom_site_type_symbol
 _atom_site_label
 _atom_site_symmetry_multiplicity
 _atom_site_fract_x
 _atom_site_fract_y
 _atom_site_fract_z
 _atom_site_occupancy
  Mg  Mg0  1  0.87497232  0.45832789  0.37493128  1
  Mg  Mg1  1  0.12499389  0.20830332  0.62506872  1
  Ni  Ni0  1  0.49996223  0.33336312  0.99997085  1
  Ni  Ni1  1  0.50004671  0.83337871  -0.00000000  1
  Ni  Ni2  1  0.50000174  0.83333374  0.50000000  1
  Ni  Ni3  1  0.00002712  0.83329323  0.00002915  1
loop_
_geom_bond_atom_site_label_1
_geom_bond_atom_site_label_2
_geom_bond_distance
_geom_bond_site_symmetry_2
Mg0 Ni3 2.791402 1_655
Mg0 Ni2 2.791605 1_555
Mg0 Ni1 2.791851 1_545
Mg0 Ni0 2.791855 1_654
Mg0 Ni0 2.792004 1_554
Mg0 Ni1 2.792111 1_556
Mg0 Ni3 2.792214 1_645
Mg0 Ni0 2.792261 1_555
Mg0 Ni2 2.792302 1_545
Mg0 Ni1 2.792364 1_655
Mg0 Ni2 2.792448 1_655
Mg0 Ni3 2.792679 1_656
Mg1 Ni0 2.791405 1_555
Mg1 Ni2 2.791609 1_545
Mg1 Ni1 2.791850 1_446
Mg1 Ni3 2.791854 1_556
Mg1 Ni3 2.791999 1_546
Mg1 Ni1 2.792113 1_545
Mg1 Ni0 2.792217 1_455
Mg1 Ni3 2.792263 1_545
Mg1 Ni2 2.792297 1_445
Mg1 Ni1 2.792366 1_556
Mg1 Ni2 2.792450 1_555
Mg1 Ni0 2.792691 1_554
Ni0 Ni1 2.380794 1_556
Ni0 Ni2 2.381129 1_556
Ni0 Ni2 2.381130 1_545
Ni0 Ni1 2.381186 1_546
Ni0 Ni3 2.381260 1_656
Ni0 Ni3 2.381284 1_546
Ni1 Ni3 2.380814 1_555
Ni1 Ni2 2.381106 1_554
Ni1 Ni2 2.381106 1_555
Ni1 Ni3 2.381173 1_655
Ni2 Ni3 2.381125 1_655
Ni2 Ni3 2.381143 1_556
