# generated using pymatgen
data_Li2V(CO3)2
_symmetry_space_group_name_H-M   'P 1'
_cell_length_a   6.49630599
_cell_length_b   8.71811282
_cell_length_c   9.93523390
_cell_angle_alpha   75.98630224
_cell_angle_beta   77.64825880
_cell_angle_gamma   97.16035764
_symmetry_Int_Tables_number   1
_chemical_formula_structural   Li2V(CO3)2
_chemical_formula_sum   'Li8 V4 C8 O24'
_cell_volume   523.98017083
_cell_formula_units_Z   4
loop_
 _symmetry_equiv_pos_site_id
 _symmetry_equiv_pos_as_xyz
  1  'x, y, z'
loop_
 _atom_site_type_symbol
 _atom_site_label
 _atom_site_symmetry_multiplicity
 _atom_site_fract_x
 _atom_site_fract_y
 _atom_site_fract_z
 _atom_site_occupancy
  Li  Li0  1  0.16677800  0.82955300  0.38090100  1
  Li  Li1  1  0.66675700  0.82945600  0.88099100  1
  Li  Li2  1  0.62023600  0.66599200  0.42045500  1
  Li  Li3  1  0.12049300  0.66625400  0.92036500  1
  Li  Li4  1  0.21429800  0.33213500  0.73070600  1
  Li  Li5  1  0.71424200  0.33208100  0.23075300  1
  Li  Li6  1  0.92277200  0.16929400  0.51941200  1
  Li  Li7  1  0.42282800  0.16930100  0.01945100  1
  V  V0  1  0.31414800  0.49981800  0.18017900  1
  V  V1  1  0.43944400  0.99975400  0.55475000  1
  V  V2  1  0.81397600  0.49992100  0.68025700  1
  V  V3  1  0.93942000  0.99980100  0.05493800  1
  C  C0  1  0.77733500  0.80204700  0.61477100  1
  C  C1  1  0.27737900  0.80191700  0.11494000  1
  C  C2  1  0.24740900  0.69831900  0.64523700  1
  C  C3  1  0.74742000  0.69821400  0.14530400  1
  C  C4  1  0.05079100  0.30157700  0.04461700  1
  C  C5  1  0.55065000  0.30144800  0.54461300  1
  C  C6  1  0.27788800  0.19783300  0.31821900  1
  C  C7  1  0.77794600  0.19788700  0.81818500  1
  O  O0  1  0.22681100  0.80282600  0.71833800  1
  O  O1  1  0.72664500  0.80254300  0.21855500  1
  O  O2  1  0.20358800  0.70122300  0.24162800  1
  O  O3  1  0.70345600  0.70141400  0.74153100  1
  O  O4  1  0.74715600  0.94869500  0.59102600  1
  O  O5  1  0.24713000  0.94860300  0.09137300  1
  O  O6  1  0.37428600  0.75054600  0.51550600  1
  O  O7  1  0.87425200  0.75035800  0.01552000  1
  O  O8  1  0.87807400  0.74479900  0.51425400  1
  O  O9  1  0.37817600  0.74486400  0.01429600  1
  O  O10  1  0.14342000  0.55202600  0.69966600  1
  O  O11  1  0.64345800  0.55191800  0.19979600  1
  O  O12  1  0.17584300  0.29977000  0.36734300  1
  O  O13  1  0.67575200  0.29976700  0.86729800  1
  O  O14  1  0.89904700  0.19838700  0.14366200  1
  O  O15  1  0.39890400  0.19807500  0.64349400  1
  O  O16  1  0.59537400  0.44791700  0.55050300  1
  O  O17  1  0.09555400  0.44802700  0.05043900  1
  O  O18  1  0.65478600  0.24784000  0.44274200  1
  O  O19  1  0.15501800  0.24799900  0.94271200  1
  O  O20  1  0.25333800  0.05130700  0.39523800  1
  O  O21  1  0.75356400  0.05131900  0.89511400  1
  O  O22  1  0.90758400  0.25355000  0.68939200  1
  O  O23  1  0.40770100  0.25345800  0.18947500  1
loop_
_geom_bond_atom_site_label_1
_geom_bond_atom_site_label_2
_geom_bond_distance
_geom_bond_site_symmetry_2
Li0 O2 1.974443 1_555
Li0 O8 1.983979 1_455
Li0 O20 1.992655 1_565
Li0 O6 2.153304 1_555
Li1 O3 1.974037 1_555
Li1 O9 1.983065 1_556
Li1 O21 1.993065 1_565
Li1 O7 2.152922 1_556
Li2 O16 1.988607 1_555
Li2 O1 1.990951 1_555
Li2 O6 1.993310 1_555
Li2 O8 2.199346 1_555
Li3 O17 1.989667 1_556
Li3 O0 1.991969 1_555
Li3 O7 1.992837 1_456
Li3 O9 2.198847 1_556
Li4 O15 1.987530 1_555
Li4 O19 1.989284 1_555
Li4 O10 1.994145 1_555
Li4 O22 2.180306 1_455
Li5 O14 1.985293 1_555
Li5 O18 1.989118 1_555
Li5 O11 1.993486 1_555
Li5 O23 2.179194 1_555
Li6 O12 1.979443 1_655
Li6 O22 1.987181 1_555
Li6 O4 1.987348 1_545
Li6 O18 2.166072 1_555
Li7 O13 1.979222 1_554
Li7 O23 1.987119 1_555
Li7 O5 1.988252 1_545
Li7 O19 2.165768 1_554
C0 O4 1.290286 1_555
C0 O3 1.299016 1_555
C0 O8 1.310689 1_555
C1 O5 1.290793 1_555
C1 O2 1.298661 1_555
C1 O9 1.310711 1_555
C2 O10 1.292412 1_555
C2 O0 1.297990 1_555
C2 O6 1.309837 1_555
C3 O11 1.292422 1_555
C3 O1 1.297808 1_555
C3 O7 1.310108 1_555
C4 O17 1.291685 1_555
C4 O14 1.297911 1_455
C4 O19 1.310071 1_554
C5 O16 1.292042 1_555
C5 O15 1.297885 1_555
C5 O18 1.309743 1_555
C6 O20 1.290888 1_555
C6 O12 1.298442 1_555
C6 O23 1.310950 1_555
C7 O21 1.291038 1_555
C7 O13 1.298477 1_555
C7 O22 1.310891 1_555
O0 V1 2.143380 1_555
O1 V3 2.145401 1_555
O2 V0 2.148866 1_555
O3 V2 2.148767 1_555
O4 V1 2.185491 1_555
O5 V3 2.186307 1_455
O6 V1 2.302844 1_555
O7 V3 2.305576 1_555
O8 V2 2.287033 1_555
O9 V0 2.287609 1_555
O10 V2 2.191000 1_455
O11 V0 2.190870 1_555
O12 V0 2.151901 1_555
O13 V2 2.151633 1_555
O14 V3 2.143969 1_545
O15 V1 2.142101 1_545
O16 V2 2.188584 1_555
O17 V0 2.187938 1_555
O18 V1 2.299413 1_545
O19 V3 2.301061 1_446
O20 V1 2.187570 1_545
O21 V3 2.188809 1_546
O22 V2 2.290475 1_555
O23 V0 2.290035 1_555
