# generated using pymatgen
data_SmMg2V3S8
_symmetry_space_group_name_H-M   'P 1'
_cell_length_a   7.52417429
_cell_length_b   7.52500692
_cell_length_c   7.53805910
_cell_angle_alpha   58.54249801
_cell_angle_beta   58.56006213
_cell_angle_gamma   58.47845755
_symmetry_Int_Tables_number   1
_chemical_formula_structural   SmMg2V3S8
_chemical_formula_sum   'Sm1 Mg2 V3 S8'
_cell_volume   291.62573965
_cell_formula_units_Z   1
loop_
 _symmetry_equiv_pos_site_id
 _symmetry_equiv_pos_as_xyz
  1  'x, y, z'
loop_
 _atom_site_type_symbol
 _atom_site_label
 _atom_site_symmetry_multiplicity
 _atom_site_fract_x
 _atom_site_fract_y
 _atom_site_fract_z
 _atom_site_occupancy
  Sm  Sm0  1  0.49998500  0.50000200  0.50000300  1
  Mg  Mg0  1  0.87185300  0.87324400  0.87326700  1
  Mg  Mg1  1  0.12814500  0.12679800  0.12670700  1
  V  V0  1  0.49989400  0.50003400  0.00003800  1
  V  V1  1  0.00000900  0.49998400  0.50001300  1
  V  V2  1  0.50010900  0.99995400  0.49995200  1
  S  S0  1  0.73888000  0.73786600  0.73954600  1
  S  S1  1  0.24221900  0.24050100  0.72388700  1
  S  S2  1  0.24205600  0.72271700  0.24158600  1
  S  S3  1  0.72418300  0.24110400  0.24127900  1
  S  S4  1  0.75785200  0.27733200  0.75847500  1
  S  S5  1  0.27581900  0.75897300  0.75865500  1
  S  S6  1  0.26113600  0.26206100  0.26052000  1
  S  S7  1  0.75786300  0.75942500  0.27607300  1
loop_
_geom_bond_atom_site_label_1
_geom_bond_atom_site_label_2
_geom_bond_distance
_geom_bond_site_symmetry_2
Mg0 S7 2.454743 1_556
Mg0 S5 2.455088 1_655
Mg0 S4 2.455913 1_565
Mg0 S0 2.498899 1_555
Mg1 S1 2.454863 1_554
Mg1 S3 2.455065 1_455
Mg1 S2 2.455871 1_545
Mg1 S6 2.498866 1_555
S0 V0 2.511135 1_556
S0 V1 2.513946 1_655
S0 V2 2.518217 1_555
S1 V2 2.447584 1_545
S1 V1 2.455615 1_555
S1 Sm0 2.743873 1_555
S2 V0 2.446878 1_555
S2 V1 2.450246 1_555
S2 Sm0 2.739535 1_555
S3 V2 2.452347 1_545
S3 V0 2.452824 1_555
S3 Sm0 2.746259 1_555
S4 V0 2.447092 1_556
S4 V1 2.450427 1_655
S4 Sm0 2.739540 1_555
S5 V0 2.452500 1_556
S5 V2 2.452561 1_555
S5 Sm0 2.746294 1_555
S6 V0 2.510685 1_555
S6 V1 2.513949 1_555
S6 V2 2.518422 1_545
S7 V2 2.447165 1_555
S7 V1 2.455598 1_655
S7 Sm0 2.744023 1_555
