# generated using pymatgen
data_NaHo(PO3)4
_symmetry_space_group_name_H-M   'P 1'
_cell_length_a   13.16185200
_cell_length_b   7.24072000
_cell_length_c   12.16380191
_cell_angle_alpha   53.66582500
_cell_angle_beta   90.00000000
_cell_angle_gamma   90.00000000
_symmetry_Int_Tables_number   1
_chemical_formula_structural   NaHo(PO3)4
_chemical_formula_sum   'Na4 Ho4 P16 O48'
_cell_volume   933.84347316
_cell_formula_units_Z   4
loop_
 _symmetry_equiv_pos_site_id
 _symmetry_equiv_pos_as_xyz
  1  'x, y, z'
loop_
 _atom_site_type_symbol
 _atom_site_label
 _atom_site_symmetry_multiplicity
 _atom_site_fract_x
 _atom_site_fract_y
 _atom_site_fract_z
 _atom_site_occupancy
  Na  Na0  1  0.72237500  0.56348100  0.93694000  1
  Na  Na1  1  0.77762500  0.56348100  0.43694000  1
  Na  Na2  1  0.27762500  0.43651900  0.06306000  1
  Na  Na3  1  0.22237500  0.43651900  0.56306000  1
  Ho  Ho0  1  0.71944400  0.96436400  0.02295600  1
  Ho  Ho1  1  0.78055600  0.96436400  0.52295600  1
  Ho  Ho2  1  0.28055600  0.03563600  0.97704400  1
  Ho  Ho3  1  0.21944400  0.03563600  0.47704400  1
  P  P0  1  0.87159100  0.15466000  0.19755500  1
  P  P1  1  0.62840900  0.15466000  0.69755500  1
  P  P2  1  0.12840900  0.84534000  0.80244500  1
  P  P3  1  0.37159100  0.84534000  0.30244500  1
  P  P4  1  0.89736200  0.49394600  0.25525900  1
  P  P5  1  0.60263800  0.49394600  0.75525900  1
  P  P6  1  0.10263800  0.50605400  0.74474100  1
  P  P7  1  0.39736200  0.50605400  0.24474100  1
  P  P8  1  0.11539200  0.61180300  0.26284000  1
  P  P9  1  0.38460800  0.61180300  0.76284000  1
  P  P10  1  0.88460800  0.38819700  0.73716000  1
  P  P11  1  0.61539200  0.38819700  0.23716000  1
  P  P12  1  0.09189700  0.06609600  0.20138500  1
  P  P13  1  0.40810300  0.06609600  0.70138500  1
  P  P14  1  0.90810300  0.93390400  0.79861500  1
  P  P15  1  0.59189700  0.93390400  0.29861500  1
  O  O0  1  0.64850900  0.60218100  0.10331000  1
  O  O1  1  0.85149100  0.60218100  0.60331000  1
  O  O2  1  0.35149100  0.39781900  0.89669000  1
  O  O3  1  0.14850900  0.39781900  0.39669000  1
  O  O4  1  0.61065400  0.30493300  0.90575900  1
  O  O5  1  0.88934600  0.30493300  0.40575900  1
  O  O6  1  0.38934600  0.69506700  0.09424100  1
  O  O7  1  0.11065400  0.69506700  0.59424100  1
  O  O8  1  0.78990000  0.16944500  0.10626100  1
  O  O9  1  0.71010000  0.16944500  0.60626100  1
  O  O10  1  0.21010000  0.83055500  0.89373900  1
  O  O11  1  0.28990000  0.83055500  0.39373900  1
  O  O12  1  0.86580700  0.97599500  0.34879300  1
  O  O13  1  0.63419300  0.97599500  0.84879300  1
  O  O14  1  0.13419300  0.02400500  0.65120700  1
  O  O15  1  0.36580700  0.02400500  0.15120700  1
  O  O16  1  0.97895100  0.14553400  0.13723000  1
  O  O17  1  0.52104900  0.14553400  0.63723000  1
  O  O18  1  0.02104900  0.85446600  0.86277000  1
  O  O19  1  0.47895100  0.85446600  0.36277000  1
  O  O20  1  0.87441200  0.40634500  0.16360200  1
  O  O21  1  0.62558800  0.40634500  0.66360200  1
  O  O22  1  0.12558800  0.59365500  0.83639800  1
  O  O23  1  0.37441200  0.59365500  0.33639800  1
  O  O24  1  0.83323200  0.70490300  0.20058500  1
  O  O25  1  0.66676800  0.70490300  0.70058500  1
  O  O26  1  0.16676800  0.29509700  0.79941500  1
  O  O27  1  0.33323200  0.29509700  0.29941500  1
  O  O28  1  0.01278000  0.57396800  0.20862500  1
  O  O29  1  0.48722000  0.57396800  0.70862500  1
  O  O30  1  0.98722000  0.42603200  0.79137500  1
  O  O31  1  0.51278000  0.42603200  0.29137500  1
  O  O32  1  0.08104200  0.79006700  0.29419600  1
  O  O33  1  0.41895800  0.79006700  0.79419600  1
  O  O34  1  0.91895800  0.20993300  0.70580400  1
  O  O35  1  0.58104200  0.20993300  0.20580400  1
  O  O36  1  0.18857800  0.72300400  0.14601900  1
  O  O37  1  0.31142200  0.72300400  0.64601900  1
  O  O38  1  0.81142200  0.27699600  0.85398100  1
  O  O39  1  0.68857800  0.27699600  0.35398100  1
  O  O40  1  0.11295100  0.13093000  0.29592200  1
  O  O41  1  0.38704900  0.13093000  0.79592200  1
  O  O42  1  0.88704900  0.86907000  0.70407800  1
  O  O43  1  0.61295100  0.86907000  0.20407800  1
  O  O44  1  0.16264300  0.15350800  0.08331000  1
  O  O45  1  0.33735700  0.15350800  0.58331000  1
  O  O46  1  0.83735700  0.84649200  0.91669000  1
  O  O47  1  0.66264300  0.84649200  0.41669000  1
loop_
_geom_bond_atom_site_label_1
_geom_bond_atom_site_label_2
_geom_bond_distance
_geom_bond_site_symmetry_2
Na0 O0 2.406454 1_556
Na0 O46 2.439690 1_555
Na0 O8 2.491735 1_556
Na0 O25 2.522133 1_555
Na0 O4 2.579174 1_555
Na0 O13 2.761027 1_555
Na1 O1 2.406454 1_555
Na1 O47 2.439690 1_555
Na1 O9 2.491735 1_555
Na1 O24 2.522133 1_555
Na1 O5 2.579174 1_555
Na1 O12 2.761027 1_555
Na2 O2 2.406454 1_554
Na2 O44 2.439690 1_555
Na2 O10 2.491735 1_554
Na2 O27 2.522133 1_555
Na2 O6 2.579174 1_555
Na2 O15 2.761027 1_555
Na3 O3 2.406454 1_555
Na3 O45 2.439690 1_555
Na3 O11 2.491735 1_555
Na3 O26 2.522133 1_555
Na3 O7 2.579174 1_555
Na3 O14 2.761027 1_555
Ho0 O38 2.302383 1_564
Ho0 O43 2.343743 1_555
Ho0 O13 2.354288 1_554
Ho0 O24 2.372923 1_555
Ho0 O0 2.380534 1_555
Ho0 O8 2.423799 1_565
Ho0 O4 2.449040 1_564
Ho0 O46 2.472869 1_554
Ho1 O39 2.302383 1_565
Ho1 O42 2.343743 1_555
Ho1 O12 2.354288 1_555
Ho1 O25 2.372923 1_555
Ho1 O1 2.380534 1_555
Ho1 O9 2.423799 1_565
Ho1 O5 2.449040 1_565
Ho1 O47 2.472869 1_555
Ho2 O36 2.302383 1_546
Ho2 O41 2.343743 1_555
Ho2 O15 2.354288 1_556
Ho2 O26 2.372923 1_555
Ho2 O2 2.380534 1_555
Ho2 O10 2.423799 1_545
Ho2 O6 2.449040 1_546
Ho2 O44 2.472869 1_556
Ho3 O37 2.302383 1_545
Ho3 O40 2.343743 1_555
Ho3 O14 2.354288 1_555
Ho3 O27 2.372923 1_555
Ho3 O3 2.380534 1_555
Ho3 O11 2.423799 1_545
Ho3 O7 2.449040 1_545
Ho3 O45 2.472869 1_555
O0 P11 1.500717 1_555
O1 P10 1.500717 1_555
O2 P9 1.500717 1_555
O3 P8 1.500717 1_555
O4 P5 1.505515 1_555
O5 P4 1.505515 1_555
O6 P7 1.505515 1_555
O7 P6 1.505515 1_555
O8 P0 1.503271 1_555
O9 P1 1.503271 1_555
O10 P2 1.503271 1_555
O11 P3 1.503271 1_555
O12 P0 1.497828 1_565
O13 P1 1.497828 1_565
O14 P2 1.497828 1_545
O15 P3 1.497828 1_545
O16 P0 1.611517 1_555
O16 P12 1.617974 1_655
O17 P1 1.611517 1_555
O17 P13 1.617974 1_555
O18 P2 1.611517 1_555
O18 P14 1.617974 1_455
O19 P3 1.611517 1_555
O19 P15 1.617974 1_555
O20 P4 1.604544 1_555
O20 P0 1.612808 1_555
O21 P5 1.604544 1_555
O21 P1 1.612808 1_555
O22 P6 1.604544 1_555
O22 P2 1.612808 1_555
O23 P7 1.604544 1_555
O23 P3 1.612808 1_555
O24 P4 1.511348 1_555
O25 P5 1.511348 1_555
O26 P6 1.511348 1_555
O27 P7 1.511348 1_555
O28 P8 1.596259 1_555
O28 P4 1.604908 1_455
O29 P9 1.596259 1_555
O29 P5 1.604908 1_555
O30 P10 1.596259 1_555
O30 P6 1.604908 1_655
O31 P11 1.596259 1_555
O31 P7 1.604908 1_555
O32 P8 1.612238 1_555
O32 P12 1.617332 1_565
O33 P9 1.612238 1_555
O33 P13 1.617332 1_565
O34 P10 1.612238 1_555
O34 P14 1.617332 1_545
O35 P11 1.612238 1_555
O35 P15 1.617332 1_545
O36 P8 1.496527 1_555
O37 P9 1.496527 1_555
O38 P10 1.496527 1_555
O39 P11 1.496527 1_555
O40 P12 1.503062 1_555
O41 P13 1.503062 1_555
O42 P14 1.503062 1_555
O43 P15 1.503062 1_555
O44 P12 1.501075 1_555
O45 P13 1.501075 1_555
O46 P14 1.501075 1_555
O47 P15 1.501075 1_555
