# generated using pymatgen
data_LaCeF6
_symmetry_space_group_name_H-M   'P 1'
_cell_length_a   4.21050632
_cell_length_b   4.21050632
_cell_length_c   7.42123400
_cell_angle_alpha   90.00000000
_cell_angle_beta   90.00000000
_cell_angle_gamma   121.94995672
_symmetry_Int_Tables_number   1
_chemical_formula_structural   LaCeF6
_chemical_formula_sum   'La1 Ce1 F6'
_cell_volume   111.63543073
_cell_formula_units_Z   1
loop_
 _symmetry_equiv_pos_site_id
 _symmetry_equiv_pos_as_xyz
  1  'x, y, z'
loop_
 _atom_site_type_symbol
 _atom_site_label
 _atom_site_symmetry_multiplicity
 _atom_site_fract_x
 _atom_site_fract_y
 _atom_site_fract_z
 _atom_site_occupancy
  La  La0  1  0.67042300  0.32957700  0.00000000  1
  Ce  Ce0  1  0.32778400  0.67221600  0.50000000  1
  F  F0  1  0.00056100  0.99943900  0.00000000  1
  F  F1  1  0.99924500  0.00075500  0.50000000  1
  F  F2  1  0.66780700  0.33219300  0.67027400  1
  F  F3  1  0.33318700  0.66681300  0.82743900  1
  F  F4  1  0.33318700  0.66681300  0.17256100  1
  F  F5  1  0.66780700  0.33219300  0.32972600  1
loop_
_geom_bond_atom_site_label_1
_geom_bond_atom_site_label_2
_geom_bond_distance
_geom_bond_site_symmetry_2
Ce0 F1 2.401551 1_455
Ce0 F1 2.401551 1_565
Ce0 F1 2.419164 1_465
Ce0 F3 2.430327 1_555
Ce0 F4 2.430327 1_555
Ce0 F2 2.675419 1_565
Ce0 F2 2.675419 1_455
Ce0 F5 2.675419 1_455
Ce0 F5 2.675419 1_565
Ce0 F2 2.804538 1_555
Ce0 F5 2.804538 1_555
F0 La0 2.395382 1_455
F0 La0 2.395382 1_565
F0 La0 2.430938 1_465
F2 La0 2.447050 1_556
F3 La0 2.692549 1_566
F3 La0 2.692549 1_456
F3 La0 2.793971 1_556
F4 La0 2.692549 1_455
F4 La0 2.692549 1_565
F4 La0 2.793971 1_555
F5 La0 2.447050 1_555
