# generated using pymatgen
data_Li2Mn3TeO8
_symmetry_space_group_name_H-M   'P 1'
_cell_length_a   6.12991720
_cell_length_b   6.12850672
_cell_length_c   10.90494151
_cell_angle_alpha   89.59335963
_cell_angle_beta   73.51723232
_cell_angle_gamma   120.87295609
_symmetry_Int_Tables_number   1
_chemical_formula_structural   Li2Mn3TeO8
_chemical_formula_sum   'Li4 Mn6 Te2 O16'
_cell_volume   331.31861804
_cell_formula_units_Z   2
loop_
 _symmetry_equiv_pos_site_id
 _symmetry_equiv_pos_as_xyz
  1  'x, y, z'
loop_
 _atom_site_type_symbol
 _atom_site_label
 _atom_site_symmetry_multiplicity
 _atom_site_fract_x
 _atom_site_fract_y
 _atom_site_fract_z
 _atom_site_occupancy
  Li  Li0  1  0.86699700  0.93933800  0.21043500  1
  Li  Li1  1  0.86844800  0.43100700  0.71038900  1
  Li  Li2  1  0.13154200  0.56902100  0.28953600  1
  Li  Li3  1  0.13301000  0.06077400  0.78951200  1
  Mn  Mn0  1  0.49998200  0.49990100  0.00000400  1
  Mn  Mn1  1  0.50009900  0.50015000  0.50001900  1
  Mn  Mn2  1  0.50012900  0.99960200  0.00011400  1
  Mn  Mn3  1  0.99998000  0.99987200  0.50001200  1
  Mn  Mn4  1  0.00008400  0.50026800  0.99995500  1
  Mn  Mn5  1  0.50006000  0.99983200  0.50009100  1
  Te  Te0  1  0.50375500  0.74217500  0.75012600  1
  Te  Te1  1  0.49612900  0.25787200  0.24994100  1
  O  O0  1  0.74328200  0.85425600  0.40774800  1
  O  O1  1  0.74158600  0.39470400  0.90861100  1
  O  O2  1  0.25847600  0.60506900  0.09136600  1
  O  O3  1  0.25679200  0.14588100  0.59217000  1
  O  O4  1  0.71802100  0.08463000  0.64220700  1
  O  O5  1  0.71758400  0.59999700  0.13823300  1
  O  O6  1  0.75036900  0.65654200  0.63089500  1
  O  O7  1  0.74125000  0.16833700  0.13434100  1
  O  O8  1  0.28688900  0.61931200  0.63305100  1
  O  O9  1  0.28027900  0.14839100  0.13348000  1
  O  O10  1  0.71963300  0.85136600  0.86653600  1
  O  O11  1  0.71317600  0.38097300  0.36688100  1
  O  O12  1  0.25869800  0.83179800  0.86572200  1
  O  O13  1  0.24956100  0.34345700  0.36907700  1
  O  O14  1  0.28235000  0.40008400  0.86172700  1
  O  O15  1  0.28184000  0.91539500  0.35782100  1
loop_
_geom_bond_atom_site_label_1
_geom_bond_atom_site_label_2
_geom_bond_distance
_geom_bond_site_symmetry_2
Li0 O0 2.032009 1_555
Li0 O9 2.052082 1_665
Li0 O5 2.064322 1_555
Li0 O7 2.170013 1_565
Li1 O1 2.046581 1_555
Li1 O4 2.076505 1_555
Li1 O8 2.084011 1_655
Li1 O6 2.133453 1_555
Li2 O2 2.046202 1_555
Li2 O15 2.077026 1_555
Li2 O11 2.083760 1_455
Li2 O13 2.133565 1_555
Li3 O3 2.032295 1_555
Li3 O10 2.052563 1_445
Li3 O14 2.064230 1_555
Li3 O12 2.170215 1_545
Mn0 O2 1.936756 1_555
Mn0 O1 1.937461 1_554
Mn0 O10 2.106630 1_554
Mn0 O9 2.106838 1_555
Mn0 O5 2.177630 1_555
Mn0 O14 2.178255 1_554
Mn1 O0 1.934421 1_555
Mn1 O3 1.934795 1_555
Mn1 O8 2.065109 1_555
Mn1 O11 2.065278 1_555
Mn1 O6 2.249871 1_555
Mn1 O13 2.251675 1_555
Mn2 O2 2.117633 1_555
Mn2 O1 2.121099 1_564
Mn2 O10 2.217818 1_554
Mn2 O9 2.220493 1_565
Mn2 O7 2.253237 1_565
Mn2 O12 2.255182 1_554
Mn3 O3 1.937460 1_665
Mn3 O0 1.937710 1_555
Mn3 O6 2.054168 1_555
Mn3 O13 2.055431 1_665
Mn3 O15 2.250936 1_655
Mn3 O4 2.252459 1_565
Mn4 O1 1.942774 1_455
Mn4 O2 1.943193 1_556
Mn4 O12 2.029630 1_555
Mn4 O7 2.031999 1_456
Mn4 O5 2.294268 1_456
Mn4 O14 2.294851 1_555
Mn5 O0 2.135127 1_555
Mn5 O3 2.136814 1_565
Mn5 O4 2.220539 1_565
Mn5 O15 2.223236 1_555
Mn5 O8 2.235538 1_555
Mn5 O11 2.239692 1_565
O4 Te0 1.942584 1_545
O5 Te1 1.956337 1_555
O6 Te0 1.989922 1_555
O7 Te1 1.982188 1_555
O8 Te0 1.978281 1_555
O9 Te1 1.966808 1_555
O10 Te0 1.966459 1_555
O11 Te1 1.977838 1_555
O12 Te0 1.982248 1_555
O13 Te1 1.989072 1_555
O14 Te0 1.955711 1_555
O15 Te1 1.942502 1_565
