# generated using pymatgen
data_Ca(B2O5)3
_symmetry_space_group_name_H-M   'P 1'
_cell_length_a   14.51730100
_cell_length_b   6.60061900
_cell_length_c   13.06134378
_cell_angle_alpha   60.62658545
_cell_angle_beta   90.00000000
_cell_angle_gamma   90.00000000
_symmetry_Int_Tables_number   1
_chemical_formula_structural   Ca(B2O5)3
_chemical_formula_sum   'Ca4 B24 O60'
_cell_volume   1090.67823008
_cell_formula_units_Z   4
loop_
 _symmetry_equiv_pos_site_id
 _symmetry_equiv_pos_as_xyz
  1  'x, y, z'
loop_
 _atom_site_type_symbol
 _atom_site_label
 _atom_site_symmetry_multiplicity
 _atom_site_fract_x
 _atom_site_fract_y
 _atom_site_fract_z
 _atom_site_occupancy
  Ca  Ca0  1  0.78553000  0.34492400  0.29983100  1
  Ca  Ca1  1  0.28553000  0.65507600  0.20016900  1
  Ca  Ca2  1  0.21447000  0.65507600  0.70016900  1
  Ca  Ca3  1  0.71447000  0.34492400  0.79983100  1
  B  B0  1  0.73748000  0.72242200  0.86451400  1
  B  B1  1  0.23748000  0.27757800  0.63548600  1
  B  B2  1  0.26252000  0.27757800  0.13548600  1
  B  B3  1  0.76252000  0.72242200  0.36451400  1
  B  B4  1  0.80891600  0.42060400  0.04882600  1
  B  B5  1  0.30891600  0.57939600  0.45117400  1
  B  B6  1  0.19108400  0.57939600  0.95117400  1
  B  B7  1  0.69108400  0.42060400  0.54882600  1
  B  B8  1  0.77672900  0.81857400  0.01489700  1
  B  B9  1  0.27672900  0.18142600  0.48510300  1
  B  B10  1  0.22327100  0.18142600  0.98510300  1
  B  B11  1  0.72327100  0.81857400  0.51489700  1
  B  B12  1  0.81493500  0.98381200  0.15050000  1
  B  B13  1  0.31493500  0.01618800  0.34950000  1
  B  B14  1  0.18506500  0.01618800  0.84950000  1
  B  B15  1  0.68506500  0.98381200  0.65050000  1
  B  B16  1  0.96007300  0.21157600  0.08469100  1
  B  B17  1  0.46007300  0.78842400  0.41530900  1
  B  B18  1  0.03992700  0.78842400  0.91530900  1
  B  B19  1  0.53992700  0.21157600  0.58469100  1
  B  B20  1  0.52581800  0.46943300  0.24091400  1
  B  B21  1  0.02581800  0.53056700  0.25908600  1
  B  B22  1  0.47418200  0.53056700  0.75908600  1
  B  B23  1  0.97418200  0.46943300  0.74091400  1
  O  O0  1  0.78491000  0.77146300  0.25382700  1
  O  O1  1  0.28491000  0.22853700  0.24617300  1
  O  O2  1  0.21509000  0.22853700  0.74617300  1
  O  O3  1  0.71509000  0.77146300  0.75382700  1
  O  O4  1  0.75503100  0.48964900  0.94070400  1
  O  O5  1  0.25503100  0.51035100  0.55929600  1
  O  O6  1  0.24496900  0.51035100  0.05929600  1
  O  O7  1  0.74496900  0.48964900  0.44070400  1
  O  O8  1  0.74265100  0.88826900  0.90112700  1
  O  O9  1  0.24265100  0.11173100  0.59887300  1
  O  O10  1  0.25734900  0.11173100  0.09887300  1
  O  O11  1  0.75734900  0.88826900  0.40112700  1
  O  O12  1  0.79662400  0.59014900  0.09000000  1
  O  O13  1  0.29662400  0.40985100  0.41000000  1
  O  O14  1  0.20337600  0.40985100  0.91000000  1
  O  O15  1  0.70337600  0.59014900  0.59000000  1
  O  O16  1  0.90779500  0.40832800  0.02199700  1
  O  O17  1  0.40779500  0.59167200  0.47800300  1
  O  O18  1  0.09220500  0.59167200  0.97800300  1
  O  O19  1  0.59220500  0.40832800  0.52199700  1
  O  O20  1  0.78312500  0.19622900  0.15023000  1
  O  O21  1  0.28312500  0.80377100  0.34977000  1
  O  O22  1  0.21687500  0.80377100  0.84977000  1
  O  O23  1  0.71687500  0.19622900  0.65023000  1
  O  O24  1  0.78377100  0.99094500  0.04222500  1
  O  O25  1  0.28377100  0.00905500  0.45777500  1
  O  O26  1  0.21622900  0.00905500  0.95777500  1
  O  O27  1  0.71622900  0.99094500  0.54222500  1
  O  O28  1  0.91791900  0.99808200  0.15357600  1
  O  O29  1  0.41791900  0.00191800  0.34642400  1
  O  O30  1  0.08208100  0.00191800  0.84642400  1
  O  O31  1  0.58208100  0.99808200  0.65357600  1
  O  O32  1  0.05445100  0.20992300  0.08291700  1
  O  O33  1  0.55445100  0.79007700  0.41708300  1
  O  O34  1  0.94554900  0.79007700  0.91708300  1
  O  O35  1  0.44554900  0.20992300  0.58291700  1
  O  O36  1  0.59636100  0.29920900  0.29620200  1
  O  O37  1  0.09636100  0.70079100  0.20379800  1
  O  O38  1  0.40363900  0.70079100  0.70379800  1
  O  O39  1  0.90363900  0.29920900  0.79620200  1
  O  O40  1  0.61471300  0.54766500  0.19259600  1
  O  O41  1  0.11471300  0.45233500  0.30740400  1
  O  O42  1  0.38528700  0.45233500  0.80740400  1
  O  O43  1  0.88528700  0.54766500  0.69259600  1
  O  O44  1  0.44120400  0.52634000  0.23644600  1
  O  O45  1  0.94120400  0.47366000  0.26355400  1
  O  O46  1  0.55879600  0.47366000  0.76355400  1
  O  O47  1  0.05879600  0.52634000  0.73644600  1
  O  O48  1  0.92435700  0.13704600  0.45144800  1
  O  O49  1  0.42435700  0.86295400  0.04855200  1
  O  O50  1  0.07564300  0.86295400  0.54855200  1
  O  O51  1  0.57564300  0.13704600  0.95144800  1
  O  O52  1  0.00397300  0.80713100  0.41502200  1
  O  O53  1  0.50397300  0.19286900  0.08497800  1
  O  O54  1  0.99602700  0.19286900  0.58497800  1
  O  O55  1  0.49602700  0.80713100  0.91502200  1
  O  O56  1  0.58056700  0.17170200  0.04188100  1
  O  O57  1  0.08056700  0.82829800  0.45811900  1
  O  O58  1  0.41943300  0.82829800  0.95811900  1
  O  O59  1  0.91943300  0.17170200  0.54188100  1
loop_
_geom_bond_atom_site_label_1
_geom_bond_atom_site_label_2
_geom_bond_distance
_geom_bond_site_symmetry_2
Ca0 O45 2.378873 1_555
Ca0 O12 2.409431 1_555
Ca0 O7 2.523716 1_555
Ca0 O0 2.574521 1_555
Ca0 O20 2.581464 1_555
Ca0 O11 2.662911 1_545
Ca0 O48 2.683392 1_555
Ca0 O36 2.765695 1_555
Ca0 O40 2.839591 1_555
Ca0 O27 3.039422 1_545
Ca1 O44 2.378873 1_555
Ca1 O13 2.409431 1_555
Ca1 O6 2.523716 1_555
Ca1 O1 2.574521 1_555
Ca1 O21 2.581464 1_555
Ca1 O10 2.662911 1_565
Ca1 O49 2.683392 1_555
Ca1 O37 2.765695 1_555
Ca1 O41 2.839591 1_555
Ca1 O26 3.039422 1_564
Ca2 O47 2.378873 1_555
Ca2 O14 2.409431 1_555
Ca2 O5 2.523716 1_555
Ca2 O2 2.574521 1_555
Ca2 O22 2.581464 1_555
Ca2 O9 2.662911 1_565
Ca2 O50 2.683392 1_555
Ca2 O38 2.765695 1_555
Ca2 O42 2.839591 1_555
Ca2 O25 3.039422 1_565
Ca3 O46 2.378873 1_555
Ca3 O15 2.409431 1_555
Ca3 O4 2.523716 1_555
Ca3 O3 2.574521 1_555
Ca3 O23 2.581464 1_555
Ca3 O8 2.662911 1_545
Ca3 O51 2.683392 1_555
Ca3 O39 2.765695 1_555
Ca3 O43 2.839591 1_555
Ca3 O24 3.039422 1_546
B0 O3 1.357002 1_555
B0 O4 1.384184 1_555
B0 O8 1.395073 1_555
B1 O2 1.357002 1_555
B1 O5 1.384184 1_555
B1 O9 1.395073 1_555
B2 O1 1.357002 1_555
B2 O6 1.384184 1_555
B2 O10 1.395073 1_555
B3 O0 1.357002 1_555
B3 O7 1.384184 1_555
B3 O11 1.395073 1_555
B4 O20 1.470893 1_555
B4 O12 1.471004 1_555
B4 O4 1.477370 1_554
B4 O16 1.489212 1_555
B5 O21 1.470893 1_555
B5 O13 1.471004 1_555
B5 O5 1.477370 1_555
B5 O17 1.489212 1_555
B6 O22 1.470893 1_555
B6 O14 1.471004 1_555
B6 O6 1.477370 1_556
B6 O18 1.489212 1_555
B7 O23 1.470893 1_555
B7 O15 1.471004 1_555
B7 O7 1.477370 1_555
B7 O19 1.489212 1_555
B8 O24 1.353048 1_555
B8 O12 1.366769 1_555
B8 O8 1.412066 1_554
B9 O25 1.353048 1_555
B9 O13 1.366769 1_555
B9 O9 1.412066 1_555
B10 O26 1.353048 1_555
B10 O14 1.366769 1_555
B10 O10 1.412066 1_556
B11 O27 1.353048 1_555
B11 O15 1.366769 1_555
B11 O11 1.412066 1_555
B12 O0 1.456117 1_555
B12 O24 1.463417 1_555
B12 O20 1.474536 1_565
B12 O28 1.499791 1_555
B13 O1 1.456117 1_555
B13 O25 1.463417 1_555
B13 O21 1.474536 1_545
B13 O29 1.499791 1_555
B14 O2 1.456117 1_555
B14 O26 1.463417 1_555
B14 O22 1.474536 1_545
B14 O30 1.499791 1_555
B15 O3 1.456117 1_555
B15 O27 1.463417 1_555
B15 O23 1.474536 1_565
B15 O31 1.499791 1_555
B16 O32 1.370444 1_655
B16 O16 1.374724 1_555
B16 O28 1.387816 1_545
B17 O33 1.370444 1_555
B17 O17 1.374724 1_555
B17 O29 1.387816 1_565
B18 O34 1.370444 1_455
B18 O18 1.374724 1_555
B18 O30 1.387816 1_565
B19 O35 1.370444 1_555
B19 O19 1.374724 1_555
B19 O31 1.387816 1_545
B20 O44 1.277450 1_555
B20 O40 1.417981 1_555
B20 O36 1.427139 1_555
B21 O45 1.277450 1_455
B21 O41 1.417981 1_555
B21 O37 1.427139 1_555
B22 O46 1.277450 1_555
B22 O42 1.417981 1_555
B22 O38 1.427139 1_555
B23 O47 1.277450 1_655
B23 O43 1.417981 1_555
B23 O39 1.427139 1_555
O48 O59 1.310601 1_555
O49 O58 1.310601 1_554
O50 O57 1.310601 1_555
O51 O56 1.310601 1_556
O52 O57 1.284500 1_555
O53 O56 1.284500 1_555
O54 O59 1.284500 1_555
O55 O58 1.284500 1_555
