# generated using pymatgen
data_Tb3SbO7
_symmetry_space_group_name_H-M   'P 1'
_cell_length_a   6.44850997
_cell_length_b   6.44850997
_cell_length_c   7.48518906
_cell_angle_alpha   90.00000000
_cell_angle_beta   90.00000000
_cell_angle_gamma   109.52048655
_symmetry_Int_Tables_number   1
_chemical_formula_structural   Tb3SbO7
_chemical_formula_sum   'Tb6 Sb2 O14'
_cell_volume   293.36821343
_cell_formula_units_Z   2
loop_
 _symmetry_equiv_pos_site_id
 _symmetry_equiv_pos_as_xyz
  1  'x, y, z'
loop_
 _atom_site_type_symbol
 _atom_site_label
 _atom_site_symmetry_multiplicity
 _atom_site_fract_x
 _atom_site_fract_y
 _atom_site_fract_z
 _atom_site_occupancy
  Tb  Tb0  1  0.46823681  0.00006312  0.25052467  1
  Tb  Tb1  1  -0.00006312  0.53176319  0.24947533  1
  Tb  Tb2  1  0.49815266  0.49815266  -0.00000000  1
  Tb  Tb3  1  0.50184734  0.50184734  0.50000000  1
  Tb  Tb4  1  0.53176319  -0.00006312  0.75052467  1
  Tb  Tb5  1  0.00006312  0.46823681  0.74947533  1
  Sb  Sb0  1  0.99993610  0.99993610  0.50000000  1
  Sb  Sb1  1  0.00006390  0.00006390  -0.00000000  1
  O  O0  1  0.93259186  0.06740814  0.75000000  1
  O  O1  1  0.63685639  0.36314361  0.75000000  1
  O  O2  1  0.31938598  0.07066837  0.53042813  1
  O  O3  1  0.92933163  0.68061402  0.96957187  1
  O  O4  1  0.62971074  0.37028926  0.25000000  1
  O  O5  1  0.92746488  0.67968312  0.52944480  1
  O  O6  1  0.32031688  0.07253512  0.97055520  1
  O  O7  1  0.07253512  0.32031688  0.02944480  1
  O  O8  1  0.67968312  0.92746488  0.47055520  1
  O  O9  1  0.37028926  0.62971074  0.75000000  1
  O  O10  1  0.68061402  0.92933163  0.03042813  1
  O  O11  1  0.07066837  0.31938598  0.46957187  1
  O  O12  1  0.36314361  0.63685639  0.25000000  1
  O  O13  1  0.06740814  0.93259186  0.25000000  1
loop_
_geom_bond_atom_site_label_1
_geom_bond_atom_site_label_2
_geom_bond_distance
_geom_bond_site_symmetry_2
O0 Sb0 2.001480 1_545
O0 Sb1 2.001480 1_656
O0 Tb4 2.473598 1_555
O0 Tb5 2.473598 1_655
O1 Tb5 2.210016 1_655
O1 Tb4 2.210016 1_555
O1 Tb3 2.362227 1_555
O1 Tb2 2.362227 1_556
O2 Sb0 1.968629 1_445
O2 Tb4 2.283682 1_555
O2 Tb0 2.410450 1_555
O2 Tb3 2.642146 1_555
O3 Sb1 1.968629 1_666
O3 Tb5 2.283682 1_655
O3 Tb1 2.410450 1_656
O3 Tb2 2.642146 1_556
O4 Tb0 2.263327 1_555
O4 Tb1 2.263327 1_655
O4 Tb2 2.317060 1_555
O4 Tb3 2.317060 1_555
O5 Sb0 1.971514 1_555
O5 Tb5 2.284170 1_655
O5 Tb1 2.412013 1_655
O5 Tb3 2.606357 1_555
O6 Sb1 1.971514 1_556
O6 Tb4 2.284170 1_555
O6 Tb0 2.412013 1_556
O6 Tb2 2.606357 1_556
O7 Sb1 1.971514 1_555
O7 Tb1 2.284170 1_555
O7 Tb5 2.412013 1_554
O7 Tb2 2.606357 1_555
O8 Sb0 1.971514 1_555
O8 Tb0 2.284170 1_565
O8 Tb4 2.412013 1_565
O8 Tb3 2.606357 1_555
O9 Tb4 2.263327 1_565
O9 Tb5 2.263327 1_555
O9 Tb3 2.317060 1_555
O9 Tb2 2.317060 1_556
O10 Sb1 1.968629 1_665
O10 Tb0 2.283682 1_565
O10 Tb4 2.410450 1_564
O10 Tb2 2.642146 1_555
O11 Sb0 1.968629 1_445
O11 Tb1 2.283682 1_555
O11 Tb5 2.410450 1_555
O11 Tb3 2.642146 1_555
O12 Tb1 2.210016 1_555
O12 Tb0 2.210016 1_565
O12 Tb3 2.362227 1_555
O12 Tb2 2.362227 1_555
O13 Sb0 2.001480 1_455
O13 Sb1 2.001480 1_565
O13 Tb0 2.473598 1_565
O13 Tb1 2.473598 1_555
