# generated using pymatgen
data_Si
_symmetry_space_group_name_H-M   'P 1'
_cell_length_a   17.64551021
_cell_length_b   17.64551021
_cell_length_c   17.64551021
_cell_angle_alpha   90.00000000
_cell_angle_beta   90.00000000
_cell_angle_gamma   90.00000000
_symmetry_Int_Tables_number   1
_chemical_formula_structural   Si
_chemical_formula_sum   Si232
_cell_volume   5494.17718047
_cell_formula_units_Z   232
loop_
 _symmetry_equiv_pos_site_id
 _symmetry_equiv_pos_as_xyz
  1  'x, y, z'
loop_
 _atom_site_type_symbol
 _atom_site_label
 _atom_site_symmetry_multiplicity
 _atom_site_fract_x
 _atom_site_fract_y
 _atom_site_fract_z
 _atom_site_occupancy
  Si  Si0  1  0.26252059  0.84590610  0.41813264  1
  Si  Si1  1  0.73747941  0.34590610  0.08186736  1
  Si  Si2  1  0.23747941  0.15409390  0.91813264  1
  Si  Si3  1  0.76252059  0.65409390  0.58186736  1
  Si  Si4  1  0.41813264  0.26252059  0.84590610  1
  Si  Si5  1  0.08186736  0.73747941  0.34590610  1
  Si  Si6  1  0.91813264  0.23747941  0.15409390  1
  Si  Si7  1  0.58186736  0.76252059  0.65409390  1
  Si  Si8  1  0.84590610  0.41813264  0.26252059  1
  Si  Si9  1  0.34590610  0.08186736  0.73747941  1
  Si  Si10  1  0.15409390  0.91813264  0.23747941  1
  Si  Si11  1  0.65409390  0.58186736  0.76252059  1
  Si  Si12  1  0.73747941  0.15409390  0.58186736  1
  Si  Si13  1  0.26252059  0.65409390  0.91813264  1
  Si  Si14  1  0.76252059  0.84590610  0.08186736  1
  Si  Si15  1  0.23747941  0.34590610  0.41813264  1
  Si  Si16  1  0.58186736  0.73747941  0.15409390  1
  Si  Si17  1  0.91813264  0.26252059  0.65409390  1
  Si  Si18  1  0.08186736  0.76252059  0.84590610  1
  Si  Si19  1  0.41813264  0.23747941  0.34590610  1
  Si  Si20  1  0.15409390  0.58186736  0.73747941  1
  Si  Si21  1  0.65409390  0.91813264  0.26252059  1
  Si  Si22  1  0.84590610  0.08186736  0.76252059  1
  Si  Si23  1  0.34590610  0.41813264  0.23747941  1
  Si  Si24  1  0.89409314  0.81567394  0.40424134  1
  Si  Si25  1  0.10590686  0.31567394  0.09575866  1
  Si  Si26  1  0.60590686  0.18432606  0.90424134  1
  Si  Si27  1  0.39409314  0.68432606  0.59575866  1
  Si  Si28  1  0.40424134  0.89409314  0.81567394  1
  Si  Si29  1  0.09575866  0.10590686  0.31567394  1
  Si  Si30  1  0.90424134  0.60590686  0.18432606  1
  Si  Si31  1  0.59575866  0.39409314  0.68432606  1
  Si  Si32  1  0.81567394  0.40424134  0.89409314  1
  Si  Si33  1  0.31567394  0.09575866  0.10590686  1
  Si  Si34  1  0.18432606  0.90424134  0.60590686  1
  Si  Si35  1  0.68432606  0.59575866  0.39409314  1
  Si  Si36  1  0.10590686  0.18432606  0.59575866  1
  Si  Si37  1  0.89409314  0.68432606  0.90424134  1
  Si  Si38  1  0.39409314  0.81567394  0.09575866  1
  Si  Si39  1  0.60590686  0.31567394  0.40424134  1
  Si  Si40  1  0.59575866  0.10590686  0.18432606  1
  Si  Si41  1  0.90424134  0.89409314  0.68432606  1
  Si  Si42  1  0.09575866  0.39409314  0.81567394  1
  Si  Si43  1  0.40424134  0.60590686  0.31567394  1
  Si  Si44  1  0.18432606  0.59575866  0.10590686  1
  Si  Si45  1  0.68432606  0.90424134  0.89409314  1
  Si  Si46  1  0.81567394  0.09575866  0.39409314  1
  Si  Si47  1  0.31567394  0.40424134  0.60590686  1
  Si  Si48  1  0.39191016  0.80758605  0.40159267  1
  Si  Si49  1  0.60808984  0.30758605  0.09840733  1
  Si  Si50  1  0.10808984  0.19241395  0.90159267  1
  Si  Si51  1  0.89191016  0.69241395  0.59840733  1
  Si  Si52  1  0.40159267  0.39191016  0.80758605  1
  Si  Si53  1  0.09840733  0.60808984  0.30758605  1
  Si  Si54  1  0.90159267  0.10808984  0.19241395  1
  Si  Si55  1  0.59840733  0.89191016  0.69241395  1
  Si  Si56  1  0.80758605  0.40159267  0.39191016  1
  Si  Si57  1  0.30758605  0.09840733  0.60808984  1
  Si  Si58  1  0.19241395  0.90159267  0.10808984  1
  Si  Si59  1  0.69241395  0.59840733  0.89191016  1
  Si  Si60  1  0.60808984  0.19241395  0.59840733  1
  Si  Si61  1  0.39191016  0.69241395  0.90159267  1
  Si  Si62  1  0.89191016  0.80758605  0.09840733  1
  Si  Si63  1  0.10808984  0.30758605  0.40159267  1
  Si  Si64  1  0.59840733  0.60808984  0.19241395  1
  Si  Si65  1  0.90159267  0.39191016  0.69241395  1
  Si  Si66  1  0.09840733  0.89191016  0.80758605  1
  Si  Si67  1  0.40159267  0.10808984  0.30758605  1
  Si  Si68  1  0.19241395  0.59840733  0.60808984  1
  Si  Si69  1  0.69241395  0.90159267  0.39191016  1
  Si  Si70  1  0.80758605  0.09840733  0.89191016  1
  Si  Si71  1  0.30758605  0.40159267  0.10808984  1
  Si  Si72  1  0.97321625  0.80257858  0.29673975  1
  Si  Si73  1  0.02678375  0.30257858  0.20326025  1
  Si  Si74  1  0.52678375  0.19742142  0.79673975  1
  Si  Si75  1  0.47321625  0.69742142  0.70326025  1
  Si  Si76  1  0.29673975  0.97321625  0.80257858  1
  Si  Si77  1  0.20326025  0.02678375  0.30257858  1
  Si  Si78  1  0.79673975  0.52678375  0.19742142  1
  Si  Si79  1  0.70326025  0.47321625  0.69742142  1
  Si  Si80  1  0.80257858  0.29673975  0.97321625  1
  Si  Si81  1  0.30257858  0.20326025  0.02678375  1
  Si  Si82  1  0.19742142  0.79673975  0.52678375  1
  Si  Si83  1  0.69742142  0.70326025  0.47321625  1
  Si  Si84  1  0.02678375  0.19742142  0.70326025  1
  Si  Si85  1  0.97321625  0.69742142  0.79673975  1
  Si  Si86  1  0.47321625  0.80257858  0.20326025  1
  Si  Si87  1  0.52678375  0.30257858  0.29673975  1
  Si  Si88  1  0.70326025  0.02678375  0.19742142  1
  Si  Si89  1  0.79673975  0.97321625  0.69742142  1
  Si  Si90  1  0.20326025  0.47321625  0.80257858  1
  Si  Si91  1  0.29673975  0.52678375  0.30257858  1
  Si  Si92  1  0.19742142  0.70326025  0.02678375  1
  Si  Si93  1  0.69742142  0.79673975  0.97321625  1
  Si  Si94  1  0.80257858  0.20326025  0.47321625  1
  Si  Si95  1  0.30257858  0.29673975  0.52678375  1
  Si  Si96  1  0.76350186  0.78632246  0.38973145  1
  Si  Si97  1  0.23649814  0.28632246  0.11026855  1
  Si  Si98  1  0.73649814  0.21367754  0.88973145  1
  Si  Si99  1  0.26350186  0.71367754  0.61026855  1
  Si  Si100  1  0.38973145  0.76350186  0.78632246  1
  Si  Si101  1  0.11026855  0.23649814  0.28632246  1
  Si  Si102  1  0.88973145  0.73649814  0.21367754  1
  Si  Si103  1  0.61026855  0.26350186  0.71367754  1
  Si  Si104  1  0.78632246  0.38973145  0.76350186  1
  Si  Si105  1  0.28632246  0.11026855  0.23649814  1
  Si  Si106  1  0.21367754  0.88973145  0.73649814  1
  Si  Si107  1  0.71367754  0.61026855  0.26350186  1
  Si  Si108  1  0.23649814  0.21367754  0.61026855  1
  Si  Si109  1  0.76350186  0.71367754  0.88973145  1
  Si  Si110  1  0.26350186  0.78632246  0.11026855  1
  Si  Si111  1  0.73649814  0.28632246  0.38973145  1
  Si  Si112  1  0.61026855  0.23649814  0.21367754  1
  Si  Si113  1  0.88973145  0.76350186  0.71367754  1
  Si  Si114  1  0.11026855  0.26350186  0.78632246  1
  Si  Si115  1  0.38973145  0.73649814  0.28632246  1
  Si  Si116  1  0.21367754  0.61026855  0.23649814  1
  Si  Si117  1  0.71367754  0.88973145  0.76350186  1
  Si  Si118  1  0.78632246  0.11026855  0.26350186  1
  Si  Si119  1  0.28632246  0.38973145  0.73649814  1
  Si  Si120  1  0.95888420  0.77128406  0.51317626  1
  Si  Si121  1  0.04111580  0.27128406  0.98682374  1
  Si  Si122  1  0.54111580  0.22871594  0.01317626  1
  Si  Si123  1  0.45888420  0.72871594  0.48682374  1
  Si  Si124  1  0.51317626  0.95888420  0.77128406  1
  Si  Si125  1  0.98682374  0.04111580  0.27128406  1
  Si  Si126  1  0.01317626  0.54111580  0.22871594  1
  Si  Si127  1  0.48682374  0.45888420  0.72871594  1
  Si  Si128  1  0.77128406  0.51317626  0.95888420  1
  Si  Si129  1  0.27128406  0.98682374  0.04111580  1
  Si  Si130  1  0.22871594  0.01317626  0.54111580  1
  Si  Si131  1  0.72871594  0.48682374  0.45888420  1
  Si  Si132  1  0.04111580  0.22871594  0.48682374  1
  Si  Si133  1  0.95888420  0.72871594  0.01317626  1
  Si  Si134  1  0.45888420  0.77128406  0.98682374  1
  Si  Si135  1  0.54111580  0.27128406  0.51317626  1
  Si  Si136  1  0.48682374  0.04111580  0.22871594  1
  Si  Si137  1  0.01317626  0.95888420  0.72871594  1
  Si  Si138  1  0.98682374  0.45888420  0.77128406  1
  Si  Si139  1  0.51317626  0.54111580  0.27128406  1
  Si  Si140  1  0.22871594  0.48682374  0.04111580  1
  Si  Si141  1  0.72871594  0.01317626  0.95888420  1
  Si  Si142  1  0.77128406  0.98682374  0.45888420  1
  Si  Si143  1  0.27128406  0.51317626  0.54111580  1
  Si  Si144  1  0.58324592  0.76840874  0.51848985  1
  Si  Si145  1  0.41675408  0.26840874  0.98151015  1
  Si  Si146  1  0.91675408  0.23159126  0.01848985  1
  Si  Si147  1  0.08324592  0.73159126  0.48151015  1
  Si  Si148  1  0.51848985  0.58324592  0.76840874  1
  Si  Si149  1  0.98151015  0.41675408  0.26840874  1
  Si  Si150  1  0.01848985  0.91675408  0.23159126  1
  Si  Si151  1  0.48151015  0.08324592  0.73159126  1
  Si  Si152  1  0.76840874  0.51848985  0.58324592  1
  Si  Si153  1  0.26840874  0.98151015  0.41675408  1
  Si  Si154  1  0.23159126  0.01848985  0.91675408  1
  Si  Si155  1  0.73159126  0.48151015  0.08324592  1
  Si  Si156  1  0.41675408  0.23159126  0.48151015  1
  Si  Si157  1  0.58324592  0.73159126  0.01848985  1
  Si  Si158  1  0.08324592  0.76840874  0.98151015  1
  Si  Si159  1  0.91675408  0.26840874  0.51848985  1
  Si  Si160  1  0.48151015  0.41675408  0.23159126  1
  Si  Si161  1  0.01848985  0.58324592  0.73159126  1
  Si  Si162  1  0.98151015  0.08324592  0.76840874  1
  Si  Si163  1  0.51848985  0.91675408  0.26840874  1
  Si  Si164  1  0.23159126  0.48151015  0.41675408  1
  Si  Si165  1  0.73159126  0.01848985  0.58324592  1
  Si  Si166  1  0.76840874  0.98151015  0.08324592  1
  Si  Si167  1  0.26840874  0.51848985  0.91675408  1
  Si  Si168  1  0.08424498  0.60421484  0.52664035  1
  Si  Si169  1  0.91575502  0.10421484  0.97335965  1
  Si  Si170  1  0.41575502  0.39578516  0.02664035  1
  Si  Si171  1  0.58424498  0.89578516  0.47335965  1
  Si  Si172  1  0.52664035  0.08424498  0.60421484  1
  Si  Si173  1  0.97335965  0.91575502  0.10421484  1
  Si  Si174  1  0.02664035  0.41575502  0.39578516  1
  Si  Si175  1  0.47335965  0.58424498  0.89578516  1
  Si  Si176  1  0.60421484  0.52664035  0.08424498  1
  Si  Si177  1  0.10421484  0.97335965  0.91575502  1
  Si  Si178  1  0.39578516  0.02664035  0.41575502  1
  Si  Si179  1  0.89578516  0.47335965  0.58424498  1
  Si  Si180  1  0.91575502  0.39578516  0.47335965  1
  Si  Si181  1  0.08424498  0.89578516  0.02664035  1
  Si  Si182  1  0.58424498  0.60421484  0.97335965  1
  Si  Si183  1  0.41575502  0.10421484  0.52664035  1
  Si  Si184  1  0.47335965  0.91575502  0.39578516  1
  Si  Si185  1  0.02664035  0.08424498  0.89578516  1
  Si  Si186  1  0.97335965  0.58424498  0.60421484  1
  Si  Si187  1  0.52664035  0.41575502  0.10421484  1
  Si  Si188  1  0.39578516  0.47335965  0.91575502  1
  Si  Si189  1  0.89578516  0.02664035  0.08424498  1
  Si  Si190  1  0.60421484  0.97335965  0.58424498  1
  Si  Si191  1  0.10421484  0.52664035  0.41575502  1
  Si  Si192  1  0.45535316  0.60628586  0.43737206  1
  Si  Si193  1  0.54464684  0.10628586  0.06262794  1
  Si  Si194  1  0.04464684  0.39371414  0.93737206  1
  Si  Si195  1  0.95535316  0.89371414  0.56262794  1
  Si  Si196  1  0.43737206  0.45535316  0.60628586  1
  Si  Si197  1  0.06262794  0.54464684  0.10628586  1
  Si  Si198  1  0.93737206  0.04464684  0.39371414  1
  Si  Si199  1  0.56262794  0.95535316  0.89371414  1
  Si  Si200  1  0.60628586  0.43737206  0.45535316  1
  Si  Si201  1  0.10628586  0.06262794  0.54464684  1
  Si  Si202  1  0.39371414  0.93737206  0.04464684  1
  Si  Si203  1  0.89371414  0.56262794  0.95535316  1
  Si  Si204  1  0.54464684  0.39371414  0.56262794  1
  Si  Si205  1  0.45535316  0.89371414  0.93737206  1
  Si  Si206  1  0.95535316  0.60628586  0.06262794  1
  Si  Si207  1  0.04464684  0.10628586  0.43737206  1
  Si  Si208  1  0.56262794  0.54464684  0.39371414  1
  Si  Si209  1  0.93737206  0.45535316  0.89371414  1
  Si  Si210  1  0.06262794  0.95535316  0.60628586  1
  Si  Si211  1  0.43737206  0.04464684  0.10628586  1
  Si  Si212  1  0.39371414  0.56262794  0.54464684  1
  Si  Si213  1  0.89371414  0.93737206  0.45535316  1
  Si  Si214  1  0.60628586  0.06262794  0.95535316  1
  Si  Si215  1  0.10628586  0.43737206  0.04464684  1
  Si  Si216  1  0.18965523  0.81034477  0.31034477  1
  Si  Si217  1  0.81034477  0.31034477  0.18965523  1
  Si  Si218  1  0.31034477  0.18965523  0.81034477  1
  Si  Si219  1  0.68965523  0.68965523  0.68965523  1
  Si  Si220  1  0.81034477  0.18965523  0.68965523  1
  Si  Si221  1  0.18965523  0.68965523  0.81034477  1
  Si  Si222  1  0.68965523  0.81034477  0.18965523  1
  Si  Si223  1  0.31034477  0.31034477  0.31034477  1
  Si  Si224  1  0.76602592  0.76602592  0.76602592  1
  Si  Si225  1  0.23397408  0.26602592  0.73397408  1
  Si  Si226  1  0.73397408  0.23397408  0.26602592  1
  Si  Si227  1  0.26602592  0.73397408  0.23397408  1
  Si  Si228  1  0.23397408  0.23397408  0.23397408  1
  Si  Si229  1  0.76602592  0.73397408  0.26602592  1
  Si  Si230  1  0.26602592  0.76602592  0.73397408  1
  Si  Si231  1  0.73397408  0.26602592  0.76602592  1
loop_
_geom_bond_atom_site_label_1
_geom_bond_atom_site_label_2
_geom_bond_distance
_geom_bond_site_symmetry_2
Si0 Si216 2.379999 1_555
Si0 Si153 2.395181 1_555
Si0 Si82 2.397472 1_555
Si0 Si48 2.398989 1_555
Si1 Si217 2.379999 1_555
Si1 Si155 2.395181 1_555
Si1 Si80 2.397472 1_554
Si1 Si49 2.398989 1_555
Si2 Si218 2.379999 1_555
Si2 Si81 2.397472 1_556
Si2 Si50 2.398989 1_555
Si3 Si83 2.397472 1_555
Si3 Si51 2.398989 1_555
Si4 Si74 2.397472 1_555
Si4 Si52 2.398989 1_555
Si5 Si72 2.397472 1_455
Si5 Si53 2.398989 1_555
Si6 Si73 2.397472 1_655
Si7 Si75 2.397472 1_555
Si10 Si216 2.379999 1_555
Si10 Si150 2.395181 1_555
Si10 Si77 2.397472 1_565
Si10 Si58 2.398989 1_555
Si11 Si219 2.379999 1_555
Si11 Si148 2.395181 1_555
Si11 Si79 2.397472 1_555
Si11 Si59 2.398989 1_555
Si12 Si220 2.379999 1_555
Si12 Si165 2.395181 1_555
Si12 Si94 2.397472 1_555
Si12 Si60 2.398989 1_555
Si13 Si221 2.379999 1_555
Si13 Si167 2.395181 1_555
Si13 Si92 2.397472 1_556
Si13 Si61 2.398989 1_555
Si14 Si222 2.379999 1_555
Si14 Si166 2.395181 1_555
Si14 Si93 2.397472 1_554
Si14 Si62 2.398989 1_555
Si15 Si223 2.379999 1_555
Si15 Si164 2.395181 1_555
Si15 Si95 2.397472 1_555
Si15 Si63 2.398989 1_555
Si16 Si222 2.379999 1_555
Si16 Si86 2.397472 1_555
Si16 Si64 2.398989 1_555
Si17 Si220 2.379999 1_555
Si17 Si84 2.397472 1_655
Si17 Si65 2.398989 1_555
Si18 Si221 2.379999 1_555
Si18 Si85 2.397472 1_455
Si18 Si66 2.398989 1_555
Si19 Si223 2.379999 1_555
Si19 Si87 2.397472 1_555
Si19 Si67 2.398989 1_555
Si20 Si221 2.379999 1_555
Si20 Si90 2.397472 1_555
Si20 Si68 2.398989 1_555
Si21 Si222 2.379999 1_555
Si21 Si88 2.397472 1_565
Si21 Si69 2.398989 1_555
Si22 Si220 2.379999 1_555
Si22 Si89 2.397472 1_545
Si22 Si70 2.398989 1_555
Si23 Si91 2.397472 1_555
Si23 Si71 2.398989 1_555
Si24 Si72 2.366640 1_555
Si24 Si96 2.375673 1_555
Si25 Si73 2.366640 1_555
Si25 Si97 2.375673 1_555
Si26 Si74 2.366640 1_555
Si26 Si98 2.375673 1_555
Si27 Si75 2.366640 1_555
Si27 Si99 2.375673 1_555
Si28 Si76 2.366640 1_555
Si29 Si77 2.366640 1_555
Si30 Si78 2.366640 1_555
Si31 Si79 2.366640 1_555
Si32 Si80 2.366640 1_555
Si33 Si81 2.366640 1_555
Si34 Si82 2.366640 1_555
Si35 Si83 2.366640 1_555
Si36 Si84 2.366640 1_555
Si37 Si85 2.366640 1_555
Si38 Si86 2.366640 1_555
Si39 Si87 2.366640 1_555
Si40 Si88 2.366640 1_555
Si41 Si89 2.366640 1_555
Si42 Si90 2.366640 1_555
Si43 Si91 2.366640 1_555
Si44 Si92 2.366640 1_555
Si45 Si93 2.366640 1_555
Si46 Si94 2.366640 1_555
Si47 Si95 2.366640 1_555
Si54 Si6 2.398989 1_555
Si55 Si7 2.398989 1_555
Si56 Si8 2.398989 1_555
Si57 Si9 2.398989 1_555
Si68 Si99 2.390003 1_555
Si69 Si96 2.390003 1_555
Si70 Si98 2.390003 1_555
Si71 Si97 2.390003 1_555
Si76 Si9 2.397472 1_565
Si78 Si8 2.397472 1_555
Si80 Si98 2.382841 1_555
Si81 Si97 2.382841 1_555
Si82 Si99 2.382841 1_555
Si83 Si96 2.382841 1_555
Si100 Si230 2.370665 1_555
Si100 Si28 2.375673 1_555
Si100 Si75 2.382841 1_555
Si100 Si61 2.390003 1_555
Si101 Si228 2.370665 1_555
Si101 Si29 2.375673 1_555
Si101 Si73 2.382841 1_555
Si101 Si63 2.390003 1_555
Si102 Si229 2.370665 1_555
Si102 Si30 2.375673 1_555
Si102 Si72 2.382841 1_555
Si102 Si62 2.390003 1_555
Si103 Si231 2.370665 1_555
Si103 Si31 2.375673 1_555
Si103 Si74 2.382841 1_555
Si103 Si60 2.390003 1_555
Si104 Si231 2.370665 1_555
Si104 Si32 2.375673 1_555
Si104 Si79 2.382841 1_555
Si104 Si65 2.390003 1_555
Si105 Si228 2.370665 1_555
Si105 Si33 2.375673 1_555
Si105 Si77 2.382841 1_555
Si105 Si67 2.390003 1_555
Si106 Si230 2.370665 1_555
Si106 Si34 2.375673 1_555
Si106 Si76 2.382841 1_555
Si106 Si66 2.390003 1_555
Si107 Si229 2.370665 1_555
Si107 Si35 2.375673 1_555
Si107 Si78 2.382841 1_555
Si107 Si64 2.390003 1_555
Si108 Si225 2.370665 1_555
Si108 Si36 2.375673 1_555
Si108 Si95 2.382841 1_555
Si108 Si57 2.390003 1_555
Si109 Si224 2.370665 1_555
Si109 Si37 2.375673 1_555
Si109 Si93 2.382841 1_555
Si109 Si59 2.390003 1_555
Si110 Si227 2.370665 1_555
Si110 Si38 2.375673 1_555
Si110 Si92 2.382841 1_555
Si110 Si58 2.390003 1_555
Si111 Si226 2.370665 1_555
Si111 Si39 2.375673 1_555
Si111 Si94 2.382841 1_555
Si111 Si56 2.390003 1_555
Si112 Si226 2.370665 1_555
Si112 Si40 2.375673 1_555
Si112 Si87 2.382841 1_555
Si112 Si49 2.390003 1_555
Si113 Si224 2.370665 1_555
Si113 Si41 2.375673 1_555
Si113 Si85 2.382841 1_555
Si113 Si51 2.390003 1_555
Si114 Si225 2.370665 1_555
Si114 Si42 2.375673 1_555
Si114 Si84 2.382841 1_555
Si114 Si50 2.390003 1_555
Si115 Si227 2.370665 1_555
Si115 Si43 2.375673 1_555
Si115 Si86 2.382841 1_555
Si115 Si48 2.390003 1_555
Si116 Si227 2.370665 1_555
Si116 Si44 2.375673 1_555
Si116 Si91 2.382841 1_555
Si116 Si53 2.390003 1_555
Si117 Si224 2.370665 1_555
Si117 Si45 2.375673 1_555
Si117 Si89 2.382841 1_555
Si117 Si55 2.390003 1_555
Si118 Si226 2.370665 1_555
Si118 Si46 2.375673 1_555
Si118 Si88 2.382841 1_555
Si118 Si54 2.390003 1_555
Si119 Si225 2.370665 1_555
Si119 Si47 2.375673 1_555
Si119 Si90 2.382841 1_555
Si119 Si52 2.390003 1_555
Si120 Si195 2.330748 1_555
Si120 Si51 2.365443 1_555
Si120 Si24 2.369705 1_555
Si120 Si147 2.370292 1_655
Si121 Si194 2.330748 1_555
Si121 Si50 2.365443 1_555
Si121 Si25 2.369705 1_556
Si121 Si146 2.370292 1_456
Si122 Si193 2.330748 1_555
Si122 Si49 2.365443 1_555
Si122 Si26 2.369705 1_554
Si122 Si145 2.370292 1_554
Si123 Si192 2.330748 1_555
Si123 Si48 2.365443 1_555
Si123 Si27 2.369705 1_555
Si123 Si144 2.370292 1_555
Si124 Si199 2.330748 1_555
Si124 Si55 2.365443 1_555
Si124 Si28 2.369705 1_555
Si124 Si151 2.370292 1_565
Si125 Si198 2.330748 1_555
Si125 Si54 2.365443 1_555
Si125 Si29 2.369705 1_655
Si125 Si150 2.370292 1_645
Si126 Si197 2.330748 1_555
Si126 Si53 2.365443 1_555
Si126 Si30 2.369705 1_455
Si126 Si149 2.370292 1_455
Si127 Si196 2.330748 1_555
Si127 Si52 2.365443 1_555
Si127 Si31 2.369705 1_555
Si127 Si148 2.370292 1_555
Si128 Si203 2.330748 1_555
Si128 Si59 2.365443 1_555
Si128 Si32 2.369705 1_555
Si128 Si155 2.370292 1_556
Si129 Si202 2.330748 1_555
Si129 Si58 2.365443 1_555
Si129 Si33 2.369705 1_565
Si129 Si154 2.370292 1_564
Si130 Si201 2.330748 1_555
Si130 Si57 2.365443 1_555
Si130 Si34 2.369705 1_545
Si130 Si153 2.370292 1_545
Si131 Si200 2.330748 1_555
Si131 Si56 2.365443 1_555
Si131 Si35 2.369705 1_555
Si131 Si152 2.370292 1_555
Si132 Si207 2.330748 1_555
Si132 Si63 2.365443 1_555
Si132 Si36 2.369705 1_555
Si132 Si159 2.370292 1_455
Si133 Si206 2.330748 1_555
Si133 Si62 2.365443 1_555
Si133 Si37 2.369705 1_554
Si133 Si158 2.370292 1_654
Si134 Si205 2.330748 1_555
Si134 Si61 2.365443 1_555
Si134 Si38 2.369705 1_556
Si134 Si157 2.370292 1_556
Si135 Si204 2.330748 1_555
Si135 Si60 2.365443 1_555
Si135 Si39 2.369705 1_555
Si135 Si156 2.370292 1_555
Si136 Si211 2.330748 1_555
Si136 Si67 2.365443 1_555
Si136 Si40 2.369705 1_555
Si136 Si163 2.370292 1_545
Si137 Si210 2.330748 1_555
Si137 Si66 2.365443 1_555
Si137 Si41 2.369705 1_455
Si137 Si162 2.370292 1_465
Si138 Si209 2.330748 1_555
Si138 Si65 2.365443 1_555
Si138 Si42 2.369705 1_655
Si138 Si161 2.370292 1_655
Si139 Si208 2.330748 1_555
Si139 Si64 2.365443 1_555
Si139 Si43 2.369705 1_555
Si139 Si160 2.370292 1_555
Si140 Si215 2.330748 1_555
Si140 Si71 2.365443 1_555
Si140 Si44 2.369705 1_555
Si140 Si167 2.370292 1_554
Si141 Si214 2.330748 1_555
Si141 Si70 2.365443 1_555
Si141 Si45 2.369705 1_545
Si141 Si166 2.370292 1_546
Si142 Si213 2.330748 1_555
Si142 Si69 2.365443 1_555
Si142 Si46 2.369705 1_565
Si142 Si165 2.370292 1_565
Si143 Si212 2.330748 1_555
Si143 Si68 2.365443 1_555
Si143 Si47 2.369705 1_555
Si143 Si164 2.370292 1_555
Si144 Si171 2.384592 1_555
Si144 Si7 2.395181 1_555
Si144 Si83 2.453302 1_555
Si145 Si170 2.384592 1_556
Si145 Si4 2.395181 1_555
Si145 Si81 2.453302 1_556
Si146 Si169 2.384592 1_554
Si146 Si6 2.395181 1_555
Si146 Si80 2.453302 1_554
Si147 Si168 2.384592 1_555
Si147 Si5 2.395181 1_555
Si147 Si82 2.453302 1_555
Si148 Si175 2.384592 1_555
Si148 Si75 2.453302 1_555
Si149 Si174 2.384592 1_655
Si149 Si8 2.395181 1_555
Si149 Si73 2.453302 1_655
Si150 Si173 2.384592 1_455
Si150 Si72 2.453302 1_455
Si151 Si172 2.384592 1_555
Si151 Si9 2.395181 1_555
Si151 Si74 2.453302 1_555
Si152 Si179 2.384592 1_555
Si152 Si3 2.395181 1_555
Si152 Si79 2.453302 1_555
Si153 Si178 2.384592 1_565
Si153 Si77 2.453302 1_565
Si154 Si177 2.384592 1_545
Si154 Si2 2.395181 1_555
Si154 Si76 2.453302 1_545
Si155 Si176 2.384592 1_555
Si155 Si78 2.453302 1_555
Si156 Si183 2.384592 1_555
Si156 Si19 2.395181 1_555
Si156 Si95 2.453302 1_555
Si157 Si182 2.384592 1_554
Si157 Si16 2.395181 1_555
Si157 Si93 2.453302 1_554
Si158 Si181 2.384592 1_556
Si158 Si18 2.395181 1_555
Si158 Si92 2.453302 1_556
Si159 Si180 2.384592 1_555
Si159 Si17 2.395181 1_555
Si159 Si94 2.453302 1_555
Si160 Si187 2.384592 1_555
Si160 Si23 2.395181 1_555
Si160 Si87 2.453302 1_555
Si161 Si186 2.384592 1_455
Si161 Si20 2.395181 1_555
Si161 Si85 2.453302 1_455
Si162 Si185 2.384592 1_655
Si162 Si22 2.395181 1_555
Si162 Si84 2.453302 1_655
Si163 Si184 2.384592 1_555
Si163 Si21 2.395181 1_555
Si163 Si86 2.453302 1_555
Si164 Si191 2.384592 1_555
Si164 Si91 2.453302 1_555
Si165 Si190 2.384592 1_545
Si165 Si89 2.453302 1_545
Si166 Si189 2.384592 1_565
Si166 Si88 2.453302 1_565
Si167 Si188 2.384592 1_555
Si167 Si90 2.453302 1_555
Si168 Si68 2.391489 1_555
Si168 Si191 2.413771 1_555
Si168 Si186 2.413771 1_455
Si169 Si70 2.391489 1_555
Si169 Si189 2.413771 1_556
Si169 Si185 2.413771 1_655
Si170 Si71 2.391489 1_555
Si170 Si187 2.413771 1_555
Si170 Si188 2.413771 1_554
Si171 Si69 2.391489 1_555
Si171 Si184 2.413771 1_555
Si171 Si190 2.413771 1_555
Si172 Si60 2.391489 1_555
Si172 Si183 2.413771 1_555
Si172 Si190 2.413771 1_545
Si173 Si62 2.391489 1_555
Si173 Si181 2.413771 1_655
Si173 Si189 2.413771 1_565
Si174 Si63 2.391489 1_555
Si174 Si191 2.413771 1_555
Si174 Si180 2.413771 1_455
Si175 Si61 2.391489 1_555
Si175 Si188 2.413771 1_555
Si175 Si182 2.413771 1_555
Si176 Si64 2.391489 1_555
Si176 Si187 2.413771 1_555
Si176 Si182 2.413771 1_554
Si177 Si66 2.391489 1_555
Si177 Si185 2.413771 1_565
Si177 Si181 2.413771 1_556
Si178 Si67 2.391489 1_555
Si178 Si183 2.413771 1_555
Si178 Si184 2.413771 1_545
Si179 Si65 2.391489 1_555
Si179 Si180 2.413771 1_555
Si179 Si186 2.413771 1_555
Si180 Si56 2.391489 1_555
Si181 Si58 2.391489 1_555
Si182 Si59 2.391489 1_555
Si183 Si57 2.391489 1_555
Si184 Si48 2.391489 1_555
Si185 Si50 2.391489 1_555
Si186 Si51 2.391489 1_555
Si187 Si49 2.391489 1_555
Si188 Si52 2.391489 1_555
Si189 Si54 2.391489 1_555
Si190 Si55 2.391489 1_555
Si191 Si53 2.391489 1_555
Si192 Si212 2.315079 1_555
Si192 Si208 2.315079 1_555
Si192 Si43 2.329140 1_555
Si193 Si211 2.315079 1_555
Si193 Si214 2.315079 1_554
Si193 Si40 2.329140 1_555
Si194 Si215 2.315079 1_556
Si194 Si209 2.315079 1_455
Si194 Si42 2.329140 1_555
Si195 Si210 2.315079 1_655
Si195 Si213 2.315079 1_555
Si195 Si41 2.329140 1_555
Si196 Si204 2.315079 1_555
Si196 Si212 2.315079 1_555
Si196 Si47 2.329140 1_555
Si197 Si215 2.315079 1_555
Si197 Si206 2.315079 1_455
Si197 Si44 2.329140 1_555
Si198 Si207 2.315079 1_655
Si198 Si213 2.315079 1_545
Si198 Si46 2.329140 1_555
Si199 Si214 2.315079 1_565
Si199 Si205 2.315079 1_555
Si199 Si45 2.329140 1_555
Si200 Si208 2.315079 1_555
Si200 Si204 2.315079 1_555
Si200 Si39 2.329140 1_555
Si201 Si207 2.315079 1_555
Si201 Si210 2.315079 1_545
Si201 Si36 2.329140 1_555
Si202 Si211 2.315079 1_565
Si202 Si205 2.315079 1_554
Si202 Si38 2.329140 1_555
Si203 Si209 2.315079 1_555
Si203 Si206 2.315079 1_556
Si203 Si37 2.329140 1_555
Si204 Si31 2.329140 1_555
Si205 Si28 2.329140 1_555
Si206 Si30 2.329140 1_555
Si207 Si29 2.329140 1_555
Si208 Si35 2.329140 1_555
Si209 Si32 2.329140 1_555
Si210 Si34 2.329140 1_555
Si211 Si33 2.329140 1_555
Si212 Si27 2.329140 1_555
Si213 Si24 2.329140 1_555
Si214 Si26 2.329140 1_555
Si215 Si25 2.329140 1_555
Si216 Si227 2.334111 1_555
Si216 Si5 2.379999 1_555
Si217 Si226 2.334111 1_555
Si217 Si8 2.379999 1_555
Si217 Si6 2.379999 1_555
Si218 Si225 2.334111 1_555
Si218 Si4 2.379999 1_555
Si218 Si9 2.379999 1_555
Si219 Si224 2.334111 1_555
Si219 Si7 2.379999 1_555
Si219 Si3 2.379999 1_555
Si220 Si231 2.334111 1_555
Si221 Si230 2.334111 1_555
Si222 Si229 2.334111 1_555
Si223 Si228 2.334111 1_555
Si223 Si23 2.379999 1_555
Si228 Si97 2.370665 1_555
Si229 Si96 2.370665 1_555
Si230 Si99 2.370665 1_555
Si231 Si98 2.370665 1_555
