# generated using pymatgen
data_Mn3Ni4Sb
_symmetry_space_group_name_H-M   'P 1'
_cell_length_a   7.39541691
_cell_length_b   7.39541691
_cell_length_c   7.39541703
_cell_angle_alpha   32.89195608
_cell_angle_beta   32.89195608
_cell_angle_gamma   32.89195213
_symmetry_Int_Tables_number   1
_chemical_formula_structural   Mn3Ni4Sb
_chemical_formula_sum   'Mn3 Ni4 Sb1'
_cell_volume   106.13293116
_cell_formula_units_Z   1
loop_
 _symmetry_equiv_pos_site_id
 _symmetry_equiv_pos_as_xyz
  1  'x, y, z'
loop_
 _atom_site_type_symbol
 _atom_site_label
 _atom_site_symmetry_multiplicity
 _atom_site_fract_x
 _atom_site_fract_y
 _atom_site_fract_z
 _atom_site_occupancy
  Mn  Mn0  1  0.24620900  0.24620900  0.24620900  1
  Mn  Mn1  1  0.75379100  0.75379100  0.75379100  1
  Mn  Mn2  1  0.50000000  0.50000000  0.50000000  1
  Ni  Ni0  1  0.87163000  0.87163000  0.87163000  1
  Ni  Ni1  1  0.37913000  0.37913000  0.37913000  1
  Ni  Ni2  1  0.12837000  0.12837000  0.12837000  1
  Ni  Ni3  1  0.62087000  0.62087000  0.62087000  1
  Sb  Sb0  1  0.00000000  0.00000000  0.00000000  1
loop_
_geom_bond_atom_site_label_1
_geom_bond_atom_site_label_2
_geom_bond_distance
_geom_bond_site_symmetry_2
Mn0 Ni2 2.470760 1_555
Mn0 Ni0 2.567646 1_454
Mn0 Ni0 2.567646 1_544
Mn0 Ni0 2.567646 1_445
Mn0 Ni3 2.568226 1_545
Mn0 Ni3 2.568226 1_455
Mn0 Ni3 2.568226 1_554
Mn0 Ni1 2.786988 1_555
Mn0 Sb0 3.030174 1_565
Mn0 Sb0 3.030174 1_655
Mn0 Sb0 3.030175 1_556
Mn1 Ni0 2.470760 1_555
Mn1 Ni2 2.567646 1_566
Mn1 Ni2 2.567646 1_656
Mn1 Ni2 2.567646 1_665
Mn1 Ni1 2.568226 1_655
Mn1 Ni1 2.568226 1_565
Mn1 Ni1 2.568226 1_556
Mn1 Ni3 2.786988 1_555
Mn1 Sb0 3.030174 1_656
Mn1 Sb0 3.030174 1_566
Mn1 Sb0 3.030175 1_665
Mn2 Ni1 2.534311 1_555
Mn2 Ni3 2.534311 1_555
Mn2 Ni2 2.547486 1_565
Mn2 Ni2 2.547486 1_655
Mn2 Ni0 2.547486 1_545
Mn2 Ni0 2.547486 1_455
Mn2 Ni2 2.547486 1_556
Mn2 Ni0 2.547486 1_554
Ni0 Sb0 2.691566 1_666
Ni1 Sb0 2.601337 1_655
Ni1 Sb0 2.601337 1_565
Ni1 Sb0 2.601337 1_556
Ni2 Sb0 2.691566 1_555
Ni3 Sb0 2.601337 1_566
Ni3 Sb0 2.601337 1_656
Ni3 Sb0 2.601337 1_665
