# generated using pymatgen
data_BN
_symmetry_space_group_name_H-M   'P 1'
_cell_length_a   10.94820876
_cell_length_b   10.69649166
_cell_length_c   10.43193623
_cell_angle_alpha   89.99831764
_cell_angle_beta   91.68703074
_cell_angle_gamma   86.36191598
_symmetry_Int_Tables_number   1
_chemical_formula_structural   BN
_chemical_formula_sum   'B50 N50'
_cell_volume   1218.66459191
_cell_formula_units_Z   50
loop_
 _symmetry_equiv_pos_site_id
 _symmetry_equiv_pos_as_xyz
  1  'x, y, z'
loop_
 _atom_site_type_symbol
 _atom_site_label
 _atom_site_symmetry_multiplicity
 _atom_site_fract_x
 _atom_site_fract_y
 _atom_site_fract_z
 _atom_site_occupancy
  B  B0  1  0.66837000  0.87094000  0.44705100  1
  B  B1  1  0.88854800  0.60758700  0.95808500  1
  B  B2  1  0.33024100  0.53555600  0.65209200  1
  B  B3  1  0.34234500  0.48871800  0.16864800  1
  B  B4  1  0.67706900  0.72891900  0.36895400  1
  B  B5  1  0.56860900  0.35366900  0.47124000  1
  B  B6  1  0.73528300  0.17556600  0.21944900  1
  B  B7  1  0.64126900  0.24894800  0.68383400  1
  B  B8  1  0.95139300  0.38463600  0.62069300  1
  B  B9  1  0.86214800  0.94257500  0.69916500  1
  B  B10  1  0.47006400  0.18493200  0.83226100  1
  B  B11  1  0.50118100  0.87486000  0.59840200  1
  B  B12  1  0.91491800  0.76725000  0.54049000  1
  B  B13  1  0.39595700  0.28073500  0.06171100  1
  B  B14  1  0.41425700  0.30901900  0.30397300  1
  B  B15  1  0.05824700  0.57518100  0.63194300  1
  B  B16  1  0.17934000  0.39093700  0.53370700  1
  B  B17  1  0.28096900  0.86557400  0.91606800  1
  B  B18  1  0.34516800  0.70125500  0.27583200  1
  B  B19  1  0.31719600  0.48948600  0.92746600  1
  B  B20  1  0.18866400  0.67241900  0.83018400  1
  B  B21  1  0.98047700  0.08093900  0.86793900  1
  B  B22  1  0.33140900  0.50973400  0.41227900  1
  B  B23  1  0.14483300  0.28637100  0.41823800  1
  B  B24  1  0.35052600  0.77038300  0.72386000  1
  B  B25  1  0.27449100  0.68278300  0.05000500  1
  B  B26  1  0.73917700  0.41470600  0.18940600  1
  B  B27  1  0.04646400  0.22949300  0.04824000  1
  B  B28  1  0.36475200  0.06562400  0.99291900  1
  B  B29  1  0.98023100  0.73956500  0.77024700  1
  B  B30  1  0.81800800  0.81126400  0.41681900  1
  B  B31  1  0.93078100  0.77430600  0.02901900  1
  B  B32  1  0.40812200  0.90826200  0.37171100  1
  B  B33  1  0.80643300  0.64935600  0.19554100  1
  B  B34  1  0.91078800  0.54044400  0.48845100  1
  B  B35  1  0.70710700  0.96729000  0.33951800  1
  B  B36  1  0.09693600  0.31803700  0.26777900  1
  B  B37  1  0.45855600  0.38383500  0.78127900  1
  B  B38  1  0.72402400  0.41641200  0.50986200  1
  B  B39  1  0.53271400  0.08738000  0.61361700  1
  B  B40  1  0.40086700  0.09733900  0.22679600  1
  B  B41  1  0.01954900  0.90984000  0.20316200  1
  B  B42  1  0.88977500  0.40560800  0.82667300  1
  B  B43  1  0.47548900  0.13111400  0.45785000  1
  B  B44  1  0.71767200  0.99675500  0.64597200  1
  B  B45  1  0.37737600  0.71563900  0.50794100  1
  B  B46  1  0.32748100  0.89237600  0.14403600  1
  B  B47  1  0.40989200  0.97874800  0.78107800  1
  B  B48  1  0.09820300  0.05466500  0.36630600  1
  B  B49  1  0.65692900  0.56853500  0.33863900  1
  N  N0  1  0.42684700  0.83667200  0.48944900  1
  N  N1  1  0.18414000  0.18755700  0.71242200  1
  N  N2  1  0.29221300  0.46444100  0.53972100  1
  N  N3  1  0.60824600  0.83982800  0.01308900  1
  N  N4  1  0.42618100  0.04639000  0.35759200  1
  N  N5  1  0.62605100  0.46386700  0.41660700  1
  N  N6  1  0.35445600  0.43267100  0.29692800  1
  N  N7  1  0.08718400  0.64831200  0.73946700  1
  N  N8  1  0.27415100  0.81773000  0.04290600  1
  N  N9  1  0.85563800  0.43268800  0.50869400  1
  N  N10  1  0.25078900  0.78658400  0.80854100  1
  N  N11  1  0.36263700  0.66272300  0.63689100  1
  N  N12  1  0.33829300  0.97936400  0.89307700  1
  N  N13  1  0.65955600  0.91515200  0.97007000  1
  N  N14  1  0.07623700  0.43857800  0.60728000  1
  N  N15  1  0.65174900  0.34072600  0.58601200  1
  N  N16  1  0.03541200  0.15300700  0.95421100  1
  N  N17  1  0.06515200  0.94842100  0.31604500  1
  N  N18  1  0.48375300  0.26537100  0.41998900  1
  N  N19  1  0.90316300  0.33080400  0.72479500  1
  N  N20  1  0.13238600  0.15871500  0.41983400  1
  N  N21  1  0.54610900  0.28979900  0.78433200  1
  N  N22  1  0.21392000  0.10280700  0.65633700  1
  N  N23  1  0.35627900  0.02139800  0.12307700  1
  N  N24  1  0.93737800  0.72381900  0.89774700  1
  N  N25  1  0.46269200  0.08879800  0.73853500  1
  N  N26  1  0.86622200  0.66807500  0.08337500  1
  N  N27  1  0.91979100  0.81551300  0.66714300  1
  N  N28  1  0.40947300  0.22954300  0.19301500  1
  N  N29  1  0.87056400  0.48719700  0.91855400  1
  N  N30  1  0.32045100  0.62308900  0.16494400  1
  N  N31  1  0.36030800  0.41688100  0.04515000  1
  N  N32  1  0.06445600  0.30421400  0.14914500  1
  N  N33  1  0.24000800  0.60221200  0.94122700  1
  N  N34  1  0.41286800  0.18718100  0.95751300  1
  N  N35  1  0.35935700  0.83514000  0.26555600  1
  N  N36  1  0.92804000  0.01272100  0.78416000  1
  N  N37  1  0.73040400  0.53955500  0.22279800  1
  N  N38  1  0.98055600  0.87295300  0.09183000  1
  N  N39  1  0.79387200  0.73772800  0.30322000  1
  N  N40  1  0.61314200  0.60504000  0.82445600  1
  N  N41  1  0.62095200  0.91861900  0.57863800  1
  N  N42  1  0.66398800  0.11927200  0.65847000  1
  N  N43  1  0.43855500  0.86345300  0.71773900  1
  N  N44  1  0.97433000  0.63798900  0.52901100  1
  N  N45  1  0.73109100  0.06138800  0.26326400  1
  N  N46  1  0.73681600  0.29381400  0.18023300  1
  N  N47  1  0.64908300  0.64710500  0.73675300  1
  N  N48  1  0.34978800  0.64082100  0.39904500  1
  N  N49  1  0.35795000  0.46447500  0.78800100  1
loop_
_geom_bond_atom_site_label_1
_geom_bond_atom_site_label_2
_geom_bond_distance
_geom_bond_site_symmetry_2
B0 N41 1.556384 1_555
B1 N29 1.376429 1_555
B1 N26 1.478327 1_556
B1 N24 1.527038 1_555
B2 N11 1.437262 1_555
B2 N2 1.462068 1_555
B2 N49 1.620368 1_555
B3 N30 1.442395 1_555
B3 N6 1.465336 1_555
B3 N31 1.511521 1_555
B4 N39 1.476928 1_555
B5 N18 1.457088 1_555
B5 N15 1.483589 1_555
B5 N5 1.491598 1_555
B6 N45 1.308023 1_555
B6 N46 1.330612 1_555
B7 N42 1.419851 1_555
B7 N15 1.428075 1_555
B7 N21 1.543383 1_555
B8 N19 1.364572 1_555
B8 N14 1.527098 1_655
B8 N9 1.608650 1_555
B9 N36 1.378634 1_565
B9 N27 1.503546 1_555
B10 N25 1.423319 1_555
B10 N34 1.464999 1_555
B10 N21 1.531133 1_555
B11 N41 1.440434 1_555
B11 N43 1.447645 1_555
B11 N0 1.452155 1_555
B12 N27 1.419297 1_555
B12 N44 1.496524 1_555
B13 N28 1.475026 1_555
B13 N34 1.485133 1_554
B13 N31 1.492255 1_555
B14 N28 1.437845 1_555
B14 N6 1.438993 1_555
B14 N18 1.470477 1_555
B15 N7 1.407490 1_555
B15 N14 1.485428 1_555
B15 N44 1.520519 1_455
B16 N14 1.449469 1_555
B16 N2 1.505968 1_555
B17 N8 1.424382 1_556
B17 N12 1.427813 1_555
B17 N10 1.447399 1_555
B18 N48 1.436848 1_555
B18 N35 1.454558 1_555
B18 N30 1.456285 1_555
B19 N33 1.437525 1_555
B19 N31 1.500801 1_556
B19 N49 1.552563 1_555
B20 N10 1.455770 1_555
B20 N33 1.459400 1_555
B20 N7 1.473403 1_555
B21 N36 1.284339 1_555
B21 N16 1.339014 1_655
B22 N48 1.436336 1_555
B22 N6 1.477395 1_555
B22 N2 1.498762 1_555
B23 N20 1.380980 1_555
B24 N10 1.426720 1_555
B24 N43 1.431557 1_555
B24 N11 1.467858 1_555
B25 N30 1.422054 1_555
B25 N8 1.445119 1_555
B25 N33 1.479557 1_554
B26 N46 1.298495 1_555
B26 N37 1.378298 1_555
B27 N16 1.285214 1_554
B27 N32 1.339203 1_555
B28 N12 1.426983 1_545
B28 N23 1.445324 1_556
B28 N34 1.484211 1_555
B29 N24 1.436778 1_555
B29 N27 1.464411 1_555
B29 N7 1.517915 1_655
B30 N39 1.449443 1_555
B31 N38 1.375389 1_555
B31 N24 1.474139 1_554
B31 N26 1.495917 1_555
B32 N0 1.449889 1_555
B32 N35 1.463341 1_555
B32 N4 1.510801 1_565
B33 N26 1.378202 1_555
B33 N39 1.472044 1_555
B33 N37 1.513641 1_555
B34 N44 1.351466 1_555
B34 N9 1.354063 1_555
B35 N45 1.326878 1_565
B36 N32 1.288679 1_555
B37 N21 1.344402 1_555
B37 N49 1.358720 1_555
B38 N15 1.425085 1_555
B38 N9 1.462747 1_555
B38 N5 1.491316 1_555
B39 N25 1.530830 1_555
B39 N42 1.556768 1_555
B39 N41 2.030875 1_545
B40 N23 1.445030 1_555
B40 N28 1.466844 1_555
B40 N4 1.481239 1_555
B41 N38 1.295764 1_455
B41 N17 1.340840 1_555
B42 N29 1.308897 1_555
B42 N19 1.336248 1_555
B43 N4 1.495153 1_555
B43 N18 1.498354 1_555
B44 N42 1.409478 1_565
B44 N41 1.543300 1_555
B45 N48 1.425730 1_555
B45 N0 1.449742 1_555
B45 N11 1.476583 1_555
B46 N35 1.431934 1_555
B46 N23 1.452963 1_565
B46 N8 1.454082 1_555
B47 N25 1.420646 1_565
B47 N43 1.420956 1_555
B47 N12 1.425785 1_555
B48 N20 1.315737 1_555
B48 N17 1.318480 1_545
B49 N5 1.446880 1_555
B49 N37 1.493029 1_555
N1 N22 1.115419 1_555
N13 N3 1.112825 1_556
N40 N47 1.112652 1_555
