# generated using pymatgen
data_CsP7
_symmetry_space_group_name_H-M   'P 1'
_cell_length_a   9.30060689
_cell_length_b   9.69354759
_cell_length_c   9.74508096
_cell_angle_alpha   90.00000000
_cell_angle_beta   90.00000000
_cell_angle_gamma   90.00000000
_symmetry_Int_Tables_number   1
_chemical_formula_structural   CsP7
_chemical_formula_sum   'Cs4 P28'
_cell_volume   878.57630581
_cell_formula_units_Z   4
loop_
 _symmetry_equiv_pos_site_id
 _symmetry_equiv_pos_as_xyz
  1  'x, y, z'
loop_
 _atom_site_type_symbol
 _atom_site_label
 _atom_site_symmetry_multiplicity
 _atom_site_fract_x
 _atom_site_fract_y
 _atom_site_fract_z
 _atom_site_occupancy
  Cs  Cs0  1  0.78680693  0.25000000  0.00000000  1
  Cs  Cs1  1  0.21319307  0.75000000  0.50000000  1
  Cs  Cs2  1  0.21319307  0.75000000  0.00000000  1
  Cs  Cs3  1  0.78680693  0.25000000  0.50000000  1
  P  P0  1  0.56381705  0.83815411  0.75000000  1
  P  P1  1  0.43618295  0.16184589  0.25000000  1
  P  P2  1  0.56381705  0.66184589  0.25000000  1
  P  P3  1  0.43618295  0.33815411  0.75000000  1
  P  P4  1  0.83383077  0.63037006  0.63579494  1
  P  P5  1  0.16616923  0.36962994  0.13579494  1
  P  P6  1  0.83383077  0.86962994  0.36420506  1
  P  P7  1  0.16616923  0.13037006  0.86420506  1
  P  P8  1  0.16616923  0.36962994  0.36420506  1
  P  P9  1  0.83383077  0.63037006  0.86420506  1
  P  P10  1  0.16616923  0.13037006  0.63579494  1
  P  P11  1  0.83383077  0.86962994  0.13579494  1
  P  P12  1  0.74862859  0.96914594  0.75000000  1
  P  P13  1  0.25137141  0.03085406  0.25000000  1
  P  P14  1  0.74862859  0.53085406  0.25000000  1
  P  P15  1  0.25137141  0.46914594  0.75000000  1
  P  P16  1  0.91245711  0.81556410  0.75000000  1
  P  P17  1  0.08754289  0.18443590  0.25000000  1
  P  P18  1  0.91245711  0.68443590  0.25000000  1
  P  P19  1  0.08754289  0.31556410  0.75000000  1
  P  P20  1  0.60772946  0.68131735  0.90913045  1
  P  P21  1  0.39227054  0.31868265  0.40913045  1
  P  P22  1  0.60772946  0.81868265  0.09086955  1
  P  P23  1  0.39227054  0.18131735  0.59086955  1
  P  P24  1  0.39227054  0.31868265  0.09086955  1
  P  P25  1  0.60772946  0.68131735  0.59086955  1
  P  P26  1  0.39227054  0.18131735  0.90913045  1
  P  P27  1  0.60772946  0.81868265  0.40913045  1
loop_
_geom_bond_atom_site_label_1
_geom_bond_atom_site_label_2
_geom_bond_distance
_geom_bond_site_symmetry_2
Cs0 P12 3.670606 1_544
Cs0 P14 3.670606 1_555
Cs0 P17 3.763336 1_655
Cs0 P19 3.763336 1_654
Cs0 P26 3.833031 1_554
Cs0 P24 3.833031 1_555
Cs0 P9 3.941757 1_554
Cs0 P11 3.941757 1_545
Cs0 P7 3.942698 1_654
Cs0 P5 3.942698 1_655
Cs0 P1 4.159309 1_555
Cs0 P3 4.159309 1_554
Cs1 P15 3.670606 1_555
Cs1 P13 3.670606 1_565
Cs1 P18 3.763336 1_455
Cs1 P16 3.763336 1_455
Cs1 P25 3.833031 1_555
Cs1 P27 3.833031 1_555
Cs1 P10 3.941757 1_565
Cs1 P8 3.941757 1_555
Cs1 P6 3.942698 1_455
Cs1 P4 3.942698 1_455
Cs1 P0 4.159309 1_555
Cs1 P2 4.159309 1_555
Cs2 P13 3.670606 1_565
Cs2 P15 3.670606 1_554
Cs2 P18 3.763336 1_455
Cs2 P16 3.763336 1_454
Cs2 P22 3.833031 1_555
Cs2 P20 3.833031 1_554
Cs2 P7 3.941757 1_564
Cs2 P5 3.941757 1_555
Cs2 P9 3.942698 1_454
Cs2 P11 3.942698 1_455
Cs2 P2 4.159309 1_555
Cs2 P0 4.159309 1_554
Cs3 P12 3.670606 1_545
Cs3 P14 3.670606 1_555
Cs3 P19 3.763336 1_655
Cs3 P17 3.763336 1_655
Cs3 P21 3.833031 1_555
Cs3 P23 3.833031 1_555
Cs3 P4 3.941757 1_555
Cs3 P6 3.941757 1_545
Cs3 P10 3.942698 1_655
Cs3 P8 3.942698 1_655
Cs3 P3 4.159309 1_555
Cs3 P1 4.159309 1_555
P0 P12 2.137009 1_555
P0 P25 2.209733 1_555
P0 P20 2.209733 1_555
P1 P13 2.137009 1_555
P1 P21 2.209733 1_555
P1 P24 2.209733 1_555
P2 P27 2.209733 1_555
P2 P22 2.209733 1_555
P4 P9 2.225875 1_555
P5 P8 2.225875 1_555
P10 P23 2.204012 1_555
P10 P7 2.225875 1_555
P10 P19 2.235193 1_555
P11 P22 2.204012 1_555
P11 P6 2.225875 1_555
P11 P18 2.235193 1_555
P12 P16 2.130273 1_555
P13 P17 2.130273 1_555
P14 P18 2.130273 1_555
P14 P2 2.137009 1_555
P15 P19 2.130273 1_555
P15 P3 2.137009 1_555
P16 P4 2.235193 1_555
P16 P9 2.235193 1_555
P17 P5 2.235193 1_555
P17 P8 2.235193 1_555
P18 P6 2.235193 1_555
P19 P7 2.235193 1_555
P20 P9 2.204012 1_555
P20 P22 2.215786 1_556
P21 P8 2.204012 1_555
P21 P23 2.215786 1_555
P23 P3 2.209733 1_555
P24 P5 2.204012 1_555
P24 P26 2.215786 1_554
P25 P4 2.204012 1_555
P25 P27 2.215786 1_555
P26 P7 2.204012 1_555
P26 P3 2.209733 1_555
P27 P6 2.204012 1_555
