# generated using pymatgen
data_Ba2MnCu(P2O7)2
_symmetry_space_group_name_H-M   'P 1'
_cell_length_a   7.55264220
_cell_length_b   9.45706109
_cell_length_c   9.30800473
_cell_angle_alpha   70.05451481
_cell_angle_beta   103.33505308
_cell_angle_gamma   97.89811533
_symmetry_Int_Tables_number   1
_chemical_formula_structural   Ba2MnCu(P2O7)2
_chemical_formula_sum   'Ba4 Mn2 Cu2 P8 O28'
_cell_volume   606.84850004
_cell_formula_units_Z   2
loop_
 _symmetry_equiv_pos_site_id
 _symmetry_equiv_pos_as_xyz
  1  'x, y, z'
loop_
 _atom_site_type_symbol
 _atom_site_label
 _atom_site_symmetry_multiplicity
 _atom_site_fract_x
 _atom_site_fract_y
 _atom_site_fract_z
 _atom_site_occupancy
  Ba  Ba0  1  0.77534900  0.36292600  0.56847100  1
  Ba  Ba1  1  0.77526000  0.86292700  0.06841800  1
  Ba  Ba2  1  0.22241100  0.64007200  0.42562200  1
  Ba  Ba3  1  0.22236600  0.14007600  0.92560800  1
  Mn  Mn0  1  0.61595500  0.60589900  0.79797700  1
  Mn  Mn1  1  0.61546000  0.10585000  0.29793100  1
  Cu  Cu0  1  0.35435800  0.39832500  0.20301900  1
  Cu  Cu1  1  0.35336200  0.89839000  0.70273900  1
  P  P0  1  0.73198900  0.75403800  0.45656000  1
  P  P1  1  0.73196900  0.25402800  0.95657700  1
  P  P2  1  0.26604000  0.24305900  0.53967800  1
  P  P3  1  0.26606300  0.74301200  0.03970600  1
  P  P4  1  0.81660700  0.94308500  0.66004000  1
  P  P5  1  0.81658400  0.44306300  0.16006300  1
  P  P6  1  0.18725100  0.05833300  0.34551500  1
  P  P7  1  0.18736500  0.55826500  0.84557300  1
  O  O0  1  0.85150200  0.67890900  0.39549500  1
  O  O1  1  0.85150300  0.17887500  0.89554700  1
  O  O2  1  0.15868900  0.32188600  0.60624400  1
  O  O3  1  0.15872200  0.82176900  0.10633200  1
  O  O4  1  0.61902600  0.87402500  0.32412000  1
  O  O5  1  0.61907300  0.37403300  0.82411600  1
  O  O6  1  0.37820200  0.11865700  0.66988200  1
  O  O7  1  0.37837900  0.61869300  0.16989600  1
  O  O8  1  0.86965300  0.83664600  0.57045000  1
  O  O9  1  0.86962300  0.33662800  0.07048900  1
  O  O10  1  0.12163300  0.16125600  0.42932700  1
  O  O11  1  0.12168400  0.66115000  0.92941300  1
  O  O12  1  0.28539200  0.92589800  0.47722300  1
  O  O13  1  0.28561400  0.42588700  0.97730400  1
  O  O14  1  0.73143600  0.08148500  0.53139100  1
  O  O15  1  0.73150400  0.58149400  0.03144100  1
  O  O16  1  0.32996900  0.16424600  0.24987100  1
  O  O17  1  0.33000900  0.66428900  0.74987300  1
  O  O18  1  0.67311100  0.84639100  0.75509300  1
  O  O19  1  0.67300400  0.34641400  0.25507600  1
  O  O20  1  0.60834300  0.63598500  0.55678300  1
  O  O21  1  0.60829800  0.13598600  0.05678200  1
  O  O22  1  0.38833000  0.35823400  0.43378400  1
  O  O23  1  0.38816400  0.85825300  0.93364700  1
  O  O24  1  0.99089200  0.97947600  0.76149700  1
  O  O25  1  0.99084100  0.47941600  0.26159000  1
  O  O26  1  0.02445100  0.01136500  0.24185500  1
  O  O27  1  0.02456100  0.51130300  0.74198000  1
loop_
_geom_bond_atom_site_label_1
_geom_bond_atom_site_label_2
_geom_bond_distance
_geom_bond_site_symmetry_2
Ba0 O27 2.745552 1_655
Ba0 O14 2.764886 1_555
Ba0 O19 2.892873 1_555
Ba0 O2 2.898752 1_655
Ba0 O22 2.903375 1_555
Ba0 O1 2.912225 1_555
Ba0 O0 2.919790 1_555
Ba0 O5 2.926864 1_555
Ba0 O20 2.985205 1_555
Ba1 O26 2.745427 1_665
Ba1 O15 2.764452 1_555
Ba1 O18 2.892287 1_554
Ba1 O3 2.899717 1_655
Ba1 O23 2.904058 1_554
Ba1 O0 2.912174 1_555
Ba1 O1 2.919405 1_564
Ba1 O4 2.927131 1_555
Ba1 O21 2.985200 1_565
Ba2 O25 2.705359 1_455
Ba2 O0 2.812682 1_455
Ba2 O3 2.846070 1_555
Ba2 O12 2.861918 1_555
Ba2 O20 2.888825 1_555
Ba2 O2 2.938809 1_555
Ba2 O7 2.963364 1_555
Ba2 O17 3.018443 1_555
Ba2 O22 3.068565 1_555
Ba3 O24 2.705135 1_445
Ba3 O1 2.812361 1_455
Ba3 O2 2.846909 1_555
Ba3 O13 2.862175 1_555
Ba3 O21 2.888848 1_556
Ba3 O3 2.939888 1_546
Ba3 O6 2.962924 1_555
Ba3 O16 3.018382 1_556
Ba3 O23 3.068377 1_545
Mn0 O15 2.091776 1_556
Mn0 O5 2.124984 1_555
Mn0 O20 2.152579 1_555
Mn0 O18 2.169937 1_555
Mn0 O17 2.209633 1_555
Mn1 O14 2.092437 1_555
Mn1 O4 2.124917 1_545
Mn1 O21 2.152728 1_555
Mn1 O19 2.170911 1_555
Mn1 O16 2.206379 1_555
Cu0 O13 1.977857 1_554
Cu0 O7 1.988641 1_555
Cu0 O22 2.010028 1_555
Cu0 O16 2.095454 1_555
Cu0 O19 2.427364 1_555
Cu1 O12 1.975983 1_555
Cu1 O6 1.988056 1_565
Cu1 O23 2.010684 1_555
Cu1 O17 2.095397 1_555
Cu1 O18 2.435426 1_555
O0 P0 1.526787 1_555
O1 P1 1.526840 1_555
O2 P2 1.519857 1_555
O3 P3 1.519729 1_555
O4 P0 1.536788 1_555
O5 P1 1.536724 1_555
O6 P2 1.548563 1_555
O7 P3 1.548614 1_555
O8 P0 1.627420 1_555
O8 P4 1.645230 1_555
O9 P1 1.627478 1_554
O9 P5 1.645061 1_555
O10 P6 1.621906 1_555
O10 P2 1.623737 1_555
O11 P7 1.622050 1_555
O11 P3 1.623629 1_556
O12 P6 1.552216 1_565
O13 P7 1.552309 1_555
O14 P4 1.538694 1_545
O15 P5 1.538540 1_555
O16 P6 1.579636 1_555
O17 P7 1.579859 1_555
O18 P4 1.552911 1_555
O19 P5 1.553062 1_555
O20 P0 1.547107 1_555
O21 P1 1.547100 1_554
O22 P2 1.556273 1_555
O23 P3 1.556423 1_556
O24 P4 1.505575 1_555
O25 P5 1.505640 1_555
O26 P6 1.495041 1_555
O27 P7 1.494689 1_555
