# generated using pymatgen
data_Sr4Nd3Ta2Al5O21
_symmetry_space_group_name_H-M   'P 1'
_cell_length_a   15.96771912
_cell_length_b   15.96771912
_cell_length_c   15.96771851
_cell_angle_alpha   19.70611561
_cell_angle_beta   19.70611561
_cell_angle_gamma   19.70611430
_symmetry_Int_Tables_number   1
_chemical_formula_structural   Sr4Nd3Ta2Al5O21
_chemical_formula_sum   'Sr4 Nd3 Ta2 Al5 O21'
_cell_volume   404.83914704
_cell_formula_units_Z   1
loop_
 _symmetry_equiv_pos_site_id
 _symmetry_equiv_pos_as_xyz
  1  'x, y, z'
loop_
 _atom_site_type_symbol
 _atom_site_label
 _atom_site_symmetry_multiplicity
 _atom_site_fract_x
 _atom_site_fract_y
 _atom_site_fract_z
 _atom_site_occupancy
  Sr  Sr0  1  0.14250100  0.14250100  0.14250100  1
  Sr  Sr1  1  0.85749900  0.85749900  0.85749900  1
  Sr  Sr2  1  0.57442400  0.57442400  0.57442400  1
  Sr  Sr3  1  0.42557600  0.42557600  0.42557600  1
  Nd  Nd0  1  0.28946800  0.28946800  0.28946800  1
  Nd  Nd1  1  0.00000000  0.00000000  0.00000000  1
  Nd  Nd2  1  0.71053200  0.71053200  0.71053200  1
  Ta  Ta0  1  0.78505100  0.78505100  0.78505100  1
  Ta  Ta1  1  0.21494900  0.21494900  0.21494900  1
  Al  Al0  1  0.50000000  0.50000000  0.50000000  1
  Al  Al1  1  0.93083600  0.93083600  0.93083600  1
  Al  Al2  1  0.64254800  0.64254800  0.64254800  1
  Al  Al3  1  0.35745200  0.35745200  0.35745200  1
  Al  Al4  1  0.06916400  0.06916400  0.06916400  1
  O  O0  1  0.14843900  0.64031800  0.64031800  1
  O  O1  1  0.64031800  0.64031800  0.14843900  1
  O  O2  1  0.85156100  0.35968200  0.35968200  1
  O  O3  1  0.35968200  0.35968200  0.85156100  1
  O  O4  1  0.64031800  0.14843900  0.64031800  1
  O  O5  1  0.57732700  0.07181800  0.07181800  1
  O  O6  1  0.07181800  0.07181800  0.57732700  1
  O  O7  1  0.35968200  0.85156100  0.35968200  1
  O  O8  1  0.28222200  0.79042100  0.79042100  1
  O  O9  1  0.79042100  0.79042100  0.28222200  1
  O  O10  1  0.07181800  0.57732700  0.07181800  1
  O  O11  1  0.00000000  0.50000000  0.50000000  1
  O  O12  1  0.50000000  0.50000000  0.00000000  1
  O  O13  1  0.79042100  0.28222200  0.79042100  1
  O  O14  1  0.71777800  0.20957900  0.20957900  1
  O  O15  1  0.20957900  0.20957900  0.71777800  1
  O  O16  1  0.50000000  0.00000000  0.50000000  1
  O  O17  1  0.42267300  0.92818200  0.92818200  1
  O  O18  1  0.92818200  0.92818200  0.42267300  1
  O  O19  1  0.20957900  0.71777800  0.20957900  1
  O  O20  1  0.92818200  0.42267300  0.92818200  1
loop_
_geom_bond_atom_site_label_1
_geom_bond_atom_site_label_2
_geom_bond_distance
_geom_bond_site_symmetry_2
Nd0 O11 2.594559 1_555
Nd0 O16 2.594559 1_555
Nd0 O12 2.594559 1_555
Nd0 O9 2.733828 1_455
Nd0 O9 2.733828 1_545
Nd0 O8 2.733828 1_554
Nd0 O13 2.733828 1_554
Nd0 O8 2.733828 1_545
Nd0 O13 2.733828 1_455
Nd0 O10 2.805382 1_555
Nd0 O5 2.805382 1_555
Nd0 O6 2.805382 1_555
Nd1 O8 2.646153 1_544
Nd1 O13 2.646153 1_454
Nd1 O14 2.646153 1_455
Nd1 O19 2.646153 1_545
Nd1 O9 2.646153 1_445
Nd1 O15 2.646153 1_554
Nd1 O12 2.732427 1_545
Nd1 O12 2.732427 1_455
Nd1 O11 2.732427 1_545
Nd1 O16 2.732427 1_455
Nd1 O16 2.732427 1_554
Nd1 O11 2.732427 1_554
Nd2 O11 2.594559 1_655
Nd2 O16 2.594559 1_565
Nd2 O12 2.594559 1_556
Nd2 O15 2.733828 1_655
Nd2 O15 2.733828 1_565
Nd2 O19 2.733828 1_556
Nd2 O14 2.733828 1_556
Nd2 O14 2.733828 1_565
Nd2 O19 2.733828 1_655
Nd2 O17 2.805382 1_555
Nd2 O20 2.805382 1_555
Nd2 O18 2.805382 1_555
Al0 O1 1.908150 1_555
Al0 O3 1.908150 1_555
Al0 O0 1.908150 1_555
Al0 O4 1.908150 1_555
Al0 O2 1.908150 1_555
Al0 O7 1.908150 1_555
Al1 O9 1.904594 1_556
Al1 O13 1.904595 1_565
Al1 O8 1.904595 1_655
Al1 O6 1.920501 1_665
Al1 O10 1.920501 1_656
Al1 O5 1.920501 1_566
Al2 O9 1.895483 1_555
Al2 O13 1.895483 1_555
Al2 O8 1.895483 1_555
Al2 O12 1.942024 1_556
Al2 O16 1.942024 1_565
Al2 O11 1.942024 1_655
Al3 O15 1.895483 1_555
Al3 O19 1.895483 1_555
Al3 O14 1.895483 1_555
Al3 O12 1.942024 1_555
Al3 O16 1.942024 1_555
Al3 O11 1.942024 1_555
Al4 O15 1.904594 1_554
Al4 O19 1.904595 1_545
Al4 O14 1.904595 1_455
Al4 O18 1.920501 1_445
Al4 O17 1.920501 1_544
Al4 O20 1.920501 1_454
O0 Ta0 1.977141 1_455
O0 Sr0 2.732658 1_565
O0 Sr0 2.732658 1_556
O0 Sr1 2.758642 1_455
O0 Sr3 2.845205 1_555
O1 Ta0 1.977140 1_554
O1 Sr0 2.732658 1_565
O1 Sr0 2.732658 1_655
O1 Sr1 2.758643 1_554
O1 Sr3 2.845205 1_555
O2 Ta1 1.977141 1_655
O2 Sr1 2.732658 1_545
O2 Sr1 2.732658 1_554
O2 Sr0 2.758642 1_655
O2 Sr2 2.845205 1_555
O3 Ta1 1.977140 1_556
O3 Sr1 2.732658 1_545
O3 Sr1 2.732658 1_455
O3 Sr0 2.758643 1_556
O3 Sr2 2.845205 1_555
O4 Ta0 1.977141 1_545
O4 Sr0 2.732658 1_655
O4 Sr0 2.732658 1_556
O4 Sr1 2.758642 1_545
O4 Sr3 2.845205 1_555
O5 Ta1 1.990825 1_555
O5 Sr2 2.732721 1_545
O5 Sr2 2.732721 1_554
O5 Sr1 2.799071 1_544
O6 Ta1 1.990824 1_555
O6 Sr2 2.732721 1_545
O6 Sr2 2.732721 1_455
O6 Sr1 2.799071 1_445
O7 Ta1 1.977141 1_565
O7 Sr1 2.732658 1_455
O7 Sr1 2.732658 1_554
O7 Sr0 2.758642 1_565
O7 Sr2 2.845205 1_555
O8 Sr2 2.712749 1_555
O9 Sr2 2.712749 1_555
O10 Ta1 1.990825 1_555
O10 Sr2 2.732721 1_455
O10 Sr2 2.732721 1_554
O10 Sr1 2.799071 1_454
O13 Sr2 2.712749 1_555
O14 Sr3 2.712749 1_555
O15 Sr3 2.712749 1_555
O17 Ta0 1.990825 1_555
O17 Sr3 2.732721 1_565
O17 Sr3 2.732721 1_556
O17 Sr0 2.799071 1_566
O18 Ta0 1.990824 1_555
O18 Sr3 2.732721 1_565
O18 Sr3 2.732721 1_655
O18 Sr0 2.799071 1_665
O19 Sr3 2.712749 1_555
O20 Ta0 1.990825 1_555
O20 Sr3 2.732721 1_655
O20 Sr3 2.732721 1_556
O20 Sr0 2.799071 1_656
