# generated using pymatgen
data_MnAu4
_symmetry_space_group_name_H-M   'P 1'
_cell_length_a   23.04199780
_cell_length_b   23.04199780
_cell_length_c   23.04199668
_cell_angle_alpha   14.95659041
_cell_angle_beta   14.95659041
_cell_angle_gamma   14.95659080
_symmetry_Int_Tables_number   1
_chemical_formula_structural   MnAu4
_chemical_formula_sum   'Mn8 Au32'
_cell_volume   709.71297869
_cell_formula_units_Z   8
loop_
 _symmetry_equiv_pos_site_id
 _symmetry_equiv_pos_as_xyz
  1  'x, y, z'
loop_
 _atom_site_type_symbol
 _atom_site_label
 _atom_site_symmetry_multiplicity
 _atom_site_fract_x
 _atom_site_fract_y
 _atom_site_fract_z
 _atom_site_occupancy
  Mn  Mn0_0  1  0.00000000  0.00000000  0.00000000  1
  Mn  Mn0_1  1  1.00000000  0.00000000  0.50000000  1
  Mn  Mn0_2  1  0.00000000  0.50000000  0.00000000  1
  Mn  Mn0_3  1  1.00000000  0.50000000  0.50000000  1
  Mn  Mn0_4  1  0.50000000  0.00000000  0.00000000  1
  Mn  Mn0_5  1  0.50000000  0.00000000  0.50000000  1
  Mn  Mn0_6  1  0.50000000  0.50000000  0.00000000  1
  Mn  Mn0_7  1  0.50000000  0.50000000  0.50000000  1
  Au  Au0_0  1  0.30272850  0.30272850  0.30272850  1
  Au  Au0_1  1  0.30272850  0.30272850  0.80272850  1
  Au  Au0_2  1  0.30272850  0.80272850  0.30272850  1
  Au  Au0_3  1  0.30272850  0.80272850  0.80272850  1
  Au  Au0_4  1  0.80272850  0.30272850  0.30272850  1
  Au  Au0_5  1  0.80272850  0.30272850  0.80272850  1
  Au  Au0_6  1  0.80272850  0.80272850  0.30272850  1
  Au  Au0_7  1  0.80272850  0.80272850  0.80272850  1
  Au  Au1_0  1  0.10085600  0.10085600  0.10085600  1
  Au  Au1_1  1  0.10085600  0.10085600  0.60085600  1
  Au  Au1_2  1  0.10085600  0.60085600  0.10085600  1
  Au  Au1_3  1  0.10085600  0.60085600  0.60085600  1
  Au  Au1_4  1  0.60085600  0.10085600  0.10085600  1
  Au  Au1_5  1  0.60085600  0.10085600  0.60085600  1
  Au  Au1_6  1  0.60085600  0.60085600  0.10085600  1
  Au  Au1_7  1  0.60085600  0.60085600  0.60085600  1
  Au  Au2_0  1  0.39914400  0.39914400  0.39914400  1
  Au  Au2_1  1  0.39914400  0.39914400  0.89914400  1
  Au  Au2_2  1  0.39914400  0.89914400  0.39914400  1
  Au  Au2_3  1  0.39914400  0.89914400  0.89914400  1
  Au  Au2_4  1  0.89914400  0.39914400  0.39914400  1
  Au  Au2_5  1  0.89914400  0.39914400  0.89914400  1
  Au  Au2_6  1  0.89914400  0.89914400  0.39914400  1
  Au  Au2_7  1  0.89914400  0.89914400  0.89914400  1
  Au  Au3_0  1  0.19727150  0.19727150  0.19727150  1
  Au  Au3_1  1  0.19727150  0.19727150  0.69727150  1
  Au  Au3_2  1  0.19727150  0.69727150  0.19727150  1
  Au  Au3_3  1  0.19727150  0.69727150  0.69727150  1
  Au  Au3_4  1  0.69727150  0.19727150  0.19727150  1
  Au  Au3_5  1  0.69727150  0.19727150  0.69727150  1
  Au  Au3_6  1  0.69727150  0.69727150  0.19727150  1
  Au  Au3_7  1  0.69727150  0.69727150  0.69727150  1
loop_
_geom_bond_atom_site_label_1
_geom_bond_atom_site_label_2
_geom_bond_distance
_geom_bond_site_symmetry_2
Mn0_0 Mn0_5 2.998930 1_455
Mn0_0 Mn0_3 2.998930 1_454
Mn0_0 Mn0_5 2.998930 1_554
Mn0_0 Mn0_3 2.998930 1_445
Mn0_0 Mn0_6 2.998930 1_545
Mn0_0 Mn0_6 2.998930 1_455
Mn0_1 Mn0_4 2.998930 1_556
Mn0_1 Mn0_2 2.998930 1_646
Mn0_1 Mn0_4 2.998930 1_655
Mn0_1 Mn0_2 2.998930 1_655
Mn0_1 Mn0_7 2.998930 1_645
Mn0_1 Mn0_7 2.998930 1_555
Mn0_2 Mn0_7 2.998930 1_554
Mn0_2 Mn0_7 2.998930 1_455
Mn0_2 Mn0_4 2.998930 1_555
Mn0_2 Mn0_4 2.998930 1_465
Mn0_3 Mn0_6 2.998930 1_655
Mn0_3 Mn0_6 2.998930 1_556
Mn0_3 Mn0_5 2.998930 1_565
Mn0_3 Mn0_5 2.998930 1_655
Mn0_4 Mn0_7 2.998930 1_554
Mn0_4 Mn0_7 2.998930 1_545
Mn0_5 Mn0_6 2.998930 1_546
Mn0_5 Mn0_6 2.998930 1_555
Au0_0 Mn0_3 2.715233 1_455
Au0_0 Mn0_5 2.715233 1_555
Au0_0 Mn0_6 2.715234 1_555
Au0_0 Au1_4 2.964235 1_555
Au0_0 Au1_2 2.964235 1_555
Au0_0 Au1_1 2.964235 1_555
Au0_0 Au0_3 2.998930 1_545
Au0_0 Au0_5 2.998930 1_554
Au0_0 Au0_5 2.998930 1_455
Au0_0 Au0_3 2.998930 1_554
Au0_0 Au0_6 2.998930 1_455
Au0_0 Au0_6 2.998930 1_545
Au0_1 Mn0_2 2.715233 1_556
Au0_1 Mn0_4 2.715233 1_556
Au0_1 Mn0_7 2.715234 1_555
Au0_1 Au1_5 2.964235 1_555
Au0_1 Au1_3 2.964235 1_555
Au0_1 Au1_0 2.964235 1_556
Au0_1 Au0_2 2.998930 1_546
Au0_1 Au0_4 2.998930 1_456
Au0_1 Au0_4 2.998930 1_555
Au0_1 Au0_2 2.998930 1_555
Au0_1 Au0_7 2.998930 1_545
Au0_1 Au0_7 2.998930 1_455
Au0_2 Mn0_7 2.715233 1_555
Au0_2 Mn0_1 2.715233 1_465
Au0_2 Mn0_4 2.715234 1_565
Au0_2 Au1_0 2.964235 1_565
Au0_2 Au1_6 2.964235 1_555
Au0_2 Au1_3 2.964235 1_555
Au0_2 Au0_7 2.998930 1_554
Au0_2 Au0_7 2.998930 1_455
Au0_2 Au0_4 2.998930 1_465
Au0_2 Au0_4 2.998930 1_555
Au0_3 Mn0_6 2.715233 1_556
Au0_3 Mn0_0 2.715233 1_566
Au0_3 Mn0_5 2.715234 1_565
Au0_3 Au1_1 2.964235 1_565
Au0_3 Au1_7 2.964235 1_555
Au0_3 Au1_2 2.964235 1_556
Au0_3 Au0_6 2.998930 1_555
Au0_3 Au0_6 2.998930 1_456
Au0_3 Au0_5 2.998930 1_465
Au0_3 Au0_5 2.998930 1_555
Au0_4 Mn0_7 2.715233 1_555
Au0_4 Mn0_1 2.715233 1_555
Au0_4 Mn0_2 2.715234 1_655
Au0_4 Au1_0 2.964235 1_655
Au0_4 Au1_6 2.964235 1_555
Au0_4 Au1_5 2.964235 1_555
Au0_4 Au0_7 2.998930 1_554
Au0_4 Au0_7 2.998930 1_545
Au0_5 Mn0_6 2.715233 1_556
Au0_5 Mn0_0 2.715233 1_656
Au0_5 Mn0_3 2.715234 1_555
Au0_5 Au1_7 2.964235 1_555
Au0_5 Au1_1 2.964235 1_655
Au0_5 Au1_4 2.964235 1_556
Au0_5 Au0_6 2.998930 1_555
Au0_5 Au0_6 2.998930 1_546
Au0_6 Mn0_3 2.715233 1_555
Au0_6 Mn0_5 2.715233 1_565
Au0_6 Mn0_0 2.715234 1_665
Au0_6 Au1_4 2.964235 1_565
Au0_6 Au1_2 2.964235 1_655
Au0_6 Au1_7 2.964235 1_555
Au0_7 Mn0_4 2.715233 1_566
Au0_7 Mn0_2 2.715233 1_656
Au0_7 Mn0_1 2.715234 1_565
Au0_7 Au1_5 2.964235 1_565
Au0_7 Au1_3 2.964235 1_655
Au0_7 Au1_6 2.964235 1_556
Au1_0 Au2_5 2.955339 1_454
Au1_0 Au2_3 2.955339 1_544
Au1_0 Au2_6 2.955339 1_445
Au1_0 Au1_3 2.998930 1_554
Au1_0 Au1_5 2.998930 1_554
Au1_0 Au1_5 2.998930 1_455
Au1_0 Au1_3 2.998930 1_545
Au1_0 Au1_6 2.998930 1_455
Au1_0 Au1_6 2.998930 1_545
Au1_1 Au2_2 2.955339 1_545
Au1_1 Au2_4 2.955339 1_455
Au1_1 Au2_7 2.955339 1_445
Au1_1 Au1_4 2.998930 1_456
Au1_1 Au1_2 2.998930 1_546
Au1_1 Au1_2 2.998930 1_555
Au1_1 Au1_4 2.998930 1_555
Au1_1 Au1_7 2.998930 1_545
Au1_1 Au1_7 2.998930 1_455
Au1_2 Au2_1 2.955339 1_554
Au1_2 Au2_7 2.955339 1_454
Au1_2 Au2_4 2.955339 1_455
Au1_2 Au1_7 2.998930 1_554
Au1_2 Au1_7 2.998930 1_455
Au1_2 Au1_4 2.998930 1_465
Au1_2 Au1_4 2.998930 1_555
Au1_3 Au2_0 2.955339 1_555
Au1_3 Au2_6 2.955339 1_455
Au1_3 Au2_5 2.955339 1_455
Au1_3 Au1_6 2.998930 1_456
Au1_3 Au1_6 2.998930 1_555
Au1_3 Au1_5 2.998930 1_465
Au1_3 Au1_5 2.998930 1_555
Au1_4 Au2_1 2.955339 1_554
Au1_4 Au2_7 2.955339 1_544
Au1_4 Au2_2 2.955339 1_545
Au1_4 Au1_7 2.998930 1_554
Au1_4 Au1_7 2.998930 1_545
Au1_5 Au2_0 2.955339 1_555
Au1_5 Au2_6 2.955339 1_545
Au1_5 Au2_3 2.955339 1_545
Au1_5 Au1_6 2.998930 1_546
Au1_5 Au1_6 2.998930 1_555
Au1_6 Au2_3 2.955339 1_554
Au1_6 Au2_5 2.955339 1_554
Au1_6 Au2_0 2.955339 1_555
Au1_7 Au2_4 2.955339 1_555
Au1_7 Au2_2 2.955339 1_555
Au1_7 Au2_1 2.955339 1_555
Au2_0 Au3_2 2.964235 1_555
Au2_0 Au3_4 2.964235 1_555
Au2_0 Au3_1 2.964235 1_555
Au2_0 Au2_3 2.998930 1_554
Au2_0 Au2_5 2.998930 1_455
Au2_0 Au2_5 2.998930 1_554
Au2_0 Au2_3 2.998930 1_545
Au2_0 Au2_6 2.998930 1_545
Au2_0 Au2_6 2.998930 1_455
Au2_1 Au3_3 2.964235 1_555
Au2_1 Au3_5 2.964235 1_555
Au2_1 Au3_0 2.964235 1_556
Au2_1 Au2_4 2.998930 1_555
Au2_1 Au2_2 2.998930 1_555
Au2_1 Au2_2 2.998930 1_546
Au2_1 Au2_4 2.998930 1_456
Au2_1 Au2_7 2.998930 1_545
Au2_1 Au2_7 2.998930 1_455
Au2_2 Au3_0 2.964235 1_565
Au2_2 Au3_6 2.964235 1_555
Au2_2 Au3_3 2.964235 1_555
Au2_2 Au2_7 2.998930 1_554
Au2_2 Au2_7 2.998930 1_455
Au2_2 Au2_4 2.998930 1_555
Au2_2 Au2_4 2.998930 1_465
Au2_3 Au3_7 2.964235 1_555
Au2_3 Au3_1 2.964235 1_565
Au2_3 Au3_2 2.964235 1_556
Au2_3 Au2_6 2.998930 1_555
Au2_3 Au2_6 2.998930 1_456
Au2_3 Au2_5 2.998930 1_555
Au2_3 Au2_5 2.998930 1_465
Au2_4 Au3_0 2.964235 1_655
Au2_4 Au3_6 2.964235 1_555
Au2_4 Au3_5 2.964235 1_555
Au2_4 Au2_7 2.998930 1_554
Au2_4 Au2_7 2.998930 1_545
Au2_5 Au3_7 2.964235 1_555
Au2_5 Au3_1 2.964235 1_655
Au2_5 Au3_4 2.964235 1_556
Au2_5 Au2_6 2.998930 1_555
Au2_5 Au2_6 2.998930 1_546
Au2_6 Au3_4 2.964235 1_565
Au2_6 Au3_2 2.964235 1_655
Au2_6 Au3_7 2.964235 1_555
Au2_7 Au3_3 2.964235 1_655
Au2_7 Au3_5 2.964235 1_565
Au2_7 Au3_6 2.964235 1_556
Au3_0 Mn0_2 2.715233 1_555
Au3_0 Mn0_4 2.715233 1_555
Au3_0 Mn0_1 2.715234 1_455
Au3_0 Au3_5 2.998930 1_554
Au3_0 Au3_3 2.998930 1_545
Au3_0 Au3_3 2.998930 1_554
Au3_0 Au3_5 2.998930 1_455
Au3_0 Au3_6 2.998930 1_545
Au3_0 Au3_6 2.998930 1_455
Au3_1 Mn0_5 2.715233 1_555
Au3_1 Mn0_3 2.715233 1_455
Au3_1 Mn0_0 2.715234 1_556
Au3_1 Au3_4 2.998930 1_555
Au3_1 Au3_2 2.998930 1_555
Au3_1 Au3_4 2.998930 1_456
Au3_1 Au3_2 2.998930 1_546
Au3_1 Au3_7 2.998930 1_455
Au3_1 Au3_7 2.998930 1_545
Au3_2 Mn0_0 2.715233 1_565
Au3_2 Mn0_6 2.715233 1_555
Au3_2 Mn0_3 2.715234 1_455
Au3_2 Au3_7 2.998930 1_455
Au3_2 Au3_7 2.998930 1_554
Au3_2 Au3_4 2.998930 1_465
Au3_2 Au3_4 2.998930 1_555
Au3_3 Mn0_1 2.715233 1_465
Au3_3 Mn0_7 2.715233 1_555
Au3_3 Mn0_2 2.715234 1_556
Au3_3 Au3_6 2.998930 1_456
Au3_3 Au3_6 2.998930 1_555
Au3_3 Au3_5 2.998930 1_555
Au3_3 Au3_5 2.998930 1_465
Au3_4 Mn0_0 2.715233 1_655
Au3_4 Mn0_6 2.715233 1_555
Au3_4 Mn0_5 2.715234 1_555
Au3_4 Au3_7 2.998930 1_545
Au3_4 Au3_7 2.998930 1_554
Au3_5 Mn0_7 2.715233 1_555
Au3_5 Mn0_1 2.715233 1_555
Au3_5 Mn0_4 2.715234 1_556
Au3_5 Au3_6 2.998930 1_546
Au3_5 Au3_6 2.998930 1_555
Au3_6 Mn0_4 2.715233 1_565
Au3_6 Mn0_2 2.715233 1_655
Au3_6 Mn0_7 2.715234 1_555
Au3_7 Mn0_5 2.715233 1_565
Au3_7 Mn0_3 2.715233 1_555
Au3_7 Mn0_6 2.715234 1_556
