# generated using pymatgen
data_Ca3Co2O7
_symmetry_space_group_name_H-M   'P 1'
_cell_length_a   5.29460045
_cell_length_b   10.00685398
_cell_length_c   5.40570440
_cell_angle_alpha   90.08692185
_cell_angle_beta   89.84272189
_cell_angle_gamma   105.29081998
_symmetry_Int_Tables_number   1
_chemical_formula_structural   Ca3Co2O7
_chemical_formula_sum   'Ca6 Co4 O14'
_cell_volume   276.26659854
_cell_formula_units_Z   2
loop_
 _symmetry_equiv_pos_site_id
 _symmetry_equiv_pos_as_xyz
  1  'x, y, z'
loop_
 _atom_site_type_symbol
 _atom_site_label
 _atom_site_symmetry_multiplicity
 _atom_site_fract_x
 _atom_site_fract_y
 _atom_site_fract_z
 _atom_site_occupancy
  Ca  Ca0  1  0.75919500  0.00422300  0.69938100  1
  Ca  Ca1  1  0.24540700  0.00418900  0.19940800  1
  Ca  Ca2  1  0.57051600  0.62483700  0.79120400  1
  Ca  Ca3  1  0.42762000  0.37013800  0.29276500  1
  Ca  Ca4  1  0.94168000  0.36998200  0.79273700  1
  Ca  Ca5  1  0.05462800  0.62476700  0.29116300  1
  Co  Co0  1  0.65199200  0.80492400  0.24932300  1
  Co  Co1  1  0.84634400  0.19533300  0.24766700  1
  Co  Co2  1  0.34869600  0.19527900  0.74772300  1
  Co  Co3  1  0.15316900  0.80492000  0.74909700  1
  O  O0  1  0.33065700  0.00460900  0.76699900  1
  O  O1  1  0.67372500  0.00445700  0.26714300  1
  O  O2  1  0.00199700  0.60515300  0.74360900  1
  O  O3  1  0.99494700  0.38913500  0.24122700  1
  O  O4  1  0.60290000  0.60505500  0.24456600  1
  O  O5  1  0.39402700  0.38914600  0.74158500  1
  O  O6  1  0.36834600  0.77953600  0.05833700  1
  O  O7  1  0.65313900  0.22564000  0.53780800  1
  O  O8  1  0.41206700  0.77974100  0.55865300  1
  O  O9  1  0.57232900  0.22566500  0.03771000  1
  O  O10  1  0.89098000  0.83214000  0.93205500  1
  O  O11  1  0.12469700  0.16451700  0.45909800  1
  O  O12  1  0.03930800  0.16460300  0.95910200  1
  O  O13  1  0.94163500  0.83200900  0.43164400  1
loop_
_geom_bond_atom_site_label_1
_geom_bond_atom_site_label_2
_geom_bond_distance
_geom_bond_site_symmetry_2
Ca0 O0 2.298209 1_555
Ca0 O12 2.344265 1_655
Ca0 O1 2.381310 1_555
Ca0 O10 2.383122 1_545
Ca0 O11 2.521968 1_655
Ca0 O7 2.579189 1_555
Ca0 O8 2.612978 1_545
Ca0 O13 2.619224 1_545
Ca1 O1 2.297437 1_555
Ca1 O11 2.341417 1_555
Ca1 O0 2.379238 1_554
Ca1 O13 2.380199 1_445
Ca1 O12 2.528437 1_554
Ca1 O9 2.578028 1_555
Ca1 O6 2.612071 1_545
Ca1 O10 2.622513 1_444
Ca2 O5 2.311883 1_555
Ca2 O8 2.320454 1_555
Ca2 O2 2.357538 1_655
Ca2 O10 2.430597 1_555
Ca2 O4 2.469088 1_556
Ca2 O6 2.546804 1_556
Ca2 O4 2.968794 1_555
Ca2 O2 2.976064 1_555
Ca3 O9 2.269465 1_555
Ca3 O4 2.303297 1_555
Ca3 O3 2.365379 1_455
Ca3 O11 2.423160 1_555
Ca3 O5 2.443006 1_555
Ca3 O7 2.489242 1_555
Ca4 O7 2.271772 1_555
Ca4 O2 2.305575 1_655
Ca4 O5 2.367176 1_655
Ca4 O12 2.422452 1_655
Ca4 O3 2.442917 1_556
Ca4 O9 2.483043 1_556
Ca5 O3 2.310439 1_455
Ca5 O6 2.319319 1_555
Ca5 O4 2.361568 1_455
Ca5 O13 2.425390 1_455
Ca5 O2 2.463113 1_555
Ca5 O8 2.556876 1_555
Ca5 O4 2.971014 1_555
Ca5 O2 2.975095 1_554
Co0 O13 1.784610 1_555
Co0 O6 1.786696 1_555
Co0 O4 1.947857 1_555
Co0 O1 1.971704 1_565
Co0 O8 2.072205 1_555
Co0 O10 2.103434 1_554
Co1 O1 1.890524 1_555
Co1 O3 1.891186 1_555
Co1 O12 1.930582 1_654
Co1 O9 1.930659 1_555
Co1 O7 1.936930 1_555
Co1 O11 1.955352 1_655
Co2 O0 1.888095 1_555
Co2 O5 1.891261 1_555
Co2 O7 1.926363 1_555
Co2 O11 1.936945 1_555
Co2 O9 1.941802 1_556
Co2 O12 1.951610 1_555
Co3 O10 1.780587 1_455
Co3 O8 1.782117 1_555
Co3 O2 1.947745 1_555
Co3 O0 1.973568 1_565
Co3 O6 2.078774 1_556
Co3 O13 2.108270 1_455
