# generated using pymatgen
data_NaGdTiO4
_symmetry_space_group_name_H-M   'P 1'
_cell_length_a   3.74191600
_cell_length_b   3.74191600
_cell_length_c   12.91215800
_cell_angle_alpha   90.00000000
_cell_angle_beta   90.00000000
_cell_angle_gamma   90.00000000
_symmetry_Int_Tables_number   1
_chemical_formula_structural   NaGdTiO4
_chemical_formula_sum   'Na2 Gd2 Ti2 O8'
_cell_volume   180.79520156
_cell_formula_units_Z   2
loop_
 _symmetry_equiv_pos_site_id
 _symmetry_equiv_pos_as_xyz
  1  'x, y, z'
loop_
 _atom_site_type_symbol
 _atom_site_label
 _atom_site_symmetry_multiplicity
 _atom_site_fract_x
 _atom_site_fract_y
 _atom_site_fract_z
 _atom_site_occupancy
  Na  Na0  1  0.50000000  0.00000000  0.58319700  1
  Na  Na1  1  0.00000000  0.50000000  0.41680300  1
  Gd  Gd0  1  0.00000000  0.50000000  0.10575200  1
  Gd  Gd1  1  0.50000000  0.00000000  0.89424800  1
  Ti  Ti0  1  0.50000000  0.00000000  0.26648500  1
  Ti  Ti1  1  0.00000000  0.50000000  0.73351500  1
  O  O0  1  0.00000000  0.50000000  0.93357900  1
  O  O1  1  0.50000000  0.00000000  0.06642100  1
  O  O2  1  0.00000000  0.50000000  0.59642100  1
  O  O3  1  0.50000000  0.00000000  0.40357900  1
  O  O4  1  0.00000000  0.00000000  0.22828000  1
  O  O5  1  0.50000000  0.50000000  0.22828000  1
  O  O6  1  0.00000000  0.00000000  0.77172000  1
  O  O7  1  0.50000000  0.50000000  0.77172000  1
loop_
_geom_bond_atom_site_label_1
_geom_bond_atom_site_label_2
_geom_bond_distance
_geom_bond_site_symmetry_2
Na0 O3 2.319256 1_555
Na0 O2 2.651438 1_545
Na0 O2 2.651438 1_645
Na0 O2 2.651438 1_555
Na0 O2 2.651438 1_655
Na1 O2 2.319256 1_555
Na1 O3 2.651438 1_565
Na1 O3 2.651438 1_455
Na1 O3 2.651438 1_465
Na1 O3 2.651438 1_555
Gd0 O0 2.223125 1_554
Gd0 O4 2.450210 1_555
Gd0 O5 2.450210 1_555
Gd0 O5 2.450210 1_455
Gd0 O4 2.450210 1_565
Gd0 O1 2.694230 1_455
Gd0 O1 2.694230 1_555
Gd0 O1 2.694230 1_565
Gd0 O1 2.694230 1_465
Gd1 O1 2.223125 1_556
Gd1 O7 2.450210 1_545
Gd1 O6 2.450210 1_555
Gd1 O6 2.450210 1_655
Gd1 O7 2.450210 1_555
Gd1 O0 2.694230 1_645
Gd1 O0 2.694230 1_655
Gd1 O0 2.694230 1_545
Gd1 O0 2.694230 1_555
O0 Ti1 2.583258 1_555
O1 Ti0 2.583258 1_555
O2 Ti1 1.770179 1_555
O3 Ti0 1.770179 1_555
O4 Ti0 1.934900 1_555
O4 Ti0 1.934900 1_455
O5 Ti0 1.934900 1_555
O5 Ti0 1.934900 1_565
O6 Ti1 1.934900 1_555
O6 Ti1 1.934900 1_545
O7 Ti1 1.934900 1_555
O7 Ti1 1.934900 1_655
