# generated using pymatgen
data_Li3Er3(TeO6)2
_symmetry_space_group_name_H-M   'P 1'
_cell_length_a   10.54511761
_cell_length_b   10.54511761
_cell_length_c   10.54511761
_cell_angle_alpha   109.47122063
_cell_angle_beta   109.47122063
_cell_angle_gamma   109.47122063
_symmetry_Int_Tables_number   1
_chemical_formula_structural   Li3Er3(TeO6)2
_chemical_formula_sum   'Li12 Er12 Te8 O48'
_cell_volume   902.67703244
_cell_formula_units_Z   4
loop_
 _symmetry_equiv_pos_site_id
 _symmetry_equiv_pos_as_xyz
  1  'x, y, z'
loop_
 _atom_site_type_symbol
 _atom_site_label
 _atom_site_symmetry_multiplicity
 _atom_site_fract_x
 _atom_site_fract_y
 _atom_site_fract_z
 _atom_site_occupancy
  Li  Li0  1  0.25000000  0.62500000  0.37500000  1
  Li  Li1  1  0.75000000  0.37500000  0.62500000  1
  Li  Li2  1  0.75000000  0.87500000  0.12500000  1
  Li  Li3  1  0.37500000  0.25000000  0.62500000  1
  Li  Li4  1  0.62500000  0.75000000  0.37500000  1
  Li  Li5  1  0.25000000  0.12500000  0.87500000  1
  Li  Li6  1  0.12500000  0.75000000  0.87500000  1
  Li  Li7  1  0.87500000  0.25000000  0.12500000  1
  Li  Li8  1  0.62500000  0.37500000  0.25000000  1
  Li  Li9  1  0.37500000  0.62500000  0.75000000  1
  Li  Li10  1  0.87500000  0.12500000  0.75000000  1
  Li  Li11  1  0.12500000  0.87500000  0.25000000  1
  Er  Er0  1  0.25000000  0.37500000  0.12500000  1
  Er  Er1  1  0.75000000  0.62500000  0.87500000  1
  Er  Er2  1  0.75000000  0.12500000  0.37500000  1
  Er  Er3  1  0.12500000  0.25000000  0.37500000  1
  Er  Er4  1  0.37500000  0.75000000  0.12500000  1
  Er  Er5  1  0.25000000  0.87500000  0.62500000  1
  Er  Er6  1  0.87500000  0.75000000  0.62500000  1
  Er  Er7  1  0.62500000  0.25000000  0.87500000  1
  Er  Er8  1  0.37500000  0.12500000  0.25000000  1
  Er  Er9  1  0.62500000  0.87500000  0.75000000  1
  Er  Er10  1  0.12500000  0.37500000  0.75000000  1
  Er  Er11  1  0.87500000  0.62500000  0.25000000  1
  Te  Te0  1  0.00000000  0.00000000  0.00000000  1
  Te  Te1  1  0.50000000  0.00000000  0.50000000  1
  Te  Te2  1  0.00000000  0.50000000  0.50000000  1
  Te  Te3  1  0.50000000  0.00000000  0.00000000  1
  Te  Te4  1  0.50000000  0.50000000  0.00000000  1
  Te  Te5  1  0.50000000  0.50000000  0.50000000  1
  Te  Te6  1  0.00000000  0.00000000  0.50000000  1
  Te  Te7  1  0.00000000  0.50000000  0.00000000  1
  O  O0  1  0.47207593  0.37940917  0.29970281  1
  O  O1  1  0.52792407  0.62059083  0.70029719  1
  O  O2  1  0.57970636  0.17237312  0.20029719  1
  O  O3  1  0.92029364  0.12059083  0.59266676  1
  O  O4  1  0.29970281  0.47207593  0.37940917  1
  O  O5  1  0.32762688  0.92029364  0.29970281  1
  O  O6  1  0.42029364  0.82762688  0.79970281  1
  O  O7  1  0.07970636  0.87940917  0.40733224  1
  O  O8  1  0.70029719  0.52792407  0.62059083  1
  O  O9  1  0.67237312  0.07970636  0.70029719  1
  O  O10  1  0.02792407  0.32762688  0.90733324  1
  O  O11  1  0.20029719  0.57970636  0.17237312  1
  O  O12  1  0.12059083  0.02792407  0.20029719  1
  O  O13  1  0.97207593  0.67237312  0.09266776  1
  O  O14  1  0.79970281  0.42029364  0.82762688  1
  O  O15  1  0.87940917  0.97207593  0.79970281  1
  O  O16  1  0.59266676  0.92029364  0.12059083  1
  O  O17  1  0.17237312  0.47207593  0.59266776  1
  O  O18  1  0.40733224  0.07970636  0.87940917  1
  O  O19  1  0.82762688  0.52792407  0.40733324  1
  O  O20  1  0.90733224  0.02792407  0.32762688  1
  O  O21  1  0.37940917  0.57970636  0.90733324  1
  O  O22  1  0.09266676  0.97207593  0.67237312  1
  O  O23  1  0.62059083  0.42029364  0.09266776  1
  O  O24  1  0.37940917  0.29970281  0.47207593  1
  O  O25  1  0.57970636  0.90733324  0.37940917  1
  O  O26  1  0.62059083  0.70029719  0.52792407  1
  O  O27  1  0.42029364  0.09266676  0.62059083  1
  O  O28  1  0.12059083  0.59266676  0.92029364  1
  O  O29  1  0.02792407  0.20029719  0.12059083  1
  O  O30  1  0.87940917  0.40733224  0.07970636  1
  O  O31  1  0.97207593  0.79970281  0.87940917  1
  O  O32  1  0.32762688  0.90733224  0.02792407  1
  O  O33  1  0.92029364  0.29970281  0.32762688  1
  O  O34  1  0.67237312  0.09266676  0.97207593  1
  O  O35  1  0.07970636  0.70029719  0.67237312  1
  O  O36  1  0.17237312  0.20029719  0.57970636  1
  O  O37  1  0.47207593  0.59266676  0.17237312  1
  O  O38  1  0.82762688  0.79970281  0.42029364  1
  O  O39  1  0.52792407  0.40733224  0.82762688  1
  O  O40  1  0.29970281  0.32762688  0.92029364  1
  O  O41  1  0.70029719  0.67237312  0.07970636  1
  O  O42  1  0.20029719  0.12059083  0.02792407  1
  O  O43  1  0.79970281  0.87940917  0.97207593  1
  O  O44  1  0.90733224  0.37940917  0.57970636  1
  O  O45  1  0.09266676  0.62059083  0.42029364  1
  O  O46  1  0.59266776  0.17237312  0.47207593  1
  O  O47  1  0.40733224  0.82762688  0.52792407  1
loop_
_geom_bond_atom_site_label_1
_geom_bond_atom_site_label_2
_geom_bond_distance
_geom_bond_site_symmetry_2
Li0 O47 1.864014 1_555
Li0 O45 1.864017 1_555
Li0 O4 1.864017 1_555
Li0 O11 1.864017 1_555
Li1 O44 1.864006 1_555
Li1 O46 1.864014 1_555
Li1 O14 1.864017 1_555
Li1 O8 1.864017 1_555
Li2 O20 1.864014 1_565
Li2 O41 1.864017 1_555
Li2 O43 1.864017 1_554
Li2 O16 1.864017 1_555
Li3 O39 1.864014 1_555
Li3 O27 1.864017 1_555
Li3 O36 1.864017 1_555
Li3 O24 1.864017 1_555
Li4 O38 1.864017 1_555
Li4 O26 1.864017 1_555
Li4 O37 1.864017 1_555
Li4 O25 1.864017 1_555
Li5 O18 1.864006 1_555
Li5 O22 1.864017 1_545
Li5 O40 1.864017 1_555
Li5 O42 1.864017 1_556
Li6 O32 1.864014 1_556
Li6 O31 1.864017 1_455
Li6 O35 1.864017 1_555
Li6 O28 1.864017 1_555
Li7 O30 1.864006 1_555
Li7 O34 1.864017 1_554
Li7 O33 1.864017 1_555
Li7 O29 1.864017 1_655
Li8 O23 1.864006 1_555
Li8 O19 1.864017 1_555
Li8 O2 1.864017 1_555
Li8 O0 1.864017 1_555
Li9 O17 1.864014 1_555
Li9 O6 1.864017 1_555
Li9 O1 1.864017 1_555
Li9 O21 1.864017 1_555
Li10 O15 1.864017 1_545
Li10 O9 1.864017 1_555
Li10 O10 1.864017 1_655
Li10 O3 1.864017 1_555
Li11 O7 1.864006 1_555
Li11 O13 1.864014 1_455
Li11 O5 1.864017 1_555
Li11 O12 1.864017 1_565
Er0 O40 2.322487 1_554
Er0 O11 2.322487 1_555
Er0 O4 2.322487 1_555
Er0 O42 2.322487 1_555
Er0 O37 2.423704 1_555
Er0 O0 2.423704 1_555
Er0 O10 2.423704 1_554
Er0 O29 2.423704 1_555
Er1 O14 2.322487 1_555
Er1 O8 2.322487 1_555
Er1 O43 2.322487 1_555
Er1 O41 2.322487 1_556
Er1 O31 2.423704 1_555
Er1 O1 2.423704 1_555
Er1 O39 2.423710 1_555
Er1 O13 2.423710 1_556
Er2 O20 2.322477 1_555
Er2 O46 2.322477 1_555
Er2 O44 2.322487 1_555
Er2 O16 2.322487 1_545
Er2 O25 2.423704 1_545
Er2 O33 2.423704 1_555
Er2 O2 2.423704 1_555
Er2 O3 2.423704 1_555
Er3 O33 2.322487 1_455
Er3 O36 2.322487 1_555
Er3 O29 2.322487 1_555
Er3 O24 2.322487 1_555
Er3 O4 2.423704 1_555
Er3 O12 2.423704 1_555
Er3 O20 2.423710 1_455
Er3 O17 2.423710 1_555
Er4 O32 2.322477 1_555
Er4 O28 2.322487 1_554
Er4 O37 2.322487 1_555
Er4 O25 2.322487 1_555
Er4 O11 2.423704 1_555
Er4 O16 2.423704 1_555
Er4 O5 2.423704 1_555
Er4 O21 2.423704 1_554
Er5 O47 2.322477 1_555
Er5 O18 2.322487 1_565
Er5 O45 2.322487 1_555
Er5 O22 2.322487 1_555
Er5 O27 2.423704 1_565
Er5 O6 2.423704 1_555
Er5 O35 2.423704 1_555
Er5 O7 2.423712 1_555
Er6 O26 2.322487 1_555
Er6 O31 2.322487 1_555
Er6 O38 2.322487 1_555
Er6 O35 2.322487 1_655
Er6 O19 2.423704 1_555
Er6 O22 2.423704 1_655
Er6 O15 2.423704 1_555
Er6 O8 2.423704 1_555
Er7 O39 2.322477 1_555
Er7 O30 2.322487 1_556
Er7 O27 2.322487 1_555
Er7 O34 2.322487 1_555
Er7 O9 2.423704 1_555
Er7 O14 2.423704 1_555
Er7 O18 2.423712 1_555
Er7 O23 2.423712 1_556
Er8 O5 2.322487 1_545
Er8 O2 2.322487 1_555
Er8 O0 2.322487 1_555
Er8 O12 2.322487 1_555
Er8 O24 2.423704 1_555
Er8 O42 2.423704 1_555
Er8 O46 2.423710 1_555
Er8 O32 2.423710 1_545
Er9 O15 2.322487 1_555
Er9 O1 2.322487 1_555
Er9 O6 2.322487 1_555
Er9 O9 2.322487 1_565
Er9 O34 2.423704 1_565
Er9 O26 2.423704 1_555
Er9 O43 2.423704 1_555
Er9 O47 2.423710 1_555
Er10 O17 2.322477 1_555
Er10 O21 2.322487 1_555
Er10 O3 2.322487 1_455
Er10 O10 2.322487 1_555
Er10 O40 2.423704 1_555
Er10 O28 2.423704 1_555
Er10 O36 2.423704 1_555
Er10 O44 2.423712 1_455
Er11 O13 2.322477 1_555
Er11 O23 2.322487 1_555
Er11 O7 2.322487 1_655
Er11 O19 2.322487 1_555
Er11 O45 2.423704 1_655
Er11 O41 2.423704 1_555
Er11 O38 2.423704 1_555
Er11 O30 2.423712 1_555
O0 Te5 1.926167 1_555
O1 Te5 1.926167 1_555
O2 Te3 1.926167 1_555
O3 Te6 1.926167 1_655
O4 Te5 1.926167 1_555
O5 Te1 1.926167 1_565
O6 Te3 1.926167 1_566
O7 Te6 1.926172 1_565
O8 Te5 1.926167 1_555
O9 Te1 1.926167 1_555
O10 Te7 1.926167 1_556
O11 Te7 1.926167 1_555
O12 Te0 1.926167 1_555
O13 Te7 1.926170 1_655
O14 Te7 1.926167 1_656
O15 Te0 1.926167 1_666
O16 Te3 1.926167 1_565
O17 Te2 1.926170 1_555
O18 Te3 1.926172 1_556
O19 Te2 1.926167 1_655
O20 Te6 1.926170 1_655
O21 Te4 1.926167 1_556
O22 Te6 1.926167 1_565
O23 Te4 1.926172 1_555
O24 Te5 1.926167 1_555
O25 Te1 1.926167 1_565
O26 Te5 1.926167 1_555
O27 Te1 1.926167 1_555
O28 Te7 1.926167 1_556
O29 Te0 1.926167 1_555
O30 Te7 1.926172 1_655
O31 Te0 1.926167 1_666
O32 Te3 1.926170 1_565
O33 Te2 1.926167 1_655
O34 Te3 1.926167 1_556
O35 Te2 1.926167 1_555
O36 Te6 1.926167 1_555
O37 Te4 1.926167 1_555
O38 Te6 1.926167 1_665
O39 Te4 1.926170 1_556
O40 Te4 1.926167 1_556
O41 Te4 1.926167 1_555
O42 Te0 1.926167 1_555
O43 Te0 1.926167 1_666
O44 Te2 1.926172 1_655
O45 Te2 1.926167 1_555
O46 Te1 1.926170 1_555
O47 Te1 1.926170 1_565
