# generated using pymatgen
data_LiSbN2
_symmetry_space_group_name_H-M   'P 1'
_cell_length_a   5.96238000
_cell_length_b   12.13719800
_cell_length_c   15.15073900
_cell_angle_alpha   90.00000000
_cell_angle_beta   90.00000000
_cell_angle_gamma   90.00000000
_symmetry_Int_Tables_number   1
_chemical_formula_structural   LiSbN2
_chemical_formula_sum   'Li16 Sb16 N32'
_cell_volume   1096.40726607
_cell_formula_units_Z   16
loop_
 _symmetry_equiv_pos_site_id
 _symmetry_equiv_pos_as_xyz
  1  'x, y, z'
loop_
 _atom_site_type_symbol
 _atom_site_label
 _atom_site_symmetry_multiplicity
 _atom_site_fract_x
 _atom_site_fract_y
 _atom_site_fract_z
 _atom_site_occupancy
  Li  Li0  1  0.48043800  0.05150400  0.23994400  1
  Li  Li1  1  0.98043800  0.44849600  0.76005600  1
  Li  Li2  1  0.51956200  0.55150400  0.26005600  1
  Li  Li3  1  0.01956200  0.94849600  0.73994400  1
  Li  Li4  1  0.51956200  0.94849600  0.76005600  1
  Li  Li5  1  0.01956200  0.55150400  0.23994400  1
  Li  Li6  1  0.48043800  0.44849600  0.73994400  1
  Li  Li7  1  0.98043800  0.05150400  0.26005600  1
  Li  Li8  1  0.88472400  0.31445600  0.01736900  1
  Li  Li9  1  0.38472400  0.18554400  0.98263100  1
  Li  Li10  1  0.11527600  0.81445600  0.48263100  1
  Li  Li11  1  0.61527600  0.68554400  0.51736900  1
  Li  Li12  1  0.11527600  0.68554400  0.98263100  1
  Li  Li13  1  0.61527600  0.81445600  0.01736900  1
  Li  Li14  1  0.88472400  0.18554400  0.51736900  1
  Li  Li15  1  0.38472400  0.31445600  0.48263100  1
  Sb  Sb0  1  0.63474700  0.94307000  0.43725500  1
  Sb  Sb1  1  0.13474700  0.55693000  0.56274500  1
  Sb  Sb2  1  0.36525300  0.44307000  0.06274500  1
  Sb  Sb3  1  0.86525300  0.05693000  0.93725500  1
  Sb  Sb4  1  0.36525300  0.05693000  0.56274500  1
  Sb  Sb5  1  0.86525300  0.44307000  0.43725500  1
  Sb  Sb6  1  0.63474700  0.55693000  0.93725500  1
  Sb  Sb7  1  0.13474700  0.94307000  0.06274500  1
  Sb  Sb8  1  0.69577500  0.29564100  0.30202100  1
  Sb  Sb9  1  0.19577500  0.20435900  0.69797800  1
  Sb  Sb10  1  0.30422500  0.79564100  0.19797900  1
  Sb  Sb11  1  0.80422500  0.70435900  0.80202200  1
  Sb  Sb12  1  0.30422500  0.70435900  0.69797800  1
  Sb  Sb13  1  0.80422500  0.79564100  0.30202100  1
  Sb  Sb14  1  0.69577500  0.20435900  0.80202200  1
  Sb  Sb15  1  0.19577500  0.29564100  0.19797900  1
  N  N0  1  0.78198500  0.46147300  0.30610900  1
  N  N1  1  0.28198500  0.03852700  0.69389100  1
  N  N2  1  0.21801500  0.96147300  0.19389100  1
  N  N3  1  0.71801500  0.53852700  0.80610900  1
  N  N4  1  0.21801500  0.53852700  0.69389100  1
  N  N5  1  0.71801500  0.96147300  0.30610900  1
  N  N6  1  0.78198500  0.03852700  0.80610900  1
  N  N7  1  0.28198500  0.46147300  0.19389100  1
  N  N8  1  0.72102900  0.29113900  0.43722900  1
  N  N9  1  0.22102900  0.20886100  0.56277100  1
  N  N10  1  0.27897100  0.79113900  0.06277100  1
  N  N11  1  0.77897100  0.70886100  0.93722900  1
  N  N12  1  0.27897100  0.70886100  0.56277100  1
  N  N13  1  0.77897100  0.79113900  0.43722900  1
  N  N14  1  0.72102900  0.20886100  0.93722900  1
  N  N15  1  0.22102900  0.29113900  0.06277100  1
  N  N16  1  0.70460000  0.45321700  0.03849100  1
  N  N17  1  0.20460000  0.04678300  0.96150900  1
  N  N18  1  0.29540000  0.95321700  0.46150900  1
  N  N19  1  0.79540000  0.54678300  0.53849100  1
  N  N20  1  0.29540000  0.54678300  0.96150900  1
  N  N21  1  0.79540000  0.95321700  0.03849100  1
  N  N22  1  0.70460000  0.04678300  0.53849100  1
  N  N23  1  0.20460000  0.45321700  0.46150900  1
  N  N24  1  0.41465900  0.21436800  0.27357700  1
  N  N25  1  0.91465900  0.28563200  0.72642300  1
  N  N26  1  0.58534100  0.71436800  0.22642300  1
  N  N27  1  0.08534100  0.78563200  0.77357700  1
  N  N28  1  0.58534100  0.78563200  0.72642300  1
  N  N29  1  0.08534100  0.71436800  0.27357700  1
  N  N30  1  0.41465900  0.28563200  0.77357700  1
  N  N31  1  0.91465900  0.21436800  0.22642300  1
loop_
_geom_bond_atom_site_label_1
_geom_bond_atom_site_label_2
_geom_bond_distance
_geom_bond_site_symmetry_2
Li0 N2 2.032009 1_545
Li0 N5 2.050729 1_545
Li0 N24 2.078670 1_555
Li1 N3 2.032009 1_555
Li1 N4 2.050729 1_655
Li1 N25 2.078670 1_555
Li2 N0 2.032009 1_555
Li2 N7 2.050729 1_555
Li2 N26 2.078670 1_555
Li3 N1 2.032009 1_565
Li3 N6 2.050729 1_465
Li3 N27 2.078670 1_555
Li4 N6 2.032009 1_565
Li4 N1 2.050729 1_565
Li4 N28 2.078670 1_555
Li5 N7 2.032009 1_555
Li5 N0 2.050729 1_455
Li5 N29 2.078670 1_555
Li6 N4 2.032009 1_555
Li6 N3 2.050729 1_555
Li6 N30 2.078670 1_555
Li7 N5 2.032009 1_545
Li7 N2 2.050729 1_645
Li7 N31 2.078670 1_555
Li8 N14 2.017276 1_554
Li8 N16 2.022929 1_555
Li8 N15 2.138691 1_655
Li9 N15 2.017276 1_556
Li9 N17 2.022929 1_555
Li9 N14 2.138691 1_555
Li10 N12 2.017276 1_555
Li10 N18 2.022929 1_555
Li10 N13 2.138691 1_455
Li11 N13 2.017276 1_555
Li11 N19 2.022929 1_555
Li11 N12 2.138691 1_555
Li12 N10 2.017276 1_556
Li12 N20 2.022929 1_555
Li12 N11 2.138691 1_455
Li13 N11 2.017276 1_554
Li13 N21 2.022929 1_555
Li13 N10 2.138691 1_555
Li14 N8 2.017276 1_555
Li14 N22 2.022929 1_555
Li14 N9 2.138691 1_655
Li15 N9 2.017276 1_555
Li15 N23 2.022929 1_555
Li15 N8 2.138691 1_555
N0 Sb5 2.060190 1_555
N0 Sb8 2.078258 1_555
N1 Sb4 2.060190 1_555
N1 Sb9 2.078257 1_555
N2 Sb7 2.060190 1_555
N2 Sb10 2.078258 1_555
N3 Sb6 2.060190 1_555
N3 Sb11 2.078257 1_555
N4 Sb1 2.060190 1_555
N4 Sb12 2.078257 1_555
N5 Sb0 2.060190 1_555
N5 Sb13 2.078258 1_555
N6 Sb3 2.060190 1_555
N6 Sb14 2.078257 1_555
N7 Sb2 2.060190 1_555
N7 Sb15 2.078258 1_555
N8 Sb5 2.034664 1_555
N8 Sb8 2.054754 1_555
N9 Sb4 2.034664 1_555
N9 Sb9 2.054739 1_555
N10 Sb7 2.034664 1_555
N10 Sb10 2.054754 1_555
N11 Sb6 2.034664 1_555
N11 Sb11 2.054739 1_555
N12 Sb1 2.034664 1_555
N12 Sb12 2.054739 1_555
N13 Sb0 2.034664 1_555
N13 Sb13 2.054754 1_555
N14 Sb3 2.034664 1_555
N14 Sb14 2.054739 1_555
N15 Sb2 2.034664 1_555
N15 Sb15 2.054754 1_555
N16 Sb6 2.027448 1_554
N16 Sb2 2.060098 1_555
N17 Sb7 2.027448 1_546
N17 Sb3 2.060098 1_455
N18 Sb4 2.027448 1_565
N18 Sb0 2.060098 1_555
N19 Sb5 2.027448 1_555
N19 Sb1 2.060098 1_655
N20 Sb2 2.027448 1_556
N20 Sb6 2.060098 1_555
N21 Sb3 2.027448 1_564
N21 Sb7 2.060098 1_655
N22 Sb0 2.027448 1_545
N22 Sb4 2.060098 1_555
N23 Sb1 2.027448 1_555
N23 Sb5 2.060098 1_455
N24 Sb8 1.992017 1_555
N24 Sb15 1.997024 1_555
N25 Sb9 1.992021 1_655
N25 Sb14 1.997033 1_555
N26 Sb10 1.992017 1_555
N26 Sb13 1.997024 1_555
N27 Sb11 1.992021 1_455
N27 Sb12 1.997033 1_555
N28 Sb12 1.992021 1_555
N28 Sb11 1.997033 1_555
N29 Sb13 1.992017 1_455
N29 Sb10 1.997024 1_555
N30 Sb14 1.992021 1_555
N30 Sb9 1.997033 1_555
N31 Sb15 1.992017 1_655
N31 Sb8 1.997024 1_555
