# generated using pymatgen
data_Rb2LaCl5
_symmetry_space_group_name_H-M   'P 1'
_cell_length_a   8.23929001
_cell_length_b   9.06011062
_cell_length_c   13.21116867
_cell_angle_alpha   90.00000000
_cell_angle_beta   90.00000000
_cell_angle_gamma   90.00000000
_symmetry_Int_Tables_number   1
_chemical_formula_structural   Rb2LaCl5
_chemical_formula_sum   'Rb8 La4 Cl20'
_cell_volume   986.19893045
_cell_formula_units_Z   4
loop_
 _symmetry_equiv_pos_site_id
 _symmetry_equiv_pos_as_xyz
  1  'x, y, z'
loop_
 _atom_site_type_symbol
 _atom_site_label
 _atom_site_symmetry_multiplicity
 _atom_site_fract_x
 _atom_site_fract_y
 _atom_site_fract_z
 _atom_site_occupancy
  Rb  Rb0  1  0.55469269  0.49409325  0.82901350  1
  Rb  Rb1  1  0.44530731  0.50590675  0.17098650  1
  Rb  Rb2  1  0.05469269  0.50590675  0.67098650  1
  Rb  Rb3  1  0.44530731  0.99409325  0.17098650  1
  Rb  Rb4  1  0.94530731  0.49409325  0.32901350  1
  Rb  Rb5  1  0.55469269  0.00590675  0.82901350  1
  Rb  Rb6  1  0.94530731  0.00590675  0.32901350  1
  Rb  Rb7  1  0.05469269  0.99409325  0.67098650  1
  La  La0  1  0.57227713  0.75000000  0.50528163  1
  La  La1  1  0.42772287  0.25000000  0.49471837  1
  La  La2  1  0.07227713  0.25000000  0.99471837  1
  La  La3  1  0.92772287  0.75000000  0.00528163  1
  Cl  Cl0  1  0.84129245  0.75000000  0.79808124  1
  Cl  Cl1  1  0.15870755  0.25000000  0.20191876  1
  Cl  Cl2  1  0.34129245  0.25000000  0.70191876  1
  Cl  Cl3  1  0.65870755  0.75000000  0.29808124  1
  Cl  Cl4  1  0.37570271  0.75000000  0.67899804  1
  Cl  Cl5  1  0.62429729  0.25000000  0.32100196  1
  Cl  Cl6  1  0.87570271  0.25000000  0.82100196  1
  Cl  Cl7  1  0.12429729  0.75000000  0.17899804  1
  Cl  Cl8  1  0.91624679  0.75000000  0.50825040  1
  Cl  Cl9  1  0.08375321  0.25000000  0.49174960  1
  Cl  Cl10  1  0.41624679  0.25000000  0.99174960  1
  Cl  Cl11  1  0.58375321  0.75000000  0.00825040  1
  Cl  Cl12  1  0.66439638  0.04194337  0.57509561  1
  Cl  Cl13  1  0.33560362  0.95805663  0.42490439  1
  Cl  Cl14  1  0.16439638  0.95805663  0.92490439  1
  Cl  Cl15  1  0.33560362  0.54194337  0.42490439  1
  Cl  Cl16  1  0.83560362  0.04194337  0.07509561  1
  Cl  Cl17  1  0.66439638  0.45805663  0.57509561  1
  Cl  Cl18  1  0.83560362  0.45805663  0.07509561  1
  Cl  Cl19  1  0.16439638  0.54194337  0.92490439  1
loop_
_geom_bond_atom_site_label_1
_geom_bond_atom_site_label_2
_geom_bond_distance
_geom_bond_site_symmetry_2
Cl0 La3 2.828473 1_556
Cl0 Rb2 3.286573 1_655
Cl0 Rb7 3.286573 1_655
Cl0 Rb0 3.334479 1_555
Cl0 Rb5 3.334479 1_565
Cl1 La2 2.828473 1_554
Cl1 Rb6 3.286573 1_455
Cl1 Rb4 3.286573 1_455
Cl1 Rb1 3.334479 1_555
Cl1 Rb3 3.334479 1_545
Cl2 La1 2.828473 1_555
Cl2 Rb5 3.286573 1_555
Cl2 Rb0 3.286573 1_555
Cl2 Rb7 3.334479 1_545
Cl2 Rb2 3.334479 1_555
Cl3 La0 2.828473 1_555
Cl3 Rb1 3.286573 1_555
Cl3 Rb3 3.286573 1_555
Cl3 Rb4 3.334479 1_555
Cl3 Rb6 3.334479 1_565
Cl4 La0 2.808954 1_555
Cl4 Rb0 3.387976 1_555
Cl4 Rb5 3.387976 1_565
Cl4 Rb2 3.449269 1_555
Cl4 Rb7 3.449269 1_555
Cl5 La1 2.808954 1_555
Cl5 Rb3 3.387976 1_545
Cl5 Rb1 3.387976 1_555
Cl5 Rb6 3.449269 1_555
Cl5 Rb4 3.449269 1_555
Cl6 La2 2.808954 1_655
Cl6 Rb2 3.387976 1_655
Cl6 Rb7 3.387976 1_645
Cl6 Rb5 3.449269 1_555
Cl6 Rb0 3.449269 1_555
Cl7 La3 2.808954 1_455
Cl7 Rb4 3.387976 1_455
Cl7 Rb6 3.387976 1_465
Cl7 Rb1 3.449269 1_555
Cl7 Rb3 3.449269 1_555
Cl8 La0 2.834337 1_555
Cl8 Rb7 3.288493 1_655
Cl8 Rb2 3.288493 1_655
Cl8 Rb4 3.322659 1_555
Cl8 Rb6 3.322659 1_565
Cl9 La1 2.834337 1_555
Cl9 Rb6 3.288493 1_455
Cl9 Rb4 3.288493 1_455
Cl9 Rb7 3.322659 1_545
Cl9 Rb2 3.322659 1_555
Cl10 La2 2.834337 1_555
Cl10 Rb5 3.288493 1_555
Cl10 Rb0 3.288493 1_555
Cl10 Rb1 3.322659 1_556
Cl10 Rb3 3.322659 1_546
Cl11 La3 2.834337 1_555
Cl11 Rb3 3.288493 1_555
Cl11 Rb1 3.288493 1_555
Cl11 Rb0 3.322659 1_554
Cl11 Rb5 3.322659 1_564
Cl12 La0 2.902239 1_545
Cl12 La1 2.912637 1_555
Cl12 Rb7 3.483382 1_645
Cl12 Rb5 3.489501 1_555
Cl13 La1 2.902239 1_565
Cl13 La0 2.912637 1_555
Cl13 Rb6 3.483382 1_465
Cl13 Rb3 3.489501 1_555
Cl14 La2 2.902239 1_565
Cl14 La3 2.912637 1_456
Cl14 Rb5 3.483382 1_565
Cl14 Rb7 3.489501 1_555
Cl15 La1 2.902239 1_555
Cl15 La0 2.912637 1_555
Cl15 Rb4 3.483382 1_455
Cl15 Rb1 3.489501 1_555
Cl16 La3 2.902239 1_545
Cl16 La2 2.912637 1_654
Cl16 Rb3 3.483382 1_545
Cl16 Rb6 3.489501 1_555
Cl17 La0 2.902239 1_555
Cl17 La1 2.912637 1_555
Cl17 Rb2 3.483382 1_655
Cl17 Rb0 3.489501 1_555
Cl18 La3 2.902239 1_555
Cl18 La2 2.912637 1_654
Cl18 Rb1 3.483382 1_555
Cl18 Rb4 3.489501 1_555
Cl19 La2 2.902239 1_555
Cl19 La3 2.912637 1_456
Cl19 Rb0 3.483382 1_555
Cl19 Rb2 3.489501 1_555
