# generated using pymatgen
data_Mg(FeO2)2
_symmetry_space_group_name_H-M   'P 1'
_cell_length_a   2.94003500
_cell_length_b   8.99943900
_cell_length_c   10.44370500
_cell_angle_alpha   90.00000000
_cell_angle_beta   90.00000000
_cell_angle_gamma   90.00000000
_symmetry_Int_Tables_number   1
_chemical_formula_structural   Mg(FeO2)2
_chemical_formula_sum   'Mg4 Fe8 O16'
_cell_volume   276.32649864
_cell_formula_units_Z   4
loop_
 _symmetry_equiv_pos_site_id
 _symmetry_equiv_pos_as_xyz
  1  'x, y, z'
loop_
 _atom_site_type_symbol
 _atom_site_label
 _atom_site_symmetry_multiplicity
 _atom_site_fract_x
 _atom_site_fract_y
 _atom_site_fract_z
 _atom_site_occupancy
  Mg  Mg0  1  0.50000000  0.24867600  0.40706700  1
  Mg  Mg1  1  0.00000000  0.75460700  0.09934500  1
  Mg  Mg2  1  0.50000000  0.74867600  0.59293300  1
  Mg  Mg3  1  0.00000000  0.25460700  0.90065500  1
  Fe  Fe0  1  0.00000000  0.41729500  0.64622400  1
  Fe  Fe1  1  0.50000000  0.08288800  0.15028300  1
  Fe  Fe2  1  0.00000000  0.91729500  0.35377600  1
  Fe  Fe3  1  0.50000000  0.58288800  0.84971700  1
  Fe  Fe4  1  0.50000000  0.56779800  0.36737800  1
  Fe  Fe5  1  0.00000000  0.43328900  0.13488000  1
  Fe  Fe6  1  0.50000000  0.06779800  0.63262200  1
  Fe  Fe7  1  0.00000000  0.93328900  0.86512000  1
  O  O0  1  0.00000000  0.90892200  0.67450400  1
  O  O1  1  0.50000000  0.09160800  0.82462500  1
  O  O2  1  0.00000000  0.40892200  0.32549600  1
  O  O3  1  0.50000000  0.59160800  0.17537500  1
  O  O4  1  0.00000000  0.02620900  0.03659300  1
  O  O5  1  0.50000000  0.96732600  0.46422100  1
  O  O6  1  0.00000000  0.52620900  0.96340700  1
  O  O7  1  0.50000000  0.46732600  0.53577900  1
  O  O8  1  0.00000000  0.62324800  0.71183700  1
  O  O9  1  0.50000000  0.37407900  0.77372900  1
  O  O10  1  0.00000000  0.12324800  0.28816300  1
  O  O11  1  0.50000000  0.87407900  0.22627100  1
  O  O12  1  0.50000000  0.79191400  0.93129800  1
  O  O13  1  0.00000000  0.21194900  0.57024900  1
  O  O14  1  0.00000000  0.71194900  0.42975100  1
  O  O15  1  0.50000000  0.29191400  0.06870200  1
loop_
_geom_bond_atom_site_label_1
_geom_bond_atom_site_label_2
_geom_bond_distance
_geom_bond_site_symmetry_2
Mg0 O2 2.228545 1_555
Mg0 O2 2.228545 1_655
Mg0 O10 2.230956 1_555
Mg0 O10 2.230956 1_655
Mg0 O13 2.274770 1_555
Mg0 O13 2.274770 1_655
Mg0 O7 2.383045 1_555
Mg0 O5 2.601398 1_545
Mg1 O3 2.223339 1_455
Mg1 O3 2.223339 1_555
Mg1 O11 2.252581 1_455
Mg1 O11 2.252581 1_555
Mg1 O12 2.313831 1_554
Mg1 O12 2.313831 1_454
Mg1 O6 2.498085 1_554
Mg1 O4 2.530600 1_565
Mg2 O0 2.228545 1_655
Mg2 O0 2.228545 1_555
Mg2 O8 2.230956 1_655
Mg2 O8 2.230956 1_555
Mg2 O14 2.274770 1_555
Mg2 O14 2.274770 1_655
Mg2 O5 2.383045 1_555
Mg2 O7 2.601398 1_555
Mg3 O1 2.223339 1_555
Mg3 O1 2.223339 1_455
Mg3 O9 2.252581 1_555
Mg3 O9 2.252581 1_455
Mg3 O15 2.313831 1_456
Mg3 O15 2.313831 1_556
Mg3 O4 2.498085 1_556
Mg3 O6 2.530600 1_555
Fe0 O7 1.922013 1_455
Fe0 O7 1.922013 1_555
Fe0 O8 1.976076 1_555
Fe0 O13 2.011139 1_555
Fe0 O9 2.021246 1_555
Fe0 O9 2.021246 1_455
Fe1 O4 1.957274 1_555
Fe1 O4 1.957274 1_655
Fe1 O11 2.039866 1_545
Fe1 O15 2.065071 1_555
Fe1 O10 2.089597 1_555
Fe1 O10 2.089597 1_655
Fe2 O5 1.922013 1_455
Fe2 O5 1.922013 1_555
Fe2 O10 1.976076 1_565
Fe2 O14 2.011139 1_555
Fe2 O11 2.021246 1_455
Fe2 O11 2.021246 1_555
Fe3 O6 1.957274 1_555
Fe3 O6 1.957274 1_655
Fe3 O9 2.039866 1_555
Fe3 O12 2.065071 1_555
Fe3 O8 2.089597 1_555
Fe3 O8 2.089597 1_655
Fe4 O7 1.977548 1_555
Fe4 O3 2.016639 1_555
Fe4 O14 2.065965 1_555
Fe4 O14 2.065965 1_655
Fe4 O2 2.096804 1_555
Fe4 O2 2.096804 1_655
Fe5 O6 1.976434 1_554
Fe5 O2 2.002779 1_555
Fe5 O15 2.063339 1_455
Fe5 O15 2.063339 1_555
Fe5 O3 2.090410 1_455
Fe5 O3 2.090410 1_555
Fe6 O5 1.977548 1_545
Fe6 O1 2.016639 1_555
Fe6 O13 2.065965 1_655
Fe6 O13 2.065965 1_555
Fe6 O0 2.096804 1_545
Fe6 O0 2.096804 1_645
Fe7 O4 1.976434 1_566
Fe7 O0 2.002779 1_555
Fe7 O12 2.063339 1_555
Fe7 O12 2.063339 1_455
Fe7 O1 2.090410 1_465
Fe7 O1 2.090410 1_565
