# generated using pymatgen
data_CaV2O4
_symmetry_space_group_name_H-M   'P 1'
_cell_length_a   6.27713194
_cell_length_b   6.27713194
_cell_length_c   6.27713194
_cell_angle_alpha   120.14916524
_cell_angle_beta   119.72607136
_cell_angle_gamma   90.10847208
_symmetry_Int_Tables_number   1
_chemical_formula_structural   CaV2O4
_chemical_formula_sum   'Ca2 V4 O8'
_cell_volume   175.05311747
_cell_formula_units_Z   2
loop_
 _symmetry_equiv_pos_site_id
 _symmetry_equiv_pos_as_xyz
  1  'x, y, z'
loop_
 _atom_site_type_symbol
 _atom_site_label
 _atom_site_symmetry_multiplicity
 _atom_site_fract_x
 _atom_site_fract_y
 _atom_site_fract_z
 _atom_site_occupancy
  Ca  Ca0  1  0.50000000  0.00000000  0.00000000  1
  Ca  Ca1  1  0.50000000  0.50000000  0.50000000  1
  V  V0  1  0.88502500  0.13502500  0.75000000  1
  V  V1  1  0.11497500  0.86497500  0.25000000  1
  V  V2  1  0.50000000  0.50000000  0.00000000  1
  V  V3  1  0.00000000  0.50000000  0.50000000  1
  O  O0  1  0.73744600  0.72759400  0.00985200  1
  O  O1  1  0.24109300  0.72501500  0.98392200  1
  O  O2  1  0.21774300  0.72759400  0.49014800  1
  O  O3  1  0.24109300  0.25717100  0.51607800  1
  O  O4  1  0.75890700  0.74282900  0.48392200  1
  O  O5  1  0.75890700  0.27498500  0.01607800  1
  O  O6  1  0.78225700  0.27240600  0.50985200  1
  O  O7  1  0.26255400  0.27240600  0.99014800  1
loop_
_geom_bond_atom_site_label_1
_geom_bond_atom_site_label_2
_geom_bond_distance
_geom_bond_site_symmetry_2
Ca0 O6 2.274570 1_555
Ca0 O2 2.274570 1_544
Ca0 O7 2.274571 1_554
Ca0 O0 2.274571 1_545
Ca0 O5 2.298401 1_555
Ca0 O1 2.298401 1_544
Ca1 O6 2.274566 1_555
Ca1 O2 2.274566 1_555
Ca1 O0 2.274571 1_556
Ca1 O7 2.274571 1_554
Ca1 O4 2.298401 1_555
Ca1 O3 2.298401 1_555
O0 V1 1.943124 1_655
O0 V2 2.019440 1_555
O1 V1 2.007012 1_556
O1 V3 2.153062 1_555
O1 V2 2.153062 1_556
O2 V1 1.943123 1_555
O2 V3 2.019445 1_555
O3 V1 2.007012 1_545
O3 V2 2.153062 1_556
O3 V3 2.153062 1_555
O4 V0 2.007012 1_565
O4 V3 2.153062 1_655
O4 V2 2.153062 1_555
O5 V0 2.007012 1_554
O5 V2 2.153062 1_555
O5 V3 2.153062 1_655
O6 V0 1.943123 1_555
O6 V3 2.019445 1_655
O7 V0 1.943124 1_455
O7 V2 2.019440 1_556
