# generated using pymatgen
data_V2(PO4)3
_symmetry_space_group_name_H-M   'P 1'
_cell_length_a   6.23494500
_cell_length_b   8.14981228
_cell_length_c   9.42828793
_cell_angle_alpha   109.42059345
_cell_angle_beta   104.65105755
_cell_angle_gamma   102.58463136
_symmetry_Int_Tables_number   1
_chemical_formula_structural   V2(PO4)3
_chemical_formula_sum   'V4 P6 O24'
_cell_volume   412.50054812
_cell_formula_units_Z   2
loop_
 _symmetry_equiv_pos_site_id
 _symmetry_equiv_pos_as_xyz
  1  'x, y, z'
loop_
 _atom_site_type_symbol
 _atom_site_label
 _atom_site_symmetry_multiplicity
 _atom_site_fract_x
 _atom_site_fract_y
 _atom_site_fract_z
 _atom_site_occupancy
  V  V0  1  0.36148700  0.45597800  0.11508400  1
  V  V1  1  0.94440500  0.28596400  0.48058800  1
  V  V2  1  0.63851300  0.54402200  0.88491600  1
  V  V3  1  0.05559500  0.71403600  0.51941200  1
  P  P0  1  0.78022100  0.83220800  0.24627000  1
  P  P1  1  0.21977900  0.16779200  0.75373000  1
  P  P2  1  0.61502000  0.77707800  0.64838300  1
  P  P3  1  0.38498000  0.22292200  0.35161700  1
  P  P4  1  0.86702900  0.37151500  0.15529700  1
  P  P5  1  0.13297100  0.62848500  0.84470300  1
  O  O0  1  0.71002900  0.97508900  0.75326600  1
  O  O1  1  0.28997100  0.02491100  0.24673400  1
  O  O2  1  0.17512300  0.82769700  0.91456800  1
  O  O3  1  0.82487700  0.17230300  0.08543200  1
  O  O4  1  0.19841700  0.96699100  0.68560000  1
  O  O5  1  0.80158300  0.03300900  0.31440000  1
  O  O6  1  0.35608100  0.70984900  0.52694500  1
  O  O7  1  0.64391900  0.29015100  0.47305500  1
  O  O8  1  0.08202600  0.54902400  0.65615100  1
  O  O9  1  0.91797400  0.45097600  0.34384900  1
  O  O10  1  0.76126900  0.69995600  0.54689800  1
  O  O11  1  0.23873100  0.30004400  0.45310200  1
  O  O12  1  0.98028800  0.79454300  0.35031600  1
  O  O13  1  0.67236400  0.44429600  0.07667600  1
  O  O14  1  0.32763600  0.55570400  0.92332400  1
  O  O15  1  0.54011000  0.70735800  0.23837200  1
  O  O16  1  0.45989000  0.29264200  0.76162800  1
  O  O17  1  0.09665200  0.48978600  0.13966200  1
  O  O18  1  0.01971200  0.20545700  0.64968400  1
  O  O19  1  0.41324300  0.35479500  0.25434700  1
  O  O20  1  0.58675700  0.64520500  0.74565300  1
  O  O21  1  0.22165700  0.23294200  0.93115100  1
  O  O22  1  0.77834300  0.76705800  0.06884900  1
  O  O23  1  0.90334800  0.51021400  0.86033800  1
loop_
_geom_bond_atom_site_label_1
_geom_bond_atom_site_label_2
_geom_bond_distance
_geom_bond_site_symmetry_2
O0 P2 1.469311 1_555
O1 P3 1.469311 1_555
O2 P5 1.467707 1_555
O3 P4 1.467707 1_555
O4 P1 1.507032 1_565
O4 V3 1.960648 1_555
O5 P0 1.507032 1_545
O5 V1 1.960648 1_555
O6 P2 1.574773 1_555
O6 V3 1.865052 1_555
O7 P3 1.574773 1_555
O7 V1 1.865052 1_555
O8 P5 1.593646 1_555
O8 V1 2.047541 1_455
O8 V3 2.154023 1_555
O9 P4 1.593646 1_555
O9 V3 2.047541 1_655
O9 V1 2.154023 1_555
O10 P2 1.559882 1_555
O10 V3 1.901715 1_655
O11 P3 1.559882 1_555
O11 V1 1.901715 1_455
O12 P0 1.536442 1_555
O12 V3 1.908896 1_655
O13 P4 1.589154 1_555
O13 V0 2.075996 1_555
O13 V2 2.198350 1_554
O14 P5 1.589154 1_555
O14 V2 2.075996 1_555
O14 V0 2.198350 1_556
O15 P0 1.584782 1_555
O15 V0 1.885712 1_555
O16 P1 1.584782 1_555
O16 V2 1.885712 1_555
O17 P4 1.612587 1_455
O17 V0 1.790402 1_555
O18 P1 1.536442 1_555
O18 V1 1.908896 1_455
O19 P3 1.637633 1_555
O19 V0 1.769118 1_555
O20 P2 1.637633 1_555
O20 V2 1.769118 1_555
O21 P1 1.573843 1_555
O21 V0 1.876135 1_556
O22 P0 1.573843 1_555
O22 V2 1.876135 1_554
O23 P5 1.612587 1_655
O23 V2 1.790402 1_555
