# generated using pymatgen
data_TbCrSe3
_symmetry_space_group_name_H-M   'P 1'
_cell_length_a   3.90254200
_cell_length_b   8.22159600
_cell_length_c   13.35108600
_cell_angle_alpha   90.00000000
_cell_angle_beta   90.00000000
_cell_angle_gamma   90.00000000
_symmetry_Int_Tables_number   1
_chemical_formula_structural   TbCrSe3
_chemical_formula_sum   'Tb4 Cr4 Se12'
_cell_volume   428.37124580
_cell_formula_units_Z   4
loop_
 _symmetry_equiv_pos_site_id
 _symmetry_equiv_pos_as_xyz
  1  'x, y, z'
loop_
 _atom_site_type_symbol
 _atom_site_label
 _atom_site_symmetry_multiplicity
 _atom_site_fract_x
 _atom_site_fract_y
 _atom_site_fract_z
 _atom_site_occupancy
  Tb  Tb0  1  0.75000000  0.57941400  0.32841800  1
  Tb  Tb1  1  0.25000000  0.42058600  0.67158200  1
  Tb  Tb2  1  0.25000000  0.92058600  0.82841800  1
  Tb  Tb3  1  0.75000000  0.07941400  0.17158200  1
  Cr  Cr0  1  0.75000000  0.83636100  0.54914200  1
  Cr  Cr1  1  0.25000000  0.16363900  0.45085800  1
  Cr  Cr2  1  0.25000000  0.66363900  0.04914200  1
  Cr  Cr3  1  0.75000000  0.33636100  0.95085800  1
  Se  Se0  1  0.75000000  0.99207400  0.38952400  1
  Se  Se1  1  0.25000000  0.00792600  0.61047600  1
  Se  Se2  1  0.25000000  0.50792600  0.88952400  1
  Se  Se3  1  0.75000000  0.49207400  0.11047600  1
  Se  Se4  1  0.75000000  0.84664400  0.99222100  1
  Se  Se5  1  0.25000000  0.15335600  0.00777900  1
  Se  Se6  1  0.25000000  0.65335600  0.49222100  1
  Se  Se7  1  0.75000000  0.34664400  0.50777900  1
  Se  Se8  1  0.75000000  0.69863300  0.71646800  1
  Se  Se9  1  0.25000000  0.30136700  0.28353200  1
  Se  Se10  1  0.25000000  0.80136700  0.21646800  1
  Se  Se11  1  0.75000000  0.19863300  0.78353200  1
loop_
_geom_bond_atom_site_label_1
_geom_bond_atom_site_label_2
_geom_bond_distance
_geom_bond_site_symmetry_2
Cr0 Se0 2.486043 1_555
Cr0 Se8 2.504573 1_555
Cr0 Se1 2.543154 1_565
Cr0 Se1 2.543154 1_665
Cr0 Se6 2.578526 1_555
Cr0 Se6 2.578526 1_655
Cr1 Se1 2.486043 1_555
Cr1 Se9 2.504573 1_555
Cr1 Se0 2.543154 1_445
Cr1 Se0 2.543154 1_545
Cr1 Se7 2.578526 1_455
Cr1 Se7 2.578526 1_555
Cr2 Se2 2.486043 1_554
Cr2 Se10 2.504573 1_555
Cr2 Se3 2.543154 1_455
Cr2 Se3 2.543154 1_555
Cr2 Se4 2.578526 1_554
Cr2 Se4 2.578526 1_454
Cr3 Se3 2.486043 1_556
Cr3 Se11 2.504573 1_555
Cr3 Se2 2.543154 1_555
Cr3 Se2 2.543154 1_655
Cr3 Se5 2.578526 1_556
Cr3 Se5 2.578526 1_656
Se0 Tb3 2.997057 1_565
Se0 Tb0 3.489435 1_555
Se1 Tb2 2.997057 1_545
Se1 Tb1 3.489435 1_555
Se2 Tb1 2.997057 1_555
Se2 Tb2 3.489435 1_555
Se3 Tb0 2.997057 1_555
Se3 Tb3 3.489435 1_555
Se4 Tb2 2.993287 1_555
Se4 Tb2 2.993287 1_655
Se4 Tb3 3.065423 1_566
Se5 Tb3 2.993287 1_455
Se5 Tb3 2.993287 1_555
Se5 Tb2 3.065423 1_544
Se6 Tb0 2.993287 1_555
Se6 Tb0 2.993287 1_455
Se6 Tb1 3.065423 1_555
Se7 Tb1 2.993287 1_555
Se7 Tb1 2.993287 1_655
Se7 Tb0 3.065423 1_555
Se8 Tb2 3.061270 1_555
Se8 Tb2 3.061270 1_655
Se8 Tb1 3.064693 1_555
Se8 Tb1 3.064693 1_655
Se9 Tb3 3.061270 1_555
Se9 Tb3 3.061270 1_455
Se9 Tb0 3.064693 1_555
Se9 Tb0 3.064693 1_455
Se10 Tb0 3.061270 1_555
Se10 Tb0 3.061270 1_455
Se10 Tb3 3.064693 1_565
Se10 Tb3 3.064693 1_465
Se11 Tb1 3.061270 1_555
Se11 Tb1 3.061270 1_655
Se11 Tb2 3.064693 1_545
Se11 Tb2 3.064693 1_645
