# generated using pymatgen
data_Mg14BiCO16
_symmetry_space_group_name_H-M   'P 1'
_cell_length_a   8.90213227
_cell_length_b   8.64185801
_cell_length_c   4.32878505
_cell_angle_alpha   90.00000000
_cell_angle_beta   90.00000000
_cell_angle_gamma   90.00000000
_symmetry_Int_Tables_number   1
_chemical_formula_structural   Mg14BiCO16
_chemical_formula_sum   'Mg14 Bi1 C1 O16'
_cell_volume   333.01760279
_cell_formula_units_Z   1
loop_
 _symmetry_equiv_pos_site_id
 _symmetry_equiv_pos_as_xyz
  1  'x, y, z'
loop_
 _atom_site_type_symbol
 _atom_site_label
 _atom_site_symmetry_multiplicity
 _atom_site_fract_x
 _atom_site_fract_y
 _atom_site_fract_z
 _atom_site_occupancy
  Mg  Mg0  1  0.50000000  0.00000000  -0.00000000  1
  Mg  Mg1  1  0.50000000  0.50000000  -0.00000000  1
  Mg  Mg2  1  -0.00000000  0.22850056  0.50000000  1
  Mg  Mg3  1  -0.00000000  0.77149944  0.50000000  1
  Mg  Mg4  1  0.50000000  0.24429605  0.50000000  1
  Mg  Mg5  1  0.50000000  0.75570395  0.50000000  1
  Mg  Mg6  1  0.25102078  0.00000000  0.50000000  1
  Mg  Mg7  1  0.26677562  0.50000000  0.50000000  1
  Mg  Mg8  1  0.74897922  0.00000000  0.50000000  1
  Mg  Mg9  1  0.73322438  0.50000000  0.50000000  1
  Mg  Mg10  1  0.25622688  0.23428559  -0.00000000  1
  Mg  Mg11  1  0.25622688  0.76571441  0.00000000  1
  Mg  Mg12  1  0.74377312  0.23428559  -0.00000000  1
  Mg  Mg13  1  0.74377312  0.76571441  0.00000000  1
  Bi  Bi0  1  -0.00000000  0.50000000  -0.00000000  1
  C  C0  1  -0.00000000  0.00000000  -0.00000000  1
  O  O0  1  0.28081466  0.00000000  -0.00000000  1
  O  O1  1  0.26568636  0.50000000  -0.00000000  1
  O  O2  1  0.71918534  -0.00000000  -0.00000000  1
  O  O3  1  0.73431364  0.50000000  0.00000000  1
  O  O4  1  0.24719136  0.25036932  0.50000000  1
  O  O5  1  0.24719136  0.74963068  0.50000000  1
  O  O6  1  0.75280864  0.25036932  0.50000000  1
  O  O7  1  0.75280864  0.74963068  0.50000000  1
  O  O8  1  -0.00000000  0.00000000  0.50000000  1
  O  O9  1  -0.00000000  0.50000000  0.50000000  1
  O  O10  1  0.50000000  0.00000000  0.50000000  1
  O  O11  1  0.50000000  0.50000000  0.50000000  1
  O  O12  1  -0.00000000  0.23576145  0.00000000  1
  O  O13  1  -0.00000000  0.76423855  -0.00000000  1
  O  O14  1  0.50000000  0.25413713  0.00000000  1
  O  O15  1  0.50000000  0.74586287  -0.00000000  1
loop_
_geom_bond_atom_site_label_1
_geom_bond_atom_site_label_2
_geom_bond_distance
_geom_bond_site_symmetry_2
Mg0 O0 1.951217 1_555
Mg0 O2 1.951217 1_555
Mg0 O10 2.164393 1_555
Mg0 O10 2.164393 1_554
Mg0 O14 2.196217 1_555
Mg0 O15 2.196217 1_545
Mg1 O3 2.085891 1_555
Mg1 O1 2.085891 1_555
Mg1 O15 2.124712 1_555
Mg1 O14 2.124712 1_555
Mg1 O11 2.164393 1_554
Mg1 O11 2.164393 1_555
Mg2 O8 1.974669 1_555
Mg2 O12 2.165302 1_556
Mg2 O12 2.165302 1_555
Mg2 O6 2.208631 1_455
Mg2 O4 2.208631 1_555
Mg2 O9 2.346260 1_555
Mg3 O8 1.974669 1_565
Mg3 O13 2.165302 1_556
Mg3 O13 2.165302 1_555
Mg3 O7 2.208631 1_455
Mg3 O5 2.208631 1_555
Mg3 O9 2.346260 1_555
Mg4 O10 2.111172 1_555
Mg4 O14 2.166063 1_555
Mg4 O14 2.166063 1_556
Mg4 O11 2.209757 1_555
Mg4 O4 2.251148 1_555
Mg4 O6 2.251148 1_555
Mg5 O10 2.111172 1_565
Mg5 O15 2.166063 1_556
Mg5 O15 2.166063 1_555
Mg5 O11 2.209757 1_555
Mg5 O5 2.251148 1_555
Mg5 O7 2.251148 1_555
Mg6 O5 2.163925 1_545
Mg6 O4 2.163925 1_555
Mg6 O0 2.180583 1_555
Mg6 O0 2.180583 1_556
Mg6 O10 2.216446 1_555
Mg6 O8 2.234620 1_555
Mg7 O11 2.076194 1_555
Mg7 O4 2.164306 1_555
Mg7 O5 2.164306 1_555
Mg7 O1 2.164414 1_555
Mg7 O1 2.164414 1_556
Mg7 O9 2.374872 1_555
Mg8 O6 2.163925 1_555
Mg8 O7 2.163925 1_545
Mg8 O2 2.180583 1_555
Mg8 O2 2.180583 1_556
Mg8 O10 2.216446 1_555
Mg8 O8 2.234620 1_655
Mg9 O11 2.076194 1_555
Mg9 O7 2.164306 1_555
Mg9 O6 2.164306 1_555
Mg9 O3 2.164414 1_556
Mg9 O3 2.164414 1_555
Mg9 O9 2.374872 1_655
Mg10 O0 2.036460 1_555
Mg10 O4 2.170342 1_554
Mg10 O4 2.170342 1_555
Mg10 O14 2.176871 1_555
Mg10 O12 2.281001 1_555
Mg10 O1 2.297810 1_555
Mg11 O0 2.036460 1_565
Mg11 O5 2.170342 1_555
Mg11 O5 2.170342 1_554
Mg11 O15 2.176871 1_555
Mg11 O13 2.281001 1_555
Mg11 O1 2.297810 1_555
Mg12 O2 2.036460 1_555
Mg12 O6 2.170342 1_555
Mg12 O6 2.170342 1_554
Mg12 O14 2.176871 1_555
Mg12 O12 2.281001 1_655
Mg12 O3 2.297810 1_555
Mg13 O2 2.036460 1_565
Mg13 O7 2.170342 1_555
Mg13 O7 2.170342 1_554
Mg13 O15 2.176871 1_555
Mg13 O13 2.281001 1_655
Mg13 O3 2.297810 1_555
Bi0 O9 2.164393 1_554
Bi0 O9 2.164393 1_555
Bi0 O12 2.283512 1_555
Bi0 O13 2.283512 1_555
Bi0 O3 2.365175 1_455
Bi0 O1 2.365175 1_555
C0 O12 2.037417 1_555
C0 O13 2.037417 1_545
C0 O8 2.164393 1_555
C0 O8 2.164393 1_554
