# generated using pymatgen
data_Li2V5O10
_symmetry_space_group_name_H-M   'P 1'
_cell_length_a   5.12192647
_cell_length_b   10.20435253
_cell_length_c   8.23510555
_cell_angle_alpha   68.58827173
_cell_angle_beta   87.10966798
_cell_angle_gamma   103.33579247
_symmetry_Int_Tables_number   1
_chemical_formula_structural   Li2V5O10
_chemical_formula_sum   'Li4 V10 O20'
_cell_volume   385.57360557
_cell_formula_units_Z   2
loop_
 _symmetry_equiv_pos_site_id
 _symmetry_equiv_pos_as_xyz
  1  'x, y, z'
loop_
 _atom_site_type_symbol
 _atom_site_label
 _atom_site_symmetry_multiplicity
 _atom_site_fract_x
 _atom_site_fract_y
 _atom_site_fract_z
 _atom_site_occupancy
  Li  Li0  1  0.63428200  0.09284700  0.30707500  1
  Li  Li1  1  0.13687000  0.59578200  0.80165200  1
  Li  Li2  1  0.36577900  0.90721300  0.69272800  1
  Li  Li3  1  0.86317900  0.40423800  0.19844200  1
  V  V0  1  0.00014200  0.50013200  0.50003300  1
  V  V1  1  0.49984700  0.99986800  0.99994900  1
  V  V2  1  0.28823500  0.27888300  0.40799800  1
  V  V3  1  0.79578800  0.77274800  0.91160800  1
  V  V4  1  0.71194800  0.72123600  0.59184700  1
  V  V5  1  0.20403400  0.22705400  0.08860300  1
  V  V6  1  0.06219100  0.10082800  0.78914900  1
  V  V7  1  0.56320600  0.60097600  0.29394100  1
  V  V8  1  0.93780500  0.89925900  0.21079300  1
  V  V9  1  0.43686100  0.39900000  0.70618200  1
  O  O0  1  0.62423000  0.40421600  0.46383000  1
  O  O1  1  0.12686000  0.90810900  0.95812800  1
  O  O2  1  0.37594200  0.59587400  0.53620000  1
  O  O3  1  0.87283700  0.09179200  0.04186100  1
  O  O4  1  0.99728700  0.21720400  0.28876500  1
  O  O5  1  0.50437800  0.72538200  0.78395500  1
  O  O6  1  0.00270000  0.78281200  0.71130400  1
  O  O7  1  0.49568100  0.27462500  0.21596400  1
  O  O8  1  0.09029000  0.30162200  0.63421000  1
  O  O9  1  0.60970500  0.81314600  0.12217900  1
  O  O10  1  0.90981500  0.69849400  0.36577200  1
  O  O11  1  0.39013100  0.18670300  0.87784400  1
  O  O12  1  0.27516100  0.00577300  0.21048300  1
  O  O13  1  0.79462900  0.52532900  0.69745500  1
  O  O14  1  0.72480500  0.99423000  0.78945700  1
  O  O15  1  0.20542600  0.47471400  0.30253800  1
  O  O16  1  0.27025600  0.10340500  0.58807500  1
  O  O17  1  0.77608900  0.60177900  0.07922600  1
  O  O18  1  0.72971000  0.89667900  0.41183900  1
  O  O19  1  0.22390000  0.39804900  0.92091600  1
loop_
_geom_bond_atom_site_label_1
_geom_bond_atom_site_label_2
_geom_bond_distance
_geom_bond_site_symmetry_2
Li0 O4 1.957955 1_555
Li0 O7 2.037815 1_555
Li0 O18 2.055051 1_545
Li0 O12 2.171458 1_555
Li0 O3 2.453021 1_555
Li1 O5 1.999166 1_555
Li1 O19 2.060761 1_555
Li1 O6 2.070773 1_555
Li1 O13 2.084865 1_455
Li1 O2 2.450744 1_555
Li2 O6 1.957983 1_555
Li2 O5 2.038323 1_555
Li2 O16 2.055431 1_565
Li2 O14 2.171511 1_555
Li2 O1 2.454475 1_555
Li3 O7 1.999493 1_555
Li3 O17 2.059178 1_555
Li3 O4 2.070621 1_555
Li3 O15 2.084478 1_655
Li3 O0 2.450316 1_555
O0 V0 2.038528 1_655
O0 V2 2.074253 1_555
O0 V7 2.090209 1_555
O0 V9 2.147731 1_555
O1 V1 2.030179 1_555
O1 V6 2.064570 1_565
O1 V3 2.074010 1_455
O1 V8 2.212349 1_456
O2 V0 2.037376 1_555
O2 V4 2.073699 1_555
O2 V9 2.091114 1_555
O2 V7 2.147317 1_555
O3 V1 2.030997 1_544
O3 V8 2.063665 1_545
O3 V5 2.074749 1_655
O3 V6 2.212517 1_654
O4 V5 1.871479 1_655
O4 V2 1.935743 1_655
O5 V4 1.880135 1_555
O5 V3 1.939827 1_555
O6 V3 1.872014 1_455
O6 V4 1.935898 1_455
O7 V2 1.879826 1_555
O7 V5 1.939675 1_555
O8 V6 1.945155 1_555
O8 V9 2.052344 1_555
O8 V0 2.094311 1_555
O8 V2 2.187631 1_555
O9 V8 2.009833 1_555
O9 V1 2.027720 1_554
O9 V7 2.058425 1_555
O9 V3 2.149853 1_554
O10 V8 1.945120 1_555
O10 V7 2.052460 1_555
O10 V0 2.093624 1_655
O10 V4 2.186492 1_555
O11 V6 2.008678 1_555
O11 V1 2.028119 1_545
O11 V9 2.058993 1_555
O11 V5 2.150925 1_556
O12 V8 1.816094 1_445
O12 V1 2.059377 1_544
O12 V5 2.236163 1_555
O13 V9 1.963215 1_555
O13 V0 2.018614 1_655
O13 V4 2.022473 1_555
O14 V6 1.816548 1_665
O14 V1 2.058554 1_555
O14 V3 2.237864 1_555
O15 V7 1.963238 1_555
O15 V0 2.019734 1_555
O15 V2 2.021994 1_555
O16 V2 1.839933 1_555
O16 V6 1.911963 1_555
O17 V3 1.762305 1_554
O17 V7 2.026419 1_555
O18 V4 1.839680 1_555
O18 V8 1.911836 1_555
O19 V5 1.762546 1_556
O19 V9 2.026086 1_555
