# generated using pymatgen
data_K3SbO4
_symmetry_space_group_name_H-M   'P 1'
_cell_length_a   5.66830979
_cell_length_b   6.55980562
_cell_length_c   7.35823348
_cell_angle_alpha   90.00000000
_cell_angle_beta   90.00000000
_cell_angle_gamma   108.49110891
_symmetry_Int_Tables_number   1
_chemical_formula_structural   K3SbO4
_chemical_formula_sum   'K6 Sb2 O8'
_cell_volume   259.47602737
_cell_formula_units_Z   2
loop_
 _symmetry_equiv_pos_site_id
 _symmetry_equiv_pos_as_xyz
  1  'x, y, z'
loop_
 _atom_site_type_symbol
 _atom_site_label
 _atom_site_symmetry_multiplicity
 _atom_site_fract_x
 _atom_site_fract_y
 _atom_site_fract_z
 _atom_site_occupancy
  K  K0  1  0.75000000  -0.00000000  0.37954329  1
  K  K1  1  0.25000000  -0.00000000  0.62045671  1
  K  K2  1  0.25000000  0.50000000  0.39088812  1
  K  K3  1  0.75000000  0.50000000  0.60911188  1
  K  K4  1  0.25000000  -0.00000000  0.10738469  1
  K  K5  1  0.75000000  -0.00000000  0.89261531  1
  Sb  Sb0  1  0.75000000  0.50000000  0.11346338  1
  Sb  Sb1  1  0.25000000  0.50000000  0.88653662  1
  O  O0  1  0.99342353  0.66773408  0.91254346  1
  O  O1  1  0.50657647  0.33226592  0.91254346  1
  O  O2  1  0.56970146  0.29196572  0.29607566  1
  O  O3  1  0.93029854  0.70803428  0.29607566  1
  O  O4  1  0.43029854  0.70803428  0.70392434  1
  O  O5  1  0.06970146  0.29196572  0.70392434  1
  O  O6  1  0.00657647  0.33226592  0.08745654  1
  O  O7  1  0.49342353  0.66773408  0.08745654  1
loop_
_geom_bond_atom_site_label_1
_geom_bond_atom_site_label_2
_geom_bond_distance
_geom_bond_site_symmetry_2
K0 O3 2.516224 1_545
K0 O2 2.516224 1_555
K0 O7 3.078039 1_545
K0 O6 3.078039 1_655
K0 O4 3.232291 1_545
K0 O5 3.232291 1_655
K1 O4 2.516224 1_545
K1 O5 2.516224 1_555
K1 O0 3.078039 1_445
K1 O1 3.078039 1_555
K1 O3 3.232291 1_445
K1 O2 3.232291 1_555
K2 O6 2.671430 1_555
K2 O7 2.671430 1_555
K2 O2 2.683587 1_555
K2 O3 2.683587 1_455
K2 O4 2.706978 1_555
K2 O5 2.706978 1_555
K3 O1 2.671430 1_555
K3 O0 2.671430 1_555
K3 O4 2.683587 1_555
K3 O5 2.683587 1_655
K3 O3 2.706978 1_555
K3 O2 2.706978 1_555
K4 O2 2.584240 1_555
K4 O3 2.584240 1_445
K4 O0 2.628791 1_444
K4 O1 2.628791 1_554
K4 O6 2.929787 1_555
K4 O7 2.929787 1_545
K5 O4 2.584240 1_545
K5 O5 2.584240 1_655
K5 O6 2.628791 1_656
K5 O7 2.628791 1_546
K5 O0 2.929787 1_545
K5 O1 2.929787 1_555
O0 Sb0 2.082597 1_556
O0 Sb1 2.092244 1_655
O1 Sb0 2.082597 1_556
O1 Sb1 2.092244 1_555
O2 Sb0 1.956438 1_555
O3 Sb0 1.956438 1_555
O4 Sb1 1.956438 1_555
O5 Sb1 1.956438 1_555
O6 Sb1 2.082597 1_554
O6 Sb0 2.092244 1_455
O7 Sb1 2.082597 1_554
O7 Sb0 2.092244 1_555
