# generated using pymatgen
data_Dy2Ti12(CuO4)9
_symmetry_space_group_name_H-M   'P 1'
_cell_length_a   10.52102978
_cell_length_b   10.52102978
_cell_length_c   6.46155200
_cell_angle_alpha   90.00000000
_cell_angle_beta   90.00000000
_cell_angle_gamma   119.99999862
_symmetry_Int_Tables_number   1
_chemical_formula_structural   Dy2Ti12(CuO4)9
_chemical_formula_sum   'Dy2 Ti12 Cu9 O36'
_cell_volume   619.41822766
_cell_formula_units_Z   1
loop_
 _symmetry_equiv_pos_site_id
 _symmetry_equiv_pos_as_xyz
  1  'x, y, z'
loop_
 _atom_site_type_symbol
 _atom_site_label
 _atom_site_symmetry_multiplicity
 _atom_site_fract_x
 _atom_site_fract_y
 _atom_site_fract_z
 _atom_site_occupancy
  Dy  Dy0  1  0.33333300  0.66666700  0.82885500  1
  Dy  Dy1  1  0.66666700  0.33333300  0.17114500  1
  Ti  Ti0  1  0.00000000  0.50000000  0.00000000  1
  Ti  Ti1  1  0.31917700  0.16095700  0.33676200  1
  Ti  Ti2  1  0.68082300  0.83904300  0.66323800  1
  Ti  Ti3  1  0.00000000  0.00000000  0.00000000  1
  Ti  Ti4  1  0.33333300  0.66666700  0.34105400  1
  Ti  Ti5  1  0.66666700  0.33333300  0.65894600  1
  Ti  Ti6  1  0.50000000  0.50000000  0.00000000  1
  Ti  Ti7  1  0.83904300  0.15822000  0.33676200  1
  Ti  Ti8  1  0.16095700  0.84178000  0.66323800  1
  Ti  Ti9  1  0.15822000  0.31917700  0.66323800  1
  Ti  Ti10  1  0.50000000  0.00000000  0.00000000  1
  Ti  Ti11  1  0.84178000  0.68082300  0.33676200  1
  Cu  Cu0  1  0.33687700  0.16837100  0.83840600  1
  Cu  Cu1  1  0.66312300  0.83162900  0.16159400  1
  Cu  Cu2  1  0.00000000  0.50000000  0.50000000  1
  Cu  Cu3  1  0.16850500  0.33687700  0.16159400  1
  Cu  Cu4  1  0.50000000  0.00000000  0.50000000  1
  Cu  Cu5  1  0.83149500  0.66312300  0.83840600  1
  Cu  Cu6  1  0.50000000  0.50000000  0.50000000  1
  Cu  Cu7  1  0.83162900  0.16850500  0.83840600  1
  Cu  Cu8  1  0.16837100  0.83149500  0.16159400  1
  O  O0  1  0.26980700  0.22522100  0.58867100  1
  O  O1  1  0.58881800  0.88160700  0.91311900  1
  O  O2  1  0.92337000  0.54905300  0.24915200  1
  O  O3  1  0.80704600  0.31669200  0.48244000  1
  O  O4  1  0.14828500  0.98338300  0.83042500  1
  O  O5  1  0.47291000  0.64963900  0.14574700  1
  O  O6  1  0.52709000  0.35036100  0.85425300  1
  O  O7  1  0.85171500  0.01661700  0.16957500  1
  O  O8  1  0.19295400  0.68330800  0.51756000  1
  O  O9  1  0.07663000  0.45094700  0.75084800  1
  O  O10  1  0.41118200  0.11839300  0.08688100  1
  O  O11  1  0.73019300  0.77477900  0.41132900  1
  O  O12  1  0.04458500  0.26980700  0.41132900  1
  O  O13  1  0.37431700  0.92337000  0.75084800  1
  O  O14  1  0.70721100  0.58881800  0.08688100  1
  O  O15  1  0.16490200  0.14828500  0.16957500  1
  O  O16  1  0.49035400  0.80704600  0.51756000  1
  O  O17  1  0.82327100  0.47291000  0.85425300  1
  O  O18  1  0.17672900  0.52709000  0.14574700  1
  O  O19  1  0.50964600  0.19295400  0.48244000  1
  O  O20  1  0.83509800  0.85171500  0.83042500  1
  O  O21  1  0.29278900  0.41118200  0.91311900  1
  O  O22  1  0.62568300  0.07663000  0.24915200  1
  O  O23  1  0.95541500  0.73019300  0.58867100  1
  O  O24  1  0.01661700  0.16490200  0.83042500  1
  O  O25  1  0.35036100  0.82327100  0.14574700  1
  O  O26  1  0.68330800  0.49035400  0.48244000  1
  O  O27  1  0.45094700  0.37431700  0.24915200  1
  O  O28  1  0.77477900  0.04458500  0.58867100  1
  O  O29  1  0.11839300  0.70721100  0.91311900  1
  O  O30  1  0.88160700  0.29278900  0.08688100  1
  O  O31  1  0.22522100  0.95541500  0.41132900  1
  O  O32  1  0.54905300  0.62568300  0.75084800  1
  O  O33  1  0.31669200  0.50964600  0.51756000  1
  O  O34  1  0.64963900  0.17672900  0.85425300  1
  O  O35  1  0.98338300  0.83509800  0.16957500  1
loop_
_geom_bond_atom_site_label_1
_geom_bond_atom_site_label_2
_geom_bond_distance
_geom_bond_site_symmetry_2
Dy0 O8 2.552741 1_555
Dy0 O16 2.552745 1_555
Dy0 O33 2.552748 1_555
Dy0 O29 2.560650 1_555
Dy0 O1 2.560656 1_555
Dy0 O21 2.560660 1_555
Dy0 O13 2.563132 1_555
Dy0 O9 2.563135 1_555
Dy0 O32 2.563142 1_555
Dy0 O25 2.577663 1_556
Dy0 O18 2.577665 1_556
Dy0 O5 2.577669 1_556
Dy1 O3 2.552741 1_555
Dy1 O19 2.552745 1_555
Dy1 O26 2.552748 1_555
Dy1 O30 2.560650 1_555
Dy1 O10 2.560656 1_555
Dy1 O14 2.560660 1_555
Dy1 O22 2.563132 1_555
Dy1 O2 2.563135 1_555
Dy1 O27 2.563142 1_555
Dy1 O34 2.577663 1_554
Dy1 O17 2.577665 1_554
Dy1 O6 2.577669 1_554
Cu0 O6 1.962086 1_555
Cu0 O4 1.966174 1_545
Cu0 O10 1.968870 1_556
Cu0 O0 1.970202 1_555
Cu1 O5 1.962086 1_555
Cu1 O7 1.966174 1_565
Cu1 O1 1.968870 1_554
Cu1 O11 1.970202 1_555
Cu2 O8 1.984529 1_555
Cu2 O3 1.984529 1_455
Cu2 O9 1.989885 1_555
Cu2 O2 1.989885 1_455
Cu3 O18 1.962081 1_555
Cu3 O15 1.966179 1_555
Cu3 O21 1.968875 1_554
Cu3 O12 1.970202 1_555
Cu4 O16 1.984529 1_545
Cu4 O19 1.984529 1_555
Cu4 O13 1.989885 1_545
Cu4 O22 1.989885 1_555
Cu5 O17 1.962081 1_555
Cu5 O20 1.966179 1_555
Cu5 O14 1.968875 1_556
Cu5 O23 1.970202 1_555
Cu6 O26 1.984529 1_555
Cu6 O33 1.984529 1_555
Cu6 O27 1.989885 1_555
Cu6 O32 1.989885 1_555
Cu7 O34 1.962092 1_555
Cu7 O24 1.966168 1_655
Cu7 O30 1.968876 1_556
Cu7 O28 1.970202 1_555
Cu8 O25 1.962092 1_555
Cu8 O35 1.966168 1_455
Cu8 O29 1.968876 1_554
Cu8 O31 1.970202 1_555
O0 Ti1 1.930705 1_555
O0 Ti9 1.936010 1_555
O1 Ti10 1.975829 1_566
O1 Ti2 2.044019 1_555
O2 Ti0 1.980969 1_655
O2 Ti11 2.041906 1_555
O3 Ti5 1.941986 1_555
O3 Ti7 2.083390 1_555
O4 Ti8 1.898145 1_555
O4 Ti3 1.984404 1_566
O5 Ti6 1.973688 1_555
O5 Ti4 2.011035 1_555
O6 Ti6 1.973688 1_556
O6 Ti5 2.011035 1_555
O7 Ti7 1.898145 1_555
O7 Ti3 1.984404 1_655
O8 Ti4 1.941986 1_555
O8 Ti8 2.083390 1_555
O9 Ti0 1.980969 1_556
O9 Ti9 2.041906 1_555
O10 Ti10 1.975829 1_555
O10 Ti1 2.044019 1_555
O11 Ti2 1.930705 1_555
O11 Ti11 1.936010 1_555
O12 Ti9 1.930710 1_555
O12 Ti7 1.936001 1_455
O13 Ti10 1.980969 1_566
O13 Ti8 2.041906 1_555
O14 Ti6 1.975829 1_555
O14 Ti11 2.044020 1_555
O15 Ti1 1.898145 1_555
O15 Ti3 1.984404 1_555
O16 Ti4 1.941991 1_555
O16 Ti2 2.083390 1_555
O17 Ti0 1.973688 1_656
O17 Ti5 2.011030 1_555
O18 Ti0 1.973688 1_555
O18 Ti4 2.011030 1_555
O19 Ti5 1.941991 1_555
O19 Ti1 2.083390 1_555
O20 Ti2 1.898145 1_555
O20 Ti3 1.984404 1_666
O21 Ti6 1.975829 1_556
O21 Ti9 2.044020 1_555
O22 Ti10 1.980969 1_555
O22 Ti7 2.041906 1_555
O23 Ti11 1.930710 1_555
O23 Ti8 1.936001 1_655
O24 Ti9 1.898145 1_555
O24 Ti3 1.984404 1_556
O25 Ti10 1.973688 1_565
O25 Ti4 2.011027 1_555
O26 Ti5 1.941994 1_555
O26 Ti11 2.083390 1_555
O27 Ti6 1.980969 1_555
O27 Ti1 2.041906 1_555
O28 Ti7 1.930709 1_555
O28 Ti2 1.936001 1_545
O29 Ti0 1.975829 1_556
O29 Ti8 2.044020 1_555
O30 Ti0 1.975829 1_655
O30 Ti7 2.044020 1_555
O31 Ti8 1.930709 1_555
O31 Ti1 1.936001 1_565
O32 Ti6 1.980969 1_556
O32 Ti2 2.041906 1_555
O33 Ti4 1.941994 1_555
O33 Ti9 2.083390 1_555
O34 Ti10 1.973688 1_556
O34 Ti5 2.011027 1_555
O35 Ti11 1.898145 1_555
O35 Ti3 1.984404 1_665
