# generated using pymatgen
data_CaEr6Ta2O14
_symmetry_space_group_name_H-M   'P 1'
_cell_length_a   6.53295994
_cell_length_b   6.53296018
_cell_length_c   7.77471483
_cell_angle_alpha   89.96379639
_cell_angle_beta   89.96379790
_cell_angle_gamma   110.27033007
_symmetry_Int_Tables_number   1
_chemical_formula_structural   CaEr6Ta2O14
_chemical_formula_sum   'Ca1 Er6 Ta2 O14'
_cell_volume   311.27106121
_cell_formula_units_Z   1
loop_
 _symmetry_equiv_pos_site_id
 _symmetry_equiv_pos_as_xyz
  1  'x, y, z'
loop_
 _atom_site_type_symbol
 _atom_site_label
 _atom_site_symmetry_multiplicity
 _atom_site_fract_x
 _atom_site_fract_y
 _atom_site_fract_z
 _atom_site_occupancy
  Ca  Ca0  1  0.20809400  0.79190600  0.50000000  1
  Er  Er0  1  0.03001500  0.48908100  0.21840500  1
  Er  Er1  1  0.02019800  0.97980200  0.00000000  1
  Er  Er2  1  0.93601400  0.06398600  0.50000000  1
  Er  Er3  1  0.51091900  0.96998500  0.78159500  1
  Er  Er4  1  0.52443400  0.06515200  0.23554500  1
  Er  Er5  1  0.93484800  0.47556600  0.76445500  1
  Ta  Ta0  1  0.49532100  0.50467900  0.00000000  1
  Ta  Ta1  1  0.52181900  0.47818100  0.50000000  1
  O  O0  1  0.14749700  0.81610800  0.78615600  1
  O  O1  1  0.18389200  0.85250300  0.21384400  1
  O  O2  1  0.14789100  0.43347800  0.51193200  1
  O  O3  1  0.17528600  0.41870400  0.97692500  1
  O  O4  1  0.58129600  0.82471400  0.02307500  1
  O  O5  1  0.56652200  0.85210900  0.48806800  1
  O  O6  1  0.46460500  0.44319300  0.24982700  1
  O  O7  1  0.55680700  0.53539500  0.75017300  1
  O  O8  1  0.44332500  0.17766700  0.97576000  1
  O  O9  1  0.35587400  0.15424100  0.51697500  1
  O  O10  1  0.82233300  0.55667500  0.02424000  1
  O  O11  1  0.84575900  0.64412600  0.48302500  1
  O  O12  1  0.86898200  0.11256300  0.77317600  1
  O  O13  1  0.88743700  0.13101800  0.22682400  1
loop_
_geom_bond_atom_site_label_1
_geom_bond_atom_site_label_2
_geom_bond_distance
_geom_bond_site_symmetry_2
Ca0 O11 2.229308 1_455
Ca0 O9 2.229308 1_565
Ca0 O5 2.237836 1_555
Ca0 O2 2.237837 1_555
Ca0 O1 2.274659 1_555
Ca0 O0 2.274659 1_555
Er0 O10 2.175215 1_455
Er0 O13 2.198589 1_455
Er0 O3 2.222170 1_554
Er0 O1 2.234913 1_555
Er0 O2 2.475460 1_555
Er0 O11 2.748083 1_455
Er0 O6 2.966633 1_555
Er1 O1 2.283889 1_555
Er1 O0 2.283889 1_554
Er1 O12 2.330672 1_464
Er1 O13 2.330672 1_465
Er1 O8 2.621220 1_564
Er1 O10 2.621220 1_455
Er1 O4 2.695637 1_455
Er1 O3 2.695637 1_564
Er2 O13 2.213427 1_555
Er2 O12 2.213427 1_555
Er2 O5 2.331666 1_545
Er2 O2 2.331666 1_655
Er2 O9 2.601664 1_655
Er2 O11 2.601664 1_545
Er3 O8 2.175215 1_565
Er3 O12 2.198589 1_565
Er3 O4 2.222170 1_556
Er3 O0 2.234913 1_555
Er3 O5 2.475460 1_555
Er3 O9 2.748083 1_565
Er3 O7 2.966633 1_555
Er4 O1 2.183382 1_545
Er4 O13 2.259731 1_555
Er4 O8 2.273729 1_554
Er4 O4 2.396015 1_545
Er4 O5 2.475809 1_545
Er4 O9 2.604138 1_555
Er4 O6 2.633213 1_555
Er5 O0 2.183382 1_655
Er5 O12 2.259731 1_555
Er5 O10 2.273729 1_556
Er5 O3 2.396015 1_655
Er5 O2 2.475809 1_655
Er5 O11 2.604138 1_555
Er5 O7 2.633213 1_555
O2 Ta1 2.359406 1_555
O3 Ta0 1.976338 1_556
O4 Ta0 1.976338 1_555
O5 Ta1 2.359406 1_555
O6 Ta0 1.979128 1_555
O6 Ta1 1.979231 1_555
O7 Ta0 1.979128 1_556
O7 Ta1 1.979231 1_555
O8 Ta0 2.052481 1_556
O9 Ta1 2.020183 1_555
O10 Ta0 2.052481 1_555
O11 Ta1 2.020183 1_555
