# generated using pymatgen
data_NaSr3
_symmetry_space_group_name_H-M   'P 1'
_cell_length_a   8.39968608
_cell_length_b   8.39968608
_cell_length_c   6.92040979
_cell_angle_alpha   90.00000000
_cell_angle_beta   90.00000000
_cell_angle_gamma   120.00001089
_symmetry_Int_Tables_number   1
_chemical_formula_structural   NaSr3
_chemical_formula_sum   'Na2 Sr6'
_cell_volume   422.85211506
_cell_formula_units_Z   2
loop_
 _symmetry_equiv_pos_site_id
 _symmetry_equiv_pos_as_xyz
  1  'x, y, z'
loop_
 _atom_site_type_symbol
 _atom_site_label
 _atom_site_symmetry_multiplicity
 _atom_site_fract_x
 _atom_site_fract_y
 _atom_site_fract_z
 _atom_site_occupancy
  Na  Na0  1  0.33333300  0.66666700  0.75000000  1
  Na  Na1  1  0.66666700  0.33333300  0.25000000  1
  Sr  Sr0  1  0.16766597  0.83233403  0.25000000  1
  Sr  Sr1  1  0.83233403  0.66466806  0.75000000  1
  Sr  Sr2  1  0.33533194  0.16766597  0.75000000  1
  Sr  Sr3  1  0.83233403  0.16766597  0.75000000  1
  Sr  Sr4  1  0.16766597  0.33533194  0.25000000  1
  Sr  Sr5  1  0.66466806  0.83233403  0.25000000  1
loop_
_geom_bond_atom_site_label_1
_geom_bond_atom_site_label_2
_geom_bond_distance
_geom_bond_site_symmetry_2
Na0 Sr2 4.199864 1_565
Na0 Sr1 4.199864 1_455
Na0 Sr3 4.199867 1_455
Na0 Sr3 4.199867 1_565
Na0 Sr1 4.199872 1_555
Na0 Sr2 4.199872 1_555
Na0 Sr0 4.216902 1_556
Na0 Sr0 4.216902 1_555
Na0 Sr5 4.216906 1_555
Na0 Sr5 4.216906 1_556
Na0 Sr4 4.216906 1_555
Na0 Sr4 4.216906 1_556
Na1 Sr4 4.199864 1_655
Na1 Sr5 4.199864 1_545
Na1 Sr0 4.199867 1_545
Na1 Sr0 4.199867 1_655
Na1 Sr5 4.199872 1_555
Na1 Sr4 4.199872 1_555
Na1 Sr3 4.216902 1_555
Na1 Sr3 4.216902 1_554
Na1 Sr2 4.216906 1_555
Na1 Sr2 4.216906 1_554
Na1 Sr1 4.216906 1_554
Na1 Sr1 4.216906 1_555
Sr0 Sr5 4.174662 1_555
Sr0 Sr4 4.174662 1_555
Sr0 Sr5 4.225025 1_455
Sr0 Sr4 4.225025 1_565
Sr0 Sr2 4.233591 1_565
Sr0 Sr1 4.233591 1_455
Sr0 Sr2 4.233591 1_564
Sr0 Sr1 4.233591 1_454
Sr1 Sr2 4.174661 1_555
Sr1 Sr3 4.174662 1_555
Sr1 Sr2 4.225024 1_665
Sr1 Sr3 4.225025 1_565
Sr1 Sr5 4.233591 1_556
Sr1 Sr5 4.233591 1_555
Sr2 Sr3 4.174662 1_555
Sr2 Sr3 4.225025 1_455
Sr2 Sr4 4.233591 1_556
Sr2 Sr4 4.233591 1_555
Sr3 Sr4 4.233591 1_656
Sr3 Sr5 4.233591 1_545
Sr3 Sr5 4.233591 1_546
Sr3 Sr4 4.233591 1_655
Sr4 Sr5 4.174661 1_555
Sr4 Sr5 4.225024 1_445
