# generated using pymatgen
data_CeAsO3
_symmetry_space_group_name_H-M   'P 1'
_cell_length_a   7.83511000
_cell_length_b   8.35220700
_cell_length_c   9.15742665
_cell_angle_alpha   76.50559668
_cell_angle_beta   90.00000000
_cell_angle_gamma   90.00000000
_symmetry_Int_Tables_number   1
_chemical_formula_structural   CeAsO3
_chemical_formula_sum   'Ce8 As8 O24'
_cell_volume   582.72210696
_cell_formula_units_Z   8
loop_
 _symmetry_equiv_pos_site_id
 _symmetry_equiv_pos_as_xyz
  1  'x, y, z'
loop_
 _atom_site_type_symbol
 _atom_site_label
 _atom_site_symmetry_multiplicity
 _atom_site_fract_x
 _atom_site_fract_y
 _atom_site_fract_z
 _atom_site_occupancy
  Ce  Ce0  1  0.66501900  0.22745300  0.40216100  1
  Ce  Ce1  1  0.16501900  0.27254700  0.59783900  1
  Ce  Ce2  1  0.33498100  0.77254700  0.59783900  1
  Ce  Ce3  1  0.83498100  0.72745300  0.40216100  1
  Ce  Ce4  1  0.81223300  0.15717000  0.01287200  1
  Ce  Ce5  1  0.31223300  0.34283000  0.98712800  1
  Ce  Ce6  1  0.18776700  0.84283000  0.98712800  1
  Ce  Ce7  1  0.68776700  0.65717000  0.01287200  1
  As  As0  1  0.01767800  0.44949000  0.20477900  1
  As  As1  1  0.51767800  0.05051000  0.79522100  1
  As  As2  1  0.98232200  0.55051000  0.79522100  1
  As  As3  1  0.48232200  0.94949000  0.20477900  1
  As  As4  1  0.09264100  0.06241200  0.31294800  1
  As  As5  1  0.59264100  0.43758800  0.68705200  1
  As  As6  1  0.90735900  0.93758800  0.68705200  1
  As  As7  1  0.40735900  0.56241200  0.31294800  1
  O  O0  1  0.96113100  0.40590200  0.39722900  1
  O  O1  1  0.46113100  0.09409800  0.60277100  1
  O  O2  1  0.03886900  0.59409800  0.60277100  1
  O  O3  1  0.53886900  0.90590200  0.39722900  1
  O  O4  1  0.53300500  0.16741000  0.15577500  1
  O  O5  1  0.03300500  0.33259000  0.84422500  1
  O  O6  1  0.46699500  0.83259000  0.84422500  1
  O  O7  1  0.96699500  0.66741000  0.15577500  1
  O  O8  1  0.82321100  0.38192800  0.13124100  1
  O  O9  1  0.32321100  0.11807200  0.86875900  1
  O  O10  1  0.17678900  0.61807200  0.86875900  1
  O  O11  1  0.67678900  0.88192800  0.13124100  1
  O  O12  1  0.86407800  0.15030300  0.62224600  1
  O  O13  1  0.36407800  0.34969700  0.37775400  1
  O  O14  1  0.13592200  0.84969700  0.37775400  1
  O  O15  1  0.63592200  0.65030300  0.62224600  1
  O  O16  1  0.86260000  0.04355400  0.31532500  1
  O  O17  1  0.36260000  0.45644600  0.68467500  1
  O  O18  1  0.13740000  0.95644600  0.68467500  1
  O  O19  1  0.63740000  0.54355400  0.31532500  1
  O  O20  1  0.10795300  0.09083200  0.10977700  1
  O  O21  1  0.60795300  0.40916800  0.89022300  1
  O  O22  1  0.89204700  0.90916800  0.89022300  1
  O  O23  1  0.39204700  0.59083200  0.10977700  1
loop_
_geom_bond_atom_site_label_1
_geom_bond_atom_site_label_2
_geom_bond_distance
_geom_bond_site_symmetry_2
Ce0 O16 2.440913 1_555
Ce0 O1 2.492473 1_555
Ce0 O12 2.510680 1_555
Ce0 O13 2.558443 1_555
Ce0 O19 2.582577 1_555
Ce0 O4 2.634416 1_555
Ce0 O0 2.752230 1_555
Ce0 O8 2.803929 1_555
Ce0 O3 2.871995 1_545
Ce1 O17 2.440913 1_555
Ce1 O0 2.492473 1_455
Ce1 O13 2.510680 1_555
Ce1 O12 2.558443 1_455
Ce1 O18 2.582577 1_545
Ce1 O5 2.634416 1_555
Ce1 O1 2.752230 1_555
Ce1 O9 2.803929 1_555
Ce1 O2 2.871995 1_555
Ce2 O18 2.440913 1_555
Ce2 O3 2.492473 1_555
Ce2 O14 2.510680 1_555
Ce2 O15 2.558443 1_555
Ce2 O17 2.582577 1_555
Ce2 O6 2.634416 1_555
Ce2 O2 2.752230 1_555
Ce2 O10 2.803929 1_555
Ce2 O1 2.871995 1_565
Ce3 O19 2.440913 1_555
Ce3 O2 2.492473 1_655
Ce3 O15 2.510680 1_555
Ce3 O14 2.558443 1_655
Ce3 O16 2.582577 1_565
Ce3 O7 2.634416 1_555
Ce3 O3 2.752230 1_555
Ce3 O11 2.803929 1_555
Ce3 O0 2.871995 1_555
Ce4 O8 2.378232 1_555
Ce4 O20 2.496695 1_655
Ce4 O11 2.534368 1_545
Ce4 O5 2.543193 1_654
Ce4 O4 2.560944 1_555
Ce4 O22 2.651195 1_544
Ce4 O21 2.673934 1_554
Ce4 O16 2.738758 1_555
Ce5 O9 2.378232 1_555
Ce5 O21 2.496695 1_555
Ce5 O10 2.534368 1_555
Ce5 O4 2.543193 1_556
Ce5 O5 2.560944 1_555
Ce5 O23 2.651195 1_556
Ce5 O20 2.673934 1_556
Ce5 O17 2.738758 1_555
Ce6 O10 2.378232 1_555
Ce6 O22 2.496695 1_455
Ce6 O9 2.534368 1_565
Ce6 O7 2.543193 1_456
Ce6 O6 2.560944 1_555
Ce6 O20 2.651195 1_566
Ce6 O23 2.673934 1_556
Ce6 O18 2.738758 1_555
Ce7 O11 2.378232 1_555
Ce7 O23 2.496695 1_555
Ce7 O8 2.534368 1_555
Ce7 O6 2.543193 1_554
Ce7 O7 2.560944 1_555
Ce7 O21 2.651195 1_554
Ce7 O22 2.673934 1_554
Ce7 O19 2.738758 1_555
As0 O0 1.770668 1_455
As0 O8 1.808546 1_455
As0 O7 1.814026 1_455
As1 O1 1.770668 1_555
As1 O9 1.808546 1_555
As1 O6 1.814026 1_545
As2 O2 1.770668 1_655
As2 O10 1.808546 1_655
As2 O5 1.814026 1_655
As3 O3 1.770668 1_555
As3 O11 1.808546 1_555
As3 O4 1.814026 1_565
As4 O14 1.769623 1_545
As4 O16 1.808954 1_455
As4 O20 1.823781 1_555
As5 O15 1.769623 1_555
As5 O17 1.808954 1_555
As5 O21 1.823781 1_555
As6 O12 1.769623 1_565
As6 O18 1.808954 1_655
As6 O22 1.823781 1_555
As7 O13 1.769623 1_555
As7 O19 1.808954 1_555
As7 O23 1.823781 1_555
