# generated using pymatgen
data_K2MoSO3
_symmetry_space_group_name_H-M   'P 1'
_cell_length_a   6.24521700
_cell_length_b   7.23917574
_cell_length_c   7.86554553
_cell_angle_alpha   107.76536313
_cell_angle_beta   90.00000000
_cell_angle_gamma   115.55317335
_symmetry_Int_Tables_number   1
_chemical_formula_structural   K2MoSO3
_chemical_formula_sum   'K4 Mo2 S2 O6'
_cell_volume   301.91526174
_cell_formula_units_Z   2
loop_
 _symmetry_equiv_pos_site_id
 _symmetry_equiv_pos_as_xyz
  1  'x, y, z'
loop_
 _atom_site_type_symbol
 _atom_site_label
 _atom_site_symmetry_multiplicity
 _atom_site_fract_x
 _atom_site_fract_y
 _atom_site_fract_z
 _atom_site_occupancy
  K  K0  1  0.49223400  0.98446800  0.20541500  1
  K  K1  1  0.50776600  0.01553200  0.79458500  1
  K  K2  1  0.17374800  0.34749500  0.72977200  1
  K  K3  1  0.82625200  0.65250500  0.27022800  1
  Mo  Mo0  1  0.15053500  0.30107100  0.20844600  1
  Mo  Mo1  1  0.84946500  0.69892900  0.79155400  1
  S  S0  1  0.32115300  0.64230500  0.41246900  1
  S  S1  1  0.67884700  0.35769500  0.58753100  1
  O  O0  1  0.05225200  0.10450400  0.32025300  1
  O  O1  1  0.94774800  0.89549600  0.67974700  1
  O  O2  1  0.89786200  0.26760100  0.07207200  1
  O  O3  1  0.36973900  0.26760100  0.07207200  1
  O  O4  1  0.10213800  0.73239900  0.92792800  1
  O  O5  1  0.63026100  0.73239900  0.92792800  1
loop_
_geom_bond_atom_site_label_1
_geom_bond_atom_site_label_2
_geom_bond_distance
_geom_bond_site_symmetry_2
K0 O5 2.786237 1_554
K0 O4 2.786237 1_554
K0 O3 2.924185 1_565
K0 O2 2.924185 1_565
K0 S1 3.165378 1_565
K0 S0 3.179287 1_555
K0 O0 3.271420 1_565
K0 O0 3.271420 1_665
K1 O3 2.786237 1_556
K1 O2 2.786237 1_556
K1 O5 2.924185 1_545
K1 O4 2.924185 1_545
K1 S0 3.165378 1_545
K1 S1 3.179287 1_555
K1 O1 3.271420 1_545
K1 O1 3.271420 1_445
K2 O1 2.843184 1_445
K2 O5 2.969517 1_555
K2 O4 2.969520 1_555
K2 O0 3.071858 1_555
K2 O3 3.262295 1_556
K2 O2 3.262298 1_456
K2 S1 3.325239 1_555
K2 S1 3.325251 1_455
K2 S0 3.631319 1_555
K3 O0 2.843184 1_665
K3 O3 2.969517 1_555
K3 O2 2.969520 1_555
K3 O1 3.071858 1_555
K3 O5 3.262295 1_554
K3 O4 3.262298 1_654
K3 S0 3.325239 1_555
K3 S0 3.325251 1_655
K3 S1 3.631319 1_555
Mo0 O0 1.784704 1_555
Mo0 O2 1.791906 1_455
Mo0 O3 1.791912 1_555
Mo0 S0 2.263388 1_555
Mo1 O1 1.784704 1_555
Mo1 O4 1.791906 1_655
Mo1 O5 1.791912 1_555
Mo1 S1 2.263388 1_555
