# generated using pymatgen
data_La2MnZnO6
_symmetry_space_group_name_H-M   'P 1'
_cell_length_a   5.51870391
_cell_length_b   9.67850239
_cell_length_c   9.67768105
_cell_angle_alpha   79.57949754
_cell_angle_beta   88.76178262
_cell_angle_gamma   74.06603928
_symmetry_Int_Tables_number   1
_chemical_formula_structural   La2MnZnO6
_chemical_formula_sum   'La8 Mn4 Zn4 O24'
_cell_volume   488.63857487
_cell_formula_units_Z   4
loop_
 _symmetry_equiv_pos_site_id
 _symmetry_equiv_pos_as_xyz
  1  'x, y, z'
loop_
 _atom_site_type_symbol
 _atom_site_label
 _atom_site_symmetry_multiplicity
 _atom_site_fract_x
 _atom_site_fract_y
 _atom_site_fract_z
 _atom_site_occupancy
  La  La0  1  0.31415900  0.37549600  0.43679700  1
  La  La1  1  0.56416400  0.87547900  0.18676300  1
  La  La2  1  0.81418600  0.37549300  0.93678400  1
  La  La3  1  0.06417200  0.87547900  0.68675800  1
  La  La4  1  0.43581300  0.12450400  0.81322000  1
  La  La5  1  0.68582500  0.62452100  0.56323500  1
  La  La6  1  0.93581600  0.12451000  0.31321200  1
  La  La7  1  0.18583600  0.62451800  0.06323500  1
  Mn  Mn0  1  0.50000100  0.00001400  0.49998000  1
  Mn  Mn1  1  0.75000200  0.49998900  0.25001800  1
  Mn  Mn2  1  0.00000300  0.00001200  0.99998000  1
  Mn  Mn3  1  0.24999500  0.49998600  0.75001700  1
  Zn  Zn0  1  0.87500900  0.25000500  0.62500300  1
  Zn  Zn1  1  0.12498700  0.74999500  0.37499600  1
  Zn  Zn2  1  0.37501400  0.25000700  0.12500400  1
  Zn  Zn3  1  0.62499100  0.74999200  0.87499500  1
  O  O0  1  0.73648400  0.08391100  0.57557100  1
  O  O1  1  0.98648500  0.58389500  0.32554600  1
  O  O2  1  0.23648400  0.08391200  0.07556800  1
  O  O3  1  0.48648800  0.58388900  0.82554800  1
  O  O4  1  0.92685800  0.15603900  0.83807900  1
  O  O5  1  0.17682900  0.65601100  0.58804100  1
  O  O6  1  0.42685100  0.15604400  0.33808000  1
  O  O7  1  0.67683900  0.65601400  0.08803800  1
  O  O8  1  0.51505700  0.38242800  0.65276700  1
  O  O9  1  0.76498300  0.88242900  0.40277800  1
  O  O10  1  0.01506300  0.38243100  0.15276500  1
  O  O11  1  0.26498400  0.88242600  0.90277300  1
  O  O12  1  0.01348500  0.41610200  0.67442900  1
  O  O13  1  0.26353800  0.91609600  0.42446100  1
  O  O14  1  0.51349200  0.41610400  0.17442200  1
  O  O15  1  0.76353900  0.91609300  0.92446000  1
  O  O16  1  0.23493800  0.11757600  0.59724000  1
  O  O17  1  0.48501800  0.61756800  0.34721600  1
  O  O18  1  0.73493900  0.11757400  0.09724000  1
  O  O19  1  0.98502400  0.61756600  0.84721900  1
  O  O20  1  0.82313100  0.34397000  0.41191900  1
  O  O21  1  0.07319400  0.84397800  0.16196100  1
  O  O22  1  0.32312700  0.34396800  0.91191900  1
  O  O23  1  0.57319800  0.84397700  0.66196200  1
loop_
_geom_bond_atom_site_label_1
_geom_bond_atom_site_label_2
_geom_bond_distance
_geom_bond_site_symmetry_2
La0 O1 2.406961 1_455
La0 O6 2.407029 1_555
La0 O8 2.407051 1_555
La0 O20 2.750921 1_555
La0 O14 2.750946 1_555
La0 O17 2.751856 1_555
La0 O12 2.828523 1_555
La0 O16 2.828648 1_555
La0 O20 2.828965 1_455
La1 O2 2.406991 1_565
La1 O7 2.407182 1_555
La1 O9 2.407278 1_555
La1 O15 2.750429 1_554
La1 O21 2.751212 1_655
La1 O18 2.751704 1_565
La1 O17 2.828454 1_555
La1 O21 2.828463 1_555
La1 O13 2.828923 1_555
La2 O3 2.406970 1_555
La2 O4 2.406981 1_555
La2 O10 2.407107 1_656
La2 O12 2.750696 1_655
La2 O22 2.750743 1_655
La2 O19 2.751775 1_555
La2 O14 2.828635 1_556
La2 O18 2.828743 1_556
La2 O22 2.829115 1_555
La3 O0 2.406985 1_465
La3 O5 2.407164 1_555
La3 O11 2.407250 1_555
La3 O13 2.750359 1_555
La3 O23 2.751184 1_555
La3 O16 2.751685 1_565
La3 O23 2.828481 1_455
La3 O19 2.828504 1_455
La3 O15 2.828972 1_455
La4 O22 2.407035 1_555
La4 O16 2.407063 1_555
La4 O15 2.407144 1_545
La4 O2 2.750691 1_556
La4 O4 2.750800 1_455
La4 O11 2.751772 1_545
La4 O0 2.828634 1_555
La4 O8 2.828766 1_555
La4 O4 2.829068 1_555
La5 O12 2.406854 1_655
La5 O23 2.407114 1_555
La5 O17 2.407289 1_555
La5 O3 2.750442 1_555
La5 O5 2.751046 1_555
La5 O8 2.751678 1_555
La5 O9 2.828470 1_555
La5 O5 2.828612 1_655
La5 O1 2.828961 1_555
La6 O18 2.407024 1_555
La6 O20 2.407044 1_555
La6 O13 2.407175 1_645
La6 O0 2.750799 1_555
La6 O6 2.750863 1_555
La6 O9 2.751830 1_545
La6 O2 2.828591 1_655
La6 O10 2.828726 1_655
La6 O6 2.829021 1_655
La7 O14 2.406795 1_555
La7 O21 2.407143 1_555
La7 O19 2.407274 1_454
La7 O1 2.750450 1_455
La7 O7 2.751040 1_455
La7 O10 2.751639 1_555
La7 O11 2.828468 1_554
La7 O7 2.828626 1_555
La7 O3 2.828926 1_554
Mn0 O9 1.931990 1_545
Mn0 O16 1.932471 1_555
Mn0 O13 1.932524 1_545
Mn0 O6 1.932637 1_555
Mn0 O0 1.932802 1_555
Mn0 O23 1.933214 1_545
Mn1 O17 1.931947 1_555
Mn1 O10 1.932408 1_655
Mn1 O1 1.932574 1_555
Mn1 O20 1.932581 1_555
Mn1 O14 1.932865 1_555
Mn1 O7 1.933132 1_555
Mn2 O11 1.932020 1_545
Mn2 O18 1.932474 1_456
Mn2 O15 1.932539 1_445
Mn2 O4 1.932627 1_455
Mn2 O2 1.932799 1_556
Mn2 O21 1.933191 1_546
Mn3 O19 1.931932 1_455
Mn3 O8 1.932394 1_555
Mn3 O22 1.932582 1_555
Mn3 O3 1.932612 1_555
Mn3 O12 1.932822 1_555
Mn3 O5 1.933106 1_555
O0 Zn0 2.089550 1_555
O1 Zn1 2.089595 1_655
O2 Zn2 2.089590 1_555
O3 Zn3 2.089614 1_555
O4 Zn0 2.089349 1_555
O5 Zn1 2.089112 1_555
O6 Zn2 2.089340 1_555
O7 Zn3 2.089083 1_554
O8 Zn0 2.089142 1_555
O9 Zn1 2.089444 1_655
O10 Zn2 2.089135 1_555
O11 Zn3 2.089448 1_555
O12 Zn0 2.089397 1_455
O13 Zn1 2.089816 1_555
O14 Zn2 2.089375 1_555
O15 Zn3 2.089806 1_555
O16 Zn0 2.089063 1_455
O17 Zn1 2.089530 1_555
O18 Zn2 2.089062 1_555
O19 Zn3 2.089527 1_555
O20 Zn0 2.089423 1_555
O21 Zn1 2.089011 1_555
O22 Zn2 2.089426 1_556
O23 Zn3 2.088998 1_555
