# generated using pymatgen
data_MgFe8(O7F)2
_symmetry_space_group_name_H-M   'P 1'
_cell_length_a   4.83592320
_cell_length_b   4.82042540
_cell_length_c   11.83163047
_cell_angle_alpha   90.09700240
_cell_angle_beta   90.41397306
_cell_angle_gamma   90.57944584
_symmetry_Int_Tables_number   1
_chemical_formula_structural   MgFe8(O7F)2
_chemical_formula_sum   'Mg1 Fe8 O14 F2'
_cell_volume   275.78785404
_cell_formula_units_Z   1
loop_
 _symmetry_equiv_pos_site_id
 _symmetry_equiv_pos_as_xyz
  1  'x, y, z'
loop_
 _atom_site_type_symbol
 _atom_site_label
 _atom_site_symmetry_multiplicity
 _atom_site_fract_x
 _atom_site_fract_y
 _atom_site_fract_z
 _atom_site_occupancy
  Mg  Mg0  1  0.50348200  0.99801800  0.24820200  1
  Fe  Fe0  1  0.00167900  0.99278800  0.00595500  1
  Fe  Fe1  1  0.00234100  0.99677600  0.25291200  1
  Fe  Fe2  1  0.02884600  0.02424500  0.50487300  1
  Fe  Fe3  1  0.00010200  0.98768900  0.74780900  1
  Fe  Fe4  1  0.50248300  0.49634900  0.12063000  1
  Fe  Fe5  1  0.49434600  0.48780600  0.63509100  1
  Fe  Fe6  1  0.46726300  0.52283300  0.87686400  1
  Fe  Fe7  1  0.49674100  0.49677900  0.37771000  1
  O  O0  1  0.21926800  0.83763600  0.13635100  1
  O  O1  1  0.20284700  0.80705000  0.62567500  1
  O  O2  1  0.17359300  0.81605200  0.87856700  1
  O  O3  1  0.23106800  0.84304200  0.36843500  1
  O  O4  1  0.29790300  0.31987300  0.00274200  1
  O  O5  1  0.29219100  0.33467200  0.24599500  1
  O  O6  1  0.31475300  0.32548700  0.50359100  1
  O  O7  1  0.29793800  0.30718200  0.75998900  1
  O  O8  1  0.68779000  0.68219700  0.00186800  1
  O  O9  1  0.71219800  0.66002400  0.24770900  1
  O  O10  1  0.68137300  0.68662500  0.75673000  1
  O  O11  1  0.78288600  0.15658400  0.13503100  1
  O  O12  1  0.78554000  0.15790700  0.36820200  1
  O  O13  1  0.80999000  0.18710800  0.62819900  1
  F  F0  1  0.71876100  0.68543600  0.50099600  1
  F  F1  1  0.79461600  0.18985100  0.88098400  1
loop_
_geom_bond_atom_site_label_1
_geom_bond_atom_site_label_2
_geom_bond_distance
_geom_bond_site_symmetry_2
Mg0 O9 1.925264 1_555
Mg0 O5 1.926540 1_565
Mg0 O0 2.046184 1_555
Mg0 O11 2.052206 1_565
Mg0 O3 2.080381 1_555
Mg0 O12 2.101766 1_565
Fe0 O2 1.927882 1_554
Fe0 O0 2.010761 1_555
Fe0 O11 2.027649 1_465
Fe0 O4 2.120095 1_565
Fe0 O8 2.121501 1_455
Fe1 O12 1.896507 1_465
Fe1 O0 1.903813 1_555
Fe1 O3 1.907622 1_555
Fe1 O11 1.914094 1_465
Fe1 O9 2.135396 1_455
Fe1 O5 2.140179 1_565
Fe2 O1 1.962794 1_545
Fe2 O13 1.975054 1_455
Fe2 O6 1.995065 1_555
Fe2 O3 2.088189 1_545
Fe2 O12 2.098983 1_455
Fe3 O13 1.943122 1_465
Fe3 O2 1.944610 1_555
Fe3 O1 1.959886 1_555
Fe3 O7 2.102031 1_565
Fe3 O10 2.109661 1_455
Fe4 O8 1.893750 1_555
Fe4 O4 1.899200 1_555
Fe4 O5 1.962490 1_555
Fe4 O9 1.967094 1_555
Fe4 O11 2.143068 1_555
Fe4 O0 2.159896 1_555
Fe5 O6 1.936444 1_555
Fe5 O10 1.940822 1_555
Fe5 O7 1.962622 1_555
Fe5 O1 2.099988 1_555
Fe5 O13 2.117502 1_555
Fe6 O7 1.903910 1_555
Fe6 O10 1.929853 1_555
Fe6 O4 1.962766 1_556
Fe6 O8 1.967661 1_556
Fe6 O2 2.013953 1_555
Fe7 O6 1.919108 1_555
Fe7 O5 1.993917 1_555
Fe7 O9 2.020235 1_555
Fe7 O3 2.119117 1_555
Fe7 O12 2.163172 1_555
F0 Fe7 2.015106 1_555
F0 Fe5 2.147465 1_555
F0 Fe2 2.206200 1_665
F1 Fe0 2.023348 1_646
F1 Fe3 2.111138 1_645
F1 Fe6 2.266136 1_555
