# generated using pymatgen
data_La5Ti6S3(ClO5)3
_symmetry_space_group_name_H-M   'P 1'
_cell_length_a   10.84278247
_cell_length_b   10.84278247
_cell_length_c   12.46148966
_cell_angle_alpha   55.01790794
_cell_angle_beta   55.01790794
_cell_angle_gamma   70.68628494
_symmetry_Int_Tables_number   1
_chemical_formula_structural   La5Ti6S3(ClO5)3
_chemical_formula_sum   'La10 Ti12 S6 Cl6 O30'
_cell_volume   983.48673398
_cell_formula_units_Z   2
loop_
 _symmetry_equiv_pos_site_id
 _symmetry_equiv_pos_as_xyz
  1  'x, y, z'
loop_
 _atom_site_type_symbol
 _atom_site_label
 _atom_site_symmetry_multiplicity
 _atom_site_fract_x
 _atom_site_fract_y
 _atom_site_fract_z
 _atom_site_occupancy
  La  La0  1  0.00538500  0.00538500  0.32667300  1
  La  La1  1  0.99461500  0.99461500  0.67332700  1
  La  La2  1  0.33925700  0.66074300  0.00000000  1
  La  La3  1  0.66074300  0.33925700  0.00000000  1
  La  La4  1  0.65039800  0.65039800  0.34265400  1
  La  La5  1  0.34960200  0.34960200  0.65734600  1
  La  La6  1  0.50000000  0.00000000  0.50000000  1
  La  La7  1  0.00000000  0.50000000  0.00000000  1
  La  La8  1  0.50000000  0.00000000  0.00000000  1
  La  La9  1  0.00000000  0.50000000  0.50000000  1
  Ti  Ti0  1  0.66831100  0.93929600  0.69564300  1
  Ti  Ti1  1  0.93929600  0.66831100  0.69564300  1
  Ti  Ti2  1  0.33168900  0.06070400  0.30435700  1
  Ti  Ti3  1  0.06070400  0.33168900  0.30435700  1
  Ti  Ti4  1  0.65050300  0.65050300  0.04929100  1
  Ti  Ti5  1  0.36812900  0.36812900  0.32828400  1
  Ti  Ti6  1  0.34949700  0.34949700  0.95070900  1
  Ti  Ti7  1  0.63187100  0.63187100  0.67171600  1
  Ti  Ti8  1  0.69727500  0.29962200  0.35523500  1
  Ti  Ti9  1  0.70037800  0.30272500  0.64476500  1
  Ti  Ti10  1  0.30272500  0.70037800  0.64476500  1
  Ti  Ti11  1  0.29962200  0.69727500  0.35523500  1
  S  S0  1  0.79354100  0.20459500  0.18564900  1
  S  S1  1  0.20645900  0.79540500  0.81435100  1
  S  S2  1  0.20459500  0.79354100  0.18564900  1
  S  S3  1  0.79540500  0.20645900  0.81435100  1
  S  S4  1  0.81422800  0.81422800  0.98130400  1
  S  S5  1  0.18577200  0.18577200  0.01869600  1
  Cl  Cl0  1  0.38497300  0.02637200  0.79308500  1
  Cl  Cl1  1  0.61502700  0.97362800  0.20691500  1
  Cl  Cl2  1  0.97362800  0.61502700  0.20691500  1
  Cl  Cl3  1  0.02637200  0.38497300  0.79308500  1
  Cl  Cl4  1  0.82061900  0.82061900  0.38244800  1
  Cl  Cl5  1  0.17938100  0.17938100  0.61755200  1
  O  O0  1  0.69998700  0.07378700  0.50176300  1
  O  O1  1  0.07492100  0.70119600  0.72167700  1
  O  O2  1  0.29880400  0.92507900  0.27832300  1
  O  O3  1  0.92621300  0.30001300  0.49823700  1
  O  O4  1  0.56931300  0.79832500  0.92362600  1
  O  O5  1  0.42677300  0.20214700  0.29674600  1
  O  O6  1  0.20167500  0.43068700  0.07637400  1
  O  O7  1  0.79785300  0.57322700  0.70325400  1
  O  O8  1  0.71966000  0.50201700  0.20507100  1
  O  O9  1  0.49798300  0.28034000  0.79492900  1
  O  O10  1  0.50820500  0.72367600  0.56716000  1
  O  O11  1  0.27632400  0.49179500  0.43284000  1
  O  O12  1  0.30001300  0.92621300  0.49823700  1
  O  O13  1  0.92507900  0.29880400  0.27832300  1
  O  O14  1  0.70119600  0.07492100  0.72167700  1
  O  O15  1  0.07378700  0.69998700  0.50176300  1
  O  O16  1  0.43068700  0.20167500  0.07637400  1
  O  O17  1  0.57322700  0.79785300  0.70325400  1
  O  O18  1  0.79832500  0.56931300  0.92362600  1
  O  O19  1  0.20214700  0.42677300  0.29674600  1
  O  O20  1  0.28034000  0.49798300  0.79492900  1
  O  O21  1  0.50201700  0.71966000  0.20507100  1
  O  O22  1  0.49179500  0.27632400  0.43284000  1
  O  O23  1  0.72367600  0.50820500  0.56716000  1
  O  O24  1  0.87311200  0.87311200  0.62724500  1
  O  O25  1  0.12688800  0.12688800  0.37275500  1
  O  O26  1  0.50050700  0.50050700  0.12929700  1
  O  O27  1  0.49949300  0.49949300  0.87070300  1
  O  O28  1  0.62905100  0.37094900  0.50000000  1
  O  O29  1  0.37094900  0.62905100  0.50000000  1
loop_
_geom_bond_atom_site_label_1
_geom_bond_atom_site_label_2
_geom_bond_distance
_geom_bond_site_symmetry_2
La0 O25 2.585351 1_555
La0 O24 2.680395 1_445
La0 S5 2.774221 1_555
La0 O13 2.795379 1_455
La0 O2 2.795379 1_545
La0 O0 2.867456 1_455
La0 O15 2.867456 1_545
La0 S0 3.166094 1_455
La0 S2 3.166094 1_545
La1 O24 2.585351 1_555
La1 O25 2.680395 1_665
La1 S4 2.774221 1_555
La1 O1 2.795379 1_655
La1 O14 2.795379 1_565
La1 O3 2.867456 1_565
La1 O12 2.867456 1_655
La1 S1 3.166094 1_655
La1 S3 3.166094 1_565
La2 O26 2.585052 1_555
La2 O27 2.585052 1_554
La2 O4 2.732172 1_554
La2 O6 2.732172 1_555
La2 O17 2.784722 1_554
La2 O19 2.784722 1_555
La2 S2 2.848338 1_555
La2 S1 2.848338 1_554
La3 O26 2.585052 1_555
La3 O27 2.585052 1_554
La3 O18 2.732172 1_554
La3 O16 2.732172 1_555
La3 O7 2.784722 1_554
La3 O5 2.784722 1_555
La3 S0 2.848338 1_555
La3 S3 2.848338 1_554
La4 O28 2.492045 1_555
La4 O29 2.492045 1_555
La4 O8 2.641810 1_555
La4 O21 2.641810 1_555
La4 O10 2.761879 1_555
La4 O23 2.761879 1_555
La5 O28 2.492045 1_555
La5 O29 2.492045 1_555
La5 O20 2.641810 1_555
La5 O9 2.641810 1_555
La5 O22 2.761879 1_555
La5 O11 2.761879 1_555
La6 O0 2.562216 1_555
La6 O12 2.562216 1_545
La6 O17 2.576621 1_545
La6 O5 2.576621 1_555
La6 O10 2.592092 1_545
La6 O22 2.592092 1_555
La6 S0 3.287317 1_555
La6 S1 3.287317 1_545
La7 O1 2.591150 1_554
La7 O13 2.591150 1_455
La7 O6 2.594506 1_555
La7 O18 2.594506 1_454
La7 O8 2.623694 1_455
La7 O20 2.623694 1_554
La7 S1 3.306154 1_554
La7 S0 3.306154 1_455
La8 O14 2.591150 1_554
La8 O2 2.591150 1_545
La8 O16 2.594506 1_555
La8 O4 2.594506 1_544
La8 O21 2.623694 1_545
La8 O9 2.623694 1_554
La8 S3 3.306154 1_554
La8 S2 3.306154 1_545
La9 O15 2.562216 1_555
La9 O3 2.562216 1_455
La9 O7 2.576621 1_455
La9 O19 2.576621 1_555
La9 O23 2.592092 1_455
La9 O11 2.592092 1_555
La9 S2 3.287317 1_555
La9 S3 3.287317 1_455
S0 Ti8 2.423466 1_555
S1 Ti10 2.423466 1_555
S2 Ti11 2.423466 1_555
S3 Ti9 2.423466 1_555
S4 Ti4 2.378276 1_556
S5 Ti6 2.378276 1_554
Cl0 Ti0 2.631067 1_545
Cl0 La5 2.889371 1_555
Cl0 La6 3.273358 1_555
Cl0 La2 3.274775 1_546
Cl0 La8 3.300297 1_556
Cl1 Ti2 2.631067 1_565
Cl1 La4 2.889371 1_555
Cl1 La6 3.273358 1_565
Cl1 La3 3.274775 1_565
Cl1 La8 3.300297 1_565
Cl2 Ti3 2.631067 1_655
Cl2 La4 2.889371 1_555
Cl2 La9 3.273358 1_655
Cl2 La2 3.274775 1_655
Cl2 La7 3.300297 1_655
Cl3 Ti1 2.631067 1_455
Cl3 La5 2.889371 1_555
Cl3 La9 3.273358 1_555
Cl3 La3 3.274775 1_456
Cl3 La7 3.300297 1_556
Cl4 Ti7 2.687594 1_555
Cl4 La0 2.823431 1_665
Cl4 La6 3.311990 1_565
Cl4 La9 3.311990 1_655
Cl4 La4 3.378041 1_555
Cl5 Ti5 2.687594 1_555
Cl5 La1 2.823431 1_445
Cl5 La6 3.311990 1_555
Cl5 La9 3.311990 1_555
Cl5 La5 3.378041 1_555
O0 Ti0 1.849775 1_545
O0 Ti8 2.053804 1_555
O1 Ti1 1.849713 1_455
O1 Ti10 2.073755 1_555
O2 Ti2 1.849713 1_565
O2 Ti11 2.073755 1_555
O3 Ti3 1.849775 1_655
O3 Ti9 2.053804 1_555
O4 Ti4 1.888278 1_556
O4 Ti0 2.041845 1_555
O5 Ti5 1.888180 1_555
O5 Ti2 2.047176 1_555
O6 Ti6 1.888278 1_554
O6 Ti3 2.041845 1_555
O7 Ti7 1.888180 1_555
O7 Ti1 2.047176 1_555
O8 Ti8 1.870644 1_555
O8 Ti4 2.051741 1_555
O9 Ti9 1.870644 1_555
O9 Ti6 2.051741 1_555
O10 Ti10 1.893283 1_555
O10 Ti7 2.029692 1_555
O11 Ti11 1.893283 1_555
O11 Ti5 2.029692 1_555
O12 Ti2 1.849775 1_565
O12 Ti10 2.053804 1_555
O13 Ti3 1.849713 1_655
O13 Ti8 2.073755 1_555
O14 Ti0 1.849713 1_545
O14 Ti9 2.073755 1_555
O15 Ti1 1.849775 1_455
O15 Ti11 2.053804 1_555
O16 Ti6 1.888278 1_554
O16 Ti2 2.041845 1_555
O17 Ti7 1.888180 1_555
O17 Ti0 2.047176 1_555
O18 Ti4 1.888278 1_556
O18 Ti1 2.041845 1_555
O19 Ti5 1.888180 1_555
O19 Ti3 2.047176 1_555
O20 Ti10 1.870644 1_555
O20 Ti6 2.051741 1_555
O21 Ti11 1.870644 1_555
O21 Ti4 2.051741 1_555
O22 Ti8 1.893283 1_555
O22 Ti5 2.029692 1_555
O23 Ti9 1.893283 1_555
O23 Ti7 2.029692 1_555
O24 Ti0 1.910382 1_555
O24 Ti1 1.910382 1_555
O25 Ti3 1.910382 1_555
O25 Ti2 1.910382 1_555
O26 Ti5 1.862737 1_555
O26 Ti4 2.077339 1_555
O27 Ti7 1.862737 1_555
O27 Ti6 2.077339 1_555
O28 Ti9 2.022589 1_555
O28 Ti8 2.022589 1_555
O29 Ti10 2.022589 1_555
O29 Ti11 2.022589 1_555
