# generated using pymatgen
data_CsMg6Sn
_symmetry_space_group_name_H-M   'P 1'
_cell_length_a   5.16352700
_cell_length_b   7.89801000
_cell_length_c   11.28101200
_cell_angle_alpha   90.00000000
_cell_angle_beta   90.00000000
_cell_angle_gamma   90.00000000
_symmetry_Int_Tables_number   1
_chemical_formula_structural   CsMg6Sn
_chemical_formula_sum   'Cs2 Mg12 Sn2'
_cell_volume   460.05758227
_cell_formula_units_Z   2
loop_
 _symmetry_equiv_pos_site_id
 _symmetry_equiv_pos_as_xyz
  1  'x, y, z'
loop_
 _atom_site_type_symbol
 _atom_site_label
 _atom_site_symmetry_multiplicity
 _atom_site_fract_x
 _atom_site_fract_y
 _atom_site_fract_z
 _atom_site_occupancy
  Cs  Cs0  1  0.50000000  0.50000000  0.88777800  1
  Cs  Cs1  1  0.50000000  0.00000000  0.38777800  1
  Mg  Mg0  1  0.50000000  0.20350900  0.10951200  1
  Mg  Mg1  1  0.50000000  0.79649100  0.10951200  1
  Mg  Mg2  1  0.00000000  0.19533600  0.90186200  1
  Mg  Mg3  1  0.00000000  0.80466400  0.90186200  1
  Mg  Mg4  1  0.00000000  0.50000000  0.13545800  1
  Mg  Mg5  1  0.00000000  0.50000000  0.65390700  1
  Mg  Mg6  1  0.50000000  0.70350900  0.60951200  1
  Mg  Mg7  1  0.50000000  0.29649100  0.60951200  1
  Mg  Mg8  1  0.00000000  0.69533600  0.40186200  1
  Mg  Mg9  1  0.00000000  0.30466400  0.40186200  1
  Mg  Mg10  1  0.00000000  0.00000000  0.63545800  1
  Mg  Mg11  1  0.00000000  0.00000000  0.15390700  1
  Sn  Sn0  1  0.50000000  0.50000000  0.30011400  1
  Sn  Sn1  1  0.50000000  0.00000000  0.80011400  1
loop_
_geom_bond_atom_site_label_1
_geom_bond_atom_site_label_2
_geom_bond_distance
_geom_bond_site_symmetry_2
Cs0 Mg1 3.426431 1_556
Cs0 Mg0 3.426431 1_556
Cs0 Mg6 3.526691 1_555
Cs0 Mg7 3.526691 1_555
Cs0 Mg3 3.532808 1_655
Cs0 Mg3 3.532808 1_555
Cs0 Mg2 3.532808 1_555
Cs0 Mg2 3.532808 1_655
Cs0 Mg5 3.691360 1_555
Cs0 Mg5 3.691360 1_655
Cs0 Mg4 3.804260 1_556
Cs0 Mg4 3.804260 1_656
Cs1 Mg7 3.426431 1_555
Cs1 Mg6 3.426431 1_545
Cs1 Mg0 3.526691 1_555
Cs1 Mg1 3.526691 1_545
Cs1 Mg9 3.532808 1_555
Cs1 Mg9 3.532808 1_655
Cs1 Mg8 3.532808 1_645
Cs1 Mg8 3.532808 1_545
Cs1 Mg11 3.691360 1_555
Cs1 Mg11 3.691360 1_655
Cs1 Mg10 3.804260 1_555
Cs1 Mg10 3.804260 1_655
Mg0 Mg11 3.082173 1_555
Mg0 Mg11 3.082173 1_655
Mg0 Sn0 3.179119 1_555
Mg0 Mg1 3.214632 1_545
Mg0 Mg2 3.486687 1_654
Mg0 Mg2 3.486687 1_554
Mg0 Mg4 3.497811 1_555
Mg0 Mg4 3.497811 1_655
Mg1 Mg11 3.082173 1_565
Mg1 Mg11 3.082173 1_665
Mg1 Sn0 3.179119 1_555
Mg1 Mg3 3.486687 1_654
Mg1 Mg3 3.486687 1_554
Mg1 Mg4 3.497811 1_555
Mg1 Mg4 3.497811 1_655
Mg2 Mg3 3.085531 1_545
Mg2 Sn1 3.219180 1_555
Mg2 Sn1 3.219180 1_455
Mg2 Mg4 3.568510 1_556
Mg3 Sn1 3.219180 1_565
Mg3 Sn1 3.219180 1_465
Mg3 Mg4 3.568510 1_556
Mg4 Sn0 3.180528 1_455
Mg4 Sn0 3.180528 1_555
Mg4 Mg8 3.378164 1_555
Mg4 Mg9 3.378164 1_555
Mg5 Mg6 3.082173 1_455
Mg5 Mg6 3.082173 1_555
Mg5 Mg7 3.082173 1_455
Mg5 Mg7 3.082173 1_555
Mg5 Mg8 3.234905 1_555
Mg5 Mg9 3.234905 1_555
Mg6 Sn1 3.179119 1_565
Mg6 Mg7 3.214632 1_555
Mg6 Mg8 3.486687 1_555
Mg6 Mg8 3.486687 1_655
Mg7 Sn1 3.179119 1_555
Mg7 Mg9 3.486687 1_555
Mg7 Mg9 3.486687 1_655
Mg8 Mg9 3.085531 1_555
Mg8 Sn0 3.219180 1_555
Mg8 Sn0 3.219180 1_455
Mg9 Sn0 3.219180 1_555
Mg9 Sn0 3.219180 1_455
Mg10 Sn1 3.180528 1_455
Mg10 Sn1 3.180528 1_555
Mg10 Mg2 3.378164 1_555
Mg10 Mg3 3.378164 1_545
Mg10 Mg7 3.497811 1_455
Mg10 Mg7 3.497811 1_555
Mg10 Mg6 3.497811 1_445
Mg10 Mg6 3.497811 1_545
Mg10 Mg9 3.568510 1_555
Mg10 Mg8 3.568510 1_545
Mg11 Mg2 3.234905 1_554
Mg11 Mg3 3.234905 1_544
