# generated using pymatgen
data_Nd3(Si3Pd10)2
_symmetry_space_group_name_H-M   'P 1'
_cell_length_a   8.70971706
_cell_length_b   8.70972825
_cell_length_c   8.70972327
_cell_angle_alpha   59.99998867
_cell_angle_beta   59.99999119
_cell_angle_gamma   59.99989231
_symmetry_Int_Tables_number   1
_chemical_formula_structural   Nd3(Si3Pd10)2
_chemical_formula_sum   'Nd3 Si6 Pd20'
_cell_volume   467.19435935
_cell_formula_units_Z   1
loop_
 _symmetry_equiv_pos_site_id
 _symmetry_equiv_pos_as_xyz
  1  'x, y, z'
loop_
 _atom_site_type_symbol
 _atom_site_label
 _atom_site_symmetry_multiplicity
 _atom_site_fract_x
 _atom_site_fract_y
 _atom_site_fract_z
 _atom_site_occupancy
  Nd  Nd0  1  0.25002459  0.24996499  0.24999020  1
  Nd  Nd1  1  0.74997584  0.75003471  0.75001077  1
  Nd  Nd2  1  0.00000048  -0.00000037  0.99999889  1
  Si  Si0  1  0.73300020  0.26699292  0.26700342  1
  Si  Si1  1  0.26699942  0.73300781  0.73299607  1
  Si  Si2  1  0.26700556  0.73301369  0.26699057  1
  Si  Si3  1  0.73299388  0.26698597  0.73301033  1
  Si  Si4  1  0.26701177  0.26698494  0.73300758  1
  Si  Si5  1  0.73298856  0.73301460  0.26699164  1
  Pd  Pd0  1  0.34714951  -0.00000259  -0.00000084  1
  Pd  Pd1  1  0.65285093  0.00000159  0.00000126  1
  Pd  Pd2  1  0.00000691  0.34709663  0.65288919  1
  Pd  Pd3  1  -0.00000437  0.65290076  0.34711048  1
  Pd  Pd4  1  0.00001359  0.34710460  0.00001108  1
  Pd  Pd5  1  0.65286048  0.00000587  0.34712377  1
  Pd  Pd6  1  -0.00001191  0.65289505  -0.00001106  1
  Pd  Pd7  1  0.34713867  -0.00000642  0.65287527  1
  Pd  Pd8  1  0.00000611  0.00000536  0.34712422  1
  Pd  Pd9  1  -0.00000635  -0.00000323  0.65287571  1
  Pd  Pd10  1  0.65286698  0.34710741  0.00001168  1
  Pd  Pd11  1  0.34713310  0.65289419  -0.00001279  1
  Pd  Pd12  1  0.38542615  0.38538370  0.38540225  1
  Pd  Pd13  1  0.61457203  0.61461672  0.61459883  1
  Pd  Pd14  1  0.38541933  0.38537032  0.84379827  1
  Pd  Pd15  1  0.38540569  0.84381173  0.38537963  1
  Pd  Pd16  1  0.61458037  0.61462971  0.15620246  1
  Pd  Pd17  1  0.61459295  0.15618866  0.61462129  1
  Pd  Pd18  1  0.84378097  0.38538610  0.38540762  1
  Pd  Pd19  1  0.15621955  0.61461361  0.61459221  1
loop_
_geom_bond_atom_site_label_1
_geom_bond_atom_site_label_2
_geom_bond_distance
_geom_bond_site_symmetry_2
Nd0 Pd15 2.888341 1_545
Nd0 Pd14 2.888618 1_554
Nd0 Pd12 2.888905 1_555
Nd0 Pd18 2.888980 1_455
Nd0 Pd1 3.354532 1_555
Nd0 Pd0 3.354587 1_555
Nd0 Pd5 3.354631 1_555
Nd0 Pd8 3.354701 1_555
Nd0 Pd10 3.354719 1_555
Nd0 Pd4 3.354766 1_555
Nd0 Pd7 3.354922 1_555
Nd0 Pd9 3.354926 1_555
Nd0 Pd2 3.355094 1_555
Nd0 Pd6 3.355227 1_555
Nd0 Pd11 3.355230 1_555
Nd0 Pd3 3.355320 1_555
Nd1 Pd17 2.888346 1_565
Nd1 Pd16 2.888616 1_556
Nd1 Pd13 2.888915 1_555
Nd1 Pd19 2.888981 1_655
Nd1 Pd0 3.354527 1_566
Nd1 Pd1 3.354578 1_566
Nd1 Pd7 3.354648 1_565
Nd1 Pd9 3.354710 1_665
Nd1 Pd11 3.354714 1_556
Nd1 Pd6 3.354768 1_656
Nd1 Pd8 3.354937 1_665
Nd1 Pd5 3.354941 1_565
Nd1 Pd3 3.355113 1_655
Nd1 Pd10 3.355217 1_556
Nd1 Pd4 3.355228 1_656
Nd1 Pd2 3.355342 1_655
Nd2 Pd2 3.023174 1_555
Nd2 Pd3 3.023191 1_546
Nd2 Pd6 3.023284 1_546
Nd2 Pd4 3.023300 1_556
Nd2 Pd11 3.023306 1_546
Nd2 Pd10 3.023320 1_456
Nd2 Pd9 3.023389 1_555
Nd2 Pd7 3.023413 1_555
Nd2 Pd8 3.023415 1_556
Nd2 Pd5 3.023426 1_456
Nd2 Pd1 3.023556 1_456
Nd2 Pd0 3.023561 1_556
Pd0 Si2 2.427887 1_545
Pd0 Si4 2.427901 1_554
Pd1 Si3 2.427887 1_554
Pd1 Si5 2.427892 1_545
Pd2 Si4 2.427993 1_555
Pd2 Si3 2.427994 1_455
Pd3 Si2 2.427984 1_555
Pd3 Si5 2.428007 1_455
Pd4 Si4 2.427950 1_554
Pd4 Si0 2.427968 1_455
Pd5 Si5 2.427909 1_545
Pd5 Si0 2.427939 1_555
Pd6 Si5 2.427950 1_455
Pd6 Si1 2.427962 1_554
Pd7 Si4 2.427914 1_555
Pd7 Si1 2.427925 1_545
Pd8 Si2 2.427923 1_545
Pd8 Si0 2.427933 1_455
Pd9 Si3 2.427913 1_455
Pd9 Si1 2.427935 1_545
Pd10 Si3 2.427938 1_554
Pd10 Si0 2.427957 1_555
Pd11 Si2 2.427943 1_555
Pd11 Si1 2.427957 1_554
Pd12 Si0 2.472051 1_555
Pd12 Si4 2.472278 1_555
Pd12 Si2 2.472453 1_555
Pd13 Si1 2.472041 1_555
Pd13 Si5 2.472291 1_555
Pd13 Si3 2.472458 1_555
Pd14 Si3 2.472054 1_555
Pd14 Si4 2.472123 1_555
Pd14 Si1 2.472506 1_555
Pd15 Si5 2.472113 1_555
Pd15 Si2 2.472148 1_555
Pd15 Si1 2.472356 1_555
Pd16 Si2 2.472056 1_555
Pd16 Si5 2.472114 1_555
Pd16 Si0 2.472501 1_555
Pd17 Si4 2.472101 1_555
Pd17 Si3 2.472149 1_555
Pd17 Si0 2.472366 1_555
Pd18 Si0 2.472085 1_555
Pd18 Si3 2.472260 1_555
Pd18 Si5 2.472443 1_555
Pd19 Si1 2.472084 1_555
Pd19 Si2 2.472252 1_555
Pd19 Si4 2.472444 1_555
