# generated using pymatgen
data_NbNOF4
_symmetry_space_group_name_H-M   'P 1'
_cell_length_a   8.55951100
_cell_length_b   8.55951100
_cell_length_c   4.09196200
_cell_angle_alpha   90.00000000
_cell_angle_beta   90.00000000
_cell_angle_gamma   90.00000000
_symmetry_Int_Tables_number   1
_chemical_formula_structural   NbNOF4
_chemical_formula_sum   'Nb2 N2 O2 F8'
_cell_volume   299.79853119
_cell_formula_units_Z   2
loop_
 _symmetry_equiv_pos_site_id
 _symmetry_equiv_pos_as_xyz
  1  'x, y, z'
loop_
 _atom_site_type_symbol
 _atom_site_label
 _atom_site_symmetry_multiplicity
 _atom_site_fract_x
 _atom_site_fract_y
 _atom_site_fract_z
 _atom_site_occupancy
  Nb  Nb0  1  0.00000000  0.50000000  0.96004200  1
  Nb  Nb1  1  0.50000000  0.00000000  0.03995800  1
  N  N0  1  0.00000000  0.00000000  0.50000000  1
  N  N1  1  0.50000000  0.50000000  0.50000000  1
  O  O0  1  0.00000000  0.50000000  0.49643400  1
  O  O1  1  0.50000000  0.00000000  0.50356600  1
  F  F0  1  0.77603400  0.50000000  0.01918000  1
  F  F1  1  0.22396600  0.50000000  0.01918000  1
  F  F2  1  0.00000000  0.27603400  0.01918000  1
  F  F3  1  0.00000000  0.72396600  0.01918000  1
  F  F4  1  0.72396600  0.00000000  0.98082000  1
  F  F5  1  0.27603400  0.00000000  0.98082000  1
  F  F6  1  0.50000000  0.22396600  0.98082000  1
  F  F7  1  0.50000000  0.77603400  0.98082000  1
loop_
_geom_bond_atom_site_label_1
_geom_bond_atom_site_label_2
_geom_bond_distance
_geom_bond_site_symmetry_2
Nb0 O0 1.897066 1_555
Nb0 O0 2.194896 1_556
Nb1 O1 1.897066 1_555
Nb1 O1 2.194896 1_554
F0 Nb0 1.932252 1_654
F1 Nb0 1.932252 1_554
F2 Nb0 1.932252 1_554
F3 Nb0 1.932252 1_554
F4 Nb1 1.932252 1_556
F5 Nb1 1.932252 1_556
F6 Nb1 1.932252 1_556
F7 Nb1 1.932252 1_566
