# generated using pymatgen
data_C
_symmetry_space_group_name_H-M   'P 1'
_cell_length_a   5.18360963
_cell_length_b   5.18360963
_cell_length_c   5.18360963
_cell_angle_alpha   90.00000000
_cell_angle_beta   90.00000000
_cell_angle_gamma   90.00000000
_symmetry_Int_Tables_number   1
_chemical_formula_structural   C
_chemical_formula_sum   C20
_cell_volume   139.28259963
_cell_formula_units_Z   20
loop_
 _symmetry_equiv_pos_site_id
 _symmetry_equiv_pos_as_xyz
  1  'x, y, z'
loop_
 _atom_site_type_symbol
 _atom_site_label
 _atom_site_symmetry_multiplicity
 _atom_site_fract_x
 _atom_site_fract_y
 _atom_site_fract_z
 _atom_site_occupancy
  C  C0  1  0.50000000  0.15141503  0.84858497  1
  C  C1  1  0.15141503  0.15141503  0.50000000  1
  C  C2  1  0.15141503  0.50000000  0.84858497  1
  C  C3  1  0.50000000  0.84858497  0.15141503  1
  C  C4  1  0.15141503  0.84858497  0.50000000  1
  C  C5  1  0.15141503  0.50000000  0.15141503  1
  C  C6  1  0.50000000  0.15141503  0.15141503  1
  C  C7  1  0.84858497  0.15141503  0.50000000  1
  C  C8  1  0.84858497  0.50000000  0.15141503  1
  C  C9  1  0.50000000  0.84858497  0.84858497  1
  C  C10  1  0.84858497  0.84858497  0.50000000  1
  C  C11  1  0.84858497  0.50000000  0.84858497  1
  C  C12  1  0.26159424  0.26159424  0.73840576  1
  C  C13  1  0.26159424  0.73840576  0.26159424  1
  C  C14  1  0.73840576  0.26159424  0.26159424  1
  C  C15  1  0.73840576  0.73840576  0.73840576  1
  C  C16  1  0.73840576  0.73840576  0.26159424  1
  C  C17  1  0.73840576  0.26159424  0.73840576  1
  C  C18  1  0.26159424  0.73840576  0.73840576  1
  C  C19  1  0.26159424  0.26159424  0.26159424  1
loop_
_geom_bond_atom_site_label_1
_geom_bond_atom_site_label_2
_geom_bond_distance
_geom_bond_site_symmetry_2
C0 C12 1.476339 1_555
C0 C17 1.476339 1_555
C0 C6 1.569753 1_556
C0 C9 1.569753 1_545
C1 C12 1.476339 1_555
C1 C19 1.476339 1_555
C1 C4 1.569753 1_545
C1 C7 1.569753 1_455
C2 C5 1.569753 1_556
C3 C6 1.569753 1_565
C3 C9 1.569753 1_554
C5 C8 1.569753 1_455
C10 C16 1.476339 1_555
C10 C15 1.476339 1_555
C10 C4 1.569753 1_655
C10 C7 1.569753 1_565
C11 C15 1.476339 1_555
C11 C17 1.476339 1_555
C11 C2 1.569753 1_655
C11 C8 1.569753 1_556
C12 C2 1.476339 1_555
C13 C4 1.476339 1_555
C13 C5 1.476339 1_555
C13 C3 1.476339 1_555
C14 C7 1.476339 1_555
C14 C6 1.476339 1_555
C14 C8 1.476339 1_555
C15 C9 1.476339 1_555
C16 C8 1.476339 1_555
C16 C3 1.476339 1_555
C17 C7 1.476339 1_555
C18 C4 1.476339 1_555
C18 C9 1.476339 1_555
C18 C2 1.476339 1_555
C19 C5 1.476339 1_555
C19 C6 1.476339 1_555
