# generated using pymatgen
data_K4P2O7
_symmetry_space_group_name_H-M   'P 1'
_cell_length_a   5.90412400
_cell_length_b   5.90411282
_cell_length_c   14.85995474
_cell_angle_alpha   90.00011730
_cell_angle_beta   89.99989162
_cell_angle_gamma   119.99980435
_symmetry_Int_Tables_number   1
_chemical_formula_structural   K4P2O7
_chemical_formula_sum   'K8 P4 O14'
_cell_volume   448.59981730
_cell_formula_units_Z   2
loop_
 _symmetry_equiv_pos_site_id
 _symmetry_equiv_pos_as_xyz
  1  'x, y, z'
loop_
 _atom_site_type_symbol
 _atom_site_label
 _atom_site_symmetry_multiplicity
 _atom_site_fract_x
 _atom_site_fract_y
 _atom_site_fract_z
 _atom_site_occupancy
  K  K0  1  0.33333854  0.66666296  0.92034504  1
  K  K1  1  0.66666369  0.33334237  0.07965432  1
  K  K2  1  0.66667007  0.33333729  0.42037344  1
  K  K3  1  0.33332717  0.66666441  0.57962007  1
  K  K4  1  0.00000075  -0.00000161  0.25000292  1
  K  K5  1  -0.00000271  0.00000153  0.74999832  1
  K  K6  1  -0.00000060  0.00000116  -0.00000011  1
  K  K7  1  -0.00000121  0.00000127  0.50000266  1
  P  P0  1  0.33332746  0.66667148  0.14231384  1
  P  P1  1  0.66667213  0.33332832  0.85768769  1
  P  P2  1  0.66667187  0.33332846  0.64231460  1
  P  P3  1  0.33332804  0.66667178  0.35768530  1
  O  O0  1  0.19082949  0.80916876  0.11392118  1
  O  O1  1  0.19082401  0.38162952  0.11391886  1
  O  O2  1  0.61836922  0.80917671  0.11391856  1
  O  O3  1  0.80916954  0.19082962  0.88607805  1
  O  O4  1  0.80917631  0.61836692  0.88608143  1
  O  O5  1  0.38163255  0.19082347  0.88608128  1
  O  O6  1  0.80916853  0.19083079  0.61392098  1
  O  O7  1  0.80917480  0.61836543  0.61391724  1
  O  O8  1  0.38163360  0.19082437  0.61391753  1
  O  O9  1  0.19083125  0.80916911  0.38608206  1
  O  O10  1  0.19082629  0.38163104  0.38608372  1
  O  O11  1  0.61836939  0.80917395  0.38608349  1
  O  O12  1  0.33333891  0.66666111  0.24999794  1
  O  O13  1  0.66665992  0.33333975  0.74999759  1
loop_
_geom_bond_atom_site_label_1
_geom_bond_atom_site_label_2
_geom_bond_distance
_geom_bond_site_symmetry_2
K0 O5 3.005724 1_555
K0 O4 3.005725 1_555
K0 O3 3.005833 1_565
K0 O3 3.005848 1_455
K0 O5 3.005883 1_565
K0 O4 3.005894 1_455
K0 O0 3.224621 1_556
K0 O2 3.224630 1_556
K0 O1 3.224639 1_556
K1 O2 3.005696 1_555
K1 O1 3.005709 1_555
K1 O0 3.005820 1_655
K1 O0 3.005864 1_545
K1 O1 3.005907 1_655
K1 O2 3.005913 1_545
K1 O4 3.224606 1_554
K1 O5 3.224625 1_554
K1 O3 3.224632 1_554
K2 O11 3.005797 1_555
K2 O10 3.005820 1_555
K2 O9 3.005879 1_655
K2 O9 3.005919 1_545
K2 O10 3.005929 1_655
K2 O11 3.005947 1_545
K2 O6 3.224225 1_555
K2 O7 3.224226 1_555
K2 O8 3.224250 1_555
K3 O8 3.005855 1_555
K3 O7 3.005878 1_555
K3 O6 3.005899 1_455
K3 O7 3.005912 1_455
K3 O8 3.005932 1_565
K3 O6 3.005943 1_565
K3 O9 3.224089 1_555
K3 O10 3.224139 1_555
K3 O11 3.224164 1_555
K4 O11 2.810121 1_445
K4 O10 2.810125 1_555
K4 O1 2.810158 1_555
K4 O2 2.810165 1_445
K4 O9 2.810206 1_545
K4 O0 2.810223 1_545
K5 O7 2.810141 1_445
K5 O8 2.810141 1_555
K5 O4 2.810161 1_445
K5 O5 2.810163 1_555
K5 O6 2.810181 1_455
K5 O3 2.810192 1_455
K6 O1 2.583271 1_555
K6 O2 2.583278 1_445
K6 O4 2.583288 1_444
K6 O5 2.583289 1_554
K6 O3 2.583416 1_454
K6 O0 2.583427 1_545
K7 O7 2.583260 1_445
K7 O8 2.583261 1_555
K7 O10 2.583279 1_555
K7 O11 2.583282 1_445
K7 O6 2.583381 1_455
K7 O9 2.583422 1_545
O0 P0 1.517064 1_555
O1 P0 1.517304 1_555
O2 P0 1.517307 1_555
O3 P1 1.517058 1_555
O4 P1 1.517282 1_555
O5 P1 1.517289 1_555
O6 P2 1.517061 1_555
O7 P2 1.517290 1_555
O8 P2 1.517298 1_555
O9 P3 1.517073 1_555
O10 P3 1.517313 1_555
O11 P3 1.517318 1_555
O12 P0 1.600181 1_555
O12 P3 1.600229 1_555
O13 P2 1.600164 1_555
O13 P1 1.600270 1_555
