# generated using pymatgen
data_Mg2Nb2VO8
_symmetry_space_group_name_H-M   'P 1'
_cell_length_a   10.09446643
_cell_length_b   10.09446643
_cell_length_c   5.23439874
_cell_angle_alpha   89.52124993
_cell_angle_beta   89.52124993
_cell_angle_gamma   34.86170841
_symmetry_Int_Tables_number   1
_chemical_formula_structural   Mg2Nb2VO8
_chemical_formula_sum   'Mg4 Nb4 V2 O16'
_cell_volume   304.86481207
_cell_formula_units_Z   2
loop_
 _symmetry_equiv_pos_site_id
 _symmetry_equiv_pos_as_xyz
  1  'x, y, z'
loop_
 _atom_site_type_symbol
 _atom_site_label
 _atom_site_symmetry_multiplicity
 _atom_site_fract_x
 _atom_site_fract_y
 _atom_site_fract_z
 _atom_site_occupancy
  Mg  Mg0  1  0.58533000  0.87066300  0.74666400  1
  Mg  Mg1  1  0.12933700  0.41467000  0.75333600  1
  Mg  Mg2  1  0.41467000  0.12933700  0.25333600  1
  Mg  Mg3  1  0.87066300  0.58533000  0.24666400  1
  Nb  Nb0  1  0.71569500  0.05079600  0.75478000  1
  Nb  Nb1  1  0.94920400  0.28430500  0.74522000  1
  Nb  Nb2  1  0.28430500  0.94920400  0.24522000  1
  Nb  Nb3  1  0.05079600  0.71569500  0.25478000  1
  V  V0  1  0.35101800  0.64898200  0.75000000  1
  V  V1  1  0.64898200  0.35101800  0.25000000  1
  O  O0  1  0.81626400  0.03974600  0.41856500  1
  O  O1  1  0.96025400  0.18373600  0.08143500  1
  O  O2  1  0.18373600  0.96025400  0.58143500  1
  O  O3  1  0.03974600  0.81626400  0.91856500  1
  O  O4  1  0.56689600  0.31501400  0.90633000  1
  O  O5  1  0.68498600  0.43310400  0.59367000  1
  O  O6  1  0.43310400  0.68498600  0.09367000  1
  O  O7  1  0.31501400  0.56689600  0.40633000  1
  O  O8  1  0.70711600  0.91742800  0.04208600  1
  O  O9  1  0.08257200  0.29288400  0.45791400  1
  O  O10  1  0.16248600  0.45407400  0.11572200  1
  O  O11  1  0.54592600  0.83751400  0.38427800  1
  O  O12  1  0.83751400  0.54592600  0.88427800  1
  O  O13  1  0.45407400  0.16248600  0.61572200  1
  O  O14  1  0.91742800  0.70711600  0.54208600  1
  O  O15  1  0.29288400  0.08257200  0.95791400  1
loop_
_geom_bond_atom_site_label_1
_geom_bond_atom_site_label_2
_geom_bond_distance
_geom_bond_site_symmetry_2
Mg0 O12 2.010387 1_555
Mg0 O11 2.027302 1_555
Mg0 O15 2.033525 1_565
Mg0 O13 2.116427 1_565
Mg0 O8 2.263129 1_556
Mg0 O14 2.449005 1_555
Mg1 O13 2.010387 1_555
Mg1 O10 2.027302 1_556
Mg1 O14 2.033525 1_455
Mg1 O12 2.116427 1_455
Mg1 O9 2.263129 1_555
Mg1 O15 2.449005 1_555
Mg2 O10 2.010387 1_555
Mg2 O13 2.027302 1_555
Mg2 O8 2.033525 1_545
Mg2 O11 2.116427 1_545
Mg2 O15 2.263129 1_554
Mg2 O9 2.449005 1_555
Mg3 O11 2.010387 1_555
Mg3 O12 2.027302 1_554
Mg3 O9 2.033525 1_655
Mg3 O10 2.116427 1_655
Mg3 O14 2.263129 1_555
Mg3 O8 2.449005 1_555
Nb0 O4 1.854754 1_555
Nb0 O13 1.976753 1_555
Nb0 O0 1.981877 1_555
Nb0 O8 2.058379 1_546
Nb0 O3 2.084272 1_645
Nb0 O14 2.419724 1_545
Nb1 O5 1.854754 1_555
Nb1 O12 1.976753 1_555
Nb1 O1 1.981877 1_556
Nb1 O9 2.058379 1_655
Nb1 O2 2.084272 1_645
Nb1 O15 2.419724 1_655
Nb2 O6 1.854754 1_555
Nb2 O11 1.976753 1_555
Nb2 O2 1.981877 1_555
Nb2 O15 2.058379 1_564
Nb2 O1 2.084272 1_465
Nb2 O9 2.419724 1_565
Nb3 O7 1.854754 1_555
Nb3 O10 1.976753 1_555
Nb3 O3 1.981877 1_554
Nb3 O14 2.058379 1_455
Nb3 O0 2.084272 1_465
Nb3 O8 2.419724 1_455
O0 V1 2.184994 1_555
O1 V1 2.184994 1_555
O2 V0 2.184994 1_555
O3 V0 2.184994 1_555
O4 V1 2.141215 1_556
O4 V0 2.170527 1_555
O5 V1 2.141215 1_555
O5 V0 2.170527 1_555
O6 V0 2.141215 1_554
O6 V1 2.170527 1_555
O7 V0 2.141215 1_555
O7 V1 2.170527 1_555
