# generated using pymatgen
data_Rb3Bi2I9
_symmetry_space_group_name_H-M   'P 1'
_cell_length_a   8.43107264
_cell_length_b   8.43107264
_cell_length_c   21.67418346
_cell_angle_alpha   86.90245506
_cell_angle_beta   86.90245506
_cell_angle_gamma   120.19688570
_symmetry_Int_Tables_number   1
_chemical_formula_structural   Rb3Bi2I9
_chemical_formula_sum   'Rb6 Bi4 I18'
_cell_volume   1323.75475675
_cell_formula_units_Z   2
loop_
 _symmetry_equiv_pos_site_id
 _symmetry_equiv_pos_as_xyz
  1  'x, y, z'
loop_
 _atom_site_type_symbol
 _atom_site_label
 _atom_site_symmetry_multiplicity
 _atom_site_fract_x
 _atom_site_fract_y
 _atom_site_fract_z
 _atom_site_occupancy
  Rb  Rb0  1  0.97170188  0.02829812  0.75000000  1
  Rb  Rb1  1  0.67767680  0.31911402  0.07055826  1
  Rb  Rb2  1  0.02829812  0.97170188  0.25000000  1
  Rb  Rb3  1  0.31911402  0.67767680  0.57055826  1
  Rb  Rb4  1  0.32232320  0.68088598  0.92944174  1
  Rb  Rb5  1  0.68088598  0.32232320  0.42944174  1
  Bi  Bi0  1  0.63216689  0.30389671  0.65656070  1
  Bi  Bi1  1  0.36783311  0.69610329  0.34343930  1
  Bi  Bi2  1  0.30389671  0.63216689  0.15656070  1
  Bi  Bi3  1  0.69610329  0.36783311  0.84343930  1
  I  I0  1  0.61507078  0.77683980  0.05916200  1
  I  I1  1  0.38492922  0.22316020  0.94083800  1
  I  I2  1  0.49139057  0.99402496  0.77635003  1
  I  I3  1  0.21812406  0.89512455  0.41310480  1
  I  I4  1  0.89512455  0.21812406  0.91310480  1
  I  I5  1  0.77683980  0.61507078  0.55916200  1
  I  I6  1  0.78187594  0.10487545  0.58689520  1
  I  I7  1  0.26872767  0.09751339  0.60397663  1
  I  I8  1  0.50860943  0.00597504  0.22364997  1
  I  I9  1  0.00597504  0.50860943  0.72364997  1
  I  I10  1  0.10487545  0.78187594  0.08689520  1
  I  I11  1  0.99402496  0.49139057  0.27635003  1
  I  I12  1  0.49396424  0.50603576  0.75000000  1
  I  I13  1  0.90248661  0.73127233  0.89602337  1
  I  I14  1  0.09751339  0.26872767  0.10397663  1
  I  I15  1  0.73127233  0.90248661  0.39602337  1
  I  I16  1  0.50603576  0.49396424  0.25000000  1
  I  I17  1  0.22316020  0.38492922  0.44083800  1
loop_
_geom_bond_atom_site_label_1
_geom_bond_atom_site_label_2
_geom_bond_distance
_geom_bond_site_symmetry_2
Bi0 I5 2.954875 1_555
Bi0 I6 2.981112 1_555
Bi0 I7 2.990676 1_555
Bi0 I9 3.212565 1_655
Bi0 I12 3.237166 1_555
Bi0 I2 3.284776 1_545
Bi1 I17 2.954875 1_555
Bi1 I3 2.981112 1_555
Bi1 I15 2.990676 1_555
Bi1 I11 3.212565 1_455
Bi1 I16 3.237166 1_555
Bi1 I8 3.284776 1_565
Bi2 I0 2.954875 1_555
Bi2 I10 2.981112 1_555
Bi2 I14 2.990676 1_555
Bi2 I8 3.212565 1_565
Bi2 I16 3.237166 1_555
Bi2 I11 3.284776 1_455
Bi3 I1 2.954875 1_555
Bi3 I4 2.981112 1_555
Bi3 I13 2.990676 1_555
Bi3 I2 3.212565 1_545
Bi3 I12 3.237166 1_555
Bi3 I9 3.284776 1_655
I0 Rb4 3.693036 1_554
I0 Rb1 4.146395 1_555
I1 Rb1 3.693036 1_556
I1 Rb4 4.146395 1_555
I2 Rb4 3.842976 1_555
I2 Rb0 3.919637 1_565
I3 Rb5 3.804122 1_565
I3 Rb2 4.108507 1_555
I3 Rb3 4.115886 1_555
I4 Rb4 3.804122 1_655
I4 Rb0 4.108507 1_555
I4 Rb1 4.115886 1_556
I5 Rb5 3.693036 1_555
I5 Rb3 4.146395 1_555
I6 Rb3 3.804122 1_545
I6 Rb0 4.108507 1_555
I6 Rb5 4.115886 1_555
I7 Rb0 3.755316 1_455
I7 Rb3 3.871801 1_545
I8 Rb1 3.842976 1_555
I8 Rb2 3.919637 1_545
I9 Rb3 3.842976 1_555
I9 Rb0 3.919637 1_455
I10 Rb1 3.804122 1_455
I10 Rb2 4.108507 1_555
I10 Rb4 4.115886 1_554
I11 Rb5 3.842976 1_555
I11 Rb2 3.919637 1_655
I12 Rb0 4.215564 1_565
I12 Rb0 4.215564 1_455
I13 Rb0 3.755316 1_565
I13 Rb4 3.871801 1_655
I14 Rb2 3.755316 1_545
I14 Rb1 3.871801 1_455
I15 Rb2 3.755316 1_655
I15 Rb5 3.871801 1_565
I16 Rb2 4.215564 1_545
I16 Rb2 4.215564 1_655
I17 Rb3 3.693036 1_555
I17 Rb5 4.146395 1_555
