# generated using pymatgen
data_Ba3W2O9
_symmetry_space_group_name_H-M   'P 1'
_cell_length_a   7.51972269
_cell_length_b   7.51972269
_cell_length_c   7.51972244
_cell_angle_alpha   85.47623249
_cell_angle_beta   85.47623249
_cell_angle_gamma   85.47623606
_symmetry_Int_Tables_number   1
_chemical_formula_structural   Ba3W2O9
_chemical_formula_sum   'Ba6 W4 O18'
_cell_volume   421.43602350
_cell_formula_units_Z   2
loop_
 _symmetry_equiv_pos_site_id
 _symmetry_equiv_pos_as_xyz
  1  'x, y, z'
loop_
 _atom_site_type_symbol
 _atom_site_label
 _atom_site_symmetry_multiplicity
 _atom_site_fract_x
 _atom_site_fract_y
 _atom_site_fract_z
 _atom_site_occupancy
  Ba  Ba0  1  0.58013420  0.91986580  0.25000000  1
  Ba  Ba1  1  0.91986580  0.25000000  0.58013420  1
  Ba  Ba2  1  0.25000000  0.58013420  0.91986580  1
  Ba  Ba3  1  0.41986580  0.08013420  0.75000000  1
  Ba  Ba4  1  0.75000000  0.41986580  0.08013420  1
  Ba  Ba5  1  0.08013420  0.75000000  0.41986580  1
  W  W0  1  0.14494225  0.14494225  0.14494225  1
  W  W1  1  0.35505775  0.35505775  0.35505775  1
  W  W2  1  0.85505775  0.85505775  0.85505775  1
  W  W3  1  0.64494225  0.64494225  0.64494225  1
  O  O0  1  0.25125237  0.92896993  0.08735185  1
  O  O1  1  0.08735185  0.25125237  0.92896993  1
  O  O2  1  0.92896993  0.08735185  0.25125237  1
  O  O3  1  0.24874763  0.41264815  0.57103007  1
  O  O4  1  0.57103007  0.24874763  0.41264815  1
  O  O5  1  0.41264815  0.57103007  0.24874763  1
  O  O6  1  0.74874763  0.07103007  0.91264815  1
  O  O7  1  0.91264815  0.74874763  0.07103007  1
  O  O8  1  0.07103007  0.91264815  0.74874763  1
  O  O9  1  0.75125237  0.58735185  0.42896993  1
  O  O10  1  0.10510060  0.39489940  0.25000000  1
  O  O11  1  0.39489940  0.25000000  0.10510060  1
  O  O12  1  0.25000000  0.10510060  0.39489940  1
  O  O13  1  0.89489940  0.60510060  0.75000000  1
  O  O14  1  0.60510060  0.75000000  0.89489940  1
  O  O15  1  0.75000000  0.89489940  0.60510060  1
  O  O16  1  0.58735185  0.42896993  0.75125237  1
  O  O17  1  0.42896993  0.75125237  0.58735185  1
loop_
_geom_bond_atom_site_label_1
_geom_bond_atom_site_label_2
_geom_bond_distance
_geom_bond_site_symmetry_2
Ba0 O0 2.837963 1_555
Ba0 O4 2.837963 1_565
Ba0 O11 2.925335 1_565
Ba0 O12 2.925335 1_565
Ba0 O6 2.932604 1_564
Ba0 O17 2.932604 1_555
Ba0 O9 2.992294 1_555
Ba0 O7 2.992294 1_555
Ba0 O2 2.999020 1_565
Ba0 O5 2.999020 1_555
Ba0 O14 3.036160 1_554
Ba0 O15 3.036160 1_555
Ba1 O2 2.837963 1_555
Ba1 O3 2.837963 1_655
Ba1 O10 2.925335 1_655
Ba1 O12 2.925335 1_655
Ba1 O8 2.932604 1_645
Ba1 O9 2.932604 1_555
Ba1 O6 2.992293 1_555
Ba1 O16 2.992294 1_555
Ba1 O1 2.999020 1_655
Ba1 O4 2.999020 1_555
Ba1 O15 3.036160 1_545
Ba1 O13 3.036160 1_555
Ba2 O5 2.837963 1_556
Ba2 O1 2.837963 1_555
Ba2 O10 2.925335 1_556
Ba2 O11 2.925335 1_556
Ba2 O16 2.932604 1_555
Ba2 O7 2.932604 1_456
Ba2 O17 2.992293 1_555
Ba2 O8 2.992294 1_555
Ba2 O3 2.999020 1_555
Ba2 O0 2.999020 1_556
Ba2 O14 3.036160 1_555
Ba2 O13 3.036160 1_455
Ba3 O6 2.837963 1_555
Ba3 O17 2.837963 1_545
Ba3 O14 2.925335 1_545
Ba3 O15 2.925335 1_545
Ba3 O0 2.932604 1_546
Ba3 O4 2.932604 1_555
Ba3 O3 2.992294 1_555
Ba3 O1 2.992294 1_555
Ba3 O16 2.999020 1_555
Ba3 O8 2.999020 1_545
Ba3 O12 3.036160 1_555
Ba3 O11 3.036160 1_556
Ba4 O16 2.837963 1_554
Ba4 O7 2.837963 1_555
Ba4 O13 2.925335 1_554
Ba4 O14 2.925335 1_554
Ba4 O5 2.932604 1_555
Ba4 O1 2.932604 1_654
Ba4 O4 2.992293 1_555
Ba4 O2 2.992294 1_555
Ba4 O9 2.999020 1_555
Ba4 O6 2.999020 1_554
Ba4 O11 3.036160 1_555
Ba4 O10 3.036160 1_655
Ba5 O8 2.837963 1_555
Ba5 O9 2.837963 1_455
Ba5 O13 2.925335 1_455
Ba5 O15 2.925335 1_455
Ba5 O2 2.932604 1_465
Ba5 O3 2.932604 1_555
Ba5 O0 2.992293 1_555
Ba5 O5 2.992294 1_555
Ba5 O7 2.999020 1_455
Ba5 O17 2.999020 1_555
Ba5 O12 3.036160 1_565
Ba5 O10 3.036160 1_555
O0 W0 1.820906 1_565
O1 W0 1.820906 1_556
O2 W0 1.820906 1_655
O3 W1 1.820906 1_555
O4 W1 1.820906 1_555
O5 W1 1.820906 1_555
O6 W2 1.820906 1_545
O7 W2 1.820906 1_554
O8 W2 1.820906 1_455
O9 W3 1.820906 1_555
O10 W1 2.086831 1_555
O10 W0 2.086831 1_555
O11 W1 2.086831 1_555
O11 W0 2.086831 1_555
O12 W0 2.086831 1_555
O12 W1 2.086831 1_555
O13 W2 2.086831 1_555
O13 W3 2.086831 1_555
O14 W3 2.086831 1_555
O14 W2 2.086831 1_555
O15 W2 2.086831 1_555
O15 W3 2.086831 1_555
O16 W3 1.820906 1_555
O17 W3 1.820906 1_555
