# generated using pymatgen
data_Mg6Si5
_symmetry_space_group_name_H-M   'P 1'
_cell_length_a   4.02644500
_cell_length_b   6.77011700
_cell_length_c   15.44493989
_cell_angle_alpha   87.09557208
_cell_angle_beta   90.00000000
_cell_angle_gamma   90.00000000
_symmetry_Int_Tables_number   1
_chemical_formula_structural   Mg6Si5
_chemical_formula_sum   'Mg12 Si10'
_cell_volume   420.48057120
_cell_formula_units_Z   2
loop_
 _symmetry_equiv_pos_site_id
 _symmetry_equiv_pos_as_xyz
  1  'x, y, z'
loop_
 _atom_site_type_symbol
 _atom_site_label
 _atom_site_symmetry_multiplicity
 _atom_site_fract_x
 _atom_site_fract_y
 _atom_site_fract_z
 _atom_site_occupancy
  Mg  Mg0  1  0.00000000  0.66327700  0.97010200  1
  Mg  Mg1  1  0.50000000  0.28409100  0.50579100  1
  Mg  Mg2  1  0.00000000  0.45035500  0.64864700  1
  Mg  Mg3  1  0.00000000  0.12991900  0.35753700  1
  Mg  Mg4  1  0.00000000  0.58454000  0.20997900  1
  Mg  Mg5  1  0.50000000  0.43177300  0.83956200  1
  Mg  Mg6  1  0.00000000  0.96008600  0.57584800  1
  Mg  Mg7  1  0.00000000  0.62164500  0.41866600  1
  Mg  Mg8  1  0.50000000  0.41419200  0.06997300  1
  Mg  Mg9  1  0.50000000  0.93135900  0.87994300  1
  Mg  Mg10  1  0.00000000  0.17421100  0.96924800  1
  Mg  Mg11  1  0.50000000  0.88785900  0.09355400  1
  Si  Si0  1  0.50000000  0.91692100  0.44323500  1
  Si  Si1  1  0.50000000  0.65579500  0.55152500  1
  Si  Si2  1  0.00000000  0.73879000  0.78769200  1
  Si  Si3  1  0.50000000  0.17946500  0.23297200  1
  Si  Si4  1  0.50000000  0.43286300  0.33314800  1
  Si  Si5  1  0.50000000  0.14868000  0.68724000  1
  Si  Si6  1  0.00000000  0.13772700  0.78736300  1
  Si  Si7  1  0.50000000  0.80983500  0.29343700  1
  Si  Si8  1  0.00000000  0.16775200  0.14572500  1
  Si  Si9  1  0.50000000  0.77521600  0.69521600  1
loop_
_geom_bond_atom_site_label_1
_geom_bond_atom_site_label_2
_geom_bond_distance
_geom_bond_site_symmetry_2
Mg0 Si2 2.837718 1_555
Mg1 Si1 2.647971 1_555
Mg1 Si0 2.712195 1_545
Mg1 Si4 2.802197 1_555
Mg1 Si5 2.904118 1_555
Mg2 Si1 2.833061 1_455
Mg2 Si1 2.833061 1_555
Mg2 Si5 2.907969 1_455
Mg2 Si5 2.907969 1_555
Mg2 Si6 2.934330 1_555
Mg2 Si2 2.974912 1_555
Mg2 Si9 3.093191 1_555
Mg2 Si9 3.093191 1_455
Mg3 Si0 2.773262 1_545
Mg3 Si0 2.773262 1_445
Mg3 Si3 2.793129 1_455
Mg3 Si3 2.793129 1_555
Mg3 Si4 2.884983 1_555
Mg3 Si4 2.884983 1_455
Mg3 Si7 3.153813 1_545
Mg3 Si7 3.153813 1_445
Mg4 Si7 2.870592 1_455
Mg4 Si7 2.870592 1_555
Mg4 Si4 2.920352 1_455
Mg4 Si4 2.920352 1_555
Mg4 Si8 3.038198 1_555
Mg5 Si6 2.971309 1_555
Mg5 Si6 2.971309 1_655
Mg5 Si2 2.974299 1_555
Mg5 Si2 2.974299 1_655
Mg5 Si5 3.108848 1_555
Mg5 Si9 3.138677 1_555
Mg6 Si0 2.897282 1_455
Mg6 Si0 2.897282 1_555
Mg6 Si1 2.918317 1_455
Mg6 Si1 2.918317 1_555
Mg6 Si9 2.963897 1_455
Mg6 Si9 2.963897 1_555
Mg6 Si5 2.977554 1_565
Mg6 Si5 2.977554 1_465
Mg7 Si4 2.757206 1_555
Mg7 Si4 2.757206 1_455
Mg7 Si0 2.875786 1_455
Mg7 Si0 2.875786 1_555
Mg7 Si1 2.892282 1_455
Mg7 Si1 2.892282 1_555
Mg7 Si7 3.027795 1_455
Mg7 Si7 3.027795 1_555
Mg8 Si8 2.829799 1_655
Mg8 Si8 2.829799 1_555
Mg8 Si3 2.908223 1_555
Mg9 Si6 2.801284 1_565
Mg9 Si6 2.801284 1_665
Mg9 Si2 2.823308 1_555
Mg9 Si2 2.823308 1_655
Mg9 Si9 3.092456 1_555
Mg10 Si8 2.723811 1_556
Mg10 Si6 2.832481 1_555
Mg11 Si8 2.906502 1_565
Mg11 Si8 2.906502 1_665
Mg11 Si3 2.994162 1_565
Mg11 Si7 3.105552 1_555
Si0 Si1 2.371293 1_555
Si0 Si7 2.459355 1_555
Si1 Si9 2.400163 1_555
Si2 Si9 2.473497 1_555
Si2 Si9 2.473497 1_455
Si2 Si6 2.700597 1_565
Si3 Si4 2.367680 1_555
Si3 Si8 2.426109 1_555
Si3 Si8 2.426109 1_655
Si3 Si7 2.626309 1_545
Si4 Si7 2.594415 1_555
Si5 Si9 2.525152 1_545
Si5 Si6 2.537376 1_655
Si5 Si6 2.537376 1_555
