# generated using pymatgen
data_Mg6MnGa
_symmetry_space_group_name_H-M   'P 1'
_cell_length_a   4.88649500
_cell_length_b   6.21833400
_cell_length_c   10.72775600
_cell_angle_alpha   90.00000000
_cell_angle_beta   90.00000000
_cell_angle_gamma   90.00000000
_symmetry_Int_Tables_number   1
_chemical_formula_structural   Mg6MnGa
_chemical_formula_sum   'Mg12 Mn2 Ga2'
_cell_volume   325.97207047
_cell_formula_units_Z   2
loop_
 _symmetry_equiv_pos_site_id
 _symmetry_equiv_pos_as_xyz
  1  'x, y, z'
loop_
 _atom_site_type_symbol
 _atom_site_label
 _atom_site_symmetry_multiplicity
 _atom_site_fract_x
 _atom_site_fract_y
 _atom_site_fract_z
 _atom_site_occupancy
  Mg  Mg0  1  0.00000000  0.25448300  0.08510200  1
  Mg  Mg1  1  0.00000000  0.74551700  0.08510200  1
  Mg  Mg2  1  0.00000000  0.50000000  0.83371000  1
  Mg  Mg3  1  0.50000000  0.24243400  0.91251000  1
  Mg  Mg4  1  0.50000000  0.75756600  0.91251000  1
  Mg  Mg5  1  0.50000000  0.50000000  0.66759500  1
  Mg  Mg6  1  0.00000000  0.75448300  0.58510200  1
  Mg  Mg7  1  0.00000000  0.24551700  0.58510200  1
  Mg  Mg8  1  0.00000000  0.00000000  0.33371000  1
  Mg  Mg9  1  0.50000000  0.74243400  0.41251000  1
  Mg  Mg10  1  0.50000000  0.25756600  0.41251000  1
  Mg  Mg11  1  0.50000000  0.00000000  0.16759500  1
  Mn  Mn0  1  0.00000000  0.50000000  0.32820100  1
  Mn  Mn1  1  0.00000000  0.00000000  0.82820100  1
  Ga  Ga0  1  0.50000000  0.50000000  0.17526800  1
  Ga  Ga1  1  0.50000000  0.00000000  0.67526800  1
loop_
_geom_bond_atom_site_label_1
_geom_bond_atom_site_label_2
_geom_bond_distance
_geom_bond_site_symmetry_2
Mg0 Mn0 3.021922 1_555
Mg0 Mg11 3.042499 1_455
Mg0 Mg11 3.042499 1_555
Mg0 Mg1 3.053413 1_555
Mg0 Mg3 3.066466 1_454
Mg0 Mg3 3.066466 1_554
Mg0 Mg2 3.099024 1_554
Mg0 Mg8 3.101145 1_555
Mg0 Mg1 3.164921 1_545
Mg0 Mn1 3.177980 1_554
Mg1 Mn0 3.021922 1_555
Mg1 Mg11 3.042499 1_565
Mg1 Mg11 3.042499 1_465
Mg1 Mg4 3.066466 1_554
Mg1 Mg4 3.066466 1_454
Mg1 Mg2 3.099024 1_554
Mg1 Mg8 3.101145 1_565
Mg1 Mn1 3.177980 1_564
Mg2 Mg5 3.024091 1_455
Mg2 Mg5 3.024091 1_555
Mg2 Mg4 3.041265 1_555
Mg2 Mg4 3.041265 1_455
Mg2 Mg3 3.041265 1_555
Mg2 Mg3 3.041265 1_455
Mg2 Mg7 3.101145 1_555
Mg2 Mg6 3.101145 1_555
Mg2 Mn1 3.109729 1_565
Mg2 Mn1 3.109729 1_555
Mg3 Mn1 3.010007 1_655
Mg3 Mn1 3.010007 1_555
Mg3 Mg4 3.015071 1_545
Mg3 Mg5 3.077075 1_555
Mg3 Mg4 3.203263 1_555
Mg4 Mn1 3.010007 1_665
Mg4 Mn1 3.010007 1_565
Mg4 Mg5 3.077075 1_555
Mg5 Mg6 3.042499 1_655
Mg5 Mg7 3.042499 1_555
Mg5 Mg7 3.042499 1_655
Mg5 Mg6 3.042499 1_555
Mg5 Mg9 3.124266 1_555
Mg6 Mn1 3.021922 1_565
Mg6 Mg7 3.053413 1_565
Mg6 Mg9 3.066466 1_455
Mg6 Mg9 3.066466 1_555
Mg6 Mg8 3.099024 1_565
Mg6 Mg7 3.164921 1_555
Mg6 Mn0 3.177980 1_555
Mg7 Mn1 3.021922 1_555
Mg7 Mg8 3.099024 1_555
Mg7 Mn0 3.177980 1_555
Mg8 Mg9 3.041265 1_545
Mg8 Mg9 3.041265 1_445
Mg8 Mn0 3.109729 1_555
Mg8 Mn0 3.109729 1_545
Mg9 Mn0 3.010007 1_555
Mg9 Mn0 3.010007 1_655
Mg10 Mn0 3.010007 1_555
Mg10 Mn0 3.010007 1_655
Mg10 Mg9 3.015071 1_555
Mg10 Mg8 3.041265 1_655
Mg10 Mg8 3.041265 1_555
Mg10 Mg7 3.066466 1_655
Mg10 Mg7 3.066466 1_555
Mg10 Mg11 3.077075 1_555
Mg10 Mg5 3.124266 1_555
Mg10 Mg9 3.203263 1_545
Mg11 Mg8 3.024091 1_555
Mg11 Mg8 3.024091 1_655
Mg11 Mg9 3.077075 1_545
Mg11 Mg4 3.124266 1_544
Mg11 Mg3 3.124266 1_554
Ga0 Mn0 2.942978 1_555
Ga0 Mn0 2.942978 1_655
Ga0 Mg10 2.958051 1_555
Ga0 Mg9 2.958051 1_555
Ga0 Mg1 3.039066 1_555
Ga0 Mg1 3.039066 1_655
Ga0 Mg0 3.039066 1_555
Ga0 Mg0 3.039066 1_655
Ga0 Mg11 3.110256 1_565
Ga0 Mg11 3.110256 1_555
Ga0 Mg4 3.242048 1_554
Ga0 Mg3 3.242048 1_554
Ga1 Mn1 2.942978 1_555
Ga1 Mn1 2.942978 1_655
Ga1 Mg3 2.958051 1_555
Ga1 Mg4 2.958051 1_545
Ga1 Mg7 3.039066 1_655
Ga1 Mg6 3.039066 1_645
Ga1 Mg6 3.039066 1_545
Ga1 Mg7 3.039066 1_555
Ga1 Mg5 3.110256 1_555
Ga1 Mg5 3.110256 1_545
Ga1 Mg9 3.242048 1_545
Ga1 Mg10 3.242048 1_555
