# generated using pymatgen
data_Li2TiCuO4
_symmetry_space_group_name_H-M   'P 1'
_cell_length_a   2.99688700
_cell_length_b   5.06609700
_cell_length_c   5.10285664
_cell_angle_alpha   72.71244600
_cell_angle_beta   90.00000000
_cell_angle_gamma   90.00000000
_symmetry_Int_Tables_number   1
_chemical_formula_structural   Li2TiCuO4
_chemical_formula_sum   'Li2 Ti1 Cu1 O4'
_cell_volume   73.97435512
_cell_formula_units_Z   1
loop_
 _symmetry_equiv_pos_site_id
 _symmetry_equiv_pos_as_xyz
  1  'x, y, z'
loop_
 _atom_site_type_symbol
 _atom_site_label
 _atom_site_symmetry_multiplicity
 _atom_site_fract_x
 _atom_site_fract_y
 _atom_site_fract_z
 _atom_site_occupancy
  Li  Li0  1  0.00000000  0.00000000  0.00000000  1
  Li  Li1  1  0.50000000  0.50000000  0.00000000  1
  Ti  Ti0  1  0.00000000  0.50000000  0.50000000  1
  Cu  Cu0  1  0.50000000  0.00000000  0.50000000  1
  O  O0  1  0.00000000  0.73395800  0.73836000  1
  O  O1  1  0.50000000  0.27271300  0.72308700  1
  O  O2  1  0.00000000  0.26604200  0.26164000  1
  O  O3  1  0.50000000  0.72728700  0.27691300  1
loop_
_geom_bond_atom_site_label_1
_geom_bond_atom_site_label_2
_geom_bond_distance
_geom_bond_site_symmetry_2
Li0 O0 2.160683 1_544
Li0 O2 2.160683 1_555
Li0 O1 2.233951 1_554
Li0 O3 2.233951 1_545
Li0 O3 2.233951 1_445
Li0 O1 2.233951 1_454
Li1 O1 2.071130 1_554
Li1 O3 2.071130 1_555
Li1 O2 2.119476 1_655
Li1 O0 2.119476 1_554
Li1 O2 2.119476 1_555
Li1 O0 2.119476 1_654
Cu0 O3 2.034566 1_545
Cu0 O1 2.034566 1_555
Cu0 O2 2.137052 1_655
Cu0 O0 2.137052 1_645
Cu0 O2 2.137052 1_555
Cu0 O0 2.137052 1_545
O0 Ti0 1.934185 1_555
O1 Ti0 2.021892 1_555
O1 Ti0 2.021892 1_655
O2 Ti0 1.934185 1_555
O3 Ti0 2.021892 1_655
O3 Ti0 2.021892 1_555
