# generated using pymatgen
data_CrS2NO8
_symmetry_space_group_name_H-M   'P 1'
_cell_length_a   4.93277795
_cell_length_b   4.93277795
_cell_length_c   8.55840400
_cell_angle_alpha   90.00000000
_cell_angle_beta   90.00000000
_cell_angle_gamma   119.99999931
_symmetry_Int_Tables_number   1
_chemical_formula_structural   CrS2NO8
_chemical_formula_sum   'Cr1 S2 N1 O8'
_cell_volume   180.34601487
_cell_formula_units_Z   1
loop_
 _symmetry_equiv_pos_site_id
 _symmetry_equiv_pos_as_xyz
  1  'x, y, z'
loop_
 _atom_site_type_symbol
 _atom_site_label
 _atom_site_symmetry_multiplicity
 _atom_site_fract_x
 _atom_site_fract_y
 _atom_site_fract_z
 _atom_site_occupancy
  Cr  Cr0  1  0.00000000  0.00000000  0.00000000  1
  S  S0  1  0.33333300  0.66666700  0.20649600  1
  S  S1  1  0.66666700  0.33333300  0.79350400  1
  N  N0  1  0.00000000  0.00000000  0.50000000  1
  O  O0  1  0.08436000  0.35737200  0.14528600  1
  O  O1  1  0.64262800  0.72698800  0.14528600  1
  O  O2  1  0.35737200  0.08436000  0.85471400  1
  O  O3  1  0.27301200  0.91564000  0.14528600  1
  O  O4  1  0.72698800  0.64262800  0.85471400  1
  O  O5  1  0.91564000  0.27301200  0.85471400  1
  O  O6  1  0.33333300  0.66666700  0.37627100  1
  O  O7  1  0.66666700  0.33333300  0.62372900  1
loop_
_geom_bond_atom_site_label_1
_geom_bond_atom_site_label_2
_geom_bond_distance
_geom_bond_site_symmetry_2
Cr0 O5 2.023184 1_454
Cr0 O3 2.023184 1_545
Cr0 O0 2.023184 1_555
Cr0 O2 2.023184 1_554
Cr0 O1 2.023184 1_445
Cr0 O4 2.023184 1_444
O0 S0 1.495561 1_555
O1 S0 1.495563 1_555
O2 S1 1.495561 1_555
O3 S0 1.495558 1_555
O4 S1 1.495563 1_555
O5 S1 1.495558 1_555
O6 S0 1.453003 1_555
O7 S1 1.453003 1_555
