# generated using pymatgen
data_Te4MoW3(SeS)2
_symmetry_space_group_name_H-M   'P 1'
_cell_length_a   3.39526051
_cell_length_b   3.39526051
_cell_length_c   38.85466700
_cell_angle_alpha   90.00000000
_cell_angle_beta   90.00000000
_cell_angle_gamma   120.00000991
_symmetry_Int_Tables_number   1
_chemical_formula_structural   Te4MoW3(SeS)2
_chemical_formula_sum   'Te4 Mo1 W3 Se2 S2'
_cell_volume   387.90018232
_cell_formula_units_Z   1
loop_
 _symmetry_equiv_pos_site_id
 _symmetry_equiv_pos_as_xyz
  1  'x, y, z'
loop_
 _atom_site_type_symbol
 _atom_site_label
 _atom_site_symmetry_multiplicity
 _atom_site_fract_x
 _atom_site_fract_y
 _atom_site_fract_z
 _atom_site_occupancy
  Te  Te0  1  0.33333300  0.66666700  0.04565900  1
  Te  Te1  1  0.33333300  0.66666700  0.42116200  1
  Te  Te2  1  0.33333300  0.66666700  0.14217300  1
  Te  Te3  1  0.33333300  0.66666700  0.51821100  1
  Mo  Mo0  1  0.00000000  0.00000000  0.09389400  1
  W  W0  1  0.00000000  0.00000000  0.46966500  1
  W  W1  1  0.33333300  0.66666700  0.28177300  1
  W  W2  1  0.33333300  0.66666700  0.65753000  1
  Se  Se0  1  0.00000000  0.00000000  0.32447500  1
  Se  Se1  1  0.00000000  0.00000000  0.23912500  1
  S  S0  1  0.00000000  0.00000000  0.69632200  1
  S  S1  1  0.00000000  0.00000000  0.61876000  1
loop_
_geom_bond_atom_site_label_1
_geom_bond_atom_site_label_2
_geom_bond_distance
_geom_bond_site_symmetry_2
Te1 W0 2.719225 1_565
Te1 W0 2.719227 1_665
Te1 W0 2.719227 1_555
Te3 W0 2.720384 1_565
Te3 W0 2.720386 1_555
Te3 W0 2.720386 1_665
Mo0 Te0 2.712019 1_545
Mo0 Te0 2.712021 1_555
Mo0 Te0 2.712021 1_445
Mo0 Te2 2.713201 1_545
Mo0 Te2 2.713203 1_555
Mo0 Te2 2.713203 1_445
Se0 W1 2.568159 1_545
Se0 W1 2.568161 1_555
Se0 W1 2.568161 1_445
Se1 W1 2.566804 1_545
Se1 W1 2.566806 1_445
Se1 W1 2.566806 1_555
S0 W2 2.472730 1_545
S0 W2 2.472732 1_555
S0 W2 2.472732 1_445
S1 W2 2.472209 1_545
S1 W2 2.472211 1_555
S1 W2 2.472211 1_445
