# generated using pymatgen
data_Ba8CaY3(CuO2)12
_symmetry_space_group_name_H-M   'P 1'
_cell_length_a   8.66337943
_cell_length_b   8.66337943
_cell_length_c   12.73996266
_cell_angle_alpha   74.16268564
_cell_angle_beta   74.16268564
_cell_angle_gamma   52.94486315
_symmetry_Int_Tables_number   1
_chemical_formula_structural   Ba8CaY3(CuO2)12
_chemical_formula_sum   'Ba8 Ca1 Y3 Cu12 O24'
_cell_volume   726.76228144
_cell_formula_units_Z   1
loop_
 _symmetry_equiv_pos_site_id
 _symmetry_equiv_pos_as_xyz
  1  'x, y, z'
loop_
 _atom_site_type_symbol
 _atom_site_label
 _atom_site_symmetry_multiplicity
 _atom_site_fract_x
 _atom_site_fract_y
 _atom_site_fract_z
 _atom_site_occupancy
  Ba  Ba0  1  0.32608400  0.32608400  0.19559000  1
  Ba  Ba1  1  0.82629900  0.82629900  0.19550800  1
  Ba  Ba2  1  0.57609700  0.57609700  0.19524200  1
  Ba  Ba3  1  0.07526100  0.07526100  0.19862000  1
  Ba  Ba4  1  0.17370100  0.17370100  0.80449200  1
  Ba  Ba5  1  0.67391600  0.67391600  0.80441000  1
  Ba  Ba6  1  0.42390300  0.42390300  0.80475800  1
  Ba  Ba7  1  0.92473900  0.92473900  0.80138000  1
  Ca  Ca0  1  0.00000000  0.00000000  0.50000000  1
  Y  Y0  1  0.24883500  0.24883500  0.50001600  1
  Y  Y1  1  0.50000000  0.50000000  0.50000000  1
  Y  Y2  1  0.75116500  0.75116500  0.49998400  1
  Cu  Cu0  1  0.00000000  0.50000000  0.00000000  1
  Cu  Cu1  1  0.50000000  0.00000000  0.00000000  1
  Cu  Cu2  1  0.24982700  0.75017300  0.00000000  1
  Cu  Cu3  1  0.75017300  0.24982700  0.00000000  1
  Cu  Cu4  1  0.15906900  0.66001500  0.36347400  1
  Cu  Cu5  1  0.66001500  0.15906900  0.36347400  1
  Cu  Cu6  1  0.40823500  0.90913100  0.36351300  1
  Cu  Cu7  1  0.90913100  0.40823500  0.36351300  1
  Cu  Cu8  1  0.09086900  0.59176500  0.63648700  1
  Cu  Cu9  1  0.59176500  0.09086900  0.63648700  1
  Cu  Cu10  1  0.33998500  0.84093100  0.63652600  1
  Cu  Cu11  1  0.84093100  0.33998500  0.63652600  1
  O  O0  1  0.21246000  0.71263800  0.14877600  1
  O  O1  1  0.71263800  0.21245900  0.14877600  1
  O  O2  1  0.46294500  0.96313300  0.14875600  1
  O  O3  1  0.96313300  0.46294500  0.14875600  1
  O  O4  1  0.03686700  0.53705500  0.85124400  1
  O  O5  1  0.53705500  0.03686700  0.85124400  1
  O  O6  1  0.28736200  0.78754000  0.85122400  1
  O  O7  1  0.78754000  0.28736200  0.85122400  1
  O  O8  1  0.02981200  0.52979800  0.37991000  1
  O  O9  1  0.52979800  0.02981200  0.37991000  1
  O  O10  1  0.28945500  0.77346200  0.37490100  1
  O  O11  1  0.77346200  0.28945500  0.37490100  1
  O  O12  1  0.40351900  0.40351900  0.38109400  1
  O  O13  1  0.90191800  0.90191800  0.37601300  1
  O  O14  1  0.65592300  0.65592300  0.38123600  1
  O  O15  1  0.16005000  0.16005000  0.37619100  1
  O  O16  1  0.97018800  0.47020200  0.62009000  1
  O  O17  1  0.47020200  0.97018800  0.62009000  1
  O  O18  1  0.22653800  0.71054500  0.62509900  1
  O  O19  1  0.71054500  0.22653800  0.62509900  1
  O  O20  1  0.34407700  0.34407700  0.61876400  1
  O  O21  1  0.83995000  0.83995000  0.62380900  1
  O  O22  1  0.59648100  0.59648100  0.61890600  1
  O  O23  1  0.09808200  0.09808200  0.62398700  1
loop_
_geom_bond_atom_site_label_1
_geom_bond_atom_site_label_2
_geom_bond_distance
_geom_bond_site_symmetry_2
Ba0 O2 2.791726 1_545
Ba0 O3 2.791726 1_455
Ba0 O1 2.792311 1_555
Ba0 O0 2.792314 1_555
Ba0 O15 2.883175 1_555
Ba0 O8 2.954644 1_555
Ba0 O9 2.954644 1_555
Ba0 O12 2.959459 1_555
Ba1 O1 2.789063 1_565
Ba1 O0 2.789071 1_655
Ba1 O3 2.794618 1_555
Ba1 O2 2.794618 1_555
Ba1 O13 2.882435 1_555
Ba1 O8 2.955471 1_655
Ba1 O9 2.955471 1_565
Ba1 O14 2.961283 1_555
Ba2 O0 2.796219 1_555
Ba2 O1 2.796227 1_555
Ba2 O2 2.797551 1_555
Ba2 O3 2.797551 1_555
Ba2 O10 2.871531 1_555
Ba2 O11 2.871531 1_555
Ba2 O12 2.984375 1_555
Ba2 O14 2.989406 1_555
Ba3 O0 2.803930 1_545
Ba3 O1 2.803933 1_455
Ba3 O3 2.804996 1_455
Ba3 O2 2.804996 1_545
Ba3 O11 2.923305 1_455
Ba3 O10 2.923305 1_545
Ba3 O13 2.937852 1_445
Ba3 O15 2.942995 1_555
Ba4 O6 2.789071 1_545
Ba4 O7 2.789071 1_455
Ba4 O5 2.794618 1_555
Ba4 O4 2.794618 1_555
Ba4 O23 2.882435 1_555
Ba4 O17 2.955471 1_545
Ba4 O16 2.955471 1_455
Ba4 O20 2.961283 1_555
Ba5 O5 2.791726 1_565
Ba5 O4 2.791726 1_655
Ba5 O6 2.792314 1_555
Ba5 O7 2.792314 1_555
Ba5 O21 2.883175 1_555
Ba5 O17 2.954644 1_555
Ba5 O16 2.954644 1_555
Ba5 O22 2.959459 1_555
Ba6 O6 2.796219 1_555
Ba6 O7 2.796219 1_555
Ba6 O5 2.797551 1_555
Ba6 O4 2.797551 1_555
Ba6 O18 2.871531 1_555
Ba6 O19 2.871531 1_555
Ba6 O22 2.984375 1_555
Ba6 O20 2.989406 1_555
Ba7 O6 2.803930 1_655
Ba7 O7 2.803930 1_565
Ba7 O4 2.804996 1_655
Ba7 O5 2.804996 1_565
Ba7 O19 2.923305 1_565
Ba7 O18 2.923305 1_655
Ba7 O23 2.937852 1_665
Ba7 O21 2.942995 1_555
Ca0 O21 2.502536 1_445
Ca0 O15 2.502536 1_555
Ca0 O23 2.504898 1_555
Ca0 O13 2.504898 1_445
Ca0 O11 2.504950 1_455
Ca0 O10 2.504950 1_545
Ca0 O18 2.504950 1_545
Ca0 O19 2.504950 1_455
Cu0 O4 1.804929 1_554
Cu0 O3 1.804929 1_455
Cu1 O2 1.804929 1_545
Cu1 O5 1.804929 1_554
Cu2 O0 1.805169 1_555
Cu2 O6 1.805169 1_554
Cu3 O7 1.805169 1_554
Cu3 O1 1.805169 1_555
Cu4 O13 1.934518 1_455
Cu4 O10 1.941374 1_555
Cu4 O12 1.946516 1_555
Cu4 O8 1.958569 1_555
Cu4 O0 2.605056 1_555
Cu5 O13 1.934518 1_545
Cu5 O11 1.941374 1_555
Cu5 O12 1.946516 1_555
Cu5 O9 1.958569 1_555
Cu5 O1 2.605056 1_555
Cu6 O15 1.934876 1_565
Cu6 O10 1.935066 1_555
Cu6 O14 1.946475 1_555
Cu6 O9 1.952459 1_565
Cu6 O2 2.605760 1_555
Cu7 O15 1.934876 1_655
Cu7 O11 1.935066 1_555
Cu7 O14 1.946475 1_555
Cu7 O8 1.952459 1_655
Cu7 O3 2.605760 1_555
Cu8 O21 1.934876 1_455
Cu8 O18 1.935066 1_555
Cu8 O20 1.946475 1_555
Cu8 O16 1.952459 1_455
Cu8 O4 2.605760 1_555
Cu9 O21 1.934876 1_545
Cu9 O19 1.935066 1_555
Cu9 O20 1.946475 1_555
Cu9 O17 1.952459 1_545
Cu9 O5 2.605760 1_555
Cu10 O23 1.934518 1_565
Cu10 O18 1.941374 1_555
Cu10 O22 1.946516 1_555
Cu10 O17 1.958569 1_555
Cu10 O6 2.605056 1_555
Cu11 O23 1.934518 1_655
Cu11 O19 1.941374 1_555
Cu11 O22 1.946516 1_555
Cu11 O16 1.958569 1_555
Cu11 O7 2.605056 1_555
O8 Y2 2.419042 1_455
O8 Y0 2.419128 1_555
O9 Y2 2.419042 1_545
O9 Y0 2.419128 1_555
O10 Y1 2.407850 1_555
O11 Y1 2.407850 1_555
O12 Y0 2.415575 1_555
O12 Y1 2.432343 1_555
O13 Y2 2.389526 1_555
O14 Y2 2.415262 1_555
O14 Y1 2.430371 1_555
O15 Y0 2.389447 1_555
O16 Y0 2.419042 1_655
O16 Y2 2.419128 1_555
O17 Y0 2.419042 1_565
O17 Y2 2.419128 1_555
O18 Y1 2.407850 1_555
O19 Y1 2.407850 1_555
O20 Y0 2.415262 1_555
O20 Y1 2.430371 1_555
O21 Y2 2.389447 1_555
O22 Y2 2.415575 1_555
O22 Y1 2.432343 1_555
O23 Y0 2.389526 1_555
