# generated using pymatgen
data_Sm23Cd4Ir7
_symmetry_space_group_name_H-M   'P 1'
_cell_length_a   9.92723599
_cell_length_b   9.92723599
_cell_length_c   22.31456307
_cell_angle_alpha   90.00000000
_cell_angle_beta   90.00000000
_cell_angle_gamma   119.99999753
_symmetry_Int_Tables_number   1
_chemical_formula_structural   Sm23Cd4Ir7
_chemical_formula_sum   'Sm46 Cd8 Ir14'
_cell_volume   1904.47695613
_cell_formula_units_Z   2
loop_
 _symmetry_equiv_pos_site_id
 _symmetry_equiv_pos_as_xyz
  1  'x, y, z'
loop_
 _atom_site_type_symbol
 _atom_site_label
 _atom_site_symmetry_multiplicity
 _atom_site_fract_x
 _atom_site_fract_y
 _atom_site_fract_z
 _atom_site_occupancy
  Sm  Sm0  1  0.20698545  0.41397090  0.72046078  1
  Sm  Sm1  1  0.20698545  0.79301455  0.72046078  1
  Sm  Sm2  1  0.79301455  0.58602910  0.22046078  1
  Sm  Sm3  1  0.58602910  0.79301455  0.72046078  1
  Sm  Sm4  1  0.79301455  0.20698545  0.22046078  1
  Sm  Sm5  1  0.41397090  0.20698545  0.22046078  1
  Sm  Sm6  1  0.79295007  0.58590014  0.94688076  1
  Sm  Sm7  1  0.79295007  0.20704993  0.94688076  1
  Sm  Sm8  1  0.20704993  0.41409986  0.44688076  1
  Sm  Sm9  1  0.41409986  0.20704993  0.94688076  1
  Sm  Sm10  1  0.20704993  0.79295007  0.44688076  1
  Sm  Sm11  1  0.58590014  0.79295007  0.44688076  1
  Sm  Sm12  1  0.20880980  0.41761961  0.98991508  1
  Sm  Sm13  1  0.20880980  0.79119020  0.98991508  1
  Sm  Sm14  1  0.79119020  0.58238039  0.48991508  1
  Sm  Sm15  1  0.58238039  0.79119020  0.98991508  1
  Sm  Sm16  1  0.79119020  0.20880980  0.48991508  1
  Sm  Sm17  1  0.41761961  0.20880980  0.48991508  1
  Sm  Sm18  1  0.87235991  0.74471983  0.63602676  1
  Sm  Sm19  1  0.87235991  0.12764009  0.63602676  1
  Sm  Sm20  1  0.12764009  0.25528017  0.13602676  1
  Sm  Sm21  1  0.25528017  0.12764009  0.63602676  1
  Sm  Sm22  1  0.12764009  0.87235991  0.13602676  1
  Sm  Sm23  1  0.74471983  0.87235991  0.13602676  1
  Sm  Sm24  1  0.45949981  0.91899963  0.85593620  1
  Sm  Sm25  1  0.45949981  0.54050019  0.85593620  1
  Sm  Sm26  1  0.54050019  0.08100037  0.35593620  1
  Sm  Sm27  1  0.08100037  0.54050019  0.85593620  1
  Sm  Sm28  1  0.54050019  0.45949981  0.35593620  1
  Sm  Sm29  1  0.91899963  0.45949981  0.35593620  1
  Sm  Sm30  1  0.00000000  0.00000000  0.99797298  1
  Sm  Sm31  1  0.00000000  0.00000000  0.49797298  1
  Sm  Sm32  1  0.46088073  0.92176146  0.58543373  1
  Sm  Sm33  1  0.46088073  0.53911927  0.58543373  1
  Sm  Sm34  1  0.53911927  0.07823854  0.08543373  1
  Sm  Sm35  1  0.07823854  0.53911927  0.58543373  1
  Sm  Sm36  1  0.53911927  0.46088073  0.08543373  1
  Sm  Sm37  1  0.92176146  0.46088073  0.08543373  1
  Sm  Sm38  1  0.79731011  0.59462022  0.78243069  1
  Sm  Sm39  1  0.79731011  0.20268989  0.78243069  1
  Sm  Sm40  1  0.20268989  0.40537978  0.28243069  1
  Sm  Sm41  1  0.40537978  0.20268989  0.78243069  1
  Sm  Sm42  1  0.20268989  0.79731011  0.28243069  1
  Sm  Sm43  1  0.59462022  0.79731011  0.28243069  1
  Sm  Sm44  1  0.66666700  0.33333300  0.64495024  1
  Sm  Sm45  1  0.33333300  0.66666700  0.14495024  1
  Cd  Cd0  1  0.00000000  0.00000000  0.75005065  1
  Cd  Cd1  1  0.00000000  0.00000000  0.25005065  1
  Cd  Cd2  1  0.10725272  0.21450544  0.86343437  1
  Cd  Cd3  1  0.10725272  0.89274728  0.86343437  1
  Cd  Cd4  1  0.89274728  0.78549456  0.36343437  1
  Cd  Cd5  1  0.78549456  0.89274728  0.86343437  1
  Cd  Cd6  1  0.89274728  0.10725272  0.36343437  1
  Cd  Cd7  1  0.21450544  0.10725272  0.36343437  1
  Ir  Ir0  1  0.52073030  0.04146059  0.70953814  1
  Ir  Ir1  1  0.52073030  0.47926970  0.70953814  1
  Ir  Ir2  1  0.47926970  0.95853941  0.20953814  1
  Ir  Ir3  1  0.95853941  0.47926970  0.70953814  1
  Ir  Ir4  1  0.47926970  0.52073030  0.20953814  1
  Ir  Ir5  1  0.04146059  0.52073030  0.20953814  1
  Ir  Ir6  1  0.66666700  0.33333300  0.86354026  1
  Ir  Ir7  1  0.33333300  0.66666700  0.36354026  1
  Ir  Ir8  1  0.14378899  0.28757797  0.56334545  1
  Ir  Ir9  1  0.14378899  0.85621101  0.56334545  1
  Ir  Ir10  1  0.85621101  0.71242203  0.06334545  1
  Ir  Ir11  1  0.71242203  0.85621101  0.56334545  1
  Ir  Ir12  1  0.85621101  0.14378899  0.06334545  1
  Ir  Ir13  1  0.28757797  0.14378899  0.06334545  1
loop_
_geom_bond_atom_site_label_1
_geom_bond_atom_site_label_2
_geom_bond_distance
_geom_bond_site_symmetry_2
Cd0 Cd3 3.130871 1_545
Cd0 Cd2 3.130871 1_555
Cd0 Cd5 3.130871 1_445
Cd0 Sm18 3.360159 1_445
Cd0 Sm21 3.360159 1_555
Cd0 Sm19 3.360159 1_455
Cd0 Sm39 3.559258 1_455
Cd0 Sm38 3.559259 1_445
Cd0 Sm41 3.559259 1_555
Cd0 Sm1 3.619738 1_545
Cd0 Sm0 3.619738 1_555
Cd0 Sm3 3.619738 1_445
Cd1 Cd6 3.130871 1_455
Cd1 Cd4 3.130871 1_445
Cd1 Cd7 3.130871 1_555
Cd1 Sm23 3.360159 1_445
Cd1 Sm20 3.360159 1_555
Cd1 Sm22 3.360159 1_545
Cd1 Sm42 3.559258 1_545
Cd1 Sm43 3.559259 1_445
Cd1 Sm40 3.559259 1_555
Cd1 Sm4 3.619738 1_455
Cd1 Sm5 3.619738 1_555
Cd1 Sm2 3.619738 1_445
Cd2 Cd3 3.194169 1_545
Cd2 Cd5 3.194169 1_445
Cd2 Sm12 3.318887 1_555
Cd2 Sm27 3.378237 1_555
Cd2 Sm25 3.378237 1_555
Cd2 Sm41 3.519557 1_555
Cd2 Sm39 3.519557 1_455
Cd2 Sm30 3.523341 1_555
Cd2 Sm9 3.602392 1_555
Cd2 Sm7 3.602392 1_455
Cd2 Sm0 3.622061 1_555
Cd3 Cd5 3.194169 1_455
Cd3 Sm13 3.318887 1_555
Cd3 Sm24 3.378236 1_555
Cd3 Sm27 3.378236 1_555
Cd3 Sm38 3.519557 1_455
Cd3 Sm41 3.519557 1_565
Cd3 Sm30 3.523341 1_565
Cd3 Sm6 3.602392 1_455
Cd3 Sm9 3.602392 1_565
Cd3 Sm1 3.622061 1_555
Cd4 Cd6 3.194169 1_565
Cd4 Cd7 3.194169 1_665
Cd4 Sm14 3.318887 1_555
Cd4 Sm29 3.378237 1_555
Cd4 Sm28 3.378237 1_555
Cd4 Sm43 3.519557 1_555
Cd4 Sm42 3.519557 1_655
Cd4 Sm31 3.523341 1_665
Cd4 Sm11 3.602392 1_555
Cd4 Sm10 3.602392 1_655
Cd4 Sm2 3.622061 1_555
Cd5 Sm15 3.318887 1_555
Cd5 Sm24 3.378237 1_555
Cd5 Sm25 3.378237 1_555
Cd5 Sm38 3.519557 1_555
Cd5 Sm39 3.519557 1_565
Cd5 Sm30 3.523341 1_665
Cd5 Sm6 3.602392 1_555
Cd5 Sm7 3.602392 1_565
Cd5 Sm3 3.622061 1_555
Cd6 Cd7 3.194169 1_655
Cd6 Sm16 3.318887 1_555
Cd6 Sm26 3.378236 1_555
Cd6 Sm29 3.378236 1_555
Cd6 Sm43 3.519557 1_545
Cd6 Sm40 3.519557 1_655
Cd6 Sm31 3.523341 1_655
Cd6 Sm8 3.602392 1_655
Cd6 Sm11 3.602392 1_545
Cd6 Sm4 3.622061 1_555
Cd7 Sm17 3.318887 1_555
Cd7 Sm26 3.378237 1_555
Cd7 Sm28 3.378237 1_555
Cd7 Sm40 3.519557 1_555
Cd7 Sm42 3.519557 1_545
Cd7 Sm31 3.523341 1_555
Cd7 Sm8 3.602392 1_555
Cd7 Sm10 3.602392 1_545
Cd7 Sm5 3.622061 1_555
Ir0 Sm3 2.856827 1_545
Ir0 Sm1 2.856827 1_545
Ir0 Sm41 2.889916 1_555
Ir0 Sm39 2.889916 1_555
Ir0 Sm44 2.893747 1_555
Ir0 Sm32 2.954358 1_545
Ir0 Sm24 3.432271 1_545
Ir0 Sm19 3.552664 1_555
Ir0 Sm21 3.552664 1_555
Ir1 Sm0 2.856827 1_555
Ir1 Sm3 2.856827 1_555
Ir1 Sm41 2.889916 1_555
Ir1 Sm38 2.889916 1_555
Ir1 Sm44 2.893755 1_555
Ir1 Sm33 2.954358 1_555
Ir1 Sm25 3.432271 1_555
Ir1 Sm21 3.552664 1_555
Ir1 Sm18 3.552664 1_555
Ir2 Sm5 2.856827 1_565
Ir2 Sm4 2.856827 1_565
Ir2 Sm43 2.889916 1_555
Ir2 Sm42 2.889916 1_555
Ir2 Sm45 2.893747 1_555
Ir2 Sm34 2.954358 1_565
Ir2 Sm26 3.432271 1_565
Ir2 Sm22 3.552664 1_555
Ir2 Sm23 3.552664 1_555
Ir3 Sm0 2.856827 1_655
Ir3 Sm1 2.856827 1_655
Ir3 Sm38 2.889916 1_555
Ir3 Sm39 2.889916 1_555
Ir3 Sm44 2.893747 1_555
Ir3 Sm35 2.954358 1_655
Ir3 Sm27 3.432271 1_655
Ir3 Sm19 3.552664 1_555
Ir3 Sm18 3.552664 1_555
Ir4 Sm5 2.856827 1_555
Ir4 Sm2 2.856827 1_555
Ir4 Sm40 2.889916 1_555
Ir4 Sm43 2.889916 1_555
Ir4 Sm45 2.893755 1_555
Ir4 Sm36 2.954358 1_555
Ir4 Sm28 3.432271 1_555
Ir4 Sm20 3.552664 1_555
Ir4 Sm23 3.552664 1_555
Ir5 Sm2 2.856827 1_455
Ir5 Sm4 2.856827 1_455
Ir5 Sm40 2.889916 1_555
Ir5 Sm42 2.889916 1_555
Ir5 Sm45 2.893747 1_555
Ir5 Sm37 2.954358 1_455
Ir5 Sm29 3.432271 1_455
Ir5 Sm22 3.552664 1_555
Ir5 Sm20 3.552664 1_555
Ir6 Sm7 2.858909 1_555
Ir6 Sm6 2.858916 1_555
Ir6 Sm9 2.858916 1_555
Ir6 Sm39 2.884765 1_555
Ir6 Sm41 2.884772 1_555
Ir6 Sm38 2.884772 1_555
Ir6 Sm24 3.566162 1_545
Ir6 Sm27 3.566162 1_655
Ir6 Sm25 3.566171 1_555
Ir7 Sm10 2.858909 1_555
Ir7 Sm8 2.858916 1_555
Ir7 Sm11 2.858916 1_555
Ir7 Sm42 2.884765 1_555
Ir7 Sm40 2.884772 1_555
Ir7 Sm43 2.884772 1_555
Ir7 Sm26 3.566162 1_565
Ir7 Sm29 3.566162 1_455
Ir7 Sm28 3.566171 1_555
Ir8 Sm8 2.817311 1_555
Ir8 Sm21 2.851954 1_555
Ir8 Sm19 2.851954 1_455
Ir8 Sm31 2.870648 1_555
Ir8 Sm35 2.920087 1_555
Ir8 Sm33 2.920087 1_555
Ir8 Sm17 3.579327 1_555
Ir8 Sm16 3.579327 1_455
Ir9 Sm10 2.817311 1_555
Ir9 Sm18 2.851954 1_455
Ir9 Sm21 2.851954 1_565
Ir9 Sm31 2.870648 1_565
Ir9 Sm35 2.920087 1_555
Ir9 Sm32 2.920087 1_555
Ir9 Sm17 3.579327 1_565
Ir9 Sm14 3.579327 1_455
Ir10 Sm6 2.817311 1_554
Ir10 Sm23 2.851954 1_555
Ir10 Sm22 2.851954 1_655
Ir10 Sm30 2.870648 1_664
Ir10 Sm37 2.920087 1_555
Ir10 Sm36 2.920087 1_555
Ir10 Sm15 3.579327 1_554
Ir10 Sm13 3.579327 1_654
Ir11 Sm11 2.817311 1_555
Ir11 Sm18 2.851954 1_555
Ir11 Sm19 2.851954 1_565
Ir11 Sm31 2.870648 1_665
Ir11 Sm32 2.920087 1_555
Ir11 Sm33 2.920087 1_555
Ir11 Sm14 3.579327 1_555
Ir11 Sm16 3.579327 1_565
Ir12 Sm7 2.817311 1_554
Ir12 Sm23 2.851954 1_545
Ir12 Sm20 2.851954 1_655
Ir12 Sm30 2.870648 1_654
Ir12 Sm37 2.920087 1_555
Ir12 Sm34 2.920087 1_555
Ir12 Sm12 3.579327 1_654
Ir12 Sm15 3.579327 1_544
Ir13 Sm9 2.817311 1_554
Ir13 Sm20 2.851954 1_555
Ir13 Sm22 2.851954 1_545
Ir13 Sm30 2.870648 1_554
Ir13 Sm34 2.920087 1_555
Ir13 Sm36 2.920087 1_555
Ir13 Sm12 3.579327 1_554
Ir13 Sm13 3.579327 1_544
