# generated using pymatgen
data_Ba2SnSe5
_symmetry_space_group_name_H-M   'P 1'
_cell_length_a   9.00578364
_cell_length_b   9.52728206
_cell_length_c   12.56634949
_cell_angle_alpha   68.87010768
_cell_angle_beta   89.99984104
_cell_angle_gamma   89.99878982
_symmetry_Int_Tables_number   1
_chemical_formula_structural   Ba2SnSe5
_chemical_formula_sum   'Ba8 Sn4 Se20'
_cell_volume   1005.70864308
_cell_formula_units_Z   4
loop_
 _symmetry_equiv_pos_site_id
 _symmetry_equiv_pos_as_xyz
  1  'x, y, z'
loop_
 _atom_site_type_symbol
 _atom_site_label
 _atom_site_symmetry_multiplicity
 _atom_site_fract_x
 _atom_site_fract_y
 _atom_site_fract_z
 _atom_site_occupancy
  Ba  Ba0  1  0.13705149  0.74415390  0.17526039  1
  Ba  Ba1  1  0.63706697  0.75585220  0.32472297  1
  Ba  Ba2  1  0.86293723  0.25584653  0.82472517  1
  Ba  Ba3  1  0.36295182  0.24415537  0.67526622  1
  Ba  Ba4  1  0.62612062  0.30765698  0.15502381  1
  Ba  Ba5  1  0.12613080  0.19233414  0.34498909  1
  Ba  Ba6  1  0.37387998  0.69231964  0.84499081  1
  Ba  Ba7  1  0.87388087  0.80766036  0.65500971  1
  Sn  Sn0  1  0.79348587  0.35498095  0.48295430  1
  Sn  Sn1  1  0.29350081  0.14500710  0.01707574  1
  Sn  Sn2  1  0.20649724  0.64499448  0.51706159  1
  Sn  Sn3  1  0.70648881  0.85499127  0.98292316  1
  Se  Se0  1  0.32148133  0.49896016  0.40529774  1
  Se  Se1  1  0.82148184  0.00101395  0.09470035  1
  Se  Se2  1  0.67848605  0.50106002  0.59468911  1
  Se  Se3  1  0.17851159  0.99897721  0.90530929  1
  Se  Se4  1  0.50978206  0.68167156  0.10386626  1
  Se  Se5  1  0.00980724  0.81836054  0.39611922  1
  Se  Se6  1  0.49022927  0.31832532  0.89612594  1
  Se  Se7  1  0.99024984  0.18168433  0.60389200  1
  Se  Se8  1  0.87237066  0.48645825  0.27781787  1
  Se  Se9  1  0.37235226  0.01352626  0.22219469  1
  Se  Se10  1  0.12762596  0.51352507  0.72217853  1
  Se  Se11  1  0.62765542  0.98646983  0.77778688  1
  Se  Se12  1  0.57725569  0.19740417  0.44335890  1
  Se  Se13  1  0.07726813  0.30259792  0.05664227  1
  Se  Se14  1  0.42274806  0.80261397  0.55662286  1
  Se  Se15  1  0.92274355  0.69737784  0.94335003  1
  Se  Se16  1  0.76056990  0.04079762  0.40155490  1
  Se  Se17  1  0.26054684  0.45921338  0.09846582  1
  Se  Se18  1  0.23945757  0.95920526  0.59846099  1
  Se  Se19  1  0.73938422  0.54080344  0.90156440  1
loop_
_geom_bond_atom_site_label_1
_geom_bond_atom_site_label_2
_geom_bond_distance
_geom_bond_site_symmetry_2
Ba0 Se5 3.306114 1_555
Ba0 Se8 3.330087 1_455
Ba0 Se17 3.380308 1_555
Ba0 Se3 3.406396 1_554
Ba0 Se0 3.421017 1_555
Ba0 Se9 3.537819 1_565
Ba0 Se4 3.579365 1_555
Ba0 Se1 3.647440 1_465
Ba0 Se15 3.654163 1_454
Ba1 Se4 3.306104 1_555
Ba1 Se9 3.330069 1_565
Ba1 Se16 3.380682 1_565
Ba1 Se2 3.406381 1_555
Ba1 Se1 3.420765 1_565
Ba1 Se8 3.537772 1_555
Ba1 Se5 3.579547 1_655
Ba1 Se0 3.647809 1_555
Ba1 Se14 3.654031 1_555
Ba2 Se7 3.305813 1_555
Ba2 Se10 3.330024 1_655
Ba2 Se19 3.380943 1_555
Ba2 Se1 3.406646 1_556
Ba2 Se2 3.421171 1_555
Ba2 Se11 3.537770 1_545
Ba2 Se6 3.579192 1_555
Ba2 Se3 3.647535 1_645
Ba2 Se13 3.654248 1_656
Ba3 Se6 3.306063 1_555
Ba3 Se11 3.330051 1_545
Ba3 Se18 3.380504 1_545
Ba3 Se0 3.406496 1_555
Ba3 Se3 3.421089 1_545
Ba3 Se10 3.537749 1_555
Ba3 Se7 3.579047 1_455
Ba3 Se2 3.647518 1_555
Ba3 Se12 3.653997 1_555
Ba4 Se19 3.319396 1_554
Ba4 Se12 3.417820 1_555
Ba4 Se16 3.442223 1_555
Ba4 Se6 3.443002 1_554
Ba4 Se9 3.476071 1_555
Ba4 Se8 3.477981 1_555
Ba4 Se4 3.543543 1_555
Ba4 Se17 3.562172 1_555
Ba4 Se1 3.715038 1_555
Ba5 Se18 3.319606 1_545
Ba5 Se13 3.417947 1_555
Ba5 Se17 3.442165 1_555
Ba5 Se7 3.443078 1_455
Ba5 Se8 3.475902 1_455
Ba5 Se9 3.477809 1_555
Ba5 Se5 3.543242 1_545
Ba5 Se16 3.562059 1_455
Ba5 Se0 3.714823 1_555
Ba6 Se17 3.319605 1_556
Ba6 Se14 3.418186 1_555
Ba6 Se18 3.442231 1_555
Ba6 Se4 3.442834 1_556
Ba6 Se11 3.476226 1_555
Ba6 Se10 3.478105 1_555
Ba6 Se6 3.543441 1_555
Ba6 Se19 3.561476 1_555
Ba6 Se3 3.715157 1_555
Ba7 Se16 3.319433 1_565
Ba7 Se15 3.417856 1_555
Ba7 Se19 3.442583 1_555
Ba7 Se5 3.442929 1_655
Ba7 Se10 3.475891 1_655
Ba7 Se11 3.477708 1_555
Ba7 Se7 3.543842 1_565
Ba7 Se18 3.562206 1_655
Ba7 Se2 3.714874 1_555
Se0 Sn2 2.527706 1_555
Se1 Sn3 2.527810 1_544
Se2 Sn0 2.527809 1_555
Se3 Sn1 2.527746 1_566
Se4 Sn3 2.522990 1_554
Se5 Sn2 2.523030 1_555
Se6 Sn1 2.523151 1_556
Se7 Sn0 2.523187 1_555
Se8 Sn0 2.528022 1_555
Se9 Sn1 2.527747 1_555
Se10 Sn2 2.527773 1_555
Se11 Sn3 2.527881 1_555
Se12 Se16 2.406772 1_555
Se12 Sn0 2.613840 1_555
Se13 Se17 2.406766 1_555
Se13 Sn1 2.613750 1_555
Se14 Se18 2.406713 1_555
Se14 Sn2 2.614070 1_555
Se15 Se19 2.406780 1_555
Se15 Sn3 2.614069 1_555
