# generated using pymatgen
data_AgPHNO2
_symmetry_space_group_name_H-M   'P 1'
_cell_length_a   7.96033200
_cell_length_b   10.09197300
_cell_length_c   11.87722721
_cell_angle_alpha   72.96057959
_cell_angle_beta   90.00000000
_cell_angle_gamma   90.00000000
_symmetry_Int_Tables_number   1
_chemical_formula_structural   AgPHNO2
_chemical_formula_sum   'Ag12 P12 H12 N12 O24'
_cell_volume   912.27794599
_cell_formula_units_Z   12
loop_
 _symmetry_equiv_pos_site_id
 _symmetry_equiv_pos_as_xyz
  1  'x, y, z'
loop_
 _atom_site_type_symbol
 _atom_site_label
 _atom_site_symmetry_multiplicity
 _atom_site_fract_x
 _atom_site_fract_y
 _atom_site_fract_z
 _atom_site_occupancy
  Ag  Ag0  1  0.55781400  0.73011200  0.24132700  1
  Ag  Ag1  1  0.05781400  0.76988800  0.75867300  1
  Ag  Ag2  1  0.44218600  0.26988800  0.75867300  1
  Ag  Ag3  1  0.94218600  0.23011200  0.24132700  1
  Ag  Ag4  1  0.57923500  0.43967600  0.14496200  1
  Ag  Ag5  1  0.07923500  0.06032400  0.85503800  1
  Ag  Ag6  1  0.42076500  0.56032400  0.85503800  1
  Ag  Ag7  1  0.92076500  0.93967600  0.14496200  1
  Ag  Ag8  1  0.64624200  0.33799800  0.44177600  1
  Ag  Ag9  1  0.14624200  0.16200200  0.55822400  1
  Ag  Ag10  1  0.35375800  0.66200200  0.55822400  1
  Ag  Ag11  1  0.85375800  0.83799800  0.44177600  1
  P  P0  1  0.94395800  0.57857000  0.26498900  1
  P  P1  1  0.44395800  0.92143000  0.73501100  1
  P  P2  1  0.05604200  0.42143000  0.73501100  1
  P  P3  1  0.55604200  0.07857000  0.26498900  1
  P  P4  1  0.22241000  0.62927500  0.08544400  1
  P  P5  1  0.72240900  0.87072500  0.91455600  1
  P  P6  1  0.77759000  0.37072500  0.91455600  1
  P  P7  1  0.27759000  0.12927500  0.08544400  1
  P  P8  1  0.28096100  0.44963500  0.32919400  1
  P  P9  1  0.78096100  0.05036500  0.67080600  1
  P  P10  1  0.71903900  0.55036500  0.67080600  1
  P  P11  1  0.21903900  0.94963500  0.32919400  1
  H  H0  1  0.93821200  0.64615800  0.05709100  1
  H  H1  1  0.43821200  0.85384200  0.94290900  1
  H  H2  1  0.06178800  0.35384200  0.94290900  1
  H  H3  1  0.56178800  0.14615800  0.05709100  1
  H  H4  1  0.25205300  0.39324100  0.15319100  1
  H  H5  1  0.75205300  0.10675900  0.84680900  1
  H  H6  1  0.74794700  0.60675900  0.84680900  1
  H  H7  1  0.24794700  0.89324100  0.15319100  1
  H  H8  1  0.16427200  0.64096200  0.36160100  1
  H  H9  1  0.66427200  0.85903800  0.63839900  1
  H  H10  1  0.83572800  0.35903800  0.63839900  1
  H  H11  1  0.33572800  0.14096200  0.36160100  1
  N  N0  1  0.02058100  0.63330800  0.12585400  1
  N  N1  1  0.52058100  0.86669200  0.87414600  1
  N  N2  1  0.97941900  0.36669200  0.87414600  1
  N  N3  1  0.47941900  0.13330800  0.12585400  1
  N  N4  1  0.30146900  0.47649300  0.17821700  1
  N  N5  1  0.80146900  0.02350700  0.82178300  1
  N  N6  1  0.69853100  0.52350700  0.82178300  1
  N  N7  1  0.19853100  0.97649300  0.17821700  1
  N  N8  1  0.12173900  0.55175500  0.34447000  1
  N  N9  1  0.62173900  0.94824500  0.65553000  1
  N  N10  1  0.87826100  0.44824500  0.65553000  1
  N  N11  1  0.37826100  0.05175500  0.34447000  1
  O  O0  1  0.84911400  0.69380600  0.29580300  1
  O  O1  1  0.34911400  0.80619400  0.70419700  1
  O  O2  1  0.15088600  0.30619400  0.70419700  1
  O  O3  1  0.65088600  0.19380600  0.29580300  1
  O  O4  1  0.84563800  0.44527000  0.27979000  1
  O  O5  1  0.34563800  0.05473000  0.72021000  1
  O  O6  1  0.15436200  0.55473000  0.72021000  1
  O  O7  1  0.65436200  0.94527000  0.27979000  1
  O  O8  1  0.32418100  0.74706900  0.10706800  1
  O  O9  1  0.82418100  0.75293100  0.89293200  1
  O  O10  1  0.67581900  0.25293100  0.89293200  1
  O  O11  1  0.17581900  0.24706900  0.10706800  1
  O  O12  1  0.21766100  0.61545800  0.96204700  1
  O  O13  1  0.71766100  0.88454200  0.03795300  1
  O  O14  1  0.78233900  0.38454200  0.03795300  1
  O  O15  1  0.28233900  0.11545800  0.96204700  1
  O  O16  1  0.43577100  0.50588200  0.37381100  1
  O  O17  1  0.93577100  0.99411800  0.62618900  1
  O  O18  1  0.56422900  0.49411800  0.62618900  1
  O  O19  1  0.06422900  0.00588200  0.37381100  1
  O  O20  1  0.23882000  0.29710000  0.37768500  1
  O  O21  1  0.73882000  0.20290000  0.62231500  1
  O  O22  1  0.76118000  0.70290000  0.62231500  1
  O  O23  1  0.26118000  0.79710000  0.37768500  1
loop_
_geom_bond_atom_site_label_1
_geom_bond_atom_site_label_2
_geom_bond_distance
_geom_bond_site_symmetry_2
Ag0 O0 2.406448 1_555
Ag0 O8 2.423020 1_555
Ag0 O7 2.468919 1_555
Ag0 O16 2.540439 1_555
Ag0 O13 2.770646 1_555
Ag1 O1 2.406448 1_555
Ag1 O9 2.423020 1_455
Ag1 O6 2.468919 1_555
Ag1 O17 2.540439 1_455
Ag1 O12 2.770646 1_555
Ag2 O2 2.406448 1_555
Ag2 O10 2.423020 1_555
Ag2 O5 2.468919 1_555
Ag2 O18 2.540439 1_555
Ag2 O15 2.770646 1_555
Ag3 O3 2.406448 1_555
Ag3 O11 2.423020 1_655
Ag3 O4 2.468919 1_555
Ag3 O19 2.540439 1_655
Ag3 O14 2.770646 1_555
Ag4 O14 2.225617 1_555
Ag4 N4 2.295446 1_555
Ag4 O3 2.662080 1_555
Ag4 O4 2.667917 1_555
Ag5 O15 2.225617 1_555
Ag5 N5 2.295446 1_455
Ag5 O2 2.662080 1_555
Ag5 O5 2.667917 1_555
Ag6 O12 2.225617 1_555
Ag6 N6 2.295446 1_555
Ag6 O1 2.662080 1_555
Ag6 O6 2.667917 1_555
Ag7 O13 2.225617 1_555
Ag7 N7 2.295446 1_655
Ag7 O0 2.662080 1_555
Ag7 O7 2.667917 1_555
Ag8 O21 2.299267 1_555
Ag8 O16 2.351107 1_555
Ag8 O4 2.484407 1_555
Ag8 O3 2.569710 1_555
Ag9 O20 2.299267 1_555
Ag9 O17 2.351107 1_445
Ag9 O5 2.484407 1_555
Ag9 O2 2.569710 1_555
Ag10 O23 2.299267 1_555
Ag10 O18 2.351107 1_555
Ag10 O6 2.484407 1_555
Ag10 O1 2.569710 1_555
Ag11 O22 2.299267 1_555
Ag11 O19 2.351107 1_665
Ag11 O7 2.484407 1_555
Ag11 O0 2.569710 1_555
H0 N0 1.025519 1_655
H1 N1 1.025519 1_555
H2 N2 1.025519 1_455
H3 N3 1.025519 1_555
H4 N4 1.046588 1_555
H5 N5 1.046588 1_555
H6 N6 1.046588 1_555
H7 N7 1.046588 1_555
H8 N8 1.036282 1_555
H9 N9 1.036282 1_555
H10 N10 1.036282 1_555
H11 N11 1.036282 1_555
N0 P4 1.680688 1_555
N0 P0 1.695013 1_455
N1 P5 1.680680 1_555
N1 P1 1.695013 1_555
N2 P6 1.680688 1_555
N2 P2 1.695013 1_655
N3 P7 1.680688 1_555
N3 P3 1.695013 1_555
N4 P4 1.729708 1_555
N4 P8 1.740917 1_555
N5 P5 1.729711 1_545
N5 P9 1.740917 1_555
N6 P6 1.729708 1_555
N6 P10 1.740917 1_555
N7 P7 1.729708 1_565
N7 P11 1.740917 1_555
N8 P8 1.676628 1_555
N8 P0 1.678528 1_455
N9 P9 1.676628 1_565
N9 P1 1.678528 1_555
N10 P10 1.676628 1_555
N10 P2 1.678528 1_655
N11 P11 1.676628 1_545
N11 P3 1.678528 1_555
O0 P0 1.518509 1_555
O1 P1 1.518509 1_555
O2 P2 1.518509 1_555
O3 P3 1.518509 1_555
O4 P0 1.521377 1_555
O5 P1 1.521377 1_545
O6 P2 1.521377 1_555
O7 P3 1.521377 1_565
O8 P4 1.521313 1_555
O9 P5 1.521317 1_555
O10 P6 1.521313 1_555
O11 P7 1.521313 1_555
O12 P4 1.512835 1_556
O13 P5 1.512834 1_554
O14 P6 1.512835 1_554
O15 P7 1.512835 1_556
O16 P8 1.515913 1_555
O17 P9 1.515913 1_565
O18 P10 1.515913 1_555
O19 P11 1.515913 1_545
O20 P8 1.514705 1_555
O21 P9 1.514705 1_555
O22 P10 1.514705 1_555
O23 P11 1.514705 1_555
