# generated using pymatgen
data_RbMg6Cr
_symmetry_space_group_name_H-M   'P 1'
_cell_length_a   5.24240700
_cell_length_b   6.88267300
_cell_length_c   11.92858600
_cell_angle_alpha   90.00000000
_cell_angle_beta   90.00000000
_cell_angle_gamma   90.00000000
_symmetry_Int_Tables_number   1
_chemical_formula_structural   RbMg6Cr
_chemical_formula_sum   'Rb2 Mg12 Cr2'
_cell_volume   430.40453362
_cell_formula_units_Z   2
loop_
 _symmetry_equiv_pos_site_id
 _symmetry_equiv_pos_as_xyz
  1  'x, y, z'
loop_
 _atom_site_type_symbol
 _atom_site_label
 _atom_site_symmetry_multiplicity
 _atom_site_fract_x
 _atom_site_fract_y
 _atom_site_fract_z
 _atom_site_occupancy
  Rb  Rb0  1  0.00000000  0.50000000  0.33867700  1
  Rb  Rb1  1  0.00000000  0.00000000  0.83867700  1
  Mg  Mg0  1  0.00000000  0.27237700  0.08860100  1
  Mg  Mg1  1  0.00000000  0.72762300  0.08860100  1
  Mg  Mg2  1  0.00000000  0.00000000  0.32962700  1
  Mg  Mg3  1  0.50000000  0.77887500  0.42790800  1
  Mg  Mg4  1  0.50000000  0.22112500  0.42790800  1
  Mg  Mg5  1  0.50000000  0.00000000  0.16408800  1
  Mg  Mg6  1  0.00000000  0.77237700  0.58860100  1
  Mg  Mg7  1  0.00000000  0.22762300  0.58860100  1
  Mg  Mg8  1  0.00000000  0.50000000  0.82962700  1
  Mg  Mg9  1  0.50000000  0.27887500  0.92790800  1
  Mg  Mg10  1  0.50000000  0.72112500  0.92790800  1
  Mg  Mg11  1  0.50000000  0.50000000  0.66408800  1
  Cr  Cr0  1  0.50000000  0.50000000  0.13459000  1
  Cr  Cr1  1  0.50000000  0.00000000  0.63459000  1
loop_
_geom_bond_atom_site_label_1
_geom_bond_atom_site_label_2
_geom_bond_distance
_geom_bond_site_symmetry_2
Mg0 Mg1 3.133309 1_555
Mg0 Mg9 3.247612 1_454
Mg0 Mg9 3.247612 1_554
Mg0 Mg5 3.346036 1_455
Mg0 Mg5 3.346036 1_555
Mg0 Rb0 3.369423 1_555
Mg0 Mg2 3.432292 1_555
Mg0 Mg8 3.463744 1_554
Mg0 Rb1 3.521679 1_554
Mg1 Mg10 3.247612 1_554
Mg1 Mg10 3.247612 1_454
Mg1 Mg5 3.346036 1_465
Mg1 Mg5 3.346036 1_565
Mg1 Rb0 3.369423 1_555
Mg1 Mg2 3.432292 1_565
Mg1 Mg8 3.463744 1_554
Mg1 Rb1 3.521679 1_564
Mg2 Mg4 3.249830 1_555
Mg2 Mg4 3.249830 1_455
Mg2 Mg3 3.249830 1_545
Mg2 Mg3 3.249830 1_445
Mg2 Mg5 3.281758 1_455
Mg2 Mg5 3.281758 1_555
Mg2 Rb0 3.443029 1_545
Mg2 Rb0 3.443029 1_555
Mg2 Mg6 3.463744 1_545
Mg2 Mg7 3.463744 1_555
Mg3 Mg4 3.043862 1_565
Mg3 Mg6 3.247612 1_555
Mg3 Mg6 3.247612 1_655
Mg3 Rb0 3.418738 1_555
Mg3 Rb0 3.418738 1_655
Mg3 Mg5 3.495695 1_565
Mg4 Mg7 3.247612 1_555
Mg4 Mg7 3.247612 1_655
Mg4 Rb0 3.418738 1_555
Mg4 Rb0 3.418738 1_655
Mg4 Mg5 3.495695 1_555
Mg5 Mg9 3.408997 1_554
Mg6 Mg7 3.133309 1_565
Mg6 Rb1 3.369423 1_565
Mg6 Mg8 3.432292 1_555
Mg6 Rb0 3.521679 1_555
Mg7 Rb1 3.369423 1_555
Mg7 Mg8 3.432292 1_555
Mg7 Rb0 3.521679 1_555
Mg8 Mg9 3.249830 1_455
Mg8 Mg9 3.249830 1_555
Mg8 Rb1 3.443029 1_555
Mg8 Rb1 3.443029 1_565
Mg9 Rb1 3.418738 1_655
Mg9 Rb1 3.418738 1_555
Mg10 Mg9 3.043862 1_555
Mg10 Mg8 3.249830 1_555
Mg10 Mg8 3.249830 1_655
Mg10 Mg5 3.408997 1_566
Mg10 Rb1 3.418738 1_565
Mg10 Rb1 3.418738 1_665
Mg10 Mg11 3.495695 1_555
Mg11 Mg8 3.281758 1_555
Mg11 Mg8 3.281758 1_655
Mg11 Mg6 3.346036 1_655
Mg11 Mg7 3.346036 1_555
Mg11 Mg7 3.346036 1_655
Mg11 Mg6 3.346036 1_555
Mg11 Mg4 3.408997 1_555
Mg11 Mg3 3.408997 1_555
Mg11 Mg9 3.495695 1_555
Cr0 Mg9 2.897342 1_554
Cr0 Mg10 2.897342 1_554
Cr0 Mg1 3.102589 1_655
Cr0 Mg0 3.102589 1_555
Cr0 Mg0 3.102589 1_655
Cr0 Mg1 3.102589 1_555
Cr0 Mg5 3.459279 1_565
Cr0 Mg5 3.459279 1_555
Cr0 Rb0 3.577338 1_655
Cr0 Rb0 3.577338 1_555
Cr1 Mg4 2.897342 1_555
Cr1 Mg3 2.897342 1_545
Cr1 Mg7 3.102589 1_655
Cr1 Mg6 3.102589 1_645
Cr1 Mg6 3.102589 1_545
Cr1 Mg7 3.102589 1_555
Cr1 Mg11 3.459279 1_555
Cr1 Mg11 3.459279 1_545
Cr1 Rb1 3.577338 1_655
Cr1 Rb1 3.577338 1_555
