# generated using pymatgen
data_Ca4CrN4
_symmetry_space_group_name_H-M   'P 1'
_cell_length_a   5.90506058
_cell_length_b   6.02871160
_cell_length_c   8.78346950
_cell_angle_alpha   72.21114353
_cell_angle_beta   79.64468351
_cell_angle_gamma   68.40667421
_symmetry_Int_Tables_number   1
_chemical_formula_structural   Ca4CrN4
_chemical_formula_sum   'Ca8 Cr2 N8'
_cell_volume   276.04352396
_cell_formula_units_Z   2
loop_
 _symmetry_equiv_pos_site_id
 _symmetry_equiv_pos_as_xyz
  1  'x, y, z'
loop_
 _atom_site_type_symbol
 _atom_site_label
 _atom_site_symmetry_multiplicity
 _atom_site_fract_x
 _atom_site_fract_y
 _atom_site_fract_z
 _atom_site_occupancy
  Ca  Ca0  1  0.78626180  0.56872916  0.17136369  1
  Ca  Ca1  1  0.21373820  0.43127084  0.82863631  1
  Ca  Ca2  1  0.73292225  0.21736691  0.97527656  1
  Ca  Ca3  1  0.26707775  0.78263309  0.02472344  1
  Ca  Ca4  1  0.73175824  0.48398801  0.57225433  1
  Ca  Ca5  1  0.26824176  0.51601199  0.42774567  1
  Ca  Ca6  1  0.22677060  0.95990196  0.61431689  1
  Ca  Ca7  1  0.77322940  0.04009804  0.38568311  1
  Cr  Cr0  1  0.71608742  0.84753102  0.75428678  1
  Cr  Cr1  1  0.28391258  0.15246898  0.24571322  1
  N  N0  1  0.96461669  0.71076228  0.61163763  1
  N  N1  1  0.03538331  0.28923772  0.38836237  1
  N  N2  1  0.89162361  0.82393438  0.91577285  1
  N  N3  1  0.10837639  0.17606562  0.08422715  1
  N  N4  1  0.52577613  0.63869142  0.80283504  1
  N  N5  1  0.47422387  0.36130858  0.19716496  1
  N  N6  1  0.47264152  0.84185710  0.35045314  1
  N  N7  1  0.52735848  0.15814290  0.64954686  1
loop_
_geom_bond_atom_site_label_1
_geom_bond_atom_site_label_2
_geom_bond_distance
_geom_bond_site_symmetry_2
Ca0 N1 2.420185 1_655
Ca0 N2 2.426131 1_554
Ca0 N5 2.526437 1_555
Ca0 N6 2.627986 1_555
Ca0 N3 2.660297 1_655
Ca1 N0 2.420185 1_455
Ca1 N3 2.426131 1_556
Ca1 N4 2.526437 1_555
Ca1 N7 2.627986 1_555
Ca1 N2 2.660297 1_455
Ca2 N2 2.392194 1_545
Ca2 N5 2.423312 1_556
Ca2 N3 2.470639 1_656
Ca2 N4 2.504126 1_555
Ca3 N3 2.392194 1_565
Ca3 N4 2.423312 1_554
Ca3 N2 2.470639 1_454
Ca3 N5 2.504126 1_555
Ca4 N0 2.392313 1_555
Ca4 N1 2.402128 1_655
Ca4 N4 2.425848 1_555
Ca4 N7 2.532272 1_555
Ca4 N6 2.620121 1_555
Ca5 N1 2.392313 1_555
Ca5 N0 2.402128 1_455
Ca5 N5 2.425848 1_555
Ca5 N6 2.532272 1_555
Ca5 N7 2.620121 1_555
Ca6 N1 2.430082 1_565
Ca6 N4 2.486867 1_555
Ca6 N0 2.529627 1_455
Ca6 N7 2.580603 1_565
Ca6 N6 2.650181 1_555
Ca7 N0 2.430082 1_545
Ca7 N5 2.486867 1_555
Ca7 N1 2.529627 1_655
Ca7 N6 2.580603 1_545
Ca7 N7 2.650181 1_555
Cr0 N7 1.837086 1_565
Cr0 N2 1.844802 1_555
Cr0 N0 1.866303 1_555
Cr0 N4 1.889714 1_555
Cr1 N6 1.837086 1_545
Cr1 N3 1.844802 1_555
Cr1 N1 1.866303 1_555
Cr1 N5 1.889714 1_555
