# generated using pymatgen
data_HfMg14B
_symmetry_space_group_name_H-M   'P 1'
_cell_length_a   6.35746995
_cell_length_b   5.96219574
_cell_length_c   10.10141980
_cell_angle_alpha   90.00000000
_cell_angle_beta   90.00000000
_cell_angle_gamma   117.96374035
_symmetry_Int_Tables_number   1
_chemical_formula_structural   HfMg14B
_chemical_formula_sum   'Hf1 Mg14 B1'
_cell_volume   338.18467126
_cell_formula_units_Z   1
loop_
 _symmetry_equiv_pos_site_id
 _symmetry_equiv_pos_as_xyz
  1  'x, y, z'
loop_
 _atom_site_type_symbol
 _atom_site_label
 _atom_site_symmetry_multiplicity
 _atom_site_fract_x
 _atom_site_fract_y
 _atom_site_fract_z
 _atom_site_occupancy
  Hf  Hf0  1  0.12640532  0.81320216  0.12500000  1
  Mg  Mg0  1  0.15592722  0.32796311  0.62500000  1
  Mg  Mg1  1  0.16483491  0.83241696  0.62500000  1
  Mg  Mg2  1  0.61155670  0.32006006  0.12500000  1
  Mg  Mg3  1  0.66222872  0.32640560  0.62500000  1
  Mg  Mg4  1  0.61155670  0.79149564  0.12500000  1
  Mg  Mg5  1  0.66222872  0.83582213  0.62500000  1
  Mg  Mg6  1  0.33838714  0.16709779  0.36982316  1
  Mg  Mg7  1  0.33838714  0.16709779  0.88017684  1
  Mg  Mg8  1  0.33838714  0.67129035  0.36982316  1
  Mg  Mg9  1  0.33838714  0.67129035  0.88017684  1
  Mg  Mg10  1  0.88445778  0.19222939  0.32607576  1
  Mg  Mg11  1  0.88445778  0.19222939  0.92392424  1
  Mg  Mg12  1  0.83569685  0.66784892  0.37772762  1
  Mg  Mg13  1  0.83569685  0.66784892  0.87227238  1
  B  B0  1  0.21140388  0.35570144  0.12500000  1
loop_
_geom_bond_atom_site_label_1
_geom_bond_atom_site_label_2
_geom_bond_distance
_geom_bond_site_symmetry_2
Hf0 Mg12 3.030185 1_455
Hf0 Mg13 3.030185 1_454
Hf0 Mg8 3.117292 1_555
Hf0 Mg9 3.117292 1_554
Hf0 Mg6 3.117298 1_565
Hf0 Mg7 3.117298 1_564
Hf0 Mg2 3.147098 1_565
Hf0 Mg4 3.147098 1_555
Hf0 Mg2 3.214481 1_455
Hf0 Mg4 3.214482 1_455
Mg0 Mg1 2.981517 1_545
Mg0 Mg1 2.981517 1_555
Mg0 Mg5 3.134329 1_445
Mg0 Mg3 3.134330 1_455
Mg0 Mg7 3.154854 1_555
Mg0 Mg6 3.154854 1_555
Mg0 Mg9 3.154860 1_555
Mg0 Mg8 3.154860 1_555
Mg0 Mg5 3.223161 1_555
Mg0 Mg3 3.223161 1_555
Mg0 Mg11 3.382513 1_455
Mg0 Mg10 3.382513 1_455
Mg1 Mg13 3.107213 1_455
Mg1 Mg12 3.107213 1_455
Mg1 Mg9 3.127075 1_555
Mg1 Mg8 3.127075 1_555
Mg1 Mg7 3.127080 1_565
Mg1 Mg6 3.127080 1_565
Mg1 Mg3 3.152697 1_565
Mg1 Mg5 3.152697 1_555
Mg1 Mg3 3.204874 1_455
Mg1 Mg5 3.204874 1_455
Mg3 Mg5 2.924955 1_545
Mg3 Mg5 3.037241 1_555
Mg3 Mg7 3.154556 1_555
Mg3 Mg6 3.154556 1_555
Mg5 Mg9 3.154556 1_555
Mg5 Mg8 3.154556 1_555
Mg10 Mg12 3.038773 1_555
Mg10 Mg12 3.038773 1_545
Mg11 Mg13 3.038773 1_555
Mg11 Mg13 3.038773 1_545
Mg12 Mg5 3.081233 1_555
Mg12 Mg3 3.081239 1_555
Mg12 Mg6 3.172309 1_555
Mg12 Mg8 3.172310 1_555
Mg12 Mg4 3.174352 1_555
Mg12 Mg2 3.174357 1_555
Mg12 Mg6 3.187269 1_665
Mg12 Mg8 3.187269 1_655
Mg13 Mg5 3.081233 1_555
Mg13 Mg3 3.081239 1_555
Mg13 Mg7 3.172309 1_555
Mg13 Mg9 3.172310 1_555
Mg13 Mg4 3.174352 1_556
Mg13 Mg2 3.174357 1_556
Mg13 Mg7 3.187269 1_665
Mg13 Mg9 3.187269 1_655
B0 Mg4 2.650258 1_555
B0 Mg2 2.650258 1_555
B0 Mg10 2.737879 1_455
B0 Mg11 2.737879 1_454
B0 Mg6 2.980535 1_555
B0 Mg7 2.980535 1_554
B0 Mg8 2.980541 1_555
B0 Mg9 2.980541 1_554
B0 Hf0 3.019063 1_545
B0 Hf0 3.019064 1_555
