# generated using pymatgen
data_DyAgSn
_symmetry_space_group_name_H-M   'P 1'
_cell_length_a   4.83243794
_cell_length_b   4.83243794
_cell_length_c   7.47831800
_cell_angle_alpha   90.00000000
_cell_angle_beta   90.00000000
_cell_angle_gamma   119.99999917
_symmetry_Int_Tables_number   1
_chemical_formula_structural   DyAgSn
_chemical_formula_sum   'Dy2 Ag2 Sn2'
_cell_volume   151.24016225
_cell_formula_units_Z   2
loop_
 _symmetry_equiv_pos_site_id
 _symmetry_equiv_pos_as_xyz
  1  'x, y, z'
loop_
 _atom_site_type_symbol
 _atom_site_label
 _atom_site_symmetry_multiplicity
 _atom_site_fract_x
 _atom_site_fract_y
 _atom_site_fract_z
 _atom_site_occupancy
  Dy  Dy0  1  0.00000000  0.00000000  0.27344400  1
  Dy  Dy1  1  0.00000000  0.00000000  0.72655600  1
  Ag  Ag0  1  0.33333300  0.66666700  0.47613500  1
  Ag  Ag1  1  0.66666700  0.33333300  0.52386500  1
  Sn  Sn0  1  0.66666700  0.33333300  0.93730000  1
  Sn  Sn1  1  0.33333300  0.66666700  0.06270000  1
loop_
_geom_bond_atom_site_label_1
_geom_bond_atom_site_label_2
_geom_bond_distance
_geom_bond_site_symmetry_2
Dy0 Sn1 3.204364 1_545
Dy0 Sn1 3.204367 1_445
Dy0 Sn1 3.204367 1_555
Dy0 Sn0 3.755434 1_454
Dy0 Sn0 3.755437 1_444
Dy0 Sn0 3.755437 1_554
Dy1 Sn0 3.204364 1_455
Dy1 Sn0 3.204367 1_445
Dy1 Sn0 3.204367 1_555
Dy1 Sn1 3.755434 1_546
Dy1 Sn1 3.755437 1_556
Dy1 Sn1 3.755437 1_446
Ag0 Ag1 2.812747 1_455
Ag0 Ag1 2.812747 1_565
Ag0 Ag1 2.812755 1_555
Ag0 Sn1 3.091798 1_555
Ag0 Dy0 3.175177 1_565
Ag0 Dy0 3.175181 1_665
Ag0 Dy0 3.175181 1_555
Ag0 Dy1 3.360245 1_565
Ag0 Dy1 3.360248 1_665
Ag0 Dy1 3.360248 1_555
Ag1 Sn0 3.091798 1_555
Ag1 Dy1 3.175177 1_655
Ag1 Dy1 3.175181 1_665
Ag1 Dy1 3.175181 1_555
Ag1 Dy0 3.360245 1_655
Ag1 Dy0 3.360248 1_665
Ag1 Dy0 3.360248 1_555
Sn0 Sn1 2.943394 1_546
Sn0 Sn1 2.943394 1_656
Sn0 Sn1 2.943402 1_556
