# generated using pymatgen
data_TaNi6Mo
_symmetry_space_group_name_H-M   'P 1'
_cell_length_a   4.20824224
_cell_length_b   4.46162879
_cell_length_c   5.01824181
_cell_angle_alpha   90.00000000
_cell_angle_beta   90.00000000
_cell_angle_gamma   90.00000000
_symmetry_Int_Tables_number   1
_chemical_formula_structural   TaNi6Mo
_chemical_formula_sum   'Ta1 Ni6 Mo1'
_cell_volume   94.22057486
_cell_formula_units_Z   1
loop_
 _symmetry_equiv_pos_site_id
 _symmetry_equiv_pos_as_xyz
  1  'x, y, z'
loop_
 _atom_site_type_symbol
 _atom_site_label
 _atom_site_symmetry_multiplicity
 _atom_site_fract_x
 _atom_site_fract_y
 _atom_site_fract_z
 _atom_site_occupancy
  Ta  Ta0  1  -0.00000000  0.34613063  0.00000000  1
  Ni  Ni0  1  -0.00000000  0.33226498  0.50000000  1
  Ni  Ni1  1  0.50000000  0.67862864  0.00000000  1
  Ni  Ni2  1  0.50000000  0.15636969  0.74570162  1
  Ni  Ni3  1  0.50000000  0.15636969  0.25429838  1
  Ni  Ni4  1  -0.00000000  0.83989398  0.74445204  1
  Ni  Ni5  1  -0.00000000  0.83989398  0.25554796  1
  Mo  Mo0  1  0.50000000  0.65044640  0.50000000  1
loop_
_geom_bond_atom_site_label_1
_geom_bond_atom_site_label_2
_geom_bond_distance
_geom_bond_site_symmetry_2
Ni0 Ta0 2.509883 1_556
Ni0 Ta0 2.509883 1_555
Ni0 Ni5 2.516082 1_545
Ni0 Ni4 2.516082 1_545
Ni0 Ni2 2.561927 1_555
Ni0 Ni2 2.561927 1_455
Ni0 Ni3 2.561927 1_455
Ni0 Ni3 2.561927 1_555
Ni0 Ni4 2.575732 1_555
Ni0 Ni5 2.575732 1_555
Ni1 Ni2 2.484314 1_564
Ni1 Ni3 2.484314 1_565
Ni1 Ni4 2.567015 1_554
Ni1 Ni5 2.567015 1_655
Ni1 Ni5 2.567015 1_555
Ni1 Ni4 2.567015 1_654
Ni1 Ta0 2.574499 1_555
Ni1 Ta0 2.574499 1_655
Ni1 Ni3 2.656689 1_555
Ni1 Ni2 2.656689 1_554
Ni2 Ni3 2.465980 1_555
Ni2 Ni4 2.533989 1_545
Ni2 Ni4 2.533989 1_645
Ni2 Ni3 2.552262 1_556
Ni2 Ta0 2.602430 1_656
Ni2 Ta0 2.602430 1_556
Ni3 Ni5 2.533989 1_545
Ni3 Ni5 2.533989 1_645
Ni3 Ta0 2.602430 1_655
Ni3 Ta0 2.602430 1_555
Ni4 Ni5 2.453439 1_555
Ni4 Ta0 2.549061 1_556
Ni4 Ni5 2.564803 1_556
Ni4 Ta0 2.597308 1_566
Ni5 Ta0 2.549061 1_555
Ni5 Ta0 2.597308 1_565
Mo0 Ni1 2.512269 1_556
Mo0 Ni1 2.512269 1_555
Mo0 Ni2 2.525784 1_555
Mo0 Ni3 2.525784 1_555
Mo0 Ni0 2.538230 1_655
Mo0 Ni0 2.538230 1_555
Mo0 Ni2 2.572043 1_565
Mo0 Ni3 2.572043 1_565
Mo0 Ni4 2.578101 1_555
Mo0 Ni5 2.578101 1_555
Mo0 Ni4 2.578101 1_655
Mo0 Ni5 2.578101 1_655
