# generated using pymatgen
data_CuAs12P4S12Cl
_symmetry_space_group_name_H-M   'P 1'
_cell_length_a   13.79825357
_cell_length_b   13.79825357
_cell_length_c   21.93252100
_cell_angle_alpha   90.00000000
_cell_angle_beta   90.00000000
_cell_angle_gamma   119.99999796
_symmetry_Int_Tables_number   1
_chemical_formula_structural   CuAs12P4S12Cl
_chemical_formula_sum   'Cu4 As48 P16 S48 Cl4'
_cell_volume   3616.32487040
_cell_formula_units_Z   4
loop_
 _symmetry_equiv_pos_site_id
 _symmetry_equiv_pos_as_xyz
  1  'x, y, z'
loop_
 _atom_site_type_symbol
 _atom_site_label
 _atom_site_symmetry_multiplicity
 _atom_site_fract_x
 _atom_site_fract_y
 _atom_site_fract_z
 _atom_site_occupancy
  Cu  Cu0  1  0.33333300  0.66666700  0.06285300  1
  Cu  Cu1  1  0.66666700  0.33333300  0.56285300  1
  Cu  Cu2  1  0.00000000  0.00000000  0.30794800  1
  Cu  Cu3  1  0.00000000  0.00000000  0.80794800  1
  As  As0  1  0.58037100  0.51761900  0.19452000  1
  As  As1  1  0.93724800  0.41962900  0.19452000  1
  As  As2  1  0.48238100  0.06275200  0.19452000  1
  As  As3  1  0.06275200  0.48238100  0.69452000  1
  As  As4  1  0.51761900  0.58037100  0.69452000  1
  As  As5  1  0.41962900  0.93724800  0.69452000  1
  As  As6  1  0.43869800  0.34275200  0.14001200  1
  As  As7  1  0.90405400  0.56130200  0.14001200  1
  As  As8  1  0.65724800  0.09594600  0.14001200  1
  As  As9  1  0.09594600  0.65724800  0.64001200  1
  As  As10  1  0.34275200  0.43869800  0.64001200  1
  As  As11  1  0.56130200  0.90405400  0.64001200  1
  As  As12  1  0.61335800  0.48427400  0.08502600  1
  As  As13  1  0.87091500  0.38664200  0.08502600  1
  As  As14  1  0.51572600  0.12908500  0.08502600  1
  As  As15  1  0.12908500  0.51572600  0.58502600  1
  As  As16  1  0.48427400  0.61335800  0.58502600  1
  As  As17  1  0.38664200  0.87091500  0.58502600  1
  As  As18  1  0.29717700  0.54766600  0.81727900  1
  As  As19  1  0.25048900  0.70282300  0.81727900  1
  As  As20  1  0.45233400  0.74951100  0.81727900  1
  As  As21  1  0.74951100  0.45233400  0.31727900  1
  As  As22  1  0.54766600  0.29717700  0.31727900  1
  As  As23  1  0.70282300  0.25048900  0.31727900  1
  As  As24  1  0.26298400  0.40145100  0.43974900  1
  As  As25  1  0.13846700  0.73701600  0.43974900  1
  As  As26  1  0.59854900  0.86153300  0.43974900  1
  As  As27  1  0.86153300  0.59854900  0.93974900  1
  As  As28  1  0.40145100  0.26298400  0.93974900  1
  As  As29  1  0.73701600  0.13846700  0.93974900  1
  As  As30  1  0.11333200  0.42847200  0.39046500  1
  As  As31  1  0.31514000  0.88666800  0.39046500  1
  As  As32  1  0.57152800  0.68486000  0.39046500  1
  As  As33  1  0.68486000  0.57152800  0.89046500  1
  As  As34  1  0.42847200  0.11333200  0.89046500  1
  As  As35  1  0.88666800  0.31514000  0.89046500  1
  As  As36  1  0.28587800  0.46927200  0.33097200  1
  As  As37  1  0.18339400  0.71412200  0.33097200  1
  As  As38  1  0.53072800  0.81660600  0.33097200  1
  As  As39  1  0.81660600  0.53072800  0.83097200  1
  As  As40  1  0.46927200  0.28587800  0.83097200  1
  As  As41  1  0.71412200  0.18339400  0.83097200  1
  As  As42  1  0.11131700  0.01299000  0.06126200  1
  As  As43  1  0.90167300  0.88868300  0.06126200  1
  As  As44  1  0.98701000  0.09832700  0.06126200  1
  As  As45  1  0.09832700  0.98701000  0.56126200  1
  As  As46  1  0.01299000  0.11131700  0.56126200  1
  As  As47  1  0.88868300  0.90167300  0.56126200  1
  P  P0  1  0.42059700  0.57066400  0.09569000  1
  P  P1  1  0.15006700  0.57940300  0.09569000  1
  P  P2  1  0.42933600  0.84993300  0.09569000  1
  P  P3  1  0.84993300  0.42933600  0.59569000  1
  P  P4  1  0.57066400  0.42059700  0.59569000  1
  P  P5  1  0.57940300  0.15006700  0.59569000  1
  P  P6  1  0.33333300  0.66666700  0.95785200  1
  P  P7  1  0.66666700  0.33333300  0.45785200  1
  P  P8  1  0.10190800  0.18703100  0.34022700  1
  P  P9  1  0.08512300  0.89809200  0.34022700  1
  P  P10  1  0.81296900  0.91487700  0.34022700  1
  P  P11  1  0.91487700  0.81296900  0.84022700  1
  P  P12  1  0.18703100  0.10190800  0.84022700  1
  P  P13  1  0.89809200  0.08512300  0.84022700  1
  P  P14  1  0.00000000  0.00000000  0.20202000  1
  P  P15  1  0.00000000  0.00000000  0.70202000  1
  S  S0  1  0.50039800  0.62464500  0.18043600  1
  S  S1  1  0.12424700  0.49960200  0.18043600  1
  S  S2  1  0.37535500  0.87575300  0.18043600  1
  S  S3  1  0.87575300  0.37535500  0.68043600  1
  S  S4  1  0.62464500  0.50039800  0.68043600  1
  S  S5  1  0.49960200  0.12424700  0.68043600  1
  S  S6  1  0.31755100  0.39655100  0.10669700  1
  S  S7  1  0.07900000  0.68244900  0.10669700  1
  S  S8  1  0.60344900  0.92100000  0.10669700  1
  S  S9  1  0.92100000  0.60344900  0.60669700  1
  S  S10  1  0.39655100  0.31755100  0.60669700  1
  S  S11  1  0.68244900  0.07900000  0.60669700  1
  S  S12  1  0.54864000  0.58610500  0.03732300  1
  S  S13  1  0.03746600  0.45136000  0.03732300  1
  S  S14  1  0.41389500  0.96253400  0.03732300  1
  S  S15  1  0.96253400  0.41389500  0.53732300  1
  S  S16  1  0.58610500  0.54864000  0.53732300  1
  S  S17  1  0.45136000  0.03746600  0.53732300  1
  S  S18  1  0.28705800  0.51096500  0.91841000  1
  S  S19  1  0.22390700  0.71294200  0.91841000  1
  S  S20  1  0.48903500  0.77609300  0.91841000  1
  S  S21  1  0.77609300  0.48903500  0.41841000  1
  S  S22  1  0.51096500  0.28705800  0.41841000  1
  S  S23  1  0.71294200  0.22390700  0.41841000  1
  S  S24  1  0.19028800  0.21535200  0.42265700  1
  S  S25  1  0.02506400  0.80971200  0.42265700  1
  S  S26  1  0.78464800  0.97493600  0.42265700  1
  S  S27  1  0.97493600  0.78464800  0.92265700  1
  S  S28  1  0.21535200  0.19028800  0.92265700  1
  S  S29  1  0.80971200  0.02506400  0.92265700  1
  S  S30  1  0.99543000  0.25223500  0.35697200  1
  S  S31  1  0.25680500  0.00457000  0.35697200  1
  S  S32  1  0.74776500  0.74319500  0.35697200  1
  S  S33  1  0.74319500  0.74776500  0.85697200  1
  S  S34  1  0.25223500  0.99543000  0.85697200  1
  S  S35  1  0.00457000  0.25680500  0.85697200  1
  S  S36  1  0.22285500  0.30480800  0.28051100  1
  S  S37  1  0.08195300  0.77714500  0.28051100  1
  S  S38  1  0.69519200  0.91804700  0.28051100  1
  S  S39  1  0.91804700  0.69519200  0.78051100  1
  S  S40  1  0.30480800  0.22285500  0.78051100  1
  S  S41  1  0.77714500  0.08195300  0.78051100  1
  S  S42  1  0.14607600  0.01797300  0.16191800  1
  S  S43  1  0.87189700  0.85392400  0.16191800  1
  S  S44  1  0.98202700  0.12810300  0.16191800  1
  S  S45  1  0.12810300  0.98202700  0.66191800  1
  S  S46  1  0.01797300  0.14607600  0.66191800  1
  S  S47  1  0.85392400  0.87189700  0.66191800  1
  Cl  Cl0  1  0.66666700  0.33333300  0.18189100  1
  Cl  Cl1  1  0.33333300  0.66666700  0.68189100  1
  Cl  Cl2  1  0.33333300  0.66666700  0.43099400  1
  Cl  Cl3  1  0.66666700  0.33333300  0.93099400  1
loop_
_geom_bond_atom_site_label_1
_geom_bond_atom_site_label_2
_geom_bond_distance
_geom_bond_site_symmetry_2
Cu0 P6 2.302937 1_554
Cu0 P1 2.306134 1_555
Cu0 P2 2.306135 1_555
Cu0 P0 2.306146 1_555
Cu1 P7 2.302937 1_555
Cu1 P5 2.306134 1_555
Cu1 P3 2.306135 1_555
Cu1 P4 2.306146 1_555
Cu2 P14 2.323268 1_555
Cu2 P9 2.347260 1_545
Cu2 P10 2.347260 1_445
Cu2 P8 2.347260 1_555
Cu3 P15 2.323268 1_555
Cu3 P13 2.347260 1_455
Cu3 P11 2.347260 1_445
Cu3 P12 2.347260 1_555
As0 S0 2.263528 1_555
As1 S1 2.263528 1_655
As2 S2 2.263528 1_545
As3 S3 2.263528 1_455
As4 S4 2.263528 1_555
As5 S5 2.263528 1_565
As6 S6 2.262775 1_555
As7 S7 2.262775 1_655
As8 S8 2.262775 1_545
As9 S9 2.262775 1_455
As10 S10 2.262775 1_555
As11 S11 2.262775 1_565
As12 S12 2.262983 1_555
As13 S13 2.263005 1_655
As14 S14 2.263002 1_545
As15 S15 2.263002 1_455
As16 S16 2.262983 1_555
As17 S17 2.263005 1_565
As18 S18 2.263850 1_555
As19 S19 2.263850 1_555
As20 S20 2.263850 1_555
As21 S21 2.263850 1_555
As22 S22 2.263850 1_555
As23 S23 2.263850 1_555
As24 S24 2.272610 1_555
As25 S25 2.272610 1_555
As26 S26 2.272610 1_555
As27 S27 2.272610 1_555
As28 S28 2.272610 1_555
As29 S29 2.272610 1_555
As30 S30 2.267952 1_455
As31 S31 2.267952 1_565
As32 S32 2.267952 1_555
As33 S33 2.267952 1_555
As34 S34 2.267952 1_545
As35 S35 2.267952 1_655
As36 S36 2.271005 1_555
As37 S37 2.271005 1_555
As38 S38 2.271005 1_555
As39 S39 2.271005 1_555
As40 S40 2.271005 1_555
As41 S41 2.271005 1_555
As42 S42 2.252877 1_555
As43 S43 2.252877 1_555
As44 S44 2.252877 1_555
As45 S45 2.252877 1_555
As46 S46 2.252877 1_555
As47 S47 2.252877 1_555
P0 S0 2.098053 1_555
P0 S12 2.104564 1_555
P0 S6 2.106134 1_555
P1 S1 2.098053 1_555
P1 S13 2.104560 1_555
P1 S7 2.106134 1_555
P2 S2 2.098053 1_555
P2 S14 2.104553 1_555
P2 S8 2.106134 1_555
P3 S3 2.098053 1_555
P3 S15 2.104553 1_555
P3 S9 2.106134 1_555
P4 S4 2.098053 1_555
P4 S16 2.104564 1_555
P4 S10 2.106134 1_555
P5 S5 2.098053 1_555
P5 S17 2.104560 1_555
P5 S11 2.106134 1_555
P6 S19 2.097589 1_555
P6 S20 2.097598 1_555
P6 S18 2.097601 1_555
P7 S23 2.097589 1_555
P7 S21 2.097598 1_555
P7 S22 2.097601 1_555
P8 S30 2.103514 1_455
P8 S36 2.104608 1_555
P8 S24 2.105185 1_555
P9 S31 2.103514 1_565
P9 S37 2.104608 1_555
P9 S25 2.105185 1_555
P10 S32 2.103514 1_555
P10 S38 2.104608 1_555
P10 S26 2.105185 1_555
P11 S33 2.103514 1_555
P11 S39 2.104608 1_555
P11 S27 2.105185 1_555
P12 S34 2.103514 1_545
P12 S40 2.104608 1_555
P12 S28 2.105185 1_555
P13 S35 2.103514 1_655
P13 S41 2.104608 1_555
P13 S29 2.105185 1_555
P14 S44 2.097105 1_455
P14 S42 2.097105 1_555
P14 S43 2.097105 1_445
P15 S45 2.097105 1_545
P15 S46 2.097105 1_555
P15 S47 2.097105 1_445
