# generated using pymatgen
data_Li3MnCoO5
_symmetry_space_group_name_H-M   'P 1'
_cell_length_a   3.03484800
_cell_length_b   6.02731884
_cell_length_c   10.21636540
_cell_angle_alpha   97.30367751
_cell_angle_beta   96.99858887
_cell_angle_gamma   95.06858000
_symmetry_Int_Tables_number   1
_chemical_formula_structural   Li3MnCoO5
_chemical_formula_sum   'Li6 Mn2 Co2 O10'
_cell_volume   182.95413112
_cell_formula_units_Z   2
loop_
 _symmetry_equiv_pos_site_id
 _symmetry_equiv_pos_as_xyz
  1  'x, y, z'
loop_
 _atom_site_type_symbol
 _atom_site_label
 _atom_site_symmetry_multiplicity
 _atom_site_fract_x
 _atom_site_fract_y
 _atom_site_fract_z
 _atom_site_occupancy
  Li  Li0  1  0.69706000  0.09807700  0.89678700  1
  Li  Li1  1  0.30294000  0.90192300  0.10321300  1
  Li  Li2  1  0.09591700  0.29299600  0.69621300  1
  Li  Li3  1  0.50000000  0.50000000  0.50000000  1
  Li  Li4  1  0.90408300  0.70700400  0.30378700  1
  Li  Li5  1  0.50000000  0.00000000  0.50000000  1
  Mn  Mn0  1  0.69733500  0.60207000  0.89676000  1
  Mn  Mn1  1  0.30266500  0.39793000  0.10324000  1
  Co  Co0  1  0.90817300  0.18907300  0.30935300  1
  Co  Co1  1  0.09182700  0.81092700  0.69064700  1
  O  O0  1  0.17077700  0.83940500  0.88417600  1
  O  O1  1  0.77254400  0.64120000  0.09262900  1
  O  O2  1  0.57905200  0.03018700  0.69892700  1
  O  O3  1  0.98586900  0.24843300  0.48185500  1
  O  O4  1  0.37310100  0.43542900  0.29545500  1
  O  O5  1  0.22745600  0.35880000  0.90737100  1
  O  O6  1  0.82922300  0.16059500  0.11582400  1
  O  O7  1  0.62689900  0.56457100  0.70454500  1
  O  O8  1  0.01413100  0.75156700  0.51814500  1
  O  O9  1  0.42094800  0.96981300  0.30107300  1
loop_
_geom_bond_atom_site_label_1
_geom_bond_atom_site_label_2
_geom_bond_distance
_geom_bond_site_symmetry_2
Li0 O2 1.992280 1_555
Li0 O0 2.111203 1_545
Li0 O5 2.130644 1_655
Li0 O6 2.202412 1_556
Li0 O5 2.214134 1_555
Li0 O0 2.214582 1_645
Li1 O9 1.992280 1_555
Li1 O6 2.111203 1_565
Li1 O1 2.130644 1_455
Li1 O0 2.202412 1_554
Li1 O1 2.214134 1_555
Li1 O6 2.214582 1_465
Li2 O5 2.124874 1_555
Li2 O2 2.133819 1_455
Li2 O3 2.153129 1_455
Li2 O7 2.179088 1_555
Li2 O2 2.251987 1_555
Li2 O7 2.262396 1_455
Li3 O8 2.051348 1_655
Li3 O3 2.051348 1_455
Li3 O7 2.058463 1_555
Li3 O4 2.058463 1_555
Li3 O8 2.213124 1_555
Li3 O3 2.213124 1_555
Li4 O1 2.124874 1_555
Li4 O9 2.133819 1_655
Li4 O8 2.153129 1_655
Li4 O4 2.179088 1_555
Li4 O9 2.251987 1_555
Li4 O4 2.262396 1_655
Li5 O2 2.000101 1_555
Li5 O9 2.000101 1_545
Li5 O3 2.048863 1_555
Li5 O8 2.048863 1_545
Li5 O8 2.263628 1_645
Li5 O3 2.263628 1_455
Mn0 O7 1.931157 1_555
Mn0 O0 1.963646 1_655
Mn0 O1 1.967534 1_556
Mn0 O5 1.975810 1_555
Mn0 O0 2.239896 1_555
Mn0 O5 2.272615 1_655
Mn1 O4 1.931157 1_555
Mn1 O6 1.963646 1_455
Mn1 O5 1.967534 1_554
Mn1 O1 1.975810 1_555
Mn1 O6 2.239896 1_555
Mn1 O1 2.272615 1_455
Co0 O3 1.735791 1_555
Co0 O9 1.880393 1_545
Co0 O6 1.946034 1_555
Co0 O4 1.986981 1_655
Co0 O9 2.131299 1_645
Co0 O4 2.298997 1_555
Co1 O8 1.735791 1_555
Co1 O2 1.880393 1_565
Co1 O0 1.946034 1_555
Co1 O7 1.986981 1_455
Co1 O2 2.131299 1_465
Co1 O7 2.298997 1_555
