# generated using pymatgen
data_MgTa4Mn4Nb4O24
_symmetry_space_group_name_H-M   'P 1'
_cell_length_a   5.15845193
_cell_length_b   5.99474765
_cell_length_c   14.86031188
_cell_angle_alpha   88.29224163
_cell_angle_beta   91.78817725
_cell_angle_gamma   89.80809301
_symmetry_Int_Tables_number   1
_chemical_formula_structural   MgTa4Mn4Nb4O24
_chemical_formula_sum   'Mg1 Ta4 Mn4 Nb4 O24'
_cell_volume   459.10259563
_cell_formula_units_Z   1
loop_
 _symmetry_equiv_pos_site_id
 _symmetry_equiv_pos_as_xyz
  1  'x, y, z'
loop_
 _atom_site_type_symbol
 _atom_site_label
 _atom_site_symmetry_multiplicity
 _atom_site_fract_x
 _atom_site_fract_y
 _atom_site_fract_z
 _atom_site_occupancy
  Mg  Mg0  1  0.77005683  0.44628528  0.65837124  1
  Ta  Ta0  1  0.27577495  0.65247741  0.16301323  1
  Ta  Ta1  1  0.79038659  0.79524750  0.33132247  1
  Ta  Ta2  1  0.69934694  0.91828152  0.67161009  1
  Ta  Ta3  1  0.21392699  0.68508582  0.83778742  1
  Mn  Mn0  1  0.24515543  0.15584009  0.00274044  1
  Mn  Mn1  1  0.81763328  0.28183870  0.48056356  1
  Mn  Mn2  1  0.74759757  0.81439379  0.00284892  1
  Mn  Mn3  1  0.27544585  0.64239208  0.49996176  1
  Nb  Nb0  1  0.71446579  0.33702084  0.85422891  1
  Nb  Nb1  1  0.25149639  0.16595348  0.66847723  1
  Nb  Nb2  1  0.30182802  0.15160769  0.33502570  1
  Nb  Nb3  1  0.77925239  0.30256675  0.16024897  1
  O  O0  1  0.88065743  0.18067076  0.74857947  1
  O  O1  1  0.41634790  0.40012763  0.75869752  1
  O  O2  1  0.11531161  0.34424233  0.24217780  1
  O  O3  1  0.61948880  0.10500483  0.25461731  1
  O  O4  1  0.10571016  0.83656852  0.25112745  1
  O  O5  1  0.60562309  0.60874299  0.24365515  1
  O  O6  1  0.90248494  0.66145858  0.75551281  1
  O  O7  1  0.40790870  0.89335038  0.76254174  1
  O  O8  1  0.58675022  0.11687952  0.92805788  1
  O  O9  1  0.08046264  0.40762451  0.58249315  1
  O  O10  1  0.43567001  0.35081344  0.41435563  1
  O  O11  1  0.90966125  0.10365719  0.08259572  1
  O  O12  1  0.40725161  0.86049639  0.08375739  1
  O  O13  1  0.93431718  0.58908031  0.41231281  1
  O  O14  1  0.58011952  0.69825361  0.59410554  1
  O  O15  1  0.08278022  0.87617302  0.92026213  1
  O  O16  1  0.05687109  0.40458566  0.90434773  1
  O  O17  1  0.58482152  0.19139968  0.59344625  1
  O  O18  1  0.98272959  0.05770979  0.39347850  1
  O  O19  1  0.44794646  0.38337516  0.10148354  1
  O  O20  1  0.94850009  0.58015746  0.09995732  1
  O  O21  1  0.47883585  0.87120065  0.39594246  1
  O  O22  1  0.05080340  0.94663854  0.60738361  1
  O  O23  1  0.54657969  0.59946508  0.90826817  1
loop_
_geom_bond_atom_site_label_1
_geom_bond_atom_site_label_2
_geom_bond_distance
_geom_bond_site_symmetry_2
Mg0 O14 1.999824 1_555
Mg0 O9 2.003693 1_655
Mg0 O17 2.053948 1_555
Mg0 O6 2.066329 1_555
Mg0 O0 2.115858 1_555
Mg0 O1 2.403535 1_555
Mn0 O8 2.127429 1_554
Mn0 O11 2.147279 1_455
Mn0 O16 2.253110 1_554
Mn0 O15 2.254415 1_544
Mn0 O12 2.254674 1_545
Mn0 O19 2.267382 1_555
Mn1 O18 2.090459 1_555
Mn1 O17 2.150815 1_555
Mn1 O9 2.155891 1_655
Mn1 O13 2.171979 1_555
Mn1 O10 2.206925 1_555
Mn2 O23 2.176394 1_554
Mn2 O15 2.177726 1_654
Mn2 O12 2.180045 1_555
Mn2 O20 2.214571 1_555
Mn2 O8 2.241448 1_564
Mn2 O11 2.276093 1_565
Mn3 O14 2.105624 1_555
Mn3 O9 2.116626 1_555
Mn3 O13 2.186478 1_455
Mn3 O21 2.314314 1_555
Mn3 O10 2.354827 1_555
Mn3 O22 2.737233 1_555
Nb0 O8 1.828643 1_555
Nb0 O16 1.944010 1_655
Nb0 O23 1.994918 1_555
Nb0 O0 2.060246 1_555
Nb0 O1 2.085956 1_555
Nb0 O6 2.608971 1_555
Nb1 O22 1.909487 1_545
Nb1 O9 2.078627 1_555
Nb1 O17 2.081875 1_555
Nb1 O1 2.130808 1_555
Nb1 O7 2.249470 1_545
Nb1 O0 2.287212 1_455
Nb2 O10 1.825137 1_555
Nb2 O18 1.961416 1_455
Nb2 O2 1.994419 1_555
Nb2 O21 2.079972 1_545
Nb2 O3 2.080861 1_555
Nb2 O4 2.493796 1_545
Nb3 O11 1.825123 1_555
Nb3 O19 1.947855 1_555
Nb3 O3 2.007008 1_555
Nb3 O20 2.074566 1_555
Nb3 O2 2.106938 1_655
Nb3 O5 2.429230 1_555
O0 Ta2 2.169683 1_545
O1 Ta3 2.360948 1_555
O2 Ta0 2.329139 1_555
O3 Ta1 2.307543 1_545
O4 Ta0 1.962999 1_555
O4 Ta1 2.057525 1_455
O5 Ta1 1.967759 1_555
O5 Ta0 2.061787 1_555
O6 Ta3 1.996289 1_655
O6 Ta2 2.194580 1_555
O7 Ta3 1.950726 1_555
O7 Ta2 2.055394 1_555
O12 Ta0 1.835797 1_555
O13 Ta1 1.837576 1_555
O14 Ta2 1.869849 1_555
O15 Ta3 1.844510 1_555
O16 Ta3 2.102912 1_555
O17 Ta2 2.053338 1_545
O18 Ta1 2.086395 1_545
O19 Ta0 2.087161 1_555
O20 Ta0 1.961249 1_655
O21 Ta1 1.956974 1_555
O22 Ta2 2.080162 1_455
O23 Ta3 2.038353 1_555
