# generated using pymatgen
data_CaTa2O6
_symmetry_space_group_name_H-M   'P 1'
_cell_length_a   5.37464724
_cell_length_b   7.51218638
_cell_length_c   11.11173257
_cell_angle_alpha   90.00000000
_cell_angle_beta   90.00000000
_cell_angle_gamma   90.00000000
_symmetry_Int_Tables_number   1
_chemical_formula_structural   CaTa2O6
_chemical_formula_sum   'Ca4 Ta8 O24'
_cell_volume   448.64011155
_cell_formula_units_Z   4
loop_
 _symmetry_equiv_pos_site_id
 _symmetry_equiv_pos_as_xyz
  1  'x, y, z'
loop_
 _atom_site_type_symbol
 _atom_site_label
 _atom_site_symmetry_multiplicity
 _atom_site_fract_x
 _atom_site_fract_y
 _atom_site_fract_z
 _atom_site_occupancy
  Ca  Ca0  1  0.45886050  0.75000000  0.04188565  1
  Ca  Ca1  1  0.95886050  0.25000000  0.45811435  1
  Ca  Ca2  1  0.54113950  0.25000000  0.95811435  1
  Ca  Ca3  1  0.04113950  0.75000000  0.54188565  1
  Ta  Ta0  1  0.53756774  0.49422883  0.64120758  1
  Ta  Ta1  1  0.03756774  0.50577117  0.85879242  1
  Ta  Ta2  1  0.46243226  0.99422883  0.35879242  1
  Ta  Ta3  1  0.96243226  0.00577117  0.14120758  1
  Ta  Ta4  1  0.03756774  0.99422883  0.85879242  1
  Ta  Ta5  1  0.53756774  0.00577117  0.64120758  1
  Ta  Ta6  1  0.96243226  0.49422883  0.14120758  1
  Ta  Ta7  1  0.46243226  0.50577117  0.35879242  1
  O  O0  1  0.66365703  0.25000000  0.62186835  1
  O  O1  1  0.16365703  0.75000000  0.87813165  1
  O  O2  1  0.33634297  0.75000000  0.37813165  1
  O  O3  1  0.83634297  0.25000000  0.12186835  1
  O  O4  1  0.44798609  0.75000000  0.64460399  1
  O  O5  1  0.94798609  0.25000000  0.85539601  1
  O  O6  1  0.55201391  0.25000000  0.35539601  1
  O  O7  1  0.05201391  0.75000000  0.14460399  1
  O  O8  1  0.13044027  0.43892281  0.28760802  1
  O  O9  1  0.63044027  0.56107719  0.21239198  1
  O  O10  1  0.86955973  0.93892281  0.71239198  1
  O  O11  1  0.36955973  0.06107719  0.78760802  1
  O  O12  1  0.77104196  0.95922822  0.97598699  1
  O  O13  1  0.27104196  0.04077178  0.52401301  1
  O  O14  1  0.22895804  0.45922822  0.02401301  1
  O  O15  1  0.72895804  0.54077178  0.47598699  1
  O  O16  1  0.22895804  0.04077178  0.02401301  1
  O  O17  1  0.72895804  0.95922822  0.47598699  1
  O  O18  1  0.77104196  0.54077178  0.97598699  1
  O  O19  1  0.27104196  0.45922822  0.52401301  1
  O  O20  1  0.63044027  0.93892281  0.21239198  1
  O  O21  1  0.13044027  0.06107719  0.28760802  1
  O  O22  1  0.36955973  0.43892281  0.78760802  1
  O  O23  1  0.86955973  0.56107719  0.71239198  1
loop_
_geom_bond_atom_site_label_1
_geom_bond_atom_site_label_2
_geom_bond_distance
_geom_bond_site_symmetry_2
Ca0 O18 2.412852 1_554
Ca0 O12 2.412852 1_554
Ca0 O1 2.414178 1_554
Ca0 O7 2.466620 1_555
Ca0 O14 2.517452 1_555
Ca0 O16 2.517452 1_565
Ca0 O9 2.540512 1_555
Ca0 O20 2.540512 1_555
Ca1 O19 2.412852 1_655
Ca1 O13 2.412852 1_655
Ca1 O0 2.414178 1_555
Ca1 O6 2.466620 1_555
Ca1 O15 2.517452 1_555
Ca1 O17 2.517452 1_545
Ca1 O8 2.540512 1_655
Ca1 O21 2.540512 1_655
Ca2 O14 2.412852 1_556
Ca2 O16 2.412852 1_556
Ca2 O3 2.414178 1_556
Ca2 O5 2.466620 1_555
Ca2 O12 2.517452 1_545
Ca2 O18 2.517452 1_555
Ca2 O11 2.540512 1_555
Ca2 O22 2.540512 1_555
Ca3 O17 2.412852 1_455
Ca3 O15 2.412852 1_455
Ca3 O2 2.414178 1_555
Ca3 O4 2.466620 1_555
Ca3 O19 2.517452 1_555
Ca3 O13 2.517452 1_565
Ca3 O23 2.540512 1_455
Ca3 O10 2.540512 1_455
O0 Ta0 1.967621 1_555
O0 Ta5 1.967621 1_555
O1 Ta1 1.967621 1_555
O1 Ta4 1.967621 1_555
O2 Ta7 1.967621 1_555
O2 Ta2 1.967621 1_555
O3 Ta6 1.967621 1_555
O3 Ta3 1.967621 1_555
O4 Ta0 1.981166 1_555
O4 Ta5 1.981166 1_565
O5 Ta1 1.981166 1_655
O5 Ta4 1.981166 1_645
O6 Ta2 1.981166 1_545
O6 Ta7 1.981166 1_555
O7 Ta6 1.981166 1_455
O7 Ta3 1.981166 1_465
O8 Ta6 1.906397 1_455
O8 Ta7 2.015367 1_555
O9 Ta7 1.906397 1_555
O9 Ta6 2.015367 1_555
O10 Ta4 1.906397 1_655
O10 Ta5 2.015367 1_565
O11 Ta5 1.906397 1_555
O11 Ta4 2.015367 1_545
O12 Ta4 1.953702 1_655
O12 Ta3 2.133275 1_566
O13 Ta5 1.953702 1_555
O13 Ta2 2.133275 1_545
O14 Ta6 1.953702 1_455
O14 Ta1 2.133275 1_554
O15 Ta7 1.953702 1_555
O15 Ta0 2.133275 1_555
O16 Ta3 1.953702 1_455
O16 Ta4 2.133275 1_544
O17 Ta2 1.953702 1_555
O17 Ta5 2.133275 1_565
O18 Ta1 1.953702 1_655
O18 Ta6 2.133275 1_556
O19 Ta0 1.953702 1_555
O19 Ta7 2.133275 1_555
O20 Ta2 1.906397 1_555
O20 Ta3 2.015367 1_565
O21 Ta3 1.906397 1_455
O21 Ta2 2.015367 1_545
O22 Ta0 1.906397 1_555
O22 Ta1 2.015367 1_555
O23 Ta1 1.906397 1_655
O23 Ta0 2.015367 1_555
