# generated using pymatgen
data_LuSbPt
_symmetry_space_group_name_H-M   'P 1'
_cell_length_a   4.58437081
_cell_length_b   4.58437061
_cell_length_c   4.58437054
_cell_angle_alpha   59.99998576
_cell_angle_beta   59.99998727
_cell_angle_gamma   59.99998592
_symmetry_Int_Tables_number   1
_chemical_formula_structural   LuSbPt
_chemical_formula_sum   'Lu1 Sb1 Pt1'
_cell_volume   68.12774886
_cell_formula_units_Z   1
loop_
 _symmetry_equiv_pos_site_id
 _symmetry_equiv_pos_as_xyz
  1  'x, y, z'
loop_
 _atom_site_type_symbol
 _atom_site_label
 _atom_site_symmetry_multiplicity
 _atom_site_fract_x
 _atom_site_fract_y
 _atom_site_fract_z
 _atom_site_occupancy
  Lu  Lu0  1  0.50000000  0.50000000  0.50000000  1
  Sb  Sb0  1  -0.00000000  -0.00000000  0.00000000  1
  Pt  Pt0  1  0.25000000  0.25000000  0.25000000  1
loop_
_geom_bond_atom_site_label_1
_geom_bond_atom_site_label_2
_geom_bond_distance
_geom_bond_site_symmetry_2
Lu0 Pt0 2.807342 1_556
Lu0 Pt0 2.807342 1_565
Lu0 Pt0 2.807342 1_655
Lu0 Pt0 2.807343 1_555
Lu0 Sb0 3.241639 1_565
Lu0 Sb0 3.241639 1_656
Lu0 Sb0 3.241639 1_655
Lu0 Sb0 3.241639 1_566
Lu0 Sb0 3.241639 1_556
Lu0 Sb0 3.241639 1_665
Pt0 Sb0 2.807342 1_556
Pt0 Sb0 2.807342 1_565
Pt0 Sb0 2.807342 1_655
Pt0 Sb0 2.807343 1_555
