# generated using pymatgen
data_MgH7C3NO6
_symmetry_space_group_name_H-M   'P 1'
_cell_length_a   12.86496100
_cell_length_b   12.86496071
_cell_length_c   8.18927200
_cell_angle_alpha   90.00000000
_cell_angle_beta   90.00000000
_cell_angle_gamma   119.99999817
_symmetry_Int_Tables_number   1
_chemical_formula_structural   MgH7C3NO6
_chemical_formula_sum   'Mg6 H42 C18 N6 O36'
_cell_volume   1173.79667247
_cell_formula_units_Z   6
loop_
 _symmetry_equiv_pos_site_id
 _symmetry_equiv_pos_as_xyz
  1  'x, y, z'
loop_
 _atom_site_type_symbol
 _atom_site_label
 _atom_site_symmetry_multiplicity
 _atom_site_fract_x
 _atom_site_fract_y
 _atom_site_fract_z
 _atom_site_occupancy
  Mg  Mg0  1  0.00449400  0.33581700  0.08648000  1
  Mg  Mg1  1  0.33132300  0.99550600  0.08648000  1
  Mg  Mg2  1  0.66418300  0.66867700  0.08648000  1
  Mg  Mg3  1  0.99550600  0.66418300  0.58648000  1
  Mg  Mg4  1  0.66867700  0.00449400  0.58648000  1
  Mg  Mg5  1  0.33581700  0.33132300  0.58648000  1
  H  H0  1  0.27309300  0.57882000  0.99429900  1
  H  H1  1  0.30572700  0.72690700  0.99429900  1
  H  H2  1  0.42118000  0.69427300  0.99429900  1
  H  H3  1  0.72690700  0.42118000  0.49429900  1
  H  H4  1  0.69427300  0.27309300  0.49429900  1
  H  H5  1  0.57882000  0.30572700  0.49429900  1
  H  H6  1  0.33333300  0.66666700  0.15858500  1
  H  H7  1  0.66666700  0.33333300  0.65858500  1
  H  H8  1  0.75384300  0.35780600  0.99036500  1
  H  H9  1  0.60396300  0.24615700  0.99036500  1
  H  H10  1  0.64219400  0.39603700  0.99036500  1
  H  H11  1  0.24615700  0.64219400  0.49036500  1
  H  H12  1  0.39603700  0.75384300  0.49036500  1
  H  H13  1  0.35780600  0.60396300  0.49036500  1
  H  H14  1  0.66666700  0.33333300  0.15486400  1
  H  H15  1  0.33333300  0.66666700  0.65486400  1
  H  H16  1  0.93939500  0.02722900  0.68353300  1
  H  H17  1  0.08783400  0.06060500  0.68353300  1
  H  H18  1  0.97277100  0.91216600  0.68353300  1
  H  H19  1  0.06060500  0.97277100  0.18353300  1
  H  H20  1  0.91216600  0.93939500  0.18353300  1
  H  H21  1  0.02722900  0.08783400  0.18353300  1
  H  H22  1  0.00000000  0.00000000  0.51916900  1
  H  H23  1  0.00000000  0.00000000  0.01916900  1
  H  H24  1  0.12241200  0.27668000  0.80747500  1
  H  H25  1  0.15426800  0.87758800  0.80747500  1
  H  H26  1  0.72332000  0.84573200  0.80747500  1
  H  H27  1  0.87758800  0.72332000  0.30747500  1
  H  H28  1  0.84573200  0.12241200  0.30747500  1
  H  H29  1  0.27668000  0.15426800  0.30747500  1
  H  H30  1  0.05531200  0.50358500  0.79701600  1
  H  H31  1  0.44827300  0.94468800  0.79701600  1
  H  H32  1  0.49641500  0.55172700  0.79701600  1
  H  H33  1  0.94468800  0.49641500  0.29701600  1
  H  H34  1  0.55172700  0.05531200  0.29701600  1
  H  H35  1  0.50358500  0.44827300  0.29701600  1
  H  H36  1  0.77808100  0.16253800  0.89201500  1
  H  H37  1  0.38445700  0.22191900  0.89201500  1
  H  H38  1  0.83746200  0.61554300  0.89201500  1
  H  H39  1  0.22191900  0.83746200  0.39201500  1
  H  H40  1  0.61554300  0.77808100  0.39201500  1
  H  H41  1  0.16253800  0.38445700  0.39201500  1
  C  C0  1  0.18591200  0.37346400  0.82619900  1
  C  C1  1  0.18755200  0.81408800  0.82619900  1
  C  C2  1  0.62653600  0.81244800  0.82619900  1
  C  C3  1  0.81408800  0.62653600  0.32619900  1
  C  C4  1  0.81244800  0.18591200  0.32619900  1
  C  C5  1  0.37346400  0.18755200  0.32619900  1
  C  C6  1  0.95914000  0.47113400  0.82003500  1
  C  C7  1  0.51199400  0.04086000  0.82003500  1
  C  C8  1  0.52886600  0.48800600  0.82003500  1
  C  C9  1  0.04086000  0.52886600  0.32003500  1
  C  C10  1  0.48800600  0.95914000  0.32003500  1
  C  C11  1  0.47113400  0.51199400  0.32003500  1
  C  C12  1  0.84668900  0.13811300  0.85949600  1
  C  C13  1  0.29142300  0.15331100  0.85949600  1
  C  C14  1  0.86188700  0.70857700  0.85949600  1
  C  C15  1  0.15331100  0.86188700  0.35949600  1
  C  C16  1  0.70857700  0.84668900  0.35949600  1
  C  C17  1  0.13811300  0.29142300  0.35949600  1
  N  N0  1  0.33333300  0.66666700  0.03363900  1
  N  N1  1  0.66666700  0.33333300  0.53363900  1
  N  N2  1  0.66666700  0.33333300  0.02978800  1
  N  N3  1  0.33333300  0.66666700  0.52978800  1
  N  N4  1  0.00000000  0.00000000  0.64423600  1
  N  N5  1  0.00000000  0.00000000  0.14423600  1
  O  O0  1  0.16150200  0.42462500  0.94147600  1
  O  O1  1  0.26312300  0.83849800  0.94147600  1
  O  O2  1  0.57537500  0.73687700  0.94147600  1
  O  O3  1  0.83849800  0.57537500  0.44147600  1
  O  O4  1  0.73687700  0.16150200  0.44147600  1
  O  O5  1  0.42462500  0.26312300  0.44147600  1
  O  O6  1  0.27623900  0.42567400  0.73335200  1
  O  O7  1  0.14943600  0.72376100  0.73335200  1
  O  O8  1  0.57432600  0.85056400  0.73335200  1
  O  O9  1  0.72376100  0.57432600  0.23335200  1
  O  O10  1  0.85056400  0.27623900  0.23335200  1
  O  O11  1  0.42567400  0.14943600  0.23335200  1
  O  O12  1  0.90970100  0.39753400  0.93762700  1
  O  O13  1  0.48783300  0.09029900  0.93762700  1
  O  O14  1  0.60246600  0.51216700  0.93762700  1
  O  O15  1  0.09029900  0.60246600  0.43762700  1
  O  O16  1  0.51216700  0.90970100  0.43762700  1
  O  O17  1  0.39753400  0.48783300  0.43762700  1
  O  O18  1  0.90601000  0.50984300  0.72974600  1
  O  O19  1  0.60383200  0.09399000  0.72974600  1
  O  O20  1  0.49015700  0.39616800  0.72974600  1
  O  O21  1  0.09399000  0.49015700  0.22974600  1
  O  O22  1  0.39616800  0.90601000  0.22974600  1
  O  O23  1  0.50984300  0.60383200  0.22974600  1
  O  O24  1  0.94068000  0.18024400  0.94556200  1
  O  O25  1  0.23956400  0.05932000  0.94556200  1
  O  O26  1  0.81975600  0.76043600  0.94556200  1
  O  O27  1  0.05932000  0.81975600  0.44556200  1
  O  O28  1  0.76043600  0.94068000  0.44556200  1
  O  O29  1  0.18024400  0.23956400  0.44556200  1
  O  O30  1  0.82491300  0.06899300  0.73690300  1
  O  O31  1  0.24408000  0.17508700  0.73690300  1
  O  O32  1  0.93100700  0.75592000  0.73690300  1
  O  O33  1  0.17508700  0.93100700  0.23690300  1
  O  O34  1  0.75592000  0.82491300  0.23690300  1
  O  O35  1  0.06899300  0.24408000  0.23690300  1
loop_
_geom_bond_atom_site_label_1
_geom_bond_atom_site_label_2
_geom_bond_distance
_geom_bond_site_symmetry_2
Mg0 O21 2.087711 1_555
Mg0 O24 2.090069 1_454
Mg0 O10 2.106633 1_455
Mg0 O0 2.118414 1_554
Mg0 O12 2.138187 1_454
Mg0 O35 2.139661 1_555
Mg1 O22 2.087720 1_555
Mg1 O25 2.090069 1_564
Mg1 O11 2.106632 1_565
Mg1 O1 2.118414 1_554
Mg1 O13 2.138187 1_564
Mg1 O33 2.139661 1_555
Mg2 O23 2.087710 1_555
Mg2 O26 2.090069 1_554
Mg2 O9 2.106623 1_555
Mg2 O2 2.118414 1_554
Mg2 O14 2.138187 1_554
Mg2 O34 2.139661 1_555
Mg3 O18 2.087711 1_555
Mg3 O27 2.090069 1_655
Mg3 O7 2.106633 1_655
Mg3 O3 2.118414 1_555
Mg3 O15 2.138187 1_655
Mg3 O32 2.139661 1_555
Mg4 O19 2.087720 1_555
Mg4 O28 2.090069 1_545
Mg4 O8 2.106632 1_545
Mg4 O4 2.118414 1_555
Mg4 O16 2.138187 1_545
Mg4 O30 2.139661 1_555
Mg5 O20 2.087710 1_555
Mg5 O29 2.090069 1_555
Mg5 O6 2.106623 1_555
Mg5 O5 2.118414 1_555
Mg5 O17 2.138187 1_555
Mg5 O31 2.139661 1_555
H0 N0 1.051561 1_556
H1 N0 1.051552 1_556
H2 N0 1.051563 1_556
H3 N1 1.051561 1_555
H4 N1 1.051552 1_555
H5 N1 1.051563 1_555
H6 N0 1.023217 1_555
H7 N1 1.023217 1_555
H8 N2 1.052640 1_556
H9 N2 1.052643 1_556
H10 N2 1.052652 1_556
H11 N3 1.052640 1_555
H12 N3 1.052643 1_555
H13 N3 1.052652 1_555
H14 N2 1.024281 1_555
H15 N3 1.024281 1_555
H16 N4 1.052283 1_655
H17 N4 1.052283 1_555
H18 N4 1.052283 1_665
H19 N5 1.052283 1_565
H20 N5 1.052283 1_665
H21 N5 1.052283 1_555
H22 N4 1.024208 1_555
H23 N5 1.024208 1_555
C0 H24 1.106362 1_555
C0 O6 1.264565 1_555
C0 O0 1.276604 1_555
C1 H25 1.106362 1_555
C1 O7 1.264566 1_555
C1 O1 1.276604 1_555
C2 H26 1.106362 1_555
C2 O8 1.264557 1_555
C2 O2 1.276604 1_555
C3 H27 1.106362 1_555
C3 O9 1.264565 1_555
C3 O3 1.276604 1_555
C4 H28 1.106362 1_555
C4 O10 1.264566 1_555
C4 O4 1.276604 1_555
C5 H29 1.106362 1_555
C5 O11 1.264557 1_555
C5 O5 1.276604 1_555
C6 H30 1.106383 1_655
C6 O18 1.265814 1_555
C6 O12 1.275227 1_555
C7 H31 1.106383 1_545
C7 O19 1.265805 1_555
C7 O13 1.275227 1_555
C8 H32 1.106383 1_555
C8 O20 1.265804 1_555
C8 O14 1.275227 1_555
C9 H33 1.106383 1_455
C9 O21 1.265814 1_555
C9 O15 1.275227 1_555
C10 H34 1.106383 1_565
C10 O22 1.265805 1_555
C10 O16 1.275227 1_555
C11 H35 1.106383 1_555
C11 O23 1.265804 1_555
C11 O17 1.275227 1_555
C12 H36 1.107275 1_555
C12 O24 1.263840 1_555
C12 O30 1.275932 1_555
C13 H37 1.107284 1_555
C13 O25 1.263839 1_555
C13 O31 1.275924 1_555
C14 H38 1.107287 1_555
C14 O26 1.263830 1_555
C14 O32 1.275930 1_555
C15 H39 1.107275 1_555
C15 O27 1.263840 1_555
C15 O33 1.275932 1_555
C16 H40 1.107284 1_555
C16 O28 1.263839 1_555
C16 O34 1.275924 1_555
C17 H41 1.107287 1_555
C17 O29 1.263830 1_555
C17 O35 1.275930 1_555
