# generated using pymatgen
data_K2Ga3CuSe6
_symmetry_space_group_name_H-M   'P 1'
_cell_length_a   7.91728226
_cell_length_b   7.91728226
_cell_length_c   21.14358850
_cell_angle_alpha   84.63045581
_cell_angle_beta   84.63045581
_cell_angle_gamma   90.13652665
_symmetry_Int_Tables_number   1
_chemical_formula_structural   K2Ga3CuSe6
_chemical_formula_sum   'K8 Ga12 Cu4 Se24'
_cell_volume   1313.66200513
_cell_formula_units_Z   4
loop_
 _symmetry_equiv_pos_site_id
 _symmetry_equiv_pos_as_xyz
  1  'x, y, z'
loop_
 _atom_site_type_symbol
 _atom_site_label
 _atom_site_symmetry_multiplicity
 _atom_site_fract_x
 _atom_site_fract_y
 _atom_site_fract_z
 _atom_site_occupancy
  K  K0  1  0.77732900  0.39310500  0.41980700  1
  K  K1  1  0.23615700  0.10393800  0.58044500  1
  K  K2  1  0.10393800  0.23615700  0.08044500  1
  K  K3  1  0.76384300  0.89606200  0.41955500  1
  K  K4  1  0.39310500  0.77732900  0.91980700  1
  K  K5  1  0.22267100  0.60689500  0.58019300  1
  K  K6  1  0.89606200  0.76384300  0.91955500  1
  K  K7  1  0.60689500  0.22267100  0.08019300  1
  Ga  Ga0  1  0.15456800  0.28098300  0.87929100  1
  Ga  Ga1  1  0.84543200  0.71901700  0.12070900  1
  Ga  Ga2  1  0.71901700  0.84543200  0.62070900  1
  Ga  Ga3  1  0.34610400  0.71988600  0.11969000  1
  Ga  Ga4  1  0.28011400  0.65389600  0.38031000  1
  Ga  Ga5  1  0.65389600  0.28011400  0.88031000  1
  Ga  Ga6  1  0.71988600  0.34610400  0.61969000  1
  Ga  Ga7  1  0.55795500  0.44204500  0.25000000  1
  Ga  Ga8  1  0.44204500  0.55795500  0.75000000  1
  Ga  Ga9  1  0.06831700  0.93168300  0.25000000  1
  Ga  Ga10  1  0.28098300  0.15456800  0.37929100  1
  Ga  Ga11  1  0.93168300  0.06831700  0.75000000  1
  Cu  Cu0  1  0.06450800  0.43783000  0.24978100  1
  Cu  Cu1  1  0.56217000  0.93549200  0.25021900  1
  Cu  Cu2  1  0.93549200  0.56217000  0.75021900  1
  Cu  Cu3  1  0.43783000  0.06450800  0.74978100  1
  Se  Se0  1  0.33235500  0.96618600  0.18065000  1
  Se  Se1  1  0.70972600  0.11239900  0.55073500  1
  Se  Se2  1  0.11239900  0.70972600  0.05073500  1
  Se  Se3  1  0.29027400  0.88760100  0.44926500  1
  Se  Se4  1  0.44233900  0.32937400  0.68032800  1
  Se  Se5  1  0.67062600  0.55766100  0.81967200  1
  Se  Se6  1  0.55766100  0.67062600  0.31967200  1
  Se  Se7  1  0.32937400  0.44233900  0.18032800  1
  Se  Se8  1  0.38583100  0.23598300  0.94954900  1
  Se  Se9  1  0.76401700  0.61416900  0.55045100  1
  Se  Se10  1  0.61416900  0.76401700  0.05045100  1
  Se  Se11  1  0.23598300  0.38583100  0.44954900  1
  Se  Se12  1  0.16796700  0.03546500  0.81760400  1
  Se  Se13  1  0.96453500  0.83203300  0.68239600  1
  Se  Se14  1  0.83203300  0.96453500  0.18239600  1
  Se  Se15  1  0.03546500  0.16796700  0.31760400  1
  Se  Se16  1  0.03381400  0.66764500  0.31935000  1
  Se  Se17  1  0.66764500  0.03381400  0.81935000  1
  Se  Se18  1  0.96618600  0.33235500  0.68065000  1
  Se  Se19  1  0.55732900  0.17210800  0.31763100  1
  Se  Se20  1  0.82789200  0.44267100  0.18236900  1
  Se  Se21  1  0.44267100  0.82789200  0.68236900  1
  Se  Se22  1  0.17210800  0.55732900  0.81763100  1
  Se  Se23  1  0.88760100  0.29027400  0.94926500  1
loop_
_geom_bond_atom_site_label_1
_geom_bond_atom_site_label_2
_geom_bond_distance
_geom_bond_site_symmetry_2
K0 Se1 3.384471 1_555
K0 Se9 3.399388 1_555
K0 Se16 3.415742 1_655
K0 Se15 3.454772 1_655
K0 Se19 3.487075 1_555
K0 Se6 3.488806 1_555
K0 Se11 3.742548 1_655
K1 Se3 3.388276 1_545
K1 Se11 3.389013 1_555
K1 Se4 3.412807 1_555
K1 Se21 3.448053 1_545
K1 Se13 3.485326 1_445
K1 Se18 3.495129 1_455
K1 Se1 3.742600 1_555
K2 Se23 3.388276 1_454
K2 Se8 3.389013 1_554
K2 Se7 3.412807 1_555
K2 Se20 3.448053 1_455
K2 Se14 3.485326 1_445
K2 Se0 3.495129 1_545
K2 Se2 3.742600 1_555
K3 Se1 3.388276 1_565
K3 Se9 3.389013 1_555
K3 Se6 3.412807 1_555
K3 Se19 3.448053 1_565
K3 Se15 3.485326 1_665
K3 Se16 3.495129 1_655
K3 Se3 3.742600 1_555
K4 Se2 3.384471 1_556
K4 Se10 3.399388 1_556
K4 Se17 3.415742 1_565
K4 Se12 3.454772 1_565
K4 Se22 3.487075 1_555
K4 Se5 3.488806 1_555
K4 Se8 3.742548 1_565
K5 Se3 3.384471 1_555
K5 Se11 3.399388 1_555
K5 Se18 3.415742 1_455
K5 Se13 3.454772 1_455
K5 Se21 3.487075 1_555
K5 Se4 3.488806 1_555
K5 Se9 3.742548 1_455
K6 Se2 3.388276 1_656
K6 Se10 3.389013 1_556
K6 Se5 3.412807 1_555
K6 Se22 3.448053 1_655
K6 Se12 3.485326 1_665
K6 Se17 3.495129 1_565
K6 Se23 3.742600 1_555
K7 Se23 3.384471 1_554
K7 Se8 3.399388 1_554
K7 Se0 3.415742 1_545
K7 Se14 3.454772 1_545
K7 Se20 3.487075 1_555
K7 Se7 3.488806 1_555
K7 Se10 3.742548 1_545
Ga0 Se22 2.436538 1_555
Ga0 Se12 2.437314 1_555
Ga0 Se23 2.469353 1_455
Ga0 Se8 2.469664 1_555
Ga1 Se20 2.436538 1_555
Ga1 Se14 2.437314 1_555
Ga1 Se2 2.469353 1_655
Ga1 Se10 2.469664 1_555
Ga2 Se21 2.436538 1_555
Ga2 Se13 2.437314 1_555
Ga2 Se1 2.469353 1_565
Ga2 Se9 2.469664 1_555
Ga3 Se0 2.433292 1_555
Ga3 Se7 2.435062 1_555
Ga3 Se2 2.466147 1_555
Ga3 Se10 2.467558 1_555
Ga4 Se16 2.433292 1_555
Ga4 Se6 2.435062 1_555
Ga4 Se3 2.466147 1_555
Ga4 Se11 2.467558 1_555
Ga5 Se17 2.433292 1_555
Ga5 Se5 2.435062 1_555
Ga5 Se23 2.466147 1_555
Ga5 Se8 2.467558 1_555
Ga6 Se18 2.433292 1_555
Ga6 Se4 2.435062 1_555
Ga6 Se1 2.466147 1_555
Ga6 Se9 2.467558 1_555
Ga7 Se7 2.437944 1_555
Ga7 Se6 2.437944 1_555
Ga7 Se20 2.457429 1_555
Ga7 Se19 2.457429 1_555
Ga8 Se5 2.437944 1_555
Ga8 Se4 2.437944 1_555
Ga8 Se21 2.457429 1_555
Ga8 Se22 2.457429 1_555
Ga9 Se0 2.437897 1_555
Ga9 Se16 2.437897 1_555
Ga9 Se14 2.458379 1_455
Ga9 Se15 2.458379 1_565
Ga10 Se19 2.436538 1_555
Ga10 Se15 2.437314 1_555
Ga10 Se3 2.469353 1_545
Ga10 Se11 2.469664 1_555
Ga11 Se18 2.437897 1_555
Ga11 Se17 2.437897 1_555
Ga11 Se12 2.458379 1_655
Ga11 Se13 2.458379 1_545
Cu0 Se7 2.443093 1_555
Cu0 Se16 2.443245 1_555
Cu0 Se20 2.456086 1_455
Cu0 Se15 2.456986 1_555
Cu1 Se6 2.443093 1_555
Cu1 Se0 2.443245 1_555
Cu1 Se19 2.456086 1_565
Cu1 Se14 2.456986 1_555
Cu2 Se5 2.443093 1_555
Cu2 Se18 2.443245 1_555
Cu2 Se22 2.456086 1_655
Cu2 Se13 2.456986 1_555
Cu3 Se4 2.443093 1_555
Cu3 Se17 2.443245 1_555
Cu3 Se21 2.456086 1_545
Cu3 Se12 2.456986 1_555
