# generated using pymatgen
data_Li2V3SnO8
_symmetry_space_group_name_H-M   'P 1'
_cell_length_a   6.00363197
_cell_length_b   6.00488525
_cell_length_c   10.78491763
_cell_angle_alpha   74.37560531
_cell_angle_beta   89.30783614
_cell_angle_gamma   119.66907266
_symmetry_Int_Tables_number   1
_chemical_formula_structural   Li2V3SnO8
_chemical_formula_sum   'Li4 V6 Sn2 O16'
_cell_volume   320.40255955
_cell_formula_units_Z   2
loop_
 _symmetry_equiv_pos_site_id
 _symmetry_equiv_pos_as_xyz
  1  'x, y, z'
loop_
 _atom_site_type_symbol
 _atom_site_label
 _atom_site_symmetry_multiplicity
 _atom_site_fract_x
 _atom_site_fract_y
 _atom_site_fract_z
 _atom_site_occupancy
  Li  Li0  1  0.94117200  0.87642500  0.18223100  1
  Li  Li1  1  0.44120500  0.87647500  0.68223100  1
  Li  Li2  1  0.55875800  0.12352000  0.31778600  1
  Li  Li3  1  0.05879500  0.12355300  0.81780100  1
  V  V0  1  0.49988300  0.49997500  0.99998300  1
  V  V1  1  0.50003200  0.00000200  0.00001300  1
  V  V2  1  0.99991300  0.50001400  0.00005700  1
  V  V3  1  0.00002100  0.49967800  0.50014000  1
  V  V4  1  0.00003900  0.99998600  0.49994400  1
  V  V5  1  0.50026000  0.50025400  0.49988300  1
  Sn  Sn0  1  0.74985900  0.49987300  0.74999600  1
  Sn  Sn1  1  0.25011300  0.50017500  0.24995900  1
  O  O0  1  0.87575700  0.72405400  0.40037100  1
  O  O1  1  0.37565700  0.72402500  0.90036500  1
  O  O2  1  0.62427100  0.27593800  0.09967000  1
  O  O3  1  0.12435900  0.27599100  0.59961300  1
  O  O4  1  0.10249200  0.73388100  0.61671000  1
  O  O5  1  0.60232900  0.73363200  0.11677900  1
  O  O6  1  0.64921600  0.28087500  0.61672400  1
  O  O7  1  0.14900200  0.28082100  0.11674600  1
  O  O8  1  0.64327600  0.74159800  0.61527500  1
  O  O9  1  0.14341300  0.74168300  0.11534900  1
  O  O10  1  0.85659800  0.25836900  0.88466300  1
  O  O11  1  0.35677100  0.25847000  0.38471200  1
  O  O12  1  0.85093900  0.71915500  0.88326500  1
  O  O13  1  0.35077000  0.71917900  0.38325700  1
  O  O14  1  0.39763400  0.26633700  0.88320000  1
  O  O15  1  0.89746700  0.26606300  0.38327400  1
loop_
_geom_bond_atom_site_label_1
_geom_bond_atom_site_label_2
_geom_bond_distance
_geom_bond_site_symmetry_2
Li0 O9 1.978628 1_655
Li0 O5 2.001436 1_555
Li0 O7 2.001959 1_665
Li0 O0 2.233533 1_555
Li1 O8 1.978830 1_555
Li1 O4 2.001138 1_555
Li1 O6 2.002004 1_565
Li1 O1 2.233459 1_555
Li2 O11 1.978625 1_555
Li2 O15 2.000942 1_555
Li2 O13 2.001707 1_545
Li2 O2 2.233278 1_555
Li3 O10 1.978673 1_455
Li3 O14 2.001141 1_555
Li3 O12 2.001968 1_445
Li3 O3 2.234001 1_555
O0 V3 1.939916 1_655
O0 V5 2.050692 1_555
O0 V4 2.051662 1_655
O1 V0 1.937703 1_555
O1 V2 2.052441 1_456
O1 V1 2.052456 1_566
O2 V0 1.938637 1_554
O2 V2 2.051675 1_555
O2 V1 2.052364 1_555
O3 V3 1.936012 1_555
O3 V4 2.052764 1_545
O3 V5 2.053258 1_555
O4 V3 2.012815 1_555
O4 Sn0 2.101489 1_455
O4 V4 2.103658 1_555
O5 V0 2.012467 1_554
O5 Sn1 2.099302 1_555
O5 V1 2.104208 1_565
O6 V3 2.012360 1_655
O6 Sn0 2.100687 1_555
O6 V5 2.102937 1_555
O7 V0 2.013459 1_554
O7 Sn1 2.101532 1_555
O7 V2 2.102062 1_455
O8 V4 2.036721 1_655
O8 V5 2.037583 1_555
O8 Sn0 2.105565 1_555
O9 V1 2.036134 1_565
O9 V2 2.038239 1_455
O9 Sn1 2.104564 1_555
O10 V1 2.036003 1_556
O10 V2 2.038944 1_556
O10 Sn0 2.105013 1_555
O11 V4 2.036223 1_545
O11 V5 2.037642 1_555
O11 Sn1 2.105956 1_555
O12 V0 2.013994 1_555
O12 Sn0 2.101763 1_555
O12 V2 2.101822 1_556
O13 V3 2.013391 1_555
O13 Sn1 2.100950 1_555
O13 V5 2.102469 1_555
O14 V0 2.012309 1_555
O14 Sn0 2.099458 1_555
O14 V1 2.104663 1_556
O15 V3 2.012883 1_655
O15 Sn1 2.101686 1_655
O15 V4 2.103605 1_645
