# generated using pymatgen
data_Sm2CuGe6
_symmetry_space_group_name_H-M   'P 1'
_cell_length_a   4.10124200
_cell_length_b   4.14610400
_cell_length_c   11.06201349
_cell_angle_alpha   90.00000000
_cell_angle_beta   100.68299781
_cell_angle_gamma   90.00000000
_symmetry_Int_Tables_number   1
_chemical_formula_structural   Sm2CuGe6
_chemical_formula_sum   'Sm2 Cu1 Ge6'
_cell_volume   184.84023780
_cell_formula_units_Z   1
loop_
 _symmetry_equiv_pos_site_id
 _symmetry_equiv_pos_as_xyz
  1  'x, y, z'
loop_
 _atom_site_type_symbol
 _atom_site_label
 _atom_site_symmetry_multiplicity
 _atom_site_fract_x
 _atom_site_fract_y
 _atom_site_fract_z
 _atom_site_occupancy
  Sm  Sm0  1  0.77839400  0.50000000  0.55678700  1
  Sm  Sm1  1  0.11222600  0.50000000  0.22445100  1
  Cu  Cu0  1  0.55659000  0.00000000  0.11318100  1
  Ge  Ge0  1  0.49757100  0.50000000  0.99514100  1
  Ge  Ge1  1  0.38306800  0.50000000  0.76613700  1
  Ge  Ge2  1  0.99738500  0.00000000  0.99477100  1
  Ge  Ge3  1  0.88204200  0.00000000  0.76408500  1
  Ge  Ge4  1  0.66472900  0.00000000  0.32945800  1
  Ge  Ge5  1  0.23499500  0.00000000  0.46999000  1
loop_
_geom_bond_atom_site_label_1
_geom_bond_atom_site_label_2
_geom_bond_distance
_geom_bond_site_symmetry_2
Cu0 Ge4 2.350993 1_555
Cu0 Ge2 2.421116 1_554
Cu0 Ge2 2.421116 1_454
Cu0 Ge0 2.438024 1_554
Cu0 Ge0 2.438024 1_544
Cu0 Sm1 3.156826 1_545
Cu0 Sm1 3.156826 1_555
Cu0 Sm1 3.156832 1_655
Cu0 Sm1 3.156832 1_645
Ge0 Ge1 2.489339 1_555
Ge0 Ge2 2.915920 1_565
Ge0 Ge2 2.915920 1_555
Ge0 Ge2 2.915926 1_465
Ge0 Ge2 2.915926 1_455
Ge0 Sm1 3.227759 1_656
Ge0 Sm1 3.227759 1_556
Ge1 Ge3 2.916006 1_555
Ge1 Ge3 2.916006 1_565
Ge1 Ge3 2.916006 1_455
Ge1 Ge3 2.916006 1_465
Ge1 Sm0 3.063301 1_455
Ge1 Sm0 3.063307 1_555
Ge2 Ge3 2.507623 1_555
Ge2 Sm1 3.245149 1_646
Ge2 Sm1 3.245149 1_656
Ge3 Sm0 3.061912 1_555
Ge3 Sm0 3.061912 1_545
Ge4 Ge5 2.557084 1_555
Ge4 Ge5 2.557084 1_655
Ge4 Sm1 3.131374 1_555
Ge4 Sm1 3.131374 1_545
Ge4 Sm1 3.131377 1_655
Ge4 Sm1 3.131377 1_645
Ge4 Sm0 3.225528 1_555
Ge4 Sm0 3.225528 1_545
Ge5 Sm0 3.064766 1_455
Ge5 Sm0 3.064766 1_445
Ge5 Sm0 3.064769 1_545
Ge5 Sm0 3.064769 1_555
Ge5 Sm1 3.379575 1_555
Ge5 Sm1 3.379575 1_545
