# generated using pymatgen
data_Li9Mn2Co5O16
_symmetry_space_group_name_H-M   'P 1'
_cell_length_a   4.98193200
_cell_length_b   5.94516654
_cell_length_c   9.81456238
_cell_angle_alpha   100.27964884
_cell_angle_beta   93.43928792
_cell_angle_gamma   91.58286014
_symmetry_Int_Tables_number   1
_chemical_formula_structural   Li9Mn2Co5O16
_chemical_formula_sum   'Li9 Mn2 Co5 O16'
_cell_volume   285.29311155
_cell_formula_units_Z   1
loop_
 _symmetry_equiv_pos_site_id
 _symmetry_equiv_pos_as_xyz
  1  'x, y, z'
loop_
 _atom_site_type_symbol
 _atom_site_label
 _atom_site_symmetry_multiplicity
 _atom_site_fract_x
 _atom_site_fract_y
 _atom_site_fract_z
 _atom_site_occupancy
  Li  Li0  1  0.88127900  0.81741500  0.25444800  1
  Li  Li1  1  0.12735700  0.68709100  0.74829600  1
  Li  Li2  1  0.37247400  0.57035800  0.25461500  1
  Li  Li3  1  0.87856400  0.30964300  0.25352700  1
  Li  Li4  1  0.12163100  0.18201300  0.74647800  1
  Li  Li5  1  0.38275000  0.05617500  0.25346100  1
  Li  Li6  1  0.61156000  0.93152200  0.74412000  1
  Li  Li7  1  0.62882200  0.44055800  0.74647700  1
  Li  Li8  1  0.25040500  0.87495900  0.49916500  1
  Mn  Mn0  1  0.00076700  0.99997900  0.99880400  1
  Mn  Mn1  1  0.24795400  0.37226100  0.50207700  1
  Co  Co0  1  0.50060800  0.74786800  0.99997100  1
  Co  Co1  1  0.74989100  0.63060000  0.49970700  1
  Co  Co2  1  0.99960200  0.50071800  0.00121800  1
  Co  Co3  1  0.50057000  0.25373100  0.00008000  1
  Co  Co4  1  0.74331200  0.11812000  0.49813900  1
  O  O0  1  0.69410300  0.03257800  0.11320400  1
  O  O1  1  0.89792500  0.90795200  0.60473100  1
  O  O2  1  0.19647000  0.75600200  0.11822700  1
  O  O3  1  0.69844900  0.53511800  0.11513900  1
  O  O4  1  0.95006700  0.37897500  0.61547500  1
  O  O5  1  0.20005700  0.26294600  0.11756100  1
  O  O6  1  0.44931000  0.17157500  0.60877400  1
  O  O7  1  0.43929300  0.63897000  0.61125600  1
  O  O8  1  0.05893900  0.57481300  0.39407600  1
  O  O9  1  0.30093900  0.46915800  0.88775200  1
  O  O10  1  0.56909600  0.34642700  0.39467600  1
  O  O11  1  0.05557400  0.11049500  0.39027300  1
  O  O12  1  0.30452300  0.96669000  0.88106100  1
  O  O13  1  0.58075400  0.87398400  0.38102700  1
  O  O14  1  0.80418100  0.73563500  0.88168700  1
  O  O15  1  0.80277700  0.24567000  0.88449800  1
loop_
_geom_bond_atom_site_label_1
_geom_bond_atom_site_label_2
_geom_bond_distance
_geom_bond_site_symmetry_2
Li0 O13 1.999979 1_555
Li0 O3 2.112553 1_555
Li0 O2 2.120329 1_655
Li0 O11 2.124987 1_665
Li0 O0 2.229624 1_565
Li0 O8 2.317764 1_655
Li1 O12 2.061055 1_555
Li1 O7 2.108057 1_555
Li1 O14 2.129127 1_455
Li1 O4 2.180633 1_455
Li1 O9 2.202880 1_555
Li1 O1 2.359228 1_455
Li2 O2 2.053950 1_555
Li2 O8 2.135396 1_555
Li2 O3 2.176755 1_555
Li2 O5 2.187374 1_555
Li2 O13 2.194798 1_555
Li2 O10 2.277100 1_555
Li3 O8 2.047557 1_655
Li3 O0 2.099844 1_555
Li3 O11 2.112696 1_655
Li3 O10 2.123834 1_555
Li3 O5 2.138202 1_655
Li3 O3 2.239838 1_555
Li4 O4 2.053198 1_455
Li4 O9 2.134738 1_555
Li4 O15 2.147083 1_455
Li4 O6 2.176182 1_555
Li4 O1 2.176436 1_445
Li4 O12 2.176504 1_545
Li5 O13 2.026984 1_545
Li5 O0 2.126011 1_555
Li5 O5 2.149399 1_555
Li5 O10 2.159624 1_555
Li5 O11 2.168174 1_555
Li5 O2 2.173234 1_545
Li6 O1 2.025661 1_555
Li6 O12 2.086606 1_555
Li6 O7 2.106140 1_555
Li6 O14 2.137179 1_555
Li6 O6 2.250824 1_565
Li6 O15 2.262678 1_565
Li7 O6 2.046517 1_555
Li7 O15 2.098398 1_555
Li7 O4 2.111809 1_555
Li7 O7 2.124662 1_555
Li7 O14 2.132392 1_555
Li7 O9 2.196060 1_555
Li8 O13 2.068833 1_555
Li8 O8 2.070958 1_555
Li8 O6 2.085043 1_565
Li8 O1 2.088153 1_455
Li8 O11 2.128356 1_565
Li8 O7 2.136304 1_555
Mn0 O0 1.943406 1_466
Mn0 O12 1.951758 1_555
Mn0 O14 1.971147 1_455
Mn0 O5 1.978249 1_566
Mn0 O15 2.212862 1_465
Mn0 O2 2.230708 1_556
Mn1 O4 1.904798 1_455
Mn1 O11 1.930411 1_555
Mn1 O7 1.938718 1_555
Mn1 O10 1.962790 1_555
Mn1 O8 1.964396 1_555
Mn1 O6 1.977981 1_555
Co0 O14 1.956242 1_555
Co0 O2 1.959651 1_556
Co0 O9 2.018482 1_555
Co0 O0 2.034532 1_566
Co0 O3 2.072285 1_556
Co0 O12 2.117552 1_555
Co1 O1 1.886865 1_555
Co1 O8 1.911110 1_655
Co1 O7 1.945127 1_555
Co1 O10 1.977655 1_555
Co1 O13 2.170618 1_555
Co1 O4 2.253107 1_555
Co2 O9 1.915894 1_654
Co2 O3 1.918207 1_555
Co2 O15 1.932905 1_554
Co2 O2 1.935133 1_655
Co2 O14 2.190323 1_554
Co2 O5 2.194687 1_655
Co3 O15 1.935300 1_554
Co3 O5 1.939841 1_555
Co3 O3 2.036347 1_555
Co3 O9 2.070651 1_554
Co3 O12 2.071274 1_544
Co3 O0 2.086522 1_555
Co4 O13 1.819779 1_545
Co4 O6 1.875833 1_555
Co4 O1 1.916242 1_545
Co4 O11 1.930617 1_655
Co4 O4 1.980972 1_555
Co4 O10 2.019410 1_555
