# generated using pymatgen
data_NdAl3Pd2
_symmetry_space_group_name_H-M   'P 1'
_cell_length_a   5.45989700
_cell_length_b   5.45989592
_cell_length_c   4.20297352
_cell_angle_alpha   90.00000000
_cell_angle_beta   90.00000000
_cell_angle_gamma   120.00004626
_symmetry_Int_Tables_number   1
_chemical_formula_structural   NdAl3Pd2
_chemical_formula_sum   'Nd1 Al3 Pd2'
_cell_volume   108.50653546
_cell_formula_units_Z   1
loop_
 _symmetry_equiv_pos_site_id
 _symmetry_equiv_pos_as_xyz
  1  'x, y, z'
loop_
 _atom_site_type_symbol
 _atom_site_label
 _atom_site_symmetry_multiplicity
 _atom_site_fract_x
 _atom_site_fract_y
 _atom_site_fract_z
 _atom_site_occupancy
  Nd  Nd0  1  0.00000000  0.00000000  0.00000000  1
  Al  Al0  1  0.00000000  0.50000000  0.50000000  1
  Al  Al1  1  0.50000000  0.50000000  0.50000000  1
  Al  Al2  1  0.50000000  0.00000000  0.50000000  1
  Pd  Pd0  1  0.33333300  0.66666700  0.00000000  1
  Pd  Pd1  1  0.66666700  0.33333300  -0.00000000  1
loop_
_geom_bond_atom_site_label_1
_geom_bond_atom_site_label_2
_geom_bond_distance
_geom_bond_site_symmetry_2
Nd0 Pd1 3.152270 1_455
Nd0 Pd0 3.152270 1_545
Nd0 Pd1 3.152272 1_445
Nd0 Pd0 3.152272 1_555
Nd0 Pd0 3.152273 1_445
Nd0 Pd1 3.152273 1_555
Al0 Pd0 2.626870 1_556
Al0 Pd1 2.626870 1_456
Al0 Pd1 2.626870 1_455
Al0 Pd0 2.626870 1_555
Al0 Al2 2.729946 1_565
Al0 Al2 2.729946 1_455
Al0 Al1 2.729949 1_455
Al0 Al1 2.729949 1_555
Al0 Nd0 3.445122 1_566
Al0 Nd0 3.445122 1_555
Al0 Nd0 3.445122 1_556
Al0 Nd0 3.445122 1_565
Al1 Pd0 2.626873 1_555
Al1 Pd1 2.626873 1_556
Al1 Pd0 2.626873 1_556
Al1 Pd1 2.626873 1_555
Al1 Al2 2.729948 1_565
Al1 Al2 2.729948 1_555
Al1 Nd0 3.445120 1_665
Al1 Nd0 3.445120 1_666
Al1 Nd0 3.445120 1_555
Al1 Nd0 3.445120 1_556
Al2 Pd1 2.626870 1_556
Al2 Pd0 2.626870 1_546
Al2 Pd0 2.626870 1_545
Al2 Pd1 2.626870 1_555
Al2 Nd0 3.445122 1_655
Al2 Nd0 3.445122 1_555
Al2 Nd0 3.445122 1_556
Al2 Nd0 3.445122 1_656
Pd0 Pd1 3.152268 1_565
Pd0 Pd1 3.152268 1_455
Pd0 Pd1 3.152280 1_555
