# generated using pymatgen
data_Ca2VP3H4O13
_symmetry_space_group_name_H-M   'P 1'
_cell_length_a   7.60089000
_cell_length_b   8.78579995
_cell_length_c   9.29117743
_cell_angle_alpha   79.96170477
_cell_angle_beta   66.23675357
_cell_angle_gamma   64.36943634
_symmetry_Int_Tables_number   1
_chemical_formula_structural   Ca2VP3H4O13
_chemical_formula_sum   'Ca4 V2 P6 H8 O26'
_cell_volume   511.98359889
_cell_formula_units_Z   2
loop_
 _symmetry_equiv_pos_site_id
 _symmetry_equiv_pos_as_xyz
  1  'x, y, z'
loop_
 _atom_site_type_symbol
 _atom_site_label
 _atom_site_symmetry_multiplicity
 _atom_site_fract_x
 _atom_site_fract_y
 _atom_site_fract_z
 _atom_site_occupancy
  Ca  Ca0  1  0.22225700  0.01653600  0.56201400  1
  Ca  Ca1  1  0.76120700  0.01653600  0.93798600  1
  Ca  Ca2  1  0.77774300  0.98346400  0.43798600  1
  Ca  Ca3  1  0.23879300  0.98346400  0.06201400  1
  V  V0  1  0.50000000  0.50000000  0.00000000  1
  V  V1  1  0.00000000  0.50000000  0.50000000  1
  P  P0  1  0.60259300  0.79481400  0.75000000  1
  P  P1  1  0.39740700  0.20518600  0.25000000  1
  P  P2  1  0.68289800  0.30111200  0.65232500  1
  P  P3  1  0.01599000  0.30111200  0.84767500  1
  P  P4  1  0.31710200  0.69888700  0.34767500  1
  P  P5  1  0.98401000  0.69888800  0.15232500  1
  H  H0  1  0.41034900  0.38128300  0.57188700  1
  H  H1  1  0.20836800  0.38128300  0.92811300  1
  H  H2  1  0.58965100  0.61871700  0.42811300  1
  H  H3  1  0.79163200  0.61871700  0.07188700  1
  H  H4  1  0.05277200  0.73358000  0.71390700  1
  H  H5  1  0.21364800  0.73358000  0.78609300  1
  H  H6  1  0.94722800  0.26642000  0.28609300  1
  H  H7  1  0.78635200  0.26642000  0.21390700  1
  O  O0  1  0.46804100  0.69078900  0.84309500  1
  O  O1  1  0.84117000  0.69078900  0.65690500  1
  O  O2  1  0.53195900  0.30921100  0.15690500  1
  O  O3  1  0.15883000  0.30921100  0.34309500  1
  O  O4  1  0.51041800  0.90553500  0.62950500  1
  O  O5  1  0.58404600  0.90553500  0.87049500  1
  O  O6  1  0.48958200  0.09446500  0.37049500  1
  O  O7  1  0.41595400  0.09446500  0.12950500  1
  O  O8  1  0.85727200  0.12209300  0.62150600  1
  O  O9  1  0.02063500  0.12209300  0.87849400  1
  O  O10  1  0.14272800  0.87790700  0.37849400  1
  O  O11  1  0.97936500  0.87790700  0.12150600  1
  O  O12  1  0.74307200  0.44390000  0.55439500  1
  O  O13  1  0.81302800  0.44390000  0.94560500  1
  O  O14  1  0.25692800  0.55610000  0.44560500  1
  O  O15  1  0.18697200  0.55610000  0.05439500  1
  O  O16  1  0.58091100  0.33362500  0.83153400  1
  O  O17  1  0.08546400  0.33362500  0.66846600  1
  O  O18  1  0.41908900  0.66637500  0.16846600  1
  O  O19  1  0.91453600  0.66637500  0.33153400  1
  O  O20  1  0.52506000  0.28096600  0.59117300  1
  O  O21  1  0.19397300  0.28096600  0.90882700  1
  O  O22  1  0.47494000  0.71903400  0.40882700  1
  O  O23  1  0.80602700  0.71903400  0.09117300  1
  O  O24  1  0.09740100  0.80519700  0.75000000  1
  O  O25  1  0.90259900  0.19480300  0.25000000  1
loop_
_geom_bond_atom_site_label_1
_geom_bond_atom_site_label_2
_geom_bond_distance
_geom_bond_site_symmetry_2
Ca0 O4 2.277581 1_545
Ca0 O8 2.361971 1_455
Ca0 O6 2.372496 1_555
Ca0 O24 2.541054 1_545
Ca0 O10 2.635887 1_545
Ca0 O22 2.701339 1_545
Ca0 O17 2.728788 1_555
Ca0 O9 2.818586 1_555
Ca0 O3 2.979284 1_555
Ca1 O5 2.277588 1_545
Ca1 O9 2.361971 1_655
Ca1 O7 2.372491 1_556
Ca1 O24 2.541051 1_645
Ca1 O11 2.635887 1_546
Ca1 O23 2.701339 1_546
Ca1 O16 2.728788 1_555
Ca1 O8 2.818586 1_555
Ca1 O2 2.979284 1_556
Ca2 O6 2.277581 1_565
Ca2 O10 2.361971 1_655
Ca2 O4 2.372496 1_555
Ca2 O25 2.541054 1_565
Ca2 O8 2.635887 1_565
Ca2 O20 2.701339 1_565
Ca2 O19 2.728788 1_555
Ca2 O11 2.818586 1_555
Ca2 O1 2.979284 1_555
Ca3 O7 2.277588 1_565
Ca3 O11 2.361971 1_455
Ca3 O5 2.372491 1_554
Ca3 O25 2.541051 1_465
Ca3 O9 2.635887 1_564
Ca3 O21 2.701339 1_564
Ca3 O18 2.728788 1_555
Ca3 O10 2.818586 1_555
Ca3 O0 2.979284 1_554
H0 O20 0.987503 1_555
H1 O21 0.987508 1_555
H2 O22 0.987503 1_555
H3 O23 0.987508 1_555
H4 O24 0.986574 1_555
H5 O24 0.986580 1_555
H6 O25 0.986574 1_555
H7 O25 0.986580 1_555
O0 P0 1.565098 1_555
O0 V0 2.018733 1_556
O1 P0 1.565098 1_555
O1 V1 2.018733 1_655
O2 P1 1.565098 1_555
O2 V0 2.018733 1_555
O3 P1 1.565098 1_555
O3 V1 2.018733 1_555
O4 P0 1.534069 1_555
O5 P0 1.534065 1_555
O6 P1 1.534069 1_555
O7 P1 1.534065 1_555
O8 P2 1.536268 1_555
O9 P3 1.536268 1_555
O10 P4 1.536274 1_555
O11 P5 1.536268 1_555
O12 P2 1.540763 1_555
O12 V1 2.064600 1_655
O13 P3 1.540763 1_655
O13 V0 2.064600 1_556
O14 P4 1.540756 1_555
O14 V1 2.064600 1_555
O15 P5 1.540763 1_455
O15 V0 2.064600 1_555
O16 P2 1.545627 1_555
O16 V0 2.051585 1_556
O17 P3 1.545627 1_555
O17 V1 2.051585 1_555
O18 P4 1.545625 1_555
O18 V0 2.051585 1_555
O19 P5 1.545627 1_555
O19 V1 2.051585 1_655
O20 P2 1.600490 1_555
O21 P3 1.600483 1_555
O22 P4 1.600494 1_555
O23 P5 1.600483 1_555
