# generated using pymatgen
data_Rb3AuCl6
_symmetry_space_group_name_H-M   'P 1'
_cell_length_a   7.80894208
_cell_length_b   7.80893944
_cell_length_c   7.80893725
_cell_angle_alpha   60.00003163
_cell_angle_beta   59.99999811
_cell_angle_gamma   59.99997026
_symmetry_Int_Tables_number   1
_chemical_formula_structural   Rb3AuCl6
_chemical_formula_sum   'Rb3 Au1 Cl6'
_cell_volume   336.71401401
_cell_formula_units_Z   1
loop_
 _symmetry_equiv_pos_site_id
 _symmetry_equiv_pos_as_xyz
  1  'x, y, z'
loop_
 _atom_site_type_symbol
 _atom_site_label
 _atom_site_symmetry_multiplicity
 _atom_site_fract_x
 _atom_site_fract_y
 _atom_site_fract_z
 _atom_site_occupancy
  Rb  Rb0  1  0.75000000  0.75000000  0.75000000  1
  Rb  Rb1  1  0.25000000  0.25000000  0.25000000  1
  Rb  Rb2  1  0.50000000  0.50000000  0.50000000  1
  Au  Au0  1  0.00000000  -0.00000000  0.00000000  1
  Cl  Cl0  1  0.77517430  0.22482570  0.22482570  1
  Cl  Cl1  1  0.22482550  0.22482550  0.77517450  1
  Cl  Cl2  1  0.22482570  0.77517430  0.77517430  1
  Cl  Cl3  1  0.22482565  0.77517435  0.22482565  1
  Cl  Cl4  1  0.77517435  0.22482565  0.77517435  1
  Cl  Cl5  1  0.77517450  0.77517450  0.22482550  1
loop_
_geom_bond_atom_site_label_1
_geom_bond_atom_site_label_2
_geom_bond_distance
_geom_bond_site_symmetry_2
Au0 Cl0 2.482863 1_455
Au0 Cl2 2.482863 1_544
Au0 Cl1 2.482864 1_554
Au0 Cl5 2.482864 1_445
Au0 Cl4 2.482864 1_454
Au0 Cl3 2.482864 1_545
Cl0 Rb2 3.038888 1_555
Cl0 Rb0 3.914356 1_545
Cl0 Rb0 3.914356 1_554
Cl0 Rb1 3.914356 1_555
Cl0 Rb1 3.914356 1_655
Cl1 Rb2 3.038894 1_555
Cl1 Rb1 3.914354 1_555
Cl1 Rb0 3.914354 1_545
Cl1 Rb0 3.914354 1_455
Cl1 Rb1 3.914354 1_556
Cl2 Rb2 3.038888 1_555
Cl2 Rb1 3.914356 1_556
Cl2 Rb1 3.914356 1_565
Cl2 Rb0 3.914356 1_455
Cl2 Rb0 3.914356 1_555
Cl3 Rb2 3.038890 1_555
Cl3 Rb1 3.914355 1_565
Cl3 Rb0 3.914355 1_455
Cl3 Rb0 3.914355 1_554
Cl3 Rb1 3.914355 1_555
Cl4 Rb2 3.038890 1_555
Cl4 Rb1 3.914355 1_556
Cl4 Rb1 3.914355 1_655
Cl4 Rb0 3.914355 1_555
Cl4 Rb0 3.914355 1_545
Cl5 Rb2 3.038894 1_555
Cl5 Rb0 3.914354 1_554
Cl5 Rb1 3.914354 1_655
Cl5 Rb1 3.914354 1_565
Cl5 Rb0 3.914354 1_555
