# generated using pymatgen
data_Ca3SiO
_symmetry_space_group_name_H-M   'P 1'
_cell_length_a   6.65683000
_cell_length_b   6.65683000
_cell_length_c   6.65683000
_cell_angle_alpha   120.06434886
_cell_angle_beta   119.87364332
_cell_angle_gamma   90.05378801
_symmetry_Int_Tables_number   1
_chemical_formula_structural   Ca3SiO
_chemical_formula_sum   'Ca6 Si2 O2'
_cell_volume   208.68400586
_cell_formula_units_Z   2
loop_
 _symmetry_equiv_pos_site_id
 _symmetry_equiv_pos_as_xyz
  1  'x, y, z'
loop_
 _atom_site_type_symbol
 _atom_site_label
 _atom_site_symmetry_multiplicity
 _atom_site_fract_x
 _atom_site_fract_y
 _atom_site_fract_z
 _atom_site_occupancy
  Ca  Ca0  1  0.78392831  0.25000000  0.53392831  1
  Ca  Ca1  1  0.21607169  0.75000000  0.46607169  1
  Ca  Ca2  1  0.26731695  0.26731695  0.50000000  1
  Ca  Ca3  1  0.73268305  0.23268305  -0.00000000  1
  Ca  Ca4  1  0.73268305  0.73268305  0.50000000  1
  Ca  Ca5  1  0.26731695  0.76731695  -0.00000000  1
  Si  Si0  1  0.74886051  0.75000000  0.99886051  1
  Si  Si1  1  0.25113949  0.25000000  0.00113949  1
  O  O0  1  -0.00000000  0.50000000  0.50000000  1
  O  O1  1  0.50000000  0.00000000  0.50000000  1
loop_
_geom_bond_atom_site_label_1
_geom_bond_atom_site_label_2
_geom_bond_distance
_geom_bond_site_symmetry_2
Ca0 O0 2.363298 1_655
Ca0 O1 2.363298 1_555
Ca0 Si1 3.116084 1_656
Ca0 Si0 3.333393 1_544
Ca0 Si0 3.333393 1_555
Ca0 Si1 3.553456 1_555
Ca1 O1 2.363298 1_565
Ca1 O0 2.363298 1_555
Ca1 Si0 3.116084 1_454
Ca1 Si1 3.333393 1_555
Ca1 Si1 3.333393 1_566
Ca1 Si0 3.553456 1_555
Ca2 O0 2.360281 1_555
Ca2 O1 2.360281 1_555
Ca2 Si0 3.211380 1_555
Ca2 Si1 3.211380 1_555
Ca2 Si1 3.449196 1_556
Ca2 Si0 3.449196 1_444
Ca3 O1 2.360281 1_554
Ca3 O0 2.360281 1_655
Ca3 Si1 3.211380 1_555
Ca3 Si0 3.211380 1_544
Ca3 Si1 3.449196 1_655
Ca3 Si0 3.449196 1_554
Ca4 O0 2.360281 1_655
Ca4 O1 2.360281 1_565
Ca4 Si1 3.211380 1_555
Ca4 Si0 3.211380 1_555
Ca4 Si1 3.449196 1_666
Ca4 Si0 3.449196 1_554
Ca5 O0 2.360281 1_554
Ca5 O1 2.360281 1_565
Ca5 Si0 3.211380 1_554
Ca5 Si1 3.211380 1_565
Ca5 Si0 3.449196 1_454
Ca5 Si1 3.449196 1_555
