# generated using pymatgen
data_Bi(SbTe2)3
_symmetry_space_group_name_H-M   'P 1'
_cell_length_a   20.73141068
_cell_length_b   20.73141068
_cell_length_c   20.73141032
_cell_angle_alpha   12.08414614
_cell_angle_beta   12.08414614
_cell_angle_gamma   12.08414683
_symmetry_Int_Tables_number   1
_chemical_formula_structural   Bi(SbTe2)3
_chemical_formula_sum   'Bi1 Sb3 Te6'
_cell_volume   339.43894633
_cell_formula_units_Z   1
loop_
 _symmetry_equiv_pos_site_id
 _symmetry_equiv_pos_as_xyz
  1  'x, y, z'
loop_
 _atom_site_type_symbol
 _atom_site_label
 _atom_site_symmetry_multiplicity
 _atom_site_fract_x
 _atom_site_fract_y
 _atom_site_fract_z
 _atom_site_occupancy
  Bi  Bi0  1  0.19919600  0.19919600  0.19919600  1
  Sb  Sb0  1  0.69898400  0.69898400  0.69898400  1
  Sb  Sb1  1  0.30107300  0.30107300  0.30107300  1
  Sb  Sb2  1  0.80056000  0.80056000  0.80056000  1
  Te  Te0  1  0.60678700  0.60678700  0.60678700  1
  Te  Te1  1  0.10649000  0.10649000  0.10649000  1
  Te  Te2  1  0.89453800  0.89453800  0.89453800  1
  Te  Te3  1  0.39331200  0.39331200  0.39331200  1
  Te  Te4  1  0.00006100  0.00006100  0.00006100  1
  Te  Te5  1  0.49900000  0.49900000  0.49900000  1
loop_
_geom_bond_atom_site_label_1
_geom_bond_atom_site_label_2
_geom_bond_distance
_geom_bond_site_symmetry_2
Bi0 Te2 3.079412 1_445
Bi0 Te2 3.079412 1_454
Bi0 Te2 3.079412 1_544
Bi0 Te5 3.260900 1_554
Bi0 Te5 3.260901 1_545
Bi0 Te5 3.260901 1_455
Sb0 Te3 3.043859 1_556
Sb0 Te3 3.043859 1_655
Sb0 Te3 3.043859 1_565
Sb0 Te4 3.211592 1_665
Sb0 Te4 3.211592 1_566
Sb0 Te4 3.211592 1_656
Sb1 Te0 3.042405 1_554
Sb1 Te0 3.042405 1_455
Sb1 Te0 3.042405 1_545
Sb1 Te4 3.214081 1_556
Sb1 Te4 3.214081 1_565
Sb1 Te4 3.214081 1_655
Sb2 Te1 3.034952 1_665
Sb2 Te1 3.034952 1_566
Sb2 Te1 3.034952 1_656
Sb2 Te5 3.193190 1_556
Sb2 Te5 3.193190 1_565
Sb2 Te5 3.193190 1_655
