# generated using pymatgen
data_Ca2TaNb2O8
_symmetry_space_group_name_H-M   'P 1'
_cell_length_a   5.39588700
_cell_length_b   6.44883086
_cell_length_c   9.96825801
_cell_angle_alpha   104.82987380
_cell_angle_beta   93.28128255
_cell_angle_gamma   92.03167614
_symmetry_Int_Tables_number   1
_chemical_formula_structural   Ca2TaNb2O8
_chemical_formula_sum   'Ca4 Ta2 Nb4 O16'
_cell_volume   334.31185281
_cell_formula_units_Z   2
loop_
 _symmetry_equiv_pos_site_id
 _symmetry_equiv_pos_as_xyz
  1  'x, y, z'
loop_
 _atom_site_type_symbol
 _atom_site_label
 _atom_site_symmetry_multiplicity
 _atom_site_fract_x
 _atom_site_fract_y
 _atom_site_fract_z
 _atom_site_occupancy
  Ca  Ca0  1  0.76533600  0.45147600  0.58556600  1
  Ca  Ca1  1  0.74592100  0.86921300  0.43699800  1
  Ca  Ca2  1  0.23466400  0.54852400  0.41443400  1
  Ca  Ca3  1  0.25407900  0.13078700  0.56300200  1
  Ta  Ta0  1  0.75713200  0.64722700  0.00257300  1
  Ta  Ta1  1  0.24286800  0.35277300  0.99742700  1
  Nb  Nb0  1  0.72387100  0.24112500  0.23770900  1
  Nb  Nb1  1  0.71328200  0.99822000  0.77852700  1
  Nb  Nb2  1  0.27612900  0.75887500  0.76229100  1
  Nb  Nb3  1  0.28671800  0.00178000  0.22147300  1
  O  O0  1  0.08873000  0.22536400  0.13540500  1
  O  O1  1  0.38520200  0.09726200  0.88768700  1
  O  O2  1  0.91127000  0.77463600  0.86459500  1
  O  O3  1  0.61479800  0.90273800  0.11231300  1
  O  O4  1  0.58642400  0.44697000  0.10986800  1
  O  O5  1  0.91558500  0.32879200  0.89814700  1
  O  O6  1  0.41357600  0.55303000  0.89013200  1
  O  O7  1  0.08441500  0.67120800  0.10185300  1
  O  O8  1  0.45735800  0.26221400  0.37590200  1
  O  O9  1  0.04263400  0.89573800  0.64819000  1
  O  O10  1  0.34486900  0.85539300  0.36511400  1
  O  O11  1  0.17234700  0.47412000  0.62653000  1
  O  O12  1  0.65513100  0.14460700  0.63488600  1
  O  O13  1  0.82765300  0.52588000  0.37347000  1
  O  O14  1  0.95736600  0.10426200  0.35181000  1
  O  O15  1  0.54264200  0.73778600  0.62409800  1
loop_
_geom_bond_atom_site_label_1
_geom_bond_atom_site_label_2
_geom_bond_distance
_geom_bond_site_symmetry_2
Ca0 O15 2.201733 1_555
Ca0 O11 2.203491 1_655
Ca0 O12 2.227018 1_555
Ca0 O13 2.324326 1_555
Ca0 O8 2.602333 1_555
Ca1 O13 2.209346 1_555
Ca1 O14 2.228821 1_565
Ca1 O10 2.231715 1_555
Ca1 O12 2.379957 1_565
Ca1 O15 2.525345 1_555
Ca1 O9 2.536709 1_655
Ca2 O8 2.201733 1_555
Ca2 O13 2.203491 1_455
Ca2 O10 2.227018 1_555
Ca2 O11 2.324326 1_555
Ca2 O15 2.602333 1_555
Ca3 O11 2.209346 1_555
Ca3 O9 2.228821 1_545
Ca3 O12 2.231715 1_555
Ca3 O10 2.379957 1_545
Ca3 O8 2.525345 1_555
Ca3 O14 2.536709 1_455
Nb0 O13 2.021226 1_555
Nb0 O14 2.022055 1_555
Nb0 O8 2.031975 1_555
Nb0 O4 2.182598 1_555
Nb0 O3 2.258150 1_545
Nb0 O0 2.262123 1_655
Nb1 O12 1.923887 1_565
Nb1 O15 2.107805 1_555
Nb1 O2 2.143330 1_555
Nb1 O1 2.161203 1_565
Nb1 O9 2.278394 1_655
Nb1 O5 2.354309 1_565
Nb2 O11 2.021226 1_555
Nb2 O9 2.022055 1_555
Nb2 O15 2.031975 1_555
Nb2 O6 2.182598 1_555
Nb2 O1 2.258150 1_565
Nb2 O2 2.262123 1_455
Nb3 O10 1.923887 1_545
Nb3 O8 2.107805 1_555
Nb3 O0 2.143330 1_555
Nb3 O3 2.161203 1_545
Nb3 O14 2.278394 1_455
Nb3 O7 2.354309 1_545
O0 Ta1 1.979785 1_554
O1 Ta1 1.940305 1_555
O2 Ta0 1.979785 1_556
O3 Ta0 1.940305 1_555
O4 Ta1 2.096566 1_554
O4 Ta0 2.096581 1_555
O5 Ta1 1.955565 1_655
O5 Ta0 2.272380 1_556
O6 Ta0 2.096566 1_556
O6 Ta1 2.096581 1_555
O7 Ta0 1.955565 1_455
O7 Ta1 2.272380 1_554
