# generated using pymatgen
data_CuC3N2O5
_symmetry_space_group_name_H-M   'P 1'
_cell_length_a   7.55849200
_cell_length_b   7.79027696
_cell_length_c   8.81754914
_cell_angle_alpha   91.65434342
_cell_angle_beta   110.68723449
_cell_angle_gamma   114.65369262
_symmetry_Int_Tables_number   1
_chemical_formula_structural   CuC3N2O5
_chemical_formula_sum   'Cu2 C6 N4 O10'
_cell_volume   431.86246627
_cell_formula_units_Z   2
loop_
 _symmetry_equiv_pos_site_id
 _symmetry_equiv_pos_as_xyz
  1  'x, y, z'
loop_
 _atom_site_type_symbol
 _atom_site_label
 _atom_site_symmetry_multiplicity
 _atom_site_fract_x
 _atom_site_fract_y
 _atom_site_fract_z
 _atom_site_occupancy
  Cu  Cu0  1  0.14314900  0.10050400  0.12842300  1
  Cu  Cu1  1  0.85685100  0.89949600  0.87157700  1
  C  C0  1  0.79730500  0.77843700  0.18289400  1
  C  C1  1  0.20269500  0.22156300  0.81710600  1
  C  C2  1  0.80498400  0.23834200  0.00365300  1
  C  C3  1  0.19501600  0.76165800  0.99634700  1
  C  C4  1  0.56391100  0.26976900  0.40645700  1
  C  C5  1  0.43608900  0.73023100  0.59354300  1
  N  N0  1  0.66692700  0.15921000  0.44319600  1
  N  N1  1  0.33307300  0.84079000  0.55680400  1
  N  N2  1  0.76382000  0.35102600  0.52761700  1
  N  N3  1  0.23618000  0.64897400  0.47238300  1
  O  O0  1  0.94151800  0.86427900  0.31074400  1
  O  O1  1  0.05848200  0.13572100  0.68925600  1
  O  O2  1  0.95497200  0.33737800  0.12502400  1
  O  O3  1  0.04502800  0.66262200  0.87497600  1
  O  O4  1  0.35042400  0.31137600  0.94246900  1
  O  O5  1  0.64957600  0.68862400  0.05753100  1
  O  O6  1  0.34835300  0.85581400  0.11691800  1
  O  O7  1  0.65164700  0.14418600  0.88308200  1
  O  O8  1  0.40560900  0.28823000  0.32415300  1
  O  O9  1  0.59439100  0.71177000  0.67584700  1
loop_
_geom_bond_atom_site_label_1
_geom_bond_atom_site_label_2
_geom_bond_distance
_geom_bond_site_symmetry_2
Cu0 O8 2.016852 1_555
Cu1 O9 2.016852 1_555
C0 O0 1.177444 1_555
C0 O5 1.178876 1_555
C1 O1 1.177444 1_555
C1 O4 1.178876 1_555
C2 O7 1.177598 1_554
C2 O2 1.179498 1_555
C3 O6 1.177598 1_556
C3 O3 1.179498 1_555
C4 O8 1.230893 1_555
C4 N2 1.359284 1_555
C4 N0 1.360303 1_555
C5 O9 1.230893 1_555
C5 N3 1.359284 1_555
C5 N1 1.360303 1_555
N0 N2 1.400358 1_555
N1 N3 1.400358 1_555
