# generated using pymatgen
data_Ba5Eu5(Fe5O13)2
_symmetry_space_group_name_H-M   'P 1'
_cell_length_a   8.79813939
_cell_length_b   8.95703609
_cell_length_c   8.95271774
_cell_angle_alpha   89.90907744
_cell_angle_beta   114.04677709
_cell_angle_gamma   101.82419431
_symmetry_Int_Tables_number   1
_chemical_formula_structural   Ba5Eu5(Fe5O13)2
_chemical_formula_sum   'Ba5 Eu5 Fe10 O26'
_cell_volume   627.96647198
_cell_formula_units_Z   1
loop_
 _symmetry_equiv_pos_site_id
 _symmetry_equiv_pos_as_xyz
  1  'x, y, z'
loop_
 _atom_site_type_symbol
 _atom_site_label
 _atom_site_symmetry_multiplicity
 _atom_site_fract_x
 _atom_site_fract_y
 _atom_site_fract_z
 _atom_site_occupancy
  Ba  Ba0  1  0.00000000  0.80000000  0.60000000  1
  Ba  Ba1  1  0.00020000  0.60218500  0.19906900  1
  Ba  Ba2  1  0.00311600  0.40241800  0.80202400  1
  Ba  Ba3  1  0.99688400  0.19758200  0.39797600  1
  Ba  Ba4  1  0.99980000  0.99781500  0.00093100  1
  Eu  Eu0  1  0.49990700  0.89538600  0.81172000  1
  Eu  Eu1  1  0.50009300  0.70461400  0.38828000  1
  Eu  Eu2  1  0.50032700  0.51171100  0.00486900  1
  Eu  Eu3  1  0.50000000  0.30000000  0.60000000  1
  Eu  Eu4  1  0.49967300  0.08828900  0.19513100  1
  Fe  Fe0  1  0.75280000  0.65011800  0.79780900  1
  Fe  Fe1  1  0.74977700  0.44645100  0.40010100  1
  Fe  Fe2  1  0.74975300  0.25309900  0.99933800  1
  Fe  Fe3  1  0.75013000  0.05088200  0.60344900  1
  Fe  Fe4  1  0.74011100  0.84789300  0.19632400  1
  Fe  Fe5  1  0.24987000  0.54911800  0.59655100  1
  Fe  Fe6  1  0.25024700  0.34690100  0.20066200  1
  Fe  Fe7  1  0.25022300  0.15354900  0.79989900  1
  Fe  Fe8  1  0.24720000  0.94988200  0.40219100  1
  Fe  Fe9  1  0.25988900  0.75210700  0.00367600  1
  O  O0  1  0.69834100  0.83965100  0.67939900  1
  O  O1  1  0.71654700  0.63482700  0.29130400  1
  O  O2  1  0.69908400  0.43922200  0.87879200  1
  O  O3  1  0.69831700  0.24036300  0.48006600  1
  O  O4  1  0.71649300  0.05173000  0.08211600  1
  O  O5  1  0.30165900  0.76034900  0.52060100  1
  O  O6  1  0.28350700  0.54827000  0.11788400  1
  O  O7  1  0.30168300  0.35963700  0.71993400  1
  O  O8  1  0.30091600  0.16077800  0.32120800  1
  O  O9  1  0.28345300  0.96517300  0.90869600  1
  O  O10  1  0.69963100  0.53897600  0.58070800  1
  O  O11  1  0.69836300  0.33944700  0.17925400  1
  O  O12  1  0.69912400  0.14077000  0.77892100  1
  O  O13  1  0.71674100  0.94841800  0.39527900  1
  O  O14  1  0.71728000  0.73874500  0.97845100  1
  O  O15  1  0.30087600  0.45923000  0.42107900  1
  O  O16  1  0.30163700  0.26055300  0.02074600  1
  O  O17  1  0.30036900  0.06102400  0.61929200  1
  O  O18  1  0.28272000  0.86125500  0.22154900  1
  O  O19  1  0.28325900  0.65158200  0.80472100  1
  O  O20  1  0.00220600  0.69898800  0.89829400  1
  O  O21  1  0.99987100  0.49609600  0.49894200  1
  O  O22  1  0.00000000  0.30000000  0.10000000  1
  O  O23  1  0.00012900  0.10390400  0.70105800  1
  O  O24  1  0.99779400  0.90101200  0.30170600  1
  O  O25  1  0.50000000  0.80000000  0.10000000  1
loop_
_geom_bond_atom_site_label_1
_geom_bond_atom_site_label_2
_geom_bond_distance
_geom_bond_site_symmetry_2
Ba0 O24 2.812128 1_455
Ba0 O20 2.812128 1_555
Ba0 O23 2.869493 1_565
Ba0 O21 2.869493 1_455
Ba0 O9 2.988314 1_555
Ba0 O1 2.988314 1_455
Ba0 O13 2.994131 1_455
Ba0 O19 2.994131 1_555
Ba0 O17 3.094685 1_565
Ba0 O10 3.094685 1_455
Ba0 O0 3.098377 1_455
Ba0 O5 3.098377 1_555
Ba1 O20 2.833388 1_554
Ba1 O24 2.838288 1_455
Ba1 O21 2.847381 1_455
Ba1 O22 2.849067 1_555
Ba1 O14 2.970966 1_454
Ba1 O18 2.972147 1_555
Ba1 O6 2.990866 1_555
Ba1 O1 2.995782 1_455
Ba1 O5 3.094963 1_555
Ba1 O2 3.099780 1_454
Ba1 O11 3.110977 1_455
Ba1 O15 3.111788 1_555
Ba2 O20 2.796588 1_555
Ba2 O23 2.815402 1_555
Ba2 O22 2.828503 1_556
Ba2 O21 2.829647 1_455
Ba2 O19 2.958662 1_555
Ba2 O6 2.965579 1_556
Ba2 O16 3.084745 1_556
Ba2 O10 3.093642 1_455
Ba2 O7 3.094178 1_555
Ba2 O2 3.097830 1_455
Ba2 O12 3.109730 1_455
Ba2 O3 3.118521 1_455
Ba3 O24 2.796588 1_545
Ba3 O21 2.815402 1_555
Ba3 O22 2.828503 1_655
Ba3 O23 2.829647 1_655
Ba3 O13 2.958662 1_545
Ba3 O4 2.965579 1_555
Ba3 O11 3.084745 1_555
Ba3 O17 3.093642 1_655
Ba3 O3 3.094178 1_555
Ba3 O8 3.097830 1_655
Ba3 O15 3.109730 1_655
Ba3 O7 3.118521 1_655
Ba4 O24 2.833388 1_555
Ba4 O20 2.838288 1_654
Ba4 O23 2.847381 1_664
Ba4 O22 2.849067 1_665
Ba4 O18 2.970966 1_655
Ba4 O14 2.972147 1_554
Ba4 O4 2.990866 1_565
Ba4 O9 2.995782 1_654
Ba4 O0 3.094963 1_554
Ba4 O8 3.099780 1_665
Ba4 O16 3.110977 1_665
Ba4 O12 3.111788 1_564
Eu0 O19 2.569668 1_555
Eu0 O9 2.570650 1_555
Eu0 O4 2.571022 1_566
Eu0 O14 2.573077 1_555
Eu0 O5 2.595902 1_555
Eu0 O0 2.597139 1_555
Eu0 O12 2.612999 1_565
Eu0 O17 2.616400 1_565
Eu0 O25 2.717079 1_556
Eu1 O13 2.569668 1_555
Eu1 O1 2.570650 1_555
Eu1 O6 2.571022 1_555
Eu1 O18 2.573077 1_555
Eu1 O0 2.595902 1_555
Eu1 O5 2.597139 1_555
Eu1 O15 2.612999 1_555
Eu1 O10 2.616400 1_555
Eu1 O25 2.717079 1_555
Eu2 O1 2.566040 1_555
Eu2 O6 2.569038 1_555
Eu2 O14 2.571062 1_554
Eu2 O19 2.571425 1_554
Eu2 O16 2.593597 1_555
Eu2 O11 2.594457 1_555
Eu2 O7 2.611367 1_554
Eu2 O2 2.613378 1_554
Eu2 O25 2.721254 1_555
Eu3 O3 2.528487 1_555
Eu3 O7 2.528487 1_555
Eu3 O12 2.529611 1_555
Eu3 O15 2.529611 1_555
Eu3 O17 2.530183 1_555
Eu3 O10 2.530183 1_555
Eu3 O8 2.530741 1_555
Eu3 O2 2.530741 1_555
Eu4 O9 2.566040 1_544
Eu4 O4 2.569038 1_555
Eu4 O18 2.571062 1_545
Eu4 O13 2.571425 1_545
Eu4 O11 2.593597 1_555
Eu4 O16 2.594457 1_555
Eu4 O3 2.611367 1_555
Eu4 O8 2.613378 1_555
Eu4 O25 2.721254 1_545
Fe0 O20 1.953139 1_655
Fe0 O14 1.964922 1_555
Fe0 O10 2.015421 1_555
Fe0 O0 2.036931 1_555
Fe0 O2 2.055813 1_555
Fe1 O21 1.958525 1_555
Fe1 O1 1.961129 1_555
Fe1 O3 2.010582 1_555
Fe1 O11 2.032713 1_555
Fe1 O10 2.057034 1_555
Fe2 O22 1.959917 1_656
Fe2 O4 1.960677 1_556
Fe2 O2 2.012329 1_555
Fe2 O11 2.034174 1_556
Fe2 O12 2.052081 1_555
Fe3 O23 1.958032 1_655
Fe3 O13 1.962319 1_545
Fe3 O12 2.011000 1_555
Fe3 O0 2.035865 1_545
Fe3 O3 2.051626 1_555
Fe4 O25 1.880315 1_555
Fe4 O24 2.018061 1_555
Fe4 O1 2.093933 1_555
Fe4 O4 2.097257 1_565
Fe4 O13 2.098825 1_555
Fe4 O14 2.099300 1_554
Fe5 O21 1.958032 1_455
Fe5 O19 1.962319 1_555
Fe5 O15 2.011000 1_555
Fe5 O5 2.035865 1_555
Fe5 O7 2.051626 1_555
Fe6 O22 1.959917 1_555
Fe6 O6 1.960677 1_555
Fe6 O8 2.012329 1_555
Fe6 O16 2.034174 1_555
Fe6 O15 2.052081 1_555
Fe7 O23 1.958525 1_555
Fe7 O9 1.961129 1_545
Fe7 O7 2.010582 1_555
Fe7 O16 2.032713 1_556
Fe7 O17 2.057034 1_555
Fe8 O24 1.953139 1_455
Fe8 O18 1.964922 1_555
Fe8 O17 2.015421 1_565
Fe8 O5 2.036931 1_555
Fe8 O8 2.055813 1_565
Fe9 O25 1.880315 1_555
Fe9 O20 2.018061 1_554
Fe9 O9 2.093933 1_554
Fe9 O6 2.097257 1_555
Fe9 O19 2.098825 1_554
Fe9 O18 2.099300 1_555
