# generated using pymatgen
data_ScMn6GaGe5
_symmetry_space_group_name_H-M   'P 1'
_cell_length_a   5.10664539
_cell_length_b   5.10698328
_cell_length_c   8.16467600
_cell_angle_alpha   90.00000000
_cell_angle_beta   90.00000000
_cell_angle_gamma   119.99329355
_symmetry_Int_Tables_number   1
_chemical_formula_structural   ScMn6GaGe5
_chemical_formula_sum   'Sc1 Mn6 Ga1 Ge5'
_cell_volume   184.41620020
_cell_formula_units_Z   1
loop_
 _symmetry_equiv_pos_site_id
 _symmetry_equiv_pos_as_xyz
  1  'x, y, z'
loop_
 _atom_site_type_symbol
 _atom_site_label
 _atom_site_symmetry_multiplicity
 _atom_site_fract_x
 _atom_site_fract_y
 _atom_site_fract_z
 _atom_site_occupancy
  Sc  Sc0  1  0.99998200  0.00000100  0.00000000  1
  Mn  Mn0  1  0.00073400  0.50037300  0.24666300  1
  Mn  Mn1  1  0.49961700  0.99924800  0.24666600  1
  Mn  Mn2  1  0.49961900  0.50037200  0.24665700  1
  Mn  Mn3  1  0.00073400  0.50037300  0.75333700  1
  Mn  Mn4  1  0.49961700  0.99924800  0.75333400  1
  Mn  Mn5  1  0.49961900  0.50037200  0.75334300  1
  Ga  Ga0  1  0.66661900  0.33331600  0.50000000  1
  Ge  Ge0  1  0.33332000  0.66667400  0.00000000  1
  Ge  Ge1  1  0.66664000  0.33333700  0.00000000  1
  Ge  Ge2  1  0.99999000  0.00000100  0.33754500  1
  Ge  Ge3  1  0.99999000  0.00000100  0.66245500  1
  Ge  Ge4  1  0.33332000  0.66668200  0.50000000  1
loop_
_geom_bond_atom_site_label_1
_geom_bond_atom_site_label_2
_geom_bond_distance
_geom_bond_site_symmetry_2
Ga0 Mn5 2.541874 1_555
Ga0 Mn2 2.541874 1_555
Ga0 Mn4 2.541961 1_545
Ga0 Mn1 2.541961 1_545
Ga0 Mn0 2.542044 1_655
Ga0 Mn3 2.542044 1_655
Ga0 Ge4 2.948314 1_555
Ga0 Ge4 2.948573 1_545
Ga0 Ge4 2.948674 1_655
Ge0 Mn2 2.493853 1_555
Ge0 Mn5 2.493853 1_554
Ge0 Mn0 2.493912 1_555
Ge0 Mn3 2.493912 1_554
Ge0 Mn1 2.493958 1_555
Ge0 Mn4 2.493958 1_554
Ge0 Sc0 2.948314 1_465
Ge0 Sc0 2.948502 1_565
Ge0 Sc0 2.948745 1_455
Ge1 Mn2 2.497653 1_555
Ge1 Mn5 2.497653 1_554
Ge1 Mn3 2.497852 1_654
Ge1 Mn0 2.497852 1_655
Ge1 Mn1 2.497917 1_545
Ge1 Mn4 2.497917 1_544
Ge1 Sc0 2.948371 1_555
Ge1 Sc0 2.948484 1_455
Ge1 Sc0 2.948706 1_565
Ge2 Ge3 2.652785 1_555
Ge2 Mn1 2.658936 1_545
Ge2 Mn1 2.658969 1_645
Ge2 Mn0 2.659121 1_645
Ge2 Mn0 2.659122 1_655
Ge2 Mn2 2.659302 1_545
Ge2 Mn2 2.659303 1_655
Ge2 Sc0 2.755946 1_555
Ge3 Mn4 2.658936 1_545
Ge3 Mn4 2.658969 1_645
Ge3 Mn3 2.659121 1_645
Ge3 Mn3 2.659122 1_655
Ge3 Mn5 2.659302 1_545
Ge3 Mn5 2.659303 1_655
Ge3 Sc0 2.755946 1_556
Ge4 Mn4 2.538105 1_555
Ge4 Mn1 2.538105 1_555
Ge4 Mn3 2.538119 1_555
Ge4 Mn0 2.538119 1_555
Ge4 Mn2 2.538160 1_555
Ge4 Mn5 2.538160 1_555
