# generated using pymatgen
data_Mn3Zn(IO3)8
_symmetry_space_group_name_H-M   'P 1'
_cell_length_a   5.30978200
_cell_length_b   11.22360150
_cell_length_c   11.25580145
_cell_angle_alpha   119.52723071
_cell_angle_beta   89.97497592
_cell_angle_gamma   90.08552815
_symmetry_Int_Tables_number   1
_chemical_formula_structural   Mn3Zn(IO3)8
_chemical_formula_sum   'Mn3 Zn1 I8 O24'
_cell_volume   583.66651188
_cell_formula_units_Z   1
loop_
 _symmetry_equiv_pos_site_id
 _symmetry_equiv_pos_as_xyz
  1  'x, y, z'
loop_
 _atom_site_type_symbol
 _atom_site_label
 _atom_site_symmetry_multiplicity
 _atom_site_fract_x
 _atom_site_fract_y
 _atom_site_fract_z
 _atom_site_occupancy
  Mn  Mn0  1  0.65173200  0.23929600  0.49315300  1
  Mn  Mn1  1  0.14911900  0.26002000  0.00378600  1
  Mn  Mn2  1  0.64747800  0.73995500  0.99632600  1
  Zn  Zn0  1  0.15963600  0.76026100  0.50704600  1
  I  I0  1  0.23514300  0.41996100  0.34895000  1
  I  I1  1  0.73966500  0.58434300  0.65163800  1
  I  I2  1  0.22523500  0.91254400  0.84579600  1
  I  I3  1  0.72669400  0.08654100  0.15141600  1
  I  I4  1  0.74749400  0.08030100  0.68187100  1
  I  I5  1  0.24188000  0.91431400  0.31785100  1
  I  I6  1  0.24703000  0.41697500  0.81451600  1
  I  I7  1  0.74859100  0.58440900  0.18775800  1
  O  O0  1  0.42432800  0.87979500  0.96019000  1
  O  O1  1  0.92419600  0.11876000  0.03636800  1
  O  O2  1  0.38372500  0.80191500  0.68123600  1
  O  O3  1  0.88655200  0.19745600  0.31483400  1
  O  O4  1  0.38651500  0.30724800  0.18343900  1
  O  O5  1  0.88783100  0.69645200  0.81824500  1
  O  O6  1  0.91889300  0.22104200  0.82347800  1
  O  O7  1  0.41833400  0.77675900  0.17637900  1
  O  O8  1  0.94149500  0.93359200  0.65668800  1
  O  O9  1  0.43523100  0.06151000  0.34390600  1
  O  O10  1  0.37389400  0.07594900  0.88433400  1
  O  O11  1  0.87323400  0.92357800  0.11485500  1
  O  O12  1  0.42444700  0.28016700  0.67296200  1
  O  O13  1  0.92888600  0.72102900  0.32912200  1
  O  O14  1  0.36503800  0.39429100  0.95545200  1
  O  O15  1  0.86500200  0.60677900  0.04626800  1
  O  O16  1  0.43405900  0.56603100  0.84026100  1
  O  O17  1  0.93369800  0.43422400  0.15999500  1
  O  O18  1  0.37717000  0.58416200  0.38313200  1
  O  O19  1  0.88176000  0.42126100  0.61845900  1
  O  O20  1  0.44976400  0.38761800  0.45841600  1
  O  O21  1  0.95408800  0.61606800  0.54114600  1
  O  O22  1  0.86329200  0.10398000  0.54126600  1
  O  O23  1  0.35847100  0.89141500  0.45945900  1
loop_
_geom_bond_atom_site_label_1
_geom_bond_atom_site_label_2
_geom_bond_distance
_geom_bond_site_symmetry_2
Mn0 O22 2.162874 1_555
Mn0 O20 2.172887 1_555
Mn0 O19 2.192468 1_555
Mn0 O9 2.194534 1_555
Mn0 O12 2.201690 1_555
Mn0 O3 2.207761 1_555
Mn1 O1 2.154424 1_455
Mn1 O14 2.164228 1_554
Mn1 O10 2.183657 1_554
Mn1 O17 2.199786 1_455
Mn1 O4 2.214192 1_555
Mn1 O6 2.220386 1_454
Mn2 O0 2.160541 1_555
Mn2 O15 2.172124 1_556
Mn2 O11 2.179006 1_556
Mn2 O16 2.189899 1_555
Mn2 O5 2.218083 1_555
Mn2 O7 2.220914 1_556
I0 O20 1.841711 1_555
I0 O4 1.842752 1_555
I0 O18 1.846707 1_555
I1 O19 1.840946 1_555
I1 O5 1.841582 1_555
I1 O21 1.844947 1_555
I2 O0 1.838312 1_555
I2 O10 1.840269 1_565
I2 O2 1.848134 1_555
I3 O1 1.834852 1_555
I3 O11 1.839077 1_545
I3 O3 1.842490 1_555
I4 O22 1.834835 1_555
I4 O6 1.838280 1_555
I4 O8 1.843236 1_545
I5 O7 1.837620 1_555
I5 O9 1.840378 1_565
I5 O23 1.842546 1_555
I6 O14 1.836676 1_555
I6 O12 1.837208 1_555
I6 O16 1.840212 1_555
I7 O15 1.836908 1_555
I7 O17 1.841326 1_555
I7 O13 1.841618 1_555
O2 Zn0 2.139011 1_555
O8 Zn0 2.176797 1_655
O13 Zn0 2.199348 1_655
O18 Zn0 2.115213 1_555
O21 Zn0 2.136408 1_655
O23 Zn0 2.083368 1_555
