# generated using pymatgen
data_Y4CdIr
_symmetry_space_group_name_H-M   'P 1'
_cell_length_a   9.64825080
_cell_length_b   9.64820344
_cell_length_c   9.64823071
_cell_angle_alpha   59.99979349
_cell_angle_beta   59.99994538
_cell_angle_gamma   59.99984957
_symmetry_Int_Tables_number   1
_chemical_formula_structural   Y4CdIr
_chemical_formula_sum   'Y16 Cd4 Ir4'
_cell_volume   635.07697503
_cell_formula_units_Z   4
loop_
 _symmetry_equiv_pos_site_id
 _symmetry_equiv_pos_as_xyz
  1  'x, y, z'
loop_
 _atom_site_type_symbol
 _atom_site_label
 _atom_site_symmetry_multiplicity
 _atom_site_fract_x
 _atom_site_fract_y
 _atom_site_fract_z
 _atom_site_occupancy
  Y  Y0  1  0.34852563  0.34850584  0.34850460  1
  Y  Y1  1  0.34852120  0.34850105  0.95446789  1
  Y  Y2  1  0.34852179  0.95446792  0.34850015  1
  Y  Y3  1  0.95446231  0.34850995  0.34850865  1
  Y  Y4  1  0.80938800  0.19060597  0.19060814  1
  Y  Y5  1  0.19060884  0.80939459  0.80939276  1
  Y  Y6  1  0.19061129  0.80940321  0.19060163  1
  Y  Y7  1  0.80937930  0.19060306  0.80940738  1
  Y  Y8  1  0.19061246  0.19060004  0.80940255  1
  Y  Y9  1  0.80937816  0.80940800  0.19060458  1
  Y  Y10  1  0.93858535  0.56141177  0.56141079  1
  Y  Y11  1  0.56141059  0.93859084  0.93859348  1
  Y  Y12  1  0.56141400  0.93858841  0.56140538  1
  Y  Y13  1  0.93858757  0.56140915  0.93859224  1
  Y  Y14  1  0.56141269  0.56140491  0.93859043  1
  Y  Y15  1  0.93858853  0.93859086  0.56140890  1
  Cd  Cd0  1  0.57989847  0.57989311  0.57989544  1
  Cd  Cd1  1  0.57989641  0.57989086  0.26031661  1
  Cd  Cd2  1  0.57989492  0.26031741  0.57989245  1
  Cd  Cd3  1  0.26030908  0.57989375  0.57989662  1
  Ir  Ir0  1  0.14106237  0.14106297  0.14106194  1
  Ir  Ir1  1  0.14105926  0.14106295  0.57681799  1
  Ir  Ir2  1  0.14105975  0.57682026  0.14106205  1
  Ir  Ir3  1  0.57681303  0.14106413  0.14106132  1
loop_
_geom_bond_atom_site_label_1
_geom_bond_atom_site_label_2
_geom_bond_distance
_geom_bond_site_symmetry_2
Y0 Y14 3.471536 1_554
Y0 Y12 3.471553 1_545
Y0 Y10 3.471760 1_455
Y1 Y11 3.471503 1_545
Y1 Y14 3.471592 1_555
Y1 Y13 3.471719 1_455
Y10 Y3 3.471664 1_555
Y10 Y9 3.604912 1_555
Y10 Y7 3.604921 1_555
Y10 Y6 3.604941 1_655
Y10 Y8 3.604951 1_655
Y10 Y12 3.639052 1_555
Y10 Y14 3.639083 1_555
Y10 Y15 3.639107 1_555
Y10 Y13 3.639132 1_555
Y11 Y2 3.471495 1_556
Y11 Y9 3.604719 1_556
Y11 Y7 3.604723 1_565
Y11 Y6 3.604770 1_556
Y11 Y8 3.604774 1_565
Y11 Y13 3.639104 1_555
Y11 Y15 3.639133 1_555
Y11 Y14 3.639171 1_555
Y11 Y12 3.639193 1_555
Y12 Y2 3.471602 1_555
Y12 Y9 3.604743 1_555
Y12 Y4 3.604777 1_565
Y12 Y5 3.604848 1_555
Y12 Y8 3.604878 1_565
Y12 Y15 3.639103 1_555
Y12 Y14 3.639144 1_555
Y13 Y3 3.471563 1_556
Y13 Y4 3.604845 1_556
Y13 Y8 3.604846 1_655
Y13 Y5 3.604888 1_655
Y13 Y9 3.604890 1_556
Y13 Y14 3.639107 1_555
Y13 Y15 3.639128 1_555
Y14 Y7 3.604756 1_555
Y14 Y4 3.604784 1_556
Y14 Y5 3.604852 1_555
Y14 Y6 3.604881 1_556
Y15 Y3 3.471573 1_565
Y15 Y2 3.471723 1_655
Y15 Y6 3.604830 1_655
Y15 Y4 3.604835 1_565
Y15 Y5 3.604881 1_655
Y15 Y7 3.604886 1_565
Cd0 Cd2 3.083363 1_555
Cd0 Cd1 3.083391 1_555
Cd0 Cd3 3.083470 1_555
Cd0 Y10 3.292047 1_555
Cd0 Y12 3.292073 1_555
Cd0 Y14 3.292083 1_555
Cd0 Y3 3.446161 1_555
Cd0 Y1 3.446188 1_555
Cd0 Y2 3.446201 1_555
Cd0 Y7 3.490341 1_555
Cd0 Y9 3.490360 1_555
Cd0 Y5 3.490376 1_555
Cd1 Cd2 3.083316 1_555
Cd1 Cd3 3.083418 1_555
Cd1 Y13 3.292079 1_554
Cd1 Y11 3.292103 1_554
Cd1 Y14 3.292111 1_554
Cd1 Y0 3.446118 1_555
Cd1 Y3 3.446120 1_555
Cd1 Y2 3.446163 1_555
Cd1 Y4 3.490324 1_555
Cd1 Y6 3.490365 1_555
Cd1 Y9 3.490367 1_555
Cd2 Cd3 3.083384 1_555
Cd2 Y15 3.292093 1_545
Cd2 Y12 3.292121 1_545
Cd2 Y11 3.292126 1_545
Cd2 Y0 3.446130 1_555
Cd2 Y3 3.446138 1_555
Cd2 Y1 3.446160 1_555
Cd2 Y4 3.490342 1_555
Cd2 Y8 3.490356 1_555
Cd2 Y7 3.490364 1_555
Cd3 Y15 3.292082 1_455
Cd3 Y10 3.292083 1_455
Cd3 Y13 3.292089 1_455
Cd3 Y0 3.446202 1_555
Cd3 Y1 3.446244 1_555
Cd3 Y2 3.446263 1_555
Cd3 Y8 3.490347 1_555
Cd3 Y6 3.490370 1_555
Cd3 Y5 3.490398 1_555
Ir0 Y6 2.804595 1_545
Ir0 Y8 2.804606 1_554
Ir0 Y4 2.804747 1_455
Ir0 Y3 2.837675 1_455
Ir0 Y1 2.837703 1_554
Ir0 Y2 2.837708 1_545
Ir0 Y13 3.471457 1_454
Ir0 Y15 3.471475 1_445
Ir0 Y11 3.471476 1_544
Ir1 Y5 2.804657 1_545
Ir1 Y8 2.804744 1_555
Ir1 Y7 2.804792 1_455
Ir1 Y3 2.837767 1_455
Ir1 Y0 2.837789 1_555
Ir1 Y2 2.837816 1_545
Ir1 Y10 3.471467 1_455
Ir1 Y15 3.471505 1_445
Ir1 Y12 3.471520 1_545
Ir2 Y5 2.804667 1_554
Ir2 Y6 2.804730 1_555
Ir2 Y9 2.804792 1_455
Ir2 Y3 2.837776 1_455
Ir2 Y0 2.837783 1_555
Ir2 Y1 2.837818 1_554
Ir2 Y10 3.471476 1_455
Ir2 Y14 3.471502 1_554
Ir2 Y13 3.471513 1_454
Ir3 Y7 2.804553 1_554
Ir3 Y9 2.804554 1_545
Ir3 Y4 2.804648 1_555
Ir3 Y0 2.837614 1_555
Ir3 Y1 2.837620 1_554
Ir3 Y2 2.837635 1_545
Ir3 Y14 3.471415 1_554
Ir3 Y11 3.471449 1_544
Ir3 Y12 3.471456 1_545
