# generated using pymatgen
data_ErSiNi3
_symmetry_space_group_name_H-M   'P 1'
_cell_length_a   5.70694280
_cell_length_b   5.70694280
_cell_length_c   5.70694280
_cell_angle_alpha   141.27947074
_cell_angle_beta   141.27947074
_cell_angle_gamma   55.91565916
_symmetry_Int_Tables_number   1
_chemical_formula_structural   ErSiNi3
_chemical_formula_sum   'Er1 Si1 Ni3'
_cell_volume   72.17062531
_cell_formula_units_Z   1
loop_
 _symmetry_equiv_pos_site_id
 _symmetry_equiv_pos_as_xyz
  1  'x, y, z'
loop_
 _atom_site_type_symbol
 _atom_site_label
 _atom_site_symmetry_multiplicity
 _atom_site_fract_x
 _atom_site_fract_y
 _atom_site_fract_z
 _atom_site_occupancy
  Er  Er0  1  0.01153400  0.01153400  0.00000000  1
  Si  Si0  1  0.37959000  0.37959000  0.00000000  1
  Ni  Ni0  1  0.75356000  0.25356000  0.50000000  1
  Ni  Ni1  1  0.25356000  0.75356000  0.50000000  1
  Ni  Ni2  1  0.60175600  0.60175600  0.00000000  1
loop_
_geom_bond_atom_site_label_1
_geom_bond_atom_site_label_2
_geom_bond_distance
_geom_bond_site_symmetry_2
Er0 Ni2 2.825929 1_455
Er0 Ni2 2.825929 1_545
Er0 Ni2 2.825929 1_556
Er0 Ni2 2.825929 1_444
Er0 Si0 2.987980 1_455
Er0 Si0 2.987980 1_444
Er0 Si0 2.987980 1_556
Er0 Si0 2.987980 1_545
Er0 Ni0 3.087578 1_454
Er0 Ni0 3.087578 1_555
Er0 Ni1 3.087578 1_544
Er0 Ni1 3.087578 1_555
Er0 Ni1 3.216153 1_545
Er0 Ni0 3.216153 1_455
Er0 Ni0 3.216153 1_444
Er0 Ni1 3.216153 1_444
Ni0 Si0 2.278969 1_656
Ni0 Si0 2.278969 1_555
Ni0 Ni2 2.433424 1_545
Ni0 Ni2 2.433424 1_556
Ni0 Ni1 2.675538 1_645
Ni0 Ni1 2.675538 1_555
Ni0 Ni1 2.675538 1_544
Ni0 Ni1 2.675538 1_656
Ni1 Si0 2.278969 1_566
Ni1 Si0 2.278969 1_555
Ni1 Ni2 2.433424 1_556
Ni1 Ni2 2.433424 1_455
Ni2 Si0 2.239834 1_555
