# generated using pymatgen
data_Ca8ScFe7(SiO3)20
_symmetry_space_group_name_H-M   'P 1'
_cell_length_a   6.72085700
_cell_length_b   11.90105305
_cell_length_c   15.04436169
_cell_angle_alpha   103.57730677
_cell_angle_beta   93.82279249
_cell_angle_gamma   93.02984696
_symmetry_Int_Tables_number   1
_chemical_formula_structural   Ca8ScFe7(SiO3)20
_chemical_formula_sum   'Ca8 Sc1 Fe7 Si20 O60'
_cell_volume   1164.18166323
_cell_formula_units_Z   1
loop_
 _symmetry_equiv_pos_site_id
 _symmetry_equiv_pos_as_xyz
  1  'x, y, z'
loop_
 _atom_site_type_symbol
 _atom_site_label
 _atom_site_symmetry_multiplicity
 _atom_site_fract_x
 _atom_site_fract_y
 _atom_site_fract_z
 _atom_site_occupancy
  Ca  Ca0  1  0.16157800  0.95495800  0.89283500  1
  Ca  Ca1  1  0.15841100  0.95127300  0.39203700  1
  Ca  Ca2  1  0.83809600  0.04432200  0.60778600  1
  Ca  Ca3  1  0.83839200  0.04486200  0.10504700  1
  Ca  Ca4  1  0.29304400  0.52126900  0.61465400  1
  Ca  Ca5  1  0.29400600  0.51880100  0.11484800  1
  Ca  Ca6  1  0.70566700  0.48167200  0.88572000  1
  Ca  Ca7  1  0.70621900  0.48154800  0.38535800  1
  Sc  Sc0  1  0.19005700  0.22854800  0.52371900  1
  Fe  Fe0  1  0.06589900  0.65048600  0.79620900  1
  Fe  Fe1  1  0.06508600  0.65033300  0.29553400  1
  Fe  Fe2  1  0.93517900  0.35016700  0.70569500  1
  Fe  Fe3  1  0.93323200  0.34893400  0.20349900  1
  Fe  Fe4  1  0.18974900  0.23038900  0.02427400  1
  Fe  Fe5  1  0.81021400  0.76986500  0.97599400  1
  Fe  Fe6  1  0.81046700  0.77056300  0.47609800  1
  Si  Si0  1  0.11534900  0.83565100  0.66136200  1
  Si  Si1  1  0.11510000  0.83641800  0.16067900  1
  Si  Si2  1  0.88518800  0.16358100  0.83927100  1
  Si  Si3  1  0.88157100  0.16159900  0.33657200  1
  Si  Si4  1  0.21140000  0.44304800  0.90336200  1
  Si  Si5  1  0.21129100  0.44615700  0.40190700  1
  Si  Si6  1  0.78982000  0.55762000  0.59734700  1
  Si  Si7  1  0.78872400  0.55706500  0.09705300  1
  Si  Si8  1  0.34573000  0.05108200  0.64504500  1
  Si  Si9  1  0.34586100  0.05409100  0.14370600  1
  Si  Si10  1  0.65435800  0.94606500  0.85644000  1
  Si  Si11  1  0.65048300  0.94588200  0.35633200  1
  Si  Si12  1  0.31347000  0.71180000  0.99031800  1
  Si  Si13  1  0.31446800  0.71321900  0.49013500  1
  Si  Si14  1  0.69292500  0.28923900  0.50993400  1
  Si  Si15  1  0.68631600  0.28845200  0.00940600  1
  Si  Si16  1  0.42459500  0.31374600  0.73325300  1
  Si  Si17  1  0.42336500  0.31370800  0.23210800  1
  Si  Si18  1  0.57653300  0.68649800  0.76803600  1
  Si  Si19  1  0.57555200  0.68635100  0.26781300  1
  O  O0  1  0.35469100  0.62376100  0.77397700  1
  O  O1  1  0.35405100  0.62303200  0.27368200  1
  O  O2  1  0.64681400  0.37628800  0.72745300  1
  O  O3  1  0.64493500  0.37699900  0.22617200  1
  O  O4  1  0.06213400  0.78777100  0.75086100  1
  O  O5  1  0.06337600  0.78889400  0.25068500  1
  O  O6  1  0.93688000  0.21068900  0.74908400  1
  O  O7  1  0.93243800  0.20977800  0.24685600  1
  O  O8  1  0.12474800  0.74350800  0.92656800  1
  O  O9  1  0.12489200  0.74413200  0.42632100  1
  O  O10  1  0.87972500  0.25808900  0.57467800  1
  O  O11  1  0.87501500  0.25663200  0.07304000  1
  O  O12  1  0.48236500  0.23708600  0.52798700  1
  O  O13  1  0.47306100  0.23798200  0.02700900  1
  O  O14  1  0.52664500  0.76255300  0.97282500  1
  O  O15  1  0.52730800  0.76494200  0.47333500  1
  O  O16  1  0.15011600  0.38238500  0.98378200  1
  O  O17  1  0.14786700  0.38639800  0.48208300  1
  O  O18  1  0.84910900  0.61888200  0.51690500  1
  O  O19  1  0.84874100  0.61816600  0.01670300  1
  O  O20  1  0.07850400  0.14625200  0.90417300  1
  O  O21  1  0.07653800  0.14231200  0.39886700  1
  O  O22  1  0.92324300  0.85405900  0.59627200  1
  O  O23  1  0.92166000  0.85399700  0.09596000  1
  O  O24  1  0.53119900  0.99087900  0.60257500  1
  O  O25  1  0.52969500  0.99331600  0.09986200  1
  O  O26  1  0.47067800  0.00715800  0.90024800  1
  O  O27  1  0.46682600  0.00591600  0.40105400  1
  O  O28  1  0.25528400  0.73920000  0.59835300  1
  O  O29  1  0.25514500  0.73959000  0.09850200  1
  O  O30  1  0.74455000  0.26027200  0.90121900  1
  O  O31  1  0.74810800  0.26057200  0.40130000  1
  O  O32  1  0.41446600  0.17546800  0.72169400  1
  O  O33  1  0.41639700  0.17601400  0.22250900  1
  O  O34  1  0.58359200  0.82429400  0.77781600  1
  O  O35  1  0.58042000  0.82393900  0.27760300  1
  O  O36  1  0.23940100  0.34975900  0.66889300  1
  O  O37  1  0.23650800  0.34687200  0.16663400  1
  O  O38  1  0.76295200  0.65294400  0.83341400  1
  O  O39  1  0.76240600  0.65339500  0.33336000  1
  O  O40  1  0.22413900  0.96648900  0.70293200  1
  O  O41  1  0.22244800  0.96799700  0.19971400  1
  O  O42  1  0.77803200  0.03182100  0.80021100  1
  O  O43  1  0.76898000  0.03147100  0.29857900  1
  O  O44  1  0.38496800  0.37772500  0.84237400  1
  O  O45  1  0.38324000  0.37882000  0.34089700  1
  O  O46  1  0.61598100  0.62156700  0.65903800  1
  O  O47  1  0.61565400  0.62156700  0.15891900  1
  O  O48  1  0.03103000  0.46924600  0.83260500  1
  O  O49  1  0.03094400  0.47161000  0.33089100  1
  O  O50  1  0.96968000  0.53140500  0.66830500  1
  O  O51  1  0.96934800  0.53101600  0.16755500  1
  O  O52  1  0.17270500  0.07771300  0.56994000  1
  O  O53  1  0.17368900  0.08534900  0.06962700  1
  O  O54  1  0.82684000  0.91503000  0.93048300  1
  O  O55  1  0.82495600  0.91515400  0.42978000  1
  O  O56  1  0.32702200  0.56710500  0.96505400  1
  O  O57  1  0.33091000  0.56889100  0.46361200  1
  O  O58  1  0.67632200  0.43343700  0.53487300  1
  O  O59  1  0.67323300  0.43314800  0.03490800  1
loop_
_geom_bond_atom_site_label_1
_geom_bond_atom_site_label_2
_geom_bond_distance
_geom_bond_site_symmetry_2
Ca0 O26 2.124660 1_565
Ca0 O20 2.342750 1_565
Ca0 O54 2.406476 1_455
Ca0 O4 2.577097 1_555
Ca0 O8 2.683653 1_555
Ca0 O53 2.740208 1_566
Ca0 O40 2.948907 1_555
Ca1 O27 2.125194 1_565
Ca1 O21 2.347881 1_565
Ca1 O55 2.390017 1_455
Ca1 O5 2.534480 1_555
Ca1 O9 2.635857 1_555
Ca1 O52 2.737951 1_565
Ca1 O41 3.003972 1_555
Ca2 O24 2.116929 1_545
Ca2 O22 2.334678 1_545
Ca2 O52 2.392062 1_655
Ca2 O6 2.564461 1_555
Ca2 O10 2.708664 1_555
Ca2 O55 2.750231 1_545
Ca2 O42 2.986184 1_555
Ca3 O25 2.123260 1_545
Ca3 O23 2.343149 1_545
Ca3 O53 2.400040 1_655
Ca3 O7 2.554643 1_555
Ca3 O11 2.676623 1_555
Ca3 O54 2.710229 1_544
Ca4 O17 2.361801 1_555
Ca4 O50 2.367508 1_455
Ca4 O36 2.388630 1_555
Ca4 O46 2.395835 1_555
Ca4 O0 2.417877 1_555
Ca4 O57 2.493188 1_555
Ca4 O28 2.685380 1_555
Ca4 O58 3.045759 1_555
Ca5 O16 2.352809 1_554
Ca5 O51 2.370874 1_455
Ca5 O37 2.376553 1_555
Ca5 O47 2.399420 1_555
Ca5 O1 2.416270 1_555
Ca5 O56 2.473797 1_554
Ca5 O29 2.720378 1_555
Ca5 O59 3.014840 1_555
Ca6 O19 2.350695 1_556
Ca6 O38 2.373335 1_555
Ca6 O48 2.377780 1_655
Ca6 O44 2.398582 1_555
Ca6 O2 2.412178 1_555
Ca6 O59 2.465562 1_556
Ca6 O30 2.723683 1_555
Ca6 O56 3.007182 1_555
Ca7 O18 2.360541 1_555
Ca7 O39 2.376164 1_555
Ca7 O49 2.380900 1_655
Ca7 O45 2.407470 1_555
Ca7 O3 2.422468 1_555
Ca7 O58 2.465892 1_555
Ca7 O31 2.723652 1_555
Ca7 O57 2.987903 1_555
Fe0 O4 1.913352 1_555
Fe0 O8 2.014721 1_555
Fe0 O0 2.020423 1_555
Fe0 O50 2.141522 1_455
Fe0 O38 2.147155 1_455
Fe0 O48 2.350606 1_555
Fe1 O5 1.923025 1_555
Fe1 O1 2.021646 1_555
Fe1 O9 2.023617 1_555
Fe1 O51 2.142894 1_455
Fe1 O39 2.148459 1_455
Fe1 O49 2.314212 1_555
Fe2 O6 1.921291 1_555
Fe2 O2 2.015035 1_555
Fe2 O10 2.017322 1_555
Fe2 O48 2.130210 1_655
Fe2 O36 2.153561 1_655
Fe2 O50 2.357260 1_555
Fe3 O7 1.917000 1_555
Fe3 O11 2.012899 1_555
Fe3 O3 2.021203 1_555
Fe3 O37 2.147648 1_655
Fe3 O49 2.157072 1_655
Fe3 O51 2.357786 1_555
Fe4 O13 1.898703 1_555
Fe4 O20 1.928105 1_554
Fe4 O53 1.999952 1_555
Fe4 O16 2.064193 1_554
Fe4 O37 2.253367 1_555
Fe4 O11 2.297694 1_455
Fe5 O14 1.900112 1_555
Fe5 O23 1.926889 1_556
Fe5 O54 2.002774 1_555
Fe5 O19 2.061293 1_556
Fe5 O38 2.258160 1_555
Fe5 O8 2.300049 1_655
Fe6 O15 1.898044 1_555
Fe6 O22 1.929954 1_555
Fe6 O55 2.002616 1_555
Fe6 O18 2.061936 1_555
Fe6 O39 2.261432 1_555
Fe6 O9 2.301318 1_655
O0 Si18 1.649201 1_555
O1 Si19 1.649845 1_555
O2 Si16 1.650008 1_555
O3 Si17 1.650336 1_555
O4 Si0 1.633540 1_555
O5 Si1 1.635797 1_555
O6 Si2 1.635647 1_555
O7 Si3 1.634487 1_555
O8 Si12 1.652065 1_555
O9 Si13 1.653079 1_555
O10 Si14 1.648642 1_555
O10 Sc0 2.285970 1_655
O11 Si15 1.651474 1_555
O12 Si14 1.580879 1_555
O12 Sc0 1.957794 1_555
O13 Si15 1.587269 1_555
O14 Si12 1.587515 1_555
O15 Si13 1.586569 1_555
O16 Si4 1.612377 1_555
O17 Si5 1.606764 1_555
O17 Sc0 2.141715 1_555
O18 Si6 1.613314 1_555
O19 Si7 1.612273 1_555
O20 Si2 1.624090 1_455
O21 Si3 1.617733 1_455
O21 Sc0 1.996123 1_555
O22 Si0 1.623552 1_655
O23 Si1 1.624067 1_655
O24 Si8 1.568771 1_565
O25 Si9 1.569674 1_565
O26 Si10 1.570140 1_545
O27 Si11 1.570027 1_545
O28 Si13 1.663562 1_555
O28 Si0 1.680120 1_555
O29 Si12 1.660733 1_554
O29 Si1 1.677729 1_555
O30 Si15 1.660506 1_556
O30 Si2 1.677816 1_555
O31 Si14 1.660537 1_555
O31 Si3 1.682226 1_555
O32 Si16 1.610983 1_555
O32 Si8 1.670240 1_555
O33 Si17 1.608811 1_555
O33 Si9 1.667437 1_555
O34 Si18 1.609592 1_555
O34 Si10 1.665176 1_555
O35 Si19 1.607620 1_555
O35 Si11 1.666454 1_555
O36 Si16 1.661605 1_555
O36 Sc0 2.309671 1_555
O37 Si17 1.665277 1_555
O38 Si18 1.664212 1_555
O39 Si19 1.664891 1_555
O40 Si0 1.646744 1_555
O40 Si8 1.690957 1_565
O41 Si1 1.646156 1_555
O41 Si9 1.690113 1_565
O42 Si2 1.647546 1_555
O42 Si10 1.690418 1_545
O43 Si3 1.643319 1_555
O43 Si11 1.687825 1_545
O44 Si4 1.646417 1_555
O44 Si16 1.684806 1_555
O45 Si5 1.647475 1_555
O45 Si17 1.684440 1_555
O46 Si6 1.646979 1_555
O46 Si18 1.685548 1_555
O47 Si7 1.646760 1_555
O47 Si19 1.684850 1_555
O48 Si4 1.650333 1_555
O49 Si5 1.649382 1_555
O50 Si6 1.649949 1_555
O51 Si7 1.648408 1_555
O52 Si8 1.661720 1_555
O52 Sc0 2.072258 1_555
O53 Si9 1.669615 1_555
O54 Si10 1.669525 1_555
O55 Si11 1.670929 1_555
O56 Si4 1.668598 1_555
O56 Si12 1.682859 1_555
O57 Si5 1.667734 1_555
O57 Si13 1.681046 1_555
O58 Si6 1.668084 1_555
O58 Si14 1.679812 1_555
O59 Si7 1.669226 1_555
O59 Si15 1.682450 1_555
