# generated using pymatgen
data_Tb2(Al3Ir)3
_symmetry_space_group_name_H-M   'P 1'
_cell_length_a   7.51116100
_cell_length_b   7.51116100
_cell_length_c   9.44660973
_cell_angle_alpha   90.00000000
_cell_angle_beta   90.00000000
_cell_angle_gamma   119.47419353
_symmetry_Int_Tables_number   1
_chemical_formula_structural   Tb2(Al3Ir)3
_chemical_formula_sum   'Tb4 Al18 Ir6'
_cell_volume   463.97812392
_cell_formula_units_Z   2
loop_
 _symmetry_equiv_pos_site_id
 _symmetry_equiv_pos_as_xyz
  1  'x, y, z'
loop_
 _atom_site_type_symbol
 _atom_site_label
 _atom_site_symmetry_multiplicity
 _atom_site_fract_x
 _atom_site_fract_y
 _atom_site_fract_z
 _atom_site_occupancy
  Tb  Tb0  1  0.99487322  0.67143529  0.25000000  1
  Tb  Tb1  1  0.00512678  0.32856471  0.75000000  1
  Tb  Tb2  1  0.67143529  0.99487322  0.25000000  1
  Tb  Tb3  1  0.32856471  0.00512678  0.75000000  1
  Al  Al0  1  0.13025849  0.13025849  0.25000000  1
  Al  Al1  1  0.86974151  0.86974151  0.75000000  1
  Al  Al2  1  0.00189520  0.33528945  0.07334168  1
  Al  Al3  1  0.99810480  0.66471055  0.92665832  1
  Al  Al4  1  0.99810480  0.66471055  0.57334168  1
  Al  Al5  1  0.33528945  0.00189520  0.42665832  1
  Al  Al6  1  0.00189520  0.33528945  0.42665832  1
  Al  Al7  1  0.66471055  0.99810480  0.57334168  1
  Al  Al8  1  0.66471055  0.99810480  0.92665832  1
  Al  Al9  1  0.33528945  0.00189520  0.07334168  1
  Al  Al10  1  0.33393577  0.33393577  0.55000914  1
  Al  Al11  1  0.66606423  0.66606423  0.44999086  1
  Al  Al12  1  0.66606423  0.66606423  0.05000914  1
  Al  Al13  1  0.33393577  0.33393577  0.94999086  1
  Al  Al14  1  0.33940345  0.54758837  0.25000000  1
  Al  Al15  1  0.66059655  0.45241163  0.75000000  1
  Al  Al16  1  0.54758837  0.33940345  0.25000000  1
  Al  Al17  1  0.45241163  0.66059655  0.75000000  1
  Ir  Ir0  1  0.67196011  0.32803989  -0.00000000  1
  Ir  Ir1  1  0.32803989  0.67196011  -0.00000000  1
  Ir  Ir2  1  0.32803989  0.67196011  0.50000000  1
  Ir  Ir3  1  0.67196011  0.32803989  0.50000000  1
  Ir  Ir4  1  0.00000000  0.00000000  -0.00000000  1
  Ir  Ir5  1  0.00000000  0.00000000  0.50000000  1
loop_
_geom_bond_atom_site_label_1
_geom_bond_atom_site_label_2
_geom_bond_distance
_geom_bond_site_symmetry_2
Al0 Ir4 2.559279 1_555
Al0 Ir5 2.559279 1_555
Al0 Tb2 3.076093 1_445
Al0 Tb0 3.076093 1_445
Al1 Ir5 2.559279 1_665
Al1 Ir4 2.559279 1_666
Al1 Tb3 3.076093 1_665
Al1 Tb1 3.076093 1_665
Al2 Ir0 2.547869 1_455
Al2 Ir1 2.603810 1_555
Al2 Ir4 2.605253 1_555
Al2 Tb2 3.039463 1_445
Al2 Tb0 3.048547 1_455
Al2 Tb1 3.055194 1_554
Al3 Ir1 2.547869 1_656
Al3 Ir0 2.603810 1_556
Al3 Ir4 2.605253 1_666
Al3 Tb3 3.039463 1_665
Al3 Tb1 3.048547 1_655
Al3 Tb0 3.055194 1_556
Al4 Ir2 2.547869 1_655
Al4 Ir3 2.603810 1_555
Al4 Ir5 2.605253 1_665
Al4 Tb3 3.039463 1_665
Al4 Tb1 3.048547 1_655
Al4 Tb0 3.055194 1_555
Al5 Ir2 2.547869 1_545
Al5 Ir3 2.603810 1_555
Al5 Ir5 2.605253 1_555
Al5 Tb0 3.039463 1_445
Al5 Tb2 3.048547 1_545
Al5 Tb3 3.055194 1_555
Al6 Ir3 2.547869 1_455
Al6 Ir2 2.603810 1_555
Al6 Ir5 2.605253 1_555
Al6 Tb2 3.039463 1_445
Al6 Tb0 3.048547 1_455
Al6 Tb1 3.055194 1_555
Al7 Ir3 2.547869 1_565
Al7 Ir2 2.603810 1_555
Al7 Ir5 2.605253 1_665
Al7 Tb1 3.039463 1_665
Al7 Tb3 3.048547 1_565
Al7 Tb2 3.055194 1_555
Al8 Ir0 2.547869 1_566
Al8 Ir1 2.603810 1_556
Al8 Ir4 2.605253 1_666
Al8 Tb1 3.039463 1_665
Al8 Tb3 3.048547 1_565
Al8 Tb2 3.055194 1_556
Al9 Ir1 2.547869 1_545
Al9 Ir0 2.603810 1_555
Al9 Ir4 2.605253 1_555
Al9 Tb0 3.039463 1_445
Al9 Tb2 3.048547 1_545
Al9 Tb3 3.055194 1_554
Al10 Ir5 2.571913 1_555
Al10 Ir3 2.604242 1_555
Al10 Ir2 2.604242 1_555
Al10 Tb1 3.093928 1_555
Al10 Tb3 3.093928 1_555
Al11 Ir5 2.571913 1_665
Al11 Ir3 2.604242 1_555
Al11 Ir2 2.604242 1_555
Al11 Tb2 3.093928 1_555
Al11 Tb0 3.093928 1_555
Al12 Ir4 2.571913 1_665
Al12 Ir0 2.604242 1_555
Al12 Ir1 2.604242 1_555
Al12 Tb2 3.093928 1_555
Al12 Tb0 3.093928 1_555
Al13 Ir4 2.571913 1_556
Al13 Ir0 2.604242 1_556
Al13 Ir1 2.604242 1_556
Al13 Tb1 3.093928 1_555
Al13 Tb3 3.093928 1_555
Al14 Ir1 2.556528 1_555
Al14 Ir2 2.556528 1_555
Al14 Tb2 3.043299 1_555
Al14 Tb0 3.151361 1_455
Al15 Ir0 2.556528 1_556
Al15 Ir3 2.556528 1_555
Al15 Tb3 3.043299 1_555
Al15 Tb1 3.151361 1_655
Al16 Ir3 2.556528 1_555
Al16 Ir0 2.556528 1_555
Al16 Tb0 3.043299 1_555
Al16 Tb2 3.151361 1_545
Al17 Ir1 2.556528 1_556
Al17 Ir2 2.556528 1_555
Al17 Tb1 3.043299 1_555
Al17 Tb3 3.151361 1_565
