# generated using pymatgen
data_PrCu4Pd
_symmetry_space_group_name_H-M   'P 1'
_cell_length_a   5.12494409
_cell_length_b   5.12494409
_cell_length_c   4.18760807
_cell_angle_alpha   90.00000000
_cell_angle_beta   90.00000000
_cell_angle_gamma   120.00000146
_symmetry_Int_Tables_number   1
_chemical_formula_structural   PrCu4Pd
_chemical_formula_sum   'Pr1 Cu4 Pd1'
_cell_volume   95.25217860
_cell_formula_units_Z   1
loop_
 _symmetry_equiv_pos_site_id
 _symmetry_equiv_pos_as_xyz
  1  'x, y, z'
loop_
 _atom_site_type_symbol
 _atom_site_label
 _atom_site_symmetry_multiplicity
 _atom_site_fract_x
 _atom_site_fract_y
 _atom_site_fract_z
 _atom_site_occupancy
  Pr  Pr0  1  0.66666700  0.33333300  -0.00000000  1
  Cu  Cu0  1  0.33333300  0.66666700  -0.00000000  1
  Cu  Cu1  1  0.65957544  0.82978722  0.50000000  1
  Cu  Cu2  1  0.17021278  0.82978722  0.50000000  1
  Cu  Cu3  1  0.17021278  0.34042456  0.50000000  1
  Pd  Pd0  1  -0.00000000  0.00000000  -0.00000000  1
loop_
_geom_bond_atom_site_label_1
_geom_bond_atom_site_label_2
_geom_bond_distance
_geom_bond_site_symmetry_2
Cu0 Cu2 2.545705 1_555
Cu0 Cu2 2.545705 1_554
Cu0 Cu1 2.545710 1_555
Cu0 Cu3 2.545710 1_554
Cu0 Cu1 2.545710 1_554
Cu0 Cu3 2.545710 1_555
Cu0 Pr0 2.958885 1_455
Cu0 Pr0 2.958885 1_565
Cu0 Pd0 2.958885 1_565
Cu0 Pd0 2.958889 1_665
Cu0 Pd0 2.958889 1_555
Cu0 Pr0 2.958894 1_555
Cu1 Cu3 2.507956 1_555
Cu1 Cu2 2.507956 1_555
Cu1 Pd0 2.582031 1_665
Cu1 Pd0 2.582031 1_666
Cu1 Cu3 2.616988 1_665
Cu1 Cu2 2.616988 1_655
Cu1 Pr0 3.309270 1_566
Cu1 Pr0 3.309270 1_565
Cu1 Pr0 3.309270 1_555
Cu1 Pr0 3.309270 1_556
Cu2 Cu3 2.507956 1_555
Cu2 Pd0 2.582034 1_566
Cu2 Pd0 2.582034 1_565
Cu2 Cu3 2.616988 1_565
Cu2 Pr0 3.309270 1_565
Cu2 Pr0 3.309270 1_456
Cu2 Pr0 3.309270 1_455
Cu2 Pr0 3.309270 1_566
Cu3 Pd0 2.582031 1_555
Cu3 Pd0 2.582031 1_556
Cu3 Pr0 3.309270 1_456
Cu3 Pr0 3.309270 1_455
Cu3 Pr0 3.309270 1_555
Cu3 Pr0 3.309270 1_556
Pd0 Pr0 2.958885 1_455
Pd0 Pr0 2.958889 1_555
Pd0 Pr0 2.958889 1_445
