# generated using pymatgen
data_Dy4Al3Fe5
_symmetry_space_group_name_H-M   'P 1'
_cell_length_a   5.37713955
_cell_length_b   5.37824600
_cell_length_c   8.46062400
_cell_angle_alpha   90.00000000
_cell_angle_beta   90.00000000
_cell_angle_gamma   59.99319297
_symmetry_Int_Tables_number   1
_chemical_formula_structural   Dy4Al3Fe5
_chemical_formula_sum   'Dy4 Al3 Fe5'
_cell_volume   211.88255621
_cell_formula_units_Z   1
loop_
 _symmetry_equiv_pos_site_id
 _symmetry_equiv_pos_as_xyz
  1  'x, y, z'
loop_
 _atom_site_type_symbol
 _atom_site_label
 _atom_site_symmetry_multiplicity
 _atom_site_fract_x
 _atom_site_fract_y
 _atom_site_fract_z
 _atom_site_occupancy
  Dy  Dy0  1  0.33335800  0.33332100  0.54774100  1
  Dy  Dy1  1  0.66662000  0.66669000  0.43055600  1
  Dy  Dy2  1  0.66662000  0.66669000  0.06944400  1
  Dy  Dy3  1  0.33335800  0.33332100  0.95225900  1
  Al  Al0  1  0.83725300  0.32547800  0.75000000  1
  Al  Al1  1  0.32548700  0.83725700  0.75000000  1
  Al  Al2  1  0.83725300  0.83726900  0.75000000  1
  Fe  Fe0  1  0.00007500  0.99996200  0.48248000  1
  Fe  Fe1  1  0.00007500  0.99996200  0.01752000  1
  Fe  Fe2  1  0.16581200  0.66831800  0.25000000  1
  Fe  Fe3  1  0.66827600  0.16586200  0.25000000  1
  Fe  Fe4  1  0.16581200  0.16587000  0.25000000  1
loop_
_geom_bond_atom_site_label_1
_geom_bond_atom_site_label_2
_geom_bond_distance
_geom_bond_site_symmetry_2
Dy0 Fe3 2.962741 1_555
Dy0 Fe2 2.963104 1_555
Dy0 Fe4 2.963104 1_555
Dy0 Fe0 3.153233 1_645
Dy0 Fe0 3.153514 1_555
Dy0 Fe0 3.153518 1_545
Dy0 Dy1 3.259081 1_455
Dy0 Dy1 3.259215 1_545
Dy0 Dy1 3.259215 1_555
Dy0 Dy3 3.422475 1_555
Dy1 Dy2 3.055233 1_555
Dy1 Fe4 3.092231 1_565
Dy1 Fe2 3.092231 1_555
Dy1 Fe2 3.092290 1_655
Dy1 Fe4 3.092290 1_655
Dy1 Fe3 3.092742 1_565
Dy1 Fe3 3.092742 1_555
Dy1 Fe0 3.134650 1_555
Dy1 Fe0 3.136122 1_655
Dy1 Fe0 3.136126 1_645
Dy2 Fe4 3.092231 1_565
Dy2 Fe2 3.092231 1_555
Dy2 Fe2 3.092290 1_655
Dy2 Fe4 3.092290 1_655
Dy2 Fe3 3.092742 1_565
Dy2 Fe3 3.092742 1_555
Dy2 Fe1 3.134650 1_555
Dy2 Fe1 3.136122 1_655
Dy2 Fe1 3.136126 1_645
Dy2 Dy3 3.259081 1_654
Dy2 Dy3 3.259215 1_564
Dy2 Dy3 3.259215 1_554
Dy3 Fe3 2.962741 1_556
Dy3 Fe4 2.963104 1_556
Dy3 Fe2 2.963104 1_556
Dy3 Fe1 3.153233 1_646
Dy3 Fe1 3.153514 1_556
Dy3 Fe1 3.153518 1_546
Al0 Al1 2.625267 1_645
Al0 Al2 2.625708 1_545
Al0 Fe0 2.724211 1_645
Al0 Fe1 2.724211 1_646
Al0 Al1 2.751872 1_555
Al0 Al2 2.752538 1_555
Al0 Dy2 3.135279 1_556
Al0 Dy1 3.135279 1_555
Al0 Dy3 3.187046 1_555
Al0 Dy0 3.187046 1_555
Al0 Dy3 3.187301 1_655
Al0 Dy0 3.187301 1_655
Al1 Al2 2.625270 1_455
Al1 Fe0 2.723768 1_555
Al1 Fe1 2.723768 1_556
Al1 Al2 2.751869 1_555
Al1 Dy2 3.134926 1_556
Al1 Dy1 3.134926 1_555
Al1 Dy3 3.187639 1_565
Al1 Dy0 3.187639 1_565
Al1 Dy3 3.187644 1_555
Al1 Dy0 3.187644 1_555
Al2 Fe0 2.724209 1_655
Al2 Fe1 2.724209 1_656
Al2 Dy2 3.135279 1_556
Al2 Dy1 3.135279 1_555
Al2 Dy3 3.187046 1_565
Al2 Dy0 3.187046 1_565
Al2 Dy3 3.187301 1_655
Al2 Dy0 3.187301 1_655
Fe0 Fe2 2.500912 1_555
Fe0 Fe4 2.500915 1_565
Fe0 Fe3 2.501161 1_465
Fe1 Fe2 2.500912 1_555
Fe1 Fe4 2.500915 1_565
Fe1 Fe3 2.501161 1_465
Fe2 Fe3 2.675342 1_465
Fe2 Fe4 2.675957 1_565
Fe2 Fe3 2.701798 1_555
Fe2 Fe4 2.702289 1_555
Fe3 Fe4 2.675342 1_655
Fe3 Fe4 2.701798 1_555
