# generated using pymatgen
data_Er2Si4Mo3
_symmetry_space_group_name_H-M   'P 1'
_cell_length_a   6.87622000
_cell_length_b   6.69227482
_cell_length_c   6.81173537
_cell_angle_alpha   71.19131457
_cell_angle_beta   90.00000000
_cell_angle_gamma   90.00000000
_symmetry_Int_Tables_number   1
_chemical_formula_structural   Er2Si4Mo3
_chemical_formula_sum   'Er4 Si8 Mo6'
_cell_volume   296.72079251
_cell_formula_units_Z   2
loop_
 _symmetry_equiv_pos_site_id
 _symmetry_equiv_pos_as_xyz
  1  'x, y, z'
loop_
 _atom_site_type_symbol
 _atom_site_label
 _atom_site_symmetry_multiplicity
 _atom_site_fract_x
 _atom_site_fract_y
 _atom_site_fract_z
 _atom_site_occupancy
  Er  Er0  1  0.67040010  0.43743141  0.19160438  1
  Er  Er1  1  0.17040010  0.06256859  0.80839562  1
  Er  Er2  1  0.32959990  0.56256859  0.80839562  1
  Er  Er3  1  0.82959990  0.93743141  0.19160438  1
  Si  Si0  1  0.45588478  0.13268397  0.08931827  1
  Si  Si1  1  0.95588478  0.36731603  0.91068173  1
  Si  Si2  1  0.54411522  0.86731603  0.91068173  1
  Si  Si3  1  0.04411522  0.63268397  0.08931827  1
  Si  Si4  1  0.86895047  0.12753190  0.50446255  1
  Si  Si5  1  0.36895047  0.37246810  0.49553745  1
  Si  Si6  1  0.13104953  0.87246810  0.49553745  1
  Si  Si7  1  0.63104953  0.62753190  0.50446255  1
  Mo  Mo0  1  0.50000000  0.00000000  0.50000000  1
  Mo  Mo1  1  -0.00000000  0.50000000  0.50000000  1
  Mo  Mo2  1  0.16265929  0.25166449  0.24884828  1
  Mo  Mo3  1  0.66265929  0.24833551  0.75115172  1
  Mo  Mo4  1  0.83734071  0.74833551  0.75115172  1
  Mo  Mo5  1  0.33734071  0.75166449  0.24884828  1
loop_
_geom_bond_atom_site_label_1
_geom_bond_atom_site_label_2
_geom_bond_distance
_geom_bond_site_symmetry_2
Er0 Si0 2.781526 1_555
Er0 Si4 2.803006 1_555
Er0 Si7 2.825168 1_555
Er0 Si5 2.862072 1_555
Er0 Si3 2.865208 1_655
Er0 Si1 2.883488 1_554
Er0 Si2 3.023667 1_554
Er1 Si1 2.781526 1_455
Er1 Si5 2.803006 1_555
Er1 Si6 2.825168 1_545
Er1 Si4 2.862072 1_455
Er1 Si2 2.865208 1_545
Er1 Si0 2.883488 1_556
Er1 Si3 3.023667 1_546
Er2 Si2 2.781526 1_555
Er2 Si6 2.803006 1_555
Er2 Si5 2.825168 1_555
Er2 Si7 2.862072 1_555
Er2 Si1 2.865208 1_455
Er2 Si3 2.883488 1_556
Er2 Si0 3.023667 1_556
Er3 Si3 2.781526 1_655
Er3 Si7 2.803006 1_555
Er3 Si4 2.825168 1_565
Er3 Si6 2.862072 1_655
Er3 Si0 2.865208 1_565
Er3 Si2 2.883488 1_554
Er3 Si1 3.023667 1_564
Si0 Si2 2.529041 1_544
Si1 Si3 2.529041 1_656
Si4 Si6 2.496482 1_645
Si5 Si7 2.496482 1_555
Mo0 Si7 2.641485 1_545
Mo0 Si5 2.641485 1_555
Mo0 Si2 2.665427 1_545
Mo0 Si0 2.665427 1_555
Mo0 Si4 2.679994 1_555
Mo0 Si6 2.679994 1_545
Mo1 Si4 2.641485 1_455
Mo1 Si6 2.641485 1_555
Mo1 Si3 2.665427 1_555
Mo1 Si1 2.665427 1_455
Mo1 Si5 2.679994 1_555
Mo1 Si7 2.679994 1_455
Mo2 Si5 2.522978 1_555
Mo2 Si0 2.537364 1_555
Mo2 Si3 2.561349 1_555
Mo2 Si6 2.561463 1_545
Mo2 Si1 2.603292 1_454
Mo2 Si4 2.620672 1_455
Mo3 Si4 2.522978 1_555
Mo3 Si1 2.537364 1_555
Mo3 Si2 2.561349 1_545
Mo3 Si7 2.561463 1_555
Mo3 Si0 2.603292 1_556
Mo3 Si5 2.620672 1_555
Mo4 Si7 2.522978 1_555
Mo4 Si2 2.537364 1_555
Mo4 Si1 2.561349 1_555
Mo4 Si4 2.561463 1_565
Mo4 Si3 2.603292 1_656
Mo4 Si6 2.620672 1_655
Mo5 Si6 2.522978 1_555
Mo5 Si3 2.537364 1_555
Mo5 Si0 2.561349 1_565
Mo5 Si5 2.561463 1_555
Mo5 Si2 2.603292 1_554
Mo5 Si7 2.620672 1_555
