# generated using pymatgen
data_Ce2Zn2Ni5
_symmetry_space_group_name_H-M   'P 1'
_cell_length_a   12.77026694
_cell_length_b   12.77026705
_cell_length_c   12.77026769
_cell_angle_alpha   22.73948737
_cell_angle_beta   22.73948770
_cell_angle_gamma   22.73948530
_symmetry_Int_Tables_number   1
_chemical_formula_structural   Ce2Zn2Ni5
_chemical_formula_sum   'Ce4 Zn4 Ni10'
_cell_volume   273.01357727
_cell_formula_units_Z   2
loop_
 _symmetry_equiv_pos_site_id
 _symmetry_equiv_pos_as_xyz
  1  'x, y, z'
loop_
 _atom_site_type_symbol
 _atom_site_label
 _atom_site_symmetry_multiplicity
 _atom_site_fract_x
 _atom_site_fract_y
 _atom_site_fract_z
 _atom_site_occupancy
  Ce  Ce0  1  0.85428500  0.85428500  0.85428500  1
  Ce  Ce1  1  0.14571500  0.14571500  0.14571500  1
  Ce  Ce2  1  0.94299300  0.94299300  0.94299300  1
  Ce  Ce3  1  0.05700700  0.05700700  0.05700700  1
  Zn  Zn0  1  0.50000000  0.50000000  0.00000000  1
  Zn  Zn1  1  0.00000000  0.50000000  0.50000000  1
  Zn  Zn2  1  0.50000000  0.00000000  0.50000000  1
  Zn  Zn3  1  0.50000000  0.50000000  0.50000000  1
  Ni  Ni0  1  0.38917600  0.38917600  0.89103900  1
  Ni  Ni1  1  0.38939900  0.38939900  0.38939900  1
  Ni  Ni2  1  0.72305400  0.72305400  0.72305400  1
  Ni  Ni3  1  0.27694600  0.27694600  0.27694600  1
  Ni  Ni4  1  0.61082400  0.10896100  0.61082400  1
  Ni  Ni5  1  0.61082400  0.61082400  0.10896100  1
  Ni  Ni6  1  0.61060100  0.61060100  0.61060100  1
  Ni  Ni7  1  0.89103900  0.38917600  0.38917600  1
  Ni  Ni8  1  0.38917600  0.89103900  0.38917600  1
  Ni  Ni9  1  0.10896100  0.61082400  0.61082400  1
loop_
_geom_bond_atom_site_label_1
_geom_bond_atom_site_label_2
_geom_bond_distance
_geom_bond_site_symmetry_2
Ce0 Ni0 2.844819 1_655
Ce0 Ni0 2.844819 1_565
Ce0 Ni8 2.844819 1_655
Ce0 Ni7 2.844819 1_565
Ce0 Ni7 2.844819 1_556
Ce0 Ni8 2.844819 1_556
Ce0 Zn3 3.010230 1_565
Ce0 Zn3 3.010230 1_655
Ce0 Zn3 3.010230 1_556
Ce0 Ni5 3.230689 1_556
Ce0 Ni4 3.230689 1_565
Ce0 Ni9 3.230689 1_655
Ce1 Ni5 2.844819 1_455
Ce1 Ni5 2.844819 1_545
Ce1 Ni4 2.844819 1_455
Ce1 Ni9 2.844819 1_545
Ce1 Ni9 2.844819 1_554
Ce1 Ni4 2.844819 1_554
Ce1 Zn3 3.010230 1_545
Ce1 Zn3 3.010230 1_455
Ce1 Zn3 3.010230 1_554
Ce1 Ni0 3.230689 1_554
Ce1 Ni8 3.230689 1_545
Ce1 Ni7 3.230689 1_455
Ce2 Ni3 2.907080 1_656
Ce2 Ni3 2.907081 1_566
Ce2 Ni3 2.907081 1_665
Ce2 Ni6 2.907201 1_565
Ce2 Ni6 2.907201 1_655
Ce2 Ni6 2.907201 1_556
Ce2 Ni0 3.205637 1_565
Ce2 Ni0 3.205638 1_655
Ce2 Ni8 3.205638 1_556
Ce2 Ni7 3.205638 1_556
Ce2 Ni7 3.205638 1_565
Ce2 Ni8 3.205638 1_655
Ce2 Zn0 3.295536 1_656
Ce2 Zn2 3.295536 1_665
Ce2 Zn0 3.295536 1_566
Ce2 Zn1 3.295536 1_665
Ce2 Zn1 3.295536 1_656
Ce2 Zn2 3.295537 1_566
Ce3 Ni2 2.907080 1_454
Ce3 Ni2 2.907081 1_544
Ce3 Ni2 2.907081 1_445
Ce3 Ni1 2.907201 1_545
Ce3 Ni1 2.907201 1_455
Ce3 Ni1 2.907201 1_554
Ce3 Ni5 3.205637 1_545
Ce3 Ni5 3.205638 1_455
Ce3 Ni4 3.205638 1_554
Ce3 Ni9 3.205638 1_554
Ce3 Ni9 3.205638 1_545
Ce3 Ni4 3.205638 1_455
Ce3 Zn0 3.295536 1_455
Ce3 Zn2 3.295536 1_455
Ce3 Zn0 3.295536 1_545
Ce3 Zn1 3.295536 1_545
Ce3 Zn1 3.295536 1_554
Ce3 Zn2 3.295537 1_554
Zn0 Zn2 2.517526 1_555
Zn0 Zn2 2.517526 1_564
Zn0 Zn1 2.517526 1_654
Zn0 Zn1 2.517526 1_555
Zn1 Zn2 2.517526 1_465
Zn1 Zn2 2.517526 1_555
Ni0 Ni3 2.475351 1_556
Ni0 Ni6 2.491420 1_555
Ni0 Ni8 2.508146 1_546
Ni0 Ni7 2.508146 1_456
Ni0 Ni8 2.526906 1_555
Ni0 Ni7 2.526906 1_555
Ni0 Zn3 2.562273 1_555
Ni1 Ni5 2.491420 1_555
Ni1 Ni4 2.491420 1_555
Ni1 Ni9 2.491420 1_555
Ni1 Zn1 2.546986 1_555
Ni1 Zn2 2.546986 1_555
Ni1 Zn0 2.546987 1_555
Ni2 Ni9 2.475351 1_655
Ni2 Ni4 2.475351 1_565
Ni2 Ni5 2.475351 1_556
Ni2 Zn0 2.556849 1_556
Ni2 Zn2 2.556850 1_565
Ni2 Zn1 2.556850 1_655
Ni3 Ni7 2.475351 1_455
Ni3 Ni8 2.475351 1_545
Ni3 Zn0 2.556849 1_555
Ni3 Zn2 2.556850 1_555
Ni3 Zn1 2.556850 1_555
Ni4 Ni9 2.508146 1_645
Ni4 Ni5 2.508146 1_546
Ni4 Ni9 2.526906 1_555
Ni4 Ni5 2.526906 1_555
Ni4 Zn3 2.562272 1_555
Ni5 Ni9 2.508146 1_654
Ni5 Ni9 2.526906 1_555
Ni5 Zn3 2.562273 1_555
Ni6 Ni8 2.491420 1_555
Ni6 Ni7 2.491420 1_555
Ni6 Zn1 2.546986 1_655
Ni6 Zn2 2.546986 1_565
Ni6 Zn0 2.546987 1_556
Ni7 Ni8 2.508146 1_645
Ni7 Ni8 2.526906 1_555
Ni7 Zn3 2.562272 1_555
Ni8 Zn3 2.562272 1_555
Ni9 Zn3 2.562272 1_555
