# generated using pymatgen
data_Rb5Al(MoO4)4
_symmetry_space_group_name_H-M   'P 1'
_cell_length_a   6.19562205
_cell_length_b   8.45846809
_cell_length_c   10.62870479
_cell_angle_alpha   69.01443875
_cell_angle_beta   90.09659843
_cell_angle_gamma   90.14249527
_symmetry_Int_Tables_number   1
_chemical_formula_structural   Rb5Al(MoO4)4
_chemical_formula_sum   'Rb5 Al1 Mo4 O16'
_cell_volume   520.05492012
_cell_formula_units_Z   1
loop_
 _symmetry_equiv_pos_site_id
 _symmetry_equiv_pos_as_xyz
  1  'x, y, z'
loop_
 _atom_site_type_symbol
 _atom_site_label
 _atom_site_symmetry_multiplicity
 _atom_site_fract_x
 _atom_site_fract_y
 _atom_site_fract_z
 _atom_site_occupancy
  Rb  Rb0  1  0.99348600  0.45072000  0.21167900  1
  Rb  Rb1  1  0.49382100  0.90772500  0.70365900  1
  Rb  Rb2  1  0.99364400  0.63509900  0.79334600  1
  Rb  Rb3  1  0.49309900  0.11658000  0.32490400  1
  Rb  Rb4  1  0.49200000  0.50554600  0.49028900  1
  Al  Al0  1  0.99043700  0.13891500  0.07198300  1
  Mo  Mo0  1  0.49389600  0.70221200  0.08732600  1
  Mo  Mo1  1  0.99323600  0.20015700  0.60047800  1
  Mo  Mo2  1  0.49107800  0.28222600  0.90938500  1
  Mo  Mo3  1  0.99183300  0.82533600  0.39930600  1
  O  O0  1  0.22957500  0.24047700  0.00860700  1
  O  O1  1  0.76059000  0.81300900  0.49932400  1
  O  O2  1  0.49102500  0.49331500  0.80435400  1
  O  O3  1  0.99209700  0.03055500  0.24078700  1
  O  O4  1  0.99589100  0.35079500  0.68519500  1
  O  O5  1  0.49948500  0.87071300  0.15522000  1
  O  O6  1  0.99188900  0.64636500  0.35380500  1
  O  O7  1  0.49219900  0.16734700  0.80574300  1
  O  O8  1  0.25729400  0.71554400  0.98688600  1
  O  O9  1  0.75786200  0.22789500  0.49434500  1
  O  O10  1  0.49192300  0.49443800  0.21948700  1
  O  O11  1  0.99223000  0.98831800  0.72060700  1
  O  O12  1  0.72631700  0.71127000  0.98489100  1
  O  O13  1  0.22668500  0.22669800  0.49328500  1
  O  O14  1  0.75270100  0.24228000  0.00879700  1
  O  O15  1  0.22380900  0.81376500  0.49901300  1
loop_
_geom_bond_atom_site_label_1
_geom_bond_atom_site_label_2
_geom_bond_distance
_geom_bond_site_symmetry_2
Al0 O3 1.697451 1_555
Al0 O14 1.722627 1_555
Al0 O0 1.723208 1_655
Mo0 O12 1.791596 1_554
Mo0 O8 1.791799 1_554
Mo0 O5 1.813742 1_555
Mo0 O10 1.814849 1_555
Mo1 O11 1.789479 1_545
Mo1 O4 1.804485 1_555
Mo1 O9 1.805754 1_555
Mo1 O13 1.805867 1_655
Mo2 O7 1.710112 1_555
Mo2 O2 1.733933 1_555
Mo2 O0 1.896844 1_556
Mo2 O14 1.897160 1_556
Mo3 O6 1.746403 1_555
Mo3 O1 1.765951 1_555
Mo3 O15 1.766233 1_655
Mo3 O3 1.938310 1_565
O0 Rb3 3.540106 1_555
O1 Rb1 3.058650 1_555
O1 Rb3 3.062332 1_565
O1 Rb4 3.114269 1_555
O1 Rb2 3.277607 1_555
O2 Rb1 3.278011 1_555
O2 Rb2 3.296176 1_455
O2 Rb4 3.302482 1_555
O2 Rb2 3.321344 1_555
O3 Rb3 3.372429 1_555
O3 Rb3 3.377736 1_655
O4 Rb2 3.014084 1_555
O5 Rb3 3.204120 1_565
O6 Rb0 2.609846 1_555
O7 Rb1 2.776077 1_545
O8 Rb2 2.889383 1_455
O8 Rb1 3.217150 1_555
O9 Rb3 2.831543 1_555
O9 Rb4 2.859547 1_555
O9 Rb1 3.261055 1_545
O10 Rb4 2.913244 1_555
O10 Rb3 2.984226 1_555
O10 Rb0 3.113775 1_455
O10 Rb0 3.135079 1_555
O11 Rb2 2.805305 1_555
O11 Rb1 3.179343 1_555
O11 Rb1 3.202364 1_655
O12 Rb2 2.873897 1_555
O12 Rb1 3.195427 1_555
O13 Rb3 2.829586 1_555
O13 Rb4 2.862391 1_555
O13 Rb1 3.272150 1_545
O14 Rb3 3.529411 1_555
O15 Rb3 3.059870 1_565
O15 Rb1 3.062790 1_555
O15 Rb4 3.124344 1_555
O15 Rb2 3.274467 1_455
