# generated using pymatgen
data_TaBiO5
_symmetry_space_group_name_H-M   'P 1'
_cell_length_a   9.81865700
_cell_length_b   5.48394900
_cell_length_c   9.17405737
_cell_angle_alpha   62.14833305
_cell_angle_beta   90.00000000
_cell_angle_gamma   90.00000000
_symmetry_Int_Tables_number   1
_chemical_formula_structural   TaBiO5
_chemical_formula_sum   'Ta4 Bi4 O20'
_cell_volume   436.75494855
_cell_formula_units_Z   4
loop_
 _symmetry_equiv_pos_site_id
 _symmetry_equiv_pos_as_xyz
  1  'x, y, z'
loop_
 _atom_site_type_symbol
 _atom_site_label
 _atom_site_symmetry_multiplicity
 _atom_site_fract_x
 _atom_site_fract_y
 _atom_site_fract_z
 _atom_site_occupancy
  Ta  Ta0  1  0.41095500  0.23742500  0.00952500  1
  Ta  Ta1  1  0.58904500  0.76257500  0.99047500  1
  Ta  Ta2  1  0.91095500  0.76257500  0.49047500  1
  Ta  Ta3  1  0.08904500  0.23742500  0.50952500  1
  Bi  Bi0  1  0.89437400  0.98786600  0.86978800  1
  Bi  Bi1  1  0.10562600  0.01213400  0.13021200  1
  Bi  Bi2  1  0.60562600  0.98786600  0.36978800  1
  Bi  Bi3  1  0.39437400  0.01213400  0.63021200  1
  O  O0  1  0.94463100  0.90847700  0.64519300  1
  O  O1  1  0.98477800  0.36731100  0.65165000  1
  O  O2  1  0.80951800  0.09942000  0.32110300  1
  O  O3  1  0.42125300  0.80957900  0.48003200  1
  O  O4  1  0.73321200  0.62766200  0.52469700  1
  O  O5  1  0.76678800  0.62766200  0.02469700  1
  O  O6  1  0.51522200  0.36731100  0.15165000  1
  O  O7  1  0.48477800  0.63268900  0.84835000  1
  O  O8  1  0.57874700  0.19042100  0.51996800  1
  O  O9  1  0.44463100  0.09152300  0.85480700  1
  O  O10  1  0.26678800  0.37233800  0.47530300  1
  O  O11  1  0.05536900  0.09152300  0.35480700  1
  O  O12  1  0.55536900  0.90847700  0.14519300  1
  O  O13  1  0.23321200  0.37233800  0.97530300  1
  O  O14  1  0.92125300  0.19042100  0.01996800  1
  O  O15  1  0.07874700  0.80957900  0.98003200  1
  O  O16  1  0.19048200  0.90058000  0.67889700  1
  O  O17  1  0.01522200  0.63268900  0.34835000  1
  O  O18  1  0.30951800  0.90058000  0.17889700  1
  O  O19  1  0.69048200  0.09942000  0.82110300  1
loop_
_geom_bond_atom_site_label_1
_geom_bond_atom_site_label_2
_geom_bond_distance
_geom_bond_site_symmetry_2
Bi0 O19 2.079956 1_565
Bi0 O15 2.081358 1_655
Bi0 O14 2.152145 1_566
Bi0 O5 2.206340 1_556
Bi0 O1 2.287312 1_565
Bi0 O0 2.348757 1_555
Bi1 O18 2.079956 1_545
Bi1 O14 2.081358 1_455
Bi1 O15 2.152145 1_544
Bi1 O13 2.206340 1_554
Bi1 O17 2.287312 1_545
Bi1 O11 2.348757 1_555
Bi2 O2 2.079956 1_565
Bi2 O3 2.081358 1_555
Bi2 O8 2.152145 1_565
Bi2 O4 2.206340 1_555
Bi2 O6 2.287312 1_565
Bi2 O12 2.348757 1_555
Bi3 O16 2.079956 1_545
Bi3 O8 2.081358 1_555
Bi3 O3 2.152145 1_545
Bi3 O10 2.206340 1_555
Bi3 O7 2.287312 1_545
Bi3 O9 2.348757 1_555
O0 Ta2 1.955848 1_555
O0 Ta3 2.171634 1_665
O1 Ta3 2.030585 1_655
O1 Ta2 2.101317 1_555
O2 Ta2 2.033897 1_545
O4 Ta2 1.864037 1_555
O5 Ta1 1.864037 1_554
O6 Ta0 2.030585 1_555
O6 Ta1 2.101317 1_554
O7 Ta1 2.030585 1_555
O7 Ta0 2.101317 1_556
O9 Ta0 1.955848 1_556
O9 Ta1 2.171634 1_545
O10 Ta3 1.864037 1_555
O11 Ta3 1.955848 1_555
O11 Ta2 2.171634 1_445
O12 Ta1 1.955848 1_554
O12 Ta0 2.171634 1_565
O13 Ta0 1.864037 1_556
O16 Ta3 2.033897 1_565
O17 Ta2 2.030585 1_455
O17 Ta3 2.101317 1_555
O18 Ta0 2.033897 1_565
O19 Ta1 2.033897 1_545
