# generated using pymatgen
data_LuV2O2
_symmetry_space_group_name_H-M   'P 1'
_cell_length_a   7.71925596
_cell_length_b   7.71925596
_cell_length_c   7.71925596
_cell_angle_alpha   110.04720761
_cell_angle_beta   110.04720761
_cell_angle_gamma   108.32528827
_symmetry_Int_Tables_number   1
_chemical_formula_structural   LuV2O2
_chemical_formula_sum   'Lu4 V8 O8'
_cell_volume   353.97650708
_cell_formula_units_Z   4
loop_
 _symmetry_equiv_pos_site_id
 _symmetry_equiv_pos_as_xyz
  1  'x, y, z'
loop_
 _atom_site_type_symbol
 _atom_site_label
 _atom_site_symmetry_multiplicity
 _atom_site_fract_x
 _atom_site_fract_y
 _atom_site_fract_z
 _atom_site_occupancy
  Lu  Lu0  1  0.87500000  0.12500000  0.25000000  1
  Lu  Lu1  1  0.87500000  0.62500000  0.75000000  1
  Lu  Lu2  1  0.37500000  0.12500000  0.25000000  1
  Lu  Lu3  1  0.87500000  0.12500000  0.75000000  1
  V  V0  1  0.51066400  0.18932200  0.67865900  1
  V  V1  1  0.51066400  0.83200500  0.32134100  1
  V  V2  1  0.58200500  0.76066400  0.82134100  1
  V  V3  1  0.23933600  0.41799500  0.17865900  1
  V  V4  1  0.23933600  0.06067800  0.82134100  1
  V  V5  1  0.93932200  0.76066400  0.17865900  1
  V  V6  1  0.16799500  0.48933600  0.67865900  1
  V  V7  1  0.81067800  0.48933600  0.32134100  1
  O  O0  1  0.66387100  0.51271900  0.84884800  1
  O  O1  1  0.66387100  0.81502400  0.15115200  1
  O  O2  1  0.56502400  0.91387100  0.65115200  1
  O  O3  1  0.08612800  0.43497600  0.34884800  1
  O  O4  1  0.08612800  0.73728100  0.65115200  1
  O  O5  1  0.26271900  0.91387100  0.34884800  1
  O  O6  1  0.18497600  0.33612800  0.84884800  1
  O  O7  1  0.48728100  0.33612800  0.15115200  1
loop_
_geom_bond_atom_site_label_1
_geom_bond_atom_site_label_2
_geom_bond_distance
_geom_bond_site_symmetry_2
Lu0 O3 2.099344 1_655
Lu0 O1 2.099346 1_545
Lu1 O4 2.099346 1_655
Lu1 O0 2.099352 1_555
Lu2 O7 2.099346 1_555
Lu2 O5 2.099352 1_545
Lu3 O6 2.099344 1_655
Lu3 O2 2.099346 1_545
O0 V0 2.046058 1_555
O0 V5 2.248295 1_556
O0 V2 2.248298 1_555
O1 V1 2.046051 1_555
O1 V5 2.248294 1_555
O1 V2 2.248295 1_554
O2 V2 2.046051 1_555
O2 V0 2.248294 1_565
O2 V1 2.248295 1_555
O3 V3 2.046057 1_555
O3 V7 2.248287 1_455
O3 V6 2.248294 1_555
O4 V4 2.046057 1_565
O4 V7 2.248293 1_455
O4 V6 2.248302 1_555
O5 V5 2.046058 1_455
O5 V0 2.248295 1_565
O5 V1 2.248298 1_555
O6 V6 2.046057 1_555
O6 V4 2.248287 1_555
O6 V3 2.248294 1_556
O7 V7 2.046057 1_555
O7 V4 2.248293 1_554
O7 V3 2.248302 1_555
