# generated using pymatgen
data_LiSnB
_symmetry_space_group_name_H-M   'P 1'
_cell_length_a   3.94068629
_cell_length_b   3.94068629
_cell_length_c   3.94068629
_cell_angle_alpha   60.00000000
_cell_angle_beta   60.00000000
_cell_angle_gamma   60.00000000
_symmetry_Int_Tables_number   1
_chemical_formula_structural   LiSnB
_chemical_formula_sum   'Li1 Sn1 B1'
_cell_volume   43.27136466
_cell_formula_units_Z   1
loop_
 _symmetry_equiv_pos_site_id
 _symmetry_equiv_pos_as_xyz
  1  'x, y, z'
loop_
 _atom_site_type_symbol
 _atom_site_label
 _atom_site_symmetry_multiplicity
 _atom_site_fract_x
 _atom_site_fract_y
 _atom_site_fract_z
 _atom_site_occupancy
  Li  Li0  1  0.00000000  0.00000000  0.00000000  1
  Sn  Sn0  1  0.50000000  0.50000000  0.50000000  1
  B  B0  1  0.75000000  0.75000000  0.75000000  1
loop_
_geom_bond_atom_site_label_1
_geom_bond_atom_site_label_2
_geom_bond_distance
_geom_bond_site_symmetry_2
Li0 Sn0 2.786486 1_554
Li0 Sn0 2.786486 1_454
Li0 Sn0 2.786486 1_544
Li0 Sn0 2.786486 1_545
Li0 Sn0 2.786486 1_445
Li0 Sn0 2.786486 1_455
B0 Li0 2.413168 1_656
B0 Li0 2.413168 1_666
B0 Li0 2.413168 1_665
B0 Sn0 2.413168 1_565
B0 Sn0 2.413168 1_556
B0 Sn0 2.413168 1_555
B0 Sn0 2.413168 1_655
B0 Li0 2.413168 1_566
