# generated using pymatgen
data_Gd2CoNi3
_symmetry_space_group_name_H-M   'P 1'
_cell_length_a   3.96196805
_cell_length_b   3.96196805
_cell_length_c   7.78253500
_cell_angle_alpha   90.00000000
_cell_angle_beta   90.00000000
_cell_angle_gamma   120.00000091
_symmetry_Int_Tables_number   1
_chemical_formula_structural   Gd2CoNi3
_chemical_formula_sum   'Gd2 Co1 Ni3'
_cell_volume   105.79707217
_cell_formula_units_Z   1
loop_
 _symmetry_equiv_pos_site_id
 _symmetry_equiv_pos_as_xyz
  1  'x, y, z'
loop_
 _atom_site_type_symbol
 _atom_site_label
 _atom_site_symmetry_multiplicity
 _atom_site_fract_x
 _atom_site_fract_y
 _atom_site_fract_z
 _atom_site_occupancy
  Gd  Gd0  1  0.33333300  0.66666700  0.24781500  1
  Gd  Gd1  1  0.33333300  0.66666700  0.75218500  1
  Co  Co0  1  0.66666700  0.33333300  0.00000000  1
  Ni  Ni0  1  0.66666700  0.33333300  0.50000000  1
  Ni  Ni1  1  0.00000000  0.00000000  0.00000000  1
  Ni  Ni2  1  0.00000000  0.00000000  0.50000000  1
loop_
_geom_bond_atom_site_label_1
_geom_bond_atom_site_label_2
_geom_bond_distance
_geom_bond_site_symmetry_2
Gd0 Ni1 2.991989 1_565
Gd0 Ni1 2.991991 1_555
Gd0 Ni1 2.991991 1_665
Gd0 Ni0 3.014023 1_455
Gd0 Ni0 3.014023 1_565
Gd0 Ni2 3.014023 1_565
Gd0 Ni2 3.014026 1_665
Gd0 Ni2 3.014026 1_555
Gd0 Ni0 3.014029 1_555
Gd1 Ni1 2.991989 1_566
Gd1 Ni1 2.991991 1_556
Gd1 Ni1 2.991991 1_666
Gd1 Ni0 3.014023 1_455
Gd1 Ni0 3.014023 1_565
Gd1 Ni2 3.014023 1_565
Gd1 Ni2 3.014026 1_555
Gd1 Ni2 3.014026 1_665
Gd1 Ni0 3.014029 1_555
Co0 Ni1 2.287441 1_655
Co0 Ni1 2.287444 1_665
Co0 Ni1 2.287444 1_555
Co0 Gd0 2.991989 1_545
Co0 Gd0 2.991989 1_655
Co0 Gd1 2.991989 1_544
Co0 Gd1 2.991989 1_654
Co0 Gd0 2.991994 1_555
Co0 Gd1 2.991994 1_554
Ni0 Ni2 2.287441 1_655
Ni0 Ni2 2.287444 1_665
Ni0 Ni2 2.287444 1_555
