# generated using pymatgen
data_CsGd(MoO4)2
_symmetry_space_group_name_H-M   'P 1'
_cell_length_a   5.10864800
_cell_length_b   8.37365800
_cell_length_c   9.67950000
_cell_angle_alpha   90.00000000
_cell_angle_beta   90.00000000
_cell_angle_gamma   90.00000000
_symmetry_Int_Tables_number   1
_chemical_formula_structural   CsGd(MoO4)2
_chemical_formula_sum   'Cs2 Gd2 Mo4 O16'
_cell_volume   414.07034013
_cell_formula_units_Z   2
loop_
 _symmetry_equiv_pos_site_id
 _symmetry_equiv_pos_as_xyz
  1  'x, y, z'
loop_
 _atom_site_type_symbol
 _atom_site_label
 _atom_site_symmetry_multiplicity
 _atom_site_fract_x
 _atom_site_fract_y
 _atom_site_fract_z
 _atom_site_occupancy
  Cs  Cs0  1  0.00000000  0.25000000  0.50000000  1
  Cs  Cs1  1  0.00000000  0.75000000  0.50000000  1
  Gd  Gd0  1  0.00000000  0.25000000  0.00000000  1
  Gd  Gd1  1  0.00000000  0.75000000  0.00000000  1
  Mo  Mo0  1  0.52185000  0.00000000  0.19686600  1
  Mo  Mo1  1  0.47815000  0.00000000  0.80313400  1
  Mo  Mo2  1  0.47815000  0.50000000  0.19686600  1
  Mo  Mo3  1  0.52185000  0.50000000  0.80313400  1
  O  O0  1  0.24976100  0.00000000  0.06882900  1
  O  O1  1  0.75023900  0.00000000  0.93117100  1
  O  O2  1  0.75023900  0.50000000  0.06882900  1
  O  O3  1  0.24976100  0.50000000  0.93117100  1
  O  O4  1  0.26227800  0.32892200  0.18671800  1
  O  O5  1  0.73772200  0.67107800  0.81328200  1
  O  O6  1  0.73772200  0.32892200  0.81328200  1
  O  O7  1  0.73772200  0.17107800  0.18671800  1
  O  O8  1  0.26227800  0.67107800  0.18671800  1
  O  O9  1  0.26227800  0.82892200  0.81328200  1
  O  O10  1  0.26227800  0.17107800  0.81328200  1
  O  O11  1  0.73772200  0.82892200  0.18671800  1
  O  O12  1  0.37923500  0.00000000  0.36180600  1
  O  O13  1  0.62076500  0.00000000  0.63819400  1
  O  O14  1  0.62076500  0.50000000  0.36180600  1
  O  O15  1  0.37923500  0.50000000  0.63819400  1
loop_
_geom_bond_atom_site_label_1
_geom_bond_atom_site_label_2
_geom_bond_distance
_geom_bond_site_symmetry_2
Cs0 O13 3.150416 1_455
Cs0 O15 3.150416 1_555
Cs0 O14 3.150416 1_455
Cs0 O12 3.150416 1_555
Cs0 O6 3.380469 1_455
Cs0 O4 3.380469 1_555
Cs0 O10 3.380469 1_555
Cs0 O7 3.380469 1_455
Cs1 O15 3.150416 1_555
Cs1 O13 3.150416 1_465
Cs1 O14 3.150416 1_455
Cs1 O12 3.150416 1_565
Cs1 O9 3.380469 1_555
Cs1 O11 3.380469 1_455
Cs1 O5 3.380469 1_455
Cs1 O8 3.380469 1_555
Gd0 O4 2.344889 1_555
Gd0 O6 2.344889 1_454
Gd0 O7 2.344889 1_455
Gd0 O10 2.344889 1_554
Gd0 O0 2.540526 1_555
Gd0 O3 2.540526 1_554
Gd0 O2 2.540526 1_455
Gd0 O1 2.540526 1_454
Gd1 O11 2.344889 1_455
Gd1 O9 2.344889 1_554
Gd1 O8 2.344889 1_555
Gd1 O5 2.344889 1_454
Gd1 O0 2.540526 1_565
Gd1 O3 2.540526 1_554
Gd1 O1 2.540526 1_464
Gd1 O2 2.540526 1_455
Mo0 O12 1.754920 1_555
Mo0 O7 1.810537 1_555
Mo0 O11 1.810537 1_545
Mo0 O0 1.862275 1_555
Mo1 O13 1.754920 1_555
Mo1 O10 1.810537 1_555
Mo1 O9 1.810537 1_545
Mo1 O1 1.862275 1_555
Mo2 O14 1.754920 1_555
Mo2 O8 1.810537 1_555
Mo2 O4 1.810537 1_555
Mo2 O2 1.862275 1_555
Mo3 O15 1.754920 1_555
Mo3 O5 1.810537 1_555
Mo3 O6 1.810537 1_555
Mo3 O3 1.862275 1_555
