# generated using pymatgen
data_Mg(MoO2)2
_symmetry_space_group_name_H-M   'P 1'
_cell_length_a   3.14024800
_cell_length_b   9.61449900
_cell_length_c   11.02801900
_cell_angle_alpha   90.00000000
_cell_angle_beta   90.00000000
_cell_angle_gamma   90.00000000
_symmetry_Int_Tables_number   1
_chemical_formula_structural   Mg(MoO2)2
_chemical_formula_sum   'Mg4 Mo8 O16'
_cell_volume   332.95697097
_cell_formula_units_Z   4
loop_
 _symmetry_equiv_pos_site_id
 _symmetry_equiv_pos_as_xyz
  1  'x, y, z'
loop_
 _atom_site_type_symbol
 _atom_site_label
 _atom_site_symmetry_multiplicity
 _atom_site_fract_x
 _atom_site_fract_y
 _atom_site_fract_z
 _atom_site_occupancy
  Mg  Mg0  1  0.75000000  0.74807400  0.84230400  1
  Mg  Mg1  1  0.25000000  0.25192600  0.15769600  1
  Mg  Mg2  1  0.75000000  0.24807400  0.65769600  1
  Mg  Mg3  1  0.25000000  0.75192600  0.34230400  1
  Mo  Mo0  1  0.25000000  0.89820700  0.59857200  1
  Mo  Mo1  1  0.75000000  0.60179300  0.09857200  1
  Mo  Mo2  1  0.25000000  0.39820700  0.90142800  1
  Mo  Mo3  1  0.75000000  0.10179300  0.40142800  1
  Mo  Mo4  1  0.75000000  0.04974600  0.87796500  1
  Mo  Mo5  1  0.25000000  0.95025400  0.12203500  1
  Mo  Mo6  1  0.75000000  0.54974600  0.62203500  1
  Mo  Mo7  1  0.25000000  0.45025400  0.37796500  1
  O  O0  1  0.25000000  0.39992900  0.57143000  1
  O  O1  1  0.75000000  0.60007100  0.42857000  1
  O  O2  1  0.25000000  0.89992900  0.92857000  1
  O  O3  1  0.75000000  0.10007100  0.07143000  1
  O  O4  1  0.25000000  0.57530800  0.22179900  1
  O  O5  1  0.75000000  0.42469200  0.77820100  1
  O  O6  1  0.25000000  0.07530800  0.27820100  1
  O  O7  1  0.75000000  0.92469200  0.72179900  1
  O  O8  1  0.25000000  0.11886600  0.54569100  1
  O  O9  1  0.75000000  0.88113400  0.45430900  1
  O  O10  1  0.25000000  0.61886600  0.95430900  1
  O  O11  1  0.75000000  0.38113400  0.04569100  1
  O  O12  1  0.75000000  0.30989200  0.31448000  1
  O  O13  1  0.25000000  0.69010800  0.68552000  1
  O  O14  1  0.25000000  0.19010800  0.81448000  1
  O  O15  1  0.75000000  0.80989200  0.18552000  1
loop_
_geom_bond_atom_site_label_1
_geom_bond_atom_site_label_2
_geom_bond_distance
_geom_bond_site_symmetry_2
Mg0 O7 2.156289 1_555
Mg0 O2 2.345628 1_555
Mg0 O2 2.345628 1_655
Mg0 O10 2.352494 1_555
Mg0 O10 2.352494 1_655
Mg0 O13 2.401122 1_555
Mg0 O13 2.401122 1_655
Mg1 O6 2.156289 1_555
Mg1 O3 2.345628 1_555
Mg1 O3 2.345628 1_455
Mg1 O11 2.352494 1_555
Mg1 O11 2.352494 1_455
Mg1 O12 2.401122 1_555
Mg1 O12 2.401122 1_455
Mg2 O5 2.156289 1_555
Mg2 O0 2.345628 1_555
Mg2 O0 2.345628 1_655
Mg2 O8 2.352494 1_655
Mg2 O8 2.352494 1_555
Mg2 O14 2.401122 1_555
Mg2 O14 2.401122 1_655
Mg3 O4 2.156289 1_555
Mg3 O1 2.345628 1_555
Mg3 O1 2.345628 1_455
Mg3 O9 2.352494 1_555
Mg3 O9 2.352494 1_455
Mg3 O15 2.401122 1_555
Mg3 O15 2.401122 1_455
Mo0 O7 2.092098 1_455
Mo0 O7 2.092098 1_555
Mo0 O8 2.200219 1_565
Mo0 O13 2.218669 1_555
Mo0 O9 2.241274 1_455
Mo0 O9 2.241274 1_555
Mo1 O4 2.092098 1_555
Mo1 O4 2.092098 1_655
Mo1 O11 2.200219 1_555
Mo1 O15 2.218669 1_555
Mo1 O10 2.241274 1_554
Mo1 O10 2.241274 1_654
Mo2 O5 2.092098 1_555
Mo2 O5 2.092098 1_455
Mo2 O10 2.200219 1_555
Mo2 O14 2.218669 1_555
Mo2 O11 2.241274 1_456
Mo2 O11 2.241274 1_556
Mo3 O6 2.092098 1_555
Mo3 O6 2.092098 1_655
Mo3 O9 2.200219 1_545
Mo3 O12 2.218669 1_555
Mo3 O8 2.241274 1_555
Mo3 O8 2.241274 1_655
Mo4 O7 2.100376 1_545
Mo4 O14 2.185550 1_555
Mo4 O14 2.185550 1_655
Mo4 O3 2.187712 1_556
Mo4 O2 2.202619 1_545
Mo4 O2 2.202619 1_645
Mo5 O6 2.100376 1_565
Mo5 O15 2.185550 1_555
Mo5 O15 2.185550 1_455
Mo5 O2 2.187712 1_554
Mo5 O3 2.202619 1_565
Mo5 O3 2.202619 1_465
Mo6 O5 2.100376 1_555
Mo6 O13 2.185550 1_655
Mo6 O13 2.185550 1_555
Mo6 O1 2.187712 1_555
Mo6 O0 2.202619 1_555
Mo6 O0 2.202619 1_655
Mo7 O4 2.100376 1_555
Mo7 O12 2.185550 1_455
Mo7 O12 2.185550 1_555
Mo7 O0 2.187712 1_555
Mo7 O1 2.202619 1_555
Mo7 O1 2.202619 1_455
