# generated using pymatgen
data_Mg3(SiO3)4
_symmetry_space_group_name_H-M   'P 1'
_cell_length_a   5.35942571
_cell_length_b   5.35942571
_cell_length_c   19.32616121
_cell_angle_alpha   87.02002829
_cell_angle_beta   87.02002829
_cell_angle_gamma   119.65249010
_symmetry_Int_Tables_number   1
_chemical_formula_structural   Mg3(SiO3)4
_chemical_formula_sum   'Mg6 Si8 O24'
_cell_volume   479.82995129
_cell_formula_units_Z   2
loop_
 _symmetry_equiv_pos_site_id
 _symmetry_equiv_pos_as_xyz
  1  'x, y, z'
loop_
 _atom_site_type_symbol
 _atom_site_label
 _atom_site_symmetry_multiplicity
 _atom_site_fract_x
 _atom_site_fract_y
 _atom_site_fract_z
 _atom_site_occupancy
  Mg  Mg0  1  0.50000000  0.00000000  0.50000000  1
  Mg  Mg1  1  0.00000000  0.50000000  0.00000000  1
  Mg  Mg2  1  0.14591100  0.32290200  0.50012400  1
  Mg  Mg3  1  0.67709800  0.85408900  0.99987600  1
  Mg  Mg4  1  0.85408900  0.67709800  0.49987600  1
  Mg  Mg5  1  0.32290200  0.14591100  0.00012400  1
  Si  Si0  1  0.88570000  0.38577700  0.35496000  1
  Si  Si1  1  0.61422300  0.11430000  0.14504000  1
  Si  Si2  1  0.11430000  0.61422300  0.64504000  1
  Si  Si3  1  0.38577700  0.88570000  0.85496000  1
  Si  Si4  1  0.21923100  0.05245400  0.35499200  1
  Si  Si5  1  0.94754600  0.78076900  0.14500800  1
  Si  Si6  1  0.78076900  0.94754600  0.64500800  1
  Si  Si7  1  0.05245400  0.21923100  0.85499200  1
  O  O0  1  0.85591800  0.35110900  0.44086700  1
  O  O1  1  0.64889100  0.14408200  0.05913300  1
  O  O2  1  0.14408200  0.64889100  0.55913300  1
  O  O3  1  0.35110900  0.85591800  0.94086700  1
  O  O4  1  0.18726400  0.01775400  0.44090900  1
  O  O5  1  0.98224600  0.81273600  0.05909100  1
  O  O6  1  0.81273600  0.98224600  0.55909100  1
  O  O7  1  0.01775400  0.18726400  0.94090900  1
  O  O8  1  0.51531200  0.66605600  0.45592200  1
  O  O9  1  0.33394400  0.48468800  0.04407800  1
  O  O10  1  0.48468800  0.33394400  0.54407800  1
  O  O11  1  0.66605600  0.51531200  0.95592200  1
  O  O12  1  0.56254100  0.22598000  0.32732400  1
  O  O13  1  0.77402000  0.43745900  0.17267600  1
  O  O14  1  0.43745900  0.77402000  0.67267600  1
  O  O15  1  0.22598000  0.56254100  0.82732400  1
  O  O16  1  0.05858400  0.72916300  0.32736800  1
  O  O17  1  0.27083700  0.94141600  0.17263200  1
  O  O18  1  0.94141600  0.27083700  0.67263200  1
  O  O19  1  0.72916300  0.05858400  0.82736800  1
  O  O20  1  0.06673900  0.23323000  0.32641600  1
  O  O21  1  0.76677000  0.93326100  0.17358400  1
  O  O22  1  0.93326100  0.76677000  0.67358400  1
  O  O23  1  0.23323000  0.06673900  0.82641600  1
loop_
_geom_bond_atom_site_label_1
_geom_bond_atom_site_label_2
_geom_bond_distance
_geom_bond_site_symmetry_2
Mg0 O10 2.057225 1_555
Mg0 O8 2.057225 1_545
Mg0 O6 2.113766 1_545
Mg0 O4 2.113766 1_555
Mg0 O2 2.117467 1_545
Mg0 O0 2.117467 1_555
Mg1 O9 2.057225 1_555
Mg1 O11 2.057225 1_454
Mg1 O5 2.113766 1_455
Mg1 O7 2.113766 1_554
Mg1 O1 2.117467 1_455
Mg1 O3 2.117467 1_554
Mg2 O10 2.020135 1_555
Mg2 O8 2.022297 1_555
Mg2 O0 2.037014 1_455
Mg2 O6 2.041266 1_445
Mg2 O4 2.135468 1_555
Mg2 O2 2.139159 1_555
Mg3 O11 2.020135 1_555
Mg3 O9 2.022297 1_556
Mg3 O1 2.037014 1_566
Mg3 O7 2.041266 1_665
Mg3 O5 2.135468 1_556
Mg3 O3 2.139159 1_555
Mg4 O8 2.020135 1_555
Mg4 O10 2.022297 1_555
Mg4 O2 2.037014 1_655
Mg4 O4 2.041266 1_665
Mg4 O6 2.135468 1_555
Mg4 O0 2.139159 1_555
Mg5 O9 2.020135 1_555
Mg5 O11 2.022297 1_554
Mg5 O3 2.037014 1_544
Mg5 O5 2.041266 1_445
Mg5 O7 2.135468 1_554
Mg5 O1 2.139159 1_555
O0 Si0 1.651504 1_555
O1 Si1 1.651504 1_555
O2 Si2 1.651504 1_555
O3 Si3 1.651504 1_555
O4 Si4 1.651607 1_555
O5 Si5 1.651607 1_555
O6 Si6 1.651607 1_555
O7 Si7 1.651607 1_555
O12 Si4 1.639841 1_555
O12 Si0 1.641471 1_555
O13 Si5 1.639841 1_555
O13 Si1 1.641471 1_555
O14 Si6 1.639841 1_555
O14 Si2 1.641471 1_555
O15 Si7 1.639841 1_555
O15 Si3 1.641471 1_555
O16 Si0 1.639848 1_455
O16 Si4 1.642034 1_565
O17 Si1 1.639848 1_565
O17 Si5 1.642034 1_455
O18 Si2 1.639848 1_655
O18 Si6 1.642034 1_545
O19 Si3 1.639848 1_545
O19 Si7 1.642034 1_655
O20 Si4 1.639020 1_555
O20 Si0 1.640209 1_455
O21 Si5 1.639020 1_555
O21 Si1 1.640209 1_565
O22 Si6 1.639020 1_555
O22 Si2 1.640209 1_655
O23 Si7 1.639020 1_555
O23 Si3 1.640209 1_545
