# generated using pymatgen
data_Nb10N11O
_symmetry_space_group_name_H-M   'P 1'
_cell_length_a   10.55060500
_cell_length_b   5.25719900
_cell_length_c   10.51103090
_cell_angle_alpha   60.24994980
_cell_angle_beta   90.00000000
_cell_angle_gamma   90.00000000
_symmetry_Int_Tables_number   1
_chemical_formula_structural   Nb10N11O
_chemical_formula_sum   'Nb20 N22 O2'
_cell_volume   506.16960723
_cell_formula_units_Z   2
loop_
 _symmetry_equiv_pos_site_id
 _symmetry_equiv_pos_as_xyz
  1  'x, y, z'
loop_
 _atom_site_type_symbol
 _atom_site_label
 _atom_site_symmetry_multiplicity
 _atom_site_fract_x
 _atom_site_fract_y
 _atom_site_fract_z
 _atom_site_occupancy
  Nb  Nb0  1  0.50026300  0.67530400  0.16189600  1
  Nb  Nb1  1  0.99917500  0.32492400  0.33753800  1
  Nb  Nb2  1  0.75474100  0.33245200  0.16723400  1
  Nb  Nb3  1  0.25975200  0.30937500  0.16917100  1
  Nb  Nb4  1  0.50252500  0.00199600  0.33691800  1
  Nb  Nb5  1  0.00172200  0.67798500  0.49627600  1
  Nb  Nb6  1  0.99843000  0.00815600  0.16077800  1
  Nb  Nb7  1  0.00082500  0.32492400  0.83753800  1
  Nb  Nb8  1  0.24525900  0.33245200  0.66723400  1
  Nb  Nb9  1  0.25590300  0.66700100  0.34495100  1
  Nb  Nb10  1  0.74024800  0.30937500  0.66917100  1
  Nb  Nb11  1  0.75023900  0.66251200  0.33419600  1
  Nb  Nb12  1  0.49747500  0.00199600  0.83691800  1
  Nb  Nb13  1  0.49868200  0.32532700  0.49895900  1
  Nb  Nb14  1  0.99827800  0.67798500  0.99627600  1
  Nb  Nb15  1  0.00157000  0.00815600  0.66077800  1
  Nb  Nb16  1  0.24976100  0.66251200  0.83419600  1
  Nb  Nb17  1  0.74409700  0.66700100  0.84495100  1
  Nb  Nb18  1  0.49973700  0.67530400  0.66189600  1
  Nb  Nb19  1  0.50131800  0.32532700  0.99895900  1
  N  N0  1  0.37235300  0.34079200  0.32934800  1
  N  N1  1  0.87431500  0.34227200  0.99674900  1
  N  N2  1  0.12744900  0.00290400  0.32938900  1
  N  N3  1  0.87405200  0.00199300  0.33060600  1
  N  N4  1  0.62954700  0.00087800  0.16941900  1
  N  N5  1  0.37579700  0.99693000  0.16830800  1
  N  N6  1  0.37323000  0.34355700  0.82850400  1
  N  N7  1  0.37418400  0.66387400  0.50114500  1
  N  N8  1  0.62784300  0.65882200  0.49951500  1
  N  N9  1  0.12568500  0.34227200  0.49674900  1
  N  N10  1  0.87210300  0.33862800  0.50094100  1
  N  N11  1  0.87677000  0.66392100  0.16863300  1
  N  N12  1  0.12594800  0.00199300  0.83060600  1
  N  N13  1  0.87255100  0.00290400  0.82938900  1
  N  N14  1  0.62677000  0.34355700  0.32850400  1
  N  N15  1  0.62420300  0.99693000  0.66830800  1
  N  N16  1  0.37045300  0.00087800  0.66941900  1
  N  N17  1  0.37215700  0.65882200  0.99951500  1
  N  N18  1  0.62581600  0.66387400  0.00114500  1
  N  N19  1  0.12789700  0.33862800  0.00094100  1
  N  N20  1  0.12323000  0.66392100  0.66863300  1
  N  N21  1  0.62764700  0.34079200  0.82934800  1
  O  O0  1  0.12937500  0.66039800  0.16952600  1
  O  O1  1  0.87062500  0.66039800  0.66952600  1
loop_
_geom_bond_atom_site_label_1
_geom_bond_atom_site_label_2
_geom_bond_distance
_geom_bond_site_symmetry_2
Nb1 O0 2.241688 1_655
Nb3 O0 2.303149 1_555
Nb5 O1 2.251830 1_455
Nb6 O0 2.256709 1_645
Nb7 O1 2.241688 1_455
Nb9 O0 2.290583 1_555
Nb10 O1 2.303149 1_555
Nb14 O0 2.251830 1_656
Nb15 O1 2.256709 1_445
Nb17 O1 2.290583 1_555
N0 Nb3 2.132888 1_555
N0 Nb9 2.180956 1_555
N0 Nb13 2.194897 1_555
N0 Nb4 2.219070 1_555
N0 Nb0 2.222597 1_555
N1 Nb17 2.155106 1_555
N1 Nb2 2.171083 1_556
N1 Nb7 2.177584 1_655
N1 Nb6 2.183381 1_556
N1 Nb14 2.194718 1_555
N2 Nb3 2.165093 1_555
N2 Nb9 2.166857 1_545
N2 Nb5 2.186495 1_545
N2 Nb1 2.202008 1_455
N2 Nb6 2.223983 1_455
N3 Nb2 2.142626 1_555
N3 Nb1 2.180144 1_555
N3 Nb5 2.191911 1_645
N3 Nb11 2.196869 1_545
N3 Nb6 2.202760 1_555
N4 Nb11 2.174379 1_545
N4 Nb2 2.178089 1_555
N4 Nb4 2.214949 1_555
N4 Nb19 2.217419 1_554
N4 Nb0 2.220526 1_545
N5 Nb3 2.052310 1_565
N5 Nb0 2.168200 1_555
N5 Nb19 2.202972 1_564
N5 Nb9 2.204508 1_555
N5 Nb4 2.230739 1_565
N6 Nb16 2.147508 1_555
N6 Nb12 2.189279 1_555
N6 Nb8 2.190433 1_555
N6 Nb18 2.204288 1_555
N6 Nb19 2.207965 1_555
N7 Nb9 2.055774 1_555
N7 Nb18 2.171185 1_555
N7 Nb8 2.216981 1_555
N7 Nb4 2.219868 1_565
N7 Nb13 2.221304 1_555
N8 Nb11 2.157318 1_555
N8 Nb10 2.170297 1_555
N8 Nb4 2.205426 1_565
N8 Nb18 2.212291 1_555
N8 Nb13 2.222861 1_555
N9 Nb9 2.155106 1_555
N9 Nb8 2.171083 1_555
N9 Nb1 2.177584 1_455
N9 Nb15 2.183381 1_555
N9 Nb5 2.194718 1_555
N10 Nb11 2.159281 1_555
N10 Nb15 2.193183 1_655
N10 Nb10 2.194504 1_555
N10 Nb1 2.208021 1_555
N10 Nb5 2.229058 1_655
N11 Nb2 2.172533 1_555
N11 Nb6 2.186591 1_565
N11 Nb11 2.190401 1_555
N11 Nb14 2.190454 1_554
N11 Nb1 2.203595 1_555
N12 Nb8 2.142626 1_555
N12 Nb7 2.180144 1_555
N12 Nb14 2.191911 1_445
N12 Nb16 2.196869 1_545
N12 Nb15 2.202760 1_555
N13 Nb10 2.165093 1_555
N13 Nb17 2.166857 1_545
N13 Nb14 2.186495 1_545
N13 Nb7 2.202008 1_655
N13 Nb15 2.223983 1_655
N14 Nb11 2.147508 1_555
N14 Nb4 2.189279 1_555
N14 Nb2 2.190433 1_555
N14 Nb0 2.204288 1_555
N14 Nb13 2.207965 1_555
N15 Nb10 2.052310 1_565
N15 Nb18 2.168200 1_555
N15 Nb13 2.202972 1_565
N15 Nb17 2.204508 1_555
N15 Nb12 2.230739 1_565
N16 Nb16 2.174379 1_545
N16 Nb8 2.178089 1_555
N16 Nb12 2.214949 1_555
N16 Nb13 2.217419 1_555
N16 Nb18 2.220526 1_545
N17 Nb16 2.157318 1_555
N17 Nb3 2.170297 1_556
N17 Nb12 2.205426 1_565
N17 Nb0 2.212291 1_556
N17 Nb19 2.222861 1_555
N18 Nb17 2.055774 1_554
N18 Nb0 2.171185 1_555
N18 Nb2 2.216981 1_555
N18 Nb12 2.219868 1_564
N18 Nb19 2.221304 1_554
N19 Nb16 2.159281 1_554
N19 Nb6 2.193183 1_455
N19 Nb3 2.194504 1_555
N19 Nb7 2.208021 1_554
N19 Nb14 2.229058 1_454
N20 Nb8 2.172533 1_555
N20 Nb15 2.186591 1_565
N20 Nb16 2.190401 1_555
N20 Nb5 2.190454 1_555
N20 Nb7 2.203595 1_555
N21 Nb10 2.132888 1_555
N21 Nb17 2.180956 1_555
N21 Nb19 2.194897 1_555
N21 Nb12 2.219070 1_555
N21 Nb18 2.222597 1_555
