# generated using pymatgen
data_FeGeN2
_symmetry_space_group_name_H-M   'P 1'
_cell_length_a   5.25355900
_cell_length_b   10.65351100
_cell_length_c   13.01680100
_cell_angle_alpha   90.00000000
_cell_angle_beta   90.00000000
_cell_angle_gamma   90.00000000
_symmetry_Int_Tables_number   1
_chemical_formula_structural   FeGeN2
_chemical_formula_sum   'Fe16 Ge16 N32'
_cell_volume   728.53536437
_cell_formula_units_Z   16
loop_
 _symmetry_equiv_pos_site_id
 _symmetry_equiv_pos_as_xyz
  1  'x, y, z'
loop_
 _atom_site_type_symbol
 _atom_site_label
 _atom_site_symmetry_multiplicity
 _atom_site_fract_x
 _atom_site_fract_y
 _atom_site_fract_z
 _atom_site_occupancy
  Fe  Fe0  1  0.64470600  0.95449300  0.44453700  1
  Fe  Fe1  1  0.14470500  0.54550700  0.55546300  1
  Fe  Fe2  1  0.35529500  0.45449300  0.05546300  1
  Fe  Fe3  1  0.85529400  0.04550700  0.94453700  1
  Fe  Fe4  1  0.35529500  0.04550700  0.55546300  1
  Fe  Fe5  1  0.85529400  0.45449300  0.44453700  1
  Fe  Fe6  1  0.64470600  0.54550700  0.94453700  1
  Fe  Fe7  1  0.14470500  0.95449300  0.05546300  1
  Fe  Fe8  1  0.78051200  0.30239000  0.30625800  1
  Fe  Fe9  1  0.28051200  0.19761000  0.69374200  1
  Fe  Fe10  1  0.21948800  0.80239000  0.19374200  1
  Fe  Fe11  1  0.71948800  0.69761000  0.80625800  1
  Fe  Fe12  1  0.21948800  0.69761000  0.69374200  1
  Fe  Fe13  1  0.71948800  0.80239000  0.30625800  1
  Fe  Fe14  1  0.78051200  0.19761000  0.80625800  1
  Fe  Fe15  1  0.28051200  0.30239000  0.19374200  1
  Ge  Ge0  1  0.61716400  0.04672900  0.18546900  1
  Ge  Ge1  1  0.11716400  0.45327100  0.81453100  1
  Ge  Ge2  1  0.38283600  0.54672900  0.31453100  1
  Ge  Ge3  1  0.88283600  0.95327100  0.68546900  1
  Ge  Ge4  1  0.38283600  0.95327100  0.81453100  1
  Ge  Ge5  1  0.88283600  0.54672900  0.18546900  1
  Ge  Ge6  1  0.61716400  0.45327100  0.68546900  1
  Ge  Ge7  1  0.11716400  0.04672900  0.31453100  1
  Ge  Ge8  1  0.78789500  0.29391900  0.05999700  1
  Ge  Ge9  1  0.28789500  0.20608100  0.94000300  1
  Ge  Ge10  1  0.21210500  0.79391900  0.44000300  1
  Ge  Ge11  1  0.71210500  0.70608100  0.55999700  1
  Ge  Ge12  1  0.21210500  0.70608100  0.94000300  1
  Ge  Ge13  1  0.71210500  0.79391900  0.05999700  1
  Ge  Ge14  1  0.78789500  0.20608100  0.55999700  1
  Ge  Ge15  1  0.28789500  0.29391900  0.44000300  1
  N  N0  1  0.72129000  0.48969500  0.30609100  1
  N  N1  1  0.22129000  0.01030500  0.69390900  1
  N  N2  1  0.27871000  0.98969500  0.19390900  1
  N  N3  1  0.77871000  0.51030500  0.80609100  1
  N  N4  1  0.27871000  0.51030500  0.69390900  1
  N  N5  1  0.77871000  0.98969500  0.30609100  1
  N  N6  1  0.72129000  0.01030500  0.80609100  1
  N  N7  1  0.22129000  0.48969500  0.19390900  1
  N  N8  1  0.64759600  0.29481900  0.44946900  1
  N  N9  1  0.14759600  0.20518100  0.55053100  1
  N  N10  1  0.35240400  0.79481900  0.05053100  1
  N  N11  1  0.85240400  0.70518100  0.94946900  1
  N  N12  1  0.35240400  0.70518100  0.55053100  1
  N  N13  1  0.85240400  0.79481900  0.44946900  1
  N  N14  1  0.64759600  0.20518100  0.94946900  1
  N  N15  1  0.14759600  0.29481900  0.05053100  1
  N  N16  1  0.71519900  0.46906500  0.07250400  1
  N  N17  1  0.21519900  0.03093500  0.92749600  1
  N  N18  1  0.28480100  0.96906500  0.42749600  1
  N  N19  1  0.78480100  0.53093500  0.57250400  1
  N  N20  1  0.28480100  0.53093500  0.92749600  1
  N  N21  1  0.78480100  0.96906500  0.07250400  1
  N  N22  1  0.71519900  0.03093500  0.57250400  1
  N  N23  1  0.21519900  0.46906500  0.42749600  1
  N  N24  1  0.64094600  0.22185400  0.17926100  1
  N  N25  1  0.14094600  0.27814600  0.82073900  1
  N  N26  1  0.35905400  0.72185400  0.32073900  1
  N  N27  1  0.85905400  0.77814600  0.67926100  1
  N  N28  1  0.35905400  0.77814600  0.82073900  1
  N  N29  1  0.85905400  0.72185400  0.17926100  1
  N  N30  1  0.64094600  0.27814600  0.67926100  1
  N  N31  1  0.14094600  0.22185400  0.32073900  1
loop_
_geom_bond_atom_site_label_1
_geom_bond_atom_site_label_2
_geom_bond_distance
_geom_bond_site_symmetry_2
Fe0 N22 1.890763 1_565
Fe0 N18 1.910068 1_555
Fe0 N5 1.970763 1_555
Fe0 N13 2.021989 1_555
Fe1 N23 1.890764 1_555
Fe1 N19 1.910063 1_455
Fe1 N4 1.970765 1_555
Fe1 N12 2.021992 1_555
Fe2 N20 1.890764 1_554
Fe2 N16 1.910063 1_555
Fe2 N7 1.970765 1_555
Fe2 N15 2.021992 1_555
Fe3 N21 1.890763 1_546
Fe3 N17 1.910068 1_655
Fe3 N6 1.970763 1_555
Fe3 N14 2.021989 1_555
Fe4 N18 1.890764 1_545
Fe4 N22 1.910063 1_555
Fe4 N1 1.970765 1_555
Fe4 N9 2.021992 1_555
Fe5 N19 1.890763 1_555
Fe5 N23 1.910068 1_655
Fe5 N0 1.970763 1_555
Fe5 N8 2.021989 1_555
Fe6 N16 1.890763 1_556
Fe6 N20 1.910068 1_555
Fe6 N3 1.970763 1_555
Fe6 N11 2.021989 1_555
Fe7 N17 1.890764 1_564
Fe7 N21 1.910063 1_455
Fe7 N2 1.970765 1_555
Fe7 N10 2.021992 1_555
Fe8 N8 1.992274 1_555
Fe8 N24 2.001619 1_555
Fe8 N0 2.019566 1_555
Fe8 N31 2.087404 1_655
Fe9 N9 1.992274 1_555
Fe9 N25 2.001619 1_555
Fe9 N1 2.019566 1_555
Fe9 N30 2.087404 1_555
Fe10 N10 1.992274 1_555
Fe10 N26 2.001619 1_555
Fe10 N2 2.019566 1_555
Fe10 N29 2.087404 1_455
Fe11 N11 1.992274 1_555
Fe11 N27 2.001619 1_555
Fe11 N3 2.019566 1_555
Fe11 N28 2.087404 1_555
Fe12 N12 1.992274 1_555
Fe12 N28 2.001619 1_555
Fe12 N4 2.019566 1_555
Fe12 N27 2.087404 1_455
Fe13 N13 1.992274 1_555
Fe13 N29 2.001619 1_555
Fe13 N5 2.019566 1_555
Fe13 N26 2.087404 1_555
Fe14 N14 1.992274 1_555
Fe14 N30 2.001619 1_555
Fe14 N6 2.019566 1_555
Fe14 N25 2.087404 1_655
Fe15 N15 1.992274 1_555
Fe15 N31 2.001619 1_555
Fe15 N7 2.019566 1_555
Fe15 N24 2.087404 1_555
Ge0 N24 1.871620 1_555
Ge0 N2 1.882249 1_545
Ge0 N5 1.885397 1_545
Ge0 N21 1.903260 1_545
Ge1 N25 1.871620 1_555
Ge1 N3 1.882249 1_455
Ge1 N4 1.885397 1_555
Ge1 N20 1.903260 1_555
Ge2 N26 1.871620 1_555
Ge2 N0 1.882249 1_555
Ge2 N7 1.885397 1_555
Ge2 N23 1.903260 1_555
Ge3 N27 1.871620 1_555
Ge3 N1 1.882249 1_665
Ge3 N6 1.885397 1_565
Ge3 N22 1.903260 1_565
Ge4 N28 1.871620 1_555
Ge4 N6 1.882249 1_565
Ge4 N1 1.885397 1_565
Ge4 N17 1.903260 1_565
Ge5 N29 1.871620 1_555
Ge5 N7 1.882249 1_655
Ge5 N0 1.885397 1_555
Ge5 N16 1.903260 1_555
Ge6 N30 1.871620 1_555
Ge6 N4 1.882249 1_555
Ge6 N3 1.885397 1_555
Ge6 N19 1.903260 1_555
Ge7 N31 1.871620 1_555
Ge7 N5 1.882249 1_445
Ge7 N2 1.885397 1_545
Ge7 N18 1.903260 1_545
Ge8 N14 1.872676 1_554
Ge8 N15 1.893748 1_655
Ge8 N24 1.896176 1_555
Ge8 N16 1.911549 1_555
Ge9 N15 1.872676 1_556
Ge9 N14 1.893748 1_555
Ge9 N25 1.896176 1_555
Ge9 N17 1.911549 1_555
Ge10 N12 1.872676 1_555
Ge10 N13 1.893748 1_455
Ge10 N26 1.896176 1_555
Ge10 N18 1.911549 1_555
Ge11 N13 1.872676 1_555
Ge11 N12 1.893748 1_555
Ge11 N27 1.896176 1_555
Ge11 N19 1.911549 1_555
Ge12 N10 1.872676 1_556
Ge12 N11 1.893748 1_455
Ge12 N28 1.896176 1_555
Ge12 N20 1.911549 1_555
Ge13 N11 1.872676 1_554
Ge13 N10 1.893748 1_555
Ge13 N29 1.896176 1_555
Ge13 N21 1.911549 1_555
Ge14 N8 1.872676 1_555
Ge14 N9 1.893748 1_655
Ge14 N30 1.896176 1_555
Ge14 N22 1.911549 1_555
Ge15 N9 1.872676 1_555
Ge15 N8 1.893748 1_555
Ge15 N31 1.896176 1_555
Ge15 N23 1.911549 1_555
