# generated using pymatgen
data_Ca2FeAs2F
_symmetry_space_group_name_H-M   'P 1'
_cell_length_a   3.24249400
_cell_length_b   3.24249400
_cell_length_c   14.95248000
_cell_angle_alpha   90.00000000
_cell_angle_beta   90.00000000
_cell_angle_gamma   90.00000000
_symmetry_Int_Tables_number   1
_chemical_formula_structural   Ca2FeAs2F
_chemical_formula_sum   'Ca2 Fe1 As2 F1'
_cell_volume   157.20689588
_cell_formula_units_Z   1
loop_
 _symmetry_equiv_pos_site_id
 _symmetry_equiv_pos_as_xyz
  1  'x, y, z'
loop_
 _atom_site_type_symbol
 _atom_site_label
 _atom_site_symmetry_multiplicity
 _atom_site_fract_x
 _atom_site_fract_y
 _atom_site_fract_z
 _atom_site_occupancy
  Ca  Ca0  1  0.50000000  0.50000000  0.64257600  1
  Ca  Ca1  1  0.50000000  0.50000000  0.35742400  1
  Fe  Fe0  1  0.50000000  0.50000000  0.00000000  1
  As  As0  1  0.50000000  0.50000000  0.16483500  1
  As  As1  1  0.50000000  0.50000000  0.83516500  1
  F  F0  1  0.50000000  0.50000000  0.50000000  1
loop_
_geom_bond_atom_site_label_1
_geom_bond_atom_site_label_2
_geom_bond_distance
_geom_bond_site_symmetry_2
Ca0 F0 2.131865 1_555
Ca1 F0 2.131865 1_555
As0 Fe0 2.464692 1_555
As0 Ca1 2.879683 1_555
As1 Fe0 2.464692 1_556
As1 Ca0 2.879683 1_555
