# generated using pymatgen
data_Rb2LiRhCl6
_symmetry_space_group_name_H-M   'P 1'
_cell_length_a   7.12509005
_cell_length_b   7.12509005
_cell_length_c   6.07509800
_cell_angle_alpha   90.00000000
_cell_angle_beta   90.00000000
_cell_angle_gamma   120.00000045
_symmetry_Int_Tables_number   1
_chemical_formula_structural   Rb2LiRhCl6
_chemical_formula_sum   'Rb2 Li1 Rh1 Cl6'
_cell_volume   267.09430784
_cell_formula_units_Z   1
loop_
 _symmetry_equiv_pos_site_id
 _symmetry_equiv_pos_as_xyz
  1  'x, y, z'
loop_
 _atom_site_type_symbol
 _atom_site_label
 _atom_site_symmetry_multiplicity
 _atom_site_fract_x
 _atom_site_fract_y
 _atom_site_fract_z
 _atom_site_occupancy
  Rb  Rb0  1  0.33333300  0.66666700  0.25490000  1
  Rb  Rb1  1  0.66666700  0.33333300  0.74510000  1
  Li  Li0  1  0.00000000  0.00000000  0.00000000  1
  Rh  Rh0  1  0.00000000  0.00000000  0.50000000  1
  Cl  Cl0  1  0.84393100  0.15606900  0.27302700  1
  Cl  Cl1  1  0.15606900  0.84393100  0.72697300  1
  Cl  Cl2  1  0.84393100  0.68786200  0.27302700  1
  Cl  Cl3  1  0.15606900  0.31213800  0.72697300  1
  Cl  Cl4  1  0.31213800  0.15606900  0.27302700  1
  Cl  Cl5  1  0.68786200  0.84393100  0.72697300  1
loop_
_geom_bond_atom_site_label_1
_geom_bond_atom_site_label_2
_geom_bond_distance
_geom_bond_site_symmetry_2
Cl0 Rh0 2.368753 1_655
Cl0 Li0 2.541819 1_655
Cl0 Rb0 3.566645 1_545
Cl0 Rb0 3.566645 1_655
Cl0 Rb1 3.607002 1_555
Cl0 Rb1 3.882249 1_554
Cl1 Rh0 2.368753 1_565
Cl1 Li0 2.541819 1_566
Cl1 Rb1 3.566645 1_455
Cl1 Rb1 3.566645 1_565
Cl1 Rb0 3.607002 1_555
Cl1 Rb0 3.882249 1_556
Cl2 Rh0 2.368753 1_665
Cl2 Li0 2.541819 1_665
Cl2 Rb0 3.566642 1_655
Cl2 Rb0 3.566649 1_555
Cl2 Rb1 3.607006 1_555
Cl2 Rb1 3.882253 1_554
Cl3 Rh0 2.368753 1_555
Cl3 Li0 2.541819 1_556
Cl3 Rb1 3.566642 1_455
Cl3 Rb1 3.566649 1_555
Cl3 Rb0 3.607006 1_555
Cl3 Rb0 3.882253 1_556
Cl4 Rh0 2.368753 1_555
Cl4 Li0 2.541819 1_555
Cl4 Rb0 3.566642 1_545
Cl4 Rb0 3.566649 1_555
Cl4 Rb1 3.607006 1_555
Cl4 Rb1 3.882253 1_554
Cl5 Rh0 2.368753 1_665
Cl5 Li0 2.541819 1_666
Cl5 Rb1 3.566642 1_565
Cl5 Rb1 3.566649 1_555
Cl5 Rb0 3.607006 1_555
Cl5 Rb0 3.882253 1_556
