# generated using pymatgen
data_NbOs3
_symmetry_space_group_name_H-M   'P 1'
_cell_length_a   3.92105331
_cell_length_b   3.92105331
_cell_length_c   3.92105331
_cell_angle_alpha   90.00000000
_cell_angle_beta   90.00000000
_cell_angle_gamma   90.00000000
_symmetry_Int_Tables_number   1
_chemical_formula_structural   NbOs3
_chemical_formula_sum   'Nb1 Os3'
_cell_volume   60.28485780
_cell_formula_units_Z   1
loop_
 _symmetry_equiv_pos_site_id
 _symmetry_equiv_pos_as_xyz
  1  'x, y, z'
loop_
 _atom_site_type_symbol
 _atom_site_label
 _atom_site_symmetry_multiplicity
 _atom_site_fract_x
 _atom_site_fract_y
 _atom_site_fract_z
 _atom_site_occupancy
  Nb  Nb0  1  0.00000000  -0.00000000  0.00000000  1
  Os  Os0  1  -0.00000000  0.50000000  0.50000000  1
  Os  Os1  1  0.50000000  -0.00000000  0.50000000  1
  Os  Os2  1  0.50000000  0.50000000  -0.00000000  1
loop_
_geom_bond_atom_site_label_1
_geom_bond_atom_site_label_2
_geom_bond_distance
_geom_bond_site_symmetry_2
Nb0 Os0 2.772603 1_555
Nb0 Os1 2.772603 1_454
Nb0 Os1 2.772603 1_555
Nb0 Os0 2.772603 1_545
Nb0 Os2 2.772603 1_445
Nb0 Os2 2.772603 1_555
Nb0 Os0 2.772603 1_554
Nb0 Os2 2.772603 1_545
Nb0 Os2 2.772603 1_455
Nb0 Os1 2.772603 1_554
Nb0 Os1 2.772603 1_455
Nb0 Os0 2.772603 1_544
Os0 Os2 2.772603 1_456
Os0 Os1 2.772603 1_455
Os0 Os1 2.772603 1_555
Os0 Os2 2.772603 1_555
Os0 Os2 2.772603 1_556
Os0 Os1 2.772603 1_465
Os0 Os2 2.772603 1_455
Os0 Os1 2.772603 1_565
Os1 Os2 2.772603 1_555
Os1 Os2 2.772603 1_556
Os1 Os2 2.772603 1_545
Os1 Os2 2.772603 1_546
