# generated using pymatgen
data_Eu(MgBi)2
_symmetry_space_group_name_H-M   'P 1'
_cell_length_a   4.81330408
_cell_length_b   4.81330408
_cell_length_c   7.85879912
_cell_angle_alpha   90.00000000
_cell_angle_beta   90.00000000
_cell_angle_gamma   120.00000907
_symmetry_Int_Tables_number   1
_chemical_formula_structural   Eu(MgBi)2
_chemical_formula_sum   'Eu1 Mg2 Bi2'
_cell_volume   157.67882608
_cell_formula_units_Z   1
loop_
 _symmetry_equiv_pos_site_id
 _symmetry_equiv_pos_as_xyz
  1  'x, y, z'
loop_
 _atom_site_type_symbol
 _atom_site_label
 _atom_site_symmetry_multiplicity
 _atom_site_fract_x
 _atom_site_fract_y
 _atom_site_fract_z
 _atom_site_occupancy
  Eu  Eu0  1  0.00000000  0.00000000  0.00000000  1
  Mg  Mg0  1  0.66666700  0.33333300  0.63047278  1
  Mg  Mg1  1  0.33333300  0.66666700  0.36952722  1
  Bi  Bi0  1  0.66666700  0.33333300  0.24897871  1
  Bi  Bi1  1  0.33333300  0.66666700  0.75102129  1
loop_
_geom_bond_atom_site_label_1
_geom_bond_atom_site_label_2
_geom_bond_distance
_geom_bond_site_symmetry_2
Bi0 Mg1 2.936004 1_545
Bi0 Mg1 2.936004 1_655
Bi0 Mg1 2.936012 1_555
Bi0 Mg0 2.998085 1_555
Bi0 Eu0 3.398704 1_655
Bi0 Eu0 3.398707 1_665
Bi0 Eu0 3.398707 1_555
Bi1 Mg0 2.936004 1_455
Bi1 Mg0 2.936004 1_565
Bi1 Mg0 2.936012 1_555
Bi1 Mg1 2.998085 1_555
Bi1 Eu0 3.398704 1_566
Bi1 Eu0 3.398707 1_556
Bi1 Eu0 3.398707 1_666
