# generated using pymatgen
data_Tm5(Co2Si7)2
_symmetry_space_group_name_H-M   'P 1'
_cell_length_a   7.79031000
_cell_length_b   7.71223000
_cell_length_c   12.32092638
_cell_angle_alpha   81.17780372
_cell_angle_beta   90.00000000
_cell_angle_gamma   90.00000000
_symmetry_Int_Tables_number   1
_chemical_formula_structural   Tm5(Co2Si7)2
_chemical_formula_sum   'Tm10 Co8 Si28'
_cell_volume   731.49155858
_cell_formula_units_Z   2
loop_
 _symmetry_equiv_pos_site_id
 _symmetry_equiv_pos_as_xyz
  1  'x, y, z'
loop_
 _atom_site_type_symbol
 _atom_site_label
 _atom_site_symmetry_multiplicity
 _atom_site_fract_x
 _atom_site_fract_y
 _atom_site_fract_z
 _atom_site_occupancy
  Tm  Tm0  1  0.00000000  0.00000000  0.50000000  1
  Tm  Tm1  1  0.50000000  0.50000000  0.50000000  1
  Tm  Tm2  1  0.25175600  0.15769300  0.86493400  1
  Tm  Tm3  1  0.75175600  0.34230700  0.13506600  1
  Tm  Tm4  1  0.74824400  0.84230700  0.13506600  1
  Tm  Tm5  1  0.24824400  0.65769300  0.86493400  1
  Tm  Tm6  1  0.24894100  0.83971500  0.13483400  1
  Tm  Tm7  1  0.74894100  0.66028500  0.86516600  1
  Tm  Tm8  1  0.75105900  0.16028500  0.86516600  1
  Tm  Tm9  1  0.25105900  0.33971500  0.13483400  1
  Co  Co0  1  0.37373500  0.87269400  0.49976800  1
  Co  Co1  1  0.87373500  0.62730600  0.50023200  1
  Co  Co2  1  0.62626500  0.12730600  0.50023200  1
  Co  Co3  1  0.12626500  0.37269400  0.49976800  1
  Co  Co4  1  0.99980400  0.93898800  0.74995900  1
  Co  Co5  1  0.49980400  0.56101200  0.25004100  1
  Co  Co6  1  0.00019600  0.06101200  0.25004100  1
  Co  Co7  1  0.50019600  0.43898800  0.74995900  1
  Si  Si0  1  0.66622000  0.83404200  0.49948500  1
  Si  Si1  1  0.16622000  0.66595800  0.50051500  1
  Si  Si2  1  0.33378000  0.16595800  0.50051500  1
  Si  Si3  1  0.83378000  0.33404200  0.49948500  1
  Si  Si4  1  0.72581500  0.96129900  0.67840600  1
  Si  Si5  1  0.22581500  0.53870100  0.32159400  1
  Si  Si6  1  0.27418500  0.03870100  0.32159400  1
  Si  Si7  1  0.77418500  0.46129900  0.67840600  1
  Si  Si8  1  0.99457800  0.76857900  0.32181500  1
  Si  Si9  1  0.49457800  0.73142100  0.67818500  1
  Si  Si10  1  0.00542200  0.23142100  0.67818500  1
  Si  Si11  1  0.50542200  0.26857900  0.32181500  1
  Si  Si12  1  0.27392500  0.95004900  0.67829000  1
  Si  Si13  1  0.77392500  0.54995100  0.32171000  1
  Si  Si14  1  0.72607500  0.04995100  0.32171000  1
  Si  Si15  1  0.22607500  0.45004900  0.67829000  1
  Si  Si16  1  0.99439700  0.68131300  0.67866800  1
  Si  Si17  1  0.49439700  0.81868700  0.32133200  1
  Si  Si18  1  0.00560300  0.31868700  0.32133200  1
  Si  Si19  1  0.50560300  0.18131300  0.67866800  1
  Si  Si20  1  0.49987200  0.88900500  0.94024500  1
  Si  Si21  1  0.99987200  0.61099500  0.05975500  1
  Si  Si22  1  0.50012800  0.11099500  0.05975500  1
  Si  Si23  1  0.00012800  0.38900500  0.94024500  1
  Si  Si24  1  0.00070800  0.89055900  0.94031400  1
  Si  Si25  1  0.50070800  0.60944100  0.05968600  1
  Si  Si26  1  0.99929200  0.10944100  0.05968600  1
  Si  Si27  1  0.49929200  0.39055900  0.94031400  1
loop_
_geom_bond_atom_site_label_1
_geom_bond_atom_site_label_2
_geom_bond_distance
_geom_bond_site_symmetry_2
Co0 Si1 2.269603 1_555
Co0 Si2 2.284454 1_565
Co0 Si0 2.298037 1_555
Co0 Si9 2.484153 1_555
Co0 Si17 2.484219 1_555
Co0 Si6 2.489511 1_565
Co0 Si12 2.490190 1_555
Co0 Co2 2.780202 1_565
Co0 Tm1 3.037541 1_555
Co0 Tm0 3.072739 1_565
Co1 Si0 2.269603 1_555
Co1 Si3 2.284454 1_555
Co1 Si1 2.298037 1_655
Co1 Si8 2.484153 1_555
Co1 Si16 2.484219 1_555
Co1 Si7 2.489511 1_555
Co1 Si13 2.490190 1_555
Co1 Co3 2.780202 1_655
Co1 Tm0 3.037541 1_665
Co1 Tm1 3.072739 1_555
Co2 Si3 2.269603 1_555
Co2 Si0 2.284454 1_545
Co2 Si2 2.298037 1_555
Co2 Si11 2.484153 1_555
Co2 Si19 2.484219 1_555
Co2 Si4 2.489511 1_545
Co2 Si14 2.490190 1_555
Co2 Tm1 3.037541 1_555
Co2 Tm0 3.072739 1_655
Co3 Si2 2.269603 1_555
Co3 Si1 2.284454 1_555
Co3 Si3 2.298037 1_455
Co3 Si10 2.484153 1_555
Co3 Si18 2.484219 1_555
Co3 Si5 2.489511 1_555
Co3 Si15 2.490190 1_555
Co3 Tm0 3.037541 1_555
Co3 Tm1 3.072739 1_555
Co4 Si16 2.293009 1_555
Co4 Si10 2.293165 1_665
Co4 Si4 2.305691 1_555
Co4 Si12 2.307427 1_655
Co4 Si24 2.317654 1_655
Co4 Tm0 3.043291 1_665
Co4 Tm8 3.070151 1_565
Co4 Tm2 3.071995 1_665
Co4 Tm5 3.084851 1_655
Co4 Tm7 3.085175 1_555
Co5 Si17 2.293009 1_555
Co5 Si11 2.293165 1_555
Co5 Si5 2.305691 1_555
Co5 Si13 2.307427 1_555
Co5 Si25 2.317654 1_555
Co5 Tm1 3.043291 1_555
Co5 Tm9 3.070151 1_555
Co5 Tm3 3.071995 1_555
Co5 Tm4 3.084851 1_555
Co5 Tm6 3.085175 1_555
Co6 Si18 2.293009 1_555
Co6 Si8 2.293165 1_445
Co6 Si6 2.305691 1_555
Co6 Si14 2.307427 1_455
Co6 Si26 2.317654 1_455
Co6 Tm0 3.043291 1_555
Co6 Tm6 3.070151 1_545
Co6 Tm4 3.071995 1_445
Co6 Tm3 3.084851 1_455
Co6 Tm9 3.085175 1_555
Co7 Si19 2.293009 1_555
Co7 Si9 2.293165 1_555
Co7 Si7 2.305691 1_555
Co7 Si15 2.307427 1_555
Co7 Si27 2.317654 1_555
Co7 Tm1 3.043291 1_555
Co7 Tm7 3.070151 1_555
Co7 Tm5 3.071995 1_555
Co7 Tm2 3.084851 1_555
Co7 Tm8 3.085175 1_555
Si0 Si14 2.582444 1_565
Si0 Si4 2.588841 1_555
Si0 Si17 2.589122 1_555
Si0 Si9 2.593747 1_555
Si0 Tm1 2.882474 1_555
Si0 Tm0 2.898619 1_665
Si1 Si15 2.582444 1_555
Si1 Si5 2.588841 1_555
Si1 Si16 2.589122 1_455
Si1 Si8 2.593747 1_455
Si1 Tm0 2.882474 1_565
Si1 Tm1 2.898619 1_555
Si2 Si6 2.588841 1_555
Si2 Tm1 2.882474 1_555
Si2 Tm0 2.898619 1_555
Si3 Si7 2.588841 1_555
Si3 Tm0 2.882474 1_655
Si3 Tm1 2.898619 1_555
Si4 Si9 2.527772 1_555
Si4 Tm8 2.961719 1_565
Si4 Tm7 3.012985 1_555
Si4 Tm0 3.046644 1_665
Si5 Si8 2.527772 1_455
Si5 Tm9 2.961719 1_555
Si5 Tm6 3.012985 1_555
Si5 Tm1 3.046644 1_555
Si6 Tm6 2.961719 1_545
Si6 Tm9 3.012985 1_555
Si6 Tm0 3.046644 1_555
Si7 Tm7 2.961719 1_555
Si7 Tm8 3.012985 1_555
Si7 Tm1 3.046644 1_555
Si8 Tm4 2.983097 1_555
Si8 Tm6 3.024451 1_655
Si8 Tm0 3.034614 1_665
Si9 Tm5 2.983097 1_555
Si9 Tm7 3.024451 1_555
Si9 Tm1 3.034614 1_555
Si10 Si15 2.407996 1_555
Si10 Si7 2.527772 1_455
Si10 Si3 2.593747 1_455
Si10 Tm2 2.983097 1_555
Si10 Tm8 3.024451 1_455
Si10 Tm0 3.034614 1_555
Si11 Si14 2.407996 1_555
Si11 Si6 2.527772 1_555
Si11 Si2 2.593747 1_555
Si11 Tm3 2.983097 1_555
Si11 Tm9 3.024451 1_555
Si11 Tm1 3.034614 1_555
Si12 Si9 2.407996 1_555
Si12 Si19 2.537936 1_565
Si12 Si2 2.582444 1_565
Si12 Tm5 2.970121 1_555
Si12 Tm2 3.002030 1_565
Si12 Tm0 3.044356 1_565
Si13 Si8 2.407996 1_555
Si13 Si18 2.537936 1_655
Si13 Si3 2.582444 1_555
Si13 Tm4 2.970121 1_555
Si13 Tm3 3.002030 1_555
Si13 Tm1 3.044356 1_555
Si14 Si17 2.537936 1_545
Si14 Tm3 2.970121 1_555
Si14 Tm4 3.002030 1_545
Si14 Tm0 3.044356 1_655
Si15 Si16 2.537936 1_455
Si15 Tm2 2.970121 1_555
Si15 Tm5 3.002030 1_555
Si15 Tm1 3.044356 1_555
Si16 Si7 2.413260 1_555
Si16 Tm7 2.974632 1_555
Si16 Tm5 3.013723 1_655
Si16 Tm0 3.037927 1_665
Si17 Si6 2.413260 1_565
Si17 Tm6 2.974632 1_555
Si17 Tm4 3.013723 1_555
Si17 Tm1 3.037927 1_555
Si18 Si5 2.413260 1_555
Si18 Si3 2.589122 1_455
Si18 Tm9 2.974632 1_555
Si18 Tm3 3.013723 1_455
Si18 Tm0 3.037927 1_555
Si19 Si4 2.413260 1_545
Si19 Si2 2.589122 1_555
Si19 Tm8 2.974632 1_555
Si19 Tm2 3.013723 1_555
Si19 Tm1 3.037927 1_555
Si20 Si25 2.416831 1_556
Si20 Si22 2.423328 1_566
Si20 Tm7 2.869244 1_555
Si20 Tm2 2.881191 1_565
Si20 Tm5 2.897202 1_555
Si20 Tm8 2.910054 1_565
Si20 Tm4 3.061071 1_556
Si20 Tm6 3.071546 1_556
Si21 Si24 2.416831 1_654
Si21 Si23 2.423328 1_654
Si21 Tm6 2.869244 1_655
Si21 Tm3 2.881191 1_555
Si21 Tm4 2.897202 1_555
Si21 Tm9 2.910054 1_655
Si21 Tm5 3.061071 1_654
Si21 Tm7 3.071546 1_554
Si22 Si27 2.416831 1_554
Si22 Tm9 2.869244 1_555
Si22 Tm4 2.881191 1_545
Si22 Tm3 2.897202 1_555
Si22 Tm6 2.910054 1_545
Si22 Tm2 3.061071 1_554
Si22 Tm8 3.071546 1_554
Si23 Si26 2.416831 1_456
Si23 Tm8 2.869244 1_455
Si23 Tm5 2.881191 1_555
Si23 Tm2 2.897202 1_555
Si23 Tm7 2.910054 1_455
Si23 Tm3 3.061071 1_456
Si23 Tm9 3.071546 1_556
Si24 Si26 2.403004 1_466
Si24 Tm5 2.884125 1_555
Si24 Tm2 2.888773 1_565
Si24 Tm7 2.891787 1_455
Si24 Tm8 2.894148 1_465
Si24 Tm6 3.057635 1_556
Si24 Tm4 3.080666 1_456
Si25 Si27 2.403004 1_554
Si25 Tm4 2.884125 1_555
Si25 Tm3 2.888773 1_555
Si25 Tm6 2.891787 1_555
Si25 Tm9 2.894148 1_555
Si25 Tm7 3.057635 1_554
Si25 Tm5 3.080666 1_554
Si26 Tm3 2.884125 1_555
Si26 Tm4 2.888773 1_545
Si26 Tm9 2.891787 1_655
Si26 Tm6 2.894148 1_645
Si26 Tm8 3.057635 1_554
Si26 Tm2 3.080666 1_654
Si27 Tm2 2.884125 1_555
Si27 Tm5 2.888773 1_555
Si27 Tm8 2.891787 1_555
Si27 Tm7 2.894148 1_555
Si27 Tm9 3.057635 1_556
Si27 Tm3 3.080666 1_556
