# generated using pymatgen
data_Mg5Ag
_symmetry_space_group_name_H-M   'P 1'
_cell_length_a   16.23952597
_cell_length_b   16.23952597
_cell_length_c   9.96155462
_cell_angle_alpha   90.00000000
_cell_angle_beta   90.00000000
_cell_angle_gamma   157.78521337
_symmetry_Int_Tables_number   1
_chemical_formula_structural   Mg5Ag
_chemical_formula_sum   'Mg40 Ag8'
_cell_volume   993.24685390
_cell_formula_units_Z   8
loop_
 _symmetry_equiv_pos_site_id
 _symmetry_equiv_pos_as_xyz
  1  'x, y, z'
loop_
 _atom_site_type_symbol
 _atom_site_label
 _atom_site_symmetry_multiplicity
 _atom_site_fract_x
 _atom_site_fract_y
 _atom_site_fract_z
 _atom_site_occupancy
  Mg  Mg0_0  1  0.49952331  0.00047669  0.25000000  1
  Mg  Mg0_1  1  0.49952331  0.00047669  0.75000000  1
  Mg  Mg0_2  1  0.49952331  0.50047669  0.25000000  1
  Mg  Mg0_3  1  0.49952331  0.50047669  0.75000000  1
  Mg  Mg0_4  1  0.99952331  0.00047669  0.25000000  1
  Mg  Mg0_5  1  0.99952331  0.00047669  0.75000000  1
  Mg  Mg0_6  1  0.99952331  0.50047669  0.25000000  1
  Mg  Mg0_7  1  0.99952331  0.50047669  0.75000000  1
  Mg  Mg1_0  1  0.33561421  0.16438579  0.25000000  1
  Mg  Mg1_1  1  0.33561421  0.16438579  0.75000000  1
  Mg  Mg1_2  1  0.33561421  0.66438579  0.25000000  1
  Mg  Mg1_3  1  0.33561421  0.66438579  0.75000000  1
  Mg  Mg1_4  1  0.83561421  0.16438579  0.25000000  1
  Mg  Mg1_5  1  0.83561421  0.16438579  0.75000000  1
  Mg  Mg1_6  1  0.83561421  0.66438579  0.25000000  1
  Mg  Mg1_7  1  0.83561421  0.66438579  0.75000000  1
  Mg  Mg2_0  1  0.16573714  0.33426286  0.25000000  1
  Mg  Mg2_1  1  0.16573714  0.33426286  0.75000000  1
  Mg  Mg2_2  1  0.16573714  0.83426285  0.25000000  1
  Mg  Mg2_3  1  0.16573714  0.83426285  0.75000000  1
  Mg  Mg2_4  1  0.66573715  0.33426286  0.25000000  1
  Mg  Mg2_5  1  0.66573715  0.33426286  0.75000000  1
  Mg  Mg2_6  1  0.66573715  0.83426285  0.25000000  1
  Mg  Mg2_7  1  0.66573715  0.83426285  0.75000000  1
  Mg  Mg3_0  1  0.28108466  0.21891534  0.00000000  1
  Mg  Mg3_1  1  0.28108466  0.21891534  0.50000000  1
  Mg  Mg3_2  1  0.28108466  0.71891534  0.00000000  1
  Mg  Mg3_3  1  0.28108466  0.71891534  0.50000000  1
  Mg  Mg3_4  1  0.78108466  0.21891534  0.00000000  1
  Mg  Mg3_5  1  0.78108466  0.21891534  0.50000000  1
  Mg  Mg3_6  1  0.78108466  0.71891534  0.00000000  1
  Mg  Mg3_7  1  0.78108466  0.71891534  0.50000000  1
  Mg  Mg4_0  1  0.44011353  0.05988648  0.00000000  1
  Mg  Mg4_1  1  0.44011353  0.05988648  0.50000000  1
  Mg  Mg4_2  1  0.44011353  0.55988647  0.00000000  1
  Mg  Mg4_3  1  0.44011353  0.55988647  0.50000000  1
  Mg  Mg4_4  1  0.94011353  0.05988647  0.00000000  1
  Mg  Mg4_5  1  0.94011353  0.05988647  0.50000000  1
  Mg  Mg4_6  1  0.94011353  0.55988647  0.00000000  1
  Mg  Mg4_7  1  0.94011353  0.55988647  0.50000000  1
  Ag  Ag0_0  1  0.11126315  0.38873685  0.00000000  1
  Ag  Ag0_1  1  0.11126315  0.38873685  0.50000000  1
  Ag  Ag0_2  1  0.11126315  0.88873685  0.00000000  1
  Ag  Ag0_3  1  0.11126315  0.88873685  0.50000000  1
  Ag  Ag0_4  1  0.61126315  0.38873685  0.00000000  1
  Ag  Ag0_5  1  0.61126315  0.38873685  0.50000000  1
  Ag  Ag0_6  1  0.61126315  0.88873685  0.00000000  1
  Ag  Ag0_7  1  0.61126315  0.88873685  0.50000000  1
loop_
_geom_bond_atom_site_label_1
_geom_bond_atom_site_label_2
_geom_bond_distance
_geom_bond_site_symmetry_2
Mg0_0 Mg2_2 3.094756 1_545
Mg0_0 Mg2_4 3.094756 1_555
Mg0_0 Mg3_5 3.108174 1_555
Mg0_0 Mg3_2 3.108174 1_545
Mg0_0 Mg3_3 3.108174 1_545
Mg0_0 Mg3_4 3.108174 1_555
Mg0_0 Mg4_1 3.128435 1_555
Mg0_0 Mg4_0 3.128435 1_555
Mg0_0 Mg0_6 3.128522 1_445
Mg0_0 Mg0_6 3.128522 1_555
Mg0_0 Mg1_2 3.158354 1_545
Mg0_0 Mg1_4 3.158354 1_555
Mg0_1 Mg2_5 3.094756 1_555
Mg0_1 Mg2_3 3.094756 1_545
Mg0_1 Mg3_5 3.108174 1_555
Mg0_1 Mg3_3 3.108174 1_545
Mg0_1 Mg3_4 3.108174 1_556
Mg0_1 Mg3_2 3.108174 1_546
Mg0_1 Mg4_1 3.128435 1_555
Mg0_1 Mg4_0 3.128435 1_556
Mg0_1 Mg0_7 3.128522 1_445
Mg0_1 Mg0_7 3.128522 1_555
Mg0_1 Mg1_3 3.158354 1_545
Mg0_1 Mg1_5 3.158354 1_555
Mg0_2 Mg2_6 3.094756 1_555
Mg0_2 Mg2_0 3.094756 1_555
Mg0_2 Mg3_7 3.108174 1_555
Mg0_2 Mg3_1 3.108174 1_555
Mg0_2 Mg3_6 3.108174 1_555
Mg0_2 Mg3_0 3.108174 1_555
Mg0_2 Mg4_2 3.128435 1_555
Mg0_2 Mg4_3 3.128435 1_555
Mg0_2 Mg0_4 3.128522 1_565
Mg0_2 Mg0_4 3.128522 1_455
Mg0_2 Mg1_6 3.158354 1_555
Mg0_2 Mg1_0 3.158354 1_555
Mg0_3 Mg2_7 3.094756 1_555
Mg0_3 Mg2_1 3.094756 1_555
Mg0_3 Mg3_7 3.108174 1_555
Mg0_3 Mg3_1 3.108174 1_555
Mg0_3 Mg3_6 3.108174 1_556
Mg0_3 Mg3_0 3.108174 1_556
Mg0_3 Mg4_3 3.128435 1_555
Mg0_3 Mg4_2 3.128435 1_556
Mg0_3 Mg0_5 3.128522 1_565
Mg0_3 Mg0_5 3.128522 1_455
Mg0_3 Mg1_7 3.158354 1_555
Mg0_3 Mg1_1 3.158354 1_555
Mg0_4 Mg2_6 3.094756 1_545
Mg0_4 Mg2_0 3.094756 1_655
Mg0_4 Mg3_0 3.108174 1_655
Mg0_4 Mg3_1 3.108174 1_655
Mg0_4 Mg3_7 3.108174 1_545
Mg0_4 Mg3_6 3.108174 1_545
Mg0_4 Mg4_5 3.128435 1_555
Mg0_4 Mg4_4 3.128435 1_555
Mg0_4 Mg1_6 3.158354 1_545
Mg0_4 Mg1_0 3.158354 1_655
Mg0_5 Mg2_7 3.094756 1_545
Mg0_5 Mg2_1 3.094756 1_655
Mg0_5 Mg3_1 3.108174 1_655
Mg0_5 Mg3_7 3.108174 1_545
Mg0_5 Mg3_0 3.108174 1_656
Mg0_5 Mg3_6 3.108174 1_546
Mg0_5 Mg4_5 3.128435 1_555
Mg0_5 Mg4_4 3.128435 1_556
Mg0_5 Mg1_7 3.158354 1_545
Mg0_5 Mg1_1 3.158354 1_655
Mg0_6 Mg2_2 3.094756 1_655
Mg0_6 Mg2_4 3.094756 1_555
Mg0_6 Mg3_3 3.108174 1_655
Mg0_6 Mg3_2 3.108174 1_655
Mg0_6 Mg3_4 3.108174 1_555
Mg0_6 Mg3_5 3.108174 1_555
Mg0_6 Mg4_6 3.128435 1_555
Mg0_6 Mg4_7 3.128435 1_555
Mg0_6 Mg1_2 3.158354 1_655
Mg0_6 Mg1_4 3.158354 1_555
Mg0_7 Mg2_3 3.094756 1_655
Mg0_7 Mg2_5 3.094756 1_555
Mg0_7 Mg3_3 3.108174 1_655
Mg0_7 Mg3_5 3.108174 1_555
Mg0_7 Mg3_2 3.108174 1_656
Mg0_7 Mg3_4 3.108174 1_556
Mg0_7 Mg4_7 3.128435 1_555
Mg0_7 Mg4_6 3.128435 1_556
Mg0_7 Mg1_3 3.158354 1_655
Mg0_7 Mg1_5 3.158354 1_555
Mg1_0 Mg2_2 2.994600 1_545
Mg1_0 Mg2_4 2.994600 1_555
Mg1_0 Mg3_1 3.036825 1_555
Mg1_0 Mg3_0 3.036825 1_555
Mg1_0 Mg1_6 3.128522 1_555
Mg1_0 Mg1_6 3.128522 1_445
Mg1_1 Mg2_5 2.994600 1_555
Mg1_1 Mg2_3 2.994600 1_545
Mg1_1 Mg3_1 3.036825 1_555
Mg1_1 Mg3_0 3.036825 1_556
Mg1_1 Mg1_7 3.128522 1_445
Mg1_1 Mg1_7 3.128522 1_555
Mg1_2 Mg2_0 2.994600 1_555
Mg1_2 Mg2_6 2.994600 1_555
Mg1_2 Mg3_3 3.036825 1_555
Mg1_2 Mg3_2 3.036825 1_555
Mg1_2 Mg1_4 3.128522 1_565
Mg1_2 Mg1_4 3.128522 1_455
Mg1_3 Mg2_1 2.994600 1_555
Mg1_3 Mg2_7 2.994600 1_555
Mg1_3 Mg3_3 3.036825 1_555
Mg1_3 Mg3_2 3.036825 1_556
Mg1_3 Mg1_5 3.128522 1_565
Mg1_3 Mg1_5 3.128522 1_455
Mg1_4 Mg2_0 2.994600 1_655
Mg1_4 Mg2_6 2.994600 1_545
Mg1_4 Mg3_5 3.036825 1_555
Mg1_4 Mg3_4 3.036825 1_555
Mg1_5 Mg2_1 2.994600 1_655
Mg1_5 Mg2_7 2.994600 1_545
Mg1_5 Mg3_5 3.036825 1_555
Mg1_5 Mg3_4 3.036825 1_556
Mg1_6 Mg2_4 2.994600 1_555
Mg1_6 Mg2_2 2.994600 1_655
Mg1_6 Mg3_6 3.036825 1_555
Mg1_6 Mg3_7 3.036825 1_555
Mg1_7 Mg2_5 2.994600 1_555
Mg1_7 Mg2_3 2.994600 1_655
Mg1_7 Mg3_7 3.036825 1_555
Mg1_7 Mg3_6 3.036825 1_556
Mg2_0 Mg4_4 3.041793 1_455
Mg2_0 Mg4_5 3.041793 1_455
Mg2_0 Mg4_2 3.041793 1_555
Mg2_0 Mg4_3 3.041793 1_555
Mg2_0 Mg2_6 3.128522 1_445
Mg2_0 Mg2_6 3.128522 1_555
Mg2_1 Mg4_5 3.041793 1_455
Mg2_1 Mg4_3 3.041793 1_555
Mg2_1 Mg4_2 3.041793 1_556
Mg2_1 Mg4_4 3.041793 1_456
Mg2_1 Mg2_7 3.128522 1_555
Mg2_1 Mg2_7 3.128522 1_445
Mg2_2 Mg4_0 3.041793 1_565
Mg2_2 Mg4_7 3.041793 1_455
Mg2_2 Mg4_1 3.041793 1_565
Mg2_2 Mg4_6 3.041793 1_455
Mg2_2 Mg2_4 3.128522 1_455
Mg2_2 Mg2_4 3.128522 1_565
Mg2_3 Mg4_7 3.041793 1_455
Mg2_3 Mg4_1 3.041793 1_565
Mg2_3 Mg4_6 3.041793 1_456
Mg2_3 Mg4_0 3.041793 1_566
Mg2_3 Mg2_5 3.128522 1_455
Mg2_3 Mg2_5 3.128522 1_565
Mg2_4 Mg4_6 3.041793 1_555
Mg2_4 Mg4_7 3.041793 1_555
Mg2_4 Mg4_0 3.041793 1_555
Mg2_4 Mg4_1 3.041793 1_555
Mg2_5 Mg4_7 3.041793 1_555
Mg2_5 Mg4_1 3.041793 1_555
Mg2_5 Mg4_0 3.041793 1_556
Mg2_5 Mg4_6 3.041793 1_556
Mg2_6 Mg4_2 3.041793 1_555
Mg2_6 Mg4_3 3.041793 1_555
Mg2_6 Mg4_5 3.041793 1_565
Mg2_6 Mg4_4 3.041793 1_565
Mg2_7 Mg4_3 3.041793 1_555
Mg2_7 Mg4_5 3.041793 1_565
Mg2_7 Mg4_2 3.041793 1_556
Mg2_7 Mg4_4 3.041793 1_566
Mg3_0 Mg3_6 3.128522 1_445
Mg3_0 Mg3_6 3.128522 1_555
Mg3_0 Mg4_4 3.294375 1_455
Mg3_0 Mg4_2 3.294375 1_555
Mg3_1 Mg3_7 3.128522 1_445
Mg3_1 Mg3_7 3.128522 1_555
Mg3_1 Mg4_5 3.294375 1_455
Mg3_1 Mg4_3 3.294375 1_555
Mg3_2 Mg3_4 3.128522 1_565
Mg3_2 Mg3_4 3.128522 1_455
Mg3_2 Mg4_6 3.294375 1_455
Mg3_2 Mg4_0 3.294375 1_565
Mg3_3 Mg3_5 3.128522 1_565
Mg3_3 Mg3_5 3.128522 1_455
Mg3_3 Mg4_7 3.294375 1_455
Mg3_3 Mg4_1 3.294375 1_565
Mg3_4 Mg4_6 3.294375 1_555
Mg3_4 Mg4_0 3.294375 1_555
Mg3_5 Mg4_7 3.294375 1_555
Mg3_5 Mg4_1 3.294375 1_555
Mg3_6 Mg4_4 3.294375 1_565
Mg3_6 Mg4_2 3.294375 1_555
Mg3_7 Mg4_5 3.294375 1_565
Mg3_7 Mg4_3 3.294375 1_555
Mg4_0 Mg4_6 3.128522 1_445
Mg4_0 Mg4_6 3.128522 1_555
Mg4_1 Mg4_7 3.128522 1_555
Mg4_1 Mg4_7 3.128522 1_445
Mg4_2 Mg4_4 3.128522 1_565
Mg4_2 Mg4_4 3.128522 1_455
Mg4_3 Mg4_5 3.128522 1_565
Mg4_3 Mg4_5 3.128522 1_455
Ag0_0 Mg4_4 2.960092 1_455
Ag0_0 Mg4_2 2.960092 1_555
Ag0_0 Mg3_4 2.996110 1_455
Ag0_0 Mg3_2 2.996110 1_555
Ag0_0 Mg2_0 3.035812 1_555
Ag0_0 Mg2_1 3.035812 1_554
Ag0_0 Mg1_4 3.052404 1_455
Ag0_0 Mg1_2 3.052404 1_555
Ag0_0 Mg1_5 3.052404 1_454
Ag0_0 Mg1_3 3.052404 1_554
Ag0_0 Ag0_6 3.128522 1_445
Ag0_0 Ag0_6 3.128522 1_555
Ag0_1 Mg4_5 2.960092 1_455
Ag0_1 Mg4_3 2.960092 1_555
Ag0_1 Mg3_3 2.996110 1_555
Ag0_1 Mg3_5 2.996110 1_455
Ag0_1 Mg2_1 3.035812 1_555
Ag0_1 Mg2_0 3.035812 1_555
Ag0_1 Mg1_3 3.052404 1_555
Ag0_1 Mg1_5 3.052404 1_455
Ag0_1 Mg1_4 3.052404 1_455
Ag0_1 Mg1_2 3.052404 1_555
Ag0_1 Ag0_7 3.128522 1_445
Ag0_1 Ag0_7 3.128522 1_555
Ag0_2 Mg4_0 2.960092 1_565
Ag0_2 Mg4_6 2.960092 1_455
Ag0_2 Mg3_6 2.996110 1_455
Ag0_2 Mg3_0 2.996110 1_565
Ag0_2 Mg2_2 3.035812 1_555
Ag0_2 Mg2_3 3.035812 1_554
Ag0_2 Mg1_0 3.052404 1_565
Ag0_2 Mg1_6 3.052404 1_455
Ag0_2 Mg1_1 3.052404 1_564
Ag0_2 Mg1_7 3.052404 1_454
Ag0_2 Ag0_4 3.128522 1_565
Ag0_2 Ag0_4 3.128522 1_455
Ag0_3 Mg4_1 2.960092 1_565
Ag0_3 Mg4_7 2.960092 1_455
Ag0_3 Mg3_7 2.996110 1_455
Ag0_3 Mg3_1 2.996110 1_565
Ag0_3 Mg2_3 3.035812 1_555
Ag0_3 Mg2_2 3.035812 1_555
Ag0_3 Mg1_1 3.052404 1_565
Ag0_3 Mg1_0 3.052404 1_565
Ag0_3 Mg1_7 3.052404 1_455
Ag0_3 Mg1_6 3.052404 1_455
Ag0_3 Ag0_5 3.128522 1_565
Ag0_3 Ag0_5 3.128522 1_455
Ag0_4 Mg4_0 2.960092 1_555
Ag0_4 Mg4_6 2.960092 1_555
Ag0_4 Mg3_6 2.996110 1_555
Ag0_4 Mg3_0 2.996110 1_555
Ag0_4 Mg2_4 3.035812 1_555
Ag0_4 Mg2_5 3.035812 1_554
Ag0_4 Mg1_0 3.052404 1_555
Ag0_4 Mg1_6 3.052404 1_555
Ag0_4 Mg1_1 3.052404 1_554
Ag0_4 Mg1_7 3.052404 1_554
Ag0_5 Mg4_1 2.960092 1_555
Ag0_5 Mg4_7 2.960092 1_555
Ag0_5 Mg3_7 2.996110 1_555
Ag0_5 Mg3_1 2.996110 1_555
Ag0_5 Mg2_5 3.035812 1_555
Ag0_5 Mg2_4 3.035812 1_555
Ag0_5 Mg1_1 3.052404 1_555
Ag0_5 Mg1_7 3.052404 1_555
Ag0_5 Mg1_0 3.052404 1_555
Ag0_5 Mg1_6 3.052404 1_555
Ag0_6 Mg4_2 2.960092 1_555
Ag0_6 Mg4_4 2.960092 1_565
Ag0_6 Mg3_4 2.996110 1_565
Ag0_6 Mg3_2 2.996110 1_555
Ag0_6 Mg2_6 3.035812 1_555
Ag0_6 Mg2_7 3.035812 1_554
Ag0_6 Mg1_4 3.052404 1_565
Ag0_6 Mg1_5 3.052404 1_564
Ag0_6 Mg1_2 3.052404 1_555
Ag0_6 Mg1_3 3.052404 1_554
Ag0_7 Mg4_3 2.960092 1_555
Ag0_7 Mg4_5 2.960092 1_565
Ag0_7 Mg3_5 2.996110 1_565
Ag0_7 Mg3_3 2.996110 1_555
Ag0_7 Mg2_7 3.035812 1_555
Ag0_7 Mg2_6 3.035812 1_555
Ag0_7 Mg1_5 3.052404 1_565
Ag0_7 Mg1_4 3.052404 1_565
Ag0_7 Mg1_3 3.052404 1_555
Ag0_7 Mg1_2 3.052404 1_555
