# generated using pymatgen
data_Li2Mg(HN)2
_symmetry_space_group_name_H-M   'P 1'
_cell_length_a   5.13678100
_cell_length_b   5.23601100
_cell_length_c   9.76793800
_cell_angle_alpha   90.00000000
_cell_angle_beta   90.00000000
_cell_angle_gamma   90.00000000
_symmetry_Int_Tables_number   1
_chemical_formula_structural   Li2Mg(HN)2
_chemical_formula_sum   'Li8 Mg4 H8 N8'
_cell_volume   262.72082254
_cell_formula_units_Z   4
loop_
 _symmetry_equiv_pos_site_id
 _symmetry_equiv_pos_as_xyz
  1  'x, y, z'
loop_
 _atom_site_type_symbol
 _atom_site_label
 _atom_site_symmetry_multiplicity
 _atom_site_fract_x
 _atom_site_fract_y
 _atom_site_fract_z
 _atom_site_occupancy
  Li  Li0  1  0.00000000  0.25000000  0.74574600  1
  Li  Li1  1  0.50000000  0.75000000  0.75425400  1
  Li  Li2  1  0.00000000  0.75000000  0.25425400  1
  Li  Li3  1  0.50000000  0.25000000  0.24574600  1
  Li  Li4  1  0.50000000  0.25000000  0.48812400  1
  Li  Li5  1  0.00000000  0.75000000  0.01187600  1
  Li  Li6  1  0.50000000  0.75000000  0.51187600  1
  Li  Li7  1  0.00000000  0.25000000  0.98812400  1
  Mg  Mg0  1  0.50000000  0.25000000  0.76133400  1
  Mg  Mg1  1  0.00000000  0.75000000  0.73866600  1
  Mg  Mg2  1  0.50000000  0.75000000  0.23866600  1
  Mg  Mg3  1  0.00000000  0.25000000  0.26133400  1
  H  H0  1  0.83316200  0.44989400  0.55692200  1
  H  H1  1  0.66683800  0.94989400  0.94307800  1
  H  H2  1  0.83316200  0.94989400  0.44307800  1
  H  H3  1  0.66683800  0.44989400  0.05692200  1
  H  H4  1  0.33316200  0.05010600  0.05692200  1
  H  H5  1  0.16683800  0.55010600  0.44307800  1
  H  H6  1  0.33316200  0.55010600  0.94307800  1
  H  H7  1  0.16683800  0.05010600  0.55692200  1
  N  N0  1  0.72810500  0.50275300  0.64265300  1
  N  N1  1  0.77189500  0.00275300  0.85734700  1
  N  N2  1  0.72810500  0.00275300  0.35734700  1
  N  N3  1  0.77189500  0.50275300  0.14265300  1
  N  N4  1  0.22810500  0.99724700  0.14265300  1
  N  N5  1  0.27189500  0.49724700  0.35734700  1
  N  N6  1  0.22810500  0.49724700  0.85734700  1
  N  N7  1  0.27189500  0.99724700  0.64265300  1
loop_
_geom_bond_atom_site_label_1
_geom_bond_atom_site_label_2
_geom_bond_distance
_geom_bond_site_symmetry_2
Li0 N1 2.058456 1_455
Li0 N6 2.058456 1_555
Li0 N0 2.171674 1_455
Li0 N7 2.171674 1_545
Li1 N7 2.058456 1_555
Li1 N0 2.058456 1_555
Li1 N6 2.171674 1_555
Li1 N1 2.171674 1_565
Li2 N4 2.058456 1_555
Li2 N3 2.058456 1_455
Li2 N5 2.171674 1_555
Li2 N2 2.171674 1_465
Li3 N5 2.058456 1_555
Li3 N2 2.058456 1_555
Li3 N3 2.171674 1_555
Li3 N4 2.171674 1_545
Li4 N5 2.163494 1_555
Li4 N2 2.163494 1_555
Li5 N4 2.163494 1_555
Li5 N3 2.163494 1_455
Li6 N7 2.163494 1_555
Li6 N0 2.163494 1_555
Li7 N6 2.163494 1_555
Li7 N1 2.163494 1_455
Mg0 N0 2.113830 1_555
Mg0 N7 2.113830 1_545
Mg0 N6 2.122779 1_555
Mg0 N1 2.122779 1_555
Mg1 N6 2.113830 1_555
Mg1 N1 2.113830 1_465
Mg1 N7 2.122779 1_555
Mg1 N0 2.122779 1_455
Mg2 N5 2.113830 1_555
Mg2 N2 2.113830 1_565
Mg2 N3 2.122779 1_555
Mg2 N4 2.122779 1_555
Mg3 N4 2.113830 1_545
Mg3 N3 2.113830 1_455
Mg3 N2 2.122779 1_455
Mg3 N5 2.122779 1_555
H0 N0 1.033970 1_555
H0 Li4 2.115631 1_555
H1 N1 1.033970 1_565
H1 Li5 2.115631 1_656
H2 N2 1.033970 1_565
H2 Li6 2.115631 1_555
H3 N3 1.033970 1_555
H3 Li7 2.115631 1_654
H4 N4 1.033970 1_545
H4 Li7 2.115631 1_554
H5 N5 1.033970 1_555
H5 Li6 2.115631 1_555
H6 N6 1.033970 1_555
H6 Li5 2.115631 1_556
H7 N7 1.033970 1_545
H7 Li4 2.115631 1_555
