# generated using pymatgen
data_Na22CaFe6P12(O8F)6
_symmetry_space_group_name_H-M   'P 1'
_cell_length_a   13.90268355
_cell_length_b   13.90268355
_cell_length_c   6.91848300
_cell_angle_alpha   90.00000000
_cell_angle_beta   90.00000000
_cell_angle_gamma   119.99999784
_symmetry_Int_Tables_number   1
_chemical_formula_structural   Na22CaFe6P12(O8F)6
_chemical_formula_sum   'Na22 Ca1 Fe6 P12 O48 F6'
_cell_volume   1158.08062050
_cell_formula_units_Z   1
loop_
 _symmetry_equiv_pos_site_id
 _symmetry_equiv_pos_as_xyz
  1  'x, y, z'
loop_
 _atom_site_type_symbol
 _atom_site_label
 _atom_site_symmetry_multiplicity
 _atom_site_fract_x
 _atom_site_fract_y
 _atom_site_fract_z
 _atom_site_occupancy
  Na  Na0  1  0.05997200  0.25087000  0.27181600  1
  Na  Na1  1  0.74913000  0.80910200  0.27181600  1
  Na  Na2  1  0.19089800  0.94002800  0.27181600  1
  Na  Na3  1  0.93800700  0.74852100  0.72883200  1
  Na  Na4  1  0.25147900  0.18948600  0.72883200  1
  Na  Na5  1  0.81051400  0.06199300  0.72883200  1
  Na  Na6  1  0.33333300  0.66666700  0.97377200  1
  Na  Na7  1  0.66666700  0.33333300  0.03772000  1
  Na  Na8  1  0.00000000  0.00000000  0.50016300  1
  Na  Na9  1  0.87131800  0.28988300  0.98394900  1
  Na  Na10  1  0.71011700  0.58143500  0.98394900  1
  Na  Na11  1  0.41856500  0.12868200  0.98394900  1
  Na  Na12  1  0.12658000  0.70916200  0.01483300  1
  Na  Na13  1  0.29083800  0.41741800  0.01483300  1
  Na  Na14  1  0.58258200  0.87342000  0.01483300  1
  Na  Na15  1  0.33333300  0.66666700  0.51040100  1
  Na  Na16  1  0.39148600  0.89797500  0.76927900  1
  Na  Na17  1  0.10202500  0.49351200  0.76927900  1
  Na  Na18  1  0.50648800  0.60851400  0.76927900  1
  Na  Na19  1  0.61100100  0.10982100  0.23484600  1
  Na  Na20  1  0.89017900  0.50118000  0.23484600  1
  Na  Na21  1  0.49882000  0.38899900  0.23484600  1
  Ca  Ca0  1  0.00000000  0.00000000  0.99946700  1
  Fe  Fe0  1  0.58403400  0.87575400  0.51385400  1
  Fe  Fe1  1  0.12424600  0.70828000  0.51385400  1
  Fe  Fe2  1  0.29172000  0.41596600  0.51385400  1
  Fe  Fe3  1  0.42165900  0.13051000  0.48587300  1
  Fe  Fe4  1  0.86949000  0.29114900  0.48587300  1
  Fe  Fe5  1  0.70885100  0.57834100  0.48587300  1
  P  P0  1  0.80638800  0.05890800  0.24115000  1
  P  P1  1  0.94109200  0.74748000  0.24115000  1
  P  P2  1  0.25252000  0.19361200  0.24115000  1
  P  P3  1  0.19454000  0.94180100  0.75863600  1
  P  P4  1  0.05819900  0.25273800  0.75863600  1
  P  P5  1  0.74726200  0.80546000  0.75863600  1
  P  P6  1  0.62625200  0.11702700  0.71947900  1
  P  P7  1  0.88297300  0.50922500  0.71947900  1
  P  P8  1  0.49077500  0.37374800  0.71947900  1
  P  P9  1  0.37333200  0.88254900  0.28003200  1
  P  P10  1  0.11745100  0.49078300  0.28003200  1
  P  P11  1  0.50921700  0.62666800  0.28003200  1
  O  O0  1  0.87071700  0.99488800  0.23605000  1
  O  O1  1  0.00511200  0.87582900  0.23605000  1
  O  O2  1  0.12417100  0.12928300  0.23605000  1
  O  O3  1  0.12921400  0.00481000  0.76464500  1
  O  O4  1  0.99519000  0.12440300  0.76464500  1
  O  O5  1  0.87559700  0.87078600  0.76464500  1
  O  O6  1  0.86538000  0.15163800  0.39962800  1
  O  O7  1  0.84836200  0.71374100  0.39962800  1
  O  O8  1  0.28625900  0.13462000  0.39962800  1
  O  O9  1  0.13503300  0.84865500  0.60020900  1
  O  O10  1  0.15134500  0.28637800  0.60020900  1
  O  O11  1  0.71362200  0.86496700  0.60020900  1
  O  O12  1  0.55431900  0.12003400  0.55036800  1
  O  O13  1  0.87996600  0.43428500  0.55036800  1
  O  O14  1  0.56571500  0.44568100  0.55036800  1
  O  O15  1  0.44222900  0.87322900  0.45026900  1
  O  O16  1  0.12677100  0.56900100  0.45026900  1
  O  O17  1  0.43099900  0.55777100  0.45026900  1
  O  O18  1  0.80433100  0.10815300  0.04607900  1
  O  O19  1  0.89184700  0.69617800  0.04607900  1
  O  O20  1  0.30382200  0.19566900  0.04607900  1
  O  O21  1  0.19669000  0.89152200  0.95288800  1
  O  O22  1  0.10847800  0.30516800  0.95288800  1
  O  O23  1  0.69483200  0.80331000  0.95288800  1
  O  O24  1  0.58766600  0.13833100  0.91414500  1
  O  O25  1  0.86166900  0.44933500  0.91414500  1
  O  O26  1  0.55066500  0.41233400  0.91414500  1
  O  O27  1  0.41170800  0.85983700  0.08592400  1
  O  O28  1  0.14016300  0.55187100  0.08592400  1
  O  O29  1  0.44812900  0.58829200  0.08592400  1
  O  O30  1  0.61444900  0.99759800  0.71811300  1
  O  O31  1  0.00240200  0.61685200  0.71811300  1
  O  O32  1  0.38314800  0.38555100  0.71811300  1
  O  O33  1  0.38527800  0.00062200  0.28343100  1
  O  O34  1  0.99937800  0.38465500  0.28343100  1
  O  O35  1  0.61534500  0.61472200  0.28343100  1
  O  O36  1  0.75055700  0.20467400  0.68395500  1
  O  O37  1  0.79532600  0.54588300  0.68395500  1
  O  O38  1  0.45411700  0.24944300  0.68395500  1
  O  O39  1  0.24974100  0.79184200  0.31756200  1
  O  O40  1  0.20815800  0.45789900  0.31756200  1
  O  O41  1  0.54210100  0.75025900  0.31756200  1
  O  O42  1  0.68036900  0.98197900  0.30492400  1
  O  O43  1  0.01802100  0.69839000  0.30492400  1
  O  O44  1  0.30161000  0.31963100  0.30492400  1
  O  O45  1  0.31974700  0.01896200  0.69404900  1
  O  O46  1  0.98103800  0.30078500  0.69404900  1
  O  O47  1  0.69921500  0.68025300  0.69404900  1
  F  F0  1  0.48317500  0.76478200  0.72818100  1
  F  F1  1  0.23521800  0.71839300  0.72818100  1
  F  F2  1  0.28160700  0.51682500  0.72818100  1
  F  F3  1  0.51042800  0.22971000  0.26446100  1
  F  F4  1  0.77029000  0.28071800  0.26446100  1
  F  F5  1  0.71928200  0.48957200  0.26446100  1
loop_
_geom_bond_atom_site_label_1
_geom_bond_atom_site_label_2
_geom_bond_distance
_geom_bond_site_symmetry_2
Na0 O2 2.285605 1_555
Na0 O22 2.320385 1_554
Na0 O34 2.396350 1_455
Na0 O6 2.504365 1_455
Na0 O10 2.528286 1_555
Na0 O40 2.588273 1_555
Na1 O0 2.285605 1_555
Na1 O23 2.320385 1_554
Na1 O35 2.396360 1_555
Na1 O7 2.504376 1_555
Na1 O11 2.528286 1_555
Na1 O41 2.588273 1_555
Na2 O1 2.285605 1_555
Na2 O21 2.320385 1_554
Na2 O33 2.396363 1_565
Na2 O8 2.504365 1_565
Na2 O9 2.528286 1_555
Na2 O39 2.588273 1_555
Na3 O5 2.275624 1_555
Na3 O19 2.300400 1_556
Na3 O31 2.407643 1_655
Na3 O7 2.524258 1_555
Na3 O37 2.525784 1_555
Na3 O9 2.533724 1_655
Na4 O3 2.275635 1_555
Na4 O20 2.300400 1_556
Na4 O32 2.407653 1_555
Na4 O8 2.524264 1_555
Na4 O38 2.525784 1_555
Na4 O10 2.533724 1_555
Na5 O4 2.275637 1_555
Na5 O18 2.300400 1_556
Na5 O30 2.407656 1_545
Na5 O6 2.524259 1_555
Na5 O36 2.525784 1_555
Na5 O11 2.533724 1_545
Na6 O27 2.464835 1_556
Na6 O28 2.464836 1_556
Na6 O29 2.464847 1_556
Na7 O24 2.511860 1_554
Na7 O25 2.511862 1_554
Na7 O26 2.511872 1_554
Na8 O1 2.539049 1_545
Na8 O0 2.539049 1_445
Na8 O2 2.539049 1_555
Na8 O4 2.541583 1_455
Na8 O5 2.541588 1_445
Na8 O3 2.541592 1_555
Na9 O18 2.254441 1_556
Na9 O25 2.337275 1_555
Na9 O46 2.478171 1_555
Na9 O36 2.557518 1_555
Na9 O34 2.617823 1_556
Na10 O19 2.254441 1_556
Na10 O26 2.337275 1_555
Na10 O47 2.478171 1_555
Na10 O37 2.557518 1_555
Na10 O35 2.617817 1_556
Na11 O20 2.254441 1_556
Na11 O24 2.337275 1_555
Na11 O45 2.478171 1_555
Na11 O38 2.557518 1_555
Na11 O33 2.617826 1_556
Na12 O21 2.256161 1_554
Na12 O28 2.339331 1_555
Na12 O43 2.470279 1_555
Na12 O31 2.574120 1_554
Na12 O39 2.582937 1_555
Na13 O22 2.256161 1_554
Na13 O29 2.339331 1_555
Na13 O44 2.470279 1_555
Na13 O32 2.574114 1_554
Na13 O40 2.582937 1_555
Na14 O23 2.256161 1_554
Na14 O27 2.339331 1_555
Na14 O42 2.470279 1_555
Na14 O30 2.574122 1_554
Na14 O41 2.582937 1_555
Na15 O17 2.522786 1_555
Na15 O16 2.522786 1_555
Na15 O15 2.522786 1_555
Na15 O39 2.860342 1_555
Na15 O40 2.860352 1_555
Na15 O41 2.860354 1_555
Na16 O27 2.304001 1_556
Na16 O15 2.393717 1_555
Na16 O45 2.402606 1_565
Na16 O30 2.712745 1_555
Na17 O28 2.303998 1_556
Na17 O16 2.393717 1_555
Na17 O46 2.402617 1_455
Na17 O31 2.712745 1_555
Na18 O29 2.303997 1_556
Na18 O17 2.393717 1_555
Na18 O47 2.402619 1_555
Na18 O32 2.712745 1_555
Na19 O24 2.305181 1_554
Na19 O12 2.349095 1_555
Na19 O42 2.457269 1_545
Na19 O33 2.738904 1_555
Na20 O25 2.305181 1_554
Na20 O13 2.349095 1_555
Na20 O43 2.457269 1_655
Na20 O34 2.738916 1_555
Na21 O26 2.305181 1_554
Na21 O14 2.349095 1_555
Na21 O44 2.457269 1_555
Na21 O35 2.738904 1_555
Ca0 O4 2.398080 1_455
Ca0 O5 2.398085 1_445
Ca0 O3 2.398090 1_555
Ca0 O1 2.405616 1_546
Ca0 O0 2.405616 1_446
Ca0 O2 2.405616 1_556
Fe0 O11 1.973691 1_555
Fe0 O15 2.003058 1_555
Fe0 O42 2.021443 1_555
Fe0 O41 2.052084 1_555
Fe0 O30 2.080633 1_555
Fe1 O9 1.973691 1_555
Fe1 O16 2.003045 1_555
Fe1 O43 2.021443 1_555
Fe1 O39 2.052084 1_555
Fe1 O31 2.080631 1_555
Fe2 O10 1.973691 1_555
Fe2 O17 2.003052 1_555
Fe2 O44 2.021443 1_555
Fe2 O40 2.052084 1_555
Fe2 O32 2.080623 1_555
Fe3 O12 1.972431 1_555
Fe3 O8 2.002593 1_555
Fe3 O38 2.017320 1_555
Fe3 O45 2.071129 1_555
Fe3 O33 2.136588 1_555
Fe4 O13 1.972431 1_555
Fe4 O6 2.002606 1_555
Fe4 O36 2.017320 1_555
Fe4 O46 2.071129 1_555
Fe4 O34 2.136586 1_555
Fe5 O14 1.972431 1_555
Fe5 O7 2.002600 1_555
Fe5 O37 2.017320 1_555
Fe5 O47 2.071129 1_555
Fe5 O35 2.136578 1_555
O0 P0 1.545736 1_565
O1 P1 1.545736 1_455
O2 P2 1.545736 1_555
O3 P3 1.545806 1_545
O4 P4 1.545806 1_655
O5 P5 1.545806 1_555
O6 P0 1.574640 1_555
O7 P1 1.574638 1_555
O8 P2 1.574647 1_555
O9 P3 1.578430 1_555
O10 P4 1.578429 1_555
O11 P5 1.578438 1_555
O12 P6 1.553242 1_555
O13 P7 1.553242 1_555
O14 P8 1.553242 1_555
O15 P9 1.563827 1_555
O16 P10 1.563836 1_555
O17 P11 1.563832 1_555
O18 P0 1.520044 1_555
O19 P1 1.520044 1_555
O20 P2 1.520044 1_555
O21 P3 1.522022 1_555
O22 P4 1.522026 1_555
O23 P5 1.522029 1_555
O24 P6 1.532397 1_555
O25 P7 1.532397 1_555
O26 P8 1.532397 1_555
O27 P9 1.535022 1_555
O28 P10 1.535022 1_555
O29 P11 1.535022 1_555
O30 P6 1.584750 1_565
O31 P7 1.584756 1_455
O32 P8 1.584764 1_555
O33 P9 1.565290 1_545
O34 P10 1.565296 1_655
O35 P11 1.565304 1_555
O36 P6 1.557553 1_555
O37 P7 1.557552 1_555
O38 P8 1.557552 1_555
O39 P9 1.563093 1_555
O40 P10 1.563093 1_555
O41 P11 1.563093 1_555
O42 P0 1.591935 1_565
O43 P1 1.591935 1_455
O44 P2 1.591935 1_555
O45 P3 1.585305 1_545
O46 P4 1.585316 1_655
O47 P5 1.585303 1_555
F0 Fe0 2.093289 1_555
F0 Na18 2.368543 1_555
F0 Na15 2.372542 1_555
F0 Na14 2.457009 1_556
F0 Na6 2.499158 1_555
F0 Na16 2.737730 1_555
F1 Fe1 2.093289 1_555
F1 Na16 2.368551 1_555
F1 Na15 2.372534 1_555
F1 Na12 2.457009 1_556
F1 Na6 2.499150 1_555
F1 Na17 2.737719 1_555
F2 Fe2 2.093289 1_555
F2 Na17 2.368557 1_555
F2 Na15 2.372544 1_555
F2 Na13 2.457009 1_556
F2 Na6 2.499159 1_555
F2 Na18 2.737717 1_555
F3 Fe3 2.017323 1_555
F3 Na21 2.308597 1_555
F3 Na11 2.361449 1_554
F3 Na7 2.474914 1_555
F3 Na19 2.665659 1_555
F4 Fe4 2.017323 1_555
F4 Na19 2.308597 1_555
F4 Na9 2.361449 1_554
F4 Na7 2.474906 1_555
F4 Na20 2.665659 1_555
F5 Fe5 2.017323 1_555
F5 Na20 2.308597 1_555
F5 Na10 2.361449 1_554
F5 Na7 2.474916 1_555
F5 Na21 2.665659 1_555
