# generated using pymatgen
data_CaV(GeO3)2
_symmetry_space_group_name_H-M   'P 1'
_cell_length_a   5.50017265
_cell_length_b   6.93790014
_cell_length_c   6.93793597
_cell_angle_alpha   83.01701991
_cell_angle_beta   79.24153149
_cell_angle_gamma   79.24201344
_symmetry_Int_Tables_number   1
_chemical_formula_structural   CaV(GeO3)2
_chemical_formula_sum   'Ca2 V2 Ge4 O12'
_cell_volume   254.49052498
_cell_formula_units_Z   2
loop_
 _symmetry_equiv_pos_site_id
 _symmetry_equiv_pos_as_xyz
  1  'x, y, z'
loop_
 _atom_site_type_symbol
 _atom_site_label
 _atom_site_symmetry_multiplicity
 _atom_site_fract_x
 _atom_site_fract_y
 _atom_site_fract_z
 _atom_site_occupancy
  Ca  Ca0  1  0.74999700  0.30175800  0.69824000  1
  Ca  Ca1  1  0.25000300  0.69825400  0.30175700  1
  V  V0  1  0.24999900  0.08756400  0.91243400  1
  V  V1  1  0.74999500  0.91248000  0.08752000  1
  Ge  Ge0  1  0.77259300  0.38573600  0.18915700  1
  Ge  Ge1  1  0.72741000  0.81084400  0.61426500  1
  Ge  Ge2  1  0.22742900  0.61427300  0.81082400  1
  Ge  Ge3  1  0.27257300  0.18917600  0.38572300  1
  O  O0  1  0.52334100  0.32514700  0.39174200  1
  O  O1  1  0.97666000  0.60825900  0.67485600  1
  O  O2  1  0.47673600  0.67475800  0.60822200  1
  O  O3  1  0.02326500  0.39178100  0.32524300  1
  O  O4  1  0.15142700  0.10936400  0.62459500  1
  O  O5  1  0.34857000  0.37540000  0.89064000  1
  O  O6  1  0.84862700  0.89065500  0.37540600  1
  O  O7  1  0.65137900  0.62459200  0.10933800  1
  O  O8  1  0.85897400  0.20716000  0.01964600  1
  O  O9  1  0.64102100  0.98036000  0.79283700  1
  O  O10  1  0.14103600  0.79281400  0.98037100  1
  O  O11  1  0.35896600  0.01962600  0.20718300  1
loop_
_geom_bond_atom_site_label_1
_geom_bond_atom_site_label_2
_geom_bond_distance
_geom_bond_site_symmetry_2
Ca0 O5 2.358423 1_555
Ca0 O4 2.358425 1_655
Ca0 O9 2.399664 1_545
Ca0 O8 2.399736 1_556
Ca0 O0 2.632981 1_555
Ca0 O1 2.633008 1_555
Ca0 O2 2.802025 1_555
Ca0 O3 2.802027 1_655
Ca1 O6 2.358214 1_455
Ca1 O7 2.358272 1_555
Ca1 O11 2.399449 1_565
Ca1 O10 2.399554 1_554
Ca1 O2 2.632944 1_555
Ca1 O3 2.633000 1_555
Ca1 O1 2.802717 1_455
Ca1 O0 2.802739 1_555
Ge0 O7 1.731929 1_555
Ge0 O8 1.752069 1_555
Ge0 O3 1.819703 1_655
Ge0 O0 1.839496 1_555
Ge1 O6 1.731935 1_555
Ge1 O9 1.752074 1_555
Ge1 O2 1.819700 1_555
Ge1 O1 1.839501 1_555
Ge2 O5 1.731916 1_555
Ge2 O10 1.752067 1_555
Ge2 O1 1.819569 1_455
Ge2 O2 1.839564 1_555
Ge3 O4 1.731910 1_555
Ge3 O11 1.752077 1_555
Ge3 O0 1.819577 1_555
Ge3 O3 1.839578 1_555
O4 V0 2.145931 1_555
O5 V0 2.145898 1_555
O6 V1 2.146368 1_555
O7 V1 2.146335 1_555
O8 V0 2.180345 1_654
O8 V1 2.208817 1_545
O9 V0 2.180320 1_565
O9 V1 2.208844 1_556
O10 V1 2.180446 1_456
O10 V0 2.209265 1_565
O11 V1 2.180380 1_545
O11 V0 2.209283 1_554
