# generated using pymatgen
data_Na4CrO4
_symmetry_space_group_name_H-M   'P 1'
_cell_length_a   5.65883671
_cell_length_b   5.66120698
_cell_length_c   8.56881386
_cell_angle_alpha   81.26005149
_cell_angle_beta   71.29153446
_cell_angle_gamma   68.30282097
_symmetry_Int_Tables_number   1
_chemical_formula_structural   Na4CrO4
_chemical_formula_sum   'Na8 Cr2 O8'
_cell_volume   241.41007546
_cell_formula_units_Z   2
loop_
 _symmetry_equiv_pos_site_id
 _symmetry_equiv_pos_as_xyz
  1  'x, y, z'
loop_
 _atom_site_type_symbol
 _atom_site_label
 _atom_site_symmetry_multiplicity
 _atom_site_fract_x
 _atom_site_fract_y
 _atom_site_fract_z
 _atom_site_occupancy
  Na  Na0  1  0.94612096  0.24343142  0.60118420  1
  Na  Na1  1  0.52118449  0.26505466  0.43282519  1
  Na  Na2  1  0.60718189  0.73145273  0.18151684  1
  Na  Na3  1  0.24141218  0.75443801  0.98798418  1
  Na  Na4  1  0.75858782  0.24556199  0.01201582  1
  Na  Na5  1  0.47881551  0.73494534  0.56717481  1
  Na  Na6  1  0.05387904  0.75656858  0.39881580  1
  Na  Na7  1  0.39281811  0.26854727  0.81848316  1
  Cr  Cr0  1  0.84330683  0.72069350  0.75691762  1
  Cr  Cr1  1  0.15669317  0.27930650  0.24308238  1
  O  O0  1  0.85055807  0.84641347  0.93053929  1
  O  O1  1  0.70412457  0.97358381  0.62332328  1
  O  O2  1  0.29587543  0.02641619  0.37667672  1
  O  O3  1  0.36336408  0.47098471  0.19667614  1
  O  O4  1  0.63663592  0.52901529  0.80332386  1
  O  O5  1  0.16310417  0.52706144  0.63777622  1
  O  O6  1  0.14944193  0.15358653  0.06946071  1
  O  O7  1  0.83689583  0.47293856  0.36222378  1
loop_
_geom_bond_atom_site_label_1
_geom_bond_atom_site_label_2
_geom_bond_distance
_geom_bond_site_symmetry_2
Na0 O4 2.343639 1_555
Na0 O1 2.353117 1_545
Na0 O2 2.367548 1_655
Na0 O7 2.381694 1_555
Na0 O5 2.458046 1_655
Na1 O1 2.336972 1_545
Na1 O2 2.355183 1_555
Na1 O7 2.363838 1_555
Na1 O5 2.382582 1_555
Na1 O3 2.433904 1_555
Na2 O0 2.298405 1_554
Na2 O7 2.329207 1_555
Na2 O3 2.329373 1_555
Na2 O2 2.339232 1_565
Na3 O0 2.274725 1_455
Na3 O6 2.289354 1_566
Na3 O3 2.312978 1_556
Na3 O4 2.316763 1_555
Na4 O6 2.274725 1_655
Na4 O0 2.289354 1_544
Na4 O4 2.312978 1_554
Na4 O3 2.316763 1_555
Na5 O2 2.336972 1_565
Na5 O1 2.355183 1_555
Na5 O5 2.363838 1_555
Na5 O7 2.382582 1_555
Na5 O4 2.433904 1_555
Na6 O3 2.343639 1_555
Na6 O2 2.353117 1_565
Na6 O1 2.367548 1_455
Na6 O5 2.381694 1_555
Na6 O7 2.458046 1_455
Na7 O6 2.298405 1_556
Na7 O5 2.329207 1_555
Na7 O4 2.329373 1_555
Na7 O1 2.339232 1_545
Cr0 O0 1.761853 1_555
Cr0 O5 1.790792 1_655
Cr0 O4 1.792287 1_555
Cr0 O1 1.796391 1_555
Cr1 O6 1.761853 1_555
Cr1 O7 1.790792 1_455
Cr1 O3 1.792287 1_555
Cr1 O2 1.796391 1_555
