# generated using pymatgen
data_CaMg2(SO4)3
_symmetry_space_group_name_H-M   'P 1'
_cell_length_a   7.43466749
_cell_length_b   16.89709240
_cell_length_c   16.89241769
_cell_angle_alpha   119.99367906
_cell_angle_beta   90.00000000
_cell_angle_gamma   90.00000000
_symmetry_Int_Tables_number   1
_chemical_formula_structural   CaMg2(SO4)3
_chemical_formula_sum   'Ca8 Mg16 S24 O96'
_cell_volume   1837.90741680
_cell_formula_units_Z   8
loop_
 _symmetry_equiv_pos_site_id
 _symmetry_equiv_pos_as_xyz
  1  'x, y, z'
loop_
 _atom_site_type_symbol
 _atom_site_label
 _atom_site_symmetry_multiplicity
 _atom_site_fract_x
 _atom_site_fract_y
 _atom_site_fract_z
 _atom_site_occupancy
  Ca  Ca0  1  0.03337319  0.99159195  0.51363581  1
  Ca  Ca1  1  0.03341218  0.48640494  0.47799715  1
  Ca  Ca2  1  0.03338199  0.52195705  0.00837734  1
  Ca  Ca3  1  0.53337319  0.00840805  0.48636419  1
  Ca  Ca4  1  0.53341218  0.51359506  0.52200285  1
  Ca  Ca5  1  0.53338199  0.47804295  0.99162266  1
  Ca  Ca6  1  0.52903572  0.00417396  0.99303150  1
  Ca  Ca7  1  0.02903572  0.99582604  0.00696850  1
  Mg  Mg0  1  0.58227255  0.33333168  0.66666164  1
  Mg  Mg1  1  0.08227255  0.66666832  0.33333836  1
  Mg  Mg2  1  0.07669474  0.17264859  0.33130038  1
  Mg  Mg3  1  0.07744927  0.66800793  0.84115234  1
  Mg  Mg4  1  0.07773563  0.15893899  0.82644369  1
  Mg  Mg5  1  0.57669474  0.82735141  0.66869962  1
  Mg  Mg6  1  0.57744927  0.33199207  0.15884766  1
  Mg  Mg7  1  0.57773563  0.84106101  0.17355631  1
  Mg  Mg8  1  0.98783008  0.33333375  0.66667086  1
  Mg  Mg9  1  0.48783008  0.66666625  0.33332914  1
  Mg  Mg10  1  0.48214712  0.16191697  0.33669752  1
  Mg  Mg11  1  0.48312291  0.66408393  0.82534285  1
  Mg  Mg12  1  0.48350797  0.17455429  0.83914381  1
  Mg  Mg13  1  0.98214712  0.83808303  0.66330248  1
  Mg  Mg14  1  0.98312291  0.33591607  0.17465715  1
  Mg  Mg15  1  0.98350797  0.82544571  0.16085619  1
  S  S0  1  0.77796050  0.01690438  0.18213203  1
  S  S1  1  0.78177755  0.81808426  0.83520719  1
  S  S2  1  0.78350878  0.16491022  0.98309929  1
  S  S3  1  0.27796050  0.98309562  0.81786797  1
  S  S4  1  0.28177755  0.18191574  0.16479281  1
  S  S5  1  0.28350878  0.83508978  0.01690071  1
  S  S6  1  0.78542717  0.16410984  0.48359860  1
  S  S7  1  0.78544353  0.51634365  0.68046372  1
  S  S8  1  0.78549900  0.31954011  0.83586158  1
  S  S9  1  0.28542717  0.83589016  0.51640140  1
  S  S10  1  0.28544353  0.48365635  0.31953628  1
  S  S11  1  0.28549900  0.68045989  0.16413842  1
  S  S12  1  0.27385546  0.98281726  0.31895351  1
  S  S13  1  0.27401011  0.68098647  0.66385357  1
  S  S14  1  0.27423937  0.33612511  0.01715760  1
  S  S15  1  0.77385546  0.01718274  0.68104649  1
  S  S16  1  0.77401011  0.31901353  0.33614643  1
  S  S17  1  0.77423937  0.66387489  0.98284240  1
  S  S18  1  0.78700270  0.81838227  0.33522981  1
  S  S19  1  0.78685662  0.66474415  0.48317285  1
  S  S20  1  0.78694154  0.51680998  0.18158880  1
  S  S21  1  0.28700270  0.18161773  0.66477019  1
  S  S22  1  0.28685662  0.33525585  0.51682715  1
  S  S23  1  0.28694154  0.48319002  0.81841120  1
  O  O0  1  0.78286084  0.25936334  0.56388991  1
  O  O1  1  0.78264983  0.43605808  0.69542840  1
  O  O2  1  0.78239950  0.30461333  0.74060334  1
  O  O3  1  0.28286084  0.74063666  0.43611009  1
  O  O4  1  0.28264983  0.56394192  0.30457160  1
  O  O5  1  0.28239950  0.69538667  0.25939666  1
  O  O6  1  0.81325718  0.09932707  0.51788945  1
  O  O7  1  0.81305769  0.48203754  0.58135611  1
  O  O8  1  0.81286255  0.41863982  0.90066535  1
  O  O9  1  0.31325718  0.90067293  0.48211055  1
  O  O10  1  0.31305769  0.51796246  0.41864389  1
  O  O11  1  0.31286255  0.58136018  0.09933465  1
  O  O12  1  0.24591111  0.01654236  0.41802920  1
  O  O13  1  0.24644589  0.58189221  0.59855965  1
  O  O14  1  0.24631559  0.40140646  0.98336258  1
  O  O15  1  0.74591111  0.98345764  0.58197080  1
  O  O16  1  0.74644589  0.41810779  0.40144035  1
  O  O17  1  0.74631559  0.59859354  0.01663742  1
  O  O18  1  0.61324182  0.06897821  0.22440639  1
  O  O19  1  0.61382701  0.77831450  0.84614114  1
  O  O20  1  0.61268667  0.15149100  0.93289916  1
  O  O21  1  0.11324182  0.93102179  0.77559361  1
  O  O22  1  0.11382701  0.22168550  0.15385886  1
  O  O23  1  0.11268667  0.84850900  0.06710084  1
  O  O24  1  0.78954638  0.91861909  0.40097035  1
  O  O25  1  0.78953123  0.59901698  0.51769141  1
  O  O26  1  0.78953545  0.48230873  0.08132440  1
  O  O27  1  0.28954638  0.08138091  0.59902965  1
  O  O28  1  0.28953123  0.40098302  0.48230859  1
  O  O29  1  0.28953545  0.51769127  0.91867560  1
  O  O30  1  0.76910111  0.98150762  0.08167103  1
  O  O31  1  0.78064165  0.91856998  0.90066518  1
  O  O32  1  0.78612277  0.09991340  0.01868912  1
  O  O33  1  0.26910111  0.01849238  0.91832897  1
  O  O34  1  0.28064165  0.08143002  0.09933482  1
  O  O35  1  0.28612277  0.90008660  0.98131088  1
  O  O36  1  0.27257392  0.06350006  0.30447860  1
  O  O37  1  0.27318724  0.69550907  0.75906303  1
  O  O38  1  0.27380938  0.24094896  0.93649533  1
  O  O39  1  0.77257392  0.93649994  0.69552140  1
  O  O40  1  0.77318724  0.30449093  0.24093697  1
  O  O41  1  0.77380938  0.75905104  0.06350467  1
  O  O42  1  0.62402309  0.77842703  0.35050029  1
  O  O43  1  0.62397938  0.64945854  0.42790944  1
  O  O44  1  0.62400008  0.57204107  0.22154718  1
  O  O45  1  0.12402309  0.22157297  0.64949971  1
  O  O46  1  0.12397938  0.35054146  0.57209056  1
  O  O47  1  0.12400008  0.42795893  0.77845282  1
  O  O48  1  0.13207457  0.91792972  0.26535454  1
  O  O49  1  0.13187918  0.73425468  0.65240843  1
  O  O50  1  0.13214046  0.34741365  0.08187894  1
  O  O51  1  0.63207457  0.08207028  0.73464546  1
  O  O52  1  0.63187918  0.26574532  0.34759157  1
  O  O53  1  0.63214046  0.65258635  0.91812106  1
  O  O54  1  0.45501677  0.93899186  0.29433431  1
  O  O55  1  0.45507964  0.70591808  0.64478301  1
  O  O56  1  0.45529761  0.35534993  0.06115242  1
  O  O57  1  0.95501677  0.06100814  0.70566569  1
  O  O58  1  0.95507964  0.29408192  0.35521699  1
  O  O59  1  0.95529761  0.64465007  0.93884758  1
  O  O60  1  0.78741315  0.93643096  0.19687621  1
  O  O61  1  0.78845582  0.80372285  0.74006580  1
  O  O62  1  0.78811578  0.26030473  0.06342147  1
  O  O63  1  0.28741315  0.06356904  0.80312379  1
  O  O64  1  0.28845582  0.19627715  0.25993420  1
  O  O65  1  0.28811578  0.73969527  0.93657853  1
  O  O66  1  0.78336966  0.80429594  0.24004912  1
  O  O67  1  0.78287619  0.75988445  0.56429009  1
  O  O68  1  0.78319605  0.43571812  0.19565169  1
  O  O69  1  0.28336966  0.19570406  0.75995088  1
  O  O70  1  0.28287619  0.24011555  0.43570991  1
  O  O71  1  0.28319605  0.56428188  0.80434831  1
  O  O72  1  0.94199599  0.07359130  0.21779914  1
  O  O73  1  0.94268821  0.77965464  0.85474979  1
  O  O74  1  0.94155866  0.14710201  0.92432090  1
  O  O75  1  0.44199599  0.92640870  0.78220086  1
  O  O76  1  0.44268821  0.22034536  0.14525021  1
  O  O77  1  0.44155866  0.85289799  0.07567910  1
  O  O78  1  0.92931324  0.15539111  0.42069923  1
  O  O79  1  0.92956236  0.57903605  0.73450739  1
  O  O80  1  0.92992904  0.26563141  0.84437891  1
  O  O81  1  0.42931324  0.84460889  0.57930077  1
  O  O82  1  0.42956236  0.42096395  0.26549261  1
  O  O83  1  0.42992904  0.73436859  0.15562109  1
  O  O84  1  0.60632655  0.14147494  0.43706921  1
  O  O85  1  0.60651356  0.56310664  0.70450199  1
  O  O86  1  0.60677658  0.29532874  0.85870098  1
  O  O87  1  0.10632655  0.85852506  0.56293079  1
  O  O88  1  0.10651356  0.43689336  0.29549801  1
  O  O89  1  0.10677658  0.70467126  0.14129902  1
  O  O90  1  0.95298272  0.77921168  0.34925778  1
  O  O91  1  0.95293376  0.65080952  0.43004172  1
  O  O92  1  0.95295146  0.56998237  0.22076699  1
  O  O93  1  0.45298272  0.22078832  0.65074222  1
  O  O94  1  0.45293376  0.34919048  0.56995828  1
  O  O95  1  0.45295146  0.43001763  0.77923301  1
loop_
_geom_bond_atom_site_label_1
_geom_bond_atom_site_label_2
_geom_bond_distance
_geom_bond_site_symmetry_2
Ca0 O27 2.412858 1_565
Ca0 O6 2.422060 1_465
Ca0 O12 2.442062 1_565
Ca0 O15 2.465277 1_455
Ca0 O24 2.466252 1_455
Ca0 O9 2.481061 1_555
Ca0 O87 2.813367 1_555
Ca0 O57 2.904067 1_465
Ca1 O28 2.412381 1_555
Ca1 O7 2.422112 1_455
Ca1 O13 2.444209 1_555
Ca1 O16 2.462498 1_455
Ca1 O25 2.466225 1_455
Ca1 O10 2.479243 1_555
Ca1 O88 2.814361 1_555
Ca1 O58 2.909063 1_455
Ca2 O29 2.412233 1_554
Ca2 O8 2.422893 1_454
Ca2 O14 2.444043 1_554
Ca2 O17 2.463872 1_455
Ca2 O26 2.465627 1_455
Ca2 O11 2.478667 1_555
Ca2 O89 2.817836 1_555
Ca2 O59 2.906718 1_454
Ca3 O24 2.412858 1_545
Ca3 O9 2.422060 1_545
Ca3 O15 2.442062 1_545
Ca3 O12 2.465277 1_555
Ca3 O27 2.466252 1_555
Ca3 O6 2.481061 1_555
Ca3 O84 2.813367 1_555
Ca3 O54 2.904067 1_545
Ca4 O25 2.412381 1_555
Ca4 O10 2.422112 1_555
Ca4 O16 2.444209 1_555
Ca4 O13 2.462498 1_555
Ca4 O28 2.466225 1_555
Ca4 O7 2.479243 1_555
Ca4 O85 2.814361 1_555
Ca4 O55 2.909063 1_555
Ca5 O26 2.412233 1_556
Ca5 O11 2.422893 1_556
Ca5 O17 2.444043 1_556
Ca5 O14 2.463872 1_555
Ca5 O29 2.465627 1_555
Ca5 O8 2.478667 1_555
Ca5 O86 2.817836 1_555
Ca5 O56 2.906718 1_556
Ca6 O33 2.385551 1_555
Ca6 O32 2.399403 1_556
Ca6 O31 2.401968 1_545
Ca6 O34 2.448550 1_556
Ca6 O35 2.458838 1_545
Ca6 O30 2.479435 1_546
Ca7 O30 2.385551 1_455
Ca7 O35 2.399403 1_554
Ca7 O34 2.401968 1_565
Ca7 O31 2.448550 1_454
Ca7 O32 2.458838 1_465
Ca7 O33 2.479435 1_564
Mg0 O93 2.025161 1_555
Mg0 O94 2.025492 1_555
Mg0 O95 2.025693 1_555
Mg0 O2 2.148345 1_555
Mg0 O1 2.150595 1_555
Mg0 O0 2.151891 1_555
Mg1 O90 2.025161 1_455
Mg1 O91 2.025492 1_455
Mg1 O92 2.025693 1_455
Mg1 O5 2.148345 1_555
Mg1 O4 2.150595 1_555
Mg1 O3 2.151891 1_555
Mg2 O78 2.001633 1_455
Mg2 O72 2.066872 1_455
Mg2 O58 2.088564 1_455
Mg2 O64 2.138370 1_555
Mg2 O70 2.179409 1_555
Mg2 O36 2.211796 1_555
Mg3 O79 2.001643 1_455
Mg3 O73 2.045051 1_455
Mg3 O59 2.086926 1_455
Mg3 O65 2.136962 1_555
Mg3 O71 2.169973 1_555
Mg3 O37 2.213783 1_555
Mg4 O80 2.000832 1_455
Mg4 O74 2.032074 1_455
Mg4 O57 2.087520 1_455
Mg4 O63 2.132478 1_555
Mg4 O69 2.163904 1_555
Mg4 O38 2.219381 1_555
Mg5 O81 2.001633 1_555
Mg5 O75 2.066872 1_555
Mg5 O55 2.088564 1_555
Mg5 O61 2.138370 1_555
Mg5 O67 2.179409 1_555
Mg5 O39 2.211796 1_555
Mg6 O82 2.001643 1_555
Mg6 O76 2.045051 1_555
Mg6 O56 2.086926 1_555
Mg6 O62 2.136962 1_555
Mg6 O68 2.169973 1_555
Mg6 O40 2.213783 1_555
Mg7 O83 2.000832 1_555
Mg7 O77 2.032074 1_555
Mg7 O54 2.087520 1_555
Mg7 O60 2.132478 1_555
Mg7 O66 2.163904 1_555
Mg7 O41 2.219381 1_555
Mg8 O46 2.031307 1_655
Mg8 O45 2.031726 1_655
Mg8 O47 2.031836 1_655
Mg8 O0 2.174675 1_555
Mg8 O1 2.175486 1_555
Mg8 O2 2.175750 1_555
Mg9 O43 2.031307 1_555
Mg9 O42 2.031726 1_555
Mg9 O44 2.031836 1_555
Mg9 O3 2.174675 1_555
Mg9 O4 2.175486 1_555
Mg9 O5 2.175750 1_555
Mg10 O52 2.007041 1_555
Mg10 O18 2.008960 1_555
Mg10 O84 2.105231 1_555
Mg10 O70 2.128066 1_555
Mg10 O36 2.141132 1_555
Mg10 O64 2.201127 1_555
Mg11 O53 2.006455 1_555
Mg11 O19 2.028608 1_555
Mg11 O85 2.106515 1_555
Mg11 O37 2.136825 1_555
Mg11 O71 2.140328 1_555
Mg11 O65 2.205633 1_555
Mg12 O51 2.005019 1_555
Mg12 O20 2.049290 1_555
Mg12 O86 2.107033 1_555
Mg12 O38 2.132844 1_555
Mg12 O69 2.146935 1_555
Mg12 O63 2.207193 1_555
Mg13 O49 2.007041 1_655
Mg13 O21 2.008960 1_655
Mg13 O87 2.105231 1_655
Mg13 O67 2.128066 1_555
Mg13 O39 2.141132 1_555
Mg13 O61 2.201127 1_555
Mg14 O50 2.006455 1_655
Mg14 O22 2.028608 1_655
Mg14 O88 2.106515 1_655
Mg14 O40 2.136825 1_555
Mg14 O68 2.140328 1_555
Mg14 O62 2.205633 1_555
Mg15 O48 2.005019 1_655
Mg15 O23 2.049290 1_655
Mg15 O89 2.107033 1_655
Mg15 O41 2.132844 1_555
Mg15 O66 2.146935 1_555
Mg15 O60 2.207193 1_555
O0 S6 1.499295 1_555
O1 S7 1.499181 1_555
O2 S8 1.499235 1_555
O3 S9 1.499295 1_555
O4 S10 1.499181 1_555
O5 S11 1.499235 1_555
O6 S6 1.486789 1_555
O7 S7 1.486849 1_555
O8 S8 1.486933 1_555
O9 S9 1.486789 1_555
O10 S10 1.486849 1_555
O11 S11 1.486933 1_555
O12 S12 1.488417 1_545
O13 S13 1.488525 1_555
O14 S14 1.488406 1_556
O15 S15 1.488417 1_565
O16 S16 1.488525 1_555
O17 S17 1.488406 1_554
O18 S0 1.468219 1_555
O19 S1 1.472727 1_555
O20 S2 1.480267 1_555
O21 S3 1.468219 1_555
O22 S4 1.472727 1_555
O23 S5 1.480267 1_555
O24 S18 1.490546 1_555
O25 S19 1.490402 1_555
O26 S20 1.490530 1_555
O27 S21 1.490546 1_555
O28 S22 1.490402 1_555
O29 S23 1.490530 1_555
O30 S0 1.492370 1_565
O31 S1 1.492836 1_555
O32 S2 1.492692 1_554
O33 S3 1.492370 1_545
O34 S4 1.492836 1_555
O35 S5 1.492692 1_556
O36 S12 1.500588 1_545
O37 S13 1.500783 1_555
O38 S14 1.500687 1_556
O39 S15 1.500588 1_565
O40 S16 1.500783 1_555
O41 S17 1.500687 1_554
O42 S18 1.471283 1_555
O43 S19 1.470882 1_555
O44 S20 1.471148 1_555
O45 S21 1.471283 1_555
O46 S22 1.470882 1_555
O47 S23 1.471148 1_555
O48 S12 1.463041 1_555
O49 S13 1.462228 1_555
O50 S14 1.462632 1_555
O51 S15 1.463041 1_555
O52 S16 1.462228 1_555
O53 S17 1.462632 1_555
O54 S12 1.492477 1_555
O55 S13 1.493040 1_555
O56 S14 1.492807 1_555
O57 S15 1.492477 1_555
O58 S16 1.493040 1_555
O59 S17 1.492807 1_555
O60 S0 1.501514 1_565
O61 S1 1.501470 1_555
O62 S2 1.501237 1_554
O63 S3 1.501514 1_545
O64 S4 1.501470 1_555
O65 S5 1.501237 1_556
O66 S18 1.503292 1_555
O67 S19 1.503481 1_555
O68 S20 1.503377 1_555
O69 S21 1.503292 1_555
O70 S22 1.503481 1_555
O71 S23 1.503377 1_555
O72 S0 1.480129 1_555
O73 S1 1.475172 1_555
O74 S2 1.469162 1_555
O75 S3 1.480129 1_555
O76 S4 1.475172 1_555
O77 S5 1.469162 1_555
O78 S6 1.462364 1_555
O79 S7 1.461765 1_555
O80 S8 1.460992 1_555
O81 S9 1.462364 1_555
O82 S10 1.461765 1_555
O83 S11 1.460992 1_555
O84 S6 1.495508 1_555
O85 S7 1.496029 1_555
O86 S8 1.496522 1_555
O87 S9 1.495508 1_555
O88 S10 1.496029 1_555
O89 S11 1.496522 1_555
O90 S18 1.474383 1_555
O91 S19 1.474530 1_555
O92 S20 1.474465 1_555
O93 S21 1.474383 1_555
O94 S22 1.474530 1_555
O95 S23 1.474465 1_555
