# generated using pymatgen
data_SnGeO3
_symmetry_space_group_name_H-M   'P 1'
_cell_length_a   7.07687408
_cell_length_b   7.07687408
_cell_length_c   7.07687402
_cell_angle_alpha   44.31413977
_cell_angle_beta   44.31413977
_cell_angle_gamma   44.31414868
_symmetry_Int_Tables_number   1
_chemical_formula_structural   SnGeO3
_chemical_formula_sum   'Sn2 Ge2 O6'
_cell_volume   157.20695865
_cell_formula_units_Z   2
loop_
 _symmetry_equiv_pos_site_id
 _symmetry_equiv_pos_as_xyz
  1  'x, y, z'
loop_
 _atom_site_type_symbol
 _atom_site_label
 _atom_site_symmetry_multiplicity
 _atom_site_fract_x
 _atom_site_fract_y
 _atom_site_fract_z
 _atom_site_occupancy
  Sn  Sn0  1  0.16672000  0.16672000  0.16672000  1
  Sn  Sn1  1  0.83328000  0.83328000  0.83328000  1
  Ge  Ge0  1  0.39192200  0.39192200  0.39192200  1
  Ge  Ge1  1  0.60807800  0.60807800  0.60807800  1
  O  O0  1  0.10480600  0.44002800  0.77669800  1
  O  O1  1  0.44002800  0.77669800  0.10480600  1
  O  O2  1  0.22330200  0.89519400  0.55997200  1
  O  O3  1  0.77669800  0.10480600  0.44002800  1
  O  O4  1  0.55997200  0.22330200  0.89519400  1
  O  O5  1  0.89519400  0.55997200  0.22330200  1
loop_
_geom_bond_atom_site_label_1
_geom_bond_atom_site_label_2
_geom_bond_distance
_geom_bond_site_symmetry_2
Ge0 O1 2.019461 1_555
Ge0 O0 2.019462 1_555
Ge0 O3 2.019462 1_555
Ge1 O4 2.019461 1_555
Ge1 O5 2.019462 1_555
Ge1 O2 2.019462 1_555
O0 Sn0 2.104646 1_556
O0 Sn1 2.106811 1_455
O1 Sn0 2.104646 1_565
O1 Sn1 2.106811 1_554
O2 Sn1 2.104646 1_455
O2 Sn0 2.106811 1_565
O3 Sn0 2.104646 1_655
O3 Sn1 2.106811 1_545
O4 Sn1 2.104646 1_545
O4 Sn0 2.106811 1_556
O5 Sn1 2.104646 1_554
O5 Sn0 2.106811 1_655
