# generated using pymatgen
data_Li7V3P8O29
_symmetry_space_group_name_H-M   'P 1'
_cell_length_a   9.80586800
_cell_length_b   9.83194362
_cell_length_c   13.91141075
_cell_angle_alpha   90.18086448
_cell_angle_beta   89.92246700
_cell_angle_gamma   119.83664691
_symmetry_Int_Tables_number   1
_chemical_formula_structural   Li7V3P8O29
_chemical_formula_sum   'Li14 V6 P16 O58'
_cell_volume   1163.42280329
_cell_formula_units_Z   2
loop_
 _symmetry_equiv_pos_site_id
 _symmetry_equiv_pos_as_xyz
  1  'x, y, z'
loop_
 _atom_site_type_symbol
 _atom_site_label
 _atom_site_symmetry_multiplicity
 _atom_site_fract_x
 _atom_site_fract_y
 _atom_site_fract_z
 _atom_site_occupancy
  Li  Li0  1  0.76657100  0.66876100  0.56161000  1
  Li  Li1  1  0.90063000  0.24007300  0.55922000  1
  Li  Li2  1  0.67233900  0.33850100  0.88644800  1
  Li  Li3  1  0.76684700  0.09285300  0.06443500  1
  Li  Li4  1  0.31531500  0.22099000  0.06123600  1
  Li  Li5  1  0.66894100  0.90471300  0.43901300  1
  Li  Li6  1  0.33496800  0.09493700  0.56171900  1
  Li  Li7  1  0.22783900  0.90503700  0.93768600  1
  Li  Li8  1  0.34433300  0.67445200  0.11389000  1
  Li  Li9  1  0.09663900  0.76724500  0.43402000  1
  Li  Li10  1  0.24407100  0.34425800  0.44054900  1
  Li  Li11  1  0.09255800  0.32540300  0.94224500  1
  Li  Li12  1  0.90095700  0.90086600  0.97924000  1
  Li  Li13  1  0.00857800  0.01191700  0.49807900  1
  V  V0  1  0.56449400  0.99818600  0.25273000  1
  V  V1  1  0.43668900  0.00175900  0.75101700  1
  V  V2  1  0.56638300  0.56980500  0.74920200  1
  V  V3  1  0.43918900  0.43807900  0.24894400  1
  V  V4  1  0.99729900  0.56529000  0.24940600  1
  V  V5  1  0.00311300  0.44028700  0.74947700  1
  P  P0  1  0.90960100  0.69137800  0.83594600  1
  P  P1  1  0.77188100  0.68806900  0.34529400  1
  P  P2  1  0.91832400  0.22902700  0.34474300  1
  P  P3  1  0.66764000  0.33367200  0.12853700  1
  P  P4  1  0.66984700  0.33538100  0.62821100  1
  P  P5  1  0.78040500  0.09308800  0.84644700  1
  P  P6  1  0.69120500  0.91726500  0.65853100  1
  P  P7  1  0.32030000  0.23263500  0.84507700  1
  P  P8  1  0.69045000  0.77462100  0.15716500  1
  P  P9  1  0.31171100  0.08877600  0.34271900  1
  P  P10  1  0.22355800  0.90505500  0.15768200  1
  P  P11  1  0.33134500  0.66073800  0.37255100  1
  P  P12  1  0.33194400  0.66617600  0.87219600  1
  P  P13  1  0.08595000  0.77239600  0.65081300  1
  P  P14  1  0.22694600  0.31191800  0.65831600  1
  P  P15  1  0.09103500  0.31975100  0.15826200  1
  O  O0  1  0.00000600  0.77075500  0.55964100  1
  O  O1  1  0.91713300  0.66662200  0.34281600  1
  O  O2  1  0.78093800  0.76356100  0.07512600  1
  O  O3  1  0.73929500  0.66133400  0.83684500  1
  O  O4  1  0.90060600  0.52935300  0.83154300  1
  O  O5  1  0.81197200  0.47761800  0.17572700  1
  O  O6  1  0.91807700  0.38414300  0.33295700  1
  O  O7  1  0.99502600  0.24095000  0.06981800  1
  O  O8  1  0.92699700  0.25918400  0.84216800  1
  O  O9  1  0.67864100  0.49190000  0.66391600  1
  O  O10  1  0.61799300  0.53048300  0.33385700  1
  O  O11  1  0.81397900  0.32860400  0.67793700  1
  O  O12  1  0.66419000  0.34118700  0.02089900  1
  O  O13  1  0.68888200  0.33263200  0.52171100  1
  O  O14  1  0.66753100  0.18408700  0.16274300  1
  O  O15  1  0.48621200  0.37465400  0.82608600  1
  O  O16  1  0.51569000  0.33243500  0.17042900  1
  O  O17  1  0.75413800  0.08497200  0.34554700  1
  O  O18  1  0.79435500  0.00137800  0.75342700  1
  O  O19  1  0.78892300  0.00480800  0.57069700  1
  O  O20  1  0.78898100  0.01021200  0.93540400  1
  O  O21  1  0.63247300  0.10896600  0.83798400  1
  O  O22  1  0.51454400  0.19418500  0.66677800  1
  O  O23  1  0.66925700  0.91929700  0.15600600  1
  O  O24  1  0.46731300  0.09123200  0.33601500  1
  O  O25  1  0.33208900  0.25486700  0.34135300  1
  O  O26  1  0.78699600  0.79627800  0.25620200  1
  O  O27  1  0.77483100  0.77633100  0.43595100  1
  O  O28  1  0.22351600  0.21818200  0.57037500  1
  O  O29  1  0.67002200  0.74992600  0.65905000  1
  O  O30  1  0.53478500  0.91313200  0.66567100  1
  O  O31  1  0.33199600  0.08346000  0.84696900  1
  O  O32  1  0.48682800  0.80772700  0.33988600  1
  O  O33  1  0.36881900  0.88464600  0.16898500  1
  O  O34  1  0.22911700  0.99391900  0.06759000  1
  O  O35  1  0.21323800  0.00129700  0.43052600  1
  O  O36  1  0.20996200  0.00276800  0.24741100  1
  O  O37  1  0.24883600  0.91809000  0.65560500  1
  O  O38  1  0.47674000  0.66904100  0.82510100  1
  O  O39  1  0.52296700  0.62702400  0.17030100  1
  O  O40  1  0.32484300  0.81347900  0.84034000  1
  O  O41  1  0.32042800  0.64499700  0.97949600  1
  O  O42  1  0.32127500  0.63285500  0.47863300  1
  O  O43  1  0.18799000  0.67475300  0.33282200  1
  O  O44  1  0.38458500  0.46632700  0.66880100  1
  O  O45  1  0.32438700  0.51113800  0.32174900  1
  O  O46  1  0.07596100  0.74217800  0.16295700  1
  O  O47  1  0.98434800  0.78540300  0.73800700  1
  O  O48  1  0.00338900  0.79607700  0.91757200  1
  O  O49  1  0.09060400  0.61984000  0.66590400  1
  O  O50  1  0.18202000  0.51675700  0.82728700  1
  O  O51  1  0.11315300  0.48592600  0.17439400  1
  O  O52  1  0.25452600  0.33407800  0.15396700  1
  O  O53  1  0.24274900  0.25091100  0.93420000  1
  O  O54  1  0.20863200  0.21264900  0.75410900  1
  O  O55  1  0.08428600  0.33673200  0.65666400  1
  O  O56  1  0.00986500  0.22775000  0.43306200  1
  O  O57  1  0.00583400  0.21175500  0.25032000  1
loop_
_geom_bond_atom_site_label_1
_geom_bond_atom_site_label_2
_geom_bond_distance
_geom_bond_site_symmetry_2
Li0 O0 1.990461 1_655
Li0 O27 2.026575 1_555
Li0 O29 2.027827 1_555
Li0 O9 2.076805 1_555
Li1 O19 2.014071 1_555
Li1 O55 2.068690 1_655
Li1 O56 2.089231 1_655
Li1 O11 2.220408 1_555
Li2 O12 1.872665 1_556
Li2 O21 2.194003 1_555
Li2 O15 2.194124 1_555
Li2 O4 2.222546 1_555
Li3 O23 1.958537 1_545
Li3 O7 1.972321 1_555
Li3 O20 2.023500 1_554
Li3 O14 2.116911 1_555
Li4 O34 1.956999 1_545
Li4 O52 1.975880 1_555
Li4 O53 1.982683 1_554
Li4 O16 2.285601 1_555
Li5 O27 1.994227 1_555
Li5 O17 2.016906 1_565
Li5 O32 2.074569 1_555
Li5 O19 2.133293 1_565
Li6 O37 1.998130 1_545
Li6 O28 1.998417 1_555
Li6 O22 2.115929 1_555
Li6 O35 2.122530 1_555
Li7 O48 1.929672 1_555
Li7 O31 1.985151 1_565
Li7 O34 2.002200 1_556
Li7 O40 2.095212 1_555
Li8 O41 1.887982 1_554
Li8 O33 2.100652 1_555
Li8 O39 2.172652 1_555
Li8 O51 2.259794 1_555
Li9 O1 1.988016 1_455
Li9 O0 1.995180 1_555
Li9 O35 1.996889 1_565
Li9 O43 2.100089 1_555
Li10 O56 1.994870 1_555
Li10 O25 2.040976 1_555
Li10 O28 2.145592 1_555
Li10 O45 2.184366 1_555
Li10 O42 2.599836 1_555
Li11 O53 1.946867 1_555
Li11 O8 1.986562 1_455
Li11 O7 1.992054 1_456
Li11 O50 2.289019 1_555
Li12 O2 1.847435 1_556
Li12 O48 1.956568 1_655
Li12 O20 1.978363 1_565
Li13 O35 2.263705 1_555
Li13 O28 2.303505 1_555
Li13 O56 2.303651 1_555
Li13 O19 2.347232 1_455
Li13 O27 2.464881 1_445
Li13 O0 2.485335 1_545
O0 P13 1.519340 1_555
O1 P1 1.540462 1_555
O1 V4 2.016811 1_555
O2 P8 1.481267 1_555
O3 P0 1.544477 1_555
O3 V2 1.910927 1_555
O4 P0 1.552040 1_555
O4 V5 1.986713 1_655
O5 P3 1.562224 1_555
O5 V4 1.880659 1_555
O6 P2 1.535594 1_555
O6 V4 1.939175 1_555
O7 P15 1.507232 1_655
O8 P5 1.549588 1_555
O8 V5 2.019844 1_655
O9 P4 1.576568 1_555
O9 V2 2.008930 1_555
O10 P1 1.541302 1_555
O10 V3 1.925801 1_555
O11 P4 1.605348 1_555
O11 V5 1.899343 1_655
O12 P3 1.500707 1_555
O13 P4 1.494866 1_555
O14 P3 1.546700 1_555
O14 V0 2.025371 1_545
O15 P7 1.551468 1_555
O15 V2 1.988266 1_555
O16 P3 1.593595 1_555
O16 V3 1.897518 1_555
O17 P2 1.526183 1_555
O17 V0 2.067397 1_545
O18 P6 1.616829 1_545
O18 P5 1.619005 1_555
O19 P6 1.528014 1_545
O20 P5 1.509074 1_555
O21 P5 1.538958 1_555
O21 V1 2.060367 1_555
O22 P4 1.559819 1_555
O22 V1 2.027280 1_555
O23 P8 1.536587 1_555
O23 V0 2.061557 1_555
O24 P9 1.516691 1_555
O24 V0 1.986246 1_545
O25 P9 1.543521 1_555
O25 V3 2.031965 1_555
O26 P1 1.594014 1_555
O26 P8 1.625079 1_555
O27 P1 1.520738 1_555
O28 P14 1.519640 1_555
O29 P6 1.552454 1_555
O29 V2 1.990381 1_555
O30 P6 1.517154 1_555
O30 V1 1.979557 1_565
O31 P7 1.527295 1_555
O31 V1 2.071483 1_555
O32 P11 1.558643 1_555
O32 V0 2.037007 1_555
O33 P10 1.542449 1_555
O33 V0 2.037534 1_555
O34 P10 1.515404 1_555
O35 P9 1.530132 1_555
O36 P10 1.618119 1_545
O36 P9 1.620324 1_555
O37 P13 1.526618 1_555
O37 V1 2.079316 1_565
O38 P12 1.550420 1_555
O38 V2 1.919346 1_555
O39 P8 1.570301 1_555
O39 V3 1.953113 1_555
O40 P12 1.550233 1_555
O40 V1 2.040670 1_565
O41 P12 1.504113 1_555
O42 P11 1.495984 1_555
O43 P11 1.579818 1_555
O43 V4 1.999218 1_455
O44 P14 1.542586 1_555
O44 V2 1.912477 1_555
O45 P11 1.600391 1_555
O45 V3 1.898948 1_555
O46 P10 1.535827 1_555
O46 V4 1.934367 1_455
O47 P0 1.605980 1_555
O47 P13 1.613332 1_655
O48 P0 1.499435 1_455
O49 P13 1.538197 1_555
O49 V5 1.925460 1_555
O50 P12 1.599194 1_555
O50 V5 1.871415 1_555
O51 P15 1.553060 1_555
O51 V4 1.965235 1_455
O52 P15 1.539043 1_555
O52 V3 2.055664 1_555
O53 P7 1.509888 1_555
O54 P14 1.610546 1_555
O54 P7 1.620861 1_555
O55 P14 1.535158 1_555
O55 V5 2.032884 1_555
O56 P2 1.526359 1_455
O57 P15 1.608880 1_555
O57 P2 1.622088 1_455
