# generated using pymatgen
data_Rb2EuCl5
_symmetry_space_group_name_H-M   'P 1'
_cell_length_a   8.13940356
_cell_length_b   8.96814644
_cell_length_c   13.15502574
_cell_angle_alpha   90.00000000
_cell_angle_beta   90.00000000
_cell_angle_gamma   90.00000000
_symmetry_Int_Tables_number   1
_chemical_formula_structural   Rb2EuCl5
_chemical_formula_sum   'Rb8 Eu4 Cl20'
_cell_volume   960.25587996
_cell_formula_units_Z   4
loop_
 _symmetry_equiv_pos_site_id
 _symmetry_equiv_pos_as_xyz
  1  'x, y, z'
loop_
 _atom_site_type_symbol
 _atom_site_label
 _atom_site_symmetry_multiplicity
 _atom_site_fract_x
 _atom_site_fract_y
 _atom_site_fract_z
 _atom_site_occupancy
  Rb  Rb0  1  0.55529858  0.49525843  0.66991075  1
  Rb  Rb1  1  0.44470142  0.50474157  0.33008925  1
  Rb  Rb2  1  0.05529858  0.50474157  0.83008925  1
  Rb  Rb3  1  0.44470142  0.99525843  0.33008925  1
  Rb  Rb4  1  0.94470142  0.49525843  0.16991075  1
  Rb  Rb5  1  0.55529858  0.00474157  0.66991075  1
  Rb  Rb6  1  0.94470142  0.00474157  0.16991075  1
  Rb  Rb7  1  0.05529858  0.99525843  0.83008925  1
  Eu  Eu0  1  0.56097969  0.75000000  0.99772840  1
  Eu  Eu1  1  0.43902031  0.25000000  0.00227160  1
  Eu  Eu2  1  0.06097969  0.25000000  0.50227160  1
  Eu  Eu3  1  0.93902031  0.75000000  0.49772840  1
  Cl  Cl0  1  0.37907957  0.75000000  0.82317824  1
  Cl  Cl1  1  0.62092043  0.25000000  0.17682176  1
  Cl  Cl2  1  0.87907957  0.25000000  0.67682176  1
  Cl  Cl3  1  0.12092043  0.75000000  0.32317824  1
  Cl  Cl4  1  0.66002025  0.46184415  0.92419810  1
  Cl  Cl5  1  0.33997975  0.53815585  0.07580190  1
  Cl  Cl6  1  0.16002025  0.53815585  0.57580190  1
  Cl  Cl7  1  0.33997975  0.96184415  0.07580190  1
  Cl  Cl8  1  0.83997975  0.46184415  0.42419810  1
  Cl  Cl9  1  0.66002025  0.03815585  0.92419810  1
  Cl  Cl10  1  0.83997975  0.03815585  0.42419810  1
  Cl  Cl11  1  0.16002025  0.96184415  0.57580190  1
  Cl  Cl12  1  0.90632712  0.75000000  0.98941979  1
  Cl  Cl13  1  0.09367288  0.25000000  0.01058021  1
  Cl  Cl14  1  0.40632712  0.25000000  0.51058021  1
  Cl  Cl15  1  0.59367288  0.75000000  0.48941979  1
  Cl  Cl16  1  0.84527164  0.75000000  0.69847882  1
  Cl  Cl17  1  0.15472836  0.25000000  0.30152118  1
  Cl  Cl18  1  0.34527164  0.25000000  0.80152118  1
  Cl  Cl19  1  0.65472836  0.75000000  0.19847882  1
loop_
_geom_bond_atom_site_label_1
_geom_bond_atom_site_label_2
_geom_bond_distance
_geom_bond_site_symmetry_2
Cl0 Eu0 2.732150 1_555
Cl0 Rb5 3.367743 1_565
Cl0 Rb0 3.367743 1_555
Cl0 Rb7 3.433857 1_555
Cl0 Rb2 3.433857 1_555
Cl1 Eu1 2.732150 1_555
Cl1 Rb3 3.367743 1_545
Cl1 Rb1 3.367743 1_555
Cl1 Rb4 3.433857 1_555
Cl1 Rb6 3.433857 1_555
Cl2 Eu2 2.732150 1_655
Cl2 Rb2 3.367743 1_655
Cl2 Rb7 3.367743 1_645
Cl2 Rb5 3.433857 1_555
Cl2 Rb0 3.433857 1_555
Cl3 Eu3 2.732150 1_455
Cl3 Rb4 3.367743 1_455
Cl3 Rb6 3.367743 1_465
Cl3 Rb1 3.433857 1_555
Cl3 Rb3 3.433857 1_555
Cl4 Eu1 2.810692 1_556
Cl4 Eu0 2.874668 1_555
Cl4 Rb0 3.465027 1_555
Cl4 Rb2 3.468698 1_655
Cl5 Eu0 2.810692 1_554
Cl5 Eu1 2.874668 1_555
Cl5 Rb1 3.465027 1_555
Cl5 Rb4 3.468698 1_455
Cl6 Eu3 2.810692 1_455
Cl6 Eu2 2.874668 1_555
Cl6 Rb2 3.465027 1_555
Cl6 Rb0 3.468698 1_555
Cl7 Eu0 2.810692 1_554
Cl7 Eu1 2.874668 1_565
Cl7 Rb3 3.465027 1_555
Cl7 Rb6 3.468698 1_465
Cl8 Eu2 2.810692 1_655
Cl8 Eu3 2.874668 1_555
Cl8 Rb4 3.465027 1_555
Cl8 Rb1 3.468698 1_555
Cl9 Eu1 2.810692 1_556
Cl9 Eu0 2.874668 1_545
Cl9 Rb5 3.465027 1_555
Cl9 Rb7 3.468698 1_645
Cl10 Eu2 2.810692 1_655
Cl10 Eu3 2.874668 1_545
Cl10 Rb6 3.465027 1_555
Cl10 Rb3 3.468698 1_545
Cl11 Eu3 2.810692 1_455
Cl11 Eu2 2.874668 1_565
Cl11 Rb7 3.465027 1_555
Cl11 Rb5 3.468698 1_565
Cl12 Eu0 2.813046 1_555
Cl12 Rb7 3.271286 1_655
Cl12 Rb2 3.271286 1_655
Cl12 Rb6 3.309739 1_566
Cl12 Rb4 3.309739 1_556
Cl13 Eu1 2.813046 1_555
Cl13 Rb6 3.271286 1_455
Cl13 Rb4 3.271286 1_455
Cl13 Rb2 3.309739 1_554
Cl13 Rb7 3.309739 1_544
Cl14 Eu2 2.813046 1_555
Cl14 Rb5 3.271286 1_555
Cl14 Rb0 3.271286 1_555
Cl14 Rb1 3.309739 1_555
Cl14 Rb3 3.309739 1_545
Cl15 Eu3 2.813046 1_555
Cl15 Rb1 3.271286 1_555
Cl15 Rb3 3.271286 1_555
Cl15 Rb5 3.309739 1_565
Cl15 Rb0 3.309739 1_555
Cl16 Eu3 2.748907 1_555
Cl16 Rb7 3.279903 1_655
Cl16 Rb2 3.279903 1_655
Cl16 Rb5 3.306211 1_565
Cl16 Rb0 3.306211 1_555
Cl17 Eu2 2.748907 1_555
Cl17 Rb4 3.279903 1_455
Cl17 Rb6 3.279903 1_455
Cl17 Rb3 3.306211 1_545
Cl17 Rb1 3.306211 1_555
Cl18 Eu1 2.748907 1_556
Cl18 Rb5 3.279903 1_555
Cl18 Rb0 3.279903 1_555
Cl18 Rb7 3.306211 1_545
Cl18 Rb2 3.306211 1_555
Cl19 Eu0 2.748907 1_554
Cl19 Rb1 3.279903 1_555
Cl19 Rb3 3.279903 1_555
Cl19 Rb4 3.306211 1_555
Cl19 Rb6 3.306211 1_565
