# generated using pymatgen
data_Zr2Al3C4
_symmetry_space_group_name_H-M   'P 1'
_cell_length_a   3.30348618
_cell_length_b   3.30348618
_cell_length_c   23.29258100
_cell_angle_alpha   90.00000000
_cell_angle_beta   90.00000000
_cell_angle_gamma   120.00000352
_symmetry_Int_Tables_number   1
_chemical_formula_structural   Zr2Al3C4
_chemical_formula_sum   'Zr4 Al6 C8'
_cell_volume   220.13708846
_cell_formula_units_Z   2
loop_
 _symmetry_equiv_pos_site_id
 _symmetry_equiv_pos_as_xyz
  1  'x, y, z'
loop_
 _atom_site_type_symbol
 _atom_site_label
 _atom_site_symmetry_multiplicity
 _atom_site_fract_x
 _atom_site_fract_y
 _atom_site_fract_z
 _atom_site_occupancy
  Zr  Zr0  1  0.33333300  0.66666700  0.94157500  1
  Zr  Zr1  1  0.66666700  0.33333300  0.05842500  1
  Zr  Zr2  1  0.66666700  0.33333300  0.44439300  1
  Zr  Zr3  1  0.33333300  0.66666700  0.55560700  1
  Al  Al0  1  0.33333300  0.66666700  0.25065900  1
  Al  Al1  1  0.66666700  0.33333300  0.74934100  1
  Al  Al2  1  0.00000000  0.00000000  0.34624100  1
  Al  Al3  1  0.00000000  0.00000000  0.65375900  1
  Al  Al4  1  0.00000000  0.00000000  0.84089900  1
  Al  Al5  1  0.00000000  0.00000000  0.15910100  1
  C  C0  1  0.00000000  0.00000000  0.50000000  1
  C  C1  1  0.00000000  0.00000000  0.00000000  1
  C  C2  1  0.33333300  0.66666700  0.37281900  1
  C  C3  1  0.66666700  0.33333300  0.62718100  1
  C  C4  1  0.66666700  0.33333300  0.87968300  1
  C  C5  1  0.33333300  0.66666700  0.12031700  1
  C  C6  1  0.33333300  0.66666700  0.76655100  1
  C  C7  1  0.66666700  0.33333300  0.23344900  1
loop_
_geom_bond_atom_site_label_1
_geom_bond_atom_site_label_2
_geom_bond_distance
_geom_bond_site_symmetry_2
Al0 C7 1.948938 1_455
Al0 C7 1.948938 1_565
Al0 C7 1.948944 1_555
Al1 C6 1.948938 1_545
Al1 C6 1.948938 1_655
Al1 C6 1.948944 1_555
Al2 C2 2.005222 1_545
Al2 C2 2.005224 1_445
Al2 C2 2.005224 1_555
Al3 C3 2.005222 1_455
Al3 C3 2.005224 1_445
Al3 C3 2.005224 1_555
Al4 C4 2.110394 1_455
Al4 C4 2.110396 1_445
Al4 C4 2.110396 1_555
Al5 C5 2.110394 1_545
Al5 C5 2.110396 1_555
Al5 C5 2.110396 1_445
C0 Zr3 2.305491 1_545
C0 Zr2 2.305491 1_455
C0 Zr3 2.305493 1_555
C0 Zr3 2.305493 1_445
C0 Zr2 2.305493 1_555
C0 Zr2 2.305493 1_445
C1 Zr0 2.342996 1_544
C1 Zr1 2.342996 1_455
C1 Zr0 2.342998 1_444
C1 Zr0 2.342998 1_554
C1 Zr1 2.342998 1_445
C1 Zr1 2.342998 1_555
C2 Zr2 2.533186 1_455
C2 Zr2 2.533186 1_565
C2 Zr2 2.533191 1_555
C3 Zr3 2.533186 1_545
C3 Zr3 2.533186 1_655
C3 Zr3 2.533191 1_555
C4 Zr0 2.390805 1_545
C4 Zr0 2.390805 1_655
C4 Zr0 2.390809 1_555
C5 Zr1 2.390805 1_455
C5 Zr1 2.390805 1_565
C5 Zr1 2.390809 1_555
