# generated using pymatgen
data_LaMg14Fe
_symmetry_space_group_name_H-M   'P 1'
_cell_length_a   6.53174531
_cell_length_b   6.04454274
_cell_length_c   10.37364816
_cell_angle_alpha   90.00000000
_cell_angle_beta   90.00000000
_cell_angle_gamma   117.56180131
_symmetry_Int_Tables_number   1
_chemical_formula_structural   LaMg14Fe
_chemical_formula_sum   'La1 Mg14 Fe1'
_cell_volume   363.08554066
_cell_formula_units_Z   1
loop_
 _symmetry_equiv_pos_site_id
 _symmetry_equiv_pos_as_xyz
  1  'x, y, z'
loop_
 _atom_site_type_symbol
 _atom_site_label
 _atom_site_symmetry_multiplicity
 _atom_site_fract_x
 _atom_site_fract_y
 _atom_site_fract_z
 _atom_site_occupancy
  La  La0  1  0.13360918  0.81680409  0.12500000  1
  Mg  Mg0  1  0.15704202  0.32852051  0.62500000  1
  Mg  Mg1  1  0.16778810  0.83389355  0.62500000  1
  Mg  Mg2  1  0.62637593  0.32281397  0.12500000  1
  Mg  Mg3  1  0.65968316  0.32606480  0.62500000  1
  Mg  Mg4  1  0.62637593  0.80356096  0.12500000  1
  Mg  Mg5  1  0.65968316  0.83361736  0.62500000  1
  Mg  Mg6  1  0.34297721  0.17781837  0.37571086  1
  Mg  Mg7  1  0.34297721  0.17781837  0.87428914  1
  Mg  Mg8  1  0.34297721  0.66515984  0.37571086  1
  Mg  Mg9  1  0.34297721  0.66515984  0.87428914  1
  Mg  Mg10  1  0.87115559  0.18557830  0.34335736  1
  Mg  Mg11  1  0.87115559  0.18557830  0.90664264  1
  Mg  Mg12  1  0.83501947  0.66751024  0.39143159  1
  Mg  Mg13  1  0.83501947  0.66751024  0.85856841  1
  Fe  Fe0  1  0.18518357  0.34259129  0.12500000  1
loop_
_geom_bond_atom_site_label_1
_geom_bond_atom_site_label_2
_geom_bond_distance
_geom_bond_site_symmetry_2
La0 Mg2 3.256439 1_565
La0 Mg4 3.256439 1_555
La0 Mg13 3.260110 1_454
La0 Mg12 3.260110 1_455
La0 Mg9 3.261052 1_554
La0 Mg8 3.261052 1_555
La0 Mg7 3.261057 1_564
La0 Mg6 3.261057 1_565
La0 Mg2 3.276848 1_455
La0 Mg4 3.276848 1_455
Mg0 Mg1 3.022912 1_555
Mg0 Mg1 3.022912 1_545
Mg0 Mg6 3.164826 1_555
Mg0 Mg7 3.164826 1_555
Mg0 Mg8 3.164832 1_555
Mg0 Mg9 3.164832 1_555
Mg0 Mg5 3.241780 1_445
Mg0 Mg3 3.241780 1_455
Mg0 Mg5 3.290018 1_555
Mg0 Mg3 3.290018 1_555
Mg0 Mg10 3.358052 1_455
Mg0 Mg11 3.358052 1_455
Mg1 Mg12 3.095741 1_455
Mg1 Mg13 3.095741 1_455
Mg1 Mg8 3.180763 1_555
Mg1 Mg9 3.180763 1_555
Mg1 Mg6 3.180769 1_565
Mg1 Mg7 3.180769 1_565
Mg1 Mg3 3.213706 1_565
Mg1 Mg5 3.213706 1_555
Mg1 Mg3 3.318040 1_455
Mg1 Mg5 3.318040 1_455
Mg2 Mg4 2.905896 1_555
Mg2 Mg7 3.075290 1_554
Mg2 Mg6 3.075290 1_555
Mg2 Mg4 3.138647 1_545
Mg3 Mg5 2.976620 1_545
Mg3 Mg5 3.067923 1_555
Mg3 Mg6 3.170872 1_555
Mg3 Mg7 3.170872 1_555
Mg4 Mg9 3.075290 1_554
Mg4 Mg8 3.075290 1_555
Mg5 Mg8 3.170872 1_555
Mg5 Mg9 3.170872 1_555
Mg6 Mg8 2.945756 1_555
Mg6 Mg8 3.098786 1_545
Mg7 Mg9 2.945756 1_555
Mg7 Mg9 3.098786 1_545
Mg10 Mg12 3.070279 1_545
Mg10 Mg12 3.070279 1_555
Mg10 Mg2 3.098824 1_555
Mg10 Mg4 3.098830 1_545
Mg10 Mg8 3.121894 1_655
Mg10 Mg6 3.121894 1_655
Mg10 Mg8 3.444864 1_545
Mg10 Mg6 3.444864 1_555
Mg10 Mg3 3.500088 1_555
Mg10 Mg5 3.500093 1_545
Mg11 Mg13 3.070279 1_545
Mg11 Mg13 3.070279 1_555
Mg11 Mg2 3.098824 1_556
Mg11 Mg4 3.098830 1_546
Mg11 Mg9 3.121894 1_655
Mg11 Mg7 3.121894 1_655
Mg11 Mg9 3.444864 1_545
Mg11 Mg7 3.444864 1_555
Mg11 Mg3 3.500088 1_555
Mg11 Mg5 3.500093 1_545
Mg12 Mg5 3.042126 1_555
Mg12 Mg3 3.042132 1_555
Mg12 Mg6 3.211489 1_555
Mg12 Mg8 3.211489 1_555
Mg12 Mg6 3.328445 1_665
Mg12 Mg8 3.328446 1_655
Mg12 Mg4 3.348077 1_555
Mg12 Mg2 3.348082 1_555
Mg13 Mg5 3.042126 1_555
Mg13 Mg3 3.042132 1_555
Mg13 Mg7 3.211489 1_555
Mg13 Mg9 3.211489 1_555
Mg13 Mg7 3.328445 1_665
Mg13 Mg9 3.328446 1_655
Mg13 Mg4 3.348077 1_556
Mg13 Mg2 3.348082 1_556
Fe0 Mg11 2.904726 1_454
Fe0 Mg10 2.904726 1_455
Fe0 Mg4 2.938981 1_555
Fe0 Mg2 2.938982 1_555
Fe0 La0 3.036990 1_555
Fe0 La0 3.036990 1_545
Fe0 Mg7 3.125426 1_554
Fe0 Mg6 3.125426 1_555
Fe0 Mg8 3.125432 1_555
Fe0 Mg9 3.125432 1_554
