# generated using pymatgen
data_Te4W3Se2
_symmetry_space_group_name_H-M   'P 1'
_cell_length_a   3.47692716
_cell_length_b   3.47692716
_cell_length_c   32.12532100
_cell_angle_alpha   90.00000000
_cell_angle_beta   90.00000000
_cell_angle_gamma   119.99998393
_symmetry_Int_Tables_number   1
_chemical_formula_structural   Te4W3Se2
_chemical_formula_sum   'Te4 W3 Se2'
_cell_volume   336.33290762
_cell_formula_units_Z   1
loop_
 _symmetry_equiv_pos_site_id
 _symmetry_equiv_pos_as_xyz
  1  'x, y, z'
loop_
 _atom_site_type_symbol
 _atom_site_label
 _atom_site_symmetry_multiplicity
 _atom_site_fract_x
 _atom_site_fract_y
 _atom_site_fract_z
 _atom_site_occupancy
  Te  Te0  1  0.00000000  0.00000000  0.40458100  1
  Te  Te1  1  0.33333300  0.66666700  0.52072300  1
  Te  Te2  1  0.33333300  0.66666700  0.63591400  1
  Te  Te3  1  0.00000000  0.00000000  0.28936800  1
  W  W0  1  0.00000000  0.00000000  0.11563500  1
  W  W1  1  0.00000000  0.00000000  0.57833800  1
  W  W2  1  0.33333300  0.66666700  0.34695100  1
  Se  Se0  1  0.33333300  0.66666700  0.06492800  1
  Se  Se1  1  0.33333300  0.66666700  0.16640300  1
loop_
_geom_bond_atom_site_label_1
_geom_bond_atom_site_label_2
_geom_bond_distance
_geom_bond_site_symmetry_2
Te0 W2 2.730802 1_545
Te0 W2 2.730805 1_555
Te0 W2 2.730805 1_445
Te1 W1 2.730476 1_565
Te1 W1 2.730478 1_555
Te1 W1 2.730478 1_665
Te2 W1 2.729627 1_565
Te2 W1 2.729629 1_555
Te2 W1 2.729629 1_665
Te3 W2 2.729779 1_545
Te3 W2 2.729782 1_555
Te3 W2 2.729782 1_445
Se0 W0 2.585196 1_565
Se0 W0 2.585198 1_665
Se0 W0 2.585198 1_555
Se1 W0 2.586431 1_565
Se1 W0 2.586434 1_665
Se1 W0 2.586434 1_555
