# generated using pymatgen
data_U2(AlSi)3
_symmetry_space_group_name_H-M   'P 1'
_cell_length_a   4.15451928
_cell_length_b   4.27660375
_cell_length_c   8.10958582
_cell_angle_alpha   90.00000000
_cell_angle_beta   90.00000000
_cell_angle_gamma   90.00000000
_symmetry_Int_Tables_number   1
_chemical_formula_structural   U2(AlSi)3
_chemical_formula_sum   'U2 Al3 Si3'
_cell_volume   144.08489863
_cell_formula_units_Z   1
loop_
 _symmetry_equiv_pos_site_id
 _symmetry_equiv_pos_as_xyz
  1  'x, y, z'
loop_
 _atom_site_type_symbol
 _atom_site_label
 _atom_site_symmetry_multiplicity
 _atom_site_fract_x
 _atom_site_fract_y
 _atom_site_fract_z
 _atom_site_occupancy
  U  U0  1  -0.00000000  -0.00000000  0.24131652  1
  U  U1  1  0.00000000  -0.00000000  0.75868348  1
  Al  Al0  1  0.50000000  0.50000000  0.24864863  1
  Al  Al1  1  0.50000000  0.50000000  0.75135137  1
  Al  Al2  1  -0.00000000  0.50000000  0.50000000  1
  Si  Si0  1  0.00000000  0.50000000  -0.00000000  1
  Si  Si1  1  0.50000000  0.00000000  0.50000000  1
  Si  Si2  1  0.50000000  0.00000000  -0.00000000  1
loop_
_geom_bond_atom_site_label_1
_geom_bond_atom_site_label_2
_geom_bond_distance
_geom_bond_site_symmetry_2
Al0 Si0 2.895000 1_555
Al0 Si0 2.895000 1_655
Al0 Al2 2.910309 1_655
Al0 Al2 2.910309 1_555
Al0 Si2 2.939108 1_565
Al0 Si2 2.939108 1_555
Al0 Si1 2.954188 1_565
Al0 Si1 2.954188 1_555
Al0 U0 2.981758 1_555
Al0 U0 2.981758 1_655
Al0 U0 2.981758 1_565
Al0 U0 2.981758 1_665
Al1 Si0 2.895000 1_656
Al1 Si0 2.895000 1_556
Al1 Al2 2.910309 1_655
Al1 Al2 2.910309 1_555
Al1 Si2 2.939108 1_556
Al1 Si2 2.939108 1_566
Al1 Si1 2.954188 1_565
Al1 Si1 2.954188 1_555
Al1 U1 2.981758 1_555
Al1 U1 2.981758 1_565
Al1 U1 2.981758 1_655
Al1 U1 2.981758 1_665
Al2 Si1 2.981165 1_455
Al2 Si1 2.981165 1_565
Al2 Si1 2.981165 1_465
Al2 Si1 2.981165 1_555
Al2 U0 2.995524 1_555
Al2 U1 2.995524 1_555
Al2 U0 2.995524 1_565
Al2 U1 2.995524 1_565
Si0 U0 2.898637 1_555
Si0 U0 2.898637 1_565
Si0 U1 2.898637 1_564
Si0 U1 2.898637 1_554
Si1 U0 2.952260 1_655
Si1 U1 2.952260 1_655
Si1 U0 2.952260 1_555
Si1 U1 2.952260 1_555
Si2 U0 2.853904 1_655
Si2 U0 2.853904 1_555
Si2 U1 2.853904 1_654
Si2 U1 2.853904 1_554
