# generated using pymatgen
data_Nb(SBr)2
_symmetry_space_group_name_H-M   'P 1'
_cell_length_a   6.62294544
_cell_length_b   6.62849893
_cell_length_c   7.55771168
_cell_angle_alpha   89.95453785
_cell_angle_beta   67.90080304
_cell_angle_gamma   60.46288916
_symmetry_Int_Tables_number   1
_chemical_formula_structural   Nb(SBr)2
_chemical_formula_sum   'Nb2 S4 Br4'
_cell_volume   260.34495358
_cell_formula_units_Z   2
loop_
 _symmetry_equiv_pos_site_id
 _symmetry_equiv_pos_as_xyz
  1  'x, y, z'
loop_
 _atom_site_type_symbol
 _atom_site_label
 _atom_site_symmetry_multiplicity
 _atom_site_fract_x
 _atom_site_fract_y
 _atom_site_fract_z
 _atom_site_occupancy
  Nb  Nb0  1  0.87381992  0.87488067  0.00037402  1
  Nb  Nb1  1  0.12618008  0.12511933  0.99962598  1
  S  S0  1  0.79788982  0.23895757  0.87170979  1
  S  S1  1  0.20211018  0.76104243  0.12829021  1
  S  S2  1  0.13932850  0.94585399  0.70110019  1
  S  S3  1  0.86067150  0.05414601  0.29889981  1
  Br  Br0  1  0.76161054  0.57983501  0.22686234  1
  Br  Br1  1  0.23838946  0.42016499  0.77313766  1
  Br  Br2  1  0.64639348  0.82580078  0.77307819  1
  Br  Br3  1  0.35360652  0.17419922  0.22692181  1
loop_
_geom_bond_atom_site_label_1
_geom_bond_atom_site_label_2
_geom_bond_distance
_geom_bond_site_symmetry_2
Nb0 S0 2.487980 1_564
Nb0 S1 2.488802 1_655
Nb0 S2 2.500134 1_654
Nb0 S3 2.502850 1_565
Nb1 S1 2.487980 1_546
Nb1 S0 2.488802 1_455
Nb1 S3 2.500134 1_456
Nb1 S2 2.502850 1_545
S0 S2 2.007265 1_645
S1 S3 2.007265 1_465
Br0 Nb1 2.752581 1_654
Br0 Nb0 2.788847 1_555
Br1 Nb0 2.752581 1_456
Br1 Nb1 2.788847 1_555
Br2 Nb1 2.750520 1_565
Br2 Nb0 2.785037 1_556
Br3 Nb0 2.750520 1_545
Br3 Nb1 2.785037 1_554
