# generated using pymatgen
data_Te2Mo3W(SeS2)2
_symmetry_space_group_name_H-M   'P 1'
_cell_length_a   3.31068448
_cell_length_b   3.31068448
_cell_length_c   37.61577400
_cell_angle_alpha   90.00000000
_cell_angle_beta   90.00000000
_cell_angle_gamma   120.00000955
_symmetry_Int_Tables_number   1
_chemical_formula_structural   Te2Mo3W(SeS2)2
_chemical_formula_sum   'Te2 Mo3 W1 Se2 S4'
_cell_volume   357.05587037
_cell_formula_units_Z   1
loop_
 _symmetry_equiv_pos_site_id
 _symmetry_equiv_pos_as_xyz
  1  'x, y, z'
loop_
 _atom_site_type_symbol
 _atom_site_label
 _atom_site_symmetry_multiplicity
 _atom_site_fract_x
 _atom_site_fract_y
 _atom_site_fract_z
 _atom_site_occupancy
  Te  Te0  1  0.33333300  0.66666700  0.70870200  1
  Te  Te1  1  0.33333300  0.66666700  0.60637400  1
  Mo  Mo0  1  0.33333300  0.66666700  0.09392000  1
  Mo  Mo1  1  0.33333300  0.66666700  0.46963700  1
  Mo  Mo2  1  0.66666700  0.33333300  0.28179600  1
  W  W0  1  0.66666700  0.33333300  0.65757500  1
  Se  Se0  1  0.66666700  0.33333300  0.04928400  1
  Se  Se1  1  0.66666700  0.33333300  0.13857500  1
  S  S0  1  0.33333300  0.66666700  0.32238900  1
  S  S1  1  0.66666700  0.33333300  0.42903300  1
  S  S2  1  0.66666700  0.33333300  0.51025700  1
  S  S3  1  0.33333300  0.66666700  0.24120500  1
loop_
_geom_bond_atom_site_label_1
_geom_bond_atom_site_label_2
_geom_bond_distance
_geom_bond_site_symmetry_2
Te0 W0 2.711487 1_455
Te0 W0 2.711487 1_565
Te0 W0 2.711492 1_555
Te1 W0 2.713462 1_455
Te1 W0 2.713462 1_565
Te1 W0 2.713467 1_555
Mo0 Se0 2.544138 1_455
Mo0 Se0 2.544138 1_565
Mo0 Se0 2.544142 1_555
Mo0 Se1 2.544609 1_455
Mo0 Se1 2.544609 1_565
Mo0 Se1 2.544614 1_555
Mo1 S1 2.446699 1_455
Mo1 S1 2.446699 1_565
Mo1 S1 2.446704 1_555
Mo1 S2 2.447075 1_455
Mo1 S2 2.447075 1_565
Mo1 S2 2.447080 1_555
Mo2 S3 2.446394 1_655
Mo2 S3 2.446394 1_545
Mo2 S3 2.446399 1_555
Mo2 S0 2.446441 1_545
Mo2 S0 2.446441 1_655
Mo2 S0 2.446446 1_555
