# generated using pymatgen
data_TaTi3
_symmetry_space_group_name_H-M   'P 1'
_cell_length_a   4.61956820
_cell_length_b   4.61956820
_cell_length_c   4.61956820
_cell_angle_alpha   60.00000000
_cell_angle_beta   60.00000000
_cell_angle_gamma   60.00000000
_symmetry_Int_Tables_number   1
_chemical_formula_structural   TaTi3
_chemical_formula_sum   'Ta1 Ti3'
_cell_volume   69.70904794
_cell_formula_units_Z   1
loop_
 _symmetry_equiv_pos_site_id
 _symmetry_equiv_pos_as_xyz
  1  'x, y, z'
loop_
 _atom_site_type_symbol
 _atom_site_label
 _atom_site_symmetry_multiplicity
 _atom_site_fract_x
 _atom_site_fract_y
 _atom_site_fract_z
 _atom_site_occupancy
  Ta  Ta0  1  0.00000000  0.00000000  0.00000000  1
  Ti  Ti0  1  0.25000000  0.25000000  0.25000000  1
  Ti  Ti1  1  0.75000000  0.75000000  0.75000000  1
  Ti  Ti2  1  0.50000000  0.50000000  0.50000000  1
loop_
_geom_bond_atom_site_label_1
_geom_bond_atom_site_label_2
_geom_bond_distance
_geom_bond_site_symmetry_2
Ta0 Ti0 2.828896 1_545
Ta0 Ti0 2.828896 1_455
Ta0 Ti1 2.828896 1_544
Ta0 Ti1 2.828896 1_454
Ta0 Ti0 2.828896 1_555
Ta0 Ti0 2.828896 1_554
Ta0 Ti1 2.828896 1_444
Ta0 Ti1 2.828896 1_445
Ti0 Ti2 2.828896 1_555
Ti0 Ti2 2.828896 1_545
Ti0 Ti2 2.828896 1_554
Ti0 Ti2 2.828896 1_455
Ti1 Ti2 2.828896 1_556
Ti1 Ti2 2.828896 1_555
Ti1 Ti2 2.828896 1_655
Ti1 Ti2 2.828896 1_565
