# generated using pymatgen
data_MgOsN2
_symmetry_space_group_name_H-M   'P 1'
_cell_length_a   5.44572500
_cell_length_b   6.70225800
_cell_length_c   5.52792300
_cell_angle_alpha   90.00000000
_cell_angle_beta   90.00000000
_cell_angle_gamma   90.00000000
_symmetry_Int_Tables_number   1
_chemical_formula_structural   MgOsN2
_chemical_formula_sum   'Mg4 Os4 N8'
_cell_volume   201.76174862
_cell_formula_units_Z   4
loop_
 _symmetry_equiv_pos_site_id
 _symmetry_equiv_pos_as_xyz
  1  'x, y, z'
loop_
 _atom_site_type_symbol
 _atom_site_label
 _atom_site_symmetry_multiplicity
 _atom_site_fract_x
 _atom_site_fract_y
 _atom_site_fract_z
 _atom_site_occupancy
  Mg  Mg0  1  0.59799500  0.87841400  0.99908400  1
  Mg  Mg1  1  0.40200500  0.12158600  0.49908400  1
  Mg  Mg2  1  0.90200500  0.37841400  0.49908400  1
  Mg  Mg3  1  0.09799500  0.62158600  0.99908400  1
  Os  Os0  1  0.55594300  0.34258200  0.02586800  1
  Os  Os1  1  0.44405700  0.65741800  0.52586800  1
  Os  Os2  1  0.94405700  0.84258200  0.52586800  1
  Os  Os3  1  0.05594300  0.15741800  0.02586800  1
  N  N0  1  0.54590100  0.39937900  0.36488200  1
  N  N1  1  0.45409900  0.60062100  0.86488200  1
  N  N2  1  0.95409900  0.89937900  0.86488200  1
  N  N3  1  0.04590100  0.10062100  0.36488200  1
  N  N4  1  0.61354700  0.88184900  0.38016700  1
  N  N5  1  0.38645300  0.11815100  0.88016700  1
  N  N6  1  0.88645300  0.38184900  0.88016700  1
  N  N7  1  0.11354700  0.61815100  0.38016700  1
loop_
_geom_bond_atom_site_label_1
_geom_bond_atom_site_label_2
_geom_bond_distance
_geom_bond_site_symmetry_2
Mg0 N2 2.081049 1_555
Mg0 N5 2.083499 1_565
Mg0 N4 2.108425 1_556
Mg0 N1 2.151943 1_555
Mg1 N3 2.081049 1_555
Mg1 N4 2.083499 1_545
Mg1 N5 2.108425 1_555
Mg1 N0 2.151943 1_555
Mg2 N0 2.081049 1_555
Mg2 N7 2.083499 1_655
Mg2 N6 2.108425 1_555
Mg2 N3 2.151943 1_655
Mg3 N1 2.081049 1_555
Mg3 N6 2.083499 1_455
Mg3 N7 2.108425 1_556
Mg3 N2 2.151943 1_455
N0 Os0 1.913096 1_555
N0 Os1 2.022505 1_555
N1 Os1 1.913096 1_555
N1 Os0 2.022505 1_556
N2 Os2 1.913096 1_555
N2 Os3 2.022505 1_666
N3 Os3 1.913096 1_555
N3 Os2 2.022505 1_445
N4 Os1 1.939905 1_555
N4 Os2 1.989344 1_555
N5 Os0 1.939905 1_556
N5 Os3 1.989344 1_556
N6 Os3 1.939905 1_656
N6 Os0 1.989344 1_556
N7 Os2 1.939905 1_455
N7 Os1 1.989344 1_555
