# generated using pymatgen
data_Ce(Tl3Te2)3
_symmetry_space_group_name_H-M   'P 1'
_cell_length_a   9.07549600
_cell_length_b   9.07549600
_cell_length_c   9.37207720
_cell_angle_alpha   118.95859564
_cell_angle_beta   118.95858866
_cell_angle_gamma   90.00000000
_symmetry_Int_Tables_number   1
_chemical_formula_structural   Ce(Tl3Te2)3
_chemical_formula_sum   'Ce1 Tl9 Te6'
_cell_volume   562.57824607
_cell_formula_units_Z   1
loop_
 _symmetry_equiv_pos_site_id
 _symmetry_equiv_pos_as_xyz
  1  'x, y, z'
loop_
 _atom_site_type_symbol
 _atom_site_label
 _atom_site_symmetry_multiplicity
 _atom_site_fract_x
 _atom_site_fract_y
 _atom_site_fract_z
 _atom_site_occupancy
  Ce  Ce0  1  0.00000000  0.00000000  0.00000000  1
  Tl  Tl0  1  0.50000000  0.50000000  0.00000000  1
  Tl  Tl1  1  0.79604000  0.31459200  0.31432100  1
  Tl  Tl2  1  0.51828100  0.99972900  0.31432100  1
  Tl  Tl3  1  0.99972900  0.79604000  0.31432100  1
  Tl  Tl4  1  0.31459200  0.51828100  0.31432100  1
  Tl  Tl5  1  0.20396000  0.68540800  0.68567900  1
  Tl  Tl6  1  0.48171900  0.00027100  0.68567900  1
  Tl  Tl7  1  0.00027100  0.20396000  0.68567900  1
  Tl  Tl8  1  0.68540800  0.48171900  0.68567900  1
  Te  Te0  1  0.23735800  0.23735800  0.47471500  1
  Te  Te1  1  0.76264200  0.76264200  0.52528500  1
  Te  Te2  1  0.84850900  0.32502500  0.00000000  1
  Te  Te3  1  0.15149100  0.67497500  0.00000000  1
  Te  Te4  1  0.67497500  0.84850900  0.00000000  1
  Te  Te5  1  0.32502500  0.15149100  0.00000000  1
loop_
_geom_bond_atom_site_label_1
_geom_bond_atom_site_label_2
_geom_bond_distance
_geom_bond_site_symmetry_2
Ce0 Te1 3.242464 1_444
Ce0 Te0 3.242464 1_555
Ce0 Te3 3.254433 1_545
Ce0 Te2 3.254433 1_455
Ce0 Te5 3.254433 1_555
Ce0 Te4 3.254433 1_445
Te0 Tl0 3.587874 1_556
Te1 Tl0 3.587874 1_555
Te2 Tl1 3.246869 1_555
Te2 Tl6 3.246869 1_554
Te2 Tl0 3.539150 1_555
Te3 Tl5 3.246869 1_554
Te3 Tl2 3.246869 1_555
Te3 Tl0 3.539150 1_555
Te4 Tl8 3.246869 1_554
Te4 Tl3 3.246869 1_555
Te4 Tl0 3.539150 1_555
Te5 Tl4 3.246869 1_555
Te5 Tl7 3.246869 1_554
Te5 Tl0 3.539150 1_555
