# generated using pymatgen
data_Tl2Fe3Se4
_symmetry_space_group_name_H-M   'P 1'
_cell_length_a   5.53704100
_cell_length_b   7.62205807
_cell_length_c   10.84683565
_cell_angle_alpha   69.70276972
_cell_angle_beta   89.48891368
_cell_angle_gamma   89.59965098
_symmetry_Int_Tables_number   1
_chemical_formula_structural   Tl2Fe3Se4
_chemical_formula_sum   'Tl4 Fe6 Se8'
_cell_volume   429.32997365
_cell_formula_units_Z   2
loop_
 _symmetry_equiv_pos_site_id
 _symmetry_equiv_pos_as_xyz
  1  'x, y, z'
loop_
 _atom_site_type_symbol
 _atom_site_label
 _atom_site_symmetry_multiplicity
 _atom_site_fract_x
 _atom_site_fract_y
 _atom_site_fract_z
 _atom_site_occupancy
  Tl  Tl0  1  0.00702200  0.74880300  0.74620900  1
  Tl  Tl1  1  0.50000000  0.50000000  0.00000000  1
  Tl  Tl2  1  0.99297800  0.25119700  0.25379100  1
  Tl  Tl3  1  0.50000000  0.00000000  0.50000000  1
  Fe  Fe0  1  0.25024700  0.00242800  0.99741200  1
  Fe  Fe1  1  0.74975300  0.99757200  0.00258800  1
  Fe  Fe2  1  0.74936500  0.74364700  0.25706200  1
  Fe  Fe3  1  0.25188000  0.49932600  0.49978500  1
  Fe  Fe4  1  0.74812000  0.50067400  0.50021500  1
  Fe  Fe5  1  0.25063500  0.25635300  0.74293800  1
  Se  Se0  1  0.50431100  0.98301800  0.82465200  1
  Se  Se1  1  0.99930700  0.27236900  0.92089500  1
  Se  Se2  1  0.00069300  0.72763100  0.07910500  1
  Se  Se3  1  0.49568900  0.01698200  0.17534800  1
  Se  Se4  1  0.50064000  0.46301200  0.32017500  1
  Se  Se5  1  0.00180900  0.78600100  0.42832400  1
  Se  Se6  1  0.99819100  0.21399900  0.57167600  1
  Se  Se7  1  0.49936000  0.53698800  0.67982500  1
loop_
_geom_bond_atom_site_label_1
_geom_bond_atom_site_label_2
_geom_bond_distance
_geom_bond_site_symmetry_2
Fe0 Se1 2.376693 1_455
Fe0 Se0 2.377976 1_545
Fe0 Se3 2.404528 1_556
Fe0 Se2 2.410914 1_546
Fe1 Se2 2.376693 1_655
Fe1 Se3 2.377976 1_565
Fe1 Se0 2.404528 1_554
Fe1 Se1 2.410914 1_564
Fe2 Se2 2.406370 1_655
Fe2 Se3 2.408150 1_565
Fe2 Se4 2.439087 1_555
Fe2 Se5 2.444912 1_655
Fe3 Se4 2.467838 1_555
Fe3 Se5 2.468676 1_555
Fe3 Se6 2.481424 1_455
Fe3 Se7 2.493189 1_555
Fe4 Se7 2.467838 1_555
Fe4 Se6 2.468676 1_555
Fe4 Se5 2.481424 1_655
Fe4 Se4 2.493189 1_555
Fe5 Se1 2.406370 1_455
Fe5 Se0 2.408150 1_545
Fe5 Se7 2.439087 1_555
Fe5 Se6 2.444912 1_455
Se4 Tl2 3.356573 1_555
Se4 Tl1 3.385463 1_555
Se5 Tl0 3.360604 1_555
Se5 Tl2 3.391292 1_465
Se6 Tl2 3.360604 1_555
Se6 Tl0 3.391292 1_645
Se7 Tl0 3.356573 1_555
Se7 Tl1 3.385463 1_556
