# generated using pymatgen
data_Lu3SnC
_symmetry_space_group_name_H-M   'P 1'
_cell_length_a   4.72821961
_cell_length_b   4.72821961
_cell_length_c   4.72821961
_cell_angle_alpha   90.00000000
_cell_angle_beta   90.00000000
_cell_angle_gamma   90.00000000
_symmetry_Int_Tables_number   1
_chemical_formula_structural   Lu3SnC
_chemical_formula_sum   'Lu3 Sn1 C1'
_cell_volume   105.70436451
_cell_formula_units_Z   1
loop_
 _symmetry_equiv_pos_site_id
 _symmetry_equiv_pos_as_xyz
  1  'x, y, z'
loop_
 _atom_site_type_symbol
 _atom_site_label
 _atom_site_symmetry_multiplicity
 _atom_site_fract_x
 _atom_site_fract_y
 _atom_site_fract_z
 _atom_site_occupancy
  Lu  Lu0  1  0.50000000  0.00000000  0.50000000  1
  Lu  Lu1  1  0.50000000  0.50000000  0.00000000  1
  Lu  Lu2  1  0.00000000  0.50000000  0.50000000  1
  Sn  Sn0  1  0.00000000  -0.00000000  0.00000000  1
  C  C0  1  0.50000000  0.50000000  0.50000000  1
loop_
_geom_bond_atom_site_label_1
_geom_bond_atom_site_label_2
_geom_bond_distance
_geom_bond_site_symmetry_2
Lu0 Sn0 3.343356 1_556
Lu0 Sn0 3.343356 1_656
Lu0 Sn0 3.343356 1_555
Lu0 Sn0 3.343356 1_655
Lu1 Sn0 3.343356 1_565
Lu1 Sn0 3.343356 1_555
Lu1 Sn0 3.343356 1_655
Lu1 Sn0 3.343356 1_665
Lu2 Sn0 3.343356 1_556
Lu2 Sn0 3.343356 1_565
Lu2 Sn0 3.343356 1_555
Lu2 Sn0 3.343356 1_566
C0 Lu0 2.364110 1_555
C0 Lu0 2.364110 1_565
C0 Lu1 2.364110 1_556
C0 Lu1 2.364110 1_555
C0 Lu2 2.364110 1_555
C0 Lu2 2.364110 1_655
