# generated using pymatgen
data_Sr2YVCu2O7
_symmetry_space_group_name_H-M   'P 1'
_cell_length_a   12.63742270
_cell_length_b   12.63742270
_cell_length_c   12.63742270
_cell_angle_alpha   154.47375215
_cell_angle_beta   154.13269326
_cell_angle_gamma   36.65979162
_symmetry_Int_Tables_number   1
_chemical_formula_structural   Sr2YVCu2O7
_chemical_formula_sum   'Sr4 Y2 V2 Cu4 O14'
_cell_volume   378.93266756
_cell_formula_units_Z   2
loop_
 _symmetry_equiv_pos_site_id
 _symmetry_equiv_pos_as_xyz
  1  'x, y, z'
loop_
 _atom_site_type_symbol
 _atom_site_label
 _atom_site_symmetry_multiplicity
 _atom_site_fract_x
 _atom_site_fract_y
 _atom_site_fract_z
 _atom_site_occupancy
  Sr  Sr0  1  0.16397600  0.65504400  0.53137400  1
  Sr  Sr1  1  0.83602400  0.36739800  0.49106800  1
  Sr  Sr2  1  0.62367000  0.15504400  0.49106800  1
  Sr  Sr3  1  0.37633000  0.86739800  0.53137400  1
  Y  Y0  1  0.50000000  0.01552400  0.51552400  1
  Y  Y1  1  0.00000000  0.51552400  0.51552400  1
  V  V0  1  0.82658400  0.71864500  0.04522800  1
  V  V1  1  0.17341600  0.21864500  0.89206100  1
  Cu  Cu0  1  0.06512100  0.08036000  0.01320600  1
  Cu  Cu1  1  0.93487900  0.94808500  0.01524000  1
  Cu  Cu2  1  0.56715400  0.58036000  0.01524000  1
  Cu  Cu3  1  0.43284600  0.44808500  0.01320600  1
  O  O0  1  0.12807800  0.87276000  0.50083800  1
  O  O1  1  0.87192200  0.37276000  0.74468200  1
  O  O2  1  0.30883900  0.82233600  0.00518500  1
  O  O3  1  0.69116100  0.69634700  0.51349700  1
  O  O4  1  0.31715100  0.32233600  0.51349700  1
  O  O5  1  0.68284900  0.19634700  0.00518500  1
  O  O6  1  0.81888800  0.33254900  0.02291500  1
  O  O7  1  0.18111200  0.20402700  0.51366100  1
  O  O8  1  0.80963400  0.83254900  0.51366100  1
  O  O9  1  0.19036600  0.70402700  0.02291500  1
  O  O10  1  0.64243300  0.71877600  0.99761000  1
  O  O11  1  0.35756700  0.35517800  0.07634300  1
  O  O12  1  0.22116500  0.21877600  0.07634300  1
  O  O13  1  0.77883500  0.85517800  0.99761000  1
loop_
_geom_bond_atom_site_label_1
_geom_bond_atom_site_label_2
_geom_bond_distance
_geom_bond_site_symmetry_2
Cu0 O6 1.981270 1_455
Cu0 O8 1.986492 1_444
Cu0 O4 1.990665 1_555
Cu0 O2 1.995345 1_545
Cu1 O7 1.981266 1_665
Cu1 O9 1.986492 1_655
Cu1 O5 1.990670 1_565
Cu1 O3 1.995350 1_554
Cu2 O8 1.981266 1_555
Cu2 O6 1.986492 1_555
Cu2 O2 1.990665 1_555
Cu2 O4 1.995348 1_554
Cu3 O9 1.981270 1_555
Cu3 O7 1.986492 1_554
Cu3 O3 1.990666 1_555
Cu3 O5 1.995341 1_555
O0 V0 1.910374 1_455
O0 V1 1.948288 1_565
O0 Sr3 2.742872 1_555
O0 Sr0 2.742872 1_555
O1 V1 1.910371 1_655
O1 V0 1.948285 1_556
O1 Sr1 2.742872 1_555
O1 Sr2 2.742872 1_555
O2 Y1 2.464141 1_554
O2 Y0 2.529381 1_565
O2 Sr0 2.703750 1_554
O2 Sr2 2.736999 1_565
O3 Y1 2.464137 1_655
O3 Y0 2.529371 1_565
O3 Sr1 2.703762 1_555
O3 Sr3 2.737005 1_555
O4 Y0 2.464141 1_555
O4 Y1 2.529381 1_555
O4 Sr2 2.703750 1_555
O4 Sr0 2.736999 1_555
O5 Y0 2.464134 1_554
O5 Y1 2.529374 1_655
O5 Sr3 2.703759 1_544
O5 Sr1 2.737007 1_555
O6 Y1 2.491921 1_655
O6 Y0 2.538489 1_554
O6 Sr0 2.782118 1_655
O6 Sr2 2.849655 1_554
O7 Y1 2.491921 1_555
O7 Y0 2.538489 1_555
O7 Sr1 2.782118 1_455
O7 Sr3 2.849655 1_545
O8 Y0 2.491921 1_565
O8 Y1 2.538489 1_655
O8 Sr2 2.782118 1_565
O8 Sr0 2.849655 1_655
O9 Y0 2.491921 1_565
O9 Y1 2.538489 1_554
O9 Sr3 2.782118 1_555
O9 Sr1 2.849655 1_454
O10 V0 1.803702 1_556
O10 Sr0 2.657087 1_555
O10 Sr2 2.802538 1_566
O10 Sr2 3.075750 1_555
O11 V1 1.803702 1_554
O11 Sr1 2.657086 1_555
O11 Sr3 2.802531 1_555
O11 Sr3 3.075749 1_544
O12 V1 1.803702 1_554
O12 Sr2 2.657086 1_555
O12 Sr0 2.802531 1_555
O12 Sr0 3.075749 1_544
O13 V0 1.803702 1_556
O13 Sr3 2.657079 1_555
O13 Sr1 2.802530 1_566
O13 Sr1 3.075742 1_555
