# generated using pymatgen
data_LaZnFeMoO6
_symmetry_space_group_name_H-M   'P 1'
_cell_length_a   5.49294545
_cell_length_b   7.85203699
_cell_length_c   5.81633747
_cell_angle_alpha   89.95831038
_cell_angle_beta   90.62784768
_cell_angle_gamma   89.55408598
_symmetry_Int_Tables_number   1
_chemical_formula_structural   LaZnFeMoO6
_chemical_formula_sum   'La2 Zn2 Fe2 Mo2 O12'
_cell_volume   250.84061030
_cell_formula_units_Z   2
loop_
 _symmetry_equiv_pos_site_id
 _symmetry_equiv_pos_as_xyz
  1  'x, y, z'
loop_
 _atom_site_type_symbol
 _atom_site_label
 _atom_site_symmetry_multiplicity
 _atom_site_fract_x
 _atom_site_fract_y
 _atom_site_fract_z
 _atom_site_occupancy
  La  La0  1  0.98165100  0.24634800  0.05727500  1
  La  La1  1  0.48044900  0.74718900  0.44282400  1
  Zn  Zn0  1  0.48350200  0.24721900  0.39629000  1
  Zn  Zn1  1  0.97514100  0.75220500  0.10372600  1
  Fe  Fe0  1  0.49723300  0.50153100  0.98872600  1
  Fe  Fe1  1  0.99435200  0.00113700  0.52333500  1
  Mo  Mo0  1  0.49711800  0.99698200  0.97484900  1
  Mo  Mo1  1  0.00185200  0.49649700  0.52843500  1
  O  O0  1  0.62719800  0.75420700  0.02835500  1
  O  O1  1  0.13150100  0.25288100  0.47228000  1
  O  O2  1  0.19027500  0.94220600  0.19466900  1
  O  O3  1  0.69992800  0.44126600  0.30951300  1
  O  O4  1  0.17604300  0.54985100  0.21234500  1
  O  O5  1  0.70073800  0.05184900  0.30051800  1
  O  O6  1  0.91419400  0.74932600  0.49733800  1
  O  O7  1  0.41133500  0.24563200  0.01324300  1
  O  O8  1  0.30168100  0.54946700  0.69420400  1
  O  O9  1  0.81150300  0.05688800  0.79037600  1
  O  O10  1  0.31131600  0.95655900  0.68857000  1
  O  O11  1  0.81298700  0.46075900  0.78312900  1
loop_
_geom_bond_atom_site_label_1
_geom_bond_atom_site_label_2
_geom_bond_distance
_geom_bond_site_symmetry_2
La0 O9 2.343004 1_554
La0 O7 2.376837 1_655
La0 O11 2.484888 1_554
La0 O1 2.542425 1_655
La0 O5 2.606980 1_555
La0 O3 2.627871 1_555
La0 O2 2.754918 1_645
La0 O4 2.766683 1_655
La1 O8 2.358862 1_555
La1 O10 2.370138 1_555
La1 O6 2.400287 1_555
La1 O0 2.550946 1_555
La1 O2 2.622406 1_555
La1 O4 2.643505 1_555
La1 O3 2.793376 1_555
La1 O5 2.817095 1_565
Fe0 O8 2.045099 1_555
Fe0 O7 2.072722 1_556
Fe0 O0 2.125609 1_556
Fe0 O11 2.139640 1_555
Fe0 O3 2.211285 1_556
Fe0 O4 2.233584 1_556
Fe1 O9 1.908187 1_555
Fe1 O10 2.007692 1_645
Fe1 O6 2.034378 1_545
Fe1 O5 2.093491 1_555
Fe1 O1 2.142499 1_655
Fe1 O2 2.250616 1_645
Mo0 O10 1.970655 1_555
Mo0 O7 2.018024 1_566
Mo0 O0 2.052889 1_556
Mo0 O9 2.099333 1_565
Mo0 O2 2.172141 1_556
Mo0 O5 2.233124 1_566
Mo1 O11 1.840410 1_455
Mo1 O8 1.947173 1_555
Mo1 O6 2.046547 1_455
Mo1 O1 2.063435 1_555
Mo1 O4 2.124787 1_555
Mo1 O3 2.127348 1_455
O0 Zn1 1.956117 1_555
O1 Zn0 1.988279 1_555
O2 Zn1 1.979115 1_455
O3 Zn0 2.007438 1_555
O4 Zn1 2.024223 1_455
O5 Zn0 2.018617 1_555
O6 Zn1 2.317475 1_555
O7 Zn0 2.258702 1_555
