# generated using pymatgen
data_Y2(Ni5B3)3
_symmetry_space_group_name_H-M   'P 1'
_cell_length_a   9.82121428
_cell_length_b   9.82121428
_cell_length_c   11.24512600
_cell_angle_alpha   90.00000000
_cell_angle_beta   90.00000000
_cell_angle_gamma   107.89994947
_symmetry_Int_Tables_number   1
_chemical_formula_structural   Y2(Ni5B3)3
_chemical_formula_sum   'Y8 Ni60 B36'
_cell_volume   1032.15923494
_cell_formula_units_Z   4
loop_
 _symmetry_equiv_pos_site_id
 _symmetry_equiv_pos_as_xyz
  1  'x, y, z'
loop_
 _atom_site_type_symbol
 _atom_site_label
 _atom_site_symmetry_multiplicity
 _atom_site_fract_x
 _atom_site_fract_y
 _atom_site_fract_z
 _atom_site_occupancy
  Y  Y0  1  0.25946400  0.25946400  0.95866400  1
  Y  Y1  1  0.74053600  0.74053600  0.04133600  1
  Y  Y2  1  0.24053600  0.24053600  0.45866400  1
  Y  Y3  1  0.75946400  0.75946400  0.54133600  1
  Y  Y4  1  0.19172400  0.69172400  0.75000000  1
  Y  Y5  1  0.30827600  0.80827600  0.25000000  1
  Y  Y6  1  0.80827600  0.30827600  0.25000000  1
  Y  Y7  1  0.69172400  0.19172400  0.75000000  1
  Ni  Ni0  1  0.50000000  0.50000000  0.00000000  1
  Ni  Ni1  1  0.00000000  0.00000000  0.50000000  1
  Ni  Ni2  1  0.50000000  0.50000000  0.50000000  1
  Ni  Ni3  1  0.00000000  0.00000000  0.00000000  1
  Ni  Ni4  1  0.23344600  0.23344600  0.71190100  1
  Ni  Ni5  1  0.76655400  0.76655400  0.28809900  1
  Ni  Ni6  1  0.26655400  0.26655400  0.21190100  1
  Ni  Ni7  1  0.73344600  0.73344600  0.78809900  1
  Ni  Ni8  1  0.93182500  0.43182500  0.75000000  1
  Ni  Ni9  1  0.56817500  0.06817500  0.25000000  1
  Ni  Ni10  1  0.06817500  0.56817500  0.25000000  1
  Ni  Ni11  1  0.43182500  0.93182500  0.75000000  1
  Ni  Ni12  1  0.99020200  0.18331100  0.83964300  1
  Ni  Ni13  1  0.81668900  0.00979800  0.16035700  1
  Ni  Ni14  1  0.31668900  0.50979800  0.33964300  1
  Ni  Ni15  1  0.49020200  0.68331100  0.66035700  1
  Ni  Ni16  1  0.00979800  0.81668900  0.16035700  1
  Ni  Ni17  1  0.18331100  0.99020200  0.83964300  1
  Ni  Ni18  1  0.68331100  0.49020200  0.66035700  1
  Ni  Ni19  1  0.50979800  0.31668900  0.33964300  1
  Ni  Ni20  1  0.25661300  0.47163600  0.59745800  1
  Ni  Ni21  1  0.52836400  0.74338700  0.40254200  1
  Ni  Ni22  1  0.02836400  0.24338700  0.09745800  1
  Ni  Ni23  1  0.75661300  0.97163600  0.90254200  1
  Ni  Ni24  1  0.74338700  0.52836400  0.40254200  1
  Ni  Ni25  1  0.47163600  0.25661300  0.59745800  1
  Ni  Ni26  1  0.97163600  0.75661300  0.90254200  1
  Ni  Ni27  1  0.24338700  0.02836400  0.09745800  1
  Ni  Ni28  1  0.99464900  0.22689500  0.61823600  1
  Ni  Ni29  1  0.77310500  0.00535100  0.38176400  1
  Ni  Ni30  1  0.27310500  0.50535100  0.11823600  1
  Ni  Ni31  1  0.49464900  0.72689500  0.88176400  1
  Ni  Ni32  1  0.00535100  0.77310500  0.38176400  1
  Ni  Ni33  1  0.22689500  0.99464900  0.61823600  1
  Ni  Ni34  1  0.72689500  0.49464900  0.88176400  1
  Ni  Ni35  1  0.50535100  0.27310500  0.11823600  1
  Ni  Ni36  1  0.10629200  0.44680400  0.91502400  1
  Ni  Ni37  1  0.55319600  0.89370800  0.08497600  1
  Ni  Ni38  1  0.05319600  0.39370800  0.41502400  1
  Ni  Ni39  1  0.60629200  0.94680400  0.58497600  1
  Ni  Ni40  1  0.89370800  0.55319600  0.08497600  1
  Ni  Ni41  1  0.44680400  0.10629200  0.91502400  1
  Ni  Ni42  1  0.94680400  0.60629200  0.58497600  1
  Ni  Ni43  1  0.39370800  0.05319600  0.41502400  1
  Ni  Ni44  1  0.33110200  0.48899900  0.80629400  1
  Ni  Ni45  1  0.51100100  0.66889800  0.19370600  1
  Ni  Ni46  1  0.01100100  0.16889800  0.30629400  1
  Ni  Ni47  1  0.83110200  0.98899900  0.69370600  1
  Ni  Ni48  1  0.66889800  0.51100100  0.19370600  1
  Ni  Ni49  1  0.48899900  0.33110200  0.80629400  1
  Ni  Ni50  1  0.98899900  0.83110200  0.69370600  1
  Ni  Ni51  1  0.16889800  0.01100100  0.30629400  1
  Ni  Ni52  1  0.83777900  0.36350700  0.52962300  1
  Ni  Ni53  1  0.63649300  0.16222100  0.47037700  1
  Ni  Ni54  1  0.13649300  0.66222100  0.02962300  1
  Ni  Ni55  1  0.33777900  0.86350700  0.97037700  1
  Ni  Ni56  1  0.16222100  0.63649300  0.47037700  1
  Ni  Ni57  1  0.36350700  0.83777900  0.52962300  1
  Ni  Ni58  1  0.86350700  0.33777900  0.97037700  1
  Ni  Ni59  1  0.66222100  0.13649300  0.02962300  1
  B  B0  1  0.36458500  0.63541500  0.50000000  1
  B  B1  1  0.86458500  0.13541500  0.00000000  1
  B  B2  1  0.63541500  0.36458500  0.50000000  1
  B  B3  1  0.13541500  0.86458500  0.00000000  1
  B  B4  1  0.45211600  0.45211600  0.67187300  1
  B  B5  1  0.54788400  0.54788400  0.32812700  1
  B  B6  1  0.04788400  0.04788400  0.17187300  1
  B  B7  1  0.95211600  0.95211600  0.82812700  1
  B  B8  1  0.05629200  0.05629200  0.69977500  1
  B  B9  1  0.94370800  0.94370800  0.30022500  1
  B  B10  1  0.44370800  0.44370800  0.19977500  1
  B  B11  1  0.55629200  0.55629200  0.80022500  1
  B  B12  1  0.11971400  0.37781700  0.74447500  1
  B  B13  1  0.62218300  0.88028600  0.25552500  1
  B  B14  1  0.12218300  0.38028600  0.24447500  1
  B  B15  1  0.61971400  0.87781700  0.75552500  1
  B  B16  1  0.88028600  0.62218300  0.25552500  1
  B  B17  1  0.37781700  0.11971400  0.74447500  1
  B  B18  1  0.87781700  0.61971400  0.75552500  1
  B  B19  1  0.38028600  0.12218300  0.24447500  1
  B  B20  1  0.29799800  0.59241900  0.95006900  1
  B  B21  1  0.40758100  0.70200200  0.04993100  1
  B  B22  1  0.90758100  0.20200200  0.45006900  1
  B  B23  1  0.79799800  0.09241900  0.54993100  1
  B  B24  1  0.70200200  0.40758100  0.04993100  1
  B  B25  1  0.59241900  0.29799800  0.95006900  1
  B  B26  1  0.09241900  0.79799800  0.54993100  1
  B  B27  1  0.20200200  0.90758100  0.45006900  1
  B  B28  1  0.04904600  0.44932500  0.59975000  1
  B  B29  1  0.55067500  0.95095400  0.40025000  1
  B  B30  1  0.05067500  0.45095400  0.09975000  1
  B  B31  1  0.54904600  0.94932500  0.90025000  1
  B  B32  1  0.95095400  0.55067500  0.40025000  1
  B  B33  1  0.44932500  0.04904600  0.59975000  1
  B  B34  1  0.94932500  0.54904600  0.90025000  1
  B  B35  1  0.45095400  0.05067500  0.09975000  1
loop_
_geom_bond_atom_site_label_1
_geom_bond_atom_site_label_2
_geom_bond_distance
_geom_bond_site_symmetry_2
Ni0 Y1 2.819038 1_555
Ni0 Y0 2.819038 1_554
Ni1 Y3 2.819038 1_445
Ni1 Y2 2.819038 1_555
Ni2 Y2 3.035054 1_555
Ni2 Y3 3.035054 1_555
Ni3 Y1 3.035054 1_445
Ni3 Y0 3.035054 1_554
Ni4 Y0 2.791132 1_555
Ni4 Y2 2.848861 1_555
Ni5 Y1 2.791132 1_555
Ni5 Y3 2.848861 1_555
Ni6 Y2 2.791132 1_555
Ni6 Y0 2.848861 1_554
Ni7 Y3 2.791132 1_555
Ni7 Y1 2.848861 1_556
Ni8 Y7 2.775423 1_555
Ni8 Y4 3.004277 1_655
Ni9 Y6 2.775423 1_555
Ni9 Y5 3.004277 1_545
Ni10 Y5 2.775423 1_555
Ni10 Y6 3.004277 1_455
Ni11 Y4 2.775423 1_555
Ni11 Y7 3.004277 1_565
Ni12 Y0 2.850996 1_655
Ni12 Y7 3.124912 1_555
Ni13 Y1 2.850996 1_545
Ni13 Y6 3.124912 1_555
Ni14 Y2 2.850996 1_555
Ni14 Y5 3.124912 1_555
Ni15 Y3 2.850996 1_555
Ni15 Y4 3.124912 1_555
Ni16 Y1 2.850996 1_455
Ni16 Y5 3.124912 1_555
Ni17 Y0 2.850996 1_565
Ni17 Y4 3.124912 1_555
Ni18 Y3 2.850996 1_555
Ni18 Y7 3.124912 1_555
Ni19 Y2 2.850996 1_555
Ni19 Y6 3.124912 1_555
Ni20 Y2 2.718833 1_555
Ni20 Y4 2.977847 1_555
Ni21 Y3 2.718833 1_555
Ni21 Y5 2.977847 1_555
Ni22 Y0 2.718833 1_554
Ni22 Y6 2.977847 1_455
Ni23 Y1 2.718833 1_556
Ni23 Y7 2.977847 1_565
Ni24 Y3 2.718833 1_555
Ni24 Y6 2.977847 1_555
Ni25 Y2 2.718833 1_555
Ni25 Y7 2.977847 1_555
Ni26 Y1 2.718833 1_556
Ni26 Y4 2.977847 1_655
Ni27 Y0 2.718833 1_554
Ni27 Y5 2.977847 1_545
Ni28 Y2 2.978381 1_655
Ni28 Y7 3.245645 1_555
Ni29 Y3 2.978381 1_545
Ni29 Y6 3.245645 1_555
Ni30 Y0 2.978381 1_554
Ni30 Y5 3.245645 1_555
Ni31 Y1 2.978381 1_556
Ni31 Y4 3.245645 1_555
Ni32 Y3 2.978381 1_455
Ni32 Y5 3.245645 1_555
Ni33 Y2 2.978381 1_565
Ni33 Y4 3.245645 1_555
Ni34 Y1 2.978381 1_556
Ni34 Y7 3.245645 1_555
Ni35 Y0 2.978381 1_554
Ni35 Y6 3.245645 1_555
Ni36 Y0 2.755090 1_555
Ni36 Y4 2.948397 1_555
Ni37 Y1 2.755090 1_555
Ni37 Y5 2.948397 1_555
Ni38 Y2 2.755090 1_555
Ni38 Y6 2.948397 1_455
Ni39 Y3 2.755090 1_555
Ni39 Y7 2.948397 1_565
Ni40 Y1 2.755090 1_555
Ni40 Y6 2.948397 1_555
Ni41 Y0 2.755090 1_555
Ni41 Y7 2.948397 1_555
Ni42 Y3 2.755090 1_555
Ni42 Y4 2.948397 1_655
Ni43 Y2 2.755090 1_555
Ni43 Y5 2.948397 1_545
Ni44 Y0 2.745500 1_555
Ni44 Y4 2.813176 1_555
Ni45 Y1 2.745500 1_555
Ni45 Y5 2.813176 1_555
Ni46 Y2 2.745500 1_555
Ni46 Y6 2.813176 1_455
Ni47 Y3 2.745500 1_555
Ni47 Y7 2.813176 1_565
Ni48 Y1 2.745500 1_555
Ni48 Y6 2.813176 1_555
Ni49 Y0 2.745500 1_555
Ni49 Y7 2.813176 1_555
Ni50 Y3 2.745500 1_555
Ni50 Y4 2.813176 1_655
Ni51 Y2 2.745500 1_555
Ni51 Y5 2.813176 1_545
Ni52 Y7 3.091544 1_555
Ni52 Y6 3.188856 1_555
Ni53 Y6 3.091544 1_555
Ni53 Y7 3.188856 1_555
Ni54 Y5 3.091544 1_555
Ni54 Y4 3.188856 1_554
Ni55 Y4 3.091544 1_555
Ni55 Y5 3.188856 1_556
Ni56 Y5 3.091544 1_555
Ni56 Y4 3.188856 1_555
Ni57 Y4 3.091544 1_555
Ni57 Y5 3.188856 1_555
Ni58 Y7 3.091544 1_555
Ni58 Y6 3.188856 1_556
Ni59 Y6 3.091544 1_555
Ni59 Y7 3.188856 1_554
B0 Ni21 1.965791 1_555
B0 Ni20 1.965791 1_555
B0 Ni56 2.018418 1_555
B0 Ni57 2.018418 1_555
B0 Ni2 2.150522 1_555
B0 Ni15 2.153656 1_555
B0 Ni14 2.153656 1_555
B1 Ni22 1.965791 1_655
B1 Ni23 1.965791 1_544
B1 Ni58 2.018418 1_554
B1 Ni59 2.018418 1_555
B1 Ni3 2.150522 1_655
B1 Ni12 2.153656 1_554
B1 Ni13 2.153656 1_555
B2 Ni24 1.965791 1_555
B2 Ni25 1.965791 1_555
B2 Ni53 2.018418 1_555
B2 Ni52 2.018418 1_555
B2 Ni2 2.150522 1_555
B2 Ni18 2.153656 1_555
B2 Ni19 2.153656 1_555
B3 Ni27 1.965791 1_565
B3 Ni26 1.965791 1_454
B3 Ni55 2.018418 1_554
B3 Ni54 2.018418 1_555
B3 Ni3 2.150522 1_565
B3 Ni17 2.153656 1_554
B3 Ni16 2.153656 1_555
B4 Ni2 2.010431 1_555
B4 Ni49 2.023186 1_555
B4 Ni44 2.023186 1_555
B4 Ni25 2.156378 1_555
B4 Ni20 2.156378 1_555
B4 Ni18 2.188673 1_555
B4 Ni15 2.188673 1_555
B4 Ni4 2.567459 1_555
B5 Ni2 2.010431 1_555
B5 Ni45 2.023186 1_555
B5 Ni48 2.023186 1_555
B5 Ni21 2.156378 1_555
B5 Ni24 2.156378 1_555
B5 Ni14 2.188673 1_555
B5 Ni19 2.188673 1_555
B5 Ni5 2.567459 1_555
B6 B9 1.879718 1_445
B6 Ni3 2.010431 1_555
B6 Ni46 2.023186 1_555
B6 Ni51 2.023186 1_555
B6 Ni27 2.156378 1_555
B6 Ni22 2.156378 1_555
B6 Ni13 2.188673 1_455
B6 Ni16 2.188673 1_545
B6 Ni6 2.567459 1_555
B7 B8 1.879718 1_665
B7 Ni3 2.010431 1_666
B7 Ni50 2.023186 1_555
B7 Ni47 2.023186 1_555
B7 Ni26 2.156378 1_555
B7 Ni23 2.156378 1_555
B7 Ni12 2.188673 1_565
B7 Ni17 2.188673 1_655
B7 Ni7 2.567459 1_555
B8 Ni4 2.052329 1_555
B8 Ni50 2.105775 1_445
B8 Ni47 2.105775 1_445
B8 Ni28 2.153649 1_455
B8 Ni33 2.153649 1_545
B8 Ni12 2.224650 1_455
B8 Ni17 2.224650 1_545
B8 Ni1 2.338836 1_555
B9 Ni5 2.052329 1_555
B9 Ni46 2.105775 1_665
B9 Ni51 2.105775 1_665
B9 Ni29 2.153649 1_565
B9 Ni32 2.153649 1_655
B9 Ni13 2.224650 1_565
B9 Ni16 2.224650 1_655
B9 Ni1 2.338836 1_665
B10 B5 1.879718 1_555
B10 Ni6 2.052329 1_555
B10 Ni45 2.105775 1_555
B10 Ni48 2.105775 1_555
B10 Ni35 2.153649 1_555
B10 Ni30 2.153649 1_555
B10 Ni14 2.224650 1_555
B10 Ni19 2.224650 1_555
B10 Ni0 2.338836 1_555
B11 B4 1.879718 1_555
B11 Ni7 2.052329 1_555
B11 Ni49 2.105775 1_555
B11 Ni44 2.105775 1_555
B11 Ni31 2.153649 1_555
B11 Ni34 2.153649 1_555
B11 Ni18 2.224650 1_555
B11 Ni15 2.224650 1_555
B11 Ni0 2.338836 1_556
B12 B28 1.980692 1_555
B12 Ni36 2.051698 1_555
B12 Ni8 2.071716 1_455
B12 Ni4 2.089458 1_555
B12 Ni44 2.142941 1_555
B12 Ni28 2.145171 1_455
B12 Ni20 2.151357 1_555
B12 Ni12 2.217820 1_455
B12 Y4 2.944200 1_555
B13 B29 1.980692 1_555
B13 Ni37 2.051698 1_555
B13 Ni9 2.071716 1_565
B13 Ni5 2.089458 1_555
B13 Ni45 2.142941 1_555
B13 Ni29 2.145171 1_565
B13 Ni21 2.151357 1_555
B13 Ni13 2.217820 1_565
B13 Y5 2.944200 1_555
B14 B30 1.980692 1_555
B14 Ni38 2.051698 1_555
B14 Ni10 2.071716 1_555
B14 Ni6 2.089458 1_555
B14 Ni46 2.142941 1_555
B14 Ni30 2.145171 1_555
B14 Ni22 2.151357 1_555
B14 Ni14 2.217820 1_555
B14 Y6 2.944200 1_455
B15 B31 1.980692 1_555
B15 Ni39 2.051698 1_555
B15 Ni11 2.071716 1_555
B15 Ni7 2.089458 1_555
B15 Ni47 2.142941 1_555
B15 Ni31 2.145171 1_555
B15 Ni23 2.151357 1_555
B15 Ni15 2.217820 1_555
B15 Y7 2.944200 1_565
B16 B32 1.980692 1_555
B16 Ni40 2.051698 1_555
B16 Ni10 2.071716 1_655
B16 Ni5 2.089458 1_555
B16 Ni48 2.142941 1_555
B16 Ni32 2.145171 1_655
B16 Ni24 2.151357 1_555
B16 Ni16 2.217820 1_655
B16 Y6 2.944200 1_555
B17 B33 1.980692 1_555
B17 Ni41 2.051698 1_555
B17 Ni11 2.071716 1_545
B17 Ni4 2.089458 1_555
B17 Ni49 2.142941 1_555
B17 Ni33 2.145171 1_545
B17 Ni25 2.151357 1_555
B17 Ni17 2.217820 1_545
B17 Y7 2.944200 1_555
B18 B34 1.980692 1_555
B18 Ni42 2.051698 1_555
B18 Ni8 2.071716 1_555
B18 Ni7 2.089458 1_555
B18 Ni50 2.142941 1_555
B18 Ni34 2.145171 1_555
B18 Ni26 2.151357 1_555
B18 Ni18 2.217820 1_555
B18 Y4 2.944200 1_655
B19 B35 1.980692 1_555
B19 Ni43 2.051698 1_555
B19 Ni9 2.071716 1_555
B19 Ni6 2.089458 1_555
B19 Ni51 2.142941 1_555
B19 Ni35 2.145171 1_555
B19 Ni27 2.151357 1_555
B19 Ni19 2.217820 1_555
B19 Y5 2.944200 1_545
B20 B21 1.692810 1_556
B20 Ni44 1.988543 1_555
B20 Ni36 2.022435 1_555
B20 Ni30 2.058782 1_556
B20 Ni54 2.110603 1_556
B20 Ni31 2.120472 1_555
B20 Ni0 2.486348 1_556
B20 Y4 2.779919 1_555
B21 Ni45 1.988543 1_555
B21 Ni37 2.022435 1_555
B21 Ni31 2.058782 1_554
B21 Ni55 2.110603 1_554
B21 Ni30 2.120472 1_555
B21 Ni0 2.486348 1_555
B21 Y5 2.779919 1_555
B22 B23 1.692810 1_555
B22 Ni46 1.988543 1_655
B22 Ni38 2.022435 1_655
B22 Ni28 2.058782 1_555
B22 Ni52 2.110603 1_555
B22 Ni29 2.120472 1_555
B22 Ni1 2.486348 1_655
B22 Y6 2.779919 1_555
B23 Ni47 1.988543 1_545
B23 Ni39 2.022435 1_545
B23 Ni29 2.058782 1_555
B23 Ni53 2.110603 1_555
B23 Ni28 2.120472 1_555
B23 Ni1 2.486348 1_655
B23 Y7 2.779919 1_555
B24 B25 1.692810 1_554
B24 Ni48 1.988543 1_555
B24 Ni40 2.022435 1_555
B24 Ni34 2.058782 1_554
B24 Ni58 2.110603 1_554
B24 Ni35 2.120472 1_555
B24 Ni0 2.486348 1_555
B24 Y6 2.779919 1_555
B25 Ni49 1.988543 1_555
B25 Ni41 2.022435 1_555
B25 Ni35 2.058782 1_556
B25 Ni59 2.110603 1_556
B25 Ni34 2.120472 1_555
B25 Ni0 2.486348 1_556
B25 Y7 2.779919 1_555
B26 B27 1.692810 1_555
B26 Ni50 1.988543 1_455
B26 Ni42 2.022435 1_455
B26 Ni32 2.058782 1_555
B26 Ni56 2.110603 1_555
B26 Ni33 2.120472 1_555
B26 Ni1 2.486348 1_565
B26 Y4 2.779919 1_555
B27 Ni51 1.988543 1_565
B27 Ni43 2.022435 1_565
B27 Ni33 2.058782 1_555
B27 Ni57 2.110603 1_555
B27 Ni32 2.120472 1_555
B27 Ni1 2.486348 1_565
B27 Y5 2.779919 1_555
B28 Ni20 1.982377 1_555
B28 Ni8 2.021873 1_455
B28 Ni42 2.089023 1_455
B28 Ni28 2.093657 1_455
B28 Ni52 2.135987 1_455
B28 Ni38 2.151453 1_555
B28 Ni56 2.339875 1_555
B28 Y4 2.904326 1_555
B29 Ni21 1.982377 1_555
B29 Ni9 2.021873 1_565
B29 Ni43 2.089023 1_565
B29 Ni29 2.093657 1_565
B29 Ni53 2.135987 1_565
B29 Ni39 2.151453 1_555
B29 Ni57 2.339875 1_555
B29 Y5 2.904326 1_555
B30 Ni22 1.982377 1_555
B30 Ni10 2.021873 1_555
B30 Ni40 2.089023 1_455
B30 Ni30 2.093657 1_555
B30 Ni54 2.135987 1_555
B30 Ni36 2.151453 1_554
B30 Ni58 2.339875 1_454
B30 Y6 2.904326 1_455
B31 Ni23 1.982377 1_555
B31 Ni11 2.021873 1_555
B31 Ni41 2.089023 1_565
B31 Ni31 2.093657 1_555
B31 Ni55 2.135987 1_555
B31 Ni37 2.151453 1_556
B31 Ni59 2.339875 1_566
B31 Y7 2.904326 1_565
B32 Ni24 1.982377 1_555
B32 Ni10 2.021873 1_655
B32 Ni38 2.089023 1_655
B32 Ni32 2.093657 1_655
B32 Ni56 2.135987 1_655
B32 Ni42 2.151453 1_555
B32 Ni52 2.339875 1_555
B32 Y6 2.904326 1_555
B33 Ni25 1.982377 1_555
B33 Ni11 2.021873 1_545
B33 Ni39 2.089023 1_545
B33 Ni33 2.093657 1_545
B33 Ni57 2.135987 1_545
B33 Ni43 2.151453 1_555
B33 Ni53 2.339875 1_555
B33 Y7 2.904326 1_555
B34 Ni26 1.982377 1_555
B34 Ni8 2.021873 1_555
B34 Ni36 2.089023 1_655
B34 Ni34 2.093657 1_555
B34 Ni58 2.135987 1_555
B34 Ni40 2.151453 1_556
B34 Ni54 2.339875 1_656
B34 Y4 2.904326 1_655
B35 Ni27 1.982377 1_555
B35 Ni9 2.021873 1_555
B35 Ni37 2.089023 1_545
B35 Ni35 2.093657 1_555
B35 Ni59 2.135987 1_555
B35 Ni41 2.151453 1_554
B35 Ni55 2.339875 1_544
B35 Y5 2.904326 1_545
