# generated using pymatgen
data_SmRh3
_symmetry_space_group_name_H-M   'P 1'
_cell_length_a   5.26594264
_cell_length_b   5.26594264
_cell_length_c   17.49014119
_cell_angle_alpha   90.00000000
_cell_angle_beta   90.00000000
_cell_angle_gamma   119.99962435
_symmetry_Int_Tables_number   1
_chemical_formula_structural   SmRh3
_chemical_formula_sum   'Sm6 Rh18'
_cell_volume   420.02761023
_cell_formula_units_Z   6
loop_
 _symmetry_equiv_pos_site_id
 _symmetry_equiv_pos_as_xyz
  1  'x, y, z'
loop_
 _atom_site_type_symbol
 _atom_site_label
 _atom_site_symmetry_multiplicity
 _atom_site_fract_x
 _atom_site_fract_y
 _atom_site_fract_z
 _atom_site_occupancy
  Sm  Sm0  1  0.66666840  0.33333160  0.04202923  1
  Sm  Sm1  1  0.33333160  0.66666840  0.95797077  1
  Sm  Sm2  1  0.33333160  0.66666840  0.54202923  1
  Sm  Sm3  1  0.66666840  0.33333160  0.45797077  1
  Sm  Sm4  1  0.66667638  0.33332362  0.25000000  1
  Sm  Sm5  1  0.33332362  0.66667638  0.75000000  1
  Rh  Rh0  1  0.83316269  0.66633415  0.62737642  1
  Rh  Rh1  1  0.83316306  0.16683694  0.62737255  1
  Rh  Rh2  1  0.33366585  0.16683731  0.62737642  1
  Rh  Rh3  1  0.16683731  0.33366585  0.37262358  1
  Rh  Rh4  1  0.16683694  0.83316306  0.37262745  1
  Rh  Rh5  1  0.66633415  0.83316269  0.37262358  1
  Rh  Rh6  1  0.16683731  0.33366585  0.12737642  1
  Rh  Rh7  1  0.16683694  0.83316306  0.12737255  1
  Rh  Rh8  1  0.66633415  0.83316269  0.12737642  1
  Rh  Rh9  1  0.83316269  0.66633415  0.87262358  1
  Rh  Rh10  1  0.83316306  0.16683694  0.87262745  1
  Rh  Rh11  1  0.33366585  0.16683731  0.87262358  1
  Rh  Rh12  1  0.66667272  0.33332728  0.75000000  1
  Rh  Rh13  1  0.33332728  0.66667272  0.25000000  1
  Rh  Rh14  1  0.99998880  0.00001120  0.75000000  1
  Rh  Rh15  1  0.00001120  0.99998880  0.25000000  1
  Rh  Rh16  1  0.00000000  0.00000000  0.50000000  1
  Rh  Rh17  1  0.00000000  0.00000000  0.00000000  1
loop_
_geom_bond_atom_site_label_1
_geom_bond_atom_site_label_2
_geom_bond_distance
_geom_bond_site_symmetry_2
Rh0 Rh12 2.627945 1_555
Rh0 Rh14 2.629712 1_565
Rh0 Rh1 2.630325 1_555
Rh0 Rh2 2.630337 1_555
Rh0 Rh1 2.635618 1_565
Rh0 Rh2 2.635636 1_665
Rh0 Rh16 2.697908 1_665
Rh0 Sm2 3.026673 1_555
Rh0 Sm2 3.026689 1_655
Rh0 Sm3 3.329448 1_555
Rh0 Sm5 3.395882 1_655
Rh0 Sm5 3.395965 1_555
Rh1 Rh12 2.627926 1_555
Rh1 Rh14 2.629695 1_555
Rh1 Rh2 2.630325 1_555
Rh1 Rh2 2.635618 1_655
Rh1 Rh16 2.697868 1_655
Rh1 Sm2 3.026660 1_655
Rh1 Sm2 3.026660 1_545
Rh1 Sm3 3.329357 1_555
Rh1 Sm5 3.395978 1_655
Rh1 Sm5 3.395978 1_545
Rh2 Sm2 3.026673 1_555
Rh2 Sm2 3.026689 1_545
Rh2 Sm3 3.329448 1_555
Rh2 Sm5 3.395882 1_545
Rh2 Sm5 3.395965 1_555
Rh3 Rh4 2.630325 1_555
Rh3 Rh5 2.630337 1_555
Rh3 Rh4 2.635618 1_545
Rh3 Rh5 2.635636 1_445
Rh3 Sm3 3.026673 1_555
Rh3 Sm3 3.026689 1_455
Rh3 Sm2 3.329448 1_555
Rh3 Sm4 3.395882 1_455
Rh3 Sm4 3.395965 1_555
Rh4 Rh5 2.630325 1_555
Rh4 Rh5 2.635618 1_455
Rh4 Sm3 3.026660 1_455
Rh4 Sm3 3.026660 1_565
Rh4 Sm2 3.329357 1_555
Rh4 Sm4 3.395978 1_455
Rh4 Sm4 3.395978 1_565
Rh5 Sm3 3.026673 1_555
Rh5 Sm3 3.026689 1_565
Rh5 Sm2 3.329448 1_555
Rh5 Sm4 3.395882 1_565
Rh5 Sm4 3.395965 1_555
Rh6 Rh7 2.630325 1_555
Rh6 Rh8 2.630337 1_555
Rh6 Rh7 2.635618 1_545
Rh6 Rh8 2.635636 1_445
Rh6 Sm0 3.026673 1_555
Rh6 Sm0 3.026689 1_455
Rh6 Sm1 3.329448 1_554
Rh6 Sm4 3.395882 1_455
Rh6 Sm4 3.395965 1_555
Rh7 Rh8 2.630325 1_555
Rh7 Rh8 2.635618 1_455
Rh7 Sm0 3.026660 1_455
Rh7 Sm0 3.026660 1_565
Rh7 Sm1 3.329357 1_554
Rh7 Sm4 3.395978 1_455
Rh7 Sm4 3.395978 1_565
Rh8 Sm0 3.026673 1_555
Rh8 Sm0 3.026689 1_565
Rh8 Sm1 3.329448 1_554
Rh8 Sm4 3.395882 1_565
Rh8 Sm4 3.395965 1_555
Rh9 Sm1 3.026673 1_555
Rh9 Sm1 3.026689 1_655
Rh9 Sm0 3.329448 1_556
Rh9 Sm5 3.395882 1_655
Rh9 Sm5 3.395965 1_555
Rh10 Rh12 2.627926 1_555
Rh10 Rh14 2.629695 1_555
Rh10 Rh9 2.630325 1_555
Rh10 Rh11 2.630325 1_555
Rh10 Rh9 2.635618 1_545
Rh10 Rh11 2.635618 1_655
Rh10 Rh17 2.697868 1_656
Rh10 Sm1 3.026660 1_655
Rh10 Sm1 3.026660 1_545
Rh10 Sm0 3.329357 1_556
Rh10 Sm5 3.395978 1_655
Rh10 Sm5 3.395978 1_545
Rh11 Rh12 2.627945 1_555
Rh11 Rh14 2.629712 1_455
Rh11 Rh9 2.630337 1_555
Rh11 Rh9 2.635636 1_445
Rh11 Rh17 2.697908 1_556
Rh11 Sm1 3.026673 1_555
Rh11 Sm1 3.026689 1_545
Rh11 Sm0 3.329448 1_556
Rh11 Sm5 3.395882 1_545
Rh11 Sm5 3.395965 1_555
Rh12 Rh9 2.627945 1_555
Rh12 Rh2 2.627945 1_555
Rh12 Sm5 3.040233 1_545
Rh12 Sm5 3.040233 1_655
Rh12 Sm5 3.040431 1_555
Rh13 Rh4 2.627926 1_555
Rh13 Rh7 2.627926 1_555
Rh13 Rh3 2.627945 1_555
Rh13 Rh5 2.627945 1_555
Rh13 Rh6 2.627945 1_555
Rh13 Rh8 2.627945 1_555
Rh13 Sm4 3.040233 1_455
Rh13 Sm4 3.040233 1_565
Rh13 Sm4 3.040431 1_555
Rh14 Rh9 2.629712 1_545
Rh14 Rh2 2.629712 1_655
Rh14 Sm5 3.040298 1_655
Rh14 Sm5 3.040298 1_545
Rh14 Sm5 3.040301 1_645
Rh15 Rh7 2.629695 1_555
Rh15 Rh4 2.629695 1_555
Rh15 Rh6 2.629712 1_565
Rh15 Rh3 2.629712 1_565
Rh15 Rh8 2.629712 1_455
Rh15 Rh5 2.629712 1_455
Rh15 Sm4 3.040298 1_565
Rh15 Sm4 3.040298 1_455
Rh15 Sm4 3.040301 1_465
Rh16 Rh4 2.697868 1_545
Rh16 Rh5 2.697908 1_445
Rh16 Rh3 2.697908 1_555
Rh16 Rh2 2.697908 1_555
Rh16 Sm3 3.127878 1_455
Rh16 Sm2 3.127878 1_545
Rh16 Sm2 3.127918 1_555
Rh16 Sm3 3.127918 1_555
Rh16 Sm3 3.127918 1_445
Rh16 Sm2 3.127918 1_445
Rh17 Rh7 2.697868 1_545
Rh17 Rh8 2.697908 1_445
Rh17 Rh6 2.697908 1_555
Rh17 Rh9 2.697908 1_444
Rh17 Sm1 3.127878 1_544
Rh17 Sm0 3.127878 1_455
Rh17 Sm1 3.127918 1_554
Rh17 Sm0 3.127918 1_555
Rh17 Sm0 3.127918 1_445
Rh17 Sm1 3.127918 1_444
