# generated using pymatgen
data_KPaO3
_symmetry_space_group_name_H-M   'P 1'
_cell_length_a   4.35600548
_cell_length_b   4.35600548
_cell_length_c   4.35600548
_cell_angle_alpha   90.00000000
_cell_angle_beta   90.00000000
_cell_angle_gamma   90.00000000
_symmetry_Int_Tables_number   1
_chemical_formula_structural   KPaO3
_chemical_formula_sum   'K1 Pa1 O3'
_cell_volume   82.65426196
_cell_formula_units_Z   1
loop_
 _symmetry_equiv_pos_site_id
 _symmetry_equiv_pos_as_xyz
  1  'x, y, z'
loop_
 _atom_site_type_symbol
 _atom_site_label
 _atom_site_symmetry_multiplicity
 _atom_site_fract_x
 _atom_site_fract_y
 _atom_site_fract_z
 _atom_site_occupancy
  K  K0  1  0.50000000  0.50000000  0.50000000  1
  Pa  Pa0  1  -0.00000000  -0.00000000  -0.00000000  1
  O  O0  1  0.50000000  0.00000000  -0.00000000  1
  O  O1  1  -0.00000000  0.50000000  -0.00000000  1
  O  O2  1  -0.00000000  -0.00000000  0.50000000  1
loop_
_geom_bond_atom_site_label_1
_geom_bond_atom_site_label_2
_geom_bond_distance
_geom_bond_site_symmetry_2
K0 O2 3.080161 1_665
K0 O0 3.080161 1_566
K0 O2 3.080161 1_565
K0 O1 3.080161 1_555
K0 O0 3.080161 1_555
K0 O1 3.080161 1_556
K0 O0 3.080161 1_565
K0 O2 3.080161 1_555
K0 O1 3.080161 1_656
K0 O1 3.080161 1_655
K0 O0 3.080161 1_556
K0 O2 3.080161 1_655
O0 Pa0 2.178003 1_655
O0 Pa0 2.178003 1_555
O1 Pa0 2.178003 1_565
O1 Pa0 2.178003 1_555
O2 Pa0 2.178003 1_555
O2 Pa0 2.178003 1_556
