# generated using pymatgen
data_LiYb(CuP)2
_symmetry_space_group_name_H-M   'P 1'
_cell_length_a   3.93269370
_cell_length_b   3.93269370
_cell_length_c   6.50038221
_cell_angle_alpha   90.00000000
_cell_angle_beta   90.00000000
_cell_angle_gamma   120.00000067
_symmetry_Int_Tables_number   1
_chemical_formula_structural   LiYb(CuP)2
_chemical_formula_sum   'Li1 Yb1 Cu2 P2'
_cell_volume   87.06623517
_cell_formula_units_Z   1
loop_
 _symmetry_equiv_pos_site_id
 _symmetry_equiv_pos_as_xyz
  1  'x, y, z'
loop_
 _atom_site_type_symbol
 _atom_site_label
 _atom_site_symmetry_multiplicity
 _atom_site_fract_x
 _atom_site_fract_y
 _atom_site_fract_z
 _atom_site_occupancy
  Li  Li0  1  0.00000000  0.00000000  0.50000000  1
  Yb  Yb0  1  0.00000000  0.00000000  0.00000000  1
  Cu  Cu0  1  0.33333300  0.66666700  0.32963289  1
  Cu  Cu1  1  0.66666700  0.33333300  0.67036711  1
  P  P0  1  0.33333300  0.66666700  0.74226292  1
  P  P1  1  0.66666700  0.33333300  0.25773708  1
loop_
_geom_bond_atom_site_label_1
_geom_bond_atom_site_label_2
_geom_bond_distance
_geom_bond_site_symmetry_2
Li0 P0 2.763214 1_545
Li0 P1 2.763214 1_455
Li0 P0 2.763216 1_555
Li0 P0 2.763216 1_445
Li0 P1 2.763216 1_555
Li0 P1 2.763216 1_445
Cu0 P1 2.318138 1_565
Cu0 P1 2.318138 1_455
Cu0 P1 2.318145 1_555
Cu0 Li0 2.526222 1_565
Cu0 Li0 2.526225 1_555
Cu0 Li0 2.526225 1_665
Cu0 P0 2.682253 1_555
Cu0 Yb0 3.121968 1_565
Cu0 Yb0 3.121970 1_555
Cu0 Yb0 3.121970 1_665
Cu1 P0 2.318138 1_545
Cu1 P0 2.318138 1_655
Cu1 P0 2.318145 1_555
Cu1 Li0 2.526222 1_655
Cu1 Li0 2.526225 1_555
Cu1 Li0 2.526225 1_665
Cu1 P1 2.682253 1_555
Cu1 Yb0 3.121968 1_656
Cu1 Yb0 3.121970 1_556
Cu1 Yb0 3.121970 1_666
P0 Yb0 2.821751 1_566
P0 Yb0 2.821754 1_556
P0 Yb0 2.821754 1_666
P1 Yb0 2.821751 1_655
P1 Yb0 2.821754 1_555
P1 Yb0 2.821754 1_665
