# generated using pymatgen
data_LiAg3(IrO3)2
_symmetry_space_group_name_H-M   'P 1'
_cell_length_a   5.33955120
_cell_length_b   5.34965241
_cell_length_c   6.63177971
_cell_angle_alpha   74.39820185
_cell_angle_beta   97.74296842
_cell_angle_gamma   120.06259917
_symmetry_Int_Tables_number   1
_chemical_formula_structural   LiAg3(IrO3)2
_chemical_formula_sum   'Li1 Ag3 Ir2 O6'
_cell_volume   157.91105605
_cell_formula_units_Z   1
loop_
 _symmetry_equiv_pos_site_id
 _symmetry_equiv_pos_as_xyz
  1  'x, y, z'
loop_
 _atom_site_type_symbol
 _atom_site_label
 _atom_site_symmetry_multiplicity
 _atom_site_fract_x
 _atom_site_fract_y
 _atom_site_fract_z
 _atom_site_occupancy
  Li  Li0  1  0.33333300  0.16666700  0.50000000  1
  Ag  Ag0  1  0.67244200  0.33622000  0.00000000  1
  Ag  Ag1  1  0.33333300  0.66666700  0.00000000  1
  Ag  Ag2  1  0.99422500  0.99711300  0.00000000  1
  Ir  Ir0  1  0.99968100  0.49984000  0.50000000  1
  Ir  Ir1  1  0.66698600  0.83349300  0.50000000  1
  O  O0  1  0.33333300  0.75785700  0.66494300  1
  O  O1  1  0.97964000  0.11243000  0.66401700  1
  O  O2  1  0.68702700  0.46612300  0.66401700  1
  O  O3  1  0.68702700  0.22090300  0.33598300  1
  O  O4  1  0.33333300  0.57547700  0.33505700  1
  O  O5  1  0.97964000  0.86721000  0.33598300  1
loop_
_geom_bond_atom_site_label_1
_geom_bond_atom_site_label_2
_geom_bond_distance
_geom_bond_site_symmetry_2
Li0 O1 2.160733 1_455
Li0 O2 2.160735 1_555
Li0 O5 2.160735 1_445
Li0 O3 2.160740 1_555
Li0 O0 2.166257 1_545
Li0 O4 2.166257 1_555
Ag0 O3 2.147872 1_555
Ag0 O2 2.147872 1_554
Ag1 O4 2.142965 1_555
Ag1 O0 2.142965 1_554
Ag2 O1 2.147872 1_564
Ag2 O5 2.147872 1_555
Ir0 O2 2.021079 1_555
Ir0 O3 2.021079 1_555
Ir0 O1 2.021498 1_555
Ir0 O5 2.021503 1_555
Ir0 O4 2.024597 1_655
Ir0 O0 2.024602 1_655
Ir1 O5 2.021079 1_555
Ir1 O1 2.021079 1_565
Ir1 O3 2.021498 1_565
Ir1 O2 2.021503 1_555
Ir1 O4 2.024602 1_555
Ir1 O0 2.024604 1_555
