# generated using pymatgen
data_SrHfMg6
_symmetry_space_group_name_H-M   'P 1'
_cell_length_a   4.75004400
_cell_length_b   8.96760000
_cell_length_c   9.56244800
_cell_angle_alpha   90.00000000
_cell_angle_beta   90.00000000
_cell_angle_gamma   90.00000000
_symmetry_Int_Tables_number   1
_chemical_formula_structural   SrHfMg6
_chemical_formula_sum   'Sr2 Hf2 Mg12'
_cell_volume   407.32676435
_cell_formula_units_Z   2
loop_
 _symmetry_equiv_pos_site_id
 _symmetry_equiv_pos_as_xyz
  1  'x, y, z'
loop_
 _atom_site_type_symbol
 _atom_site_label
 _atom_site_symmetry_multiplicity
 _atom_site_fract_x
 _atom_site_fract_y
 _atom_site_fract_z
 _atom_site_occupancy
  Sr  Sr0  1  0.00000000  0.00000000  0.12789000  1
  Sr  Sr1  1  0.00000000  0.50000000  0.62789000  1
  Hf  Hf0  1  0.00000000  0.00000000  0.62449100  1
  Hf  Hf1  1  0.00000000  0.50000000  0.12449100  1
  Mg  Mg0  1  0.00000000  0.25085600  0.37798400  1
  Mg  Mg1  1  0.00000000  0.74914400  0.37798400  1
  Mg  Mg2  1  0.50000000  0.22752500  0.62223400  1
  Mg  Mg3  1  0.50000000  0.77247500  0.62223400  1
  Mg  Mg4  1  0.50000000  0.00000000  0.39240000  1
  Mg  Mg5  1  0.50000000  0.00000000  0.85477900  1
  Mg  Mg6  1  0.00000000  0.75085600  0.87798400  1
  Mg  Mg7  1  0.00000000  0.24914400  0.87798400  1
  Mg  Mg8  1  0.50000000  0.72752500  0.12223400  1
  Mg  Mg9  1  0.50000000  0.27247500  0.12223400  1
  Mg  Mg10  1  0.50000000  0.50000000  0.89240000  1
  Mg  Mg11  1  0.50000000  0.50000000  0.35477900  1
loop_
_geom_bond_atom_site_label_1
_geom_bond_atom_site_label_2
_geom_bond_distance
_geom_bond_site_symmetry_2
Hf0 Mg3 3.131172 1_445
Hf0 Mg2 3.131172 1_455
Hf0 Mg2 3.131172 1_555
Hf0 Mg3 3.131172 1_545
Hf0 Mg5 3.238834 1_455
Hf0 Mg5 3.238834 1_555
Hf0 Mg4 3.250581 1_455
Hf0 Mg4 3.250581 1_555
Hf0 Mg1 3.258379 1_545
Hf0 Mg0 3.258379 1_555
Hf0 Mg6 3.296604 1_545
Hf0 Mg7 3.296604 1_555
Hf1 Mg9 3.131172 1_555
Hf1 Mg8 3.131172 1_455
Hf1 Mg8 3.131172 1_555
Hf1 Mg9 3.131172 1_455
Hf1 Mg11 3.238834 1_555
Hf1 Mg11 3.238834 1_455
Hf1 Mg10 3.250581 1_454
Hf1 Mg10 3.250581 1_554
Hf1 Mg6 3.258379 1_554
Hf1 Mg7 3.258379 1_554
Hf1 Mg0 3.296604 1_555
Hf1 Mg1 3.296604 1_555
Mg0 Mg11 3.268291 1_455
Mg0 Mg11 3.268291 1_555
Mg0 Sr1 3.271465 1_555
Mg0 Mg4 3.274191 1_555
Mg0 Mg4 3.274191 1_455
Mg0 Sr0 3.283278 1_555
Mg0 Mg2 3.337613 1_455
Mg0 Mg2 3.337613 1_555
Mg0 Mg9 3.414565 1_455
Mg0 Mg9 3.414565 1_555
Mg1 Mg11 3.268291 1_455
Mg1 Mg11 3.268291 1_555
Mg1 Sr1 3.271465 1_555
Mg1 Mg4 3.274191 1_565
Mg1 Mg4 3.274191 1_465
Mg1 Sr0 3.283278 1_565
Mg1 Mg3 3.337613 1_455
Mg1 Mg3 3.337613 1_555
Mg1 Mg8 3.414565 1_555
Mg1 Mg8 3.414565 1_455
Mg2 Mg4 2.998876 1_555
Mg2 Mg5 3.017927 1_555
Mg2 Sr1 3.407945 1_655
Mg2 Sr1 3.407945 1_555
Mg2 Mg7 3.414565 1_555
Mg2 Mg7 3.414565 1_655
Mg3 Mg4 2.998876 1_565
Mg3 Mg5 3.017927 1_565
Mg3 Sr1 3.407945 1_655
Mg3 Sr1 3.407945 1_555
Mg3 Mg6 3.414565 1_655
Mg3 Mg6 3.414565 1_555
Mg4 Sr0 3.469641 1_655
Mg4 Sr0 3.469641 1_555
Mg4 Mg8 3.555930 1_545
Mg4 Mg9 3.555930 1_555
Mg5 Mg6 3.268291 1_645
Mg5 Mg6 3.268291 1_545
Mg5 Mg7 3.268291 1_555
Mg5 Mg7 3.268291 1_655
Mg5 Sr0 3.530047 1_556
Mg5 Sr0 3.530047 1_656
Mg5 Mg8 3.537141 1_546
Mg5 Mg9 3.537141 1_556
Mg6 Sr0 3.271465 1_566
Mg6 Sr1 3.283278 1_555
Mg6 Mg8 3.337613 1_556
Mg6 Mg8 3.337613 1_456
Mg7 Sr0 3.271465 1_556
Mg7 Sr1 3.283278 1_555
Mg7 Mg9 3.337613 1_456
Mg7 Mg9 3.337613 1_556
Mg8 Sr0 3.407945 1_665
Mg8 Sr0 3.407945 1_565
Mg9 Sr0 3.407945 1_655
Mg9 Sr0 3.407945 1_555
Mg10 Mg8 2.998876 1_556
Mg10 Mg9 2.998876 1_556
Mg10 Mg6 3.274191 1_655
Mg10 Mg7 3.274191 1_555
Mg10 Mg7 3.274191 1_655
Mg10 Mg6 3.274191 1_555
Mg10 Sr1 3.469641 1_655
Mg10 Sr1 3.469641 1_555
Mg10 Mg2 3.555930 1_555
Mg10 Mg3 3.555930 1_555
Mg11 Mg9 3.017927 1_555
Mg11 Mg8 3.017927 1_555
Mg11 Sr1 3.530047 1_555
Mg11 Sr1 3.530047 1_655
Mg11 Mg2 3.537141 1_555
Mg11 Mg3 3.537141 1_555
