# generated using pymatgen
data_SiAg2
_symmetry_space_group_name_H-M   'P 1'
_cell_length_a   5.50729528
_cell_length_b   5.50729528
_cell_length_c   8.88637000
_cell_angle_alpha   90.00000000
_cell_angle_beta   90.00000000
_cell_angle_gamma   118.92173358
_symmetry_Int_Tables_number   1
_chemical_formula_structural   SiAg2
_chemical_formula_sum   'Si4 Ag8'
_cell_volume   235.91127077
_cell_formula_units_Z   4
loop_
 _symmetry_equiv_pos_site_id
 _symmetry_equiv_pos_as_xyz
  1  'x, y, z'
loop_
 _atom_site_type_symbol
 _atom_site_label
 _atom_site_symmetry_multiplicity
 _atom_site_fract_x
 _atom_site_fract_y
 _atom_site_fract_z
 _atom_site_occupancy
  Si  Si0  1  0.67249500  0.32750500  0.88889000  1
  Si  Si1  1  0.32750500  0.67249500  0.11111000  1
  Si  Si2  1  0.67249500  0.32750500  0.61111000  1
  Si  Si3  1  0.32750500  0.67249500  0.38889000  1
  Ag  Ag0  1  0.00000000  0.00000000  0.00000000  1
  Ag  Ag1  1  0.00000000  0.00000000  0.50000000  1
  Ag  Ag2  1  0.17633900  0.82366100  0.75000000  1
  Ag  Ag3  1  0.82366100  0.17633900  0.25000000  1
  Ag  Ag4  1  0.66609800  0.82148400  0.75000000  1
  Ag  Ag5  1  0.82148400  0.66609800  0.25000000  1
  Ag  Ag6  1  0.33390200  0.17851600  0.25000000  1
  Ag  Ag7  1  0.17851600  0.33390200  0.75000000  1
loop_
_geom_bond_atom_site_label_1
_geom_bond_atom_site_label_2
_geom_bond_distance
_geom_bond_site_symmetry_2
Si0 Si2 2.468456 1_555
Si1 Si3 2.468456 1_555
Ag0 Ag6 2.744983 1_555
Ag0 Ag7 2.744983 1_554
Ag0 Ag5 2.744983 1_445
Ag0 Ag4 2.744983 1_444
Ag0 Ag2 2.781001 1_544
Ag0 Ag3 2.781001 1_455
Ag1 Ag6 2.744983 1_555
Ag1 Ag7 2.744983 1_555
Ag1 Ag5 2.744983 1_445
Ag1 Ag4 2.744983 1_445
Ag1 Ag2 2.781001 1_545
Ag1 Ag3 2.781001 1_455
Ag2 Ag7 2.703066 1_555
Ag2 Ag4 2.703066 1_555
Ag2 Ag4 2.804269 1_455
Ag2 Ag7 2.804269 1_565
Ag2 Si2 3.058711 1_565
Ag2 Si0 3.058711 1_565
Ag2 Si0 3.058711 1_455
Ag2 Si2 3.058711 1_455
Ag3 Ag6 2.703066 1_555
Ag3 Ag5 2.703066 1_555
Ag3 Ag5 2.804269 1_545
Ag3 Ag6 2.804269 1_655
Ag3 Si1 3.058711 1_655
Ag3 Si1 3.058711 1_545
Ag3 Si3 3.058711 1_655
Ag3 Si3 3.058711 1_545
Ag4 Ag7 2.728903 1_555
Ag4 Ag7 2.867905 1_665
Ag4 Si2 3.003051 1_555
Ag4 Si0 3.003051 1_555
Ag4 Si2 3.032473 1_565
Ag4 Si0 3.032473 1_565
Ag5 Ag6 2.728903 1_555
Ag5 Ag6 2.867905 1_665
Ag5 Si1 3.003051 1_555
Ag5 Si3 3.003051 1_555
Ag5 Si3 3.032473 1_655
Ag5 Si1 3.032473 1_655
Ag6 Si1 3.003051 1_555
Ag6 Si3 3.003051 1_555
Ag6 Si1 3.032473 1_545
Ag6 Si3 3.032473 1_545
Ag7 Si2 3.003051 1_555
Ag7 Si0 3.003051 1_555
Ag7 Si2 3.032473 1_455
Ag7 Si0 3.032473 1_455
