# generated using pymatgen
data_Ta
_symmetry_space_group_name_H-M   'P 1'
_cell_length_a   4.98265589
_cell_length_b   4.98435733
_cell_length_c   8.20274664
_cell_angle_alpha   89.99973767
_cell_angle_beta   90.00012759
_cell_angle_gamma   120.01178832
_symmetry_Int_Tables_number   1
_chemical_formula_structural   Ta
_chemical_formula_sum   Ta8
_cell_volume   176.40398548
_cell_formula_units_Z   8
loop_
 _symmetry_equiv_pos_site_id
 _symmetry_equiv_pos_as_xyz
  1  'x, y, z'
loop_
 _atom_site_type_symbol
 _atom_site_label
 _atom_site_symmetry_multiplicity
 _atom_site_fract_x
 _atom_site_fract_y
 _atom_site_fract_z
 _atom_site_occupancy
  Ta  Ta0  1  0.00005837  0.32087967  0.24990085  1
  Ta  Ta1  1  0.67923441  0.67948670  0.24971596  1
  Ta  Ta2  1  0.32070144  0.00013062  0.25008130  1
  Ta  Ta3  1  0.00006119  0.67918186  0.75010075  1
  Ta  Ta4  1  0.32070070  0.32056800  0.74991765  1
  Ta  Ta5  1  0.67923906  0.99974922  0.75028368  1
  Ta  Ta6  1  0.33352920  0.66676579  0.49995315  1
  Ta  Ta7  1  0.66647463  0.33323714  0.00004666  1
loop_
_geom_bond_atom_site_label_1
_geom_bond_atom_site_label_2
_geom_bond_distance
_geom_bond_site_symmetry_2
Ta0 Ta7 2.658814 1_455
Ta0 Ta6 2.659803 1_555
Ta0 Ta1 2.768296 1_445
Ta0 Ta2 2.768313 1_555
Ta0 Ta1 2.931901 1_555
Ta0 Ta2 2.932669 1_455
Ta0 Ta2 2.933257 1_565
Ta0 Ta1 2.934040 1_455
Ta1 Ta7 2.658383 1_555
Ta1 Ta6 2.659922 1_555
Ta1 Ta2 2.767671 1_665
Ta1 Ta2 2.932879 1_565
Ta1 Ta2 2.933615 1_555
Ta2 Ta7 2.658924 1_555
Ta2 Ta6 2.659370 1_545
Ta3 Ta7 2.659395 1_456
Ta3 Ta6 2.660406 1_555
Ta3 Ta4 2.768266 1_565
Ta3 Ta5 2.768301 1_455
Ta3 Ta5 2.931911 1_555
Ta3 Ta4 2.932683 1_455
Ta3 Ta4 2.933289 1_555
Ta3 Ta5 2.934026 1_445
Ta4 Ta7 2.659527 1_556
Ta4 Ta6 2.659970 1_555
Ta4 Ta5 2.767648 1_445
Ta4 Ta5 2.932875 1_555
Ta4 Ta5 2.933643 1_545
Ta5 Ta7 2.658978 1_566
Ta5 Ta6 2.660512 1_555
