# generated using pymatgen
data_KNa4GeAs3
_symmetry_space_group_name_H-M   'P 1'
_cell_length_a   4.82358900
_cell_length_b   13.24266800
_cell_length_c   15.29391600
_cell_angle_alpha   90.00000000
_cell_angle_beta   90.00000000
_cell_angle_gamma   90.00000000
_symmetry_Int_Tables_number   1
_chemical_formula_structural   KNa4GeAs3
_chemical_formula_sum   'K4 Na16 Ge4 As12'
_cell_volume   976.93234293
_cell_formula_units_Z   4
loop_
 _symmetry_equiv_pos_site_id
 _symmetry_equiv_pos_as_xyz
  1  'x, y, z'
loop_
 _atom_site_type_symbol
 _atom_site_label
 _atom_site_symmetry_multiplicity
 _atom_site_fract_x
 _atom_site_fract_y
 _atom_site_fract_z
 _atom_site_occupancy
  K  K0  1  0.25000000  0.12861500  0.51646500  1
  K  K1  1  0.75000000  0.87138500  0.48353500  1
  K  K2  1  0.75000000  0.62861500  0.98353500  1
  K  K3  1  0.25000000  0.37138500  0.01646500  1
  Na  Na0  1  0.25000000  0.42800700  0.56227500  1
  Na  Na1  1  0.75000000  0.57199300  0.43772500  1
  Na  Na2  1  0.75000000  0.92800700  0.93772500  1
  Na  Na3  1  0.25000000  0.07199300  0.06227500  1
  Na  Na4  1  0.25000000  0.80973700  0.08071400  1
  Na  Na5  1  0.75000000  0.19026300  0.91928600  1
  Na  Na6  1  0.75000000  0.30973700  0.41928600  1
  Na  Na7  1  0.25000000  0.69026300  0.58071400  1
  Na  Na8  1  0.25000000  0.23726800  0.25589900  1
  Na  Na9  1  0.75000000  0.76273200  0.74410100  1
  Na  Na10  1  0.75000000  0.73726800  0.24410100  1
  Na  Na11  1  0.25000000  0.26273200  0.75589900  1
  Na  Na12  1  0.25000000  0.94062900  0.28724000  1
  Na  Na13  1  0.75000000  0.05937100  0.71276000  1
  Na  Na14  1  0.75000000  0.44062900  0.21276000  1
  Na  Na15  1  0.25000000  0.55937100  0.78724000  1
  Ge  Ge0  1  0.25000000  0.58434500  0.29400000  1
  Ge  Ge1  1  0.75000000  0.41565500  0.70600000  1
  Ge  Ge2  1  0.75000000  0.08434500  0.20600000  1
  Ge  Ge3  1  0.25000000  0.91565500  0.79400000  1
  As  As0  1  0.25000000  0.59137700  0.13965600  1
  As  As1  1  0.75000000  0.40862300  0.86034400  1
  As  As2  1  0.75000000  0.09137700  0.36034400  1
  As  As3  1  0.25000000  0.90862300  0.63965600  1
  As  As4  1  0.25000000  0.42417300  0.36580800  1
  As  As5  1  0.75000000  0.57582700  0.63419200  1
  As  As6  1  0.75000000  0.92417300  0.13419200  1
  As  As7  1  0.25000000  0.07582700  0.86580800  1
  As  As8  1  0.25000000  0.73215300  0.38274900  1
  As  As9  1  0.75000000  0.26784700  0.61725100  1
  As  As10  1  0.75000000  0.23215300  0.11725100  1
  As  As11  1  0.25000000  0.76784700  0.88274900  1
loop_
_geom_bond_atom_site_label_1
_geom_bond_atom_site_label_2
_geom_bond_distance
_geom_bond_site_symmetry_2
Ge0 Na10 3.240404 1_455
Ge0 Na10 3.240404 1_555
Ge0 Na1 3.267297 1_555
Ge0 Na1 3.267297 1_455
Ge0 Na14 3.314002 1_455
Ge0 Na14 3.314002 1_555
Ge1 Na11 3.240404 1_555
Ge1 Na11 3.240404 1_655
Ge1 Na0 3.267297 1_555
Ge1 Na0 3.267297 1_655
Ge1 Na15 3.314002 1_555
Ge1 Na15 3.314002 1_655
Ge2 Na8 3.240404 1_655
Ge2 Na8 3.240404 1_555
Ge2 Na3 3.267297 1_655
Ge2 Na3 3.267297 1_555
Ge2 Na12 3.314002 1_545
Ge2 Na12 3.314002 1_645
Ge3 Na9 3.240404 1_555
Ge3 Na9 3.240404 1_455
Ge3 Na2 3.267297 1_555
Ge3 Na2 3.267297 1_455
Ge3 Na13 3.314002 1_465
Ge3 Na13 3.314002 1_565
As0 Ge0 2.362360 1_555
As0 Na4 3.028922 1_555
As0 Na14 3.324457 1_455
As0 Na14 3.324457 1_555
As0 K2 3.429439 1_454
As0 K2 3.429439 1_554
As0 K3 3.469429 1_555
As0 Na10 3.478638 1_455
As0 Na10 3.478638 1_555
As1 Ge1 2.362360 1_555
As1 Na5 3.028922 1_555
As1 Na15 3.324457 1_655
As1 Na15 3.324457 1_555
As1 K3 3.429439 1_556
As1 K3 3.429439 1_656
As1 K2 3.469429 1_555
As1 Na11 3.478638 1_555
As1 Na11 3.478638 1_655
As2 Ge2 2.362360 1_555
As2 Na6 3.028922 1_555
As2 Na12 3.324457 1_645
As2 Na12 3.324457 1_545
As2 K0 3.429439 1_555
As2 K0 3.429439 1_655
As2 K1 3.469429 1_545
As2 Na8 3.478638 1_555
As2 Na8 3.478638 1_655
As3 Ge3 2.362360 1_555
As3 Na7 3.028922 1_555
As3 Na13 3.324457 1_465
As3 Na13 3.324457 1_565
As3 K1 3.429439 1_455
As3 K1 3.429439 1_555
As3 K0 3.469429 1_565
As3 Na9 3.478638 1_455
As3 Na9 3.478638 1_555
As4 Ge0 2.388553 1_555
As4 Na6 2.963485 1_555
As4 Na6 2.963485 1_455
As4 Na8 2.991952 1_555
As4 Na0 3.005179 1_555
As4 Na1 3.295215 1_555
As4 Na1 3.295215 1_455
As4 Na14 3.367957 1_455
As4 Na14 3.367957 1_555
As5 Ge1 2.388553 1_555
As5 Na7 2.963485 1_655
As5 Na7 2.963485 1_555
As5 Na9 2.991952 1_555
As5 Na1 3.005179 1_555
As5 Na0 3.295215 1_555
As5 Na0 3.295215 1_655
As5 Na15 3.367957 1_555
As5 Na15 3.367957 1_655
As6 Ge2 2.388553 1_565
As6 Na4 2.963485 1_555
As6 Na4 2.963485 1_655
As6 Na10 2.991952 1_555
As6 Na2 3.005179 1_554
As6 Na3 3.295215 1_565
As6 Na3 3.295215 1_665
As6 Na12 3.367957 1_655
As6 Na12 3.367957 1_555
As7 Ge3 2.388553 1_545
As7 Na5 2.963485 1_555
As7 Na5 2.963485 1_455
As7 Na11 2.991952 1_555
As7 Na3 3.005179 1_556
As7 Na2 3.295215 1_445
As7 Na2 3.295215 1_545
As7 Na13 3.367957 1_455
As7 Na13 3.367957 1_555
As8 Ge0 2.381937 1_555
As8 Na7 3.078061 1_555
As8 Na12 3.123389 1_555
As8 Na10 3.212124 1_455
As8 Na10 3.212124 1_555
As8 Na1 3.319956 1_555
As8 Na1 3.319956 1_455
As8 K1 3.404749 1_455
As8 K1 3.404749 1_555
As9 Ge1 2.381937 1_555
As9 Na6 3.078061 1_555
As9 Na13 3.123389 1_555
As9 Na11 3.212124 1_555
As9 Na11 3.212124 1_655
As9 Na0 3.319956 1_555
As9 Na0 3.319956 1_655
As9 K0 3.404749 1_555
As9 K0 3.404749 1_655
As10 Ge2 2.381937 1_555
As10 Na5 3.078061 1_554
As10 Na14 3.123389 1_555
As10 Na8 3.212124 1_555
As10 Na8 3.212124 1_655
As10 Na3 3.319956 1_655
As10 Na3 3.319956 1_555
As10 K3 3.404749 1_555
As10 K3 3.404749 1_655
As11 Ge3 2.381937 1_555
As11 Na4 3.078061 1_556
As11 Na15 3.123389 1_555
As11 Na9 3.212124 1_455
As11 Na9 3.212124 1_555
As11 Na2 3.319956 1_455
As11 Na2 3.319956 1_555
As11 K2 3.404749 1_455
As11 K2 3.404749 1_555
