# generated using pymatgen
data_Mg4Si3
_symmetry_space_group_name_H-M   'P 1'
_cell_length_a   6.36651800
_cell_length_b   7.08393272
_cell_length_c   12.41362627
_cell_angle_alpha   87.76306333
_cell_angle_beta   88.20609287
_cell_angle_gamma   78.83476838
_symmetry_Int_Tables_number   1
_chemical_formula_structural   Mg4Si3
_chemical_formula_sum   'Mg16 Si12'
_cell_volume   548.67831313
_cell_formula_units_Z   4
loop_
 _symmetry_equiv_pos_site_id
 _symmetry_equiv_pos_as_xyz
  1  'x, y, z'
loop_
 _atom_site_type_symbol
 _atom_site_label
 _atom_site_symmetry_multiplicity
 _atom_site_fract_x
 _atom_site_fract_y
 _atom_site_fract_z
 _atom_site_occupancy
  Mg  Mg0  1  0.67351300  0.06344900  0.06683800  1
  Mg  Mg1  1  0.62499800  0.58141500  0.10175900  1
  Mg  Mg2  1  0.09931900  0.17944100  0.60111500  1
  Mg  Mg3  1  0.09019700  0.44687400  0.80047300  1
  Mg  Mg4  1  0.10371300  0.05709500  0.16165600  1
  Mg  Mg5  1  0.08287400  0.64432600  0.06715800  1
  Mg  Mg6  1  0.58893500  0.13936800  0.56722300  1
  Mg  Mg7  1  0.38191200  0.74480300  0.63211100  1
  Mg  Mg8  1  0.29307800  0.10811200  0.37632200  1
  Mg  Mg9  1  0.37321300  0.69250000  0.30091300  1
  Mg  Mg10  1  0.86913700  0.12567300  0.82306800  1
  Mg  Mg11  1  0.84767000  0.78694700  0.67451700  1
  Mg  Mg12  1  0.99670800  0.48639100  0.31532200  1
  Mg  Mg13  1  0.71991800  0.19846000  0.31470600  1
  Mg  Mg14  1  0.53819600  0.50921700  0.86426100  1
  Mg  Mg15  1  0.42631100  0.06241500  0.79287200  1
  Si  Si0  1  0.70444200  0.83460900  0.42899700  1
  Si  Si1  1  0.26786200  0.48758600  0.48610800  1
  Si  Si2  1  0.35223000  0.87489600  0.98848000  1
  Si  Si3  1  0.91346200  0.32390100  0.99757900  1
  Si  Si4  1  0.36227300  0.33896800  0.18621900  1
  Si  Si5  1  0.78282300  0.81788700  0.23258400  1
  Si  Si6  1  0.74458400  0.42849300  0.66826800  1
  Si  Si7  1  0.16532200  0.79510700  0.83475800  1
  Si  Si8  1  0.65525200  0.49371600  0.47579200  1
  Si  Si9  1  0.06738600  0.85576400  0.47840200  1
  Si  Si10  1  0.29854500  0.26558600  0.99275000  1
  Si  Si11  1  0.75708000  0.80016400  0.90562100  1
loop_
_geom_bond_atom_site_label_1
_geom_bond_atom_site_label_2
_geom_bond_distance
_geom_bond_site_symmetry_2
Mg0 Si5 2.661781 1_545
Mg0 Si10 2.702957 1_554
Mg0 Si3 2.713388 1_554
Mg0 Si11 2.758117 1_544
Mg0 Si2 2.863251 1_544
Mg0 Si4 2.911376 1_555
Mg1 Si3 2.666652 1_554
Mg1 Si5 2.723887 1_555
Mg1 Si4 2.776491 1_555
Mg1 Si2 2.800326 1_554
Mg1 Si11 3.019684 1_554
Mg2 Si6 2.713279 1_455
Mg2 Si9 2.844612 1_545
Mg2 Si1 2.919329 1_555
Mg3 Si7 2.654604 1_555
Mg3 Si6 2.811686 1_455
Mg3 Si3 2.837709 1_455
Mg3 Si10 2.899141 1_555
Mg3 Si11 3.238991 1_455
Mg4 Si2 2.829022 1_544
Mg4 Si4 2.853368 1_555
Mg4 Si3 2.855731 1_454
Mg4 Si10 2.901922 1_554
Mg4 Si5 2.988635 1_445
Mg5 Si2 2.723565 1_554
Mg5 Si3 2.867253 1_454
Mg5 Si5 2.901679 1_455
Mg5 Si4 2.907329 1_555
Mg5 Si10 2.936695 1_554
Mg5 Si11 2.956819 1_454
Mg5 Si7 3.101772 1_554
Mg6 Si0 2.782301 1_545
Mg6 Si6 2.795460 1_555
Mg6 Si8 2.815224 1_555
Mg6 Si1 3.042923 1_555
Mg7 Si9 2.789437 1_555
Mg7 Si1 2.825733 1_555
Mg7 Si7 2.831798 1_555
Mg7 Si6 2.921689 1_555
Mg7 Si8 2.969318 1_555
Mg8 Si9 2.751336 1_545
Mg8 Si4 2.889658 1_555
Mg8 Si0 3.013888 1_545
Mg8 Si1 3.035543 1_555
Mg9 Si1 2.803951 1_555
Mg9 Si4 2.942122 1_555
Mg9 Si8 2.990996 1_555
Mg9 Si5 3.001457 1_555
Mg9 Si9 3.006878 1_555
Mg9 Si0 3.024143 1_555
Mg10 Si3 2.678365 1_555
Mg10 Si11 2.698720 1_545
Mg10 Si7 2.709410 1_645
Mg10 Si6 2.835134 1_555
Mg11 Si6 2.747467 1_555
Mg11 Si9 2.842425 1_655
Mg11 Si7 2.890693 1_655
Mg11 Si11 2.910000 1_555
Mg12 Si5 2.661674 1_555
Mg12 Si1 2.776891 1_655
Mg12 Si4 2.834005 1_655
Mg12 Si8 2.896525 1_555
Mg13 Si4 2.818681 1_555
Mg13 Si5 2.870303 1_545
Mg13 Si0 2.910364 1_545
Mg13 Si8 2.912781 1_555
Mg14 Si6 2.755068 1_555
Mg14 Si11 2.773656 1_555
Mg14 Si7 2.829440 1_555
Mg14 Si10 2.916009 1_555
Mg14 Si3 3.005583 1_555
Mg14 Si2 3.082158 1_555
Mg15 Si7 2.775698 1_545
Mg15 Si2 2.793264 1_545
Mg15 Si11 2.882932 1_545
Mg15 Si10 2.930618 1_555
Si0 Si9 2.442925 1_655
Si0 Si5 2.476153 1_555
Si0 Si8 2.537531 1_555
Si1 Si8 2.474331 1_555
Si1 Si9 2.672000 1_555
Si2 Si7 2.421511 1_555
Si6 Si8 2.478496 1_555
Si10 Si3 2.405261 1_455
Si10 Si4 2.538290 1_556
Si10 Si2 2.724580 1_545
Si11 Si2 2.707350 1_555
Si11 Si7 2.711747 1_655
