# generated using pymatgen
data_NaHoCl4
_symmetry_space_group_name_H-M   'P 1'
_cell_length_a   6.58079651
_cell_length_b   6.67967015
_cell_length_c   6.93938127
_cell_angle_alpha   89.26545389
_cell_angle_beta   87.98911364
_cell_angle_gamma   78.76782862
_symmetry_Int_Tables_number   1
_chemical_formula_structural   NaHoCl4
_chemical_formula_sum   'Na2 Ho2 Cl8'
_cell_volume   299.00565469
_cell_formula_units_Z   2
loop_
 _symmetry_equiv_pos_site_id
 _symmetry_equiv_pos_as_xyz
  1  'x, y, z'
loop_
 _atom_site_type_symbol
 _atom_site_label
 _atom_site_symmetry_multiplicity
 _atom_site_fract_x
 _atom_site_fract_y
 _atom_site_fract_z
 _atom_site_occupancy
  Na  Na0  1  0.23139758  0.19615374  0.53461854  1
  Na  Na1  1  0.76860242  0.80384626  0.46538146  1
  Ho  Ho0  1  0.78936811  0.30018392  0.05417266  1
  Ho  Ho1  1  0.21063189  0.69981608  0.94582734  1
  Cl  Cl0  1  0.61004837  0.20728646  0.36700804  1
  Cl  Cl1  1  0.38995163  0.79271354  0.63299196  1
  Cl  Cl2  1  0.09821960  0.00183380  0.20603955  1
  Cl  Cl3  1  0.90178040  0.99816620  0.79396045  1
  Cl  Cl4  1  0.04737221  0.50216445  0.24386280  1
  Cl  Cl5  1  0.95262779  0.49783555  0.75613720  1
  Cl  Cl6  1  0.56585970  0.68756208  0.11982535  1
  Cl  Cl7  1  0.43414030  0.31243792  0.88017465  1
loop_
_geom_bond_atom_site_label_1
_geom_bond_atom_site_label_2
_geom_bond_distance
_geom_bond_site_symmetry_2
Cl0 Ho0 2.561501 1_555
Cl0 Na0 2.726558 1_555
Cl0 Na1 2.779269 1_545
Cl1 Ho1 2.561501 1_555
Cl1 Na1 2.726558 1_555
Cl1 Na0 2.779269 1_565
Cl2 Ho1 2.701098 1_544
Cl2 Ho0 2.780598 1_455
Cl2 Na0 2.882916 1_555
Cl2 Na1 3.236596 1_445
Cl3 Ho0 2.701098 1_566
Cl3 Ho1 2.780598 1_655
Cl3 Na1 2.882916 1_555
Cl3 Na0 3.236596 1_665
Cl4 Ho1 2.738860 1_554
Cl4 Ho0 2.744179 1_455
Cl4 Na1 2.868902 1_455
Cl4 Na0 2.969361 1_555
Cl5 Ho0 2.738860 1_556
Cl5 Ho1 2.744179 1_655
Cl5 Na0 2.868902 1_655
Cl5 Na1 2.969361 1_555
Cl6 Ho1 2.655254 1_554
Cl6 Ho0 2.750813 1_555
Cl6 Na1 2.968095 1_555
Cl7 Ho0 2.655254 1_556
Cl7 Ho1 2.750813 1_555
Cl7 Na0 2.968095 1_555
