# generated using pymatgen
data_Rb2La10Co2I17
_symmetry_space_group_name_H-M   'P 1'
_cell_length_a   11.89987528
_cell_length_b   11.89987528
_cell_length_c   10.00550367
_cell_angle_alpha   86.74870007
_cell_angle_beta   86.74870007
_cell_angle_gamma   108.03863440
_symmetry_Int_Tables_number   1
_chemical_formula_structural   Rb2La10Co2I17
_chemical_formula_sum   'Rb2 La10 Co2 I17'
_cell_volume   1340.91658447
_cell_formula_units_Z   1
loop_
 _symmetry_equiv_pos_site_id
 _symmetry_equiv_pos_as_xyz
  1  'x, y, z'
loop_
 _atom_site_type_symbol
 _atom_site_label
 _atom_site_symmetry_multiplicity
 _atom_site_fract_x
 _atom_site_fract_y
 _atom_site_fract_z
 _atom_site_occupancy
  Rb  Rb0  1  0.67494000  0.32506000  0.50000000  1
  Rb  Rb1  1  0.32506000  0.67494000  0.50000000  1
  La  La0  1  0.70631700  0.00726800  0.92728200  1
  La  La1  1  0.29368300  0.99273200  0.07271800  1
  La  La2  1  0.99273200  0.29368300  0.07271800  1
  La  La3  1  0.00726800  0.70631700  0.92728200  1
  La  La4  1  0.67101200  0.67101200  0.05773200  1
  La  La5  1  0.32898800  0.32898800  0.94226800  1
  La  La6  1  0.93850300  0.93850300  0.16758000  1
  La  La7  1  0.06149700  0.06149700  0.83242000  1
  La  La8  1  0.79569900  0.79569900  0.68788600  1
  La  La9  1  0.20430100  0.20430100  0.31211400  1
  Co  Co0  1  0.85512600  0.85512600  0.92911300  1
  Co  Co1  1  0.14487400  0.14487400  0.07088700  1
  I  I0  1  0.61456600  0.94899300  0.63663400  1
  I  I1  1  0.38543400  0.05100700  0.36336600  1
  I  I2  1  0.05100700  0.38543400  0.36336600  1
  I  I3  1  0.94899300  0.61456600  0.63663400  1
  I  I4  1  0.52813100  0.18950900  0.91959700  1
  I  I5  1  0.47186900  0.81049100  0.08040300  1
  I  I6  1  0.81049100  0.47186900  0.08040300  1
  I  I7  1  0.18950900  0.52813100  0.91959700  1
  I  I8  1  0.56213600  0.56213600  0.78113600  1
  I  I9  1  0.43786400  0.43786400  0.21886400  1
  I  I10  1  0.24686100  0.89904200  0.77243900  1
  I  I11  1  0.75313900  0.10095800  0.22756100  1
  I  I12  1  0.10095800  0.75313900  0.22756100  1
  I  I13  1  0.89904200  0.24686100  0.77243900  1
  I  I14  1  0.28754200  0.28754200  0.62960000  1
  I  I15  1  0.71245800  0.71245800  0.37040000  1
  I  I16  1  0.00000000  0.00000000  0.50000000  1
loop_
_geom_bond_atom_site_label_1
_geom_bond_atom_site_label_2
_geom_bond_distance
_geom_bond_site_symmetry_2
Co0 La8 2.627383 1_555
Co0 La6 2.754837 1_556
Co0 La4 2.764781 1_556
Co0 La0 2.898163 1_565
Co0 La3 2.898163 1_655
Co0 La7 2.953600 1_665
Co1 La9 2.627383 1_555
Co1 La7 2.754837 1_554
Co1 La5 2.764781 1_554
Co1 La2 2.898163 1_455
Co1 La1 2.898163 1_545
Co1 La6 2.953600 1_445
I0 La0 3.201546 1_565
I0 La8 3.269709 1_555
I0 Rb1 4.295907 1_555
I1 La1 3.201546 1_545
I1 La9 3.269709 1_555
I1 Rb0 4.295907 1_555
I2 La2 3.201546 1_455
I2 La9 3.269709 1_555
I2 Rb1 4.295907 1_555
I3 La3 3.201546 1_655
I3 La8 3.269709 1_555
I3 Rb0 4.295907 1_555
I4 La1 3.267451 1_546
I4 La5 3.292396 1_555
I4 La0 3.471660 1_555
I5 La0 3.267451 1_564
I5 La4 3.292396 1_555
I5 La1 3.471660 1_555
I6 La3 3.267451 1_654
I6 La4 3.292396 1_555
I6 La2 3.471660 1_555
I7 La2 3.267451 1_456
I7 La5 3.292396 1_555
I7 La3 3.471660 1_555
I8 La4 3.284816 1_556
I8 La8 3.308755 1_555
I8 La5 3.494602 1_555
I9 La5 3.284816 1_554
I9 La9 3.308755 1_555
I9 La4 3.494602 1_555
I10 La1 3.281043 1_556
I10 La3 3.291693 1_555
I10 La7 3.403728 1_565
I10 Rb1 4.181136 1_555
I11 La0 3.281043 1_554
I11 La2 3.291693 1_555
I11 La6 3.403728 1_545
I11 Rb0 4.181136 1_555
I12 La3 3.281043 1_554
I12 La1 3.291693 1_555
I12 La6 3.403728 1_455
I12 Rb1 4.181136 1_555
I13 La2 3.281043 1_556
I13 La0 3.291693 1_555
I13 La7 3.403728 1_655
I13 Rb0 4.181136 1_555
I14 La5 3.236166 1_555
I14 La9 3.487035 1_555
I14 La7 3.587455 1_555
I15 La4 3.236166 1_555
I15 La8 3.487035 1_555
I15 La6 3.587455 1_555
I16 La9 3.264618 1_555
I16 La8 3.264618 1_445
I16 La7 3.514836 1_555
I16 La6 3.514836 1_445
