# generated using pymatgen
data_TiO2
_symmetry_space_group_name_H-M   'P 1'
_cell_length_a   6.02084859
_cell_length_b   6.02084859
_cell_length_c   14.78419600
_cell_angle_alpha   90.00000000
_cell_angle_beta   90.00000000
_cell_angle_gamma   120.00000647
_symmetry_Int_Tables_number   1
_chemical_formula_structural   TiO2
_chemical_formula_sum   'Ti12 O24'
_cell_volume   464.13436632
_cell_formula_units_Z   12
loop_
 _symmetry_equiv_pos_site_id
 _symmetry_equiv_pos_as_xyz
  1  'x, y, z'
loop_
 _atom_site_type_symbol
 _atom_site_label
 _atom_site_symmetry_multiplicity
 _atom_site_fract_x
 _atom_site_fract_y
 _atom_site_fract_z
 _atom_site_occupancy
  Ti  Ti0  1  0.97792100  0.48896100  0.16372600  1
  Ti  Ti1  1  0.17094700  0.82905300  0.49418400  1
  Ti  Ti2  1  0.33333300  0.66666700  0.31848000  1
  Ti  Ti3  1  0.51103900  0.02207900  0.16372600  1
  Ti  Ti4  1  0.65810600  0.82905300  0.49418400  1
  Ti  Ti5  1  0.51103900  0.48896100  0.16372600  1
  Ti  Ti6  1  0.00000000  0.00000000  0.65236200  1
  Ti  Ti7  1  0.17094700  0.34189400  0.49418400  1
  Ti  Ti8  1  0.32310800  0.16155400  0.83130300  1
  Ti  Ti9  1  0.83844600  0.67689200  0.83130300  1
  Ti  Ti10  1  0.83844600  0.16155400  0.83130300  1
  Ti  Ti11  1  0.33333300  0.66666700  0.95525000  1
  O  O0  1  0.35697100  0.17848500  0.10430100  1
  O  O1  1  0.82151500  0.64302900  0.10430100  1
  O  O2  1  0.66666700  0.33333300  0.23778200  1
  O  O3  1  0.82151500  0.17848500  0.10430100  1
  O  O4  1  0.03778000  0.51889000  0.42688100  1
  O  O5  1  0.19106800  0.80893200  0.24591700  1
  O  O6  1  0.33333300  0.66666700  0.08277300  1
  O  O7  1  0.19106800  0.38213600  0.24591700  1
  O  O8  1  0.48111000  0.96222000  0.42688100  1
  O  O9  1  0.33333300  0.66666700  0.56658000  1
  O  O10  1  0.48111000  0.51889000  0.42688100  1
  O  O11  1  0.61786400  0.80893200  0.24591700  1
  O  O12  1  0.71319100  0.85659500  0.75937400  1
  O  O13  1  0.85544100  0.14455900  0.58002300  1
  O  O14  1  0.00000000  0.00000000  0.43459800  1
  O  O15  1  0.85544100  0.71088200  0.58002300  1
  O  O16  1  0.00000000  0.00000000  0.90288500  1
  O  O17  1  0.14340500  0.28680900  0.75937400  1
  O  O18  1  0.14340500  0.85659500  0.75937400  1
  O  O19  1  0.28911800  0.14455900  0.58002300  1
  O  O20  1  0.49440100  0.50559900  0.90349900  1
  O  O21  1  0.49440100  0.98880200  0.90349900  1
  O  O22  1  0.66666700  0.33333300  0.77568500  1
  O  O23  1  0.01119800  0.50559900  0.90349900  1
loop_
_geom_bond_atom_site_label_1
_geom_bond_atom_site_label_2
_geom_bond_distance
_geom_bond_site_symmetry_2
O0 Ti3 1.841918 1_555
O0 Ti5 1.841927 1_555
O1 Ti0 1.841918 1_555
O1 Ti5 1.841927 1_555
O2 Ti0 1.957718 1_555
O2 Ti3 1.957718 1_555
O2 Ti5 1.957727 1_555
O3 Ti0 1.841927 1_555
O3 Ti3 1.841927 1_555
O4 Ti1 1.903415 1_555
O4 Ti7 1.903415 1_555
O4 Ti2 2.223355 1_555
O5 Ti2 1.830829 1_555
O5 Ti3 2.088666 1_565
O5 Ti0 2.088666 1_455
O6 Ti11 1.885325 1_554
O6 Ti3 2.206062 1_565
O6 Ti0 2.206062 1_455
O6 Ti5 2.206062 1_555
O7 Ti2 1.830833 1_555
O7 Ti5 2.088666 1_555
O7 Ti0 2.088670 1_455
O8 Ti1 1.903415 1_555
O8 Ti4 1.903415 1_555
O8 Ti2 2.223355 1_555
O9 Ti1 2.003317 1_555
O9 Ti4 2.003321 1_555
O9 Ti7 2.003321 1_555
O10 Ti4 1.903414 1_555
O10 Ti7 1.903414 1_555
O10 Ti2 2.223359 1_555
O11 Ti2 1.830833 1_555
O11 Ti5 2.088666 1_555
O11 Ti3 2.088670 1_565
O12 Ti9 1.919942 1_555
O12 Ti10 1.919946 1_565
O12 Ti6 2.177031 1_665
O13 Ti6 1.848349 1_655
O13 Ti7 2.091341 1_655
O13 Ti4 2.091341 1_545
O14 Ti7 1.988487 1_555
O14 Ti4 1.988487 1_445
O14 Ti1 1.988487 1_545
O15 Ti6 1.848349 1_665
O15 Ti1 2.091341 1_655
O15 Ti4 2.091342 1_555
O16 Ti8 1.989561 1_555
O16 Ti9 1.989561 1_445
O16 Ti10 1.989561 1_455
O17 Ti8 1.919942 1_555
O17 Ti10 1.919946 1_455
O17 Ti6 2.177031 1_555
O18 Ti8 1.919946 1_565
O18 Ti9 1.919946 1_455
O18 Ti6 2.177034 1_565
O19 Ti6 1.848349 1_555
O19 Ti1 2.091341 1_545
O19 Ti7 2.091342 1_555
O20 Ti11 1.845728 1_555
O20 Ti9 2.087446 1_555
O20 Ti8 2.087446 1_555
O21 Ti11 1.845723 1_555
O21 Ti10 2.087446 1_565
O21 Ti8 2.087447 1_565
O22 Ti10 1.971085 1_555
O22 Ti9 1.971090 1_555
O22 Ti8 1.971090 1_555
O23 Ti11 1.845723 1_555
O23 Ti10 2.087446 1_455
O23 Ti9 2.087447 1_455
