# generated using pymatgen
data_Nd5Ir2
_symmetry_space_group_name_H-M   'P 1'
_cell_length_a   6.71978370
_cell_length_b   7.29768774
_cell_length_c   8.95732569
_cell_angle_alpha   96.03094437
_cell_angle_beta   112.03049024
_cell_angle_gamma   90.00000000
_symmetry_Int_Tables_number   1
_chemical_formula_structural   Nd5Ir2
_chemical_formula_sum   'Nd10 Ir4'
_cell_volume   404.56075563
_cell_formula_units_Z   2
loop_
 _symmetry_equiv_pos_site_id
 _symmetry_equiv_pos_as_xyz
  1  'x, y, z'
loop_
 _atom_site_type_symbol
 _atom_site_label
 _atom_site_symmetry_multiplicity
 _atom_site_fract_x
 _atom_site_fract_y
 _atom_site_fract_z
 _atom_site_occupancy
  Nd  Nd0  1  0.98002597  0.91793461  0.18507394  1
  Nd  Nd1  1  0.79495203  0.58206539  0.81492606  1
  Nd  Nd2  1  0.01997403  0.08206539  0.81492606  1
  Nd  Nd3  1  0.20504797  0.41793461  0.18507394  1
  Nd  Nd4  1  0.65003410  0.81846361  0.43501529  1
  Nd  Nd5  1  0.21501981  0.68153639  0.56498471  1
  Nd  Nd6  1  0.34996590  0.18153639  0.56498471  1
  Nd  Nd7  1  0.78498019  0.31846361  0.43501529  1
  Nd  Nd8  1  0.43272620  0.75000000  0.00000000  1
  Nd  Nd9  1  0.56727380  0.25000000  -0.00000000  1
  Ir  Ir0  1  0.82343011  0.57412270  0.22272449  1
  Ir  Ir1  1  0.60070662  0.92587730  0.77727551  1
  Ir  Ir2  1  0.17656989  0.42587730  0.77727551  1
  Ir  Ir3  1  0.39929338  0.07412270  0.22272449  1
loop_
_geom_bond_atom_site_label_1
_geom_bond_atom_site_label_2
_geom_bond_distance
_geom_bond_site_symmetry_2
Ir0 Nd0 2.821406 1_555
Ir0 Nd7 2.877095 1_555
Ir0 Nd3 2.925240 1_655
Ir0 Nd9 2.995006 1_555
Ir0 Nd4 3.017085 1_555
Ir0 Nd8 3.021437 1_555
Ir0 Nd5 3.221876 1_655
Ir0 Nd1 3.592060 1_554
Ir1 Nd1 2.821403 1_555
Ir1 Nd6 2.877095 1_565
Ir1 Nd2 2.925233 1_665
Ir1 Nd9 2.995009 1_566
Ir1 Nd5 3.017085 1_555
Ir1 Nd8 3.021441 1_556
Ir1 Nd4 3.221870 1_555
Ir1 Nd0 3.592057 1_556
Ir2 Nd2 2.821406 1_555
Ir2 Nd5 2.877095 1_555
Ir2 Nd1 2.925240 1_455
Ir2 Nd8 2.995006 1_556
Ir2 Nd6 3.017085 1_555
Ir2 Nd9 3.021437 1_556
Ir2 Nd7 3.221876 1_455
Ir2 Nd3 3.592060 1_556
Ir3 Nd3 2.821403 1_555
Ir3 Nd4 2.877095 1_545
Ir3 Nd0 2.925233 1_445
Ir3 Nd8 2.995009 1_545
Ir3 Nd7 3.017085 1_555
Ir3 Nd9 3.021441 1_555
Ir3 Nd6 3.221870 1_555
Ir3 Nd2 3.592057 1_554
