# generated using pymatgen
data_Rb2Na4Co2O5
_symmetry_space_group_name_H-M   'P 1'
_cell_length_a   6.52680500
_cell_length_b   6.52680500
_cell_length_c   10.34603200
_cell_angle_alpha   90.00000000
_cell_angle_beta   90.00000000
_cell_angle_gamma   90.00000000
_symmetry_Int_Tables_number   1
_chemical_formula_structural   Rb2Na4Co2O5
_chemical_formula_sum   'Rb4 Na8 Co4 O10'
_cell_volume   440.73251575
_cell_formula_units_Z   2
loop_
 _symmetry_equiv_pos_site_id
 _symmetry_equiv_pos_as_xyz
  1  'x, y, z'
loop_
 _atom_site_type_symbol
 _atom_site_label
 _atom_site_symmetry_multiplicity
 _atom_site_fract_x
 _atom_site_fract_y
 _atom_site_fract_z
 _atom_site_occupancy
  Rb  Rb0  1  0.30359800  0.30359800  0.00000000  1
  Rb  Rb1  1  0.19640200  0.80359800  0.50000000  1
  Rb  Rb2  1  0.80359800  0.19640200  0.50000000  1
  Rb  Rb3  1  0.69640200  0.69640200  0.00000000  1
  Na  Na0  1  0.00000000  0.50000000  0.75000000  1
  Na  Na1  1  0.50000000  0.00000000  0.75000000  1
  Na  Na2  1  0.00000000  0.00000000  0.77746500  1
  Na  Na3  1  0.50000000  0.00000000  0.25000000  1
  Na  Na4  1  0.50000000  0.50000000  0.27746500  1
  Na  Na5  1  0.50000000  0.50000000  0.72253500  1
  Na  Na6  1  0.00000000  0.00000000  0.22253500  1
  Na  Na7  1  0.00000000  0.50000000  0.25000000  1
  Co  Co0  1  0.71002600  0.71002600  0.50000000  1
  Co  Co1  1  0.78997400  0.21002600  0.00000000  1
  Co  Co2  1  0.21002600  0.78997400  0.00000000  1
  Co  Co3  1  0.28997400  0.28997400  0.50000000  1
  O  O0  1  0.50000000  0.50000000  0.50000000  1
  O  O1  1  0.00000000  0.00000000  0.00000000  1
  O  O2  1  0.71835300  0.28164700  0.83572900  1
  O  O3  1  0.28164700  0.71835300  0.83572900  1
  O  O4  1  0.21835300  0.21835300  0.33572900  1
  O  O5  1  0.78164700  0.78164700  0.66427100  1
  O  O6  1  0.21835300  0.21835300  0.66427100  1
  O  O7  1  0.71835300  0.28164700  0.16427100  1
  O  O8  1  0.78164700  0.78164700  0.33572900  1
  O  O9  1  0.28164700  0.71835300  0.16427100  1
loop_
_geom_bond_atom_site_label_1
_geom_bond_atom_site_label_2
_geom_bond_distance
_geom_bond_site_symmetry_2
Na0 O2 2.489361 1_455
Na0 O3 2.489361 1_555
Na0 O6 2.489361 1_555
Na0 O5 2.489361 1_455
Na1 O2 2.489361 1_555
Na1 O3 2.489361 1_545
Na1 O6 2.489361 1_555
Na1 O5 2.489361 1_545
Na2 O1 2.302354 1_556
Na2 O5 2.331005 1_445
Na2 O6 2.331005 1_555
Na2 O2 2.668657 1_455
Na2 O3 2.668657 1_545
Na3 O8 2.489361 1_545
Na3 O9 2.489361 1_545
Na3 O7 2.489361 1_555
Na3 O4 2.489361 1_555
Na4 O0 2.302354 1_555
Na4 O7 2.331005 1_555
Na4 O9 2.331005 1_555
Na4 O4 2.668657 1_555
Na4 O8 2.668657 1_555
Na5 O0 2.302354 1_555
Na5 O2 2.331005 1_555
Na5 O3 2.331005 1_555
Na5 O6 2.668657 1_555
Na5 O5 2.668657 1_555
Na6 O1 2.302354 1_555
Na6 O4 2.331005 1_555
Na6 O8 2.331005 1_445
Na6 O7 2.668657 1_455
Na6 O9 2.668657 1_545
Na7 O9 2.489361 1_555
Na7 O7 2.489361 1_455
Na7 O8 2.489361 1_455
Na7 O4 2.489361 1_555
Co0 O5 1.823598 1_555
Co0 O8 1.823598 1_555
Co0 O0 1.938602 1_555
Co1 O7 1.823598 1_555
Co1 O2 1.823598 1_554
Co1 O1 1.938602 1_655
Co2 O9 1.823598 1_555
Co2 O3 1.823598 1_554
Co2 O1 1.938602 1_565
Co3 O6 1.823598 1_555
Co3 O4 1.823598 1_555
Co3 O0 1.938602 1_555
O0 Rb1 2.802299 1_555
O0 Rb2 2.802299 1_555
O1 Rb3 2.802299 1_445
O1 Rb0 2.802299 1_555
