# generated using pymatgen
data_P6(Pb2O5)5
_symmetry_space_group_name_H-M   'P 1'
_cell_length_a   10.03031560
_cell_length_b   10.03031560
_cell_length_c   7.49571200
_cell_angle_alpha   90.00000000
_cell_angle_beta   90.00000000
_cell_angle_gamma   119.99999735
_symmetry_Int_Tables_number   1
_chemical_formula_structural   P6(Pb2O5)5
_chemical_formula_sum   'P6 Pb10 O25'
_cell_volume   653.08954466
_cell_formula_units_Z   1
loop_
 _symmetry_equiv_pos_site_id
 _symmetry_equiv_pos_as_xyz
  1  'x, y, z'
loop_
 _atom_site_type_symbol
 _atom_site_label
 _atom_site_symmetry_multiplicity
 _atom_site_fract_x
 _atom_site_fract_y
 _atom_site_fract_z
 _atom_site_occupancy
  P  P0  1  0.69535200  0.73732800  0.75064500  1
  P  P1  1  0.26267200  0.95802400  0.75064500  1
  P  P2  1  0.04197600  0.30464800  0.75064500  1
  P  P3  1  0.63850100  0.93640100  0.25090700  1
  P  P4  1  0.06359900  0.70210000  0.25090700  1
  P  P5  1  0.29790000  0.36149900  0.25090700  1
  Pb  Pb0  1  0.00000000  0.00000000  0.50483000  1
  Pb  Pb1  1  0.33333300  0.66666700  0.98858900  1
  Pb  Pb2  1  0.33333300  0.66666700  0.50930600  1
  Pb  Pb3  1  0.00000000  0.00000000  0.99499100  1
  Pb  Pb4  1  0.89078500  0.56012100  0.73069300  1
  Pb  Pb5  1  0.43987900  0.33066300  0.73069300  1
  Pb  Pb6  1  0.66933700  0.10921500  0.73069300  1
  Pb  Pb7  1  0.40951700  0.06978100  0.24479800  1
  Pb  Pb8  1  0.93021900  0.33973700  0.24479800  1
  Pb  Pb9  1  0.66026300  0.59048300  0.24479800  1
  O  O0  1  0.74302200  0.67980500  0.58111500  1
  O  O1  1  0.32019500  0.06321700  0.58111500  1
  O  O2  1  0.93678300  0.25697800  0.58111500  1
  O  O3  1  0.57531100  0.98239700  0.08650600  1
  O  O4  1  0.01760300  0.59291400  0.08650600  1
  O  O5  1  0.40708600  0.42468900  0.08650600  1
  O  O6  1  0.57746800  0.98103800  0.41954700  1
  O  O7  1  0.01896200  0.59642900  0.41954700  1
  O  O8  1  0.40357100  0.42253200  0.41954700  1
  O  O9  1  0.73613500  0.67128200  0.91724100  1
  O  O10  1  0.32871800  0.06485300  0.91724100  1
  O  O11  1  0.93514700  0.26386500  0.91724100  1
  O  O12  1  0.52068900  0.68433500  0.74729300  1
  O  O13  1  0.31566500  0.83635400  0.74729300  1
  O  O14  1  0.16364600  0.47931100  0.74729300  1
  O  O15  1  0.81548000  0.01123000  0.25054500  1
  O  O16  1  0.98877000  0.80424900  0.25054500  1
  O  O17  1  0.19575100  0.18452000  0.25054500  1
  O  O18  1  0.79448800  0.91712800  0.75449400  1
  O  O19  1  0.08287200  0.87736000  0.75449400  1
  O  O20  1  0.12264000  0.20551200  0.75449400  1
  O  O21  1  0.56155500  0.75490300  0.24999900  1
  O  O22  1  0.24509700  0.80665200  0.24999900  1
  O  O23  1  0.19334800  0.43844500  0.24999900  1
  O  O24  1  0.66666700  0.33333300  0.68515600  1
loop_
_geom_bond_atom_site_label_1
_geom_bond_atom_site_label_2
_geom_bond_distance
_geom_bond_site_symmetry_2
O0 P0 1.565950 1_555
O0 Pb4 2.583423 1_555
O0 Pb9 2.665175 1_555
O1 P1 1.565950 1_545
O1 Pb5 2.583415 1_555
O1 Pb7 2.665173 1_555
O2 P2 1.565950 1_655
O2 Pb6 2.583415 1_555
O2 Pb8 2.665177 1_555
O3 P3 1.557419 1_555
O3 Pb7 2.529638 1_565
O4 P4 1.557419 1_555
O4 Pb8 2.529630 1_455
O5 P5 1.557419 1_555
O5 Pb9 2.529632 1_555
O6 P3 1.564352 1_555
O6 Pb6 2.599378 1_565
O6 Pb7 2.616381 1_565
O7 P4 1.564358 1_555
O7 Pb4 2.599378 1_455
O7 Pb8 2.616365 1_455
O8 P5 1.564357 1_555
O8 Pb5 2.599378 1_555
O8 Pb9 2.616368 1_555
O9 P0 1.560953 1_555
O9 Pb9 2.578288 1_556
O9 Pb4 2.708169 1_555
O10 P1 1.560953 1_545
O10 Pb7 2.578286 1_556
O10 Pb5 2.708161 1_555
O11 P2 1.560953 1_655
O11 Pb8 2.578290 1_556
O11 Pb6 2.708162 1_555
O12 P0 1.556018 1_555
O12 Pb2 2.532223 1_555
O12 Pb1 2.549757 1_555
O13 P1 1.556018 1_555
O13 Pb2 2.532216 1_555
O13 Pb1 2.549750 1_555
O14 P2 1.556018 1_555
O14 Pb2 2.532220 1_555
O14 Pb1 2.549754 1_555
O15 P3 1.543426 1_545
O15 Pb0 2.698076 1_655
O15 Pb3 2.704804 1_654
O16 P4 1.543417 1_655
O16 Pb0 2.698083 1_665
O16 Pb3 2.704811 1_664
O17 P5 1.543425 1_555
O17 Pb0 2.698080 1_555
O17 Pb3 2.704808 1_554
O18 P0 1.564845 1_555
O18 Pb3 2.544870 1_665
O18 Pb0 2.593998 1_665
O18 Pb6 2.781789 1_565
O19 P1 1.564845 1_555
O19 Pb3 2.544870 1_565
O19 Pb0 2.593998 1_565
O19 Pb4 2.781797 1_455
O20 P2 1.564845 1_555
O20 Pb3 2.544870 1_555
O20 Pb0 2.593998 1_555
O20 Pb5 2.781798 1_555
O21 P3 1.582666 1_555
O21 Pb9 2.309629 1_555
O21 Pb2 2.788442 1_555
O21 Pb1 2.799453 1_554
O22 P4 1.582666 1_555
O22 Pb7 2.309637 1_565
O22 Pb2 2.788435 1_555
O22 Pb1 2.799446 1_554
O23 P5 1.582666 1_555
O23 Pb8 2.309638 1_455
O23 Pb2 2.788441 1_555
O23 Pb1 2.799452 1_554
O24 Pb6 2.287098 1_555
O24 Pb5 2.287098 1_555
O24 Pb4 2.287098 1_555
