# generated using pymatgen
data_SrNi2(PO4)2
_symmetry_space_group_name_H-M   'P 1'
_cell_length_a   5.51209346
_cell_length_b   6.88775992
_cell_length_c   9.26204231
_cell_angle_alpha   111.28778344
_cell_angle_beta   100.98888871
_cell_angle_gamma   98.11348967
_symmetry_Int_Tables_number   1
_chemical_formula_structural   SrNi2(PO4)2
_chemical_formula_sum   'Sr2 Ni4 P4 O16'
_cell_volume   313.02189555
_cell_formula_units_Z   2
loop_
 _symmetry_equiv_pos_site_id
 _symmetry_equiv_pos_as_xyz
  1  'x, y, z'
loop_
 _atom_site_type_symbol
 _atom_site_label
 _atom_site_symmetry_multiplicity
 _atom_site_fract_x
 _atom_site_fract_y
 _atom_site_fract_z
 _atom_site_occupancy
  Sr  Sr0  1  0.24108300  0.19950800  0.44685800  1
  Sr  Sr1  1  0.75891800  0.80049100  0.55314200  1
  Ni  Ni0  1  0.51176200  0.60374200  0.83953800  1
  Ni  Ni1  1  0.14184700  0.85624500  0.06119300  1
  Ni  Ni2  1  0.85815300  0.14375400  0.93880600  1
  Ni  Ni3  1  0.48823800  0.39625900  0.16046200  1
  P  P0  1  0.89167000  0.42873100  0.74214700  1
  P  P1  1  0.10833000  0.57126900  0.25785300  1
  P  P2  1  0.34658100  0.02646700  0.80572600  1
  P  P3  1  0.65341900  0.97353300  0.19427400  1
  O  O0  1  0.66316000  0.45364100  0.62553100  1
  O  O1  1  0.33684000  0.54635900  0.37446800  1
  O  O2  1  0.24677200  0.00977700  0.63558400  1
  O  O3  1  0.75322900  0.99022300  0.36441600  1
  O  O4  1  0.14649800  0.48269000  0.70181300  1
  O  O5  1  0.85350300  0.51731000  0.29818700  1
  O  O6  1  0.84291700  0.20072800  0.73711400  1
  O  O7  1  0.15708400  0.79927200  0.26288600  1
  O  O8  1  0.54504100  0.88034500  0.80313500  1
  O  O9  1  0.45495900  0.11965500  0.19686500  1
  O  O10  1  0.11869900  0.40420700  0.09137200  1
  O  O11  1  0.88130100  0.59579300  0.90862800  1
  O  O12  1  0.49198600  0.74484100  0.07040700  1
  O  O13  1  0.12168500  0.95363700  0.86903700  1
  O  O14  1  0.87831500  0.04636300  0.13096300  1
  O  O15  1  0.50801500  0.25515900  0.92959300  1
loop_
_geom_bond_atom_site_label_1
_geom_bond_atom_site_label_2
_geom_bond_distance
_geom_bond_site_symmetry_2
Ni0 O11 2.030167 1_555
Ni0 O12 2.034358 1_556
Ni0 O4 2.037350 1_555
Ni0 O8 2.041660 1_555
Ni0 O0 2.253964 1_555
Ni1 O11 1.983921 1_454
Ni1 O7 2.032873 1_555
Ni1 O13 2.107700 1_554
Ni1 O9 2.117400 1_565
Ni1 O14 2.126685 1_465
Ni1 O12 2.173417 1_555
Ni2 O10 1.983927 1_656
Ni2 O6 2.032869 1_555
Ni2 O14 2.107704 1_556
Ni2 O8 2.117395 1_545
Ni2 O13 2.126679 1_645
Ni2 O15 2.173415 1_555
Ni3 O10 2.030165 1_555
Ni3 O15 2.034361 1_554
Ni3 O5 2.037354 1_555
Ni3 O9 2.041667 1_555
Ni3 O1 2.253955 1_555
O0 P0 1.568271 1_555
O0 Sr0 2.548460 1_555
O0 Sr1 2.716169 1_555
O1 P1 1.568265 1_555
O1 Sr1 2.548464 1_555
O1 Sr0 2.716181 1_555
O2 P2 1.522931 1_555
O2 Sr0 2.532498 1_555
O2 Sr1 2.686268 1_445
O3 P3 1.522932 1_555
O3 Sr1 2.532503 1_555
O3 Sr0 2.686266 1_665
O4 P0 1.550547 1_455
O4 Sr0 2.657911 1_555
O5 P1 1.550542 1_655
O5 Sr1 2.657908 1_555
O6 P0 1.537395 1_555
O6 Sr1 2.577906 1_545
O7 P1 1.537395 1_555
O7 Sr0 2.577901 1_565
O8 P2 1.585387 1_565
O8 Sr1 2.711570 1_555
O9 P3 1.585387 1_545
O9 Sr0 2.711567 1_555
O10 P1 1.571240 1_555
O11 P0 1.571240 1_555
O12 P3 1.578665 1_555
O13 P2 1.564417 1_565
O13 Sr1 2.933399 1_455
O14 P3 1.564417 1_545
O14 Sr0 2.933403 1_655
O15 P2 1.578667 1_555
