# generated using pymatgen
data_Mg4Si3
_symmetry_space_group_name_H-M   'P 1'
_cell_length_a   6.23604400
_cell_length_b   7.30616776
_cell_length_c   12.55681156
_cell_angle_alpha   95.83850191
_cell_angle_beta   93.70979867
_cell_angle_gamma   105.92575214
_symmetry_Int_Tables_number   1
_chemical_formula_structural   Mg4Si3
_chemical_formula_sum   'Mg16 Si12'
_cell_volume   544.72480769
_cell_formula_units_Z   4
loop_
 _symmetry_equiv_pos_site_id
 _symmetry_equiv_pos_as_xyz
  1  'x, y, z'
loop_
 _atom_site_type_symbol
 _atom_site_label
 _atom_site_symmetry_multiplicity
 _atom_site_fract_x
 _atom_site_fract_y
 _atom_site_fract_z
 _atom_site_occupancy
  Mg  Mg0  1  0.61943000  0.96500800  0.94957200  1
  Mg  Mg1  1  0.81340700  0.62092700  0.89964500  1
  Mg  Mg2  1  0.98218800  0.77536700  0.38837500  1
  Mg  Mg3  1  0.26114700  0.45706400  0.24666800  1
  Mg  Mg4  1  0.07849500  0.11072900  0.03857400  1
  Mg  Mg5  1  0.04689300  0.32545000  0.83372600  1
  Mg  Mg6  1  0.52392400  0.88913300  0.35551900  1
  Mg  Mg7  1  0.44545500  0.28715800  0.44415500  1
  Mg  Mg8  1  0.30545800  0.90389500  0.62088800  1
  Mg  Mg9  1  0.43826900  0.53681600  0.69228300  1
  Mg  Mg10  1  0.77983400  0.72730200  0.15009700  1
  Mg  Mg11  1  0.94298800  0.26290800  0.40637800  1
  Mg  Mg12  1  0.92935600  0.52129500  0.62097200  1
  Mg  Mg13  1  0.85696200  0.92054100  0.74102900  1
  Mg  Mg14  1  0.57076400  0.32813100  0.04419200  1
  Mg  Mg15  1  0.31095000  0.84248800  0.12862400  1
  Si  Si0  1  0.71867500  0.09826700  0.56742300  1
  Si  Si1  1  0.27361700  0.60322400  0.46494000  1
  Si  Si2  1  0.31294200  0.09937600  0.84780700  1
  Si  Si3  1  0.05670400  0.48032800  0.05269500  1
  Si  Si4  1  0.20211300  0.74999500  0.80675500  1
  Si  Si5  1  0.62608100  0.23846700  0.74939000  1
  Si  Si6  1  0.69272100  0.41700800  0.27209600  1
  Si  Si7  1  0.09456700  0.05190000  0.25361200  1
  Si  Si8  1  0.66904900  0.73684500  0.53456300  1
  Si  Si9  1  0.11868400  0.19599700  0.61048500  1
  Si  Si10  1  0.38372000  0.60517900  0.95349400  1
  Si  Si11  1  0.72656100  0.10603700  0.19017500  1
loop_
_geom_bond_atom_site_label_1
_geom_bond_atom_site_label_2
_geom_bond_distance
_geom_bond_site_symmetry_2
Mg0 Si10 2.643776 1_555
Mg0 Si2 2.686723 1_565
Mg0 Si4 3.005949 1_555
Mg0 Si11 3.059968 1_566
Mg1 Si4 2.731426 1_655
Mg1 Si10 2.780561 1_555
Mg1 Si3 2.816055 1_656
Mg1 Si5 3.095703 1_555
Mg2 Si1 2.661430 1_655
Mg2 Si7 2.740193 1_665
Mg2 Si8 2.743982 1_555
Mg2 Si6 2.921127 1_555
Mg3 Si3 2.718116 1_555
Mg3 Si6 2.787619 1_555
Mg3 Si1 2.826618 1_555
Mg3 Si7 2.868130 1_555
Mg4 Si3 2.729265 1_555
Mg4 Si7 2.776790 1_555
Mg4 Si2 2.891674 1_554
Mg4 Si11 2.992356 1_455
Mg5 Si5 2.645755 1_455
Mg5 Si2 2.652812 1_555
Mg5 Si10 2.731421 1_555
Mg5 Si3 2.855077 1_556
Mg5 Si9 2.967869 1_555
Mg5 Si4 3.046515 1_555
Mg6 Si1 2.785658 1_555
Mg6 Si8 2.812424 1_555
Mg6 Si11 2.885953 1_565
Mg6 Si0 2.937005 1_565
Mg7 Si1 2.796522 1_555
Mg7 Si6 2.826804 1_555
Mg7 Si0 2.930381 1_555
Mg7 Si9 3.007849 1_555
Mg7 Si7 3.144648 1_555
Mg7 Si8 3.248029 1_555
Mg8 Si9 2.707283 1_565
Mg8 Si4 2.730861 1_555
Mg8 Si0 2.741742 1_565
Mg8 Si1 2.744971 1_555
Mg8 Si5 2.945246 1_565
Mg8 Si2 3.046180 1_565
Mg8 Si8 3.061552 1_555
Mg9 Si9 2.778253 1_555
Mg9 Si4 2.781725 1_555
Mg9 Si8 2.816499 1_555
Mg9 Si5 2.871891 1_555
Mg9 Si1 3.100788 1_555
Mg10 Si7 2.766646 1_665
Mg10 Si6 2.814223 1_555
Mg10 Si11 2.874592 1_565
Mg10 Si3 3.044159 1_655
Mg11 Si7 2.717097 1_655
Mg11 Si0 2.725904 1_555
Mg11 Si6 2.748892 1_555
Mg11 Si1 2.755452 1_655
Mg11 Si9 2.862433 1_655
Mg11 Si11 2.923922 1_555
Mg12 Si8 2.795551 1_555
Mg12 Si4 2.874203 1_655
Mg12 Si9 2.925110 1_655
Mg12 Si1 2.980533 1_655
Mg12 Si0 2.994197 1_555
Mg12 Si5 3.061839 1_555
Mg13 Si8 2.816322 1_555
Mg13 Si0 2.851145 1_565
Mg13 Si4 2.884029 1_655
Mg13 Si9 2.935285 1_665
Mg13 Si2 2.949879 1_665
Mg13 Si5 3.047092 1_565
Mg14 Si11 2.859540 1_555
Mg14 Si6 2.873836 1_555
Mg14 Si10 2.889216 1_554
Mg14 Si3 2.918155 1_655
Mg14 Si2 2.938212 1_554
Mg15 Si3 2.722681 1_555
Mg15 Si7 2.746522 1_565
Mg15 Si11 2.778772 1_565
Mg15 Si10 2.798785 1_554
Si0 Si9 2.407087 1_655
Si0 Si8 2.559725 1_545
Si0 Si5 2.573458 1_555
Si1 Si8 2.454475 1_555
Si2 Si5 2.419073 1_555
Si2 Si4 2.444864 1_545
Si10 Si3 2.466060 1_556
Si10 Si4 2.565405 1_555
Si11 Si6 2.465851 1_555
Si11 Si7 2.526503 1_655
