# generated using pymatgen
data_Be2BH3O5
_symmetry_space_group_name_H-M   'P 1'
_cell_length_a   4.41713532
_cell_length_b   4.43574167
_cell_length_c   5.27555646
_cell_angle_alpha   92.43461318
_cell_angle_beta   89.13916789
_cell_angle_gamma   119.89439418
_symmetry_Int_Tables_number   1
_chemical_formula_structural   Be2BH3O5
_chemical_formula_sum   'Be2 B1 H3 O5'
_cell_volume   89.52903373
_cell_formula_units_Z   1
loop_
 _symmetry_equiv_pos_site_id
 _symmetry_equiv_pos_as_xyz
  1  'x, y, z'
loop_
 _atom_site_type_symbol
 _atom_site_label
 _atom_site_symmetry_multiplicity
 _atom_site_fract_x
 _atom_site_fract_y
 _atom_site_fract_z
 _atom_site_occupancy
  Be  Be0  1  0.32733398  0.65773866  0.39293784  1
  Be  Be1  1  0.66675465  0.33593894  0.59954031  1
  B  B0  1  0.99693872  0.99648114  0.50149938  1
  H  H0  1  0.54272765  0.46543386  0.99146298  1
  H  H1  1  0.92490004  0.46894629  0.99023968  1
  H  H2  1  0.43053186  0.86429714  0.01692037  1
  O  O0  1  0.67895147  0.35580507  0.91389305  1
  O  O1  1  0.30707805  0.99708989  0.50566512  1
  O  O2  1  0.68802892  0.68727196  0.49935437  1
  O  O3  1  0.99688926  0.30502192  0.49959954  1
  O  O4  1  0.31146738  0.63457613  0.08806735  1
loop_
_geom_bond_atom_site_label_1
_geom_bond_atom_site_label_2
_geom_bond_distance
_geom_bond_site_symmetry_2
Be0 O4 1.607627 1_555
Be0 O3 1.633621 1_455
Be0 O2 1.638086 1_555
Be0 O1 1.638329 1_555
Be1 O3 1.610399 1_555
Be1 O1 1.615113 1_545
Be1 O2 1.624614 1_555
Be1 O0 1.657241 1_555
B0 O1 1.369089 1_655
B0 O3 1.369178 1_565
B0 O2 1.369966 1_555
H0 O0 1.016548 1_555
H0 O4 1.606845 1_556
H1 O0 1.023146 1_555
H1 O4 1.570199 1_656
H2 O4 0.973740 1_555
