# generated using pymatgen
data_ZnWO2
_symmetry_space_group_name_H-M   'P 1'
_cell_length_a   3.25740100
_cell_length_b   8.28741570
_cell_length_c   9.61441319
_cell_angle_alpha   65.23223389
_cell_angle_beta   88.91211249
_cell_angle_gamma   89.03324091
_symmetry_Int_Tables_number   1
_chemical_formula_structural   ZnWO2
_chemical_formula_sum   'Zn4 W4 O8'
_cell_volume   235.61671786
_cell_formula_units_Z   4
loop_
 _symmetry_equiv_pos_site_id
 _symmetry_equiv_pos_as_xyz
  1  'x, y, z'
loop_
 _atom_site_type_symbol
 _atom_site_label
 _atom_site_symmetry_multiplicity
 _atom_site_fract_x
 _atom_site_fract_y
 _atom_site_fract_z
 _atom_site_occupancy
  Zn  Zn0  1  0.77729100  0.09379000  0.64503400  1
  Zn  Zn1  1  0.22270900  0.90621000  0.35496600  1
  Zn  Zn2  1  0.71483200  0.16968000  0.30240100  1
  Zn  Zn3  1  0.28516800  0.83032000  0.69759900  1
  W  W0  1  0.75242500  0.54989900  0.63195000  1
  W  W1  1  0.24877200  0.18910900  0.96764700  1
  W  W2  1  0.75122800  0.81089100  0.03235300  1
  W  W3  1  0.24757500  0.45010100  0.36805000  1
  O  O0  1  0.77718500  0.57673900  0.22004400  1
  O  O1  1  0.28686500  0.75113100  0.92992900  1
  O  O2  1  0.71313500  0.24886900  0.07007100  1
  O  O3  1  0.22281500  0.42326100  0.77995600  1
  O  O4  1  0.25731200  0.64437800  0.46433000  1
  O  O5  1  0.75922600  0.08371500  0.87816200  1
  O  O6  1  0.74268800  0.35562200  0.53567000  1
  O  O7  1  0.24077400  0.91628500  0.12183800  1
loop_
_geom_bond_atom_site_label_1
_geom_bond_atom_site_label_2
_geom_bond_distance
_geom_bond_site_symmetry_2
O0 W2 2.023690 1_555
O0 W3 2.061881 1_655
O0 W3 2.195237 1_555
O1 W2 1.998372 1_556
O1 Zn3 2.047507 1_555
O1 W2 2.138577 1_456
O2 W1 1.998372 1_554
O2 Zn2 2.047507 1_555
O2 W1 2.138577 1_654
O3 W1 2.023690 1_555
O3 W0 2.061881 1_455
O3 W0 2.195237 1_555
O4 Zn1 1.977712 1_555
O4 W3 2.168355 1_555
O4 W0 2.191012 1_455
O4 W0 2.193193 1_555
O5 W2 2.121927 1_546
O5 W1 2.185117 1_655
O5 W1 2.189556 1_555
O5 Zn0 2.207399 1_555
O6 Zn0 1.977712 1_555
O6 W0 2.168355 1_555
O6 W3 2.191012 1_655
O6 W3 2.193193 1_555
O7 W1 2.121927 1_564
O7 W2 2.185117 1_455
O7 W2 2.189556 1_555
O7 Zn1 2.207399 1_555
