# generated using pymatgen
data_Li2CrCo3O8
_symmetry_space_group_name_H-M   'P 1'
_cell_length_a   8.14808810
_cell_length_b   8.16646949
_cell_length_c   8.14868256
_cell_angle_alpha   89.71910236
_cell_angle_beta   90.21332284
_cell_angle_gamma   89.85123673
_symmetry_Int_Tables_number   1
_chemical_formula_structural   Li2CrCo3O8
_chemical_formula_sum   'Li8 Cr4 Co12 O32'
_cell_volume   542.21027810
_cell_formula_units_Z   4
loop_
 _symmetry_equiv_pos_site_id
 _symmetry_equiv_pos_as_xyz
  1  'x, y, z'
loop_
 _atom_site_type_symbol
 _atom_site_label
 _atom_site_symmetry_multiplicity
 _atom_site_fract_x
 _atom_site_fract_y
 _atom_site_fract_z
 _atom_site_occupancy
  Li  Li0  1  0.00025500  0.00110400  0.99918000  1
  Li  Li1  1  0.24670800  0.24991100  0.25172500  1
  Li  Li2  1  0.24990400  0.75081000  0.74919700  1
  Li  Li3  1  0.50027600  0.99920700  0.50085400  1
  Li  Li4  1  0.50190200  0.49849900  0.99646600  1
  Li  Li5  1  0.74920900  0.25119900  0.75158500  1
  Li  Li6  1  0.75141100  0.74943700  0.25318100  1
  Li  Li7  1  0.99998800  0.49934000  0.49829900  1
  Cr  Cr0  1  0.12385500  0.87683200  0.37480800  1
  Cr  Cr1  1  0.37204900  0.12624900  0.87437100  1
  Cr  Cr2  1  0.62511500  0.62539600  0.62412200  1
  Cr  Cr3  1  0.87364100  0.37562800  0.12575000  1
  Co  Co0  1  0.12039900  0.12759000  0.62431200  1
  Co  Co1  1  0.12582100  0.37988600  0.87142000  1
  Co  Co2  1  0.13044100  0.62461000  0.12129400  1
  Co  Co3  1  0.37133700  0.37558000  0.62041600  1
  Co  Co4  1  0.37644400  0.61999700  0.36905800  1
  Co  Co5  1  0.37977300  0.87013600  0.12580500  1
  Co  Co6  1  0.62124300  0.37190200  0.37413900  1
  Co  Co7  1  0.62439800  0.12179400  0.12990600  1
  Co  Co8  1  0.62929400  0.87425600  0.87920000  1
  Co  Co9  1  0.86952700  0.12447700  0.38010700  1
  Co  Co10  1  0.87602200  0.87960900  0.62900500  1
  Co  Co11  1  0.87966400  0.62958100  0.87592200  1
  O  O0  1  0.10425500  0.11854800  0.39026100  1
  O  O1  1  0.10739900  0.89228600  0.61923800  1
  O  O2  1  0.11294500  0.61564500  0.88854000  1
  O  O3  1  0.14031100  0.14258100  0.86347700  1
  O  O4  1  0.11794900  0.39476100  0.10807100  1
  O  O5  1  0.14027000  0.36404200  0.63709700  1
  O  O6  1  0.14119700  0.62842100  0.34951300  1
  O  O7  1  0.14921100  0.85602600  0.12545000  1
  O  O8  1  0.36020600  0.14131200  0.63684200  1
  O  O9  1  0.36261200  0.36294500  0.85527000  1
  O  O10  1  0.36510800  0.63666600  0.13461800  1
  O  O11  1  0.37812500  0.60550600  0.60566600  1
  O  O12  1  0.37190700  0.85436900  0.35375200  1
  O  O13  1  0.38891800  0.38552100  0.38609400  1
  O  O14  1  0.39061300  0.10808700  0.11590600  1
  O  O15  1  0.39027200  0.88834400  0.89236400  1
  O  O16  1  0.60423700  0.37962300  0.60618600  1
  O  O17  1  0.61178900  0.60425800  0.38037700  1
  O  O18  1  0.61113100  0.88806700  0.11593900  1
  O  O19  1  0.62719400  0.35388000  0.14317000  1
  O  O20  1  0.61146700  0.11067800  0.89603700  1
  O  O21  1  0.63305800  0.13777900  0.36054700  1
  O  O22  1  0.64316500  0.87093200  0.64518300  1
  O  O23  1  0.64716400  0.64025600  0.86979200  1
  O  O24  1  0.85067200  0.36025900  0.37244800  1
  O  O25  1  0.85457500  0.12953100  0.14165200  1
  O  O26  1  0.86287200  0.86154800  0.86389300  1
  O  O27  1  0.88064100  0.89027100  0.39702300  1
  O  O28  1  0.87188400  0.64579200  0.64380600  1
  O  O29  1  0.88501400  0.11053600  0.61479400  1
  O  O30  1  0.89053100  0.39819200  0.87999400  1
  O  O31  1  0.89463000  0.62044400  0.10701700  1
loop_
_geom_bond_atom_site_label_1
_geom_bond_atom_site_label_2
_geom_bond_distance
_geom_bond_site_symmetry_2
Li0 O26 1.943453 1_445
Li0 O3 1.965629 1_555
Li0 O25 1.967876 1_456
Li0 O7 1.976553 1_546
Li1 O0 1.943410 1_555
Li1 O13 1.943479 1_555
Li1 O4 1.959871 1_555
Li1 O14 1.989063 1_555
Li2 O2 1.938193 1_555
Li2 O1 1.943311 1_555
Li2 O11 1.970734 1_555
Li2 O15 1.984998 1_555
Li3 O21 1.939388 1_565
Li3 O22 1.951276 1_555
Li3 O8 1.972919 1_565
Li3 O12 1.985178 1_555
Li4 O10 1.948870 1_556
Li4 O23 1.952198 1_555
Li4 O19 1.958810 1_556
Li4 O9 1.961283 1_555
Li5 O29 1.949778 1_555
Li5 O16 1.967230 1_555
Li5 O30 1.967830 1_555
Li5 O20 1.991321 1_555
Li6 O17 1.943689 1_555
Li6 O18 1.951975 1_555
Li6 O27 1.953386 1_555
Li6 O31 1.976446 1_555
Li7 O5 1.943735 1_655
Li7 O24 1.957359 1_555
Li7 O6 1.977154 1_655
Li7 O28 1.985555 1_555
Cr0 O0 1.984655 1_565
Cr0 O27 1.993440 1_455
Cr0 O1 2.001367 1_555
Cr0 O12 2.036934 1_555
Cr0 O6 2.044667 1_555
Cr0 O7 2.051015 1_555
Cr1 O3 1.894302 1_555
Cr1 O9 1.939769 1_555
Cr1 O8 1.940877 1_555
Cr1 O15 1.952878 1_545
Cr1 O20 1.961857 1_555
Cr1 O14 1.978247 1_556
Cr2 O17 1.997107 1_555
Cr2 O23 2.013547 1_555
Cr2 O22 2.019029 1_555
Cr2 O16 2.020694 1_555
Cr2 O28 2.023850 1_555
Cr2 O11 2.024556 1_555
Cr3 O4 2.002837 1_655
Cr3 O31 2.012128 1_555
Cr3 O30 2.015395 1_554
Cr3 O25 2.019706 1_555
Cr3 O19 2.021824 1_555
Cr3 O24 2.022965 1_555
Co0 O0 1.913050 1_555
Co0 O29 1.924651 1_455
Co0 O1 1.925433 1_545
Co0 O5 1.941447 1_555
Co0 O3 1.959472 1_555
Co0 O8 1.959780 1_555
Co1 O5 1.918468 1_555
Co1 O30 1.924151 1_455
Co1 O2 1.933653 1_555
Co1 O4 1.934102 1_556
Co1 O9 1.938995 1_555
Co1 O3 1.942641 1_555
Co2 O6 1.861839 1_555
Co2 O4 1.883666 1_555
Co2 O7 1.896883 1_555
Co2 O2 1.903240 1_554
Co2 O10 1.917576 1_555
Co2 O31 1.924894 1_455
Co3 O11 1.881908 1_555
Co3 O5 1.890719 1_555
Co3 O16 1.902022 1_555
Co3 O13 1.916653 1_555
Co3 O9 1.917618 1_555
Co3 O8 1.919567 1_555
Co4 O10 1.916422 1_555
Co4 O12 1.917693 1_555
Co4 O13 1.921587 1_555
Co4 O17 1.923421 1_555
Co4 O6 1.923852 1_555
Co4 O11 1.931088 1_555
Co5 O12 1.862648 1_555
Co5 O7 1.882461 1_555
Co5 O18 1.893159 1_555
Co5 O15 1.909565 1_554
Co5 O10 1.911691 1_555
Co5 O14 1.946745 1_565
Co6 O24 1.871683 1_555
Co6 O19 1.889350 1_555
Co6 O16 1.897806 1_555
Co6 O13 1.898871 1_555
Co6 O17 1.899828 1_555
Co6 O21 1.917895 1_555
Co7 O25 1.878830 1_555
Co7 O21 1.885658 1_555
Co7 O19 1.899122 1_555
Co7 O20 1.910858 1_554
Co7 O14 1.911493 1_555
Co7 O18 1.915980 1_545
Co8 O26 1.910346 1_555
Co8 O22 1.911018 1_555
Co8 O23 1.918045 1_555
Co8 O18 1.939140 1_556
Co8 O20 1.941376 1_565
Co8 O15 1.954046 1_555
Co9 O0 1.914542 1_655
Co9 O27 1.918802 1_545
Co9 O29 1.918884 1_555
Co9 O24 1.931913 1_555
Co9 O21 1.935486 1_555
Co9 O25 1.946686 1_555
Co10 O1 1.890339 1_655
Co10 O29 1.890471 1_565
Co10 O27 1.892444 1_555
Co10 O22 1.903882 1_555
Co10 O28 1.913067 1_555
Co10 O26 1.922389 1_555
Co11 O31 1.887708 1_556
Co11 O30 1.891598 1_555
Co11 O28 1.896232 1_555
Co11 O23 1.896670 1_555
Co11 O26 1.900955 1_555
Co11 O2 1.906266 1_655
