# generated using pymatgen
data_Li4Si2NiO7
_symmetry_space_group_name_H-M   'P 1'
_cell_length_a   6.77698993
_cell_length_b   9.62007065
_cell_length_c   9.01927017
_cell_angle_alpha   90.21746944
_cell_angle_beta   90.58307928
_cell_angle_gamma   79.95786725
_symmetry_Int_Tables_number   1
_chemical_formula_structural   Li4Si2NiO7
_chemical_formula_sum   'Li16 Si8 Ni4 O28'
_cell_volume   578.97274530
_cell_formula_units_Z   4
loop_
 _symmetry_equiv_pos_site_id
 _symmetry_equiv_pos_as_xyz
  1  'x, y, z'
loop_
 _atom_site_type_symbol
 _atom_site_label
 _atom_site_symmetry_multiplicity
 _atom_site_fract_x
 _atom_site_fract_y
 _atom_site_fract_z
 _atom_site_occupancy
  Li  Li0  1  0.44324000  0.85139000  0.49026900  1
  Li  Li1  1  0.44151100  0.35258500  0.24360600  1
  Li  Li2  1  0.43293700  0.85380500  0.99292800  1
  Li  Li3  1  0.43754500  0.35240200  0.74051300  1
  Li  Li4  1  0.56695000  0.64877900  0.24041700  1
  Li  Li5  1  0.55791800  0.14996900  0.99121000  1
  Li  Li6  1  0.56250700  0.64849800  0.74347900  1
  Li  Li7  1  0.56913600  0.14719400  0.49353400  1
  Li  Li8  1  0.14756100  0.78774500  0.24133900  1
  Li  Li9  1  0.14784200  0.28794000  0.99757800  1
  Li  Li10  1  0.14205100  0.78584700  0.75037800  1
  Li  Li11  1  0.14676200  0.28472600  0.49703500  1
  Li  Li12  1  0.85321300  0.70929900  0.49691900  1
  Li  Li13  1  0.85460500  0.21211900  0.25248800  1
  Li  Li14  1  0.85469700  0.71232600  0.99604500  1
  Li  Li15  1  0.84941600  0.20958700  0.74335600  1
  Si  Si0  1  0.71583700  0.92664700  0.25379400  1
  Si  Si1  1  0.71192500  0.42437100  0.00629900  1
  Si  Si2  1  0.70539500  0.92462400  0.75593500  1
  Si  Si3  1  0.70916100  0.42797300  0.50705800  1
  Si  Si4  1  0.28652200  0.57786100  0.50286600  1
  Si  Si5  1  0.29337400  0.07628800  0.25626400  1
  Si  Si6  1  0.28945900  0.57409200  0.00338300  1
  Si  Si7  1  0.28288700  0.07443900  0.75377000  1
  Ni  Ni0  1  0.00663200  0.48834000  0.74971600  1
  Ni  Ni1  1  0.00970500  0.98511900  0.49987600  1
  Ni  Ni2  1  0.00679000  0.49139200  0.24987300  1
  Ni  Ni3  1  0.99173500  0.01211200  0.99996100  1
  O  O0  1  0.49951600  0.50426100  0.40895300  1
  O  O1  1  0.50301700  0.00326400  0.15887500  1
  O  O2  1  0.50084100  0.49880200  0.90862500  1
  O  O3  1  0.49361000  0.99902600  0.65878400  1
  O  O4  1  0.23194900  0.94824200  0.35654800  1
  O  O5  1  0.22964500  0.44785500  0.10768600  1
  O  O6  1  0.21887500  0.95071600  0.86048600  1
  O  O7  1  0.22651200  0.45025400  0.60509100  1
  O  O8  1  0.77514300  0.55287200  0.61271400  1
  O  O9  1  0.78093700  0.05105500  0.36111000  1
  O  O10  1  0.77817800  0.55077500  0.10963400  1
  O  O11  1  0.76705800  0.05334900  0.85721200  1
  O  O12  1  0.89171600  0.87296100  0.13142600  1
  O  O13  1  0.88780400  0.36546100  0.88617200  1
  O  O14  1  0.88264500  0.86748300  0.63651700  1
  O  O15  1  0.88634900  0.37092000  0.38747000  1
  O  O16  1  0.10812200  0.63252700  0.38052300  1
  O  O17  1  0.11391400  0.13483600  0.13677900  1
  O  O18  1  0.10969600  0.62737200  0.88183100  1
  O  O19  1  0.10450700  0.12869800  0.63118800  1
  O  O20  1  0.66161600  0.79665000  0.34984400  1
  O  O21  1  0.65888700  0.29472900  0.10425800  1
  O  O22  1  0.65156000  0.79682000  0.85506300  1
  O  O23  1  0.65409400  0.29835300  0.60303200  1
  O  O24  1  0.33850400  0.70845500  0.60144800  1
  O  O25  1  0.34719100  0.20599400  0.35514500  1
  O  O26  1  0.34427800  0.70413400  0.10045900  1
  O  O27  1  0.33651900  0.20666700  0.84923700  1
loop_
_geom_bond_atom_site_label_1
_geom_bond_atom_site_label_2
_geom_bond_distance
_geom_bond_site_symmetry_2
Li0 O24 1.940464 1_555
Li0 O20 1.957781 1_555
Li0 O4 1.970074 1_555
Li0 O3 2.141463 1_555
Li1 O25 1.935859 1_555
Li1 O21 1.950893 1_555
Li1 O5 1.979432 1_555
Li1 O0 2.163143 1_555
Li2 O26 1.923264 1_556
Li2 O22 1.947021 1_555
Li2 O6 1.975375 1_555
Li2 O1 2.177237 1_566
Li3 O23 1.930708 1_555
Li3 O27 1.937717 1_555
Li3 O7 1.981669 1_555
Li3 O2 2.155871 1_555
Li4 O20 1.924572 1_555
Li4 O26 1.959676 1_555
Li4 O10 1.970959 1_555
Li4 O0 2.168890 1_555
Li5 O21 1.937655 1_556
Li5 O27 1.967031 1_555
Li5 O11 1.974926 1_555
Li5 O1 2.151234 1_556
Li6 O22 1.920959 1_555
Li6 O8 1.969234 1_555
Li6 O24 1.984661 1_555
Li6 O2 2.169316 1_555
Li7 O23 1.921179 1_555
Li7 O25 1.952101 1_555
Li7 O9 1.976290 1_555
Li7 O3 2.191161 1_545
Li8 O26 1.921334 1_555
Li8 O16 2.009285 1_555
Li8 O4 2.018509 1_555
Li8 O12 2.033849 1_455
Li9 O27 1.927317 1_555
Li9 O5 1.983646 1_556
Li9 O17 1.984060 1_556
Li9 O13 2.045167 1_455
Li10 O24 1.953008 1_555
Li10 O18 1.978274 1_555
Li10 O6 2.009565 1_555
Li10 O14 2.061505 1_455
Li11 O25 1.930192 1_555
Li11 O19 1.992424 1_555
Li11 O7 2.013770 1_555
Li11 O15 2.058895 1_455
Li12 O20 1.935104 1_555
Li12 O8 1.983948 1_555
Li12 O14 2.006724 1_555
Li12 O16 2.053763 1_655
Li13 O21 1.944888 1_555
Li13 O9 1.975115 1_555
Li13 O15 1.989321 1_555
Li13 O17 2.075063 1_655
Li14 O22 1.937709 1_555
Li14 O10 2.009423 1_556
Li14 O12 2.014083 1_556
Li14 O18 2.062231 1_655
Li15 O23 1.913915 1_555
Li15 O11 1.985208 1_555
Li15 O13 2.022373 1_555
Li15 O19 2.044031 1_655
Ni0 O7 1.975281 1_555
Ni0 O13 1.980853 1_455
Ni0 O18 1.998343 1_555
Ni0 O8 2.000024 1_455
Ni1 O14 1.978124 1_455
Ni1 O4 1.978697 1_555
Ni1 O9 1.998989 1_465
Ni1 O19 2.001206 1_565
Ni2 O15 1.977617 1_455
Ni2 O5 1.978821 1_555
Ni2 O10 1.995864 1_455
Ni2 O16 2.000030 1_555
Ni3 O11 1.971483 1_555
Ni3 O17 1.977690 1_656
Ni3 O12 2.000547 1_546
Ni3 O6 2.004381 1_645
O0 Si3 1.719247 1_555
O0 Si4 1.722280 1_555
O1 Si5 1.719366 1_555
O1 Si0 1.721994 1_545
O2 Si1 1.719612 1_556
O2 Si6 1.722077 1_556
O3 Si7 1.720032 1_565
O3 Si2 1.720747 1_555
O4 Si5 1.644291 1_565
O5 Si6 1.646876 1_555
O6 Si7 1.651815 1_565
O7 Si4 1.647050 1_555
O8 Si3 1.649772 1_555
O9 Si0 1.652427 1_545
O10 Si1 1.649914 1_555
O11 Si2 1.645182 1_545
O12 Si0 1.647205 1_555
O13 Si1 1.643715 1_556
O14 Si2 1.642171 1_555
O15 Si3 1.642728 1_555
O16 Si4 1.646629 1_555
O17 Si5 1.642188 1_555
O18 Si6 1.645621 1_556
O19 Si7 1.647215 1_555
O20 Si0 1.620004 1_555
O21 Si1 1.623695 1_555
O22 Si2 1.617251 1_555
O23 Si3 1.618799 1_555
O24 Si4 1.622501 1_555
O25 Si5 1.621415 1_555
O26 Si6 1.617651 1_555
O27 Si7 1.624238 1_555
