# generated using pymatgen
data_RbLiWO5
_symmetry_space_group_name_H-M   'P 1'
_cell_length_a   7.75471000
_cell_length_b   11.17606700
_cell_length_c   13.05222400
_cell_angle_alpha   90.00000000
_cell_angle_beta   90.00000000
_cell_angle_gamma   90.00000000
_symmetry_Int_Tables_number   1
_chemical_formula_structural   RbLiWO5
_chemical_formula_sum   'Rb8 Li8 W8 O40'
_cell_volume   1131.19916652
_cell_formula_units_Z   8
loop_
 _symmetry_equiv_pos_site_id
 _symmetry_equiv_pos_as_xyz
  1  'x, y, z'
loop_
 _atom_site_type_symbol
 _atom_site_label
 _atom_site_symmetry_multiplicity
 _atom_site_fract_x
 _atom_site_fract_y
 _atom_site_fract_z
 _atom_site_occupancy
  Rb  Rb0  1  0.18797400  0.79666700  0.87409900  1
  Rb  Rb1  1  0.81202600  0.20333300  0.12590100  1
  Rb  Rb2  1  0.31202600  0.29666700  0.12590100  1
  Rb  Rb3  1  0.81202600  0.70333300  0.37409900  1
  Rb  Rb4  1  0.68797400  0.70333300  0.87409900  1
  Rb  Rb5  1  0.18797400  0.29666700  0.62590100  1
  Rb  Rb6  1  0.68797400  0.20333300  0.62590100  1
  Rb  Rb7  1  0.31202600  0.79666700  0.37409900  1
  Li  Li0  1  0.00876400  0.58545300  0.67441500  1
  Li  Li1  1  0.99123600  0.41454700  0.32558500  1
  Li  Li2  1  0.49123600  0.08545300  0.32558500  1
  Li  Li3  1  0.99123600  0.91454700  0.17441500  1
  Li  Li4  1  0.50876400  0.91454700  0.67441500  1
  Li  Li5  1  0.00876400  0.08545300  0.82558500  1
  Li  Li6  1  0.50876400  0.41454700  0.82558500  1
  Li  Li7  1  0.49123600  0.58545300  0.17441500  1
  W  W0  1  0.43887900  0.61828500  0.62388800  1
  W  W1  1  0.56112100  0.38171500  0.37611200  1
  W  W2  1  0.06112100  0.11828500  0.37611200  1
  W  W3  1  0.56112100  0.88171500  0.12388800  1
  W  W4  1  0.93887900  0.88171500  0.62388800  1
  W  W5  1  0.43887900  0.11828500  0.87611200  1
  W  W6  1  0.93887900  0.38171500  0.87611200  1
  W  W7  1  0.06112100  0.61828500  0.12388800  1
  O  O0  1  0.22207900  0.56525800  0.59820200  1
  O  O1  1  0.77792100  0.43474200  0.40179800  1
  O  O2  1  0.27792100  0.06525800  0.40179800  1
  O  O3  1  0.77792100  0.93474200  0.09820200  1
  O  O4  1  0.72207900  0.93474200  0.59820200  1
  O  O5  1  0.22207900  0.06525800  0.90179800  1
  O  O6  1  0.72207900  0.43474200  0.90179800  1
  O  O7  1  0.27792100  0.56525800  0.09820200  1
  O  O8  1  0.03924900  0.84350100  0.50459100  1
  O  O9  1  0.96075100  0.15649900  0.49540900  1
  O  O10  1  0.46075100  0.34350100  0.49540900  1
  O  O11  1  0.96075100  0.65649900  0.00459100  1
  O  O12  1  0.53924900  0.65649900  0.50459100  1
  O  O13  1  0.03924900  0.34350100  0.99540900  1
  O  O14  1  0.53924900  0.15649900  0.99540900  1
  O  O15  1  0.46075100  0.84350100  0.00459100  1
  O  O16  1  0.06518700  0.99205100  0.69845800  1
  O  O17  1  0.93481300  0.00794900  0.30154200  1
  O  O18  1  0.43481300  0.49205100  0.30154200  1
  O  O19  1  0.93481300  0.50794900  0.19845800  1
  O  O20  1  0.56518700  0.50794900  0.69845800  1
  O  O21  1  0.06518700  0.49205100  0.80154200  1
  O  O22  1  0.56518700  0.00794900  0.80154200  1
  O  O23  1  0.43481300  0.99205100  0.19845800  1
  O  O24  1  0.33222100  0.54230600  0.87934200  1
  O  O25  1  0.66777900  0.45769400  0.12065800  1
  O  O26  1  0.16777900  0.04230600  0.12065800  1
  O  O27  1  0.66777900  0.95769400  0.37934200  1
  O  O28  1  0.83222100  0.95769400  0.87934200  1
  O  O29  1  0.33222100  0.04230600  0.62065800  1
  O  O30  1  0.83222100  0.45769400  0.62065800  1
  O  O31  1  0.16777900  0.54230600  0.37934200  1
  O  O32  1  0.42570600  0.75343400  0.70187200  1
  O  O33  1  0.57429400  0.24656600  0.29812800  1
  O  O34  1  0.07429400  0.25343400  0.29812800  1
  O  O35  1  0.57429400  0.74656600  0.20187200  1
  O  O36  1  0.92570600  0.74656600  0.70187200  1
  O  O37  1  0.42570600  0.25343400  0.79812800  1
  O  O38  1  0.92570600  0.24656600  0.79812800  1
  O  O39  1  0.07429400  0.75343400  0.20187200  1
loop_
_geom_bond_atom_site_label_1
_geom_bond_atom_site_label_2
_geom_bond_distance
_geom_bond_site_symmetry_2
Li0 O0 1.943407 1_555
Li0 O36 1.945631 1_455
Li0 O21 2.008568 1_555
Li0 O30 2.098885 1_455
Li1 O1 1.943407 1_555
Li1 O34 1.945631 1_655
Li1 O19 2.008568 1_555
Li1 O31 2.098885 1_655
Li2 O2 1.943407 1_555
Li2 O33 1.945631 1_555
Li2 O23 2.008568 1_545
Li2 O27 2.098885 1_545
Li3 O3 1.943407 1_555
Li3 O39 1.945631 1_655
Li3 O17 2.008568 1_565
Li3 O26 2.098885 1_665
Li4 O4 1.943407 1_555
Li4 O32 1.945631 1_555
Li4 O22 2.008568 1_565
Li4 O29 2.098885 1_565
Li5 O5 1.943407 1_555
Li5 O38 1.945631 1_455
Li5 O16 2.008568 1_545
Li5 O28 2.098885 1_445
Li6 O6 1.943407 1_555
Li6 O37 1.945631 1_555
Li6 O20 2.008568 1_555
Li6 O24 2.098885 1_555
Li7 O7 1.943407 1_555
Li7 O35 1.945631 1_555
Li7 O18 2.008568 1_555
Li7 O25 2.098885 1_555
O0 W0 1.813868 1_555
O0 Rb5 3.035029 1_555
O1 W1 1.813868 1_555
O1 Rb3 3.035029 1_555
O2 W2 1.813868 1_555
O2 Rb7 3.035029 1_545
O3 W3 1.813868 1_555
O3 Rb1 3.035029 1_565
O4 W4 1.813868 1_555
O4 Rb6 3.035029 1_565
O5 W5 1.813868 1_555
O5 Rb0 3.035029 1_545
O6 W6 1.813868 1_555
O6 Rb4 3.035029 1_555
O7 W7 1.813868 1_555
O7 Rb2 3.035029 1_555
O8 W4 1.792413 1_455
O8 Rb7 2.765758 1_555
O8 Rb3 2.908565 1_455
O9 W2 1.792413 1_655
O9 Rb6 2.765758 1_555
O9 Rb5 2.908565 1_655
O10 W1 1.792413 1_555
O10 Rb5 2.765758 1_555
O10 Rb6 2.908565 1_555
O11 W7 1.792413 1_655
O11 Rb4 2.765758 1_554
O11 Rb0 2.908565 1_654
O12 W0 1.792413 1_555
O12 Rb3 2.765758 1_555
O12 Rb7 2.908565 1_555
O13 W6 1.792413 1_455
O13 Rb2 2.765758 1_556
O13 Rb1 2.908565 1_456
O14 W5 1.792413 1_555
O14 Rb1 2.765758 1_556
O14 Rb2 2.908565 1_556
O15 W3 1.792413 1_555
O15 Rb0 2.765758 1_554
O15 Rb4 2.908565 1_554
O16 W4 1.851296 1_455
O16 Rb0 3.306122 1_555
O17 W2 1.851296 1_655
O17 Rb1 3.306122 1_555
O18 W1 1.851296 1_555
O18 Rb2 3.306122 1_555
O19 W7 1.851296 1_655
O19 Rb3 3.306122 1_555
O20 W0 1.851296 1_555
O20 Rb4 3.306122 1_555
O21 W6 1.851296 1_455
O21 Rb5 3.306122 1_555
O22 W5 1.851296 1_555
O22 Rb6 3.306122 1_555
O23 W3 1.851296 1_555
O23 Rb7 3.306122 1_555
O24 Rb0 3.055682 1_555
O24 Rb4 3.294569 1_555
O25 Rb1 3.055682 1_555
O25 Rb2 3.294569 1_555
O26 Rb2 3.055682 1_555
O26 Rb1 3.294569 1_455
O27 Rb3 3.055682 1_555
O27 Rb7 3.294569 1_555
O28 Rb4 3.055682 1_555
O28 Rb0 3.294569 1_655
O29 Rb5 3.055682 1_555
O29 Rb6 3.294569 1_555
O30 Rb6 3.055682 1_555
O30 Rb5 3.294569 1_655
O31 Rb7 3.055682 1_555
O31 Rb3 3.294569 1_455
O32 W0 1.824252 1_555
O32 Rb0 2.947095 1_555
O32 Rb4 3.082722 1_555
O33 W1 1.824252 1_555
O33 Rb1 2.947095 1_555
O33 Rb2 3.082722 1_555
O34 W2 1.824252 1_555
O34 Rb2 2.947095 1_555
O34 Rb1 3.082722 1_455
O35 W3 1.824252 1_555
O35 Rb3 2.947095 1_555
O35 Rb7 3.082722 1_555
O36 W4 1.824252 1_555
O36 Rb4 2.947095 1_555
O36 Rb0 3.082722 1_655
O37 W5 1.824252 1_555
O37 Rb5 2.947095 1_555
O37 Rb6 3.082722 1_555
O38 W6 1.824252 1_555
O38 Rb6 2.947095 1_555
O38 Rb5 3.082722 1_655
O39 W7 1.824252 1_555
O39 Rb7 2.947095 1_555
O39 Rb3 3.082722 1_455
