# generated using pymatgen
data_Bi2(PbS2)3
_symmetry_space_group_name_H-M   'P 1'
_cell_length_a   7.13464393
_cell_length_b   7.13464393
_cell_length_c   20.92851700
_cell_angle_alpha   90.00000000
_cell_angle_beta   90.00000000
_cell_angle_gamma   146.52081055
_symmetry_Int_Tables_number   1
_chemical_formula_structural   Bi2(PbS2)3
_chemical_formula_sum   'Bi4 Pb6 S12'
_cell_volume   587.67084386
_cell_formula_units_Z   2
loop_
 _symmetry_equiv_pos_site_id
 _symmetry_equiv_pos_as_xyz
  1  'x, y, z'
loop_
 _atom_site_type_symbol
 _atom_site_label
 _atom_site_symmetry_multiplicity
 _atom_site_fract_x
 _atom_site_fract_y
 _atom_site_fract_z
 _atom_site_occupancy
  Bi  Bi0  1  0.08987000  0.91013000  0.36450200  1
  Bi  Bi1  1  0.91013000  0.08987000  0.63549800  1
  Bi  Bi2  1  0.08987000  0.91013000  0.13549800  1
  Bi  Bi3  1  0.91013000  0.08987000  0.86450200  1
  Pb  Pb0  1  0.36127200  0.63872800  0.45470400  1
  Pb  Pb1  1  0.63872800  0.36127200  0.54529600  1
  Pb  Pb2  1  0.36127200  0.63872800  0.04529600  1
  Pb  Pb3  1  0.63872800  0.36127200  0.95470400  1
  Pb  Pb4  1  0.83663300  0.16336700  0.25000000  1
  Pb  Pb5  1  0.16336700  0.83663300  0.75000000  1
  S  S0  1  0.18693100  0.81306900  0.25000000  1
  S  S1  1  0.81306900  0.18693100  0.75000000  1
  S  S2  1  0.45592700  0.54407300  0.33483000  1
  S  S3  1  0.54407300  0.45592700  0.66517000  1
  S  S4  1  0.45592700  0.54407300  0.16517000  1
  S  S5  1  0.54407300  0.45592700  0.83483000  1
  S  S6  1  0.72070600  0.27929400  0.40636900  1
  S  S7  1  0.27929400  0.72070600  0.59363100  1
  S  S8  1  0.72070600  0.27929400  0.09363100  1
  S  S9  1  0.27929400  0.72070600  0.90636900  1
  S  S10  1  0.00000000  0.00000000  0.50000000  1
  S  S11  1  0.00000000  0.00000000  0.00000000  1
loop_
_geom_bond_atom_site_label_1
_geom_bond_atom_site_label_2
_geom_bond_distance
_geom_bond_site_symmetry_2
Bi0 S0 2.738905 1_555
Bi0 S2 2.821049 1_565
Bi0 S2 2.821049 1_455
Bi0 S6 2.861263 1_565
Bi0 S6 2.861263 1_455
Bi0 S10 3.090256 1_565
Bi1 S1 2.738905 1_555
Bi1 S3 2.821049 1_655
Bi1 S3 2.821049 1_545
Bi1 S7 2.861263 1_545
Bi1 S7 2.861263 1_655
Bi1 S10 3.090256 1_655
Bi2 S0 2.738905 1_555
Bi2 S4 2.821049 1_455
Bi2 S4 2.821049 1_565
Bi2 S8 2.861263 1_455
Bi2 S8 2.861263 1_565
Bi2 S11 3.090256 1_565
Bi3 S1 2.738905 1_555
Bi3 S5 2.821049 1_545
Bi3 S5 2.821049 1_655
Bi3 S9 2.861263 1_545
Bi3 S9 2.861263 1_655
Bi3 S11 3.090256 1_656
Pb0 S2 2.822578 1_555
Pb0 S10 2.952113 1_665
Pb0 S10 2.952113 1_555
Pb0 S6 2.989223 1_565
Pb0 S6 2.989223 1_455
Pb0 S7 3.115864 1_555
Pb1 S3 2.822578 1_555
Pb1 S10 2.952113 1_665
Pb1 S10 2.952113 1_555
Pb1 S7 2.989223 1_655
Pb1 S7 2.989223 1_545
Pb1 S6 3.115864 1_555
Pb2 S4 2.822578 1_555
Pb2 S11 2.952113 1_665
Pb2 S11 2.952113 1_555
Pb2 S8 2.989223 1_565
Pb2 S8 2.989223 1_455
Pb2 S9 3.115864 1_554
Pb3 S5 2.822578 1_555
Pb3 S11 2.952113 1_666
Pb3 S11 2.952113 1_556
Pb3 S9 2.989223 1_655
Pb3 S9 2.989223 1_545
Pb3 S8 3.115864 1_556
Pb4 S0 2.899539 1_655
Pb4 S0 2.899539 1_545
Pb4 S4 3.167323 1_655
Pb4 S4 3.167323 1_545
Pb4 S2 3.167323 1_655
Pb4 S2 3.167323 1_545
Pb5 S1 2.899539 1_455
Pb5 S1 2.899539 1_565
Pb5 S3 3.167323 1_455
Pb5 S3 3.167323 1_565
Pb5 S5 3.167323 1_565
Pb5 S5 3.167323 1_455
