# generated using pymatgen
data_Ca2Al2FeSi3O13
_symmetry_space_group_name_H-M   'P 1'
_cell_length_a   5.81321300
_cell_length_b   8.58571873
_cell_length_c   10.53856608
_cell_angle_alpha   91.03276070
_cell_angle_beta   90.00000000
_cell_angle_gamma   90.00000000
_symmetry_Int_Tables_number   1
_chemical_formula_structural   Ca2Al2FeSi3O13
_chemical_formula_sum   'Ca4 Al4 Fe2 Si6 O26'
_cell_volume   525.90083497
_cell_formula_units_Z   2
loop_
 _symmetry_equiv_pos_site_id
 _symmetry_equiv_pos_as_xyz
  1  'x, y, z'
loop_
 _atom_site_type_symbol
 _atom_site_label
 _atom_site_symmetry_multiplicity
 _atom_site_fract_x
 _atom_site_fract_y
 _atom_site_fract_z
 _atom_site_occupancy
  Ca  Ca0  1  0.75000000  0.92540800  0.34162100  1
  Ca  Ca1  1  0.25000000  0.07459200  0.65837900  1
  Ca  Ca2  1  0.25000000  0.09413000  0.34736000  1
  Ca  Ca3  1  0.75000000  0.90587000  0.65264000  1
  Al  Al0  1  0.75000000  0.23039500  0.14794100  1
  Al  Al1  1  0.25000000  0.76960500  0.85205900  1
  Al  Al2  1  0.75000000  0.40154200  0.42415900  1
  Al  Al3  1  0.25000000  0.59845800  0.57584100  1
  Fe  Fe0  1  0.50000000  0.00000000  0.00000000  1
  Fe  Fe1  1  0.00000000  0.00000000  0.00000000  1
  Si  Si0  1  0.25000000  0.43812800  0.32797200  1
  Si  Si1  1  0.75000000  0.56187200  0.67202800  1
  Si  Si2  1  0.25000000  0.67649300  0.14898900  1
  Si  Si3  1  0.75000000  0.32350700  0.85101100  1
  Si  Si4  1  0.75000000  0.60717900  0.22170800  1
  Si  Si5  1  0.25000000  0.39282100  0.77829200  1
  O  O0  1  0.25000000  0.48669400  0.17414500  1
  O  O1  1  0.75000000  0.51330600  0.82585500  1
  O  O2  1  0.75000000  0.87926200  0.02324500  1
  O  O3  1  0.25000000  0.12073800  0.97675500  1
  O  O4  1  0.25000000  0.79382400  0.02507500  1
  O  O5  1  0.75000000  0.20617600  0.97492500  1
  O  O6  1  0.50000000  0.00000000  0.50000000  1
  O  O7  1  0.00000000  0.00000000  0.50000000  1
  O  O8  1  0.52466200  0.08929000  0.17728300  1
  O  O9  1  0.02466200  0.91071000  0.82271700  1
  O  O10  1  0.47533800  0.91071000  0.82271700  1
  O  O11  1  0.97533800  0.08929000  0.17728300  1
  O  O12  1  0.75000000  0.43962300  0.14870400  1
  O  O13  1  0.25000000  0.56037700  0.85129600  1
  O  O14  1  0.47997100  0.32911600  0.35823500  1
  O  O15  1  0.97997100  0.67088400  0.64176500  1
  O  O16  1  0.52002900  0.67088400  0.64176500  1
  O  O17  1  0.02002900  0.32911600  0.35823500  1
  O  O18  1  0.51648800  0.72089500  0.19975500  1
  O  O19  1  0.01648800  0.27910500  0.80024500  1
  O  O20  1  0.48351200  0.27910500  0.80024500  1
  O  O21  1  0.98351200  0.72089500  0.19975500  1
  O  O22  1  0.25000000  0.59732700  0.41164100  1
  O  O23  1  0.75000000  0.40267300  0.58835900  1
  O  O24  1  0.75000000  0.59642600  0.37496700  1
  O  O25  1  0.25000000  0.40357400  0.62503300  1
loop_
_geom_bond_atom_site_label_1
_geom_bond_atom_site_label_2
_geom_bond_distance
_geom_bond_site_symmetry_2
Ca0 O7 2.295551 1_665
Ca0 O6 2.295551 1_565
Ca0 O8 2.604417 1_565
Ca0 O11 2.604417 1_565
Ca0 O21 2.658274 1_555
Ca0 O18 2.658274 1_555
Ca0 O24 2.852603 1_555
Ca1 O6 2.295551 1_555
Ca1 O7 2.295551 1_555
Ca1 O10 2.604417 1_545
Ca1 O9 2.604417 1_545
Ca1 O19 2.658274 1_555
Ca1 O20 2.658274 1_555
Ca1 O25 2.852603 1_555
Ca2 O7 2.323729 1_555
Ca2 O6 2.323729 1_555
Ca2 O8 2.400203 1_555
Ca2 O11 2.400203 1_455
Ca2 O17 2.421244 1_555
Ca2 O14 2.421244 1_555
Ca3 O7 2.323729 1_665
Ca3 O6 2.323729 1_565
Ca3 O10 2.400203 1_555
Ca3 O9 2.400203 1_655
Ca3 O15 2.421244 1_555
Ca3 O16 2.421244 1_555
Al0 O12 1.796246 1_555
Al0 O8 1.814597 1_555
Al0 O11 1.814597 1_555
Al0 O5 1.831432 1_554
Al1 O13 1.796246 1_555
Al1 O10 1.814597 1_555
Al1 O9 1.814597 1_555
Al1 O4 1.831432 1_556
Al2 O23 1.730285 1_555
Al2 O24 1.760592 1_555
Al2 O14 1.821494 1_555
Al2 O17 1.821494 1_655
Al3 O22 1.730285 1_555
Al3 O25 1.760592 1_555
Al3 O15 1.821494 1_455
Al3 O16 1.821494 1_555
Fe0 O3 1.804395 1_554
Fe0 O2 1.804395 1_545
Fe0 O10 2.011766 1_544
Fe0 O8 2.011766 1_555
Fe0 O5 2.309173 1_554
Fe0 O4 2.309173 1_545
Fe1 O3 1.804395 1_554
Fe1 O2 1.804395 1_445
Fe1 O9 2.011766 1_544
Fe1 O11 2.011766 1_455
Fe1 O5 2.309173 1_454
Fe1 O4 2.309173 1_545
O0 Si2 1.655694 1_555
O0 Si0 1.681146 1_555
O1 Si3 1.655694 1_555
O1 Si1 1.681146 1_555
O4 Si2 1.663589 1_555
O5 Si3 1.663589 1_555
O12 Si4 1.619120 1_555
O13 Si5 1.619120 1_555
O14 Si0 1.666041 1_555
O15 Si1 1.666041 1_555
O16 Si1 1.666041 1_555
O17 Si0 1.666041 1_555
O18 Si2 1.680498 1_555
O18 Si4 1.690437 1_555
O19 Si3 1.680498 1_455
O19 Si5 1.690437 1_555
O20 Si3 1.680498 1_555
O20 Si5 1.690437 1_555
O21 Si2 1.680498 1_655
O21 Si4 1.690437 1_555
O22 Si0 1.613160 1_555
O23 Si1 1.613160 1_555
O24 Si4 1.619427 1_555
O25 Si5 1.619427 1_555
