# generated using pymatgen
data_ErNiP
_symmetry_space_group_name_H-M   'P 1'
_cell_length_a   3.85016763
_cell_length_b   3.85016763
_cell_length_c   15.23056456
_cell_angle_alpha   90.00000000
_cell_angle_beta   90.00000000
_cell_angle_gamma   120.00001218
_symmetry_Int_Tables_number   1
_chemical_formula_structural   ErNiP
_chemical_formula_sum   'Er4 Ni4 P4'
_cell_volume   195.52660377
_cell_formula_units_Z   4
loop_
 _symmetry_equiv_pos_site_id
 _symmetry_equiv_pos_as_xyz
  1  'x, y, z'
loop_
 _atom_site_type_symbol
 _atom_site_label
 _atom_site_symmetry_multiplicity
 _atom_site_fract_x
 _atom_site_fract_y
 _atom_site_fract_z
 _atom_site_occupancy
  Er  Er0  1  0.00000000  -0.00000000  0.50001173  1
  Er  Er1  1  0.00000000  -0.00000000  -0.00001089  1
  Er  Er2  1  0.00000000  -0.00000000  0.24997416  1
  Er  Er3  1  0.00000000  -0.00000000  0.75002386  1
  Ni  Ni0  1  0.33333300  0.66666700  0.37089106  1
  Ni  Ni1  1  0.66666700  0.33333300  0.62916120  1
  Ni  Ni2  1  0.66666700  0.33333300  0.87085241  1
  Ni  Ni3  1  0.33333300  0.66666700  0.12909626  1
  P  P0  1  0.33333300  0.66666700  0.87762318  1
  P  P1  1  0.66666700  0.33333300  0.12238653  1
  P  P2  1  0.66666700  0.33333300  0.37759001  1
  P  P3  1  0.33333300  0.66666700  0.62240049  1
loop_
_geom_bond_atom_site_label_1
_geom_bond_atom_site_label_2
_geom_bond_distance
_geom_bond_site_symmetry_2
Er0 P3 2.901023 1_545
Er0 P3 2.901026 1_555
Er0 P3 2.901026 1_445
Er0 P2 2.901346 1_455
Er0 P2 2.901348 1_555
Er0 P2 2.901348 1_445
Er0 Ni0 2.967944 1_545
Er0 Ni0 2.967947 1_555
Er0 Ni0 2.967947 1_445
Er0 Ni1 2.968235 1_455
Er0 Ni1 2.968237 1_445
Er0 Ni1 2.968237 1_555
Er1 P0 2.900800 1_544
Er1 P0 2.900802 1_554
Er1 P0 2.900802 1_444
Er1 P1 2.901108 1_455
Er1 P1 2.901110 1_555
Er1 P1 2.901110 1_445
Er1 Ni3 2.967808 1_545
Er1 Ni3 2.967810 1_555
Er1 Ni3 2.967810 1_445
Er1 Ni2 2.968106 1_454
Er1 Ni2 2.968108 1_444
Er1 Ni2 2.968108 1_554
Er2 Ni3 2.886291 1_545
Er2 Ni3 2.886294 1_555
Er2 Ni3 2.886294 1_445
Er2 Ni0 2.886670 1_545
Er2 Ni0 2.886673 1_555
Er2 Ni0 2.886673 1_445
Er2 P1 2.952525 1_455
Er2 P1 2.952527 1_445
Er2 P1 2.952527 1_555
Er2 P2 2.952808 1_455
Er2 P2 2.952810 1_445
Er2 P2 2.952810 1_555
Er3 Ni2 2.885812 1_455
Er3 Ni2 2.885814 1_555
Er3 Ni2 2.885814 1_445
Er3 Ni1 2.886143 1_455
Er3 Ni1 2.886146 1_445
Er3 Ni1 2.886146 1_555
Er3 P0 2.952642 1_545
Er3 P0 2.952644 1_555
Er3 P0 2.952644 1_445
Er3 P3 2.952883 1_545
Er3 P3 2.952885 1_555
Er3 P3 2.952885 1_445
Ni0 P2 2.225233 1_455
Ni0 P2 2.225233 1_565
Ni0 P2 2.225240 1_555
Ni1 P3 2.225276 1_545
Ni1 P3 2.225276 1_655
Ni1 P3 2.225284 1_555
Ni2 P0 2.225284 1_545
Ni2 P0 2.225284 1_655
Ni2 P0 2.225291 1_555
Ni3 P1 2.225241 1_455
Ni3 P1 2.225241 1_565
Ni3 P1 2.225248 1_555
