# generated using pymatgen
data_LaYZn2
_symmetry_space_group_name_H-M   'P 1'
_cell_length_a   11.86954337
_cell_length_b   11.86954337
_cell_length_c   11.86954337
_cell_angle_alpha   120.34474338
_cell_angle_beta   119.42252444
_cell_angle_gamma   90.20351937
_symmetry_Int_Tables_number   1
_chemical_formula_structural   LaYZn2
_chemical_formula_sum   'La1 Y1 Zn2'
_cell_volume   1184.43779820
_cell_formula_units_Z   1
loop_
 _symmetry_equiv_pos_site_id
 _symmetry_equiv_pos_as_xyz
  1  'x, y, z'
loop_
 _atom_site_type_symbol
 _atom_site_label
 _atom_site_symmetry_multiplicity
 _atom_site_fract_x
 _atom_site_fract_y
 _atom_site_fract_z
 _atom_site_occupancy
  La  La0  1  0.50000000  0.00000000  0.50000000  1
  Y  Y0  1  0.00000000  0.00000000  0.00000000  1
  Zn  Zn0  1  0.75268200  0.00000000  0.75268200  1
  Zn  Zn1  1  0.24731800  0.00000000  0.24731800  1
loop_
_geom_bond_atom_site_label_1
_geom_bond_atom_site_label_2
_geom_bond_distance
_geom_bond_site_symmetry_2
La0 Zn1 3.025361 1_555
La0 Zn0 3.025361 1_555
Y0 Zn1 2.961137 1_555
Y0 Zn0 2.961137 1_454
