# generated using pymatgen
data_Ca(SnO2)2
_symmetry_space_group_name_H-M   'P 1'
_cell_length_a   3.23691600
_cell_length_b   10.85825000
_cell_length_c   11.45129100
_cell_angle_alpha   90.00000000
_cell_angle_beta   90.00000000
_cell_angle_gamma   90.00000000
_symmetry_Int_Tables_number   1
_chemical_formula_structural   Ca(SnO2)2
_chemical_formula_sum   'Ca4 Sn8 O16'
_cell_volume   402.48130924
_cell_formula_units_Z   4
loop_
 _symmetry_equiv_pos_site_id
 _symmetry_equiv_pos_as_xyz
  1  'x, y, z'
loop_
 _atom_site_type_symbol
 _atom_site_label
 _atom_site_symmetry_multiplicity
 _atom_site_fract_x
 _atom_site_fract_y
 _atom_site_fract_z
 _atom_site_occupancy
  Ca  Ca0  1  0.26253700  0.75069100  0.64310500  1
  Ca  Ca1  1  0.26253700  0.25069100  0.85689500  1
  Ca  Ca2  1  0.73746300  0.75069100  0.14310500  1
  Ca  Ca3  1  0.73746300  0.25069100  0.35689500  1
  Sn  Sn0  1  0.76039400  0.58181000  0.89056300  1
  Sn  Sn1  1  0.76039400  0.08181000  0.60943700  1
  Sn  Sn2  1  0.23960600  0.08181000  0.10943700  1
  Sn  Sn3  1  0.75386700  0.42811500  0.61986400  1
  Sn  Sn4  1  0.24613300  0.42811500  0.11986400  1
  Sn  Sn5  1  0.75386700  0.92811500  0.88013600  1
  Sn  Sn6  1  0.24613300  0.92811500  0.38013600  1
  Sn  Sn7  1  0.23960600  0.58181000  0.39056300  1
  O  O0  1  0.25567400  0.87593300  0.00074100  1
  O  O1  1  0.75501100  0.10941500  0.95771500  1
  O  O2  1  0.25469300  0.98987500  0.77763100  1
  O  O3  1  0.74432600  0.87593300  0.50074100  1
  O  O4  1  0.75501100  0.60941500  0.54228500  1
  O  O5  1  0.76058200  0.26401000  0.71226800  1
  O  O6  1  0.24498900  0.10941500  0.45771500  1
  O  O7  1  0.23941800  0.26401000  0.21226800  1
  O  O8  1  0.25469300  0.48987500  0.72236900  1
  O  O9  1  0.74530700  0.98987500  0.27763100  1
  O  O10  1  0.24498900  0.60941500  0.04228500  1
  O  O11  1  0.23941800  0.76401000  0.28773200  1
  O  O12  1  0.76058200  0.76401000  0.78773200  1
  O  O13  1  0.74530700  0.48987500  0.22236900  1
  O  O14  1  0.25567400  0.37593300  0.49925900  1
  O  O15  1  0.74432600  0.37593300  0.99925900  1
loop_
_geom_bond_atom_site_label_1
_geom_bond_atom_site_label_2
_geom_bond_distance
_geom_bond_site_symmetry_2
Ca0 O12 2.315764 1_555
Ca0 O12 2.324593 1_455
Ca0 O4 2.495445 1_555
Ca0 O4 2.526847 1_455
Ca0 O3 2.634226 1_555
Ca0 O3 2.705691 1_455
Ca0 O8 2.974016 1_555
Ca0 O2 3.019736 1_555
Ca1 O5 2.315764 1_555
Ca1 O5 2.324593 1_455
Ca1 O1 2.495445 1_555
Ca1 O1 2.526847 1_455
Ca1 O15 2.634226 1_555
Ca1 O15 2.705691 1_455
Ca1 O2 2.974016 1_545
Ca1 O8 3.019736 1_555
Ca2 O11 2.315764 1_555
Ca2 O11 2.324593 1_655
Ca2 O10 2.495445 1_555
Ca2 O10 2.526847 1_655
Ca2 O0 2.634226 1_555
Ca2 O0 2.705691 1_655
Ca2 O13 2.974016 1_555
Ca2 O9 3.019736 1_555
Ca3 O7 2.315764 1_555
Ca3 O7 2.324593 1_655
Ca3 O6 2.495445 1_555
Ca3 O6 2.526847 1_655
Ca3 O14 2.634226 1_555
Ca3 O14 2.705691 1_655
Ca3 O9 2.974016 1_545
Ca3 O13 3.019736 1_555
O0 Sn5 2.197485 1_554
O0 Sn5 2.206084 1_454
O0 Sn2 2.559161 1_565
O1 Sn5 2.159773 1_545
O1 Sn2 2.359859 1_656
O1 Sn2 2.427293 1_556
O2 Sn5 2.106730 1_555
O2 Sn5 2.110834 1_455
O2 Sn1 2.695579 1_465
O2 Sn1 2.717648 1_565
O3 Sn6 2.197485 1_555
O3 Sn6 2.206084 1_655
O3 Sn1 2.559161 1_565
O4 Sn3 2.159773 1_555
O4 Sn7 2.359859 1_655
O4 Sn7 2.427293 1_555
O5 Sn3 2.072507 1_555
O5 Sn1 2.302299 1_555
O6 Sn6 2.159773 1_545
O6 Sn1 2.359859 1_455
O6 Sn1 2.427293 1_555
O7 Sn4 2.072507 1_555
O7 Sn2 2.302299 1_555
O8 Sn3 2.106730 1_555
O8 Sn3 2.110834 1_455
O8 Sn0 2.695579 1_455
O8 Sn0 2.717648 1_555
O9 Sn6 2.106730 1_555
O9 Sn6 2.110834 1_655
O9 Sn2 2.695579 1_665
O9 Sn2 2.717648 1_565
O10 Sn4 2.159773 1_555
O10 Sn0 2.359859 1_454
O10 Sn0 2.427293 1_554
O11 Sn6 2.072507 1_555
O11 Sn7 2.302299 1_555
O12 Sn5 2.072507 1_555
O12 Sn0 2.302299 1_555
O13 Sn4 2.106730 1_555
O13 Sn4 2.110834 1_655
O13 Sn7 2.695579 1_655
O13 Sn7 2.717648 1_555
O14 Sn3 2.197485 1_555
O14 Sn3 2.206084 1_455
O14 Sn7 2.559161 1_555
O15 Sn4 2.197485 1_556
O15 Sn4 2.206084 1_656
O15 Sn0 2.559161 1_555
