# generated using pymatgen
data_YbH12(CN3)3
_symmetry_space_group_name_H-M   'P 1'
_cell_length_a   14.04767070
_cell_length_b   14.04767070
_cell_length_c   14.04767070
_cell_angle_alpha   90.00000000
_cell_angle_beta   90.00000000
_cell_angle_gamma   90.00000000
_symmetry_Int_Tables_number   1
_chemical_formula_structural   YbH12(CN3)3
_chemical_formula_sum   'Yb8 H96 C24 N72'
_cell_volume   2772.12592475
_cell_formula_units_Z   8
loop_
 _symmetry_equiv_pos_site_id
 _symmetry_equiv_pos_as_xyz
  1  'x, y, z'
loop_
 _atom_site_type_symbol
 _atom_site_label
 _atom_site_symmetry_multiplicity
 _atom_site_fract_x
 _atom_site_fract_y
 _atom_site_fract_z
 _atom_site_occupancy
  Yb  Yb0  1  -0.00000000  0.50000000  0.50000000  1
  Yb  Yb1  1  0.50000000  0.50000000  -0.00000000  1
  Yb  Yb2  1  0.50000000  -0.00000000  0.50000000  1
  Yb  Yb3  1  -0.00000000  0.00000000  -0.00000000  1
  Yb  Yb4  1  0.50000000  0.00000000  -0.00000000  1
  Yb  Yb5  1  -0.00000000  -0.00000000  0.50000000  1
  Yb  Yb6  1  -0.00000000  0.50000000  -0.00000000  1
  Yb  Yb7  1  0.50000000  0.50000000  0.50000000  1
  H  H0  1  0.82534193  0.04584024  0.88073024  1
  H  H1  1  0.67465807  0.04584024  0.61926976  1
  H  H2  1  0.67465807  0.45415976  0.88073024  1
  H  H3  1  0.82534193  0.45415976  0.61926976  1
  H  H4  1  0.88073024  0.82534193  0.04584024  1
  H  H5  1  0.61926976  0.67465807  0.04584024  1
  H  H6  1  0.88073024  0.67465807  0.45415976  1
  H  H7  1  0.61926976  0.82534193  0.45415976  1
  H  H8  1  0.04584024  0.88073024  0.82534193  1
  H  H9  1  0.04584024  0.61926976  0.67465807  1
  H  H10  1  0.45415976  0.88073024  0.67465807  1
  H  H11  1  0.45415976  0.61926976  0.82534193  1
  H  H12  1  0.17465807  0.95415976  0.11926976  1
  H  H13  1  0.32534193  0.95415976  0.38073024  1
  H  H14  1  0.32534193  0.54584024  0.11926976  1
  H  H15  1  0.17465807  0.54584024  0.38073024  1
  H  H16  1  0.11926976  0.17465807  0.95415976  1
  H  H17  1  0.38073024  0.32534193  0.95415976  1
  H  H18  1  0.11926976  0.32534193  0.54584024  1
  H  H19  1  0.38073024  0.17465807  0.54584024  1
  H  H20  1  0.95415976  0.11926976  0.17465807  1
  H  H21  1  0.95415976  0.38073024  0.32534193  1
  H  H22  1  0.54584024  0.11926976  0.32534193  1
  H  H23  1  0.54584024  0.38073024  0.17465807  1
  H  H24  1  0.67488084  0.02932642  0.87939971  1
  H  H25  1  0.82511916  0.02932642  0.62060029  1
  H  H26  1  0.82511916  0.47067358  0.87939971  1
  H  H27  1  0.67488084  0.47067358  0.62060029  1
  H  H28  1  0.87939971  0.67488084  0.02932642  1
  H  H29  1  0.62060029  0.82511916  0.02932642  1
  H  H30  1  0.87939971  0.82511916  0.47067358  1
  H  H31  1  0.62060029  0.67488084  0.47067358  1
  H  H32  1  0.02932642  0.87939971  0.67488084  1
  H  H33  1  0.02932642  0.62060029  0.82511916  1
  H  H34  1  0.47067358  0.87939971  0.82511916  1
  H  H35  1  0.47067358  0.62060029  0.67488084  1
  H  H36  1  0.32511916  0.97067358  0.12060029  1
  H  H37  1  0.17488084  0.97067358  0.37939971  1
  H  H38  1  0.17488084  0.52932642  0.12060029  1
  H  H39  1  0.32511916  0.52932642  0.37939971  1
  H  H40  1  0.12060029  0.32511916  0.97067358  1
  H  H41  1  0.37939971  0.17488084  0.97067358  1
  H  H42  1  0.12060029  0.17488084  0.52932642  1
  H  H43  1  0.37939971  0.32511916  0.52932642  1
  H  H44  1  0.97067358  0.12060029  0.32511916  1
  H  H45  1  0.97067358  0.37939971  0.17488084  1
  H  H46  1  0.52932642  0.12060029  0.17488084  1
  H  H47  1  0.52932642  0.37939971  0.32511916  1
  H  H48  1  0.81113463  0.02800260  0.12807415  1
  H  H49  1  0.68886537  0.02800260  0.37192585  1
  H  H50  1  0.68886537  0.47199740  0.12807415  1
  H  H51  1  0.81113463  0.47199740  0.37192585  1
  H  H52  1  0.12807415  0.81113463  0.02800260  1
  H  H53  1  0.37192585  0.68886537  0.02800260  1
  H  H54  1  0.12807415  0.68886537  0.47199740  1
  H  H55  1  0.37192585  0.81113463  0.47199740  1
  H  H56  1  0.02800260  0.12807415  0.81113463  1
  H  H57  1  0.02800260  0.37192585  0.68886537  1
  H  H58  1  0.47199740  0.12807415  0.68886537  1
  H  H59  1  0.47199740  0.37192585  0.81113463  1
  H  H60  1  0.18886537  0.97199740  0.87192585  1
  H  H61  1  0.31113463  0.97199740  0.62807415  1
  H  H62  1  0.31113463  0.52800260  0.87192585  1
  H  H63  1  0.18886537  0.52800260  0.62807415  1
  H  H64  1  0.87192585  0.18886537  0.97199740  1
  H  H65  1  0.62807415  0.31113463  0.97199740  1
  H  H66  1  0.87192585  0.31113463  0.52800260  1
  H  H67  1  0.62807415  0.18886537  0.52800260  1
  H  H68  1  0.97199740  0.87192585  0.18886537  1
  H  H69  1  0.97199740  0.62807415  0.31113463  1
  H  H70  1  0.52800260  0.87192585  0.31113463  1
  H  H71  1  0.52800260  0.62807415  0.18886537  1
  H  H72  1  0.68598860  0.01340865  0.12414658  1
  H  H73  1  0.81401140  0.01340865  0.37585342  1
  H  H74  1  0.81401140  0.48659135  0.12414658  1
  H  H75  1  0.68598860  0.48659135  0.37585342  1
  H  H76  1  0.12414658  0.68598860  0.01340865  1
  H  H77  1  0.37585342  0.81401140  0.01340865  1
  H  H78  1  0.12414658  0.81401140  0.48659135  1
  H  H79  1  0.37585342  0.68598860  0.48659135  1
  H  H80  1  0.01340865  0.12414658  0.68598860  1
  H  H81  1  0.01340865  0.37585342  0.81401140  1
  H  H82  1  0.48659135  0.12414658  0.81401140  1
  H  H83  1  0.48659135  0.37585342  0.68598860  1
  H  H84  1  0.31401140  0.98659135  0.87585342  1
  H  H85  1  0.18598860  0.98659135  0.62414658  1
  H  H86  1  0.18598860  0.51340865  0.87585342  1
  H  H87  1  0.31401140  0.51340865  0.62414658  1
  H  H88  1  0.87585342  0.31401140  0.98659135  1
  H  H89  1  0.62414658  0.18598860  0.98659135  1
  H  H90  1  0.87585342  0.18598860  0.51340865  1
  H  H91  1  0.62414658  0.31401140  0.51340865  1
  H  H92  1  0.98659135  0.87585342  0.31401140  1
  H  H93  1  0.98659135  0.62414658  0.18598860  1
  H  H94  1  0.51340865  0.87585342  0.18598860  1
  H  H95  1  0.51340865  0.62414658  0.31401140  1
  C  C0  1  0.75054915  0.02788375  0.99498824  1
  C  C1  1  0.74945085  0.02788375  0.50501176  1
  C  C2  1  0.74945085  0.47211625  0.99498824  1
  C  C3  1  0.75054915  0.47211625  0.50501176  1
  C  C4  1  0.99498824  0.75054915  0.02788375  1
  C  C5  1  0.50501176  0.74945085  0.02788375  1
  C  C6  1  0.99498824  0.74945085  0.47211625  1
  C  C7  1  0.50501176  0.75054915  0.47211625  1
  C  C8  1  0.02788375  0.99498824  0.75054915  1
  C  C9  1  0.02788375  0.50501176  0.74945085  1
  C  C10  1  0.47211625  0.99498824  0.74945085  1
  C  C11  1  0.47211625  0.50501176  0.75054915  1
  C  C12  1  0.24945085  0.97211625  0.00501176  1
  C  C13  1  0.25054915  0.97211625  0.49498824  1
  C  C14  1  0.25054915  0.52788375  0.00501176  1
  C  C15  1  0.24945085  0.52788375  0.49498824  1
  C  C16  1  0.00501176  0.24945085  0.97211625  1
  C  C17  1  0.49498824  0.25054915  0.97211625  1
  C  C18  1  0.00501176  0.25054915  0.52788375  1
  C  C19  1  0.49498824  0.24945085  0.52788375  1
  C  C20  1  0.97211625  0.00501176  0.24945085  1
  C  C21  1  0.97211625  0.49498824  0.25054915  1
  C  C22  1  0.52788375  0.00501176  0.25054915  1
  C  C23  1  0.52788375  0.49498824  0.24945085  1
  N  N0  1  0.83567097  0.04276535  0.95279940  1
  N  N1  1  0.66432903  0.04276535  0.54720060  1
  N  N2  1  0.66432903  0.45723465  0.95279940  1
  N  N3  1  0.83567097  0.45723465  0.54720060  1
  N  N4  1  0.95279940  0.83567097  0.04276535  1
  N  N5  1  0.54720060  0.66432903  0.04276535  1
  N  N6  1  0.95279940  0.66432903  0.45723465  1
  N  N7  1  0.54720060  0.83567097  0.45723465  1
  N  N8  1  0.04276535  0.95279940  0.83567097  1
  N  N9  1  0.04276535  0.54720060  0.66432903  1
  N  N10  1  0.45723465  0.95279940  0.66432903  1
  N  N11  1  0.45723465  0.54720060  0.83567097  1
  N  N12  1  0.16432903  0.95723465  0.04720060  1
  N  N13  1  0.33567097  0.95723465  0.45279940  1
  N  N14  1  0.33567097  0.54276535  0.04720060  1
  N  N15  1  0.16432903  0.54276535  0.45279940  1
  N  N16  1  0.04720060  0.16432903  0.95723465  1
  N  N17  1  0.45279940  0.33567097  0.95723465  1
  N  N18  1  0.04720060  0.33567097  0.54276535  1
  N  N19  1  0.45279940  0.16432903  0.54276535  1
  N  N20  1  0.95723465  0.04720060  0.16432903  1
  N  N21  1  0.95723465  0.45279940  0.33567097  1
  N  N22  1  0.54276535  0.04720060  0.33567097  1
  N  N23  1  0.54276535  0.45279940  0.16432903  1
  N  N24  1  0.66494716  0.02853948  0.95176479  1
  N  N25  1  0.83505284  0.02853948  0.54823521  1
  N  N26  1  0.83505284  0.47146052  0.95176479  1
  N  N27  1  0.66494716  0.47146052  0.54823521  1
  N  N28  1  0.95176479  0.66494716  0.02853948  1
  N  N29  1  0.54823521  0.83505284  0.02853948  1
  N  N30  1  0.95176479  0.83505284  0.47146052  1
  N  N31  1  0.54823521  0.66494716  0.47146052  1
  N  N32  1  0.02853948  0.95176479  0.66494716  1
  N  N33  1  0.02853948  0.54823521  0.83505284  1
  N  N34  1  0.47146052  0.95176479  0.83505284  1
  N  N35  1  0.47146052  0.54823521  0.66494716  1
  N  N36  1  0.33505284  0.97146052  0.04823521  1
  N  N37  1  0.16494716  0.97146052  0.45176479  1
  N  N38  1  0.16494716  0.52853948  0.04823521  1
  N  N39  1  0.33505284  0.52853948  0.45176479  1
  N  N40  1  0.04823521  0.33505284  0.97146052  1
  N  N41  1  0.45176479  0.16494716  0.97146052  1
  N  N42  1  0.04823521  0.16494716  0.52853948  1
  N  N43  1  0.45176479  0.33505284  0.52853948  1
  N  N44  1  0.97146052  0.04823521  0.33505284  1
  N  N45  1  0.97146052  0.45176479  0.16494716  1
  N  N46  1  0.52853948  0.04823521  0.16494716  1
  N  N47  1  0.52853948  0.45176479  0.33505284  1
  N  N48  1  0.75034091  0.01209318  0.09099816  1
  N  N49  1  0.74965909  0.01209318  0.40900184  1
  N  N50  1  0.74965909  0.48790682  0.09099816  1
  N  N51  1  0.75034091  0.48790682  0.40900184  1
  N  N52  1  0.09099816  0.75034091  0.01209318  1
  N  N53  1  0.40900184  0.74965909  0.01209318  1
  N  N54  1  0.09099816  0.74965909  0.48790682  1
  N  N55  1  0.40900184  0.75034091  0.48790682  1
  N  N56  1  0.01209318  0.09099816  0.75034091  1
  N  N57  1  0.01209318  0.40900184  0.74965909  1
  N  N58  1  0.48790682  0.09099816  0.74965909  1
  N  N59  1  0.48790682  0.40900184  0.75034091  1
  N  N60  1  0.24965909  0.98790682  0.90900184  1
  N  N61  1  0.25034091  0.98790682  0.59099816  1
  N  N62  1  0.25034091  0.51209318  0.90900184  1
  N  N63  1  0.24965909  0.51209318  0.59099816  1
  N  N64  1  0.90900184  0.24965909  0.98790682  1
  N  N65  1  0.59099816  0.25034091  0.98790682  1
  N  N66  1  0.90900184  0.25034091  0.51209318  1
  N  N67  1  0.59099816  0.24965909  0.51209318  1
  N  N68  1  0.98790682  0.90900184  0.24965909  1
  N  N69  1  0.98790682  0.59099816  0.25034091  1
  N  N70  1  0.51209318  0.90900184  0.25034091  1
  N  N71  1  0.51209318  0.59099816  0.24965909  1
loop_
_geom_bond_atom_site_label_1
_geom_bond_atom_site_label_2
_geom_bond_distance
_geom_bond_site_symmetry_2
H0 N0 1.023661 1_555
H1 N1 1.023661 1_555
H2 N2 1.023661 1_555
H3 N3 1.023661 1_555
H4 N4 1.023661 1_555
H5 N5 1.023661 1_555
H6 N6 1.023661 1_555
H7 N7 1.023661 1_555
H8 N8 1.023661 1_555
H9 N9 1.023661 1_555
H10 N10 1.023661 1_555
H11 N11 1.023661 1_555
H12 N12 1.023661 1_555
H13 N13 1.023661 1_555
H14 N14 1.023661 1_555
H15 N15 1.023661 1_555
H16 N16 1.023661 1_555
H17 N17 1.023661 1_555
H18 N18 1.023661 1_555
H19 N19 1.023661 1_555
H20 N20 1.023661 1_555
H21 N21 1.023661 1_555
H22 N22 1.023661 1_555
H23 N23 1.023661 1_555
H24 N24 1.026153 1_555
H25 N25 1.026153 1_555
H26 N26 1.026153 1_555
H27 N27 1.026153 1_555
H28 N28 1.026153 1_555
H29 N29 1.026153 1_555
H30 N30 1.026153 1_555
H31 N31 1.026153 1_555
H32 N32 1.026153 1_555
H33 N33 1.026153 1_555
H34 N34 1.026153 1_555
H35 N35 1.026153 1_555
H36 N36 1.026153 1_555
H37 N37 1.026153 1_555
H38 N38 1.026153 1_555
H39 N39 1.026153 1_555
H40 N40 1.026153 1_555
H41 N41 1.026153 1_555
H42 N42 1.026153 1_555
H43 N43 1.026153 1_555
H44 N44 1.026153 1_555
H45 N45 1.026153 1_555
H46 N46 1.026153 1_555
H47 N47 1.026153 1_555
H48 N48 1.024962 1_555
H49 N49 1.024962 1_555
H50 N50 1.024962 1_555
H51 N51 1.024962 1_555
H52 N52 1.024962 1_555
H53 N53 1.024962 1_555
H54 N54 1.024962 1_555
H55 N55 1.024962 1_555
H56 N56 1.024962 1_555
H57 N57 1.024962 1_555
H58 N58 1.024962 1_555
H59 N59 1.024962 1_555
H60 N60 1.024962 1_555
H61 N61 1.024962 1_555
H62 N62 1.024962 1_555
H63 N63 1.024962 1_555
H64 N64 1.024962 1_555
H65 N65 1.024962 1_555
H66 N66 1.024962 1_555
H67 N67 1.024962 1_555
H68 N68 1.024962 1_555
H69 N69 1.024962 1_555
H70 N70 1.024962 1_555
H71 N71 1.024962 1_555
H72 N48 1.017052 1_555
H73 N49 1.017052 1_555
H74 N50 1.017052 1_555
H75 N51 1.017052 1_555
H76 N52 1.017052 1_555
H77 N53 1.017052 1_555
H78 N54 1.017052 1_555
H79 N55 1.017052 1_555
H80 N56 1.017052 1_555
H81 N57 1.017052 1_555
H82 N58 1.017052 1_555
H83 N59 1.017052 1_555
H84 N60 1.017052 1_555
H85 N61 1.017052 1_555
H86 N62 1.017052 1_555
H87 N63 1.017052 1_555
H88 N64 1.017052 1_555
H89 N65 1.017052 1_555
H90 N66 1.017052 1_555
H91 N67 1.017052 1_555
H92 N68 1.017052 1_555
H93 N69 1.017052 1_555
H94 N70 1.017052 1_555
H95 N71 1.017052 1_555
C0 N24 1.347141 1_555
C0 N0 1.350849 1_555
C0 N48 1.366838 1_556
C1 N25 1.347141 1_555
C1 N1 1.350849 1_555
C1 N49 1.366838 1_555
C2 N26 1.347141 1_555
C2 N2 1.350849 1_555
C2 N50 1.366838 1_556
C3 N27 1.347141 1_555
C3 N3 1.350849 1_555
C3 N51 1.366838 1_555
C4 N28 1.347141 1_555
C4 N4 1.350849 1_555
C4 N52 1.366838 1_655
C5 N29 1.347141 1_555
C5 N5 1.350849 1_555
C5 N53 1.366838 1_555
C6 N30 1.347141 1_555
C6 N6 1.350849 1_555
C6 N54 1.366838 1_655
C7 N31 1.347141 1_555
C7 N7 1.350849 1_555
C7 N55 1.366838 1_555
C8 N32 1.347141 1_555
C8 N8 1.350849 1_555
C8 N56 1.366838 1_565
C9 N33 1.347141 1_555
C9 N9 1.350849 1_555
C9 N57 1.366838 1_555
C10 N34 1.347141 1_555
C10 N10 1.350849 1_555
C10 N58 1.366838 1_565
C11 N35 1.347141 1_555
C11 N11 1.350849 1_555
C11 N59 1.366838 1_555
C12 N36 1.347141 1_555
C12 N12 1.350849 1_555
C12 N60 1.366838 1_554
C13 N37 1.347141 1_555
C13 N13 1.350849 1_555
C13 N61 1.366838 1_555
C14 N38 1.347141 1_555
C14 N14 1.350849 1_555
C14 N62 1.366838 1_554
C15 N39 1.347141 1_555
C15 N15 1.350849 1_555
C15 N63 1.366838 1_555
C16 N40 1.347141 1_555
C16 N16 1.350849 1_555
C16 N64 1.366838 1_455
C17 N41 1.347141 1_555
C17 N17 1.350849 1_555
C17 N65 1.366838 1_555
C18 N42 1.347141 1_555
C18 N18 1.350849 1_555
C18 N66 1.366838 1_455
C19 N43 1.347141 1_555
C19 N19 1.350849 1_555
C19 N67 1.366838 1_555
C20 N44 1.347141 1_555
C20 N20 1.350849 1_555
C20 N68 1.366838 1_545
C21 N45 1.347141 1_555
C21 N21 1.350849 1_555
C21 N69 1.366838 1_555
C22 N46 1.347141 1_555
C22 N22 1.350849 1_555
C22 N70 1.366838 1_545
C23 N47 1.347141 1_555
C23 N23 1.350849 1_555
C23 N71 1.366838 1_555
N0 Yb3 2.475772 1_656
N1 Yb2 2.475772 1_555
N2 Yb1 2.475772 1_556
N3 Yb0 2.475772 1_655
N4 Yb3 2.475772 1_665
N5 Yb1 2.475772 1_555
N6 Yb0 2.475772 1_655
N7 Yb2 2.475772 1_565
N8 Yb3 2.475772 1_566
N9 Yb0 2.475772 1_555
N10 Yb2 2.475772 1_565
N11 Yb1 2.475772 1_556
N12 Yb3 2.475772 1_565
N13 Yb2 2.475772 1_565
N14 Yb1 2.475772 1_555
N15 Yb0 2.475772 1_555
N16 Yb3 2.475772 1_556
N17 Yb1 2.475772 1_556
N18 Yb0 2.475772 1_555
N19 Yb2 2.475772 1_555
N20 Yb3 2.475772 1_655
N21 Yb0 2.475772 1_655
N22 Yb2 2.475772 1_555
N23 Yb1 2.475772 1_555
N24 Yb4 2.447228 1_556
N25 Yb5 2.447228 1_655
N26 Yb6 2.447228 1_656
N27 Yb7 2.447228 1_555
N28 Yb6 2.447228 1_655
N29 Yb4 2.447228 1_565
N30 Yb5 2.447228 1_665
N31 Yb7 2.447228 1_555
N32 Yb5 2.447228 1_565
N33 Yb6 2.447228 1_556
N34 Yb4 2.447228 1_566
N35 Yb7 2.447228 1_555
N36 Yb4 2.447228 1_565
N37 Yb5 2.447228 1_565
N38 Yb6 2.447228 1_555
N39 Yb7 2.447228 1_555
N40 Yb6 2.447228 1_556
N41 Yb4 2.447228 1_556
N42 Yb5 2.447228 1_555
N43 Yb7 2.447228 1_555
N44 Yb5 2.447228 1_655
N45 Yb6 2.447228 1_655
N46 Yb4 2.447228 1_555
N47 Yb7 2.447228 1_555
