# generated using pymatgen
data_Ta2Ti2NbC5
_symmetry_space_group_name_H-M   'P 1'
_cell_length_a   12.88337202
_cell_length_b   12.88337202
_cell_length_c   12.88337215
_cell_angle_alpha   13.99469448
_cell_angle_beta   13.99469448
_cell_angle_gamma   13.99469412
_symmetry_Int_Tables_number   1
_chemical_formula_structural   Ta2Ti2NbC5
_chemical_formula_sum   'Ta2 Ti2 Nb1 C5'
_cell_volume   108.84303473
_cell_formula_units_Z   1
loop_
 _symmetry_equiv_pos_site_id
 _symmetry_equiv_pos_as_xyz
  1  'x, y, z'
loop_
 _atom_site_type_symbol
 _atom_site_label
 _atom_site_symmetry_multiplicity
 _atom_site_fract_x
 _atom_site_fract_y
 _atom_site_fract_z
 _atom_site_occupancy
  Ta  Ta0  1  0.90000900  0.90000900  0.90000900  1
  Ta  Ta1  1  0.49843800  0.49843800  0.49843800  1
  Ti  Ti0  1  0.09867700  0.09867700  0.09867700  1
  Ti  Ti1  1  0.70121900  0.70121900  0.70121900  1
  Nb  Nb0  1  0.30162000  0.30162000  0.30162000  1
  C  C0  1  0.40016900  0.40016900  0.40016900  1
  C  C1  1  0.19934400  0.19934400  0.19934400  1
  C  C2  1  0.79853900  0.79853900  0.79853900  1
  C  C3  1  0.00204000  0.00204000  0.00204000  1
  C  C4  1  0.59994500  0.59994500  0.59994500  1
loop_
_geom_bond_atom_site_label_1
_geom_bond_atom_site_label_2
_geom_bond_distance
_geom_bond_site_symmetry_2
C0 Ti0 2.183805 1_655
C0 Ti0 2.183805 1_565
C0 Ti0 2.183805 1_556
C0 Ti1 2.193287 1_455
C0 Ti1 2.193287 1_545
C0 Ti1 2.193287 1_554
C1 Ta0 2.230909 1_454
C1 Ta0 2.230909 1_544
C1 Ta0 2.230909 1_445
C1 Ta1 2.236300 1_545
C1 Ta1 2.236300 1_455
C1 Ta1 2.236300 1_554
C2 Ti0 2.213131 1_566
C2 Ti0 2.213131 1_656
C2 Ti0 2.213131 1_665
C2 Ta1 2.213944 1_565
C2 Ta1 2.213944 1_655
C2 Ta1 2.213944 1_556
C3 Ti1 2.198234 1_544
C3 Ti1 2.198234 1_454
C3 Ti1 2.198235 1_445
C3 Nb0 2.225455 1_455
C3 Nb0 2.225455 1_545
C3 Nb0 2.225455 1_554
C4 Ta0 2.214757 1_455
C4 Ta0 2.214757 1_545
C4 Ta0 2.214758 1_554
C4 Nb0 2.253666 1_565
C4 Nb0 2.253666 1_655
C4 Nb0 2.253666 1_556
