# generated using pymatgen
data_Al3Ni2Pt
_symmetry_space_group_name_H-M   'P 1'
_cell_length_a   5.93261600
_cell_length_b   5.93261600
_cell_length_c   17.73679200
_cell_angle_alpha   90.00000000
_cell_angle_beta   90.00000000
_cell_angle_gamma   90.00000000
_symmetry_Int_Tables_number   1
_chemical_formula_structural   Al3Ni2Pt
_chemical_formula_sum   'Al24 Ni16 Pt8'
_cell_volume   624.26293583
_cell_formula_units_Z   8
loop_
 _symmetry_equiv_pos_site_id
 _symmetry_equiv_pos_as_xyz
  1  'x, y, z'
loop_
 _atom_site_type_symbol
 _atom_site_label
 _atom_site_symmetry_multiplicity
 _atom_site_fract_x
 _atom_site_fract_y
 _atom_site_fract_z
 _atom_site_occupancy
  Al  Al0_0  1  0.25000000  0.25000000  0.09187250  1
  Al  Al0_1  1  0.25000000  0.25000000  0.59187250  1
  Al  Al0_2  1  0.25000000  0.75000000  0.09187250  1
  Al  Al0_3  1  0.25000000  0.75000000  0.59187250  1
  Al  Al0_4  1  0.75000000  0.25000000  0.09187250  1
  Al  Al0_5  1  0.75000000  0.25000000  0.59187250  1
  Al  Al0_6  1  0.75000000  0.75000000  0.09187250  1
  Al  Al0_7  1  0.75000000  0.75000000  0.59187250  1
  Al  Al1_0  1  0.25000000  0.25000000  0.25000000  1
  Al  Al1_1  1  0.25000000  0.25000000  0.75000000  1
  Al  Al1_2  1  0.25000000  0.75000000  0.25000000  1
  Al  Al1_3  1  0.25000000  0.75000000  0.75000000  1
  Al  Al1_4  1  0.75000000  0.25000000  0.25000000  1
  Al  Al1_5  1  0.75000000  0.25000000  0.75000000  1
  Al  Al1_6  1  0.75000000  0.75000000  0.25000000  1
  Al  Al1_7  1  0.75000000  0.75000000  0.75000000  1
  Al  Al2_0  1  0.25000000  0.25000000  0.40812750  1
  Al  Al2_1  1  0.25000000  0.25000000  0.90812750  1
  Al  Al2_2  1  0.25000000  0.75000000  0.40812750  1
  Al  Al2_3  1  0.25000000  0.75000000  0.90812750  1
  Al  Al2_4  1  0.75000000  0.25000000  0.40812750  1
  Al  Al2_5  1  0.75000000  0.25000000  0.90812750  1
  Al  Al2_6  1  0.75000000  0.75000000  0.40812750  1
  Al  Al2_7  1  0.75000000  0.75000000  0.90812750  1
  Ni  Ni0_0  1  0.00000000  0.00000000  0.16713250  1
  Ni  Ni0_1  1  0.00000000  0.00000000  0.66713250  1
  Ni  Ni0_2  1  0.00000000  0.50000000  0.16713250  1
  Ni  Ni0_3  1  0.00000000  0.50000000  0.66713250  1
  Ni  Ni0_4  1  0.50000000  0.00000000  0.16713250  1
  Ni  Ni0_5  1  0.50000000  0.00000000  0.66713250  1
  Ni  Ni0_6  1  0.50000000  0.50000000  0.16713250  1
  Ni  Ni0_7  1  0.50000000  0.50000000  0.66713250  1
  Ni  Ni1_0  1  0.00000000  0.00000000  0.33286750  1
  Ni  Ni1_1  1  0.00000000  0.00000000  0.83286750  1
  Ni  Ni1_2  1  0.00000000  0.50000000  0.33286750  1
  Ni  Ni1_3  1  0.00000000  0.50000000  0.83286750  1
  Ni  Ni1_4  1  0.50000000  0.00000000  0.33286750  1
  Ni  Ni1_5  1  0.50000000  0.00000000  0.83286750  1
  Ni  Ni1_6  1  0.50000000  0.50000000  0.33286750  1
  Ni  Ni1_7  1  0.50000000  0.50000000  0.83286750  1
  Pt  Pt0_0  1  0.00000000  0.00000000  0.00000000  1
  Pt  Pt0_1  1  0.00000000  0.00000000  0.50000000  1
  Pt  Pt0_2  1  0.00000000  0.50000000  0.00000000  1
  Pt  Pt0_3  1  0.00000000  0.50000000  0.50000000  1
  Pt  Pt0_4  1  0.50000000  0.00000000  0.00000000  1
  Pt  Pt0_5  1  0.50000000  0.00000000  0.50000000  1
  Pt  Pt0_6  1  0.50000000  0.50000000  0.00000000  1
  Pt  Pt0_7  1  0.50000000  0.50000000  0.50000000  1
loop_
_geom_bond_atom_site_label_1
_geom_bond_atom_site_label_2
_geom_bond_distance
_geom_bond_site_symmetry_2
Al0_0 Ni0_6 2.486237 1_555
Al0_0 Ni0_0 2.486237 1_555
Al0_0 Ni0_4 2.486237 1_555
Al0_0 Ni0_2 2.486237 1_555
Al0_0 Pt0_6 2.656095 1_555
Al0_0 Pt0_2 2.656095 1_555
Al0_0 Pt0_0 2.656095 1_555
Al0_0 Pt0_4 2.656095 1_555
Al0_1 Ni0_5 2.486237 1_555
Al0_1 Ni0_1 2.486237 1_555
Al0_1 Ni0_3 2.486237 1_555
Al0_1 Ni0_7 2.486237 1_555
Al0_1 Pt0_3 2.656095 1_555
Al0_1 Pt0_1 2.656095 1_555
Al0_1 Pt0_5 2.656095 1_555
Al0_1 Pt0_7 2.656095 1_555
Al0_2 Ni0_0 2.486237 1_565
Al0_2 Ni0_6 2.486237 1_555
Al0_2 Ni0_4 2.486237 1_565
Al0_2 Ni0_2 2.486237 1_555
Al0_2 Pt0_4 2.656095 1_565
Al0_2 Pt0_2 2.656095 1_555
Al0_2 Pt0_6 2.656095 1_555
Al0_2 Pt0_0 2.656095 1_565
Al0_3 Ni0_1 2.486237 1_565
Al0_3 Ni0_5 2.486237 1_565
Al0_3 Ni0_3 2.486237 1_555
Al0_3 Ni0_7 2.486237 1_555
Al0_3 Pt0_3 2.656095 1_555
Al0_3 Pt0_7 2.656095 1_555
Al0_3 Pt0_1 2.656095 1_565
Al0_3 Pt0_5 2.656095 1_565
Al0_4 Ni0_2 2.486237 1_655
Al0_4 Ni0_6 2.486237 1_555
Al0_4 Ni0_4 2.486237 1_555
Al0_4 Ni0_0 2.486237 1_655
Al0_4 Pt0_6 2.656095 1_555
Al0_4 Pt0_2 2.656095 1_655
Al0_4 Pt0_4 2.656095 1_555
Al0_4 Pt0_0 2.656095 1_655
Al0_5 Ni0_3 2.486237 1_655
Al0_5 Ni0_5 2.486237 1_555
Al0_5 Ni0_1 2.486237 1_655
Al0_5 Ni0_7 2.486237 1_555
Al0_5 Pt0_3 2.656095 1_655
Al0_5 Pt0_5 2.656095 1_555
Al0_5 Pt0_7 2.656095 1_555
Al0_5 Pt0_1 2.656095 1_655
Al0_6 Ni0_2 2.486237 1_655
Al0_6 Ni0_6 2.486237 1_555
Al0_6 Ni0_4 2.486237 1_565
Al0_6 Ni0_0 2.486237 1_665
Al0_6 Pt0_0 2.656095 1_665
Al0_6 Pt0_4 2.656095 1_565
Al0_6 Pt0_6 2.656095 1_555
Al0_6 Pt0_2 2.656095 1_655
Al0_7 Ni0_3 2.486237 1_655
Al0_7 Ni0_5 2.486237 1_565
Al0_7 Ni0_1 2.486237 1_665
Al0_7 Ni0_7 2.486237 1_555
Al0_7 Pt0_3 2.656095 1_655
Al0_7 Pt0_7 2.656095 1_555
Al0_7 Pt0_1 2.656095 1_665
Al0_7 Pt0_5 2.656095 1_565
Al1_0 Ni0_0 2.561213 1_555
Al1_0 Ni1_4 2.561213 1_555
Al1_0 Ni0_2 2.561213 1_555
Al1_0 Ni1_6 2.561213 1_555
Al1_0 Ni0_4 2.561213 1_555
Al1_0 Ni1_0 2.561213 1_555
Al1_0 Ni0_6 2.561213 1_555
Al1_0 Ni1_2 2.561213 1_555
Al1_1 Ni0_3 2.561213 1_555
Al1_1 Ni0_7 2.561213 1_555
Al1_1 Ni0_1 2.561213 1_555
Al1_1 Ni0_5 2.561213 1_555
Al1_1 Ni1_3 2.561213 1_555
Al1_1 Ni1_7 2.561213 1_555
Al1_1 Ni1_1 2.561213 1_555
Al1_1 Ni1_5 2.561213 1_555
Al1_2 Ni0_4 2.561213 1_565
Al1_2 Ni0_2 2.561213 1_555
Al1_2 Ni1_6 2.561213 1_555
Al1_2 Ni1_0 2.561213 1_565
Al1_2 Ni0_0 2.561213 1_565
Al1_2 Ni1_4 2.561213 1_565
Al1_2 Ni0_6 2.561213 1_555
Al1_2 Ni1_2 2.561213 1_555
Al1_3 Ni0_3 2.561213 1_555
Al1_3 Ni0_7 2.561213 1_555
Al1_3 Ni0_1 2.561213 1_565
Al1_3 Ni0_5 2.561213 1_565
Al1_3 Ni1_1 2.561213 1_565
Al1_3 Ni1_3 2.561213 1_555
Al1_3 Ni1_7 2.561213 1_555
Al1_3 Ni1_5 2.561213 1_565
Al1_4 Ni1_0 2.561213 1_655
Al1_4 Ni1_4 2.561213 1_555
Al1_4 Ni0_0 2.561213 1_655
Al1_4 Ni1_6 2.561213 1_555
Al1_4 Ni0_4 2.561213 1_555
Al1_4 Ni1_2 2.561213 1_655
Al1_4 Ni0_2 2.561213 1_655
Al1_4 Ni0_6 2.561213 1_555
Al1_5 Ni0_7 2.561213 1_555
Al1_5 Ni1_1 2.561213 1_655
Al1_5 Ni0_3 2.561213 1_655
Al1_5 Ni0_5 2.561213 1_555
Al1_5 Ni0_1 2.561213 1_655
Al1_5 Ni1_3 2.561213 1_655
Al1_5 Ni1_7 2.561213 1_555
Al1_5 Ni1_5 2.561213 1_555
Al1_6 Ni0_4 2.561213 1_565
Al1_6 Ni1_6 2.561213 1_555
Al1_6 Ni0_0 2.561213 1_665
Al1_6 Ni1_0 2.561213 1_665
Al1_6 Ni1_2 2.561213 1_655
Al1_6 Ni1_4 2.561213 1_565
Al1_6 Ni0_2 2.561213 1_655
Al1_6 Ni0_6 2.561213 1_555
Al1_7 Ni0_7 2.561213 1_555
Al1_7 Ni0_3 2.561213 1_655
Al1_7 Ni1_1 2.561213 1_665
Al1_7 Ni0_5 2.561213 1_565
Al1_7 Ni0_1 2.561213 1_665
Al1_7 Ni1_3 2.561213 1_655
Al1_7 Ni1_7 2.561213 1_555
Al1_7 Ni1_5 2.561213 1_565
Al2_0 Ni1_6 2.486237 1_555
Al2_0 Ni1_4 2.486237 1_555
Al2_0 Ni1_0 2.486237 1_555
Al2_0 Ni1_2 2.486237 1_555
Al2_0 Pt0_5 2.656095 1_555
Al2_0 Pt0_1 2.656095 1_555
Al2_0 Pt0_3 2.656095 1_555
Al2_0 Pt0_7 2.656095 1_555
Al2_1 Ni1_3 2.486237 1_555
Al2_1 Ni1_7 2.486237 1_555
Al2_1 Ni1_1 2.486237 1_555
Al2_1 Ni1_5 2.486237 1_555
Al2_1 Pt0_0 2.656095 1_556
Al2_1 Pt0_4 2.656095 1_556
Al2_1 Pt0_2 2.656095 1_556
Al2_1 Pt0_6 2.656095 1_556
Al2_2 Ni1_6 2.486237 1_555
Al2_2 Ni1_0 2.486237 1_565
Al2_2 Ni1_4 2.486237 1_565
Al2_2 Ni1_2 2.486237 1_555
Al2_2 Pt0_1 2.656095 1_565
Al2_2 Pt0_5 2.656095 1_565
Al2_2 Pt0_3 2.656095 1_555
Al2_2 Pt0_7 2.656095 1_555
Al2_3 Ni1_1 2.486237 1_565
Al2_3 Ni1_3 2.486237 1_555
Al2_3 Ni1_7 2.486237 1_555
Al2_3 Ni1_5 2.486237 1_565
Al2_3 Pt0_0 2.656095 1_566
Al2_3 Pt0_2 2.656095 1_556
Al2_3 Pt0_4 2.656095 1_566
Al2_3 Pt0_6 2.656095 1_556
Al2_4 Ni1_6 2.486237 1_555
Al2_4 Ni1_4 2.486237 1_555
Al2_4 Ni1_2 2.486237 1_655
Al2_4 Ni1_0 2.486237 1_655
Al2_4 Pt0_1 2.656095 1_655
Al2_4 Pt0_5 2.656095 1_555
Al2_4 Pt0_3 2.656095 1_655
Al2_4 Pt0_7 2.656095 1_555
Al2_5 Ni1_1 2.486237 1_655
Al2_5 Ni1_3 2.486237 1_655
Al2_5 Ni1_7 2.486237 1_555
Al2_5 Ni1_5 2.486237 1_555
Al2_5 Pt0_4 2.656095 1_556
Al2_5 Pt0_0 2.656095 1_656
Al2_5 Pt0_6 2.656095 1_556
Al2_5 Pt0_2 2.656095 1_656
Al2_6 Ni1_6 2.486237 1_555
Al2_6 Ni1_2 2.486237 1_655
Al2_6 Ni1_0 2.486237 1_665
Al2_6 Ni1_4 2.486237 1_565
Al2_6 Pt0_1 2.656095 1_665
Al2_6 Pt0_5 2.656095 1_565
Al2_6 Pt0_3 2.656095 1_655
Al2_6 Pt0_7 2.656095 1_555
Al2_7 Ni1_1 2.486237 1_665
Al2_7 Ni1_3 2.486237 1_655
Al2_7 Ni1_7 2.486237 1_555
Al2_7 Ni1_5 2.486237 1_565
Al2_7 Pt0_0 2.656095 1_666
Al2_7 Pt0_4 2.656095 1_566
Al2_7 Pt0_6 2.656095 1_556
Al2_7 Pt0_2 2.656095 1_656
Ni0_0 Pt0_0 2.964394 1_555
Ni0_1 Pt0_1 2.964394 1_555
Ni0_2 Pt0_2 2.964394 1_555
Ni0_3 Pt0_3 2.964394 1_555
Ni0_4 Pt0_4 2.964394 1_555
Ni0_5 Pt0_5 2.964394 1_555
Ni0_6 Pt0_6 2.964394 1_555
Ni0_7 Pt0_7 2.964394 1_555
Ni1_0 Pt0_1 2.964394 1_555
Ni1_1 Pt0_0 2.964394 1_556
Ni1_2 Pt0_3 2.964394 1_555
Ni1_3 Pt0_2 2.964394 1_556
Ni1_4 Pt0_5 2.964394 1_555
Ni1_5 Pt0_4 2.964394 1_556
Ni1_6 Pt0_7 2.964394 1_555
Ni1_7 Pt0_6 2.964394 1_556
Pt0_0 Pt0_4 2.966308 1_555
Pt0_0 Pt0_2 2.966308 1_545
Pt0_0 Pt0_2 2.966308 1_555
Pt0_0 Pt0_4 2.966308 1_455
Pt0_1 Pt0_5 2.966308 1_455
Pt0_1 Pt0_5 2.966308 1_555
Pt0_1 Pt0_3 2.966308 1_555
Pt0_1 Pt0_3 2.966308 1_545
Pt0_2 Pt0_6 2.966308 1_455
Pt0_2 Pt0_6 2.966308 1_555
Pt0_3 Pt0_7 2.966308 1_555
Pt0_3 Pt0_7 2.966308 1_455
Pt0_4 Pt0_6 2.966308 1_545
Pt0_4 Pt0_6 2.966308 1_555
Pt0_5 Pt0_7 2.966308 1_545
Pt0_5 Pt0_7 2.966308 1_555
