# generated using pymatgen
data_UH2Cl2O3
_symmetry_space_group_name_H-M   'P 1'
_cell_length_a   5.99444070
_cell_length_b   6.36755298
_cell_length_c   8.69052900
_cell_angle_alpha   90.00000000
_cell_angle_beta   90.00000000
_cell_angle_gamma   103.07254726
_symmetry_Int_Tables_number   1
_chemical_formula_structural   UH2Cl2O3
_chemical_formula_sum   'U2 H4 Cl4 O6'
_cell_volume   323.12016371
_cell_formula_units_Z   2
loop_
 _symmetry_equiv_pos_site_id
 _symmetry_equiv_pos_as_xyz
  1  'x, y, z'
loop_
 _atom_site_type_symbol
 _atom_site_label
 _atom_site_symmetry_multiplicity
 _atom_site_fract_x
 _atom_site_fract_y
 _atom_site_fract_z
 _atom_site_occupancy
  U  U0  1  0.08087300  0.08411800  0.25000000  1
  U  U1  1  0.91912700  0.91588200  0.75000000  1
  H  H0  1  0.45779500  0.50150100  0.16049000  1
  H  H1  1  0.54220500  0.49849900  0.66049000  1
  H  H2  1  0.54220500  0.49849900  0.83951000  1
  H  H3  1  0.45779500  0.50150100  0.33951000  1
  Cl  Cl0  1  0.18668100  0.22114400  0.94677400  1
  Cl  Cl1  1  0.81331900  0.77885600  0.44677400  1
  Cl  Cl2  1  0.81331900  0.77885600  0.05322600  1
  Cl  Cl3  1  0.18668100  0.22114400  0.55322600  1
  O  O0  1  0.86424300  0.23562300  0.25000000  1
  O  O1  1  0.13575700  0.76437700  0.75000000  1
  O  O2  1  0.30014900  0.93594900  0.25000000  1
  O  O3  1  0.69985100  0.06405100  0.75000000  1
  O  O4  1  0.37727400  0.42864400  0.25000000  1
  O  O5  1  0.62272600  0.57135600  0.75000000  1
loop_
_geom_bond_atom_site_label_1
_geom_bond_atom_site_label_2
_geom_bond_distance
_geom_bond_site_symmetry_2
H0 O4 0.975713 1_555
H1 O5 0.975713 1_555
H2 O5 0.975713 1_555
H3 O4 0.975713 1_555
Cl0 U0 2.803120 1_556
Cl0 U1 2.804394 1_445
Cl1 U1 2.803120 1_555
Cl1 U0 2.804394 1_665
Cl2 U1 2.803120 1_554
Cl2 U0 2.804394 1_665
Cl3 U0 2.803120 1_555
Cl3 U1 2.804394 1_445
O0 U0 1.784288 1_655
O1 U1 1.784288 1_455
O2 U0 1.782943 1_565
O3 U1 1.782943 1_545
