# generated using pymatgen
data_CeMg14BO16
_symmetry_space_group_name_H-M   'P 1'
_cell_length_a   8.75395510
_cell_length_b   8.78613581
_cell_length_c   4.36610457
_cell_angle_alpha   90.00000000
_cell_angle_beta   90.00000000
_cell_angle_gamma   90.00000000
_symmetry_Int_Tables_number   1
_chemical_formula_structural   CeMg14BO16
_chemical_formula_sum   'Ce1 Mg14 B1 O16'
_cell_volume   335.81211482
_cell_formula_units_Z   1
loop_
 _symmetry_equiv_pos_site_id
 _symmetry_equiv_pos_as_xyz
  1  'x, y, z'
loop_
 _atom_site_type_symbol
 _atom_site_label
 _atom_site_symmetry_multiplicity
 _atom_site_fract_x
 _atom_site_fract_y
 _atom_site_fract_z
 _atom_site_occupancy
  Ce  Ce0  1  0.00000000  0.00000000  0.00000000  1
  Mg  Mg0  1  0.50000000  0.00000000  0.00000000  1
  Mg  Mg1  1  0.50000000  0.50000000  0.00000000  1
  Mg  Mg2  1  0.00000000  0.27313587  0.50000000  1
  Mg  Mg3  1  0.00000000  0.72686413  0.50000000  1
  Mg  Mg4  1  0.50000000  0.25525456  0.50000000  1
  Mg  Mg5  1  0.50000000  0.74474544  0.50000000  1
  Mg  Mg6  1  0.26687145  0.00000000  0.50000000  1
  Mg  Mg7  1  0.24862392  0.50000000  0.50000000  1
  Mg  Mg8  1  0.73312855  0.00000000  0.50000000  1
  Mg  Mg9  1  0.75137608  0.50000000  0.50000000  1
  Mg  Mg10  1  0.25624047  0.26428224  -0.00000000  1
  Mg  Mg11  1  0.25624047  0.73571776  -0.00000000  1
  Mg  Mg12  1  0.74375953  0.26428224  0.00000000  1
  Mg  Mg13  1  0.74375953  0.73571776  0.00000000  1
  B  B0  1  0.00000000  0.50000000  0.00000000  1
  O  O0  1  0.26697074  0.00000000  -0.00000000  1
  O  O1  1  0.27025149  0.50000000  0.00000000  1
  O  O2  1  0.73302926  0.00000000  -0.00000000  1
  O  O3  1  0.72974851  0.50000000  -0.00000000  1
  O  O4  1  0.24836606  0.24961421  0.50000000  1
  O  O5  1  0.24836606  0.75038579  0.50000000  1
  O  O6  1  0.75163394  0.24961421  0.50000000  1
  O  O7  1  0.75163394  0.75038579  0.50000000  1
  O  O8  1  0.00000000  0.00000000  0.50000000  1
  O  O9  1  0.00000000  0.50000000  0.50000000  1
  O  O10  1  0.50000000  0.00000000  0.50000000  1
  O  O11  1  0.50000000  0.50000000  0.50000000  1
  O  O12  1  0.00000000  0.25483949  0.00000000  1
  O  O13  1  0.00000000  0.74516051  0.00000000  1
  O  O14  1  0.50000000  0.24905018  0.00000000  1
  O  O15  1  0.50000000  0.75094982  -0.00000000  1
loop_
_geom_bond_atom_site_label_1
_geom_bond_atom_site_label_2
_geom_bond_distance
_geom_bond_site_symmetry_2
Ce0 O8 2.183052 1_554
Ce0 O8 2.183052 1_555
Ce0 O13 2.239054 1_545
Ce0 O12 2.239054 1_555
Ce0 O0 2.337050 1_555
Ce0 O2 2.337050 1_455
Mg0 O2 2.039928 1_555
Mg0 O0 2.039928 1_555
Mg0 O10 2.183052 1_555
Mg0 O10 2.183052 1_554
Mg0 O15 2.188189 1_545
Mg0 O14 2.188189 1_555
Mg1 O3 2.011208 1_555
Mg1 O1 2.011208 1_555
Mg1 O11 2.183052 1_554
Mg1 O11 2.183052 1_555
Mg1 O15 2.204879 1_555
Mg1 O14 2.204879 1_555
Mg2 O9 1.993259 1_555
Mg2 O6 2.183985 1_455
Mg2 O4 2.183985 1_555
Mg2 O12 2.188963 1_556
Mg2 O12 2.188963 1_555
Mg2 O8 2.399809 1_555
Mg3 O9 1.993259 1_555
Mg3 O7 2.183985 1_455
Mg3 O5 2.183985 1_555
Mg3 O13 2.188963 1_556
Mg3 O13 2.188963 1_555
Mg3 O8 2.399809 1_565
Mg4 O11 2.150367 1_555
Mg4 O14 2.183733 1_556
Mg4 O14 2.183733 1_555
Mg4 O4 2.203350 1_555
Mg4 O6 2.203350 1_555
Mg4 O10 2.242701 1_555
Mg5 O11 2.150367 1_555
Mg5 O15 2.183733 1_556
Mg5 O15 2.183733 1_555
Mg5 O5 2.203350 1_555
Mg5 O7 2.203350 1_555
Mg5 O10 2.242701 1_565
Mg6 O10 2.040797 1_555
Mg6 O0 2.183052 1_556
Mg6 O0 2.183052 1_555
Mg6 O5 2.199119 1_545
Mg6 O4 2.199119 1_555
Mg6 O8 2.336181 1_555
Mg7 O9 2.176443 1_555
Mg7 O1 2.191247 1_556
Mg7 O1 2.191247 1_555
Mg7 O4 2.199925 1_555
Mg7 O5 2.199925 1_555
Mg7 O11 2.200535 1_555
Mg8 O10 2.040797 1_555
Mg8 O2 2.183052 1_556
Mg8 O2 2.183052 1_555
Mg8 O7 2.199119 1_545
Mg8 O6 2.199119 1_555
Mg8 O8 2.336181 1_655
Mg9 O9 2.176443 1_655
Mg9 O3 2.191247 1_555
Mg9 O3 2.191247 1_556
Mg9 O6 2.199925 1_555
Mg9 O7 2.199925 1_555
Mg9 O11 2.200535 1_555
Mg10 O1 2.074677 1_555
Mg10 O14 2.138053 1_555
Mg10 O4 2.187939 1_554
Mg10 O4 2.187939 1_555
Mg10 O12 2.244651 1_555
Mg10 O0 2.323919 1_555
Mg11 O1 2.074677 1_555
Mg11 O15 2.138053 1_555
Mg11 O5 2.187939 1_555
Mg11 O5 2.187939 1_554
Mg11 O13 2.244651 1_555
Mg11 O0 2.323919 1_565
Mg12 O3 2.074677 1_555
Mg12 O14 2.138053 1_555
Mg12 O6 2.187939 1_554
Mg12 O6 2.187939 1_555
Mg12 O12 2.244651 1_655
Mg12 O2 2.323919 1_555
Mg13 O3 2.074677 1_555
Mg13 O15 2.138053 1_555
Mg13 O7 2.187939 1_555
Mg13 O7 2.187939 1_554
Mg13 O13 2.244651 1_655
Mg13 O2 2.323919 1_565
B0 O12 2.154014 1_555
B0 O13 2.154014 1_555
B0 O9 2.183052 1_554
B0 O9 2.183052 1_555
