# generated using pymatgen
data_H14Pb6C8O13
_symmetry_space_group_name_H-M   'P 1'
_cell_length_a   7.42985700
_cell_length_b   11.93040686
_cell_length_c   14.18777678
_cell_angle_alpha   113.08198676
_cell_angle_beta   99.78997852
_cell_angle_gamma   90.07367517
_symmetry_Int_Tables_number   1
_chemical_formula_structural   H14Pb6C8O13
_chemical_formula_sum   'H28 Pb12 C16 O26'
_cell_volume   1136.88781872
_cell_formula_units_Z   2
loop_
 _symmetry_equiv_pos_site_id
 _symmetry_equiv_pos_as_xyz
  1  'x, y, z'
loop_
 _atom_site_type_symbol
 _atom_site_label
 _atom_site_symmetry_multiplicity
 _atom_site_fract_x
 _atom_site_fract_y
 _atom_site_fract_z
 _atom_site_occupancy
  H  H0  1  0.29406400  0.55004400  0.34536300  1
  H  H1  1  0.70593600  0.44995600  0.65463700  1
  H  H2  1  0.08276300  0.52572900  0.34264200  1
  H  H3  1  0.91723700  0.47427100  0.65735800  1
  H  H4  1  0.86202700  0.54446900  0.46177300  1
  H  H5  1  0.13797300  0.45553100  0.53822700  1
  H  H6  1  0.71974400  0.66692100  0.47160800  1
  H  H7  1  0.28025600  0.33307900  0.52839200  1
  H  H8  1  0.62934500  0.53236500  0.47641800  1
  H  H9  1  0.37065500  0.46763500  0.52358200  1
  H  H10  1  0.45381400  0.32386700  0.35593100  1
  H  H11  1  0.54618600  0.67613300  0.64406900  1
  H  H12  1  0.33413800  0.17968200  0.32085100  1
  H  H13  1  0.66586200  0.82031800  0.67914900  1
  H  H14  1  0.57784300  0.19007100  0.33384200  1
  H  H15  1  0.42215700  0.80992900  0.66615800  1
  H  H16  1  0.13659000  0.79610700  0.54277500  1
  H  H17  1  0.86341000  0.20389300  0.45722500  1
  H  H18  1  0.93389100  0.86362400  0.51023900  1
  H  H19  1  0.06610900  0.13637600  0.48976100  1
  H  H20  1  0.15633500  0.93007500  0.52013600  1
  H  H21  1  0.84366500  0.06992500  0.47986400  1
  H  H22  1  0.59910100  0.23577600  0.63619100  1
  H  H23  1  0.40089900  0.76422400  0.36380900  1
  H  H24  1  0.61999900  0.10517600  0.66667000  1
  H  H25  1  0.38000100  0.89482400  0.33333000  1
  H  H26  1  0.39819600  0.15759600  0.64346800  1
  H  H27  1  0.60180400  0.84240400  0.35653200  1
  Pb  Pb0  1  0.65699200  0.41360400  0.07998000  1
  Pb  Pb1  1  0.34300800  0.58639600  0.92002000  1
  Pb  Pb2  1  0.92404900  0.22333900  0.20501900  1
  Pb  Pb3  1  0.07595100  0.77666100  0.79498100  1
  Pb  Pb4  1  0.13988100  0.40738900  0.06840600  1
  Pb  Pb5  1  0.86011900  0.59261100  0.93159400  1
  Pb  Pb6  1  0.86528300  0.08922700  0.92128700  1
  Pb  Pb7  1  0.13471700  0.91077300  0.07871300  1
  Pb  Pb8  1  0.05821300  0.27742000  0.78424900  1
  Pb  Pb9  1  0.94178700  0.72258000  0.21575100  1
  Pb  Pb10  1  0.33610700  0.08913900  0.91528400  1
  Pb  Pb11  1  0.66389300  0.91086100  0.08471600  1
  C  C0  1  0.65946800  0.51615500  0.32284500  1
  C  C1  1  0.34053200  0.48384500  0.67715500  1
  C  C2  1  0.72240900  0.56689800  0.44008100  1
  C  C3  1  0.27759100  0.43310200  0.55991900  1
  C  C4  1  0.43033800  0.20804000  0.19579500  1
  C  C5  1  0.56966200  0.79196000  0.80420500  1
  C  C6  1  0.45094700  0.22542100  0.30859500  1
  C  C7  1  0.54905300  0.77457900  0.69140500  1
  C  C8  1  0.08108200  0.96169000  0.66851200  1
  C  C9  1  0.91891800  0.03831000  0.33148800  1
  C  C10  1  0.07511700  0.88309700  0.55351200  1
  C  C11  1  0.92488300  0.11690300  0.44648800  1
  C  C12  1  0.56866300  0.26936400  0.79182400  1
  C  C13  1  0.43133700  0.73063600  0.20817600  1
  C  C14  1  0.54294500  0.18653500  0.67721800  1
  C  C15  1  0.45705500  0.81346500  0.32278200  1
  O  O0  1  0.88561900  0.28514900  0.07391200  1
  O  O1  1  0.11438100  0.71485100  0.92608800  1
  O  O2  1  0.88405200  0.03507800  0.07665200  1
  O  O3  1  0.11594800  0.96492200  0.92334800  1
  O  O4  1  0.11086000  0.46204000  0.91935600  1
  O  O5  1  0.88914000  0.53796000  0.08064400  1
  O  O6  1  0.11131700  0.21547500  0.91847400  1
  O  O7  1  0.88868300  0.78452500  0.08152600  1
  O  O8  1  0.18637200  0.58680000  0.37531000  1
  O  O9  1  0.81362800  0.41320000  0.62469100  1
  O  O10  1  0.78632300  0.48869700  0.26648800  1
  O  O11  1  0.21367700  0.51130300  0.73351200  1
  O  O12  1  0.49112900  0.50348300  0.28421300  1
  O  O13  1  0.50887100  0.49651700  0.71578700  1
  O  O14  1  0.26967700  0.19813500  0.14256300  1
  O  O15  1  0.73032300  0.80186500  0.85743700  1
  O  O16  1  0.57396200  0.20344000  0.15528800  1
  O  O17  1  0.42603800  0.79656000  0.84471200  1
  O  O18  1  0.42896400  0.30335300  0.83495100  1
  O  O19  1  0.57103600  0.69664700  0.16504900  1
  O  O20  1  0.73279500  0.30250700  0.84370400  1
  O  O21  1  0.26720500  0.69749300  0.15629600  1
  O  O22  1  0.24302200  0.99284100  0.72551300  1
  O  O23  1  0.75697800  0.00715900  0.27448700  1
  O  O24  1  0.93314100  0.99135600  0.70160800  1
  O  O25  1  0.06685900  0.00864400  0.29839200  1
loop_
_geom_bond_atom_site_label_1
_geom_bond_atom_site_label_2
_geom_bond_distance
_geom_bond_site_symmetry_2
H0 O8 0.991696 1_555
H1 O9 0.991691 1_555
H2 O8 0.975042 1_555
H3 O9 0.975042 1_555
C0 O12 1.260563 1_555
C0 O10 1.298721 1_555
C1 O13 1.260563 1_555
C1 O11 1.298721 1_555
C2 H4 1.095041 1_555
C2 H8 1.095748 1_555
C2 H6 1.099553 1_555
C3 H5 1.095041 1_555
C3 H9 1.095748 1_555
C3 H7 1.099553 1_555
C4 O14 1.277624 1_555
C4 O16 1.286853 1_555
C5 O15 1.277624 1_555
C5 O17 1.286853 1_555
C6 H14 1.095310 1_555
C6 H12 1.098051 1_555
C6 H10 1.098876 1_555
C7 H15 1.095310 1_555
C7 H13 1.098051 1_555
C7 H11 1.098876 1_555
C8 O24 1.264975 1_455
C8 O22 1.293094 1_555
C9 O25 1.264975 1_655
C9 O23 1.293094 1_555
C10 H18 1.095613 1_455
C10 H20 1.098588 1_555
C10 H16 1.099915 1_555
C11 H19 1.095613 1_655
C11 H21 1.098588 1_555
C11 H17 1.099915 1_555
C12 O18 1.280104 1_555
C12 O20 1.284741 1_555
C13 O19 1.280104 1_555
C13 O21 1.284741 1_555
C14 H26 1.095170 1_555
C14 H22 1.099137 1_555
C14 H24 1.099533 1_555
C15 H27 1.095170 1_555
C15 H23 1.099137 1_555
C15 H25 1.099533 1_555
O0 Pb2 2.231771 1_555
O0 Pb0 2.279139 1_555
O0 Pb4 2.415408 1_655
O0 Pb6 2.468711 1_554
O1 Pb3 2.231771 1_555
O1 Pb1 2.279139 1_555
O1 Pb5 2.415408 1_455
O1 Pb7 2.468711 1_556
O2 Pb2 2.248715 1_555
O2 Pb11 2.252848 1_545
O2 Pb7 2.385647 1_645
O2 Pb6 2.511556 1_554
O3 Pb3 2.248715 1_555
O3 Pb10 2.252848 1_565
O3 Pb6 2.385647 1_465
O3 Pb7 2.511556 1_556
O4 Pb8 2.260770 1_555
O4 Pb1 2.270060 1_555
O4 Pb5 2.415124 1_455
O4 Pb4 2.422791 1_556
O5 Pb9 2.260770 1_555
O5 Pb0 2.270060 1_555
O5 Pb4 2.415124 1_655
O5 Pb5 2.422791 1_554
O6 Pb10 2.245426 1_555
O6 Pb8 2.275334 1_555
O6 Pb6 2.382570 1_455
O6 Pb4 2.416332 1_556
O7 Pb11 2.245426 1_555
O7 Pb9 2.275334 1_555
O7 Pb7 2.382570 1_655
O7 Pb5 2.416332 1_554
O10 Pb0 2.449951 1_555
O11 Pb1 2.449951 1_555
O16 Pb2 2.561804 1_555
O17 Pb3 2.561804 1_555
O18 Pb8 2.711196 1_555
O19 Pb9 2.711196 1_555
O20 Pb8 2.672904 1_655
O21 Pb9 2.672904 1_455
O22 Pb10 2.446772 1_565
O23 Pb11 2.446772 1_545
