# generated using pymatgen
data_ZrHCl
_symmetry_space_group_name_H-M   'P 1'
_cell_length_a   3.35918874
_cell_length_b   3.35918874
_cell_length_c   9.99707500
_cell_angle_alpha   90.00000000
_cell_angle_beta   90.00000000
_cell_angle_gamma   120.00001460
_symmetry_Int_Tables_number   1
_chemical_formula_structural   ZrHCl
_chemical_formula_sum   'Zr2 H2 Cl2'
_cell_volume   97.69499841
_cell_formula_units_Z   2
loop_
 _symmetry_equiv_pos_site_id
 _symmetry_equiv_pos_as_xyz
  1  'x, y, z'
loop_
 _atom_site_type_symbol
 _atom_site_label
 _atom_site_symmetry_multiplicity
 _atom_site_fract_x
 _atom_site_fract_y
 _atom_site_fract_z
 _atom_site_occupancy
  Zr  Zr0  1  0.33333300  0.66666700  0.64913000  1
  Zr  Zr1  1  0.66666700  0.33333300  0.35087000  1
  H  H0  1  0.33333300  0.66666700  0.44390800  1
  H  H1  1  0.66666700  0.33333300  0.55609200  1
  Cl  Cl0  1  0.33333300  0.66666700  0.17420400  1
  Cl  Cl1  1  0.66666700  0.33333300  0.82579600  1
loop_
_geom_bond_atom_site_label_1
_geom_bond_atom_site_label_2
_geom_bond_distance
_geom_bond_site_symmetry_2
H0 Zr0 2.051620 1_555
H0 Zr1 2.150924 1_565
H0 Zr1 2.150924 1_455
H0 Zr1 2.150930 1_555
H1 Zr1 2.051620 1_555
H1 Zr0 2.150924 1_545
H1 Zr0 2.150924 1_655
H1 Zr0 2.150930 1_555
Cl0 Zr1 2.623097 1_455
Cl0 Zr1 2.623097 1_565
Cl0 Zr1 2.623101 1_555
Cl1 Zr0 2.623097 1_655
Cl1 Zr0 2.623097 1_545
Cl1 Zr0 2.623101 1_555
