# generated using pymatgen
data_Cs3H(SeO4)2
_symmetry_space_group_name_H-M   'P 1'
_cell_length_a   8.86001372
_cell_length_b   8.86001372
_cell_length_c   11.24088476
_cell_angle_alpha   78.98887130
_cell_angle_beta   78.98887130
_cell_angle_gamma   43.05157806
_symmetry_Int_Tables_number   1
_chemical_formula_structural   Cs3H(SeO4)2
_chemical_formula_sum   'Cs6 H2 Se4 O16'
_cell_volume   589.54747823
_cell_formula_units_Z   2
loop_
 _symmetry_equiv_pos_site_id
 _symmetry_equiv_pos_as_xyz
  1  'x, y, z'
loop_
 _atom_site_type_symbol
 _atom_site_label
 _atom_site_symmetry_multiplicity
 _atom_site_fract_x
 _atom_site_fract_y
 _atom_site_fract_z
 _atom_site_occupancy
  Cs  Cs0  1  0.74588600  0.25411400  0.25000000  1
  Cs  Cs1  1  0.25411400  0.74588600  0.75000000  1
  Cs  Cs2  1  0.91567000  0.46612800  0.84783900  1
  Cs  Cs3  1  0.46612800  0.91567000  0.34783900  1
  Cs  Cs4  1  0.08433000  0.53387200  0.15216100  1
  Cs  Cs5  1  0.53387200  0.08433000  0.65216100  1
  H  H0  1  0.00000000  0.00000000  0.00000000  1
  H  H1  1  0.00000000  0.00000000  0.50000000  1
  Se  Se0  1  0.32916200  0.90170300  0.03471500  1
  Se  Se1  1  0.90170300  0.32916200  0.53471500  1
  Se  Se2  1  0.67083800  0.09829700  0.96528500  1
  Se  Se3  1  0.09829700  0.67083800  0.46528500  1
  O  O0  1  0.17197400  0.13865900  0.09861100  1
  O  O1  1  0.13865900  0.17197400  0.59861100  1
  O  O2  1  0.82802600  0.86134100  0.90138900  1
  O  O3  1  0.86134100  0.82802600  0.40138900  1
  O  O4  1  0.17216300  0.84824200  0.05037300  1
  O  O5  1  0.84824200  0.17216300  0.55037300  1
  O  O6  1  0.82783700  0.15175800  0.94962700  1
  O  O7  1  0.15175800  0.82783700  0.44962700  1
  O  O8  1  0.38361300  0.92445700  0.88583900  1
  O  O9  1  0.92445700  0.38361300  0.38583900  1
  O  O10  1  0.61638700  0.07554300  0.11416100  1
  O  O11  1  0.07554300  0.61638700  0.61416100  1
  O  O12  1  0.55819700  0.68757400  0.10547400  1
  O  O13  1  0.68757400  0.55819700  0.60547400  1
  O  O14  1  0.44180300  0.31242600  0.89452600  1
  O  O15  1  0.31242600  0.44180300  0.39452600  1
loop_
_geom_bond_atom_site_label_1
_geom_bond_atom_site_label_2
_geom_bond_distance
_geom_bond_site_symmetry_2
Cs0 O12 3.077146 1_555
Cs0 O15 3.077146 1_555
Cs0 O9 3.224330 1_555
Cs0 O10 3.224330 1_555
Cs0 H1 3.259928 1_655
Cs0 H0 3.259928 1_655
Cs0 O3 3.280414 1_545
Cs0 O0 3.280414 1_655
Cs0 O6 3.467122 1_554
Cs0 O5 3.467122 1_555
Cs0 O4 3.496732 1_645
Cs0 O7 3.496732 1_645
Cs1 O14 3.077146 1_555
Cs1 O13 3.077146 1_555
Cs1 O8 3.224330 1_555
Cs1 O11 3.224330 1_555
Cs1 H0 3.259928 1_566
Cs1 H1 3.259928 1_565
Cs1 O2 3.280414 1_455
Cs1 O1 3.280414 1_565
Cs1 O4 3.467122 1_556
Cs1 O7 3.467122 1_555
Cs1 O5 3.496732 1_465
Cs1 O6 3.496732 1_465
Cs2 O2 3.143123 1_555
Cs2 O11 3.267627 1_655
Cs2 O8 3.288063 1_555
Cs2 O13 3.319171 1_555
Cs2 O0 3.348567 1_656
Cs2 O8 3.349295 1_645
Cs2 O6 3.359027 1_555
Cs2 O1 3.419628 1_655
Cs2 O12 3.442779 1_556
Cs3 O3 3.143123 1_555
Cs3 O10 3.267627 1_565
Cs3 O9 3.288063 1_555
Cs3 O12 3.319171 1_555
Cs3 O1 3.348567 1_565
Cs3 O9 3.349295 1_465
Cs3 O7 3.359027 1_555
Cs3 O0 3.419628 1_565
Cs3 O13 3.442779 1_555
Cs4 O0 3.143123 1_555
Cs4 O9 3.267627 1_455
Cs4 O10 3.288063 1_555
Cs4 O15 3.319171 1_555
Cs4 O2 3.348567 1_454
Cs4 O10 3.349295 1_465
Cs4 O4 3.359027 1_555
Cs4 O3 3.419628 1_455
Cs4 O14 3.442779 1_554
Cs5 O1 3.143123 1_555
Cs5 O8 3.267627 1_545
Cs5 O11 3.288063 1_555
Cs5 O14 3.319171 1_555
Cs5 O3 3.348567 1_545
Cs5 O11 3.349295 1_645
Cs5 O5 3.359027 1_555
Cs5 O2 3.419628 1_545
Cs5 O15 3.442779 1_555
H0 O6 1.223481 1_454
H0 O4 1.223481 1_545
H1 O7 1.223481 1_545
H1 O5 1.223481 1_455
O0 Se0 1.668483 1_545
O1 Se1 1.668483 1_455
O2 Se2 1.668483 1_565
O3 Se3 1.668483 1_655
O4 Se0 1.740062 1_555
O5 Se1 1.740062 1_555
O6 Se2 1.740062 1_555
O7 Se3 1.740062 1_555
O8 Se0 1.666985 1_556
O9 Se1 1.666985 1_555
O10 Se2 1.666985 1_554
O11 Se3 1.666985 1_555
O12 Se0 1.662365 1_555
O13 Se1 1.662365 1_555
O14 Se2 1.662365 1_555
O15 Se3 1.662365 1_555
