# generated using pymatgen
data_La3MnS5
_symmetry_space_group_name_H-M   'P 1'
_cell_length_a   8.15741421
_cell_length_b   8.15741421
_cell_length_c   6.94216000
_cell_angle_alpha   90.00000000
_cell_angle_beta   90.00000000
_cell_angle_gamma   120.00000173
_symmetry_Int_Tables_number   1
_chemical_formula_structural   La3MnS5
_chemical_formula_sum   'La6 Mn2 S10'
_cell_volume   400.06473758
_cell_formula_units_Z   2
loop_
 _symmetry_equiv_pos_site_id
 _symmetry_equiv_pos_as_xyz
  1  'x, y, z'
loop_
 _atom_site_type_symbol
 _atom_site_label
 _atom_site_symmetry_multiplicity
 _atom_site_fract_x
 _atom_site_fract_y
 _atom_site_fract_z
 _atom_site_occupancy
  La  La0  1  0.60174600  0.60174600  0.75000000  1
  La  La1  1  0.39825400  0.00000000  0.75000000  1
  La  La2  1  0.00000000  0.39825400  0.75000000  1
  La  La3  1  0.39825400  0.39825400  0.25000000  1
  La  La4  1  0.60174600  0.00000000  0.25000000  1
  La  La5  1  0.00000000  0.60174600  0.25000000  1
  Mn  Mn0  1  0.00000000  0.00000000  0.00000000  1
  Mn  Mn1  1  0.00000000  0.00000000  0.50000000  1
  S  S0  1  0.24039300  0.24039300  0.75000000  1
  S  S1  1  0.75960700  0.00000000  0.75000000  1
  S  S2  1  0.00000000  0.75960700  0.75000000  1
  S  S3  1  0.75960700  0.75960700  0.25000000  1
  S  S4  1  0.24039300  0.00000000  0.25000000  1
  S  S5  1  0.00000000  0.24039300  0.25000000  1
  S  S6  1  0.66666700  0.33333300  0.00000000  1
  S  S7  1  0.33333300  0.66666700  0.00000000  1
  S  S8  1  0.33333300  0.66666700  0.50000000  1
  S  S9  1  0.66666700  0.33333300  0.50000000  1
loop_
_geom_bond_atom_site_label_1
_geom_bond_atom_site_label_2
_geom_bond_distance
_geom_bond_site_symmetry_2
La0 S2 2.833543 1_655
La0 S1 2.833543 1_565
La0 S0 2.947706 1_555
La0 S8 3.040769 1_555
La0 S9 3.040769 1_555
La0 S6 3.040769 1_556
La0 S7 3.040769 1_556
La1 S2 2.833543 1_545
La1 S0 2.833543 1_555
La1 S1 2.947706 1_555
La1 S7 3.040763 1_546
La1 S8 3.040763 1_545
La1 S9 3.040765 1_555
La1 S6 3.040765 1_556
La2 S1 2.833543 1_455
La2 S0 2.833543 1_555
La2 S2 2.947706 1_555
La2 S6 3.040763 1_456
La2 S9 3.040763 1_455
La2 S8 3.040765 1_555
La2 S7 3.040765 1_556
La3 S4 2.833543 1_555
La3 S5 2.833543 1_555
La3 S3 2.947706 1_555
La3 S8 3.040769 1_555
La3 S9 3.040769 1_555
La3 S6 3.040769 1_555
La3 S7 3.040769 1_555
La4 S5 2.833543 1_655
La4 S3 2.833543 1_545
La4 S4 2.947706 1_555
La4 S6 3.040763 1_555
La4 S9 3.040763 1_555
La4 S7 3.040765 1_545
La4 S8 3.040765 1_545
La5 S4 2.833543 1_565
La5 S3 2.833543 1_455
La5 S5 2.947706 1_555
La5 S7 3.040763 1_555
La5 S8 3.040763 1_555
La5 S9 3.040765 1_455
La5 S6 3.040765 1_455
Mn0 S3 2.618695 1_445
Mn0 S0 2.618695 1_554
Mn0 S1 2.618695 1_454
Mn0 S5 2.618695 1_555
Mn0 S2 2.618695 1_544
Mn0 S4 2.618695 1_555
Mn1 S3 2.618695 1_445
Mn1 S0 2.618695 1_555
Mn1 S5 2.618695 1_555
Mn1 S1 2.618695 1_455
Mn1 S2 2.618695 1_545
Mn1 S4 2.618695 1_555
