# generated using pymatgen
data_Sm2AlAg3
_symmetry_space_group_name_H-M   'P 1'
_cell_length_a   5.77876475
_cell_length_b   5.77876475
_cell_length_c   7.25266688
_cell_angle_alpha   53.27291874
_cell_angle_beta   53.27291874
_cell_angle_gamma   47.35871289
_symmetry_Int_Tables_number   1
_chemical_formula_structural   Sm2AlAg3
_chemical_formula_sum   'Sm2 Al1 Ag3'
_cell_volume   134.93538233
_cell_formula_units_Z   1
loop_
 _symmetry_equiv_pos_site_id
 _symmetry_equiv_pos_as_xyz
  1  'x, y, z'
loop_
 _atom_site_type_symbol
 _atom_site_label
 _atom_site_symmetry_multiplicity
 _atom_site_fract_x
 _atom_site_fract_y
 _atom_site_fract_z
 _atom_site_occupancy
  Sm  Sm0  1  0.46027722  0.46027722  0.29390340  1
  Sm  Sm1  1  0.54235979  0.54235979  0.70655624  1
  Al  Al0  1  0.82924769  0.82924769  0.11387666  1
  Ag  Ag0  1  0.15162063  0.15162063  0.89055727  1
  Ag  Ag1  1  0.17607284  0.17607284  0.28025271  1
  Ag  Ag2  1  0.84042183  0.84042183  0.71485274  1
loop_
_geom_bond_atom_site_label_1
_geom_bond_atom_site_label_2
_geom_bond_distance
_geom_bond_site_symmetry_2
Al0 Sm0 3.208948 1_555
Al0 Sm1 3.240227 1_654
Al0 Sm1 3.240227 1_564
Al0 Sm1 3.263677 1_555
Al0 Sm0 3.373341 1_565
Al0 Sm0 3.373341 1_655
Ag0 Al0 2.654926 1_446
Ag0 Ag2 2.770922 1_455
Ag0 Ag2 2.770922 1_545
Ag0 Ag1 3.001738 1_556
Ag0 Sm0 3.210668 1_546
Ag0 Sm0 3.210668 1_456
Ag0 Sm1 3.243481 1_545
Ag0 Sm1 3.243481 1_455
Ag0 Sm0 3.306990 1_555
Ag0 Sm1 3.417255 1_555
Ag1 Al0 2.629837 1_545
Ag1 Al0 2.629837 1_455
Ag1 Ag2 2.816465 1_445
Ag1 Sm0 3.073715 1_555
Ag1 Sm0 3.212146 1_545
Ag1 Sm0 3.212146 1_455
Ag1 Sm1 3.351746 1_455
Ag1 Sm1 3.351746 1_545
Ag1 Sm1 3.358032 1_554
Ag2 Al0 2.818182 1_556
Ag2 Sm1 3.128983 1_655
Ag2 Sm1 3.128983 1_565
Ag2 Sm1 3.194445 1_555
Ag2 Sm0 3.355370 1_565
Ag2 Sm0 3.355370 1_655
Ag2 Sm0 3.429109 1_556
