# generated using pymatgen
data_VCd2N3
_symmetry_space_group_name_H-M   'P 1'
_cell_length_a   5.89560869
_cell_length_b   10.23629953
_cell_length_c   11.06056400
_cell_angle_alpha   90.00000000
_cell_angle_beta   90.00000000
_cell_angle_gamma   29.75804870
_symmetry_Int_Tables_number   1
_chemical_formula_structural   VCd2N3
_chemical_formula_sum   'V4 Cd8 N12'
_cell_volume   331.30412111
_cell_formula_units_Z   4
loop_
 _symmetry_equiv_pos_site_id
 _symmetry_equiv_pos_as_xyz
  1  'x, y, z'
loop_
 _atom_site_type_symbol
 _atom_site_label
 _atom_site_symmetry_multiplicity
 _atom_site_fract_x
 _atom_site_fract_y
 _atom_site_fract_z
 _atom_site_occupancy
  V  V0  1  0.00000000  0.25265600  0.83988300  1
  V  V1  1  0.00000000  0.74734400  0.16011700  1
  V  V2  1  0.00000000  0.24734400  0.33988300  1
  V  V3  1  0.00000000  0.75265600  0.66011700  1
  Cd  Cd0  1  0.00000000  0.45954100  0.64793700  1
  Cd  Cd1  1  0.00000000  0.54045900  0.35206300  1
  Cd  Cd2  1  0.00000000  0.04045900  0.14793700  1
  Cd  Cd3  1  0.00000000  0.95954100  0.85206300  1
  Cd  Cd4  1  0.00000000  0.13638400  0.57740500  1
  Cd  Cd5  1  0.00000000  0.86361600  0.42259500  1
  Cd  Cd6  1  0.00000000  0.36361600  0.07740500  1
  Cd  Cd7  1  0.00000000  0.63638400  0.92259500  1
  N  N0  1  0.00000000  0.15933300  0.97727000  1
  N  N1  1  0.00000000  0.84066700  0.02273000  1
  N  N2  1  0.00000000  0.34066700  0.47727000  1
  N  N3  1  0.00000000  0.65933300  0.52273000  1
  N  N4  1  0.00000000  0.43036800  0.85314400  1
  N  N5  1  0.00000000  0.56963200  0.14685600  1
  N  N6  1  0.00000000  0.06963200  0.35314400  1
  N  N7  1  0.00000000  0.93036800  0.64685600  1
  N  N8  1  0.50000000  0.45591100  0.75000000  1
  N  N9  1  0.50000000  0.04408900  0.25000000  1
  N  N10  1  0.50000000  0.54408900  0.25000000  1
  N  N11  1  0.50000000  0.95591100  0.75000000  1
loop_
_geom_bond_atom_site_label_1
_geom_bond_atom_site_label_2
_geom_bond_distance
_geom_bond_site_symmetry_2
Cd0 N2 2.245882 1_555
Cd0 N4 2.289266 1_555
Cd0 N3 2.469898 1_555
Cd1 N3 2.245882 1_555
Cd1 N5 2.289266 1_555
Cd1 N2 2.469898 1_555
Cd2 N0 2.245882 1_554
Cd2 N6 2.289266 1_555
Cd2 N1 2.469898 1_545
Cd3 N1 2.245882 1_556
Cd3 N7 2.289266 1_555
Cd3 N0 2.469898 1_565
Cd4 N7 2.244392 1_545
Cd4 N2 2.366300 1_555
Cd4 N11 2.508281 1_545
Cd4 N8 2.508282 1_455
Cd4 N6 2.572846 1_555
Cd5 N6 2.244392 1_565
Cd5 N3 2.366300 1_555
Cd5 N9 2.508281 1_465
Cd5 N10 2.508282 1_555
Cd5 N7 2.572846 1_555
Cd6 N5 2.244392 1_555
Cd6 N0 2.366300 1_554
Cd6 N10 2.508281 1_455
Cd6 N9 2.508282 1_555
Cd6 N4 2.572846 1_554
Cd7 N4 2.244392 1_555
Cd7 N1 2.366300 1_556
Cd7 N8 2.508281 1_555
Cd7 N11 2.508282 1_455
Cd7 N5 2.572846 1_556
N0 V0 1.794904 1_555
N1 V1 1.794904 1_555
N2 V2 1.794904 1_555
N3 V3 1.794904 1_555
N4 V0 1.825017 1_555
N5 V1 1.825017 1_555
N6 V2 1.825017 1_555
N7 V3 1.825017 1_555
N8 V0 1.832483 1_655
N8 V3 1.832483 1_555
N9 V2 1.832483 1_555
N9 V1 1.832483 1_645
N10 V1 1.832483 1_555
N10 V2 1.832483 1_655
N11 V3 1.832483 1_655
N11 V0 1.832483 1_565
