# generated using pymatgen
data_Li5Fe2P2(CO7)2
_symmetry_space_group_name_H-M   'P 1'
_cell_length_a   5.06567500
_cell_length_b   8.44625672
_cell_length_c   13.02219173
_cell_angle_alpha   90.08295854
_cell_angle_beta   90.65031281
_cell_angle_gamma   95.30274760
_symmetry_Int_Tables_number   1
_chemical_formula_structural   Li5Fe2P2(CO7)2
_chemical_formula_sum   'Li10 Fe4 P4 C4 O28'
_cell_volume   554.74537837
_cell_formula_units_Z   2
loop_
 _symmetry_equiv_pos_site_id
 _symmetry_equiv_pos_as_xyz
  1  'x, y, z'
loop_
 _atom_site_type_symbol
 _atom_site_label
 _atom_site_symmetry_multiplicity
 _atom_site_fract_x
 _atom_site_fract_y
 _atom_site_fract_z
 _atom_site_occupancy
  Li  Li0  1  0.24208200  0.08665100  0.11634200  1
  Li  Li1  1  0.22729900  0.09988400  0.63795600  1
  Li  Li2  1  0.73350000  0.26841000  0.00348800  1
  Li  Li3  1  0.75035900  0.28410800  0.22594000  1
  Li  Li4  1  0.75149200  0.27517900  0.52110400  1
  Li  Li5  1  0.24850800  0.72482100  0.47889600  1
  Li  Li6  1  0.24964100  0.71589200  0.77406000  1
  Li  Li7  1  0.26650000  0.73159000  0.99651200  1
  Li  Li8  1  0.77270100  0.90011600  0.36204400  1
  Li  Li9  1  0.75791800  0.91334900  0.88365800  1
  Fe  Fe0  1  0.20365800  0.33713600  0.37290500  1
  Fe  Fe1  1  0.20453200  0.32682600  0.87408000  1
  Fe  Fe2  1  0.79546800  0.67317400  0.12592000  1
  Fe  Fe3  1  0.79634200  0.66286400  0.62709500  1
  P  P0  1  0.27612100  0.41559700  0.12289900  1
  P  P1  1  0.27784800  0.41688300  0.62158000  1
  P  P2  1  0.72215200  0.58311700  0.37842000  1
  P  P3  1  0.72387900  0.58440300  0.87710100  1
  C  C0  1  0.30301800  0.03017400  0.87945900  1
  C  C1  1  0.30469100  0.04770400  0.38248900  1
  C  C2  1  0.69698200  0.96982600  0.12054100  1
  C  C3  1  0.69530900  0.95229600  0.61751100  1
  O  O0  1  0.05689800  0.07980400  0.37764600  1
  O  O1  1  0.06093300  0.06737100  0.87059300  1
  O  O2  1  0.64075300  0.11676600  0.12798400  1
  O  O3  1  0.62047500  0.08983400  0.60526200  1
  O  O4  1  0.49206200  0.14174800  0.89439100  1
  O  O5  1  0.47936800  0.17377600  0.37441600  1
  O  O6  1  0.16133300  0.31374400  0.52868100  1
  O  O7  1  0.17901700  0.29589100  0.03644100  1
  O  O8  1  0.16955200  0.32470800  0.22303400  1
  O  O9  1  0.21868300  0.31090900  0.71469900  1
  O  O10  1  0.84286000  0.42054600  0.37427900  1
  O  O11  1  0.83496100  0.42400500  0.88822900  1
  O  O12  1  0.58497600  0.43557100  0.12843400  1
  O  O13  1  0.58301000  0.45565200  0.60581200  1
  O  O14  1  0.41699000  0.54434800  0.39418800  1
  O  O15  1  0.41502400  0.56442900  0.87156600  1
  O  O16  1  0.16503900  0.57599500  0.11177100  1
  O  O17  1  0.15714000  0.57945400  0.62572100  1
  O  O18  1  0.78131700  0.68909100  0.28530100  1
  O  O19  1  0.83866700  0.68625600  0.47131900  1
  O  O20  1  0.83044800  0.67529200  0.77696600  1
  O  O21  1  0.82098300  0.70410900  0.96355900  1
  O  O22  1  0.50793800  0.85825200  0.10560900  1
  O  O23  1  0.52063200  0.82622400  0.62558400  1
  O  O24  1  0.37952500  0.91016600  0.39473800  1
  O  O25  1  0.35924700  0.88323400  0.87201600  1
  O  O26  1  0.93906700  0.93262900  0.12940700  1
  O  O27  1  0.94310200  0.92019600  0.62235400  1
loop_
_geom_bond_atom_site_label_1
_geom_bond_atom_site_label_2
_geom_bond_distance
_geom_bond_site_symmetry_2
Li0 O26 1.927417 1_445
Li0 O2 2.015987 1_555
Li0 O7 2.100033 1_555
Li0 O22 2.457323 1_545
Li0 O8 2.499649 1_555
Li1 O27 2.001466 1_445
Li1 O9 2.046384 1_555
Li1 O3 2.050789 1_555
Li1 O6 2.346825 1_555
Li2 O11 2.035294 1_554
Li2 O4 2.091173 1_554
Li2 O2 2.098010 1_555
Li2 O7 2.283040 1_655
Li2 O12 2.329018 1_555
Li3 O2 1.940831 1_555
Li3 O12 2.032085 1_555
Li3 O8 2.120265 1_655
Li3 O10 2.269852 1_555
Li3 O5 2.514009 1_555
Li4 O3 1.980319 1_555
Li4 O6 2.072770 1_655
Li4 O13 2.127378 1_555
Li4 O10 2.302012 1_555
Li4 O5 2.449472 1_555
Li5 O24 1.980319 1_555
Li5 O19 2.072770 1_455
Li5 O14 2.127378 1_555
Li5 O17 2.302012 1_555
Li5 O23 2.449472 1_555
Li6 O25 1.940831 1_555
Li6 O15 2.032085 1_555
Li6 O20 2.120265 1_455
Li6 O17 2.269852 1_555
Li6 O23 2.514009 1_555
Li7 O16 2.035294 1_556
Li7 O22 2.091173 1_556
Li7 O25 2.098010 1_555
Li7 O21 2.283040 1_455
Li7 O15 2.329018 1_555
Li8 O0 2.001466 1_665
Li8 O18 2.046384 1_555
Li8 O24 2.050789 1_555
Li8 O19 2.346825 1_555
Li9 O1 1.927417 1_665
Li9 O25 2.015987 1_555
Li9 O21 2.100033 1_555
Li9 O4 2.457323 1_565
Li9 O20 2.499649 1_555
Fe0 O8 1.959133 1_555
Fe0 O14 1.987447 1_555
Fe0 O10 2.018856 1_455
Fe0 O6 2.050172 1_555
Fe0 O5 2.051946 1_555
Fe0 O0 2.232340 1_555
Fe1 O9 2.082119 1_555
Fe1 O11 2.122248 1_455
Fe1 O7 2.134663 1_556
Fe1 O15 2.184252 1_555
Fe1 O1 2.244518 1_555
Fe1 O4 2.246863 1_555
Fe2 O18 2.082119 1_555
Fe2 O16 2.122248 1_655
Fe2 O21 2.134663 1_554
Fe2 O12 2.184252 1_555
Fe2 O26 2.244518 1_555
Fe2 O22 2.246863 1_555
Fe3 O20 1.959133 1_555
Fe3 O13 1.987447 1_555
Fe3 O17 2.018856 1_655
Fe3 O19 2.050172 1_555
Fe3 O23 2.051946 1_555
Fe3 O27 2.232340 1_555
C0 O4 1.292825 1_555
C0 O1 1.297695 1_555
C0 O25 1.302482 1_545
C1 O24 1.264600 1_545
C1 O0 1.309301 1_555
C1 O5 1.325209 1_555
C2 O22 1.292825 1_555
C2 O26 1.297695 1_555
C2 O2 1.302482 1_565
C3 O3 1.264600 1_565
C3 O27 1.309301 1_555
C3 O23 1.325209 1_555
O6 P1 1.567305 1_555
O7 P0 1.556925 1_555
O8 P0 1.588517 1_555
O9 P1 1.524218 1_555
O10 P2 1.554984 1_555
O11 P3 1.520738 1_555
O12 P0 1.558884 1_555
O13 P1 1.566168 1_555
O14 P2 1.566168 1_555
O15 P3 1.558884 1_555
O16 P0 1.520738 1_555
O17 P1 1.554984 1_555
O18 P2 1.524218 1_555
O19 P2 1.567305 1_555
O20 P3 1.588517 1_555
O21 P3 1.556925 1_555
