# generated using pymatgen
data_Mg4FeO5
_symmetry_space_group_name_H-M   'P 1'
_cell_length_a   3.03671604
_cell_length_b   12.51457762
_cell_length_c   5.21469724
_cell_angle_alpha   96.98369264
_cell_angle_beta   90.00939591
_cell_angle_gamma   90.00235214
_symmetry_Int_Tables_number   1
_chemical_formula_structural   Mg4FeO5
_chemical_formula_sum   'Mg8 Fe2 O10'
_cell_volume   196.70497338
_cell_formula_units_Z   2
loop_
 _symmetry_equiv_pos_site_id
 _symmetry_equiv_pos_as_xyz
  1  'x, y, z'
loop_
 _atom_site_type_symbol
 _atom_site_label
 _atom_site_symmetry_multiplicity
 _atom_site_fract_x
 _atom_site_fract_y
 _atom_site_fract_z
 _atom_site_occupancy
  Mg  Mg0  1  0.00002200  0.20366300  0.40763400  1
  Mg  Mg1  1  0.50005800  0.20367500  0.90795900  1
  Mg  Mg2  1  0.99996100  0.79632000  0.59239300  1
  Mg  Mg3  1  0.49990000  0.79630100  0.09197000  1
  Mg  Mg4  1  0.49999500  0.40127500  0.30269900  1
  Mg  Mg5  1  0.99999600  0.40127500  0.80272800  1
  Mg  Mg6  1  0.49998100  0.59876000  0.69720500  1
  Mg  Mg7  1  0.99997800  0.59876400  0.19720200  1
  Fe  Fe0  1  0.50024000  0.99983600  0.50009100  1
  Fe  Fe1  1  0.99996300  0.00008900  0.00010800  1
  O  O0  1  0.99998800  0.50002700  0.49996000  1
  O  O1  1  0.49998800  0.50002900  0.99996400  1
  O  O2  1  0.50006300  0.89266500  0.78309800  1
  O  O3  1  0.00004000  0.89319100  0.28355600  1
  O  O4  1  0.49989500  0.10730500  0.21706300  1
  O  O5  1  0.99999100  0.10676500  0.71647300  1
  O  O6  1  0.49997300  0.69753900  0.39413300  1
  O  O7  1  0.99997200  0.69754500  0.89435900  1
  O  O8  1  0.50000000  0.30249600  0.60582800  1
  O  O9  1  0.99999600  0.30248000  0.10557600  1
loop_
_geom_bond_atom_site_label_1
_geom_bond_atom_site_label_2
_geom_bond_distance
_geom_bond_site_symmetry_2
Mg0 O4 2.110734 1_555
Mg0 O4 2.110983 1_455
Mg0 O9 2.117560 1_455
Mg0 O5 2.130520 1_455
Mg0 O8 2.142816 1_555
Mg0 O8 2.143223 1_455
Mg1 O5 2.116325 1_455
Mg1 O5 2.116340 1_555
Mg1 O8 2.117904 1_555
Mg1 O4 2.127299 1_556
Mg1 O9 2.141310 1_556
Mg1 O9 2.141889 1_456
Mg2 O2 2.110986 1_555
Mg2 O2 2.111126 1_655
Mg2 O7 2.116814 1_555
Mg2 O3 2.130288 1_655
Mg2 O6 2.142642 1_555
Mg2 O6 2.143006 1_655
Mg3 O3 2.116261 1_555
Mg3 O3 2.116565 1_655
Mg3 O6 2.117542 1_555
Mg3 O2 2.126250 1_554
Mg3 O7 2.140957 1_454
Mg3 O7 2.141579 1_554
Mg4 O1 2.119906 1_554
Mg4 O8 2.121793 1_555
Mg4 O9 2.140319 1_455
Mg4 O0 2.140322 1_555
Mg4 O9 2.140635 1_555
Mg4 O0 2.140663 1_455
Mg5 O0 2.120030 1_555
Mg5 O9 2.120732 1_556
Mg5 O8 2.139732 1_555
Mg5 O8 2.140060 1_655
Mg5 O1 2.140279 1_655
Mg5 O1 2.140625 1_555
Mg6 O1 2.119814 1_555
Mg6 O6 2.121550 1_555
Mg6 O0 2.140164 1_455
Mg6 O7 2.140303 1_555
Mg6 O0 2.140506 1_555
Mg6 O7 2.140653 1_455
Mg7 O0 2.119861 1_555
Mg7 O7 2.120593 1_554
Mg7 O6 2.139770 1_655
Mg7 O6 2.140103 1_555
Mg7 O1 2.140156 1_554
Mg7 O1 2.140510 1_654
Fe0 O2 2.111424 1_555
Fe0 O4 2.114197 1_565
Fe0 O3 2.234737 1_655
Fe0 O3 2.235236 1_555
Fe0 O5 2.235871 1_565
Fe0 O5 2.237224 1_465
Fe1 O5 2.109514 1_554
Fe1 O3 2.110752 1_645
Fe1 O4 2.239465 1_655
Fe1 O4 2.240071 1_555
Fe1 O2 2.240924 1_544
Fe1 O2 2.241662 1_644
