# generated using pymatgen
data_Al4Fe(SiO6)2
_symmetry_space_group_name_H-M   'P 1'
_cell_length_a   5.64076900
_cell_length_b   7.87358900
_cell_length_c   9.37295376
_cell_angle_alpha   114.83562764
_cell_angle_beta   90.00000000
_cell_angle_gamma   90.00000000
_symmetry_Int_Tables_number   1
_chemical_formula_structural   Al4Fe(SiO6)2
_chemical_formula_sum   'Al8 Fe2 Si4 O24'
_cell_volume   377.78268640
_cell_formula_units_Z   2
loop_
 _symmetry_equiv_pos_site_id
 _symmetry_equiv_pos_as_xyz
  1  'x, y, z'
loop_
 _atom_site_type_symbol
 _atom_site_label
 _atom_site_symmetry_multiplicity
 _atom_site_fract_x
 _atom_site_fract_y
 _atom_site_fract_z
 _atom_site_occupancy
  Al  Al0  1  0.50000000  0.67310300  0.34620500  1
  Al  Al1  1  0.00000000  0.67310300  0.34620500  1
  Al  Al2  1  0.50000000  0.32689700  0.65379500  1
  Al  Al3  1  0.00000000  0.32689700  0.65379500  1
  Al  Al4  1  0.25000000  0.85625600  0.17179500  1
  Al  Al5  1  0.75000000  0.31553900  0.17179500  1
  Al  Al6  1  0.75000000  0.14374400  0.82820500  1
  Al  Al7  1  0.25000000  0.68446100  0.82820500  1
  Fe  Fe0  1  0.25000000  0.37597600  0.00000000  1
  Fe  Fe1  1  0.75000000  0.62402400  0.00000000  1
  Si  Si0  1  0.25000000  0.96574100  0.66198900  1
  Si  Si1  1  0.75000000  0.69624800  0.66198900  1
  Si  Si2  1  0.75000000  0.03425900  0.33801100  1
  Si  Si3  1  0.25000000  0.30375200  0.33801100  1
  O  O0  1  0.53457400  0.25465300  0.00000000  1
  O  O1  1  0.46542600  0.74534700  0.00000000  1
  O  O2  1  0.96542600  0.25465300  0.00000000  1
  O  O3  1  0.03457400  0.74534700  0.00000000  1
  O  O4  1  0.48569400  0.09732100  0.67786700  1
  O  O5  1  0.51430600  0.58054600  0.67786700  1
  O  O6  1  0.01430600  0.09732100  0.67786700  1
  O  O7  1  0.98569400  0.58054600  0.67786700  1
  O  O8  1  0.51430600  0.90267900  0.32213300  1
  O  O9  1  0.48569400  0.41945400  0.32213300  1
  O  O10  1  0.98569400  0.90267900  0.32213300  1
  O  O11  1  0.01430600  0.41945400  0.32213300  1
  O  O12  1  0.25000000  0.90277800  0.80610000  1
  O  O13  1  0.75000000  0.90332200  0.80610000  1
  O  O14  1  0.75000000  0.09722200  0.19390000  1
  O  O15  1  0.25000000  0.09667800  0.19390000  1
  O  O16  1  0.25000000  0.77381900  0.49329600  1
  O  O17  1  0.75000000  0.71947700  0.49329600  1
  O  O18  1  0.75000000  0.22618100  0.50670400  1
  O  O19  1  0.25000000  0.28052300  0.50670400  1
  O  O20  1  0.25000000  0.61625600  0.19303900  1
  O  O21  1  0.75000000  0.57678300  0.19303900  1
  O  O22  1  0.75000000  0.38374400  0.80696100  1
  O  O23  1  0.25000000  0.42321700  0.80696100  1
loop_
_geom_bond_atom_site_label_1
_geom_bond_atom_site_label_2
_geom_bond_distance
_geom_bond_site_symmetry_2
Al0 O16 1.897324 1_555
Al0 O17 1.897325 1_555
Al0 O8 1.915042 1_555
Al0 O9 1.915050 1_555
Al0 O20 1.926188 1_555
Al0 O21 1.926188 1_555
Al1 O16 1.897324 1_555
Al1 O17 1.897325 1_455
Al1 O10 1.915042 1_455
Al1 O11 1.915050 1_555
Al1 O20 1.926188 1_555
Al1 O21 1.926188 1_455
Al2 O18 1.897324 1_555
Al2 O19 1.897325 1_555
Al2 O4 1.915042 1_555
Al2 O5 1.915050 1_555
Al2 O22 1.926188 1_555
Al2 O23 1.926188 1_555
Al3 O18 1.897324 1_455
Al3 O19 1.897325 1_555
Al3 O6 1.915042 1_555
Al3 O7 1.915050 1_455
Al3 O22 1.926188 1_455
Al3 O23 1.926188 1_555
Al4 O15 1.815723 1_565
Al4 O3 1.910716 1_555
Al4 O1 1.910716 1_555
Al4 O10 1.977191 1_455
Al4 O8 1.977191 1_555
Al4 O20 1.981551 1_555
Al5 O14 1.815723 1_555
Al5 O2 1.910716 1_555
Al5 O0 1.910716 1_555
Al5 O9 1.977191 1_555
Al5 O11 1.977191 1_655
Al5 O21 1.981551 1_555
Al6 O13 1.815723 1_545
Al6 O0 1.910716 1_556
Al6 O2 1.910716 1_556
Al6 O6 1.977191 1_655
Al6 O4 1.977191 1_555
Al6 O22 1.981551 1_555
Al7 O12 1.815723 1_555
Al7 O1 1.910716 1_556
Al7 O3 1.910716 1_556
Al7 O5 1.977191 1_555
Al7 O7 1.977191 1_455
Al7 O23 1.981551 1_555
Fe0 O2 1.867945 1_455
Fe0 O0 1.867945 1_555
Fe0 O20 1.994348 1_555
Fe0 O23 1.994348 1_554
Fe1 O1 1.867945 1_555
Fe1 O3 1.867945 1_655
Fe1 O22 1.994348 1_554
Fe1 O21 1.994348 1_555
O4 Si0 1.653329 1_545
O5 Si1 1.653329 1_555
O6 Si0 1.653329 1_545
O7 Si1 1.653329 1_555
O8 Si2 1.653329 1_565
O9 Si3 1.653329 1_555
O10 Si2 1.653329 1_565
O11 Si3 1.653329 1_555
O12 Si0 1.622586 1_555
O13 Si1 1.622586 1_555
O14 Si2 1.622586 1_555
O15 Si3 1.622586 1_555
O16 Si0 1.666258 1_555
O17 Si1 1.666258 1_555
O18 Si2 1.666258 1_555
O19 Si3 1.666258 1_555
