# generated using pymatgen
data_Tb2Ru2O7
_symmetry_space_group_name_H-M   'P 1'
_cell_length_a   7.19853450
_cell_length_b   7.19853450
_cell_length_c   7.19853450
_cell_angle_alpha   60.00000000
_cell_angle_beta   60.00000000
_cell_angle_gamma   60.00000000
_symmetry_Int_Tables_number   1
_chemical_formula_structural   Tb2Ru2O7
_chemical_formula_sum   'Tb4 Ru4 O14'
_cell_volume   263.76506480
_cell_formula_units_Z   2
loop_
 _symmetry_equiv_pos_site_id
 _symmetry_equiv_pos_as_xyz
  1  'x, y, z'
loop_
 _atom_site_type_symbol
 _atom_site_label
 _atom_site_symmetry_multiplicity
 _atom_site_fract_x
 _atom_site_fract_y
 _atom_site_fract_z
 _atom_site_occupancy
  Tb  Tb0  1  0.62500000  0.62500000  0.12500000  1
  Tb  Tb1  1  0.62500000  0.12500000  0.62500000  1
  Tb  Tb2  1  0.12500000  0.62500000  0.62500000  1
  Tb  Tb3  1  0.62500000  0.62500000  0.62500000  1
  Ru  Ru0  1  0.12500000  0.12500000  0.62500000  1
  Ru  Ru1  1  0.12500000  0.62500000  0.12500000  1
  Ru  Ru2  1  0.62500000  0.12500000  0.12500000  1
  Ru  Ru3  1  0.12500000  0.12500000  0.12500000  1
  O  O0  1  0.75000000  0.75000000  0.75000000  1
  O  O1  1  0.50000000  0.50000000  0.50000000  1
  O  O2  1  0.03844600  0.46155400  0.03844600  1
  O  O3  1  0.78844600  0.21155400  0.78844600  1
  O  O4  1  0.03844600  0.03844600  0.46155400  1
  O  O5  1  0.46155400  0.03844600  0.03844600  1
  O  O6  1  0.03844600  0.46155400  0.46155400  1
  O  O7  1  0.46155400  0.46155400  0.03844600  1
  O  O8  1  0.46155400  0.03844600  0.46155400  1
  O  O9  1  0.21155400  0.78844600  0.78844600  1
  O  O10  1  0.78844600  0.21155400  0.21155400  1
  O  O11  1  0.21155400  0.78844600  0.21155400  1
  O  O12  1  0.78844600  0.78844600  0.21155400  1
  O  O13  1  0.21155400  0.21155400  0.78844600  1
loop_
_geom_bond_atom_site_label_1
_geom_bond_atom_site_label_2
_geom_bond_distance
_geom_bond_site_symmetry_2
O0 Tb0 2.204092 1_556
O0 Tb1 2.204092 1_565
O0 Tb2 2.204092 1_655
O0 Tb3 2.204092 1_555
O1 Tb3 2.204092 1_555
O1 Tb2 2.204092 1_555
O1 Tb0 2.204092 1_555
O1 Tb1 2.204092 1_555
O2 Ru1 2.003770 1_555
O2 Ru3 2.003770 1_555
O2 Tb2 2.450984 1_554
O2 Tb0 2.450984 1_455
O3 Ru2 2.003770 1_556
O3 Ru0 2.003770 1_655
O3 Tb1 2.450984 1_555
O3 Tb3 2.450984 1_555
O4 Ru0 2.003770 1_555
O4 Ru3 2.003770 1_555
O4 Tb2 2.450984 1_545
O4 Tb1 2.450984 1_455
O5 Ru2 2.003770 1_555
O5 Ru3 2.003770 1_555
O5 Tb1 2.450984 1_554
O5 Tb0 2.450984 1_545
O6 Ru0 2.003770 1_555
O6 Ru1 2.003770 1_555
O6 Tb2 2.450984 1_555
O6 Tb3 2.450984 1_455
O7 Ru2 2.003770 1_555
O7 Ru1 2.003770 1_555
O7 Tb0 2.450984 1_555
O7 Tb3 2.450984 1_554
O8 Ru0 2.003770 1_555
O8 Ru2 2.003770 1_555
O8 Tb1 2.450984 1_555
O8 Tb3 2.450984 1_545
O9 Ru1 2.003770 1_556
O9 Ru0 2.003770 1_565
O9 Tb2 2.450984 1_555
O9 Tb3 2.450984 1_555
O10 Ru2 2.003770 1_555
O10 Ru3 2.003770 1_655
O10 Tb1 2.450984 1_555
O10 Tb0 2.450984 1_555
O11 Ru1 2.003770 1_555
O11 Ru3 2.003770 1_565
O11 Tb2 2.450984 1_555
O11 Tb0 2.450984 1_555
O12 Ru1 2.003770 1_655
O12 Ru2 2.003770 1_565
O12 Tb0 2.450984 1_555
O12 Tb3 2.450984 1_555
O13 Ru0 2.003770 1_555
O13 Ru3 2.003770 1_556
O13 Tb2 2.450984 1_555
O13 Tb1 2.450984 1_555
