# generated using pymatgen
data_Sr2TaCoO6
_symmetry_space_group_name_H-M   'P 1'
_cell_length_a   7.95726451
_cell_length_b   9.83241392
_cell_length_c   7.95859652
_cell_angle_alpha   66.14631305
_cell_angle_beta   90.04119743
_cell_angle_gamma   66.15071362
_symmetry_Int_Tables_number   1
_chemical_formula_structural   Sr2TaCoO6
_chemical_formula_sum   'Sr8 Ta4 Co4 O24'
_cell_volume   510.72082507
_cell_formula_units_Z   4
loop_
 _symmetry_equiv_pos_site_id
 _symmetry_equiv_pos_as_xyz
  1  'x, y, z'
loop_
 _atom_site_type_symbol
 _atom_site_label
 _atom_site_symmetry_multiplicity
 _atom_site_fract_x
 _atom_site_fract_y
 _atom_site_fract_z
 _atom_site_occupancy
  Sr  Sr0  1  0.62498900  0.24994800  0.62506400  1
  Sr  Sr1  1  0.37505600  0.74994300  0.87543300  1
  Sr  Sr2  1  0.12502500  0.24996500  0.12496000  1
  Sr  Sr3  1  0.87499300  0.74994400  0.37459100  1
  Sr  Sr4  1  0.37503400  0.75006200  0.37517100  1
  Sr  Sr5  1  0.12439700  0.25007500  0.62508600  1
  Sr  Sr6  1  0.87494500  0.75003700  0.87480100  1
  Sr  Sr7  1  0.62555500  0.25005900  0.12486900  1
  Ta  Ta0  1  0.99999700  0.00002100  0.49998900  1
  Ta  Ta1  1  0.75000200  0.49999900  0.74999800  1
  Ta  Ta2  1  0.50000800  0.99998300  0.00000900  1
  Ta  Ta3  1  0.25000900  0.49998500  0.25001300  1
  Co  Co0  1  0.50004400  0.99993300  0.50003300  1
  Co  Co1  1  0.25004600  0.49991400  0.75004800  1
  Co  Co2  1  0.74998300  0.50003100  0.24998500  1
  Co  Co3  1  0.00002700  0.99994800  0.00002500  1
  O  O0  1  0.74600900  0.00031800  0.49904200  1
  O  O1  1  0.50252100  0.49970200  0.75072800  1
  O  O2  1  0.24625800  0.99982000  0.00087300  1
  O  O3  1  0.00217700  0.50023800  0.24887400  1
  O  O4  1  0.25366100  0.00033200  0.50064500  1
  O  O5  1  0.99782900  0.49961200  0.74959800  1
  O  O6  1  0.75393700  0.99977100  0.99933500  1
  O  O7  1  0.49761100  0.50019100  0.25090200  1
  O  O8  1  0.87680900  0.24642000  0.37681900  1
  O  O9  1  0.62693900  0.74622200  0.62692400  1
  O  O10  1  0.37695900  0.24615900  0.87696200  1
  O  O11  1  0.12685400  0.74633600  0.12686600  1
  O  O12  1  0.12303600  0.75387700  0.62301000  1
  O  O13  1  0.87315400  0.25360900  0.87317200  1
  O  O14  1  0.62315100  0.75364300  0.12315100  1
  O  O15  1  0.37299800  0.25390200  0.37302300  1
  O  O16  1  0.99906900  0.00012600  0.74760800  1
  O  O17  1  0.75098300  0.49988600  0.00382200  1
  O  O18  1  0.50098000  0.99966700  0.24783800  1
  O  O19  1  0.24933100  0.50024200  0.50377200  1
  O  O20  1  0.00075300  0.00020200  0.25222800  1
  O  O21  1  0.74913000  0.49990200  0.49628200  1
  O  O22  1  0.49930400  0.99971500  0.75247200  1
  O  O23  1  0.25043600  0.50025900  0.99597600  1
loop_
_geom_bond_atom_site_label_1
_geom_bond_atom_site_label_2
_geom_bond_distance
_geom_bond_site_symmetry_2
Co0 O0 1.958758 1_565
Co0 O4 1.958965 1_565
Co0 O18 2.008193 1_555
Co0 O22 2.008210 1_555
Co0 O9 2.046080 1_555
Co0 O15 2.048161 1_565
Co1 O23 1.958618 1_555
Co1 O19 1.958710 1_555
Co1 O5 2.008163 1_455
Co1 O1 2.008170 1_555
Co1 O10 2.046435 1_555
Co1 O12 2.048113 1_555
Co2 O21 1.959684 1_555
Co2 O17 1.959709 1_555
Co2 O7 2.007576 1_555
Co2 O3 2.007620 1_655
Co2 O8 2.045274 1_555
Co2 O14 2.045282 1_555
Co3 O2 1.958822 1_555
Co3 O6 1.958913 1_454
Co3 O16 2.008184 1_464
Co3 O20 2.008200 1_565
Co3 O11 2.045282 1_555
Co3 O13 2.045677 1_464
O0 Ta0 2.019875 1_555
O0 Sr7 2.827475 1_555
O0 Sr3 2.832862 1_545
O0 Sr0 2.835267 1_555
O0 Sr6 2.837841 1_545
O1 Ta1 1.970464 1_555
O1 Sr7 2.826814 1_556
O1 Sr1 2.833039 1_555
O1 Sr0 2.834230 1_555
O1 Sr4 2.836849 1_555
O2 Ta2 2.019819 1_555
O2 Sr4 2.828143 1_555
O2 Sr2 2.828847 1_565
O2 Sr1 2.834153 1_554
O2 Sr5 2.837907 1_564
O3 Ta3 1.971070 1_555
O3 Sr6 2.826904 1_454
O3 Sr2 2.828876 1_555
O3 Sr3 2.834133 1_455
O3 Sr5 2.839987 1_555
O4 Ta0 2.019716 1_455
O4 Sr5 2.827476 1_555
O4 Sr1 2.832764 1_545
O4 Sr2 2.835529 1_555
O4 Sr4 2.837656 1_545
O5 Ta1 1.970497 1_555
O5 Sr5 2.825923 1_655
O5 Sr2 2.833666 1_656
O5 Sr3 2.833712 1_555
O5 Sr6 2.837372 1_555
O6 Ta2 2.019752 1_556
O6 Sr6 2.827835 1_555
O6 Sr0 2.829227 1_565
O6 Sr3 2.833728 1_556
O6 Sr7 2.838134 1_566
O7 Ta3 1.971065 1_555
O7 Sr4 2.827427 1_555
O7 Sr0 2.828712 1_555
O7 Sr1 2.834589 1_554
O7 Sr7 2.839570 1_555
O8 Ta0 1.987112 1_555
O8 Sr5 2.809942 1_655
O8 Sr7 2.810252 1_555
O8 Sr0 2.815074 1_555
O8 Sr2 2.815132 1_655
O9 Ta1 1.985693 1_555
O9 Sr6 2.811010 1_555
O9 Sr4 2.811689 1_555
O9 Sr3 2.816905 1_555
O9 Sr1 2.816932 1_555
O10 Ta2 1.985314 1_546
O10 Sr0 2.814325 1_555
O10 Sr2 2.814349 1_556
O10 Sr7 2.814985 1_556
O10 Sr5 2.815658 1_555
O11 Ta3 1.986725 1_555
O11 Sr3 2.812386 1_455
O11 Sr1 2.812661 1_554
O11 Sr4 2.813888 1_555
O11 Sr6 2.814237 1_454
O12 Ta0 1.985056 1_465
O12 Sr4 2.813816 1_555
O12 Sr6 2.814071 1_455
O12 Sr3 2.814942 1_455
O12 Sr1 2.815586 1_555
O13 Ta1 1.987039 1_555
O13 Sr7 2.810750 1_556
O13 Sr5 2.810933 1_655
O13 Sr0 2.812324 1_555
O13 Sr2 2.812781 1_656
O14 Ta2 1.986636 1_555
O14 Sr1 2.809960 1_554
O14 Sr3 2.810356 1_555
O14 Sr4 2.815485 1_555
O14 Sr6 2.815526 1_554
O15 Ta3 1.984564 1_555
O15 Sr2 2.812568 1_555
O15 Sr0 2.813162 1_555
O15 Sr5 2.818472 1_555
O15 Sr7 2.818739 1_555
O16 Ta0 1.971135 1_555
O16 Sr0 2.826803 1_555
O16 Sr6 2.828250 1_545
O16 Sr5 2.833776 1_655
O16 Sr1 2.838525 1_645
O17 Ta1 2.019641 1_554
O17 Sr2 2.826990 1_655
O17 Sr6 2.828006 1_554
O17 Sr7 2.833389 1_555
O17 Sr1 2.837860 1_554
O18 Ta2 1.971121 1_555
O18 Sr3 2.826097 1_555
O18 Sr7 2.833340 1_565
O18 Sr4 2.834326 1_555
O18 Sr2 2.838678 1_565
O19 Ta3 2.020597 1_555
O19 Sr3 2.828010 1_455
O19 Sr5 2.833521 1_555
O19 Sr4 2.834885 1_555
O19 Sr0 2.837119 1_555
O20 Ta0 1.971127 1_455
O20 Sr2 2.826305 1_555
O20 Sr4 2.828852 1_545
O20 Sr7 2.833137 1_455
O20 Sr3 2.838846 1_445
O21 Ta1 2.019617 1_555
O21 Sr0 2.827309 1_555
O21 Sr4 2.828013 1_555
O21 Sr5 2.833533 1_655
O21 Sr3 2.837616 1_555
O22 Ta2 1.971121 1_556
O22 Sr1 2.826208 1_555
O22 Sr5 2.832983 1_565
O22 Sr6 2.835116 1_555
O22 Sr0 2.838208 1_565
O23 Ta3 2.020697 1_556
O23 Sr1 2.827690 1_555
O23 Sr7 2.833795 1_556
O23 Sr6 2.834657 1_455
O23 Sr2 2.837308 1_556
