# generated using pymatgen
data_Na2MoO6
_symmetry_space_group_name_H-M   'P 1'
_cell_length_a   8.45219000
_cell_length_b   10.44930600
_cell_length_c   13.15981100
_cell_angle_alpha   90.00000000
_cell_angle_beta   90.00000000
_cell_angle_gamma   90.00000000
_symmetry_Int_Tables_number   1
_chemical_formula_structural   Na2MoO6
_chemical_formula_sum   'Na16 Mo8 O48'
_cell_volume   1162.26818660
_cell_formula_units_Z   8
loop_
 _symmetry_equiv_pos_site_id
 _symmetry_equiv_pos_as_xyz
  1  'x, y, z'
loop_
 _atom_site_type_symbol
 _atom_site_label
 _atom_site_symmetry_multiplicity
 _atom_site_fract_x
 _atom_site_fract_y
 _atom_site_fract_z
 _atom_site_occupancy
  Na  Na0  1  0.24415300  0.94538600  0.16678500  1
  Na  Na1  1  0.25584700  0.05461400  0.66678500  1
  Na  Na2  1  0.74415300  0.55461400  0.83321500  1
  Na  Na3  1  0.75584700  0.44538600  0.33321500  1
  Na  Na4  1  0.75584700  0.05461400  0.83321500  1
  Na  Na5  1  0.74415300  0.94538600  0.33321500  1
  Na  Na6  1  0.25584700  0.44538600  0.16678500  1
  Na  Na7  1  0.24415300  0.55461400  0.66678500  1
  Na  Na8  1  0.66311400  0.00123600  0.08088900  1
  Na  Na9  1  0.83688600  0.99876400  0.58088900  1
  Na  Na10  1  0.16311400  0.49876400  0.91911100  1
  Na  Na11  1  0.33688600  0.50123600  0.41911100  1
  Na  Na12  1  0.33688600  0.99876400  0.91911100  1
  Na  Na13  1  0.16311400  0.00123600  0.41911100  1
  Na  Na14  1  0.83688600  0.50123600  0.08088900  1
  Na  Na15  1  0.66311400  0.49876400  0.58088900  1
  Mo  Mo0  1  0.48368800  0.70129800  0.03010500  1
  Mo  Mo1  1  0.01631200  0.29870200  0.53010500  1
  Mo  Mo2  1  0.98368800  0.79870200  0.96989500  1
  Mo  Mo3  1  0.51631200  0.20129800  0.46989500  1
  Mo  Mo4  1  0.51631200  0.29870200  0.96989500  1
  Mo  Mo5  1  0.98368800  0.70129800  0.46989500  1
  Mo  Mo6  1  0.01631200  0.20129800  0.03010500  1
  Mo  Mo7  1  0.48368800  0.79870200  0.53010500  1
  O  O0  1  0.64527100  0.65183400  0.11550900  1
  O  O1  1  0.85472900  0.34816600  0.61550900  1
  O  O2  1  0.14527100  0.84816600  0.88449100  1
  O  O3  1  0.35472900  0.15183400  0.38449100  1
  O  O4  1  0.35472900  0.34816600  0.88449100  1
  O  O5  1  0.14527100  0.65183400  0.38449100  1
  O  O6  1  0.85472900  0.15183400  0.11550900  1
  O  O7  1  0.64527100  0.84816600  0.61550900  1
  O  O8  1  0.43608000  0.86713000  0.05389100  1
  O  O9  1  0.06392000  0.13287000  0.55389100  1
  O  O10  1  0.93608000  0.63287000  0.94610900  1
  O  O11  1  0.56392000  0.36713000  0.44610900  1
  O  O12  1  0.56392000  0.13287000  0.94610900  1
  O  O13  1  0.93608000  0.86713000  0.44610900  1
  O  O14  1  0.06392000  0.36713000  0.05389100  1
  O  O15  1  0.43608000  0.63287000  0.55389100  1
  O  O16  1  0.54058500  0.68407500  0.89926000  1
  O  O17  1  0.95941500  0.31592500  0.39926000  1
  O  O18  1  0.04058500  0.81592500  0.10074000  1
  O  O19  1  0.45941500  0.18407500  0.60074000  1
  O  O20  1  0.45941500  0.31592500  0.10074000  1
  O  O21  1  0.04058500  0.68407500  0.60074000  1
  O  O22  1  0.95941500  0.18407500  0.89926000  1
  O  O23  1  0.54058500  0.81592500  0.39926000  1
  O  O24  1  0.31605700  0.60289800  0.05031800  1
  O  O25  1  0.18394300  0.39710200  0.55031800  1
  O  O26  1  0.81605700  0.89710200  0.94968200  1
  O  O27  1  0.68394300  0.10289800  0.44968200  1
  O  O28  1  0.68394300  0.39710200  0.94968200  1
  O  O29  1  0.81605700  0.60289800  0.44968200  1
  O  O30  1  0.18394300  0.10289800  0.05031800  1
  O  O31  1  0.31605700  0.89710200  0.55031800  1
  O  O32  1  0.54579700  0.92055500  0.75740500  1
  O  O33  1  0.95420300  0.07944500  0.25740500  1
  O  O34  1  0.04579700  0.57944500  0.24259500  1
  O  O35  1  0.45420300  0.42055500  0.74259500  1
  O  O36  1  0.45420300  0.07944500  0.24259500  1
  O  O37  1  0.04579700  0.92055500  0.74259500  1
  O  O38  1  0.95420300  0.42055500  0.75740500  1
  O  O39  1  0.54579700  0.57944500  0.25740500  1
  O  O40  1  0.79245800  0.82963400  0.17711800  1
  O  O41  1  0.70754200  0.17036600  0.67711800  1
  O  O42  1  0.29245800  0.67036600  0.82288200  1
  O  O43  1  0.20754200  0.32963400  0.32288200  1
  O  O44  1  0.20754200  0.17036600  0.82288200  1
  O  O45  1  0.29245800  0.82963400  0.32288200  1
  O  O46  1  0.70754200  0.32963400  0.17711800  1
  O  O47  1  0.79245800  0.67036600  0.67711800  1
loop_
_geom_bond_atom_site_label_1
_geom_bond_atom_site_label_2
_geom_bond_distance
_geom_bond_site_symmetry_2
Na0 O30 2.305876 1_565
Na0 O8 2.346787 1_555
Na0 O18 2.354965 1_555
Na0 O45 2.418557 1_555
Na0 O36 2.471758 1_565
Na1 O31 2.305876 1_545
Na1 O9 2.346787 1_555
Na1 O19 2.354965 1_555
Na1 O44 2.418557 1_555
Na1 O37 2.471758 1_545
Na2 O28 2.305876 1_555
Na2 O10 2.346787 1_555
Na2 O16 2.354965 1_555
Na2 O47 2.418557 1_555
Na2 O38 2.471758 1_555
Na3 O29 2.305876 1_555
Na3 O11 2.346787 1_555
Na3 O17 2.354965 1_555
Na3 O46 2.418557 1_555
Na3 O39 2.471758 1_555
Na4 O26 2.305876 1_545
Na4 O12 2.346787 1_555
Na4 O22 2.354965 1_555
Na4 O41 2.418557 1_555
Na4 O32 2.471758 1_545
Na5 O27 2.305876 1_565
Na5 O13 2.346787 1_555
Na5 O23 2.354965 1_555
Na5 O40 2.418557 1_555
Na5 O33 2.471758 1_565
Na6 O24 2.305876 1_555
Na6 O14 2.346787 1_555
Na6 O20 2.354965 1_555
Na6 O43 2.418557 1_555
Na6 O34 2.471758 1_555
Na7 O25 2.305876 1_555
Na7 O15 2.346787 1_555
Na7 O21 2.354965 1_555
Na7 O42 2.418557 1_555
Na7 O35 2.471758 1_555
Na8 O6 2.303675 1_555
Na8 O12 2.396001 1_554
Na8 O8 2.402545 1_545
Na8 O26 2.415876 1_544
Na8 O40 2.452369 1_545
Na8 O36 2.883440 1_555
Na9 O7 2.303675 1_555
Na9 O13 2.396001 1_555
Na9 O9 2.402545 1_665
Na9 O27 2.415876 1_565
Na9 O41 2.452369 1_565
Na9 O37 2.883440 1_655
Na10 O4 2.303675 1_555
Na10 O14 2.396001 1_556
Na10 O10 2.402545 1_455
Na10 O24 2.415876 1_556
Na10 O42 2.452369 1_555
Na10 O38 2.883440 1_455
Na11 O5 2.303675 1_555
Na11 O15 2.396001 1_555
Na11 O11 2.402545 1_555
Na11 O25 2.415876 1_555
Na11 O43 2.452369 1_555
Na11 O39 2.883440 1_555
Na12 O2 2.303675 1_555
Na12 O8 2.396001 1_556
Na12 O12 2.402545 1_565
Na12 O30 2.415876 1_566
Na12 O44 2.452369 1_565
Na12 O32 2.883440 1_555
Na13 O3 2.303675 1_555
Na13 O9 2.396001 1_555
Na13 O13 2.402545 1_445
Na13 O31 2.415876 1_545
Na13 O45 2.452369 1_545
Na13 O33 2.883440 1_455
Na14 O0 2.303675 1_555
Na14 O10 2.396001 1_554
Na14 O14 2.402545 1_655
Na14 O28 2.415876 1_554
Na14 O46 2.452369 1_555
Na14 O34 2.883440 1_655
Na15 O1 2.303675 1_555
Na15 O11 2.396001 1_555
Na15 O15 2.402545 1_555
Na15 O29 2.415876 1_555
Na15 O47 2.452369 1_555
Na15 O35 2.883440 1_555
Mo0 O24 1.770716 1_555
Mo0 O16 1.796825 1_554
Mo0 O8 1.806266 1_555
Mo0 O0 1.842694 1_555
Mo1 O25 1.770716 1_555
Mo1 O17 1.796825 1_455
Mo1 O9 1.806266 1_555
Mo1 O1 1.842694 1_455
Mo2 O26 1.770716 1_555
Mo2 O18 1.796825 1_656
Mo2 O10 1.806266 1_555
Mo2 O2 1.842694 1_655
Mo3 O27 1.770716 1_555
Mo3 O19 1.796825 1_555
Mo3 O11 1.806266 1_555
Mo3 O3 1.842694 1_555
Mo4 O28 1.770716 1_555
Mo4 O20 1.796825 1_556
Mo4 O12 1.806266 1_555
Mo4 O4 1.842694 1_555
Mo5 O29 1.770716 1_555
Mo5 O21 1.796825 1_655
Mo5 O13 1.806266 1_555
Mo5 O5 1.842694 1_655
Mo6 O30 1.770716 1_555
Mo6 O22 1.796825 1_454
Mo6 O14 1.806266 1_555
Mo6 O6 1.842694 1_455
Mo7 O31 1.770716 1_555
Mo7 O23 1.796825 1_555
Mo7 O15 1.806266 1_555
Mo7 O7 1.842694 1_555
