# generated using pymatgen
data_BP5(Pb3O10)2
_symmetry_space_group_name_H-M   'P 1'
_cell_length_a   7.05520300
_cell_length_b   7.05520300
_cell_length_c   10.11330400
_cell_angle_alpha   90.00000000
_cell_angle_beta   90.00000000
_cell_angle_gamma   90.00000000
_symmetry_Int_Tables_number   1
_chemical_formula_structural   BP5(Pb3O10)2
_chemical_formula_sum   'B1 P5 Pb6 O20'
_cell_volume   503.39870108
_cell_formula_units_Z   1
loop_
 _symmetry_equiv_pos_site_id
 _symmetry_equiv_pos_as_xyz
  1  'x, y, z'
loop_
 _atom_site_type_symbol
 _atom_site_label
 _atom_site_symmetry_multiplicity
 _atom_site_fract_x
 _atom_site_fract_y
 _atom_site_fract_z
 _atom_site_occupancy
  B  B0  1  0.50000000  0.50000000  0.50000000  1
  P  P0  1  0.00000000  0.00000000  0.00000000  1
  P  P1  1  0.73417400  0.66922100  0.30403800  1
  P  P2  1  0.26582600  0.33077900  0.30403800  1
  P  P3  1  0.33077900  0.73417400  0.69596200  1
  P  P4  1  0.66922100  0.26582600  0.69596200  1
  Pb  Pb0  1  0.83727200  0.77064700  0.68541500  1
  Pb  Pb1  1  0.16272800  0.22935300  0.68541500  1
  Pb  Pb2  1  0.22935300  0.83727200  0.31458500  1
  Pb  Pb3  1  0.77064700  0.16272800  0.31458500  1
  Pb  Pb4  1  0.00000000  0.50000000  0.02126800  1
  Pb  Pb5  1  0.50000000  0.00000000  0.97873200  1
  O  O0  1  0.89459100  0.79539700  0.36055200  1
  O  O1  1  0.10540900  0.20460300  0.36055200  1
  O  O2  1  0.20460300  0.89459100  0.63944800  1
  O  O3  1  0.79539700  0.10540900  0.63944800  1
  O  O4  1  0.67377700  0.53273400  0.42384000  1
  O  O5  1  0.32622300  0.46726600  0.42384000  1
  O  O6  1  0.46726600  0.67377700  0.57616000  1
  O  O7  1  0.53273400  0.32622300  0.57616000  1
  O  O8  1  0.88888900  0.14823600  0.08466900  1
  O  O9  1  0.11111100  0.85176400  0.08466900  1
  O  O10  1  0.85176400  0.88888900  0.91533100  1
  O  O11  1  0.14823600  0.11111100  0.91533100  1
  O  O12  1  0.79919400  0.42741900  0.74883600  1
  O  O13  1  0.20080600  0.57258100  0.74883600  1
  O  O14  1  0.57258100  0.79919400  0.25116400  1
  O  O15  1  0.42741900  0.20080600  0.25116400  1
  O  O16  1  0.79619400  0.51966000  0.20120800  1
  O  O17  1  0.20380600  0.48034000  0.20120800  1
  O  O18  1  0.48034000  0.79619400  0.79879200  1
  O  O19  1  0.51966000  0.20380600  0.79879200  1
loop_
_geom_bond_atom_site_label_1
_geom_bond_atom_site_label_2
_geom_bond_distance
_geom_bond_site_symmetry_2
B0 O5 1.466200 1_555
B0 O6 1.466200 1_555
B0 O4 1.466200 1_555
B0 O7 1.466200 1_555
O0 P1 1.549202 1_555
O0 Pb2 2.425193 1_655
O0 Pb3 2.774372 1_565
O1 P2 1.549202 1_555
O1 Pb3 2.425193 1_455
O1 Pb2 2.774372 1_545
O2 P3 1.549202 1_555
O2 Pb1 2.425193 1_565
O2 Pb0 2.774372 1_455
O3 P4 1.549202 1_555
O3 Pb0 2.425193 1_545
O3 Pb1 2.774372 1_655
O4 P1 1.605239 1_555
O5 P2 1.605239 1_555
O6 P3 1.605239 1_555
O7 P4 1.605239 1_555
O8 P0 1.562533 1_655
O8 Pb3 2.472445 1_555
O8 Pb4 2.680450 1_655
O9 P0 1.562533 1_565
O9 Pb2 2.472445 1_555
O9 Pb4 2.680450 1_555
O10 P0 1.562533 1_666
O10 Pb0 2.472445 1_555
O10 Pb5 2.680450 1_565
O11 P0 1.562533 1_556
O11 Pb1 2.472445 1_555
O11 Pb5 2.680450 1_555
O12 P4 1.557743 1_555
O12 Pb0 2.519411 1_555
O13 P3 1.557743 1_555
O13 Pb1 2.519411 1_555
O14 P1 1.557743 1_555
O14 Pb2 2.519411 1_555
O15 P2 1.557743 1_555
O15 Pb3 2.519411 1_555
O16 P1 1.544789 1_555
O16 Pb4 2.323446 1_655
O16 Pb3 2.772848 1_555
O17 P2 1.544789 1_555
O17 Pb4 2.323446 1_555
O17 Pb2 2.772848 1_555
O18 P3 1.544789 1_555
O18 Pb5 2.323446 1_565
O18 Pb0 2.772848 1_555
O19 P4 1.544789 1_555
O19 Pb5 2.323446 1_555
O19 Pb1 2.772848 1_555
