# generated using pymatgen
data_VFeAs
_symmetry_space_group_name_H-M   'P 1'
_cell_length_a   6.07585904
_cell_length_b   6.07585904
_cell_length_c   3.66282300
_cell_angle_alpha   90.00000000
_cell_angle_beta   90.00000000
_cell_angle_gamma   119.99998953
_symmetry_Int_Tables_number   1
_chemical_formula_structural   VFeAs
_chemical_formula_sum   'V3 Fe3 As3'
_cell_volume   117.10137357
_cell_formula_units_Z   3
loop_
 _symmetry_equiv_pos_site_id
 _symmetry_equiv_pos_as_xyz
  1  'x, y, z'
loop_
 _atom_site_type_symbol
 _atom_site_label
 _atom_site_symmetry_multiplicity
 _atom_site_fract_x
 _atom_site_fract_y
 _atom_site_fract_z
 _atom_site_occupancy
  V  V0  1  0.41707600  0.41707600  0.50000000  1
  V  V1  1  0.58292400  0.00000000  0.50000000  1
  V  V2  1  0.00000000  0.58292400  0.50000000  1
  Fe  Fe0  1  0.75228800  0.75228800  0.00000000  1
  Fe  Fe1  1  0.24771200  0.00000000  0.00000000  1
  Fe  Fe2  1  0.00000000  0.24771200  0.00000000  1
  As  As0  1  0.66666700  0.33333300  0.00000000  1
  As  As1  1  0.33333300  0.66666700  0.00000000  1
  As  As2  1  0.00000000  0.00000000  0.50000000  1
loop_
_geom_bond_atom_site_label_1
_geom_bond_atom_site_label_2
_geom_bond_distance
_geom_bond_site_symmetry_2
As0 Fe2 2.329378 1_655
As0 Fe1 2.329382 1_555
As0 Fe0 2.329384 1_555
As0 V1 2.585391 1_555
As0 V1 2.585391 1_554
As0 V2 2.585392 1_655
As0 V2 2.585392 1_654
As0 V0 2.585395 1_554
As0 V0 2.585395 1_555
As1 Fe1 2.329378 1_565
As1 Fe2 2.329382 1_555
As1 Fe0 2.329384 1_555
As1 V2 2.585391 1_555
As1 V2 2.585391 1_554
As1 V1 2.585392 1_565
As1 V1 2.585392 1_564
As1 V0 2.585395 1_554
As1 V0 2.585395 1_555
As2 Fe1 2.370503 1_555
As2 Fe2 2.370503 1_555
As2 Fe2 2.370503 1_556
As2 Fe1 2.370503 1_556
As2 Fe0 2.370503 1_446
As2 Fe0 2.370503 1_445
As2 V1 2.534095 1_455
As2 V2 2.534095 1_545
As2 V0 2.534095 1_555
