# generated using pymatgen
data_MgZn3
_symmetry_space_group_name_H-M   'P 1'
_cell_length_a   10.96459504
_cell_length_b   10.96459504
_cell_length_c   10.96459504
_cell_angle_alpha   149.08895142
_cell_angle_beta   127.52680423
_cell_angle_gamma   62.15389017
_symmetry_Int_Tables_number   1
_chemical_formula_structural   MgZn3
_chemical_formula_sum   'Mg8 Zn24'
_cell_volume   532.02684863
_cell_formula_units_Z   8
loop_
 _symmetry_equiv_pos_site_id
 _symmetry_equiv_pos_as_xyz
  1  'x, y, z'
loop_
 _atom_site_type_symbol
 _atom_site_label
 _atom_site_symmetry_multiplicity
 _atom_site_fract_x
 _atom_site_fract_y
 _atom_site_fract_z
 _atom_site_occupancy
  Mg  Mg0_0  1  0.16832300  0.00000000  0.16832300  1
  Mg  Mg0_1  1  0.16832300  0.00000000  0.66832300  1
  Mg  Mg0_2  1  0.16832300  0.50000000  0.16832300  1
  Mg  Mg0_3  1  0.16832300  0.50000000  0.66832300  1
  Mg  Mg0_4  1  0.66832300  0.00000000  0.16832300  1
  Mg  Mg0_5  1  0.66832300  0.00000000  0.66832300  1
  Mg  Mg0_6  1  0.66832300  0.50000000  0.16832300  1
  Mg  Mg0_7  1  0.66832300  0.50000000  0.66832300  1
  Zn  Zn0_0  1  0.41547550  0.25000000  0.16547550  1
  Zn  Zn0_1  1  0.41547550  0.25000000  0.66547550  1
  Zn  Zn0_2  1  0.41547550  0.75000000  0.16547550  1
  Zn  Zn0_3  1  0.41547550  0.75000000  0.66547550  1
  Zn  Zn0_4  1  0.91547550  0.25000000  0.16547550  1
  Zn  Zn0_5  1  0.91547550  0.25000000  0.66547550  1
  Zn  Zn0_6  1  0.91547550  0.75000000  0.16547550  1
  Zn  Zn0_7  1  0.91547550  0.75000000  0.66547550  1
  Zn  Zn1_0  1  0.12405050  0.12428350  0.49976700  1
  Zn  Zn1_1  1  0.12405050  0.12428350  0.99976700  1
  Zn  Zn1_2  1  0.12405050  0.62428350  0.49976700  1
  Zn  Zn1_3  1  0.12405050  0.62428350  0.99976700  1
  Zn  Zn1_4  1  0.62405050  0.12428350  0.49976700  1
  Zn  Zn1_5  1  0.62405050  0.12428350  0.99976700  1
  Zn  Zn1_6  1  0.62405050  0.62428350  0.49976700  1
  Zn  Zn1_7  1  0.62405050  0.62428350  0.99976700  1
  Zn  Zn2_0  1  0.37548400  0.37571650  0.49976700  1
  Zn  Zn2_1  1  0.37548400  0.37571650  0.99976700  1
  Zn  Zn2_2  1  0.37548400  0.87571650  0.49976700  1
  Zn  Zn2_3  1  0.37548400  0.87571650  0.99976700  1
  Zn  Zn2_4  1  0.87548400  0.37571650  0.49976700  1
  Zn  Zn2_5  1  0.87548400  0.37571650  0.99976700  1
  Zn  Zn2_6  1  0.87548400  0.87571650  0.49976700  1
  Zn  Zn2_7  1  0.87548400  0.87571650  0.99976700  1
loop_
_geom_bond_atom_site_label_1
_geom_bond_atom_site_label_2
_geom_bond_distance
_geom_bond_site_symmetry_2
Mg0_0 Zn0_2 2.806295 1_545
Mg0_0 Zn0_1 2.806295 1_555
Mg0_0 Zn2_7 2.849370 1_444
Mg0_0 Zn1_1 2.849376 1_554
Mg0_0 Zn0_7 2.853577 1_444
Mg0_0 Zn0_4 2.853577 1_455
Mg0_0 Zn1_0 2.886700 1_555
Mg0_0 Zn1_3 2.886700 1_544
Mg0_0 Zn2_0 2.886703 1_555
Mg0_0 Zn2_3 2.886705 1_544
Mg0_0 Mg0_3 2.921958 1_544
Mg0_0 Mg0_3 2.921958 1_555
Mg0_1 Zn0_0 2.806295 1_556
Mg0_1 Zn0_3 2.806295 1_545
Mg0_1 Zn2_6 2.849370 1_445
Mg0_1 Zn1_0 2.849376 1_555
Mg0_1 Zn0_5 2.853577 1_455
Mg0_1 Zn0_6 2.853577 1_445
Mg0_1 Zn1_1 2.886700 1_555
Mg0_1 Zn1_2 2.886700 1_545
Mg0_1 Zn2_1 2.886703 1_555
Mg0_1 Zn2_2 2.886705 1_545
Mg0_1 Mg0_2 2.921958 1_545
Mg0_1 Mg0_2 2.921958 1_556
Mg0_2 Zn0_3 2.806295 1_555
Mg0_2 Zn0_0 2.806295 1_555
Mg0_2 Zn2_5 2.849370 1_454
Mg0_2 Zn1_3 2.849376 1_554
Mg0_2 Zn0_6 2.853577 1_455
Mg0_2 Zn0_5 2.853577 1_454
Mg0_2 Zn1_2 2.886700 1_555
Mg0_2 Zn1_1 2.886700 1_554
Mg0_2 Zn2_2 2.886703 1_555
Mg0_2 Zn2_1 2.886705 1_554
Mg0_3 Zn0_2 2.806295 1_556
Mg0_3 Zn0_1 2.806295 1_555
Mg0_3 Zn2_4 2.849370 1_455
Mg0_3 Zn1_2 2.849376 1_555
Mg0_3 Zn0_7 2.853577 1_455
Mg0_3 Zn0_4 2.853577 1_455
Mg0_3 Zn1_3 2.886700 1_555
Mg0_3 Zn1_0 2.886700 1_555
Mg0_3 Zn2_3 2.886703 1_555
Mg0_3 Zn2_0 2.886705 1_555
Mg0_4 Zn0_5 2.806295 1_555
Mg0_4 Zn0_6 2.806295 1_545
Mg0_4 Zn2_3 2.849370 1_544
Mg0_4 Zn1_5 2.849376 1_554
Mg0_4 Zn0_0 2.853577 1_555
Mg0_4 Zn0_3 2.853577 1_544
Mg0_4 Zn1_4 2.886700 1_555
Mg0_4 Zn1_7 2.886700 1_544
Mg0_4 Zn2_4 2.886703 1_555
Mg0_4 Zn2_7 2.886705 1_544
Mg0_4 Mg0_7 2.921958 1_544
Mg0_4 Mg0_7 2.921958 1_555
Mg0_5 Zn0_4 2.806295 1_556
Mg0_5 Zn0_7 2.806295 1_545
Mg0_5 Zn2_2 2.849370 1_545
Mg0_5 Zn1_4 2.849376 1_555
Mg0_5 Zn0_1 2.853577 1_555
Mg0_5 Zn0_2 2.853577 1_545
Mg0_5 Zn1_5 2.886700 1_555
Mg0_5 Zn1_6 2.886700 1_545
Mg0_5 Zn2_5 2.886703 1_555
Mg0_5 Zn2_6 2.886705 1_545
Mg0_5 Mg0_6 2.921958 1_556
Mg0_5 Mg0_6 2.921958 1_545
Mg0_6 Zn0_4 2.806295 1_555
Mg0_6 Zn0_7 2.806295 1_555
Mg0_6 Zn2_1 2.849370 1_554
Mg0_6 Zn1_7 2.849376 1_554
Mg0_6 Zn0_2 2.853577 1_555
Mg0_6 Zn0_1 2.853577 1_554
Mg0_6 Zn1_6 2.886700 1_555
Mg0_6 Zn1_5 2.886700 1_554
Mg0_6 Zn2_6 2.886703 1_555
Mg0_6 Zn2_5 2.886705 1_554
Mg0_7 Zn0_6 2.806295 1_556
Mg0_7 Zn0_5 2.806295 1_555
Mg0_7 Zn2_0 2.849370 1_555
Mg0_7 Zn1_6 2.849376 1_555
Mg0_7 Zn0_3 2.853577 1_555
Mg0_7 Zn0_0 2.853577 1_555
Mg0_7 Zn1_7 2.886700 1_555
Mg0_7 Zn1_4 2.886700 1_555
Mg0_7 Zn2_7 2.886703 1_555
Mg0_7 Zn2_4 2.886705 1_555
Zn0_0 Zn1_1 2.855847 1_554
Zn0_0 Zn2_1 2.855850 1_554
Zn0_0 Zn2_0 2.872454 1_555
Zn0_0 Zn2_3 2.872455 1_544
Zn0_0 Zn1_6 2.872458 1_555
Zn0_0 Zn1_5 2.872458 1_554
Zn0_0 Zn0_3 2.921958 1_544
Zn0_0 Zn0_3 2.921958 1_555
Zn0_1 Zn1_0 2.855847 1_555
Zn0_1 Zn2_0 2.855850 1_555
Zn0_1 Zn2_1 2.872454 1_555
Zn0_1 Zn2_2 2.872455 1_545
Zn0_1 Zn1_7 2.872458 1_555
Zn0_1 Zn1_4 2.872458 1_555
Zn0_1 Zn0_2 2.921958 1_556
Zn0_1 Zn0_2 2.921958 1_545
Zn0_2 Zn1_3 2.855847 1_554
Zn0_2 Zn2_3 2.855850 1_554
Zn0_2 Zn2_2 2.872454 1_555
Zn0_2 Zn2_1 2.872455 1_554
Zn0_2 Zn1_4 2.872458 1_565
Zn0_2 Zn1_7 2.872458 1_554
Zn0_3 Zn1_2 2.855847 1_555
Zn0_3 Zn2_2 2.855850 1_555
Zn0_3 Zn2_3 2.872454 1_555
Zn0_3 Zn2_0 2.872455 1_555
Zn0_3 Zn1_5 2.872458 1_565
Zn0_3 Zn1_6 2.872458 1_555
Zn0_4 Zn1_5 2.855847 1_554
Zn0_4 Zn2_5 2.855850 1_554
Zn0_4 Zn2_4 2.872454 1_555
Zn0_4 Zn2_7 2.872455 1_544
Zn0_4 Zn1_2 2.872458 1_655
Zn0_4 Zn1_1 2.872458 1_654
Zn0_4 Zn0_7 2.921958 1_555
Zn0_4 Zn0_7 2.921958 1_544
Zn0_5 Zn1_4 2.855847 1_555
Zn0_5 Zn2_4 2.855850 1_555
Zn0_5 Zn2_5 2.872454 1_555
Zn0_5 Zn2_6 2.872455 1_545
Zn0_5 Zn1_3 2.872458 1_655
Zn0_5 Zn1_0 2.872458 1_655
Zn0_5 Zn0_6 2.921958 1_556
Zn0_5 Zn0_6 2.921958 1_545
Zn0_6 Zn1_7 2.855847 1_554
Zn0_6 Zn2_7 2.855850 1_554
Zn0_6 Zn2_6 2.872454 1_555
Zn0_6 Zn2_5 2.872455 1_554
Zn0_6 Zn1_0 2.872458 1_665
Zn0_6 Zn1_3 2.872458 1_654
Zn0_7 Zn1_6 2.855847 1_555
Zn0_7 Zn2_6 2.855850 1_555
Zn0_7 Zn2_7 2.872454 1_555
Zn0_7 Zn2_4 2.872455 1_555
Zn0_7 Zn1_1 2.872458 1_665
Zn0_7 Zn1_2 2.872458 1_655
Zn1_0 Zn2_4 2.830025 1_455
Zn1_0 Zn2_7 2.830027 1_444
Zn1_0 Zn2_1 2.830030 1_555
Zn1_0 Zn2_2 2.830031 1_545
Zn1_0 Zn1_3 2.921958 1_544
Zn1_0 Zn1_3 2.921958 1_555
Zn1_1 Zn2_5 2.830025 1_455
Zn1_1 Zn2_6 2.830027 1_445
Zn1_1 Zn2_0 2.830030 1_556
Zn1_1 Zn2_3 2.830031 1_545
Zn1_1 Zn1_2 2.921958 1_556
Zn1_1 Zn1_2 2.921958 1_545
Zn1_2 Zn2_6 2.830025 1_455
Zn1_2 Zn2_5 2.830027 1_454
Zn1_2 Zn2_3 2.830030 1_555
Zn1_2 Zn2_0 2.830031 1_555
Zn1_3 Zn2_7 2.830025 1_455
Zn1_3 Zn2_4 2.830027 1_455
Zn1_3 Zn2_2 2.830030 1_556
Zn1_3 Zn2_1 2.830031 1_555
Zn1_4 Zn2_0 2.830025 1_555
Zn1_4 Zn2_3 2.830027 1_544
Zn1_4 Zn2_5 2.830030 1_555
Zn1_4 Zn2_6 2.830031 1_545
Zn1_4 Zn1_7 2.921958 1_544
Zn1_4 Zn1_7 2.921958 1_555
Zn1_5 Zn2_1 2.830025 1_555
Zn1_5 Zn2_2 2.830027 1_545
Zn1_5 Zn2_4 2.830030 1_556
Zn1_5 Zn2_7 2.830031 1_545
Zn1_5 Zn1_6 2.921958 1_556
Zn1_5 Zn1_6 2.921958 1_545
Zn1_6 Zn2_2 2.830025 1_555
Zn1_6 Zn2_1 2.830027 1_554
Zn1_6 Zn2_7 2.830030 1_555
Zn1_6 Zn2_4 2.830031 1_555
Zn1_7 Zn2_3 2.830025 1_555
Zn1_7 Zn2_0 2.830027 1_555
Zn1_7 Zn2_6 2.830030 1_556
Zn1_7 Zn2_5 2.830031 1_555
Zn2_0 Zn2_3 2.921958 1_555
Zn2_0 Zn2_3 2.921958 1_544
Zn2_1 Zn2_2 2.921958 1_556
Zn2_1 Zn2_2 2.921958 1_545
Zn2_4 Zn2_7 2.921958 1_555
Zn2_4 Zn2_7 2.921958 1_544
Zn2_5 Zn2_6 2.921958 1_556
Zn2_5 Zn2_6 2.921958 1_545
