# generated using pymatgen
data_Mg14ZnC
_symmetry_space_group_name_H-M   'P 1'
_cell_length_a   6.17376211
_cell_length_b   6.17376164
_cell_length_c   9.95966947
_cell_angle_alpha   90.00000000
_cell_angle_beta   90.00000000
_cell_angle_gamma   120.00000248
_symmetry_Int_Tables_number   1
_chemical_formula_structural   Mg14ZnC
_chemical_formula_sum   'Mg14 Zn1 C1'
_cell_volume   328.75721700
_cell_formula_units_Z   1
loop_
 _symmetry_equiv_pos_site_id
 _symmetry_equiv_pos_as_xyz
  1  'x, y, z'
loop_
 _atom_site_type_symbol
 _atom_site_label
 _atom_site_symmetry_multiplicity
 _atom_site_fract_x
 _atom_site_fract_y
 _atom_site_fract_z
 _atom_site_occupancy
  Mg  Mg0  1  0.16782757  0.83391329  0.12500000  1
  Mg  Mg1  1  0.16354194  0.83177047  0.62500000  1
  Mg  Mg2  1  0.66608671  0.33217243  0.12500000  1
  Mg  Mg3  1  0.66822953  0.33645806  0.62500000  1
  Mg  Mg4  1  0.66608671  0.83391329  0.12500000  1
  Mg  Mg5  1  0.66822953  0.83177047  0.62500000  1
  Mg  Mg6  1  0.32769697  0.17230303  0.38121120  1
  Mg  Mg7  1  0.32769697  0.17230303  0.86878880  1
  Mg  Mg8  1  0.32769697  0.65539494  0.38121120  1
  Mg  Mg9  1  0.32769697  0.65539494  0.86878880  1
  Mg  Mg10  1  0.84460506  0.17230303  0.38121120  1
  Mg  Mg11  1  0.84460506  0.17230303  0.86878880  1
  Mg  Mg12  1  0.83333300  0.66666700  0.37255472  1
  Mg  Mg13  1  0.83333300  0.66666700  0.87744528  1
  Zn  Zn0  1  0.16666700  0.33333300  0.12500000  1
  C  C0  1  0.16666700  0.33333300  0.62500000  1
loop_
_geom_bond_atom_site_label_1
_geom_bond_atom_site_label_2
_geom_bond_distance
_geom_bond_site_symmetry_2
Mg0 Mg12 3.045890 1_455
Mg0 Mg13 3.045890 1_454
Mg0 Mg2 3.076133 1_565
Mg0 Mg4 3.076133 1_555
Mg0 Zn0 3.086887 1_565
Mg0 Zn0 3.086887 1_555
Mg0 Mg2 3.097628 1_455
Mg0 Mg4 3.097629 1_455
Mg0 Mg8 3.128614 1_555
Mg0 Mg9 3.128614 1_554
Mg0 Mg6 3.128620 1_565
Mg0 Mg7 3.128620 1_564
Mg1 Mg9 3.035095 1_555
Mg1 Mg8 3.035095 1_555
Mg1 Mg7 3.035101 1_565
Mg1 Mg6 3.035101 1_565
Mg1 Mg12 3.072226 1_455
Mg1 Mg13 3.072226 1_455
Mg2 Mg4 3.076133 1_545
Mg2 Zn0 3.086887 1_555
Mg2 Zn0 3.086887 1_655
Mg2 Mg4 3.097628 1_555
Mg2 Mg6 3.128620 1_555
Mg2 Mg7 3.128620 1_554
Mg3 Mg7 3.035101 1_555
Mg3 Mg6 3.035101 1_555
Mg4 Zn0 3.086887 1_555
Mg4 Zn0 3.086887 1_665
Mg4 Mg8 3.128620 1_555
Mg4 Mg9 3.128620 1_554
Mg5 Mg9 3.035101 1_555
Mg5 Mg8 3.035101 1_555
Mg6 Mg8 2.982494 1_555
Mg6 Zn0 3.078415 1_555
Mg6 Mg8 3.191267 1_545
Mg7 Mg9 2.982494 1_555
Mg7 Zn0 3.078415 1_556
Mg7 Mg9 3.191267 1_545
Mg8 Zn0 3.078421 1_555
Mg9 Zn0 3.078421 1_556
Mg10 Mg8 2.982494 1_655
Mg10 Mg6 2.982495 1_655
Mg10 Mg3 3.035095 1_555
Mg10 Mg5 3.035101 1_545
Mg10 Zn0 3.078421 1_655
Mg10 Mg12 3.088673 1_545
Mg10 Mg12 3.088673 1_555
Mg10 Mg2 3.128614 1_555
Mg10 Mg4 3.128620 1_545
Mg10 Mg8 3.191267 1_545
Mg10 Mg6 3.191268 1_555
Mg11 Mg9 2.982494 1_655
Mg11 Mg7 2.982495 1_655
Mg11 Mg3 3.035095 1_555
Mg11 Mg5 3.035101 1_545
Mg11 Zn0 3.078421 1_656
Mg11 Mg13 3.088673 1_545
Mg11 Mg13 3.088673 1_555
Mg11 Mg2 3.128614 1_556
Mg11 Mg4 3.128620 1_546
Mg11 Mg9 3.191267 1_545
Mg11 Mg7 3.191268 1_555
Mg12 Mg4 3.045884 1_555
Mg12 Mg2 3.045890 1_555
Mg12 Mg5 3.072220 1_555
Mg12 Mg3 3.072226 1_555
Mg12 Mg6 3.088673 1_665
Mg12 Mg6 3.088673 1_555
Mg12 Mg8 3.088673 1_655
Mg12 Mg8 3.088673 1_555
Mg13 Mg4 3.045884 1_556
Mg13 Mg2 3.045890 1_556
Mg13 Mg5 3.072220 1_555
Mg13 Mg3 3.072226 1_555
Mg13 Mg7 3.088673 1_665
Mg13 Mg7 3.088673 1_555
Mg13 Mg9 3.088673 1_655
Mg13 Mg9 3.088673 1_555
C0 Mg7 2.976663 1_555
C0 Mg6 2.976663 1_555
C0 Mg9 2.976669 1_555
C0 Mg8 2.976669 1_555
C0 Mg11 2.976669 1_455
C0 Mg10 2.976669 1_455
