# generated using pymatgen
data_B4C
_symmetry_space_group_name_H-M   'P 1'
_cell_length_a   5.04646593
_cell_length_b   5.19479252
_cell_length_c   5.19477907
_cell_angle_alpha   65.15271732
_cell_angle_beta   66.04617268
_cell_angle_gamma   66.04606697
_symmetry_Int_Tables_number   1
_chemical_formula_structural   B4C
_chemical_formula_sum   'B12 C3'
_cell_volume   108.28781432
_cell_formula_units_Z   3
loop_
 _symmetry_equiv_pos_site_id
 _symmetry_equiv_pos_as_xyz
  1  'x, y, z'
loop_
 _atom_site_type_symbol
 _atom_site_label
 _atom_site_symmetry_multiplicity
 _atom_site_fract_x
 _atom_site_fract_y
 _atom_site_fract_z
 _atom_site_occupancy
  B  B0  1  0.83739316  0.50818714  0.50832026  1
  B  B1  1  0.48467638  0.17578767  0.49794280  1
  B  B2  1  0.50469531  0.83109682  0.50613717  1
  B  B3  1  0.48467604  0.49781151  0.17591985  1
  B  B4  1  0.50469560  0.50600438  0.83122934  1
  B  B5  1  0.18075553  0.69337798  0.69350738  1
  B  B6  1  0.81175301  0.31002864  0.31016019  1
  B  B7  1  0.69481862  0.18808678  0.69702729  1
  B  B8  1  0.29914309  0.81754820  0.30396350  1
  B  B9  1  0.69481868  0.69689492  0.18821656  1
  B  B10  1  0.29914286  0.30383447  0.81767766  1
  B  B11  1  0.98897429  0.99947612  0.99960816  1
  C  C0  1  0.17505190  0.49695927  0.49709092  1
  C  C1  1  0.88191391  0.87574306  0.87587383  1
  C  C2  1  0.10357464  0.12051503  0.12064412  1
loop_
_geom_bond_atom_site_label_1
_geom_bond_atom_site_label_2
_geom_bond_distance
_geom_bond_site_symmetry_2
B0 C0 1.658857 1_655
B0 B4 1.829046 1_555
B0 B2 1.829048 1_555
B1 B2 1.735167 1_545
B1 C0 1.762855 1_555
B1 B7 1.788677 1_555
B1 B6 1.793832 1_555
B1 B10 1.799410 1_555
B1 B3 1.801394 1_555
B2 B8 1.786062 1_555
B2 B5 1.789987 1_555
B2 B9 1.808845 1_555
B2 B4 1.818562 1_555
B3 B4 1.735163 1_554
B3 C0 1.762853 1_555
B3 B9 1.788671 1_555
B3 B6 1.793828 1_555
B3 B8 1.799411 1_555
B4 B5 1.789994 1_555
B4 B7 1.808833 1_555
B5 C1 1.582191 1_455
B5 C0 1.733693 1_555
B6 C2 1.602248 1_655
B7 C1 1.608964 1_545
B8 C2 1.612523 1_565
B8 C0 1.762030 1_555
B9 C1 1.608966 1_554
B10 C2 1.612523 1_556
B10 C0 1.762014 1_555
B10 B4 1.786059 1_555
B11 C1 1.424568 1_555
B11 C2 1.431061 1_666
