# generated using pymatgen
data_K4Ge2(Se2O)3
_symmetry_space_group_name_H-M   'P 1'
_cell_length_a   15.55256500
_cell_length_b   8.35802600
_cell_length_c   14.21329904
_cell_angle_alpha   90.00000000
_cell_angle_beta   95.15778707
_cell_angle_gamma   90.00000000
_symmetry_Int_Tables_number   1
_chemical_formula_structural   K4Ge2(Se2O)3
_chemical_formula_sum   'K16 Ge8 Se24 O12'
_cell_volume   1840.08788360
_cell_formula_units_Z   4
loop_
 _symmetry_equiv_pos_site_id
 _symmetry_equiv_pos_as_xyz
  1  'x, y, z'
loop_
 _atom_site_type_symbol
 _atom_site_label
 _atom_site_symmetry_multiplicity
 _atom_site_fract_x
 _atom_site_fract_y
 _atom_site_fract_z
 _atom_site_occupancy
  K  K0  1  0.89172700  0.04624100  0.46098100  1
  K  K1  1  0.10827300  0.54624100  0.03901900  1
  K  K2  1  0.10827300  0.95375900  0.53901900  1
  K  K3  1  0.89172700  0.45375900  0.96098100  1
  K  K4  1  0.87244800  0.60770900  0.32202900  1
  K  K5  1  0.12755200  0.10770900  0.17797100  1
  K  K6  1  0.12755200  0.39229100  0.67797100  1
  K  K7  1  0.87244800  0.89229100  0.82202900  1
  K  K8  1  0.67153900  0.08700300  0.59312300  1
  K  K9  1  0.32846100  0.58700300  0.90687700  1
  K  K10  1  0.32846100  0.91299700  0.40687700  1
  K  K11  1  0.67153900  0.41299700  0.09312300  1
  K  K12  1  0.57673200  0.51172500  0.41034900  1
  K  K13  1  0.42326800  0.01172500  0.08965100  1
  K  K14  1  0.42326800  0.48827500  0.58965100  1
  K  K15  1  0.57673200  0.98827500  0.91034900  1
  Ge  Ge0  1  0.79041800  0.52094500  0.58002500  1
  Ge  Ge1  1  0.20958200  0.02094500  0.91997500  1
  Ge  Ge2  1  0.20958200  0.47905500  0.41997500  1
  Ge  Ge3  1  0.79041800  0.97905500  0.08002500  1
  Ge  Ge4  1  0.68122000  0.51003400  0.76849400  1
  Ge  Ge5  1  0.31878000  0.01003400  0.73150600  1
  Ge  Ge6  1  0.31878000  0.48996600  0.23150600  1
  Ge  Ge7  1  0.68122000  0.98996600  0.26849400  1
  Se  Se0  1  0.76725500  0.35726200  0.44853500  1
  Se  Se1  1  0.23274500  0.85726200  0.05146500  1
  Se  Se2  1  0.23274500  0.64273800  0.55146500  1
  Se  Se3  1  0.76725500  0.14273800  0.94853500  1
  Se  Se4  1  0.66716800  0.67650300  0.62529300  1
  Se  Se5  1  0.33283200  0.17650300  0.87470700  1
  Se  Se6  1  0.33283200  0.32349700  0.37470700  1
  Se  Se7  1  0.66716800  0.82349700  0.12529300  1
  Se  Se8  1  0.81269700  0.36606000  0.72604200  1
  Se  Se9  1  0.18730300  0.86606000  0.77395800  1
  Se  Se10  1  0.18730300  0.63394000  0.27395800  1
  Se  Se11  1  0.81269700  0.13394000  0.22604200  1
  Se  Se12  1  0.93226300  0.69330100  0.59296100  1
  Se  Se13  1  0.06773700  0.19330100  0.90703900  1
  Se  Se14  1  0.06773700  0.30669900  0.40703900  1
  Se  Se15  1  0.93226300  0.80669900  0.09296100  1
  Se  Se16  1  0.70554500  0.65136200  0.90762200  1
  Se  Se17  1  0.29445500  0.15136200  0.59237800  1
  Se  Se18  1  0.29445500  0.34863800  0.09237800  1
  Se  Se19  1  0.70554500  0.84863800  0.40762200  1
  Se  Se20  1  0.55975700  0.32576300  0.74687200  1
  Se  Se21  1  0.44024300  0.82576300  0.75312800  1
  Se  Se22  1  0.44024300  0.67423700  0.25312800  1
  Se  Se23  1  0.55975700  0.17423700  0.24687200  1
  O  O0  1  0.95631900  0.73942100  0.48012900  1
  O  O1  1  0.04368100  0.23942100  0.01987100  1
  O  O2  1  0.04368100  0.26057900  0.51987100  1
  O  O3  1  0.95631900  0.76057900  0.98012900  1
  O  O4  1  0.55399700  0.29212800  0.62320600  1
  O  O5  1  0.44600300  0.79212800  0.87679400  1
  O  O6  1  0.44600300  0.70787200  0.37679400  1
  O  O7  1  0.55399700  0.20787200  0.12320600  1
  O  O8  1  0.10008600  0.12912000  0.36128400  1
  O  O9  1  0.89991400  0.62912000  0.13871600  1
  O  O10  1  0.89991400  0.87088000  0.63871600  1
  O  O11  1  0.10008600  0.37088000  0.86128400  1
loop_
_geom_bond_atom_site_label_1
_geom_bond_atom_site_label_2
_geom_bond_distance
_geom_bond_site_symmetry_2
K0 O0 2.758672 1_545
K0 O10 2.913462 1_545
K0 O2 3.023124 1_655
K0 Se0 3.236477 1_555
K0 Se19 3.360442 1_545
K0 Se11 3.529972 1_555
K1 O1 2.758672 1_555
K1 O11 2.913462 1_554
K1 O3 3.023124 1_454
K1 Se1 3.236477 1_555
K1 Se18 3.360442 1_555
K1 Se10 3.529972 1_555
K2 O2 2.758672 1_565
K2 O8 2.913462 1_565
K2 O0 3.023124 1_455
K2 Se2 3.236477 1_555
K2 Se17 3.360442 1_565
K2 Se9 3.529972 1_555
K3 O3 2.758672 1_555
K3 O9 2.913462 1_556
K3 O1 3.023124 1_656
K3 Se3 3.236477 1_555
K3 Se16 3.360442 1_555
K3 Se8 3.529972 1_555
K4 O9 2.683868 1_555
K4 O0 2.726885 1_555
K4 Se0 3.289405 1_555
K4 Se19 3.583402 1_555
K5 O8 2.683868 1_555
K5 O1 2.726885 1_555
K5 Se1 3.289405 1_545
K5 Se18 3.583402 1_555
K6 O11 2.683868 1_555
K6 O2 2.726885 1_555
K6 Se2 3.289405 1_555
K6 Se17 3.583402 1_555
K7 O10 2.683868 1_555
K7 O3 2.726885 1_555
K7 Se3 3.289405 1_565
K7 Se16 3.583402 1_555
K8 O4 2.569930 1_555
K8 Se19 3.383947 1_545
K8 Se4 3.462778 1_545
K8 Se0 3.477313 1_555
K8 Se8 3.617043 1_555
K9 O5 2.569930 1_555
K9 Se18 3.383947 1_556
K9 Se5 3.462778 1_555
K9 Se1 3.477313 1_556
K9 Se9 3.617043 1_555
K10 O6 2.569930 1_555
K10 Se17 3.383947 1_565
K10 Se6 3.462778 1_565
K10 Se2 3.477313 1_555
K10 Se10 3.617043 1_555
K11 O7 2.569930 1_555
K11 Se16 3.383947 1_554
K11 Se7 3.462778 1_555
K11 Se3 3.477313 1_554
K11 Se11 3.617043 1_555
K12 O6 2.621934 1_555
K12 Se0 3.232987 1_555
K12 Se19 3.458094 1_555
K12 Se4 3.526447 1_555
K13 O7 2.621934 1_555
K13 Se1 3.232987 1_545
K13 Se18 3.458094 1_555
K13 Se5 3.526447 1_554
K14 O4 2.621934 1_555
K14 Se2 3.232987 1_555
K14 Se17 3.458094 1_555
K14 Se6 3.526447 1_555
K15 O5 2.621934 1_555
K15 Se3 3.232987 1_565
K15 Se16 3.458094 1_555
K15 Se7 3.526447 1_556
Ge0 Se0 2.318004 1_555
Ge0 Se8 2.444135 1_555
Ge0 Se4 2.449583 1_555
Ge0 Se12 2.627309 1_555
Ge1 Se1 2.318004 1_546
Ge1 Se9 2.444135 1_545
Ge1 Se5 2.449583 1_555
Ge1 Se13 2.627309 1_555
Ge2 Se2 2.318004 1_555
Ge2 Se10 2.444135 1_555
Ge2 Se6 2.449583 1_555
Ge2 Se14 2.627309 1_555
Ge3 Se3 2.318004 1_564
Ge3 Se11 2.444135 1_565
Ge3 Se7 2.449583 1_555
Ge3 Se15 2.627309 1_555
Ge4 Se16 2.305273 1_555
Ge4 Se20 2.435293 1_555
Ge4 Se4 2.458929 1_555
Ge4 Se8 2.493021 1_555
Ge5 Se17 2.305273 1_555
Ge5 Se21 2.435293 1_545
Ge5 Se5 2.458929 1_555
Ge5 Se9 2.493021 1_545
Ge6 Se18 2.305273 1_555
Ge6 Se22 2.435293 1_555
Ge6 Se6 2.458929 1_555
Ge6 Se10 2.493021 1_555
Ge7 Se19 2.305273 1_555
Ge7 Se23 2.435293 1_565
Ge7 Se7 2.458929 1_555
Ge7 Se11 2.493021 1_565
O0 Se12 1.722888 1_555
O1 Se13 1.722888 1_554
O2 Se14 1.722888 1_555
O3 Se15 1.722888 1_556
O4 Se20 1.774334 1_555
O5 Se21 1.774334 1_555
O6 Se22 1.774334 1_555
O7 Se23 1.774334 1_555
O8 Se14 1.713988 1_555
O9 Se15 1.713988 1_555
O10 Se12 1.713988 1_555
O11 Se13 1.713988 1_555
