# generated using pymatgen
data_K8Nd3(Si4O11)3
_symmetry_space_group_name_H-M   'P 1'
_cell_length_a   7.02274500
_cell_length_b   11.61122552
_cell_length_c   11.83567858
_cell_angle_alpha   87.52918577
_cell_angle_beta   87.95407554
_cell_angle_gamma   79.25092240
_symmetry_Int_Tables_number   1
_chemical_formula_structural   K8Nd3(Si4O11)3
_chemical_formula_sum   'K8 Nd3 Si12 O33'
_cell_volume   946.92073115
_cell_formula_units_Z   1
loop_
 _symmetry_equiv_pos_site_id
 _symmetry_equiv_pos_as_xyz
  1  'x, y, z'
loop_
 _atom_site_type_symbol
 _atom_site_label
 _atom_site_symmetry_multiplicity
 _atom_site_fract_x
 _atom_site_fract_y
 _atom_site_fract_z
 _atom_site_occupancy
  K  K0  1  0.98829400  0.66454400  0.99398600  1
  K  K1  1  0.99876300  0.33146100  0.00301900  1
  K  K2  1  0.83203900  0.18554500  0.72648400  1
  K  K3  1  0.15555400  0.80476800  0.25660100  1
  K  K4  1  0.26417700  0.58698200  0.52075200  1
  K  K5  1  0.74625000  0.37013100  0.47666100  1
  K  K6  1  0.19844800  0.86189000  0.73029500  1
  K  K7  1  0.79101400  0.12524800  0.29067700  1
  Nd  Nd0  1  0.47798500  0.48431000  0.83133100  1
  Nd  Nd1  1  0.51384300  0.51039500  0.16757200  1
  Nd  Nd2  1  0.99336700  0.00066500  0.00088200  1
  Si  Si0  1  0.29604600  0.32098200  0.61701000  1
  Si  Si1  1  0.69436100  0.67394600  0.38203800  1
  Si  Si2  1  0.97754000  0.48028800  0.74652400  1
  Si  Si3  1  0.01282300  0.51726000  0.25166700  1
  Si  Si4  1  0.34316100  0.13499900  0.81339100  1
  Si  Si5  1  0.64804400  0.86112100  0.18516700  1
  Si  Si6  1  0.66671100  0.90248000  0.80697100  1
  Si  Si7  1  0.32525200  0.09310800  0.19282900  1
  Si  Si8  1  0.53690600  0.23349500  0.01049500  1
  Si  Si9  1  0.45123400  0.76291900  0.98901800  1
  Si  Si10  1  0.67899900  0.69574700  0.65324100  1
  Si  Si11  1  0.30896700  0.30096000  0.34434500  1
  O  O0  1  0.46983100  0.00311900  0.79080900  1
  O  O1  1  0.52389900  0.99318700  0.20849500  1
  O  O2  1  0.48905100  0.65156600  0.70667300  1
  O  O3  1  0.49540600  0.34665300  0.28868000  1
  O  O4  1  0.45922600  0.39167300  0.65341000  1
  O  O5  1  0.52564800  0.60760900  0.34595000  1
  O  O6  1  0.80929100  0.41873800  0.80500300  1
  O  O7  1  0.18161400  0.58020700  0.19507300  1
  O  O8  1  0.69299200  0.82900200  0.68988900  1
  O  O9  1  0.29718200  0.16672600  0.30965400  1
  O  O10  1  0.88755700  0.61142000  0.68661100  1
  O  O11  1  0.10099200  0.38534200  0.30880600  1
  O  O12  1  0.48063400  0.21388100  0.87588400  1
  O  O13  1  0.50718800  0.78368700  0.12342200  1
  O  O14  1  0.23660600  0.83335400  0.96156600  1
  O  O15  1  0.75111800  0.16329200  0.03835300  1
  O  O16  1  0.30019400  0.19519200  0.68633400  1
  O  O17  1  0.69240200  0.79984400  0.31186600  1
  O  O18  1  0.85594400  0.95516700  0.83109400  1
  O  O19  1  0.13969400  0.03536100  0.17138400  1
  O  O20  1  0.62285100  0.80955600  0.90981400  1
  O  O21  1  0.36416900  0.18615700  0.08891400  1
  O  O22  1  0.07555900  0.40248400  0.63535300  1
  O  O23  1  0.91599800  0.59421800  0.36450300  1
  O  O24  1  0.47455000  0.62102600  0.98247000  1
  O  O25  1  0.51387900  0.37559700  0.01639600  1
  O  O26  1  0.14375100  0.12630000  0.88027900  1
  O  O27  1  0.84805000  0.86753200  0.11793200  1
  O  O28  1  0.67171700  0.70572300  0.51516100  1
  O  O29  1  0.31388500  0.29612000  0.48246700  1
  O  O30  1  0.14143500  0.49716700  0.83419200  1
  O  O31  1  0.84820100  0.50474300  0.16291100  1
  O  O32  1  0.81470800  0.14461100  0.50919400  1
loop_
_geom_bond_atom_site_label_1
_geom_bond_atom_site_label_2
_geom_bond_distance
_geom_bond_site_symmetry_2
K0 O30 2.811152 1_655
K0 O7 2.828493 1_656
K0 O27 2.829538 1_556
K0 O14 2.862257 1_655
K0 O31 2.937476 1_556
K0 O20 2.973223 1_555
K1 O6 2.793762 1_554
K1 O26 2.847781 1_654
K1 O31 2.852958 1_555
K1 O15 2.856005 1_555
K1 O21 2.981372 1_655
K1 O30 2.990529 1_654
K2 O32 2.646519 1_555
K2 O26 2.862423 1_655
K2 O6 2.874992 1_555
K2 O18 2.877219 1_545
K2 O12 2.959873 1_555
K3 O7 2.709001 1_555
K3 O27 2.729689 1_455
K3 O19 2.804007 1_565
K3 O13 2.858759 1_555
K4 O5 2.749468 1_555
K4 O4 2.858698 1_555
K4 O2 2.954773 1_555
K4 O22 2.977126 1_555
K4 O23 3.104629 1_455
K4 O10 3.213562 1_455
K5 O32 2.587076 1_555
K5 O4 2.838626 1_555
K5 O3 2.939214 1_555
K5 O22 3.116451 1_655
K5 O11 3.156732 1_655
K5 O5 3.256786 1_555
K5 O23 3.271006 1_555
K5 O29 3.303970 1_555
K6 O18 2.704931 1_455
K6 O14 2.759562 1_555
K6 O0 2.863364 1_565
K6 O2 2.892428 1_555
K7 O32 2.619539 1_555
K7 O19 2.829448 1_655
K7 O1 2.854499 1_545
K7 O3 2.987757 1_555
K7 O15 3.015328 1_555
Nd0 O6 2.323385 1_555
Nd0 O30 2.339379 1_555
Nd0 O2 2.399060 1_555
Nd0 O4 2.424202 1_555
Nd0 O24 2.438841 1_555
Nd0 O25 2.477293 1_556
Nd1 O31 2.335499 1_555
Nd1 O7 2.338741 1_555
Nd1 O3 2.351536 1_555
Nd1 O25 2.427453 1_555
Nd1 O5 2.447682 1_555
Nd1 O24 2.488811 1_554
Nd2 O15 2.340224 1_555
Nd2 O26 2.359750 1_654
Nd2 O27 2.377643 1_545
Nd2 O19 2.379755 1_655
Nd2 O18 2.380963 1_544
Nd2 O14 2.385761 1_644
O0 Si6 1.646423 1_545
O0 Si4 1.648578 1_555
O1 Si5 1.645729 1_555
O1 Si7 1.650088 1_565
O2 Si10 1.615424 1_555
O3 Si11 1.611595 1_555
O4 Si0 1.609097 1_555
O5 Si1 1.607628 1_555
O6 Si2 1.612409 1_555
O7 Si3 1.616249 1_555
O8 Si6 1.645354 1_555
O8 Si10 1.646031 1_555
O9 Si7 1.643470 1_555
O9 Si11 1.646347 1_555
O10 Si10 1.653155 1_555
O10 Si2 1.673466 1_555
O11 Si11 1.656700 1_555
O11 Si3 1.665457 1_555
O12 Si4 1.660510 1_555
O12 Si8 1.690022 1_556
O13 Si5 1.661620 1_555
O13 Si9 1.690011 1_554
O14 Si9 1.612001 1_555
O15 Si8 1.609685 1_555
O16 Si0 1.640078 1_555
O16 Si4 1.644407 1_555
O17 Si5 1.646410 1_555
O17 Si1 1.647894 1_555
O18 Si6 1.602263 1_555
O19 Si7 1.605107 1_555
O20 Si6 1.650639 1_555
O20 Si9 1.656377 1_555
O21 Si7 1.651129 1_555
O21 Si8 1.661171 1_555
O22 Si0 1.669558 1_555
O22 Si2 1.681402 1_455
O23 Si1 1.666966 1_555
O23 Si3 1.689908 1_655
O24 Si9 1.629944 1_555
O25 Si8 1.631888 1_555
O26 Si4 1.601493 1_555
O27 Si5 1.601798 1_555
O28 Si1 1.629200 1_555
O28 Si10 1.635331 1_555
O29 Si0 1.626866 1_555
O29 Si11 1.634687 1_555
O30 Si2 1.620735 1_455
O31 Si3 1.619804 1_655
