# generated using pymatgen
data_CsTbCdSe3
_symmetry_space_group_name_H-M   'P 1'
_cell_length_a   8.47331189
_cell_length_b   8.47331189
_cell_length_c   11.23763900
_cell_angle_alpha   90.00000000
_cell_angle_beta   90.00000000
_cell_angle_gamma   150.45998401
_symmetry_Int_Tables_number   1
_chemical_formula_structural   CsTbCdSe3
_chemical_formula_sum   'Cs2 Tb2 Cd2 Se6'
_cell_volume   397.79191998
_cell_formula_units_Z   2
loop_
 _symmetry_equiv_pos_site_id
 _symmetry_equiv_pos_as_xyz
  1  'x, y, z'
loop_
 _atom_site_type_symbol
 _atom_site_label
 _atom_site_symmetry_multiplicity
 _atom_site_fract_x
 _atom_site_fract_y
 _atom_site_fract_z
 _atom_site_occupancy
  Cs  Cs0  1  0.74442200  0.25557800  0.25000000  1
  Cs  Cs1  1  0.25557800  0.74442200  0.75000000  1
  Tb  Tb0  1  0.00000000  0.00000000  0.50000000  1
  Tb  Tb1  1  0.00000000  0.00000000  0.00000000  1
  Cd  Cd0  1  0.53895500  0.46104500  0.75000000  1
  Cd  Cd1  1  0.46104500  0.53895500  0.25000000  1
  Se  Se0  1  0.06064100  0.93935900  0.25000000  1
  Se  Se1  1  0.93935900  0.06064100  0.75000000  1
  Se  Se2  1  0.61694600  0.38305400  0.54596400  1
  Se  Se3  1  0.61694600  0.38305400  0.95403600  1
  Se  Se4  1  0.38305400  0.61694600  0.04596400  1
  Se  Se5  1  0.38305400  0.61694600  0.45403600  1
loop_
_geom_bond_atom_site_label_1
_geom_bond_atom_site_label_2
_geom_bond_distance
_geom_bond_site_symmetry_2
Cs0 Se0 3.706192 1_545
Cs0 Se0 3.706192 1_655
Cs0 Se4 3.883863 1_545
Cs0 Se5 3.883863 1_545
Cs0 Se4 3.883863 1_655
Cs0 Se5 3.883863 1_655
Cs0 Se2 3.927516 1_555
Cs0 Se3 3.927516 1_554
Cs1 Se1 3.706192 1_455
Cs1 Se1 3.706192 1_565
Cs1 Se3 3.883863 1_455
Cs1 Se2 3.883863 1_455
Cs1 Se3 3.883863 1_565
Cs1 Se2 3.883863 1_565
Cs1 Se4 3.927516 1_556
Cs1 Se5 3.927516 1_555
Cd0 Se3 2.625000 1_555
Cd0 Se2 2.625000 1_555
Cd0 Se1 2.707390 1_565
Cd0 Se1 2.707390 1_455
Cd1 Se5 2.625000 1_555
Cd1 Se4 2.625000 1_555
Cd1 Se0 2.707390 1_655
Cd1 Se0 2.707390 1_545
Se0 Tb1 2.979971 1_565
Se0 Tb0 2.979971 1_565
Se1 Tb0 2.979971 1_655
Se1 Tb1 2.979971 1_656
Se2 Tb0 2.933531 1_555
Se2 Tb0 2.933531 1_665
Se3 Tb1 2.933531 1_666
Se3 Tb1 2.933531 1_556
Se4 Tb1 2.933531 1_665
Se4 Tb1 2.933531 1_555
Se5 Tb0 2.933531 1_555
Se5 Tb0 2.933531 1_665
