# generated using pymatgen
data_Cs3FeBr5
_symmetry_space_group_name_H-M   'P 1'
_cell_length_a   10.25753372
_cell_length_b   10.25753372
_cell_length_c   10.25753372
_cell_angle_alpha   120.23243066
_cell_angle_beta   120.23243066
_cell_angle_gamma   89.59788754
_symmetry_Int_Tables_number   1
_chemical_formula_structural   Cs3FeBr5
_chemical_formula_sum   'Cs6 Fe2 Br10'
_cell_volume   760.45553733
_cell_formula_units_Z   2
loop_
 _symmetry_equiv_pos_site_id
 _symmetry_equiv_pos_as_xyz
  1  'x, y, z'
loop_
 _atom_site_type_symbol
 _atom_site_label
 _atom_site_symmetry_multiplicity
 _atom_site_fract_x
 _atom_site_fract_y
 _atom_site_fract_z
 _atom_site_occupancy
  Cs  Cs0  1  0.66825600  0.16825600  0.83651200  1
  Cs  Cs1  1  0.33174400  0.83174400  0.16348800  1
  Cs  Cs2  1  0.16825600  0.33174400  0.50000000  1
  Cs  Cs3  1  0.83174400  0.66825600  0.50000000  1
  Cs  Cs4  1  0.75000000  0.75000000  0.00000000  1
  Cs  Cs5  1  0.25000000  0.25000000  0.00000000  1
  Fe  Fe0  1  0.75000000  0.25000000  0.50000000  1
  Fe  Fe1  1  0.25000000  0.75000000  0.50000000  1
  Br  Br0  1  0.98177900  0.48177900  0.77971500  1
  Br  Br1  1  0.70206500  0.20206500  0.22028500  1
  Br  Br2  1  0.48177900  0.70206500  0.50000000  1
  Br  Br3  1  0.20206500  0.98177900  0.50000000  1
  Br  Br4  1  0.01822100  0.51822100  0.22028500  1
  Br  Br5  1  0.29793500  0.79793500  0.77971500  1
  Br  Br6  1  0.51822100  0.29793500  0.50000000  1
  Br  Br7  1  0.79793500  0.01822100  0.50000000  1
  Br  Br8  1  0.00000000  0.00000000  0.00000000  1
  Br  Br9  1  0.50000000  0.50000000  0.00000000  1
loop_
_geom_bond_atom_site_label_1
_geom_bond_atom_site_label_2
_geom_bond_distance
_geom_bond_site_symmetry_2
Br0 Fe0 2.424413 1_555
Br0 Cs1 3.604066 1_656
Br0 Cs2 3.911294 1_655
Br0 Cs3 3.911294 1_555
Br0 Cs5 4.169570 1_656
Br0 Cs4 4.169570 1_556
Br1 Fe0 2.424422 1_555
Br1 Cs0 3.604057 1_554
Br1 Cs3 3.911285 1_555
Br1 Cs2 3.911285 1_655
Br1 Cs5 4.169574 1_555
Br1 Cs4 4.169574 1_545
Br2 Fe1 2.424411 1_555
Br2 Cs3 3.604067 1_555
Br2 Cs1 3.911286 1_555
Br2 Cs0 3.911286 1_565
Br2 Cs5 4.169575 1_555
Br2 Cs4 4.169575 1_556
Br3 Fe1 2.424411 1_555
Br3 Cs2 3.604067 1_565
Br3 Cs1 3.911286 1_555
Br3 Cs0 3.911286 1_565
Br3 Cs4 4.169575 1_455
Br3 Cs5 4.169575 1_566
Br4 Fe1 2.424413 1_555
Br4 Cs0 3.604066 1_454
Br4 Cs2 3.911294 1_555
Br4 Cs3 3.911294 1_455
Br4 Cs4 4.169570 1_455
Br4 Cs5 4.169570 1_555
Br5 Fe1 2.424422 1_555
Br5 Cs1 3.604057 1_556
Br5 Cs2 3.911285 1_555
Br5 Cs3 3.911285 1_455
Br5 Cs5 4.169574 1_566
Br5 Cs4 4.169574 1_556
Br6 Fe0 2.424411 1_555
Br6 Cs2 3.604067 1_555
Br6 Cs0 3.911286 1_555
Br6 Cs1 3.911286 1_545
Br6 Cs4 4.169575 1_556
Br6 Cs5 4.169575 1_555
Br7 Fe0 2.424411 1_555
Br7 Cs3 3.604067 1_545
Br7 Cs0 3.911286 1_555
Br7 Cs1 3.911286 1_545
Br7 Cs4 4.169575 1_545
Br7 Cs5 4.169575 1_656
Br8 Cs4 3.639289 1_445
Br8 Cs5 3.639289 1_555
Br8 Cs3 3.802117 1_444
Br8 Cs2 3.802117 1_555
Br8 Cs0 3.802117 1_454
Br8 Cs1 3.802117 1_545
Br9 Cs4 3.639289 1_555
Br9 Cs5 3.639289 1_555
Br9 Cs1 3.802117 1_555
Br9 Cs3 3.802117 1_555
Br9 Cs2 3.802117 1_554
Br9 Cs0 3.802117 1_554
