# generated using pymatgen
data_HoBrO
_symmetry_space_group_name_H-M   'P 1'
_cell_length_a   3.80668520
_cell_length_b   3.80668520
_cell_length_c   8.76174393
_cell_angle_alpha   90.00000000
_cell_angle_beta   90.00000000
_cell_angle_gamma   90.00000000
_symmetry_Int_Tables_number   1
_chemical_formula_structural   HoBrO
_chemical_formula_sum   'Ho2 Br2 O2'
_cell_volume   126.96513641
_cell_formula_units_Z   2
loop_
 _symmetry_equiv_pos_site_id
 _symmetry_equiv_pos_as_xyz
  1  'x, y, z'
loop_
 _atom_site_type_symbol
 _atom_site_label
 _atom_site_symmetry_multiplicity
 _atom_site_fract_x
 _atom_site_fract_y
 _atom_site_fract_z
 _atom_site_occupancy
  Ho  Ho0  1  0.50000000  0.00000000  0.12772919  1
  Ho  Ho1  1  0.00000000  0.50000000  0.87227081  1
  Br  Br0  1  0.50000000  0.00000000  0.68354225  1
  Br  Br1  1  0.00000000  0.50000000  0.31645775  1
  O  O0  1  0.50000000  0.50000000  0.00000000  1
  O  O1  1  0.00000000  0.00000000  0.00000000  1
loop_
_geom_bond_atom_site_label_1
_geom_bond_atom_site_label_2
_geom_bond_distance
_geom_bond_site_symmetry_2
Ho0 O1 2.207978 1_655
Ho0 O0 2.207978 1_555
Ho0 O1 2.207978 1_555
Ho0 O0 2.207978 1_545
Ho1 O1 2.207978 1_556
Ho1 O1 2.207978 1_566
Ho1 O0 2.207978 1_456
Ho1 O0 2.207978 1_556
Br0 Ho1 3.159081 1_545
Br0 Ho1 3.159081 1_555
Br0 Ho1 3.159081 1_655
Br0 Ho1 3.159081 1_645
Br1 Ho0 3.159081 1_565
Br1 Ho0 3.159081 1_455
Br1 Ho0 3.159081 1_555
Br1 Ho0 3.159081 1_465
