# generated using pymatgen
data_Na3Ti2Mn3Si4(O8F)2
_symmetry_space_group_name_H-M   'P 1'
_cell_length_a   9.79386728
_cell_length_b   10.75579915
_cell_length_c   13.92723561
_cell_angle_alpha   107.45094411
_cell_angle_beta   90.00000000
_cell_angle_gamma   90.00000000
_symmetry_Int_Tables_number   1
_chemical_formula_structural   Na3Ti2Mn3Si4(O8F)2
_chemical_formula_sum   'Na12 Ti8 Mn12 Si16 O64 F8'
_cell_volume   1399.58212554
_cell_formula_units_Z   4
loop_
 _symmetry_equiv_pos_site_id
 _symmetry_equiv_pos_as_xyz
  1  'x, y, z'
loop_
 _atom_site_type_symbol
 _atom_site_label
 _atom_site_symmetry_multiplicity
 _atom_site_fract_x
 _atom_site_fract_y
 _atom_site_fract_z
 _atom_site_occupancy
  Na  Na0  1  0.60773286  0.20105695  0.98987182  1
  Na  Na1  1  0.39226714  0.79894305  0.01012818  1
  Na  Na2  1  0.10773286  0.29894305  0.51012818  1
  Na  Na3  1  0.89226714  0.70105695  0.48987182  1
  Na  Na4  1  0.38078849  0.42649283  0.91936474  1
  Na  Na5  1  0.61921151  0.57350717  0.08063526  1
  Na  Na6  1  0.88078849  0.07350717  0.58063526  1
  Na  Na7  1  0.11921151  0.92649283  0.41936474  1
  Na  Na8  1  0.12467693  0.92359395  0.92084125  1
  Na  Na9  1  0.87532307  0.07640605  0.07915875  1
  Na  Na10  1  0.62467693  0.57640605  0.57915875  1
  Na  Na11  1  0.37532307  0.42359395  0.42084125  1
  Ti  Ti0  1  0.40168154  0.77918510  0.75215060  1
  Ti  Ti1  1  0.59831846  0.22081490  0.24784940  1
  Ti  Ti2  1  0.90168154  0.72081490  0.74784940  1
  Ti  Ti3  1  0.09831846  0.27918510  0.25215060  1
  Ti  Ti4  1  0.10594594  0.28367210  0.76770355  1
  Ti  Ti5  1  0.89405406  0.71632790  0.23229645  1
  Ti  Ti6  1  0.60594594  0.21632790  0.73229645  1
  Ti  Ti7  1  0.39405406  0.78367210  0.26770355  1
  Mn  Mn0  1  0.38645925  0.80339129  0.51335441  1
  Mn  Mn1  1  0.61354075  0.19660871  0.48664559  1
  Mn  Mn2  1  0.88645925  0.69660871  0.98664559  1
  Mn  Mn3  1  0.11354075  0.30339129  0.01335441  1
  Mn  Mn4  1  0.37232937  0.43563422  0.67954562  1
  Mn  Mn5  1  0.62767063  0.56436578  0.32045438  1
  Mn  Mn6  1  0.87232937  0.06436578  0.82045438  1
  Mn  Mn7  1  0.12767063  0.93563422  0.17954562  1
  Mn  Mn8  1  0.13405406  0.93570722  0.68008950  1
  Mn  Mn9  1  0.86594594  0.06429278  0.31991050  1
  Mn  Mn10  1  0.63405406  0.56429278  0.81991050  1
  Mn  Mn11  1  0.36594594  0.43570722  0.18008950  1
  Si  Si0  1  0.34172416  0.11761152  0.85609189  1
  Si  Si1  1  0.65827584  0.88238848  0.14390811  1
  Si  Si2  1  0.84172416  0.38238848  0.64390811  1
  Si  Si3  1  0.15827584  0.61761152  0.35609189  1
  Si  Si4  1  0.66870920  0.87814284  0.64282952  1
  Si  Si5  1  0.33129080  0.12185716  0.35717048  1
  Si  Si6  1  0.16870920  0.62185716  0.85717048  1
  Si  Si7  1  0.83129080  0.37814284  0.14282952  1
  Si  Si8  1  0.16550969  0.61425576  0.58510595  1
  Si  Si9  1  0.83449031  0.38574424  0.41489405  1
  Si  Si10  1  0.66550969  0.88574424  0.91489405  1
  Si  Si11  1  0.33449031  0.11425576  0.08510595  1
  Si  Si12  1  0.33616234  0.12115521  0.58569225  1
  Si  Si13  1  0.66383766  0.87884479  0.41430775  1
  Si  Si14  1  0.83616234  0.37884479  0.91430775  1
  Si  Si15  1  0.16383766  0.62115521  0.08569225  1
  O  O0  1  0.51987175  0.38181733  0.27588752  1
  O  O1  1  0.48012825  0.61818267  0.72411248  1
  O  O2  1  0.01987175  0.11818267  0.22411248  1
  O  O3  1  0.98012825  0.88181733  0.77588752  1
  O  O4  1  0.22108142  0.47484066  0.79917686  1
  O  O5  1  0.77891858  0.52515934  0.20082314  1
  O  O6  1  0.72108142  0.02515934  0.70082314  1
  O  O7  1  0.27891858  0.97484066  0.29917686  1
  O  O8  1  0.02872477  0.12206750  0.73688938  1
  O  O9  1  0.97127523  0.87793250  0.26311062  1
  O  O10  1  0.52872477  0.37793250  0.76311062  1
  O  O11  1  0.47127523  0.62206750  0.23688938  1
  O  O12  1  0.50632974  0.84452920  0.65086740  1
  O  O13  1  0.49367026  0.15547080  0.34913260  1
  O  O14  1  0.00632974  0.65547080  0.84913260  1
  O  O15  1  0.99367026  0.34452920  0.15086740  1
  O  O16  1  0.23599749  0.24167143  0.87243452  1
  O  O17  1  0.76400251  0.75832857  0.12756548  1
  O  O18  1  0.73599749  0.25832857  0.62756548  1
  O  O19  1  0.26400251  0.74167143  0.37243452  1
  O  O20  1  0.74629338  0.01943414  0.92151336  1
  O  O21  1  0.25370662  0.98056586  0.07848664  1
  O  O22  1  0.24629338  0.48056586  0.57848664  1
  O  O23  1  0.75370662  0.51943414  0.42151336  1
  O  O24  1  0.75959767  0.76297416  0.66759767  1
  O  O25  1  0.24040233  0.23702584  0.33240233  1
  O  O26  1  0.25959767  0.73702584  0.83240233  1
  O  O27  1  0.74040233  0.26297416  0.16759767  1
  O  O28  1  0.27268425  0.97802826  0.57779856  1
  O  O29  1  0.72731575  0.02197174  0.42220144  1
  O  O30  1  0.77268425  0.52197174  0.92220144  1
  O  O31  1  0.22731575  0.47802826  0.07779856  1
  O  O32  1  0.37811230  0.11234528  0.97034262  1
  O  O33  1  0.62188770  0.88765472  0.02965738  1
  O  O34  1  0.87811230  0.38765472  0.52965738  1
  O  O35  1  0.12188770  0.61234528  0.47034262  1
  O  O36  1  0.48704596  0.15329193  0.81321495  1
  O  O37  1  0.51295404  0.84670807  0.18678505  1
  O  O38  1  0.98704596  0.34670807  0.68678505  1
  O  O39  1  0.01295404  0.65329193  0.31321495  1
  O  O40  1  0.19753303  0.65160434  0.97938588  1
  O  O41  1  0.80246697  0.34839566  0.02061412  1
  O  O42  1  0.69753303  0.84839566  0.52061412  1
  O  O43  1  0.30246697  0.15160434  0.47938588  1
  O  O44  1  0.00222162  0.36735721  0.89669813  1
  O  O45  1  0.99777838  0.63264279  0.10330187  1
  O  O46  1  0.50222162  0.13264279  0.60330187  1
  O  O47  1  0.49777838  0.86735721  0.39669813  1
  O  O48  1  0.27746357  0.97641247  0.79114168  1
  O  O49  1  0.72253643  0.02358753  0.20885832  1
  O  O50  1  0.77746357  0.52358753  0.70885832  1
  O  O51  1  0.22253643  0.47641247  0.29114168  1
  O  O52  1  0.25953238  0.74631140  0.63215491  1
  O  O53  1  0.74046762  0.25368860  0.36784509  1
  O  O54  1  0.75953238  0.75368860  0.86784509  1
  O  O55  1  0.24046762  0.24631140  0.13215491  1
  O  O56  1  0.51929916  0.86669973  0.85510679  1
  O  O57  1  0.48070084  0.13330027  0.14489321  1
  O  O58  1  0.01929916  0.63330027  0.64489321  1
  O  O59  1  0.98070084  0.36669973  0.35510679  1
  O  O60  1  0.25869401  0.24198625  0.66906103  1
  O  O61  1  0.74130599  0.75801375  0.33093897  1
  O  O62  1  0.75869401  0.25801375  0.83093897  1
  O  O63  1  0.24130599  0.74198625  0.16906103  1
  F  F0  1  0.01463803  0.12185722  0.95667272  1
  F  F1  1  0.98536197  0.87814278  0.04332728  1
  F  F2  1  0.51463803  0.37814278  0.54332728  1
  F  F3  1  0.48536197  0.62185722  0.45667272  1
  F  F4  1  0.00798897  0.89040417  0.55824771  1
  F  F5  1  0.99201103  0.10959583  0.44175229  1
  F  F6  1  0.50798897  0.60959583  0.94175229  1
  F  F7  1  0.49201103  0.39040417  0.05824771  1
loop_
_geom_bond_atom_site_label_1
_geom_bond_atom_site_label_2
_geom_bond_distance
_geom_bond_site_symmetry_2
Na0 O20 2.334231 1_555
Na0 O32 2.426146 1_555
Na0 O41 2.434171 1_556
Na0 O36 2.637462 1_555
Na0 O27 2.696273 1_556
Na0 O57 2.772016 1_556
Na0 O62 2.876476 1_555
Na1 O21 2.334231 1_555
Na1 O33 2.426146 1_555
Na1 O40 2.434171 1_554
Na1 O37 2.637462 1_555
Na1 O26 2.696273 1_554
Na1 O56 2.772016 1_554
Na1 O63 2.876476 1_555
Na2 O22 2.334231 1_555
Na2 O34 2.426146 1_455
Na2 O43 2.434171 1_555
Na2 O38 2.637462 1_455
Na2 O25 2.696273 1_555
Na2 O59 2.772016 1_455
Na2 O60 2.876476 1_555
Na3 O23 2.334231 1_555
Na3 O35 2.426146 1_655
Na3 O42 2.434171 1_555
Na3 O39 2.637462 1_655
Na3 O24 2.696273 1_555
Na3 O58 2.772016 1_655
Na3 O61 2.876476 1_555
Na4 O16 2.368663 1_555
Na4 O4 2.457835 1_555
Na4 O10 2.534973 1_555
Na4 O31 2.588782 1_556
Na5 O17 2.368663 1_555
Na5 O5 2.457835 1_555
Na5 O11 2.534973 1_555
Na5 O30 2.588782 1_554
Na6 O18 2.368663 1_555
Na6 O6 2.457835 1_555
Na6 O8 2.534973 1_655
Na6 O29 2.588782 1_555
Na7 O19 2.368663 1_555
Na7 O7 2.457835 1_555
Na7 O9 2.534973 1_455
Na7 O28 2.588782 1_555
Na8 O3 2.395325 1_455
Na8 O26 2.409886 1_555
Na8 O21 2.446630 1_556
Na8 O48 2.537773 1_555
Na9 O2 2.395325 1_655
Na9 O27 2.409886 1_555
Na9 O20 2.446630 1_554
Na9 O49 2.537773 1_555
Na10 O1 2.395325 1_555
Na10 O24 2.409886 1_555
Na10 O23 2.446630 1_555
Na10 O50 2.537773 1_555
Na11 O0 2.395325 1_555
Na11 O25 2.409886 1_555
Na11 O22 2.446630 1_555
Na11 O51 2.537773 1_555
Mn0 O28 2.136422 1_555
Mn0 O12 2.175704 1_555
Mn0 O19 2.224753 1_555
Mn0 O47 2.229813 1_555
Mn0 O52 2.295444 1_555
Mn1 O29 2.136422 1_555
Mn1 O13 2.175704 1_555
Mn1 O18 2.224753 1_555
Mn1 O46 2.229813 1_555
Mn1 O53 2.295444 1_555
Mn2 O30 2.136422 1_555
Mn2 O14 2.175704 1_655
Mn2 O17 2.224753 1_556
Mn2 O45 2.229813 1_556
Mn2 O54 2.295444 1_555
Mn3 O31 2.136422 1_555
Mn3 O15 2.175704 1_455
Mn3 O16 2.224753 1_554
Mn3 O44 2.229813 1_554
Mn3 O55 2.295444 1_555
Mn4 O22 2.036221 1_555
Mn4 O10 2.125807 1_555
Mn4 O1 2.150374 1_555
Mn4 O4 2.174092 1_555
Mn4 O60 2.327173 1_555
Mn5 O23 2.036221 1_555
Mn5 O11 2.125807 1_555
Mn5 O0 2.150374 1_555
Mn5 O5 2.174092 1_555
Mn5 O61 2.327173 1_555
Mn6 O20 2.036221 1_555
Mn6 O8 2.125807 1_655
Mn6 O3 2.150374 1_545
Mn6 O6 2.174092 1_555
Mn6 O62 2.327173 1_555
Mn7 O21 2.036221 1_555
Mn7 O9 2.125807 1_455
Mn7 O2 2.150374 1_565
Mn7 O7 2.174092 1_555
Mn7 O63 2.327173 1_555
Mn8 O48 2.037249 1_555
Mn8 O28 2.114035 1_555
Mn8 O8 2.180995 1_565
Mn8 O3 2.202848 1_455
Mn8 O52 2.300008 1_555
Mn9 O49 2.037249 1_555
Mn9 O29 2.114035 1_555
Mn9 O9 2.180995 1_545
Mn9 O2 2.202848 1_655
Mn9 O53 2.300008 1_555
Mn10 O50 2.037249 1_555
Mn10 O30 2.114035 1_555
Mn10 O10 2.180995 1_555
Mn10 O1 2.202848 1_555
Mn10 O54 2.300008 1_555
Mn11 O51 2.037249 1_555
Mn11 O31 2.114035 1_555
Mn11 O11 2.180995 1_555
Mn11 O0 2.202848 1_555
Mn11 O55 2.300008 1_555
O0 Ti1 1.826472 1_555
O1 Ti0 1.826472 1_555
O2 Ti3 1.826472 1_555
O3 Ti2 1.826472 1_555
O4 Si6 1.627844 1_555
O4 Ti4 2.269566 1_555
O5 Si7 1.627844 1_555
O5 Ti5 2.269566 1_555
O6 Si4 1.627844 1_545
O6 Ti6 2.269566 1_555
O7 Si5 1.627844 1_565
O7 Ti7 2.269566 1_555
O8 Ti4 1.824840 1_555
O9 Ti5 1.824840 1_555
O10 Ti6 1.824840 1_555
O11 Ti7 1.824840 1_555
O12 Si4 1.642147 1_555
O12 Ti0 2.031948 1_555
O13 Si5 1.642147 1_555
O13 Ti1 2.031948 1_555
O14 Si6 1.642147 1_555
O14 Ti2 2.031948 1_455
O15 Si7 1.642147 1_555
O15 Ti3 2.031948 1_655
O16 Si0 1.649962 1_555
O16 Ti4 2.085467 1_555
O17 Si1 1.649962 1_555
O17 Ti5 2.085467 1_555
O18 Si2 1.649962 1_555
O18 Ti6 2.085467 1_555
O19 Si3 1.649962 1_555
O19 Ti7 2.085467 1_555
O20 Si10 1.619457 1_545
O21 Si11 1.619457 1_565
O22 Si8 1.619457 1_555
O23 Si9 1.619457 1_555
O24 Si4 1.643807 1_555
O24 Ti2 1.922300 1_555
O25 Si5 1.643807 1_555
O25 Ti3 1.922300 1_555
O26 Si6 1.643807 1_555
O26 Ti0 1.922300 1_555
O27 Si7 1.643807 1_555
O27 Ti1 1.922300 1_555
O28 Si12 1.633087 1_565
O29 Si13 1.633087 1_545
O30 Si14 1.633087 1_555
O31 Si15 1.633087 1_555
O32 Si0 1.648084 1_555
O32 Si11 1.648613 1_556
O33 Si1 1.648084 1_555
O33 Si10 1.648613 1_554
O34 Si2 1.648084 1_555
O34 Si9 1.648613 1_555
O35 Si3 1.648084 1_555
O35 Si8 1.648613 1_555
O36 Si0 1.633097 1_555
O36 Ti6 1.882571 1_555
O37 Si1 1.633097 1_555
O37 Ti7 1.882571 1_555
O38 Si2 1.633097 1_555
O38 Ti4 1.882571 1_655
O39 Si3 1.633097 1_555
O39 Ti5 1.882571 1_455
O40 Si15 1.642872 1_556
O40 Si6 1.659109 1_555
O41 Si14 1.642872 1_554
O41 Si7 1.659109 1_555
O42 Si13 1.642872 1_555
O42 Si4 1.659109 1_555
O43 Si12 1.642872 1_555
O43 Si5 1.659109 1_555
O44 Si14 1.643866 1_455
O44 Ti4 2.024802 1_555
O45 Si15 1.643866 1_655
O45 Ti5 2.024802 1_555
O46 Si12 1.643866 1_555
O46 Ti6 2.024802 1_555
O47 Si13 1.643866 1_555
O47 Ti7 2.024802 1_555
O48 Si0 1.642212 1_565
O48 Ti0 2.363069 1_555
O49 Si1 1.642212 1_545
O49 Ti1 2.363069 1_555
O50 Si2 1.642212 1_555
O50 Ti2 2.363069 1_555
O51 Si3 1.642212 1_555
O51 Ti3 2.363069 1_555
O52 Si8 1.654249 1_555
O52 Ti0 2.121729 1_555
O53 Si9 1.654249 1_555
O53 Ti1 2.121729 1_555
O54 Si10 1.654249 1_555
O54 Ti2 2.121729 1_555
O55 Si11 1.654249 1_555
O55 Ti3 2.121729 1_555
O56 Si10 1.638148 1_555
O56 Ti0 1.859973 1_555
O57 Si11 1.638148 1_555
O57 Ti1 1.859973 1_555
O58 Si8 1.638148 1_555
O58 Ti2 1.859973 1_455
O59 Si9 1.638148 1_555
O59 Ti3 1.859973 1_655
O60 Si12 1.645532 1_555
O60 Ti4 1.989211 1_555
O61 Si13 1.645532 1_555
O61 Ti5 1.989211 1_555
O62 Si14 1.645532 1_555
O62 Ti6 1.989211 1_555
O63 Si15 1.645532 1_555
O63 Ti7 1.989211 1_555
F0 Mn3 2.109358 1_556
F0 Mn6 2.284833 1_455
F0 Na8 2.306444 1_545
F0 Na9 2.347534 1_456
F1 Mn2 2.109358 1_554
F1 Mn7 2.284833 1_655
F1 Na9 2.306444 1_565
F1 Na8 2.347534 1_654
F2 Mn1 2.109358 1_555
F2 Mn4 2.284833 1_555
F2 Na10 2.306444 1_555
F2 Na11 2.347534 1_555
F3 Mn0 2.109358 1_555
F3 Mn5 2.284833 1_555
F3 Na11 2.306444 1_555
F3 Na10 2.347534 1_555
F4 Mn8 2.036034 1_555
F4 Na6 2.271455 1_465
F4 Na3 2.275041 1_455
F4 Na7 2.351362 1_555
F5 Mn9 2.036034 1_555
F5 Na7 2.271455 1_645
F5 Na2 2.275041 1_655
F5 Na6 2.351362 1_555
F6 Mn10 2.036034 1_555
F6 Na4 2.271455 1_555
F6 Na1 2.275041 1_556
F6 Na5 2.351362 1_556
F7 Mn11 2.036034 1_555
F7 Na5 2.271455 1_555
F7 Na0 2.275041 1_554
F7 Na4 2.351362 1_554
