# generated using pymatgen
data_ZnAg2P2O9
_symmetry_space_group_name_H-M   'P 1'
_cell_length_a   6.21936116
_cell_length_b   6.40665711
_cell_length_c   17.00812941
_cell_angle_alpha   90.00000000
_cell_angle_beta   90.00000000
_cell_angle_gamma   90.00000000
_symmetry_Int_Tables_number   1
_chemical_formula_structural   ZnAg2P2O9
_chemical_formula_sum   'Zn4 Ag8 P8 O36'
_cell_volume   677.69426362
_cell_formula_units_Z   4
loop_
 _symmetry_equiv_pos_site_id
 _symmetry_equiv_pos_as_xyz
  1  'x, y, z'
loop_
 _atom_site_type_symbol
 _atom_site_label
 _atom_site_symmetry_multiplicity
 _atom_site_fract_x
 _atom_site_fract_y
 _atom_site_fract_z
 _atom_site_occupancy
  Zn  Zn0  1  0.75000000  0.37915635  0.79413952  1
  Zn  Zn1  1  0.75000000  0.12084365  0.29413952  1
  Zn  Zn2  1  0.25000000  0.87915635  0.70586048  1
  Zn  Zn3  1  0.25000000  0.62084365  0.20586048  1
  Ag  Ag0  1  0.75000000  0.87300622  0.87721940  1
  Ag  Ag1  1  0.25000000  0.12699378  0.12278060  1
  Ag  Ag2  1  0.25000000  0.37300622  0.62278060  1
  Ag  Ag3  1  0.75000000  0.62699378  0.37721940  1
  Ag  Ag4  1  0.50000000  0.50000000  0.00000000  1
  Ag  Ag5  1  0.50000000  0.00000000  0.50000000  1
  Ag  Ag6  1  0.00000000  0.00000000  0.50000000  1
  Ag  Ag7  1  0.00000000  0.50000000  0.00000000  1
  P  P0  1  0.25000000  0.90126634  0.92164848  1
  P  P1  1  0.75000000  0.09873366  0.07835152  1
  P  P2  1  0.75000000  0.40126634  0.57835152  1
  P  P3  1  0.25000000  0.59873366  0.42164848  1
  P  P4  1  0.75000000  0.86767893  0.70840163  1
  P  P5  1  0.75000000  0.63232107  0.20840163  1
  P  P6  1  0.25000000  0.36767893  0.79159837  1
  P  P7  1  0.25000000  0.13232107  0.29159837  1
  O  O0  1  0.04536156  0.10849134  0.34036504  1
  O  O1  1  0.54536156  0.89150866  0.65963496  1
  O  O2  1  0.95463844  0.60849134  0.15963496  1
  O  O3  1  0.45463844  0.39150866  0.84036504  1
  O  O4  1  0.95463844  0.89150866  0.65963496  1
  O  O5  1  0.45463844  0.10849134  0.34036504  1
  O  O6  1  0.04536156  0.39150866  0.84036504  1
  O  O7  1  0.54536156  0.60849134  0.15963496  1
  O  O8  1  0.25000000  0.78721610  0.48348040  1
  O  O9  1  0.75000000  0.21278390  0.51651960  1
  O  O10  1  0.75000000  0.28721610  0.01651960  1
  O  O11  1  0.25000000  0.71278390  0.98348040  1
  O  O12  1  0.75000000  0.59689644  0.93357041  1
  O  O13  1  0.25000000  0.40310356  0.06642959  1
  O  O14  1  0.25000000  0.09689644  0.56642959  1
  O  O15  1  0.75000000  0.90310356  0.43357041  1
  O  O16  1  0.75000000  0.66493292  0.75395054  1
  O  O17  1  0.25000000  0.33506708  0.24604946  1
  O  O18  1  0.25000000  0.16493292  0.74604946  1
  O  O19  1  0.75000000  0.83506708  0.25395054  1
  O  O20  1  0.43541586  0.63367660  0.36412019  1
  O  O21  1  0.93541586  0.36632340  0.63587981  1
  O  O22  1  0.56458414  0.13367660  0.13587981  1
  O  O23  1  0.06458414  0.86632340  0.86412019  1
  O  O24  1  0.56458414  0.36632340  0.63587981  1
  O  O25  1  0.06458414  0.63367660  0.36412019  1
  O  O26  1  0.43541586  0.86632340  0.86412019  1
  O  O27  1  0.93541586  0.13367660  0.13587981  1
  O  O28  1  0.75000000  0.90712110  0.02938702  1
  O  O29  1  0.25000000  0.54926630  0.72485369  1
  O  O30  1  0.25000000  0.95073370  0.22485369  1
  O  O31  1  0.75000000  0.04926630  0.77514631  1
  O  O32  1  0.75000000  0.59287890  0.52938702  1
  O  O33  1  0.25000000  0.40712110  0.47061298  1
  O  O34  1  0.25000000  0.09287890  0.97061298  1
  O  O35  1  0.75000000  0.45073370  0.27514631  1
loop_
_geom_bond_atom_site_label_1
_geom_bond_atom_site_label_2
_geom_bond_distance
_geom_bond_site_symmetry_2
Ag0 O23 1.969622 1_655
Ag0 O26 1.969622 1_555
Ag0 O12 2.011897 1_555
Ag0 O31 2.071020 1_565
Ag0 O16 2.484482 1_555
Ag0 O28 2.597299 1_556
Ag1 O27 1.969622 1_455
Ag1 O22 1.969622 1_555
Ag1 O13 2.011897 1_555
Ag1 O30 2.071020 1_545
Ag1 O17 2.484482 1_555
Ag1 O34 2.597299 1_554
Ag2 O24 1.969622 1_555
Ag2 O21 1.969622 1_455
Ag2 O14 2.011897 1_555
Ag2 O29 2.071020 1_555
Ag2 O18 2.484482 1_555
Ag2 O33 2.597299 1_555
Ag3 O20 1.969622 1_555
Ag3 O25 1.969622 1_655
Ag3 O15 2.011897 1_555
Ag3 O35 2.071020 1_555
Ag3 O19 2.484482 1_555
Ag3 O32 2.597299 1_555
Ag4 O12 2.019763 1_554
Ag4 O13 2.019763 1_555
Ag4 O11 2.086834 1_554
Ag4 O10 2.086834 1_555
Ag5 O15 2.019763 1_545
Ag5 O14 2.019763 1_555
Ag5 O9 2.086834 1_555
Ag5 O8 2.086834 1_545
Ag6 O15 2.019763 1_445
Ag6 O14 2.019763 1_555
Ag6 O9 2.086834 1_455
Ag6 O8 2.086834 1_545
Ag7 O12 2.019763 1_454
Ag7 O13 2.019763 1_555
Ag7 O11 2.086834 1_554
Ag7 O10 2.086834 1_455
O0 P7 1.526787 1_555
O0 Zn1 1.999703 1_455
O1 P4 1.526787 1_555
O1 Zn2 1.999703 1_555
O2 P5 1.526787 1_555
O2 Zn3 1.999703 1_655
O3 P6 1.526787 1_555
O3 Zn0 1.999703 1_555
O4 P4 1.526787 1_555
O4 Zn2 1.999703 1_655
O5 P7 1.526787 1_555
O5 Zn1 1.999703 1_555
O6 P6 1.526787 1_555
O6 Zn0 1.999703 1_455
O7 P5 1.526787 1_555
O7 Zn3 1.999703 1_555
O8 P3 1.601286 1_555
O9 P2 1.601286 1_555
O10 P1 1.601286 1_555
O11 P0 1.601286 1_555
O16 P4 1.512404 1_555
O16 Zn0 1.954308 1_555
O17 P7 1.512404 1_555
O17 Zn3 1.954308 1_555
O18 P6 1.512404 1_555
O18 Zn2 1.954308 1_545
O19 P5 1.512404 1_555
O19 Zn1 1.954308 1_565
O20 P3 1.528815 1_555
O21 P2 1.528815 1_555
O22 P1 1.528815 1_555
O23 P0 1.528815 1_555
O24 P2 1.528815 1_555
O25 P3 1.528815 1_555
O26 P0 1.528815 1_555
O27 P1 1.528815 1_555
O28 P1 1.483421 1_565
O29 P6 1.625457 1_555
O29 Zn2 2.138038 1_555
O30 P7 1.625457 1_565
O30 Zn3 2.138038 1_555
O31 P4 1.625457 1_545
O31 Zn0 2.138038 1_555
O32 P2 1.483421 1_555
O33 P3 1.483421 1_555
O34 P0 1.483421 1_545
O35 P5 1.625457 1_555
O35 Zn1 2.138038 1_555
