# generated using pymatgen
data_Ho15Si9C
_symmetry_space_group_name_H-M   'P 1'
_cell_length_a   14.57757948
_cell_length_b   14.57757948
_cell_length_c   6.35547500
_cell_angle_alpha   90.00000000
_cell_angle_beta   90.00000000
_cell_angle_gamma   119.99999762
_symmetry_Int_Tables_number   1
_chemical_formula_structural   Ho15Si9C
_chemical_formula_sum   'Ho30 Si18 C2'
_cell_volume   1169.63267553
_cell_formula_units_Z   2
loop_
 _symmetry_equiv_pos_site_id
 _symmetry_equiv_pos_as_xyz
  1  'x, y, z'
loop_
 _atom_site_type_symbol
 _atom_site_label
 _atom_site_symmetry_multiplicity
 _atom_site_fract_x
 _atom_site_fract_y
 _atom_site_fract_z
 _atom_site_occupancy
  Ho  Ho0  1  0.07416200  0.14832400  0.76971000  1
  Ho  Ho1  1  0.07416200  0.92583800  0.76971000  1
  Ho  Ho2  1  0.85167600  0.92583800  0.76971000  1
  Ho  Ho3  1  0.92583800  0.85167600  0.26971000  1
  Ho  Ho4  1  0.92583800  0.07416200  0.26971000  1
  Ho  Ho5  1  0.14832400  0.07416200  0.26971000  1
  Ho  Ho6  1  0.25171700  0.50343500  0.23944900  1
  Ho  Ho7  1  0.25171700  0.74828300  0.23944900  1
  Ho  Ho8  1  0.49656500  0.74828300  0.23944900  1
  Ho  Ho9  1  0.74828300  0.49656500  0.73944900  1
  Ho  Ho10  1  0.74828300  0.25171700  0.73944900  1
  Ho  Ho11  1  0.50343500  0.25171700  0.73944900  1
  Ho  Ho12  1  0.41555200  0.83110400  0.76131900  1
  Ho  Ho13  1  0.41555200  0.58444800  0.76131900  1
  Ho  Ho14  1  0.16889600  0.58444800  0.76131900  1
  Ho  Ho15  1  0.58444800  0.16889600  0.26131900  1
  Ho  Ho16  1  0.58444800  0.41555200  0.26131900  1
  Ho  Ho17  1  0.83110400  0.41555200  0.26131900  1
  Ho  Ho18  1  0.01264800  0.33832700  0.50399800  1
  Ho  Ho19  1  0.32567900  0.98735200  0.50399800  1
  Ho  Ho20  1  0.66167300  0.67432100  0.50399800  1
  Ho  Ho21  1  0.32567900  0.33832700  0.50399800  1
  Ho  Ho22  1  0.66167300  0.98735200  0.50399800  1
  Ho  Ho23  1  0.01264800  0.67432100  0.50399800  1
  Ho  Ho24  1  0.98735200  0.66167300  0.00399800  1
  Ho  Ho25  1  0.67432100  0.01264800  0.00399800  1
  Ho  Ho26  1  0.33832700  0.32567900  0.00399800  1
  Ho  Ho27  1  0.67432100  0.66167300  0.00399800  1
  Ho  Ho28  1  0.33832700  0.01264800  0.00399800  1
  Ho  Ho29  1  0.98735200  0.32567900  0.00399800  1
  Si  Si0  1  0.13602900  0.27205800  0.23411100  1
  Si  Si1  1  0.13602900  0.86397100  0.23411100  1
  Si  Si2  1  0.72794200  0.86397100  0.23411100  1
  Si  Si3  1  0.86397100  0.72794200  0.73411100  1
  Si  Si4  1  0.86397100  0.13602900  0.73411100  1
  Si  Si5  1  0.27205800  0.13602900  0.73411100  1
  Si  Si6  1  0.20176600  0.40353200  0.78367500  1
  Si  Si7  1  0.20176600  0.79823400  0.78367500  1
  Si  Si8  1  0.59646800  0.79823400  0.78367500  1
  Si  Si9  1  0.79823400  0.59646800  0.28367500  1
  Si  Si10  1  0.79823400  0.20176600  0.28367500  1
  Si  Si11  1  0.40353200  0.20176600  0.28367500  1
  Si  Si12  1  0.46571700  0.93143500  0.24320000  1
  Si  Si13  1  0.46571700  0.53428300  0.24320000  1
  Si  Si14  1  0.06856500  0.53428300  0.24320000  1
  Si  Si15  1  0.53428300  0.06856500  0.74320000  1
  Si  Si16  1  0.53428300  0.46571700  0.74320000  1
  Si  Si17  1  0.93143500  0.46571700  0.74320000  1
  C  C0  1  0.00000000  0.00000000  0.01661600  1
  C  C1  1  0.00000000  0.00000000  0.51661600  1
loop_
_geom_bond_atom_site_label_1
_geom_bond_atom_site_label_2
_geom_bond_distance
_geom_bond_site_symmetry_2
Ho0 Si5 2.987088 1_555
Ho0 Si4 2.987088 1_455
Ho0 Si6 3.223110 1_555
Ho0 Si0 3.339371 1_556
Ho1 Si3 2.987088 1_455
Ho1 Si5 2.987088 1_565
Ho1 Si7 3.223109 1_555
Ho1 Si1 3.339371 1_556
Ho2 Si3 2.987088 1_555
Ho2 Si4 2.987088 1_565
Ho2 Si8 3.223110 1_555
Ho2 Si2 3.339371 1_556
Ho3 Si2 2.987088 1_555
Ho3 Si1 2.987088 1_655
Ho3 Si9 3.223110 1_555
Ho3 Si3 3.339371 1_555
Ho4 Si2 2.987088 1_545
Ho4 Si0 2.987088 1_655
Ho4 Si10 3.223109 1_555
Ho4 Si4 3.339371 1_555
Ho5 Si0 2.987088 1_555
Ho5 Si1 2.987088 1_545
Ho5 Si11 3.223110 1_555
Ho5 Si5 3.339371 1_555
Ho6 Si14 2.920934 1_555
Ho6 Si13 2.920934 1_555
Ho6 Si0 2.921229 1_555
Ho6 Si6 3.159327 1_554
Ho7 Si14 2.920934 1_555
Ho7 Si12 2.920934 1_555
Ho7 Si1 2.921216 1_555
Ho7 Si7 3.159321 1_554
Ho8 Si12 2.920934 1_555
Ho8 Si13 2.920934 1_555
Ho8 Si2 2.921229 1_555
Ho8 Si8 3.159327 1_554
Ho9 Si17 2.920934 1_555
Ho9 Si16 2.920934 1_555
Ho9 Si3 2.921229 1_555
Ho9 Si9 3.159327 1_555
Ho10 Si15 2.920934 1_555
Ho10 Si17 2.920934 1_555
Ho10 Si4 2.921216 1_555
Ho10 Si10 3.159321 1_555
Ho11 Si15 2.920934 1_555
Ho11 Si16 2.920934 1_555
Ho11 Si5 2.921229 1_555
Ho11 Si11 3.159327 1_555
Ho12 Si8 2.910144 1_555
Ho12 Si7 2.910144 1_555
Ho12 Si15 3.000050 1_565
Ho12 Si12 3.314178 1_556
Ho12 Si12 3.528102 1_555
Ho13 Si6 2.910144 1_555
Ho13 Si8 2.910144 1_555
Ho13 Si16 3.000063 1_555
Ho13 Si13 3.314173 1_556
Ho13 Si13 3.528097 1_555
Ho14 Si6 2.910144 1_555
Ho14 Si7 2.910144 1_555
Ho14 Si17 3.000050 1_455
Ho14 Si14 3.314178 1_556
Ho14 Si14 3.528102 1_555
Ho15 Si11 2.910144 1_555
Ho15 Si10 2.910144 1_555
Ho15 Si12 3.000050 1_545
Ho15 Si15 3.314178 1_555
Ho15 Si15 3.528102 1_554
Ho16 Si11 2.910144 1_555
Ho16 Si9 2.910144 1_555
Ho16 Si13 3.000063 1_555
Ho16 Si16 3.314173 1_555
Ho16 Si16 3.528097 1_554
Ho17 Si9 2.910144 1_555
Ho17 Si10 2.910144 1_555
Ho17 Si14 3.000050 1_655
Ho17 Si17 3.314178 1_555
Ho17 Si17 3.528102 1_554
Ho18 Si0 2.974529 1_555
Ho18 Si6 3.007132 1_555
Ho18 Si4 3.023473 1_455
Ho18 Si14 3.040265 1_555
Ho18 Si17 3.059387 1_455
Ho18 Si10 3.077504 1_455
Ho19 Si1 2.974529 1_555
Ho19 Si7 3.007132 1_555
Ho19 Si5 3.023473 1_565
Ho19 Si12 3.040253 1_555
Ho19 Si15 3.059398 1_565
Ho19 Si11 3.077504 1_565
Ho20 Si2 2.974529 1_555
Ho20 Si8 3.007132 1_555
Ho20 Si3 3.023473 1_555
Ho20 Si13 3.040262 1_555
Ho20 Si16 3.059397 1_555
Ho20 Si9 3.077504 1_555
Ho21 Si0 2.974529 1_555
Ho21 Si6 3.007132 1_555
Ho21 Si5 3.023473 1_555
Ho21 Si13 3.040262 1_555
Ho21 Si16 3.059397 1_555
Ho21 Si11 3.077504 1_555
Ho22 Si2 2.974529 1_555
Ho22 Si8 3.007132 1_555
Ho22 Si4 3.023473 1_565
Ho22 Si12 3.040265 1_555
Ho22 Si15 3.059387 1_565
Ho22 Si10 3.077504 1_565
Ho23 Si1 2.974529 1_555
Ho23 Si7 3.007132 1_555
Ho23 Si3 3.023473 1_455
Ho23 Si14 3.040253 1_555
Ho23 Si17 3.059398 1_455
Ho23 Si9 3.077504 1_455
Ho24 Si3 2.974529 1_554
Ho24 Si9 3.007132 1_555
Ho24 Si1 3.023473 1_655
Ho24 Si17 3.040265 1_554
Ho24 Si14 3.059387 1_655
Ho24 Si7 3.077504 1_654
Ho25 Si4 2.974529 1_554
Ho25 Si10 3.007132 1_555
Ho25 Si2 3.023473 1_545
Ho25 Si15 3.040253 1_554
Ho25 Si12 3.059398 1_545
Ho25 Si8 3.077504 1_544
Ho26 Si5 2.974529 1_554
Ho26 Si11 3.007132 1_555
Ho26 Si0 3.023473 1_555
Ho26 Si16 3.040262 1_554
Ho26 Si13 3.059397 1_555
Ho26 Si6 3.077504 1_554
Ho27 Si3 2.974529 1_554
Ho27 Si9 3.007132 1_555
Ho27 Si2 3.023473 1_555
Ho27 Si16 3.040262 1_554
Ho27 Si13 3.059397 1_555
Ho27 Si8 3.077504 1_554
Ho28 Si5 2.974529 1_554
Ho28 Si11 3.007132 1_555
Ho28 Si1 3.023473 1_545
Ho28 Si15 3.040265 1_554
Ho28 Si12 3.059387 1_545
Ho28 Si7 3.077504 1_544
Ho29 Si4 2.974529 1_554
Ho29 Si10 3.007132 1_555
Ho29 Si0 3.023473 1_655
Ho29 Si17 3.040253 1_554
Ho29 Si14 3.059398 1_655
Ho29 Si6 3.077504 1_654
C0 Ho1 2.443103 1_544
C0 Ho0 2.443103 1_554
C0 Ho2 2.443103 1_444
C0 Ho4 2.468547 1_455
C0 Ho5 2.468547 1_555
C0 Ho3 2.468547 1_445
C1 Ho4 2.443103 1_455
C1 Ho5 2.443103 1_555
C1 Ho3 2.443103 1_445
C1 Ho1 2.468547 1_545
C1 Ho0 2.468547 1_555
C1 Ho2 2.468547 1_445
