# generated using pymatgen
data_Rb9Co2S7
_symmetry_space_group_name_H-M   'P 1'
_cell_length_a   13.26032300
_cell_length_b   13.26032300
_cell_length_c   13.26032300
_cell_angle_alpha   90.00000000
_cell_angle_beta   90.00000000
_cell_angle_gamma   90.00000000
_symmetry_Int_Tables_number   1
_chemical_formula_structural   Rb9Co2S7
_chemical_formula_sum   'Rb36 Co8 S28'
_cell_volume   2331.64435709
_cell_formula_units_Z   4
loop_
 _symmetry_equiv_pos_site_id
 _symmetry_equiv_pos_as_xyz
  1  'x, y, z'
loop_
 _atom_site_type_symbol
 _atom_site_label
 _atom_site_symmetry_multiplicity
 _atom_site_fract_x
 _atom_site_fract_y
 _atom_site_fract_z
 _atom_site_occupancy
  Rb  Rb0  1  0.08237600  0.54809400  0.25221500  1
  Rb  Rb1  1  0.41762400  0.45190600  0.75221500  1
  Rb  Rb2  1  0.91762400  0.04809400  0.24778500  1
  Rb  Rb3  1  0.25221500  0.08237600  0.54809400  1
  Rb  Rb4  1  0.58237600  0.95190600  0.74778500  1
  Rb  Rb5  1  0.75221500  0.41762400  0.45190600  1
  Rb  Rb6  1  0.24778500  0.91762400  0.04809400  1
  Rb  Rb7  1  0.74778500  0.58237600  0.95190600  1
  Rb  Rb8  1  0.54809400  0.25221500  0.08237600  1
  Rb  Rb9  1  0.04809400  0.24778500  0.91762400  1
  Rb  Rb10  1  0.95190600  0.74778500  0.58237600  1
  Rb  Rb11  1  0.45190600  0.75221500  0.41762400  1
  Rb  Rb12  1  0.48823100  0.48823100  0.48823100  1
  Rb  Rb13  1  0.01176900  0.51176900  0.98823100  1
  Rb  Rb14  1  0.51176900  0.98823100  0.01176900  1
  Rb  Rb15  1  0.98823100  0.01176900  0.51176900  1
  Rb  Rb16  1  0.04004100  0.29489200  0.42165000  1
  Rb  Rb17  1  0.45995900  0.70510800  0.92165000  1
  Rb  Rb18  1  0.95995900  0.79489200  0.07835000  1
  Rb  Rb19  1  0.42165000  0.04004100  0.29489200  1
  Rb  Rb20  1  0.54004100  0.20510800  0.57835000  1
  Rb  Rb21  1  0.92165000  0.45995900  0.70510800  1
  Rb  Rb22  1  0.07835000  0.95995900  0.79489200  1
  Rb  Rb23  1  0.57835000  0.54004100  0.20510800  1
  Rb  Rb24  1  0.29489200  0.42165000  0.04004100  1
  Rb  Rb25  1  0.79489200  0.07835000  0.95995900  1
  Rb  Rb26  1  0.20510800  0.57835000  0.54004100  1
  Rb  Rb27  1  0.70510800  0.92165000  0.45995900  1
  Rb  Rb28  1  0.66381200  0.66381200  0.66381200  1
  Rb  Rb29  1  0.83618800  0.33618800  0.16381200  1
  Rb  Rb30  1  0.33618800  0.16381200  0.83618800  1
  Rb  Rb31  1  0.16381200  0.83618800  0.33618800  1
  Rb  Rb32  1  0.30606600  0.30606600  0.30606600  1
  Rb  Rb33  1  0.19393400  0.69393400  0.80606600  1
  Rb  Rb34  1  0.69393400  0.80606600  0.19393400  1
  Rb  Rb35  1  0.80606600  0.19393400  0.69393400  1
  Co  Co0  1  0.15008300  0.15008300  0.15008300  1
  Co  Co1  1  0.34991700  0.84991700  0.65008300  1
  Co  Co2  1  0.84991700  0.65008300  0.34991700  1
  Co  Co3  1  0.65008300  0.34991700  0.84991700  1
  Co  Co4  1  0.82325400  0.82325400  0.82325400  1
  Co  Co5  1  0.67674600  0.17674600  0.32325400  1
  Co  Co6  1  0.17674600  0.32325400  0.67674600  1
  Co  Co7  1  0.32325400  0.67674600  0.17674600  1
  S  S0  1  0.08883300  0.31384600  0.15913300  1
  S  S1  1  0.41116700  0.68615400  0.65913300  1
  S  S2  1  0.91116700  0.81384600  0.34086700  1
  S  S3  1  0.15913300  0.08883300  0.31384600  1
  S  S4  1  0.58883300  0.18615400  0.84086700  1
  S  S5  1  0.65913300  0.41116700  0.68615400  1
  S  S6  1  0.34086700  0.91116700  0.81384600  1
  S  S7  1  0.84086700  0.58883300  0.18615400  1
  S  S8  1  0.31384600  0.15913300  0.08883300  1
  S  S9  1  0.81384600  0.34086700  0.91116700  1
  S  S10  1  0.18615400  0.84086700  0.58883300  1
  S  S11  1  0.68615400  0.65913300  0.41116700  1
  S  S12  1  0.04766800  0.04766800  0.04766800  1
  S  S13  1  0.45233200  0.95233200  0.54766800  1
  S  S14  1  0.95233200  0.54766800  0.45233200  1
  S  S15  1  0.54766800  0.45233200  0.95233200  1
  S  S16  1  0.06660900  0.20069300  0.67047500  1
  S  S17  1  0.43339100  0.79930700  0.17047500  1
  S  S18  1  0.93339100  0.70069300  0.82952500  1
  S  S19  1  0.67047500  0.06660900  0.20069300  1
  S  S20  1  0.56660900  0.29930700  0.32952500  1
  S  S21  1  0.17047500  0.43339100  0.79930700  1
  S  S22  1  0.82952500  0.93339100  0.70069300  1
  S  S23  1  0.32952500  0.56660900  0.29930700  1
  S  S24  1  0.20069300  0.67047500  0.06660900  1
  S  S25  1  0.70069300  0.82952500  0.93339100  1
  S  S26  1  0.29930700  0.32952500  0.56660900  1
  S  S27  1  0.79930700  0.17047500  0.43339100  1
loop_
_geom_bond_atom_site_label_1
_geom_bond_atom_site_label_2
_geom_bond_distance
_geom_bond_site_symmetry_2
Rb0 S14 3.164704 1_455
Rb0 S24 3.339538 1_555
Rb0 S0 3.343550 1_555
Rb0 S23 3.345259 1_555
Rb0 S7 3.363794 1_455
Rb1 S15 3.164704 1_555
Rb1 S26 3.339538 1_555
Rb1 S1 3.343550 1_555
Rb1 S21 3.345259 1_555
Rb1 S5 3.363794 1_555
Rb2 S12 3.164704 1_655
Rb2 S27 3.339538 1_555
Rb2 S2 3.343550 1_545
Rb2 S19 3.345259 1_555
Rb2 S3 3.363794 1_655
Rb3 S13 3.164704 1_545
Rb3 S16 3.339538 1_555
Rb3 S3 3.343550 1_555
Rb3 S26 3.345259 1_555
Rb3 S10 3.363794 1_545
Rb4 S13 3.164704 1_555
Rb4 S25 3.339538 1_555
Rb4 S4 3.343550 1_565
Rb4 S22 3.345259 1_555
Rb4 S6 3.363794 1_555
Rb5 S14 3.164704 1_555
Rb5 S20 3.339538 1_555
Rb5 S5 3.343550 1_555
Rb5 S27 3.345259 1_555
Rb5 S11 3.363794 1_555
Rb6 S12 3.164704 1_565
Rb6 S17 3.339538 1_555
Rb6 S6 3.343550 1_554
Rb6 S24 3.345259 1_555
Rb6 S8 3.363794 1_565
Rb7 S15 3.164704 1_555
Rb7 S18 3.339538 1_555
Rb7 S7 3.343550 1_556
Rb7 S25 3.345259 1_555
Rb7 S9 3.363794 1_555
Rb8 S15 3.164704 1_554
Rb8 S19 3.339538 1_555
Rb8 S8 3.343550 1_555
Rb8 S20 3.345259 1_555
Rb8 S4 3.363794 1_554
Rb9 S12 3.164704 1_556
Rb9 S21 3.339538 1_555
Rb9 S9 3.343550 1_455
Rb9 S16 3.345259 1_555
Rb9 S0 3.363794 1_556
Rb10 S14 3.164704 1_555
Rb10 S22 3.339538 1_555
Rb10 S10 3.343550 1_655
Rb10 S18 3.345259 1_555
Rb10 S2 3.363794 1_555
Rb11 S13 3.164704 1_555
Rb11 S23 3.339538 1_555
Rb11 S11 3.343550 1_555
Rb11 S17 3.345259 1_555
Rb11 S1 3.363794 1_555
Rb12 S23 3.432938 1_555
Rb12 S20 3.432938 1_555
Rb12 S26 3.432938 1_555
Rb12 S1 3.614986 1_555
Rb12 S11 3.614986 1_555
Rb12 S5 3.614986 1_555
Rb13 S24 3.432938 1_556
Rb13 S18 3.432938 1_455
Rb13 S21 3.432938 1_555
Rb13 S9 3.614986 1_455
Rb13 S7 3.614986 1_456
Rb13 S0 3.614986 1_556
Rb14 S19 3.432938 1_565
Rb14 S25 3.432938 1_554
Rb14 S17 3.432938 1_555
Rb14 S6 3.614986 1_554
Rb14 S4 3.614986 1_564
Rb14 S8 3.614986 1_565
Rb15 S16 3.432938 1_655
Rb15 S22 3.432938 1_545
Rb15 S27 3.432938 1_555
Rb15 S2 3.614986 1_545
Rb15 S10 3.614986 1_645
Rb15 S3 3.614986 1_655
Rb16 S3 3.464598 1_555
Rb16 S16 3.545573 1_555
Rb16 S0 3.549585 1_555
Rb16 S14 3.571189 1_455
Rb16 S27 3.596710 1_455
Rb17 S6 3.464598 1_555
Rb17 S17 3.545573 1_556
Rb17 S1 3.549585 1_555
Rb17 S15 3.571189 1_555
Rb17 S25 3.596710 1_555
Rb18 S7 3.464598 1_555
Rb18 S18 3.545573 1_554
Rb18 S2 3.549585 1_555
Rb18 S12 3.571189 1_665
Rb18 S24 3.596710 1_655
Rb19 S8 3.464598 1_555
Rb19 S19 3.545573 1_555
Rb19 S3 3.549585 1_555
Rb19 S13 3.571189 1_545
Rb19 S17 3.596710 1_545
Rb20 S5 3.464598 1_555
Rb20 S20 3.545573 1_555
Rb20 S4 3.549585 1_555
Rb20 S13 3.571189 1_545
Rb20 S26 3.596710 1_555
Rb21 S9 3.464598 1_555
Rb21 S21 3.545573 1_655
Rb21 S5 3.549585 1_555
Rb21 S14 3.571189 1_555
Rb21 S18 3.596710 1_555
Rb22 S10 3.464598 1_555
Rb22 S22 3.545573 1_455
Rb22 S6 3.549585 1_555
Rb22 S12 3.571189 1_566
Rb22 S16 3.596710 1_565
Rb23 S11 3.464598 1_555
Rb23 S23 3.545573 1_555
Rb23 S7 3.549585 1_555
Rb23 S15 3.571189 1_554
Rb23 S20 3.596710 1_555
Rb24 S0 3.464598 1_555
Rb24 S24 3.545573 1_555
Rb24 S8 3.549585 1_555
Rb24 S15 3.571189 1_554
Rb24 S21 3.596710 1_554
Rb25 S4 3.464598 1_555
Rb25 S25 3.545573 1_545
Rb25 S9 3.549585 1_555
Rb25 S12 3.571189 1_656
Rb25 S19 3.596710 1_556
Rb26 S1 3.464598 1_555
Rb26 S26 3.545573 1_555
Rb26 S10 3.549585 1_555
Rb26 S14 3.571189 1_455
Rb26 S23 3.596710 1_555
Rb27 S2 3.464598 1_555
Rb27 S27 3.545573 1_565
Rb27 S11 3.549585 1_555
Rb27 S13 3.571189 1_555
Rb27 S22 3.596710 1_555
Rb28 S5 3.363801 1_555
Rb28 S1 3.363801 1_555
Rb28 S11 3.363801 1_555
Rb29 S9 3.363801 1_554
Rb29 S7 3.363801 1_555
Rb29 S0 3.363801 1_655
Rb30 S6 3.363801 1_545
Rb30 S4 3.363801 1_555
Rb30 S8 3.363801 1_556
Rb31 S2 3.363801 1_455
Rb31 S10 3.363801 1_555
Rb31 S3 3.363801 1_565
Rb32 S20 3.470018 1_555
Rb32 S23 3.470018 1_555
Rb32 S26 3.470018 1_555
Rb32 S3 3.479161 1_555
Rb32 S0 3.479161 1_555
Rb32 S8 3.479161 1_555
Rb33 S24 3.470018 1_556
Rb33 S21 3.470018 1_555
Rb33 S18 3.470018 1_455
Rb33 S1 3.479161 1_555
Rb33 S10 3.479161 1_555
Rb33 S6 3.479161 1_555
Rb34 S19 3.470018 1_565
Rb34 S17 3.470018 1_555
Rb34 S25 3.470018 1_554
Rb34 S11 3.479161 1_555
Rb34 S7 3.479161 1_555
Rb34 S2 3.479161 1_555
Rb35 S16 3.470018 1_655
Rb35 S27 3.470018 1_555
Rb35 S22 3.470018 1_545
Rb35 S5 3.479161 1_555
Rb35 S4 3.479161 1_555
Rb35 S9 3.479161 1_555
Co0 S3 2.321571 1_555
Co0 S0 2.321571 1_555
Co0 S8 2.321571 1_555
Co0 S12 2.352222 1_555
Co1 S1 2.321571 1_555
Co1 S6 2.321571 1_555
Co1 S10 2.321571 1_555
Co1 S13 2.352222 1_555
Co2 S11 2.321571 1_555
Co2 S7 2.321571 1_555
Co2 S2 2.321571 1_555
Co2 S14 2.352222 1_555
Co3 S5 2.321571 1_555
Co3 S9 2.321571 1_555
Co3 S4 2.321571 1_555
Co3 S15 2.352222 1_555
Co4 S22 2.186574 1_555
Co4 S25 2.186574 1_555
Co4 S18 2.186574 1_555
Co4 Rb28 3.661993 1_555
Co5 S27 2.186574 1_555
Co5 S20 2.186574 1_555
Co5 S19 2.186574 1_555
Co5 Rb29 3.661993 1_555
Co6 S21 2.186574 1_555
Co6 S26 2.186574 1_555
Co6 S16 2.186574 1_555
Co6 Rb30 3.661993 1_555
Co7 S17 2.186574 1_555
Co7 S23 2.186574 1_555
Co7 S24 2.186574 1_555
Co7 Rb31 3.661993 1_555
