# generated using pymatgen
data_Sr2Cu2WO7
_symmetry_space_group_name_H-M   'P 1'
_cell_length_a   13.59169371
_cell_length_b   13.59169371
_cell_length_c   5.26750589
_cell_angle_alpha   78.93068099
_cell_angle_beta   78.93068099
_cell_angle_gamma   148.06372781
_symmetry_Int_Tables_number   1
_chemical_formula_structural   Sr2Cu2WO7
_chemical_formula_sum   'Sr4 Cu4 W2 O14'
_cell_volume   368.65015429
_cell_formula_units_Z   2
loop_
 _symmetry_equiv_pos_site_id
 _symmetry_equiv_pos_as_xyz
  1  'x, y, z'
loop_
 _atom_site_type_symbol
 _atom_site_label
 _atom_site_symmetry_multiplicity
 _atom_site_fract_x
 _atom_site_fract_y
 _atom_site_fract_z
 _atom_site_occupancy
  Sr  Sr0  1  0.38508700  0.15496400  0.97254200  1
  Sr  Sr1  1  0.65085200  0.88201500  0.99160800  1
  Sr  Sr2  1  0.88201500  0.65085200  0.99160800  1
  Sr  Sr3  1  0.15496400  0.38508700  0.97254200  1
  Cu  Cu0  1  0.96107500  0.58224300  0.48036900  1
  Cu  Cu1  1  0.07570000  0.45462700  0.48252600  1
  Cu  Cu2  1  0.45462700  0.07570000  0.48252600  1
  Cu  Cu3  1  0.58224300  0.96107500  0.48036900  1
  W  W0  1  0.19469500  0.19469500  0.44364800  1
  W  W1  1  0.76379500  0.76379500  0.58430500  1
  O  O0  1  0.37825000  0.37825000  0.94719800  1
  O  O1  1  0.82837300  0.82837300  0.89511700  1
  O  O2  1  0.69572900  0.34599300  0.47922700  1
  O  O3  1  0.84088400  0.19114600  0.98364700  1
  O  O4  1  0.19114600  0.84088400  0.98364700  1
  O  O5  1  0.34599300  0.69572900  0.47922700  1
  O  O6  1  0.19469700  0.84849600  0.47846700  1
  O  O7  1  0.34188900  0.68855100  0.98426400  1
  O  O8  1  0.68855100  0.34188900  0.98426400  1
  O  O9  1  0.84849600  0.19469700  0.47846700  1
  O  O10  1  0.33131800  0.19938400  0.48044000  1
  O  O11  1  0.71857900  0.85300600  0.44963800  1
  O  O12  1  0.85300600  0.71857900  0.44963800  1
  O  O13  1  0.19938400  0.33131800  0.48044000  1
loop_
_geom_bond_atom_site_label_1
_geom_bond_atom_site_label_2
_geom_bond_distance
_geom_bond_site_symmetry_2
Cu0 O6 1.910306 1_655
Cu0 O4 1.910721 1_654
Cu0 O2 1.917793 1_555
Cu0 O8 1.947973 1_555
Cu1 O9 1.885568 1_455
Cu1 O7 1.926787 1_554
Cu1 O3 1.927354 1_455
Cu1 O5 1.937986 1_555
Cu2 O6 1.885568 1_545
Cu2 O8 1.926787 1_554
Cu2 O4 1.927354 1_545
Cu2 O2 1.937986 1_555
Cu3 O9 1.910306 1_565
Cu3 O3 1.910721 1_564
Cu3 O5 1.917793 1_555
Cu3 O7 1.947973 1_555
O0 W0 1.926733 1_556
O0 W1 2.067357 1_555
O0 Sr3 3.092657 1_555
O0 Sr0 3.092657 1_555
O1 W1 2.004311 1_555
O1 W0 2.016588 1_665
O1 Sr2 3.044453 1_555
O1 Sr1 3.044453 1_555
O2 Sr2 2.405533 1_554
O2 Sr0 2.431123 1_555
O3 Sr1 2.407928 1_545
O3 Sr3 2.433342 1_655
O4 Sr2 2.407928 1_455
O4 Sr0 2.433342 1_565
O5 Sr1 2.405533 1_554
O5 Sr3 2.431123 1_555
O6 Sr0 2.437940 1_564
O6 Sr2 2.451047 1_455
O7 Sr3 2.417242 1_555
O7 Sr1 2.431057 1_555
O8 Sr0 2.417242 1_555
O8 Sr2 2.431057 1_555
O9 Sr3 2.437940 1_654
O9 Sr1 2.451047 1_545
O10 W0 1.852541 1_555
O10 Sr0 2.914308 1_555
O10 Sr0 2.945243 1_554
O10 Sr2 2.971417 1_445
O10 Sr2 2.980802 1_554
O11 W1 1.858222 1_555
O11 Sr1 2.815561 1_554
O11 Sr3 2.879226 1_664
O11 Sr1 3.031833 1_555
O11 Sr3 3.032853 1_555
O12 W1 1.858222 1_555
O12 Sr2 2.815561 1_554
O12 Sr0 2.879226 1_664
O12 Sr2 3.031833 1_555
O12 Sr0 3.032853 1_555
O13 W0 1.852541 1_555
O13 Sr3 2.914308 1_555
O13 Sr3 2.945243 1_554
O13 Sr1 2.971417 1_445
O13 Sr1 2.980802 1_554
