# generated using pymatgen
data_RbMg14Nb
_symmetry_space_group_name_H-M   'P 1'
_cell_length_a   6.50483607
_cell_length_b   6.68645797
_cell_length_c   10.36812572
_cell_angle_alpha   90.00000000
_cell_angle_beta   90.00000000
_cell_angle_gamma   120.92800616
_symmetry_Int_Tables_number   1
_chemical_formula_structural   RbMg14Nb
_chemical_formula_sum   'Rb1 Mg14 Nb1'
_cell_volume   386.83499041
_cell_formula_units_Z   1
loop_
 _symmetry_equiv_pos_site_id
 _symmetry_equiv_pos_as_xyz
  1  'x, y, z'
loop_
 _atom_site_type_symbol
 _atom_site_label
 _atom_site_symmetry_multiplicity
 _atom_site_fract_x
 _atom_site_fract_y
 _atom_site_fract_z
 _atom_site_occupancy
  Rb  Rb0  1  0.16016009  0.33007954  0.12500000  1
  Mg  Mg0  1  0.17125790  0.33562845  0.62500000  1
  Mg  Mg1  1  0.16637362  0.83318631  0.62500000  1
  Mg  Mg2  1  0.66341828  0.33186759  0.12500000  1
  Mg  Mg3  1  0.66784680  0.33900983  0.62500000  1
  Mg  Mg4  1  0.66341828  0.83154968  0.12500000  1
  Mg  Mg5  1  0.66784680  0.82883598  0.62500000  1
  Mg  Mg6  1  0.33161586  0.14899488  0.38092050  1
  Mg  Mg7  1  0.33161586  0.14899488  0.86907950  1
  Mg  Mg8  1  0.33161586  0.68262198  0.38092050  1
  Mg  Mg9  1  0.33161586  0.68262198  0.86907950  1
  Mg  Mg10  1  0.81754538  0.15877319  0.39061083  1
  Mg  Mg11  1  0.81754538  0.15877319  0.85938917  1
  Mg  Mg12  1  0.84326823  0.67163461  0.36567741  1
  Mg  Mg13  1  0.84326823  0.67163461  0.88432259  1
  Nb  Nb0  1  0.19158758  0.84579329  0.12500000  1
loop_
_geom_bond_atom_site_label_1
_geom_bond_atom_site_label_2
_geom_bond_distance
_geom_bond_site_symmetry_2
Mg0 Mg10 3.130691 1_455
Mg0 Mg11 3.130691 1_455
Mg0 Mg5 3.218667 1_555
Mg0 Mg3 3.218667 1_555
Mg0 Mg6 3.222978 1_555
Mg0 Mg7 3.222978 1_555
Mg0 Mg8 3.222985 1_555
Mg0 Mg9 3.222985 1_555
Mg0 Mg5 3.286284 1_445
Mg0 Mg3 3.286284 1_455
Mg0 Mg1 3.343340 1_545
Mg0 Mg1 3.343340 1_555
Mg1 Mg8 3.112136 1_555
Mg1 Mg9 3.112136 1_555
Mg1 Mg7 3.112143 1_565
Mg1 Mg6 3.112143 1_565
Mg1 Mg3 3.227981 1_455
Mg1 Mg5 3.227981 1_455
Mg1 Mg13 3.237210 1_455
Mg1 Mg12 3.237210 1_455
Mg1 Mg3 3.277046 1_565
Mg1 Mg5 3.277046 1_555
Mg2 Nb0 3.119200 1_545
Mg2 Rb0 3.237385 1_655
Mg2 Mg7 3.237485 1_554
Mg2 Mg6 3.237485 1_555
Mg2 Rb0 3.267483 1_555
Mg2 Mg4 3.341103 1_555
Mg2 Mg4 3.345355 1_545
Mg2 Nb0 3.387690 1_655
Mg3 Mg6 3.153656 1_555
Mg3 Mg7 3.153656 1_555
Mg3 Mg5 3.275202 1_555
Mg3 Mg5 3.411256 1_545
Mg4 Nb0 3.119201 1_555
Mg4 Rb0 3.237385 1_665
Mg4 Mg9 3.237486 1_554
Mg4 Mg8 3.237486 1_555
Mg4 Rb0 3.267483 1_555
Mg4 Nb0 3.387691 1_655
Mg5 Mg8 3.153657 1_555
Mg5 Mg9 3.153657 1_555
Mg6 Mg8 3.118383 1_545
Mg6 Nb0 3.175251 1_545
Mg6 Rb0 3.337466 1_555
Mg7 Mg9 3.118383 1_545
Mg7 Nb0 3.175251 1_546
Mg7 Rb0 3.337466 1_556
Mg8 Nb0 3.175245 1_555
Mg8 Rb0 3.337473 1_555
Mg9 Nb0 3.175245 1_556
Mg9 Rb0 3.337473 1_556
Mg10 Mg3 3.084257 1_555
Mg10 Mg5 3.084264 1_545
Mg10 Mg8 3.129404 1_545
Mg10 Mg6 3.129404 1_555
Mg10 Mg2 3.334869 1_555
Mg10 Mg4 3.334876 1_545
Mg10 Rb0 3.352425 1_655
Mg10 Mg12 3.356279 1_555
Mg10 Mg12 3.356279 1_545
Mg10 Mg8 3.379507 1_655
Mg10 Mg6 3.379508 1_655
Mg11 Mg3 3.084257 1_555
Mg11 Mg5 3.084264 1_545
Mg11 Mg9 3.129404 1_545
Mg11 Mg7 3.129404 1_555
Mg11 Mg2 3.334869 1_556
Mg11 Mg4 3.334876 1_546
Mg11 Rb0 3.352425 1_656
Mg11 Mg13 3.356279 1_555
Mg11 Mg13 3.356279 1_545
Mg11 Mg9 3.379507 1_655
Mg11 Mg7 3.379508 1_655
Mg12 Mg6 3.143470 1_665
Mg12 Mg8 3.143470 1_655
Mg12 Nb0 3.162985 1_655
Mg12 Mg4 3.166185 1_555
Mg12 Mg2 3.166192 1_555
Mg12 Mg5 3.296801 1_555
Mg12 Mg3 3.296807 1_555
Mg12 Mg6 3.370271 1_555
Mg12 Mg8 3.370271 1_555
Mg13 Mg7 3.143470 1_665
Mg13 Mg9 3.143470 1_655
Mg13 Nb0 3.162985 1_656
Mg13 Mg4 3.166185 1_556
Mg13 Mg2 3.166192 1_556
Mg13 Mg5 3.296801 1_555
Mg13 Mg3 3.296807 1_555
Mg13 Mg7 3.370271 1_555
Mg13 Mg9 3.370271 1_555
Nb0 Rb0 3.347825 1_565
Nb0 Rb0 3.347825 1_555
