# generated using pymatgen
data_Sc2TlV
_symmetry_space_group_name_H-M   'P 1'
_cell_length_a   12.13083537
_cell_length_b   12.13083537
_cell_length_c   12.13083537
_cell_angle_alpha   125.27505021
_cell_angle_beta   117.64532159
_cell_angle_gamma   87.62159574
_symmetry_Int_Tables_number   1
_chemical_formula_structural   Sc2TlV
_chemical_formula_sum   'Sc2 Tl1 V1'
_cell_volume   1226.06207841
_cell_formula_units_Z   1
loop_
 _symmetry_equiv_pos_site_id
 _symmetry_equiv_pos_as_xyz
  1  'x, y, z'
loop_
 _atom_site_type_symbol
 _atom_site_label
 _atom_site_symmetry_multiplicity
 _atom_site_fract_x
 _atom_site_fract_y
 _atom_site_fract_z
 _atom_site_occupancy
  Sc  Sc0  1  0.00000000  0.23391900  0.23391900  1
  Sc  Sc1  1  0.00000000  0.76608100  0.76608100  1
  Tl  Tl0  1  0.00000000  0.50000000  0.50000000  1
  V  V0  1  0.00000000  0.00000000  0.00000000  1
loop_
_geom_bond_atom_site_label_1
_geom_bond_atom_site_label_2
_geom_bond_distance
_geom_bond_site_symmetry_2
Sc0 V0 2.608456 1_555
Sc0 Tl0 2.967097 1_555
Sc1 V0 2.608456 1_566
Sc1 Tl0 2.967097 1_555
