# generated using pymatgen
data_SrRh2
_symmetry_space_group_name_H-M   'P 1'
_cell_length_a   5.44754975
_cell_length_b   5.44753834
_cell_length_c   5.44752270
_cell_angle_alpha   60.00010121
_cell_angle_beta   60.00017058
_cell_angle_gamma   60.00024031
_symmetry_Int_Tables_number   1
_chemical_formula_structural   SrRh2
_chemical_formula_sum   'Sr2 Rh4'
_cell_volume   114.31079176
_cell_formula_units_Z   2
loop_
 _symmetry_equiv_pos_site_id
 _symmetry_equiv_pos_as_xyz
  1  'x, y, z'
loop_
 _atom_site_type_symbol
 _atom_site_label
 _atom_site_symmetry_multiplicity
 _atom_site_fract_x
 _atom_site_fract_y
 _atom_site_fract_z
 _atom_site_occupancy
  Sr  Sr0  1  0.12500100  0.12500000  0.12500000  1
  Sr  Sr1  1  0.87499900  0.87500000  0.87500000  1
  Rh  Rh0  1  0.00000100  0.49999900  0.50000000  1
  Rh  Rh1  1  0.49999900  0.00000000  0.50000000  1
  Rh  Rh2  1  0.50000000  0.50000000  -0.00000000  1
  Rh  Rh3  1  0.50000000  0.50000000  0.50000000  1
loop_
_geom_bond_atom_site_label_1
_geom_bond_atom_site_label_2
_geom_bond_distance
_geom_bond_site_symmetry_2
Sr0 Sr1 3.335918 1_445
Sr0 Sr1 3.335926 1_444
Sr0 Sr1 3.335930 1_454
Sr0 Sr1 3.335930 1_544
Rh0 Rh3 2.723772 1_555
Rh0 Rh2 2.723772 1_555
Rh0 Rh1 2.723774 1_555
Rh0 Rh3 2.723778 1_455
Rh0 Rh2 2.723778 1_456
Rh0 Rh1 2.723790 1_465
Rh0 Sr0 3.193893 1_555
Rh0 Sr1 3.193898 1_455
Rh0 Sr0 3.193898 1_556
Rh0 Sr1 3.193902 1_454
Rh0 Sr1 3.193905 1_445
Rh0 Sr0 3.193910 1_565
Rh1 Rh3 2.723766 1_545
Rh1 Rh2 2.723769 1_546
Rh1 Rh2 2.723769 1_555
Rh1 Rh3 2.723772 1_555
Rh1 Sr0 3.193891 1_555
Rh1 Sr1 3.193900 1_545
Rh1 Sr0 3.193900 1_556
Rh1 Sr1 3.193900 1_544
Rh1 Sr1 3.193912 1_445
Rh1 Sr0 3.193921 1_655
Rh2 Rh3 2.723761 1_555
Rh2 Rh3 2.723761 1_554
Rh2 Sr0 3.193899 1_555
Rh2 Sr1 3.193899 1_554
Rh2 Sr0 3.193910 1_565
Rh2 Sr1 3.193910 1_544
Rh2 Sr0 3.193919 1_655
Rh2 Sr1 3.193919 1_454
Rh3 Sr0 3.193902 1_556
Rh3 Sr1 3.193902 1_554
Rh3 Sr1 3.193907 1_545
Rh3 Sr0 3.193907 1_565
Rh3 Sr1 3.193917 1_455
Rh3 Sr0 3.193917 1_655
