# generated using pymatgen
data_Pr12Si5Se28
_symmetry_space_group_name_H-M   'P 1'
_cell_length_a   10.69982000
_cell_length_b   12.15141707
_cell_length_c   12.29051213
_cell_angle_alpha   119.59501998
_cell_angle_beta   115.79972502
_cell_angle_gamma   89.99405891
_symmetry_Int_Tables_number   1
_chemical_formula_structural   Pr12Si5Se28
_chemical_formula_sum   'Pr12 Si5 Se28'
_cell_volume   1202.97609830
_cell_formula_units_Z   1
loop_
 _symmetry_equiv_pos_site_id
 _symmetry_equiv_pos_as_xyz
  1  'x, y, z'
loop_
 _atom_site_type_symbol
 _atom_site_label
 _atom_site_symmetry_multiplicity
 _atom_site_fract_x
 _atom_site_fract_y
 _atom_site_fract_z
 _atom_site_occupancy
  Pr  Pr0  1  0.12507700  0.30566400  0.34734600  1
  Pr  Pr1  1  0.13031400  0.79627200  0.36560200  1
  Pr  Pr2  1  0.63570400  0.49482200  0.76231500  1
  Pr  Pr3  1  0.65258000  0.02119000  0.77959500  1
  Pr  Pr4  1  0.23229700  0.54916900  0.86923700  1
  Pr  Pr5  1  0.22418500  0.06936500  0.87544400  1
  Pr  Pr6  1  0.86379100  0.69577100  0.63293200  1
  Pr  Pr7  1  0.87897900  0.19173600  0.65444000  1
  Pr  Pr8  1  0.34690000  0.47817200  0.22438800  1
  Pr  Pr9  1  0.36516600  0.99353100  0.23049700  1
  Pr  Pr10  1  0.77692900  0.42637600  0.12247400  1
  Pr  Pr11  1  0.76694100  0.94526000  0.13311500  1
  Si  Si0  1  0.33699500  0.74791900  0.66929100  1
  Si  Si1  1  0.32986800  0.24552700  0.66469900  1
  Si  Si2  1  0.66719800  0.33315700  0.33351400  1
  Si  Si3  1  0.66632400  0.83143500  0.33334000  1
  Si  Si4  1  0.99967600  0.73625000  0.00052700  1
  Se  Se0  1  0.33346600  0.56044600  0.66630700  1
  Se  Se1  1  0.33400400  0.06104600  0.66743300  1
  Se  Se2  1  0.65975200  0.63944400  0.32079100  1
  Se  Se3  1  0.67389500  0.15297000  0.34597400  1
  Se  Se4  1  0.47803200  0.93633800  0.89502700  1
  Se  Se5  1  0.48024100  0.43243600  0.89185800  1
  Se  Se6  1  0.11297500  0.78681300  0.59906400  1
  Se  Se7  1  0.10175600  0.27479300  0.57453900  1
  Se  Se8  1  0.42657200  0.75263000  0.53048600  1
  Se  Se9  1  0.40041300  0.24302100  0.51116800  1
  Se  Se10  1  0.52336500  0.29424400  0.10822200  1
  Se  Se11  1  0.52071900  0.79118500  0.10512200  1
  Se  Se12  1  0.89425200  0.44859700  0.41822900  1
  Se  Se13  1  0.89261800  0.94495500  0.41233300  1
  Se  Se14  1  0.58605400  0.48013200  0.47983400  1
  Se  Se15  1  0.58286500  0.97593200  0.47571700  1
  Se  Se16  1  0.23453200  0.70124800  0.15284300  1
  Se  Se17  1  0.25950000  0.19718000  0.16595700  1
  Se  Se18  1  0.84767000  0.66588200  0.08144300  1
  Se  Se19  1  0.83460900  0.16053100  0.09364000  1
  Se  Se20  1  0.90712400  0.98436500  0.74073700  1
  Se  Se21  1  0.91762700  0.50822200  0.76560000  1
  Se  Se22  1  0.74022000  0.28196000  0.83052800  1
  Se  Se23  1  0.77120200  0.77487500  0.85599000  1
  Se  Se24  1  0.16879700  0.32144700  0.90807600  1
  Se  Se25  1  0.14194000  0.80396800  0.91495600  1
  Se  Se26  1  0.08384800  0.95926800  0.22703300  1
  Se  Se27  1  0.09303000  0.49945800  0.26233500  1
loop_
_geom_bond_atom_site_label_1
_geom_bond_atom_site_label_2
_geom_bond_distance
_geom_bond_site_symmetry_2
Pr0 Se19 2.937068 1_455
Pr0 Se17 2.943545 1_555
Pr0 Se27 2.978741 1_555
Pr0 Se7 3.105024 1_555
Pr0 Se9 3.108488 1_555
Pr0 Se12 3.202013 1_455
Pr0 Se0 3.213958 1_555
Pr0 Se26 3.658321 1_545
Pr1 Se16 2.995016 1_555
Pr1 Se6 3.011651 1_555
Pr1 Se18 3.032372 1_455
Pr1 Se26 3.108881 1_555
Pr1 Se27 3.133122 1_555
Pr1 Se8 3.147344 1_555
Pr1 Se1 3.168273 1_565
Pr1 Se13 3.210619 1_455
Pr2 Se21 3.002526 1_555
Pr2 Se18 3.008883 1_556
Pr2 Se9 3.022679 1_555
Pr2 Se5 3.061759 1_555
Pr2 Se23 3.112285 1_555
Pr2 Se22 3.157381 1_555
Pr2 Se0 3.177039 1_555
Pr2 Se14 3.185930 1_555
Pr3 Se19 2.925748 1_556
Pr3 Se20 2.960925 1_545
Pr3 Se22 2.973619 1_555
Pr3 Se8 3.091843 1_545
Pr3 Se4 3.211786 1_545
Pr3 Se1 3.212944 1_555
Pr3 Se15 3.217765 1_545
Pr3 Se23 3.631632 1_545
Pr4 Se21 2.974462 1_455
Pr4 Se5 2.978968 1_555
Pr4 Se16 3.021669 1_556
Pr4 Se25 3.096861 1_555
Pr4 Se7 3.139299 1_555
Pr4 Se24 3.151824 1_555
Pr4 Se0 3.177872 1_555
Pr4 Se11 3.220250 1_556
Pr5 Se17 2.941439 1_556
Pr5 Se20 2.956269 1_445
Pr5 Se24 2.981284 1_555
Pr5 Se6 3.115378 1_545
Pr5 Se4 3.140465 1_545
Pr5 Se10 3.194929 1_556
Pr5 Se1 3.207268 1_555
Pr5 Se25 3.651029 1_545
Pr6 Se12 3.001768 1_555
Pr6 Se25 3.020035 1_655
Pr6 Se20 3.023986 1_555
Pr6 Se23 3.030226 1_555
Pr6 Se14 3.082547 1_555
Pr6 Se6 3.150779 1_655
Pr6 Se2 3.173127 1_555
Pr6 Se21 3.322182 1_555
Pr7 Se22 2.922857 1_555
Pr7 Se24 2.924303 1_655
Pr7 Se13 3.071205 1_545
Pr7 Se20 3.150707 1_545
Pr7 Se15 3.161382 1_545
Pr7 Se3 3.225685 1_555
Pr7 Se7 3.268320 1_655
Pr7 Se21 3.338600 1_555
Pr8 Se24 2.934484 1_554
Pr8 Se27 2.940495 1_555
Pr8 Se14 3.055893 1_555
Pr8 Se10 3.129302 1_555
Pr8 Se17 3.169042 1_555
Pr8 Se2 3.271884 1_555
Pr8 Se8 3.289190 1_555
Pr8 Se16 3.316626 1_555
Pr9 Se15 3.013413 1_555
Pr9 Se26 3.017743 1_555
Pr9 Se25 3.027457 1_554
Pr9 Se17 3.031317 1_565
Pr9 Se11 3.111199 1_555
Pr9 Se9 3.125856 1_565
Pr9 Se3 3.143937 1_565
Pr9 Se16 3.312180 1_555
Pr10 Se27 2.935129 1_655
Pr10 Se22 2.943233 1_554
Pr10 Se10 3.046128 1_555
Pr10 Se12 3.149679 1_555
Pr10 Se19 3.162457 1_555
Pr10 Se5 3.238925 1_554
Pr10 Se2 3.262274 1_555
Pr10 Se18 3.328613 1_555
Pr11 Se23 3.009884 1_554
Pr11 Se11 3.023271 1_555
Pr11 Se19 3.026879 1_565
Pr11 Se26 3.042742 1_655
Pr11 Se13 3.095276 1_555
Pr11 Se4 3.153302 1_554
Pr11 Se3 3.154423 1_565
Pr11 Se18 3.319901 1_555
Se0 Si0 2.260228 1_555
Se1 Si1 2.258632 1_555
Se2 Si3 2.259786 1_555
Se3 Si2 2.268088 1_555
Se4 Si0 2.301911 1_555
Se5 Si1 2.317172 1_555
Se6 Si0 2.305570 1_555
Se7 Si1 2.312245 1_555
Se8 Si0 2.313453 1_555
Se9 Si1 2.305298 1_555
Se10 Si2 2.292761 1_555
Se11 Si3 2.318465 1_555
Se12 Si2 2.304396 1_555
Se13 Si3 2.310796 1_555
Se14 Si2 2.316013 1_555
Se15 Si3 2.295120 1_555
Se16 Si4 2.586806 1_455
Se18 Si4 2.571701 1_555
Se21 Si4 2.583988 1_556
Se23 Si4 2.528910 1_556
Se25 Si4 2.519700 1_456
Se26 Si4 2.504291 1_455
