# generated using pymatgen
data_LaCeSb2(SBr)4
_symmetry_space_group_name_H-M   'P 1'
_cell_length_a   8.76112392
_cell_length_b   9.35497257
_cell_length_c   17.57773069
_cell_angle_alpha   90.00000000
_cell_angle_beta   104.26436600
_cell_angle_gamma   90.00000000
_symmetry_Int_Tables_number   1
_chemical_formula_structural   LaCeSb2(SBr)4
_chemical_formula_sum   'La4 Ce4 Sb8 S16 Br16'
_cell_volume   1396.25497601
_cell_formula_units_Z   4
loop_
 _symmetry_equiv_pos_site_id
 _symmetry_equiv_pos_as_xyz
  1  'x, y, z'
loop_
 _atom_site_type_symbol
 _atom_site_label
 _atom_site_symmetry_multiplicity
 _atom_site_fract_x
 _atom_site_fract_y
 _atom_site_fract_z
 _atom_site_occupancy
  La  La0  1  0.87755987  0.63151377  0.25601608  1
  La  La1  1  0.12244013  0.13151377  0.24398392  1
  La  La2  1  0.12244013  0.36848623  0.74398392  1
  La  La3  1  0.87755987  0.86848623  0.75601608  1
  Ce  Ce0  1  0.38784298  0.63679212  0.26334594  1
  Ce  Ce1  1  0.61215702  0.13679212  0.23665406  1
  Ce  Ce2  1  0.61215702  0.36320788  0.73665406  1
  Ce  Ce3  1  0.38784298  0.86320788  0.76334594  1
  Sb  Sb0  1  0.73013503  0.45687808  0.45336126  1
  Sb  Sb1  1  0.26986497  0.95687808  0.04663874  1
  Sb  Sb2  1  0.26986497  0.54312192  0.54663874  1
  Sb  Sb3  1  0.73013503  0.04312192  0.95336126  1
  Sb  Sb4  1  0.27401422  0.34155777  0.05478408  1
  Sb  Sb5  1  0.72598578  0.84155777  0.44521592  1
  Sb  Sb6  1  0.72598578  0.65844223  0.94521592  1
  Sb  Sb7  1  0.27401422  0.15844223  0.55478408  1
  S  S0  1  0.34021745  0.33591389  0.19760193  1
  S  S1  1  0.65978255  0.83591389  0.30239807  1
  S  S2  1  0.65978255  0.66408611  0.80239807  1
  S  S3  1  0.34021745  0.16408611  0.69760193  1
  S  S4  1  0.07329568  0.14984242  0.05264892  1
  S  S5  1  0.92670432  0.64984242  0.44735108  1
  S  S6  1  0.92670432  0.85015758  0.94735108  1
  S  S7  1  0.07329568  0.35015758  0.55264892  1
  S  S8  1  0.47570607  0.15115249  0.05401840  1
  S  S9  1  0.52429393  0.65115249  0.44598160  1
  S  S10  1  0.52429393  0.84884751  0.94598160  1
  S  S11  1  0.47570607  0.34884751  0.55401840  1
  S  S12  1  0.66154397  0.43705851  0.30966859  1
  S  S13  1  0.33845603  0.93705851  0.19033141  1
  S  S14  1  0.33845603  0.56294149  0.69033141  1
  S  S15  1  0.66154397  0.06294149  0.80966859  1
  Br  Br0  1  0.07955803  0.62906708  0.13395653  1
  Br  Br1  1  0.92044197  0.12906708  0.36604347  1
  Br  Br2  1  0.92044197  0.37093292  0.86604347  1
  Br  Br3  1  0.07955803  0.87093292  0.63395653  1
  Br  Br4  1  0.83765793  0.94208310  0.15999926  1
  Br  Br5  1  0.16234207  0.44208310  0.34000074  1
  Br  Br6  1  0.16234207  0.05791690  0.84000074  1
  Br  Br7  1  0.83765793  0.55791690  0.65999926  1
  Br  Br8  1  0.55468003  0.62684228  0.12887436  1
  Br  Br9  1  0.44531997  0.12684228  0.37112564  1
  Br  Br10  1  0.44531997  0.37315772  0.87112564  1
  Br  Br11  1  0.55468003  0.87315772  0.62887436  1
  Br  Br12  1  0.15824868  0.82590411  0.33387208  1
  Br  Br13  1  0.84175132  0.32590411  0.16612792  1
  Br  Br14  1  0.84175132  0.17409589  0.66612792  1
  Br  Br15  1  0.15824868  0.67409589  0.83387208  1
loop_
_geom_bond_atom_site_label_1
_geom_bond_atom_site_label_2
_geom_bond_distance
_geom_bond_site_symmetry_2
La0 S12 2.942770 1_555
La0 S1 2.954315 1_555
La0 S5 3.288241 1_555
La1 S13 2.942770 1_545
La1 S0 2.954315 1_555
La1 S4 3.288241 1_555
La2 S14 2.942770 1_555
La2 S3 2.954315 1_555
La2 S7 3.288241 1_555
La3 S15 2.942770 1_565
La3 S2 2.954315 1_555
La3 S6 3.288241 1_555
Ce0 S1 2.968417 1_555
Ce0 S12 2.990348 1_555
Ce0 S0 3.032250 1_555
Ce0 S13 3.074271 1_555
Ce0 S9 3.140396 1_555
Ce1 S0 2.968417 1_555
Ce1 S13 2.990348 1_545
Ce1 S1 3.032250 1_545
Ce1 S12 3.074271 1_555
Ce1 S8 3.140396 1_555
Ce2 S3 2.968417 1_555
Ce2 S14 2.990348 1_555
Ce2 S2 3.032250 1_555
Ce2 S15 3.074271 1_555
Ce2 S11 3.140396 1_555
Ce3 S2 2.968417 1_555
Ce3 S15 2.990348 1_565
Ce3 S3 3.032250 1_565
Ce3 S14 3.074271 1_555
Ce3 S10 3.140396 1_555
S0 Sb4 2.433894 1_555
S1 Sb5 2.433894 1_555
S2 Sb6 2.433894 1_555
S3 Sb7 2.433894 1_555
S4 Sb4 2.505572 1_555
S4 Sb1 2.515023 1_545
S5 Sb5 2.505572 1_555
S5 Sb0 2.515023 1_555
S6 Sb6 2.505572 1_555
S6 Sb3 2.515023 1_565
S7 Sb7 2.505572 1_555
S7 Sb2 2.515023 1_555
S8 Sb4 2.511406 1_555
S8 Sb1 2.541034 1_545
S9 Sb5 2.511406 1_555
S9 Sb0 2.541034 1_555
S10 Sb6 2.511406 1_555
S10 Sb3 2.541034 1_565
S11 Sb7 2.511406 1_555
S11 Sb2 2.541034 1_555
S12 Sb0 2.455024 1_555
S13 Sb1 2.455024 1_555
S14 Sb2 2.455024 1_555
S15 Sb3 2.455024 1_555
Br0 Ce0 3.073402 1_555
Br0 La0 3.099501 1_455
Br1 Ce1 3.073402 1_555
Br1 La1 3.099501 1_655
Br2 Ce2 3.073402 1_555
Br2 La2 3.099501 1_655
Br3 Ce3 3.073402 1_555
Br3 La3 3.099501 1_455
Br4 La1 3.119253 1_665
Br4 Ce1 3.216888 1_565
Br4 La0 3.334838 1_555
Br5 La0 3.119253 1_455
Br5 Ce0 3.216888 1_555
Br5 La1 3.334838 1_555
Br6 La3 3.119253 1_445
Br6 Ce3 3.216888 1_545
Br6 La2 3.334838 1_555
Br7 La2 3.119253 1_655
Br7 Ce2 3.216888 1_555
Br7 La3 3.334838 1_555
Br8 Ce0 3.071622 1_555
Br8 La0 3.143750 1_555
Br9 Ce1 3.071622 1_555
Br9 La1 3.143750 1_555
Br10 Ce2 3.071622 1_555
Br10 La2 3.143750 1_555
Br11 Ce3 3.071622 1_555
Br11 La3 3.143750 1_555
Br12 La0 3.093354 1_455
Br12 Ce0 3.153042 1_555
Br12 La1 3.244126 1_565
Br13 La1 3.093354 1_655
Br13 Ce1 3.153042 1_555
Br13 La0 3.244126 1_555
Br14 La2 3.093354 1_655
Br14 Ce2 3.153042 1_555
Br14 La3 3.244126 1_545
Br15 La3 3.093354 1_455
Br15 Ce3 3.153042 1_555
Br15 La2 3.244126 1_555
