# generated using pymatgen
data_CaTiCu(PO4)3
_symmetry_space_group_name_H-M   'P 1'
_cell_length_a   8.80521135
_cell_length_b   8.80519818
_cell_length_c   8.80519570
_cell_angle_alpha   58.69459216
_cell_angle_beta   58.69461433
_cell_angle_gamma   58.69452204
_symmetry_Int_Tables_number   1
_chemical_formula_structural   CaTiCu(PO4)3
_chemical_formula_sum   'Ca2 Ti2 Cu2 P6 O24'
_cell_volume   468.32877837
_cell_formula_units_Z   2
loop_
 _symmetry_equiv_pos_site_id
 _symmetry_equiv_pos_as_xyz
  1  'x, y, z'
loop_
 _atom_site_type_symbol
 _atom_site_label
 _atom_site_symmetry_multiplicity
 _atom_site_fract_x
 _atom_site_fract_y
 _atom_site_fract_z
 _atom_site_occupancy
  Ca  Ca0  1  0.99654600  0.99654700  0.99654800  1
  Ca  Ca1  1  0.49654600  0.49654400  0.49654400  1
  Ti  Ti0  1  0.14606000  0.14606300  0.14606200  1
  Ti  Ti1  1  0.64605900  0.64606100  0.64605800  1
  Cu  Cu0  1  0.35236100  0.35236100  0.35236100  1
  Cu  Cu1  1  0.85236700  0.85236400  0.85236600  1
  P  P0  1  0.03938900  0.46086300  0.75124500  1
  P  P1  1  0.46086200  0.75124600  0.03938900  1
  P  P2  1  0.75124500  0.03938900  0.46086200  1
  P  P3  1  0.25123800  0.96084900  0.53940300  1
  P  P4  1  0.53940300  0.25123800  0.96085000  1
  P  P5  1  0.96085000  0.53940300  0.25123800  1
  O  O0  1  0.12125300  0.51701700  0.29202400  1
  O  O1  1  0.29202200  0.12125400  0.51701700  1
  O  O2  1  0.05476200  0.27180600  0.92241700  1
  O  O3  1  0.51701700  0.29202500  0.12125300  1
  O  O4  1  0.01698000  0.62134300  0.79204400  1
  O  O5  1  0.22614400  0.43931000  0.58218800  1
  O  O6  1  0.27180500  0.92241700  0.05476200  1
  O  O7  1  0.43931200  0.58218700  0.22614500  1
  O  O8  1  0.20702700  0.99926100  0.37031100  1
  O  O9  1  0.58218800  0.22614400  0.43931000  1
  O  O10  1  0.08211500  0.93928800  0.72619800  1
  O  O11  1  0.37031000  0.20702700  0.99926200  1
  O  O12  1  0.62134300  0.79204200  0.01698000  1
  O  O13  1  0.92241600  0.05476200  0.27180500  1
  O  O14  1  0.42241700  0.77180200  0.55476300  1
  O  O15  1  0.79204500  0.01697800  0.62134300  1
  O  O16  1  0.55476500  0.42241500  0.77180300  1
  O  O17  1  0.72619700  0.08211600  0.93928500  1
  O  O18  1  0.77180100  0.55476600  0.42241500  1
  O  O19  1  0.99926300  0.37031100  0.20702700  1
  O  O20  1  0.49926400  0.70702900  0.87030800  1
  O  O21  1  0.93928500  0.72619700  0.08211600  1
  O  O22  1  0.70702800  0.87030600  0.49926400  1
  O  O23  1  0.87030800  0.49926300  0.70702800  1
loop_
_geom_bond_atom_site_label_1
_geom_bond_atom_site_label_2
_geom_bond_distance
_geom_bond_site_symmetry_2
Ca0 O10 2.340335 1_655
Ca0 O21 2.340350 1_556
Ca0 O17 2.340351 1_565
Ca0 O13 2.421246 1_566
Ca0 O6 2.421261 1_656
Ca0 O2 2.421267 1_665
Ca1 O7 2.340416 1_555
Ca1 O9 2.340427 1_555
Ca1 O5 2.340444 1_555
Ca1 O18 2.421274 1_555
Ca1 O14 2.421278 1_555
Ca1 O16 2.421287 1_555
Cu0 O3 1.944824 1_555
Cu0 O0 1.944829 1_555
Cu0 O1 1.944830 1_555
Cu0 O5 2.074891 1_555
Cu0 O9 2.074893 1_555
Cu0 O7 2.074897 1_555
Cu1 O4 1.944134 1_655
Cu1 O15 1.944149 1_565
Cu1 O12 1.944160 1_556
Cu1 O21 2.074197 1_556
Cu1 O17 2.074213 1_565
Cu1 O10 2.074216 1_655
O0 P5 1.525413 1_455
O1 P3 1.525418 1_545
O2 P0 1.559370 1_555
O2 Ti0 2.050461 1_556
O3 P4 1.525416 1_554
O4 P0 1.526054 1_555
O5 P0 1.543198 1_555
O6 P1 1.559366 1_555
O6 Ti0 2.050476 1_565
O7 P1 1.543208 1_555
O8 P3 1.557211 1_555
O8 Ti0 1.893661 1_565
O9 P2 1.543195 1_555
O10 P3 1.543656 1_555
O11 P4 1.557222 1_555
O11 Ti0 1.893660 1_556
O12 P1 1.526048 1_555
O13 P2 1.559368 1_555
O13 Ti0 2.050474 1_655
O14 P3 1.559348 1_555
O14 Ti1 2.050426 1_555
O15 P2 1.526060 1_555
O16 P4 1.559341 1_555
O16 Ti1 2.050447 1_555
O17 P4 1.543647 1_555
O18 P5 1.559352 1_555
O18 Ti1 2.050431 1_555
O19 P5 1.557207 1_555
O19 Ti0 1.893645 1_655
O20 P1 1.557186 1_556
O20 Ti1 1.893673 1_555
O21 P5 1.543647 1_555
O22 P2 1.557204 1_565
O22 Ti1 1.893642 1_555
O23 P0 1.557195 1_655
O23 Ti1 1.893675 1_555
