# generated using pymatgen
data_Bi10Te2I4O17
_symmetry_space_group_name_H-M   'P 1'
_cell_length_a   10.66342365
_cell_length_b   10.66342365
_cell_length_c   7.98967900
_cell_angle_alpha   90.00000000
_cell_angle_beta   90.00000000
_cell_angle_gamma   135.99953415
_symmetry_Int_Tables_number   1
_chemical_formula_structural   Bi10Te2I4O17
_chemical_formula_sum   'Bi10 Te2 I4 O17'
_cell_volume   631.09913955
_cell_formula_units_Z   1
loop_
 _symmetry_equiv_pos_site_id
 _symmetry_equiv_pos_as_xyz
  1  'x, y, z'
loop_
 _atom_site_type_symbol
 _atom_site_label
 _atom_site_symmetry_multiplicity
 _atom_site_fract_x
 _atom_site_fract_y
 _atom_site_fract_z
 _atom_site_occupancy
  Bi  Bi0  1  0.48975800  0.99681100  0.75665000  1
  Bi  Bi1  1  0.48975800  0.99681100  0.24335000  1
  Bi  Bi2  1  0.00318900  0.51024200  0.75665000  1
  Bi  Bi3  1  0.00318900  0.51024200  0.24335000  1
  Bi  Bi4  1  0.37715700  0.62284300  0.50000000  1
  Bi  Bi5  1  0.37046000  0.62954000  0.00000000  1
  Bi  Bi6  1  0.86986100  0.13013900  0.50000000  1
  Bi  Bi7  1  0.87715200  0.12284800  0.00000000  1
  Bi  Bi8  1  0.10289000  0.89711000  0.50000000  1
  Bi  Bi9  1  0.60290100  0.39709900  0.00000000  1
  Te  Te0  1  0.62219300  0.37780700  0.50000000  1
  Te  Te1  1  0.13838100  0.86161900  0.00000000  1
  I  I0  1  0.23671600  0.26348600  0.75104200  1
  I  I1  1  0.23671600  0.26348600  0.24895800  1
  I  I2  1  0.73651400  0.76328400  0.75104200  1
  I  I3  1  0.73651400  0.76328400  0.24895800  1
  O  O0  1  0.89725400  0.57267200  0.50000000  1
  O  O1  1  0.89691800  0.57583200  0.00000000  1
  O  O2  1  0.42732800  0.10274600  0.50000000  1
  O  O3  1  0.42416800  0.10308200  0.00000000  1
  O  O4  1  0.66250500  0.33749500  0.73446900  1
  O  O5  1  0.66250500  0.33749500  0.26553100  1
  O  O6  1  0.16050700  0.83949300  0.73641100  1
  O  O7  1  0.16050700  0.83949300  0.26358900  1
  O  O8  1  0.56354500  0.93340000  0.50000000  1
  O  O9  1  0.57836700  0.93804900  0.00000000  1
  O  O10  1  0.06660000  0.43645500  0.50000000  1
  O  O11  1  0.06195100  0.42163300  0.00000000  1
  O  O12  1  0.32015900  0.67984100  0.74169900  1
  O  O13  1  0.32015900  0.67984100  0.25830100  1
  O  O14  1  0.81512500  0.18487500  0.75151000  1
  O  O15  1  0.81512500  0.18487500  0.24849000  1
  O  O16  1  0.23420500  0.76579500  0.00000000  1
loop_
_geom_bond_atom_site_label_1
_geom_bond_atom_site_label_2
_geom_bond_distance
_geom_bond_site_symmetry_2
Bi0 O12 2.432094 1_555
Bi0 O9 2.432583 1_556
Bi0 O8 2.458960 1_555
Bi0 O14 2.459873 1_565
Bi0 O6 2.587200 1_555
Bi0 O3 2.587252 1_566
Bi0 O4 2.644757 1_565
Bi0 O2 2.646867 1_565
Bi0 O16 2.759879 1_556
Bi1 O13 2.432094 1_555
Bi1 O9 2.432583 1_555
Bi1 O8 2.458960 1_555
Bi1 O15 2.459873 1_565
Bi1 O7 2.587200 1_555
Bi1 O3 2.587252 1_565
Bi1 O5 2.644757 1_565
Bi1 O2 2.646867 1_565
Bi1 O16 2.759879 1_555
Bi2 O12 2.432094 1_555
Bi2 O11 2.432583 1_556
Bi2 O10 2.458960 1_555
Bi2 O14 2.459873 1_455
Bi2 O6 2.587200 1_555
Bi2 O1 2.587252 1_456
Bi2 O4 2.644757 1_455
Bi2 O0 2.646867 1_455
Bi2 O16 2.759879 1_556
Bi3 O13 2.432094 1_555
Bi3 O11 2.432583 1_555
Bi3 O10 2.458960 1_555
Bi3 O15 2.459873 1_455
Bi3 O7 2.587200 1_555
Bi3 O1 2.587252 1_455
Bi3 O5 2.644757 1_455
Bi3 O0 2.646867 1_455
Bi3 O16 2.759879 1_555
Bi4 O12 2.235940 1_555
Bi4 O13 2.235940 1_555
Bi4 O10 2.334051 1_555
Bi4 O8 2.334051 1_555
Bi4 I0 3.562825 1_555
Bi4 I1 3.562825 1_555
Bi4 I2 3.562825 1_555
Bi4 I3 3.562825 1_555
Bi5 O9 2.290161 1_555
Bi5 O11 2.290161 1_555
Bi5 O12 2.290928 1_554
Bi5 O13 2.290928 1_555
Bi5 I1 3.635655 1_555
Bi5 I3 3.635655 1_555
Bi5 I0 3.635655 1_554
Bi5 I2 3.635655 1_554
Bi6 O15 2.282431 1_555
Bi6 O14 2.282431 1_555
Bi6 O10 2.282954 1_655
Bi6 O8 2.282954 1_545
Bi6 I0 3.653150 1_655
Bi6 I1 3.653150 1_655
Bi6 I2 3.653150 1_545
Bi6 I3 3.653150 1_545
Bi7 O9 2.236444 1_545
Bi7 O11 2.236444 1_655
Bi7 O14 2.333661 1_554
Bi7 O15 2.333661 1_555
Bi7 I1 3.554445 1_655
Bi7 I3 3.554445 1_545
Bi7 I0 3.554445 1_654
Bi7 I2 3.554445 1_544
Bi8 O6 2.205851 1_555
Bi8 O7 2.205851 1_555
Bi8 O0 2.421414 1_455
Bi8 O2 2.421414 1_565
Bi8 I2 3.647171 1_455
Bi8 I0 3.647171 1_565
Bi8 I3 3.647171 1_455
Bi8 I1 3.647171 1_565
Bi9 O1 2.205775 1_555
Bi9 O3 2.205775 1_555
Bi9 O5 2.426911 1_555
Bi9 O4 2.426911 1_554
Bi9 I3 3.637292 1_555
Bi9 I2 3.637292 1_554
Bi9 I1 3.637292 1_555
Bi9 I0 3.637292 1_554
O0 Te0 2.037764 1_555
O1 Te1 2.151276 1_655
O2 Te0 2.037764 1_555
O3 Te1 2.151276 1_545
O4 Te0 2.035873 1_555
O5 Te0 2.035873 1_555
O6 Te1 2.150958 1_556
O7 Te1 2.150958 1_555
O16 Te1 1.894812 1_555
