# generated using pymatgen
data_Y5Mg(MoO6)2
_symmetry_space_group_name_H-M   'P 1'
_cell_length_a   5.95491800
_cell_length_b   6.87889258
_cell_length_c   7.47622285
_cell_angle_alpha   105.49351664
_cell_angle_beta   90.00000000
_cell_angle_gamma   115.64792118
_symmetry_Int_Tables_number   1
_chemical_formula_structural   Y5Mg(MoO6)2
_chemical_formula_sum   'Y5 Mg1 Mo2 O12'
_cell_volume   263.67629007
_cell_formula_units_Z   1
loop_
 _symmetry_equiv_pos_site_id
 _symmetry_equiv_pos_as_xyz
  1  'x, y, z'
loop_
 _atom_site_type_symbol
 _atom_site_label
 _atom_site_symmetry_multiplicity
 _atom_site_fract_x
 _atom_site_fract_y
 _atom_site_fract_z
 _atom_site_occupancy
  Y  Y0  1  0.50000000  0.00000000  0.50000000  1
  Y  Y1  1  0.19667400  0.39334700  0.85619800  1
  Y  Y2  1  0.80332600  0.60665300  0.14380200  1
  Y  Y3  1  0.79366800  0.58733600  0.64682900  1
  Y  Y4  1  0.20633200  0.41266400  0.35317100  1
  Mg  Mg0  1  0.00000000  0.00000000  0.50000000  1
  Mo  Mo0  1  0.71432800  0.00000000  0.00000000  1
  Mo  Mo1  1  0.28567200  0.00000000  0.00000000  1
  O  O0  1  0.00220400  0.00440700  0.79932100  1
  O  O1  1  0.99779600  0.99559300  0.20067900  1
  O  O2  1  0.48154500  0.96309000  0.20138100  1
  O  O3  1  0.51845500  0.03691000  0.79861900  1
  O  O4  1  0.62947300  0.72005600  0.44037400  1
  O  O5  1  0.90941700  0.27994400  0.55962600  1
  O  O6  1  0.37052700  0.27994400  0.55962600  1
  O  O7  1  0.40458100  0.34532400  0.10021300  1
  O  O8  1  0.05925800  0.65467600  0.89978700  1
  O  O9  1  0.59541900  0.65467600  0.89978700  1
  O  O10  1  0.94074200  0.34532400  0.10021300  1
  O  O11  1  0.09058300  0.72005600  0.44037400  1
loop_
_geom_bond_atom_site_label_1
_geom_bond_atom_site_label_2
_geom_bond_distance
_geom_bond_site_symmetry_2
Mg0 O5 2.153747 1_455
Mg0 O6 2.153747 1_555
Mg0 O4 2.153747 1_445
Mg0 O11 2.153747 1_545
Mg0 O1 2.229845 1_445
Mg0 O0 2.229845 1_555
Mo0 O3 2.037722 1_554
Mo0 O2 2.037722 1_545
Mo0 O10 2.073289 1_555
Mo0 O9 2.073289 1_544
Mo0 O1 2.273746 1_545
Mo0 O0 2.273751 1_654
Mo1 O2 2.037722 1_545
Mo1 O3 2.037722 1_554
Mo1 O8 2.073289 1_544
Mo1 O7 2.073289 1_555
Mo1 O0 2.273746 1_554
Mo1 O1 2.273751 1_445
O0 Y1 2.321657 1_555
O0 Y3 2.498252 1_445
O1 Y2 2.321657 1_555
O1 Y4 2.498252 1_665
O2 Y0 2.175728 1_565
O3 Y0 2.175728 1_555
O4 Y0 2.308282 1_565
O4 Y3 2.386958 1_555
O4 Y4 2.428277 1_555
O4 Y2 2.524192 1_555
O5 Y0 2.308282 1_555
O5 Y4 2.386958 1_655
O5 Y3 2.428277 1_555
O5 Y1 2.524195 1_655
O6 Y0 2.308282 1_555
O6 Y4 2.386958 1_555
O6 Y3 2.428277 1_555
O6 Y1 2.524192 1_555
O7 Y2 2.228863 1_555
O7 Y4 2.278200 1_555
O7 Y1 2.376148 1_554
O8 Y1 2.228863 1_555
O8 Y3 2.278203 1_455
O8 Y2 2.376155 1_456
O9 Y1 2.228863 1_555
O9 Y3 2.278200 1_555
O9 Y2 2.376148 1_556
O10 Y2 2.228863 1_555
O10 Y4 2.278203 1_655
O10 Y1 2.376155 1_654
O11 Y0 2.308282 1_565
O11 Y3 2.386958 1_455
O11 Y4 2.428277 1_555
O11 Y2 2.524195 1_455
