# generated using pymatgen
data_Li2BeCl4
_symmetry_space_group_name_H-M   'P 1'
_cell_length_a   5.77029277
_cell_length_b   7.26117020
_cell_length_c   12.44240454
_cell_angle_alpha   90.00000000
_cell_angle_beta   90.00000000
_cell_angle_gamma   90.00000000
_symmetry_Int_Tables_number   1
_chemical_formula_structural   Li2BeCl4
_chemical_formula_sum   'Li8 Be4 Cl16'
_cell_volume   521.32527717
_cell_formula_units_Z   4
loop_
 _symmetry_equiv_pos_site_id
 _symmetry_equiv_pos_as_xyz
  1  'x, y, z'
loop_
 _atom_site_type_symbol
 _atom_site_label
 _atom_site_symmetry_multiplicity
 _atom_site_fract_x
 _atom_site_fract_y
 _atom_site_fract_z
 _atom_site_occupancy
  Li  Li0  1  0.00218384  0.75000000  0.73220023  1
  Li  Li1  1  -0.00218384  0.25000000  0.26779977  1
  Li  Li2  1  0.50218384  0.25000000  0.76779977  1
  Li  Li3  1  0.49781616  0.75000000  0.23220023  1
  Li  Li4  1  0.50000000  0.50000000  0.50000000  1
  Li  Li5  1  0.00000000  0.50000000  -0.00000000  1
  Li  Li6  1  0.50000000  -0.00000000  0.50000000  1
  Li  Li7  1  0.00000000  -0.00000000  -0.00000000  1
  Be  Be0  1  0.60135667  0.75000000  0.91125773  1
  Be  Be1  1  0.39864333  0.25000000  0.08874227  1
  Be  Be2  1  0.10135667  0.25000000  0.58874227  1
  Be  Be3  1  0.89864333  0.75000000  0.41125773  1
  Cl  Cl0  1  0.25448429  0.75000000  0.90984629  1
  Cl  Cl1  1  0.74551571  0.25000000  0.09015371  1
  Cl  Cl2  1  0.75448429  0.25000000  0.59015371  1
  Cl  Cl3  1  0.24551571  0.75000000  0.40984629  1
  Cl  Cl4  1  0.76023590  0.75000000  0.56333896  1
  Cl  Cl5  1  0.23976410  0.25000000  0.43666104  1
  Cl  Cl6  1  0.26023590  0.25000000  0.93666104  1
  Cl  Cl7  1  0.73976410  0.75000000  0.06333896  1
  Cl  Cl8  1  0.74090692  0.52563327  0.83629715  1
  Cl  Cl9  1  0.25909308  0.47436673  0.16370285  1
  Cl  Cl10  1  0.24090692  0.47436673  0.66370285  1
  Cl  Cl11  1  0.25909308  0.02563327  0.16370285  1
  Cl  Cl12  1  0.75909308  0.52563327  0.33629715  1
  Cl  Cl13  1  0.74090692  0.97436673  0.83629715  1
  Cl  Cl14  1  0.75909308  0.97436673  0.33629715  1
  Cl  Cl15  1  0.24090692  0.02563327  0.66370285  1
loop_
_geom_bond_atom_site_label_1
_geom_bond_atom_site_label_2
_geom_bond_distance
_geom_bond_site_symmetry_2
Be0 Cl0 2.001632 1_555
Be0 Cl8 2.042672 1_555
Be0 Cl13 2.042672 1_555
Be0 Cl7 2.053893 1_556
Be1 Cl1 2.001632 1_555
Be1 Cl9 2.042672 1_555
Be1 Cl11 2.042672 1_555
Be1 Cl6 2.053893 1_554
Be2 Cl2 2.001632 1_455
Be2 Cl15 2.042672 1_555
Be2 Cl10 2.042672 1_555
Be2 Cl5 2.053893 1_555
Be3 Cl3 2.001632 1_655
Be3 Cl12 2.042672 1_555
Be3 Cl14 2.042672 1_555
Be3 Cl4 2.053893 1_555
Cl0 Li5 2.590348 1_556
Cl0 Li7 2.590348 1_566
Cl0 Li0 2.646717 1_555
Cl1 Li5 2.590348 1_655
Cl1 Li7 2.590348 1_655
Cl1 Li1 2.646717 1_655
Cl2 Li6 2.590348 1_555
Cl2 Li4 2.590348 1_555
Cl2 Li2 2.646717 1_555
Cl3 Li6 2.590348 1_565
Cl3 Li4 2.590348 1_555
Cl3 Li3 2.646717 1_555
Cl4 Li4 2.484207 1_555
Cl4 Li6 2.484207 1_565
Cl4 Li0 2.522597 1_655
Cl5 Li6 2.484207 1_555
Cl5 Li4 2.484207 1_555
Cl5 Li1 2.522597 1_555
Cl6 Li7 2.484207 1_556
Cl6 Li5 2.484207 1_556
Cl6 Li2 2.522597 1_555
Cl7 Li7 2.484207 1_665
Cl7 Li5 2.484207 1_655
Cl7 Li3 2.522597 1_555
Cl8 Li5 2.533492 1_656
Cl8 Li0 2.569972 1_655
Cl8 Li2 2.574794 1_555
Cl9 Li5 2.533492 1_555
Cl9 Li1 2.569972 1_555
Cl9 Li3 2.574794 1_555
Cl10 Li4 2.533492 1_555
Cl10 Li2 2.569972 1_555
Cl10 Li0 2.574794 1_555
Cl11 Li7 2.533492 1_555
Cl11 Li1 2.569972 1_555
Cl11 Li3 2.574794 1_545
Cl12 Li4 2.533492 1_555
Cl12 Li3 2.569972 1_555
Cl12 Li1 2.574794 1_655
Cl13 Li7 2.533492 1_666
Cl13 Li0 2.569972 1_655
Cl13 Li2 2.574794 1_565
Cl14 Li6 2.533492 1_565
Cl14 Li3 2.569972 1_555
Cl14 Li1 2.574794 1_665
Cl15 Li6 2.533492 1_555
Cl15 Li2 2.569972 1_555
Cl15 Li0 2.574794 1_545
