# generated using pymatgen
data_Ir2Ru2O5
_symmetry_space_group_name_H-M   'P 1'
_cell_length_a   8.06964300
_cell_length_b   3.42783500
_cell_length_c   3.42783500
_cell_angle_alpha   90.00000000
_cell_angle_beta   90.00000000
_cell_angle_gamma   90.00000000
_symmetry_Int_Tables_number   1
_chemical_formula_structural   Ir2Ru2O5
_chemical_formula_sum   'Ir2 Ru2 O5'
_cell_volume   94.81873122
_cell_formula_units_Z   1
loop_
 _symmetry_equiv_pos_site_id
 _symmetry_equiv_pos_as_xyz
  1  'x, y, z'
loop_
 _atom_site_type_symbol
 _atom_site_label
 _atom_site_symmetry_multiplicity
 _atom_site_fract_x
 _atom_site_fract_y
 _atom_site_fract_z
 _atom_site_occupancy
  Ir  Ir0  1  0.16012800  0.49999800  0.49999800  1
  Ir  Ir1  1  0.83987300  0.49999800  0.49999800  1
  Ru  Ru0  1  0.00000000  0.00000000  0.00000000  1
  Ru  Ru1  1  0.50000000  0.00000000  0.00000000  1
  O  O0  1  0.30805300  0.49999800  0.00000000  1
  O  O1  1  0.69194600  0.49999800  0.00000000  1
  O  O2  1  0.50000000  0.49999800  0.49999800  1
  O  O3  1  0.30805300  0.00000000  0.49999800  1
  O  O4  1  0.69194600  0.00000000  0.49999800  1
loop_
_geom_bond_atom_site_label_1
_geom_bond_atom_site_label_2
_geom_bond_distance
_geom_bond_site_symmetry_2
Ir0 O3 2.088639 1_555
Ir0 O0 2.088639 1_555
Ir0 O0 2.088651 1_556
Ir0 O3 2.088651 1_565
Ir0 Ru0 2.746761 1_555
Ir0 Ru0 2.746770 1_565
Ir0 Ru0 2.746770 1_556
Ir0 Ru0 2.746778 1_566
Ir1 O4 2.088648 1_555
Ir1 O1 2.088648 1_555
Ir1 O4 2.088660 1_565
Ir1 O1 2.088660 1_556
Ir1 Ru0 2.746758 1_655
Ir1 Ru0 2.746766 1_665
Ir1 Ru0 2.746766 1_656
Ir1 Ru0 2.746775 1_666
O0 Ru1 2.310133 1_555
O0 Ru1 2.310144 1_565
O1 Ru1 2.310128 1_555
O1 Ru1 2.310138 1_565
O2 Ru1 2.423836 1_555
O2 Ru1 2.423845 1_556
O2 Ru1 2.423845 1_565
O2 Ru1 2.423855 1_566
O3 Ru1 2.310133 1_555
O3 Ru1 2.310144 1_556
O4 Ru1 2.310128 1_555
O4 Ru1 2.310138 1_556
