# generated using pymatgen
data_Y2Co3Ge5
_symmetry_space_group_name_H-M   'P 1'
_cell_length_a   5.75718114
_cell_length_b   8.09776668
_cell_length_c   8.09776668
_cell_angle_alpha   93.13501635
_cell_angle_beta   109.54667651
_cell_angle_gamma   109.54667651
_symmetry_Int_Tables_number   1
_chemical_formula_structural   Y2Co3Ge5
_chemical_formula_sum   'Y4 Co6 Ge10'
_cell_volume   329.30618317
_cell_formula_units_Z   2
loop_
 _symmetry_equiv_pos_site_id
 _symmetry_equiv_pos_as_xyz
  1  'x, y, z'
loop_
 _atom_site_type_symbol
 _atom_site_label
 _atom_site_symmetry_multiplicity
 _atom_site_fract_x
 _atom_site_fract_y
 _atom_site_fract_z
 _atom_site_occupancy
  Y  Y0  1  0.76464400  0.40593400  0.12755400  1
  Y  Y1  1  0.73535600  0.87244600  0.59406600  1
  Y  Y2  1  0.23535600  0.59406600  0.87244600  1
  Y  Y3  1  0.26464400  0.12755400  0.40593400  1
  Co  Co0  1  0.61805400  0.46150800  0.74128300  1
  Co  Co1  1  0.88194600  0.25871700  0.53849200  1
  Co  Co2  1  0.38194600  0.53849200  0.25871700  1
  Co  Co3  1  0.11805400  0.74128300  0.46150800  1
  Co  Co4  1  0.75000000  0.00388700  0.99611300  1
  Co  Co5  1  0.25000000  0.99611300  0.00388700  1
  Ge  Ge0  1  0.82963700  0.73958900  0.92426000  1
  Ge  Ge1  1  0.67036300  0.07574000  0.26041100  1
  Ge  Ge2  1  0.17036300  0.26041100  0.07574000  1
  Ge  Ge3  1  0.32963700  0.92426000  0.73958900  1
  Ge  Ge4  1  0.75000000  0.21734900  0.78265100  1
  Ge  Ge5  1  0.25000000  0.78265100  0.21734900  1
  Ge  Ge6  1  0.75000000  0.50751000  0.49249000  1
  Ge  Ge7  1  0.25000000  0.49249000  0.50751000  1
  Ge  Ge8  1  0.75000000  0.77180100  0.22819900  1
  Ge  Ge9  1  0.25000000  0.22819900  0.77180100  1
loop_
_geom_bond_atom_site_label_1
_geom_bond_atom_site_label_2
_geom_bond_distance
_geom_bond_site_symmetry_2
Co0 Ge0 2.311246 1_555
Co0 Ge4 2.346386 1_555
Co0 Ge6 2.385689 1_555
Co0 Ge9 2.417248 1_555
Co0 Ge7 2.420754 1_555
Co1 Ge1 2.311246 1_555
Co1 Ge4 2.346386 1_555
Co1 Ge6 2.385689 1_555
Co1 Ge9 2.417248 1_655
Co1 Ge7 2.420754 1_655
Co2 Ge2 2.311246 1_555
Co2 Ge5 2.346386 1_555
Co2 Ge7 2.385689 1_555
Co2 Ge8 2.417248 1_555
Co2 Ge6 2.420754 1_555
Co3 Ge3 2.311246 1_555
Co3 Ge5 2.346386 1_555
Co3 Ge7 2.385689 1_555
Co3 Ge8 2.417248 1_455
Co3 Ge6 2.420754 1_455
Co4 Ge0 2.414171 1_545
Co4 Ge1 2.414171 1_556
Co4 Ge2 2.456232 1_656
Co4 Ge3 2.456232 1_545
Co4 Ge4 2.510516 1_555
Co4 Ge8 2.729552 1_546
Co5 Ge3 2.414171 1_554
Co5 Ge2 2.414171 1_565
Co5 Ge1 2.456232 1_565
Co5 Ge0 2.456232 1_454
Co5 Ge5 2.510516 1_555
Co5 Ge9 2.729552 1_564
Ge0 Ge8 2.664730 1_556
Ge0 Ge5 2.666964 1_656
Ge0 Y1 2.887160 1_555
Ge0 Y2 3.076398 1_655
Ge0 Y2 3.091605 1_555
Ge0 Y0 3.220608 1_556
Ge1 Ge8 2.664730 1_545
Ge1 Ge5 2.666964 1_545
Ge1 Y0 2.887160 1_555
Ge1 Y3 3.076398 1_555
Ge1 Y3 3.091605 1_655
Ge1 Y1 3.220608 1_545
Ge2 Ge9 2.664730 1_554
Ge2 Ge4 2.666964 1_454
Ge2 Y3 2.887160 1_555
Ge2 Y0 3.076398 1_455
Ge2 Y0 3.091605 1_555
Ge2 Y2 3.220608 1_554
Ge3 Ge9 2.664730 1_565
Ge3 Ge4 2.666964 1_565
Ge3 Y2 2.887160 1_555
Ge3 Y1 3.076398 1_555
Ge3 Y1 3.091605 1_455
Ge3 Y3 3.220608 1_565
Ge4 Ge9 2.881418 1_555
Ge4 Ge9 2.881418 1_655
Ge4 Y0 3.070749 1_556
Ge4 Y1 3.070749 1_545
Ge4 Y2 3.215051 1_655
Ge4 Y3 3.215051 1_555
Ge5 Ge8 2.881418 1_455
Ge5 Ge8 2.881418 1_555
Ge5 Y3 3.070749 1_565
Ge5 Y2 3.070749 1_554
Ge5 Y1 3.215051 1_555
Ge5 Y0 3.215051 1_455
Ge6 Y1 3.060055 1_555
Ge6 Y0 3.060055 1_555
Ge6 Y2 3.235205 1_655
Ge6 Y3 3.235205 1_555
Ge7 Y2 3.060055 1_555
Ge7 Y3 3.060055 1_555
Ge7 Y1 3.235205 1_555
Ge7 Y0 3.235205 1_455
