# generated using pymatgen
data_LuB2C
_symmetry_space_group_name_H-M   'P 1'
_cell_length_a   3.57654557
_cell_length_b   6.65531474
_cell_length_c   6.77345949
_cell_angle_alpha   90.00000000
_cell_angle_beta   90.00000000
_cell_angle_gamma   90.00000000
_symmetry_Int_Tables_number   1
_chemical_formula_structural   LuB2C
_chemical_formula_sum   'Lu4 B8 C4'
_cell_volume   161.22890314
_cell_formula_units_Z   4
loop_
 _symmetry_equiv_pos_site_id
 _symmetry_equiv_pos_as_xyz
  1  'x, y, z'
loop_
 _atom_site_type_symbol
 _atom_site_label
 _atom_site_symmetry_multiplicity
 _atom_site_fract_x
 _atom_site_fract_y
 _atom_site_fract_z
 _atom_site_occupancy
  Lu  Lu0  1  0.50000000  0.81102409  0.19357897  1
  Lu  Lu1  1  0.50000000  0.18897591  0.80642103  1
  Lu  Lu2  1  0.50000000  0.31102409  0.30642103  1
  Lu  Lu3  1  0.50000000  0.68897591  0.69357897  1
  B  B0  1  0.00000000  0.59654666  0.40730726  1
  B  B1  1  -0.00000000  0.40345334  0.59269274  1
  B  B2  1  0.00000000  0.09654666  0.09269274  1
  B  B3  1  0.00000000  0.90345334  0.90730726  1
  B  B4  1  -0.00000000  0.84686333  0.46764092  1
  B  B5  1  0.00000000  0.15313667  0.53235908  1
  B  B6  1  -0.00000000  0.34686333  0.03235908  1
  B  B7  1  -0.00000000  0.65313667  0.96764092  1
  C  C0  1  -0.00000000  0.54117642  0.17842468  1
  C  C1  1  -0.00000000  0.45882358  0.82157532  1
  C  C2  1  0.00000000  0.04117642  0.32157532  1
  C  C3  1  -0.00000000  0.95882358  0.67842468  1
loop_
_geom_bond_atom_site_label_1
_geom_bond_atom_site_label_2
_geom_bond_distance
_geom_bond_site_symmetry_2
B0 C0 1.593521 1_555
B0 Lu2 2.697370 1_455
B0 Lu2 2.697370 1_555
B0 Lu0 2.707621 1_455
B0 Lu0 2.707621 1_555
B0 Lu3 2.708549 1_555
B0 Lu3 2.708549 1_455
B1 C1 1.593521 1_555
B1 Lu3 2.697370 1_455
B1 Lu3 2.697370 1_555
B1 Lu1 2.707621 1_455
B1 Lu1 2.707621 1_555
B1 Lu2 2.708549 1_455
B1 Lu2 2.708549 1_555
B2 C2 1.593521 1_555
B2 Lu0 2.697370 1_545
B2 Lu0 2.697370 1_445
B2 Lu2 2.707621 1_555
B2 Lu2 2.707621 1_455
B2 Lu1 2.708549 1_554
B2 Lu1 2.708549 1_454
B3 C3 1.593521 1_555
B3 Lu1 2.697370 1_565
B3 Lu1 2.697370 1_465
B3 Lu3 2.707621 1_455
B3 Lu3 2.707621 1_555
B3 Lu0 2.708549 1_556
B3 Lu0 2.708549 1_456
B4 C3 1.610481 1_555
B4 C2 1.628268 1_565
B4 Lu3 2.577625 1_555
B4 Lu3 2.577625 1_455
B4 Lu0 2.588598 1_555
B4 Lu0 2.588598 1_455
B5 C2 1.610481 1_555
B5 C3 1.628268 1_545
B5 Lu2 2.577625 1_455
B5 Lu2 2.577625 1_555
B5 Lu1 2.588598 1_455
B5 Lu1 2.588598 1_555
B6 C1 1.610481 1_554
B6 C0 1.628268 1_555
B6 Lu1 2.577625 1_454
B6 Lu1 2.577625 1_554
B6 Lu2 2.588598 1_455
B6 Lu2 2.588598 1_555
B7 C0 1.610481 1_556
B7 C1 1.628268 1_555
B7 Lu0 2.577625 1_556
B7 Lu0 2.577625 1_456
B7 Lu3 2.588598 1_555
B7 Lu3 2.588598 1_455
C0 Lu2 2.509141 1_555
C0 Lu2 2.509141 1_455
C0 Lu0 2.536491 1_455
C0 Lu0 2.536491 1_555
C1 Lu3 2.509141 1_555
C1 Lu3 2.509141 1_455
C1 Lu1 2.536491 1_455
C1 Lu1 2.536491 1_555
C2 Lu0 2.509141 1_545
C2 Lu0 2.509141 1_445
C2 Lu2 2.536491 1_555
C2 Lu2 2.536491 1_455
C3 Lu1 2.509141 1_465
C3 Lu1 2.509141 1_565
C3 Lu3 2.536491 1_455
C3 Lu3 2.536491 1_555
