# generated using pymatgen
data_K2NdF5
_symmetry_space_group_name_H-M   'P 1'
_cell_length_a   6.62073825
_cell_length_b   7.49962860
_cell_length_c   10.75829977
_cell_angle_alpha   90.00000000
_cell_angle_beta   90.00000000
_cell_angle_gamma   90.00000000
_symmetry_Int_Tables_number   1
_chemical_formula_structural   K2NdF5
_chemical_formula_sum   'K8 Nd4 F20'
_cell_volume   534.18269690
_cell_formula_units_Z   4
loop_
 _symmetry_equiv_pos_site_id
 _symmetry_equiv_pos_as_xyz
  1  'x, y, z'
loop_
 _atom_site_type_symbol
 _atom_site_label
 _atom_site_symmetry_multiplicity
 _atom_site_fract_x
 _atom_site_fract_y
 _atom_site_fract_z
 _atom_site_occupancy
  K  K0  1  0.52887369  0.49741470  0.82842934  1
  K  K1  1  0.47112631  0.50258530  0.17157066  1
  K  K2  1  0.02887369  0.50258530  0.67157066  1
  K  K3  1  0.47112631  0.99741470  0.17157066  1
  K  K4  1  0.97112631  0.49741470  0.32842934  1
  K  K5  1  0.52887369  0.00258530  0.82842934  1
  K  K6  1  0.97112631  0.00258530  0.32842934  1
  K  K7  1  0.02887369  0.99741470  0.67157066  1
  Nd  Nd0  1  0.56866318  0.75000000  0.50392729  1
  Nd  Nd1  1  0.43133682  0.25000000  0.49607271  1
  Nd  Nd2  1  0.06866318  0.25000000  0.99607271  1
  Nd  Nd3  1  0.93133682  0.75000000  0.00392729  1
  F  F0  1  0.82537012  0.75000000  0.79782190  1
  F  F1  1  0.17462988  0.25000000  0.20217810  1
  F  F2  1  0.32537012  0.25000000  0.70217810  1
  F  F3  1  0.67462988  0.75000000  0.29782190  1
  F  F4  1  0.35568262  0.75000000  0.67164539  1
  F  F5  1  0.64431738  0.25000000  0.32835461  1
  F  F6  1  0.85568262  0.25000000  0.82835461  1
  F  F7  1  0.14431738  0.75000000  0.17164539  1
  F  F8  1  0.91285077  0.75000000  0.50985001  1
  F  F9  1  0.08714923  0.25000000  0.49014999  1
  F  F10  1  0.41285077  0.25000000  0.99014999  1
  F  F11  1  0.58714923  0.75000000  0.00985001  1
  F  F12  1  0.64807385  0.03367425  0.58365513  1
  F  F13  1  0.35192615  0.96632575  0.41634487  1
  F  F14  1  0.14807385  0.96632575  0.91634487  1
  F  F15  1  0.35192615  0.53367425  0.41634487  1
  F  F16  1  0.85192615  0.03367425  0.08365513  1
  F  F17  1  0.64807385  0.46632575  0.58365513  1
  F  F18  1  0.85192615  0.46632575  0.08365513  1
  F  F19  1  0.14807385  0.53367425  0.91634487  1
loop_
_geom_bond_atom_site_label_1
_geom_bond_atom_site_label_2
_geom_bond_distance
_geom_bond_site_symmetry_2
F0 Nd3 2.325688 1_556
F0 K7 2.665169 1_655
F0 K2 2.665169 1_655
F0 K5 2.747772 1_565
F0 K0 2.747772 1_555
F1 Nd2 2.325688 1_554
F1 K6 2.665169 1_455
F1 K4 2.665169 1_455
F1 K1 2.747772 1_555
F1 K3 2.747772 1_545
F2 Nd1 2.325688 1_555
F2 K0 2.665169 1_555
F2 K5 2.665169 1_555
F2 K2 2.747772 1_555
F2 K7 2.747772 1_545
F3 Nd0 2.325688 1_555
F3 K3 2.665169 1_555
F3 K1 2.665169 1_555
F3 K6 2.747772 1_565
F3 K4 2.747772 1_555
F4 Nd0 2.289994 1_555
F4 K5 2.783563 1_565
F4 K0 2.783563 1_555
F4 K7 2.850371 1_555
F4 K2 2.850371 1_555
F5 Nd1 2.289994 1_555
F5 K1 2.783563 1_555
F5 K3 2.783563 1_545
F5 K4 2.850371 1_555
F5 K6 2.850371 1_555
F6 Nd2 2.289994 1_655
F6 K7 2.783563 1_645
F6 K2 2.783563 1_655
F6 K5 2.850371 1_555
F6 K0 2.850371 1_555
F7 Nd3 2.289994 1_455
F7 K4 2.783563 1_455
F7 K6 2.783563 1_465
F7 K1 2.850371 1_555
F7 K3 2.850371 1_555
F8 Nd0 2.279667 1_555
F8 K7 2.657076 1_655
F8 K2 2.657076 1_655
F8 K4 2.747118 1_555
F8 K6 2.747118 1_565
F9 Nd1 2.279667 1_555
F9 K6 2.657076 1_455
F9 K4 2.657076 1_455
F9 K7 2.747118 1_545
F9 K2 2.747118 1_555
F10 Nd2 2.279667 1_555
F10 K5 2.657076 1_555
F10 K0 2.657076 1_555
F10 K1 2.747118 1_556
F10 K3 2.747118 1_546
F11 Nd3 2.279667 1_555
F11 K1 2.657076 1_555
F11 K3 2.657076 1_555
F11 K0 2.747118 1_554
F11 K5 2.747118 1_564
F12 Nd0 2.353334 1_545
F12 Nd1 2.361987 1_555
F12 K7 2.706447 1_645
F12 K5 2.758939 1_555
F13 Nd1 2.353334 1_565
F13 Nd0 2.361987 1_555
F13 K6 2.706447 1_465
F13 K3 2.758939 1_555
F14 Nd2 2.353334 1_565
F14 Nd3 2.361987 1_456
F14 K5 2.706447 1_565
F14 K7 2.758939 1_555
F15 Nd1 2.353334 1_555
F15 Nd0 2.361987 1_555
F15 K4 2.706447 1_455
F15 K1 2.758939 1_555
F16 Nd3 2.353334 1_545
F16 Nd2 2.361987 1_654
F16 K3 2.706447 1_545
F16 K6 2.758939 1_555
F17 Nd0 2.353334 1_555
F17 Nd1 2.361987 1_555
F17 K2 2.706447 1_655
F17 K0 2.758939 1_555
F18 Nd3 2.353334 1_555
F18 Nd2 2.361987 1_654
F18 K1 2.706447 1_555
F18 K4 2.758939 1_555
F19 Nd2 2.353334 1_555
F19 Nd3 2.361987 1_456
F19 K0 2.706447 1_555
F19 K2 2.758939 1_555
