# generated using pymatgen
data_GePb2(SeO3)4
_symmetry_space_group_name_H-M   'P 1'
_cell_length_a   6.76755500
_cell_length_b   9.15032000
_cell_length_c   9.47691140
_cell_angle_alpha   83.52957699
_cell_angle_beta   90.00000000
_cell_angle_gamma   90.00000000
_symmetry_Int_Tables_number   1
_chemical_formula_structural   GePb2(SeO3)4
_chemical_formula_sum   'Ge2 Pb4 Se8 O24'
_cell_volume   583.12231634
_cell_formula_units_Z   2
loop_
 _symmetry_equiv_pos_site_id
 _symmetry_equiv_pos_as_xyz
  1  'x, y, z'
loop_
 _atom_site_type_symbol
 _atom_site_label
 _atom_site_symmetry_multiplicity
 _atom_site_fract_x
 _atom_site_fract_y
 _atom_site_fract_z
 _atom_site_occupancy
  Ge  Ge0  1  0.00000000  0.00000000  0.50000000  1
  Ge  Ge1  1  0.50000000  0.00000000  0.00000000  1
  Pb  Pb0  1  0.23674300  0.53736200  0.59633900  1
  Pb  Pb1  1  0.73674300  0.46263800  0.90366100  1
  Pb  Pb2  1  0.76325700  0.46263800  0.40366100  1
  Pb  Pb3  1  0.26325700  0.53736200  0.09633900  1
  Se  Se0  1  0.18813900  0.84006500  0.79427400  1
  Se  Se1  1  0.68813900  0.15993500  0.70572600  1
  Se  Se2  1  0.81186100  0.15993500  0.20572600  1
  Se  Se3  1  0.31186100  0.84006500  0.29427400  1
  Se  Se4  1  0.18737500  0.23839100  0.86881600  1
  Se  Se5  1  0.68737500  0.76160900  0.63118400  1
  Se  Se6  1  0.81262500  0.76160900  0.13118400  1
  Se  Se7  1  0.31262500  0.23839100  0.36881600  1
  O  O0  1  0.38141800  0.96711000  0.82330800  1
  O  O1  1  0.88141800  0.03289000  0.67669200  1
  O  O2  1  0.61858200  0.03289000  0.17669200  1
  O  O3  1  0.11858200  0.96711000  0.32330800  1
  O  O4  1  0.19275100  0.87117200  0.60671100  1
  O  O5  1  0.69275100  0.12882800  0.89328900  1
  O  O6  1  0.80724900  0.12882800  0.39328900  1
  O  O7  1  0.30724900  0.87117200  0.10671100  1
  O  O8  1  0.30856500  0.67587700  0.81340200  1
  O  O9  1  0.80856500  0.32412300  0.68659800  1
  O  O10  1  0.69143500  0.32412300  0.18659800  1
  O  O11  1  0.19143500  0.67587700  0.31340200  1
  O  O12  1  0.36059700  0.34669500  0.77471800  1
  O  O13  1  0.86059700  0.65330500  0.72528200  1
  O  O14  1  0.63940300  0.65330500  0.22528200  1
  O  O15  1  0.13940300  0.34669500  0.27471800  1
  O  O16  1  0.06053100  0.37051800  0.95230700  1
  O  O17  1  0.56053100  0.62948200  0.54769300  1
  O  O18  1  0.93946900  0.62948200  0.04769300  1
  O  O19  1  0.43946900  0.37051800  0.45230700  1
  O  O20  1  0.33097100  0.16789500  0.01668300  1
  O  O21  1  0.83097100  0.83210500  0.48331700  1
  O  O22  1  0.66902900  0.83210500  0.98331700  1
  O  O23  1  0.16902900  0.16789500  0.51668300  1
loop_
_geom_bond_atom_site_label_1
_geom_bond_atom_site_label_2
_geom_bond_distance
_geom_bond_site_symmetry_2
Ge0 O3 1.911049 1_545
Ge0 O1 1.911049 1_455
Ge0 O23 1.936097 1_555
Ge0 O21 1.936097 1_445
Ge0 O4 1.960927 1_545
Ge0 O6 1.960927 1_455
Ge1 O2 1.911049 1_555
Ge1 O0 1.911049 1_544
Ge1 O22 1.936097 1_544
Ge1 O20 1.936097 1_555
Ge1 O5 1.960927 1_554
Ge1 O7 1.960927 1_545
O0 Se0 1.791688 1_555
O1 Se1 1.791688 1_555
O2 Se2 1.791688 1_555
O3 Se3 1.791688 1_555
O4 Se0 1.768483 1_555
O5 Se1 1.768483 1_555
O6 Se2 1.768483 1_555
O7 Se3 1.768483 1_555
O8 Se0 1.700827 1_555
O8 Pb0 2.581072 1_555
O9 Se1 1.700827 1_555
O9 Pb1 2.581072 1_555
O10 Se2 1.700827 1_555
O10 Pb2 2.581072 1_555
O11 Se3 1.700827 1_555
O11 Pb3 2.581072 1_555
O12 Se4 1.718263 1_555
O12 Pb0 2.437093 1_555
O13 Se5 1.718263 1_555
O13 Pb1 2.437093 1_555
O14 Se6 1.718263 1_555
O14 Pb2 2.437093 1_555
O15 Se7 1.718263 1_555
O15 Pb3 2.437093 1_555
O16 Se4 1.743628 1_555
O16 Pb1 2.374251 1_455
O16 Pb3 2.558485 1_556
O17 Se5 1.743628 1_555
O17 Pb0 2.374251 1_555
O17 Pb2 2.558485 1_555
O18 Se6 1.743628 1_555
O18 Pb3 2.374251 1_655
O18 Pb1 2.558485 1_554
O19 Se7 1.743628 1_555
O19 Pb2 2.374251 1_555
O19 Pb0 2.558485 1_555
O20 Se4 1.766483 1_554
O21 Se5 1.766483 1_555
O22 Se6 1.766483 1_556
O23 Se7 1.766483 1_555
