# generated using pymatgen
data_K4Sn23
_symmetry_space_group_name_H-M   'P 1'
_cell_length_a   12.48734140
_cell_length_b   12.48727832
_cell_length_c   12.48729013
_cell_angle_alpha   90.00000000
_cell_angle_beta   90.00000000
_cell_angle_gamma   90.00000000
_symmetry_Int_Tables_number   1
_chemical_formula_structural   K4Sn23
_chemical_formula_sum   'K8 Sn46'
_cell_volume   1947.17945725
_cell_formula_units_Z   2
loop_
 _symmetry_equiv_pos_site_id
 _symmetry_equiv_pos_as_xyz
  1  'x, y, z'
loop_
 _atom_site_type_symbol
 _atom_site_label
 _atom_site_symmetry_multiplicity
 _atom_site_fract_x
 _atom_site_fract_y
 _atom_site_fract_z
 _atom_site_occupancy
  K  K0  1  -0.00000000  0.25000676  0.50000000  1
  K  K1  1  0.00000000  0.74999324  0.50000000  1
  K  K2  1  0.50000000  -0.00000000  0.75001546  1
  K  K3  1  0.50000000  -0.00000000  0.24998354  1
  K  K4  1  0.74999661  0.50000000  -0.00000000  1
  K  K5  1  0.25000439  0.50000000  -0.00000000  1
  K  K6  1  0.50000000  0.50000000  0.50000000  1
  K  K7  1  -0.00000000  -0.00000000  -0.00000000  1
  Sn  Sn0  1  0.68393476  0.68393653  0.31605339  1
  Sn  Sn1  1  0.31606424  0.68393753  0.68394661  1
  Sn  Sn2  1  0.81606076  0.81606129  0.18392738  1
  Sn  Sn3  1  0.18393824  0.81606129  0.81607262  1
  Sn  Sn4  1  0.81606076  0.18393871  0.81607262  1
  Sn  Sn5  1  0.31606424  0.31606347  0.31605339  1
  Sn  Sn6  1  0.81606076  0.81606129  0.81607262  1
  Sn  Sn7  1  0.31606424  0.68393753  0.31605339  1
  Sn  Sn8  1  0.31606424  0.31606247  0.68394661  1
  Sn  Sn9  1  0.68393476  0.31606347  0.31605339  1
  Sn  Sn10  1  0.18393824  0.18393871  0.81607362  1
  Sn  Sn11  1  0.81606076  0.18393871  0.18392738  1
  Sn  Sn12  1  0.18393924  0.81606129  0.18392638  1
  Sn  Sn13  1  0.68393476  0.68393653  0.68394661  1
  Sn  Sn14  1  0.99999900  0.30792673  0.11754084  1
  Sn  Sn15  1  0.50000000  0.38245325  0.80793867  1
  Sn  Sn16  1  0.49999900  0.61754675  0.19206133  1
  Sn  Sn17  1  0.61754720  0.80792819  0.50000100  1
  Sn  Sn18  1  0.38245180  0.80792819  0.50000000  1
  Sn  Sn19  1  0.19207274  0.50000000  0.61755531  1
  Sn  Sn20  1  0.80792726  0.50000000  0.61755531  1
  Sn  Sn21  1  0.11754824  -0.00000000  0.30791841  1
  Sn  Sn22  1  0.30792808  0.11754871  -0.00000000  1
  Sn  Sn23  1  0.69207092  0.88245129  -0.00000000  1
  Sn  Sn24  1  0.11754824  -0.00000000  0.69208159  1
  Sn  Sn25  1  0.69207092  0.11754971  -0.00000000  1
  Sn  Sn26  1  0.88245176  -0.00000000  0.30791941  1
  Sn  Sn27  1  0.88245176  -0.00000000  0.69208059  1
  Sn  Sn28  1  0.30792808  0.88245129  -0.00000000  1
  Sn  Sn29  1  0.00000000  0.69207327  0.88245916  1
  Sn  Sn30  1  0.00000000  0.30792673  0.88245916  1
  Sn  Sn31  1  0.00000100  0.69207327  0.11754084  1
  Sn  Sn32  1  0.80792726  0.50000000  0.38244469  1
  Sn  Sn33  1  0.19207274  0.50000000  0.38244469  1
  Sn  Sn34  1  0.61754820  0.19207181  0.50000000  1
  Sn  Sn35  1  0.38245280  0.19207181  0.50000000  1
  Sn  Sn36  1  0.50000000  0.61754675  0.80793867  1
  Sn  Sn37  1  0.50000000  0.38245325  0.19206133  1
  Sn  Sn38  1  0.68393576  0.31606347  0.68394661  1
  Sn  Sn39  1  0.18393824  0.18393871  0.18392738  1
  Sn  Sn40  1  0.50000000  0.25000160  -0.00000000  1
  Sn  Sn41  1  0.50000000  0.74999840  -0.00000000  1
  Sn  Sn42  1  0.00000000  0.50000000  0.75001018  1
  Sn  Sn43  1  -0.00000000  0.50000000  0.24998982  1
  Sn  Sn44  1  0.74999753  -0.00000000  0.50000000  1
  Sn  Sn45  1  0.25000247  -0.00000000  0.50000000  1
loop_
_geom_bond_atom_site_label_1
_geom_bond_atom_site_label_2
_geom_bond_distance
_geom_bond_site_symmetry_2
K6 Sn0 3.978358 1_555
K6 Sn13 3.978358 1_555
K6 Sn9 3.978358 1_555
K6 Sn5 3.978365 1_555
K6 Sn38 3.978365 1_555
K6 Sn7 3.978372 1_555
K6 Sn8 3.978372 1_555
K6 Sn1 3.978372 1_555
K6 Sn35 4.115828 1_555
K6 Sn17 4.115828 1_555
K6 Sn34 4.115832 1_555
K6 Sn18 4.115832 1_555
K6 Sn20 4.115869 1_555
K6 Sn19 4.115869 1_555
K6 Sn33 4.115869 1_555
K6 Sn32 4.115869 1_555
K6 Sn37 4.115949 1_555
K6 Sn15 4.115949 1_555
K6 Sn36 4.115949 1_555
K6 Sn16 4.115949 1_555
K7 Sn10 3.978253 1_554
K7 Sn39 3.978260 1_555
K7 Sn3 3.978260 1_544
K7 Sn12 3.978260 1_545
K7 Sn11 3.978267 1_455
K7 Sn6 3.978267 1_444
K7 Sn4 3.978267 1_454
K7 Sn2 3.978267 1_445
K7 Sn24 4.115722 1_554
K7 Sn21 4.115722 1_555
K7 Sn27 4.115733 1_454
K7 Sn26 4.115733 1_455
K7 Sn30 4.115780 1_554
K7 Sn29 4.115780 1_544
K7 Sn14 4.115780 1_455
K7 Sn31 4.115780 1_545
K7 Sn28 4.115849 1_545
K7 Sn22 4.115849 1_555
K7 Sn23 4.115860 1_445
K7 Sn25 4.115865 1_455
Sn0 Sn2 2.857697 1_555
Sn0 Sn16 2.891401 1_555
Sn0 Sn32 2.891412 1_555
Sn0 Sn17 2.891501 1_555
Sn1 Sn3 2.857690 1_555
Sn1 Sn36 2.891405 1_555
Sn1 Sn19 2.891415 1_555
Sn1 Sn18 2.891485 1_555
Sn2 Sn23 2.891300 1_555
Sn2 Sn31 2.891407 1_655
Sn2 Sn26 2.891427 1_565
Sn10 Sn8 2.857697 1_555
Sn10 Sn22 2.891290 1_556
Sn10 Sn30 2.891383 1_555
Sn10 Sn24 2.891423 1_555
Sn11 Sn9 2.857697 1_555
Sn11 Sn25 2.891297 1_555
Sn11 Sn14 2.891387 1_555
Sn11 Sn26 2.891427 1_555
Sn12 Sn7 2.857690 1_555
Sn12 Sn28 2.891284 1_555
Sn12 Sn31 2.891383 1_555
Sn12 Sn21 2.891427 1_565
Sn13 Sn6 2.857697 1_555
Sn13 Sn36 2.891391 1_555
Sn13 Sn20 2.891412 1_555
Sn13 Sn17 2.891481 1_555
Sn14 Sn39 2.891397 1_655
Sn14 Sn43 2.913443 1_655
Sn14 Sn30 2.935533 1_654
Sn15 Sn38 2.891401 1_555
Sn15 Sn8 2.891405 1_555
Sn15 Sn40 2.913340 1_556
Sn15 Sn36 2.935678 1_555
Sn16 Sn7 2.891395 1_555
Sn16 Sn41 2.913340 1_555
Sn16 Sn37 2.935678 1_555
Sn17 Sn44 2.913441 1_565
Sn17 Sn18 2.935717 1_555
Sn18 Sn7 2.891485 1_555
Sn18 Sn45 2.913434 1_565
Sn19 Sn8 2.891415 1_555
Sn19 Sn42 2.913489 1_555
Sn19 Sn33 2.935895 1_555
Sn20 Sn38 2.891405 1_555
Sn20 Sn42 2.913489 1_655
Sn20 Sn32 2.935895 1_555
Sn21 Sn39 2.891417 1_555
Sn21 Sn45 2.913572 1_555
Sn21 Sn26 2.935730 1_455
Sn22 Sn39 2.891300 1_555
Sn22 Sn40 2.913466 1_555
Sn22 Sn28 2.935727 1_545
Sn23 Sn6 2.891300 1_554
Sn23 Sn41 2.913456 1_555
Sn23 Sn25 2.935739 1_565
Sn24 Sn3 2.891417 1_545
Sn24 Sn45 2.913572 1_555
Sn24 Sn27 2.935730 1_455
Sn25 Sn4 2.891297 1_554
Sn25 Sn40 2.913449 1_555
Sn26 Sn44 2.913561 1_555
Sn27 Sn6 2.891427 1_545
Sn27 Sn4 2.891427 1_555
Sn27 Sn44 2.913561 1_555
Sn28 Sn3 2.891300 1_554
Sn28 Sn41 2.913466 1_555
Sn29 Sn3 2.891387 1_555
Sn29 Sn6 2.891397 1_455
Sn29 Sn42 2.913443 1_555
Sn29 Sn31 2.935533 1_556
Sn30 Sn4 2.891397 1_455
Sn30 Sn42 2.913443 1_555
Sn31 Sn43 2.913443 1_555
Sn32 Sn9 2.891412 1_555
Sn32 Sn43 2.913489 1_655
Sn33 Sn5 2.891405 1_555
Sn33 Sn7 2.891415 1_555
Sn33 Sn43 2.913489 1_555
Sn34 Sn9 2.891488 1_555
Sn34 Sn38 2.891491 1_555
Sn34 Sn44 2.913434 1_555
Sn34 Sn35 2.935717 1_555
Sn35 Sn8 2.891488 1_555
Sn35 Sn5 2.891495 1_555
Sn35 Sn45 2.913441 1_555
Sn36 Sn41 2.913340 1_556
Sn37 Sn9 2.891391 1_555
Sn37 Sn5 2.891401 1_555
Sn37 Sn40 2.913340 1_555
Sn38 Sn4 2.857690 1_555
Sn39 Sn5 2.857697 1_555
