# generated using pymatgen
data_BaNiSn3
_symmetry_space_group_name_H-M   'P 1'
_cell_length_a   6.48181381
_cell_length_b   6.48181381
_cell_length_c   6.48181381
_cell_angle_alpha   136.17424326
_cell_angle_beta   136.17424326
_cell_angle_gamma   63.71106718
_symmetry_Int_Tables_number   1
_chemical_formula_structural   BaNiSn3
_chemical_formula_sum   'Ba1 Ni1 Sn3'
_cell_volume   128.86268600
_cell_formula_units_Z   1
loop_
 _symmetry_equiv_pos_site_id
 _symmetry_equiv_pos_as_xyz
  1  'x, y, z'
loop_
 _atom_site_type_symbol
 _atom_site_label
 _atom_site_symmetry_multiplicity
 _atom_site_fract_x
 _atom_site_fract_y
 _atom_site_fract_z
 _atom_site_occupancy
  Ba  Ba0  1  0.00098081  0.00098081  -0.00000000  1
  Ni  Ni0  1  0.65981861  0.65981861  -0.00000000  1
  Sn  Sn0  1  0.25009132  0.75009132  0.50000000  1
  Sn  Sn1  1  0.42731794  0.42731794  -0.00000000  1
  Sn  Sn2  1  0.75009132  0.25009132  0.50000000  1
loop_
_geom_bond_atom_site_label_1
_geom_bond_atom_site_label_2
_geom_bond_distance
_geom_bond_site_symmetry_2
Ba0 Sn1 3.515809 1_545
Ba0 Sn1 3.515809 1_556
Ba0 Sn1 3.515809 1_455
Ba0 Sn1 3.515809 1_444
Ba0 Sn2 3.657240 1_555
Ba0 Sn0 3.657240 1_555
Ba0 Sn0 3.657240 1_544
Ba0 Sn2 3.657240 1_454
Ba0 Sn0 3.671955 1_545
Ba0 Sn2 3.671955 1_455
Ba0 Sn0 3.671955 1_444
Ba0 Sn2 3.671955 1_444
Ba0 Ni0 3.756560 1_445
Ba0 Ni0 3.842125 1_556
Ba0 Ni0 3.842125 1_545
Ba0 Ni0 3.842125 1_455
Ba0 Ni0 3.842125 1_444
Ni0 Sn1 2.560080 1_555
Ni0 Sn0 2.615252 1_554
Ni0 Sn2 2.615252 1_565
Ni0 Sn0 2.615252 1_655
Ni0 Sn2 2.615252 1_554
Sn0 Sn1 3.108003 1_555
Sn0 Sn1 3.108003 1_566
Sn1 Sn2 3.108003 1_555
Sn1 Sn2 3.108003 1_454
