# generated using pymatgen
data_ZnIn2(SeO3)4
_symmetry_space_group_name_H-M   'P 1'
_cell_length_a   4.89608900
_cell_length_b   8.61469100
_cell_length_c   15.71374934
_cell_angle_alpha   69.02400649
_cell_angle_beta   90.00000000
_cell_angle_gamma   90.00000000
_symmetry_Int_Tables_number   1
_chemical_formula_structural   ZnIn2(SeO3)4
_chemical_formula_sum   'Zn2 In4 Se8 O24'
_cell_volume   618.85709384
_cell_formula_units_Z   2
loop_
 _symmetry_equiv_pos_site_id
 _symmetry_equiv_pos_as_xyz
  1  'x, y, z'
loop_
 _atom_site_type_symbol
 _atom_site_label
 _atom_site_symmetry_multiplicity
 _atom_site_fract_x
 _atom_site_fract_y
 _atom_site_fract_z
 _atom_site_occupancy
  Zn  Zn0  1  0.00000000  0.00000000  0.00000000  1
  Zn  Zn1  1  0.50000000  0.00000000  0.50000000  1
  In  In0  1  0.53696100  0.15511100  0.78726200  1
  In  In1  1  0.96303900  0.15511100  0.28726200  1
  In  In2  1  0.46303900  0.84488900  0.21273800  1
  In  In3  1  0.03696100  0.84488900  0.71273800  1
  Se  Se0  1  0.57185800  0.77495200  0.88969700  1
  Se  Se1  1  0.92814200  0.77495200  0.38969700  1
  Se  Se2  1  0.42814200  0.22504800  0.11030300  1
  Se  Se3  1  0.07185800  0.22504800  0.61030300  1
  Se  Se4  1  0.00752900  0.34775200  0.87169600  1
  Se  Se5  1  0.49247100  0.34775200  0.37169600  1
  Se  Se6  1  0.99247100  0.65224800  0.12830400  1
  Se  Se7  1  0.50752900  0.65224800  0.62830400  1
  O  O0  1  0.77087100  0.36371200  0.78705400  1
  O  O1  1  0.72912900  0.36371200  0.28705400  1
  O  O2  1  0.22912900  0.63628800  0.21294600  1
  O  O3  1  0.27087100  0.63628800  0.71294600  1
  O  O4  1  0.82772300  0.70598300  0.83744000  1
  O  O5  1  0.67227700  0.70598300  0.33744000  1
  O  O6  1  0.17227700  0.29401700  0.16256000  1
  O  O7  1  0.32772300  0.29401700  0.66256000  1
  O  O8  1  0.20700500  0.17311400  0.87602800  1
  O  O9  1  0.29299500  0.17311400  0.37602800  1
  O  O10  1  0.79299500  0.82688600  0.12397200  1
  O  O11  1  0.70700500  0.82688600  0.62397200  1
  O  O12  1  0.70830400  0.95039700  0.90536100  1
  O  O13  1  0.79169600  0.95039700  0.40536100  1
  O  O14  1  0.29169600  0.04960300  0.09463900  1
  O  O15  1  0.20830400  0.04960300  0.59463900  1
  O  O16  1  0.36887900  0.90186300  0.79829800  1
  O  O17  1  0.13112100  0.90186300  0.29829800  1
  O  O18  1  0.63112100  0.09813700  0.20170200  1
  O  O19  1  0.86887900  0.09813700  0.70170200  1
  O  O20  1  0.83963400  0.23667300  0.97085000  1
  O  O21  1  0.66036600  0.23667300  0.47085000  1
  O  O22  1  0.16036600  0.76332700  0.02915000  1
  O  O23  1  0.33963400  0.76332700  0.52915000  1
loop_
_geom_bond_atom_site_label_1
_geom_bond_atom_site_label_2
_geom_bond_distance
_geom_bond_site_symmetry_2
In0 O0 2.129957 1_555
In0 O7 2.154624 1_555
In0 O8 2.175856 1_555
In0 O12 2.216900 1_545
In0 O19 2.271979 1_555
In0 O16 2.279485 1_545
In1 O1 2.129957 1_555
In1 O6 2.154624 1_655
In1 O9 2.175856 1_655
In1 O13 2.216900 1_545
In1 O18 2.271979 1_555
In1 O17 2.279485 1_645
In2 O2 2.129957 1_555
In2 O5 2.154624 1_555
In2 O10 2.175856 1_555
In2 O14 2.216900 1_565
In2 O17 2.271979 1_555
In2 O18 2.279485 1_565
In3 O3 2.129957 1_555
In3 O4 2.154624 1_455
In3 O11 2.175856 1_455
In3 O15 2.216900 1_565
In3 O16 2.271979 1_555
In3 O19 2.279485 1_465
O0 Se4 1.731928 1_655
O1 Se5 1.731928 1_555
O2 Se6 1.731928 1_455
O3 Se7 1.731928 1_555
O4 Se0 1.716379 1_555
O5 Se1 1.716379 1_555
O6 Se2 1.716379 1_555
O7 Se3 1.716379 1_555
O8 Se4 1.774412 1_555
O8 Zn0 2.228504 1_556
O9 Se5 1.774412 1_555
O9 Zn1 2.228504 1_555
O10 Se6 1.774412 1_555
O10 Zn0 2.228504 1_665
O11 Se7 1.774412 1_555
O11 Zn1 2.228504 1_565
O12 Se0 1.748590 1_555
O12 Zn0 2.211064 1_666
O13 Se1 1.748590 1_555
O13 Zn1 2.211064 1_565
O14 Se2 1.748590 1_555
O14 Zn0 2.211064 1_555
O15 Se3 1.748590 1_555
O15 Zn1 2.211064 1_555
O16 Se0 1.766770 1_555
O17 Se1 1.766770 1_455
O18 Se2 1.766770 1_555
O19 Se3 1.766770 1_655
O20 Se4 1.718016 1_655
O20 Zn0 2.077169 1_656
O21 Se5 1.718016 1_555
O21 Zn1 2.077169 1_555
O22 Se6 1.718016 1_455
O22 Zn0 2.077169 1_565
O23 Se7 1.718016 1_555
O23 Zn1 2.077169 1_565
