# generated using pymatgen
data_Er2Cu3Si
_symmetry_space_group_name_H-M   'P 1'
_cell_length_a   3.56646900
_cell_length_b   4.12820383
_cell_length_c   7.31438822
_cell_angle_alpha   89.92384176
_cell_angle_beta   90.00000000
_cell_angle_gamma   90.00000000
_symmetry_Int_Tables_number   1
_chemical_formula_structural   Er2Cu3Si
_chemical_formula_sum   'Er2 Cu3 Si1'
_cell_volume   107.69045450
_cell_formula_units_Z   1
loop_
 _symmetry_equiv_pos_site_id
 _symmetry_equiv_pos_as_xyz
  1  'x, y, z'
loop_
 _atom_site_type_symbol
 _atom_site_label
 _atom_site_symmetry_multiplicity
 _atom_site_fract_x
 _atom_site_fract_y
 _atom_site_fract_z
 _atom_site_occupancy
  Er  Er0  1  0.00000000  0.00003300  0.99798900  1
  Er  Er1  1  0.00000000  0.49975800  0.50124500  1
  Cu  Cu0  1  0.50000000  0.49984100  0.83649600  1
  Cu  Cu1  1  0.50000000  0.50009000  0.17349200  1
  Cu  Cu2  1  0.50000000  0.00026300  0.65925700  1
  Si  Si0  1  0.50000000  0.99981600  0.33152200  1
loop_
_geom_bond_atom_site_label_1
_geom_bond_atom_site_label_2
_geom_bond_distance
_geom_bond_site_symmetry_2
Er0 Si0 3.021840 1_446
Er0 Si0 3.021840 1_546
Er1 Si0 2.995954 1_555
Er1 Si0 2.995954 1_455
Er1 Si0 2.997897 1_445
Er1 Si0 2.997897 1_545
Cu0 Cu2 2.437432 1_555
Cu0 Cu2 2.437464 1_565
Cu0 Cu1 2.464921 1_556
Cu0 Er0 2.970855 1_555
Cu0 Er0 2.970855 1_655
Cu0 Er0 2.974136 1_665
Cu0 Er0 2.974136 1_565
Cu0 Er1 3.031995 1_655
Cu0 Er1 3.031995 1_555
Cu1 Si0 2.365360 1_545
Cu1 Si0 2.366068 1_555
Cu1 Er1 2.987813 1_655
Cu1 Er1 2.987813 1_555
Cu1 Er0 3.013355 1_564
Cu1 Er0 3.013355 1_664
Cu1 Er0 3.016013 1_654
Cu1 Er0 3.016013 1_554
Cu2 Si0 2.397184 1_545
Cu2 Er1 2.959947 1_555
Cu2 Er1 2.959947 1_655
Cu2 Er1 2.964993 1_645
Cu2 Er1 2.964993 1_545
Cu2 Er0 3.052623 1_555
Cu2 Er0 3.052623 1_655
