# generated using pymatgen
data_Pr7(S2Cl3)3
_symmetry_space_group_name_H-M   'P 1'
_cell_length_a   6.77543000
_cell_length_b   7.06876800
_cell_length_c   24.68605443
_cell_angle_alpha   82.22902213
_cell_angle_beta   90.00000000
_cell_angle_gamma   90.00000000
_symmetry_Int_Tables_number   1
_chemical_formula_structural   Pr7(S2Cl3)3
_chemical_formula_sum   'Pr14 S12 Cl18'
_cell_volume   1171.45466120
_cell_formula_units_Z   2
loop_
 _symmetry_equiv_pos_site_id
 _symmetry_equiv_pos_as_xyz
  1  'x, y, z'
loop_
 _atom_site_type_symbol
 _atom_site_label
 _atom_site_symmetry_multiplicity
 _atom_site_fract_x
 _atom_site_fract_y
 _atom_site_fract_z
 _atom_site_occupancy
  Pr  Pr0  1  0.69502500  0.37609500  0.35667600  1
  Pr  Pr1  1  0.30497500  0.62390500  0.64332400  1
  Pr  Pr2  1  0.69502500  0.12390500  0.64332400  1
  Pr  Pr3  1  0.30497500  0.87609500  0.35667600  1
  Pr  Pr4  1  0.71650200  0.50764500  0.07847900  1
  Pr  Pr5  1  0.28349800  0.49235500  0.92152100  1
  Pr  Pr6  1  0.71650200  0.99235500  0.92152100  1
  Pr  Pr7  1  0.28349800  0.00764500  0.07847900  1
  Pr  Pr8  1  0.69615700  0.86352500  0.21538600  1
  Pr  Pr9  1  0.30384300  0.13647500  0.78461400  1
  Pr  Pr10  1  0.69615700  0.63647500  0.78461400  1
  Pr  Pr11  1  0.30384300  0.36352500  0.21538600  1
  Pr  Pr12  1  0.71184800  0.75000000  0.50000000  1
  Pr  Pr13  1  0.28815200  0.25000000  0.50000000  1
  S  S0  1  0.46437800  0.92616200  0.57200400  1
  S  S1  1  0.53562200  0.07383800  0.42799600  1
  S  S2  1  0.46437800  0.57383800  0.42799600  1
  S  S3  1  0.53562200  0.42616200  0.57200400  1
  S  S4  1  0.44804700  0.61784700  0.28200300  1
  S  S5  1  0.55195300  0.38215300  0.71799700  1
  S  S6  1  0.44804700  0.88215300  0.71799700  1
  S  S7  1  0.55195300  0.11784700  0.28200300  1
  S  S8  1  0.44640400  0.68857100  0.13936800  1
  S  S9  1  0.55359600  0.31142900  0.86063200  1
  S  S10  1  0.44640400  0.81142900  0.86063200  1
  S  S11  1  0.55359600  0.18857100  0.13936800  1
  Cl  Cl0  1  0.92904900  0.73382000  0.31188900  1
  Cl  Cl1  1  0.07095100  0.26618000  0.68811100  1
  Cl  Cl2  1  0.92904900  0.76618000  0.68811100  1
  Cl  Cl3  1  0.07095100  0.23382000  0.31188900  1
  Cl  Cl4  1  0.95200600  0.43950100  0.44103400  1
  Cl  Cl5  1  0.04799400  0.56049900  0.55896600  1
  Cl  Cl6  1  0.95200600  0.06049900  0.55896600  1
  Cl  Cl7  1  0.04799400  0.93950100  0.44103400  1
  Cl  Cl8  1  0.44439600  0.75000000  0.00000000  1
  Cl  Cl9  1  0.55560400  0.25000000  0.00000000  1
  Cl  Cl10  1  0.89470300  0.87676600  0.05848700  1
  Cl  Cl11  1  0.10529700  0.12323400  0.94151300  1
  Cl  Cl12  1  0.89470300  0.62323400  0.94151300  1
  Cl  Cl13  1  0.10529700  0.37676600  0.05848700  1
  Cl  Cl14  1  0.91200600  0.52901300  0.18132800  1
  Cl  Cl15  1  0.08799400  0.47098700  0.81867200  1
  Cl  Cl16  1  0.91200600  0.97098700  0.81867200  1
  Cl  Cl17  1  0.08799400  0.02901300  0.18132800  1
loop_
_geom_bond_atom_site_label_1
_geom_bond_atom_site_label_2
_geom_bond_distance
_geom_bond_site_symmetry_2
Pr0 S1 2.795340 1_555
Pr0 S2 2.856788 1_555
Pr0 S4 2.875184 1_555
Pr0 S7 2.929196 1_555
Pr1 S0 2.795340 1_555
Pr1 S3 2.856788 1_555
Pr1 S5 2.875184 1_555
Pr1 S6 2.929196 1_555
Pr2 S3 2.795340 1_555
Pr2 S0 2.856788 1_545
Pr2 S6 2.875184 1_545
Pr2 S5 2.929196 1_555
Pr3 S2 2.795340 1_555
Pr3 S1 2.856788 1_565
Pr3 S7 2.875184 1_565
Pr3 S4 2.929196 1_555
Pr4 S11 2.765487 1_555
Pr4 S8 2.786369 1_555
Pr5 S10 2.765487 1_555
Pr5 S9 2.786369 1_555
Pr6 S9 2.765487 1_565
Pr6 S10 2.786369 1_555
Pr7 S8 2.765487 1_545
Pr7 S11 2.786369 1_555
Pr8 S7 2.773158 1_565
Pr8 S4 2.788181 1_555
Pr8 S8 2.922689 1_555
Pr8 S11 2.927087 1_565
Pr9 S6 2.773158 1_545
Pr9 S5 2.788181 1_555
Pr9 S9 2.922689 1_555
Pr9 S10 2.927087 1_545
Pr10 S5 2.773158 1_555
Pr10 S6 2.788181 1_555
Pr10 S10 2.922689 1_555
Pr10 S9 2.927087 1_555
Pr11 S4 2.773158 1_555
Pr11 S7 2.788181 1_555
Pr11 S11 2.922689 1_555
Pr11 S8 2.927087 1_555
Pr12 S0 2.849575 1_555
Pr12 S2 2.849575 1_555
Pr12 S3 2.953800 1_555
Pr12 S1 2.953800 1_565
Pr13 S3 2.849575 1_555
Pr13 S1 2.849575 1_555
Pr13 S0 2.953800 1_545
Pr13 S2 2.953800 1_555
Cl0 Pr8 2.900881 1_555
Cl0 Pr3 3.003672 1_655
Cl0 Pr0 3.061814 1_555
Cl1 Pr9 2.900881 1_555
Cl1 Pr2 3.003672 1_455
Cl1 Pr1 3.061814 1_555
Cl2 Pr10 2.900881 1_555
Cl2 Pr1 3.003672 1_655
Cl2 Pr2 3.061814 1_565
Cl3 Pr11 2.900881 1_555
Cl3 Pr0 3.003672 1_455
Cl3 Pr3 3.061814 1_545
Cl4 Pr0 2.796710 1_555
Cl4 Pr13 2.927986 1_655
Cl4 Pr12 3.232323 1_555
Cl5 Pr1 2.796710 1_555
Cl5 Pr12 2.927986 1_455
Cl5 Pr13 3.232323 1_555
Cl6 Pr2 2.796710 1_555
Cl6 Pr13 2.927986 1_655
Cl6 Pr12 3.232323 1_545
Cl7 Pr3 2.796710 1_555
Cl7 Pr12 2.927986 1_455
Cl7 Pr13 3.232323 1_565
Cl8 Pr6 3.031438 1_554
Cl8 Pr4 3.031438 1_555
Cl8 Pr7 3.035252 1_565
Cl8 Pr5 3.035252 1_554
Cl9 Pr5 3.031438 1_554
Cl9 Pr7 3.031438 1_555
Cl9 Pr6 3.035252 1_544
Cl9 Pr4 3.035252 1_555
Cl10 Pr4 2.856782 1_555
Cl10 Pr7 2.856963 1_665
Cl11 Pr5 2.856782 1_555
Cl11 Pr6 2.856963 1_445
Cl12 Pr6 2.856782 1_555
Cl12 Pr5 2.856963 1_655
Cl13 Pr7 2.856782 1_555
Cl13 Pr4 2.856963 1_455
Cl14 Pr4 2.885714 1_555
Cl14 Pr11 2.976177 1_655
Cl14 Pr8 2.995762 1_555
Cl15 Pr5 2.885714 1_555
Cl15 Pr10 2.976177 1_455
Cl15 Pr9 2.995762 1_555
Cl16 Pr6 2.885714 1_555
Cl16 Pr9 2.976177 1_665
Cl16 Pr10 2.995762 1_555
Cl17 Pr7 2.885714 1_555
Cl17 Pr8 2.976177 1_445
Cl17 Pr11 2.995762 1_555
