# generated using pymatgen
data_Sr2LiPr2Fe2(RuO6)2
_symmetry_space_group_name_H-M   'P 1'
_cell_length_a   5.94039582
_cell_length_b   5.51634557
_cell_length_c   7.93557925
_cell_angle_alpha   91.27276951
_cell_angle_beta   91.21952250
_cell_angle_gamma   88.12425445
_symmetry_Int_Tables_number   1
_chemical_formula_structural   Sr2LiPr2Fe2(RuO6)2
_chemical_formula_sum   'Sr2 Li1 Pr2 Fe2 Ru2 O12'
_cell_volume   259.78473367
_cell_formula_units_Z   1
loop_
 _symmetry_equiv_pos_site_id
 _symmetry_equiv_pos_as_xyz
  1  'x, y, z'
loop_
 _atom_site_type_symbol
 _atom_site_label
 _atom_site_symmetry_multiplicity
 _atom_site_fract_x
 _atom_site_fract_y
 _atom_site_fract_z
 _atom_site_occupancy
  Sr  Sr0  1  0.56340600  0.51205600  0.75351000  1
  Sr  Sr1  1  0.94531400  0.04151600  0.25139900  1
  Li  Li0  1  0.72898900  0.64383400  0.13653800  1
  Pr  Pr0  1  0.06644100  0.98430700  0.74433000  1
  Pr  Pr1  1  0.39895500  0.46490400  0.27974700  1
  Fe  Fe0  1  0.04472800  0.51255100  0.98331100  1
  Fe  Fe1  1  0.50883800  0.99308900  0.50490400  1
  Ru  Ru0  1  0.99002600  0.50228900  0.50288600  1
  Ru  Ru1  1  0.50499600  0.01149300  0.00099000  1
  O  O0  1  0.98933100  0.41340400  0.75040000  1
  O  O1  1  0.47183500  0.07241600  0.75377900  1
  O  O2  1  0.00712600  0.57728800  0.24439000  1
  O  O3  1  0.53194800  0.88934900  0.24879900  1
  O  O4  1  0.20993400  0.20449300  0.46620900  1
  O  O5  1  0.67991300  0.31480700  0.05575700  1
  O  O6  1  0.81252300  0.81204200  0.95277400  1
  O  O7  1  0.28019000  0.70838100  0.53977700  1
  O  O8  1  0.79389200  0.79911500  0.54800800  1
  O  O9  1  0.29802700  0.72151000  0.95591400  1
  O  O10  1  0.21500500  0.21299600  0.04571500  1
  O  O11  1  0.69667400  0.29863500  0.46419800  1
loop_
_geom_bond_atom_site_label_1
_geom_bond_atom_site_label_2
_geom_bond_distance
_geom_bond_site_symmetry_2
Li0 O6 1.831623 1_554
Li0 O2 1.873829 1_655
Li0 O5 1.940424 1_555
Li0 O3 1.971030 1_555
Fe0 O0 1.940248 1_455
Fe0 O9 1.943881 1_555
Fe0 O10 1.976003 1_556
Fe0 O2 2.109844 1_556
Fe0 O6 2.131955 1_455
Fe0 O5 2.540192 1_456
Fe1 O8 2.000582 1_555
Fe1 O1 2.028322 1_565
Fe1 O11 2.086373 1_565
Fe1 O3 2.105187 1_555
Fe1 O4 2.112863 1_565
Fe1 O7 2.136125 1_555
O0 Ru0 2.035103 1_555
O0 Pr0 2.395819 1_645
O0 Sr0 2.571072 1_555
O1 Ru1 2.002190 1_556
O1 Pr0 2.471560 1_545
O1 Sr0 2.502833 1_555
O2 Ru0 2.106823 1_455
O2 Pr1 2.401320 1_555
O2 Sr1 2.574649 1_465
O2 Sr1 2.992012 1_455
O3 Ru1 2.094081 1_565
O3 Pr1 2.514249 1_555
O3 Sr1 2.620458 1_565
O4 Ru0 2.084301 1_455
O4 Pr1 2.405120 1_555
O4 Sr1 2.468900 1_455
O4 Pr0 2.709230 1_545
O5 Ru1 2.032338 1_555
O5 Pr1 2.569247 1_555
O5 Sr1 2.648195 1_555
O5 Sr0 2.722454 1_554
O6 Ru1 2.138625 1_566
O6 Pr0 2.486806 1_655
O6 Sr0 2.715384 1_555
O6 Sr1 2.773618 1_566
O7 Ru0 2.107442 1_455
O7 Pr0 2.532874 1_555
O7 Pr1 2.537020 1_555
O7 Sr0 2.592489 1_555
O8 Ru0 2.008379 1_555
O8 Pr0 2.454037 1_655
O8 Sr0 2.719063 1_555
O8 Sr1 2.906203 1_565
O9 Ru1 2.069552 1_566
O9 Sr0 2.511208 1_555
O9 Pr0 2.587003 1_555
O10 Ru1 2.052374 1_555
O10 Sr1 2.530750 1_455
O10 Pr1 2.544127 1_555
O10 Pr0 2.817689 1_544
O11 Ru0 2.117346 1_555
O11 Pr1 2.440254 1_555
O11 Sr1 2.628231 1_555
O11 Sr0 2.679556 1_555
