# generated using pymatgen
data_NaEuMn4O12
_symmetry_space_group_name_H-M   'P 1'
_cell_length_a   5.25777691
_cell_length_b   5.25777691
_cell_length_c   7.56718875
_cell_angle_alpha   90.00000000
_cell_angle_beta   90.00000000
_cell_angle_gamma   91.98470778
_symmetry_Int_Tables_number   1
_chemical_formula_structural   NaEuMn4O12
_chemical_formula_sum   'Na1 Eu1 Mn4 O12'
_cell_volume   209.06352424
_cell_formula_units_Z   1
loop_
 _symmetry_equiv_pos_site_id
 _symmetry_equiv_pos_as_xyz
  1  'x, y, z'
loop_
 _atom_site_type_symbol
 _atom_site_label
 _atom_site_symmetry_multiplicity
 _atom_site_fract_x
 _atom_site_fract_y
 _atom_site_fract_z
 _atom_site_occupancy
  Na  Na0  1  0.98728547  0.01271453  0.00000000  1
  Eu  Eu0  1  0.51653976  0.48346024  0.50000000  1
  Mn  Mn0  1  0.50332146  0.99396669  0.24289105  1
  Mn  Mn1  1  0.50332146  0.99396669  0.75710895  1
  Mn  Mn2  1  0.00603331  0.49667854  0.75710895  1
  Mn  Mn3  1  0.00603331  0.49667854  0.24289105  1
  O  O0  1  0.30625511  0.30480478  0.25473156  1
  O  O1  1  0.69519522  0.69374489  0.25473156  1
  O  O2  1  0.69519522  0.69374489  0.74526844  1
  O  O3  1  0.30625511  0.30480478  0.74526844  1
  O  O4  1  0.19991397  0.80008603  0.20006031  1
  O  O5  1  0.78945652  0.21054348  0.30954206  1
  O  O6  1  0.78945652  0.21054348  0.69045794  1
  O  O7  1  0.19991397  0.80008603  0.79993969  1
  O  O8  1  0.56315194  0.05052218  0.00000000  1
  O  O9  1  0.44018388  0.94629007  0.50000000  1
  O  O10  1  0.94947782  0.43684806  0.00000000  1
  O  O11  1  0.05370993  0.55981612  0.50000000  1
loop_
_geom_bond_atom_site_label_1
_geom_bond_atom_site_label_2
_geom_bond_distance
_geom_bond_site_symmetry_2
Na0 O4 2.208638 1_645
Na0 O7 2.208638 1_644
Na0 O8 2.245689 1_555
Na0 O10 2.245689 1_555
Eu0 O1 2.340413 1_555
Eu0 O0 2.340413 1_555
Eu0 O2 2.340413 1_555
Eu0 O3 2.340413 1_555
Eu0 O11 2.480030 1_555
Eu0 O9 2.480030 1_555
Eu0 O5 2.517508 1_555
Eu0 O6 2.517508 1_555
Eu0 O11 2.838912 1_655
Eu0 O9 2.838912 1_545
Mn0 O8 1.886572 1_565
Mn0 O4 1.891128 1_555
Mn0 O1 1.904659 1_555
Mn0 O5 1.922423 1_565
Mn0 O0 1.967201 1_565
Mn0 O9 1.988115 1_555
Mn1 O8 1.886572 1_566
Mn1 O7 1.891128 1_555
Mn1 O2 1.904659 1_555
Mn1 O6 1.922423 1_565
Mn1 O3 1.967201 1_565
Mn1 O9 1.988115 1_555
Mn2 O10 1.886572 1_456
Mn2 O7 1.891128 1_555
Mn2 O3 1.904659 1_555
Mn2 O6 1.922423 1_455
Mn2 O2 1.967201 1_455
Mn2 O11 1.988115 1_555
Mn3 O10 1.886572 1_455
Mn3 O4 1.891128 1_555
Mn3 O0 1.904659 1_555
Mn3 O5 1.922423 1_455
Mn3 O1 1.967201 1_455
Mn3 O11 1.988115 1_555
