# generated using pymatgen
data_MgNiGe
_symmetry_space_group_name_H-M   'P 1'
_cell_length_a   6.47975500
_cell_length_b   4.10650400
_cell_length_c   6.93888100
_cell_angle_alpha   90.00000000
_cell_angle_beta   90.00000000
_cell_angle_gamma   90.00000000
_symmetry_Int_Tables_number   1
_chemical_formula_structural   MgNiGe
_chemical_formula_sum   'Mg4 Ni4 Ge4'
_cell_volume   184.63765477
_cell_formula_units_Z   4
loop_
 _symmetry_equiv_pos_site_id
 _symmetry_equiv_pos_as_xyz
  1  'x, y, z'
loop_
 _atom_site_type_symbol
 _atom_site_label
 _atom_site_symmetry_multiplicity
 _atom_site_fract_x
 _atom_site_fract_y
 _atom_site_fract_z
 _atom_site_occupancy
  Mg  Mg0  1  0.00237200  0.25000000  0.31227900  1
  Mg  Mg1  1  0.50237200  0.25000000  0.18772100  1
  Mg  Mg2  1  0.99762800  0.75000000  0.68772100  1
  Mg  Mg3  1  0.49762800  0.75000000  0.81227900  1
  Ni  Ni0  1  0.34584800  0.25000000  0.55438200  1
  Ni  Ni1  1  0.84584800  0.25000000  0.94561800  1
  Ni  Ni2  1  0.65415200  0.75000000  0.44561800  1
  Ni  Ni3  1  0.15415200  0.75000000  0.05438200  1
  Ge  Ge0  1  0.21028700  0.25000000  0.88165700  1
  Ge  Ge1  1  0.71028700  0.25000000  0.61834300  1
  Ge  Ge2  1  0.78971300  0.75000000  0.11834300  1
  Ge  Ge3  1  0.28971300  0.75000000  0.38165700  1
loop_
_geom_bond_atom_site_label_1
_geom_bond_atom_site_label_2
_geom_bond_distance
_geom_bond_site_symmetry_2
Mg0 Ni1 2.738926 1_454
Mg0 Ni0 2.788480 1_555
Mg0 Ni3 2.895769 1_545
Mg0 Ni3 2.895769 1_555
Mg1 Ni0 2.738926 1_555
Mg1 Ni1 2.788480 1_554
Mg1 Ni2 2.895769 1_555
Mg1 Ni2 2.895769 1_545
Mg2 Ni3 2.738926 1_656
Mg2 Ni2 2.788480 1_555
Mg2 Ni1 2.895769 1_565
Mg2 Ni1 2.895769 1_555
Mg3 Ni2 2.738926 1_555
Mg3 Ni3 2.788480 1_556
Mg3 Ni0 2.895769 1_555
Mg3 Ni0 2.895769 1_565
Ge0 Ni1 2.402819 1_455
Ge0 Ni3 2.405119 1_546
Ge0 Ni3 2.405119 1_556
Ge0 Ni0 2.434888 1_555
Ge0 Mg3 2.813230 1_545
Ge0 Mg3 2.813230 1_555
Ge0 Mg2 2.815239 1_455
Ge0 Mg2 2.815239 1_445
Ge0 Mg1 2.844708 1_556
Ge1 Ni0 2.402819 1_555
Ge1 Ni2 2.405119 1_555
Ge1 Ni2 2.405119 1_545
Ge1 Ni1 2.434888 1_555
Ge1 Mg2 2.813230 1_545
Ge1 Mg2 2.813230 1_555
Ge1 Mg3 2.815239 1_545
Ge1 Mg3 2.815239 1_555
Ge1 Mg0 2.844708 1_655
Ge2 Ni3 2.402819 1_655
Ge2 Ni1 2.405119 1_554
Ge2 Ni1 2.405119 1_564
Ge2 Ni2 2.434888 1_555
Ge2 Mg1 2.813230 1_565
Ge2 Mg1 2.813230 1_555
Ge2 Mg0 2.815239 1_655
Ge2 Mg0 2.815239 1_665
Ge2 Mg3 2.844708 1_554
Ge3 Ni2 2.402819 1_555
Ge3 Ni0 2.405119 1_555
Ge3 Ni0 2.405119 1_565
Ge3 Ni3 2.434888 1_555
Ge3 Mg0 2.813230 1_555
Ge3 Mg0 2.813230 1_565
Ge3 Mg1 2.815239 1_565
Ge3 Mg1 2.815239 1_555
Ge3 Mg2 2.844708 1_455
