# generated using pymatgen
data_Lu3BC3
_symmetry_space_group_name_H-M   'P 1'
_cell_length_a   3.51746443
_cell_length_b   3.51746336
_cell_length_c   15.65073935
_cell_angle_alpha   90.00000000
_cell_angle_beta   90.00000000
_cell_angle_gamma   90.34794219
_symmetry_Int_Tables_number   1
_chemical_formula_structural   Lu3BC3
_chemical_formula_sum   'Lu6 B2 C6'
_cell_volume   193.63601985
_cell_formula_units_Z   2
loop_
 _symmetry_equiv_pos_site_id
 _symmetry_equiv_pos_as_xyz
  1  'x, y, z'
loop_
 _atom_site_type_symbol
 _atom_site_label
 _atom_site_symmetry_multiplicity
 _atom_site_fract_x
 _atom_site_fract_y
 _atom_site_fract_z
 _atom_site_occupancy
  Lu  Lu0  1  0.58322523  0.41677477  0.89539191  1
  Lu  Lu1  1  0.41677477  0.58322523  0.39539191  1
  Lu  Lu2  1  0.41677477  0.58322523  0.10460809  1
  Lu  Lu3  1  0.58322523  0.41677477  0.60460809  1
  Lu  Lu4  1  0.91045610  0.08954390  0.25000000  1
  Lu  Lu5  1  0.08954390  0.91045610  0.75000000  1
  B  B0  1  -0.00000000  0.00000000  0.00000000  1
  B  B1  1  -0.00000000  0.00000000  0.50000000  1
  C  C0  1  0.09530470  0.90469530  0.91248170  1
  C  C1  1  0.90469530  0.09530470  0.41248170  1
  C  C2  1  0.90469530  0.09530470  0.08751830  1
  C  C3  1  0.09530470  0.90469530  0.58751830  1
  C  C4  1  0.59755359  0.40244641  0.75000000  1
  C  C5  1  0.40244641  0.59755359  0.25000000  1
loop_
_geom_bond_atom_site_label_1
_geom_bond_atom_site_label_2
_geom_bond_distance
_geom_bond_site_symmetry_2
B0 C2 1.449922 1_455
B0 C0 1.449922 1_544
B0 Lu0 2.646651 1_454
B0 Lu2 2.646651 1_545
B1 C3 1.449922 1_545
B1 C1 1.449922 1_455
B1 Lu1 2.646651 1_545
B1 Lu3 2.646651 1_455
C0 Lu0 2.449141 1_555
C0 Lu0 2.494771 1_565
C0 Lu0 2.494771 1_455
C0 Lu5 2.543121 1_555
C0 Lu0 2.568996 1_465
C1 Lu1 2.449141 1_555
C1 Lu1 2.494771 1_545
C1 Lu1 2.494771 1_655
C1 Lu4 2.543121 1_555
C1 Lu1 2.568996 1_645
C2 Lu2 2.449141 1_555
C2 Lu2 2.494771 1_545
C2 Lu2 2.494771 1_655
C2 Lu4 2.543121 1_555
C2 Lu2 2.568996 1_645
C3 Lu3 2.449141 1_555
C3 Lu3 2.494771 1_565
C3 Lu3 2.494771 1_455
C3 Lu5 2.543121 1_555
C3 Lu3 2.568996 1_465
C4 Lu3 2.276614 1_555
C4 Lu0 2.276614 1_555
C4 Lu5 2.454799 1_645
C4 Lu5 2.479981 1_655
C4 Lu5 2.479981 1_545
C4 Lu5 2.534728 1_555
C5 Lu1 2.276614 1_555
C5 Lu2 2.276614 1_555
C5 Lu4 2.454799 1_465
C5 Lu4 2.479981 1_455
C5 Lu4 2.479981 1_565
C5 Lu4 2.534728 1_555
