# generated using pymatgen
data_LiMg6BO7
_symmetry_space_group_name_H-M   'P 1'
_cell_length_a   9.11191451
_cell_length_b   4.12021328
_cell_length_c   4.12021328
_cell_angle_alpha   90.00000000
_cell_angle_beta   90.00000000
_cell_angle_gamma   90.00000000
_symmetry_Int_Tables_number   1
_chemical_formula_structural   LiMg6BO7
_chemical_formula_sum   'Li1 Mg6 B1 O7'
_cell_volume   154.68529560
_cell_formula_units_Z   1
loop_
 _symmetry_equiv_pos_site_id
 _symmetry_equiv_pos_as_xyz
  1  'x, y, z'
loop_
 _atom_site_type_symbol
 _atom_site_label
 _atom_site_symmetry_multiplicity
 _atom_site_fract_x
 _atom_site_fract_y
 _atom_site_fract_z
 _atom_site_occupancy
  Li  Li0  1  0.97834924  0.00000000  -0.00000000  1
  Mg  Mg0  1  0.52186704  -0.00000000  -0.00000000  1
  Mg  Mg1  1  0.48271905  0.50000000  0.50000000  1
  Mg  Mg2  1  0.21543174  0.00000000  0.50000000  1
  Mg  Mg3  1  0.76145639  -0.00000000  0.50000000  1
  Mg  Mg4  1  0.21543174  0.50000000  0.00000000  1
  Mg  Mg5  1  0.76145639  0.50000000  -0.00000000  1
  B  B0  1  0.95371207  0.50000000  0.50000000  1
  O  O0  1  0.75281079  0.00000000  0.00000000  1
  O  O1  1  0.26241526  0.50000000  0.50000000  1
  O  O2  1  0.80195494  0.50000000  0.50000000  1
  O  O3  1  0.99321525  0.00000000  0.50000000  1
  O  O4  1  0.52798242  -0.00000000  0.50000000  1
  O  O5  1  0.99321525  0.50000000  0.00000000  1
  O  O6  1  0.52798242  0.50000000  0.00000000  1
loop_
_geom_bond_atom_site_label_1
_geom_bond_atom_site_label_2
_geom_bond_distance
_geom_bond_site_symmetry_2
Li0 O0 2.055087 1_555
Li0 O5 2.064555 1_555
Li0 O3 2.064555 1_555
Li0 O3 2.064555 1_554
Li0 O5 2.064555 1_545
Mg0 O4 2.060860 1_554
Mg0 O4 2.060860 1_555
Mg0 O6 2.060860 1_545
Mg0 O6 2.060860 1_555
Mg0 O0 2.104340 1_555
Mg1 O1 2.007389 1_555
Mg1 O6 2.100986 1_556
Mg1 O6 2.100986 1_555
Mg1 O4 2.100986 1_555
Mg1 O4 2.100986 1_565
Mg2 O3 2.024818 1_455
Mg2 O1 2.104119 1_555
Mg2 O1 2.104119 1_545
Mg3 O0 2.061612 1_555
Mg3 O0 2.061612 1_556
Mg3 O2 2.092896 1_545
Mg3 O2 2.092896 1_555
Mg3 O3 2.111767 1_555
Mg3 O4 2.127395 1_555
Mg4 O5 2.024818 1_455
Mg4 O1 2.104119 1_555
Mg4 O1 2.104119 1_554
Mg5 O0 2.061612 1_565
Mg5 O0 2.061612 1_555
Mg5 O2 2.092896 1_554
Mg5 O2 2.092896 1_555
Mg5 O5 2.111767 1_555
Mg5 O6 2.127395 1_555
B0 O2 1.382798 1_555
B0 O3 2.091316 1_565
B0 O5 2.091316 1_556
B0 O5 2.091316 1_555
B0 O3 2.091316 1_555
