# generated using pymatgen
data_VNiO3
_symmetry_space_group_name_H-M   'P 1'
_cell_length_a   5.05120547
_cell_length_b   5.49832553
_cell_length_c   5.04052953
_cell_angle_alpha   118.06656685
_cell_angle_beta   119.57519493
_cell_angle_gamma   62.62751991
_symmetry_Int_Tables_number   1
_chemical_formula_structural   VNiO3
_chemical_formula_sum   'V2 Ni2 O6'
_cell_volume   102.60262241
_cell_formula_units_Z   2
loop_
 _symmetry_equiv_pos_site_id
 _symmetry_equiv_pos_as_xyz
  1  'x, y, z'
loop_
 _atom_site_type_symbol
 _atom_site_label
 _atom_site_symmetry_multiplicity
 _atom_site_fract_x
 _atom_site_fract_y
 _atom_site_fract_z
 _atom_site_occupancy
  V  V0  1  0.64967300  0.05300700  0.34400200  1
  V  V1  1  0.34930900  0.94152700  0.64725100  1
  Ni  Ni0  1  0.84835000  0.44983300  0.14887200  1
  Ni  Ni1  1  0.14648100  0.56542300  0.85415600  1
  O  O0  1  0.28312000  0.23734500  0.07878600  1
  O  O1  1  0.74925800  0.75848100  0.95918600  1
  O  O2  1  0.44890500  0.76079800  0.25455400  1
  O  O3  1  0.55843600  0.23233800  0.71677100  1
  O  O4  1  0.91842700  0.23854600  0.43942900  1
  O  O5  1  0.04804000  0.76270200  0.55699400  1
loop_
_geom_bond_atom_site_label_1
_geom_bond_atom_site_label_2
_geom_bond_distance
_geom_bond_site_symmetry_2
Ni0 O2 2.076013 1_555
Ni0 O1 2.077980 1_554
Ni0 O3 2.080697 1_554
Ni0 O0 2.081058 1_655
Ni0 O4 2.081102 1_555
Ni0 O5 2.103769 1_655
Ni1 O5 1.991250 1_555
Ni1 O2 1.996564 1_556
Ni1 O1 1.998543 1_455
Ni1 O3 2.210959 1_555
Ni1 O4 2.217754 1_455
Ni1 O0 2.240091 1_556
O0 V0 1.829917 1_555
O0 V1 2.092202 1_544
O1 V0 1.973868 1_566
O1 V1 2.012531 1_555
O2 V1 1.957288 1_555
O2 V0 2.044100 1_565
O3 V0 1.846254 1_555
O3 V1 2.110900 1_545
O4 V0 1.811664 1_555
O4 V1 2.142931 1_645
O5 V1 1.939348 1_555
O5 V0 2.067858 1_465
