# generated using pymatgen
data_CeHfMg30O32
_symmetry_space_group_name_H-M   'P 1'
_cell_length_a   8.67576000
_cell_length_b   8.72066500
_cell_length_c   8.72066500
_cell_angle_alpha   90.00000000
_cell_angle_beta   90.00000000
_cell_angle_gamma   90.00000000
_symmetry_Int_Tables_number   1
_chemical_formula_structural   CeHfMg30O32
_chemical_formula_sum   'Ce1 Hf1 Mg30 O32'
_cell_volume   659.79153101
_cell_formula_units_Z   1
loop_
 _symmetry_equiv_pos_site_id
 _symmetry_equiv_pos_as_xyz
  1  'x, y, z'
loop_
 _atom_site_type_symbol
 _atom_site_label
 _atom_site_symmetry_multiplicity
 _atom_site_fract_x
 _atom_site_fract_y
 _atom_site_fract_z
 _atom_site_occupancy
  Ce  Ce0  1  0.00000000  0.00000000  0.00000000  1
  Hf  Hf0  1  0.00000000  0.50000000  0.50000000  1
  Mg  Mg0  1  0.00000000  0.00000000  0.50000000  1
  Mg  Mg1  1  0.00000000  0.50000000  0.00000000  1
  Mg  Mg2  1  0.50000000  0.00000000  0.00000000  1
  Mg  Mg3  1  0.50000000  0.00000000  0.50000000  1
  Mg  Mg4  1  0.50000000  0.50000000  0.00000000  1
  Mg  Mg5  1  0.50000000  0.50000000  0.50000000  1
  Mg  Mg6  1  0.00000000  0.25514400  0.25514400  1
  Mg  Mg7  1  0.00000000  0.25514400  0.74485600  1
  Mg  Mg8  1  0.00000000  0.74485600  0.25514400  1
  Mg  Mg9  1  0.00000000  0.74485600  0.74485600  1
  Mg  Mg10  1  0.50000000  0.25018200  0.25018200  1
  Mg  Mg11  1  0.50000000  0.25018200  0.74981800  1
  Mg  Mg12  1  0.50000000  0.74981800  0.25018200  1
  Mg  Mg13  1  0.50000000  0.74981800  0.74981800  1
  Mg  Mg14  1  0.25767000  0.00000000  0.25683700  1
  Mg  Mg15  1  0.25767000  0.00000000  0.74316300  1
  Mg  Mg16  1  0.25429700  0.50000000  0.24511500  1
  Mg  Mg17  1  0.25429700  0.50000000  0.75488500  1
  Mg  Mg18  1  0.74233000  0.00000000  0.25683700  1
  Mg  Mg19  1  0.74233000  0.00000000  0.74316300  1
  Mg  Mg20  1  0.74570300  0.50000000  0.24511500  1
  Mg  Mg21  1  0.74570300  0.50000000  0.75488500  1
  Mg  Mg22  1  0.25767000  0.25683700  0.00000000  1
  Mg  Mg23  1  0.25429700  0.24511500  0.50000000  1
  Mg  Mg24  1  0.25767000  0.74316300  0.00000000  1
  Mg  Mg25  1  0.25429700  0.75488500  0.50000000  1
  Mg  Mg26  1  0.74233000  0.25683700  0.00000000  1
  Mg  Mg27  1  0.74570300  0.24511500  0.50000000  1
  Mg  Mg28  1  0.74233000  0.74316300  0.00000000  1
  Mg  Mg29  1  0.74570300  0.75488500  0.50000000  1
  O  O0  1  0.26609500  0.00000000  0.00000000  1
  O  O1  1  0.25303700  0.00000000  0.50000000  1
  O  O2  1  0.25303700  0.50000000  0.00000000  1
  O  O3  1  0.24750000  0.50000000  0.50000000  1
  O  O4  1  0.73390500  0.00000000  0.00000000  1
  O  O5  1  0.74696300  0.00000000  0.50000000  1
  O  O6  1  0.74696300  0.50000000  0.00000000  1
  O  O7  1  0.75250100  0.50000000  0.50000000  1
  O  O8  1  0.24941900  0.24975700  0.24975700  1
  O  O9  1  0.24941900  0.24975700  0.75024300  1
  O  O10  1  0.24941900  0.75024300  0.24975700  1
  O  O11  1  0.24941900  0.75024300  0.75024300  1
  O  O12  1  0.75058100  0.24975700  0.24975700  1
  O  O13  1  0.75058100  0.24975700  0.75024300  1
  O  O14  1  0.75058100  0.75024300  0.24975700  1
  O  O15  1  0.75058100  0.75024300  0.75024300  1
  O  O16  1  0.00000000  0.00000000  0.26525800  1
  O  O17  1  0.00000000  0.00000000  0.73474200  1
  O  O18  1  0.00000000  0.50000000  0.24345100  1
  O  O19  1  0.00000000  0.50000000  0.75654900  1
  O  O20  1  0.50000000  0.00000000  0.25268500  1
  O  O21  1  0.50000000  0.00000000  0.74731500  1
  O  O22  1  0.50000000  0.50000000  0.25111800  1
  O  O23  1  0.50000000  0.50000000  0.74888200  1
  O  O24  1  0.00000000  0.26525800  0.00000000  1
  O  O25  1  0.00000000  0.24345100  0.50000000  1
  O  O26  1  0.00000000  0.73474200  0.00000000  1
  O  O27  1  0.00000000  0.75654900  0.50000000  1
  O  O28  1  0.50000000  0.25268500  0.00000000  1
  O  O29  1  0.50000000  0.25111800  0.50000000  1
  O  O30  1  0.50000000  0.74731500  0.00000000  1
  O  O31  1  0.50000000  0.74888200  0.50000000  1
loop_
_geom_bond_atom_site_label_1
_geom_bond_atom_site_label_2
_geom_bond_distance
_geom_bond_site_symmetry_2
Ce0 O0 2.308576 1_555
Ce0 O4 2.308576 1_455
Ce0 O24 2.313226 1_555
Ce0 O16 2.313226 1_555
Ce0 O17 2.313226 1_554
Ce0 O26 2.313226 1_545
Hf0 O7 2.147242 1_455
Hf0 O3 2.147251 1_555
Hf0 O19 2.237278 1_555
Hf0 O27 2.237278 1_555
Hf0 O25 2.237278 1_555
Hf0 O18 2.237278 1_555
Mg0 O17 2.047106 1_555
Mg0 O16 2.047106 1_555
Mg0 O25 2.123055 1_555
Mg0 O27 2.123055 1_545
Mg0 O1 2.195288 1_555
Mg0 O5 2.195288 1_455
Mg1 O24 2.047106 1_555
Mg1 O26 2.047106 1_555
Mg1 O18 2.123055 1_555
Mg1 O19 2.123055 1_554
Mg1 O2 2.195288 1_555
Mg1 O6 2.195288 1_455
Mg2 O4 2.029304 1_555
Mg2 O0 2.029304 1_555
Mg2 O20 2.203581 1_555
Mg2 O28 2.203581 1_555
Mg2 O21 2.203581 1_554
Mg2 O30 2.203581 1_545
Mg3 O5 2.142592 1_555
Mg3 O1 2.142592 1_555
Mg3 O21 2.156751 1_555
Mg3 O20 2.156751 1_555
Mg3 O29 2.189916 1_555
Mg3 O31 2.189916 1_545
Mg4 O6 2.142592 1_555
Mg4 O2 2.142592 1_555
Mg4 O30 2.156751 1_555
Mg4 O28 2.156751 1_555
Mg4 O22 2.189916 1_555
Mg4 O23 2.189916 1_554
Mg5 O23 2.170417 1_555
Mg5 O31 2.170417 1_555
Mg5 O22 2.170417 1_555
Mg5 O29 2.170417 1_555
Mg5 O3 2.190629 1_555
Mg5 O7 2.190638 1_555
Mg6 O25 2.137741 1_555
Mg6 O18 2.137741 1_555
Mg6 O8 2.164919 1_555
Mg6 O12 2.164919 1_455
Mg6 O24 2.226773 1_555
Mg6 O16 2.226773 1_555
Mg7 O25 2.137741 1_555
Mg7 O19 2.137741 1_555
Mg7 O9 2.164919 1_555
Mg7 O13 2.164919 1_455
Mg7 O17 2.226773 1_555
Mg7 O24 2.226773 1_556
Mg8 O18 2.137741 1_555
Mg8 O27 2.137741 1_555
Mg8 O10 2.164919 1_555
Mg8 O14 2.164919 1_455
Mg8 O26 2.226773 1_555
Mg8 O16 2.226773 1_565
Mg9 O19 2.137741 1_555
Mg9 O27 2.137741 1_555
Mg9 O11 2.164919 1_555
Mg9 O15 2.164919 1_455
Mg9 O26 2.226773 1_556
Mg9 O17 2.226773 1_565
Mg10 O12 2.173987 1_555
Mg10 O8 2.173987 1_555
Mg10 O29 2.178594 1_555
Mg10 O22 2.178594 1_555
Mg10 O20 2.181863 1_555
Mg10 O28 2.181863 1_555
Mg11 O13 2.173987 1_555
Mg11 O9 2.173987 1_555
Mg11 O29 2.178594 1_555
Mg11 O23 2.178594 1_555
Mg11 O21 2.181863 1_555
Mg11 O28 2.181863 1_556
Mg12 O14 2.173987 1_555
Mg12 O10 2.173987 1_555
Mg12 O31 2.178594 1_555
Mg12 O22 2.178594 1_555
Mg12 O20 2.181863 1_565
Mg12 O30 2.181863 1_555
Mg13 O15 2.173987 1_555
Mg13 O11 2.173987 1_555
Mg13 O31 2.178594 1_555
Mg13 O23 2.178594 1_555
Mg13 O21 2.181863 1_565
Mg13 O30 2.181863 1_556
Mg14 O20 2.102709 1_555
Mg14 O1 2.120924 1_555
Mg14 O8 2.180098 1_555
Mg14 O10 2.180098 1_545
Mg14 O16 2.236689 1_555
Mg14 O0 2.240982 1_555
Mg15 O21 2.102709 1_555
Mg15 O1 2.120924 1_555
Mg15 O9 2.180098 1_555
Mg15 O11 2.180098 1_545
Mg15 O17 2.236689 1_555
Mg15 O0 2.240982 1_556
Mg16 O22 2.132303 1_555
Mg16 O2 2.137594 1_555
Mg16 O10 2.183071 1_555
Mg16 O8 2.183071 1_555
Mg16 O18 2.206267 1_555
Mg16 O3 2.223549 1_555
Mg17 O23 2.132303 1_555
Mg17 O2 2.137594 1_556
Mg17 O11 2.183071 1_555
Mg17 O9 2.183071 1_555
Mg17 O19 2.206267 1_555
Mg17 O3 2.223549 1_555
Mg18 O20 2.102709 1_555
Mg18 O5 2.120924 1_555
Mg18 O12 2.180098 1_555
Mg18 O14 2.180098 1_545
Mg18 O16 2.236689 1_655
Mg18 O4 2.240982 1_555
Mg19 O21 2.102709 1_555
Mg19 O5 2.120924 1_555
Mg19 O13 2.180098 1_555
Mg19 O15 2.180098 1_545
Mg19 O17 2.236689 1_655
Mg19 O4 2.240982 1_556
Mg20 O22 2.132303 1_555
Mg20 O6 2.137594 1_555
Mg20 O14 2.183071 1_555
Mg20 O12 2.183071 1_555
Mg20 O18 2.206267 1_655
Mg20 O7 2.223549 1_555
Mg21 O23 2.132303 1_555
Mg21 O6 2.137594 1_556
Mg21 O15 2.183071 1_555
Mg21 O13 2.183071 1_555
Mg21 O19 2.206267 1_655
Mg21 O7 2.223549 1_555
Mg22 O28 2.102709 1_555
Mg22 O2 2.120924 1_555
Mg22 O8 2.180098 1_555
Mg22 O9 2.180098 1_554
Mg22 O24 2.236689 1_555
Mg22 O0 2.240982 1_555
Mg23 O29 2.132303 1_555
Mg23 O1 2.137594 1_555
Mg23 O9 2.183071 1_555
Mg23 O8 2.183071 1_555
Mg23 O25 2.206267 1_555
Mg23 O3 2.223549 1_555
Mg24 O30 2.102709 1_555
Mg24 O2 2.120924 1_555
Mg24 O10 2.180098 1_555
Mg24 O11 2.180098 1_554
Mg24 O26 2.236689 1_555
Mg24 O0 2.240982 1_565
Mg25 O31 2.132303 1_555
Mg25 O1 2.137594 1_565
Mg25 O11 2.183071 1_555
Mg25 O10 2.183071 1_555
Mg25 O27 2.206267 1_555
Mg25 O3 2.223549 1_555
Mg26 O28 2.102709 1_555
Mg26 O6 2.120924 1_555
Mg26 O12 2.180098 1_555
Mg26 O13 2.180098 1_554
Mg26 O24 2.236689 1_655
Mg26 O4 2.240982 1_555
Mg27 O29 2.132303 1_555
Mg27 O5 2.137594 1_555
Mg27 O13 2.183071 1_555
Mg27 O12 2.183071 1_555
Mg27 O25 2.206267 1_655
Mg27 O7 2.223549 1_555
Mg28 O30 2.102709 1_555
Mg28 O6 2.120924 1_555
Mg28 O14 2.180098 1_555
Mg28 O15 2.180098 1_554
Mg28 O26 2.236689 1_655
Mg28 O4 2.240982 1_565
Mg29 O31 2.132303 1_555
Mg29 O5 2.137594 1_565
Mg29 O15 2.183071 1_555
Mg29 O14 2.183071 1_555
Mg29 O27 2.206267 1_655
Mg29 O7 2.223549 1_555
