# generated using pymatgen
data_Mn(AlS2)2
_symmetry_space_group_name_H-M   'P 1'
_cell_length_a   12.47060365
_cell_length_b   12.47060365
_cell_length_c   12.47060376
_cell_angle_alpha   16.90685335
_cell_angle_beta   16.90685335
_cell_angle_gamma   16.90685809
_symmetry_Int_Tables_number   1
_chemical_formula_structural   Mn(AlS2)2
_chemical_formula_sum   'Mn1 Al2 S4'
_cell_volume   143.07741475
_cell_formula_units_Z   1
loop_
 _symmetry_equiv_pos_site_id
 _symmetry_equiv_pos_as_xyz
  1  'x, y, z'
loop_
 _atom_site_type_symbol
 _atom_site_label
 _atom_site_symmetry_multiplicity
 _atom_site_fract_x
 _atom_site_fract_y
 _atom_site_fract_z
 _atom_site_occupancy
  Mn  Mn0  1  0.93755000  0.93755000  0.93755000  1
  Al  Al0  1  0.70356700  0.70356700  0.70356700  1
  Al  Al1  1  0.46849000  0.46849000  0.46849000  1
  S  S0  1  0.00495400  0.00495400  0.00495400  1
  S  S1  1  0.82651700  0.82651700  0.82651700  1
  S  S2  1  0.57853000  0.57853000  0.57853000  1
  S  S3  1  0.40759300  0.40759300  0.40759300  1
loop_
_geom_bond_atom_site_label_1
_geom_bond_atom_site_label_2
_geom_bond_distance
_geom_bond_site_symmetry_2
Mn0 S2 2.319038 1_556
Mn0 S2 2.319039 1_655
Mn0 S2 2.319039 1_565
Mn0 S0 2.485110 1_666
Al0 S0 2.422463 1_665
Al0 S0 2.422464 1_656
Al0 S0 2.422464 1_566
Al0 S3 2.525525 1_556
Al0 S3 2.525526 1_565
Al0 S3 2.525526 1_655
Al1 S3 2.245204 1_555
Al1 S1 2.304330 1_554
Al1 S1 2.304330 1_455
Al1 S1 2.304330 1_545
