# generated using pymatgen
data_NaCdFe(PO4)2
_symmetry_space_group_name_H-M   'P 1'
_cell_length_a   6.58548087
_cell_length_b   8.98371219
_cell_length_c   17.78586798
_cell_angle_alpha   91.84635471
_cell_angle_beta   106.23919560
_cell_angle_gamma   107.15380793
_symmetry_Int_Tables_number   1
_chemical_formula_structural   NaCdFe(PO4)2
_chemical_formula_sum   'Na6 Cd6 Fe6 P12 O48'
_cell_volume   957.75196967
_cell_formula_units_Z   6
loop_
 _symmetry_equiv_pos_site_id
 _symmetry_equiv_pos_as_xyz
  1  'x, y, z'
loop_
 _atom_site_type_symbol
 _atom_site_label
 _atom_site_symmetry_multiplicity
 _atom_site_fract_x
 _atom_site_fract_y
 _atom_site_fract_z
 _atom_site_occupancy
  Na  Na0  1  0.99927800  0.49868400  0.75084900  1
  Na  Na1  1  0.00479500  0.50050100  0.24695000  1
  Na  Na2  1  0.49841200  0.50004600  0.75282600  1
  Na  Na3  1  0.76397800  0.01372100  0.99327800  1
  Na  Na4  1  0.75047300  0.01324100  0.49283100  1
  Na  Na5  1  0.74352300  0.73408300  0.13221900  1
  Cd  Cd0  1  0.25331200  0.26267500  0.87080600  1
  Cd  Cd1  1  0.26019900  0.26092400  0.37138100  1
  Cd  Cd2  1  0.14752000  0.38363800  0.03810500  1
  Cd  Cd3  1  0.74446900  0.72947800  0.63269400  1
  Cd  Cd4  1  0.50861900  0.49864200  0.24620900  1
  Cd  Cd5  1  0.86970400  0.63536000  0.45996600  1
  Fe  Fe0  1  0.36331000  0.93163800  0.80953600  1
  Fe  Fe1  1  0.13554200  0.38442600  0.53491100  1
  Fe  Fe2  1  0.35317900  0.93072600  0.30806700  1
  Fe  Fe3  1  0.86883400  0.62332600  0.96825800  1
  Fe  Fe4  1  0.62840100  0.06674800  0.68834900  1
  Fe  Fe5  1  0.63682100  0.06437700  0.18594400  1
  P  P0  1  0.37225300  0.65533300  0.92798100  1
  P  P1  1  0.25293600  0.72166700  0.64396000  1
  P  P2  1  0.13145000  0.14025900  0.67523200  1
  P  P3  1  0.37026300  0.65122300  0.43048400  1
  P  P4  1  0.24750100  0.73292300  0.14143400  1
  P  P5  1  0.13562000  0.13194100  0.17598900  1
  P  P6  1  0.86338700  0.85937800  0.82369700  1
  P  P7  1  0.74554100  0.27740500  0.85613800  1
  P  P8  1  0.63117400  0.34349100  0.57034400  1
  P  P9  1  0.85970300  0.87301300  0.32733000  1
  P  P10  1  0.75075600  0.26920500  0.35663600  1
  P  P11  1  0.63311800  0.34599800  0.06949400  1
  O  O0  1  0.09696900  0.97746800  0.82809000  1
  O  O1  1  0.18180200  0.61617800  0.96748500  1
  O  O2  1  0.04252300  0.74592200  0.58907900  1
  O  O3  1  0.24882400  0.74081900  0.73090000  1
  O  O4  1  0.40651400  0.82408300  0.90239100  1
  O  O5  1  0.09372300  0.98763800  0.32739200  1
  O  O6  1  0.18685600  0.28067100  0.73727700  1
  O  O7  1  0.31249400  0.53122200  0.85684500  1
  O  O8  1  0.11873400  0.19595000  0.59253400  1
  O  O9  1  0.18290200  0.57928700  0.46934200  1
  O  O10  1  0.26602800  0.55257600  0.62861400  1
  O  O11  1  0.03486700  0.73728900  0.07808800  1
  O  O12  1  0.59634000  0.66054300  0.98980400  1
  O  O13  1  0.46717600  0.84149100  0.63336200  1
  O  O14  1  0.21349600  0.75537800  0.22438300  1
  O  O15  1  0.31164900  0.05285500  0.70080600  1
  O  O16  1  0.36050300  0.81003000  0.40015800  1
  O  O17  1  0.68511700  0.94822300  0.79575600  1
  O  O18  1  0.19847200  0.28629300  0.23368900  1
  O  O19  1  0.33913500  0.53139600  0.35976300  1
  O  O20  1  0.53116000  0.15524200  0.86675500  1
  O  O21  1  0.40509700  0.34231200  0.50891100  1
  O  O22  1  0.11792600  0.16062400  0.09092200  1
  O  O23  1  0.28298200  0.56916700  0.14109200  1
  O  O24  1  0.73769100  0.44623000  0.87233900  1
  O  O25  1  0.86625600  0.80902900  0.90620800  1
  O  O26  1  0.59384200  0.68367400  0.49686400  1
  O  O27  1  0.45694500  0.85280000  0.13023500  1
  O  O28  1  0.68554600  0.46384100  0.64215500  1
  O  O29  1  0.80792500  0.71484900  0.76370500  1
  O  O30  1  0.32821600  0.05847400  0.20908300  1
  O  O31  1  0.60633100  0.17536600  0.59421900  1
  O  O32  1  0.66813300  0.94486500  0.28990000  1
  O  O33  1  0.74923300  0.25702300  0.76910300  1
  O  O34  1  0.54492000  0.14627000  0.37209800  1
  O  O35  1  0.41028400  0.32020800  0.00397000  1
  O  O36  1  0.94889100  0.24442100  0.91241400  1
  O  O37  1  0.71473300  0.43136500  0.36145600  1
  O  O38  1  0.81828000  0.38656500  0.52914200  1
  O  O39  1  0.86570100  0.85912000  0.41332000  1
  O  O40  1  0.66159500  0.45643800  0.14288200  1
  O  O41  1  0.81359900  0.71553500  0.27764500  1
  O  O42  1  0.89697300  0.01875900  0.66746900  1
  O  O43  1  0.65025600  0.18409500  0.09467900  1
  O  O44  1  0.77818200  0.24564200  0.27371600  1
  O  O45  1  0.96391800  0.25896000  0.42048400  1
  O  O46  1  0.81942100  0.42118000  0.03068600  1
  O  O47  1  0.90776700  0.01656100  0.17689500  1
loop_
_geom_bond_atom_site_label_1
_geom_bond_atom_site_label_2
_geom_bond_distance
_geom_bond_site_symmetry_2
Na0 O7 2.308271 1_655
Na0 O28 2.334433 1_555
Na0 O33 2.401223 1_555
Na0 O3 2.413620 1_655
Na0 O6 2.642659 1_655
Na0 O29 2.643399 1_555
Na1 O40 2.403370 1_455
Na1 O14 2.409231 1_555
Na1 O19 2.466499 1_555
Na1 O44 2.479514 1_455
Na1 O18 2.640549 1_555
Na1 O41 2.714145 1_455
Na2 O29 2.313243 1_555
Na2 O6 2.330776 1_555
Na2 O24 2.424330 1_555
Na2 O10 2.459190 1_555
Na2 O7 2.536932 1_555
Na2 O28 2.655362 1_555
Na3 O22 2.442256 1_656
Na3 O4 2.526990 1_545
Na3 O25 2.713651 1_545
Na3 O43 2.722117 1_556
Na3 O36 2.744037 1_555
Na3 O20 2.904416 1_555
Na4 O39 2.363587 1_545
Na4 O8 2.603714 1_655
Na4 O16 2.705174 1_545
Na4 O34 2.713969 1_555
Na4 O45 2.805136 1_555
Na4 O31 2.806755 1_555
Na4 O26 2.844060 1_545
Na4 O42 2.977729 1_555
Na5 O11 2.368808 1_655
Na5 O40 2.417105 1_555
Na5 O27 2.419279 1_555
Na5 O12 2.435817 1_554
Na5 O47 2.451833 1_565
Na5 O41 2.517219 1_555
Cd0 O35 2.276368 1_556
Cd0 O36 2.288506 1_455
Cd0 O6 2.311519 1_555
Cd0 O20 2.322865 1_555
Cd0 O7 2.360516 1_555
Cd0 O0 2.466410 1_545
Cd1 O45 2.346011 1_455
Cd1 O19 2.358901 1_555
Cd1 O21 2.365637 1_555
Cd1 O5 2.377068 1_545
Cd1 O34 2.388205 1_555
Cd1 O18 2.397598 1_555
Cd2 O35 2.198780 1_555
Cd2 O22 2.219861 1_555
Cd2 O23 2.222902 1_555
Cd2 O46 2.252333 1_455
Cd2 O36 2.343529 1_454
Cd2 O1 2.458109 1_554
Cd3 O29 2.264729 1_555
Cd3 O2 2.272492 1_655
Cd3 O26 2.311819 1_555
Cd3 O28 2.321635 1_555
Cd3 O13 2.332971 1_555
Cd3 O42 2.480818 1_565
Cd4 O41 2.266362 1_555
Cd4 O23 2.276552 1_555
Cd4 O18 2.297908 1_555
Cd4 O37 2.327426 1_555
Cd4 O40 2.398312 1_555
Cd4 O19 2.612959 1_555
Cd5 O39 2.203719 1_555
Cd5 O9 2.227474 1_655
Cd5 O26 2.243432 1_555
Cd5 O37 2.271486 1_555
Cd5 O2 2.297760 1_655
Cd5 O38 2.566690 1_555
Fe0 O4 1.935004 1_555
Fe0 O3 1.989117 1_555
Fe0 O0 2.023815 1_555
Fe0 O20 2.054774 1_565
Fe0 O17 2.163354 1_555
Fe0 O15 2.242252 1_565
Fe1 O8 1.998577 1_555
Fe1 O10 2.017168 1_555
Fe1 O38 2.068834 1_455
Fe1 O21 2.086181 1_555
Fe1 O45 2.122278 1_455
Fe1 O9 2.129492 1_555
Fe2 O14 1.942003 1_555
Fe2 O16 1.990455 1_555
Fe2 O5 2.032599 1_555
Fe2 O34 2.062112 1_565
Fe2 O30 2.126773 1_565
Fe2 O32 2.155132 1_555
Fe3 O11 2.018858 1_656
Fe3 O25 2.031343 1_555
Fe3 O12 2.051625 1_555
Fe3 O1 2.084725 1_655
Fe3 O24 2.092385 1_555
Fe3 O46 2.149442 1_556
Fe4 O31 1.956789 1_555
Fe4 O33 2.004565 1_555
Fe4 O13 2.050173 1_545
Fe4 O42 2.063692 1_555
Fe4 O15 2.126642 1_555
Fe4 O17 2.211164 1_545
Fe5 O27 1.972774 1_545
Fe5 O43 1.983964 1_555
Fe5 O47 2.000619 1_555
Fe5 O44 2.021042 1_555
Fe5 O32 2.158507 1_545
Fe5 O30 2.169816 1_555
O0 P6 1.569271 1_455
O1 P0 1.561728 1_555
O2 P1 1.534821 1_555
O3 P1 1.558979 1_555
O4 P0 1.567307 1_555
O5 P9 1.580615 1_455
O6 P2 1.534825 1_555
O7 P0 1.539677 1_555
O8 P2 1.556915 1_555
O9 P3 1.566229 1_555
O10 P1 1.566266 1_555
O11 P4 1.544217 1_555
O12 P0 1.561217 1_555
O13 P1 1.565506 1_555
O14 P4 1.568331 1_555
O15 P2 1.581921 1_555
O16 P3 1.553946 1_555
O17 P6 1.585644 1_555
O18 P5 1.574635 1_555
O19 P3 1.556074 1_555
O20 P7 1.575371 1_555
O21 P8 1.578193 1_555
O22 P5 1.520969 1_555
O23 P4 1.556233 1_555
O24 P7 1.553198 1_555
O25 P6 1.546254 1_555
O26 P3 1.548916 1_555
O27 P4 1.546992 1_555
O28 P8 1.534714 1_555
O29 P6 1.539737 1_555
O30 P5 1.578615 1_555
O31 P8 1.556526 1_555
O32 P9 1.577898 1_555
O33 P7 1.560709 1_555
O34 P10 1.574102 1_555
O35 P11 1.546237 1_555
O36 P7 1.544829 1_555
O37 P10 1.546956 1_555
O38 P8 1.564311 1_555
O39 P9 1.528936 1_555
O40 P11 1.546987 1_555
O41 P9 1.546149 1_555
O42 P2 1.572162 1_655
O43 P11 1.561879 1_555
O44 P10 1.550449 1_555
O45 P10 1.568435 1_555
O46 P11 1.566125 1_555
O47 P5 1.556720 1_655
