# generated using pymatgen
data_Pr3Sb4Pt7
_symmetry_space_group_name_H-M   'P 1'
_cell_length_a   4.47560600
_cell_length_b   8.64494157
_cell_length_c   8.67361651
_cell_angle_alpha   70.36912792
_cell_angle_beta   75.04850978
_cell_angle_gamma   74.99775300
_symmetry_Int_Tables_number   1
_chemical_formula_structural   Pr3Sb4Pt7
_chemical_formula_sum   'Pr3 Sb4 Pt7'
_cell_volume   299.87048040
_cell_formula_units_Z   1
loop_
 _symmetry_equiv_pos_site_id
 _symmetry_equiv_pos_as_xyz
  1  'x, y, z'
loop_
 _atom_site_type_symbol
 _atom_site_label
 _atom_site_symmetry_multiplicity
 _atom_site_fract_x
 _atom_site_fract_y
 _atom_site_fract_z
 _atom_site_occupancy
  Pr  Pr0  1  0.83175100  0.67865300  0.65784400  1
  Pr  Pr1  1  0.16824900  0.32134700  0.34215600  1
  Pr  Pr2  1  0.50000000  0.00000000  0.00000000  1
  Sb  Sb0  1  0.62133100  0.60247700  0.15486100  1
  Sb  Sb1  1  0.37866900  0.39752300  0.84513900  1
  Sb  Sb2  1  0.82372700  0.04783800  0.30470800  1
  Sb  Sb3  1  0.17627300  0.95216200  0.69529200  1
  Pt  Pt0  1  0.81378900  0.32307500  0.04934800  1
  Pt  Pt1  1  0.18621100  0.67692500  0.95065300  1
  Pt  Pt2  1  0.99993500  0.72407400  0.27605600  1
  Pt  Pt3  1  0.00006500  0.27592600  0.72394400  1
  Pt  Pt4  1  0.63167800  0.13520300  0.60144100  1
  Pt  Pt5  1  0.36832200  0.86479700  0.39855900  1
  Pt  Pt6  1  0.50000000  0.50000000  0.50000000  1
loop_
_geom_bond_atom_site_label_1
_geom_bond_atom_site_label_2
_geom_bond_distance
_geom_bond_site_symmetry_2
Pr0 Pt2 3.111241 1_555
Pr0 Pt6 3.181376 1_555
Pr0 Pt6 3.181379 1_655
Pr0 Pt5 3.193204 1_555
Pr0 Pt5 3.193207 1_655
Pr0 Pt3 3.246728 1_655
Pr0 Sb3 3.276550 1_555
Pr0 Sb3 3.276553 1_655
Pr0 Sb1 3.294921 1_555
Pr0 Sb1 3.294924 1_655
Pr0 Pt1 3.317880 1_555
Pr0 Pt1 3.317883 1_655
Pr0 Sb2 3.605301 1_565
Pr1 Pt3 3.111241 1_555
Pr1 Pt6 3.181376 1_555
Pr1 Pt6 3.181379 1_455
Pr1 Pt4 3.193204 1_555
Pr1 Pt4 3.193207 1_455
Pr1 Pt2 3.246728 1_455
Pr1 Sb2 3.276550 1_555
Pr1 Sb2 3.276553 1_455
Pr1 Sb0 3.294921 1_555
Pr1 Sb0 3.294924 1_455
Pr1 Pt0 3.317875 1_455
Pr1 Pt0 3.317875 1_555
Pr1 Sb3 3.605301 1_545
Pr2 Sb1 3.196514 1_554
Pr2 Sb0 3.196514 1_545
Pr2 Pt4 3.202248 1_554
Pr2 Pt5 3.202248 1_545
Pr2 Sb3 3.503686 1_644
Pr2 Sb2 3.503686 1_555
Pr2 Sb2 3.503686 1_455
Pr2 Sb3 3.503686 1_544
Pr2 Pt2 3.548692 1_545
Pr2 Pt2 3.548692 1_445
Pr2 Pt3 3.548692 1_654
Pr2 Pt3 3.548692 1_554
Pr2 Pt1 3.619431 1_644
Pr2 Pt1 3.619431 1_544
Pr2 Pt0 3.619432 1_455
Pr2 Pt0 3.619435 1_555
Pt0 Sb2 2.650332 1_555
Pt0 Sb0 2.723074 1_555
Pt0 Sb1 2.776499 1_654
Pt0 Sb1 2.776503 1_554
Pt0 Pt3 2.865341 1_654
Pt1 Sb3 2.650337 1_555
Pt1 Sb1 2.723078 1_555
Pt1 Sb0 2.776496 1_556
Pt1 Sb0 2.776496 1_456
Pt1 Pt2 2.865333 1_456
Pt2 Sb0 2.768589 1_555
Pt2 Sb0 2.768589 1_655
Pt2 Sb2 2.782291 1_565
Pt2 Pt5 2.852771 1_555
Pt2 Pt5 2.852771 1_655
Pt2 Pt6 3.163051 1_555
Pt2 Pt6 3.163051 1_655
Pt3 Sb1 2.768589 1_455
Pt3 Sb1 2.768589 1_555
Pt3 Sb3 2.782291 1_545
Pt3 Pt4 2.852771 1_455
Pt3 Pt4 2.852771 1_555
Pt3 Pt6 3.163051 1_455
Pt3 Pt6 3.163051 1_555
Pt4 Sb3 2.696107 1_645
Pt4 Sb3 2.696107 1_545
Pt4 Sb2 2.786022 1_555
Pt5 Sb2 2.696107 1_465
Pt5 Sb2 2.696107 1_565
Pt5 Sb3 2.786022 1_555
Pt6 Sb0 2.769413 1_555
Pt6 Sb1 2.769413 1_555
