# generated using pymatgen
data_KCaEr2CuS5
_symmetry_space_group_name_H-M   'P 1'
_cell_length_a   7.07648829
_cell_length_b   7.07648829
_cell_length_c   17.10831700
_cell_angle_alpha   90.00000000
_cell_angle_beta   90.00000000
_cell_angle_gamma   147.64408198
_symmetry_Int_Tables_number   1
_chemical_formula_structural   KCaEr2CuS5
_chemical_formula_sum   'K2 Ca2 Er4 Cu2 S10'
_cell_volume   458.50105510
_cell_formula_units_Z   2
loop_
 _symmetry_equiv_pos_site_id
 _symmetry_equiv_pos_as_xyz
  1  'x, y, z'
loop_
 _atom_site_type_symbol
 _atom_site_label
 _atom_site_symmetry_multiplicity
 _atom_site_fract_x
 _atom_site_fract_y
 _atom_site_fract_z
 _atom_site_occupancy
  K  K0  1  0.52399000  0.47601000  0.25000000  1
  K  K1  1  0.47601000  0.52399000  0.75000000  1
  Ca  Ca0  1  0.00000000  0.00000000  0.00000000  1
  Ca  Ca1  1  0.00000000  0.00000000  0.50000000  1
  Er  Er0  1  0.72940600  0.27059400  0.60308200  1
  Er  Er1  1  0.27059400  0.72940600  0.39691800  1
  Er  Er2  1  0.27059400  0.72940600  0.10308200  1
  Er  Er3  1  0.72940600  0.27059400  0.89691800  1
  Cu  Cu0  1  0.79641900  0.20358100  0.25000000  1
  Cu  Cu1  1  0.20358100  0.79641900  0.75000000  1
  S  S0  1  0.64404700  0.35595300  0.04675300  1
  S  S1  1  0.35595300  0.64404700  0.95324700  1
  S  S2  1  0.35595300  0.64404700  0.54675300  1
  S  S3  1  0.64404700  0.35595300  0.45324700  1
  S  S4  1  0.89555700  0.10444300  0.13872800  1
  S  S5  1  0.10444300  0.89555700  0.86127200  1
  S  S6  1  0.10444300  0.89555700  0.63872800  1
  S  S7  1  0.89555700  0.10444300  0.36127200  1
  S  S8  1  0.20148400  0.79851600  0.25000000  1
  S  S9  1  0.79851600  0.20148400  0.75000000  1
loop_
_geom_bond_atom_site_label_1
_geom_bond_atom_site_label_2
_geom_bond_distance
_geom_bond_site_symmetry_2
K0 S8 3.115776 1_545
K0 S8 3.115776 1_655
K0 S7 3.249463 1_565
K0 S7 3.249463 1_455
K0 S4 3.249463 1_455
K0 S4 3.249463 1_565
K1 S9 3.115776 1_565
K1 S9 3.115776 1_455
K1 S5 3.249463 1_545
K1 S6 3.249463 1_545
K1 S5 3.249463 1_655
K1 S6 3.249463 1_655
Ca0 S5 2.765580 1_544
Ca0 S4 2.765580 1_455
Ca0 S0 2.891515 1_445
Ca0 S1 2.891515 1_554
Ca0 S1 2.891515 1_444
Ca0 S0 2.891515 1_555
Ca1 S6 2.765580 1_545
Ca1 S7 2.765580 1_455
Ca1 S3 2.891515 1_445
Ca1 S2 2.891515 1_555
Ca1 S2 2.891515 1_445
Ca1 S3 2.891515 1_555
Er0 S6 2.672916 1_545
Er0 S6 2.672916 1_655
Er0 S9 2.683322 1_555
Er0 S2 2.788348 1_655
Er0 S2 2.788348 1_545
Er0 S3 2.813772 1_555
Er1 S7 2.672916 1_565
Er1 S7 2.672916 1_455
Er1 S8 2.683322 1_555
Er1 S3 2.788348 1_455
Er1 S3 2.788348 1_565
Er1 S2 2.813772 1_555
Er2 S4 2.672916 1_565
Er2 S4 2.672916 1_455
Er2 S8 2.683322 1_555
Er2 S0 2.788348 1_455
Er2 S0 2.788348 1_565
Er2 S1 2.813772 1_554
Er3 S5 2.672916 1_655
Er3 S5 2.672916 1_545
Er3 S9 2.683322 1_555
Er3 S1 2.788348 1_655
Er3 S1 2.788348 1_545
Er3 S0 2.813772 1_556
Cu0 S7 2.332346 1_555
Cu0 S4 2.332346 1_555
Cu0 S8 2.356397 1_655
Cu0 S8 2.356397 1_545
Cu1 S5 2.332346 1_555
Cu1 S6 2.332346 1_555
Cu1 S9 2.356397 1_455
Cu1 S9 2.356397 1_565
