# generated using pymatgen
data_K6Na2Te2PtO26
_symmetry_space_group_name_H-M   'P 1'
_cell_length_a   6.93194000
_cell_length_b   8.03055730
_cell_length_c   11.60734052
_cell_angle_alpha   98.44017127
_cell_angle_beta   107.37362900
_cell_angle_gamma   90.00000000
_symmetry_Int_Tables_number   1
_chemical_formula_structural   K6Na2Te2PtO26
_chemical_formula_sum   'K6 Na2 Te2 Pt1 O26'
_cell_volume   609.33457695
_cell_formula_units_Z   1
loop_
 _symmetry_equiv_pos_site_id
 _symmetry_equiv_pos_as_xyz
  1  'x, y, z'
loop_
 _atom_site_type_symbol
 _atom_site_label
 _atom_site_symmetry_multiplicity
 _atom_site_fract_x
 _atom_site_fract_y
 _atom_site_fract_z
 _atom_site_occupancy
  K  K0  1  0.45841400  0.30192200  0.91682700  1
  K  K1  1  0.54158600  0.69807800  0.08317300  1
  K  K2  1  0.83289100  0.59581800  0.66578300  1
  K  K3  1  0.16710900  0.40418200  0.33421700  1
  K  K4  1  0.29288100  0.07972800  0.58576200  1
  K  K5  1  0.70711900  0.92027200  0.41423800  1
  Na  Na0  1  0.38983900  0.71487300  0.77967800  1
  Na  Na1  1  0.61016100  0.28512700  0.22032200  1
  Te  Te0  1  0.88205900  0.17415200  0.76411800  1
  Te  Te1  1  0.11794100  0.82584800  0.23588200  1
  Pt  Pt0  1  0.00000000  0.00000000  0.00000000  1
  O  O0  1  0.94884700  0.79686300  0.89769500  1
  O  O1  1  0.05115300  0.20313700  0.10230500  1
  O  O2  1  0.12556000  0.09188400  0.88412100  1
  O  O3  1  0.75856100  0.09188400  0.88412100  1
  O  O4  1  0.87444000  0.90811600  0.11587900  1
  O  O5  1  0.24143900  0.90811600  0.11587900  1
  O  O6  1  0.93687400  0.39578300  0.87374700  1
  O  O7  1  0.06312600  0.60421700  0.12625300  1
  O  O8  1  0.82758900  0.96581000  0.65517900  1
  O  O9  1  0.17241100  0.03419000  0.34482100  1
  O  O10  1  0.04420100  0.25557400  0.67290000  1
  O  O11  1  0.62869900  0.25557400  0.67290000  1
  O  O12  1  0.95579900  0.74442600  0.32710000  1
  O  O13  1  0.37130100  0.74442600  0.32710000  1
  O  O14  1  0.18307500  0.54297700  0.83916400  1
  O  O15  1  0.65608900  0.54297700  0.83916400  1
  O  O16  1  0.81692500  0.45702300  0.16083600  1
  O  O17  1  0.34391100  0.45702300  0.16083600  1
  O  O18  1  0.18439300  0.71782400  0.55090000  1
  O  O19  1  0.36650700  0.71782400  0.55090000  1
  O  O20  1  0.81560700  0.28217600  0.44910000  1
  O  O21  1  0.63349300  0.28217600  0.44910000  1
  O  O22  1  0.33981000  0.43952100  0.67961900  1
  O  O23  1  0.66019000  0.56047900  0.32038100  1
  O  O24  1  0.45454600  0.96227100  0.90909200  1
  O  O25  1  0.54545400  0.03772900  0.09090800  1
loop_
_geom_bond_atom_site_label_1
_geom_bond_atom_site_label_2
_geom_bond_distance
_geom_bond_site_symmetry_2
K0 O24 2.715729 1_545
K0 O3 2.757134 1_555
K0 O2 2.757139 1_555
K0 O15 2.772648 1_555
K0 O14 2.772652 1_555
K0 O22 3.003191 1_555
K0 O25 3.078728 1_556
K0 O16 3.241950 1_556
K0 O17 3.241953 1_556
K1 O25 2.715729 1_565
K1 O5 2.757134 1_555
K1 O4 2.757139 1_555
K1 O17 2.772648 1_555
K1 O16 2.772652 1_555
K1 O23 3.003191 1_555
K1 O24 3.078728 1_554
K1 O14 3.241950 1_554
K1 O15 3.241953 1_554
K2 O15 2.730552 1_555
K2 O14 2.730557 1_655
K2 O0 2.816195 1_555
K2 O8 2.991560 1_555
K2 O6 3.004365 1_555
K2 O11 3.100344 1_555
K2 O10 3.100348 1_655
K2 O21 3.262593 1_555
K2 O20 3.262594 1_555
K2 O19 3.316477 1_555
K2 O18 3.316483 1_655
K3 O17 2.730552 1_555
K3 O16 2.730557 1_455
K3 O1 2.816195 1_555
K3 O9 2.991560 1_555
K3 O7 3.004365 1_555
K3 O13 3.100344 1_555
K3 O12 3.100348 1_455
K3 O19 3.262593 1_555
K3 O18 3.262594 1_555
K3 O21 3.316477 1_555
K3 O20 3.316483 1_455
K4 O11 2.571135 1_555
K4 O10 2.571135 1_555
K4 O9 2.637720 1_555
K4 O22 2.916382 1_555
K4 O19 2.940894 1_545
K4 O18 2.940894 1_545
K5 O13 2.571135 1_555
K5 O12 2.571135 1_555
K5 O8 2.637720 1_555
K5 O23 2.916382 1_555
K5 O21 2.940894 1_565
K5 O20 2.940894 1_565
Na0 O24 2.264143 1_555
Na0 O14 2.303782 1_555
Na0 O15 2.303782 1_555
Na0 O22 2.316089 1_555
Na0 O19 2.615416 1_555
Na0 O18 2.615416 1_555
Na1 O25 2.264143 1_555
Na1 O17 2.303782 1_555
Na1 O16 2.303782 1_555
Na1 O23 2.316089 1_555
Na1 O20 2.615416 1_555
Na1 O21 2.615416 1_555
O0 Pt0 1.837632 1_666
O1 Pt0 1.837632 1_555
O2 Te0 2.022827 1_455
O2 Pt0 2.025255 1_556
O3 Te0 2.022827 1_555
O3 Pt0 2.025255 1_656
O4 Te1 2.022827 1_655
O4 Pt0 2.025255 1_665
O5 Te1 2.022827 1_555
O5 Pt0 2.025255 1_565
O6 Te0 1.994441 1_555
O7 Te1 1.994441 1_555
O8 Te0 1.906462 1_565
O9 Te1 1.906462 1_545
O10 Te0 1.930234 1_455
O11 Te0 1.930234 1_555
O12 Te1 1.930234 1_655
O13 Te1 1.930234 1_555
O18 O19 1.262403 1_555
O20 O21 1.262403 1_555
