# generated using pymatgen
data_Bi4Pb(ClO3)2
_symmetry_space_group_name_H-M   'P 1'
_cell_length_a   16.04099605
_cell_length_b   16.04099605
_cell_length_c   16.04099605
_cell_angle_alpha   165.73530724
_cell_angle_beta   165.73530724
_cell_angle_gamma   20.22612011
_symmetry_Int_Tables_number   1
_chemical_formula_structural   Bi4Pb(ClO3)2
_chemical_formula_sum   'Bi4 Pb1 Cl2 O6'
_cell_volume   250.56973730
_cell_formula_units_Z   1
loop_
 _symmetry_equiv_pos_site_id
 _symmetry_equiv_pos_as_xyz
  1  'x, y, z'
loop_
 _atom_site_type_symbol
 _atom_site_label
 _atom_site_symmetry_multiplicity
 _atom_site_fract_x
 _atom_site_fract_y
 _atom_site_fract_z
 _atom_site_occupancy
  Bi  Bi0  1  0.28902100  0.28902100  0.00000000  1
  Bi  Bi1  1  0.71097900  0.71097900  0.00000000  1
  Bi  Bi2  1  0.58552900  0.58552900  0.00000000  1
  Bi  Bi3  1  0.41447100  0.41447100  0.00000000  1
  Pb  Pb0  1  0.00000000  0.00000000  0.00000000  1
  Cl  Cl0  1  0.83414200  0.83414200  0.00000000  1
  Cl  Cl1  1  0.16585800  0.16585800  0.00000000  1
  O  O0  1  0.25000000  0.75000000  0.50000000  1
  O  O1  1  0.75000000  0.25000000  0.50000000  1
  O  O2  1  0.55449500  0.05449500  0.50000000  1
  O  O3  1  0.05449500  0.55449500  0.50000000  1
  O  O4  1  0.44550500  0.94550500  0.50000000  1
  O  O5  1  0.94550500  0.44550500  0.50000000  1
loop_
_geom_bond_atom_site_label_1
_geom_bond_atom_site_label_2
_geom_bond_distance
_geom_bond_site_symmetry_2
Bi0 O1 2.342144 1_454
Bi0 O0 2.342144 1_555
Bi0 O1 2.342144 1_555
Bi0 O0 2.342144 1_544
Bi0 Cl0 3.156645 1_556
Bi0 Cl0 3.156645 1_444
Bi0 Cl0 3.156645 1_545
Bi0 Cl0 3.156645 1_455
Bi1 O0 2.342144 1_554
Bi1 O0 2.342144 1_655
Bi1 O1 2.342144 1_565
Bi1 O1 2.342144 1_554
Bi1 Cl1 3.156645 1_666
Bi1 Cl1 3.156645 1_655
Bi1 Cl1 3.156645 1_565
Bi1 Cl1 3.156645 1_554
Bi2 O3 2.219797 1_655
Bi2 O2 2.219797 1_565
Bi2 O2 2.219797 1_554
Bi2 O3 2.219797 1_554
Bi3 O5 2.219797 1_555
Bi3 O4 2.219797 1_555
Bi3 O4 2.219797 1_544
Bi3 O5 2.219797 1_454
O2 Pb0 2.632322 1_656
O2 Pb0 2.632322 1_555
O3 Pb0 2.632322 1_566
O3 Pb0 2.632322 1_555
O4 Pb0 2.632322 1_666
O4 Pb0 2.632322 1_565
O5 Pb0 2.632322 1_666
O5 Pb0 2.632322 1_655
