# generated using pymatgen
data_Ca8Mn4Al4O21
_symmetry_space_group_name_H-M   'P 1'
_cell_length_a   7.61651700
_cell_length_b   7.61651700
_cell_length_c   7.49037600
_cell_angle_alpha   90.00000000
_cell_angle_beta   90.00000000
_cell_angle_gamma   90.00000000
_symmetry_Int_Tables_number   1
_chemical_formula_structural   Ca8Mn4Al4O21
_chemical_formula_sum   'Ca8 Mn4 Al4 O21'
_cell_volume   434.52668303
_cell_formula_units_Z   1
loop_
 _symmetry_equiv_pos_site_id
 _symmetry_equiv_pos_as_xyz
  1  'x, y, z'
loop_
 _atom_site_type_symbol
 _atom_site_label
 _atom_site_symmetry_multiplicity
 _atom_site_fract_x
 _atom_site_fract_y
 _atom_site_fract_z
 _atom_site_occupancy
  Ca  Ca0  1  0.25633800  0.25633800  0.25000000  1
  Ca  Ca1  1  0.26212500  0.26212500  0.75000000  1
  Ca  Ca2  1  0.25633800  0.74366200  0.25000000  1
  Ca  Ca3  1  0.26212500  0.73787500  0.75000000  1
  Ca  Ca4  1  0.74366200  0.25633800  0.25000000  1
  Ca  Ca5  1  0.73787500  0.26212500  0.75000000  1
  Ca  Ca6  1  0.74366200  0.74366200  0.25000000  1
  Ca  Ca7  1  0.73787500  0.73787500  0.75000000  1
  Mn  Mn0  1  0.00000000  0.50000000  0.00419400  1
  Mn  Mn1  1  0.00000000  0.50000000  0.49580600  1
  Mn  Mn2  1  0.50000000  0.00000000  0.00419400  1
  Mn  Mn3  1  0.50000000  0.00000000  0.49580600  1
  Al  Al0  1  0.00000000  0.00000000  0.99766000  1
  Al  Al1  1  0.00000000  0.00000000  0.50234000  1
  Al  Al2  1  0.50000000  0.50000000  0.98372100  1
  Al  Al3  1  0.50000000  0.50000000  0.51627900  1
  O  O0  1  0.00000000  0.50000000  0.25000000  1
  O  O1  1  0.00000000  0.50000000  0.75000000  1
  O  O2  1  0.50000000  0.00000000  0.25000000  1
  O  O3  1  0.50000000  0.00000000  0.75000000  1
  O  O4  1  0.50000000  0.50000000  0.75000000  1
  O  O5  1  0.23685600  0.00000000  0.99969500  1
  O  O6  1  0.23685600  0.00000000  0.50030500  1
  O  O7  1  0.25963100  0.50000000  0.02034800  1
  O  O8  1  0.25963100  0.50000000  0.47965200  1
  O  O9  1  0.76314400  0.00000000  0.99969500  1
  O  O10  1  0.76314400  0.00000000  0.50030500  1
  O  O11  1  0.74036900  0.50000000  0.02034800  1
  O  O12  1  0.74036900  0.50000000  0.47965200  1
  O  O13  1  0.00000000  0.23685600  0.99969500  1
  O  O14  1  0.00000000  0.23685600  0.50030500  1
  O  O15  1  0.00000000  0.76314400  0.99969500  1
  O  O16  1  0.00000000  0.76314400  0.50030500  1
  O  O17  1  0.50000000  0.25963100  0.02034800  1
  O  O18  1  0.50000000  0.25963100  0.47965200  1
  O  O19  1  0.50000000  0.74036900  0.02034800  1
  O  O20  1  0.50000000  0.74036900  0.47965200  1
loop_
_geom_bond_atom_site_label_1
_geom_bond_atom_site_label_2
_geom_bond_distance
_geom_bond_site_symmetry_2
Ca0 O7 2.530583 1_555
Ca0 O17 2.530583 1_555
Ca0 O8 2.530583 1_555
Ca0 O18 2.530583 1_555
Ca0 O0 2.693711 1_555
Ca0 O2 2.693711 1_555
Ca0 O6 2.710916 1_555
Ca0 O5 2.710916 1_554
Ca0 O13 2.710916 1_554
Ca0 O14 2.710916 1_555
Ca1 O4 2.562242 1_555
Ca1 O3 2.696011 1_555
Ca1 O1 2.696011 1_555
Ca1 O18 2.717271 1_555
Ca1 O8 2.717271 1_555
Ca1 O7 2.717271 1_556
Ca1 O17 2.717271 1_556
Ca1 O13 2.742450 1_555
Ca1 O14 2.742450 1_555
Ca1 O6 2.742450 1_555
Ca1 O5 2.742450 1_555
Ca2 O7 2.530583 1_555
Ca2 O19 2.530583 1_555
Ca2 O20 2.530583 1_555
Ca2 O8 2.530583 1_555
Ca2 O2 2.693711 1_565
Ca2 O0 2.693711 1_555
Ca2 O6 2.710916 1_565
Ca2 O5 2.710916 1_564
Ca2 O15 2.710916 1_554
Ca2 O16 2.710916 1_555
Ca3 O4 2.562242 1_555
Ca3 O1 2.696011 1_555
Ca3 O3 2.696011 1_565
Ca3 O8 2.717271 1_555
Ca3 O20 2.717271 1_555
Ca3 O7 2.717271 1_556
Ca3 O19 2.717271 1_556
Ca3 O15 2.742450 1_555
Ca3 O16 2.742450 1_555
Ca3 O5 2.742450 1_565
Ca3 O6 2.742450 1_565
Ca4 O12 2.530583 1_555
Ca4 O17 2.530583 1_555
Ca4 O11 2.530583 1_555
Ca4 O18 2.530583 1_555
Ca4 O0 2.693711 1_655
Ca4 O2 2.693711 1_555
Ca4 O9 2.710916 1_554
Ca4 O13 2.710916 1_654
Ca4 O14 2.710916 1_655
Ca4 O10 2.710916 1_555
Ca5 O4 2.562242 1_555
Ca5 O3 2.696011 1_555
Ca5 O1 2.696011 1_655
Ca5 O12 2.717271 1_555
Ca5 O17 2.717271 1_556
Ca5 O18 2.717271 1_555
Ca5 O11 2.717271 1_556
Ca5 O10 2.742450 1_555
Ca5 O9 2.742450 1_555
Ca5 O13 2.742450 1_655
Ca5 O14 2.742450 1_655
Ca6 O19 2.530583 1_555
Ca6 O11 2.530583 1_555
Ca6 O12 2.530583 1_555
Ca6 O20 2.530583 1_555
Ca6 O2 2.693711 1_565
Ca6 O0 2.693711 1_655
Ca6 O9 2.710916 1_564
Ca6 O10 2.710916 1_565
Ca6 O15 2.710916 1_654
Ca6 O16 2.710916 1_655
Ca7 O4 2.562242 1_555
Ca7 O3 2.696011 1_565
Ca7 O1 2.696011 1_655
Ca7 O12 2.717271 1_555
Ca7 O20 2.717271 1_555
Ca7 O11 2.717271 1_556
Ca7 O19 2.717271 1_556
Ca7 O10 2.742450 1_565
Ca7 O15 2.742450 1_655
Ca7 O9 2.742450 1_565
Ca7 O16 2.742450 1_655
Mn0 O0 1.841179 1_555
Mn0 O1 1.904009 1_554
Mn0 O11 1.981182 1_455
Mn0 O7 1.981182 1_555
Mn0 O13 2.004524 1_554
Mn0 O15 2.004524 1_554
Mn1 O0 1.841179 1_555
Mn1 O1 1.904009 1_555
Mn1 O12 1.981182 1_455
Mn1 O8 1.981182 1_555
Mn1 O14 2.004524 1_555
Mn1 O16 2.004524 1_555
Mn2 O2 1.841179 1_555
Mn2 O3 1.904009 1_554
Mn2 O19 1.981182 1_545
Mn2 O17 1.981182 1_555
Mn2 O5 2.004524 1_554
Mn2 O9 2.004524 1_554
Mn3 O2 1.841179 1_555
Mn3 O3 1.904009 1_555
Mn3 O20 1.981182 1_545
Mn3 O18 1.981182 1_555
Mn3 O6 2.004524 1_555
Mn3 O10 2.004524 1_555
Al0 O15 1.804082 1_545
Al0 O9 1.804082 1_455
Al0 O5 1.804082 1_555
Al0 O13 1.804082 1_555
Al1 O10 1.804082 1_455
Al1 O16 1.804082 1_545
Al1 O14 1.804082 1_555
Al1 O6 1.804082 1_555
Al2 O4 1.750658 1_555
Al2 O17 1.851217 1_556
Al2 O7 1.851217 1_556
Al2 O19 1.851217 1_556
Al2 O11 1.851217 1_556
Al3 O4 1.750658 1_555
Al3 O8 1.851217 1_555
Al3 O18 1.851217 1_555
Al3 O12 1.851217 1_555
Al3 O20 1.851217 1_555
