# generated using pymatgen
data_MgBiAsO6
_symmetry_space_group_name_H-M   'P 1'
_cell_length_a   5.49568500
_cell_length_b   6.54994300
_cell_length_c   8.04760904
_cell_angle_alpha   73.55110554
_cell_angle_beta   90.00000000
_cell_angle_gamma   90.00000000
_symmetry_Int_Tables_number   1
_chemical_formula_structural   MgBiAsO6
_chemical_formula_sum   'Mg2 Bi2 As2 O12'
_cell_volume   277.82910768
_cell_formula_units_Z   2
loop_
 _symmetry_equiv_pos_site_id
 _symmetry_equiv_pos_as_xyz
  1  'x, y, z'
loop_
 _atom_site_type_symbol
 _atom_site_label
 _atom_site_symmetry_multiplicity
 _atom_site_fract_x
 _atom_site_fract_y
 _atom_site_fract_z
 _atom_site_occupancy
  Mg  Mg0  1  0.75000000  0.11876900  0.08162300  1
  Mg  Mg1  1  0.25000000  0.88123100  0.91837700  1
  Bi  Bi0  1  0.25000000  0.19209400  0.46707300  1
  Bi  Bi1  1  0.75000000  0.80790600  0.53292700  1
  As  As0  1  0.25000000  0.36979200  0.83023900  1
  As  As1  1  0.75000000  0.63020800  0.16976100  1
  O  O0  1  0.98644600  0.80861600  0.10866200  1
  O  O1  1  0.25000000  0.46274600  0.60411600  1
  O  O2  1  0.04024100  0.96083300  0.67336000  1
  O  O3  1  0.25000000  0.57406100  0.91660300  1
  O  O4  1  0.48644600  0.19138400  0.89133800  1
  O  O5  1  0.95975900  0.03916700  0.32664000  1
  O  O6  1  0.45975900  0.96083300  0.67336000  1
  O  O7  1  0.75000000  0.42593900  0.08339700  1
  O  O8  1  0.54024100  0.03916700  0.32664000  1
  O  O9  1  0.51355400  0.80861600  0.10866200  1
  O  O10  1  0.01355400  0.19138400  0.89133800  1
  O  O11  1  0.75000000  0.53725400  0.39588400  1
loop_
_geom_bond_atom_site_label_1
_geom_bond_atom_site_label_2
_geom_bond_distance
_geom_bond_site_symmetry_2
Mg0 O7 2.016035 1_555
Mg0 O4 2.063161 1_554
Mg0 O10 2.063161 1_654
Mg0 O5 2.215063 1_555
Mg0 O8 2.215063 1_555
Mg0 O0 2.369064 1_545
Mg0 O9 2.369064 1_545
Mg1 O3 2.016035 1_555
Mg1 O9 2.063161 1_556
Mg1 O0 2.063161 1_456
Mg1 O2 2.215063 1_555
Mg1 O6 2.215063 1_555
Mg1 O4 2.369064 1_565
Mg1 O10 2.369064 1_565
Bi0 O2 2.226033 1_545
Bi0 O6 2.226033 1_545
Bi0 O8 2.337930 1_555
Bi0 O5 2.337930 1_455
Bi0 O1 2.337991 1_555
Bi1 O5 2.226033 1_565
Bi1 O8 2.226033 1_565
Bi1 O2 2.337930 1_655
Bi1 O6 2.337930 1_555
Bi1 O11 2.337991 1_555
As0 O3 1.673259 1_555
As0 O10 1.723495 1_555
As0 O4 1.723495 1_555
As0 O1 1.747778 1_555
As1 O7 1.673259 1_555
As1 O0 1.723495 1_555
As1 O9 1.723495 1_555
As1 O11 1.747778 1_555
