# generated using pymatgen
data_CaMg14TiO16
_symmetry_space_group_name_H-M   'P 1'
_cell_length_a   4.31476000
_cell_length_b   8.63574000
_cell_length_c   8.65349600
_cell_angle_alpha   90.00000000
_cell_angle_beta   90.00000000
_cell_angle_gamma   90.00000000
_symmetry_Int_Tables_number   1
_chemical_formula_structural   CaMg14TiO16
_chemical_formula_sum   'Ca1 Mg14 Ti1 O16'
_cell_volume   322.43917373
_cell_formula_units_Z   1
loop_
 _symmetry_equiv_pos_site_id
 _symmetry_equiv_pos_as_xyz
  1  'x, y, z'
loop_
 _atom_site_type_symbol
 _atom_site_label
 _atom_site_symmetry_multiplicity
 _atom_site_fract_x
 _atom_site_fract_y
 _atom_site_fract_z
 _atom_site_occupancy
  Ca  Ca0  1  0.00000000  0.00000000  0.00000000  1
  Mg  Mg0  1  0.00000000  0.50000000  0.00000000  1
  Mg  Mg1  1  0.00000000  0.50000000  0.50000000  1
  Mg  Mg2  1  0.50000000  0.00000000  0.25202000  1
  Mg  Mg3  1  0.50000000  0.00000000  0.74798000  1
  Mg  Mg4  1  0.50000000  0.50000000  0.25021100  1
  Mg  Mg5  1  0.50000000  0.50000000  0.74978900  1
  Mg  Mg6  1  0.50000000  0.25622600  0.00000000  1
  Mg  Mg7  1  0.50000000  0.25312100  0.50000000  1
  Mg  Mg8  1  0.50000000  0.74377400  0.00000000  1
  Mg  Mg9  1  0.50000000  0.74687900  0.50000000  1
  Mg  Mg10  1  0.00000000  0.25439900  0.25216200  1
  Mg  Mg11  1  0.00000000  0.25439900  0.74783800  1
  Mg  Mg12  1  0.00000000  0.74560100  0.25216200  1
  Mg  Mg13  1  0.00000000  0.74560100  0.74783800  1
  Ti  Ti0  1  0.00000000  0.00000000  0.50000000  1
  O  O0  1  0.00000000  0.26395800  0.00000000  1
  O  O1  1  0.00000000  0.25717800  0.50000000  1
  O  O2  1  0.00000000  0.73604200  0.00000000  1
  O  O3  1  0.00000000  0.74282200  0.50000000  1
  O  O4  1  0.50000000  0.24904700  0.25024200  1
  O  O5  1  0.50000000  0.24904700  0.74975800  1
  O  O6  1  0.50000000  0.75095300  0.25024200  1
  O  O7  1  0.50000000  0.75095300  0.74975800  1
  O  O8  1  0.50000000  0.00000000  0.00000000  1
  O  O9  1  0.50000000  0.00000000  0.50000000  1
  O  O10  1  0.50000000  0.50000000  0.00000000  1
  O  O11  1  0.50000000  0.50000000  0.50000000  1
  O  O12  1  0.00000000  0.00000000  0.25818100  1
  O  O13  1  0.00000000  0.00000000  0.74181900  1
  O  O14  1  0.00000000  0.50000000  0.25199800  1
  O  O15  1  0.00000000  0.50000000  0.74800200  1
loop_
_geom_bond_atom_site_label_1
_geom_bond_atom_site_label_2
_geom_bond_distance
_geom_bond_site_symmetry_2
Ca0 O8 2.157380 1_555
Ca0 O8 2.157380 1_455
Ca0 O12 2.234168 1_555
Ca0 O13 2.234168 1_554
Ca0 O0 2.279473 1_555
Ca0 O2 2.279473 1_545
Mg0 O0 2.038397 1_555
Mg0 O2 2.038397 1_555
Mg0 O10 2.157380 1_455
Mg0 O10 2.157380 1_555
Mg0 O14 2.180664 1_555
Mg0 O15 2.180664 1_554
Mg1 O1 2.096948 1_555
Mg1 O3 2.096948 1_555
Mg1 O15 2.146084 1_555
Mg1 O14 2.146084 1_555
Mg1 O11 2.157380 1_455
Mg1 O11 2.157380 1_555
Mg2 O9 2.145894 1_555
Mg2 O4 2.150760 1_555
Mg2 O6 2.150760 1_545
Mg2 O12 2.158039 1_655
Mg2 O12 2.158039 1_555
Mg2 O8 2.180854 1_555
Mg3 O9 2.145894 1_555
Mg3 O5 2.150760 1_555
Mg3 O7 2.150760 1_545
Mg3 O13 2.158039 1_555
Mg3 O13 2.158039 1_655
Mg3 O8 2.180854 1_556
Mg4 O14 2.157435 1_555
Mg4 O14 2.157435 1_655
Mg4 O11 2.161548 1_555
Mg4 O10 2.165200 1_555
Mg4 O6 2.167165 1_555
Mg4 O4 2.167165 1_555
Mg5 O15 2.157435 1_555
Mg5 O15 2.157435 1_655
Mg5 O11 2.161548 1_555
Mg5 O10 2.165200 1_556
Mg5 O5 2.167165 1_555
Mg5 O7 2.167165 1_555
Mg6 O10 2.105169 1_555
Mg6 O0 2.158413 1_555
Mg6 O0 2.158413 1_655
Mg6 O5 2.166355 1_554
Mg6 O4 2.166355 1_555
Mg6 O8 2.212701 1_555
Mg7 O11 2.131983 1_555
Mg7 O1 2.157664 1_655
Mg7 O1 2.157664 1_555
Mg7 O4 2.161566 1_555
Mg7 O5 2.161566 1_555
Mg7 O9 2.185887 1_555
Mg8 O10 2.105169 1_555
Mg8 O2 2.158413 1_655
Mg8 O2 2.158413 1_555
Mg8 O7 2.166355 1_554
Mg8 O6 2.166355 1_555
Mg8 O8 2.212701 1_565
Mg9 O11 2.131983 1_555
Mg9 O3 2.157664 1_655
Mg9 O3 2.157664 1_555
Mg9 O6 2.161566 1_555
Mg9 O7 2.161566 1_555
Mg9 O9 2.185887 1_565
Mg10 O14 2.120947 1_555
Mg10 O1 2.144799 1_555
Mg10 O4 2.157939 1_555
Mg10 O4 2.157939 1_455
Mg10 O0 2.183644 1_555
Mg10 O12 2.197541 1_555
Mg11 O15 2.120947 1_555
Mg11 O1 2.144799 1_555
Mg11 O5 2.157939 1_455
Mg11 O5 2.157939 1_555
Mg11 O0 2.183644 1_556
Mg11 O13 2.197541 1_555
Mg12 O14 2.120947 1_555
Mg12 O3 2.144799 1_555
Mg12 O6 2.157939 1_455
Mg12 O6 2.157939 1_555
Mg12 O2 2.183644 1_555
Mg12 O12 2.197541 1_565
Mg13 O15 2.120947 1_555
Mg13 O3 2.144799 1_555
Mg13 O7 2.157939 1_555
Mg13 O7 2.157939 1_455
Mg13 O2 2.183644 1_556
Mg13 O13 2.197541 1_565
O1 Ti0 2.220922 1_555
O3 Ti0 2.220922 1_565
O9 Ti0 2.157380 1_555
O9 Ti0 2.157380 1_655
O12 Ti0 2.092580 1_555
O13 Ti0 2.092580 1_555
