# generated using pymatgen
data_Na2ZrSi3O11
_symmetry_space_group_name_H-M   'P 1'
_cell_length_a   7.61721562
_cell_length_b   7.61721562
_cell_length_c   10.14068982
_cell_angle_alpha   89.72164478
_cell_angle_beta   89.72164478
_cell_angle_gamma   120.62099827
_symmetry_Int_Tables_number   1
_chemical_formula_structural   Na2ZrSi3O11
_chemical_formula_sum   'Na4 Zr2 Si6 O22'
_cell_volume   506.31167914
_cell_formula_units_Z   2
loop_
 _symmetry_equiv_pos_site_id
 _symmetry_equiv_pos_as_xyz
  1  'x, y, z'
loop_
 _atom_site_type_symbol
 _atom_site_label
 _atom_site_symmetry_multiplicity
 _atom_site_fract_x
 _atom_site_fract_y
 _atom_site_fract_z
 _atom_site_occupancy
  Na  Na0  1  0.50000000  0.50000000  0.50000000  1
  Na  Na1  1  0.00000000  0.50000000  0.50000000  1
  Na  Na2  1  0.50000000  0.50000000  0.00000000  1
  Na  Na3  1  0.50000000  0.00000000  0.00000000  1
  Zr  Zr0  1  0.00000000  0.00000000  0.50000000  1
  Zr  Zr1  1  0.00000000  0.00000000  0.00000000  1
  Si  Si0  1  0.80391900  0.60159300  0.24958700  1
  Si  Si1  1  0.19608100  0.39840700  0.75041300  1
  Si  Si2  1  0.19843700  0.80156300  0.75000000  1
  Si  Si3  1  0.39840700  0.19608100  0.25041300  1
  Si  Si4  1  0.80156300  0.19843700  0.25000000  1
  Si  Si5  1  0.60159300  0.80391900  0.74958700  1
  O  O0  1  0.73590900  0.86216200  0.61692800  1
  O  O1  1  0.87496300  0.13740700  0.38306200  1
  O  O2  1  0.26409100  0.13783800  0.38307200  1
  O  O3  1  0.12503700  0.86259300  0.61693800  1
  O  O4  1  0.72766300  0.86447000  0.88696300  1
  O  O5  1  0.86259300  0.12503700  0.11693800  1
  O  O6  1  0.27233700  0.13553000  0.11303700  1
  O  O7  1  0.13740700  0.87496300  0.88306200  1
  O  O8  1  0.13553000  0.27233700  0.61303700  1
  O  O9  1  0.86447000  0.72766300  0.38696300  1
  O  O10  1  0.13783800  0.26409100  0.88307200  1
  O  O11  1  0.86216200  0.73590900  0.11692800  1
  O  O12  1  0.09943300  0.55011200  0.74616400  1
  O  O13  1  0.55167400  0.44832600  0.25000000  1
  O  O14  1  0.90056700  0.44988800  0.25383600  1
  O  O15  1  0.44832600  0.55167400  0.75000000  1
  O  O16  1  0.44988800  0.90056700  0.75383600  1
  O  O17  1  0.55011200  0.09943300  0.24616400  1
  O  O18  1  0.66894800  0.33891800  0.59238000  1
  O  O19  1  0.33105200  0.66108200  0.40762000  1
  O  O20  1  0.66108200  0.33105200  0.90762000  1
  O  O21  1  0.33891800  0.66894800  0.09238000  1
loop_
_geom_bond_atom_site_label_1
_geom_bond_atom_site_label_2
_geom_bond_distance
_geom_bond_site_symmetry_2
Na0 O18 2.376634 1_555
Na0 O19 2.376634 1_555
Na0 O13 2.625793 1_555
Na0 O15 2.625793 1_555
Na0 O8 2.659701 1_555
Na0 O9 2.659701 1_555
Na0 O0 2.692169 1_555
Na0 O2 2.692169 1_555
Na1 O19 2.357099 1_555
Na1 O18 2.357099 1_455
Na1 O12 2.585314 1_555
Na1 O14 2.585314 1_455
Na1 O8 2.683837 1_555
Na1 O9 2.683837 1_455
Na1 O3 2.702718 1_555
Na1 O1 2.702718 1_455
Na2 O21 2.376634 1_555
Na2 O20 2.376634 1_554
Na2 O13 2.625793 1_555
Na2 O15 2.625793 1_554
Na2 O6 2.659701 1_555
Na2 O4 2.659701 1_554
Na2 O11 2.692169 1_555
Na2 O10 2.692169 1_554
Na3 O20 2.357099 1_554
Na3 O21 2.357099 1_545
Na3 O17 2.585314 1_555
Na3 O16 2.585314 1_544
Na3 O4 2.683837 1_544
Na3 O6 2.683837 1_555
Na3 O5 2.702718 1_555
Na3 O7 2.702718 1_544
O0 Si5 1.603660 1_555
O0 Zr0 2.090005 1_665
O1 Si4 1.617233 1_555
O1 Zr0 2.103156 1_655
O2 Si3 1.603660 1_555
O2 Zr0 2.090005 1_555
O3 Si2 1.617233 1_555
O3 Zr0 2.103156 1_565
O4 Si5 1.625927 1_555
O4 Zr1 2.129788 1_666
O5 Si4 1.617233 1_555
O5 Zr1 2.103156 1_655
O6 Si3 1.625927 1_555
O6 Zr1 2.129788 1_555
O7 Si2 1.617233 1_555
O7 Zr1 2.103156 1_566
O8 Si1 1.625927 1_555
O8 Zr0 2.129788 1_555
O9 Si0 1.625927 1_555
O9 Zr0 2.129788 1_665
O10 Si1 1.603660 1_555
O10 Zr1 2.090005 1_556
O11 Si0 1.603660 1_555
O11 Zr1 2.090005 1_665
O12 Si1 1.656995 1_555
O12 Si2 1.663840 1_555
O13 Si0 1.664185 1_555
O13 Si3 1.664185 1_555
O14 Si0 1.656995 1_555
O14 Si4 1.663840 1_555
O15 Si5 1.664185 1_555
O15 Si1 1.664185 1_555
O16 Si5 1.656995 1_555
O16 Si2 1.663840 1_555
O17 Si3 1.656995 1_555
O17 Si4 1.663840 1_555
