# generated using pymatgen
data_Y8In3Co
_symmetry_space_group_name_H-M   'P 1'
_cell_length_a   10.38572399
_cell_length_b   10.38572399
_cell_length_c   7.07828233
_cell_angle_alpha   90.00000000
_cell_angle_beta   90.00000000
_cell_angle_gamma   120.00000221
_symmetry_Int_Tables_number   1
_chemical_formula_structural   Y8In3Co
_chemical_formula_sum   'Y16 In6 Co2'
_cell_volume   661.19879944
_cell_formula_units_Z   2
loop_
 _symmetry_equiv_pos_site_id
 _symmetry_equiv_pos_as_xyz
  1  'x, y, z'
loop_
 _atom_site_type_symbol
 _atom_site_label
 _atom_site_symmetry_multiplicity
 _atom_site_fract_x
 _atom_site_fract_y
 _atom_site_fract_z
 _atom_site_occupancy
  Y  Y0  1  0.46440710  0.53559290  0.48216564  1
  Y  Y1  1  0.07118581  0.53559290  0.48216564  1
  Y  Y2  1  0.46440710  0.92881419  0.48216564  1
  Y  Y3  1  0.53559290  0.46440710  0.98216564  1
  Y  Y4  1  0.92881419  0.46440710  0.98216564  1
  Y  Y5  1  0.53559290  0.07118581  0.98216564  1
  Y  Y6  1  0.82289554  0.17710446  0.27522905  1
  Y  Y7  1  0.35420892  0.17710446  0.27522905  1
  Y  Y8  1  0.82289554  0.64579108  0.27522905  1
  Y  Y9  1  0.17710446  0.82289554  0.77522905  1
  Y  Y10  1  0.64579108  0.82289554  0.77522905  1
  Y  Y11  1  0.17710446  0.35420892  0.77522905  1
  Y  Y12  1  0.33333300  0.66666700  0.09376299  1
  Y  Y13  1  0.66666700  0.33333300  0.59376299  1
  Y  Y14  1  -0.00000000  -0.00000000  0.49605546  1
  Y  Y15  1  -0.00000000  -0.00000000  0.99605546  1
  In  In0  1  0.16336449  0.83663551  0.23436268  1
  In  In1  1  0.67327103  0.83663551  0.23436268  1
  In  In2  1  0.16336449  0.32672897  0.23436268  1
  In  In3  1  0.83663551  0.16336449  0.73436268  1
  In  In4  1  0.32672897  0.16336449  0.73436268  1
  In  In5  1  0.83663551  0.67327103  0.73436268  1
  Co  Co0  1  0.33333300  0.66666700  0.70718644  1
  Co  Co1  1  0.66666700  0.33333300  0.20718644  1
loop_
_geom_bond_atom_site_label_1
_geom_bond_atom_site_label_2
_geom_bond_distance
_geom_bond_site_symmetry_2
In0 Y8 3.083350 1_455
In0 Y7 3.083350 1_565
In0 Y12 3.215387 1_555
In0 Y9 3.259263 1_554
In0 Y1 3.282560 1_555
In0 Y2 3.282560 1_555
In0 Y15 3.388401 1_564
In0 Y14 3.473773 1_565
In0 Y4 3.827320 1_454
In0 Y5 3.827320 1_564
In0 Y9 3.836375 1_555
In1 Y6 3.083350 1_565
In1 Y8 3.083350 1_555
In1 Y12 3.215395 1_555
In1 Y10 3.259263 1_554
In1 Y0 3.282560 1_555
In1 Y2 3.282560 1_555
In1 Y15 3.388401 1_664
In1 Y14 3.473773 1_665
In1 Y3 3.827320 1_554
In1 Y5 3.827320 1_564
In1 Y10 3.836375 1_555
In2 Y6 3.083350 1_455
In2 Y7 3.083350 1_555
In2 Y12 3.215395 1_555
In2 Y11 3.259263 1_554
In2 Y0 3.282560 1_555
In2 Y1 3.282560 1_555
In2 Y15 3.388401 1_554
In2 Y14 3.473773 1_555
In2 Y3 3.827320 1_554
In2 Y4 3.827320 1_454
In2 Y11 3.836375 1_555
In3 Y10 3.083350 1_545
In3 Y11 3.083350 1_655
In3 Y13 3.215387 1_555
In3 Y6 3.259263 1_555
In3 Y5 3.282560 1_555
In3 Y4 3.282560 1_555
In3 Y14 3.388401 1_655
In3 Y15 3.473773 1_655
In3 Y2 3.827320 1_545
In3 Y1 3.827320 1_655
In3 Y6 3.836375 1_556
In4 Y9 3.083350 1_545
In4 Y11 3.083350 1_555
In4 Y13 3.215395 1_555
In4 Y7 3.259263 1_555
In4 Y3 3.282560 1_555
In4 Y5 3.282560 1_555
In4 Y14 3.388401 1_555
In4 Y15 3.473773 1_555
In4 Y0 3.827320 1_555
In4 Y2 3.827320 1_545
In4 Y7 3.836375 1_556
In5 Y9 3.083350 1_655
In5 Y10 3.083350 1_555
In5 Y13 3.215395 1_555
In5 Y8 3.259263 1_555
In5 Y3 3.282560 1_555
In5 Y4 3.282560 1_555
In5 Y14 3.388401 1_665
In5 Y15 3.473773 1_665
In5 Y0 3.827320 1_555
In5 Y1 3.827320 1_655
In5 Y8 3.836375 1_556
Co0 Y12 2.736298 1_556
Co0 Y1 2.845391 1_555
Co0 Y2 2.845391 1_555
Co0 Y0 2.845399 1_555
Co0 Y9 2.851304 1_555
Co0 Y10 2.851313 1_555
Co0 Y11 2.851313 1_555
Co1 Y13 2.736298 1_555
Co1 Y4 2.845391 1_554
Co1 Y5 2.845391 1_554
Co1 Y3 2.845399 1_554
Co1 Y6 2.851304 1_555
Co1 Y8 2.851313 1_555
Co1 Y7 2.851313 1_555
