# generated using pymatgen
data_NbVO4
_symmetry_space_group_name_H-M   'P 1'
_cell_length_a   3.94797147
_cell_length_b   14.92411402
_cell_length_c   5.67252287
_cell_angle_alpha   90.80066337
_cell_angle_beta   69.36194100
_cell_angle_gamma   97.78121195
_symmetry_Int_Tables_number   1
_chemical_formula_structural   NbVO4
_chemical_formula_sum   'Nb4 V4 O16'
_cell_volume   309.69096209
_cell_formula_units_Z   4
loop_
 _symmetry_equiv_pos_site_id
 _symmetry_equiv_pos_as_xyz
  1  'x, y, z'
loop_
 _atom_site_type_symbol
 _atom_site_label
 _atom_site_symmetry_multiplicity
 _atom_site_fract_x
 _atom_site_fract_y
 _atom_site_fract_z
 _atom_site_occupancy
  Nb  Nb0  1  0.98510600  0.99569600  0.99799700  1
  Nb  Nb1  1  0.99450900  0.24672700  0.24500600  1
  Nb  Nb2  1  0.98934600  0.49585300  0.50104300  1
  Nb  Nb3  1  0.98892600  0.74636700  0.74621200  1
  V  V0  1  0.75760400  0.56513600  0.06511400  1
  V  V1  1  0.76150100  0.81399200  0.31362900  1
  V  V2  1  0.75228500  0.06470500  0.56237100  1
  V  V3  1  0.75738100  0.31310700  0.81051500  1
  O  O0  1  0.96539200  0.11613900  0.19153600  1
  O  O1  1  0.96793400  0.36495900  0.43817100  1
  O  O2  1  0.97139500  0.61661300  0.68954200  1
  O  O3  1  0.97520700  0.86622400  0.93775500  1
  O  O4  1  0.53473000  0.01252500  0.93908100  1
  O  O5  1  0.53781900  0.25704100  0.18297800  1
  O  O6  1  0.53705200  0.51116300  0.43993400  1
  O  O7  1  0.53938400  0.76182400  0.68738000  1
  O  O8  1  0.78935200  0.20000700  0.61048500  1
  O  O9  1  0.79334800  0.45058600  0.85713100  1
  O  O10  1  0.78940500  0.70024200  0.10822900  1
  O  O11  1  0.78782700  0.94903400  0.35633800  1
  O  O12  1  0.20883200  0.79911900  0.39065900  1
  O  O13  1  0.20308200  0.04841400  0.63999900  1
  O  O14  1  0.20638100  0.30507900  0.89612700  1
  O  O15  1  0.20620200  0.54944900  0.14276800  1
loop_
_geom_bond_atom_site_label_1
_geom_bond_atom_site_label_2
_geom_bond_distance
_geom_bond_site_symmetry_2
Nb0 O3 1.955102 1_555
Nb0 O4 1.969384 1_565
Nb0 O11 2.000025 1_556
Nb0 O13 2.028034 1_665
Nb0 O4 2.055920 1_665
Nb0 O0 2.089226 1_566
Nb1 O0 1.962360 1_555
Nb1 O5 1.980446 1_555
Nb1 O14 2.014594 1_654
Nb1 O5 2.031869 1_655
Nb1 O8 2.035699 1_555
Nb1 O1 2.059170 1_555
Nb2 O1 1.976734 1_555
Nb2 O6 1.977351 1_555
Nb2 O9 1.982424 1_555
Nb2 O15 2.033856 1_655
Nb2 O6 2.046479 1_655
Nb2 O2 2.079354 1_555
Nb3 O2 1.954486 1_555
Nb3 O7 1.960857 1_555
Nb3 O10 2.015887 1_556
Nb3 O12 2.016511 1_655
Nb3 O7 2.059735 1_655
Nb3 O3 2.076916 1_555
O0 V2 2.084404 1_555
O1 V3 2.093981 1_555
O2 V0 2.108071 1_556
O3 V1 2.113250 1_556
O4 V2 2.117086 1_555
O5 V3 2.115996 1_554
O6 V0 2.116723 1_555
O7 V1 2.102546 1_555
O8 V3 2.013874 1_555
O8 V2 2.026342 1_555
O9 V0 2.055723 1_556
O9 V3 2.057229 1_555
O10 V0 2.020027 1_555
O10 V1 2.038741 1_555
O11 V1 2.019566 1_555
O11 V2 2.063803 1_565
O12 V1 2.002990 1_455
O12 V1 2.049505 1_555
O13 V2 2.023136 1_455
O13 V2 2.035061 1_555
O14 V3 2.014553 1_455
O14 V3 2.041720 1_555
O15 V0 2.012602 1_455
O15 V0 2.043706 1_555
