# generated using pymatgen
data_Er(Fe5Re)2
_symmetry_space_group_name_H-M   'P 1'
_cell_length_a   4.69642800
_cell_length_b   6.47323378
_cell_length_c   6.47323378
_cell_angle_alpha   96.93615450
_cell_angle_beta   111.26963946
_cell_angle_gamma   68.73036054
_symmetry_Int_Tables_number   1
_chemical_formula_structural   Er(Fe5Re)2
_chemical_formula_sum   'Er1 Fe10 Re2'
_cell_volume   170.88336888
_cell_formula_units_Z   1
loop_
 _symmetry_equiv_pos_site_id
 _symmetry_equiv_pos_as_xyz
  1  'x, y, z'
loop_
 _atom_site_type_symbol
 _atom_site_label
 _atom_site_symmetry_multiplicity
 _atom_site_fract_x
 _atom_site_fract_y
 _atom_site_fract_z
 _atom_site_occupancy
  Er  Er0  1  0.00000000  0.00000000  0.00000000  1
  Fe  Fe0  1  0.71959600  0.78040400  0.21959600  1
  Fe  Fe1  1  0.28040400  0.21959600  0.78040400  1
  Fe  Fe2  1  0.50000000  0.77248200  0.77248200  1
  Fe  Fe3  1  0.50000000  0.22751800  0.22751800  1
  Fe  Fe4  1  0.50000000  0.00000000  0.50000000  1
  Fe  Fe5  1  0.00000000  0.00000000  0.50000000  1
  Fe  Fe6  1  0.50000000  0.50000000  0.00000000  1
  Fe  Fe7  1  0.00000000  0.50000000  0.00000000  1
  Fe  Fe8  1  0.64094400  0.35905600  0.64094400  1
  Fe  Fe9  1  0.35905600  0.64094400  0.35905600  1
  Re  Re0  1  0.00000000  0.35713200  0.35713200  1
  Re  Re1  1  0.00000000  0.64286800  0.64286800  1
loop_
_geom_bond_atom_site_label_1
_geom_bond_atom_site_label_2
_geom_bond_distance
_geom_bond_site_symmetry_2
Er0 Fe1 2.996638 1_454
Er0 Fe0 2.996638 1_445
Er0 Fe0 2.996638 1_545
Er0 Fe1 2.996638 1_554
Er0 Fe9 3.043933 1_545
Er0 Fe8 3.043933 1_454
Er0 Fe2 3.054237 1_444
Er0 Fe3 3.054237 1_455
Er0 Fe3 3.054237 1_555
Er0 Fe2 3.054237 1_544
Er0 Re1 3.065618 1_544
Er0 Re0 3.065618 1_555
Er0 Fe4 3.236617 1_555
Er0 Fe6 3.236617 1_455
Er0 Fe4 3.236617 1_454
Er0 Fe7 3.236617 1_555
Er0 Fe6 3.236617 1_545
Er0 Fe5 3.236617 1_554
Er0 Fe5 3.236617 1_555
Er0 Fe7 3.236617 1_545
Fe0 Fe5 2.459729 1_665
Fe0 Fe6 2.459729 1_555
Fe0 Fe7 2.459729 1_655
Fe0 Fe4 2.459729 1_565
Fe0 Fe9 2.629051 1_655
Fe0 Fe9 2.629051 1_555
Fe0 Re1 2.674857 1_655
Fe0 Re0 2.674857 1_655
Fe0 Fe3 2.698145 1_565
Fe0 Fe2 2.698145 1_554
Fe1 Fe6 2.459729 1_556
Fe1 Fe7 2.459729 1_556
Fe1 Fe4 2.459729 1_555
Fe1 Fe5 2.459729 1_555
Fe1 Fe8 2.629051 1_455
Fe1 Fe8 2.629051 1_555
Fe1 Re0 2.674857 1_555
Fe1 Re1 2.674857 1_555
Fe1 Fe3 2.698145 1_556
Fe1 Fe2 2.698145 1_545
Fe2 Fe6 2.430561 1_556
Fe2 Fe5 2.430561 1_565
Fe2 Fe4 2.430561 1_565
Fe2 Fe7 2.430561 1_656
Fe2 Re1 2.598461 1_555
Fe2 Re1 2.598461 1_655
Fe2 Fe8 2.626509 1_555
Fe2 Fe9 2.626509 1_555
Fe3 Fe5 2.430561 1_655
Fe3 Fe6 2.430561 1_555
Fe3 Fe7 2.430561 1_555
Fe3 Fe4 2.430561 1_555
Fe3 Re0 2.598461 1_555
Fe3 Re0 2.598461 1_655
Fe3 Fe8 2.626509 1_555
Fe3 Fe9 2.626509 1_555
Fe4 Fe5 2.348214 1_555
Fe4 Fe5 2.348214 1_655
Fe4 Re1 2.591541 1_645
Fe4 Re0 2.591541 1_555
Fe4 Fe8 2.615071 1_555
Fe4 Fe9 2.615071 1_545
Fe5 Re1 2.591541 1_545
Fe5 Re0 2.591541 1_555
Fe5 Fe9 2.615071 1_545
Fe5 Fe8 2.615071 1_455
Fe6 Fe7 2.348214 1_555
Fe6 Fe7 2.348214 1_655
Fe6 Re1 2.591541 1_554
Fe6 Re0 2.591541 1_655
Fe6 Fe8 2.615071 1_554
Fe6 Fe9 2.615071 1_555
Fe7 Re1 2.591541 1_554
Fe7 Re0 2.591541 1_555
Fe7 Fe9 2.615071 1_555
Fe7 Fe8 2.615071 1_454
Fe8 Fe9 2.389734 1_555
Fe8 Re0 2.906169 1_555
Fe8 Re1 2.906169 1_555
Fe8 Re0 2.906169 1_655
Fe8 Re1 2.906169 1_655
Fe9 Re0 2.906169 1_555
Fe9 Re0 2.906169 1_655
Fe9 Re1 2.906169 1_655
Fe9 Re1 2.906169 1_555
Re0 Re1 2.452755 1_555
