# generated using pymatgen
data_DyCl2
_symmetry_space_group_name_H-M   'P 1'
_cell_length_a   6.36223900
_cell_length_b   7.15698600
_cell_length_c   12.46806700
_cell_angle_alpha   90.00000000
_cell_angle_beta   90.00000000
_cell_angle_gamma   90.00000000
_symmetry_Int_Tables_number   1
_chemical_formula_structural   DyCl2
_chemical_formula_sum   'Dy8 Cl16'
_cell_volume   567.72664138
_cell_formula_units_Z   8
loop_
 _symmetry_equiv_pos_site_id
 _symmetry_equiv_pos_as_xyz
  1  'x, y, z'
loop_
 _atom_site_type_symbol
 _atom_site_label
 _atom_site_symmetry_multiplicity
 _atom_site_fract_x
 _atom_site_fract_y
 _atom_site_fract_z
 _atom_site_occupancy
  Dy  Dy0  1  0.81730800  0.95015400  0.59799000  1
  Dy  Dy1  1  0.18269200  0.04984600  0.40201000  1
  Dy  Dy2  1  0.68269200  0.45015400  0.40201000  1
  Dy  Dy3  1  0.18269200  0.54984600  0.09799000  1
  Dy  Dy4  1  0.31730800  0.54984600  0.59799000  1
  Dy  Dy5  1  0.81730800  0.45015400  0.90201000  1
  Dy  Dy6  1  0.31730800  0.04984600  0.90201000  1
  Dy  Dy7  1  0.68269200  0.95015400  0.09799000  1
  Cl  Cl0  1  0.68407200  0.62325500  0.70861300  1
  Cl  Cl1  1  0.31592800  0.37674500  0.29138700  1
  Cl  Cl2  1  0.81592800  0.12325500  0.29138700  1
  Cl  Cl3  1  0.31592800  0.87674500  0.20861300  1
  Cl  Cl4  1  0.18407200  0.87674500  0.70861300  1
  Cl  Cl5  1  0.68407200  0.12325500  0.79138700  1
  Cl  Cl6  1  0.18407200  0.37674500  0.79138700  1
  Cl  Cl7  1  0.81592800  0.62325500  0.20861300  1
  Cl  Cl8  1  0.98028300  0.79255000  0.95507900  1
  Cl  Cl9  1  0.01971700  0.20745000  0.04492100  1
  Cl  Cl10  1  0.51971700  0.29255000  0.04492100  1
  Cl  Cl11  1  0.01971700  0.70745000  0.45507900  1
  Cl  Cl12  1  0.48028300  0.70745000  0.95507900  1
  Cl  Cl13  1  0.98028300  0.29255000  0.54492100  1
  Cl  Cl14  1  0.48028300  0.20745000  0.54492100  1
  Cl  Cl15  1  0.51971700  0.79255000  0.45507900  1
loop_
_geom_bond_atom_site_label_1
_geom_bond_atom_site_label_2
_geom_bond_distance
_geom_bond_site_symmetry_2
Cl0 Dy4 2.761036 1_555
Cl0 Dy5 2.840368 1_555
Cl0 Dy0 2.845116 1_555
Cl1 Dy2 2.761036 1_555
Cl1 Dy3 2.840368 1_555
Cl1 Dy1 2.845116 1_555
Cl2 Dy1 2.761036 1_655
Cl2 Dy7 2.840368 1_545
Cl2 Dy2 2.845116 1_555
Cl3 Dy7 2.761036 1_555
Cl3 Dy1 2.840368 1_565
Cl3 Dy3 2.845116 1_555
Cl4 Dy0 2.761036 1_455
Cl4 Dy6 2.840368 1_565
Cl4 Dy4 2.845116 1_555
Cl5 Dy6 2.761036 1_555
Cl5 Dy0 2.840368 1_545
Cl5 Dy5 2.845116 1_555
Cl6 Dy5 2.761036 1_455
Cl6 Dy4 2.840368 1_555
Cl6 Dy6 2.845116 1_555
Cl7 Dy3 2.761036 1_655
Cl7 Dy2 2.840368 1_555
Cl7 Dy7 2.845116 1_555
Cl8 Dy5 2.741897 1_555
Cl8 Dy3 2.801880 1_656
Cl8 Dy7 2.834073 1_556
Cl8 Dy6 2.902849 1_665
Cl9 Dy3 2.741897 1_555
Cl9 Dy5 2.801880 1_454
Cl9 Dy6 2.834073 1_554
Cl9 Dy7 2.902849 1_445
Cl10 Dy7 2.741897 1_545
Cl10 Dy6 2.801880 1_554
Cl10 Dy5 2.834073 1_554
Cl10 Dy3 2.902849 1_555
Cl11 Dy1 2.741897 1_565
Cl11 Dy0 2.801880 1_455
Cl11 Dy4 2.834073 1_555
Cl11 Dy2 2.902849 1_455
Cl12 Dy6 2.741897 1_565
Cl12 Dy7 2.801880 1_556
Cl12 Dy3 2.834073 1_556
Cl12 Dy5 2.902849 1_555
Cl13 Dy0 2.741897 1_545
Cl13 Dy1 2.801880 1_655
Cl13 Dy2 2.834073 1_555
Cl13 Dy4 2.902849 1_655
Cl14 Dy4 2.741897 1_555
Cl14 Dy2 2.801880 1_555
Cl14 Dy1 2.834073 1_555
Cl14 Dy0 2.902849 1_545
Cl15 Dy2 2.741897 1_555
Cl15 Dy4 2.801880 1_555
Cl15 Dy0 2.834073 1_555
Cl15 Dy1 2.902849 1_565
