# generated using pymatgen
data_Ni5(TeO6)3
_symmetry_space_group_name_H-M   'P 1'
_cell_length_a   8.24545796
_cell_length_b   8.24545796
_cell_length_c   10.31502373
_cell_angle_alpha   84.74621963
_cell_angle_beta   84.74621963
_cell_angle_gamma   62.61119055
_symmetry_Int_Tables_number   1
_chemical_formula_structural   Ni5(TeO6)3
_chemical_formula_sum   'Ni10 Te6 O36'
_cell_volume   619.09591532
_cell_formula_units_Z   2
loop_
 _symmetry_equiv_pos_site_id
 _symmetry_equiv_pos_as_xyz
  1  'x, y, z'
loop_
 _atom_site_type_symbol
 _atom_site_label
 _atom_site_symmetry_multiplicity
 _atom_site_fract_x
 _atom_site_fract_y
 _atom_site_fract_z
 _atom_site_occupancy
  Ni  Ni0  1  0.31442900  0.00140200  0.72397200  1
  Ni  Ni1  1  0.00140200  0.31442900  0.22397200  1
  Ni  Ni2  1  0.16569100  0.52014000  0.03687800  1
  Ni  Ni3  1  0.52014000  0.16569100  0.53687800  1
  Ni  Ni4  1  0.47986000  0.83430900  0.46312200  1
  Ni  Ni5  1  0.83142500  0.16857500  0.75000000  1
  Ni  Ni6  1  0.16857500  0.83142500  0.25000000  1
  Ni  Ni7  1  0.83430900  0.47986000  0.96312200  1
  Ni  Ni8  1  0.68557100  0.99859800  0.27602800  1
  Ni  Ni9  1  0.99859800  0.68557100  0.77602800  1
  Te  Te0  1  0.67287000  0.65243600  0.70880100  1
  Te  Te1  1  0.00000000  0.00000000  0.00000000  1
  Te  Te2  1  0.00000000  0.00000000  0.50000000  1
  Te  Te3  1  0.65243600  0.67287000  0.20880100  1
  Te  Te4  1  0.32713000  0.34756400  0.29119900  1
  Te  Te5  1  0.34756400  0.32713000  0.79119900  1
  O  O0  1  0.91271400  0.61018400  0.63718200  1
  O  O1  1  0.24314200  0.93156800  0.56320600  1
  O  O2  1  0.42102700  0.74993900  0.31039300  1
  O  O3  1  0.92523000  0.92360100  0.17463900  1
  O  O4  1  0.06843200  0.75685800  0.93679400  1
  O  O5  1  0.07639900  0.07477000  0.32536100  1
  O  O6  1  0.59439900  0.59587500  0.05718100  1
  O  O7  1  0.90732100  0.22793200  0.58245600  1
  O  O8  1  0.09267900  0.77206800  0.41754400  1
  O  O9  1  0.23753000  0.27587700  0.14337200  1
  O  O10  1  0.42723300  0.75538600  0.79519200  1
  O  O11  1  0.76247000  0.72412300  0.85662800  1
  O  O12  1  0.75685800  0.06843200  0.43679400  1
  O  O13  1  0.55001200  0.91182900  0.61825400  1
  O  O14  1  0.24461400  0.57276700  0.70480800  1
  O  O15  1  0.40560100  0.40412500  0.94281900  1
  O  O16  1  0.57276700  0.24461400  0.20480800  1
  O  O17  1  0.08817100  0.44998800  0.88174600  1
  O  O18  1  0.25006100  0.57897300  0.18960700  1
  O  O19  1  0.75538600  0.42723300  0.29519200  1
  O  O20  1  0.61018400  0.91271400  0.13718200  1
  O  O21  1  0.44998800  0.08817100  0.38174600  1
  O  O22  1  0.77206800  0.09267900  0.91754400  1
  O  O23  1  0.59587500  0.59439900  0.55718100  1
  O  O24  1  0.57897300  0.25006100  0.68960700  1
  O  O25  1  0.92360100  0.92523000  0.67463900  1
  O  O26  1  0.27587700  0.23753000  0.64337200  1
  O  O27  1  0.40412500  0.40560100  0.44281900  1
  O  O28  1  0.93156800  0.24314200  0.06320600  1
  O  O29  1  0.91182900  0.55001200  0.11825400  1
  O  O30  1  0.08728600  0.38981600  0.36281800  1
  O  O31  1  0.07477000  0.07639900  0.82536100  1
  O  O32  1  0.22793200  0.90732100  0.08245600  1
  O  O33  1  0.72412300  0.76247000  0.35662800  1
  O  O34  1  0.74993900  0.42102700  0.81039300  1
  O  O35  1  0.38981600  0.08728600  0.86281800  1
loop_
_geom_bond_atom_site_label_1
_geom_bond_atom_site_label_2
_geom_bond_distance
_geom_bond_site_symmetry_2
Ni0 O10 1.906827 1_545
Ni0 O35 1.921675 1_555
Ni0 O26 1.940499 1_555
Ni0 O13 1.986834 1_545
Ni0 O31 1.999197 1_555
Ni0 O1 2.022824 1_545
Ni1 O19 1.906827 1_455
Ni1 O30 1.921675 1_555
Ni1 O9 1.940499 1_555
Ni1 O29 1.986834 1_455
Ni1 O5 1.999197 1_555
Ni1 O28 2.022824 1_455
Ni2 O15 1.961381 1_554
Ni2 O18 1.962737 1_555
Ni2 O4 1.964962 1_554
Ni2 O17 2.000188 1_554
Ni2 O9 2.056779 1_555
Ni2 O29 2.094877 1_455
Ni3 O27 1.961381 1_555
Ni3 O24 1.962737 1_555
Ni3 O12 1.964962 1_555
Ni3 O21 2.000188 1_555
Ni3 O26 2.056779 1_555
Ni3 O13 2.094877 1_545
Ni4 O23 1.961381 1_555
Ni4 O2 1.962737 1_555
Ni4 O1 1.964962 1_555
Ni4 O13 2.000188 1_555
Ni4 O33 2.056779 1_555
Ni4 O21 2.094877 1_565
Ni5 O22 1.883278 1_555
Ni5 O7 1.883278 1_555
Ni5 O25 1.995569 1_545
Ni5 O31 1.995569 1_655
Ni5 O34 2.011601 1_555
Ni5 O24 2.011601 1_555
Ni6 O8 1.883278 1_555
Ni6 O32 1.883278 1_555
Ni6 O3 1.995569 1_455
Ni6 O5 1.995569 1_565
Ni6 O2 2.011601 1_555
Ni6 O18 2.011601 1_555
Ni7 O6 1.961381 1_556
Ni7 O34 1.962737 1_555
Ni7 O28 1.964962 1_556
Ni7 O29 2.000188 1_556
Ni7 O11 2.056779 1_555
Ni7 O17 2.094877 1_655
Ni8 O16 1.906827 1_565
Ni8 O20 1.921675 1_555
Ni8 O33 1.940499 1_555
Ni8 O21 1.986834 1_565
Ni8 O3 1.999197 1_555
Ni8 O12 2.022824 1_565
Ni9 O14 1.906827 1_655
Ni9 O0 1.921675 1_555
Ni9 O11 1.940499 1_555
Ni9 O17 1.986834 1_655
Ni9 O25 1.999197 1_555
Ni9 O4 2.022824 1_655
O0 Te0 1.929716 1_555
O1 Te2 1.973311 1_565
O2 Te3 1.944967 1_555
O3 Te1 1.992008 1_665
O4 Te1 1.973311 1_566
O5 Te2 1.992008 1_555
O6 Te3 1.917406 1_555
O7 Te2 1.921423 1_655
O8 Te2 1.921423 1_565
O9 Te4 1.998373 1_555
O10 Te0 1.960368 1_555
O11 Te0 1.998373 1_555
O12 Te2 1.973311 1_655
O13 Te0 2.070525 1_555
O14 Te5 1.960368 1_555
O15 Te5 1.917406 1_555
O16 Te4 1.960368 1_555
O17 Te5 2.070525 1_555
O18 Te4 1.944967 1_555
O19 Te3 1.960368 1_555
O20 Te3 1.929716 1_555
O21 Te4 2.070525 1_555
O22 Te1 1.921423 1_656
O23 Te0 1.917406 1_555
O24 Te5 1.944967 1_555
O25 Te2 1.992008 1_665
O26 Te5 1.998373 1_555
O27 Te4 1.917406 1_555
O28 Te1 1.973311 1_655
O29 Te3 2.070525 1_555
O30 Te4 1.929716 1_555
O31 Te1 1.992008 1_556
O32 Te1 1.921423 1_565
O33 Te3 1.998373 1_555
O34 Te0 1.944967 1_555
O35 Te5 1.929716 1_555
