# generated using pymatgen
data_MgFe3Co2Sb(PO4)6
_symmetry_space_group_name_H-M   'P 1'
_cell_length_a   8.73063355
_cell_length_b   8.76716836
_cell_length_c   8.76846383
_cell_angle_alpha   59.99355312
_cell_angle_beta   59.58343409
_cell_angle_gamma   59.90285798
_symmetry_Int_Tables_number   1
_chemical_formula_structural   MgFe3Co2Sb(PO4)6
_chemical_formula_sum   'Mg1 Fe3 Co2 Sb1 P6 O24'
_cell_volume   472.70352150
_cell_formula_units_Z   1
loop_
 _symmetry_equiv_pos_site_id
 _symmetry_equiv_pos_as_xyz
  1  'x, y, z'
loop_
 _atom_site_type_symbol
 _atom_site_label
 _atom_site_symmetry_multiplicity
 _atom_site_fract_x
 _atom_site_fract_y
 _atom_site_fract_z
 _atom_site_occupancy
  Mg  Mg0  1  0.13281800  0.62160700  0.62413100  1
  Fe  Fe0  1  0.76781300  0.74467800  0.74335600  1
  Fe  Fe1  1  0.41290400  0.86203900  0.86305700  1
  Fe  Fe2  1  0.95355100  0.34933300  0.34827000  1
  Co  Co0  1  0.01672300  0.99756500  0.99201800  1
  Co  Co1  1  0.53056400  0.49050100  0.48900800  1
  Sb  Sb0  1  0.57227200  0.14221400  0.14280700  1
  P  P0  1  0.26015100  0.25034300  0.54339200  1
  P  P1  1  0.26045500  0.94550100  0.25103000  1
  P  P2  1  0.26157900  0.54247900  0.94639100  1
  P  P3  1  0.75783400  0.44676600  0.04879600  1
  P  P4  1  0.75897300  0.04915800  0.74598800  1
  P  P5  1  0.75901900  0.74658600  0.44560600  1
  O  O0  1  0.08677300  0.08657600  0.33093700  1
  O  O1  1  0.08655800  0.49581400  0.08644900  1
  O  O2  1  0.08717000  0.32981400  0.49609700  1
  O  O3  1  0.23356200  0.08686200  0.73872700  1
  O  O4  1  0.44361100  0.15933200  0.39464400  1
  O  O5  1  0.31180700  0.38866600  0.55286100  1
  O  O6  1  0.23630300  0.93989100  0.08710600  1
  O  O7  1  0.31123900  0.74643000  0.38963300  1
  O  O8  1  0.58735400  0.61111500  0.99135900  1
  O  O9  1  0.31428300  0.55113400  0.74644400  1
  O  O10  1  0.77378500  0.25221100  0.05643400  1
  O  O11  1  0.58755800  0.99175200  0.80988500  1
  O  O12  1  0.44363000  0.00212900  0.16070500  1
  O  O13  1  0.23640200  0.73631800  0.94111300  1
  O  O14  1  0.73474000  0.42404900  0.24191900  1
  O  O15  1  0.44247100  0.39317000  0.00456500  1
  O  O16  1  0.73796600  0.24126400  0.59803000  1
  O  O17  1  0.77381200  0.05806400  0.91695800  1
  O  O18  1  0.73655300  0.59896900  0.42307400  1
  O  O19  1  0.58745000  0.81063900  0.61088800  1
  O  O20  1  0.77516400  0.91769500  0.25045700  1
  O  O21  1  0.93362600  0.69659000  0.48734700  1
  O  O22  1  0.93332000  0.48906400  0.88175300  1
  O  O23  1  0.93364700  0.88180800  0.69689000  1
loop_
_geom_bond_atom_site_label_1
_geom_bond_atom_site_label_2
_geom_bond_distance
_geom_bond_site_symmetry_2
Mg0 O7 2.016894 1_555
Mg0 O5 2.022415 1_555
Mg0 O9 2.029290 1_555
Mg0 O22 2.215242 1_455
Mg0 O23 2.233530 1_455
Mg0 O21 2.252081 1_455
Fe0 O21 2.087230 1_555
Fe0 O23 2.089529 1_555
Fe0 O22 2.095359 1_555
Fe0 O8 2.101562 1_555
Fe0 O11 2.103442 1_555
Fe0 O19 2.104788 1_555
Fe1 O6 1.980213 1_556
Fe1 O13 1.984671 1_555
Fe1 O3 2.002278 1_565
Fe1 O19 2.076159 1_555
Fe1 O8 2.079445 1_555
Fe1 O11 2.079603 1_555
Fe2 O1 2.028702 1_655
Fe2 O0 2.041225 1_655
Fe2 O2 2.044364 1_655
Fe2 O16 2.185370 1_555
Fe2 O18 2.197374 1_555
Fe2 O14 2.210434 1_555
Co0 O3 2.149306 1_565
Co0 O6 2.202420 1_556
Co0 O13 2.207622 1_555
Co0 O10 2.258527 1_466
Co0 O20 2.264531 1_456
Co0 O17 2.268959 1_465
Co1 O14 2.126358 1_555
Co1 O18 2.141355 1_555
Co1 O16 2.159290 1_555
Co1 O9 2.195701 1_555
Co1 O7 2.210274 1_555
Co1 O5 2.210355 1_555
O0 P1 1.493315 1_545
O1 P2 1.494925 1_554
O2 P0 1.492675 1_555
O3 P0 1.586668 1_555
O4 P0 1.595968 1_555
O4 Sb0 1.952256 1_555
O5 P0 1.538855 1_555
O6 P1 1.581422 1_555
O7 P1 1.538721 1_555
O8 P3 1.558018 1_556
O9 P2 1.541553 1_555
O10 P3 1.609419 1_555
O10 Sb0 2.054450 1_555
O11 P4 1.559248 1_565
O12 P1 1.597434 1_545
O12 Sb0 1.951038 1_555
O13 P2 1.579707 1_555
O14 P3 1.518262 1_555
O15 P2 1.594485 1_554
O15 Sb0 1.953754 1_555
O16 P4 1.516265 1_555
O17 P4 1.610651 1_555
O17 Sb0 2.047721 1_556
O18 P5 1.517230 1_555
O19 P5 1.559386 1_555
O20 P5 1.612054 1_555
O20 Sb0 2.059374 1_565
O21 P5 1.544124 1_555
O22 P3 1.544183 1_556
O23 P4 1.544854 1_565
