# generated using pymatgen
data_KCu2H2(SO5)2
_symmetry_space_group_name_H-M   'P 1'
_cell_length_a   5.63226123
_cell_length_b   5.63226123
_cell_length_c   8.03047670
_cell_angle_alpha   65.77302314
_cell_angle_beta   65.77302314
_cell_angle_gamma   68.38877286
_symmetry_Int_Tables_number   1
_chemical_formula_structural   KCu2H2(SO5)2
_chemical_formula_sum   'K1 Cu2 H2 S2 O10'
_cell_volume   205.63670637
_cell_formula_units_Z   1
loop_
 _symmetry_equiv_pos_site_id
 _symmetry_equiv_pos_as_xyz
  1  'x, y, z'
loop_
 _atom_site_type_symbol
 _atom_site_label
 _atom_site_symmetry_multiplicity
 _atom_site_fract_x
 _atom_site_fract_y
 _atom_site_fract_z
 _atom_site_occupancy
  K  K0  1  0.50000000  0.50000000  0.50000000  1
  Cu  Cu0  1  0.00000000  0.50000000  0.00000000  1
  Cu  Cu1  1  0.50000000  0.00000000  0.00000000  1
  H  H0  1  0.69535700  0.69535700  0.81118100  1
  H  H1  1  0.30464300  0.30464300  0.18881900  1
  S  S0  1  0.92463700  0.92463700  0.28261900  1
  S  S1  1  0.07536300  0.07536300  0.71738100  1
  O  O0  1  0.82447100  0.82447100  0.18655500  1
  O  O1  1  0.16468100  0.77058000  0.77423700  1
  O  O2  1  0.22942000  0.83531900  0.22576300  1
  O  O3  1  0.66956300  0.66956300  0.94627100  1
  O  O4  1  0.82083600  0.82083600  0.49130600  1
  O  O5  1  0.17916400  0.17916400  0.50869400  1
  O  O6  1  0.33043700  0.33043700  0.05372900  1
  O  O7  1  0.77058000  0.16468100  0.77423700  1
  O  O8  1  0.83531900  0.22942000  0.22576300  1
  O  O9  1  0.17552900  0.17552900  0.81344500  1
loop_
_geom_bond_atom_site_label_1
_geom_bond_atom_site_label_2
_geom_bond_distance
_geom_bond_site_symmetry_2
K0 O9 2.815135 1_555
K0 O0 2.815135 1_555
K0 O8 2.821367 1_555
K0 O2 2.821367 1_555
K0 O7 2.821367 1_555
K0 O1 2.821367 1_555
K0 O4 2.955306 1_555
K0 O5 2.955306 1_555
Cu0 O6 1.890384 1_555
Cu0 O3 1.890384 1_454
Cu0 O1 1.965527 1_554
Cu0 O8 1.965527 1_455
Cu0 O0 2.502419 1_455
Cu0 O9 2.502419 1_554
Cu1 O3 1.890384 1_544
Cu1 O6 1.890384 1_555
Cu1 O7 1.965527 1_554
Cu1 O2 1.965527 1_545
Cu1 O0 2.502419 1_545
Cu1 O9 2.502419 1_554
H0 O3 0.987896 1_555
H1 O6 0.987896 1_555
O0 S0 1.476648 1_555
O1 S1 1.522320 1_565
O2 S0 1.522320 1_455
O4 S0 1.461393 1_555
O5 S1 1.461393 1_555
O7 S1 1.522320 1_655
O8 S0 1.522320 1_545
O9 S1 1.476648 1_555
