# generated using pymatgen
data_Sr2MnNbO6
_symmetry_space_group_name_H-M   'P 1'
_cell_length_a   7.89875200
_cell_length_b   7.89882500
_cell_length_c   10.07462579
_cell_angle_alpha   66.92135770
_cell_angle_beta   66.92152272
_cell_angle_gamma   90.00044973
_symmetry_Int_Tables_number   1
_chemical_formula_structural   Sr2MnNbO6
_chemical_formula_sum   'Sr8 Mn4 Nb4 O24'
_cell_volume   523.13821875
_cell_formula_units_Z   4
loop_
 _symmetry_equiv_pos_site_id
 _symmetry_equiv_pos_as_xyz
  1  'x, y, z'
loop_
 _atom_site_type_symbol
 _atom_site_label
 _atom_site_symmetry_multiplicity
 _atom_site_fract_x
 _atom_site_fract_y
 _atom_site_fract_z
 _atom_site_occupancy
  Sr  Sr0  1  0.37506000  0.37504600  0.75017500  1
  Sr  Sr1  1  0.62501900  0.12538300  0.24980600  1
  Sr  Sr2  1  0.87473200  0.87473300  0.75018500  1
  Sr  Sr3  1  0.12518300  0.62483400  0.24985200  1
  Sr  Sr4  1  0.62497800  0.62480500  0.24983400  1
  Sr  Sr5  1  0.87477100  0.37508400  0.75016900  1
  Sr  Sr6  1  0.12518500  0.12534600  0.24981800  1
  Sr  Sr7  1  0.37507800  0.87477900  0.75018600  1
  Mn  Mn0  1  0.50009700  0.50000700  0.00004500  1
  Mn  Mn1  1  0.74994800  0.24990800  0.50019800  1
  Mn  Mn2  1  0.25005200  0.74998800  0.49990500  1
  Mn  Mn3  1  0.00002600  0.99999100  0.00012900  1
  Nb  Nb0  1  0.49988400  0.99995300  0.00001500  1
  Nb  Nb1  1  0.74984500  0.74969800  0.50047700  1
  Nb  Nb2  1  0.99980400  0.49986000  0.00005000  1
  Nb  Nb3  1  0.25018600  0.25035600  0.49959800  1
  O  O0  1  0.24565000  0.99998900  0.99996600  1
  O  O1  1  0.49545200  0.74968900  0.50076900  1
  O  O2  1  0.74568500  0.49995300  0.00008400  1
  O  O3  1  0.99620800  0.25044200  0.49910300  1
  O  O4  1  0.38117400  0.88116200  0.23773900  1
  O  O5  1  0.63083300  0.63083600  0.73836500  1
  O  O6  1  0.88112500  0.38111100  0.23781200  1
  O  O7  1  0.13137100  0.13135200  0.73729100  1
  O  O8  1  0.50002000  0.74588900  0.99987500  1
  O  O9  1  0.74956500  0.49526400  0.50092600  1
  O  O10  1  0.99996300  0.24558900  0.00004100  1
  O  O11  1  0.25050300  0.99633000  0.49908700  1
  O  O12  1  0.75427900  0.99997700  0.99996200  1
  O  O13  1  0.00389500  0.74966300  0.50078400  1
  O  O14  1  0.25404400  0.49994600  0.00008100  1
  O  O15  1  0.50469700  0.25041900  0.49910900  1
  O  O16  1  0.61893400  0.11891300  0.76215300  1
  O  O17  1  0.86866400  0.86865100  0.26266700  1
  O  O18  1  0.11892000  0.61891300  0.76220800  1
  O  O19  1  0.36918600  0.36918400  0.26158800  1
  O  O20  1  0.50001600  0.25419800  0.99986500  1
  O  O21  1  0.74954300  0.00374100  0.50093400  1
  O  O22  1  0.99994800  0.75424100  0.00004400  1
  O  O23  1  0.25047700  0.50477800  0.49910300  1
loop_
_geom_bond_atom_site_label_1
_geom_bond_atom_site_label_2
_geom_bond_distance
_geom_bond_site_symmetry_2
Mn0 O2 1.939993 1_555
Mn0 O8 1.941508 1_554
Mn0 O20 1.942314 1_554
Mn0 O14 1.943370 1_555
Mn0 O19 2.193000 1_555
Mn0 O5 2.194149 1_554
Mn1 O3 1.940844 1_555
Mn1 O9 1.940909 1_555
Mn1 O15 1.941499 1_555
Mn1 O21 1.941533 1_555
Mn1 O16 2.196454 1_555
Mn1 O6 2.200068 1_555
Mn2 O23 1.940050 1_555
Mn2 O13 1.940876 1_555
Mn2 O1 1.941780 1_555
Mn2 O11 1.942594 1_555
Mn2 O4 2.198224 1_555
Mn2 O18 2.199372 1_555
Mn3 O0 1.939480 1_554
Mn3 O10 1.939588 1_465
Mn3 O22 1.941472 1_455
Mn3 O12 1.941755 1_454
Mn3 O17 2.201343 1_455
Mn3 O7 2.203858 1_564
Nb0 O4 1.993281 1_555
Nb0 O16 1.994438 1_564
Nb0 O8 2.007360 1_554
Nb0 O20 2.007645 1_564
Nb0 O0 2.008325 1_554
Nb0 O12 2.009194 1_554
Nb1 O17 1.994002 1_555
Nb1 O5 1.994656 1_555
Nb1 O13 2.007892 1_655
Nb1 O9 2.007960 1_555
Nb1 O1 2.008236 1_555
Nb1 O21 2.008450 1_565
Nb2 O6 1.993600 1_555
Nb2 O18 1.994271 1_654
Nb2 O2 2.007089 1_555
Nb2 O14 2.008301 1_655
Nb2 O10 2.008478 1_555
Nb2 O22 2.009288 1_555
Nb3 O7 1.993021 1_555
Nb3 O19 1.995679 1_555
Nb3 O23 2.007684 1_555
Nb3 O3 2.008069 1_455
Nb3 O15 2.008393 1_555
Nb3 O11 2.008530 1_545
O0 Sr7 2.879248 1_555
O0 Sr0 2.879710 1_565
O0 Sr3 2.880558 1_556
O0 Sr6 2.880670 1_566
O1 Sr7 2.875379 1_555
O1 Sr0 2.876141 1_555
O1 Sr1 2.887101 1_565
O1 Sr4 2.887616 1_555
O2 Sr1 2.876806 1_555
O2 Sr4 2.877008 1_555
O2 Sr2 2.878537 1_554
O2 Sr5 2.878552 1_554
O3 Sr6 2.874251 1_655
O3 Sr3 2.874260 1_655
O3 Sr5 2.887464 1_555
O3 Sr2 2.887585 1_545
O4 Sr1 2.795205 1_565
O4 Sr4 2.795395 1_555
O4 Sr6 2.795456 1_565
O4 Sr3 2.795632 1_555
O5 Sr2 2.792244 1_555
O5 Sr5 2.792677 1_555
O5 Sr7 2.792727 1_555
O5 Sr0 2.793012 1_555
O6 Sr3 2.793455 1_655
O6 Sr6 2.793492 1_655
O6 Sr1 2.793554 1_555
O6 Sr4 2.793587 1_555
O7 Sr0 2.796208 1_555
O7 Sr7 2.796310 1_545
O7 Sr5 2.796594 1_455
O7 Sr2 2.796759 1_445
O8 Sr7 2.876938 1_555
O8 Sr2 2.877436 1_555
O8 Sr3 2.879081 1_556
O8 Sr4 2.879389 1_556
O9 Sr5 2.874475 1_555
O9 Sr0 2.874856 1_555
O9 Sr3 2.887050 1_655
O9 Sr4 2.887377 1_555
O10 Sr1 2.879010 1_555
O10 Sr6 2.879285 1_655
O10 Sr5 2.879952 1_554
O10 Sr0 2.880168 1_654
O11 Sr1 2.875026 1_565
O11 Sr6 2.875307 1_565
O11 Sr7 2.887373 1_555
O11 Sr2 2.887951 1_455
O12 Sr2 2.879395 1_555
O12 Sr5 2.879976 1_565
O12 Sr4 2.880593 1_556
O12 Sr1 2.880855 1_566
O13 Sr2 2.875144 1_455
O13 Sr5 2.875735 1_455
O13 Sr6 2.887061 1_565
O13 Sr3 2.887301 1_555
O14 Sr6 2.877002 1_555
O14 Sr3 2.877372 1_555
O14 Sr0 2.878622 1_554
O14 Sr7 2.878793 1_554
O15 Sr1 2.874082 1_555
O15 Sr4 2.874309 1_555
O15 Sr7 2.887197 1_545
O15 Sr0 2.887385 1_555
O16 Sr7 2.794192 1_545
O16 Sr2 2.794335 1_545
O16 Sr0 2.794499 1_555
O16 Sr5 2.794577 1_555
O17 Sr3 2.796596 1_655
O17 Sr4 2.796739 1_555
O17 Sr6 2.796762 1_665
O17 Sr1 2.796840 1_565
O18 Sr7 2.794466 1_555
O18 Sr0 2.794516 1_555
O18 Sr2 2.794519 1_455
O18 Sr5 2.794549 1_455
O19 Sr6 2.792190 1_555
O19 Sr1 2.792359 1_555
O19 Sr3 2.792451 1_555
O19 Sr4 2.792471 1_555
O20 Sr0 2.877017 1_555
O20 Sr5 2.877686 1_555
O20 Sr6 2.878963 1_556
O20 Sr1 2.879471 1_556
O21 Sr2 2.874449 1_545
O21 Sr7 2.874644 1_545
O21 Sr6 2.887315 1_655
O21 Sr1 2.887347 1_555
O22 Sr4 2.879223 1_555
O22 Sr3 2.879616 1_655
O22 Sr2 2.879955 1_554
O22 Sr7 2.880306 1_654
O23 Sr4 2.874922 1_555
O23 Sr3 2.875035 1_555
O23 Sr0 2.887197 1_555
O23 Sr5 2.887510 1_455
