# generated using pymatgen
data_SrEuNb4O12
_symmetry_space_group_name_H-M   'P 1'
_cell_length_a   5.64835829
_cell_length_b   5.64835829
_cell_length_c   8.01598403
_cell_angle_alpha   90.00000000
_cell_angle_beta   90.00000000
_cell_angle_gamma   89.45835545
_symmetry_Int_Tables_number   1
_chemical_formula_structural   SrEuNb4O12
_chemical_formula_sum   'Sr1 Eu1 Nb4 O12'
_cell_volume   255.73013751
_cell_formula_units_Z   1
loop_
 _symmetry_equiv_pos_site_id
 _symmetry_equiv_pos_as_xyz
  1  'x, y, z'
loop_
 _atom_site_type_symbol
 _atom_site_label
 _atom_site_symmetry_multiplicity
 _atom_site_fract_x
 _atom_site_fract_y
 _atom_site_fract_z
 _atom_site_occupancy
  Sr  Sr0  1  0.00879964  0.00879964  0.00000000  1
  Eu  Eu0  1  0.49056777  0.49056777  0.50000000  1
  Nb  Nb0  1  0.50088630  0.99812798  0.74973326  1
  Nb  Nb1  1  0.50088630  0.99812798  0.25026674  1
  Nb  Nb2  1  0.99812798  0.50088630  0.25026674  1
  Nb  Nb3  1  0.99812798  0.50088630  0.74973326  1
  O  O0  1  0.71915027  0.28068707  0.74562651  1
  O  O1  1  0.28068707  0.71915027  0.74562651  1
  O  O2  1  0.28068707  0.71915027  0.25437349  1
  O  O3  1  0.71915027  0.28068707  0.25437349  1
  O  O4  1  0.78075188  0.78075188  0.78057609  1
  O  O5  1  0.22574955  0.22574955  0.72037533  1
  O  O6  1  0.22574955  0.22574955  0.27962467  1
  O  O7  1  0.78075188  0.78075188  0.21942391  1
  O  O8  1  0.46609490  0.02391816  0.00000000  1
  O  O9  1  0.53006273  0.96745069  0.50000000  1
  O  O10  1  0.02391816  0.46609490  0.00000000  1
  O  O11  1  0.96745069  0.53006273  0.50000000  1
loop_
_geom_bond_atom_site_label_1
_geom_bond_atom_site_label_2
_geom_bond_distance
_geom_bond_site_symmetry_2
Eu0 O2 2.630613 1_555
Eu0 O3 2.630613 1_555
Eu0 O1 2.630613 1_555
Eu0 O0 2.630613 1_555
Eu0 O11 2.704928 1_555
Eu0 O9 2.704928 1_555
Eu0 O5 2.763635 1_555
Eu0 O6 2.763635 1_555
Eu0 O11 2.961058 1_455
Eu0 O9 2.961058 1_545
Nb0 O4 2.007694 1_555
Nb0 O9 2.015956 1_555
Nb0 O1 2.016960 1_555
Nb0 O8 2.020859 1_566
Nb0 O5 2.021320 1_565
Nb0 O0 2.026169 1_565
Nb1 O7 2.007694 1_555
Nb1 O9 2.015956 1_555
Nb1 O2 2.016960 1_555
Nb1 O8 2.020859 1_565
Nb1 O6 2.021320 1_565
Nb1 O3 2.026169 1_565
Nb2 O7 2.007694 1_555
Nb2 O11 2.015956 1_555
Nb2 O3 2.016960 1_555
Nb2 O10 2.020859 1_655
Nb2 O6 2.021320 1_655
Nb2 O2 2.026169 1_655
Nb3 O4 2.007694 1_555
Nb3 O11 2.015956 1_555
Nb3 O0 2.016960 1_555
Nb3 O10 2.020859 1_656
Nb3 O5 2.021320 1_655
Nb3 O1 2.026169 1_655
O0 Sr0 3.024120 1_656
O1 Sr0 3.024120 1_566
O2 Sr0 3.024120 1_565
O3 Sr0 3.024120 1_655
O4 Sr0 2.538400 1_666
O5 Sr0 2.838279 1_556
O6 Sr0 2.838279 1_555
O7 Sr0 2.538400 1_665
O8 Sr0 2.585185 1_555
O8 Sr0 3.065773 1_655
O10 Sr0 2.585185 1_555
O10 Sr0 3.065773 1_565
