# generated using pymatgen
data_Pr6Cu8P8O3
_symmetry_space_group_name_H-M   'P 1'
_cell_length_a   13.54502211
_cell_length_b   13.54502211
_cell_length_c   5.64233100
_cell_angle_alpha   90.00000000
_cell_angle_beta   90.00000000
_cell_angle_gamma   155.95622060
_symmetry_Int_Tables_number   1
_chemical_formula_structural   Pr6Cu8P8O3
_chemical_formula_sum   'Pr6 Cu8 P8 O3'
_cell_volume   421.77016967
_cell_formula_units_Z   1
loop_
 _symmetry_equiv_pos_site_id
 _symmetry_equiv_pos_as_xyz
  1  'x, y, z'
loop_
 _atom_site_type_symbol
 _atom_site_label
 _atom_site_symmetry_multiplicity
 _atom_site_fract_x
 _atom_site_fract_y
 _atom_site_fract_z
 _atom_site_occupancy
  Pr  Pr0  1  0.68628100  0.78685500  0.73657200  1
  Pr  Pr1  1  0.21314500  0.31371900  0.26342800  1
  Pr  Pr2  1  0.78685500  0.68628100  0.26342800  1
  Pr  Pr3  1  0.31371900  0.21314500  0.73657200  1
  Pr  Pr4  1  0.50000000  0.00000000  0.24981100  1
  Pr  Pr5  1  0.00000000  0.50000000  0.75018900  1
  Cu  Cu0  1  0.65482400  0.34517600  0.50000000  1
  Cu  Cu1  1  0.15568700  0.84431300  0.00000000  1
  Cu  Cu2  1  0.15500300  0.84499700  0.50000000  1
  Cu  Cu3  1  0.65494300  0.34505700  0.00000000  1
  Cu  Cu4  1  0.84499700  0.15500300  0.50000000  1
  Cu  Cu5  1  0.34505700  0.65494300  0.00000000  1
  Cu  Cu6  1  0.34517600  0.65482400  0.50000000  1
  Cu  Cu7  1  0.84431300  0.15568700  0.00000000  1
  P  P0  1  0.86101100  0.64678900  0.75399500  1
  P  P1  1  0.35321100  0.13898900  0.24600500  1
  P  P2  1  0.64678900  0.86101100  0.24600500  1
  P  P3  1  0.13898900  0.35321100  0.75399500  1
  P  P4  1  0.54301500  0.95663900  0.74934200  1
  P  P5  1  0.04336100  0.45698500  0.25065800  1
  P  P6  1  0.95663900  0.54301500  0.25065800  1
  P  P7  1  0.45698500  0.04336100  0.74934200  1
  O  O0  1  0.50000000  0.50000000  0.50000000  1
  O  O1  1  0.50000000  0.50000000  0.00000000  1
  O  O2  1  0.00000000  0.00000000  0.50000000  1
loop_
_geom_bond_atom_site_label_1
_geom_bond_atom_site_label_2
_geom_bond_distance
_geom_bond_site_symmetry_2
Cu0 P1 2.388398 1_555
Cu0 P0 2.388398 1_555
Cu0 P7 2.421526 1_555
Cu0 P6 2.421526 1_555
Cu0 Pr4 3.215888 1_555
Cu0 Pr5 3.215888 1_655
Cu1 P0 2.347644 1_454
Cu1 P1 2.347644 1_565
Cu1 P6 2.414078 1_455
Cu1 P7 2.414078 1_564
Cu1 Pr5 3.197048 1_554
Cu1 Pr4 3.197048 1_565
Cu2 P0 2.364803 1_455
Cu2 P1 2.364803 1_565
Cu2 P6 2.419969 1_455
Cu2 P7 2.419969 1_565
Cu2 Pr5 3.212170 1_555
Cu2 Pr4 3.212170 1_565
Cu3 P0 2.363312 1_554
Cu3 P1 2.363312 1_555
Cu3 P6 2.424058 1_555
Cu3 P7 2.424058 1_554
Cu3 Pr5 3.212480 1_654
Cu3 Pr4 3.212480 1_555
Cu4 P2 2.364803 1_545
Cu4 P3 2.364803 1_655
Cu4 P5 2.419969 1_655
Cu4 P4 2.419969 1_545
Cu4 Pr5 3.212170 1_655
Cu4 Pr4 3.212170 1_555
Cu5 P2 2.363312 1_555
Cu5 P3 2.363312 1_554
Cu5 P4 2.424058 1_554
Cu5 P5 2.424058 1_555
Cu5 Pr5 3.212480 1_554
Cu5 Pr4 3.212480 1_565
Cu6 P2 2.388398 1_555
Cu6 P3 2.388398 1_555
Cu6 P4 2.421526 1_555
Cu6 P5 2.421526 1_555
Cu6 Pr5 3.215888 1_555
Cu6 Pr4 3.215888 1_565
Cu7 P2 2.347644 1_545
Cu7 P3 2.347644 1_654
Cu7 P5 2.414078 1_655
Cu7 P4 2.414078 1_544
Cu7 Pr5 3.197048 1_654
Cu7 Pr4 3.197048 1_555
P0 Pr3 3.152025 1_555
P0 Pr2 3.152444 1_555
P0 Pr2 3.246309 1_556
P0 Pr3 3.246877 1_665
P1 Pr2 3.152025 1_555
P1 Pr3 3.152444 1_555
P1 Pr3 3.246309 1_554
P1 Pr2 3.246877 1_445
P2 Pr1 3.152025 1_555
P2 Pr0 3.152444 1_555
P2 Pr0 3.246309 1_554
P2 Pr1 3.246877 1_665
P3 Pr0 3.152025 1_555
P3 Pr1 3.152444 1_555
P3 Pr1 3.246309 1_556
P3 Pr0 3.246877 1_445
P4 P7 2.288611 1_565
P4 Pr4 3.041954 1_565
P4 Pr5 3.043565 1_555
P4 Pr5 3.045374 1_665
P4 Pr4 3.046859 1_566
P5 P6 2.288611 1_455
P5 Pr5 3.041954 1_555
P5 Pr4 3.043565 1_565
P5 Pr4 3.045374 1_455
P5 Pr5 3.046859 1_554
P6 Pr5 3.041954 1_655
P6 Pr4 3.043565 1_555
P6 Pr4 3.045374 1_665
P6 Pr5 3.046859 1_654
P7 Pr4 3.041954 1_555
P7 Pr5 3.043565 1_655
P7 Pr5 3.045374 1_545
P7 Pr4 3.046859 1_556
O0 Pr2 2.310581 1_555
O0 Pr0 2.310581 1_555
O0 Pr1 2.310581 1_555
O0 Pr3 2.310581 1_555
O1 Pr2 2.401308 1_555
O1 Pr0 2.401308 1_554
O1 Pr3 2.401308 1_554
O1 Pr1 2.401308 1_555
O2 Pr0 2.401338 1_445
O2 Pr2 2.401338 1_445
O2 Pr1 2.401338 1_555
O2 Pr3 2.401338 1_555
