# generated using pymatgen
data_LaSm3O6
_symmetry_space_group_name_H-M   'P 1'
_cell_length_a   7.48963763
_cell_length_b   7.48963763
_cell_length_c   18.05839455
_cell_angle_alpha   79.75171022
_cell_angle_beta   79.75171022
_cell_angle_gamma   28.39334896
_symmetry_Int_Tables_number   1
_chemical_formula_structural   LaSm3O6
_chemical_formula_sum   'La3 Sm9 O18'
_cell_volume   473.51322716
_cell_formula_units_Z   3
loop_
 _symmetry_equiv_pos_site_id
 _symmetry_equiv_pos_as_xyz
  1  'x, y, z'
loop_
 _atom_site_type_symbol
 _atom_site_label
 _atom_site_symmetry_multiplicity
 _atom_site_fract_x
 _atom_site_fract_y
 _atom_site_fract_z
 _atom_site_occupancy
  La  La0  1  0.31012700  0.31012700  0.06878500  1
  La  La1  1  0.31090500  0.31090500  0.57007800  1
  La  La2  1  0.68901900  0.68901900  0.43016100  1
  Sm  Sm0  1  0.69006700  0.69006700  0.93054500  1
  Sm  Sm1  1  0.03395700  0.03395700  0.09394500  1
  Sm  Sm2  1  0.03312600  0.03312600  0.59531900  1
  Sm  Sm3  1  0.96685700  0.96685700  0.40521600  1
  Sm  Sm4  1  0.96794700  0.96794700  0.90552700  1
  Sm  Sm5  1  0.36685600  0.36685600  0.24495000  1
  Sm  Sm6  1  0.36570900  0.36570900  0.74647100  1
  Sm  Sm7  1  0.63316600  0.63316600  0.25469400  1
  Sm  Sm8  1  0.63377600  0.63377600  0.75584400  1
  O  O0  1  0.52890800  0.52890800  0.17111500  1
  O  O1  1  0.52856100  0.52856100  0.67172800  1
  O  O2  1  0.47141700  0.47141700  0.32843100  1
  O  O3  1  0.47176500  0.47176500  0.82853400  1
  O  O4  1  0.17353400  0.17353400  0.01204200  1
  O  O5  1  0.17356100  0.17356100  0.51547700  1
  O  O6  1  0.82642400  0.82642400  0.48458600  1
  O  O7  1  0.82452600  0.82452600  0.98304300  1
  O  O8  1  0.20112900  0.20112900  0.18937700  1
  O  O9  1  0.20103800  0.20103800  0.69027300  1
  O  O10  1  0.79891000  0.79891000  0.30991700  1
  O  O11  1  0.79657200  0.79657200  0.81238800  1
  O  O12  1  0.49995900  0.49995900  0.49990500  1
  O  O13  1  0.50069500  0.50069500  0.99960200  1
  O  O14  1  0.87406200  0.87406200  0.14355700  1
  O  O15  1  0.87348500  0.87348500  0.64506500  1
  O  O16  1  0.12623100  0.12623100  0.35547700  1
  O  O17  1  0.12771000  0.12771000  0.85794900  1
loop_
_geom_bond_atom_site_label_1
_geom_bond_atom_site_label_2
_geom_bond_distance
_geom_bond_site_symmetry_2
La0 O7 2.386693 1_544
La0 O7 2.386693 1_454
La0 O4 2.393863 1_555
La0 O8 2.445937 1_555
La0 O14 2.553303 1_455
La0 O14 2.553303 1_545
La0 O13 2.819626 1_554
La1 O5 2.381591 1_555
La1 O6 2.383389 1_455
La1 O6 2.383389 1_545
La1 O9 2.446560 1_555
La1 O15 2.546615 1_545
La1 O15 2.546615 1_455
La1 O12 2.804665 1_555
La2 O6 2.380598 1_555
La2 O5 2.381408 1_565
La2 O5 2.381408 1_655
La2 O10 2.447409 1_555
La2 O16 2.544726 1_655
La2 O16 2.544726 1_565
La2 O12 2.802644 1_555
O0 Sm1 2.298671 1_565
O0 Sm1 2.298671 1_655
O0 Sm7 2.325716 1_555
O0 Sm5 2.482759 1_555
O1 Sm2 2.291009 1_655
O1 Sm2 2.291009 1_565
O1 Sm8 2.343871 1_555
O1 Sm6 2.498596 1_555
O2 Sm3 2.295075 1_545
O2 Sm3 2.295075 1_455
O2 Sm5 2.327747 1_555
O2 Sm7 2.478379 1_555
O3 Sm4 2.298238 1_545
O3 Sm4 2.298238 1_455
O3 Sm6 2.325037 1_555
O3 Sm8 2.474818 1_555
O4 Sm1 2.279381 1_555
O4 Sm0 2.338345 1_454
O4 Sm0 2.338345 1_544
O5 Sm2 2.271262 1_555
O6 Sm3 2.267245 1_555
O7 Sm4 2.286302 1_555
O7 Sm0 2.321806 1_555
O8 Sm7 2.304786 1_455
O8 Sm7 2.304786 1_545
O8 Sm5 2.772291 1_555
O9 Sm8 2.303401 1_545
O9 Sm8 2.303401 1_455
O9 Sm6 2.763884 1_555
O10 Sm5 2.301973 1_565
O10 Sm5 2.301973 1_655
O10 Sm7 2.769232 1_555
O11 Sm6 2.315229 1_565
O11 Sm6 2.315229 1_655
O11 Sm0 2.394499 1_555
O11 Sm8 2.741820 1_555
O12 Sm3 2.613545 1_455
O12 Sm3 2.613545 1_545
O12 Sm2 2.622857 1_655
O12 Sm2 2.622857 1_565
O13 Sm4 2.604370 1_455
O13 Sm4 2.604370 1_545
O13 Sm1 2.609958 1_566
O13 Sm1 2.609958 1_656
O13 Sm0 2.803399 1_555
O14 Sm1 2.330372 1_665
O14 Sm5 2.582084 1_565
O14 Sm5 2.582084 1_655
O15 Sm2 2.327448 1_665
O15 Sm6 2.581520 1_565
O15 Sm6 2.581520 1_655
O16 Sm3 2.323835 1_445
O16 Sm7 2.574720 1_455
O16 Sm7 2.574720 1_545
O17 Sm4 2.321460 1_445
O17 Sm0 2.519591 1_455
O17 Sm0 2.519591 1_545
O17 Sm8 2.592667 1_545
O17 Sm8 2.592667 1_455
