# generated using pymatgen
data_Yb4Ga21Ni10
_symmetry_space_group_name_H-M   'P 1'
_cell_length_a   10.59335959
_cell_length_b   10.59335959
_cell_length_c   15.46092737
_cell_angle_alpha   56.68457945
_cell_angle_beta   56.68457945
_cell_angle_gamma   22.16997908
_symmetry_Int_Tables_number   1
_chemical_formula_structural   Yb4Ga21Ni10
_chemical_formula_sum   'Yb4 Ga21 Ni10'
_cell_volume   542.56560241
_cell_formula_units_Z   1
loop_
 _symmetry_equiv_pos_site_id
 _symmetry_equiv_pos_as_xyz
  1  'x, y, z'
loop_
 _atom_site_type_symbol
 _atom_site_label
 _atom_site_symmetry_multiplicity
 _atom_site_fract_x
 _atom_site_fract_y
 _atom_site_fract_z
 _atom_site_occupancy
  Yb  Yb0  1  0.87956200  0.87956200  0.33288200  1
  Yb  Yb1  1  0.12043800  0.12043800  0.66711800  1
  Yb  Yb2  1  0.23013300  0.23013300  0.17488600  1
  Yb  Yb3  1  0.76986700  0.76986700  0.82511400  1
  Ga  Ga0  1  0.45939100  0.45939100  0.36830900  1
  Ga  Ga1  1  0.54060900  0.54060900  0.63169100  1
  Ga  Ga2  1  0.79855500  0.79855500  0.00247600  1
  Ga  Ga3  1  0.20144500  0.20144500  0.99752400  1
  Ga  Ga4  1  0.70299400  0.70299400  0.49647200  1
  Ga  Ga5  1  0.29700600  0.29700600  0.50352800  1
  Ga  Ga6  1  0.88313400  0.88313400  0.55159700  1
  Ga  Ga7  1  0.11686600  0.11686600  0.44840300  1
  Ga  Ga8  1  0.61656800  0.61656800  0.29622300  1
  Ga  Ga9  1  0.38343200  0.38343200  0.70377700  1
  Ga  Ga10  1  0.75253700  0.75253700  0.29344000  1
  Ga  Ga11  1  0.24746300  0.24746300  0.70656000  1
  Ga  Ga12  1  0.60315000  0.60315000  0.00142100  1
  Ga  Ga13  1  0.39685000  0.39685000  0.99857900  1
  Ga  Ga14  1  0.99255300  0.99255300  0.09277700  1
  Ga  Ga15  1  0.00744700  0.00744700  0.90722300  1
  Ga  Ga16  1  0.93486400  0.93486400  0.79375700  1
  Ga  Ga17  1  0.06513600  0.06513600  0.20624300  1
  Ga  Ga18  1  0.50000000  0.50000000  0.50000000  1
  Ga  Ga19  1  0.37179100  0.37179100  0.19719200  1
  Ga  Ga20  1  0.62820900  0.62820900  0.80280800  1
  Ni  Ni0  1  0.49838400  0.49838400  0.18520400  1
  Ni  Ni1  1  0.50161600  0.50161600  0.81479600  1
  Ni  Ni2  1  0.86719000  0.86719000  0.10326700  1
  Ni  Ni3  1  0.13281000  0.13281000  0.89673300  1
  Ni  Ni4  1  0.74933600  0.74933600  0.61497700  1
  Ni  Ni5  1  0.25066400  0.25066400  0.38502300  1
  Ni  Ni6  1  0.65212100  0.65212100  0.11384900  1
  Ni  Ni7  1  0.34787900  0.34787900  0.88615100  1
  Ni  Ni8  1  0.97597400  0.97597400  0.60589200  1
  Ni  Ni9  1  0.02402600  0.02402600  0.39410800  1
loop_
_geom_bond_atom_site_label_1
_geom_bond_atom_site_label_2
_geom_bond_distance
_geom_bond_site_symmetry_2
Ga0 Ni0 2.470335 1_555
Ga0 Ni9 2.591012 1_655
Ga0 Ni9 2.591012 1_565
Ga0 Ga18 2.604371 1_555
Ga0 Ga5 2.805088 1_555
Ga0 Yb0 2.867181 1_455
Ga0 Yb0 2.867181 1_545
Ga1 Ni1 2.470335 1_555
Ga1 Ni8 2.591012 1_545
Ga1 Ni8 2.591012 1_455
Ga1 Ga18 2.604371 1_555
Ga1 Ga4 2.805088 1_555
Ga1 Yb1 2.867181 1_655
Ga1 Yb1 2.867181 1_565
Ga2 Ni6 2.523108 1_555
Ga2 Ni7 2.523879 1_564
Ga2 Ni7 2.523879 1_654
Ga2 Ni2 2.637041 1_555
Ga2 Ga3 2.898925 1_654
Ga2 Ga3 2.898925 1_564
Ga2 Yb2 3.005458 1_655
Ga2 Yb2 3.005458 1_565
Ga2 Yb3 3.115478 1_554
Ga3 Ni7 2.523108 1_555
Ga3 Ni6 2.523879 1_546
Ga3 Ni6 2.523879 1_456
Ga3 Ni3 2.637041 1_555
Ga3 Yb3 3.005458 1_545
Ga3 Yb3 3.005458 1_455
Ga3 Yb2 3.115478 1_556
Ga4 Ni5 2.487570 1_565
Ga4 Ni5 2.487570 1_655
Ga4 Ni4 2.502281 1_555
Ga4 Ga5 2.866968 1_565
Ga4 Ga5 2.866968 1_655
Ga4 Yb1 2.997688 1_565
Ga4 Yb1 2.997688 1_655
Ga4 Ga7 3.065458 1_565
Ga4 Ga7 3.065458 1_655
Ga4 Yb0 3.079044 1_555
Ga5 Ni4 2.487570 1_455
Ga5 Ni4 2.487570 1_545
Ga5 Ni5 2.502281 1_555
Ga5 Yb0 2.997688 1_545
Ga5 Yb0 2.997688 1_455
Ga5 Ga6 3.065458 1_545
Ga5 Ga6 3.065458 1_455
Ga5 Yb1 3.079044 1_555
Ga6 Ni4 2.376454 1_555
Ga6 Ni8 2.498892 1_555
Ga6 Ni9 2.554543 1_665
Ga6 Yb0 3.423656 1_555
Ga7 Ni5 2.376454 1_555
Ga7 Ni9 2.498892 1_555
Ga7 Ni8 2.554543 1_445
Ga7 Yb1 3.423656 1_555
Ga8 Ni6 2.482708 1_555
Ga8 Ni9 2.623206 1_565
Ga8 Ni9 2.623206 1_655
Ga8 Yb2 2.878268 1_565
Ga8 Yb2 2.878268 1_655
Ga9 Ni7 2.482708 1_555
Ga9 Ni8 2.623206 1_545
Ga9 Ni8 2.623206 1_455
Ga9 Yb3 2.878268 1_545
Ga9 Yb3 2.878268 1_455
Ga10 Ni5 2.468401 1_655
Ga10 Ni5 2.468401 1_565
Ga10 Ni2 2.545954 1_555
Ga10 Ga4 2.700981 1_555
Ga10 Ga8 2.803136 1_555
Ga10 Ga19 2.894872 1_565
Ga10 Ga19 2.894872 1_655
Ga10 Yb2 2.946305 1_565
Ga10 Yb2 2.946305 1_655
Ga10 Yb0 3.024849 1_555
Ga11 Ni4 2.468401 1_545
Ga11 Ni4 2.468401 1_455
Ga11 Ni3 2.545954 1_555
Ga11 Ga5 2.700981 1_555
Ga11 Ga9 2.803136 1_555
Ga11 Ga20 2.894872 1_545
Ga11 Ga20 2.894872 1_455
Ga11 Yb3 2.946305 1_545
Ga11 Yb3 2.946305 1_455
Ga11 Yb1 3.024849 1_555
Ga12 Ni0 2.427002 1_555
Ga12 Ni3 2.455820 1_564
Ga12 Ni3 2.455820 1_654
Ga12 Ni6 2.457496 1_555
Ga12 Ga14 2.791995 1_545
Ga12 Ga14 2.791995 1_455
Ga12 Ga20 2.812475 1_554
Ga12 Ga3 2.861950 1_564
Ga12 Ga3 2.861950 1_654
Ga12 Yb3 2.978068 1_554
Ga13 Ni1 2.427002 1_555
Ga13 Ni2 2.455820 1_456
Ga13 Ni2 2.455820 1_546
Ga13 Ni7 2.457496 1_555
Ga13 Ga15 2.791995 1_565
Ga13 Ga15 2.791995 1_655
Ga13 Ga19 2.812475 1_556
Ga13 Ga2 2.861950 1_456
Ga13 Ga2 2.861950 1_546
Ga13 Yb2 2.978068 1_556
Ga14 Ni2 2.519292 1_555
Ga14 Ni0 2.529617 1_565
Ga14 Ni0 2.529617 1_655
Ga14 Ga15 2.707707 1_664
Ga14 Ni3 2.792295 1_664
Ga14 Ga17 2.884161 1_665
Ga14 Ga19 2.919139 1_565
Ga14 Ga19 2.919139 1_655
Ga14 Yb0 3.088307 1_555
Ga15 Ni3 2.519292 1_555
Ga15 Ni1 2.529617 1_455
Ga15 Ni1 2.529617 1_545
Ga15 Ni2 2.792295 1_446
Ga15 Ga16 2.884161 1_445
Ga15 Ga20 2.919139 1_545
Ga15 Ga20 2.919139 1_455
Ga15 Yb1 3.088307 1_555
Ga16 Ni8 2.527463 1_555
Ga16 Ni7 2.562770 1_565
Ga16 Ni7 2.562770 1_655
Ga16 Ni1 2.585655 1_565
Ga16 Ni1 2.585655 1_655
Ga16 Ga2 2.864977 1_556
Ga16 Yb3 3.184627 1_555
Ga16 Yb1 3.203768 1_665
Ga17 Ni9 2.527463 1_555
Ga17 Ni6 2.562770 1_455
Ga17 Ni6 2.562770 1_545
Ga17 Ni0 2.585655 1_545
Ga17 Ni0 2.585655 1_455
Ga17 Ga3 2.864977 1_554
Ga17 Yb2 3.184627 1_555
Ga17 Yb0 3.203768 1_445
Ga18 Ni9 2.482484 1_655
Ga18 Ni9 2.482484 1_565
Ga18 Ni8 2.482484 1_545
Ga18 Ni8 2.482484 1_455
Ga18 Ga8 2.693087 1_555
Ga18 Ga9 2.693087 1_555
Ga18 Ga7 2.918715 1_565
Ga18 Ga7 2.918715 1_655
Ga18 Ga6 2.918715 1_455
Ga18 Ga6 2.918715 1_545
Ga19 Ni0 2.532976 1_555
Ga19 Ni2 2.534110 1_455
Ga19 Ni2 2.534110 1_545
Ga19 Ni5 2.566939 1_555
Ga19 Yb0 2.992483 1_455
Ga19 Yb0 2.992483 1_545
Ga19 Yb2 3.151281 1_555
Ga20 Ni1 2.532976 1_555
Ga20 Ni3 2.534110 1_565
Ga20 Ni3 2.534110 1_655
Ga20 Ni4 2.566939 1_555
Ga20 Yb1 2.992483 1_565
Ga20 Yb1 2.992483 1_655
Ga20 Yb3 3.151281 1_555
Ni0 Ni6 2.736209 1_555
Ni0 Yb0 3.025003 1_455
Ni0 Yb0 3.025003 1_545
Ni1 Ni7 2.736209 1_555
Ni1 Yb1 3.025003 1_565
Ni1 Yb1 3.025003 1_655
Ni2 Yb2 3.156361 1_565
Ni2 Yb2 3.156361 1_655
Ni3 Yb3 3.156361 1_545
Ni3 Yb3 3.156361 1_455
Ni4 Yb1 3.092255 1_655
Ni4 Yb1 3.092255 1_565
Ni5 Yb0 3.092255 1_455
Ni5 Yb0 3.092255 1_545
Ni6 Yb2 3.063172 1_565
Ni6 Yb2 3.063172 1_655
Ni7 Yb3 3.063172 1_545
Ni7 Yb3 3.063172 1_455
