# generated using pymatgen
data_Ba2MgMn2(P2O7)2
_symmetry_space_group_name_H-M   'P 1'
_cell_length_a   5.57955571
_cell_length_b   8.49636451
_cell_length_c   7.44199840
_cell_angle_alpha   103.32002362
_cell_angle_beta   90.39825773
_cell_angle_gamma   92.43952668
_symmetry_Int_Tables_number   1
_chemical_formula_structural   Ba2MgMn2(P2O7)2
_chemical_formula_sum   'Ba2 Mg1 Mn2 P4 O14'
_cell_volume   342.94209178
_cell_formula_units_Z   1
loop_
 _symmetry_equiv_pos_site_id
 _symmetry_equiv_pos_as_xyz
  1  'x, y, z'
loop_
 _atom_site_type_symbol
 _atom_site_label
 _atom_site_symmetry_multiplicity
 _atom_site_fract_x
 _atom_site_fract_y
 _atom_site_fract_z
 _atom_site_occupancy
  Ba  Ba0  1  0.23178200  0.83569800  0.96557900  1
  Ba  Ba1  1  0.79267800  0.25197000  0.07664100  1
  Mg  Mg0  1  0.76581000  0.09626100  0.47556700  1
  Mn  Mn0  1  0.19349900  0.59516200  0.41266900  1
  Mn  Mn1  1  0.79079200  0.42918000  0.64746000  1
  P  P0  1  0.69171300  0.70440800  0.20777700  1
  P  P1  1  0.28667600  0.29036400  0.80295100  1
  P  P2  1  0.71647800  0.80558100  0.61725500  1
  P  P3  1  0.27214200  0.18059000  0.37077700  1
  O  O0  1  0.49181400  0.08878300  0.28487900  1
  O  O1  1  0.47201700  0.71822700  0.62852400  1
  O  O2  1  0.74372700  0.98051800  0.72798200  1
  O  O3  1  0.04699900  0.07384600  0.29225500  1
  O  O4  1  0.26759600  0.35177900  0.34047800  1
  O  O5  1  0.93056300  0.69965200  0.63883600  1
  O  O6  1  0.73780400  0.83936800  0.40783900  1
  O  O7  1  0.28483900  0.17857300  0.58858800  1
  O  O8  1  0.08786100  0.41214400  0.82472100  1
  O  O9  1  0.86820000  0.57438200  0.22419900  1
  O  O10  1  0.53468000  0.37806400  0.83949800  1
  O  O11  1  0.42270800  0.65649000  0.20872300  1
  O  O12  1  0.24643000  0.16382400  0.91771500  1
  O  O13  1  0.74819200  0.79335000  0.05742000  1
loop_
_geom_bond_atom_site_label_1
_geom_bond_atom_site_label_2
_geom_bond_distance
_geom_bond_site_symmetry_2
Ba0 O13 2.816609 1_456
Ba0 O1 2.844605 1_555
Ba0 O11 2.847489 1_556
Ba0 O12 2.888669 1_565
Ba0 O5 2.925101 1_455
Ba0 O3 3.002209 1_566
Ba0 O13 3.012127 1_556
Ba0 O0 3.115662 1_566
Ba1 O10 2.702171 1_554
Ba1 O9 2.719667 1_555
Ba1 O0 2.823126 1_555
Ba1 O3 2.854614 1_655
Ba1 O12 2.857324 1_654
Ba1 O8 3.017813 1_654
Ba1 O2 3.050492 1_544
Ba1 O4 3.250403 1_655
Ba1 O12 3.255206 1_554
Mg0 O0 2.067623 1_555
Mg0 O3 2.072266 1_655
Mg0 O6 2.122595 1_545
Mg0 O2 2.314086 1_545
Mn0 O4 2.073549 1_555
Mn0 O11 2.131978 1_555
Mn0 O9 2.261853 1_455
Mn0 O1 2.267542 1_555
Mn0 O5 2.286934 1_455
Mn1 O10 2.129471 1_555
Mn1 O8 2.141620 1_655
Mn1 O5 2.410255 1_555
O0 P3 1.543333 1_555
O1 P2 1.537018 1_555
O2 P2 1.525117 1_555
O3 P3 1.546172 1_555
O4 P3 1.523546 1_555
O5 P2 1.555024 1_555
O6 P2 1.652641 1_555
O6 P0 1.667516 1_555
O7 P3 1.626067 1_555
O7 P1 1.657697 1_555
O8 P1 1.533081 1_555
O9 P0 1.535651 1_555
O10 P1 1.535440 1_555
O11 P0 1.538843 1_555
O12 P1 1.530030 1_555
O13 P0 1.515481 1_555
