# generated using pymatgen
data_Li7Mn4CoO12
_symmetry_space_group_name_H-M   'P 1'
_cell_length_a   5.03510000
_cell_length_b   5.09184958
_cell_length_c   8.95392176
_cell_angle_alpha   91.73497205
_cell_angle_beta   92.45397035
_cell_angle_gamma   108.01418593
_symmetry_Int_Tables_number   1
_chemical_formula_structural   Li7Mn4CoO12
_chemical_formula_sum   'Li7 Mn4 Co1 O12'
_cell_volume   217.87823491
_cell_formula_units_Z   1
loop_
 _symmetry_equiv_pos_site_id
 _symmetry_equiv_pos_as_xyz
  1  'x, y, z'
loop_
 _atom_site_type_symbol
 _atom_site_label
 _atom_site_symmetry_multiplicity
 _atom_site_fract_x
 _atom_site_fract_y
 _atom_site_fract_z
 _atom_site_occupancy
  Li  Li0  1  0.00455900  0.50336000  0.16155200  1
  Li  Li1  1  0.50872000  0.50506700  0.33246100  1
  Li  Li2  1  0.98028500  0.48549300  0.51174000  1
  Li  Li3  1  0.49373800  0.50013900  0.67501200  1
  Li  Li4  1  0.01488400  0.51104000  0.82184300  1
  Li  Li5  1  0.49736500  0.49480300  0.99119100  1
  Li  Li6  1  0.49937300  0.00264700  0.82943200  1
  Mn  Mn0  1  0.01116800  0.00734900  0.99429900  1
  Mn  Mn1  1  0.99729900  0.99626800  0.67151100  1
  Mn  Mn2  1  0.50813900  0.00628800  0.16322700  1
  Mn  Mn3  1  0.99686400  0.99843700  0.33673000  1
  Co  Co0  1  0.48836900  0.98675100  0.51108300  1
  O  O0  1  0.25672200  0.77251400  0.01309200  1
  O  O1  1  0.74522800  0.77044800  0.17866800  1
  O  O2  1  0.27366000  0.79408500  0.32702400  1
  O  O3  1  0.73609600  0.76347400  0.51321600  1
  O  O4  1  0.23030400  0.76345200  0.65940500  1
  O  O5  1  0.78869300  0.77995900  0.82731000  1
  O  O6  1  0.75357100  0.23412500  0.32673100  1
  O  O7  1  0.22738000  0.20824900  0.50776300  1
  O  O8  1  0.74478200  0.21961900  0.65454000  1
  O  O9  1  0.23355200  0.24461200  0.81829100  1
  O  O10  1  0.74265800  0.21608100  0.01654800  1
  O  O11  1  0.26659000  0.23574000  0.15732900  1
loop_
_geom_bond_atom_site_label_1
_geom_bond_atom_site_label_2
_geom_bond_distance
_geom_bond_site_symmetry_2
Li0 O10 2.027245 1_455
Li0 O0 2.106167 1_555
Li0 O2 2.162676 1_555
Li0 O1 2.163531 1_455
Li0 O11 2.170750 1_555
Li0 O6 2.207978 1_455
Li1 O1 2.097178 1_555
Li1 O3 2.107622 1_555
Li1 O6 2.116350 1_555
Li1 O11 2.120842 1_555
Li1 O2 2.155357 1_555
Li1 O7 2.400940 1_555
Li2 O4 1.994548 1_655
Li2 O8 2.028659 1_555
Li2 O6 2.119310 1_555
Li2 O3 2.142893 1_555
Li2 O7 2.151531 1_655
Li2 O2 2.513465 1_655
Li3 O9 2.060517 1_555
Li3 O5 2.120237 1_555
Li3 O3 2.154710 1_555
Li3 O4 2.161467 1_555
Li3 O7 2.170396 1_555
Li3 O8 2.189133 1_555
Li4 O9 1.994456 1_555
Li4 O5 2.034627 1_455
Li4 O4 2.080828 1_555
Li4 O8 2.176757 1_455
Li4 O0 2.206446 1_556
Li4 O10 2.502740 1_456
Li5 O9 2.107586 1_555
Li5 O0 2.137623 1_556
Li5 O11 2.149876 1_556
Li5 O10 2.161192 1_556
Li5 O1 2.222586 1_556
Li5 O5 2.325753 1_555
Li6 O4 2.080169 1_545
Li6 O9 2.082124 1_555
Li6 O10 2.092668 1_556
Li6 O5 2.104977 1_545
Li6 O8 2.150764 1_555
Li6 O0 2.230111 1_546
Mn0 O5 1.944373 1_445
Mn0 O0 1.973714 1_546
Mn0 O10 1.973859 1_456
Mn0 O11 1.987131 1_556
Mn0 O9 2.150973 1_555
Mn0 O1 2.298730 1_446
Mn1 O9 1.891155 1_665
Mn1 O4 1.912276 1_655
Mn1 O5 1.940462 1_555
Mn1 O8 1.954820 1_565
Mn1 O3 1.979418 1_555
Mn1 O7 2.030939 1_665
Mn2 O0 1.911008 1_545
Mn2 O10 1.923004 1_555
Mn2 O11 1.929793 1_555
Mn2 O1 1.941350 1_545
Mn2 O6 1.967694 1_555
Mn2 O2 2.041466 1_545
Mn3 O1 1.947615 1_555
Mn3 O7 1.953333 1_665
Mn3 O6 1.963479 1_565
Mn3 O2 1.983553 1_655
Mn3 O3 2.230034 1_555
Mn3 O11 2.274677 1_665
Co0 O8 1.881933 1_565
Co0 O3 1.930049 1_555
Co0 O7 1.978670 1_565
Co0 O2 1.985140 1_555
Co0 O4 2.017513 1_555
Co0 O6 2.317050 1_565
