# generated using pymatgen
data_Ba2CaCo2CuF14
_symmetry_space_group_name_H-M   'P 1'
_cell_length_a   7.47396690
_cell_length_b   7.47396690
_cell_length_c   14.92827368
_cell_angle_alpha   88.23039599
_cell_angle_beta   88.23039599
_cell_angle_gamma   42.68233081
_symmetry_Int_Tables_number   1
_chemical_formula_structural   Ba2CaCo2CuF14
_chemical_formula_sum   'Ba4 Ca2 Co4 Cu2 F28'
_cell_volume   565.01488453
_cell_formula_units_Z   2
loop_
 _symmetry_equiv_pos_site_id
 _symmetry_equiv_pos_as_xyz
  1  'x, y, z'
loop_
 _atom_site_type_symbol
 _atom_site_label
 _atom_site_symmetry_multiplicity
 _atom_site_fract_x
 _atom_site_fract_y
 _atom_site_fract_z
 _atom_site_occupancy
  Ba  Ba0  1  0.11803200  0.25617700  0.12725100  1
  Ba  Ba1  1  0.26151800  0.11996500  0.62757800  1
  Ba  Ba2  1  0.88003500  0.73848200  0.37242200  1
  Ba  Ba3  1  0.74382300  0.88196800  0.87274900  1
  Ca  Ca0  1  0.41699400  0.58300600  0.00000000  1
  Ca  Ca1  1  0.57941000  0.42059000  0.50000000  1
  Co  Co0  1  0.09226000  0.14608500  0.87422700  1
  Co  Co1  1  0.90405000  0.85099500  0.62541800  1
  Co  Co2  1  0.14900500  0.09595000  0.37458200  1
  Co  Co3  1  0.85391500  0.90774000  0.12577300  1
  Cu  Cu0  1  0.49898000  0.49450800  0.74907700  1
  Cu  Cu1  1  0.50549200  0.50102000  0.25092300  1
  F  F0  1  0.92266200  0.06332600  0.40340400  1
  F  F1  1  0.87756900  0.39573700  0.29422200  1
  F  F2  1  0.11829600  0.60547900  0.20379600  1
  F  F3  1  0.65082700  0.84213800  0.15257500  1
  F  F4  1  0.61374900  0.49267400  0.13262100  1
  F  F5  1  0.50732600  0.38625100  0.86737900  1
  F  F6  1  0.39452100  0.88170400  0.79620400  1
  F  F7  1  0.93667400  0.07733800  0.59659600  1
  F  F8  1  0.35594000  0.95919900  0.97287800  1
  F  F9  1  0.34525700  0.15255700  0.34838400  1
  F  F10  1  0.82208500  0.41857200  0.95748900  1
  F  F11  1  0.15786200  0.34917300  0.84742500  1
  F  F12  1  0.42288200  0.81982900  0.45950700  1
  F  F13  1  0.18017100  0.57711800  0.54049300  1
  F  F14  1  0.49996100  0.60787700  0.63427800  1
  F  F15  1  0.65556900  0.02570200  0.53095000  1
  F  F16  1  0.12692000  0.69997500  0.72657000  1
  F  F17  1  0.08024600  0.93127700  0.09542200  1
  F  F18  1  0.86776100  0.29687200  0.76672900  1
  F  F19  1  0.70312800  0.13223900  0.23327100  1
  F  F20  1  0.60426300  0.12243100  0.70577800  1
  F  F21  1  0.58142800  0.17791500  0.04251100  1
  F  F22  1  0.97429800  0.34443100  0.46905000  1
  F  F23  1  0.30002500  0.87308000  0.27343000  1
  F  F24  1  0.39212300  0.50003900  0.36572200  1
  F  F25  1  0.06872300  0.91975400  0.90457800  1
  F  F26  1  0.04080100  0.64406000  0.02712200  1
  F  F27  1  0.84744300  0.65474300  0.65161600  1
loop_
_geom_bond_atom_site_label_1
_geom_bond_atom_site_label_2
_geom_bond_distance
_geom_bond_site_symmetry_2
Ba0 F17 2.699988 1_545
Ba0 F3 2.734847 1_545
Ba0 F4 2.744341 1_455
Ba0 F1 2.767439 1_455
Ba0 F8 2.767554 1_544
Ba0 F26 2.880484 1_555
Ba0 F2 2.883279 1_555
Ba0 F23 2.980228 1_545
Ba0 F10 2.999534 1_454
Ba0 F3 3.008767 1_455
Ba0 F21 3.276312 1_555
Ba1 F7 2.725010 1_455
Ba1 F27 2.741426 1_455
Ba1 F6 2.787671 1_545
Ba1 F14 2.791697 1_545
Ba1 F22 2.792297 1_455
Ba1 F15 2.828543 1_555
Ba1 F20 2.860193 1_555
Ba1 F18 2.965683 1_455
Ba1 F12 2.994122 1_545
Ba1 F27 3.004824 1_545
Ba1 F13 3.233291 1_555
Ba2 F0 2.725010 1_565
Ba2 F9 2.741426 1_565
Ba2 F2 2.787671 1_655
Ba2 F24 2.791697 1_655
Ba2 F15 2.792297 1_565
Ba2 F22 2.828543 1_555
Ba2 F1 2.860193 1_555
Ba2 F19 2.965683 1_565
Ba2 F13 2.994122 1_655
Ba2 F9 3.004824 1_655
Ba2 F12 3.233291 1_555
Ba3 F25 2.699988 1_655
Ba3 F11 2.734847 1_655
Ba3 F5 2.744341 1_565
Ba3 F20 2.767439 1_565
Ba3 F26 2.767554 1_656
Ba3 F8 2.880484 1_555
Ba3 F6 2.883279 1_555
Ba3 F16 2.980228 1_655
Ba3 F21 2.999534 1_566
Ba3 F11 3.008767 1_565
Ba3 F10 3.276312 1_555
Ca0 F5 2.274970 1_554
Ca0 F4 2.274970 1_555
Ca0 F25 2.348340 1_554
Ca0 F17 2.348340 1_555
Ca0 F10 2.353418 1_554
Ca0 F21 2.353418 1_555
Ca0 F26 2.516411 1_555
Ca0 F8 2.516411 1_554
Ca1 F24 2.282078 1_555
Ca1 F14 2.282078 1_555
Ca1 F12 2.331867 1_555
Ca1 F13 2.331867 1_555
Ca1 F0 2.393452 1_555
Ca1 F7 2.393452 1_555
Ca1 F22 2.590403 1_555
Ca1 F15 2.590403 1_555
Co0 F25 1.866270 1_545
Co0 F10 1.930055 1_455
Co0 F11 1.936232 1_555
Co0 F6 1.944528 1_545
Co0 F18 1.983710 1_455
Co0 F8 2.002170 1_545
Co1 F27 1.830336 1_555
Co1 F16 1.901219 1_655
Co1 F15 1.904067 1_565
Co1 F7 1.913473 1_565
Co1 F13 1.960635 1_655
Co1 F20 1.968838 1_565
Co2 F9 1.830336 1_555
Co2 F23 1.901219 1_545
Co2 F22 1.904067 1_455
Co2 F0 1.913473 1_455
Co2 F12 1.960635 1_545
Co2 F1 1.968838 1_455
Co3 F17 1.866270 1_655
Co3 F21 1.930055 1_565
Co3 F3 1.936232 1_555
Co3 F2 1.944528 1_655
Co3 F19 1.983710 1_565
Co3 F26 2.002170 1_655
Cu0 F14 1.890401 1_555
Cu0 F5 1.903105 1_555
Cu0 F18 1.970593 1_555
Cu0 F16 1.987769 1_555
Cu0 F20 2.373332 1_555
Cu0 F6 2.499825 1_555
Cu1 F24 1.890401 1_555
Cu1 F4 1.903105 1_555
Cu1 F19 1.970593 1_555
Cu1 F23 1.987769 1_555
Cu1 F1 2.373332 1_555
Cu1 F2 2.499825 1_555
