# generated using pymatgen
data_BaGd2Sc2O7
_symmetry_space_group_name_H-M   'P 1'
_cell_length_a   5.82842600
_cell_length_b   5.82842600
_cell_length_c   20.06448500
_cell_angle_alpha   90.00000000
_cell_angle_beta   90.00000000
_cell_angle_gamma   90.00000000
_symmetry_Int_Tables_number   1
_chemical_formula_structural   BaGd2Sc2O7
_chemical_formula_sum   'Ba4 Gd8 Sc8 O28'
_cell_volume   681.60158364
_cell_formula_units_Z   4
loop_
 _symmetry_equiv_pos_site_id
 _symmetry_equiv_pos_as_xyz
  1  'x, y, z'
loop_
 _atom_site_type_symbol
 _atom_site_label
 _atom_site_symmetry_multiplicity
 _atom_site_fract_x
 _atom_site_fract_y
 _atom_site_fract_z
 _atom_site_occupancy
  Ba  Ba0  1  0.23611300  0.76388700  0.50000000  1
  Ba  Ba1  1  0.76388700  0.23611300  0.50000000  1
  Ba  Ba2  1  0.26388700  0.26388700  0.00000000  1
  Ba  Ba3  1  0.73611300  0.73611300  0.00000000  1
  Gd  Gd0  1  0.21651400  0.78348600  0.31440000  1
  Gd  Gd1  1  0.78348600  0.21651400  0.31440000  1
  Gd  Gd2  1  0.28348600  0.28348600  0.81440000  1
  Gd  Gd3  1  0.71651400  0.71651400  0.81440000  1
  Gd  Gd4  1  0.78348600  0.21651400  0.68560000  1
  Gd  Gd5  1  0.21651400  0.78348600  0.68560000  1
  Gd  Gd6  1  0.71651400  0.71651400  0.18560000  1
  Gd  Gd7  1  0.28348600  0.28348600  0.18560000  1
  Sc  Sc0  1  0.23847700  0.76152300  0.10422000  1
  Sc  Sc1  1  0.76152300  0.23847700  0.10422000  1
  Sc  Sc2  1  0.26152300  0.26152300  0.60422000  1
  Sc  Sc3  1  0.73847700  0.73847700  0.60422000  1
  Sc  Sc4  1  0.76152300  0.23847700  0.89578000  1
  Sc  Sc5  1  0.23847700  0.76152300  0.89578000  1
  Sc  Sc6  1  0.73847700  0.73847700  0.39578000  1
  Sc  Sc7  1  0.26152300  0.26152300  0.39578000  1
  O  O0  1  0.28689400  0.28689400  0.50000000  1
  O  O1  1  0.71310600  0.71310600  0.50000000  1
  O  O2  1  0.21310600  0.78689400  0.00000000  1
  O  O3  1  0.78689400  0.21310600  0.00000000  1
  O  O4  1  0.32099300  0.67900700  0.21287200  1
  O  O5  1  0.67900700  0.32099300  0.21287200  1
  O  O6  1  0.17900700  0.17900700  0.71287200  1
  O  O7  1  0.82099300  0.82099300  0.71287200  1
  O  O8  1  0.67900700  0.32099300  0.78712800  1
  O  O9  1  0.32099300  0.67900700  0.78712800  1
  O  O10  1  0.82099300  0.82099300  0.28712800  1
  O  O11  1  0.17900700  0.17900700  0.28712800  1
  O  O12  1  0.00000000  0.50000000  0.38309600  1
  O  O13  1  0.50000000  0.00000000  0.88309600  1
  O  O14  1  0.00000000  0.50000000  0.61690400  1
  O  O15  1  0.50000000  0.00000000  0.11690400  1
  O  O16  1  0.50000000  0.00000000  0.38309600  1
  O  O17  1  0.00000000  0.50000000  0.88309600  1
  O  O18  1  0.50000000  0.00000000  0.61690400  1
  O  O19  1  0.00000000  0.50000000  0.11690400  1
  O  O20  1  0.50000000  0.50000000  0.36560200  1
  O  O21  1  0.00000000  0.00000000  0.86560200  1
  O  O22  1  0.50000000  0.50000000  0.63439800  1
  O  O23  1  0.00000000  0.00000000  0.13439800  1
  O  O24  1  0.50000000  0.50000000  0.09565600  1
  O  O25  1  0.00000000  0.00000000  0.59565600  1
  O  O26  1  0.50000000  0.50000000  0.90434400  1
  O  O27  1  0.00000000  0.00000000  0.40434400  1
loop_
_geom_bond_atom_site_label_1
_geom_bond_atom_site_label_2
_geom_bond_distance
_geom_bond_site_symmetry_2
Ba0 O25 2.733375 1_565
Ba0 O27 2.733375 1_565
Ba0 O0 2.795829 1_555
Ba0 O1 2.795829 1_555
Ba0 O0 3.062643 1_565
Ba0 O1 3.062643 1_455
Ba0 O16 3.124316 1_565
Ba0 O14 3.124316 1_555
Ba0 O12 3.124316 1_555
Ba0 O18 3.124316 1_565
Ba1 O25 2.733375 1_655
Ba1 O27 2.733375 1_655
Ba1 O0 2.795829 1_555
Ba1 O1 2.795829 1_555
Ba1 O0 3.062643 1_655
Ba1 O1 3.062643 1_545
Ba1 O16 3.124316 1_555
Ba1 O12 3.124316 1_655
Ba1 O18 3.124316 1_555
Ba1 O14 3.124316 1_655
Ba2 O24 2.733375 1_555
Ba2 O26 2.733375 1_554
Ba2 O2 2.795829 1_545
Ba2 O3 2.795829 1_455
Ba2 O2 3.062643 1_555
Ba2 O3 3.062643 1_555
Ba2 O13 3.124316 1_554
Ba2 O19 3.124316 1_555
Ba2 O17 3.124316 1_554
Ba2 O15 3.124316 1_555
Ba3 O24 2.733375 1_555
Ba3 O26 2.733375 1_554
Ba3 O3 2.795829 1_565
Ba3 O2 2.795829 1_655
Ba3 O2 3.062643 1_555
Ba3 O3 3.062643 1_555
Ba3 O15 3.124316 1_565
Ba3 O19 3.124316 1_655
Ba3 O13 3.124316 1_564
Ba3 O17 3.124316 1_654
Gd0 O4 2.211660 1_555
Gd0 O10 2.379383 1_455
Gd0 O11 2.379383 1_565
Gd0 O12 2.494464 1_555
Gd0 O16 2.494464 1_565
Gd0 O27 2.538077 1_565
Gd0 O20 2.552542 1_555
Gd1 O5 2.211660 1_555
Gd1 O10 2.379383 1_545
Gd1 O11 2.379383 1_655
Gd1 O16 2.494464 1_555
Gd1 O12 2.494464 1_655
Gd1 O27 2.538077 1_655
Gd1 O20 2.552542 1_555
Gd2 O6 2.211660 1_555
Gd2 O8 2.379383 1_555
Gd2 O9 2.379383 1_555
Gd2 O13 2.494464 1_555
Gd2 O17 2.494464 1_555
Gd2 O26 2.538077 1_555
Gd2 O21 2.552542 1_555
Gd3 O7 2.211660 1_555
Gd3 O8 2.379383 1_555
Gd3 O9 2.379383 1_555
Gd3 O13 2.494464 1_565
Gd3 O17 2.494464 1_655
Gd3 O26 2.538077 1_555
Gd3 O21 2.552542 1_665
Gd4 O8 2.211660 1_555
Gd4 O7 2.379383 1_545
Gd4 O6 2.379383 1_655
Gd4 O18 2.494464 1_555
Gd4 O14 2.494464 1_655
Gd4 O25 2.538077 1_655
Gd4 O22 2.552542 1_555
Gd5 O9 2.211660 1_555
Gd5 O7 2.379383 1_455
Gd5 O6 2.379383 1_565
Gd5 O14 2.494464 1_555
Gd5 O18 2.494464 1_565
Gd5 O25 2.538077 1_565
Gd5 O22 2.552542 1_555
Gd6 O10 2.211660 1_555
Gd6 O4 2.379383 1_555
Gd6 O5 2.379383 1_555
Gd6 O15 2.494464 1_565
Gd6 O19 2.494464 1_655
Gd6 O24 2.538077 1_555
Gd6 O23 2.552542 1_665
Gd7 O11 2.211660 1_555
Gd7 O4 2.379383 1_555
Gd7 O5 2.379383 1_555
Gd7 O15 2.494464 1_555
Gd7 O19 2.494464 1_555
Gd7 O24 2.538077 1_555
Gd7 O23 2.552542 1_555
O0 Sc7 2.101551 1_555
O0 Sc2 2.101551 1_555
O1 Sc6 2.101551 1_555
O1 Sc3 2.101551 1_555
O2 Sc5 2.101551 1_554
O2 Sc0 2.101551 1_555
O3 Sc4 2.101551 1_554
O3 Sc1 2.101551 1_555
O4 Sc0 2.283683 1_555
O5 Sc1 2.283683 1_555
O6 Sc2 2.283683 1_555
O7 Sc3 2.283683 1_555
O8 Sc4 2.283683 1_555
O9 Sc5 2.283683 1_555
O10 Sc6 2.283683 1_555
O11 Sc7 2.283683 1_555
O12 Sc7 2.078487 1_555
O12 Sc6 2.078487 1_455
O13 Sc4 2.078487 1_555
O13 Sc5 2.078487 1_545
O14 Sc2 2.078487 1_555
O14 Sc3 2.078487 1_455
O15 Sc1 2.078487 1_555
O15 Sc0 2.078487 1_545
O16 Sc7 2.078487 1_555
O16 Sc6 2.078487 1_545
O17 Sc5 2.078487 1_555
O17 Sc4 2.078487 1_455
O18 Sc2 2.078487 1_555
O18 Sc3 2.078487 1_545
O19 Sc0 2.078487 1_555
O19 Sc1 2.078487 1_455
O20 Sc6 2.056826 1_555
O20 Sc7 2.056826 1_555
O21 Sc5 2.056826 1_545
O21 Sc4 2.056826 1_455
O22 Sc3 2.056826 1_555
O22 Sc2 2.056826 1_555
O23 Sc0 2.056826 1_545
O23 Sc1 2.056826 1_455
O24 Sc1 2.162477 1_555
O24 Sc0 2.162477 1_555
O25 Sc2 2.162477 1_555
O25 Sc3 2.162477 1_445
O26 Sc5 2.162477 1_555
O26 Sc4 2.162477 1_555
O27 Sc7 2.162477 1_555
O27 Sc6 2.162477 1_445
