# generated using pymatgen
data_CaCoSi2O7
_symmetry_space_group_name_H-M   'P 1'
_cell_length_a   5.27100203
_cell_length_b   7.92247465
_cell_length_c   7.97198518
_cell_angle_alpha   89.30445868
_cell_angle_beta   89.99561948
_cell_angle_gamma   90.01052558
_symmetry_Int_Tables_number   1
_chemical_formula_structural   CaCoSi2O7
_chemical_formula_sum   'Ca2 Co2 Si4 O14'
_cell_volume   332.88062190
_cell_formula_units_Z   2
loop_
 _symmetry_equiv_pos_site_id
 _symmetry_equiv_pos_as_xyz
  1  'x, y, z'
loop_
 _atom_site_type_symbol
 _atom_site_label
 _atom_site_symmetry_multiplicity
 _atom_site_fract_x
 _atom_site_fract_y
 _atom_site_fract_z
 _atom_site_occupancy
  Ca  Ca0  1  0.48311700  0.16552000  0.67395800  1
  Ca  Ca1  1  0.48291100  0.83495400  0.32619300  1
  Co  Co0  1  0.00706100  0.49993500  0.50002200  1
  Co  Co1  1  0.01724400  0.00010500  0.99999700  1
  Si  Si0  1  0.93712600  0.86819600  0.63453800  1
  Si  Si1  1  0.05178200  0.64201700  0.14153300  1
  Si  Si2  1  0.05141300  0.35792000  0.85796800  1
  Si  Si3  1  0.93716200  0.13168200  0.36556700  1
  O  O0  1  0.83590700  0.68164600  0.58330200  1
  O  O1  1  0.83587600  0.31826100  0.41678400  1
  O  O2  1  0.19646900  0.41198000  0.67769700  1
  O  O3  1  0.19600600  0.58816400  0.32214600  1
  O  O4  1  0.83301400  0.92689200  0.81620400  1
  O  O5  1  0.20452500  0.81916400  0.08990600  1
  O  O6  1  0.20431000  0.18085000  0.90989000  1
  O  O7  1  0.83295700  0.07285200  0.18399900  1
  O  O8  1  0.24418200  0.89917700  0.59985600  1
  O  O9  1  0.76042200  0.67661000  0.18879600  1
  O  O10  1  0.09944200  0.50014400  0.99981300  1
  O  O11  1  0.78342400  0.99996100  0.50008000  1
  O  O12  1  0.76027300  0.32313400  0.81160000  1
  O  O13  1  0.24422100  0.10083600  0.40015200  1
loop_
_geom_bond_atom_site_label_1
_geom_bond_atom_site_label_2
_geom_bond_distance
_geom_bond_site_symmetry_2
Ca0 O12 2.220427 1_555
Ca0 O6 2.391072 1_555
Ca0 O2 2.469576 1_555
Ca0 O11 2.488375 1_545
Ca0 O8 2.533187 1_545
Ca0 O13 2.576841 1_555
Ca0 O4 2.865488 1_545
Ca0 O1 3.010528 1_555
Ca1 O9 2.224165 1_555
Ca1 O5 2.392310 1_555
Ca1 O3 2.472091 1_555
Ca1 O11 2.486604 1_555
Ca1 O13 2.529555 1_565
Ca1 O8 2.574609 1_555
Ca1 O7 2.861490 1_565
Ca1 O0 3.013189 1_555
Co0 O1 1.830003 1_455
Co0 O0 1.830490 1_455
Co0 O2 1.861468 1_555
Co0 O3 1.861914 1_555
Co1 O4 1.856573 1_445
Co1 O7 1.856861 1_456
Co1 O6 1.874332 1_555
Co1 O5 1.875853 1_546
O0 Si0 1.627938 1_555
O1 Si3 1.628381 1_555
O2 Si2 1.678721 1_555
O3 Si1 1.678828 1_555
O4 Si0 1.622071 1_555
O5 Si1 1.665158 1_555
O6 Si2 1.665877 1_555
O7 Si3 1.621870 1_555
O8 Si0 1.659622 1_455
O9 Si1 1.605678 1_655
O10 Si1 1.622889 1_556
O10 Si2 1.625805 1_555
O11 Si3 1.693509 1_565
O11 Si0 1.693618 1_555
O12 Si2 1.603118 1_655
O13 Si3 1.659483 1_455
