# generated using pymatgen
data_Li4TiCo5O12
_symmetry_space_group_name_H-M   'P 1'
_cell_length_a   4.97350534
_cell_length_b   10.87360907
_cell_length_c   8.56676547
_cell_angle_alpha   113.11026435
_cell_angle_beta   89.98583742
_cell_angle_gamma   84.15746033
_symmetry_Int_Tables_number   1
_chemical_formula_structural   Li4TiCo5O12
_chemical_formula_sum   'Li8 Ti2 Co10 O24'
_cell_volume   423.48893295
_cell_formula_units_Z   2
loop_
 _symmetry_equiv_pos_site_id
 _symmetry_equiv_pos_as_xyz
  1  'x, y, z'
loop_
 _atom_site_type_symbol
 _atom_site_label
 _atom_site_symmetry_multiplicity
 _atom_site_fract_x
 _atom_site_fract_y
 _atom_site_fract_z
 _atom_site_occupancy
  Li  Li0  1  0.00442100  0.74052300  0.18743800  1
  Li  Li1  1  0.55512700  0.74877400  0.70096300  1
  Li  Li2  1  0.44285500  0.25152200  0.95395600  1
  Li  Li3  1  0.99581300  0.25902100  0.45158200  1
  Li  Li4  1  0.50465700  0.74004200  0.04543100  1
  Li  Li5  1  0.05563700  0.74799100  0.54179700  1
  Li  Li6  1  0.94233800  0.25223100  0.79485600  1
  Li  Li7  1  0.49571500  0.25925100  0.30480000  1
  Ti  Ti0  1  0.00244400  0.00054400  0.00056600  1
  Ti  Ti1  1  0.50293600  0.00039800  0.49986300  1
  Co  Co0  1  0.74335600  0.49418000  0.08170100  1
  Co  Co1  1  0.25227600  0.50554400  0.58734700  1
  Co  Co2  1  0.00258500  0.00028800  0.66834100  1
  Co  Co3  1  0.50209400  0.99985200  0.16606300  1
  Co  Co4  1  0.00217900  0.99978100  0.33450800  1
  Co  Co5  1  0.24787600  0.50049700  0.25180900  1
  Co  Co6  1  0.74758200  0.49911100  0.75101300  1
  Co  Co7  1  0.24356100  0.49273900  0.91336600  1
  Co  Co8  1  0.75218200  0.50690700  0.42049600  1
  Co  Co9  1  0.50245900  0.00022800  0.83274400  1
  O  O0  1  0.39976400  0.59779300  0.80778300  1
  O  O1  1  0.90000300  0.59874800  0.29583700  1
  O  O2  1  0.59586500  0.40184400  0.21004900  1
  O  O3  1  0.09564000  0.40080200  0.69723800  1
  O  O4  1  0.82469300  0.10525900  0.55377500  1
  O  O5  1  0.32454900  0.10525000  0.05186900  1
  O  O6  1  0.18010000  0.89574200  0.44945600  1
  O  O7  1  0.67985800  0.89544200  0.94738900  1
  O  O8  1  0.30648900  0.10545500  0.72295600  1
  O  O9  1  0.83754000  0.11240000  0.22784400  1
  O  O10  1  0.16718100  0.88745100  0.11528800  1
  O  O11  1  0.69842200  0.89497100  0.61807500  1
  O  O12  1  0.80622900  0.10582200  0.88301600  1
  O  O13  1  0.33751000  0.11275700  0.38501100  1
  O  O14  1  0.66730100  0.88718600  0.27278600  1
  O  O15  1  0.19854800  0.89471400  0.77767500  1
  O  O16  1  0.09292800  0.38951500  0.01255100  1
  O  O17  1  0.61279900  0.40307600  0.52736000  1
  O  O18  1  0.58765600  0.38903500  0.87632100  1
  O  O19  1  0.10841200  0.40387100  0.37528100  1
  O  O20  1  0.38264400  0.59662600  0.12371300  1
  O  O21  1  0.90274200  0.61022500  0.62254700  1
  O  O22  1  0.88699500  0.59587300  0.97074200  1
  O  O23  1  0.40804200  0.61072000  0.48679500  1
loop_
_geom_bond_atom_site_label_1
_geom_bond_atom_site_label_2
_geom_bond_distance
_geom_bond_site_symmetry_2
Li0 O22 2.038777 1_454
Li0 O14 2.104458 1_455
Li0 O10 2.151275 1_555
Li0 O1 2.189782 1_455
Li0 O20 2.239305 1_555
Li0 O6 2.444937 1_555
Li1 O23 2.053527 1_555
Li1 O21 2.093939 1_555
Li1 O11 2.157722 1_555
Li1 O15 2.168649 1_555
Li1 O7 2.223518 1_555
Li1 O0 2.359434 1_555
Li2 O18 2.048523 1_555
Li2 O16 2.099748 1_556
Li2 O8 2.156705 1_555
Li2 O12 2.192292 1_555
Li2 O5 2.194781 1_556
Li2 O2 2.345854 1_556
Li3 O19 2.051637 1_655
Li3 O13 2.116598 1_655
Li3 O3 2.159062 1_655
Li3 O9 2.166249 1_555
Li3 O17 2.257746 1_555
Li3 O4 2.392597 1_555
Li4 O20 2.064772 1_555
Li4 O10 2.107905 1_555
Li4 O0 2.121846 1_554
Li4 O14 2.196769 1_555
Li4 O22 2.255644 1_554
Li4 O7 2.394473 1_554
Li5 O21 2.084698 1_455
Li5 O23 2.106361 1_555
Li5 O11 2.176956 1_455
Li5 O6 2.188603 1_555
Li5 O15 2.198779 1_555
Li5 O1 2.290144 1_455
Li6 O16 2.076109 1_656
Li6 O18 2.112301 1_555
Li6 O12 2.173957 1_555
Li6 O4 2.182141 1_555
Li6 O8 2.201351 1_655
Li6 O3 2.280684 1_655
Li7 O17 2.065268 1_555
Li7 O2 2.110931 1_555
Li7 O9 2.120145 1_555
Li7 O13 2.177801 1_555
Li7 O19 2.277121 1_555
Li7 O5 2.380474 1_555
Co0 O18 1.898490 1_554
Co0 O22 1.903221 1_554
Co0 O16 1.932951 1_655
Co0 O2 1.941976 1_555
Co0 O1 1.951589 1_555
Co0 O20 1.966463 1_555
Co1 O23 1.898286 1_555
Co1 O19 1.902549 1_555
Co1 O21 1.932893 1_455
Co1 O0 1.942648 1_555
Co1 O3 1.952495 1_555
Co1 O17 1.965688 1_555
Co2 O6 1.925980 1_545
Co2 O4 1.929533 1_455
Co2 O8 1.934780 1_555
Co2 O11 1.936800 1_445
Co2 O15 1.939523 1_545
Co2 O12 1.940878 1_455
Co3 O13 1.918958 1_565
Co3 O14 1.920036 1_555
Co3 O7 1.924895 1_554
Co3 O5 1.929948 1_565
Co3 O10 2.110691 1_555
Co3 O9 2.113961 1_565
Co4 O9 1.918245 1_465
Co4 O10 1.920087 1_555
Co4 O6 1.924487 1_555
Co4 O4 1.930005 1_465
Co4 O14 2.111841 1_455
Co4 O13 2.116128 1_565
Co5 O1 1.893165 1_455
Co5 O2 1.895935 1_555
Co5 O19 1.929846 1_555
Co5 O20 1.946478 1_555
Co5 O23 2.103482 1_555
Co5 O16 2.121259 1_555
Co6 O3 1.894154 1_655
Co6 O0 1.895364 1_555
Co6 O22 1.930164 1_555
Co6 O17 1.945083 1_555
Co6 O18 2.102303 1_555
Co6 O21 2.121241 1_555
Co7 O16 1.860810 1_556
Co7 O20 1.887721 1_556
Co7 O18 1.904455 1_555
Co7 O3 1.914716 1_555
Co7 O0 1.928203 1_555
Co7 O22 1.950919 1_455
Co8 O21 1.861271 1_555
Co8 O17 1.887787 1_555
Co8 O23 1.905050 1_555
Co8 O1 1.914295 1_555
Co8 O2 1.929900 1_555
Co8 O19 1.949129 1_655
Co9 O7 1.927561 1_545
Co9 O5 1.929127 1_556
Co9 O12 1.936916 1_555
Co9 O15 1.937024 1_545
Co9 O11 1.939472 1_545
Co9 O8 1.939569 1_555
O4 Ti1 2.008155 1_555
O5 Ti0 2.008648 1_555
O6 Ti1 2.011493 1_565
O7 Ti0 2.013111 1_666
O8 Ti1 1.992530 1_555
O9 Ti0 1.969787 1_655
O10 Ti0 1.973174 1_565
O11 Ti1 1.992459 1_565
O12 Ti0 1.988688 1_656
O13 Ti1 1.969025 1_555
O14 Ti1 1.970379 1_565
O15 Ti0 1.991781 1_566
