# generated using pymatgen
data_Li9Mn2Co5O16
_symmetry_space_group_name_H-M   'P 1'
_cell_length_a   2.98692200
_cell_length_b   7.80584458
_cell_length_c   12.53008654
_cell_angle_alpha   89.48158784
_cell_angle_beta   89.87269257
_cell_angle_gamma   81.28934756
_symmetry_Int_Tables_number   1
_chemical_formula_structural   Li9Mn2Co5O16
_chemical_formula_sum   'Li9 Mn2 Co5 O16'
_cell_volume   288.76299559
_cell_formula_units_Z   1
loop_
 _symmetry_equiv_pos_site_id
 _symmetry_equiv_pos_as_xyz
  1  'x, y, z'
loop_
 _atom_site_type_symbol
 _atom_site_label
 _atom_site_symmetry_multiplicity
 _atom_site_fract_x
 _atom_site_fract_y
 _atom_site_fract_z
 _atom_site_occupancy
  Li  Li0  1  0.19572700  0.62287100  0.05555200  1
  Li  Li1  1  0.94317000  0.12548100  0.31322400  1
  Li  Li2  1  0.68251800  0.62481400  0.56411100  1
  Li  Li3  1  0.79432900  0.38097600  0.93206200  1
  Li  Li4  1  0.55316100  0.87638800  0.18960200  1
  Li  Li5  1  0.31811500  0.37556800  0.43985100  1
  Li  Li6  1  0.44958300  0.11198000  0.81118200  1
  Li  Li7  1  0.06495300  0.87112600  0.69563200  1
  Li  Li8  1  0.60649500  0.75942600  0.86952600  1
  Mn  Mn0  1  0.01116000  0.99276500  0.99619600  1
  Mn  Mn1  1  0.74412900  0.49963500  0.24856500  1
  Co  Co0  1  0.49862600  0.00166100  0.50218000  1
  Co  Co1  1  0.24219400  0.50951100  0.75425100  1
  Co  Co2  1  0.39454500  0.24651100  0.12496200  1
  Co  Co3  1  0.11225600  0.75236800  0.37691000  1
  Co  Co4  1  0.87850700  0.25105000  0.62765300  1
  O  O0  1  0.57455300  0.83559400  0.02704500  1
  O  O1  1  0.38016400  0.31485800  0.27197300  1
  O  O2  1  0.07832200  0.81851800  0.52386500  1
  O  O3  1  0.22339300  0.54905300  0.89143200  1
  O  O4  1  0.00900900  0.07331900  0.14780000  1
  O  O5  1  0.69932500  0.56889500  0.39891400  1
  O  O6  1  0.88100100  0.31982400  0.77274900  1
  O  O7  1  0.47067500  0.06583200  0.64976400  1
  O  O8  1  0.75752300  0.42909300  0.09692900  1
  O  O9  1  0.52824100  0.93538800  0.35267600  1
  O  O10  1  0.29134400  0.43277500  0.60728900  1
  O  O11  1  0.43965400  0.16534300  0.97939400  1
  O  O12  1  0.10658300  0.68721900  0.22554800  1
  O  O13  1  0.91863000  0.18649500  0.47843700  1
  O  O14  1  0.02316600  0.94565200  0.85395000  1
  O  O15  1  0.62894900  0.67001200  0.72077600  1
loop_
_geom_bond_atom_site_label_1
_geom_bond_atom_site_label_2
_geom_bond_distance
_geom_bond_site_symmetry_2
Li0 O3 2.138703 1_554
Li0 O8 2.143236 1_555
Li0 O0 2.172947 1_555
Li0 O12 2.199250 1_555
Li0 O8 2.202814 1_455
Li0 O0 2.320851 1_455
Li1 O4 2.118979 1_655
Li1 O1 2.125424 1_555
Li1 O9 2.126775 1_545
Li1 O13 2.127028 1_555
Li1 O9 2.169160 1_645
Li1 O1 2.173408 1_655
Li2 O15 1.999396 1_555
Li2 O10 2.101899 1_555
Li2 O2 2.112626 1_655
Li2 O5 2.118235 1_555
Li2 O2 2.227365 1_555
Li2 O10 2.238483 1_655
Li3 O3 2.029094 1_655
Li3 O3 2.050064 1_555
Li3 O6 2.063306 1_555
Li3 O8 2.102665 1_556
Li3 O11 2.196915 1_555
Li3 O11 2.429938 1_655
Li4 O0 2.063795 1_555
Li4 O12 2.089913 1_655
Li4 O9 2.097335 1_555
Li4 O4 2.124040 1_565
Li4 O12 2.178173 1_555
Li4 O4 2.259978 1_665
Li5 O5 2.083459 1_555
Li5 O13 2.086550 1_455
Li5 O10 2.147755 1_555
Li5 O1 2.161816 1_555
Li5 O13 2.195087 1_555
Li5 O5 2.258750 1_455
Li6 O14 2.019983 1_545
Li6 O14 2.055677 1_645
Li6 O7 2.056772 1_555
Li6 O11 2.151442 1_555
Li6 O6 2.214334 1_455
Li6 O6 2.267364 1_555
Li7 O14 2.070509 1_555
Li7 O15 2.143371 1_555
Li7 O7 2.155880 1_565
Li7 O2 2.193872 1_555
Li7 O15 2.206403 1_455
Li7 O7 2.227706 1_465
Li8 O15 1.993585 1_555
Li8 O14 2.059586 1_655
Li8 O0 2.064319 1_556
Li8 O14 2.101483 1_555
Li8 O3 2.154293 1_555
Li8 O3 2.290159 1_655
Mn0 O14 1.822334 1_555
Mn0 O0 1.956802 1_456
Mn0 O0 1.963520 1_556
Mn0 O11 2.003255 1_565
Mn0 O4 2.006061 1_566
Mn0 O11 2.018165 1_465
Mn1 O1 1.952972 1_555
Mn1 O5 1.963317 1_555
Mn1 O12 1.967333 1_655
Mn1 O8 1.981609 1_555
Mn1 O1 2.222707 1_655
Mn1 O12 2.236917 1_555
Co0 O7 1.918588 1_555
Co0 O9 1.946183 1_545
Co0 O2 2.056373 1_545
Co0 O13 2.069483 1_555
Co0 O2 2.088293 1_645
Co0 O13 2.099717 1_455
Co1 O3 1.748407 1_555
Co1 O15 1.872637 1_555
Co1 O10 1.939946 1_555
Co1 O6 1.971433 1_455
Co1 O15 2.097511 1_455
Co1 O6 2.242063 1_555
Co2 O1 1.920977 1_555
Co2 O4 1.923208 1_555
Co2 O11 1.934024 1_554
Co2 O8 1.946105 1_555
Co2 O4 2.126470 1_655
Co2 O8 2.224305 1_455
Co3 O2 1.915209 1_555
Co3 O12 1.968787 1_555
Co3 O5 2.043217 1_455
Co3 O9 2.050646 1_555
Co3 O9 2.101382 1_455
Co3 O5 2.106256 1_555
Co4 O6 1.900670 1_555
Co4 O13 1.939532 1_555
Co4 O10 2.029711 1_655
Co4 O7 2.043445 1_555
Co4 O10 2.096439 1_555
Co4 O7 2.125071 1_655
