# generated using pymatgen
data_MgNi9O13
_symmetry_space_group_name_H-M   'P 1'
_cell_length_a   2.94463733
_cell_length_b   5.15682776
_cell_length_c   16.25910672
_cell_angle_alpha   98.70820945
_cell_angle_beta   89.93576536
_cell_angle_gamma   106.68881891
_symmetry_Int_Tables_number   1
_chemical_formula_structural   MgNi9O13
_chemical_formula_sum   'Mg1 Ni9 O13'
_cell_volume   233.53448329
_cell_formula_units_Z   1
loop_
 _symmetry_equiv_pos_site_id
 _symmetry_equiv_pos_as_xyz
  1  'x, y, z'
loop_
 _atom_site_type_symbol
 _atom_site_label
 _atom_site_symmetry_multiplicity
 _atom_site_fract_x
 _atom_site_fract_y
 _atom_site_fract_z
 _atom_site_occupancy
  Mg  Mg0  1  0.43080400  0.87164400  0.31254500  1
  Ni  Ni0  1  0.50098900  0.99899600  0.51844500  1
  Ni  Ni1  1  0.64158100  0.28553600  0.04078500  1
  Ni  Ni2  1  0.34617300  0.69275100  0.95256800  1
  Ni  Ni3  1  0.74367900  0.48487300  0.43541100  1
  Ni  Ni4  1  0.25091400  0.49841000  0.60384900  1
  Ni  Ni5  1  0.91853200  0.84008600  0.11795000  1
  Ni  Ni6  1  0.05920300  0.11732900  0.87917400  1
  Ni  Ni7  1  0.11989200  0.24357700  0.23661200  1
  Ni  Ni8  1  0.00282700  0.00014500  0.67892800  1
  O  O0  1  0.99454400  0.98997600  0.99202300  1
  O  O1  1  0.90391400  0.81710100  0.23729800  1
  O  O2  1  0.12080900  0.23872000  0.77759400  1
  O  O3  1  0.28952800  0.58170500  0.06531500  1
  O  O4  1  0.69441700  0.38918800  0.92564400  1
  O  O5  1  0.57781000  0.15958000  0.14934300  1
  O  O6  1  0.43361300  0.86540200  0.85235100  1
  O  O7  1  0.64291000  0.28894300  0.31737100  1
  O  O8  1  0.39158100  0.77534100  0.70588600  1
  O  O9  1  0.36990500  0.73612400  0.41740100  1
  O  O10  1  0.61324800  0.22620700  0.63037600  1
  O  O11  1  0.13388100  0.26443200  0.48833200  1
  O  O12  1  0.88174600  0.75893400  0.56896500  1
loop_
_geom_bond_atom_site_label_1
_geom_bond_atom_site_label_2
_geom_bond_distance
_geom_bond_site_symmetry_2
Mg0 O1 1.905914 1_455
Mg0 O1 1.906254 1_555
Mg0 O9 1.927493 1_555
Mg0 O7 2.050396 1_565
Ni0 O9 1.926708 1_555
Ni0 O10 1.981757 1_565
Ni0 O11 2.079002 1_665
Ni0 O11 2.082279 1_565
Ni0 O12 2.130789 1_455
Ni0 O12 2.138105 1_555
Ni1 O5 1.961871 1_555
Ni1 O4 2.017231 1_554
Ni1 O3 2.067760 1_655
Ni1 O3 2.071318 1_555
Ni1 O0 2.133388 1_444
Ni1 O0 2.138678 1_544
Ni2 O6 1.954672 1_555
Ni2 O3 1.994634 1_556
Ni2 O4 2.096258 1_455
Ni2 O4 2.099333 1_555
Ni2 O0 2.104805 1_555
Ni2 O0 2.108361 1_455
Ni3 O9 1.976433 1_655
Ni3 O9 1.977501 1_555
Ni3 O7 2.008541 1_555
Ni3 O11 2.092194 1_555
Ni3 O11 2.097959 1_655
Ni3 O12 2.370787 1_555
Ni4 O8 1.976806 1_555
Ni4 O11 2.044179 1_555
Ni4 O10 2.083102 1_555
Ni4 O10 2.085626 1_455
Ni4 O12 2.090988 1_555
Ni4 O12 2.092669 1_455
Ni5 O1 1.961617 1_555
Ni5 O3 2.044306 1_555
Ni5 O3 2.046909 1_655
Ni5 O5 2.157393 1_665
Ni5 O5 2.162236 1_565
Ni5 O0 2.284399 1_554
Ni6 O2 1.843836 1_555
Ni6 O6 1.930582 1_445
Ni6 O6 1.934809 1_545
Ni6 O0 2.031357 1_445
Ni6 O4 2.052141 1_555
Ni6 O4 2.057292 1_455
Ni7 O7 1.960403 1_455
Ni7 O7 1.963508 1_555
Ni7 O5 2.040637 1_555
Ni7 O5 2.042246 1_455
Ni7 O1 2.108420 1_445
Ni8 O2 1.834657 1_555
Ni8 O8 1.931151 1_445
Ni8 O8 1.940014 1_545
Ni8 O12 1.986012 1_445
Ni8 O10 2.070036 1_555
Ni8 O10 2.084935 1_455
