# generated using pymatgen
data_UAs2
_symmetry_space_group_name_H-M   'P 1'
_cell_length_a   3.88208300
_cell_length_b   7.12992000
_cell_length_c   9.39100000
_cell_angle_alpha   90.00000000
_cell_angle_beta   90.00000000
_cell_angle_gamma   90.00000000
_symmetry_Int_Tables_number   1
_chemical_formula_structural   UAs2
_chemical_formula_sum   'U4 As8'
_cell_volume   259.93293703
_cell_formula_units_Z   4
loop_
 _symmetry_equiv_pos_site_id
 _symmetry_equiv_pos_as_xyz
  1  'x, y, z'
loop_
 _atom_site_type_symbol
 _atom_site_label
 _atom_site_symmetry_multiplicity
 _atom_site_fract_x
 _atom_site_fract_y
 _atom_site_fract_z
 _atom_site_occupancy
  U  U0  1  0.25000000  0.20680900  0.64817600  1
  U  U1  1  0.25000000  0.70680900  0.85182400  1
  U  U2  1  0.75000000  0.79319100  0.35182400  1
  U  U3  1  0.75000000  0.29319100  0.14817600  1
  As  As0  1  0.25000000  0.10557300  0.95315400  1
  As  As1  1  0.25000000  0.60557300  0.54684600  1
  As  As2  1  0.75000000  0.89442700  0.04684600  1
  As  As3  1  0.75000000  0.39442700  0.45315400  1
  As  As4  1  0.25000000  0.09381400  0.33008700  1
  As  As5  1  0.25000000  0.59381400  0.16991300  1
  As  As6  1  0.75000000  0.90618600  0.66991300  1
  As  As7  1  0.75000000  0.40618600  0.83008700  1
loop_
_geom_bond_atom_site_label_1
_geom_bond_atom_site_label_2
_geom_bond_distance
_geom_bond_site_symmetry_2
As0 As2 2.609251 1_446
As0 As2 2.609251 1_546
As0 U0 2.953604 1_555
As0 U3 2.985180 1_556
As0 U3 2.985180 1_456
As0 U1 2.998175 1_545
As1 As3 2.609251 1_455
As1 As3 2.609251 1_555
As1 U1 2.953604 1_555
As1 U2 2.985180 1_555
As1 U2 2.985180 1_455
As1 U0 2.998175 1_555
As2 U2 2.953604 1_555
As2 U1 2.985180 1_654
As2 U1 2.985180 1_554
As2 U3 2.998175 1_565
As3 U3 2.953604 1_555
As3 U0 2.985180 1_655
As3 U0 2.985180 1_555
As3 U2 2.998175 1_555
As4 U2 2.898888 1_445
As4 U2 2.898888 1_545
As4 U3 2.950729 1_455
As4 U3 2.950729 1_555
As4 U0 3.093909 1_555
As5 U3 2.898888 1_455
As5 U3 2.898888 1_555
As5 U2 2.950729 1_555
As5 U2 2.950729 1_455
As5 U1 3.093909 1_554
As6 U0 2.898888 1_565
As6 U0 2.898888 1_665
As6 U1 2.950729 1_555
As6 U1 2.950729 1_655
As6 U2 3.093909 1_555
As7 U1 2.898888 1_655
As7 U1 2.898888 1_555
As7 U0 2.950729 1_655
As7 U0 2.950729 1_555
As7 U3 3.093909 1_556
