# generated using pymatgen
data_Sr(CO2)3
_symmetry_space_group_name_H-M   'P 1'
_cell_length_a   9.40732000
_cell_length_b   7.44010800
_cell_length_c   8.20044163
_cell_angle_alpha   78.51783961
_cell_angle_beta   90.00000000
_cell_angle_gamma   90.00000000
_symmetry_Int_Tables_number   1
_chemical_formula_structural   Sr(CO2)3
_chemical_formula_sum   'Sr4 C12 O24'
_cell_volume   562.47418473
_cell_formula_units_Z   4
loop_
 _symmetry_equiv_pos_site_id
 _symmetry_equiv_pos_as_xyz
  1  'x, y, z'
loop_
 _atom_site_type_symbol
 _atom_site_label
 _atom_site_symmetry_multiplicity
 _atom_site_fract_x
 _atom_site_fract_y
 _atom_site_fract_z
 _atom_site_occupancy
  Sr  Sr0  1  0.32731700  0.54353500  0.82883800  1
  Sr  Sr1  1  0.82731700  0.95646500  0.17116200  1
  Sr  Sr2  1  0.67268300  0.45646500  0.17116200  1
  Sr  Sr3  1  0.17268300  0.04353500  0.82883800  1
  C  C0  1  0.60032500  0.67673800  0.51838900  1
  C  C1  1  0.10032500  0.82326200  0.48161100  1
  C  C2  1  0.39967500  0.32326200  0.48161100  1
  C  C3  1  0.89967500  0.17673800  0.51838900  1
  C  C4  1  0.69846700  0.58076800  0.72880400  1
  C  C5  1  0.19846700  0.91923200  0.27119600  1
  C  C6  1  0.30153300  0.41923200  0.27119600  1
  C  C7  1  0.80153300  0.08076800  0.72880400  1
  C  C8  1  0.50357600  0.90017500  0.98356200  1
  C  C9  1  0.00357600  0.59982500  0.01643800  1
  C  C10  1  0.49642400  0.09982500  0.01643800  1
  C  C11  1  0.99642400  0.40017500  0.98356200  1
  O  O0  1  0.60993100  0.51860800  0.83638400  1
  O  O1  1  0.10993100  0.98139200  0.16361600  1
  O  O2  1  0.39006900  0.48139200  0.16361600  1
  O  O3  1  0.89006900  0.01860800  0.83638400  1
  O  O4  1  0.40345400  0.85157400  0.89748400  1
  O  O5  1  0.90345400  0.64842600  0.10251600  1
  O  O6  1  0.59654600  0.14842600  0.10251600  1
  O  O7  1  0.09654600  0.35157400  0.89748400  1
  O  O8  1  0.47576000  0.68962500  0.55480600  1
  O  O9  1  0.97576000  0.81037500  0.44519400  1
  O  O10  1  0.52424000  0.31037500  0.44519400  1
  O  O11  1  0.02424000  0.18962500  0.55480600  1
  O  O12  1  0.68056600  0.69935700  0.39771900  1
  O  O13  1  0.18056600  0.80064300  0.60228100  1
  O  O14  1  0.31943400  0.30064300  0.60228100  1
  O  O15  1  0.81943400  0.19935700  0.39771900  1
  O  O16  1  0.60816100  0.80295300  0.04541300  1
  O  O17  1  0.10816100  0.69704700  0.95458700  1
  O  O18  1  0.39183900  0.19704700  0.95458700  1
  O  O19  1  0.89183900  0.30295300  0.04541300  1
  O  O20  1  0.82482000  0.60437500  0.70658200  1
  O  O21  1  0.32482000  0.89562500  0.29341800  1
  O  O22  1  0.17518000  0.39562500  0.29341800  1
  O  O23  1  0.67518000  0.10437500  0.70658200  1
loop_
_geom_bond_atom_site_label_1
_geom_bond_atom_site_label_2
_geom_bond_distance
_geom_bond_site_symmetry_2
C0 O8 1.217762 1_555
C0 O12 1.229239 1_555
C1 O9 1.217762 1_455
C1 O13 1.229239 1_555
C2 O10 1.217762 1_555
C2 O14 1.229239 1_555
C3 O11 1.217762 1_655
C3 O15 1.229239 1_555
C4 O20 1.210036 1_555
C4 O0 1.234274 1_555
C5 O21 1.210036 1_555
C5 O1 1.234274 1_555
C6 O22 1.210036 1_555
C6 O2 1.234274 1_555
C7 O23 1.210036 1_555
C7 O3 1.234274 1_555
C8 O16 1.265861 1_556
C8 O4 1.271916 1_555
C9 O17 1.265861 1_554
C9 O5 1.271916 1_455
C10 O18 1.265861 1_554
C10 O6 1.271916 1_555
C11 O19 1.265861 1_556
C11 O7 1.271916 1_655
O0 Sr0 2.664962 1_555
O0 Sr2 2.755673 1_556
O1 Sr1 2.664962 1_455
O1 Sr3 2.755673 1_564
O2 Sr2 2.664962 1_555
O2 Sr0 2.755673 1_554
O3 Sr3 2.664962 1_655
O3 Sr1 2.755673 1_546
O4 Sr0 2.568283 1_555
O4 Sr3 2.597990 1_565
O5 Sr1 2.568283 1_555
O5 Sr2 2.597990 1_555
O6 Sr2 2.568283 1_555
O6 Sr1 2.597990 1_545
O7 Sr3 2.568283 1_555
O7 Sr0 2.597990 1_555
O8 Sr0 2.684937 1_555
O9 Sr1 2.684937 1_555
O10 Sr2 2.684937 1_555
O11 Sr3 2.684937 1_555
O12 Sr1 2.757147 1_555
O12 Sr2 2.838946 1_555
O13 Sr0 2.757147 1_555
O13 Sr3 2.838946 1_565
O14 Sr3 2.757147 1_555
O14 Sr0 2.838946 1_555
O15 Sr2 2.757147 1_555
O15 Sr1 2.838946 1_545
O16 Sr2 2.649349 1_555
O16 Sr1 2.662190 1_555
O17 Sr3 2.649349 1_565
O17 Sr0 2.662190 1_555
O18 Sr0 2.649349 1_555
O18 Sr3 2.662190 1_555
O19 Sr1 2.649349 1_545
O19 Sr2 2.662190 1_555
