# generated using pymatgen
data_Sm8Ga3Co
_symmetry_space_group_name_H-M   'P 1'
_cell_length_a   10.34786838
_cell_length_b   10.34786838
_cell_length_c   6.97344100
_cell_angle_alpha   90.00000000
_cell_angle_beta   90.00000000
_cell_angle_gamma   120.00000242
_symmetry_Int_Tables_number   1
_chemical_formula_structural   Sm8Ga3Co
_chemical_formula_sum   'Sm16 Ga6 Co2'
_cell_volume   646.66527998
_cell_formula_units_Z   2
loop_
 _symmetry_equiv_pos_site_id
 _symmetry_equiv_pos_as_xyz
  1  'x, y, z'
loop_
 _atom_site_type_symbol
 _atom_site_label
 _atom_site_symmetry_multiplicity
 _atom_site_fract_x
 _atom_site_fract_y
 _atom_site_fract_z
 _atom_site_occupancy
  Sm  Sm0  1  0.82839300  0.65678600  0.49721900  1
  Sm  Sm1  1  0.34321400  0.17160700  0.49721900  1
  Sm  Sm2  1  0.82839300  0.17160700  0.49721900  1
  Sm  Sm3  1  0.17160700  0.34321400  0.99721900  1
  Sm  Sm4  1  0.65678600  0.82839300  0.99721900  1
  Sm  Sm5  1  0.17160700  0.82839300  0.99721900  1
  Sm  Sm6  1  0.66666700  0.33333300  0.16818100  1
  Sm  Sm7  1  0.33333300  0.66666700  0.66818100  1
  Sm  Sm8  1  0.53558700  0.07117500  0.78795200  1
  Sm  Sm9  1  0.92882500  0.46441300  0.78795200  1
  Sm  Sm10  1  0.53558700  0.46441300  0.78795200  1
  Sm  Sm11  1  0.46441300  0.92882500  0.28795200  1
  Sm  Sm12  1  0.07117500  0.53558700  0.28795200  1
  Sm  Sm13  1  0.46441300  0.53558700  0.28795200  1
  Sm  Sm14  1  0.00000000  0.00000000  0.78211800  1
  Sm  Sm15  1  0.00000000  0.00000000  0.28211800  1
  Ga  Ga0  1  0.83607200  0.67214400  0.03243500  1
  Ga  Ga1  1  0.32785600  0.16392800  0.03243500  1
  Ga  Ga2  1  0.83607200  0.16392800  0.03243500  1
  Ga  Ga3  1  0.16392800  0.32785600  0.53243500  1
  Ga  Ga4  1  0.67214400  0.83607200  0.53243500  1
  Ga  Ga5  1  0.16392800  0.83607200  0.53243500  1
  Co  Co0  1  0.66666700  0.33333300  0.55995000  1
  Co  Co1  1  0.33333300  0.66666700  0.05995000  1
loop_
_geom_bond_atom_site_label_1
_geom_bond_atom_site_label_2
_geom_bond_distance
_geom_bond_site_symmetry_2
Ga0 Sm5 3.019268 1_654
Ga0 Sm4 3.019268 1_554
Ga0 Sm6 3.180403 1_555
Ga0 Sm9 3.242170 1_554
Ga0 Sm10 3.242176 1_554
Ga0 Sm0 3.244065 1_555
Ga0 Sm15 3.415254 1_665
Ga0 Sm14 3.417510 1_664
Ga0 Sm0 3.734834 1_554
Ga0 Sm13 3.811558 1_555
Ga0 Sm12 3.811567 1_655
Ga1 Sm5 3.019268 1_544
Ga1 Sm3 3.019268 1_554
Ga1 Sm6 3.180403 1_555
Ga1 Sm8 3.242170 1_554
Ga1 Sm10 3.242176 1_554
Ga1 Sm1 3.244065 1_555
Ga1 Sm15 3.415254 1_555
Ga1 Sm14 3.417510 1_554
Ga1 Sm1 3.734834 1_554
Ga1 Sm13 3.811558 1_555
Ga1 Sm11 3.811567 1_545
Ga2 Sm4 3.019268 1_544
Ga2 Sm3 3.019268 1_654
Ga2 Sm6 3.180394 1_555
Ga2 Sm8 3.242178 1_554
Ga2 Sm9 3.242178 1_554
Ga2 Sm2 3.244065 1_555
Ga2 Sm15 3.415254 1_655
Ga2 Sm14 3.417510 1_654
Ga2 Sm2 3.734834 1_554
Ga2 Sm11 3.811560 1_545
Ga2 Sm12 3.811560 1_655
Ga3 Sm2 3.019268 1_455
Ga3 Sm1 3.019268 1_555
Ga3 Sm7 3.180403 1_555
Ga3 Sm12 3.242170 1_555
Ga3 Sm13 3.242176 1_555
Ga3 Sm3 3.244065 1_555
Ga3 Sm14 3.415254 1_555
Ga3 Sm15 3.417510 1_555
Ga3 Sm3 3.734834 1_554
Ga3 Sm10 3.811558 1_555
Ga3 Sm9 3.811567 1_455
Ga4 Sm2 3.019268 1_565
Ga4 Sm0 3.019268 1_555
Ga4 Sm7 3.180403 1_555
Ga4 Sm11 3.242170 1_555
Ga4 Sm13 3.242176 1_555
Ga4 Sm4 3.244065 1_555
Ga4 Sm14 3.415254 1_665
Ga4 Sm15 3.417510 1_665
Ga4 Sm4 3.734834 1_554
Ga4 Sm10 3.811558 1_555
Ga4 Sm8 3.811567 1_565
Ga5 Sm0 3.019268 1_455
Ga5 Sm1 3.019268 1_565
Ga5 Sm7 3.180394 1_555
Ga5 Sm12 3.242178 1_555
Ga5 Sm11 3.242178 1_555
Ga5 Sm5 3.244065 1_555
Ga5 Sm14 3.415254 1_565
Ga5 Sm15 3.417510 1_565
Ga5 Sm5 3.734834 1_554
Ga5 Sm9 3.811560 1_455
Ga5 Sm8 3.811560 1_565
Co0 Sm6 2.731978 1_555
Co0 Sm9 2.836782 1_555
Co0 Sm8 2.836782 1_555
Co0 Sm10 2.836797 1_555
Co0 Sm2 2.931444 1_555
Co0 Sm1 2.931453 1_555
Co0 Sm0 2.931453 1_555
Co1 Sm7 2.731978 1_554
Co1 Sm11 2.836782 1_555
Co1 Sm12 2.836782 1_555
Co1 Sm13 2.836797 1_555
Co1 Sm5 2.931444 1_554
Co1 Sm3 2.931453 1_554
Co1 Sm4 2.931453 1_554
