# generated using pymatgen
data_Pu
_symmetry_space_group_name_H-M   'P 1'
_cell_length_a   6.89740059
_cell_length_b   3.60405098
_cell_length_c   6.35451750
_cell_angle_alpha   90.22115719
_cell_angle_beta   106.22914109
_cell_angle_gamma   89.97212112
_symmetry_Int_Tables_number   1
_chemical_formula_structural   Pu
_chemical_formula_sum   Pu8
_cell_volume   151.66852944
_cell_formula_units_Z   8
loop_
 _symmetry_equiv_pos_site_id
 _symmetry_equiv_pos_as_xyz
  1  'x, y, z'
loop_
 _atom_site_type_symbol
 _atom_site_label
 _atom_site_symmetry_multiplicity
 _atom_site_fract_x
 _atom_site_fract_y
 _atom_site_fract_z
 _atom_site_occupancy
  Pu  Pu0  1  0.67170200  0.38346200  0.07385700  1
  Pu  Pu1  1  0.14009200  0.12698400  0.44228500  1
  Pu  Pu2  1  0.35945400  0.62772800  0.55758200  1
  Pu  Pu3  1  0.82826100  0.88264800  0.92576100  1
  Pu  Pu4  1  0.32811900  0.61584700  0.92615000  1
  Pu  Pu5  1  0.85988100  0.87369400  0.55761200  1
  Pu  Pu6  1  0.64063200  0.37289200  0.44242100  1
  Pu  Pu7  1  0.17185800  0.11674500  0.07433200  1
loop_
_geom_bond_atom_site_label_1
_geom_bond_atom_site_label_2
_geom_bond_distance
_geom_bond_site_symmetry_2
Pu0 Pu6 2.411182 1_555
Pu0 Pu3 2.421281 1_544
Pu0 Pu3 2.423102 1_554
Pu0 Pu4 2.441178 1_554
Pu1 Pu2 2.334862 1_545
Pu1 Pu2 2.335772 1_555
Pu1 Pu7 2.408746 1_555
Pu1 Pu5 2.429901 1_445
Pu2 Pu4 2.411964 1_555
Pu2 Pu6 2.434480 1_555
Pu3 Pu5 2.409573 1_555
Pu3 Pu7 2.442305 1_666
Pu4 Pu7 2.420646 1_566
Pu4 Pu7 2.422020 1_556
Pu5 Pu6 2.334173 1_565
Pu5 Pu6 2.335410 1_555
