# generated using pymatgen
data_Cs8Ga11
_symmetry_space_group_name_H-M   'P 1'
_cell_length_a   9.99346110
_cell_length_b   9.99366385
_cell_length_c   17.94673899
_cell_angle_alpha   73.86820531
_cell_angle_beta   73.86851436
_cell_angle_gamma   59.99601471
_symmetry_Int_Tables_number   1
_chemical_formula_structural   Cs8Ga11
_chemical_formula_sum   'Cs16 Ga22'
_cell_volume   1470.12216028
_cell_formula_units_Z   2
loop_
 _symmetry_equiv_pos_site_id
 _symmetry_equiv_pos_as_xyz
  1  'x, y, z'
loop_
 _atom_site_type_symbol
 _atom_site_label
 _atom_site_symmetry_multiplicity
 _atom_site_fract_x
 _atom_site_fract_y
 _atom_site_fract_z
 _atom_site_occupancy
  Cs  Cs0  1  0.81415346  0.59547623  0.43181962  1
  Cs  Cs1  1  0.59558040  0.15861846  0.43171357  1
  Cs  Cs2  1  0.15858275  0.81426867  0.43175885  1
  Cs  Cs3  1  0.31428222  0.65855774  0.93182945  1
  Cs  Cs4  1  0.65860363  0.09552198  0.93178520  1
  Cs  Cs5  1  0.09542168  0.31416019  0.93188575  1
  Cs  Cs6  1  0.18584654  0.40452377  0.56818038  1
  Cs  Cs7  1  0.40441960  0.84138154  0.56828643  1
  Cs  Cs8  1  0.84141725  0.18573133  0.56824115  1
  Cs  Cs9  1  0.68571778  0.34144226  0.06817055  1
  Cs  Cs10  1  0.34139637  0.90447802  0.06821480  1
  Cs  Cs11  1  0.90457832  0.68583981  0.06811425  1
  Cs  Cs12  1  0.57787399  0.57778466  0.26646430  1
  Cs  Cs13  1  0.07772443  0.07781057  0.76665319  1
  Cs  Cs14  1  0.42212601  0.42221534  0.73353570  1
  Cs  Cs15  1  0.92227557  0.92218943  0.23334681  1
  Ga  Ga0  1  0.93437401  0.56565511  0.74995291  1
  Ga  Ga1  1  0.56600886  0.75004907  0.74992699  1
  Ga  Ga2  1  0.75001642  0.93400161  0.75000720  1
  Ga  Ga3  1  0.43399114  0.24995093  0.25007301  1
  Ga  Ga4  1  0.24998358  0.06599839  0.24999280  1
  Ga  Ga5  1  0.06562599  0.43434489  0.25004709  1
  Ga  Ga6  1  0.20682158  0.20704296  0.38016603  1
  Ga  Ga7  1  0.70704197  0.70685556  0.88012814  1
  Ga  Ga8  1  0.79317842  0.79295704  0.61983397  1
  Ga  Ga9  1  0.29295803  0.29314444  0.11987186  1
  Ga  Ga10  1  0.47338461  0.96966270  0.32997910  1
  Ga  Ga11  1  0.97010115  0.22669761  0.33011154  1
  Ga  Ga12  1  0.22667068  0.47423784  0.32963480  1
  Ga  Ga13  1  0.97431641  0.72664573  0.82956998  1
  Ga  Ga14  1  0.72673303  0.47010406  0.83003932  1
  Ga  Ga15  1  0.46965881  0.97350671  0.82988510  1
  Ga  Ga16  1  0.52661539  0.03033730  0.67002090  1
  Ga  Ga17  1  0.02989885  0.77330239  0.66988846  1
  Ga  Ga18  1  0.77332932  0.52576216  0.67036520  1
  Ga  Ga19  1  0.02568359  0.27335427  0.17043002  1
  Ga  Ga20  1  0.27326697  0.52989594  0.16996068  1
  Ga  Ga21  1  0.53034119  0.02649329  0.17011490  1
loop_
_geom_bond_atom_site_label_1
_geom_bond_atom_site_label_2
_geom_bond_distance
_geom_bond_site_symmetry_2
Cs0 Ga12 3.723461 1_655
Cs0 Ga5 3.723835 1_655
Cs0 Ga11 3.969425 1_555
Cs0 Ga10 3.980694 1_555
Cs0 Ga6 4.008801 1_655
Cs0 Cs7 4.063487 1_555
Cs0 Cs8 4.064488 1_555
Cs0 Ga18 4.078732 1_555
Cs0 Ga8 4.268273 1_555
Cs0 Cs6 4.335319 1_655
Cs0 Cs12 4.360761 1_555
Cs0 Cs15 4.409369 1_555
Cs0 Cs1 4.913844 1_565
Cs0 Cs2 4.914493 1_655
Cs1 Ga10 3.721803 1_545
Cs1 Ga3 3.723590 1_555
Cs1 Ga12 3.976033 1_555
Cs1 Ga11 3.982587 1_555
Cs1 Ga6 4.006453 1_555
Cs1 Cs8 4.061083 1_555
Cs1 Cs6 4.063487 1_555
Cs1 Ga16 4.075386 1_555
Cs1 Ga8 4.275919 1_545
Cs1 Cs7 4.341133 1_545
Cs1 Cs12 4.361318 1_555
Cs1 Cs15 4.406394 1_545
Cs1 Cs2 4.912740 1_645
Cs2 Ga11 3.718958 1_465
Cs2 Ga4 3.726461 1_565
Cs2 Ga10 3.970119 1_555
Cs2 Ga12 3.978067 1_555
Cs2 Ga6 4.015237 1_565
Cs2 Cs7 4.061083 1_555
Cs2 Cs6 4.064488 1_555
Cs2 Ga17 4.072564 1_555
Cs2 Ga8 4.278089 1_455
Cs2 Cs8 4.335645 1_465
Cs3 Ga14 3.719879 1_555
Cs3 Ga1 3.728254 1_555
Cs3 Ga15 3.971688 1_555
Cs3 Ga13 3.978989 1_455
Cs3 Ga7 4.015205 1_555
Cs3 Ga20 4.072556 1_556
Cs3 Ga9 4.277898 1_556
Cs3 Cs9 4.333818 1_556
Cs3 Cs4 4.913049 1_555
Cs3 Cs5 4.914796 1_555
Cs4 Ga15 3.722554 1_545
Cs4 Ga2 3.725358 1_545
Cs4 Ga13 3.977274 1_545
Cs4 Ga14 3.983835 1_555
Cs4 Ga7 4.006499 1_545
Cs4 Cs9 4.059790 1_556
Cs4 Ga21 4.075756 1_556
Cs4 Ga9 4.275509 1_556
Cs4 Cs5 4.914035 1_555
Cs5 Ga13 3.724031 1_455
Cs5 Ga0 3.725909 1_455
Cs5 Ga14 3.970089 1_455
Cs5 Ga15 3.981573 1_545
Cs5 Ga7 4.009036 1_455
Cs5 Cs9 4.063217 1_456
Cs5 Ga19 4.078713 1_556
Cs5 Ga9 4.267978 1_556
Cs6 Ga18 3.723461 1_455
Cs6 Ga0 3.723835 1_455
Cs6 Ga17 3.969425 1_555
Cs6 Ga16 3.980694 1_555
Cs6 Ga8 4.008801 1_455
Cs6 Ga12 4.078732 1_555
Cs6 Ga6 4.268273 1_555
Cs6 Cs7 4.913844 1_545
Cs6 Cs8 4.914493 1_455
Cs7 Ga16 3.721803 1_565
Cs7 Ga1 3.723590 1_555
Cs7 Ga18 3.976033 1_555
Cs7 Ga17 3.982587 1_555
Cs7 Ga8 4.006453 1_555
Cs7 Ga10 4.075386 1_555
Cs7 Ga6 4.275919 1_565
Cs7 Cs8 4.912740 1_465
Cs8 Ga17 3.718958 1_645
Cs8 Ga2 3.726461 1_545
Cs8 Ga16 3.970119 1_555
Cs8 Ga18 3.978067 1_555
Cs8 Ga8 4.015237 1_545
Cs8 Ga11 4.072564 1_555
Cs8 Ga6 4.278089 1_655
Cs9 Ga20 3.719879 1_555
Cs9 Ga3 3.728254 1_555
Cs9 Ga21 3.971688 1_555
Cs9 Ga19 3.978989 1_655
Cs9 Ga9 4.015205 1_555
Cs9 Ga14 4.072556 1_554
Cs9 Ga7 4.277898 1_554
Cs10 Ga21 3.722554 1_565
Cs10 Ga4 3.725358 1_565
Cs10 Ga19 3.977274 1_565
Cs10 Ga20 3.983835 1_555
Cs10 Ga9 4.006499 1_565
Cs10 Cs3 4.059790 1_554
Cs10 Cs5 4.062193 1_564
Cs10 Ga15 4.075756 1_554
Cs10 Ga7 4.275509 1_554
Cs10 Cs4 4.339503 1_564
Cs10 Cs15 4.360023 1_455
Cs10 Cs12 4.404973 1_555
Cs10 Cs9 4.913049 1_555
Cs10 Cs11 4.914035 1_555
Cs11 Ga19 3.724031 1_655
Cs11 Ga5 3.725909 1_655
Cs11 Ga20 3.970089 1_655
Cs11 Ga21 3.981573 1_565
Cs11 Ga9 4.009036 1_655
Cs11 Cs4 4.062193 1_564
Cs11 Cs3 4.063217 1_654
Cs11 Ga13 4.078713 1_554
Cs11 Ga7 4.267978 1_554
Cs11 Cs5 4.333838 1_654
Cs11 Cs15 4.359503 1_555
Cs11 Cs12 4.407850 1_555
Cs11 Cs9 4.914796 1_555
Cs12 Ga12 3.929851 1_555
Cs12 Ga10 3.931468 1_555
Cs12 Ga11 3.935201 1_555
Cs12 Ga19 4.155080 1_655
Cs12 Ga21 4.164289 1_565
Cs12 Ga20 4.164406 1_555
Cs12 Ga5 4.283610 1_655
Cs12 Ga3 4.286025 1_555
Cs12 Ga4 4.286842 1_565
Cs12 Cs2 4.362073 1_555
Cs12 Cs9 4.404376 1_555
Cs13 Ga13 3.928816 1_445
Cs13 Ga15 3.929991 1_545
Cs13 Ga14 3.933866 1_455
Cs13 Ga18 4.157289 1_455
Cs13 Ga17 4.166245 1_545
Cs13 Ga16 4.166798 1_555
Cs13 Ga0 4.283998 1_455
Cs13 Ga2 4.285956 1_445
Cs13 Ga1 4.286873 1_545
Cs13 Cs5 4.359503 1_555
Cs13 Cs4 4.360023 1_455
Cs13 Cs3 4.360877 1_545
Cs13 Cs8 4.405797 1_455
Cs13 Cs7 4.406394 1_545
Cs13 Cs6 4.409369 1_555
Cs14 Ga18 3.929851 1_555
Cs14 Ga16 3.931468 1_555
Cs14 Ga17 3.935201 1_555
Cs14 Ga13 4.155080 1_455
Cs14 Ga15 4.164289 1_545
Cs14 Ga14 4.164406 1_555
Cs14 Ga0 4.283610 1_455
Cs14 Ga1 4.286025 1_555
Cs14 Ga2 4.286842 1_545
Cs14 Cs6 4.360761 1_555
Cs14 Cs7 4.361318 1_555
Cs14 Cs8 4.362073 1_555
Cs14 Cs3 4.404376 1_555
Cs14 Cs4 4.404973 1_555
Cs14 Cs5 4.407850 1_555
Cs15 Ga19 3.928816 1_665
Cs15 Ga21 3.929991 1_565
Cs15 Ga20 3.933866 1_655
Cs15 Ga12 4.157289 1_655
Cs15 Ga11 4.166245 1_565
Cs15 Ga10 4.166798 1_555
Cs15 Ga5 4.283998 1_655
Cs15 Ga4 4.285956 1_665
Cs15 Ga3 4.286873 1_565
Cs15 Cs9 4.360877 1_565
Cs15 Cs2 4.405797 1_655
Ga0 Ga17 2.616160 1_655
Ga0 Ga14 2.616337 1_555
Ga0 Ga18 2.650430 1_555
Ga0 Ga13 2.650699 1_555
Ga0 Ga8 2.877829 1_555
Ga0 Ga7 2.878686 1_555
Ga1 Ga15 2.614531 1_555
Ga1 Ga18 2.616405 1_555
Ga1 Ga14 2.651013 1_555
Ga1 Ga16 2.652611 1_565
Ga1 Ga8 2.874143 1_555
Ga1 Ga7 2.879924 1_555
Ga2 Ga7 2.874499 1_555
Ga2 Ga8 2.879673 1_555
Ga3 Ga6 2.874143 1_555
Ga3 Ga9 2.879924 1_555
Ga4 Ga9 2.874499 1_555
Ga4 Ga6 2.879673 1_555
Ga5 Ga6 2.877829 1_555
Ga5 Ga9 2.878686 1_555
Ga10 Ga4 2.614392 1_565
Ga10 Ga3 2.652611 1_565
Ga10 Ga6 2.658783 1_565
Ga10 Ga21 2.718145 1_565
Ga11 Ga5 2.616160 1_655
Ga11 Ga4 2.650614 1_655
Ga11 Ga6 2.657065 1_655
Ga11 Ga19 2.714864 1_655
Ga12 Ga3 2.616405 1_555
Ga12 Ga5 2.650430 1_555
Ga12 Ga6 2.660103 1_555
Ga12 Ga20 2.714747 1_555
Ga13 Ga2 2.616539 1_555
Ga13 Ga7 2.660546 1_555
Ga13 Ga17 2.714864 1_655
Ga14 Ga7 2.657590 1_555
Ga14 Ga18 2.714747 1_555
Ga15 Ga2 2.652746 1_555
Ga15 Ga7 2.659507 1_555
Ga15 Ga16 2.718145 1_565
Ga16 Ga2 2.614392 1_545
Ga16 Ga8 2.658783 1_545
Ga17 Ga2 2.650614 1_455
Ga17 Ga8 2.657065 1_455
Ga18 Ga8 2.660103 1_555
Ga19 Ga4 2.616539 1_555
Ga19 Ga5 2.650699 1_555
Ga19 Ga9 2.660546 1_555
Ga20 Ga5 2.616337 1_555
Ga20 Ga3 2.651013 1_555
Ga20 Ga9 2.657590 1_555
Ga21 Ga3 2.614531 1_555
Ga21 Ga4 2.652746 1_555
Ga21 Ga9 2.659507 1_555
