# generated using pymatgen
data_Ca(BiO2)2
_symmetry_space_group_name_H-M   'P 1'
_cell_length_a   7.02588382
_cell_length_b   7.02588382
_cell_length_c   23.31469705
_cell_angle_alpha   81.24563353
_cell_angle_beta   81.24563353
_cell_angle_gamma   59.95170078
_symmetry_Int_Tables_number   1
_chemical_formula_structural   Ca(BiO2)2
_chemical_formula_sum   'Ca8 Bi16 O32'
_cell_volume   980.71219716
_cell_formula_units_Z   8
loop_
 _symmetry_equiv_pos_site_id
 _symmetry_equiv_pos_as_xyz
  1  'x, y, z'
loop_
 _atom_site_type_symbol
 _atom_site_label
 _atom_site_symmetry_multiplicity
 _atom_site_fract_x
 _atom_site_fract_y
 _atom_site_fract_z
 _atom_site_occupancy
  Ca  Ca0  1  0.65401400  0.65401400  0.03037000  1
  Ca  Ca1  1  0.12435100  0.12435100  0.12512000  1
  Ca  Ca2  1  0.90341100  0.90341100  0.28114500  1
  Ca  Ca3  1  0.37414000  0.37414000  0.37577300  1
  Ca  Ca4  1  0.62499900  0.62499900  0.62486700  1
  Ca  Ca5  1  0.50004700  0.50004700  0.50007200  1
  Ca  Ca6  1  0.87518000  0.87518000  0.87422300  1
  Ca  Ca7  1  0.75051800  0.75051800  0.74885400  1
  Bi  Bi0  1  0.63029900  0.12372800  0.12530200  1
  Bi  Bi1  1  0.25005600  0.25005600  0.25347000  1
  Bi  Bi2  1  0.12372800  0.63029900  0.12530200  1
  Bi  Bi3  1  0.15306600  0.15306600  0.53278600  1
  Bi  Bi4  1  0.87339100  0.37457100  0.37613900  1
  Bi  Bi5  1  0.59718700  0.59718700  0.21921700  1
  Bi  Bi6  1  0.40355900  0.40355900  0.78176900  1
  Bi  Bi7  1  0.37457100  0.87339100  0.37613900  1
  Bi  Bi8  1  0.12476600  0.62511600  0.62468700  1
  Bi  Bi9  1  0.84691100  0.84691100  0.46765900  1
  Bi  Bi10  1  0.62511600  0.12476600  0.62468700  1
  Bi  Bi11  1  0.87396300  0.38134300  0.87384300  1
  Bi  Bi12  1  0.38134300  0.87396300  0.87384300  1
  Bi  Bi13  1  0.09664900  0.09664900  0.71761900  1
  Bi  Bi14  1  0.00075100  0.00075100  0.00190300  1
  Bi  Bi15  1  0.34675000  0.34675000  0.96940600  1
  O  O0  1  0.28549400  0.82427200  0.06454200  1
  O  O1  1  0.93865000  0.93865000  0.18046200  1
  O  O2  1  0.82427200  0.28549400  0.06454200  1
  O  O3  1  0.82175700  0.82175700  0.06447200  1
  O  O4  1  0.43416900  0.43416900  0.18635400  1
  O  O5  1  0.53454700  0.07615700  0.31496600  1
  O  O6  1  0.42716200  0.95509000  0.18471900  1
  O  O7  1  0.18973200  0.18973200  0.43342000  1
  O  O8  1  0.07615700  0.53454700  0.31496600  1
  O  O9  1  0.30853200  0.30853200  0.06779000  1
  O  O10  1  0.07138900  0.07138900  0.31434100  1
  O  O11  1  0.95509000  0.42716200  0.18471900  1
  O  O12  1  0.78722900  0.32320700  0.56471400  1
  O  O13  1  0.67878600  0.67878600  0.43654900  1
  O  O14  1  0.67692500  0.21076900  0.43556700  1
  O  O15  1  0.44036000  0.44036000  0.68228400  1
  O  O16  1  0.32320700  0.78722900  0.56471400  1
  O  O17  1  0.55937500  0.55937500  0.31964300  1
  O  O18  1  0.32278800  0.32278800  0.56373100  1
  O  O19  1  0.21076900  0.67692500  0.43556700  1
  O  O20  1  0.92769600  0.92769600  0.68621800  1
  O  O21  1  0.03846100  0.57179800  0.81414300  1
  O  O22  1  0.92639900  0.46264900  0.68520200  1
  O  O23  1  0.68959200  0.68959200  0.92935100  1
  O  O24  1  0.57179800  0.03846100  0.81414300  1
  O  O25  1  0.80969300  0.80969300  0.56792900  1
  O  O26  1  0.57318900  0.57318900  0.81377600  1
  O  O27  1  0.46264900  0.92639900  0.68520200  1
  O  O28  1  0.18274000  0.18274000  0.93608900  1
  O  O29  1  0.17605100  0.70768600  0.93454600  1
  O  O30  1  0.05883400  0.05883400  0.81659300  1
  O  O31  1  0.70768600  0.17605100  0.93454600  1
loop_
_geom_bond_atom_site_label_1
_geom_bond_atom_site_label_2
_geom_bond_distance
_geom_bond_site_symmetry_2
Ca0 O0 2.308673 1_555
Ca0 O2 2.308673 1_555
Ca0 O3 2.317655 1_555
Ca0 O23 2.318668 1_554
Ca1 O11 2.394673 1_455
Ca1 O6 2.394673 1_545
Ca1 O1 2.397764 1_445
Ca1 O0 2.398078 1_545
Ca1 O2 2.398078 1_455
Ca1 O9 2.399917 1_555
Ca2 O8 2.308781 1_655
Ca2 O5 2.308781 1_565
Ca2 O10 2.309912 1_665
Ca2 O1 2.310935 1_555
Ca3 O8 2.391094 1_555
Ca3 O5 2.391094 1_555
Ca3 O19 2.399331 1_555
Ca3 O14 2.399331 1_555
Ca3 O17 2.399880 1_555
Ca3 O7 2.405137 1_555
Ca4 O12 2.400043 1_555
Ca4 O16 2.400043 1_555
Ca4 O22 2.400720 1_555
Ca4 O27 2.400720 1_555
Ca4 O25 2.401578 1_555
Ca4 O15 2.405376 1_555
Ca5 O16 2.394013 1_555
Ca5 O12 2.394013 1_555
Ca5 O18 2.394338 1_555
Ca5 O19 2.401871 1_555
Ca5 O14 2.401871 1_555
Ca5 O13 2.407186 1_555
Ca6 O23 2.394742 1_555
Ca6 O29 2.396098 1_655
Ca6 O31 2.396098 1_565
Ca6 O30 2.397321 1_665
Ca6 O24 2.406743 1_565
Ca6 O21 2.406743 1_655
Ca7 O27 2.381697 1_555
Ca7 O22 2.381697 1_555
Ca7 O20 2.382637 1_555
Ca7 O24 2.407924 1_565
Ca7 O21 2.407924 1_655
Ca7 O26 2.408740 1_555
Bi0 O1 2.357131 1_545
Bi0 O2 2.372602 1_555
Bi0 O3 2.408154 1_545
Bi0 O6 2.439638 1_545
Bi0 O4 2.453625 1_555
Bi0 O9 2.459215 1_555
Bi1 O5 2.331754 1_555
Bi1 O8 2.331754 1_555
Bi1 O10 2.378890 1_555
Bi1 O11 2.496803 1_455
Bi1 O6 2.496803 1_545
Bi1 O4 2.497716 1_555
Bi2 O1 2.357131 1_455
Bi2 O0 2.372602 1_555
Bi2 O3 2.408154 1_455
Bi2 O11 2.439638 1_455
Bi2 O4 2.453625 1_555
Bi2 O9 2.459215 1_555
Bi3 O16 2.280589 1_545
Bi3 O12 2.280589 1_455
Bi3 O7 2.280987 1_555
Bi3 O18 2.304810 1_555
Bi4 O14 2.381786 1_555
Bi4 O17 2.404902 1_555
Bi4 O8 2.413313 1_655
Bi4 O13 2.413514 1_555
Bi4 O7 2.427941 1_655
Bi4 O10 2.430035 1_655
Bi5 O4 2.249147 1_555
Bi5 O6 2.250697 1_555
Bi5 O11 2.250697 1_555
Bi5 O17 2.305496 1_555
Bi6 O21 2.278718 1_555
Bi6 O24 2.278718 1_555
Bi6 O15 2.283738 1_555
Bi6 O26 2.315501 1_555
Bi7 O19 2.381786 1_555
Bi7 O17 2.404902 1_555
Bi7 O5 2.413313 1_565
Bi7 O13 2.413514 1_555
Bi7 O7 2.427941 1_565
Bi7 O10 2.430035 1_565
Bi8 O16 2.389223 1_555
Bi8 O22 2.395912 1_455
Bi8 O18 2.413451 1_555
Bi8 O25 2.414036 1_455
Bi8 O20 2.422900 1_455
Bi8 O15 2.428600 1_555
Bi9 O19 2.270167 1_655
Bi9 O14 2.270167 1_565
Bi9 O13 2.288146 1_555
Bi9 O25 2.301786 1_555
Bi10 O12 2.389223 1_555
Bi10 O27 2.395912 1_545
Bi10 O18 2.413451 1_555
Bi10 O25 2.414036 1_545
Bi10 O20 2.422900 1_545
Bi10 O15 2.428600 1_555
Bi11 O21 2.357076 1_655
Bi11 O23 2.361466 1_555
Bi11 O26 2.391109 1_555
Bi11 O31 2.451735 1_555
Bi11 O30 2.459371 1_655
Bi11 O28 2.463731 1_655
Bi12 O24 2.357076 1_565
Bi12 O23 2.361466 1_555
Bi12 O26 2.391109 1_555
Bi12 O29 2.451735 1_555
Bi12 O30 2.459371 1_565
Bi12 O28 2.463731 1_565
Bi13 O30 2.272314 1_555
Bi13 O22 2.284230 1_455
Bi13 O27 2.284230 1_545
Bi13 O20 2.300940 1_445
Bi14 O2 2.350842 1_455
Bi14 O0 2.350842 1_545
Bi14 O3 2.399601 1_445
Bi14 O28 2.463157 1_554
Bi14 O29 2.465480 1_544
Bi14 O31 2.465480 1_454
Bi15 O9 2.258966 1_556
Bi15 O28 2.265775 1_555
Bi15 O29 2.270074 1_555
Bi15 O31 2.270074 1_555
