# generated using pymatgen
data_RbAlSi3O8
_symmetry_space_group_name_H-M   'P 1'
_cell_length_a   8.01704976
_cell_length_b   8.01704976
_cell_length_c   7.22985689
_cell_angle_alpha   76.01360898
_cell_angle_beta   76.01360898
_cell_angle_gamma   112.26579304
_symmetry_Int_Tables_number   1
_chemical_formula_structural   RbAlSi3O8
_chemical_formula_sum   'Rb2 Al2 Si6 O16'
_cell_volume   387.48599989
_cell_formula_units_Z   2
loop_
 _symmetry_equiv_pos_site_id
 _symmetry_equiv_pos_as_xyz
  1  'x, y, z'
loop_
 _atom_site_type_symbol
 _atom_site_label
 _atom_site_symmetry_multiplicity
 _atom_site_fract_x
 _atom_site_fract_y
 _atom_site_fract_z
 _atom_site_occupancy
  Rb  Rb0  1  0.28966000  0.30300500  0.85619100  1
  Rb  Rb1  1  0.69699500  0.71034000  0.14380900  1
  Al  Al0  1  0.60449800  0.84195800  0.65210300  1
  Al  Al1  1  0.15804200  0.39550200  0.34789700  1
  Si  Si0  1  0.84800300  0.60717400  0.65087900  1
  Si  Si1  1  0.39282600  0.15199700  0.34912100  1
  Si  Si2  1  0.82166600  0.20225800  0.77292400  1
  Si  Si3  1  0.20091900  0.81391000  0.77794900  1
  Si  Si4  1  0.18609000  0.79908100  0.22205100  1
  Si  Si5  1  0.79774200  0.17833400  0.22707600  1
  O  O0  1  0.66294300  0.99918000  0.78251800  1
  O  O1  1  0.98797800  0.67582500  0.77911200  1
  O  O2  1  0.32417500  0.01202200  0.22088800  1
  O  O3  1  0.00082000  0.33705700  0.21748200  1
  O  O4  1  0.83533700  0.16466300  0.00000000  1
  O  O5  1  0.15618200  0.84381800  0.00000000  1
  O  O6  1  0.03898700  0.27919000  0.61367900  1
  O  O7  1  0.28695600  0.03019200  0.59894200  1
  O  O8  1  0.96980800  0.71304400  0.40105800  1
  O  O9  1  0.72081000  0.96101300  0.38632100  1
  O  O10  1  0.66949100  0.65545400  0.71724000  1
  O  O11  1  0.34454600  0.33050900  0.28276000  1
  O  O12  1  0.75255400  0.37169300  0.71580700  1
  O  O13  1  0.34822500  0.72356100  0.73616300  1
  O  O14  1  0.27643900  0.65177500  0.26383700  1
  O  O15  1  0.62830700  0.24744600  0.28419300  1
loop_
_geom_bond_atom_site_label_1
_geom_bond_atom_site_label_2
_geom_bond_distance
_geom_bond_site_symmetry_2
Al0 O0 1.742929 1_555
Al0 O9 1.745217 1_555
Al0 O10 1.759991 1_555
Al0 O13 1.769531 1_555
Al1 O3 1.742929 1_555
Al1 O6 1.745217 1_555
Al1 O11 1.759991 1_555
Al1 O14 1.769531 1_555
O0 Si2 1.614771 1_565
O0 Rb1 3.187420 1_556
O1 Si3 1.642066 1_655
O1 Si0 1.644159 1_555
O1 Rb1 3.215500 1_556
O2 Si4 1.642066 1_545
O2 Si1 1.644159 1_555
O2 Rb0 3.215500 1_554
O3 Si5 1.614771 1_455
O3 Rb0 3.187420 1_554
O4 Si2 1.634303 1_554
O4 Si5 1.634303 1_555
O4 Rb1 3.182513 1_545
O4 Rb0 3.182513 1_654
O5 Si3 1.654188 1_554
O5 Si4 1.654188 1_555
O5 Rb1 3.225679 1_455
O5 Rb0 3.225679 1_564
O6 Si2 1.616867 1_455
O6 Rb0 2.953578 1_555
O7 Si1 1.647586 1_555
O7 Si3 1.653686 1_545
O7 Rb0 3.192668 1_555
O8 Si0 1.647586 1_555
O8 Si4 1.653686 1_655
O8 Rb1 3.192668 1_555
O9 Si5 1.616867 1_565
O9 Rb1 2.953578 1_555
O10 Si0 1.614252 1_555
O10 Rb0 2.982408 1_555
O10 Rb1 3.265680 1_556
O11 Si1 1.614252 1_555
O11 Rb1 2.982408 1_555
O11 Rb0 3.265680 1_554
O12 Si0 1.634987 1_555
O12 Si2 1.653027 1_555
O12 Rb0 3.386109 1_555
O13 Si3 1.610013 1_555
O13 Rb0 3.087138 1_555
O14 Si4 1.610013 1_555
O14 Rb1 3.087138 1_555
O15 Si1 1.634987 1_555
O15 Si5 1.653027 1_555
O15 Rb1 3.386109 1_555
