# generated using pymatgen
data_KSO3F
_symmetry_space_group_name_H-M   'P 1'
_cell_length_a   6.04081100
_cell_length_b   7.55605600
_cell_length_c   8.82252200
_cell_angle_alpha   90.00000000
_cell_angle_beta   90.00000000
_cell_angle_gamma   90.00000000
_symmetry_Int_Tables_number   1
_chemical_formula_structural   KSO3F
_chemical_formula_sum   'K4 S4 O12 F4'
_cell_volume   402.70142465
_cell_formula_units_Z   4
loop_
 _symmetry_equiv_pos_site_id
 _symmetry_equiv_pos_as_xyz
  1  'x, y, z'
loop_
 _atom_site_type_symbol
 _atom_site_label
 _atom_site_symmetry_multiplicity
 _atom_site_fract_x
 _atom_site_fract_y
 _atom_site_fract_z
 _atom_site_occupancy
  K  K0  1  0.25000000  0.34161900  0.67748000  1
  K  K1  1  0.25000000  0.15838100  0.17748000  1
  K  K2  1  0.75000000  0.65838100  0.32252000  1
  K  K3  1  0.75000000  0.84161900  0.82252000  1
  S  S0  1  0.25000000  0.80047300  0.55569800  1
  S  S1  1  0.25000000  0.69952700  0.05569800  1
  S  S2  1  0.75000000  0.19952700  0.44430200  1
  S  S3  1  0.75000000  0.30047300  0.94430200  1
  O  O0  1  0.04719800  0.70216800  0.58380400  1
  O  O1  1  0.45280200  0.79783200  0.08380400  1
  O  O2  1  0.54719800  0.29783200  0.41619600  1
  O  O3  1  0.95280200  0.20216800  0.91619600  1
  O  O4  1  0.95280200  0.29783200  0.41619600  1
  O  O5  1  0.54719800  0.20216800  0.91619600  1
  O  O6  1  0.45280200  0.70216800  0.58380400  1
  O  O7  1  0.04719800  0.79783200  0.08380400  1
  O  O8  1  0.25000000  0.91202300  0.42286200  1
  O  O9  1  0.25000000  0.58797700  0.92286200  1
  O  O10  1  0.75000000  0.08797700  0.57713800  1
  O  O11  1  0.75000000  0.41202300  0.07713800  1
  F  F0  1  0.25000000  0.94580300  0.69689500  1
  F  F1  1  0.25000000  0.55419700  0.19689500  1
  F  F2  1  0.75000000  0.05419700  0.30310500  1
  F  F3  1  0.75000000  0.44580300  0.80310500  1
loop_
_geom_bond_atom_site_label_1
_geom_bond_atom_site_label_2
_geom_bond_distance
_geom_bond_site_symmetry_2
K0 O9 2.855154 1_555
K0 O2 2.940493 1_555
K0 O4 2.940493 1_455
K0 O5 2.961251 1_555
K0 O3 2.961251 1_455
K0 O6 3.099329 1_555
K0 O0 3.099329 1_555
K1 O8 2.855154 1_545
K1 O5 2.940493 1_554
K1 O3 2.940493 1_454
K1 O2 2.961251 1_555
K1 O4 2.961251 1_455
K1 O7 3.099329 1_545
K1 O1 3.099329 1_545
K2 O11 2.855154 1_555
K2 O6 2.940493 1_555
K2 O0 2.940493 1_655
K2 O1 2.961251 1_555
K2 O7 2.961251 1_655
K2 O4 3.099329 1_555
K2 O2 3.099329 1_555
K3 O10 2.855154 1_565
K3 O1 2.940493 1_556
K3 O7 2.940493 1_656
K3 O6 2.961251 1_555
K3 O0 2.961251 1_655
K3 O3 3.099329 1_565
K3 O5 3.099329 1_565
O0 S0 1.453987 1_555
O1 S1 1.453987 1_555
O2 S2 1.453987 1_555
O3 S3 1.453987 1_555
O4 S2 1.453987 1_555
O5 S3 1.453987 1_555
O6 S0 1.453987 1_555
O7 S1 1.453987 1_555
O8 S0 1.443574 1_555
O9 S1 1.443574 1_556
O10 S2 1.443574 1_555
O11 S3 1.443574 1_554
F0 S0 1.660624 1_555
F0 K0 2.995709 1_565
F1 S1 1.660624 1_555
F1 K1 2.995709 1_555
F2 S2 1.660624 1_555
F2 K2 2.995709 1_545
F3 S3 1.660624 1_555
F3 K3 2.995709 1_555
