# generated using pymatgen
data_ErVB4
_symmetry_space_group_name_H-M   'P 1'
_cell_length_a   3.41276000
_cell_length_b   5.99167900
_cell_length_c   11.59319100
_cell_angle_alpha   90.00000000
_cell_angle_beta   90.00000000
_cell_angle_gamma   90.00000000
_symmetry_Int_Tables_number   1
_chemical_formula_structural   ErVB4
_chemical_formula_sum   'Er4 V4 B16'
_cell_volume   237.05945258
_cell_formula_units_Z   4
loop_
 _symmetry_equiv_pos_site_id
 _symmetry_equiv_pos_as_xyz
  1  'x, y, z'
loop_
 _atom_site_type_symbol
 _atom_site_label
 _atom_site_symmetry_multiplicity
 _atom_site_fract_x
 _atom_site_fract_y
 _atom_site_fract_z
 _atom_site_occupancy
  Er  Er0  1  0.50000000  0.12434700  0.84866300  1
  Er  Er1  1  0.50000000  0.87565300  0.15133700  1
  Er  Er2  1  0.50000000  0.62434700  0.65133700  1
  Er  Er3  1  0.50000000  0.37565300  0.34866300  1
  V  V0  1  0.50000000  0.12801700  0.58346900  1
  V  V1  1  0.50000000  0.87198300  0.41653100  1
  V  V2  1  0.50000000  0.62801700  0.91653100  1
  V  V3  1  0.50000000  0.37198300  0.08346900  1
  B  B0  1  0.00000000  0.28713300  0.68587400  1
  B  B1  1  0.00000000  0.71286700  0.31412600  1
  B  B2  1  0.00000000  0.78713300  0.81412600  1
  B  B3  1  0.00000000  0.21286700  0.18587400  1
  B  B4  1  0.00000000  0.36508300  0.53233700  1
  B  B5  1  0.00000000  0.63491700  0.46766300  1
  B  B6  1  0.00000000  0.86508300  0.96766300  1
  B  B7  1  0.00000000  0.13491700  0.03233700  1
  B  B8  1  0.00000000  0.02275900  0.30736600  1
  B  B9  1  0.00000000  0.97724100  0.69263400  1
  B  B10  1  0.00000000  0.52275900  0.19263400  1
  B  B11  1  0.00000000  0.47724100  0.80736600  1
  B  B12  1  0.00000000  0.11504800  0.45232700  1
  B  B13  1  0.00000000  0.88495200  0.54767300  1
  B  B14  1  0.00000000  0.61504800  0.04767300  1
  B  B15  1  0.00000000  0.38495200  0.95232700  1
loop_
_geom_bond_atom_site_label_1
_geom_bond_atom_site_label_2
_geom_bond_distance
_geom_bond_site_symmetry_2
B0 B11 1.811432 1_555
B0 B4 1.840239 1_555
B0 B9 1.858427 1_545
B0 V0 2.286940 1_555
B0 V0 2.286940 1_455
B0 Er2 2.674767 1_455
B0 Er2 2.674767 1_555
B0 Er0 2.724840 1_555
B0 Er0 2.724840 1_455
B1 B10 1.811432 1_555
B1 B5 1.840239 1_555
B1 B8 1.858427 1_565
B1 V1 2.286940 1_455
B1 V1 2.286940 1_555
B1 Er3 2.674767 1_555
B1 Er3 2.674767 1_455
B1 Er1 2.724840 1_455
B1 Er1 2.724840 1_555
B2 B9 1.811432 1_555
B2 B6 1.840239 1_555
B2 V2 2.286940 1_555
B2 V2 2.286940 1_455
B2 Er0 2.674767 1_565
B2 Er0 2.674767 1_465
B2 Er2 2.724840 1_455
B2 Er2 2.724840 1_555
B3 B8 1.811432 1_555
B3 B7 1.840239 1_555
B3 V3 2.286940 1_555
B3 V3 2.286940 1_455
B3 Er1 2.674767 1_545
B3 Er1 2.674767 1_445
B3 Er3 2.724840 1_555
B3 Er3 2.724840 1_455
B4 B5 1.782155 1_555
B4 V0 2.297983 1_555
B4 V0 2.297983 1_455
B4 Er2 2.688519 1_555
B4 Er2 2.688519 1_455
B4 Er3 2.729460 1_555
B4 Er3 2.729460 1_455
B5 V1 2.297983 1_555
B5 V1 2.297983 1_455
B5 Er3 2.688519 1_455
B5 Er3 2.688519 1_555
B5 Er2 2.729460 1_555
B5 Er2 2.729460 1_455
B6 B7 1.782155 1_566
B6 V2 2.297983 1_455
B6 V2 2.297983 1_555
B6 Er0 2.688519 1_465
B6 Er0 2.688519 1_565
B6 Er1 2.729460 1_456
B6 Er1 2.729460 1_556
B7 V3 2.297983 1_555
B7 V3 2.297983 1_455
B7 Er1 2.688519 1_545
B7 Er1 2.688519 1_445
B7 Er0 2.729460 1_554
B7 Er0 2.729460 1_454
B8 V1 2.308579 1_545
B8 V1 2.308579 1_445
B8 Er1 2.638303 1_445
B8 Er1 2.638303 1_545
B8 Er3 2.758940 1_455
B8 Er3 2.758940 1_555
B9 V0 2.308579 1_565
B9 V0 2.308579 1_465
B9 Er0 2.638303 1_565
B9 Er0 2.638303 1_465
B9 Er2 2.758940 1_455
B9 Er2 2.758940 1_555
B10 B14 1.769196 1_555
B10 B3 1.858427 1_555
B10 V3 2.308579 1_455
B10 V3 2.308579 1_555
B10 Er3 2.638303 1_455
B10 Er3 2.638303 1_555
B10 Er1 2.758940 1_555
B10 Er1 2.758940 1_455
B11 B15 1.769196 1_555
B11 B2 1.858427 1_555
B11 V2 2.308579 1_555
B11 V2 2.308579 1_455
B11 Er2 2.638303 1_555
B11 Er2 2.638303 1_455
B11 Er0 2.758940 1_555
B11 Er0 2.758940 1_455
B12 B4 1.762039 1_555
B12 B13 1.767070 1_545
B12 B8 1.769196 1_555
B12 V1 2.281437 1_445
B12 V1 2.281437 1_545
B12 V0 2.286755 1_455
B12 V0 2.286755 1_555
B12 Er3 2.606570 1_455
B12 Er3 2.606570 1_555
B13 B5 1.762039 1_555
B13 B9 1.769196 1_555
B13 V0 2.281437 1_565
B13 V0 2.281437 1_465
B13 V1 2.286755 1_555
B13 V1 2.286755 1_455
B13 Er2 2.606570 1_555
B13 Er2 2.606570 1_455
B14 B6 1.762039 1_554
B14 B15 1.767070 1_554
B14 V3 2.281437 1_455
B14 V3 2.281437 1_555
B14 V2 2.286755 1_554
B14 V2 2.286755 1_454
B14 Er1 2.606570 1_555
B14 Er1 2.606570 1_455
B15 B7 1.762039 1_556
B15 V2 2.281437 1_455
B15 V2 2.281437 1_555
B15 V3 2.286755 1_456
B15 V3 2.286755 1_556
B15 Er0 2.606570 1_555
B15 Er0 2.606570 1_455
