# generated using pymatgen
data_HgP2PdO7
_symmetry_space_group_name_H-M   'P 1'
_cell_length_a   7.62888711
_cell_length_b   7.62888711
_cell_length_c   8.96527662
_cell_angle_alpha   79.71654764
_cell_angle_beta   79.71654764
_cell_angle_gamma   38.04862029
_symmetry_Int_Tables_number   1
_chemical_formula_structural   HgP2PdO7
_chemical_formula_sum   'Hg2 P4 Pd2 O14'
_cell_volume   315.80208303
_cell_formula_units_Z   2
loop_
 _symmetry_equiv_pos_site_id
 _symmetry_equiv_pos_as_xyz
  1  'x, y, z'
loop_
 _atom_site_type_symbol
 _atom_site_label
 _atom_site_symmetry_multiplicity
 _atom_site_fract_x
 _atom_site_fract_y
 _atom_site_fract_z
 _atom_site_occupancy
  Hg  Hg0  1  0.50000000  0.00000000  0.00000000  1
  Hg  Hg1  1  0.00000000  0.50000000  0.50000000  1
  P  P0  1  0.73422900  0.46738100  0.22552600  1
  P  P1  1  0.53261900  0.26577100  0.27447400  1
  P  P2  1  0.26577100  0.53261900  0.77447400  1
  P  P3  1  0.46738100  0.73422900  0.72552600  1
  Pd  Pd0  1  0.00000000  0.00000000  0.00000000  1
  Pd  Pd1  1  0.00000000  0.00000000  0.50000000  1
  O  O0  1  0.92779000  0.28554200  0.08830600  1
  O  O1  1  0.71445800  0.07221000  0.41169400  1
  O  O2  1  0.07221000  0.71445800  0.91169400  1
  O  O3  1  0.28554200  0.92779000  0.58830600  1
  O  O4  1  0.47636100  0.52363900  0.25000000  1
  O  O5  1  0.52363900  0.47636100  0.75000000  1
  O  O6  1  0.40285000  0.24032300  0.79509700  1
  O  O7  1  0.75967700  0.59715000  0.70490300  1
  O  O8  1  0.59715000  0.75967700  0.20490300  1
  O  O9  1  0.24032300  0.40285000  0.29509700  1
  O  O10  1  0.66864900  0.12269100  0.12176900  1
  O  O11  1  0.87730900  0.33135100  0.37823100  1
  O  O12  1  0.33135100  0.87730900  0.87823100  1
  O  O13  1  0.12269100  0.66864900  0.62176900  1
loop_
_geom_bond_atom_site_label_1
_geom_bond_atom_site_label_2
_geom_bond_distance
_geom_bond_site_symmetry_2
Hg0 O6 2.104464 1_554
Hg0 O8 2.104464 1_545
Hg0 O10 2.546805 1_555
Hg0 O12 2.546805 1_544
Hg1 O9 2.104464 1_555
Hg1 O7 2.104464 1_455
Hg1 O13 2.546805 1_555
Hg1 O11 2.546805 1_455
O0 P0 1.533881 1_555
O0 Pd0 2.060472 1_655
O1 P1 1.533881 1_555
O1 Pd1 2.060472 1_655
O2 P2 1.533881 1_555
O2 Pd0 2.060472 1_566
O3 P3 1.533881 1_555
O3 Pd1 2.060472 1_565
O4 P1 1.628538 1_555
O4 P0 1.628538 1_555
O5 P2 1.628538 1_555
O5 P3 1.628538 1_555
O6 P2 1.532748 1_555
O7 P3 1.532748 1_555
O8 P0 1.532748 1_555
O9 P1 1.532748 1_555
O10 P1 1.544315 1_555
O10 Pd0 2.027542 1_655
O11 P0 1.544315 1_555
O11 Pd1 2.027542 1_655
O12 P3 1.544315 1_555
O12 Pd0 2.027542 1_566
O13 P2 1.544315 1_555
O13 Pd1 2.027542 1_565
