# generated using pymatgen
data_Li3MnCoO5
_symmetry_space_group_name_H-M   'P 1'
_cell_length_a   2.90705800
_cell_length_b   5.14333734
_cell_length_c   12.17615068
_cell_angle_alpha   94.53703290
_cell_angle_beta   96.19920279
_cell_angle_gamma   90.38867081
_symmetry_Int_Tables_number   1
_chemical_formula_structural   Li3MnCoO5
_chemical_formula_sum   'Li6 Mn2 Co2 O10'
_cell_volume   180.40424136
_cell_formula_units_Z   2
loop_
 _symmetry_equiv_pos_site_id
 _symmetry_equiv_pos_as_xyz
  1  'x, y, z'
loop_
 _atom_site_type_symbol
 _atom_site_label
 _atom_site_symmetry_multiplicity
 _atom_site_fract_x
 _atom_site_fract_y
 _atom_site_fract_z
 _atom_site_occupancy
  Li  Li0  1  0.89440200  0.30851900  0.79771300  1
  Li  Li1  1  0.32499900  0.09298300  0.61049200  1
  Li  Li2  1  0.70720600  0.90779700  0.40479300  1
  Li  Li3  1  0.09189100  0.69828900  0.19453100  1
  Li  Li4  1  0.48553400  0.49882900  0.99256500  1
  Li  Li5  1  0.40893900  0.79132300  0.80158500  1
  Mn  Mn0  1  0.99050700  0.98474700  0.99365200  1
  Mn  Mn1  1  0.19958000  0.41103300  0.40081300  1
  Co  Co0  1  0.81497200  0.61778800  0.61520700  1
  Co  Co1  1  0.59540600  0.19997100  0.19744900  1
  O  O0  1  0.45514500  0.12766100  0.91231100  1
  O  O1  1  0.85780400  0.92800300  0.69044000  1
  O  O2  1  0.25037400  0.72051500  0.49654200  1
  O  O3  1  0.65672100  0.53999100  0.30807900  1
  O  O4  1  0.03522600  0.32320400  0.10105900  1
  O  O5  1  0.35355100  0.44643200  0.69136700  1
  O  O6  1  0.73836600  0.27982800  0.48656000  1
  O  O7  1  0.15430300  0.08333300  0.30176100  1
  O  O8  1  0.53434700  0.86637800  0.09374000  1
  O  O9  1  0.95073000  0.67337700  0.90934100  1
loop_
_geom_bond_atom_site_label_1
_geom_bond_atom_site_label_2
_geom_bond_distance
_geom_bond_site_symmetry_2
Li0 O5 2.091101 1_555
Li0 O5 2.113586 1_655
Li0 O9 2.222622 1_555
Li0 O0 2.239861 1_555
Li0 O1 2.260634 1_545
Li0 O0 2.281288 1_655
Li1 O1 1.972209 1_545
Li1 O1 1.978092 1_445
Li1 O5 1.994614 1_555
Li1 O2 2.269581 1_545
Li1 O6 2.291308 1_555
Li1 O6 2.409324 1_455
Li2 O6 2.082696 1_565
Li2 O2 2.100684 1_555
Li2 O2 2.116388 1_655
Li2 O3 2.143239 1_555
Li2 O7 2.143296 1_665
Li2 O7 2.176199 1_565
Li3 O8 2.098017 1_555
Li3 O8 2.153571 1_455
Li3 O4 2.156866 1_555
Li3 O3 2.171786 1_455
Li3 O3 2.230804 1_555
Li3 O7 2.279156 1_565
Li4 O9 2.018060 1_455
Li4 O9 2.021169 1_555
Li4 O0 2.071490 1_555
Li4 O8 2.168329 1_556
Li4 O4 2.195676 1_556
Li4 O4 2.206153 1_656
Li5 O9 2.064643 1_555
Li5 O9 2.087160 1_455
Li5 O0 2.101675 1_565
Li5 O5 2.132249 1_555
Li5 O1 2.132563 1_555
Li5 O1 2.142467 1_455
Mn0 O9 1.828588 1_555
Mn0 O0 1.932961 1_665
Mn0 O0 1.934216 1_565
Mn0 O8 2.017339 1_656
Mn0 O8 2.017375 1_556
Mn0 O4 2.087502 1_666
Mn1 O2 1.892165 1_555
Mn1 O6 1.935117 1_455
Mn1 O6 1.941995 1_555
Mn1 O3 1.977769 1_555
Mn1 O3 1.988268 1_455
Mn1 O7 1.988429 1_555
Co0 O1 1.772522 1_555
Co0 O5 1.953950 1_555
Co0 O5 1.980536 1_655
Co0 O2 2.115568 1_655
Co0 O2 2.163595 1_555
Co0 O6 2.239064 1_555
Co1 O4 1.960809 1_655
Co1 O7 2.019722 1_555
Co1 O4 2.037170 1_555
Co1 O8 2.043208 1_545
Co1 O7 2.073880 1_655
Co1 O3 2.115646 1_555
