# generated using pymatgen
data_CdIn
_symmetry_space_group_name_H-M   'P 1'
_cell_length_a   6.28022958
_cell_length_b   6.28022958
_cell_length_c   11.54369594
_cell_angle_alpha   90.00000000
_cell_angle_beta   90.00000000
_cell_angle_gamma   120.00001833
_symmetry_Int_Tables_number   1
_chemical_formula_structural   CdIn
_chemical_formula_sum   'Cd8 In8'
_cell_volume   394.29972175
_cell_formula_units_Z   8
loop_
 _symmetry_equiv_pos_site_id
 _symmetry_equiv_pos_as_xyz
  1  'x, y, z'
loop_
 _atom_site_type_symbol
 _atom_site_label
 _atom_site_symmetry_multiplicity
 _atom_site_fract_x
 _atom_site_fract_y
 _atom_site_fract_z
 _atom_site_occupancy
  Cd  Cd0_0  1  0.00000000  0.00000000  0.25000000  1
  Cd  Cd0_1  1  0.00000000  0.00000000  0.75000000  1
  Cd  Cd0_2  1  0.00000000  0.50000000  0.25000000  1
  Cd  Cd0_3  1  0.00000000  0.50000000  0.75000000  1
  Cd  Cd0_4  1  0.50000000  0.00000000  0.25000000  1
  Cd  Cd0_5  1  0.50000000  0.00000000  0.75000000  1
  Cd  Cd0_6  1  0.50000000  0.50000000  0.25000000  1
  Cd  Cd0_7  1  0.50000000  0.50000000  0.75000000  1
  In  In0_0  1  0.33333350  0.16666650  0.00000000  1
  In  In0_1  1  0.33333350  0.16666650  0.50000000  1
  In  In0_2  1  0.33333350  0.66666650  0.00000000  1
  In  In0_3  1  0.33333350  0.66666650  0.50000000  1
  In  In0_4  1  0.83333350  0.16666650  0.00000000  1
  In  In0_5  1  0.83333350  0.16666650  0.50000000  1
  In  In0_6  1  0.83333350  0.66666650  0.00000000  1
  In  In0_7  1  0.83333350  0.66666650  0.50000000  1
loop_
_geom_bond_atom_site_label_1
_geom_bond_atom_site_label_2
_geom_bond_distance
_geom_bond_site_symmetry_2
Cd0_0 Cd0_6 3.140114 1_555
Cd0_0 Cd0_6 3.140114 1_445
Cd0_0 Cd0_4 3.140115 1_455
Cd0_0 Cd0_2 3.140115 1_545
Cd0_0 Cd0_2 3.140115 1_555
Cd0_0 Cd0_4 3.140115 1_555
Cd0_0 In0_4 3.408126 1_455
Cd0_0 In0_5 3.408126 1_455
Cd0_0 In0_6 3.408127 1_445
Cd0_0 In0_0 3.408127 1_555
Cd0_0 In0_7 3.408127 1_445
Cd0_0 In0_1 3.408127 1_555
Cd0_1 Cd0_7 3.140114 1_555
Cd0_1 Cd0_7 3.140114 1_445
Cd0_1 Cd0_5 3.140115 1_455
Cd0_1 Cd0_3 3.140115 1_545
Cd0_1 Cd0_5 3.140115 1_555
Cd0_1 Cd0_3 3.140115 1_555
Cd0_1 In0_4 3.408126 1_456
Cd0_1 In0_5 3.408126 1_455
Cd0_1 In0_6 3.408127 1_446
Cd0_1 In0_7 3.408127 1_445
Cd0_1 In0_0 3.408127 1_556
Cd0_1 In0_1 3.408127 1_555
Cd0_2 Cd0_4 3.140114 1_455
Cd0_2 Cd0_4 3.140114 1_565
Cd0_2 Cd0_6 3.140115 1_555
Cd0_2 Cd0_6 3.140115 1_455
Cd0_2 In0_6 3.408126 1_455
Cd0_2 In0_7 3.408126 1_455
Cd0_2 In0_5 3.408127 1_455
Cd0_2 In0_2 3.408127 1_555
Cd0_2 In0_3 3.408127 1_555
Cd0_2 In0_4 3.408127 1_455
Cd0_3 Cd0_5 3.140114 1_455
Cd0_3 Cd0_5 3.140114 1_565
Cd0_3 Cd0_7 3.140115 1_455
Cd0_3 Cd0_7 3.140115 1_555
Cd0_3 In0_6 3.408126 1_456
Cd0_3 In0_7 3.408126 1_455
Cd0_3 In0_5 3.408127 1_455
Cd0_3 In0_2 3.408127 1_556
Cd0_3 In0_3 3.408127 1_555
Cd0_3 In0_4 3.408127 1_456
Cd0_4 Cd0_6 3.140115 1_555
Cd0_4 Cd0_6 3.140115 1_545
Cd0_4 In0_0 3.408126 1_555
Cd0_4 In0_1 3.408126 1_555
Cd0_4 In0_2 3.408127 1_545
Cd0_4 In0_5 3.408127 1_555
Cd0_4 In0_3 3.408127 1_545
Cd0_4 In0_4 3.408127 1_555
Cd0_5 Cd0_7 3.140115 1_545
Cd0_5 Cd0_7 3.140115 1_555
Cd0_5 In0_0 3.408126 1_556
Cd0_5 In0_1 3.408126 1_555
Cd0_5 In0_5 3.408127 1_555
Cd0_5 In0_3 3.408127 1_545
Cd0_5 In0_2 3.408127 1_546
Cd0_5 In0_4 3.408127 1_556
Cd0_6 In0_3 3.408126 1_555
Cd0_6 In0_2 3.408126 1_555
Cd0_6 In0_6 3.408127 1_555
Cd0_6 In0_0 3.408127 1_555
Cd0_6 In0_7 3.408127 1_555
Cd0_6 In0_1 3.408127 1_555
Cd0_7 In0_3 3.408126 1_555
Cd0_7 In0_2 3.408126 1_556
Cd0_7 In0_0 3.408127 1_556
Cd0_7 In0_7 3.408127 1_555
Cd0_7 In0_6 3.408127 1_556
Cd0_7 In0_1 3.408127 1_555
In0_0 In0_6 3.140114 1_555
In0_0 In0_6 3.140114 1_445
In0_0 In0_2 3.140115 1_555
In0_0 In0_4 3.140115 1_455
In0_0 In0_4 3.140115 1_555
In0_0 In0_2 3.140115 1_545
In0_1 In0_7 3.140114 1_445
In0_1 In0_7 3.140114 1_555
In0_1 In0_5 3.140115 1_455
In0_1 In0_3 3.140115 1_555
In0_1 In0_3 3.140115 1_545
In0_1 In0_5 3.140115 1_555
In0_2 In0_4 3.140114 1_455
In0_2 In0_4 3.140114 1_565
In0_2 In0_6 3.140115 1_455
In0_2 In0_6 3.140115 1_555
In0_3 In0_5 3.140114 1_455
In0_3 In0_5 3.140114 1_565
In0_3 In0_7 3.140115 1_455
In0_3 In0_7 3.140115 1_555
In0_4 In0_6 3.140115 1_555
In0_4 In0_6 3.140115 1_545
In0_5 In0_7 3.140115 1_555
In0_5 In0_7 3.140115 1_545
