# generated using pymatgen
data_HoCrB4
_symmetry_space_group_name_H-M   'P 1'
_cell_length_a   3.43382600
_cell_length_b   5.91439400
_cell_length_c   11.43038100
_cell_angle_alpha   90.00000000
_cell_angle_beta   90.00000000
_cell_angle_gamma   90.00000000
_symmetry_Int_Tables_number   1
_chemical_formula_structural   HoCrB4
_chemical_formula_sum   'Ho4 Cr4 B16'
_cell_volume   232.13960649
_cell_formula_units_Z   4
loop_
 _symmetry_equiv_pos_site_id
 _symmetry_equiv_pos_as_xyz
  1  'x, y, z'
loop_
 _atom_site_type_symbol
 _atom_site_label
 _atom_site_symmetry_multiplicity
 _atom_site_fract_x
 _atom_site_fract_y
 _atom_site_fract_z
 _atom_site_occupancy
  Ho  Ho0  1  0.00000000  0.62636700  0.34917300  1
  Ho  Ho1  1  0.00000000  0.37363300  0.65082700  1
  Ho  Ho2  1  0.00000000  0.12636700  0.15082700  1
  Ho  Ho3  1  0.00000000  0.87363300  0.84917300  1
  Cr  Cr0  1  0.00000000  0.62317800  0.07950000  1
  Cr  Cr1  1  0.00000000  0.37682200  0.92050000  1
  Cr  Cr2  1  0.00000000  0.12317800  0.42050000  1
  Cr  Cr3  1  0.00000000  0.87682200  0.57950000  1
  B  B0  1  0.50000000  0.78268800  0.18407800  1
  B  B1  1  0.50000000  0.21731200  0.81592200  1
  B  B2  1  0.50000000  0.28268800  0.31592200  1
  B  B3  1  0.50000000  0.71731200  0.68407800  1
  B  B4  1  0.50000000  0.86358900  0.03261900  1
  B  B5  1  0.50000000  0.13641100  0.96738100  1
  B  B6  1  0.50000000  0.36358900  0.46738100  1
  B  B7  1  0.50000000  0.63641100  0.53261900  1
  B  B8  1  0.50000000  0.88696000  0.45326500  1
  B  B9  1  0.50000000  0.11304000  0.54673500  1
  B  B10  1  0.50000000  0.38696000  0.04673500  1
  B  B11  1  0.50000000  0.61304000  0.95326500  1
  B  B12  1  0.50000000  0.97700100  0.30842200  1
  B  B13  1  0.50000000  0.02299900  0.69157800  1
  B  B14  1  0.50000000  0.47700100  0.19157800  1
  B  B15  1  0.50000000  0.52299900  0.80842200  1
loop_
_geom_bond_atom_site_label_1
_geom_bond_atom_site_label_2
_geom_bond_distance
_geom_bond_site_symmetry_2
B0 B4 1.796139 1_555
B0 B14 1.809985 1_555
B0 B12 1.827800 1_555
B0 Cr0 2.294930 1_555
B0 Cr0 2.294930 1_655
B0 Ho2 2.687736 1_565
B0 Ho2 2.687736 1_665
B0 Ho0 2.713616 1_655
B0 Ho0 2.713616 1_555
B1 B5 1.796139 1_555
B1 B15 1.809985 1_555
B1 B13 1.827800 1_555
B1 Cr1 2.294930 1_555
B1 Cr1 2.294930 1_655
B1 Ho3 2.687736 1_645
B1 Ho3 2.687736 1_545
B1 Ho1 2.713616 1_655
B1 Ho1 2.713616 1_555
B2 B6 1.796139 1_555
B2 Cr2 2.294930 1_555
B2 Cr2 2.294930 1_655
B2 Ho0 2.687736 1_555
B2 Ho0 2.687736 1_655
B2 Ho2 2.713616 1_555
B2 Ho2 2.713616 1_655
B3 B7 1.796139 1_555
B3 Cr3 2.294930 1_555
B3 Cr3 2.294930 1_655
B3 Ho1 2.687736 1_555
B3 Ho1 2.687736 1_655
B3 Ho3 2.713616 1_655
B3 Ho3 2.713616 1_555
B4 B5 1.777552 1_564
B4 Cr0 2.292750 1_555
B4 Cr0 2.292750 1_655
B4 Ho2 2.681209 1_565
B4 Ho2 2.681209 1_665
B4 Ho3 2.710744 1_654
B4 Ho3 2.710744 1_554
B5 Cr1 2.292750 1_555
B5 Cr1 2.292750 1_655
B5 Ho3 2.681209 1_545
B5 Ho3 2.681209 1_645
B5 Ho2 2.710744 1_656
B5 Ho2 2.710744 1_556
B6 B9 1.737412 1_555
B6 B7 1.777552 1_555
B6 Cr2 2.292750 1_555
B6 Cr2 2.292750 1_655
B6 Ho0 2.681209 1_555
B6 Ho0 2.681209 1_655
B6 Ho1 2.710744 1_655
B6 Ho1 2.710744 1_555
B7 B8 1.737412 1_555
B7 Cr3 2.292750 1_555
B7 Cr3 2.292750 1_655
B7 Ho1 2.681209 1_655
B7 Ho1 2.681209 1_555
B7 Ho0 2.710744 1_555
B7 Ho0 2.710744 1_655
B8 B9 1.711543 1_565
B8 Cr3 2.243521 1_655
B8 Cr3 2.243521 1_555
B8 Cr2 2.244973 1_565
B8 Cr2 2.244973 1_665
B8 Ho0 2.595938 1_655
B8 Ho0 2.595938 1_555
B9 Cr2 2.243521 1_655
B9 Cr2 2.243521 1_555
B9 Cr3 2.244973 1_645
B9 Cr3 2.244973 1_545
B9 Ho1 2.595938 1_655
B9 Ho1 2.595938 1_555
B10 B11 1.711543 1_554
B10 B5 1.737412 1_554
B10 B14 1.739150 1_555
B10 Cr1 2.243521 1_654
B10 Cr1 2.243521 1_554
B10 Cr0 2.244973 1_555
B10 Cr0 2.244973 1_655
B10 Ho2 2.595938 1_555
B10 Ho2 2.595938 1_655
B11 B4 1.737412 1_556
B11 B15 1.739150 1_555
B11 Cr0 2.243521 1_656
B11 Cr0 2.243521 1_556
B11 Cr1 2.244973 1_555
B11 Cr1 2.244973 1_655
B11 Ho3 2.595938 1_655
B11 Ho3 2.595938 1_555
B12 B8 1.739150 1_555
B12 B2 1.809985 1_565
B12 Cr2 2.310073 1_565
B12 Cr2 2.310073 1_665
B12 Ho2 2.640670 1_565
B12 Ho2 2.640670 1_665
B12 Ho0 2.732280 1_655
B12 Ho0 2.732280 1_555
B13 B9 1.739150 1_555
B13 B3 1.809985 1_545
B13 Cr3 2.310073 1_545
B13 Cr3 2.310073 1_645
B13 Ho3 2.640670 1_545
B13 Ho3 2.640670 1_645
B13 Ho1 2.732280 1_555
B13 Ho1 2.732280 1_655
B14 B2 1.827800 1_555
B14 Cr0 2.310073 1_555
B14 Cr0 2.310073 1_655
B14 Ho0 2.640670 1_655
B14 Ho0 2.640670 1_555
B14 Ho2 2.732280 1_555
B14 Ho2 2.732280 1_655
B15 B3 1.827800 1_555
B15 Cr1 2.310073 1_555
B15 Cr1 2.310073 1_655
B15 Ho1 2.640670 1_655
B15 Ho1 2.640670 1_555
B15 Ho3 2.732280 1_555
B15 Ho3 2.732280 1_655
