# generated using pymatgen
data_Mg6AlSb
_symmetry_space_group_name_H-M   'P 1'
_cell_length_a   5.23465600
_cell_length_b   6.37172700
_cell_length_c   10.73538400
_cell_angle_alpha   90.00000000
_cell_angle_beta   90.00000000
_cell_angle_gamma   90.00000000
_symmetry_Int_Tables_number   1
_chemical_formula_structural   Mg6AlSb
_chemical_formula_sum   'Mg12 Al2 Sb2'
_cell_volume   358.06583981
_cell_formula_units_Z   2
loop_
 _symmetry_equiv_pos_site_id
 _symmetry_equiv_pos_as_xyz
  1  'x, y, z'
loop_
 _atom_site_type_symbol
 _atom_site_label
 _atom_site_symmetry_multiplicity
 _atom_site_fract_x
 _atom_site_fract_y
 _atom_site_fract_z
 _atom_site_occupancy
  Mg  Mg0  1  0.50000000  0.24936500  0.58364600  1
  Mg  Mg1  1  0.50000000  0.75063500  0.58364600  1
  Mg  Mg2  1  0.00000000  0.25512300  0.41584700  1
  Mg  Mg3  1  0.00000000  0.74487700  0.41584700  1
  Mg  Mg4  1  0.00000000  0.00000000  0.66930800  1
  Mg  Mg5  1  0.00000000  0.00000000  0.16645000  1
  Mg  Mg6  1  0.50000000  0.74936500  0.08364600  1
  Mg  Mg7  1  0.50000000  0.25063500  0.08364600  1
  Mg  Mg8  1  0.00000000  0.75512300  0.91584700  1
  Mg  Mg9  1  0.00000000  0.24487700  0.91584700  1
  Mg  Mg10  1  0.00000000  0.50000000  0.16930800  1
  Mg  Mg11  1  0.00000000  0.50000000  0.66645000  1
  Al  Al0  1  0.50000000  0.00000000  0.83239800  1
  Al  Al1  1  0.50000000  0.50000000  0.33239800  1
  Sb  Sb0  1  0.50000000  0.00000000  0.33286200  1
  Sb  Sb1  1  0.50000000  0.50000000  0.83286200  1
loop_
_geom_bond_atom_site_label_1
_geom_bond_atom_site_label_2
_geom_bond_distance
_geom_bond_site_symmetry_2
Mg0 Sb1 3.115808 1_555
Mg0 Sb0 3.126153 1_555
Mg0 Mg2 3.177538 1_555
Mg0 Mg2 3.177538 1_655
Mg0 Mg1 3.177771 1_545
Mg0 Mg11 3.192326 1_655
Mg0 Mg11 3.192326 1_555
Mg0 Mg1 3.193956 1_555
Mg0 Mg4 3.196976 1_655
Mg0 Mg4 3.196976 1_555
Mg1 Sb1 3.115808 1_555
Mg1 Sb0 3.126153 1_565
Mg1 Mg3 3.177538 1_655
Mg1 Mg3 3.177538 1_555
Mg1 Mg11 3.192326 1_555
Mg1 Mg11 3.192326 1_655
Mg1 Mg4 3.196976 1_565
Mg1 Mg4 3.196976 1_665
Mg2 Mg3 3.120579 1_555
Mg2 Mg5 3.132222 1_555
Mg2 Mg4 3.169596 1_555
Mg2 Sb0 3.207266 1_455
Mg2 Sb0 3.207266 1_555
Mg2 Mg3 3.251148 1_545
Mg3 Mg5 3.132222 1_565
Mg3 Mg4 3.169596 1_565
Mg3 Sb0 3.207266 1_565
Mg3 Sb0 3.207266 1_465
Mg4 Mg9 3.072373 1_555
Mg4 Mg8 3.072373 1_545
Mg5 Mg9 3.110036 1_554
Mg5 Mg8 3.110036 1_544
Mg5 Sb0 3.168908 1_455
Mg5 Sb0 3.168908 1_555
Mg5 Mg6 3.192326 1_445
Mg5 Mg7 3.192326 1_455
Mg5 Mg6 3.192326 1_545
Mg5 Mg7 3.192326 1_555
Mg6 Sb0 3.115808 1_565
Mg6 Sb1 3.126153 1_554
Mg6 Mg8 3.177538 1_654
Mg6 Mg8 3.177538 1_554
Mg6 Mg7 3.177771 1_555
Mg6 Mg7 3.193956 1_565
Mg7 Sb0 3.115808 1_555
Mg7 Sb1 3.126153 1_554
Mg7 Mg9 3.177538 1_554
Mg7 Mg9 3.177538 1_654
Mg8 Mg9 3.120579 1_565
Mg8 Sb1 3.207266 1_455
Mg8 Sb1 3.207266 1_555
Mg8 Mg9 3.251148 1_555
Mg9 Sb1 3.207266 1_455
Mg9 Sb1 3.207266 1_555
Mg10 Mg3 3.072373 1_555
Mg10 Mg2 3.072373 1_555
Mg10 Mg8 3.169596 1_554
Mg10 Mg9 3.169596 1_554
Mg10 Mg5 3.186011 1_555
Mg10 Mg5 3.186011 1_565
Mg10 Mg7 3.196976 1_455
Mg10 Mg6 3.196976 1_555
Mg10 Mg7 3.196976 1_555
Mg10 Mg6 3.196976 1_455
Mg11 Mg3 3.110036 1_555
Mg11 Mg2 3.110036 1_555
Mg11 Mg8 3.132222 1_555
Mg11 Mg9 3.132222 1_555
Mg11 Sb1 3.168908 1_455
Mg11 Sb1 3.168908 1_555
Mg11 Mg4 3.186011 1_565
Mg11 Mg4 3.186011 1_555
Al0 Mg0 3.107387 1_555
Al0 Mg1 3.107387 1_545
Al0 Mg6 3.134559 1_546
Al0 Mg7 3.134559 1_556
Al0 Mg4 3.148940 1_555
Al0 Mg4 3.148940 1_655
Al0 Mg9 3.176078 1_555
Al0 Mg9 3.176078 1_655
Al0 Mg8 3.176078 1_545
Al0 Mg8 3.176078 1_645
Al0 Sb1 3.185867 1_555
Al0 Sb1 3.185867 1_545
Al1 Mg6 3.107387 1_555
Al1 Mg7 3.107387 1_555
Al1 Mg1 3.134559 1_555
Al1 Mg0 3.134559 1_555
Al1 Mg10 3.148940 1_555
Al1 Mg10 3.148940 1_655
Al1 Mg2 3.176078 1_655
Al1 Mg3 3.176078 1_655
Al1 Mg3 3.176078 1_555
Al1 Mg2 3.176078 1_555
Al1 Sb0 3.185867 1_565
Al1 Sb0 3.185867 1_555
