# generated using pymatgen
data_CeSe2
_symmetry_space_group_name_H-M   'P 1'
_cell_length_a   15.68949400
_cell_length_b   15.68949403
_cell_length_c   15.68949400
_cell_angle_alpha   94.24059603
_cell_angle_beta   94.24059582
_cell_angle_gamma   94.24059603
_symmetry_Int_Tables_number   1
_chemical_formula_structural   CeSe2
_chemical_formula_sum   'Ce12 Se24'
_cell_volume   3828.74731193
_cell_formula_units_Z   12
loop_
 _symmetry_equiv_pos_site_id
 _symmetry_equiv_pos_as_xyz
  1  'x, y, z'
loop_
 _atom_site_type_symbol
 _atom_site_label
 _atom_site_symmetry_multiplicity
 _atom_site_fract_x
 _atom_site_fract_y
 _atom_site_fract_z
 _atom_site_occupancy
  Ce  Ce0  1  0.12443009  0.66760287  0.89648531  1
  Ce  Ce1  1  0.66760287  0.89648531  0.12443009  1
  Ce  Ce2  1  0.89648531  0.12443009  0.66760287  1
  Ce  Ce3  1  0.12443009  0.89648531  0.66760287  1
  Ce  Ce4  1  0.89648531  0.66760287  0.12443009  1
  Ce  Ce5  1  0.66760287  0.12443009  0.89648531  1
  Ce  Ce6  1  0.87557087  0.33239569  0.10351316  1
  Ce  Ce7  1  0.33239569  0.10351316  0.87557087  1
  Ce  Ce8  1  0.10351316  0.87557087  0.33239569  1
  Ce  Ce9  1  0.87557087  0.10351316  0.33239569  1
  Ce  Ce10  1  0.10351316  0.33239569  0.87557087  1
  Ce  Ce11  1  0.33239569  0.87557087  0.10351316  1
  Se  Se0  1  0.10997552  0.75099117  0.75099117  1
  Se  Se1  1  0.75099117  0.75099117  0.10997552  1
  Se  Se2  1  0.75099117  0.10997552  0.75099117  1
  Se  Se3  1  0.89002490  0.24901008  0.24901008  1
  Se  Se4  1  0.24901008  0.24901008  0.89002490  1
  Se  Se5  1  0.24901008  0.89002490  0.24901008  1
  Se  Se6  1  0.14613603  0.49999605  0.85376765  1
  Se  Se7  1  0.49999605  0.85376765  0.14613603  1
  Se  Se8  1  0.85376765  0.14613603  0.49999605  1
  Se  Se9  1  0.14613603  0.85376765  0.49999605  1
  Se  Se10  1  0.85376765  0.49999605  0.14613603  1
  Se  Se11  1  0.49999605  0.14613603  0.85376765  1
  Se  Se12  1  0.97785880  0.68054106  0.97785880  1
  Se  Se13  1  0.68054106  0.97785880  0.97785880  1
  Se  Se14  1  0.97785880  0.97785880  0.68054106  1
  Se  Se15  1  0.02214184  0.31945941  0.02214184  1
  Se  Se16  1  0.31945941  0.02214184  0.02214184  1
  Se  Se17  1  0.02214184  0.02214184  0.31945941  1
  Se  Se18  1  0.26260098  0.73739882  0.00000012  1
  Se  Se19  1  0.73739882  0.00000012  0.26260098  1
  Se  Se20  1  0.00000012  0.26260098  0.73739882  1
  Se  Se21  1  0.26260098  0.00000012  0.73739882  1
  Se  Se22  1  0.00000012  0.73739882  0.26260098  1
  Se  Se23  1  0.73739882  0.26260098  0.00000012  1
loop_
_geom_bond_atom_site_label_1
_geom_bond_atom_site_label_2
_geom_bond_distance
_geom_bond_site_symmetry_2
Ce0 Se0 2.717165 1_555
Ce0 Se6 2.717695 1_555
Ce0 Se18 2.720581 1_556
Ce0 Se12 2.724774 1_455
Ce1 Se1 2.717165 1_555
Ce1 Se7 2.717695 1_555
Ce1 Se19 2.720581 1_565
Ce1 Se13 2.724774 1_554
Ce2 Se2 2.717165 1_555
Ce2 Se8 2.717695 1_555
Ce2 Se20 2.720581 1_655
Ce2 Se14 2.724774 1_545
Ce3 Se0 2.717165 1_555
Ce3 Se9 2.717695 1_555
Ce3 Se21 2.720581 1_565
Ce3 Se14 2.724774 1_455
Ce4 Se1 2.717165 1_555
Ce4 Se10 2.717695 1_555
Ce4 Se22 2.720581 1_655
Ce4 Se12 2.724774 1_554
Ce5 Se2 2.717165 1_555
Ce5 Se11 2.717695 1_555
Ce5 Se23 2.720581 1_556
Ce5 Se13 2.724774 1_545
Ce6 Se3 2.717179 1_555
Ce6 Se10 2.717652 1_555
Ce6 Se23 2.720574 1_555
Ce6 Se15 2.724749 1_655
Ce7 Se4 2.717179 1_555
Ce7 Se11 2.717652 1_555
Ce7 Se21 2.720574 1_555
Ce7 Se16 2.724749 1_556
Ce8 Se5 2.717179 1_555
Ce8 Se9 2.717652 1_555
Ce8 Se22 2.720574 1_555
Ce8 Se17 2.724749 1_565
Ce9 Se3 2.717179 1_555
Ce9 Se8 2.717652 1_555
Ce9 Se19 2.720574 1_555
Ce9 Se17 2.724749 1_655
Ce10 Se4 2.717179 1_555
Ce10 Se6 2.717652 1_555
Ce10 Se20 2.720574 1_555
Ce10 Se15 2.724749 1_556
Ce11 Se5 2.717179 1_555
Ce11 Se7 2.717652 1_555
Ce11 Se18 2.720574 1_555
Ce11 Se16 2.724749 1_565
