# generated using pymatgen
data_CeMg14Ti
_symmetry_space_group_name_H-M   'P 1'
_cell_length_a   6.61074583
_cell_length_b   6.61074453
_cell_length_c   10.40302885
_cell_angle_alpha   90.00000000
_cell_angle_beta   90.00000000
_cell_angle_gamma   120.00000645
_symmetry_Int_Tables_number   1
_chemical_formula_structural   CeMg14Ti
_chemical_formula_sum   'Ce1 Mg14 Ti1'
_cell_volume   393.72341241
_cell_formula_units_Z   1
loop_
 _symmetry_equiv_pos_site_id
 _symmetry_equiv_pos_as_xyz
  1  'x, y, z'
loop_
 _atom_site_type_symbol
 _atom_site_label
 _atom_site_symmetry_multiplicity
 _atom_site_fract_x
 _atom_site_fract_y
 _atom_site_fract_z
 _atom_site_occupancy
  Ce  Ce0  1  0.16666700  0.33333300  0.62500000  1
  Mg  Mg0  1  0.16349114  0.83174507  0.12500000  1
  Mg  Mg1  1  0.18164204  0.84082052  0.62500000  1
  Mg  Mg2  1  0.66825493  0.33650886  0.12500000  1
  Mg  Mg3  1  0.65917948  0.31835796  0.62500000  1
  Mg  Mg4  1  0.66825493  0.83174507  0.12500000  1
  Mg  Mg5  1  0.65917948  0.84082052  0.62500000  1
  Mg  Mg6  1  0.33202327  0.16797673  0.36368403  1
  Mg  Mg7  1  0.33202327  0.16797673  0.88631597  1
  Mg  Mg8  1  0.33202327  0.66404753  0.36368403  1
  Mg  Mg9  1  0.33202327  0.66404753  0.88631597  1
  Mg  Mg10  1  0.83595247  0.16797673  0.36368403  1
  Mg  Mg11  1  0.83595247  0.16797673  0.88631597  1
  Mg  Mg12  1  0.83333300  0.66666700  0.38533728  1
  Mg  Mg13  1  0.83333300  0.66666700  0.86466272  1
  Ti  Ti0  1  0.16666700  0.33333300  0.12500000  1
loop_
_geom_bond_atom_site_label_1
_geom_bond_atom_site_label_2
_geom_bond_distance
_geom_bond_site_symmetry_2
Ce0 Mg1 3.306484 1_555
Ce0 Mg5 3.306484 1_555
Ce0 Mg1 3.306484 1_545
Ce0 Mg5 3.306484 1_445
Ce0 Mg3 3.306485 1_555
Ce0 Mg3 3.306485 1_455
Ce0 Mg7 3.312840 1_555
Ce0 Mg6 3.312840 1_555
Ce0 Mg9 3.312846 1_555
Ce0 Mg8 3.312846 1_555
Ce0 Mg10 3.312846 1_455
Ce0 Mg11 3.312846 1_455
Mg0 Mg9 3.141794 1_554
Mg0 Mg8 3.141794 1_555
Mg0 Mg6 3.141801 1_565
Mg0 Mg7 3.141801 1_564
Mg0 Mg2 3.273880 1_455
Mg0 Mg4 3.273881 1_455
Mg0 Mg13 3.302673 1_454
Mg0 Mg12 3.302673 1_455
Mg0 Ti0 3.305422 1_565
Mg0 Ti0 3.305422 1_555
Mg0 Mg2 3.336864 1_565
Mg0 Mg4 3.336865 1_555
Mg1 Mg3 3.156878 1_565
Mg1 Mg5 3.156879 1_555
Mg1 Mg12 3.192578 1_455
Mg1 Mg13 3.192578 1_455
Mg1 Mg9 3.302392 1_555
Mg1 Mg8 3.302392 1_555
Mg1 Mg7 3.302398 1_565
Mg1 Mg6 3.302398 1_565
Mg1 Mg3 3.453867 1_455
Mg1 Mg5 3.453867 1_455
Mg2 Mg6 3.141801 1_555
Mg2 Mg7 3.141801 1_554
Mg2 Mg4 3.273880 1_555
Mg2 Ti0 3.305423 1_655
Mg2 Ti0 3.305423 1_555
Mg2 Mg4 3.336864 1_545
Mg3 Mg5 3.156878 1_545
Mg3 Mg7 3.302398 1_555
Mg3 Mg6 3.302398 1_555
Mg3 Mg5 3.453867 1_555
Mg4 Mg9 3.141801 1_554
Mg4 Mg8 3.141801 1_555
Mg4 Ti0 3.305422 1_665
Mg4 Ti0 3.305422 1_555
Mg5 Mg8 3.302398 1_555
Mg5 Mg9 3.302398 1_555
Mg6 Ti0 3.122541 1_555
Mg6 Mg8 3.279397 1_555
Mg6 Mg8 3.331347 1_545
Mg7 Ti0 3.122541 1_556
Mg7 Mg9 3.279397 1_555
Mg7 Mg9 3.331347 1_545
Mg8 Ti0 3.122547 1_555
Mg9 Ti0 3.122547 1_556
Mg10 Ti0 3.122548 1_655
Mg10 Mg2 3.141794 1_555
Mg10 Mg4 3.141801 1_545
Mg10 Mg8 3.279397 1_655
Mg10 Mg6 3.279398 1_655
Mg10 Mg3 3.302392 1_555
Mg10 Mg5 3.302398 1_545
Mg10 Mg12 3.313073 1_545
Mg10 Mg12 3.313073 1_555
Mg10 Mg8 3.331347 1_545
Mg10 Mg6 3.331348 1_555
Mg11 Ti0 3.122548 1_656
Mg11 Mg2 3.141794 1_556
Mg11 Mg4 3.141801 1_546
Mg11 Mg9 3.279397 1_655
Mg11 Mg7 3.279398 1_655
Mg11 Mg3 3.302392 1_555
Mg11 Mg5 3.302398 1_545
Mg11 Mg13 3.313073 1_545
Mg11 Mg13 3.313073 1_555
Mg11 Mg9 3.331347 1_545
Mg11 Mg7 3.331348 1_555
Mg12 Mg5 3.192570 1_555
Mg12 Mg3 3.192577 1_555
Mg12 Mg4 3.302666 1_555
Mg12 Mg2 3.302673 1_555
Mg12 Mg6 3.313073 1_665
Mg12 Mg6 3.313073 1_555
Mg12 Mg8 3.313074 1_555
Mg12 Mg8 3.313074 1_655
Mg13 Mg5 3.192570 1_555
Mg13 Mg3 3.192577 1_555
Mg13 Mg4 3.302666 1_556
Mg13 Mg2 3.302673 1_556
Mg13 Mg7 3.313073 1_665
Mg13 Mg7 3.313073 1_555
Mg13 Mg9 3.313074 1_555
Mg13 Mg9 3.313074 1_655
