# generated using pymatgen
data_KAcO3
_symmetry_space_group_name_H-M   'P 1'
_cell_length_a   4.65408000
_cell_length_b   4.65408000
_cell_length_c   4.65408000
_cell_angle_alpha   90.00000000
_cell_angle_beta   90.00000000
_cell_angle_gamma   90.00000000
_symmetry_Int_Tables_number   1
_chemical_formula_structural   KAcO3
_chemical_formula_sum   'K1 Ac1 O3'
_cell_volume   100.80951669
_cell_formula_units_Z   1
loop_
 _symmetry_equiv_pos_site_id
 _symmetry_equiv_pos_as_xyz
  1  'x, y, z'
loop_
 _atom_site_type_symbol
 _atom_site_label
 _atom_site_symmetry_multiplicity
 _atom_site_fract_x
 _atom_site_fract_y
 _atom_site_fract_z
 _atom_site_occupancy
  K  K0  1  0.00000000  0.00000000  0.00000000  1
  Ac  Ac0  1  0.49999900  0.49999900  0.49999900  1
  O  O0  1  0.49999900  0.49999900  0.00000000  1
  O  O1  1  0.49999900  0.00000000  0.49999900  1
  O  O2  1  0.00000000  0.49999900  0.49999900  1
loop_
_geom_bond_atom_site_label_1
_geom_bond_atom_site_label_2
_geom_bond_distance
_geom_bond_site_symmetry_2
K0 O0 3.290925 1_555
K0 O1 3.290925 1_555
K0 O2 3.290925 1_555
K0 O1 3.290932 1_455
K0 O0 3.290932 1_455
K0 O2 3.290932 1_545
K0 O1 3.290932 1_554
K0 O0 3.290932 1_545
K0 O2 3.290932 1_554
K0 O2 3.290938 1_544
K0 O1 3.290938 1_454
K0 O0 3.290938 1_445
Ac0 O2 2.327035 1_555
Ac0 O1 2.327035 1_555
Ac0 O0 2.327035 1_555
Ac0 O1 2.327045 1_565
Ac0 O0 2.327045 1_556
Ac0 O2 2.327045 1_655
