# generated using pymatgen
data_TmGa5Co
_symmetry_space_group_name_H-M   'P 1'
_cell_length_a   4.15231946
_cell_length_b   4.15231946
_cell_length_c   6.71156898
_cell_angle_alpha   90.00000000
_cell_angle_beta   90.00000000
_cell_angle_gamma   90.00000000
_symmetry_Int_Tables_number   1
_chemical_formula_structural   TmGa5Co
_chemical_formula_sum   'Tm1 Ga5 Co1'
_cell_volume   115.71924076
_cell_formula_units_Z   1
loop_
 _symmetry_equiv_pos_site_id
 _symmetry_equiv_pos_as_xyz
  1  'x, y, z'
loop_
 _atom_site_type_symbol
 _atom_site_label
 _atom_site_symmetry_multiplicity
 _atom_site_fract_x
 _atom_site_fract_y
 _atom_site_fract_z
 _atom_site_occupancy
  Tm  Tm0  1  0.00000000  -0.00000000  -0.00000000  1
  Ga  Ga0  1  0.00000000  0.50000000  0.30992501  1
  Ga  Ga1  1  -0.00000000  0.50000000  0.69007499  1
  Ga  Ga2  1  0.50000000  -0.00000000  0.30992501  1
  Ga  Ga3  1  0.50000000  0.00000000  0.69007499  1
  Ga  Ga4  1  0.50000000  0.50000000  -0.00000000  1
  Co  Co0  1  0.00000000  -0.00000000  0.50000000  1
loop_
_geom_bond_atom_site_label_1
_geom_bond_atom_site_label_2
_geom_bond_distance
_geom_bond_site_symmetry_2
Ga0 Ga1 2.551403 1_555
Ga0 Ga2 2.936133 1_565
Ga0 Ga2 2.936133 1_555
Ga0 Ga2 2.936133 1_465
Ga0 Ga2 2.936133 1_455
Ga0 Ga4 2.938909 1_455
Ga0 Tm0 2.938909 1_555
Ga0 Ga4 2.938909 1_555
Ga0 Tm0 2.938909 1_565
Ga1 Ga3 2.936133 1_455
Ga1 Ga3 2.936133 1_555
Ga1 Ga3 2.936133 1_565
Ga1 Ga3 2.936133 1_465
Ga1 Ga4 2.938909 1_556
Ga1 Ga4 2.938909 1_456
Ga1 Tm0 2.938909 1_556
Ga1 Tm0 2.938909 1_566
Ga2 Ga3 2.551403 1_555
Ga2 Tm0 2.938909 1_555
Ga2 Ga4 2.938909 1_545
Ga2 Ga4 2.938909 1_555
Ga2 Tm0 2.938909 1_655
Ga3 Tm0 2.938909 1_556
Ga3 Tm0 2.938909 1_656
Ga3 Ga4 2.938909 1_556
Ga3 Ga4 2.938909 1_546
Ga4 Tm0 2.936133 1_555
Ga4 Tm0 2.936133 1_565
Ga4 Tm0 2.936133 1_655
Ga4 Tm0 2.936133 1_665
Co0 Ga3 2.436771 1_555
Co0 Ga0 2.436771 1_555
Co0 Ga2 2.436771 1_455
Co0 Ga2 2.436771 1_555
Co0 Ga1 2.436771 1_545
Co0 Ga0 2.436771 1_545
Co0 Ga1 2.436771 1_555
Co0 Ga3 2.436771 1_455
