# generated using pymatgen
data_Na4Al3Cr(P2O7)4
_symmetry_space_group_name_H-M   'P 1'
_cell_length_a   7.28964900
_cell_length_b   7.87009888
_cell_length_c   9.45072137
_cell_angle_alpha   90.03409725
_cell_angle_beta   111.76084811
_cell_angle_gamma   90.12548866
_symmetry_Int_Tables_number   1
_chemical_formula_structural   Na4Al3Cr(P2O7)4
_chemical_formula_sum   'Na4 Al3 Cr1 P8 O28'
_cell_volume   503.55172070
_cell_formula_units_Z   1
loop_
 _symmetry_equiv_pos_site_id
 _symmetry_equiv_pos_as_xyz
  1  'x, y, z'
loop_
 _atom_site_type_symbol
 _atom_site_label
 _atom_site_symmetry_multiplicity
 _atom_site_fract_x
 _atom_site_fract_y
 _atom_site_fract_z
 _atom_site_occupancy
  Na  Na0  1  0.29287600  0.52229700  0.29818800  1
  Na  Na1  1  0.70716800  0.02241000  0.20163300  1
  Na  Na2  1  0.70762100  0.47747800  0.70174700  1
  Na  Na3  1  0.29277500  0.97805800  0.79789900  1
  Al  Al0  1  0.26070400  0.50923800  0.74880900  1
  Al  Al1  1  0.26080900  0.99073000  0.24916300  1
  Al  Al2  1  0.73935100  0.49100000  0.25125900  1
  Cr  Cr0  1  0.73993100  0.00613400  0.75286900  1
  P  P0  1  0.92711600  0.24652700  0.05064200  1
  P  P1  1  0.07532600  0.74362700  0.45198000  1
  P  P2  1  0.07837000  0.75406100  0.95387100  1
  P  P3  1  0.92494500  0.25964400  0.54558500  1
  P  P4  1  0.32894600  0.29253900  0.04700500  1
  P  P5  1  0.67129200  0.78988900  0.45061900  1
  P  P6  1  0.67136900  0.70481800  0.95572800  1
  P  P7  1  0.32503400  0.20958900  0.54444100  1
  O  O0  1  0.31261400  0.30750000  0.88156600  1
  O  O1  1  0.68475200  0.79601900  0.61580200  1
  O  O2  1  0.68760300  0.68834200  0.12065100  1
  O  O3  1  0.31243600  0.19343500  0.37982100  1
  O  O4  1  0.80590700  0.21426800  0.88246500  1
  O  O5  1  0.19355200  0.70451700  0.61927800  1
  O  O6  1  0.19508700  0.79351500  0.12152300  1
  O  O7  1  0.80752600  0.29900800  0.37869800  1
  O  O8  1  0.47548100  0.41448100  0.15660900  1
  O  O9  1  0.52563000  0.91435000  0.34326100  1
  O  O10  1  0.52594800  0.58371900  0.84377200  1
  O  O11  1  0.46408800  0.08505800  0.65505700  1
  O  O12  1  0.99858300  0.08434500  0.14605900  1
  O  O13  1  0.00204900  0.58401200  0.35349100  1
  O  O14  1  0.01396300  0.91524100  0.85643200  1
  O  O15  1  0.99961500  0.41777600  0.64619100  1
  O  O16  1  0.12243900  0.35361300  0.06110700  1
  O  O17  1  0.87985300  0.85177300  0.44101300  1
  O  O18  1  0.87948200  0.64970500  0.94105800  1
  O  O19  1  0.11675900  0.15021600  0.55498700  1
  O  O20  1  0.35692800  0.10650800  0.10212800  1
  O  O21  1  0.64195600  0.60498100  0.39382800  1
  O  O22  1  0.63873000  0.89240100  0.90647200  1
  O  O23  1  0.35592200  0.39541200  0.59998400  1
  O  O24  1  0.81467100  0.36506300  0.11455500  1
  O  O25  1  0.18824400  0.86399000  0.38873900  1
  O  O26  1  0.18978300  0.63306600  0.89074500  1
  O  O27  1  0.80676900  0.13964500  0.60326900  1
loop_
_geom_bond_atom_site_label_1
_geom_bond_atom_site_label_2
_geom_bond_distance
_geom_bond_site_symmetry_2
Na0 O8 2.367784 1_555
Na0 O13 2.414409 1_555
Na0 O21 2.449983 1_555
Na0 O16 2.500286 1_555
Na0 O6 2.642031 1_555
Na0 O3 2.690096 1_555
Na0 O23 2.894283 1_555
Na1 O9 2.361318 1_545
Na1 O12 2.418509 1_555
Na1 O20 2.463489 1_555
Na1 O17 2.530926 1_545
Na1 O7 2.674904 1_555
Na1 O2 2.726451 1_545
Na1 O22 2.835406 1_544
Na2 O10 2.361375 1_555
Na2 O15 2.420708 1_555
Na2 O23 2.465514 1_555
Na2 O18 2.531776 1_555
Na2 O4 2.612426 1_555
Na2 O1 2.622247 1_555
Na3 O11 2.310368 1_565
Na3 O14 2.347508 1_555
Na3 O22 2.440662 1_555
Na3 O19 2.565064 1_565
Na3 O5 2.662871 1_555
Na3 O0 2.698069 1_565
Na3 O20 2.916304 1_566
Al0 O26 1.879149 1_555
Al0 O10 1.896144 1_555
Al0 O5 1.913469 1_555
Al0 O15 1.924992 1_455
Al0 O0 1.972587 1_555
Al0 O23 1.996903 1_555
Al1 O25 1.879193 1_555
Al1 O9 1.900433 1_555
Al1 O6 1.913031 1_555
Al1 O12 1.942218 1_465
Al1 O3 1.965162 1_565
Al1 O20 1.993186 1_565
Al2 O24 1.865416 1_555
Al2 O7 1.882099 1_555
Al2 O8 1.892418 1_555
Al2 O2 1.933293 1_555
Al2 O13 1.938459 1_655
Al2 O21 1.958271 1_555
Cr0 O27 1.962307 1_555
Cr0 O11 1.977769 1_555
Cr0 O4 1.992973 1_555
Cr0 O14 2.004362 1_645
Cr0 O1 2.045112 1_545
Cr0 O22 2.060445 1_545
O0 P4 1.528034 1_556
O1 P5 1.528169 1_555
O2 P6 1.524377 1_554
O3 P7 1.529319 1_555
O4 P0 1.525972 1_556
O5 P1 1.526015 1_555
O6 P2 1.526253 1_554
O7 P3 1.522152 1_555
O8 P4 1.519512 1_555
O9 P5 1.524236 1_555
O10 P6 1.521283 1_555
O11 P7 1.516824 1_555
O12 P0 1.539382 1_555
O13 P1 1.535162 1_555
O14 P2 1.536541 1_555
O15 P3 1.536556 1_555
O16 P0 1.624068 1_455
O16 P4 1.633023 1_555
O17 P5 1.629728 1_555
O17 P1 1.631405 1_655
O18 P2 1.629621 1_655
O18 P6 1.633286 1_555
O19 P3 1.618006 1_455
O19 P7 1.625580 1_555
O20 P4 1.542712 1_555
O21 P5 1.537575 1_555
O22 P6 1.540451 1_555
O23 P7 1.541102 1_555
O24 P0 1.508906 1_555
O25 P1 1.514633 1_555
O26 P2 1.511376 1_555
O27 P3 1.508799 1_555
