# generated using pymatgen
data_TbYNi2
_symmetry_space_group_name_H-M   'P 1'
_cell_length_a   4.06519021
_cell_length_b   5.48001391
_cell_length_c   7.18541870
_cell_angle_alpha   90.00000000
_cell_angle_beta   90.00000000
_cell_angle_gamma   90.00000000
_symmetry_Int_Tables_number   1
_chemical_formula_structural   TbYNi2
_chemical_formula_sum   'Tb2 Y2 Ni4'
_cell_volume   160.07172008
_cell_formula_units_Z   2
loop_
 _symmetry_equiv_pos_site_id
 _symmetry_equiv_pos_as_xyz
  1  'x, y, z'
loop_
 _atom_site_type_symbol
 _atom_site_label
 _atom_site_symmetry_multiplicity
 _atom_site_fract_x
 _atom_site_fract_y
 _atom_site_fract_z
 _atom_site_occupancy
  Tb  Tb0  1  -0.00000000  0.11758102  0.68013784  1
  Tb  Tb1  1  -0.00000000  0.88241898  0.18013784  1
  Y  Y0  1  0.50000000  0.38222316  0.32001551  1
  Y  Y1  1  0.50000000  0.61777684  0.82001551  1
  Ni  Ni0  1  -0.00000000  0.63129363  0.53636530  1
  Ni  Ni1  1  -0.00000000  0.36870637  0.03636530  1
  Ni  Ni2  1  0.50000000  0.87078849  0.46348135  1
  Ni  Ni3  1  0.50000000  0.12921151  0.96348135  1
loop_
_geom_bond_atom_site_label_1
_geom_bond_atom_site_label_2
_geom_bond_distance
_geom_bond_site_symmetry_2
Ni0 Ni2 2.475519 1_455
Ni0 Ni2 2.475519 1_555
Ni0 Tb0 2.858096 1_565
Ni0 Y1 2.879404 1_455
Ni0 Y1 2.879404 1_555
Ni0 Y0 2.900188 1_455
Ni0 Y0 2.900188 1_555
Ni0 Tb1 2.906135 1_555
Ni0 Tb0 2.998718 1_555
Ni1 Ni3 2.475519 1_554
Ni1 Ni3 2.475519 1_454
Ni1 Tb1 2.858096 1_545
Ni1 Y0 2.879404 1_555
Ni1 Y0 2.879404 1_455
Ni1 Y1 2.900188 1_554
Ni1 Y1 2.900188 1_454
Ni1 Tb0 2.906135 1_554
Ni1 Tb1 2.998718 1_555
Ni2 Y0 2.868946 1_555
Ni2 Tb1 2.877597 1_555
Ni2 Tb1 2.877597 1_655
Ni2 Tb0 2.895518 1_565
Ni2 Tb0 2.895518 1_665
Ni2 Y1 2.912982 1_555
Ni2 Y0 2.986240 1_565
Ni3 Y1 2.868946 1_555
Ni3 Tb0 2.877597 1_555
Ni3 Tb0 2.877597 1_655
Ni3 Tb1 2.895518 1_546
Ni3 Tb1 2.895518 1_646
Ni3 Y0 2.912982 1_556
Ni3 Y1 2.986240 1_545
