# generated using pymatgen
data_Ba2YbRuO6
_symmetry_space_group_name_H-M   'P 1'
_cell_length_a   5.94525058
_cell_length_b   5.94525058
_cell_length_c   5.94525058
_cell_angle_alpha   60.00000000
_cell_angle_beta   60.00000000
_cell_angle_gamma   60.00000000
_symmetry_Int_Tables_number   1
_chemical_formula_structural   Ba2YbRuO6
_chemical_formula_sum   'Ba2 Yb1 Ru1 O6'
_cell_volume   148.59202242
_cell_formula_units_Z   1
loop_
 _symmetry_equiv_pos_site_id
 _symmetry_equiv_pos_as_xyz
  1  'x, y, z'
loop_
 _atom_site_type_symbol
 _atom_site_label
 _atom_site_symmetry_multiplicity
 _atom_site_fract_x
 _atom_site_fract_y
 _atom_site_fract_z
 _atom_site_occupancy
  Ba  Ba0  1  0.25000000  0.25000000  0.25000000  1
  Ba  Ba1  1  0.75000000  0.75000000  0.75000000  1
  Yb  Yb0  1  0.50000000  0.50000000  0.50000000  1
  Ru  Ru0  1  0.00000000  0.00000000  0.00000000  1
  O  O0  1  0.76855400  0.76855400  0.23144600  1
  O  O1  1  0.76855400  0.23144600  0.76855400  1
  O  O2  1  0.23144600  0.76855400  0.23144600  1
  O  O3  1  0.76855400  0.23144600  0.23144600  1
  O  O4  1  0.23144600  0.23144600  0.76855400  1
  O  O5  1  0.23144600  0.76855400  0.76855400  1
loop_
_geom_bond_atom_site_label_1
_geom_bond_atom_site_label_2
_geom_bond_distance
_geom_bond_site_symmetry_2
Ba0 O1 2.976716 1_554
Ba0 O3 2.976716 1_555
Ba0 O4 2.976716 1_554
Ba0 O2 2.976716 1_555
Ba0 O5 2.976716 1_545
Ba0 O1 2.976716 1_455
Ba0 O4 2.976716 1_555
Ba0 O0 2.976716 1_545
Ba0 O5 2.976716 1_554
Ba0 O0 2.976716 1_455
Ba0 O2 2.976716 1_545
Ba0 O3 2.976716 1_455
Ba1 O1 2.976716 1_565
Ba1 O0 2.976716 1_555
Ba1 O3 2.976716 1_556
Ba1 O0 2.976716 1_556
Ba1 O3 2.976716 1_565
Ba1 O1 2.976716 1_555
Ba1 O4 2.976716 1_565
Ba1 O4 2.976716 1_655
Ba1 O5 2.976716 1_555
Ba1 O5 2.976716 1_655
Ba1 O2 2.976716 1_655
Ba1 O2 2.976716 1_556
O0 Ru0 1.945964 1_665
O0 Yb0 2.257963 1_555
O1 Ru0 1.945964 1_656
O1 Yb0 2.257963 1_555
O2 Ru0 1.945964 1_565
O2 Yb0 2.257963 1_555
O3 Ru0 1.945964 1_655
O3 Yb0 2.257963 1_555
O4 Ru0 1.945964 1_556
O4 Yb0 2.257963 1_555
O5 Ru0 1.945964 1_566
O5 Yb0 2.257963 1_555
