# generated using pymatgen
data_Th2N2O
_symmetry_space_group_name_H-M   'P 1'
_cell_length_a   3.94959184
_cell_length_b   3.94959184
_cell_length_c   5.95548119
_cell_angle_alpha   90.00000000
_cell_angle_beta   90.00000000
_cell_angle_gamma   120.00000262
_symmetry_Int_Tables_number   1
_chemical_formula_structural   Th2N2O
_chemical_formula_sum   'Th2 N2 O1'
_cell_volume   80.45479093
_cell_formula_units_Z   1
loop_
 _symmetry_equiv_pos_site_id
 _symmetry_equiv_pos_as_xyz
  1  'x, y, z'
loop_
 _atom_site_type_symbol
 _atom_site_label
 _atom_site_symmetry_multiplicity
 _atom_site_fract_x
 _atom_site_fract_y
 _atom_site_fract_z
 _atom_site_occupancy
  Th  Th0  1  0.33333300  0.66666700  0.25214988  1
  Th  Th1  1  0.66666700  0.33333300  0.74785012  1
  N  N0  1  0.33333300  0.66666700  0.65244626  1
  N  N1  1  0.66666700  0.33333300  0.34755374  1
  O  O0  1  0.00000000  -0.00000000  -0.00000000  1
loop_
_geom_bond_atom_site_label_1
_geom_bond_atom_site_label_2
_geom_bond_distance
_geom_bond_site_symmetry_2
N0 Th1 2.350015 1_455
N0 Th1 2.350015 1_565
N0 Th1 2.350022 1_555
N0 Th0 2.383958 1_555
N1 Th0 2.350015 1_545
N1 Th0 2.350015 1_655
N1 Th0 2.350022 1_555
N1 Th1 2.383958 1_555
O0 Th1 2.730343 1_454
O0 Th0 2.730343 1_545
O0 Th1 2.730346 1_554
O0 Th1 2.730346 1_444
O0 Th0 2.730346 1_445
O0 Th0 2.730346 1_555
