# generated using pymatgen
data_MgSi2
_symmetry_space_group_name_H-M   'P 1'
_cell_length_a   3.71170300
_cell_length_b   5.80842100
_cell_length_c   9.34910268
_cell_angle_alpha   87.40521600
_cell_angle_beta   90.00000000
_cell_angle_gamma   90.00000000
_symmetry_Int_Tables_number   1
_chemical_formula_structural   MgSi2
_chemical_formula_sum   'Mg4 Si8'
_cell_volume   201.35189524
_cell_formula_units_Z   4
loop_
 _symmetry_equiv_pos_site_id
 _symmetry_equiv_pos_as_xyz
  1  'x, y, z'
loop_
 _atom_site_type_symbol
 _atom_site_label
 _atom_site_symmetry_multiplicity
 _atom_site_fract_x
 _atom_site_fract_y
 _atom_site_fract_z
 _atom_site_occupancy
  Mg  Mg0  1  0.00000000  0.25287800  0.84320200  1
  Mg  Mg1  1  0.00000000  0.74712200  0.15679800  1
  Mg  Mg2  1  0.50000000  0.46250800  0.34512000  1
  Mg  Mg3  1  0.50000000  0.53749200  0.65488000  1
  Si  Si0  1  0.00000000  0.24851000  0.14538200  1
  Si  Si1  1  0.50000000  0.50000000  0.00000000  1
  Si  Si2  1  0.00000000  0.80558000  0.45552000  1
  Si  Si3  1  0.50000000  0.00337300  0.30427700  1
  Si  Si4  1  0.00000000  0.75149000  0.85461800  1
  Si  Si5  1  0.50000000  0.00000000  0.00000000  1
  Si  Si6  1  0.00000000  0.19442000  0.54448000  1
  Si  Si7  1  0.50000000  0.99662700  0.69572300  1
loop_
_geom_bond_atom_site_label_1
_geom_bond_atom_site_label_2
_geom_bond_distance
_geom_bond_site_symmetry_2
Mg0 Si5 2.748743 1_456
Mg0 Si5 2.748743 1_556
Mg0 Si7 2.783246 1_545
Mg0 Si7 2.783246 1_445
Mg0 Si1 2.800709 1_456
Mg0 Si1 2.800709 1_556
Mg0 Si0 2.824077 1_556
Mg0 Si6 2.828567 1_555
Mg0 Si4 2.902939 1_555
Mg0 Si4 2.909395 1_545
Mg0 Mg3 3.002238 1_455
Mg0 Mg3 3.002238 1_555
Mg1 Si5 2.748743 1_465
Mg1 Si5 2.748743 1_565
Mg1 Si3 2.783246 1_465
Mg1 Si3 2.783246 1_565
Mg1 Si1 2.800709 1_555
Mg1 Si1 2.800709 1_455
Mg1 Si4 2.824077 1_554
Mg1 Si2 2.828567 1_555
Mg1 Si0 2.902939 1_555
Mg1 Si0 2.909395 1_565
Mg1 Mg2 3.002238 1_455
Mg1 Mg2 3.002238 1_555
Mg2 Si3 2.711106 1_555
Mg2 Si2 2.943910 1_555
Mg2 Si2 2.943910 1_655
Mg2 Si0 2.947278 1_555
Mg2 Si0 2.947278 1_655
Mg2 Si6 3.013314 1_655
Mg2 Si6 3.013314 1_555
Mg2 Si3 3.147485 1_565
Mg3 Si7 2.711106 1_555
Mg3 Si6 2.943910 1_655
Mg3 Si6 2.943910 1_555
Mg3 Si4 2.947278 1_555
Mg3 Si4 2.947278 1_655
Mg3 Si2 3.013314 1_555
Mg3 Si2 3.013314 1_655
Mg3 Si7 3.147485 1_545
Si0 Si1 2.691772 1_455
Si0 Si1 2.691772 1_555
Si0 Si3 2.736207 1_455
Si0 Si3 2.736207 1_555
Si0 Si5 2.748231 1_555
Si0 Si5 2.748231 1_455
Si1 Si4 2.691772 1_654
Si1 Si4 2.691772 1_554
Si2 Si6 2.441891 1_565
Si2 Si3 2.572226 1_565
Si2 Si3 2.572226 1_465
Si3 Si5 2.845671 1_555
Si4 Si7 2.736207 1_555
Si4 Si7 2.736207 1_455
Si4 Si5 2.748231 1_466
Si4 Si5 2.748231 1_566
Si5 Si7 2.845671 1_544
Si6 Si7 2.572226 1_545
Si6 Si7 2.572226 1_445
