# generated using pymatgen
data_Mg3Ru
_symmetry_space_group_name_H-M   'P 1'
_cell_length_a   5.12914513
_cell_length_b   5.12914513
_cell_length_c   5.12914513
_cell_angle_alpha   133.30933202
_cell_angle_beta   133.30933202
_cell_angle_gamma   68.16877665
_symmetry_Int_Tables_number   1
_chemical_formula_structural   Mg3Ru
_chemical_formula_sum   'Mg3 Ru1'
_cell_volume   70.19787663
_cell_formula_units_Z   1
loop_
 _symmetry_equiv_pos_site_id
 _symmetry_equiv_pos_as_xyz
  1  'x, y, z'
loop_
 _atom_site_type_symbol
 _atom_site_label
 _atom_site_symmetry_multiplicity
 _atom_site_fract_x
 _atom_site_fract_y
 _atom_site_fract_z
 _atom_site_occupancy
  Mg  Mg0  1  0.50000000  0.50000000  0.00000000  1
  Mg  Mg1  1  0.74999900  0.24999900  0.50000000  1
  Mg  Mg2  1  0.24999900  0.74999900  0.50000000  1
  Ru  Ru0  1  0.00000000  0.00000000  0.00000000  1
loop_
_geom_bond_atom_site_label_1
_geom_bond_atom_site_label_2
_geom_bond_distance
_geom_bond_site_symmetry_2
Mg0 Ru0 2.874441 1_666
Mg0 Ru0 2.874441 1_565
Mg0 Ru0 2.874441 1_655
Mg0 Ru0 2.874441 1_554
Mg0 Mg1 2.939830 1_554
Mg0 Mg2 2.939830 1_554
Mg0 Mg1 2.939830 1_565
Mg0 Mg2 2.939830 1_655
Mg0 Mg1 2.939842 1_454
Mg0 Mg1 2.939842 1_555
Mg0 Mg2 2.939842 1_544
Mg0 Mg2 2.939842 1_555
Mg1 Mg2 2.874441 1_544
Mg1 Mg2 2.874441 1_555
Mg1 Mg2 2.874441 1_656
Mg1 Mg2 2.874441 1_645
Mg1 Ru0 2.939830 1_555
Mg1 Ru0 2.939830 1_656
Mg1 Ru0 2.939842 1_655
Mg1 Ru0 2.939842 1_666
Mg2 Ru0 2.939830 1_555
Mg2 Ru0 2.939830 1_566
Mg2 Ru0 2.939842 1_565
Mg2 Ru0 2.939842 1_666
