# generated using pymatgen
data_Zr3V9Ge10
_symmetry_space_group_name_H-M   'P 1'
_cell_length_a   5.12982100
_cell_length_b   7.85333383
_cell_length_c   9.56386018
_cell_angle_alpha   65.83376789
_cell_angle_beta   74.44354506
_cell_angle_gamma   90.00000000
_symmetry_Int_Tables_number   1
_chemical_formula_structural   Zr3V9Ge10
_chemical_formula_sum   'Zr3 V9 Ge10'
_cell_volume   335.99520794
_cell_formula_units_Z   1
loop_
 _symmetry_equiv_pos_site_id
 _symmetry_equiv_pos_as_xyz
  1  'x, y, z'
loop_
 _atom_site_type_symbol
 _atom_site_label
 _atom_site_symmetry_multiplicity
 _atom_site_fract_x
 _atom_site_fract_y
 _atom_site_fract_z
 _atom_site_occupancy
  Zr  Zr0  1  0.85761000  0.73979800  0.28478100  1
  Zr  Zr1  1  0.64210400  0.03012700  0.71579300  1
  Zr  Zr2  1  0.35748300  0.97436700  0.28503300  1
  V  V0  1  0.43946600  0.69031700  0.62046500  1
  V  V1  1  0.05799800  0.30977700  0.38168900  1
  V  V2  1  0.56031300  0.30977700  0.38168900  1
  V  V3  1  0.94006900  0.69031700  0.62046500  1
  V  V4  1  0.43604900  0.67998500  0.12790200  1
  V  V5  1  0.56474700  0.31933300  0.87050700  1
  V  V6  1  0.93633600  0.19309500  0.12732900  1
  V  V7  1  0.06324400  0.80660200  0.87351100  1
  V  V8  1  0.14350900  0.25983600  0.71298200  1
  Ge  Ge0  1  0.06768500  0.47140900  0.86462900  1
  Ge  Ge1  1  0.93530100  0.51944900  0.12939900  1
  Ge  Ge2  1  0.56514800  0.65041100  0.86970300  1
  Ge  Ge3  1  0.43477800  0.35031300  0.13044400  1
  Ge  Ge4  1  0.75492900  0.00383100  0.99617800  1
  Ge  Ge5  1  0.24889300  0.00383100  0.99617800  1
  Ge  Ge6  1  0.28490100  0.57639300  0.43019900  1
  Ge  Ge7  1  0.71117700  0.41595700  0.57764700  1
  Ge  Ge8  1  0.78799800  0.99267900  0.42400400  1
  Ge  Ge9  1  0.21026300  0.01239700  0.57947400  1
loop_
_geom_bond_atom_site_label_1
_geom_bond_atom_site_label_2
_geom_bond_distance
_geom_bond_site_symmetry_2
Ge0 V6 2.477769 1_456
Ge0 V3 2.523886 1_455
Ge0 V0 2.523889 1_555
Ge0 V8 2.585731 1_555
Ge0 Ge1 2.622118 1_456
Ge0 V7 2.668187 1_555
Ge0 V5 2.820117 1_455
Ge0 V5 2.820127 1_555
Ge0 Ge2 2.934787 1_555
Ge0 Ge2 2.934787 1_455
Ge1 V7 2.474917 1_654
Ge1 V1 2.547744 1_655
Ge1 V2 2.547747 1_555
Ge1 V6 2.571130 1_555
Ge1 Zr0 2.673871 1_555
Ge1 V4 2.855457 1_655
Ge1 V4 2.855462 1_555
Ge1 Ge3 2.886574 1_655
Ge1 Ge3 2.886578 1_555
Ge2 V4 2.486519 1_556
Ge2 V0 2.531496 1_555
Ge2 V3 2.531498 1_555
Ge2 Ge3 2.552182 1_556
Ge2 V5 2.596927 1_555
Ge2 Zr1 2.703596 1_565
Ge2 V7 2.849767 1_655
Ge2 V7 2.849767 1_555
Ge3 V5 2.508009 1_554
Ge3 V2 2.548236 1_555
Ge3 V1 2.548236 1_555
Ge3 V4 2.579159 1_555
Ge3 Zr2 2.677965 1_545
Ge3 V6 2.852042 1_455
Ge3 V6 2.852046 1_555
Ge4 Ge5 2.533947 1_655
Ge4 V5 2.593493 1_555
Ge4 Ge5 2.595874 1_555
Ge4 V7 2.601821 1_645
Ge4 V6 2.607888 1_556
Ge4 V4 2.646216 1_546
Ge4 Zr1 2.819123 1_555
Ge4 V8 2.827881 1_655
Ge4 Zr0 2.879105 1_546
Ge4 Zr2 2.880569 1_546
Ge5 V5 2.593496 1_555
Ge5 V7 2.601823 1_545
Ge5 V6 2.607886 1_456
Ge5 V4 2.646216 1_546
Ge5 Zr1 2.819125 1_555
Ge5 V8 2.827880 1_555
Ge5 Zr0 2.879103 1_446
Ge5 Zr2 2.880566 1_546
Ge6 V4 2.548231 1_555
Ge6 V0 2.616722 1_555
Ge6 V3 2.616724 1_455
Ge6 V2 2.653145 1_555
Ge6 V1 2.653148 1_555
Ge6 V8 2.731957 1_555
Ge6 Zr2 2.829196 1_555
Ge6 Zr0 2.925640 1_455
Ge6 Zr0 2.925640 1_555
Ge7 V5 2.473109 1_555
Ge7 V1 2.619934 1_655
Ge7 V2 2.619936 1_555
Ge7 V3 2.677535 1_555
Ge7 V0 2.677538 1_555
Ge7 Zr1 2.742890 1_555
Ge7 Zr0 2.813632 1_555
Ge7 V8 2.887464 1_655
Ge7 V8 2.887469 1_555
Ge8 V6 2.508457 1_565
Ge8 V3 2.628794 1_555
Ge8 V0 2.628794 1_555
Ge8 V2 2.675409 1_565
Ge8 V1 2.675409 1_665
Ge8 Zr0 2.784695 1_555
Ge8 Zr1 2.825942 1_565
Ge8 Zr2 2.897479 1_655
Ge8 Zr2 2.897483 1_555
Ge9 V7 2.496013 1_545
Ge9 V1 2.611104 1_555
Ge9 V2 2.611104 1_555
Ge9 V8 2.705686 1_555
Ge9 V0 2.714652 1_545
Ge9 V3 2.714652 1_445
Ge9 Zr2 2.852591 1_545
Ge9 Zr1 2.885177 1_455
Ge9 Zr1 2.885182 1_555
