# generated using pymatgen
data_BaFe3(PO4)3
_symmetry_space_group_name_H-M   'P 1'
_cell_length_a   9.29547476
_cell_length_b   9.29547476
_cell_length_c   9.29547476
_cell_angle_alpha   137.60260569
_cell_angle_beta   109.81559150
_cell_angle_gamma   85.55627231
_symmetry_Int_Tables_number   1
_chemical_formula_structural   BaFe3(PO4)3
_chemical_formula_sum   'Ba2 Fe6 P6 O24'
_cell_volume   490.21264687
_cell_formula_units_Z   2
loop_
 _symmetry_equiv_pos_site_id
 _symmetry_equiv_pos_as_xyz
  1  'x, y, z'
loop_
 _atom_site_type_symbol
 _atom_site_label
 _atom_site_symmetry_multiplicity
 _atom_site_fract_x
 _atom_site_fract_y
 _atom_site_fract_z
 _atom_site_occupancy
  Ba  Ba0  1  0.75000000  0.14066300  0.39066300  1
  Ba  Ba1  1  0.25000000  0.85933700  0.60933700  1
  Fe  Fe0  1  0.00000000  0.00000000  0.00000000  1
  Fe  Fe1  1  0.50000000  0.50000000  0.00000000  1
  Fe  Fe2  1  0.61795000  0.61795000  0.50000000  1
  Fe  Fe3  1  0.88205000  0.38205000  0.00000000  1
  Fe  Fe4  1  0.11795000  0.61795000  0.00000000  1
  Fe  Fe5  1  0.38205000  0.38205000  0.50000000  1
  P  P0  1  0.82203200  0.82203200  0.50000000  1
  P  P1  1  0.67796800  0.17796800  0.00000000  1
  P  P2  1  0.32203200  0.82203200  0.00000000  1
  P  P3  1  0.17796800  0.17796800  0.50000000  1
  P  P4  1  0.75000000  0.64576100  0.89576100  1
  P  P5  1  0.25000000  0.35423900  0.10423900  1
  O  O0  1  0.63278100  0.50776700  0.64054900  1
  O  O1  1  0.13278100  0.49223300  0.12501400  1
  O  O2  1  0.36721900  0.49223300  0.35945100  1
  O  O3  1  0.86721900  0.50776700  0.87498600  1
  O  O4  1  0.15640600  0.13038500  0.97397800  1
  O  O5  1  0.84359400  0.86961500  0.02602200  1
  O  O6  1  0.65640600  0.68242800  0.02602200  1
  O  O7  1  0.34359400  0.31757200  0.97397800  1
  O  O8  1  0.86136500  0.79304200  0.65621800  1
  O  O9  1  0.86317600  0.20695800  0.06832300  1
  O  O10  1  0.36136500  0.70514700  0.06832300  1
  O  O11  1  0.36317600  0.29485300  0.65621800  1
  O  O12  1  0.13863500  0.20695800  0.34378200  1
  O  O13  1  0.13682400  0.79304200  0.93167700  1
  O  O14  1  0.63863500  0.29485300  0.93167700  1
  O  O15  1  0.63682400  0.70514700  0.34378200  1
  O  O16  1  0.85038600  0.06698100  0.64873600  1
  O  O17  1  0.58175600  0.93301900  0.78340600  1
  O  O18  1  0.35038600  0.70165000  0.78340600  1
  O  O19  1  0.08175600  0.29835000  0.64873600  1
  O  O20  1  0.14961400  0.93301900  0.35126400  1
  O  O21  1  0.41824400  0.06698100  0.21659400  1
  O  O22  1  0.64961400  0.29835000  0.21659400  1
  O  O23  1  0.91824400  0.70165000  0.35126400  1
loop_
_geom_bond_atom_site_label_1
_geom_bond_atom_site_label_2
_geom_bond_distance
_geom_bond_site_symmetry_2
Ba0 O5 2.764064 1_545
Ba0 O6 2.764064 1_545
Ba0 O3 2.767662 1_555
Ba0 O0 2.767663 1_555
Ba0 O16 2.811515 1_555
Ba0 O19 2.811523 1_655
Ba0 O22 2.811523 1_555
Ba0 O21 2.811524 1_555
Ba1 O4 2.764064 1_565
Ba1 O7 2.764064 1_565
Ba1 O1 2.767662 1_555
Ba1 O2 2.767663 1_555
Ba1 O20 2.811515 1_555
Ba1 O18 2.811523 1_555
Ba1 O23 2.811523 1_455
Ba1 O17 2.811524 1_555
Fe0 O12 2.021335 1_555
Fe0 O8 2.021335 1_444
Fe0 O13 2.021335 1_544
Fe0 O9 2.021335 1_455
Fe0 O4 2.141410 1_554
Fe0 O5 2.141410 1_445
Fe1 O10 2.021335 1_555
Fe1 O11 2.021335 1_554
Fe1 O14 2.021335 1_554
Fe1 O15 2.021335 1_555
Fe1 O6 2.141404 1_555
Fe1 O7 2.141404 1_554
Fe2 O2 2.146426 1_555
Fe2 O0 2.146437 1_555
Fe2 O17 2.164118 1_555
Fe2 O22 2.164122 1_555
Fe2 O8 2.174755 1_555
Fe2 O15 2.174755 1_555
Fe3 O1 2.146428 1_655
Fe3 O3 2.146428 1_554
Fe3 O16 2.164120 1_554
Fe3 O23 2.164122 1_555
Fe3 O14 2.174755 1_554
Fe3 O9 2.174755 1_555
Fe4 O3 2.146428 1_454
Fe4 O1 2.146428 1_555
Fe4 O20 2.164120 1_555
Fe4 O19 2.164122 1_554
Fe4 O13 2.174755 1_554
Fe4 O10 2.174755 1_555
Fe5 O0 2.146426 1_555
Fe5 O2 2.146437 1_555
Fe5 O21 2.164118 1_555
Fe5 O18 2.164122 1_555
Fe5 O11 2.174755 1_555
Fe5 O12 2.174755 1_555
O0 P4 1.558879 1_555
O1 P5 1.558885 1_555
O2 P5 1.558879 1_555
O3 P4 1.558885 1_555
O4 P5 1.548514 1_556
O5 P4 1.548514 1_554
O6 P4 1.548521 1_554
O7 P5 1.548521 1_556
O8 P0 1.586719 1_555
O9 P1 1.586719 1_555
O10 P2 1.586719 1_555
O11 P3 1.586719 1_555
O12 P3 1.586719 1_555
O13 P2 1.586719 1_556
O14 P1 1.586719 1_556
O15 P0 1.586719 1_555
O16 P0 1.536799 1_545
O17 P1 1.536796 1_566
O18 P2 1.536791 1_556
O19 P3 1.536791 1_555
O20 P3 1.536799 1_565
O21 P2 1.536796 1_545
O22 P1 1.536791 1_555
O23 P0 1.536791 1_555
