# generated using pymatgen
data_Li4Mn3SbO8
_symmetry_space_group_name_H-M   'P 1'
_cell_length_a   6.07952101
_cell_length_b   6.22198779
_cell_length_c   8.77179600
_cell_angle_alpha   89.88613116
_cell_angle_beta   91.52503838
_cell_angle_gamma   90.77266189
_symmetry_Int_Tables_number   1
_chemical_formula_structural   Li4Mn3SbO8
_chemical_formula_sum   'Li8 Mn6 Sb2 O16'
_cell_volume   331.66001422
_cell_formula_units_Z   2
loop_
 _symmetry_equiv_pos_site_id
 _symmetry_equiv_pos_as_xyz
  1  'x, y, z'
loop_
 _atom_site_type_symbol
 _atom_site_label
 _atom_site_symmetry_multiplicity
 _atom_site_fract_x
 _atom_site_fract_y
 _atom_site_fract_z
 _atom_site_occupancy
  Li  Li0  1  0.98821400  0.00034200  0.50479200  1
  Li  Li1  1  0.48983300  0.50056700  0.00448600  1
  Li  Li2  1  0.25180200  0.75217200  0.25063600  1
  Li  Li3  1  0.75118400  0.25166400  0.75041500  1
  Li  Li4  1  0.24569400  0.25390300  0.25115200  1
  Li  Li5  1  0.75059700  0.74756900  0.75056700  1
  Li  Li6  1  0.00127300  0.50003900  0.49893900  1
  Li  Li7  1  0.50231800  0.00052800  0.99552400  1
  Mn  Mn0  1  0.25111400  0.74979300  0.74868700  1
  Mn  Mn1  1  0.25107300  0.25033000  0.74922200  1
  Mn  Mn2  1  0.99605800  0.50026900  0.00136200  1
  Mn  Mn3  1  0.75039400  0.24933600  0.24868600  1
  Mn  Mn4  1  0.75243600  0.74955800  0.24942100  1
  Mn  Mn5  1  0.49571400  0.00017600  0.50131700  1
  Sb  Sb0  1  0.50181300  0.50012000  0.49930000  1
  Sb  Sb1  1  0.00213400  0.99982500  0.99931500  1
  O  O0  1  0.03315400  0.47244500  0.75473700  1
  O  O1  1  0.53506900  0.97126900  0.25560100  1
  O  O2  1  0.97018800  0.52571100  0.24698900  1
  O  O3  1  0.46882900  0.02727400  0.74707000  1
  O  O4  1  0.26129700  0.26867000  0.49412700  1
  O  O5  1  0.76174100  0.76823700  0.99395600  1
  O  O6  1  0.26708800  0.72643100  0.49810900  1
  O  O7  1  0.76718100  0.22624500  0.99810900  1
  O  O8  1  0.50163000  0.50777700  0.26511900  1
  O  O9  1  0.00103600  0.00780100  0.76488100  1
  O  O10  1  0.74015900  0.73290000  0.50575500  1
  O  O11  1  0.24001100  0.23336300  0.00504700  1
  O  O12  1  0.73376900  0.27071800  0.50049500  1
  O  O13  1  0.23432200  0.77085100  0.00002600  1
  O  O14  1  0.50107900  0.49223500  0.73319700  1
  O  O15  1  0.00178900  0.99188100  0.23295700  1
loop_
_geom_bond_atom_site_label_1
_geom_bond_atom_site_label_2
_geom_bond_distance
_geom_bond_site_symmetry_2
Li0 O10 2.230742 1_545
Li0 O9 2.281248 1_655
Li0 O12 2.300264 1_555
Li0 O4 2.342071 1_655
Li0 O15 2.388812 1_645
Li0 O6 2.421991 1_645
Li1 O11 2.236755 1_555
Li1 O8 2.285946 1_555
Li1 O13 2.304261 1_555
Li1 O5 2.334122 1_554
Li1 O14 2.383179 1_554
Li1 O7 2.417124 1_554
Li2 O15 2.146269 1_555
Li2 O8 2.164842 1_555
Li2 O6 2.175975 1_555
Li2 O1 2.181493 1_555
Li2 O13 2.200956 1_555
Li2 O2 2.202232 1_455
Li3 O14 2.150244 1_555
Li3 O9 2.162586 1_655
Li3 O7 2.177841 1_555
Li3 O0 2.181821 1_655
Li3 O12 2.195032 1_555
Li3 O3 2.197636 1_555
Li4 O4 2.133021 1_555
Li4 O11 2.162146 1_555
Li4 O15 2.192112 1_545
Li4 O8 2.203525 1_555
Li4 O2 2.395784 1_455
Li4 O1 2.503701 1_545
Li5 O5 2.138301 1_555
Li5 O10 2.148774 1_555
Li5 O14 2.184476 1_555
Li5 O9 2.209015 1_665
Li5 O0 2.440953 1_655
Li5 O3 2.457940 1_565
Li6 O6 2.129546 1_555
Li6 O12 2.149278 1_455
Li6 O4 2.153677 1_555
Li6 O10 2.165683 1_455
Li6 O2 2.218726 1_455
Li6 O0 2.253427 1_555
Li7 O7 2.122014 1_555
Li7 O13 2.153768 1_546
Li7 O5 2.153900 1_545
Li7 O11 2.172245 1_556
Li7 O3 2.189687 1_555
Li7 O1 2.291824 1_546
Mn0 O3 2.161514 1_565
Mn0 O0 2.162934 1_555
Mn0 O6 2.207909 1_555
Mn0 O13 2.213991 1_556
Mn0 O14 2.230127 1_555
Mn0 O9 2.233147 1_565
Mn1 O0 1.928866 1_555
Mn1 O3 1.931336 1_555
Mn1 O14 2.131702 1_555
Mn1 O9 2.134275 1_555
Mn1 O4 2.242793 1_555
Mn1 O11 2.249067 1_556
Mn2 O2 2.170741 1_555
Mn2 O7 2.185867 1_554
Mn2 O0 2.188470 1_654
Mn2 O13 2.206309 1_655
Mn2 O5 2.207281 1_554
Mn2 O11 2.241031 1_655
Mn3 O1 2.157180 1_545
Mn3 O2 2.163742 1_555
Mn3 O7 2.208143 1_554
Mn3 O12 2.218153 1_555
Mn3 O8 2.229767 1_555
Mn3 O15 2.235863 1_645
Mn4 O1 1.924972 1_555
Mn4 O2 1.934978 1_555
Mn4 O15 2.131044 1_655
Mn4 O8 2.134361 1_555
Mn4 O5 2.245844 1_554
Mn4 O10 2.253865 1_555
Mn5 O3 2.173271 1_555
Mn5 O1 2.182972 1_545
Mn5 O6 2.183574 1_545
Mn5 O12 2.205209 1_555
Mn5 O4 2.210161 1_555
Mn5 O10 2.244745 1_545
O4 Sb0 2.038116 1_555
O5 Sb1 2.038194 1_655
O6 Sb0 2.018064 1_555
O7 Sb1 2.019535 1_645
O8 Sb0 2.054617 1_555
O9 Sb1 2.056743 1_545
O10 Sb0 2.034694 1_555
O11 Sb1 2.035956 1_544
O12 Sb0 2.019765 1_555
O13 Sb1 2.018925 1_554
O14 Sb0 2.052308 1_555
O15 Sb1 2.050014 1_554
