# generated using pymatgen
data_Na2MnAgF6
_symmetry_space_group_name_H-M   'P 1'
_cell_length_a   6.04235400
_cell_length_b   6.04235395
_cell_length_c   6.04235359
_cell_angle_alpha   60.00000099
_cell_angle_beta   59.99999773
_cell_angle_gamma   59.99999970
_symmetry_Int_Tables_number   1
_chemical_formula_structural   Na2MnAgF6
_chemical_formula_sum   'Na2 Mn1 Ag1 F6'
_cell_volume   155.99240711
_cell_formula_units_Z   1
loop_
 _symmetry_equiv_pos_site_id
 _symmetry_equiv_pos_as_xyz
  1  'x, y, z'
loop_
 _atom_site_type_symbol
 _atom_site_label
 _atom_site_symmetry_multiplicity
 _atom_site_fract_x
 _atom_site_fract_y
 _atom_site_fract_z
 _atom_site_occupancy
  Na  Na0  1  0.25000000  0.25000000  0.25000000  1
  Na  Na1  1  0.75000000  0.75000000  0.75000000  1
  Mn  Mn0  1  0.00000000  0.00000000  0.00000000  1
  Ag  Ag0  1  0.50000000  0.50000000  0.50000000  1
  F  F0  1  0.22875200  0.77124800  0.22875200  1
  F  F1  1  0.77124800  0.77124800  0.22875200  1
  F  F2  1  0.77124800  0.22875200  0.77124800  1
  F  F3  1  0.77124800  0.22875200  0.22875200  1
  F  F4  1  0.22875200  0.77124800  0.77124800  1
  F  F5  1  0.22875200  0.22875200  0.77124800  1
loop_
_geom_bond_atom_site_label_1
_geom_bond_atom_site_label_2
_geom_bond_distance
_geom_bond_site_symmetry_2
Ag0 F3 2.317863 1_555
Ag0 F4 2.317863 1_555
Ag0 F0 2.317863 1_555
Ag0 F5 2.317863 1_555
Ag0 F1 2.317863 1_555
Ag0 F2 2.317863 1_555
F0 Mn0 1.954727 1_565
F1 Mn0 1.954727 1_665
F2 Mn0 1.954727 1_656
F3 Mn0 1.954727 1_655
F4 Mn0 1.954727 1_566
F5 Mn0 1.954727 1_556
