# generated using pymatgen
data_UBr4O9
_symmetry_space_group_name_H-M   'P 1'
_cell_length_a   7.15455352
_cell_length_b   15.06024218
_cell_length_c   6.38525626
_cell_angle_alpha   90.72238191
_cell_angle_beta   109.47160021
_cell_angle_gamma   105.43762599
_symmetry_Int_Tables_number   1
_chemical_formula_structural   UBr4O9
_chemical_formula_sum   'U2 Br8 O18'
_cell_volume   621.35511113
_cell_formula_units_Z   2
loop_
 _symmetry_equiv_pos_site_id
 _symmetry_equiv_pos_as_xyz
  1  'x, y, z'
loop_
 _atom_site_type_symbol
 _atom_site_label
 _atom_site_symmetry_multiplicity
 _atom_site_fract_x
 _atom_site_fract_y
 _atom_site_fract_z
 _atom_site_occupancy
  U  U0  1  0.79097000  0.17438900  0.78123300  1
  U  U1  1  0.20903000  0.82561100  0.21876700  1
  Br  Br0  1  0.42205700  0.27632600  0.88925800  1
  Br  Br1  1  0.57794300  0.72367400  0.11074200  1
  Br  Br2  1  0.09886200  0.43682600  0.66550200  1
  Br  Br3  1  0.90113800  0.56317400  0.33449800  1
  Br  Br4  1  0.22402400  0.94400700  0.74723800  1
  Br  Br5  1  0.77597600  0.05599300  0.25276200  1
  Br  Br6  1  0.32369600  0.18178500  0.34273200  1
  Br  Br7  1  0.67630400  0.81821500  0.65726800  1
  O  O0  1  0.94842500  0.13811500  0.14428100  1
  O  O1  1  0.05157500  0.86188500  0.85571900  1
  O  O2  1  0.56745800  0.07763300  0.77786400  1
  O  O3  1  0.43254200  0.92236700  0.22213600  1
  O  O4  1  0.87686100  0.08146900  0.54078500  1
  O  O5  1  0.12313900  0.91853100  0.45921500  1
  O  O6  1  0.03125900  0.26607000  0.80337900  1
  O  O7  1  0.96874100  0.73393000  0.19662100  1
  O  O8  1  0.60446000  0.21531100  0.47726400  1
  O  O9  1  0.39554000  0.78468900  0.52273600  1
  O  O10  1  0.80217300  0.44906900  0.36897800  1
  O  O11  1  0.19782600  0.55093100  0.63102200  1
  O  O12  1  0.65976600  0.48475500  0.74747300  1
  O  O13  1  0.34023400  0.51524500  0.25252700  1
  O  O14  1  0.68347800  0.28019700  0.92799700  1
  O  O15  1  0.31652200  0.71980300  0.07200300  1
  O  O16  1  0.27372000  0.43003100  0.23193000  1
  O  O17  1  0.72628000  0.56996900  0.76807000  1
loop_
_geom_bond_atom_site_label_1
_geom_bond_atom_site_label_2
_geom_bond_distance
_geom_bond_site_symmetry_2
Br0 O14 1.787721 1_555
Br1 O15 1.787721 1_555
Br2 O11 1.722953 1_555
Br2 O10 2.379582 1_455
Br3 O10 1.722954 1_555
Br3 O11 2.379577 1_655
Br4 O5 1.732130 1_555
Br4 O1 1.819523 1_555
Br5 O4 1.732130 1_555
Br5 O0 1.819523 1_555
Br6 O8 1.823900 1_555
Br6 O0 2.453089 1_455
Br7 O9 1.823900 1_555
Br7 O1 2.453089 1_655
O0 U0 2.357943 1_554
O1 U1 2.357943 1_556
O2 U0 1.848443 1_555
O3 U1 1.848443 1_555
O4 U0 2.392862 1_555
O5 U1 2.392862 1_555
O6 U0 1.857751 1_455
O7 U1 1.857751 1_655
O8 U0 2.160767 1_555
O9 U1 2.160767 1_555
O12 O17 1.232727 1_555
O13 O16 1.232727 1_555
O14 U0 2.259231 1_555
O15 U1 2.259231 1_555
