# generated using pymatgen
data_Tm3Ni11Ge4
_symmetry_space_group_name_H-M   'P 1'
_cell_length_a   8.26663532
_cell_length_b   8.26663532
_cell_length_c   8.53748400
_cell_angle_alpha   90.00000000
_cell_angle_beta   90.00000000
_cell_angle_gamma   119.99999459
_symmetry_Int_Tables_number   1
_chemical_formula_structural   Tm3Ni11Ge4
_chemical_formula_sum   'Tm6 Ni22 Ge8'
_cell_volume   505.26372228
_cell_formula_units_Z   2
loop_
 _symmetry_equiv_pos_site_id
 _symmetry_equiv_pos_as_xyz
  1  'x, y, z'
loop_
 _atom_site_type_symbol
 _atom_site_label
 _atom_site_symmetry_multiplicity
 _atom_site_fract_x
 _atom_site_fract_y
 _atom_site_fract_z
 _atom_site_occupancy
  Tm  Tm0  1  0.80443200  0.19556800  0.75000000  1
  Tm  Tm1  1  0.19556800  0.80443200  0.25000000  1
  Tm  Tm2  1  0.39113700  0.19556800  0.75000000  1
  Tm  Tm3  1  0.60886300  0.80443200  0.25000000  1
  Tm  Tm4  1  0.80443200  0.60886300  0.75000000  1
  Tm  Tm5  1  0.19556800  0.39113700  0.25000000  1
  Ni  Ni0  1  0.84358800  0.15641200  0.40461600  1
  Ni  Ni1  1  0.15641200  0.84358800  0.59538400  1
  Ni  Ni2  1  0.31282400  0.15641200  0.40461600  1
  Ni  Ni3  1  0.15641200  0.84358800  0.90461600  1
  Ni  Ni4  1  0.68717600  0.84358800  0.59538400  1
  Ni  Ni5  1  0.84358800  0.15641200  0.09538400  1
  Ni  Ni6  1  0.84358800  0.68717600  0.40461600  1
  Ni  Ni7  1  0.68717600  0.84358800  0.90461600  1
  Ni  Ni8  1  0.15641200  0.31282400  0.59538400  1
  Ni  Ni9  1  0.31282400  0.15641200  0.09538400  1
  Ni  Ni10  1  0.15641200  0.31282400  0.90461600  1
  Ni  Ni11  1  0.84358800  0.68717600  0.09538400  1
  Ni  Ni12  1  0.43496300  0.56503700  0.75000000  1
  Ni  Ni13  1  0.56503700  0.43496300  0.25000000  1
  Ni  Ni14  1  0.13007400  0.56503700  0.75000000  1
  Ni  Ni15  1  0.86992600  0.43496300  0.25000000  1
  Ni  Ni16  1  0.43496300  0.86992600  0.75000000  1
  Ni  Ni17  1  0.56503700  0.13007400  0.25000000  1
  Ni  Ni18  1  0.66666700  0.33333300  0.00222200  1
  Ni  Ni19  1  0.33333300  0.66666700  0.99777800  1
  Ni  Ni20  1  0.33333300  0.66666700  0.50222200  1
  Ni  Ni21  1  0.66666700  0.33333300  0.49777800  1
  Ge  Ge0  1  0.50000000  0.50000000  0.00000000  1
  Ge  Ge1  1  0.00000000  0.50000000  0.00000000  1
  Ge  Ge2  1  0.50000000  0.50000000  0.50000000  1
  Ge  Ge3  1  0.50000000  0.00000000  0.00000000  1
  Ge  Ge4  1  0.00000000  0.50000000  0.50000000  1
  Ge  Ge5  1  0.50000000  0.00000000  0.50000000  1
  Ge  Ge6  1  0.00000000  0.00000000  0.75000000  1
  Ge  Ge7  1  0.00000000  0.00000000  0.25000000  1
loop_
_geom_bond_atom_site_label_1
_geom_bond_atom_site_label_2
_geom_bond_distance
_geom_bond_site_symmetry_2
Ni0 Ni17 2.567268 1_555
Ni0 Ni15 2.567268 1_555
Ni0 Ni5 2.640063 1_555
Ni0 Ni21 2.655126 1_555
Ni0 Ni8 2.769142 1_655
Ni0 Ni4 2.769142 1_545
Ni0 Tm5 2.885820 1_655
Ni0 Tm3 2.885820 1_545
Ni0 Tm0 3.001535 1_555
Ni1 Ni14 2.567268 1_555
Ni1 Ni16 2.567268 1_555
Ni1 Ni3 2.640063 1_555
Ni1 Ni20 2.655126 1_555
Ni1 Ni2 2.769142 1_565
Ni1 Ni6 2.769142 1_455
Ni1 Tm2 2.885820 1_565
Ni1 Tm4 2.885820 1_455
Ni1 Tm1 3.001535 1_555
Ni2 Ni9 2.640063 1_555
Ni2 Ni21 2.655133 1_555
Ni2 Ni8 2.769142 1_555
Ni2 Tm1 2.885819 1_545
Ni2 Tm5 2.885825 1_555
Ni2 Tm2 3.001537 1_555
Ni3 Ni9 2.769142 1_566
Ni3 Tm2 2.885820 1_565
Ni3 Tm4 2.885820 1_455
Ni3 Tm1 3.001535 1_556
Ni4 Ni7 2.640063 1_555
Ni4 Ni6 2.769142 1_555
Ni4 Tm0 2.885819 1_565
Ni4 Tm4 2.885825 1_555
Ni4 Tm3 3.001537 1_555
Ni5 Ni7 2.769142 1_544
Ni5 Tm5 2.885820 1_655
Ni5 Tm3 2.885820 1_545
Ni5 Tm0 3.001535 1_554
Ni6 Tm1 2.885819 1_655
Ni6 Tm3 2.885825 1_555
Ni6 Tm4 3.001537 1_555
Ni7 Tm0 2.885819 1_565
Ni7 Tm4 2.885825 1_555
Ni7 Tm3 3.001537 1_556
Ni8 Tm0 2.885819 1_455
Ni8 Tm2 2.885825 1_555
Ni8 Tm5 3.001537 1_555
Ni9 Tm1 2.885819 1_545
Ni9 Tm5 2.885825 1_555
Ni9 Tm2 3.001537 1_554
Ni10 Ni14 2.567268 1_555
Ni10 Ni12 2.567268 1_555
Ni10 Ni8 2.640063 1_555
Ni10 Ni19 2.655133 1_555
Ni10 Ni9 2.769142 1_556
Ni10 Ni5 2.769142 1_456
Ni10 Tm0 2.885819 1_455
Ni10 Tm2 2.885825 1_555
Ni10 Tm5 3.001537 1_556
Ni11 Ni15 2.567268 1_555
Ni11 Ni13 2.567268 1_555
Ni11 Ni6 2.640063 1_555
Ni11 Ni18 2.655133 1_555
Ni11 Ni7 2.769142 1_554
Ni11 Ni3 2.769142 1_654
Ni11 Tm1 2.885819 1_655
Ni11 Tm3 2.885825 1_555
Ni11 Tm4 3.001537 1_554
Ni12 Ni14 2.520406 1_555
Ni12 Ni16 2.520406 1_555
Ni12 Ni8 2.567268 1_555
Ni12 Ni7 2.567268 1_555
Ni12 Ni4 2.567268 1_555
Ni12 Ni19 2.567570 1_555
Ni12 Ni20 2.567570 1_555
Ni12 Tm4 2.890200 1_555
Ni12 Tm2 2.890200 1_555
Ni13 Ni15 2.520406 1_555
Ni13 Ni17 2.520406 1_555
Ni13 Ni9 2.567268 1_555
Ni13 Ni2 2.567268 1_555
Ni13 Ni6 2.567268 1_555
Ni13 Ni21 2.567570 1_555
Ni13 Ni18 2.567570 1_555
Ni13 Tm3 2.890200 1_555
Ni13 Tm5 2.890200 1_555
Ni14 Ni16 2.520406 1_555
Ni14 Ni8 2.567268 1_555
Ni14 Ni3 2.567268 1_555
Ni14 Ni19 2.567566 1_555
Ni14 Ni20 2.567566 1_555
Ni14 Tm4 2.890191 1_455
Ni14 Tm0 2.890196 1_455
Ni15 Ni17 2.520406 1_555
Ni15 Ni6 2.567268 1_555
Ni15 Ni5 2.567268 1_555
Ni15 Ni21 2.567566 1_555
Ni15 Ni18 2.567566 1_555
Ni15 Tm5 2.890191 1_655
Ni15 Tm1 2.890196 1_655
Ni16 Ni7 2.567268 1_555
Ni16 Ni4 2.567268 1_555
Ni16 Ni3 2.567268 1_555
Ni16 Ni19 2.567566 1_555
Ni16 Ni20 2.567566 1_555
Ni16 Tm2 2.890191 1_565
Ni16 Tm0 2.890196 1_565
Ni17 Ni9 2.567268 1_555
Ni17 Ni2 2.567268 1_555
Ni17 Ni5 2.567268 1_555
Ni17 Ni21 2.567566 1_555
Ni17 Ni18 2.567566 1_555
Ni17 Tm3 2.890191 1_545
Ni17 Tm1 2.890196 1_545
Ni18 Ni5 2.655126 1_555
Ni18 Ni9 2.655133 1_555
Ni18 Tm0 2.920246 1_554
Ni18 Tm4 2.920246 1_554
Ni18 Tm2 2.920246 1_554
Ni19 Ni3 2.655126 1_555
Ni19 Ni7 2.655133 1_555
Ni19 Tm1 2.920246 1_556
Ni19 Tm3 2.920246 1_556
Ni19 Tm5 2.920246 1_556
Ni20 Ni8 2.655133 1_555
Ni20 Ni4 2.655133 1_555
Ni20 Tm1 2.920246 1_555
Ni20 Tm3 2.920246 1_555
Ni20 Tm5 2.920246 1_555
Ni21 Ni6 2.655133 1_555
Ni21 Tm0 2.920246 1_555
Ni21 Tm4 2.920246 1_555
Ni21 Tm2 2.920246 1_555
Ge0 Ni13 2.328669 1_555
Ge0 Ni12 2.328669 1_554
Ge0 Ni18 2.386452 1_555
Ge0 Ni19 2.386452 1_554
Ge0 Ni9 2.594199 1_555
Ge0 Ni11 2.594199 1_555
Ge0 Ni10 2.594199 1_554
Ge0 Ni7 2.594199 1_554
Ge0 Tm3 3.071489 1_555
Ge0 Tm4 3.071489 1_554
Ge0 Tm5 3.071489 1_555
Ge0 Tm2 3.071489 1_554
Ge1 Ni15 2.328669 1_455
Ge1 Ni14 2.328669 1_554
Ge1 Ni18 2.386445 1_455
Ge1 Ni19 2.386445 1_554
Ge1 Ni11 2.594199 1_455
Ge1 Ni10 2.594199 1_554
Ge1 Ni5 2.594199 1_455
Ge1 Ni3 2.594199 1_554
Ge1 Tm4 3.071483 1_454
Ge1 Tm5 3.071483 1_555
Ge1 Tm1 3.071488 1_555
Ge1 Tm0 3.071488 1_454
Ge2 Ni12 2.328669 1_555
Ge2 Ni13 2.328669 1_555
Ge2 Ni21 2.386452 1_555
Ge2 Ni20 2.386452 1_555
Ge2 Ni2 2.594199 1_555
Ge2 Ni4 2.594199 1_555
Ge2 Ni8 2.594199 1_555
Ge2 Ni6 2.594199 1_555
Ge2 Tm4 3.071489 1_555
Ge2 Tm3 3.071489 1_555
Ge2 Tm2 3.071489 1_555
Ge2 Tm5 3.071489 1_555
Ge3 Ni17 2.328669 1_555
Ge3 Ni16 2.328669 1_544
Ge3 Ni18 2.386445 1_555
Ge3 Ni19 2.386445 1_544
Ge3 Ni9 2.594199 1_555
Ge3 Ni7 2.594199 1_544
Ge3 Ni3 2.594199 1_544
Ge3 Ni5 2.594199 1_555
Ge3 Tm3 3.071483 1_545
Ge3 Tm2 3.071483 1_554
Ge3 Tm0 3.071488 1_554
Ge3 Tm1 3.071488 1_545
Ge4 Ni15 2.328669 1_455
Ge4 Ni14 2.328669 1_555
Ge4 Ni21 2.386445 1_455
Ge4 Ni20 2.386445 1_555
Ge4 Ni8 2.594199 1_555
Ge4 Ni6 2.594199 1_455
Ge4 Ni1 2.594199 1_555
Ge4 Ni0 2.594199 1_455
Ge4 Tm4 3.071483 1_455
Ge4 Tm5 3.071483 1_555
Ge4 Tm1 3.071488 1_555
Ge4 Tm0 3.071488 1_455
Ge5 Ni17 2.328669 1_555
Ge5 Ni16 2.328669 1_545
Ge5 Ni21 2.386445 1_555
Ge5 Ni20 2.386445 1_545
Ge5 Ni2 2.594199 1_555
Ge5 Ni4 2.594199 1_545
Ge5 Ni0 2.594199 1_555
Ge5 Ni1 2.594199 1_545
Ge5 Tm3 3.071483 1_545
Ge5 Tm2 3.071483 1_555
Ge5 Tm0 3.071488 1_555
Ge5 Tm1 3.071488 1_545
Ge6 Ni3 2.599623 1_545
Ge6 Ni1 2.599623 1_545
Ge6 Ni10 2.599623 1_555
Ge6 Ni8 2.599623 1_555
Ge6 Ni7 2.599623 1_445
Ge6 Ni4 2.599623 1_445
Ge6 Tm0 2.800188 1_455
Ge6 Tm2 2.800195 1_555
Ge6 Tm4 2.800195 1_445
Ge7 Ni5 2.599623 1_455
Ge7 Ni0 2.599623 1_455
Ge7 Ni11 2.599623 1_445
Ge7 Ni6 2.599623 1_445
Ge7 Ni2 2.599623 1_555
Ge7 Ni9 2.599623 1_555
Ge7 Tm1 2.800188 1_545
Ge7 Tm5 2.800195 1_555
Ge7 Tm3 2.800195 1_445
