# generated using pymatgen
data_Ta3MnN6
_symmetry_space_group_name_H-M   'P 1'
_cell_length_a   5.00122136
_cell_length_b   7.58629200
_cell_length_c   5.50641213
_cell_angle_alpha   90.00000000
_cell_angle_beta   89.27981871
_cell_angle_gamma   90.00000000
_symmetry_Int_Tables_number   1
_chemical_formula_structural   Ta3MnN6
_chemical_formula_sum   'Ta6 Mn2 N12'
_cell_volume   208.90076797
_cell_formula_units_Z   2
loop_
 _symmetry_equiv_pos_site_id
 _symmetry_equiv_pos_as_xyz
  1  'x, y, z'
loop_
 _atom_site_type_symbol
 _atom_site_label
 _atom_site_symmetry_multiplicity
 _atom_site_fract_x
 _atom_site_fract_y
 _atom_site_fract_z
 _atom_site_occupancy
  Ta  Ta0  1  0.04995300  0.25000000  0.92898500  1
  Ta  Ta1  1  0.95004700  0.75000000  0.07101500  1
  Ta  Ta2  1  0.47776100  0.25000000  0.40718200  1
  Ta  Ta3  1  0.52223900  0.75000000  0.59281800  1
  Ta  Ta4  1  0.00000000  0.50000000  0.50000000  1
  Ta  Ta5  1  0.00000000  0.00000000  0.50000000  1
  Mn  Mn0  1  0.50000000  0.50000000  0.00000000  1
  Mn  Mn1  1  0.50000000  0.00000000  0.00000000  1
  N  N0  1  0.84185300  0.25000000  0.57363200  1
  N  N1  1  0.15814700  0.75000000  0.42636800  1
  N  N2  1  0.67107700  0.25000000  0.06473800  1
  N  N3  1  0.32892300  0.75000000  0.93526200  1
  N  N4  1  0.18910200  0.41971600  0.18368000  1
  N  N5  1  0.81089800  0.91971600  0.81632000  1
  N  N6  1  0.81089800  0.58028400  0.81632000  1
  N  N7  1  0.18910200  0.08028400  0.18368000  1
  N  N8  1  0.33031700  0.42360000  0.68914600  1
  N  N9  1  0.66968300  0.92360000  0.31085400  1
  N  N10  1  0.66968300  0.57640000  0.31085400  1
  N  N11  1  0.33031700  0.07640000  0.68914600  1
loop_
_geom_bond_atom_site_label_1
_geom_bond_atom_site_label_2
_geom_bond_distance
_geom_bond_site_symmetry_2
Mn0 N6 1.942165 1_554
Mn0 N4 1.942165 1_555
Mn0 N10 2.005614 1_555
Mn0 N8 2.005614 1_554
Mn0 N2 2.112764 1_555
Mn0 N3 2.112764 1_554
Mn1 N7 1.942165 1_555
Mn1 N5 1.942165 1_544
Mn1 N9 2.005614 1_545
Mn1 N11 2.005614 1_554
Mn1 N2 2.112764 1_555
Mn1 N3 2.112764 1_544
N0 Ta2 2.048828 1_555
N0 Ta5 2.092578 1_655
N0 Ta4 2.092578 1_655
N0 Ta0 2.227805 1_655
N1 Ta3 2.048828 1_555
N1 Ta5 2.092578 1_565
N1 Ta4 2.092578 1_555
N1 Ta1 2.227805 1_455
N2 Ta0 2.028200 1_654
N2 Ta2 2.108206 1_555
N3 Ta1 2.028200 1_456
N3 Ta3 2.108206 1_555
N4 Ta0 2.033079 1_554
N4 Ta4 2.063442 1_555
N4 Ta2 2.302408 1_555
N5 Ta1 2.033079 1_556
N5 Ta5 2.063442 1_665
N5 Ta3 2.302408 1_555
N6 Ta1 2.033079 1_556
N6 Ta4 2.063442 1_655
N6 Ta3 2.302408 1_555
N7 Ta0 2.033079 1_554
N7 Ta5 2.063442 1_555
N7 Ta2 2.302408 1_555
N8 Ta4 2.047682 1_555
N8 Ta2 2.158706 1_555
N8 Ta0 2.323374 1_555
N8 Ta3 2.705780 1_555
N9 Ta5 2.047682 1_665
N9 Ta3 2.158706 1_555
N9 Ta1 2.323374 1_555
N9 Ta2 2.705780 1_565
N10 Ta4 2.047682 1_655
N10 Ta3 2.158706 1_555
N10 Ta1 2.323374 1_555
N10 Ta2 2.705780 1_555
N11 Ta5 2.047682 1_555
N11 Ta2 2.158706 1_555
N11 Ta0 2.323374 1_555
N11 Ta3 2.705780 1_545
