# generated using pymatgen
data_Mg3Sn
_symmetry_space_group_name_H-M   'P 1'
_cell_length_a   6.65373118
_cell_length_b   6.65373118
_cell_length_c   19.97709000
_cell_angle_alpha   90.00000000
_cell_angle_beta   90.00000000
_cell_angle_gamma   119.99999189
_symmetry_Int_Tables_number   1
_chemical_formula_structural   Mg3Sn
_chemical_formula_sum   'Mg24 Sn8'
_cell_volume   765.93761035
_cell_formula_units_Z   8
loop_
 _symmetry_equiv_pos_site_id
 _symmetry_equiv_pos_as_xyz
  1  'x, y, z'
loop_
 _atom_site_type_symbol
 _atom_site_label
 _atom_site_symmetry_multiplicity
 _atom_site_fract_x
 _atom_site_fract_y
 _atom_site_fract_z
 _atom_site_occupancy
  Mg  Mg0_0  1  0.33333350  0.16666650  0.00000000  1
  Mg  Mg0_1  1  0.33333350  0.16666650  0.50000000  1
  Mg  Mg0_2  1  0.33333350  0.66666650  0.00000000  1
  Mg  Mg0_3  1  0.33333350  0.66666650  0.50000000  1
  Mg  Mg0_4  1  0.83333350  0.16666650  0.00000000  1
  Mg  Mg0_5  1  0.83333350  0.16666650  0.50000000  1
  Mg  Mg0_6  1  0.83333350  0.66666650  0.00000000  1
  Mg  Mg0_7  1  0.83333350  0.66666650  0.50000000  1
  Mg  Mg1_0  1  0.00000000  0.00000000  0.37550900  1
  Mg  Mg1_1  1  0.00000000  0.00000000  0.87550900  1
  Mg  Mg1_2  1  0.00000000  0.50000000  0.37550900  1
  Mg  Mg1_3  1  0.00000000  0.50000000  0.87550900  1
  Mg  Mg1_4  1  0.50000000  0.00000000  0.37550900  1
  Mg  Mg1_5  1  0.50000000  0.00000000  0.87550900  1
  Mg  Mg1_6  1  0.50000000  0.50000000  0.37550900  1
  Mg  Mg1_7  1  0.50000000  0.50000000  0.87550900  1
  Mg  Mg2_0  1  0.00000000  0.00000000  0.12449100  1
  Mg  Mg2_1  1  0.00000000  0.00000000  0.62449100  1
  Mg  Mg2_2  1  0.00000000  0.50000000  0.12449100  1
  Mg  Mg2_3  1  0.00000000  0.50000000  0.62449100  1
  Mg  Mg2_4  1  0.50000000  0.00000000  0.12449100  1
  Mg  Mg2_5  1  0.50000000  0.00000000  0.62449100  1
  Mg  Mg2_6  1  0.50000000  0.50000000  0.12449100  1
  Mg  Mg2_7  1  0.50000000  0.50000000  0.62449100  1
  Sn  Sn0_0  1  0.33333350  0.16666650  0.25000000  1
  Sn  Sn0_1  1  0.33333350  0.16666650  0.75000000  1
  Sn  Sn0_2  1  0.33333350  0.66666650  0.25000000  1
  Sn  Sn0_3  1  0.33333350  0.66666650  0.75000000  1
  Sn  Sn0_4  1  0.83333350  0.16666650  0.25000000  1
  Sn  Sn0_5  1  0.83333350  0.16666650  0.75000000  1
  Sn  Sn0_6  1  0.83333350  0.66666650  0.25000000  1
  Sn  Sn0_7  1  0.83333350  0.66666650  0.75000000  1
loop_
_geom_bond_atom_site_label_1
_geom_bond_atom_site_label_2
_geom_bond_distance
_geom_bond_site_symmetry_2
Mg0_0 Mg2_4 3.142347 1_555
Mg0_0 Mg1_5 3.142347 1_554
Mg0_0 Mg2_6 3.142349 1_555
Mg0_0 Mg2_0 3.142349 1_555
Mg0_0 Mg1_7 3.142349 1_554
Mg0_0 Mg1_1 3.142349 1_554
Mg0_0 Mg0_2 3.326866 1_555
Mg0_0 Mg0_4 3.326866 1_455
Mg0_0 Mg0_2 3.326866 1_545
Mg0_0 Mg0_4 3.326866 1_555
Mg0_0 Mg0_6 3.326866 1_445
Mg0_0 Mg0_6 3.326866 1_555
Mg0_1 Mg2_5 3.142347 1_555
Mg0_1 Mg1_4 3.142347 1_555
Mg0_1 Mg2_7 3.142349 1_555
Mg0_1 Mg2_1 3.142349 1_555
Mg0_1 Mg1_6 3.142349 1_555
Mg0_1 Mg1_0 3.142349 1_555
Mg0_1 Mg0_3 3.326866 1_555
Mg0_1 Mg0_5 3.326866 1_455
Mg0_1 Mg0_5 3.326866 1_555
Mg0_1 Mg0_3 3.326866 1_545
Mg0_1 Mg0_7 3.326866 1_445
Mg0_1 Mg0_7 3.326866 1_555
Mg0_2 Mg2_6 3.142347 1_555
Mg0_2 Mg1_7 3.142347 1_554
Mg0_2 Mg2_2 3.142349 1_555
Mg0_2 Mg2_4 3.142349 1_565
Mg0_2 Mg1_3 3.142349 1_554
Mg0_2 Mg1_5 3.142349 1_564
Mg0_2 Mg0_6 3.326866 1_455
Mg0_2 Mg0_6 3.326866 1_555
Mg0_2 Mg0_4 3.326866 1_455
Mg0_2 Mg0_4 3.326866 1_565
Mg0_3 Mg2_7 3.142347 1_555
Mg0_3 Mg1_6 3.142347 1_555
Mg0_3 Mg2_3 3.142349 1_555
Mg0_3 Mg2_5 3.142349 1_565
Mg0_3 Mg1_2 3.142349 1_555
Mg0_3 Mg1_4 3.142349 1_565
Mg0_3 Mg0_7 3.326866 1_455
Mg0_3 Mg0_7 3.326866 1_555
Mg0_3 Mg0_5 3.326866 1_455
Mg0_3 Mg0_5 3.326866 1_565
Mg0_4 Mg2_0 3.142347 1_655
Mg0_4 Mg1_1 3.142347 1_654
Mg0_4 Mg2_2 3.142349 1_655
Mg0_4 Mg2_4 3.142349 1_555
Mg0_4 Mg1_5 3.142349 1_554
Mg0_4 Mg1_3 3.142349 1_654
Mg0_4 Mg0_6 3.326866 1_545
Mg0_4 Mg0_6 3.326866 1_555
Mg0_5 Mg2_1 3.142347 1_655
Mg0_5 Mg1_0 3.142347 1_655
Mg0_5 Mg2_3 3.142349 1_655
Mg0_5 Mg2_5 3.142349 1_555
Mg0_5 Mg1_2 3.142349 1_655
Mg0_5 Mg1_4 3.142349 1_555
Mg0_5 Mg0_7 3.326866 1_545
Mg0_5 Mg0_7 3.326866 1_555
Mg0_6 Mg2_2 3.142347 1_655
Mg0_6 Mg1_3 3.142347 1_654
Mg0_6 Mg2_0 3.142349 1_665
Mg0_6 Mg2_6 3.142349 1_555
Mg0_6 Mg1_1 3.142349 1_664
Mg0_6 Mg1_7 3.142349 1_554
Mg0_7 Mg2_3 3.142347 1_655
Mg0_7 Mg1_2 3.142347 1_655
Mg0_7 Mg2_1 3.142349 1_665
Mg0_7 Mg2_7 3.142349 1_555
Mg0_7 Mg1_0 3.142349 1_665
Mg0_7 Mg1_6 3.142349 1_555
Mg1_0 Sn0_4 3.158467 1_455
Mg1_0 Sn0_6 3.158469 1_445
Mg1_0 Sn0_0 3.158469 1_555
Mg1_1 Sn0_5 3.158467 1_455
Mg1_1 Sn0_7 3.158469 1_445
Mg1_1 Sn0_1 3.158469 1_555
Mg1_2 Sn0_6 3.158467 1_455
Mg1_2 Sn0_2 3.158469 1_555
Mg1_2 Sn0_4 3.158469 1_455
Mg1_3 Sn0_7 3.158467 1_455
Mg1_3 Sn0_5 3.158469 1_455
Mg1_3 Sn0_3 3.158469 1_555
Mg1_4 Sn0_0 3.158467 1_555
Mg1_4 Sn0_2 3.158469 1_545
Mg1_4 Sn0_4 3.158469 1_555
Mg1_5 Sn0_1 3.158467 1_555
Mg1_5 Sn0_3 3.158469 1_545
Mg1_5 Sn0_5 3.158469 1_555
Mg1_6 Sn0_2 3.158467 1_555
Mg1_6 Sn0_0 3.158469 1_555
Mg1_6 Sn0_6 3.158469 1_555
Mg1_7 Sn0_3 3.158467 1_555
Mg1_7 Sn0_1 3.158469 1_555
Mg1_7 Sn0_7 3.158469 1_555
Mg2_0 Sn0_4 3.158467 1_455
Mg2_0 Sn0_6 3.158469 1_445
Mg2_0 Sn0_0 3.158469 1_555
Mg2_1 Sn0_5 3.158467 1_455
Mg2_1 Sn0_7 3.158469 1_445
Mg2_1 Sn0_1 3.158469 1_555
Mg2_2 Sn0_6 3.158467 1_455
Mg2_2 Sn0_2 3.158469 1_555
Mg2_2 Sn0_4 3.158469 1_455
Mg2_3 Sn0_7 3.158467 1_455
Mg2_3 Sn0_5 3.158469 1_455
Mg2_3 Sn0_3 3.158469 1_555
Mg2_4 Sn0_0 3.158467 1_555
Mg2_4 Sn0_4 3.158469 1_555
Mg2_4 Sn0_2 3.158469 1_545
Mg2_5 Sn0_1 3.158467 1_555
Mg2_5 Sn0_3 3.158469 1_545
Mg2_5 Sn0_5 3.158469 1_555
Mg2_6 Sn0_2 3.158467 1_555
Mg2_6 Sn0_0 3.158469 1_555
Mg2_6 Sn0_6 3.158469 1_555
Mg2_7 Sn0_3 3.158467 1_555
Mg2_7 Sn0_1 3.158469 1_555
Mg2_7 Sn0_7 3.158469 1_555
