# generated using pymatgen
data_Na2ScCuCl6
_symmetry_space_group_name_H-M   'P 1'
_cell_length_a   7.04910366
_cell_length_b   7.04910366
_cell_length_c   7.04910366
_cell_angle_alpha   60.00000000
_cell_angle_beta   60.00000000
_cell_angle_gamma   60.00000000
_symmetry_Int_Tables_number   1
_chemical_formula_structural   Na2ScCuCl6
_chemical_formula_sum   'Na2 Sc1 Cu1 Cl6'
_cell_volume   247.67757887
_cell_formula_units_Z   1
loop_
 _symmetry_equiv_pos_site_id
 _symmetry_equiv_pos_as_xyz
  1  'x, y, z'
loop_
 _atom_site_type_symbol
 _atom_site_label
 _atom_site_symmetry_multiplicity
 _atom_site_fract_x
 _atom_site_fract_y
 _atom_site_fract_z
 _atom_site_occupancy
  Na  Na0  1  0.75000000  0.75000000  0.75000000  1
  Na  Na1  1  0.25000000  0.25000000  0.25000000  1
  Sc  Sc0  1  0.00000000  0.00000000  0.00000000  1
  Cu  Cu0  1  0.50000000  0.50000000  0.50000000  1
  Cl  Cl0  1  0.75047100  0.24952900  0.24952900  1
  Cl  Cl1  1  0.24952900  0.24952900  0.75047100  1
  Cl  Cl2  1  0.24952900  0.75047000  0.75047000  1
  Cl  Cl3  1  0.24952900  0.75047100  0.24952900  1
  Cl  Cl4  1  0.75047100  0.24952900  0.75047000  1
  Cl  Cl5  1  0.75047100  0.75047100  0.24952900  1
loop_
_geom_bond_atom_site_label_1
_geom_bond_atom_site_label_2
_geom_bond_distance
_geom_bond_site_symmetry_2
Cl0 Sc0 2.487539 1_655
Cl0 Cu0 2.496930 1_555
Cl1 Sc0 2.487539 1_556
Cl1 Cu0 2.496930 1_555
Cl2 Sc0 2.487549 1_566
Cl2 Cu0 2.496920 1_555
Cl3 Sc0 2.487539 1_565
Cl3 Cu0 2.496930 1_555
Cl4 Sc0 2.487544 1_656
Cl4 Cu0 2.496925 1_555
Cl5 Sc0 2.487539 1_665
Cl5 Cu0 2.496930 1_555
