# generated using pymatgen
data_Yb5S9
_symmetry_space_group_name_H-M   'P 1'
_cell_length_a   10.71903216
_cell_length_b   10.71903216
_cell_length_c   12.11269542
_cell_angle_alpha   77.40165826
_cell_angle_beta   77.40165826
_cell_angle_gamma   30.20361853
_symmetry_Int_Tables_number   1
_chemical_formula_structural   Yb5S9
_chemical_formula_sum   'Yb10 S18'
_cell_volume   682.03797176
_cell_formula_units_Z   2
loop_
 _symmetry_equiv_pos_site_id
 _symmetry_equiv_pos_as_xyz
  1  'x, y, z'
loop_
 _atom_site_type_symbol
 _atom_site_label
 _atom_site_symmetry_multiplicity
 _atom_site_fract_x
 _atom_site_fract_y
 _atom_site_fract_z
 _atom_site_occupancy
  Yb  Yb0  1  0.57687500  0.61937700  0.96633000  1
  Yb  Yb1  1  0.17601700  0.22306700  0.76371400  1
  Yb  Yb2  1  0.97964300  0.02011100  0.16595900  1
  Yb  Yb3  1  0.77162100  0.82806700  0.56583400  1
  Yb  Yb4  1  0.37620600  0.42038200  0.36599700  1
  Yb  Yb5  1  0.97988900  0.02035700  0.83404100  1
  Yb  Yb6  1  0.57961800  0.62379400  0.63400300  1
  Yb  Yb7  1  0.38062300  0.42312500  0.03367000  1
  Yb  Yb8  1  0.17193300  0.22837900  0.43416600  1
  Yb  Yb9  1  0.77693300  0.82398300  0.23628600  1
  S  S0  1  0.65837300  0.34162700  0.50000000  1
  S  S1  1  0.23636100  0.97247800  0.29157000  1
  S  S2  1  0.02752200  0.76363900  0.70843000  1
  S  S3  1  0.69516600  0.69126900  0.11368000  1
  S  S4  1  0.30873100  0.30483400  0.88632000  1
  S  S5  1  0.98363000  0.66784600  0.84897500  1
  S  S6  1  0.31064900  0.68935100  0.50000000  1
  S  S7  1  0.33215400  0.01637000  0.15102500  1
  S  S8  1  0.87942900  0.92149600  0.03441900  1
  S  S9  1  0.08001000  0.12368800  0.63728300  1
  S  S10  1  0.27736300  0.32291300  0.23274400  1
  S  S11  1  0.48538400  0.52260300  0.83689000  1
  S  S12  1  0.67654700  0.72997600  0.43793300  1
  S  S13  1  0.47739700  0.51461600  0.16311000  1
  S  S14  1  0.67708700  0.72263700  0.76725600  1
  S  S15  1  0.87631200  0.91999000  0.36271700  1
  S  S16  1  0.07850400  0.12057100  0.96558100  1
  S  S17  1  0.27002400  0.32345300  0.56206700  1
loop_
_geom_bond_atom_site_label_1
_geom_bond_atom_site_label_2
_geom_bond_distance
_geom_bond_site_symmetry_2
S0 S6 1.942166 1_555
S0 Yb6 3.102534 1_555
S0 Yb4 3.102534 1_555
S1 S7 1.974049 1_565
S1 Yb2 3.034279 1_465
S1 Yb8 3.042437 1_565
S2 S5 1.974049 1_455
S2 Yb5 3.034279 1_465
S2 Yb3 3.042437 1_455
S3 S7 1.992791 1_565
S3 Yb9 2.939710 1_555
S3 Yb0 2.943338 1_554
S4 S5 1.992791 1_455
S4 Yb1 2.939710 1_555
S4 Yb7 2.943338 1_556
S6 Yb6 3.079375 1_555
S6 Yb4 3.079375 1_555
S8 Yb7 2.791614 1_655
S8 Yb7 2.794044 1_565
S8 Yb5 2.807794 1_564
S8 Yb9 2.824271 1_555
S8 Yb2 2.872957 1_565
S9 Yb6 2.791586 1_545
S9 Yb6 2.794367 1_455
S9 Yb1 2.798755 1_555
S9 Yb5 2.801048 1_455
S9 Yb8 2.816477 1_555
S10 Yb9 2.788855 1_545
S10 Yb9 2.797232 1_455
S10 Yb7 2.820341 1_555
S10 Yb8 2.820378 1_555
S10 Yb4 2.866044 1_555
S11 Yb0 2.763082 1_555
S11 Yb5 2.785200 1_555
S11 Yb5 2.803337 1_465
S11 Yb7 2.805818 1_556
S11 Yb6 2.807890 1_555
S12 Yb8 2.785611 1_655
S12 Yb9 2.791598 1_555
S12 Yb3 2.792064 1_555
S12 Yb6 2.793505 1_555
S12 Yb8 2.802454 1_565
S13 Yb7 2.763082 1_555
S13 Yb2 2.785200 1_555
S13 Yb2 2.803337 1_465
S13 Yb0 2.805818 1_554
S13 Yb4 2.807890 1_555
S14 Yb1 2.788855 1_655
S14 Yb1 2.797232 1_565
S14 Yb0 2.820341 1_555
S14 Yb3 2.820378 1_555
S14 Yb6 2.866044 1_555
S15 Yb4 2.791586 1_655
S15 Yb4 2.794367 1_565
S15 Yb9 2.798755 1_555
S15 Yb2 2.801048 1_565
S15 Yb3 2.816477 1_555
S16 Yb0 2.791614 1_545
S16 Yb0 2.794044 1_455
S16 Yb2 2.807794 1_456
S16 Yb1 2.824271 1_555
S16 Yb5 2.872957 1_455
S17 Yb3 2.785611 1_545
S17 Yb1 2.791598 1_555
S17 Yb8 2.792064 1_555
S17 Yb4 2.793505 1_555
S17 Yb3 2.802454 1_455
