# generated using pymatgen
data_RbMn6O12
_symmetry_space_group_name_H-M   'P 1'
_cell_length_a   8.62066026
_cell_length_b   10.01251131
_cell_length_c   8.21380618
_cell_angle_alpha   67.73537745
_cell_angle_beta   58.34251816
_cell_angle_gamma   44.15316599
_symmetry_Int_Tables_number   1
_chemical_formula_structural   RbMn6O12
_chemical_formula_sum   'Rb2 Mn12 O24'
_cell_volume   420.36542926
_cell_formula_units_Z   2
loop_
 _symmetry_equiv_pos_site_id
 _symmetry_equiv_pos_as_xyz
  1  'x, y, z'
loop_
 _atom_site_type_symbol
 _atom_site_label
 _atom_site_symmetry_multiplicity
 _atom_site_fract_x
 _atom_site_fract_y
 _atom_site_fract_z
 _atom_site_occupancy
  Rb  Rb0  1  0.20416343  0.99949636  0.99982209  1
  Rb  Rb1  1  0.79892642  0.00061853  0.00024853  1
  Mn  Mn0  1  0.00477591  0.48584243  0.18298828  1
  Mn  Mn1  1  0.25847294  0.18287549  0.51445809  1
  Mn  Mn2  1  0.33687426  0.48810924  0.18255482  1
  Mn  Mn3  1  0.07769719  0.81716995  0.48555183  1
  Mn  Mn4  1  0.59205713  0.18299854  0.51421299  1
  Mn  Mn5  1  0.33146431  0.51324691  0.81731946  1
  Mn  Mn6  1  0.67171480  0.48685835  0.18278277  1
  Mn  Mn7  1  0.41128912  0.81698895  0.48582887  1
  Mn  Mn8  1  0.92561179  0.18280646  0.51458648  1
  Mn  Mn9  1  0.66647049  0.51190295  0.81744804  1
  Mn  Mn10  1  0.74504152  0.81700625  0.48541168  1
  Mn  Mn11  1  0.99854868  0.51399356  0.81711734  1
  O  O0  1  0.00891834  0.36134837  0.05102422  1
  O  O1  1  0.13948632  0.04894874  0.64233600  1
  O  O2  1  0.06434131  0.29673525  0.38034919  1
  O  O3  1  0.00016873  0.62673986  0.29056813  1
  O  O4  1  0.34124231  0.36242589  0.05046437  1
  O  O5  1  0.47677255  0.04829990  0.63758709  1
  O  O6  1  0.40016306  0.29495390  0.37666285  1
  O  O7  1  0.33486296  0.37707766  0.70551881  1
  O  O8  1  0.33518198  0.62600753  0.29107173  1
  O  O9  1  0.67678977  0.35854874  0.05083668  1
  O  O10  1  0.26723971  0.70640102  0.62377873  1
  O  O11  1  0.19468326  0.95182574  0.36219474  1
  O  O12  1  0.80842480  0.04824133  0.63789903  1
  O  O13  1  0.73578045  0.29382914  0.37646120  1
  O  O14  1  0.32658804  0.64151994  0.94918951  1
  O  O15  1  0.66807593  0.37411289  0.70892420  1
  O  O16  1  0.66845243  0.62292016  0.29452708  1
  O  O17  1  0.60330458  0.70493762  0.62317873  1
  O  O18  1  0.52657509  0.95161482  0.36225771  1
  O  O19  1  0.66214808  0.63764985  0.94942246  1
  O  O20  1  0.00325339  0.37324793  0.70923214  1
  O  O21  1  0.93920414  0.70305048  0.61951141  1
  O  O22  1  0.86382951  0.95104768  0.35769118  1
  O  O23  1  0.99441026  0.63860061  0.94898551  1
loop_
_geom_bond_atom_site_label_1
_geom_bond_atom_site_label_2
_geom_bond_distance
_geom_bond_site_symmetry_2
Mn0 O16 1.893059 1_455
Mn0 O3 1.897356 1_555
Mn0 O2 1.905095 1_555
Mn0 O0 1.910303 1_555
Mn0 O4 1.920144 1_555
Mn0 O23 1.948877 1_454
Mn1 O2 1.886675 1_555
Mn1 O6 1.893566 1_555
Mn1 O20 1.905674 1_555
Mn1 O5 1.925210 1_555
Mn1 O1 1.931074 1_555
Mn1 O18 1.935816 1_545
Mn2 O3 1.894105 1_555
Mn2 O8 1.895011 1_555
Mn2 O6 1.908492 1_555
Mn2 O4 1.919863 1_555
Mn2 O9 1.928990 1_555
Mn2 O14 1.947642 1_554
Mn3 O21 1.888806 1_455
Mn3 O10 1.892539 1_555
Mn3 O8 1.908065 1_555
Mn3 O11 1.924784 1_555
Mn3 O22 1.928297 1_455
Mn3 O12 1.935276 1_465
Mn4 O13 1.896495 1_555
Mn4 O6 1.900214 1_555
Mn4 O7 1.906680 1_555
Mn4 O5 1.914179 1_555
Mn4 O12 1.915920 1_555
Mn4 O22 1.956665 1_545
Mn5 O7 1.888433 1_555
Mn5 O15 1.892367 1_555
Mn5 O10 1.905671 1_555
Mn5 O23 1.919514 1_455
Mn5 O4 1.936539 1_556
Mn5 O14 1.937370 1_555
Mn6 O16 1.888012 1_555
Mn6 O8 1.891872 1_555
Mn6 O13 1.905740 1_555
Mn6 O0 1.920149 1_655
Mn6 O9 1.936903 1_555
Mn6 O19 1.937690 1_554
Mn7 O10 1.896673 1_555
Mn7 O17 1.899397 1_555
Mn7 O16 1.906609 1_555
Mn7 O18 1.913534 1_555
Mn7 O11 1.916967 1_555
Mn7 O1 1.956659 1_565
Mn8 O2 1.888808 1_655
Mn8 O13 1.893071 1_555
Mn8 O15 1.908058 1_555
Mn8 O12 1.925293 1_555
Mn8 O1 1.927665 1_655
Mn8 O11 1.934918 1_645
Mn9 O20 1.894470 1_655
Mn9 O15 1.894647 1_555
Mn9 O17 1.908698 1_555
Mn9 O19 1.919936 1_555
Mn9 O14 1.928667 1_555
Mn9 O9 1.947560 1_556
Mn10 O21 1.886572 1_555
Mn10 O17 1.893782 1_555
Mn10 O3 1.905507 1_655
Mn10 O18 1.926383 1_555
Mn10 O22 1.930796 1_555
Mn10 O5 1.935907 1_565
Mn11 O7 1.893286 1_655
Mn11 O20 1.897193 1_655
Mn11 O21 1.906088 1_555
Mn11 O23 1.910662 1_555
Mn11 O19 1.919145 1_555
Mn11 O0 1.947887 1_656
O0 Rb0 2.792378 1_544
O1 Rb1 3.065436 1_456
O1 Rb0 3.065723 1_545
O4 Rb1 2.788297 1_555
O5 Rb0 2.796553 1_545
O9 Rb1 3.062565 1_555
O9 Rb0 3.075293 1_644
O11 Rb0 2.796051 1_554
O12 Rb1 2.795901 1_556
O14 Rb0 3.061754 1_555
O14 Rb1 3.076705 1_466
O18 Rb1 2.795367 1_565
O19 Rb0 2.789326 1_555
O22 Rb0 3.064760 1_654
O22 Rb1 3.066084 1_565
O23 Rb1 2.793234 1_566
