# generated using pymatgen
data_LiGaO2
_symmetry_space_group_name_H-M   'P 1'
_cell_length_a   3.00246900
_cell_length_b   3.00246900
_cell_length_c   3.86116200
_cell_angle_alpha   90.00000000
_cell_angle_beta   90.00000000
_cell_angle_gamma   90.00000000
_symmetry_Int_Tables_number   1
_chemical_formula_structural   LiGaO2
_chemical_formula_sum   'Li1 Ga1 O2'
_cell_volume   34.80768079
_cell_formula_units_Z   1
loop_
 _symmetry_equiv_pos_site_id
 _symmetry_equiv_pos_as_xyz
  1  'x, y, z'
loop_
 _atom_site_type_symbol
 _atom_site_label
 _atom_site_symmetry_multiplicity
 _atom_site_fract_x
 _atom_site_fract_y
 _atom_site_fract_z
 _atom_site_occupancy
  Li  Li0  1  0.50000000  0.50000000  0.00000000  1
  Ga  Ga0  1  0.00000000  0.00000000  0.50000000  1
  O  O0  1  0.00000000  0.00000000  0.00000000  1
  O  O1  1  0.50000000  0.50000000  0.50000000  1
loop_
_geom_bond_atom_site_label_1
_geom_bond_atom_site_label_2
_geom_bond_distance
_geom_bond_site_symmetry_2
Li0 O1 1.930581 1_555
Li0 O1 1.930581 1_554
Li0 O0 2.123066 1_555
Li0 O0 2.123066 1_565
Li0 O0 2.123066 1_655
Li0 O0 2.123066 1_665
Ga0 O0 1.930581 1_556
Ga0 O0 1.930581 1_555
Ga0 O1 2.123066 1_545
Ga0 O1 2.123066 1_445
Ga0 O1 2.123066 1_455
Ga0 O1 2.123066 1_555
