# generated using pymatgen
data_Ca3NdMn2O8
_symmetry_space_group_name_H-M   'P 1'
_cell_length_a   3.85801500
_cell_length_b   3.85801500
_cell_length_c   11.88157200
_cell_angle_alpha   90.00000000
_cell_angle_beta   90.00000000
_cell_angle_gamma   90.00000000
_symmetry_Int_Tables_number   1
_chemical_formula_structural   Ca3NdMn2O8
_chemical_formula_sum   'Ca3 Nd1 Mn2 O8'
_cell_volume   176.84864140
_cell_formula_units_Z   1
loop_
 _symmetry_equiv_pos_site_id
 _symmetry_equiv_pos_as_xyz
  1  'x, y, z'
loop_
 _atom_site_type_symbol
 _atom_site_label
 _atom_site_symmetry_multiplicity
 _atom_site_fract_x
 _atom_site_fract_y
 _atom_site_fract_z
 _atom_site_occupancy
  Ca  Ca0  1  0.50000000  0.50000000  0.85889100  1
  Ca  Ca1  1  0.50000000  0.50000000  0.13490200  1
  Ca  Ca2  1  0.00000000  0.00000000  0.65011000  1
  Nd  Nd0  1  0.00000000  0.00000000  0.35732500  1
  Mn  Mn0  1  0.00000000  0.00000000  0.99788000  1
  Mn  Mn1  1  0.50000000  0.50000000  0.50555300  1
  O  O0  1  0.00000000  0.50000000  0.00126200  1
  O  O1  1  0.50000000  0.00000000  0.49547600  1
  O  O2  1  0.50000000  0.00000000  0.00126200  1
  O  O3  1  0.00000000  0.50000000  0.49547600  1
  O  O4  1  0.50000000  0.50000000  0.33247700  1
  O  O5  1  0.00000000  0.00000000  0.83463600  1
  O  O6  1  0.00000000  0.00000000  0.16830400  1
  O  O7  1  0.50000000  0.50000000  0.66644600  1
loop_
_geom_bond_atom_site_label_1
_geom_bond_atom_site_label_2
_geom_bond_distance
_geom_bond_site_symmetry_2
Ca0 O7 2.286549 1_555
Ca0 O0 2.565648 1_556
Ca0 O2 2.565648 1_566
Ca0 O0 2.565648 1_656
Ca0 O2 2.565648 1_556
Ca0 O5 2.743208 1_665
Ca0 O5 2.743208 1_555
Ca0 O5 2.743208 1_565
Ca0 O5 2.743208 1_655
Ca1 O4 2.347502 1_555
Ca1 O2 2.498469 1_565
Ca1 O0 2.498469 1_655
Ca1 O0 2.498469 1_555
Ca1 O2 2.498469 1_555
Ca1 O6 2.756745 1_555
Ca1 O6 2.756745 1_655
Ca1 O6 2.756745 1_565
Ca1 O6 2.756745 1_665
Ca2 O5 2.192459 1_555
Ca2 O1 2.663968 1_555
Ca2 O1 2.663968 1_455
Ca2 O3 2.663968 1_545
Ca2 O3 2.663968 1_555
Ca2 O7 2.734925 1_445
Ca2 O7 2.734925 1_545
Ca2 O7 2.734925 1_455
Ca2 O7 2.734925 1_555
Nd0 O6 2.245867 1_555
Nd0 O3 2.532870 1_545
Nd0 O3 2.532870 1_555
Nd0 O1 2.532870 1_555
Nd0 O1 2.532870 1_455
Nd0 O4 2.743957 1_455
Nd0 O4 2.743957 1_555
Nd0 O4 2.743957 1_545
Nd0 O4 2.743957 1_445
Mn0 O2 1.929426 1_456
Mn0 O0 1.929426 1_546
Mn0 O2 1.929426 1_556
Mn0 O0 1.929426 1_556
Mn0 O5 1.939595 1_555
Mn0 O6 2.024905 1_556
Mn1 O7 1.911662 1_555
Mn1 O3 1.932720 1_555
Mn1 O3 1.932720 1_655
Mn1 O1 1.932720 1_555
Mn1 O1 1.932720 1_565
Mn1 O4 2.056415 1_555
