# generated using pymatgen
data_Cs4GeTe6
_symmetry_space_group_name_H-M   'P 1'
_cell_length_a   8.09434431
_cell_length_b   14.36632620
_cell_length_c   18.10775324
_cell_angle_alpha   90.00000000
_cell_angle_beta   101.44709497
_cell_angle_gamma   90.00000000
_symmetry_Int_Tables_number   1
_chemical_formula_structural   Cs4GeTe6
_chemical_formula_sum   'Cs16 Ge4 Te24'
_cell_volume   2063.79267248
_cell_formula_units_Z   4
loop_
 _symmetry_equiv_pos_site_id
 _symmetry_equiv_pos_as_xyz
  1  'x, y, z'
loop_
 _atom_site_type_symbol
 _atom_site_label
 _atom_site_symmetry_multiplicity
 _atom_site_fract_x
 _atom_site_fract_y
 _atom_site_fract_z
 _atom_site_occupancy
  Cs  Cs0  1  0.95766263  0.05951557  0.79990090  1
  Cs  Cs1  1  0.45766263  0.44048443  0.29990090  1
  Cs  Cs2  1  0.04233737  0.94048443  0.20009910  1
  Cs  Cs3  1  0.54233737  0.55951557  0.70009910  1
  Cs  Cs4  1  0.19414838  0.39385754  0.50269016  1
  Cs  Cs5  1  0.69414838  0.10614246  0.00269016  1
  Cs  Cs6  1  0.80585162  0.60614246  0.49730984  1
  Cs  Cs7  1  0.30585162  0.89385754  0.99730984  1
  Cs  Cs8  1  0.51310070  0.09005879  0.60003837  1
  Cs  Cs9  1  0.01310070  0.40994121  0.10003837  1
  Cs  Cs10  1  0.48689930  0.90994121  0.39996163  1
  Cs  Cs11  1  0.98689930  0.59005879  0.89996163  1
  Cs  Cs12  1  0.35273843  0.32544383  0.87353816  1
  Cs  Cs13  1  0.85273843  0.17455617  0.37353816  1
  Cs  Cs14  1  0.64726157  0.67455617  0.12646184  1
  Cs  Cs15  1  0.14726157  0.82544383  0.62646184  1
  Ge  Ge0  1  0.89352425  0.35330860  0.65309851  1
  Ge  Ge1  1  0.39352425  0.14669140  0.15309851  1
  Ge  Ge2  1  0.10647575  0.64669140  0.34690149  1
  Ge  Ge3  1  0.60647575  0.85330860  0.84690149  1
  Te  Te0  1  0.44868790  0.00600706  0.80426224  1
  Te  Te1  1  0.94868790  0.49399294  0.30426224  1
  Te  Te2  1  0.55131210  0.99399294  0.19573776  1
  Te  Te3  1  0.05131210  0.50600706  0.69573776  1
  Te  Te4  1  0.68460154  0.34271383  0.52495016  1
  Te  Te5  1  0.18460154  0.15728617  0.02495016  1
  Te  Te6  1  0.31539846  0.65728617  0.47504984  1
  Te  Te7  1  0.81539846  0.84271383  0.97504984  1
  Te  Te8  1  0.68690146  0.29935264  0.74277767  1
  Te  Te9  1  0.18690146  0.20064736  0.24277767  1
  Te  Te10  1  0.31309854  0.70064736  0.25722233  1
  Te  Te11  1  0.81309854  0.79935264  0.75722233  1
  Te  Te12  1  0.14150964  0.22733371  0.66560921  1
  Te  Te13  1  0.64150964  0.27266629  0.16560921  1
  Te  Te14  1  0.85849036  0.77266629  0.33439079  1
  Te  Te15  1  0.35849036  0.72733371  0.83439079  1
  Te  Te16  1  0.88113240  0.29601155  0.88750687  1
  Te  Te17  1  0.38113240  0.20398845  0.38750687  1
  Te  Te18  1  0.11886760  0.70398845  0.11249313  1
  Te  Te19  1  0.61886760  0.79601155  0.61249313  1
  Te  Te20  1  0.00013356  0.07501142  0.57948842  1
  Te  Te21  1  0.50013356  0.42498858  0.07948842  1
  Te  Te22  1  0.99986644  0.92498858  0.42051158  1
  Te  Te23  1  0.49986644  0.57501142  0.92051158  1
loop_
_geom_bond_atom_site_label_1
_geom_bond_atom_site_label_2
_geom_bond_distance
_geom_bond_site_symmetry_2
Cs0 Te16 3.851470 1_555
Cs0 Te12 3.921315 1_655
Cs0 Te11 3.946783 1_545
Cs0 Te0 4.033541 1_655
Cs0 Te20 4.079439 1_655
Cs0 Te8 4.104312 1_555
Cs0 Te0 4.207042 1_555
Cs0 Te5 4.356909 1_656
Cs1 Te17 3.851470 1_555
Cs1 Te13 3.921315 1_555
Cs1 Te10 3.946783 1_555
Cs1 Te1 4.033541 1_555
Cs1 Te21 4.079439 1_555
Cs1 Te9 4.104312 1_555
Cs1 Te1 4.207042 1_455
Cs1 Te4 4.356909 1_555
Cs2 Te18 3.851470 1_555
Cs2 Te14 3.921315 1_455
Cs2 Te9 3.946783 1_565
Cs2 Te2 4.033541 1_455
Cs2 Te22 4.079439 1_455
Cs2 Te10 4.104312 1_555
Cs2 Te2 4.207042 1_555
Cs2 Te7 4.356909 1_454
Cs3 Te19 3.851470 1_555
Cs3 Te15 3.921315 1_555
Cs3 Te8 3.946783 1_555
Cs3 Te3 4.033541 1_555
Cs3 Te23 4.079439 1_555
Cs3 Te11 4.104312 1_555
Cs3 Te3 4.207042 1_655
Cs3 Te6 4.356909 1_555
Cs4 Te12 3.886748 1_555
Cs4 Te17 3.915912 1_555
Cs4 Te6 3.966252 1_555
Cs4 Te4 3.978348 1_555
Cs4 Te1 4.011694 1_455
Cs4 Ge0 4.038430 1_455
Cs4 Te3 4.213839 1_555
Cs4 Te4 4.286406 1_455
Cs5 Te13 3.886748 1_555
Cs5 Te16 3.915912 1_554
Cs5 Te7 3.966252 1_544
Cs5 Te5 3.978348 1_655
Cs5 Te0 4.011694 1_554
Cs5 Ge1 4.038430 1_555
Cs5 Te2 4.213839 1_545
Cs5 Te5 4.286406 1_555
Cs6 Te14 3.886748 1_555
Cs6 Te19 3.915912 1_555
Cs6 Te4 3.966252 1_555
Cs6 Te6 3.978348 1_555
Cs6 Te3 4.011694 1_655
Cs6 Ge2 4.038430 1_655
Cs6 Te1 4.213839 1_555
Cs6 Te6 4.286406 1_655
Cs7 Te15 3.886748 1_555
Cs7 Te18 3.915912 1_556
Cs7 Te5 3.966252 1_566
Cs7 Te7 3.978348 1_455
Cs7 Te2 4.011694 1_556
Cs7 Ge3 4.038430 1_555
Cs7 Te0 4.213839 1_565
Cs7 Te7 4.286406 1_555
Cs8 Te12 3.970315 1_555
Cs8 Te0 4.021281 1_555
Cs8 Te8 4.032019 1_555
Cs8 Te20 4.038379 1_655
Cs8 Te20 4.100260 1_555
Cs8 Te17 4.122981 1_555
Cs8 Te4 4.207123 1_555
Cs8 Te19 4.307265 1_545
Cs9 Te13 3.970315 1_455
Cs9 Te1 4.021281 1_455
Cs9 Te9 4.032019 1_555
Cs9 Te21 4.038379 1_555
Cs9 Te21 4.100260 1_455
Cs9 Te16 4.122981 1_454
Cs9 Te5 4.207123 1_555
Cs9 Te18 4.307265 1_555
Cs10 Te14 3.970315 1_555
Cs10 Te2 4.021281 1_555
Cs10 Te10 4.032019 1_555
Cs10 Te22 4.038379 1_455
Cs10 Te22 4.100260 1_555
Cs10 Te19 4.122981 1_555
Cs10 Te6 4.207123 1_555
Cs10 Te17 4.307265 1_565
Cs11 Te15 3.970315 1_655
Cs11 Te3 4.021281 1_655
Cs11 Te11 4.032019 1_555
Cs11 Te23 4.038379 1_555
Cs11 Te23 4.100260 1_655
Cs11 Te18 4.122981 1_656
Cs11 Te7 4.207123 1_555
Cs11 Te16 4.307265 1_555
Cs12 Te23 3.820281 1_555
Cs12 Te16 3.898477 1_455
Cs12 Te8 3.950326 1_555
Cs12 Te21 3.950972 1_556
Cs12 Te12 4.065820 1_555
Cs12 Te5 4.084912 1_556
Cs12 Te16 4.255128 1_555
Cs12 Te3 4.464247 1_555
Cs13 Te22 3.820281 1_545
Cs13 Te17 3.898477 1_555
Cs13 Te9 3.950326 1_655
Cs13 Te20 3.950972 1_655
Cs13 Te13 4.065820 1_555
Cs13 Te4 4.084912 1_555
Cs13 Te17 4.255128 1_655
Cs13 Te2 4.464247 1_545
Cs14 Te21 3.820281 1_555
Cs14 Te18 3.898477 1_655
Cs14 Te10 3.950326 1_555
Cs14 Te23 3.950972 1_554
Cs14 Te14 4.065820 1_555
Cs14 Te7 4.084912 1_554
Cs14 Te18 4.255128 1_555
Cs14 Te1 4.464247 1_555
Cs15 Te20 3.820281 1_565
Cs15 Te19 3.898477 1_555
Cs15 Te11 3.950326 1_455
Cs15 Te22 3.950972 1_455
Cs15 Te15 4.065820 1_555
Cs15 Te6 4.084912 1_555
Cs15 Te19 4.255128 1_455
Cs15 Te0 4.464247 1_565
Ge0 Te3 2.578435 1_655
Ge0 Te4 2.590364 1_555
Ge0 Te8 2.667032 1_555
Ge0 Te12 2.678686 1_655
Ge1 Te2 2.578435 1_545
Ge1 Te5 2.590364 1_555
Ge1 Te9 2.667032 1_555
Ge1 Te13 2.678686 1_555
Ge2 Te1 2.578435 1_455
Ge2 Te6 2.590364 1_555
Ge2 Te10 2.667032 1_555
Ge2 Te14 2.678686 1_455
Ge3 Te0 2.578435 1_565
Ge3 Te7 2.590364 1_555
Ge3 Te11 2.667032 1_555
Ge3 Te15 2.678686 1_555
Te10 Te18 2.776109 1_555
Te11 Te19 2.776109 1_555
Te12 Te20 2.796748 1_555
Te13 Te21 2.796748 1_555
Te14 Te22 2.796748 1_555
Te15 Te23 2.796748 1_555
Te16 Te8 2.776109 1_555
Te17 Te9 2.776109 1_555
