# generated using pymatgen
data_Sm2(CuSn)3
_symmetry_space_group_name_H-M   'P 1'
_cell_length_a   6.42309850
_cell_length_b   5.74737263
_cell_length_c   44.85954740
_cell_angle_alpha   90.17253678
_cell_angle_beta   89.73870739
_cell_angle_gamma   90.05020207
_symmetry_Int_Tables_number   1
_chemical_formula_structural   Sm2(CuSn)3
_chemical_formula_sum   'Sm16 Cu24 Sn24'
_cell_volume   1656.00703783
_cell_formula_units_Z   8
loop_
 _symmetry_equiv_pos_site_id
 _symmetry_equiv_pos_as_xyz
  1  'x, y, z'
loop_
 _atom_site_type_symbol
 _atom_site_label
 _atom_site_symmetry_multiplicity
 _atom_site_fract_x
 _atom_site_fract_y
 _atom_site_fract_z
 _atom_site_occupancy
  Sm  Sm0_0  1  0.25013250  0.24991800  0.37729100  1
  Sm  Sm0_1  1  0.25013250  0.24991800  0.87729100  1
  Sm  Sm0_2  1  0.25013250  0.74991800  0.37729100  1
  Sm  Sm0_3  1  0.25013250  0.74991800  0.87729100  1
  Sm  Sm0_4  1  0.75013250  0.24991800  0.37729100  1
  Sm  Sm0_5  1  0.75013250  0.24991800  0.87729100  1
  Sm  Sm0_6  1  0.75013250  0.74991800  0.37729100  1
  Sm  Sm0_7  1  0.75013250  0.74991800  0.87729100  1
  Sm  Sm1_0  1  0.24988350  0.25007150  0.12269700  1
  Sm  Sm1_1  1  0.24988350  0.25007150  0.62269700  1
  Sm  Sm1_2  1  0.24988350  0.75007150  0.12269700  1
  Sm  Sm1_3  1  0.24988350  0.75007150  0.62269700  1
  Sm  Sm1_4  1  0.74988350  0.25007150  0.12269700  1
  Sm  Sm1_5  1  0.74988350  0.25007150  0.62269700  1
  Sm  Sm1_6  1  0.74988350  0.75007150  0.12269700  1
  Sm  Sm1_7  1  0.74988350  0.75007150  0.62269700  1
  Cu  Cu0_0  1  0.24987950  0.25004050  0.05923100  1
  Cu  Cu0_1  1  0.24987950  0.25004050  0.55923100  1
  Cu  Cu0_2  1  0.24987950  0.75004050  0.05923100  1
  Cu  Cu0_3  1  0.24987950  0.75004050  0.55923100  1
  Cu  Cu0_4  1  0.74987950  0.25004050  0.05923100  1
  Cu  Cu0_5  1  0.74987950  0.25004050  0.55923100  1
  Cu  Cu0_6  1  0.74987950  0.75004050  0.05923100  1
  Cu  Cu0_7  1  0.74987950  0.75004050  0.55923100  1
  Cu  Cu1_0  1  0.25011900  0.24994750  0.44077000  1
  Cu  Cu1_1  1  0.25011900  0.24994750  0.94077000  1
  Cu  Cu1_2  1  0.25011900  0.74994750  0.44077000  1
  Cu  Cu1_3  1  0.25011900  0.74994750  0.94077000  1
  Cu  Cu1_4  1  0.75011900  0.24994750  0.44077000  1
  Cu  Cu1_5  1  0.75011900  0.24994750  0.94077000  1
  Cu  Cu1_6  1  0.75011900  0.74994750  0.44077000  1
  Cu  Cu1_7  1  0.75011900  0.74994750  0.94077000  1
  Cu  Cu2_0  1  0.24999650  0.24999500  0.25000400  1
  Cu  Cu2_1  1  0.24999650  0.24999500  0.75000400  1
  Cu  Cu2_2  1  0.24999650  0.74999500  0.25000400  1
  Cu  Cu2_3  1  0.24999650  0.74999500  0.75000400  1
  Cu  Cu2_4  1  0.74999650  0.24999500  0.25000400  1
  Cu  Cu2_5  1  0.74999650  0.24999500  0.75000400  1
  Cu  Cu2_6  1  0.74999650  0.74999500  0.25000400  1
  Cu  Cu2_7  1  0.74999650  0.74999500  0.75000400  1
  Sn  Sn0_0  1  0.25019150  0.24986950  0.19372000  1
  Sn  Sn0_1  1  0.25019150  0.24986950  0.69372000  1
  Sn  Sn0_2  1  0.25019150  0.74986950  0.19372000  1
  Sn  Sn0_3  1  0.25019150  0.74986950  0.69372000  1
  Sn  Sn0_4  1  0.75019150  0.24986950  0.19372000  1
  Sn  Sn0_5  1  0.75019150  0.24986950  0.69372000  1
  Sn  Sn0_6  1  0.75019150  0.74986950  0.19372000  1
  Sn  Sn0_7  1  0.75019150  0.74986950  0.69372000  1
  Sn  Sn1_0  1  0.24980600  0.25012850  0.30628550  1
  Sn  Sn1_1  1  0.24980600  0.25012850  0.80628550  1
  Sn  Sn1_2  1  0.24980600  0.75012850  0.30628550  1
  Sn  Sn1_3  1  0.24980600  0.75012850  0.80628550  1
  Sn  Sn1_4  1  0.74980600  0.25012850  0.30628550  1
  Sn  Sn1_5  1  0.74980600  0.25012850  0.80628550  1
  Sn  Sn1_6  1  0.74980600  0.75012850  0.30628550  1
  Sn  Sn1_7  1  0.74980600  0.75012850  0.80628550  1
  Sn  Sn2_0  1  0.24999200  0.25002900  0.00000100  1
  Sn  Sn2_1  1  0.24999200  0.25002900  0.50000100  1
  Sn  Sn2_2  1  0.24999200  0.75002900  0.00000100  1
  Sn  Sn2_3  1  0.24999200  0.75002900  0.50000100  1
  Sn  Sn2_4  1  0.74999200  0.25002900  0.00000100  1
  Sn  Sn2_5  1  0.74999200  0.25002900  0.50000100  1
  Sn  Sn2_6  1  0.74999200  0.75002900  0.00000100  1
  Sn  Sn2_7  1  0.74999200  0.75002900  0.50000100  1
loop_
_geom_bond_atom_site_label_1
_geom_bond_atom_site_label_2
_geom_bond_distance
_geom_bond_site_symmetry_2
Sm0_0 Sm0_2 2.873686 1_555
Sm0_0 Sm0_2 2.873686 1_545
Sm0_0 Sn1_0 3.185289 1_555
Sm0_0 Sm0_4 3.211549 1_555
Sm0_0 Sm0_4 3.211549 1_455
Sm0_1 Sm0_3 2.873686 1_545
Sm0_1 Sm0_3 2.873686 1_555
Sm0_1 Sn1_1 3.185289 1_555
Sm0_1 Sm0_5 3.211549 1_555
Sm0_1 Sm0_5 3.211549 1_455
Sm0_2 Sn1_2 3.185289 1_555
Sm0_2 Sm0_6 3.211549 1_455
Sm0_2 Sm0_6 3.211549 1_555
Sm0_3 Sn1_3 3.185289 1_555
Sm0_3 Sm0_7 3.211549 1_555
Sm0_3 Sm0_7 3.211549 1_455
Sm0_4 Sm0_6 2.873686 1_555
Sm0_4 Sm0_6 2.873686 1_545
Sm0_4 Sn1_4 3.185289 1_555
Sm0_5 Sm0_7 2.873686 1_545
Sm0_5 Sm0_7 2.873686 1_555
Sm0_5 Sn1_5 3.185289 1_555
Sm0_6 Sn1_6 3.185289 1_555
Sm0_7 Sn1_7 3.185289 1_555
Sm1_0 Sm1_2 2.873686 1_555
Sm1_0 Sm1_2 2.873686 1_545
Sm1_0 Sn0_0 3.186073 1_555
Sm1_0 Sm1_4 3.211549 1_555
Sm1_0 Sm1_4 3.211549 1_455
Sm1_1 Sm1_3 2.873686 1_545
Sm1_1 Sm1_3 2.873686 1_555
Sm1_1 Sn0_1 3.186073 1_555
Sm1_1 Sm1_5 3.211549 1_455
Sm1_1 Sm1_5 3.211549 1_555
Sm1_2 Sn0_2 3.186073 1_555
Sm1_2 Sm1_6 3.211549 1_455
Sm1_2 Sm1_6 3.211549 1_555
Sm1_3 Sn0_3 3.186073 1_555
Sm1_3 Sm1_7 3.211549 1_555
Sm1_3 Sm1_7 3.211549 1_455
Sm1_4 Sm1_6 2.873686 1_555
Sm1_4 Sm1_6 2.873686 1_545
Sm1_4 Sn0_4 3.186073 1_555
Sm1_5 Sm1_7 2.873686 1_555
Sm1_5 Sm1_7 2.873686 1_545
Sm1_5 Sn0_5 3.186073 1_555
Sm1_6 Sn0_6 3.186073 1_555
Sm1_7 Sn0_7 3.186073 1_555
Cu0_0 Sn2_0 2.657028 1_555
Cu0_0 Sm1_0 2.847056 1_555
Cu0_0 Cu0_2 2.873686 1_555
Cu0_0 Cu0_2 2.873686 1_545
Cu0_0 Cu0_4 3.211549 1_455
Cu0_0 Cu0_4 3.211549 1_555
Cu0_1 Sn2_1 2.657028 1_555
Cu0_1 Sm1_1 2.847056 1_555
Cu0_1 Cu0_3 2.873686 1_545
Cu0_1 Cu0_3 2.873686 1_555
Cu0_1 Cu0_5 3.211549 1_455
Cu0_1 Cu0_5 3.211549 1_555
Cu0_2 Sn2_2 2.657028 1_555
Cu0_2 Sm1_2 2.847056 1_555
Cu0_2 Cu0_6 3.211549 1_555
Cu0_2 Cu0_6 3.211549 1_455
Cu0_3 Sn2_3 2.657028 1_555
Cu0_3 Sm1_3 2.847056 1_555
Cu0_3 Cu0_7 3.211549 1_455
Cu0_3 Cu0_7 3.211549 1_555
Cu0_4 Sn2_4 2.657028 1_555
Cu0_4 Sm1_4 2.847056 1_555
Cu0_4 Cu0_6 2.873686 1_555
Cu0_4 Cu0_6 2.873686 1_545
Cu0_5 Sn2_5 2.657028 1_555
Cu0_5 Sm1_5 2.847056 1_555
Cu0_5 Cu0_7 2.873686 1_545
Cu0_5 Cu0_7 2.873686 1_555
Cu0_6 Sn2_6 2.657028 1_555
Cu0_6 Sm1_6 2.847056 1_555
Cu0_7 Sn2_7 2.657028 1_555
Cu0_7 Sm1_7 2.847056 1_555
Cu1_0 Sn2_1 2.657071 1_555
Cu1_0 Sm0_0 2.847638 1_555
Cu1_0 Cu1_2 2.873686 1_555
Cu1_0 Cu1_2 2.873686 1_545
Cu1_0 Cu1_4 3.211549 1_555
Cu1_0 Cu1_4 3.211549 1_455
Cu1_1 Sn2_0 2.657071 1_556
Cu1_1 Sm0_1 2.847638 1_555
Cu1_1 Cu1_3 2.873686 1_545
Cu1_1 Cu1_3 2.873686 1_555
Cu1_1 Cu1_5 3.211549 1_455
Cu1_1 Cu1_5 3.211549 1_555
Cu1_2 Sn2_3 2.657071 1_555
Cu1_2 Sm0_2 2.847638 1_555
Cu1_2 Cu1_6 3.211549 1_455
Cu1_2 Cu1_6 3.211549 1_555
Cu1_3 Sn2_2 2.657071 1_556
Cu1_3 Sm0_3 2.847638 1_555
Cu1_3 Cu1_7 3.211549 1_555
Cu1_3 Cu1_7 3.211549 1_455
Cu1_4 Sn2_5 2.657071 1_555
Cu1_4 Sm0_4 2.847638 1_555
Cu1_4 Cu1_6 2.873686 1_555
Cu1_4 Cu1_6 2.873686 1_545
Cu1_5 Sn2_4 2.657071 1_556
Cu1_5 Sm0_5 2.847638 1_555
Cu1_5 Cu1_7 2.873686 1_545
Cu1_5 Cu1_7 2.873686 1_555
Cu1_6 Sn2_7 2.657071 1_555
Cu1_6 Sm0_6 2.847638 1_555
Cu1_7 Sn2_6 2.657071 1_556
Cu1_7 Sm0_7 2.847638 1_555
Cu2_0 Sn1_0 2.524755 1_555
Cu2_0 Sn0_0 2.524867 1_555
Cu2_0 Cu2_2 2.873686 1_545
Cu2_0 Cu2_2 2.873686 1_555
Cu2_0 Cu2_4 3.211549 1_555
Cu2_0 Cu2_4 3.211549 1_455
Cu2_1 Sn1_1 2.524755 1_555
Cu2_1 Sn0_1 2.524867 1_555
Cu2_1 Cu2_3 2.873686 1_555
Cu2_1 Cu2_3 2.873686 1_545
Cu2_1 Cu2_5 3.211549 1_455
Cu2_1 Cu2_5 3.211549 1_555
Cu2_2 Sn1_2 2.524755 1_555
Cu2_2 Sn0_2 2.524867 1_555
Cu2_2 Cu2_6 3.211549 1_555
Cu2_2 Cu2_6 3.211549 1_455
Cu2_3 Sn1_3 2.524755 1_555
Cu2_3 Sn0_3 2.524867 1_555
Cu2_3 Cu2_7 3.211549 1_455
Cu2_3 Cu2_7 3.211549 1_555
Cu2_4 Sn1_4 2.524755 1_555
Cu2_4 Sn0_4 2.524867 1_555
Cu2_4 Cu2_6 2.873686 1_555
Cu2_4 Cu2_6 2.873686 1_545
Cu2_5 Sn1_5 2.524755 1_555
Cu2_5 Sn0_5 2.524867 1_555
Cu2_5 Cu2_7 2.873686 1_545
Cu2_5 Cu2_7 2.873686 1_555
Cu2_6 Sn1_6 2.524755 1_555
Cu2_6 Sn0_6 2.524867 1_555
Cu2_7 Sn1_7 2.524755 1_555
Cu2_7 Sn0_7 2.524867 1_555
Sn0_0 Sn0_2 2.873686 1_555
Sn0_0 Sn0_2 2.873686 1_545
Sn0_0 Sn0_4 3.211549 1_455
Sn0_0 Sn0_4 3.211549 1_555
Sn0_1 Sn0_3 2.873686 1_545
Sn0_1 Sn0_3 2.873686 1_555
Sn0_1 Sn0_5 3.211549 1_555
Sn0_1 Sn0_5 3.211549 1_455
Sn0_2 Sn0_6 3.211549 1_455
Sn0_2 Sn0_6 3.211549 1_555
Sn0_3 Sn0_7 3.211549 1_455
Sn0_3 Sn0_7 3.211549 1_555
Sn0_4 Sn0_6 2.873686 1_555
Sn0_4 Sn0_6 2.873686 1_545
Sn0_5 Sn0_7 2.873686 1_545
Sn0_5 Sn0_7 2.873686 1_555
Sn1_0 Sn1_2 2.873686 1_545
Sn1_0 Sn1_2 2.873686 1_555
Sn1_0 Sn1_4 3.211549 1_455
Sn1_0 Sn1_4 3.211549 1_555
Sn1_1 Sn1_3 2.873686 1_555
Sn1_1 Sn1_3 2.873686 1_545
Sn1_1 Sn1_5 3.211549 1_555
Sn1_1 Sn1_5 3.211549 1_455
Sn1_2 Sn1_6 3.211549 1_455
Sn1_2 Sn1_6 3.211549 1_555
Sn1_3 Sn1_7 3.211549 1_455
Sn1_3 Sn1_7 3.211549 1_555
Sn1_4 Sn1_6 2.873686 1_555
Sn1_4 Sn1_6 2.873686 1_545
Sn1_5 Sn1_7 2.873686 1_555
Sn1_5 Sn1_7 2.873686 1_545
Sn2_0 Sn2_2 2.873686 1_555
Sn2_0 Sn2_2 2.873686 1_545
Sn2_0 Sn2_4 3.211549 1_455
Sn2_0 Sn2_4 3.211549 1_555
Sn2_1 Sn2_3 2.873686 1_555
Sn2_1 Sn2_3 2.873686 1_545
Sn2_1 Sn2_5 3.211549 1_555
Sn2_1 Sn2_5 3.211549 1_455
Sn2_2 Sn2_6 3.211549 1_455
Sn2_2 Sn2_6 3.211549 1_555
Sn2_3 Sn2_7 3.211549 1_555
Sn2_3 Sn2_7 3.211549 1_455
Sn2_4 Sn2_6 2.873686 1_555
Sn2_4 Sn2_6 2.873686 1_545
Sn2_5 Sn2_7 2.873686 1_555
Sn2_5 Sn2_7 2.873686 1_545
