# generated using pymatgen
data_Ho13Zn58
_symmetry_space_group_name_H-M   'P 1'
_cell_length_a   13.97447370
_cell_length_b   14.30294839
_cell_length_c   14.30294839
_cell_angle_alpha   120.00037870
_cell_angle_beta   90.00000000
_cell_angle_gamma   90.00000000
_symmetry_Int_Tables_number   1
_chemical_formula_structural   Ho13Zn58
_chemical_formula_sum   'Ho26 Zn116'
_cell_volume   2475.80011207
_cell_formula_units_Z   2
loop_
 _symmetry_equiv_pos_site_id
 _symmetry_equiv_pos_as_xyz
  1  'x, y, z'
loop_
 _atom_site_type_symbol
 _atom_site_label
 _atom_site_symmetry_multiplicity
 _atom_site_fract_x
 _atom_site_fract_y
 _atom_site_fract_z
 _atom_site_occupancy
  Ho  Ho0  1  0.50000000  0.00000000  0.00000000  1
  Ho  Ho1  1  -0.00000000  0.00000000  0.00000000  1
  Ho  Ho2  1  0.75000000  0.45582281  0.91164493  1
  Ho  Ho3  1  0.75000000  0.45582212  0.54417788  1
  Ho  Ho4  1  0.75000000  0.08835507  0.54417719  1
  Ho  Ho5  1  0.25000000  0.54417719  0.08835507  1
  Ho  Ho6  1  0.25000000  0.54417788  0.45582212  1
  Ho  Ho7  1  0.25000000  0.91164493  0.45582281  1
  Ho  Ho8  1  0.75000000  0.12803600  0.25606556  1
  Ho  Ho9  1  0.75000000  0.12804045  0.87195955  1
  Ho  Ho10  1  0.75000000  0.74393444  0.87196400  1
  Ho  Ho11  1  0.25000000  0.87196400  0.74393444  1
  Ho  Ho12  1  0.25000000  0.87195955  0.12804045  1
  Ho  Ho13  1  0.25000000  0.25606556  0.12803600  1
  Ho  Ho14  1  0.55210872  0.79418235  0.58836440  1
  Ho  Ho15  1  0.55210676  0.79418507  0.20581493  1
  Ho  Ho16  1  0.55210872  0.41163560  0.20581765  1
  Ho  Ho17  1  0.44789128  0.20581765  0.41163560  1
  Ho  Ho18  1  0.44789324  0.20581493  0.79418507  1
  Ho  Ho19  1  0.44789128  0.58836440  0.79418235  1
  Ho  Ho20  1  0.05210872  0.20581765  0.41163560  1
  Ho  Ho21  1  0.05210676  0.20581493  0.79418507  1
  Ho  Ho22  1  0.05210872  0.58836440  0.79418235  1
  Ho  Ho23  1  0.94789128  0.79418235  0.58836440  1
  Ho  Ho24  1  0.94789324  0.79418507  0.20581493  1
  Ho  Ho25  1  0.94789128  0.41163560  0.20581765  1
  Zn  Zn0  1  0.75000000  0.00000150  0.99999850  1
  Zn  Zn1  1  0.25000000  0.99999850  0.00000150  1
  Zn  Zn2  1  0.25000000  0.66667365  0.33332635  1
  Zn  Zn3  1  0.75000000  0.33332635  0.66667365  1
  Zn  Zn4  1  0.59605062  0.66667574  0.33332426  1
  Zn  Zn5  1  0.40394938  0.33332426  0.66667574  1
  Zn  Zn6  1  0.09605062  0.33332426  0.66667574  1
  Zn  Zn7  1  0.90394938  0.66667574  0.33332426  1
  Zn  Zn8  1  0.50000000  0.50000000  0.00000000  1
  Zn  Zn9  1  0.50000000  0.50000000  0.50000000  1
  Zn  Zn10  1  0.50000000  0.00000000  0.50000000  1
  Zn  Zn11  1  -0.00000000  0.50000000  0.00000000  1
  Zn  Zn12  1  -0.00000000  0.50000000  0.50000000  1
  Zn  Zn13  1  -0.00000000  0.00000000  0.50000000  1
  Zn  Zn14  1  0.75000000  0.73039297  0.46078484  1
  Zn  Zn15  1  0.75000000  0.73039683  0.26960317  1
  Zn  Zn16  1  0.75000000  0.53921516  0.26960703  1
  Zn  Zn17  1  0.25000000  0.26960703  0.53921516  1
  Zn  Zn18  1  0.25000000  0.26960317  0.73039683  1
  Zn  Zn19  1  0.25000000  0.46078484  0.73039297  1
  Zn  Zn20  1  0.49999915  0.79883777  0.99999817  1
  Zn  Zn21  1  0.50000000  0.20116169  0.20116169  1
  Zn  Zn22  1  0.50000085  0.99999817  0.79883777  1
  Zn  Zn23  1  0.50000085  0.20116223  0.00000183  1
  Zn  Zn24  1  0.49999915  0.00000183  0.20116223  1
  Zn  Zn25  1  0.50000000  0.79883831  0.79883831  1
  Zn  Zn26  1  0.99999915  0.20116223  0.00000183  1
  Zn  Zn27  1  -0.00000000  0.79883831  0.79883831  1
  Zn  Zn28  1  0.00000085  0.00000183  0.20116223  1
  Zn  Zn29  1  0.00000085  0.79883777  0.99999817  1
  Zn  Zn30  1  0.99999915  0.99999817  0.79883777  1
  Zn  Zn31  1  -0.00000000  0.20116169  0.20116169  1
  Zn  Zn32  1  0.75000000  0.91569599  0.63457409  1
  Zn  Zn33  1  0.75000000  0.71887639  0.08430007  1
  Zn  Zn34  1  0.75000000  0.36542417  0.28112061  1
  Zn  Zn35  1  0.75000000  0.71887939  0.63457583  1
  Zn  Zn36  1  0.75000000  0.36542591  0.08430401  1
  Zn  Zn37  1  0.75000000  0.91569993  0.28112361  1
  Zn  Zn38  1  0.25000000  0.08430401  0.36542591  1
  Zn  Zn39  1  0.25000000  0.28112361  0.91569993  1
  Zn  Zn40  1  0.25000000  0.63457583  0.71887939  1
  Zn  Zn41  1  0.25000000  0.28112061  0.36542417  1
  Zn  Zn42  1  0.25000000  0.63457409  0.91569599  1
  Zn  Zn43  1  0.25000000  0.08430007  0.71887639  1
  Zn  Zn44  1  0.65683190  0.90501729  0.81003425  1
  Zn  Zn45  1  0.65683154  0.90501776  0.09498224  1
  Zn  Zn46  1  0.65683190  0.18996575  0.09498271  1
  Zn  Zn47  1  0.34316810  0.09498271  0.18996575  1
  Zn  Zn48  1  0.34316846  0.09498224  0.90501776  1
  Zn  Zn49  1  0.34316810  0.81003425  0.90501729  1
  Zn  Zn50  1  0.15683190  0.09498271  0.18996575  1
  Zn  Zn51  1  0.15683154  0.09498224  0.90501776  1
  Zn  Zn52  1  0.15683190  0.81003425  0.90501729  1
  Zn  Zn53  1  0.84316810  0.90501729  0.81003425  1
  Zn  Zn54  1  0.84316846  0.90501776  0.09498224  1
  Zn  Zn55  1  0.84316810  0.18996575  0.09498271  1
  Zn  Zn56  1  0.14185786  0.43676018  0.87352151  1
  Zn  Zn57  1  0.14185264  0.43675433  0.56324567  1
  Zn  Zn58  1  0.14185786  0.12647849  0.56323982  1
  Zn  Zn59  1  0.85814214  0.56323982  0.12647849  1
  Zn  Zn60  1  0.85814736  0.56324567  0.43675433  1
  Zn  Zn61  1  0.85814214  0.87352151  0.43676018  1
  Zn  Zn62  1  0.64185786  0.56323982  0.12647849  1
  Zn  Zn63  1  0.64185264  0.56324567  0.43675433  1
  Zn  Zn64  1  0.64185786  0.87352151  0.43676018  1
  Zn  Zn65  1  0.35814214  0.43676018  0.87352151  1
  Zn  Zn66  1  0.35814736  0.43675433  0.56324567  1
  Zn  Zn67  1  0.35814214  0.12647849  0.56323982  1
  Zn  Zn68  1  0.55100569  0.39864882  0.79729730  1
  Zn  Zn69  1  0.55099530  0.39864667  0.60135333  1
  Zn  Zn70  1  0.55100569  0.20270270  0.60135118  1
  Zn  Zn71  1  0.44899431  0.60135118  0.20270270  1
  Zn  Zn72  1  0.44900470  0.60135333  0.39864667  1
  Zn  Zn73  1  0.44899431  0.79729730  0.39864882  1
  Zn  Zn74  1  0.05100569  0.60135118  0.20270270  1
  Zn  Zn75  1  0.05099530  0.60135333  0.39864667  1
  Zn  Zn76  1  0.05100569  0.79729730  0.39864882  1
  Zn  Zn77  1  0.94899431  0.39864882  0.79729730  1
  Zn  Zn78  1  0.94900470  0.39864667  0.60135333  1
  Zn  Zn79  1  0.94899431  0.20270270  0.60135118  1
  Zn  Zn80  1  0.15709854  0.76422755  0.52845160  1
  Zn  Zn81  1  0.15709478  0.76422852  0.23577148  1
  Zn  Zn82  1  0.15709854  0.47154840  0.23577245  1
  Zn  Zn83  1  0.84290146  0.23577245  0.47154840  1
  Zn  Zn84  1  0.84290522  0.23577148  0.76422852  1
  Zn  Zn85  1  0.84290146  0.52845160  0.76422755  1
  Zn  Zn86  1  0.65709854  0.23577245  0.47154840  1
  Zn  Zn87  1  0.65709478  0.23577148  0.76422852  1
  Zn  Zn88  1  0.65709854  0.52845160  0.76422755  1
  Zn  Zn89  1  0.34290146  0.76422755  0.52845160  1
  Zn  Zn90  1  0.34290522  0.76422852  0.23577148  1
  Zn  Zn91  1  0.34290146  0.47154840  0.23577245  1
  Zn  Zn92  1  0.60257127  0.63432879  0.96377419  1
  Zn  Zn93  1  0.60257259  0.32944476  0.36567085  1
  Zn  Zn94  1  0.60257159  0.03622366  0.67055320  1
  Zn  Zn95  1  0.60257159  0.32944680  0.96377634  1
  Zn  Zn96  1  0.60257127  0.03622581  0.36567121  1
  Zn  Zn97  1  0.60257259  0.63432915  0.67055524  1
  Zn  Zn98  1  0.39742873  0.36567121  0.03622581  1
  Zn  Zn99  1  0.39742741  0.67055524  0.63432915  1
  Zn  Zn100  1  0.39742841  0.96377634  0.32944680  1
  Zn  Zn101  1  0.39742841  0.67055320  0.03622366  1
  Zn  Zn102  1  0.39742873  0.96377419  0.63432879  1
  Zn  Zn103  1  0.39742741  0.36567085  0.32944476  1
  Zn  Zn104  1  0.10257127  0.36567121  0.03622581  1
  Zn  Zn105  1  0.10257259  0.67055524  0.63432915  1
  Zn  Zn106  1  0.10257159  0.96377634  0.32944680  1
  Zn  Zn107  1  0.10257159  0.67055320  0.03622366  1
  Zn  Zn108  1  0.10257127  0.96377419  0.63432879  1
  Zn  Zn109  1  0.10257259  0.36567085  0.32944476  1
  Zn  Zn110  1  0.89742873  0.63432879  0.96377419  1
  Zn  Zn111  1  0.89742741  0.32944476  0.36567085  1
  Zn  Zn112  1  0.89742841  0.03622366  0.67055320  1
  Zn  Zn113  1  0.89742841  0.32944680  0.96377634  1
  Zn  Zn114  1  0.89742873  0.03622581  0.36567121  1
  Zn  Zn115  1  0.89742741  0.63432915  0.67055524  1
loop_
_geom_bond_atom_site_label_1
_geom_bond_atom_site_label_2
_geom_bond_distance
_geom_bond_site_symmetry_2
Ho0 Zn25 2.877189 1_544
Ho0 Zn21 2.877189 1_555
Ho0 Zn20 2.877200 1_544
Ho0 Zn22 2.877200 1_544
Ho0 Zn23 2.877200 1_555
Ho0 Zn24 2.877200 1_555
Ho0 Zn45 3.215599 1_545
Ho0 Zn48 3.215599 1_554
Ho0 Zn47 3.215604 1_555
Ho0 Zn46 3.215604 1_555
Ho0 Zn49 3.215604 1_544
Ho0 Zn44 3.215604 1_544
Ho0 Zn0 3.493618 1_554
Ho0 Zn1 3.493618 1_545
Ho1 Zn27 2.877189 1_544
Ho1 Zn31 2.877189 1_555
Ho1 Zn30 2.877200 1_444
Ho1 Zn29 2.877200 1_544
Ho1 Zn28 2.877200 1_555
Ho1 Zn26 2.877200 1_455
Ho1 Zn51 3.215599 1_554
Ho1 Zn54 3.215599 1_445
Ho1 Zn52 3.215604 1_544
Ho1 Zn50 3.215604 1_555
Ho1 Zn55 3.215604 1_455
Ho1 Zn53 3.215604 1_444
Ho1 Zn0 3.493618 1_454
Ho1 Zn1 3.493618 1_545
Ho2 Zn3 3.034378 1_555
Ho2 Zn62 3.060248 1_556
Ho2 Zn59 3.060248 1_556
Ho2 Zn88 3.066057 1_555
Ho2 Zn85 3.066057 1_555
Ho2 Zn87 3.066111 1_555
Ho2 Zn84 3.066111 1_555
Ho2 Zn92 3.068465 1_555
Ho2 Zn110 3.068465 1_555
Ho2 Zn95 3.068477 1_555
Ho2 Zn113 3.068477 1_555
Ho2 Zn68 3.120773 1_555
Ho2 Zn77 3.120773 1_555
Ho2 Zn33 3.311029 1_556
Ho2 Zn36 3.311087 1_556
Ho3 Zn3 3.034647 1_555
Ho3 Zn63 3.060444 1_555
Ho3 Zn60 3.060444 1_555
Ho3 Zn88 3.066088 1_555
Ho3 Zn85 3.066088 1_555
Ho3 Zn83 3.066088 1_555
Ho3 Zn86 3.066088 1_555
Ho3 Zn115 3.068457 1_555
Ho3 Zn93 3.068457 1_555
Ho3 Zn97 3.068457 1_555
Ho3 Zn111 3.068457 1_555
Ho3 Zn69 3.120925 1_555
Ho3 Zn78 3.120925 1_555
Ho3 Zn35 3.311088 1_555
Ho3 Zn34 3.311088 1_555
Ho4 Zn3 3.034378 1_555
Ho4 Zn64 3.060248 1_545
Ho4 Zn61 3.060248 1_545
Ho4 Zn83 3.066057 1_555
Ho4 Zn86 3.066057 1_555
Ho4 Zn84 3.066111 1_555
Ho4 Zn87 3.066111 1_555
Ho4 Zn114 3.068465 1_555
Ho4 Zn96 3.068465 1_555
Ho4 Zn94 3.068477 1_555
Ho4 Zn112 3.068477 1_555
Ho4 Zn70 3.120773 1_555
Ho4 Zn79 3.120773 1_555
Ho4 Zn37 3.311029 1_545
Ho4 Zn32 3.311087 1_545
Ho5 Zn2 3.034378 1_555
Ho5 Zn56 3.060248 1_554
Ho5 Zn65 3.060248 1_554
Ho5 Zn91 3.066057 1_555
Ho5 Zn82 3.066057 1_555
Ho5 Zn81 3.066111 1_555
Ho5 Zn90 3.066111 1_555
Ho5 Zn98 3.068465 1_555
Ho5 Zn104 3.068465 1_555
Ho5 Zn101 3.068477 1_555
Ho5 Zn107 3.068477 1_555
Ho5 Zn74 3.120773 1_555
Ho5 Zn71 3.120773 1_555
Ho5 Zn39 3.311029 1_554
Ho5 Zn42 3.311087 1_554
Ho6 Zn2 3.034647 1_555
Ho6 Zn57 3.060444 1_555
Ho6 Zn66 3.060444 1_555
Ho6 Zn89 3.066088 1_555
Ho6 Zn80 3.066088 1_555
Ho6 Zn91 3.066088 1_555
Ho6 Zn82 3.066088 1_555
Ho6 Zn103 3.068457 1_555
Ho6 Zn99 3.068457 1_555
Ho6 Zn109 3.068457 1_555
Ho6 Zn105 3.068457 1_555
Ho6 Zn72 3.120925 1_555
Ho6 Zn75 3.120925 1_555
Ho6 Zn41 3.311088 1_555
Ho6 Zn40 3.311088 1_555
Ho7 Zn2 3.034378 1_555
Ho7 Zn58 3.060248 1_565
Ho7 Zn67 3.060248 1_565
Ho7 Zn80 3.066057 1_555
Ho7 Zn89 3.066057 1_555
Ho7 Zn81 3.066111 1_555
Ho7 Zn90 3.066111 1_555
Ho7 Zn108 3.068465 1_555
Ho7 Zn102 3.068465 1_555
Ho7 Zn100 3.068477 1_555
Ho7 Zn106 3.068477 1_555
Ho7 Zn76 3.120773 1_555
Ho7 Zn73 3.120773 1_555
Ho7 Zn43 3.311029 1_565
Ho7 Zn38 3.311087 1_565
Ho8 Zn83 2.968101 1_555
Ho8 Zn86 2.968101 1_555
Ho8 Zn46 3.135091 1_555
Ho8 Zn55 3.135091 1_555
Ho8 Zn54 3.135129 1_545
Ho8 Zn45 3.135129 1_545
Ho8 Zn0 3.171818 1_554
Ho8 Zn34 3.231107 1_555
Ho8 Zn37 3.231178 1_545
Ho8 Zn93 3.238002 1_555
Ho8 Zn111 3.238002 1_555
Ho8 Zn114 3.238091 1_555
Ho8 Zn96 3.238091 1_555
Ho9 Zn87 2.967906 1_555
Ho9 Zn84 2.967906 1_555
Ho9 Zn53 3.135228 1_545
Ho9 Zn44 3.135228 1_545
Ho9 Zn46 3.135228 1_556
Ho9 Zn55 3.135228 1_556
Ho9 Zn0 3.171970 1_555
Ho9 Zn32 3.231136 1_545
Ho9 Zn36 3.231136 1_556
Ho9 Zn95 3.237981 1_555
Ho9 Zn113 3.237981 1_555
Ho9 Zn112 3.237981 1_555
Ho9 Zn94 3.237981 1_555
Ho10 Zn88 2.968101 1_555
Ho10 Zn85 2.968101 1_555
Ho10 Zn53 3.135091 1_555
Ho10 Zn44 3.135091 1_555
Ho10 Zn54 3.135129 1_556
Ho10 Zn45 3.135129 1_556
Ho10 Zn0 3.171818 1_565
Ho10 Zn35 3.231107 1_555
Ho10 Zn33 3.231178 1_556
Ho10 Zn115 3.238002 1_555
Ho10 Zn97 3.238002 1_555
Ho10 Zn110 3.238091 1_555
Ho10 Zn92 3.238091 1_555
Ho11 Zn80 2.968101 1_555
Ho11 Zn89 2.968101 1_555
Ho11 Zn49 3.135091 1_555
Ho11 Zn52 3.135091 1_555
Ho11 Zn51 3.135129 1_565
Ho11 Zn48 3.135129 1_565
Ho11 Zn1 3.171818 1_556
Ho11 Zn40 3.231107 1_555
Ho11 Zn43 3.231178 1_565
Ho11 Zn99 3.238002 1_555
Ho11 Zn105 3.238002 1_555
Ho11 Zn108 3.238091 1_555
Ho11 Zn102 3.238091 1_555
Ho12 Zn81 2.967906 1_555
Ho12 Zn90 2.967906 1_555
Ho12 Zn47 3.135228 1_565
Ho12 Zn49 3.135228 1_554
Ho12 Zn52 3.135228 1_554
Ho12 Zn50 3.135228 1_565
Ho12 Zn1 3.171970 1_555
Ho12 Zn42 3.231136 1_554
Ho12 Zn38 3.231136 1_565
Ho12 Zn106 3.237981 1_555
Ho12 Zn100 3.237981 1_555
Ho12 Zn107 3.237981 1_555
Ho12 Zn101 3.237981 1_555
Ho13 Zn91 2.968101 1_555
Ho13 Zn82 2.968101 1_555
Ho13 Zn47 3.135091 1_555
Ho13 Zn50 3.135091 1_555
Ho13 Zn51 3.135129 1_554
Ho13 Zn48 3.135129 1_554
Ho13 Zn1 3.171818 1_545
Ho13 Zn41 3.231107 1_555
Ho13 Zn39 3.231178 1_554
Ho13 Zn109 3.238002 1_555
Ho13 Zn103 3.238002 1_555
Ho13 Zn104 3.238091 1_555
Ho13 Zn98 3.238091 1_555
Ho14 Zn89 3.016281 1_555
Ho14 Zn102 3.064919 1_555
Ho14 Zn99 3.064937 1_555
Ho14 Zn22 3.065369 1_555
Ho14 Zn25 3.065406 1_555
Ho14 Zn72 3.092221 1_555
Ho14 Zn73 3.092299 1_555
Ho14 Zn44 3.111405 1_555
Ho14 Zn94 3.129587 1_565
Ho14 Zn97 3.129633 1_555
Ho14 Zn32 3.155369 1_555
Ho14 Zn35 3.155376 1_555
Ho14 Zn63 3.165864 1_555
Ho14 Zn64 3.165964 1_555
Ho14 Zn14 3.185104 1_555
Ho14 Zn4 3.218225 1_555
Ho15 Zn90 3.016206 1_555
Ho15 Zn100 3.064905 1_555
Ho15 Zn101 3.064905 1_555
Ho15 Zn24 3.065363 1_565
Ho15 Zn20 3.065363 1_554
Ho15 Zn73 3.092345 1_555
Ho15 Zn71 3.092345 1_555
Ho15 Zn45 3.111380 1_555
Ho15 Zn96 3.129589 1_565
Ho15 Zn92 3.129589 1_554
Ho15 Zn33 3.155403 1_555
Ho15 Zn37 3.155403 1_555
Ho15 Zn64 3.165993 1_555
Ho15 Zn62 3.165993 1_555
Ho15 Zn15 3.185113 1_555
Ho15 Zn4 3.217987 1_555
Ho16 Zn91 3.016281 1_555
Ho16 Zn98 3.064919 1_555
Ho16 Zn103 3.064937 1_555
Ho16 Zn23 3.065369 1_555
Ho16 Zn21 3.065406 1_555
Ho16 Zn72 3.092221 1_555
Ho16 Zn71 3.092299 1_555
Ho16 Zn46 3.111405 1_555
Ho16 Zn95 3.129587 1_554
Ho16 Zn93 3.129633 1_555
Ho16 Zn36 3.155369 1_555
Ho16 Zn34 3.155376 1_555
Ho16 Zn63 3.165864 1_555
Ho16 Zn62 3.165964 1_555
Ho16 Zn16 3.185104 1_555
Ho16 Zn4 3.218225 1_555
Ho17 Zn86 3.016281 1_555
Ho17 Zn96 3.064919 1_555
Ho17 Zn93 3.064937 1_555
Ho17 Zn24 3.065369 1_555
Ho17 Zn21 3.065406 1_555
Ho17 Zn69 3.092221 1_555
Ho17 Zn70 3.092299 1_555
Ho17 Zn47 3.111405 1_555
Ho17 Zn100 3.129587 1_545
Ho17 Zn103 3.129633 1_555
Ho17 Zn38 3.155369 1_555
Ho17 Zn41 3.155376 1_555
Ho17 Zn66 3.165864 1_555
Ho17 Zn67 3.165964 1_555
Ho17 Zn17 3.185104 1_555
Ho17 Zn5 3.218225 1_555
Ho18 Zn87 3.016206 1_555
Ho18 Zn95 3.064905 1_555
Ho18 Zn94 3.064905 1_555
Ho18 Zn23 3.065363 1_556
Ho18 Zn22 3.065363 1_545
Ho18 Zn68 3.092345 1_555
Ho18 Zn70 3.092345 1_555
Ho18 Zn48 3.111380 1_555
Ho18 Zn98 3.129589 1_556
Ho18 Zn102 3.129589 1_545
Ho18 Zn39 3.155403 1_555
Ho18 Zn43 3.155403 1_555
Ho18 Zn65 3.165993 1_555
Ho18 Zn67 3.165993 1_555
Ho18 Zn18 3.185113 1_555
Ho18 Zn5 3.217987 1_555
Ho19 Zn88 3.016281 1_555
Ho19 Zn92 3.064919 1_555
Ho19 Zn97 3.064937 1_555
Ho19 Zn20 3.065369 1_555
Ho19 Zn25 3.065406 1_555
Ho19 Zn69 3.092221 1_555
Ho19 Zn68 3.092299 1_555
Ho19 Zn49 3.111405 1_555
Ho19 Zn101 3.129587 1_556
Ho19 Zn99 3.129633 1_555
Ho19 Zn42 3.155369 1_555
Ho19 Zn40 3.155376 1_555
Ho19 Zn66 3.165864 1_555
Ho19 Zn65 3.165964 1_555
Ho19 Zn19 3.185104 1_555
Ho19 Zn5 3.218225 1_555
Ho20 Zn83 3.016281 1_455
Ho20 Zn114 3.064919 1_455
Ho20 Zn111 3.064937 1_455
Ho20 Zn28 3.065369 1_555
Ho20 Zn31 3.065406 1_555
Ho20 Zn78 3.092221 1_455
Ho20 Zn79 3.092299 1_455
Ho20 Zn50 3.111405 1_555
Ho20 Zn106 3.129587 1_545
Ho20 Zn109 3.129633 1_555
Ho20 Zn38 3.155369 1_555
Ho20 Zn41 3.155376 1_555
Ho20 Zn57 3.165864 1_555
Ho20 Zn58 3.165964 1_555
Ho20 Zn17 3.185104 1_555
Ho20 Zn6 3.218225 1_555
Ho21 Zn84 3.016206 1_455
Ho21 Zn113 3.064905 1_455
Ho21 Zn112 3.064905 1_455
Ho21 Zn30 3.065363 1_445
Ho21 Zn26 3.065363 1_456
Ho21 Zn77 3.092345 1_455
Ho21 Zn79 3.092345 1_455
Ho21 Zn51 3.111380 1_555
Ho21 Zn104 3.129589 1_556
Ho21 Zn108 3.129589 1_545
Ho21 Zn39 3.155403 1_555
Ho21 Zn43 3.155403 1_555
Ho21 Zn56 3.165993 1_555
Ho21 Zn58 3.165993 1_555
Ho21 Zn18 3.185113 1_555
Ho21 Zn6 3.217987 1_555
Ho22 Zn85 3.016281 1_455
Ho22 Zn110 3.064919 1_455
Ho22 Zn115 3.064937 1_455
Ho22 Zn29 3.065369 1_555
Ho22 Zn27 3.065406 1_555
Ho22 Zn78 3.092221 1_455
Ho22 Zn77 3.092299 1_455
Ho22 Zn52 3.111405 1_555
Ho22 Zn107 3.129587 1_556
Ho22 Zn105 3.129633 1_555
Ho22 Zn42 3.155369 1_555
Ho22 Zn40 3.155376 1_555
Ho22 Zn57 3.165864 1_555
Ho22 Zn56 3.165964 1_555
Ho22 Zn19 3.185104 1_555
Ho22 Zn6 3.218225 1_555
Ho23 Zn80 3.016281 1_655
Ho23 Zn108 3.064919 1_655
Ho23 Zn105 3.064937 1_655
Ho23 Zn30 3.065369 1_555
Ho23 Zn27 3.065406 1_655
Ho23 Zn75 3.092221 1_655
Ho23 Zn76 3.092299 1_655
Ho23 Zn53 3.111405 1_555
Ho23 Zn112 3.129587 1_565
Ho23 Zn115 3.129633 1_555
Ho23 Zn32 3.155369 1_555
Ho23 Zn35 3.155376 1_555
Ho23 Zn60 3.165864 1_555
Ho23 Zn61 3.165964 1_555
Ho23 Zn14 3.185104 1_555
Ho23 Zn7 3.218225 1_555
Ho24 Zn81 3.016206 1_655
Ho24 Zn106 3.064905 1_655
Ho24 Zn107 3.064905 1_655
Ho24 Zn28 3.065363 1_665
Ho24 Zn29 3.065363 1_654
Ho24 Zn74 3.092345 1_655
Ho24 Zn76 3.092345 1_655
Ho24 Zn54 3.111380 1_555
Ho24 Zn114 3.129589 1_565
Ho24 Zn110 3.129589 1_554
Ho24 Zn33 3.155403 1_555
Ho24 Zn37 3.155403 1_555
Ho24 Zn61 3.165993 1_555
Ho24 Zn59 3.165993 1_555
Ho24 Zn15 3.185113 1_555
Ho24 Zn7 3.217987 1_555
Ho25 Zn82 3.016281 1_655
Ho25 Zn104 3.064919 1_655
Ho25 Zn109 3.064937 1_655
Ho25 Zn26 3.065369 1_555
Ho25 Zn31 3.065406 1_655
Ho25 Zn75 3.092221 1_655
Ho25 Zn74 3.092299 1_655
Ho25 Zn55 3.111405 1_555
Ho25 Zn113 3.129587 1_554
Ho25 Zn111 3.129633 1_555
Ho25 Zn36 3.155369 1_555
Ho25 Zn34 3.155376 1_555
Ho25 Zn60 3.165864 1_555
Ho25 Zn59 3.165964 1_555
Ho25 Zn16 3.185104 1_555
Ho25 Zn7 3.218225 1_555
Zn0 Zn46 2.689212 1_556
Zn0 Zn55 2.689212 1_556
Zn0 Zn53 2.689212 1_545
Zn0 Zn44 2.689212 1_545
Zn0 Zn54 2.689262 1_546
Zn0 Zn45 2.689262 1_546
Zn1 Zn50 2.689212 1_565
Zn1 Zn47 2.689212 1_565
Zn1 Zn49 2.689212 1_554
Zn1 Zn52 2.689212 1_554
Zn1 Zn48 2.689262 1_564
Zn1 Zn51 2.689262 1_564
Zn2 Zn81 2.743425 1_555
Zn2 Zn90 2.743425 1_555
Zn2 Zn82 2.743557 1_555
Zn2 Zn91 2.743557 1_555
Zn2 Zn89 2.743557 1_555
Zn2 Zn80 2.743557 1_555
Zn3 Zn84 2.743425 1_555
Zn3 Zn87 2.743425 1_555
Zn3 Zn83 2.743557 1_555
Zn3 Zn86 2.743557 1_555
Zn3 Zn88 2.743557 1_555
Zn3 Zn85 2.743557 1_555
Zn4 Zn71 2.615527 1_555
Zn4 Zn73 2.615527 1_555
Zn4 Zn72 2.615597 1_555
Zn4 Zn62 2.640886 1_555
Zn4 Zn64 2.640886 1_555
Zn4 Zn63 2.641055 1_555
Zn5 Zn70 2.615527 1_555
Zn5 Zn68 2.615527 1_555
Zn5 Zn69 2.615597 1_555
Zn5 Zn67 2.640886 1_555
Zn5 Zn65 2.640886 1_555
Zn5 Zn66 2.641055 1_555
Zn6 Zn79 2.615527 1_455
Zn6 Zn77 2.615527 1_455
Zn6 Zn78 2.615597 1_455
Zn7 Zn74 2.615527 1_655
Zn7 Zn76 2.615527 1_655
Zn7 Zn75 2.615597 1_655
Zn8 Zn95 2.647617 1_554
Zn8 Zn98 2.647628 1_555
Zn8 Zn92 2.647628 1_554
Zn9 Zn97 2.647632 1_555
Zn9 Zn93 2.647632 1_555
Zn9 Zn99 2.647632 1_555
Zn10 Zn64 2.526707 1_545
Zn10 Zn67 2.526707 1_555
Zn10 Zn70 2.610024 1_555
Zn10 Zn73 2.610024 1_545
Zn10 Zn100 2.647617 1_545
Zn10 Zn94 2.647617 1_555
Zn10 Zn96 2.647628 1_555
Zn10 Zn102 2.647628 1_545
Zn11 Zn59 2.526707 1_455
Zn11 Zn56 2.526707 1_554
Zn11 Zn74 2.610024 1_555
Zn11 Zn77 2.610024 1_454
Zn11 Zn113 2.647617 1_454
Zn11 Zn110 2.647628 1_454
Zn12 Zn60 2.526754 1_455
Zn12 Zn57 2.526754 1_555
Zn12 Zn75 2.610045 1_555
Zn12 Zn78 2.610045 1_455
Zn13 Zn61 2.526707 1_445
Zn13 Zn58 2.526707 1_555
Zn13 Zn76 2.610024 1_545
Zn13 Zn79 2.610024 1_455
Zn14 Zn32 2.571982 1_555
Zn14 Zn35 2.572021 1_555
Zn14 Zn7 2.668521 1_555
Zn14 Zn4 2.668521 1_555
Zn14 Zn60 2.701093 1_555
Zn14 Zn63 2.701093 1_555
Zn14 Zn61 2.701151 1_555
Zn14 Zn64 2.701151 1_555
Zn14 Zn16 2.734391 1_555
Zn14 Zn15 2.734489 1_555
Zn15 Zn33 2.571953 1_555
Zn15 Zn37 2.571953 1_555
Zn15 Zn7 2.668391 1_555
Zn15 Zn4 2.668391 1_555
Zn15 Zn61 2.701149 1_555
Zn15 Zn64 2.701149 1_555
Zn15 Zn59 2.701149 1_555
Zn15 Zn62 2.701149 1_555
Zn15 Zn16 2.734489 1_555
Zn16 Zn36 2.571982 1_555
Zn16 Zn34 2.572021 1_555
Zn16 Zn7 2.668521 1_555
Zn16 Zn4 2.668521 1_555
Zn16 Zn60 2.701093 1_555
Zn16 Zn63 2.701093 1_555
Zn16 Zn59 2.701151 1_555
Zn16 Zn62 2.701151 1_555
Zn17 Zn38 2.571982 1_555
Zn17 Zn41 2.572021 1_555
Zn17 Zn6 2.668521 1_555
Zn17 Zn5 2.668521 1_555
Zn17 Zn57 2.701093 1_555
Zn17 Zn66 2.701093 1_555
Zn17 Zn67 2.701151 1_555
Zn17 Zn58 2.701151 1_555
Zn17 Zn19 2.734391 1_555
Zn17 Zn18 2.734489 1_555
Zn18 Zn43 2.571953 1_555
Zn18 Zn39 2.571953 1_555
Zn18 Zn5 2.668391 1_555
Zn18 Zn6 2.668391 1_555
Zn18 Zn56 2.701149 1_555
Zn18 Zn65 2.701149 1_555
Zn18 Zn67 2.701149 1_555
Zn18 Zn58 2.701149 1_555
Zn18 Zn19 2.734489 1_555
Zn19 Zn42 2.571982 1_555
Zn19 Zn40 2.572021 1_555
Zn19 Zn6 2.668521 1_555
Zn19 Zn5 2.668521 1_555
Zn19 Zn57 2.701093 1_555
Zn19 Zn66 2.701093 1_555
Zn19 Zn65 2.701151 1_555
Zn19 Zn56 2.701151 1_555
Zn20 Zn92 2.576893 1_555
Zn20 Zn49 2.625260 1_555
Zn20 Zn45 2.625293 1_556
Zn20 Zn25 2.877183 1_555
Zn20 Zn24 2.877223 1_566
Zn21 Zn93 2.576884 1_555
Zn21 Zn47 2.625284 1_555
Zn21 Zn46 2.625284 1_555
Zn21 Zn24 2.877183 1_555
Zn21 Zn23 2.877183 1_555
Zn22 Zn94 2.576894 1_565
Zn22 Zn44 2.625260 1_555
Zn22 Zn48 2.625293 1_565
Zn22 Zn25 2.877183 1_555
Zn22 Zn23 2.877223 1_566
Zn23 Zn98 2.576893 1_555
Zn23 Zn95 2.576894 1_554
Zn23 Zn46 2.625260 1_555
Zn23 Zn48 2.625293 1_554
Zn24 Zn96 2.576893 1_555
Zn24 Zn47 2.625260 1_555
Zn24 Zn45 2.625293 1_545
Zn25 Zn97 2.576884 1_555
Zn25 Zn99 2.576884 1_555
Zn25 Zn44 2.625284 1_555
Zn25 Zn49 2.625284 1_555
Zn26 Zn55 2.625260 1_555
Zn26 Zn51 2.625293 1_654
Zn26 Zn31 2.877183 1_655
Zn26 Zn30 2.877223 1_544
Zn27 Zn52 2.625284 1_555
Zn27 Zn53 2.625284 1_455
Zn27 Zn30 2.877183 1_455
Zn27 Zn29 2.877183 1_555
Zn28 Zn50 2.625260 1_555
Zn28 Zn54 2.625293 1_445
Zn28 Zn31 2.877183 1_555
Zn28 Zn29 2.877223 1_544
Zn29 Zn52 2.625260 1_555
Zn29 Zn54 2.625293 1_456
Zn30 Zn53 2.625260 1_555
Zn30 Zn51 2.625293 1_665
Zn31 Zn50 2.625284 1_555
Zn31 Zn55 2.625284 1_455
Zn32 Zn94 2.567894 1_565
Zn32 Zn35 2.815070 1_555
Zn32 Zn53 2.898251 1_555
Zn32 Zn44 2.898251 1_555
Zn32 Zn61 2.990992 1_555
Zn32 Zn64 2.990992 1_555
Zn33 Zn92 2.567882 1_554
Zn33 Zn37 2.815141 1_555
Zn33 Zn54 2.898264 1_555
Zn33 Zn45 2.898264 1_555
Zn33 Zn62 2.990995 1_555
Zn33 Zn59 2.990995 1_555
Zn34 Zn93 2.567902 1_555
Zn34 Zn36 2.815070 1_555
Zn34 Zn55 2.898221 1_555
Zn34 Zn46 2.898221 1_555
Zn34 Zn63 2.991060 1_555
Zn34 Zn60 2.991060 1_555
Zn35 Zn97 2.567902 1_555
Zn35 Zn53 2.898221 1_555
Zn35 Zn44 2.898221 1_555
Zn35 Zn63 2.991060 1_555
Zn35 Zn60 2.991060 1_555
Zn36 Zn95 2.567894 1_554
Zn36 Zn55 2.898251 1_555
Zn36 Zn46 2.898251 1_555
Zn36 Zn59 2.990992 1_555
Zn36 Zn62 2.990992 1_555
Zn37 Zn96 2.567882 1_565
Zn37 Zn54 2.898264 1_555
Zn37 Zn45 2.898264 1_555
Zn37 Zn61 2.990995 1_555
Zn37 Zn64 2.990995 1_555
Zn38 Zn41 2.815070 1_555
Zn38 Zn47 2.898251 1_555
Zn38 Zn50 2.898251 1_555
Zn38 Zn67 2.990992 1_555
Zn38 Zn58 2.990992 1_555
Zn39 Zn98 2.567882 1_556
Zn39 Zn43 2.815141 1_555
Zn39 Zn48 2.898264 1_555
Zn39 Zn51 2.898264 1_555
Zn39 Zn65 2.990995 1_555
Zn39 Zn56 2.990995 1_555
Zn40 Zn99 2.567902 1_555
Zn40 Zn42 2.815070 1_555
Zn40 Zn49 2.898221 1_555
Zn40 Zn52 2.898221 1_555
Zn40 Zn66 2.991060 1_555
Zn40 Zn57 2.991060 1_555
Zn41 Zn47 2.898221 1_555
Zn41 Zn50 2.898221 1_555
Zn41 Zn57 2.991060 1_555
Zn41 Zn66 2.991060 1_555
Zn42 Zn52 2.898251 1_555
Zn42 Zn49 2.898251 1_555
Zn42 Zn65 2.990992 1_555
Zn42 Zn56 2.990992 1_555
Zn43 Zn51 2.898264 1_555
Zn43 Zn48 2.898264 1_555
Zn43 Zn67 2.990995 1_555
Zn43 Zn58 2.990995 1_555
Zn44 Zn53 2.603950 1_555
Zn45 Zn54 2.603960 1_555
Zn46 Zn55 2.603950 1_555
Zn47 Zn50 2.603950 1_555
Zn48 Zn51 2.603960 1_555
Zn49 Zn52 2.603950 1_555
Zn56 Zn6 2.640886 1_555
Zn56 Zn77 2.855761 1_455
Zn56 Zn65 3.022459 1_555
Zn57 Zn6 2.641055 1_555
Zn57 Zn78 2.855520 1_455
Zn57 Zn66 3.022605 1_555
Zn58 Zn6 2.640886 1_555
Zn58 Zn79 2.855761 1_455
Zn58 Zn67 3.022459 1_555
Zn59 Zn7 2.640886 1_555
Zn59 Zn74 2.855761 1_655
Zn59 Zn62 3.022459 1_555
Zn60 Zn7 2.641055 1_555
Zn60 Zn75 2.855520 1_655
Zn60 Zn63 3.022605 1_555
Zn61 Zn7 2.640886 1_555
Zn61 Zn76 2.855761 1_655
Zn61 Zn64 3.022459 1_555
Zn62 Zn8 2.526707 1_555
Zn62 Zn71 2.855761 1_555
Zn62 Zn95 3.019428 1_554
Zn62 Zn92 3.019457 1_554
Zn63 Zn9 2.526754 1_555
Zn63 Zn72 2.855520 1_555
Zn63 Zn97 3.019549 1_555
Zn63 Zn93 3.019549 1_555
Zn64 Zn73 2.855761 1_555
Zn64 Zn94 3.019428 1_565
Zn64 Zn96 3.019457 1_565
Zn65 Zn8 2.526707 1_556
Zn65 Zn68 2.855761 1_555
Zn65 Zn98 3.019457 1_556
Zn66 Zn9 2.526754 1_555
Zn66 Zn69 2.855520 1_555
Zn66 Zn99 3.019549 1_555
Zn67 Zn70 2.855761 1_555
Zn68 Zn88 2.597457 1_555
Zn68 Zn87 2.597481 1_555
Zn68 Zn8 2.610024 1_556
Zn68 Zn69 2.802561 1_555
Zn68 Zn70 2.802591 1_555
Zn69 Zn88 2.597549 1_555
Zn69 Zn86 2.597549 1_555
Zn69 Zn9 2.610045 1_555
Zn69 Zn70 2.802561 1_555
Zn70 Zn86 2.597457 1_555
Zn70 Zn87 2.597481 1_555
Zn71 Zn91 2.597457 1_555
Zn71 Zn90 2.597481 1_555
Zn71 Zn8 2.610024 1_555
Zn71 Zn72 2.802561 1_555
Zn71 Zn73 2.802591 1_555
Zn72 Zn89 2.597549 1_555
Zn72 Zn91 2.597549 1_555
Zn72 Zn9 2.610045 1_555
Zn72 Zn73 2.802561 1_555
Zn73 Zn89 2.597457 1_555
Zn73 Zn90 2.597481 1_555
Zn74 Zn82 2.597457 1_555
Zn74 Zn81 2.597481 1_555
Zn74 Zn75 2.802561 1_555
Zn74 Zn76 2.802591 1_555
Zn75 Zn80 2.597549 1_555
Zn75 Zn82 2.597549 1_555
Zn75 Zn76 2.802561 1_555
Zn76 Zn80 2.597457 1_555
Zn76 Zn81 2.597481 1_555
Zn77 Zn85 2.597457 1_555
Zn77 Zn84 2.597481 1_555
Zn77 Zn78 2.802561 1_555
Zn77 Zn79 2.802591 1_555
Zn78 Zn85 2.597549 1_555
Zn78 Zn83 2.597549 1_555
Zn78 Zn79 2.802561 1_555
Zn79 Zn83 2.597457 1_555
Zn79 Zn84 2.597481 1_555
Zn80 Zn89 2.596498 1_555
Zn81 Zn90 2.596603 1_555
Zn82 Zn91 2.596498 1_555
Zn83 Zn86 2.596498 1_555
Zn84 Zn87 2.596603 1_555
Zn85 Zn88 2.596498 1_555
Zn86 Zn96 2.587980 1_555
Zn86 Zn93 2.588026 1_555
Zn87 Zn94 2.587975 1_555
Zn87 Zn95 2.587975 1_555
Zn88 Zn92 2.587980 1_555
Zn88 Zn97 2.588026 1_555
Zn89 Zn99 2.588026 1_555
Zn91 Zn98 2.587980 1_555
Zn100 Zn38 2.567894 1_565
Zn100 Zn24 2.576894 1_565
Zn100 Zn90 2.587975 1_555
Zn100 Zn67 3.019428 1_565
Zn101 Zn42 2.567894 1_554
Zn101 Zn20 2.576894 1_554
Zn101 Zn90 2.587975 1_555
Zn101 Zn8 2.647617 1_555
Zn101 Zn65 3.019428 1_554
Zn102 Zn43 2.567882 1_565
Zn102 Zn22 2.576893 1_555
Zn102 Zn89 2.587980 1_555
Zn102 Zn67 3.019457 1_565
Zn103 Zn41 2.567902 1_555
Zn103 Zn21 2.576884 1_555
Zn103 Zn91 2.588026 1_555
Zn103 Zn9 2.647632 1_555
Zn103 Zn66 3.019549 1_555
Zn104 Zn39 2.567882 1_554
Zn104 Zn26 2.576893 1_455
Zn104 Zn82 2.587980 1_555
Zn104 Zn11 2.647628 1_555
Zn104 Zn56 3.019457 1_554
Zn105 Zn40 2.567902 1_555
Zn105 Zn27 2.576884 1_555
Zn105 Zn80 2.588026 1_555
Zn105 Zn12 2.647632 1_555
Zn105 Zn57 3.019549 1_555
Zn106 Zn38 2.567894 1_565
Zn106 Zn28 2.576894 1_565
Zn106 Zn81 2.587975 1_555
Zn106 Zn13 2.647617 1_565
Zn106 Zn58 3.019428 1_565
Zn107 Zn42 2.567894 1_554
Zn107 Zn29 2.576894 1_554
Zn107 Zn81 2.587975 1_555
Zn107 Zn11 2.647617 1_555
Zn107 Zn56 3.019428 1_554
Zn108 Zn43 2.567882 1_565
Zn108 Zn30 2.576893 1_455
Zn108 Zn80 2.587980 1_555
Zn108 Zn13 2.647628 1_565
Zn108 Zn58 3.019457 1_565
Zn109 Zn41 2.567902 1_555
Zn109 Zn31 2.576884 1_555
Zn109 Zn82 2.588026 1_555
Zn109 Zn12 2.647632 1_555
Zn109 Zn57 3.019549 1_555
Zn110 Zn33 2.567882 1_556
Zn110 Zn29 2.576893 1_655
Zn110 Zn85 2.587980 1_555
Zn110 Zn59 3.019457 1_556
Zn111 Zn34 2.567902 1_555
Zn111 Zn31 2.576884 1_655
Zn111 Zn83 2.588026 1_555
Zn111 Zn12 2.647632 1_655
Zn111 Zn60 3.019549 1_555
Zn112 Zn32 2.567894 1_545
Zn112 Zn30 2.576894 1_545
Zn112 Zn84 2.587975 1_555
Zn112 Zn13 2.647617 1_655
Zn112 Zn61 3.019428 1_545
Zn113 Zn36 2.567894 1_556
Zn113 Zn26 2.576894 1_556
Zn113 Zn84 2.587975 1_555
Zn113 Zn59 3.019428 1_556
Zn114 Zn37 2.567882 1_545
Zn114 Zn28 2.576893 1_655
Zn114 Zn83 2.587980 1_555
Zn114 Zn13 2.647628 1_655
Zn114 Zn61 3.019457 1_545
Zn115 Zn35 2.567902 1_555
Zn115 Zn27 2.576884 1_655
Zn115 Zn85 2.588026 1_555
Zn115 Zn12 2.647632 1_655
Zn115 Zn60 3.019549 1_555
