# generated using pymatgen
data_Ho2CuGe6
_symmetry_space_group_name_H-M   'P 1'
_cell_length_a   4.08523500
_cell_length_b   4.05961600
_cell_length_c   10.90985149
_cell_angle_alpha   100.72251154
_cell_angle_beta   90.00000000
_cell_angle_gamma   90.00000000
_symmetry_Int_Tables_number   1
_chemical_formula_structural   Ho2CuGe6
_chemical_formula_sum   'Ho2 Cu1 Ge6'
_cell_volume   177.77511885
_cell_formula_units_Z   1
loop_
 _symmetry_equiv_pos_site_id
 _symmetry_equiv_pos_as_xyz
  1  'x, y, z'
loop_
 _atom_site_type_symbol
 _atom_site_label
 _atom_site_symmetry_multiplicity
 _atom_site_fract_x
 _atom_site_fract_y
 _atom_site_fract_z
 _atom_site_occupancy
  Ho  Ho0  1  0.00000000  0.00443200  0.00886300  1
  Ho  Ho1  1  0.00000000  0.66926600  0.33853300  1
  Cu  Cu0  1  0.50000000  0.22411400  0.44822800  1
  Ge  Ge0  1  0.00000000  0.28509700  0.57019400  1
  Ge  Ge1  1  0.00000000  0.40163100  0.80326100  1
  Ge  Ge2  1  0.50000000  0.54344700  0.08689500  1
  Ge  Ge3  1  0.50000000  0.11576500  0.23153100  1
  Ge  Ge4  1  0.50000000  0.90229700  0.80459400  1
  Ge  Ge5  1  0.50000000  0.78495100  0.56990100  1
loop_
_geom_bond_atom_site_label_1
_geom_bond_atom_site_label_2
_geom_bond_distance
_geom_bond_site_symmetry_2
Cu0 Ge3 2.322854 1_555
Cu0 Ge5 2.412716 1_545
Cu0 Ge5 2.412720 1_555
Cu0 Ge0 2.425196 1_555
Cu0 Ge0 2.425196 1_655
Cu0 Ho1 3.110474 1_655
Cu0 Ho1 3.110474 1_555
Cu0 Ho1 3.110476 1_645
Cu0 Ho1 3.110476 1_545
Ge0 Ge1 2.498330 1_555
Ge0 Ge5 2.879654 1_445
Ge0 Ge5 2.879654 1_545
Ge0 Ge5 2.879657 1_555
Ge0 Ge5 2.879657 1_455
Ge0 Ho1 3.207286 1_555
Ge0 Ho1 3.207289 1_545
Ge1 Ge4 2.879688 1_555
Ge1 Ge4 2.879688 1_455
Ge1 Ge4 2.879691 1_545
Ge1 Ge4 2.879691 1_445
Ge1 Ho0 2.996230 1_556
Ge1 Ho0 2.996230 1_566
Ge2 Ge3 2.554188 1_555
Ge2 Ge3 2.554189 1_565
Ge2 Ho0 2.998674 1_655
Ge2 Ho0 2.998674 1_555
Ge2 Ho0 2.998679 1_565
Ge2 Ho0 2.998679 1_665
Ge2 Ho1 3.383526 1_655
Ge2 Ho1 3.383526 1_555
Ge3 Ho1 3.099677 1_545
Ge3 Ho1 3.099677 1_645
Ge3 Ho1 3.099678 1_655
Ge3 Ho1 3.099678 1_555
Ge3 Ho0 3.141557 1_555
Ge3 Ho0 3.141557 1_655
Ge4 Ge5 2.515759 1_555
Ge4 Ho0 2.994458 1_566
Ge4 Ho0 2.994458 1_666
Ge5 Ho1 3.212985 1_555
Ge5 Ho1 3.212985 1_655
