# generated using pymatgen
data_NaMn8O16
_symmetry_space_group_name_H-M   'P 1'
_cell_length_a   5.74078357
_cell_length_b   9.68202694
_cell_length_c   9.81149538
_cell_angle_alpha   89.54755997
_cell_angle_beta   90.00022928
_cell_angle_gamma   89.99978724
_symmetry_Int_Tables_number   1
_chemical_formula_structural   NaMn8O16
_chemical_formula_sum   'Na2 Mn16 O32'
_cell_volume   545.32966588
_cell_formula_units_Z   2
loop_
 _symmetry_equiv_pos_site_id
 _symmetry_equiv_pos_as_xyz
  1  'x, y, z'
loop_
 _atom_site_type_symbol
 _atom_site_label
 _atom_site_symmetry_multiplicity
 _atom_site_fract_x
 _atom_site_fract_y
 _atom_site_fract_z
 _atom_site_occupancy
  Na  Na0  1  0.24961953  0.49339188  0.50075022  1
  Na  Na1  1  0.50081060  0.99338342  0.00075800  1
  Mn  Mn0  1  0.50068317  0.34144223  0.83442169  1
  Mn  Mn1  1  0.99921537  0.34007605  0.83440387  1
  Mn  Mn2  1  0.50082941  0.82441964  0.64999955  1
  Mn  Mn3  1  0.99937213  0.82405625  0.65120483  1
  Mn  Mn4  1  0.99935212  0.16140477  0.35085808  1
  Mn  Mn5  1  0.50073485  0.16110285  0.35206056  1
  Mn  Mn6  1  0.99911445  0.64553088  0.16745065  1
  Mn  Mn7  1  0.50059399  0.64410937  0.16742928  1
  Mn  Mn8  1  0.75075339  0.84019182  0.33442945  1
  Mn  Mn9  1  0.24928892  0.84154820  0.33445382  1
  Mn  Mn10  1  0.75061486  0.32416963  0.15116784  1
  Mn  Mn11  1  0.24916905  0.32453275  0.14994117  1
  Mn  Mn12  1  0.75063777  0.66131847  0.85090089  1
  Mn  Mn13  1  0.24925081  0.66102971  0.85209676  1
  Mn  Mn14  1  0.75086079  0.14540374  0.66742844  1
  Mn  Mn15  1  0.24937232  0.14397461  0.66741590  1
  O  O0  1  0.74964947  0.66232007  0.04359059  1
  O  O1  1  0.25008719  0.66215856  0.04415525  1
  O  O2  1  0.75007003  0.03519155  0.34176379  1
  O  O3  1  0.25004881  0.03577040  0.34168593  1
  O  O4  1  0.75016183  0.95037171  0.66021954  1
  O  O5  1  0.25008490  0.94972924  0.66029778  1
  O  O6  1  0.74971804  0.32330677  0.95835782  1
  O  O7  1  0.25013315  0.32345201  0.95780473  1
  O  O8  1  0.00032831  0.16211448  0.54356798  1
  O  O9  1  0.49989154  0.16195045  0.54413464  1
  O  O10  1  0.99991280  0.53509438  0.84187238  1
  O  O11  1  0.49993259  0.53567286  0.84177438  1
  O  O12  1  0.49990510  0.44987015  0.16014753  1
  O  O13  1  0.99983105  0.45050653  0.16004711  1
  O  O14  1  0.49984552  0.82360781  0.45785703  1
  O  O15  1  0.00024739  0.82347442  0.45840037  1
  O  O16  1  0.49970587  0.84099863  0.20335004  1
  O  O17  1  0.00021495  0.84005452  0.20577655  1
  O  O18  1  0.00028227  0.19385058  0.15760467  1
  O  O19  1  0.49963469  0.19148470  0.15655256  1
  O  O20  1  0.00029193  0.14554875  0.79613953  1
  O  O21  1  0.49978878  0.14461507  0.79856563  1
  O  O22  1  0.49970643  0.79407311  0.84552598  1
  O  O23  1  0.00030903  0.79166066  0.84443693  1
  O  O24  1  0.74974816  0.33992647  0.70571804  1
  O  O25  1  0.25026829  0.34087695  0.70329748  1
  O  O26  1  0.74971151  0.69373285  0.65760333  1
  O  O27  1  0.25037659  0.69137089  0.65654338  1
  O  O28  1  0.74966691  0.64567007  0.29617182  1
  O  O29  1  0.25018661  0.64473082  0.29858697  1
  O  O30  1  0.74968229  0.29176791  0.34443406  1
  O  O31  1  0.25029946  0.29417037  0.34553022  1
loop_
_geom_bond_atom_site_label_1
_geom_bond_atom_site_label_2
_geom_bond_distance
_geom_bond_site_symmetry_2
Na0 O29 2.456723 1_555
Na0 O27 2.461111 1_555
Na0 O25 2.466476 1_555
Na0 O31 2.467040 1_555
Na1 O21 2.456344 1_564
Na1 O19 2.462053 1_565
Na1 O16 2.466087 1_555
Na1 O22 2.467795 1_554
Mn0 O11 1.882503 1_555
Mn0 O6 1.884147 1_555
Mn0 O7 1.887159 1_555
Mn0 O24 1.907756 1_555
Mn0 O25 1.929223 1_555
Mn0 O21 1.940623 1_555
Mn1 O6 1.885165 1_555
Mn1 O7 1.887766 1_655
Mn1 O10 1.890176 1_555
Mn1 O24 1.909239 1_555
Mn1 O20 1.923387 1_655
Mn1 O25 1.931783 1_655
Mn2 O4 1.883590 1_555
Mn2 O14 1.885292 1_555
Mn2 O5 1.885785 1_555
Mn2 O26 1.909577 1_555
Mn2 O27 1.931191 1_555
Mn2 O22 1.938492 1_555
Mn3 O4 1.884680 1_555
Mn3 O5 1.887263 1_655
Mn3 O15 1.891760 1_655
Mn3 O26 1.910243 1_555
Mn3 O23 1.919228 1_655
Mn3 O27 1.930906 1_655
Mn4 O2 1.884397 1_555
Mn4 O3 1.886986 1_655
Mn4 O8 1.890847 1_655
Mn4 O30 1.910536 1_555
Mn4 O18 1.919510 1_655
Mn4 O31 1.931183 1_655
Mn5 O2 1.883384 1_555
Mn5 O9 1.884623 1_555
Mn5 O3 1.885722 1_555
Mn5 O30 1.909734 1_555
Mn5 O31 1.931226 1_555
Mn5 O19 1.938362 1_555
Mn6 O0 1.884438 1_555
Mn6 O1 1.887355 1_655
Mn6 O13 1.890205 1_555
Mn6 O28 1.909391 1_555
Mn6 O17 1.923476 1_655
Mn6 O29 1.932054 1_655
Mn7 O12 1.882554 1_555
Mn7 O0 1.883694 1_555
Mn7 O1 1.886327 1_555
Mn7 O28 1.908041 1_555
Mn7 O29 1.929422 1_555
Mn7 O16 1.941334 1_555
Mn8 O15 1.885209 1_655
Mn8 O14 1.887868 1_555
Mn8 O2 1.889935 1_565
Mn8 O17 1.909008 1_655
Mn8 O28 1.923321 1_555
Mn8 O16 1.931576 1_555
Mn9 O3 1.882368 1_565
Mn9 O15 1.884198 1_555
Mn9 O14 1.887265 1_555
Mn9 O17 1.907613 1_555
Mn9 O16 1.929105 1_555
Mn9 O29 1.940550 1_555
Mn10 O13 1.884778 1_555
Mn10 O12 1.887358 1_555
Mn10 O6 1.891846 1_554
Mn10 O18 1.910248 1_655
Mn10 O30 1.919568 1_555
Mn10 O19 1.930817 1_555
Mn11 O13 1.883679 1_455
Mn11 O7 1.885266 1_554
Mn11 O12 1.885875 1_555
Mn11 O18 1.909595 1_555
Mn11 O19 1.931252 1_555
Mn11 O31 1.939122 1_555
Mn12 O10 1.884395 1_555
Mn12 O11 1.887076 1_555
Mn12 O0 1.890684 1_556
Mn12 O23 1.910427 1_655
Mn12 O26 1.919890 1_555
Mn12 O22 1.931047 1_555
Mn13 O10 1.883511 1_455
Mn13 O1 1.884505 1_556
Mn13 O11 1.885819 1_555
Mn13 O23 1.909494 1_555
Mn13 O22 1.931176 1_555
Mn13 O27 1.938746 1_555
Mn14 O8 1.884399 1_655
Mn14 O9 1.887259 1_555
Mn14 O4 1.890192 1_545
Mn14 O20 1.909247 1_655
Mn14 O24 1.923395 1_555
Mn14 O21 1.932067 1_555
Mn15 O5 1.882541 1_545
Mn15 O8 1.883633 1_555
Mn15 O9 1.886373 1_555
Mn15 O20 1.907959 1_555
Mn15 O21 1.929403 1_555
Mn15 O25 1.941386 1_555
