# generated using pymatgen
data_Sn4TeSe3
_symmetry_space_group_name_H-M   'P 1'
_cell_length_a   4.26160800
_cell_length_b   4.71749000
_cell_length_c   11.97675838
_cell_angle_alpha   89.52051708
_cell_angle_beta   90.00000000
_cell_angle_gamma   90.00000000
_symmetry_Int_Tables_number   1
_chemical_formula_structural   Sn4TeSe3
_chemical_formula_sum   'Sn4 Te1 Se3'
_cell_volume   240.77343454
_cell_formula_units_Z   1
loop_
 _symmetry_equiv_pos_site_id
 _symmetry_equiv_pos_as_xyz
  1  'x, y, z'
loop_
 _atom_site_type_symbol
 _atom_site_label
 _atom_site_symmetry_multiplicity
 _atom_site_fract_x
 _atom_site_fract_y
 _atom_site_fract_z
 _atom_site_occupancy
  Sn  Sn0  1  0.50000000  0.58735100  0.62064700  1
  Sn  Sn1  1  0.50000000  0.88555800  0.12277000  1
  Sn  Sn2  1  0.00000000  0.38338200  0.37663800  1
  Sn  Sn3  1  0.00000000  0.12242400  0.88725600  1
  Te  Te0  1  0.00000000  0.01948700  0.64311300  1
  Se  Se0  1  0.50000000  0.50536500  0.85169300  1
  Se  Se1  1  0.50000000  0.99751200  0.34936900  1
  Se  Se2  1  0.00000000  0.49892100  0.14851500  1
loop_
_geom_bond_atom_site_label_1
_geom_bond_atom_site_label_2
_geom_bond_distance
_geom_bond_site_symmetry_2
Sn0 Te0 2.962732 1_665
Sn0 Te0 2.962732 1_565
Sn0 Te0 3.431782 1_655
Sn0 Te0 3.431782 1_555
Sn3 Te0 2.968096 1_555
Se0 Sn0 2.790873 1_555
Se0 Sn3 2.823540 1_655
Se0 Sn3 2.823540 1_555
Se1 Sn1 2.769168 1_555
Se1 Sn2 2.823220 1_665
Se1 Sn2 2.823220 1_565
Se2 Sn2 2.781535 1_555
Se2 Sn1 2.820072 1_555
Se2 Sn1 2.820072 1_455
