# generated using pymatgen
data_NpGa5Rh
_symmetry_space_group_name_H-M   'P 1'
_cell_length_a   4.30208811
_cell_length_b   4.28023636
_cell_length_c   6.89829290
_cell_angle_alpha   90.00000000
_cell_angle_beta   90.00000000
_cell_angle_gamma   90.00000000
_symmetry_Int_Tables_number   1
_chemical_formula_structural   NpGa5Rh
_chemical_formula_sum   'Np1 Ga5 Rh1'
_cell_volume   127.02484781
_cell_formula_units_Z   1
loop_
 _symmetry_equiv_pos_site_id
 _symmetry_equiv_pos_as_xyz
  1  'x, y, z'
loop_
 _atom_site_type_symbol
 _atom_site_label
 _atom_site_symmetry_multiplicity
 _atom_site_fract_x
 _atom_site_fract_y
 _atom_site_fract_z
 _atom_site_occupancy
  Np  Np0  1  -0.00000000  0.00000000  0.00000000  1
  Ga  Ga0  1  -0.00000000  0.50000000  0.30349264  1
  Ga  Ga1  1  -0.00000000  0.50000000  0.69650736  1
  Ga  Ga2  1  0.50000000  -0.00000000  0.30324775  1
  Ga  Ga3  1  0.50000000  -0.00000000  0.69675225  1
  Ga  Ga4  1  0.50000000  0.50000000  0.00000000  1
  Rh  Rh0  1  0.00000000  0.00000000  0.50000000  1
loop_
_geom_bond_atom_site_label_1
_geom_bond_atom_site_label_2
_geom_bond_distance
_geom_bond_site_symmetry_2
Ga0 Rh0 2.533311 1_555
Ga0 Rh0 2.533311 1_565
Ga0 Ga1 2.711131 1_555
Ga0 Np0 2.993858 1_565
Ga0 Np0 2.993858 1_555
Ga0 Ga4 3.001678 1_455
Ga0 Ga4 3.001678 1_555
Ga0 Ga2 3.034320 1_555
Ga0 Ga2 3.034320 1_455
Ga0 Ga2 3.034320 1_465
Ga0 Ga2 3.034320 1_565
Ga1 Rh0 2.533311 1_555
Ga1 Rh0 2.533311 1_565
Ga1 Np0 2.993858 1_556
Ga1 Np0 2.993858 1_566
Ga1 Ga4 3.001678 1_456
Ga1 Ga4 3.001678 1_556
Ga1 Ga3 3.034320 1_565
Ga1 Ga3 3.034320 1_555
Ga1 Ga3 3.034320 1_465
Ga1 Ga3 3.034320 1_455
Ga2 Rh0 2.543449 1_655
Ga2 Rh0 2.543449 1_555
Ga2 Ga3 2.714509 1_555
Ga2 Ga4 2.992677 1_545
Ga2 Ga4 2.992677 1_555
Ga2 Np0 3.000500 1_655
Ga2 Np0 3.000500 1_555
Ga3 Rh0 2.543449 1_655
Ga3 Rh0 2.543449 1_555
Ga3 Ga4 2.992677 1_556
Ga3 Ga4 2.992677 1_546
Ga3 Np0 3.000500 1_656
Ga3 Np0 3.000500 1_556
Ga4 Np0 3.034320 1_555
Ga4 Np0 3.034320 1_655
Ga4 Np0 3.034320 1_665
Ga4 Np0 3.034320 1_565
