# generated using pymatgen
data_Y4Mg(BiO3)4
_symmetry_space_group_name_H-M   'P 1'
_cell_length_a   5.82364718
_cell_length_b   5.77247531
_cell_length_c   10.79820888
_cell_angle_alpha   90.77219292
_cell_angle_beta   88.43910568
_cell_angle_gamma   95.97976603
_symmetry_Int_Tables_number   1
_chemical_formula_structural   Y4Mg(BiO3)4
_chemical_formula_sum   'Y4 Mg1 Bi4 O12'
_cell_volume   360.87205883
_cell_formula_units_Z   1
loop_
 _symmetry_equiv_pos_site_id
 _symmetry_equiv_pos_as_xyz
  1  'x, y, z'
loop_
 _atom_site_type_symbol
 _atom_site_label
 _atom_site_symmetry_multiplicity
 _atom_site_fract_x
 _atom_site_fract_y
 _atom_site_fract_z
 _atom_site_occupancy
  Y  Y0  1  0.03400400  0.96161500  0.73926600  1
  Y  Y1  1  0.56486100  0.53121900  0.26623600  1
  Y  Y2  1  0.45564800  0.44667000  0.73634800  1
  Y  Y3  1  0.00617800  0.03376500  0.28713100  1
  Mg  Mg0  1  0.27972500  0.38199900  0.02975800  1
  Bi  Bi0  1  0.01312200  0.53128800  0.50924000  1
  Bi  Bi1  1  0.52137400  0.98008800  0.50327500  1
  Bi  Bi2  1  0.55230400  0.97943700  0.94840800  1
  Bi  Bi3  1  0.89313800  0.60323400  0.98818900  1
  O  O0  1  0.73032000  0.25983900  0.36564600  1
  O  O1  1  0.20628500  0.22438000  0.61116800  1
  O  O2  1  0.82255800  0.80957800  0.15235300  1
  O  O3  1  0.33278900  0.65631700  0.89377800  1
  O  O4  1  0.28220900  0.72945300  0.62844800  1
  O  O5  1  0.78018400  0.77027700  0.41180300  1
  O  O6  1  0.24520600  0.16043500  0.88402700  1
  O  O7  1  0.60646000  0.38611700  0.06793600  1
  O  O8  1  0.22659800  0.33465100  0.21532700  1
  O  O9  1  0.70525600  0.14405000  0.77968200  1
  O  O10  1  0.30031700  0.82700100  0.36016200  1
  O  O11  1  0.79562600  0.63400800  0.66467600  1
loop_
_geom_bond_atom_site_label_1
_geom_bond_atom_site_label_2
_geom_bond_distance
_geom_bond_site_symmetry_2
Mg0 O7 1.955549 1_555
Mg0 O6 2.015421 1_554
Mg0 O8 2.036924 1_555
Mg0 O3 2.166787 1_554
Bi0 O11 2.187894 1_455
Bi0 O4 2.262277 1_555
Bi0 O5 2.314566 1_455
Bi0 O1 2.480063 1_555
Bi0 O0 2.666057 1_455
Bi0 O10 2.763165 1_555
Bi1 O10 2.158910 1_555
Bi1 O5 2.231848 1_555
Bi1 O4 2.321712 1_555
Bi1 O0 2.419465 1_565
Bi1 O1 2.662972 1_565
Bi2 O9 2.190366 1_565
Bi2 O3 2.230659 1_555
Bi2 O6 2.291297 1_565
Bi2 O7 2.657552 1_566
Bi3 O7 2.148110 1_556
Bi3 O2 2.176118 1_556
O0 Y1 2.225080 1_555
O0 Y3 2.309865 1_655
O1 Y0 2.210092 1_545
O1 Y2 2.292266 1_555
O2 Y3 2.163788 1_665
O2 Y1 2.407616 1_555
O3 Y2 2.219240 1_555
O4 Y2 2.345466 1_555
O4 Y0 2.362931 1_555
O5 Y3 2.323672 1_665
O5 Y1 2.373992 1_555
O6 Y0 2.244044 1_545
O6 Y2 2.513485 1_555
O7 Y1 2.304568 1_555
O8 Y3 2.187041 1_555
O8 Y1 2.246501 1_555
O9 Y0 2.308033 1_645
O9 Y2 2.443706 1_555
O10 Y3 2.346404 1_565
O10 Y1 2.594919 1_555
O11 Y2 2.276275 1_555
O11 Y0 2.371719 1_655
