# generated using pymatgen
data_MnH3C5NO6
_symmetry_space_group_name_H-M   'P 1'
_cell_length_a   7.98622324
_cell_length_b   7.98622324
_cell_length_c   8.69781974
_cell_angle_alpha   63.04134395
_cell_angle_beta   63.04134395
_cell_angle_gamma   61.50366101
_symmetry_Int_Tables_number   1
_chemical_formula_structural   MnH3C5NO6
_chemical_formula_sum   'Mn2 H6 C10 N2 O12'
_cell_volume   414.18207402
_cell_formula_units_Z   2
loop_
 _symmetry_equiv_pos_site_id
 _symmetry_equiv_pos_as_xyz
  1  'x, y, z'
loop_
 _atom_site_type_symbol
 _atom_site_label
 _atom_site_symmetry_multiplicity
 _atom_site_fract_x
 _atom_site_fract_y
 _atom_site_fract_z
 _atom_site_occupancy
  Mn  Mn0  1  0.49735000  0.99978600  0.50021700  1
  Mn  Mn1  1  0.99978600  0.49735000  0.00021700  1
  H  H0  1  0.74518600  0.65457600  0.74287100  1
  H  H1  1  0.15154300  0.85135800  0.74698100  1
  H  H2  1  0.33983100  0.25501400  0.75943500  1
  H  H3  1  0.85135800  0.15154300  0.24698100  1
  H  H4  1  0.65457600  0.74518600  0.24287100  1
  H  H5  1  0.25501400  0.33983100  0.25943500  1
  C  C0  1  0.74403000  0.79288900  0.74405700  1
  C  C1  1  0.28497600  0.71526400  0.74883200  1
  C  C2  1  0.20316700  0.25513900  0.75692200  1
  C  C3  1  0.71526400  0.28497600  0.24883200  1
  C  C4  1  0.79288900  0.74403000  0.24405700  1
  C  C5  1  0.25513900  0.20316700  0.25692200  1
  C  C6  1  0.78451700  0.30612000  0.58121400  1
  C  C7  1  0.30612000  0.78451700  0.08121400  1
  C  C8  1  0.19666300  0.67412900  0.41911500  1
  C  C9  1  0.67412900  0.19666300  0.91911500  1
  N  N0  1  0.73054300  0.25176400  0.74994100  1
  N  N1  1  0.25176400  0.73054300  0.24994100  1
  O  O0  1  0.64768700  0.96200300  0.64950300  1
  O  O1  1  0.45574700  0.73321200  0.65541200  1
  O  O2  1  0.21413700  0.16337000  0.66585500  1
  O  O3  1  0.73321200  0.45574700  0.15541200  1
  O  O4  1  0.96200300  0.64768700  0.14950300  1
  O  O5  1  0.16337000  0.21413700  0.16585500  1
  O  O6  1  0.35073700  0.03426600  0.35000600  1
  O  O7  1  0.54337700  0.26373400  0.34354000  1
  O  O8  1  0.78315200  0.83360600  0.33515000  1
  O  O9  1  0.26373400  0.54337700  0.84354000  1
  O  O10  1  0.03426600  0.35073700  0.85000600  1
  O  O11  1  0.83360600  0.78315200  0.83515000  1
loop_
_geom_bond_atom_site_label_1
_geom_bond_atom_site_label_2
_geom_bond_distance
_geom_bond_site_symmetry_2
Mn0 O6 1.976598 1_565
Mn0 O0 1.982707 1_555
Mn0 O7 2.028853 1_565
Mn0 O1 2.031625 1_555
Mn0 O2 2.197848 1_565
Mn0 O8 2.213200 1_555
Mn1 O10 1.976598 1_654
Mn1 O4 1.982707 1_555
Mn1 O9 2.028853 1_654
Mn1 O3 2.031625 1_555
Mn1 O5 2.197848 1_655
Mn1 O11 2.213200 1_554
C0 H0 1.104918 1_555
C0 O11 1.245203 1_555
C0 O0 1.291319 1_555
C1 H1 1.100747 1_555
C1 O1 1.271588 1_555
C1 O9 1.289168 1_555
C2 H2 1.101030 1_555
C2 O2 1.254733 1_555
C2 O10 1.282751 1_555
C3 H3 1.100747 1_555
C3 O3 1.271588 1_555
C3 O7 1.289168 1_555
C4 H4 1.104918 1_555
C4 O8 1.245203 1_555
C4 O4 1.291319 1_555
C5 H5 1.101030 1_555
C5 O5 1.254733 1_555
C5 O6 1.282751 1_555
C6 N0 1.247128 1_555
C7 N1 1.247128 1_555
C8 N1 1.250112 1_555
C9 N0 1.250112 1_555
