# generated using pymatgen
data_Ho5SbAu2
_symmetry_space_group_name_H-M   'P 1'
_cell_length_a   8.63034469
_cell_length_b   8.63034469
_cell_length_c   8.63034469
_cell_angle_alpha   124.13371251
_cell_angle_beta   124.13371251
_cell_angle_gamma   82.97789596
_symmetry_Int_Tables_number   1
_chemical_formula_structural   Ho5SbAu2
_chemical_formula_sum   'Ho10 Sb2 Au4'
_cell_volume   422.65342709
_cell_formula_units_Z   2
loop_
 _symmetry_equiv_pos_site_id
 _symmetry_equiv_pos_as_xyz
  1  'x, y, z'
loop_
 _atom_site_type_symbol
 _atom_site_label
 _atom_site_symmetry_multiplicity
 _atom_site_fract_x
 _atom_site_fract_y
 _atom_site_fract_z
 _atom_site_occupancy
  Ho  Ho0  1  0.50000000  0.50000000  0.00000000  1
  Ho  Ho1  1  0.00000000  0.00000000  0.00000000  1
  Ho  Ho2  1  0.51457200  0.01457200  0.81350100  1
  Ho  Ho3  1  0.20107200  0.70107200  0.18649900  1
  Ho  Ho4  1  0.01457200  0.20107200  0.50000000  1
  Ho  Ho5  1  0.70107200  0.51457200  0.50000000  1
  Ho  Ho6  1  0.48542800  0.98542800  0.18649900  1
  Ho  Ho7  1  0.79892800  0.29892800  0.81350100  1
  Ho  Ho8  1  0.98542800  0.79892800  0.50000000  1
  Ho  Ho9  1  0.29892800  0.48542800  0.50000000  1
  Sb  Sb0  1  0.25000000  0.25000000  0.00000000  1
  Sb  Sb1  1  0.75000000  0.75000000  0.00000000  1
  Au  Au0  1  0.13653400  0.63653400  0.77306900  1
  Au  Au1  1  0.86346600  0.36346600  0.22693100  1
  Au  Au2  1  0.63653400  0.86346600  0.50000000  1
  Au  Au3  1  0.36346600  0.13653400  0.50000000  1
loop_
_geom_bond_atom_site_label_1
_geom_bond_atom_site_label_2
_geom_bond_distance
_geom_bond_site_symmetry_2
Ho0 Sb1 3.232425 1_555
Ho0 Sb0 3.232425 1_555
Ho1 Sb0 3.232425 1_555
Ho1 Sb1 3.232425 1_445
Ho2 Sb0 3.354494 1_556
Ho2 Sb1 3.354494 1_546
Ho3 Sb0 3.354499 1_555
Ho3 Sb1 3.354499 1_455
Ho4 Sb0 3.354498 1_556
Ho4 Sb1 3.354498 1_445
Ho5 Sb0 3.354498 1_555
Ho5 Sb1 3.354498 1_556
Ho6 Sb0 3.354494 1_565
Ho6 Sb1 3.354494 1_555
Ho7 Sb0 3.354499 1_656
Ho7 Sb1 3.354499 1_556
Ho8 Sb0 3.354498 1_666
Ho8 Sb1 3.354498 1_555
Ho9 Sb1 3.354498 1_556
Ho9 Sb0 3.354498 1_555
Au0 Ho3 2.994435 1_556
Au0 Ho6 2.994451 1_556
Au0 Ho4 3.004925 1_555
Au0 Ho5 3.004925 1_455
Au0 Ho9 3.004933 1_555
Au0 Ho8 3.004933 1_455
Au0 Ho0 3.139352 1_556
Au0 Ho1 3.139352 1_566
Au1 Ho7 2.994435 1_554
Au1 Ho2 2.994451 1_554
Au1 Ho9 3.004925 1_655
Au1 Ho8 3.004925 1_555
Au1 Ho4 3.004933 1_655
Au1 Ho5 3.004933 1_555
Au1 Ho0 3.139352 1_555
Au1 Ho1 3.139352 1_655
Au2 Ho5 2.994452 1_555
Au2 Ho8 2.994452 1_555
Au2 Ho3 3.004926 1_555
Au2 Ho7 3.004926 1_565
Au2 Ho2 3.004934 1_565
Au2 Ho6 3.004934 1_555
Au2 Ho0 3.139354 1_555
Au2 Ho1 3.139354 1_666
Au3 Ho9 2.994452 1_555
Au3 Ho4 2.994452 1_555
Au3 Ho7 3.004926 1_555
Au3 Ho3 3.004926 1_545
Au3 Ho2 3.004934 1_555
Au3 Ho6 3.004934 1_545
Au3 Ho1 3.139354 1_555
Au3 Ho0 3.139354 1_556
