# generated using pymatgen
data_BaO3
_symmetry_space_group_name_H-M   'P 1'
_cell_length_a   3.47249600
_cell_length_b   5.15726700
_cell_length_c   7.52541500
_cell_angle_alpha   90.00000000
_cell_angle_beta   90.00000000
_cell_angle_gamma   90.00000000
_symmetry_Int_Tables_number   1
_chemical_formula_structural   BaO3
_chemical_formula_sum   'Ba2 O6'
_cell_volume   134.76956450
_cell_formula_units_Z   2
loop_
 _symmetry_equiv_pos_site_id
 _symmetry_equiv_pos_as_xyz
  1  'x, y, z'
loop_
 _atom_site_type_symbol
 _atom_site_label
 _atom_site_symmetry_multiplicity
 _atom_site_fract_x
 _atom_site_fract_y
 _atom_site_fract_z
 _atom_site_occupancy
  Ba  Ba0  1  0.50000000  0.32970500  0.98379900  1
  Ba  Ba1  1  0.50000000  0.67029500  0.48379900  1
  O  O0  1  0.50000000  0.16323800  0.62427000  1
  O  O1  1  0.50000000  0.83676200  0.12427000  1
  O  O2  1  0.00000000  0.89006500  0.06590600  1
  O  O3  1  0.00000000  0.10993500  0.56590600  1
  O  O4  1  0.00000000  0.43560300  0.25382400  1
  O  O5  1  0.00000000  0.56439700  0.75382400  1
loop_
_geom_bond_atom_site_label_1
_geom_bond_atom_site_label_2
_geom_bond_distance
_geom_bond_site_symmetry_2
Ba0 O4 2.728014 1_656
Ba0 O4 2.728014 1_556
Ba0 O5 2.733994 1_555
Ba0 O5 2.733994 1_655
Ba0 O1 2.753260 1_546
Ba0 O1 2.820610 1_556
Ba0 O0 2.838546 1_555
Ba0 O2 2.921845 1_646
Ba0 O2 2.921845 1_546
Ba1 O5 2.728014 1_655
Ba1 O5 2.728014 1_555
Ba1 O4 2.733994 1_655
Ba1 O4 2.733994 1_555
Ba1 O0 2.753260 1_565
Ba1 O0 2.820610 1_555
Ba1 O1 2.838546 1_555
Ba1 O3 2.921845 1_665
Ba1 O3 2.921845 1_565
O0 O3 1.811915 1_555
O0 O3 1.811915 1_655
O1 O2 1.811915 1_655
O1 O2 1.811915 1_555
