# generated using pymatgen
data_Mg14VSnO16
_symmetry_space_group_name_H-M   'P 1'
_cell_length_a   8.67140894
_cell_length_b   8.73622584
_cell_length_c   4.36702301
_cell_angle_alpha   90.00000000
_cell_angle_beta   90.00000000
_cell_angle_gamma   90.00000000
_symmetry_Int_Tables_number   1
_chemical_formula_structural   Mg14VSnO16
_chemical_formula_sum   'Mg14 V1 Sn1 O16'
_cell_volume   330.82551751
_cell_formula_units_Z   1
loop_
 _symmetry_equiv_pos_site_id
 _symmetry_equiv_pos_as_xyz
  1  'x, y, z'
loop_
 _atom_site_type_symbol
 _atom_site_label
 _atom_site_symmetry_multiplicity
 _atom_site_fract_x
 _atom_site_fract_y
 _atom_site_fract_z
 _atom_site_occupancy
  Mg  Mg0  1  0.50000000  0.00000000  0.00000000  1
  Mg  Mg1  1  0.50000000  0.50000000  0.00000000  1
  Mg  Mg2  1  0.00000000  0.24221390  0.50000000  1
  Mg  Mg3  1  0.00000000  0.75778610  0.50000000  1
  Mg  Mg4  1  0.50000000  0.24837461  0.50000000  1
  Mg  Mg5  1  0.50000000  0.75162539  0.50000000  1
  Mg  Mg6  1  0.25181502  0.00000000  0.50000000  1
  Mg  Mg7  1  0.25914681  0.50000000  0.50000000  1
  Mg  Mg8  1  0.74818498  0.00000000  0.50000000  1
  Mg  Mg9  1  0.74085319  0.50000000  0.50000000  1
  Mg  Mg10  1  0.25497986  0.24602985  0.00000000  1
  Mg  Mg11  1  0.25497986  0.75397015  0.00000000  1
  Mg  Mg12  1  0.74502014  0.24602985  0.00000000  1
  Mg  Mg13  1  0.74502014  0.75397015  0.00000000  1
  V  V0  1  0.00000000  0.00000000  0.00000000  1
  Sn  Sn0  1  0.00000000  0.50000000  0.00000000  1
  O  O0  1  0.25672065  0.00000000  0.00000000  1
  O  O1  1  0.27271177  0.50000000  0.00000000  1
  O  O2  1  0.74327935  0.00000000  0.00000000  1
  O  O3  1  0.72728823  0.50000000  0.00000000  1
  O  O4  1  0.24971218  0.24940865  0.50000000  1
  O  O5  1  0.24971218  0.75059135  0.50000000  1
  O  O6  1  0.75028782  0.24940865  0.50000000  1
  O  O7  1  0.75028782  0.75059135  0.50000000  1
  O  O8  1  0.00000000  0.00000000  0.50000000  1
  O  O9  1  0.00000000  0.50000000  0.50000000  1
  O  O10  1  0.50000000  0.00000000  0.50000000  1
  O  O11  1  0.50000000  0.50000000  0.50000000  1
  O  O12  1  0.00000000  0.23592711  0.00000000  1
  O  O13  1  0.00000000  0.76407289  0.00000000  1
  O  O14  1  0.50000000  0.24539008  0.00000000  1
  O  O15  1  0.50000000  0.75460992  0.00000000  1
loop_
_geom_bond_atom_site_label_1
_geom_bond_atom_site_label_2
_geom_bond_distance
_geom_bond_site_symmetry_2
Mg0 O0 2.109575 1_555
Mg0 O2 2.109575 1_555
Mg0 O15 2.143783 1_545
Mg0 O14 2.143783 1_555
Mg0 O10 2.183512 1_555
Mg0 O10 2.183512 1_554
Mg1 O3 1.970909 1_555
Mg1 O1 1.970909 1_555
Mg1 O11 2.183512 1_554
Mg1 O11 2.183512 1_555
Mg1 O14 2.224330 1_555
Mg1 O15 2.224330 1_555
Mg2 O8 2.116035 1_555
Mg2 O6 2.166269 1_455
Mg2 O4 2.166269 1_555
Mg2 O12 2.184202 1_556
Mg2 O12 2.184202 1_555
Mg2 O9 2.252078 1_555
Mg3 O8 2.116035 1_565
Mg3 O7 2.166269 1_455
Mg3 O5 2.166269 1_555
Mg3 O13 2.184202 1_555
Mg3 O13 2.184202 1_556
Mg3 O9 2.252078 1_555
Mg4 O10 2.169857 1_555
Mg4 O4 2.170367 1_555
Mg4 O6 2.170367 1_555
Mg4 O14 2.183667 1_556
Mg4 O14 2.183667 1_555
Mg4 O11 2.198256 1_555
Mg5 O10 2.169857 1_565
Mg5 O5 2.170367 1_555
Mg5 O7 2.170367 1_555
Mg5 O15 2.183667 1_556
Mg5 O15 2.183667 1_555
Mg5 O11 2.198256 1_555
Mg6 O10 2.152113 1_555
Mg6 O4 2.178967 1_555
Mg6 O5 2.178967 1_545
Mg6 O8 2.183591 1_555
Mg6 O0 2.183926 1_555
Mg6 O0 2.183926 1_556
Mg7 O11 2.088537 1_555
Mg7 O1 2.186678 1_556
Mg7 O1 2.186678 1_555
Mg7 O4 2.190751 1_555
Mg7 O5 2.190751 1_555
Mg7 O9 2.247168 1_555
Mg8 O10 2.152113 1_555
Mg8 O6 2.178967 1_555
Mg8 O7 2.178967 1_545
Mg8 O8 2.183591 1_655
Mg8 O2 2.183926 1_555
Mg8 O2 2.183926 1_556
Mg9 O11 2.088537 1_555
Mg9 O3 2.186678 1_556
Mg9 O3 2.186678 1_555
Mg9 O6 2.190751 1_555
Mg9 O7 2.190751 1_555
Mg9 O9 2.247168 1_655
Mg10 O14 2.124677 1_555
Mg10 O0 2.149425 1_555
Mg10 O4 2.184189 1_554
Mg10 O4 2.184189 1_555
Mg10 O12 2.212796 1_555
Mg10 O1 2.224062 1_555
Mg11 O15 2.124677 1_555
Mg11 O0 2.149425 1_565
Mg11 O5 2.184189 1_555
Mg11 O5 2.184189 1_554
Mg11 O13 2.212796 1_555
Mg11 O1 2.224062 1_555
Mg12 O14 2.124677 1_555
Mg12 O2 2.149425 1_555
Mg12 O6 2.184189 1_555
Mg12 O6 2.184189 1_554
Mg12 O12 2.212796 1_655
Mg12 O3 2.224062 1_555
Mg13 O15 2.124677 1_555
Mg13 O2 2.149425 1_565
Mg13 O7 2.184189 1_555
Mg13 O7 2.184189 1_554
Mg13 O13 2.212796 1_655
Mg13 O3 2.224062 1_555
O0 V0 2.226130 1_555
O1 Sn0 2.364795 1_555
O2 V0 2.226130 1_655
O3 Sn0 2.364795 1_655
O8 V0 2.183512 1_556
O8 V0 2.183512 1_555
O9 Sn0 2.183512 1_556
O9 Sn0 2.183512 1_555
O12 V0 2.061113 1_555
O12 Sn0 2.307000 1_555
O13 V0 2.061113 1_565
O13 Sn0 2.307000 1_555
