# generated using pymatgen
data_Bi2N2O9
_symmetry_space_group_name_H-M   'P 1'
_cell_length_a   13.78468900
_cell_length_b   9.45028100
_cell_length_c   20.03203363
_cell_angle_alpha   64.00357859
_cell_angle_beta   90.00000000
_cell_angle_gamma   90.00000000
_symmetry_Int_Tables_number   1
_chemical_formula_structural   Bi2N2O9
_chemical_formula_sum   'Bi24 N24 O108'
_cell_volume   2345.52545727
_cell_formula_units_Z   12
loop_
 _symmetry_equiv_pos_site_id
 _symmetry_equiv_pos_as_xyz
  1  'x, y, z'
loop_
 _atom_site_type_symbol
 _atom_site_label
 _atom_site_symmetry_multiplicity
 _atom_site_fract_x
 _atom_site_fract_y
 _atom_site_fract_z
 _atom_site_occupancy
  Bi  Bi0  1  0.11330700  0.88850400  0.13578100  1
  Bi  Bi1  1  0.61330700  0.11149600  0.36421900  1
  Bi  Bi2  1  0.88669300  0.11149600  0.86421900  1
  Bi  Bi3  1  0.38669300  0.88850400  0.63578100  1
  Bi  Bi4  1  0.40211500  0.87234200  0.14679900  1
  Bi  Bi5  1  0.90211500  0.12765800  0.35320100  1
  Bi  Bi6  1  0.59788500  0.12765800  0.85320100  1
  Bi  Bi7  1  0.09788500  0.87234200  0.64679900  1
  Bi  Bi8  1  0.26972000  0.84754900  0.99236700  1
  Bi  Bi9  1  0.76972000  0.15245100  0.50763300  1
  Bi  Bi10  1  0.73028000  0.15245100  0.00763300  1
  Bi  Bi11  1  0.23028000  0.84754900  0.49236700  1
  Bi  Bi12  1  0.24094400  0.54783300  0.27681700  1
  Bi  Bi13  1  0.74094400  0.45216700  0.22318300  1
  Bi  Bi14  1  0.75905600  0.45216700  0.72318300  1
  Bi  Bi15  1  0.25905600  0.54783300  0.77681700  1
  Bi  Bi16  1  0.38396300  0.49433700  0.13471200  1
  Bi  Bi17  1  0.88396300  0.50566300  0.36528800  1
  Bi  Bi18  1  0.61603700  0.50566300  0.86528800  1
  Bi  Bi19  1  0.11603700  0.49433700  0.63471200  1
  Bi  Bi20  1  0.12071900  0.49549300  0.12506500  1
  Bi  Bi21  1  0.62071900  0.50450700  0.37493500  1
  Bi  Bi22  1  0.87928100  0.50450700  0.87493500  1
  Bi  Bi23  1  0.37928100  0.49549300  0.62506500  1
  N  N0  1  0.39231400  0.48329600  0.45436200  1
  N  N1  1  0.89231400  0.51670400  0.04563800  1
  N  N2  1  0.60768600  0.51670400  0.54563800  1
  N  N3  1  0.10768600  0.48329600  0.95436200  1
  N  N4  1  0.39598100  0.25749200  0.05151800  1
  N  N5  1  0.89598100  0.74250800  0.44848200  1
  N  N6  1  0.60401900  0.74250800  0.94848200  1
  N  N7  1  0.10401900  0.25749200  0.55151800  1
  N  N8  1  0.14912300  0.70171500  0.37884900  1
  N  N9  1  0.64912300  0.29828500  0.12115100  1
  N  N10  1  0.85087700  0.29828500  0.62115100  1
  N  N11  1  0.35087700  0.70171500  0.87884900  1
  N  N12  1  0.05858900  0.13284000  0.21254300  1
  N  N13  1  0.55858900  0.86716000  0.28745700  1
  N  N14  1  0.94141100  0.86716000  0.78745700  1
  N  N15  1  0.44141100  0.13284000  0.71254300  1
  N  N16  1  0.37718300  0.11438300  0.31930100  1
  N  N17  1  0.87718300  0.88561700  0.18069900  1
  N  N18  1  0.62281700  0.88561700  0.68069900  1
  N  N19  1  0.12281700  0.11438300  0.81930100  1
  N  N20  1  0.14314500  0.20231000  0.38209200  1
  N  N21  1  0.64314500  0.79769000  0.11790800  1
  N  N22  1  0.85685500  0.79769000  0.61790800  1
  N  N23  1  0.35685500  0.20231000  0.88209200  1
  O  O0  1  0.25928000  0.93137000  0.08344500  1
  O  O1  1  0.75928000  0.06863000  0.41655500  1
  O  O2  1  0.74072000  0.06863000  0.91655500  1
  O  O3  1  0.24072000  0.93137000  0.58344500  1
  O  O4  1  0.12183000  0.62545900  0.19443200  1
  O  O5  1  0.62183000  0.37454100  0.30556800  1
  O  O6  1  0.87817000  0.37454100  0.80556800  1
  O  O7  1  0.37817000  0.62545900  0.69443200  1
  O  O8  1  0.37851900  0.61235400  0.20780700  1
  O  O9  1  0.87851900  0.38764600  0.29219300  1
  O  O10  1  0.62148100  0.38764600  0.79219300  1
  O  O11  1  0.12148100  0.61235400  0.70780700  1
  O  O12  1  0.25610700  0.59264800  0.06125500  1
  O  O13  1  0.75610700  0.40735200  0.43874500  1
  O  O14  1  0.74389300  0.40735200  0.93874500  1
  O  O15  1  0.24389300  0.59264800  0.56125500  1
  O  O16  1  0.24644000  0.40585200  0.20441000  1
  O  O17  1  0.74644000  0.59414800  0.29559000  1
  O  O18  1  0.75356000  0.59414800  0.79559000  1
  O  O19  1  0.25356000  0.40585200  0.70441000  1
  O  O20  1  0.25146000  0.82091200  0.21448500  1
  O  O21  1  0.75146000  0.17908800  0.28551500  1
  O  O22  1  0.74854000  0.17908800  0.78551500  1
  O  O23  1  0.24854000  0.82091200  0.71448500  1
  O  O24  1  0.40389500  0.76723600  0.06550300  1
  O  O25  1  0.90389500  0.23276400  0.43449700  1
  O  O26  1  0.59610500  0.23276400  0.93449700  1
  O  O27  1  0.09610500  0.76723600  0.56550300  1
  O  O28  1  0.11039800  0.79207800  0.04963200  1
  O  O29  1  0.61039800  0.20792200  0.45036800  1
  O  O30  1  0.88960200  0.20792200  0.95036800  1
  O  O31  1  0.38960200  0.79207800  0.54963200  1
  O  O32  1  0.34662800  0.37832300  0.50671600  1
  O  O33  1  0.84662800  0.62167700  0.99328400  1
  O  O34  1  0.65337200  0.62167700  0.49328400  1
  O  O35  1  0.15337200  0.37832300  0.00671600  1
  O  O36  1  0.42404400  0.60273000  0.45953500  1
  O  O37  1  0.92404400  0.39727000  0.04046500  1
  O  O38  1  0.57595600  0.39727000  0.54046500  1
  O  O39  1  0.07595600  0.60273000  0.95953500  1
  O  O40  1  0.40820700  0.46703300  0.39549700  1
  O  O41  1  0.90820700  0.53296700  0.10450300  1
  O  O42  1  0.59179300  0.53296700  0.60450300  1
  O  O43  1  0.09179300  0.46703300  0.89549700  1
  O  O44  1  0.40471800  0.40229900  0.01187800  1
  O  O45  1  0.90471800  0.59770100  0.48812200  1
  O  O46  1  0.59528200  0.59770100  0.98812200  1
  O  O47  1  0.09528200  0.40229900  0.51187800  1
  O  O48  1  0.42272200  0.15981700  0.02731300  1
  O  O49  1  0.92272200  0.84018300  0.47268700  1
  O  O50  1  0.57727800  0.84018300  0.97268700  1
  O  O51  1  0.07727800  0.15981700  0.52731300  1
  O  O52  1  0.36124600  0.20525100  0.11676800  1
  O  O53  1  0.86124600  0.79474900  0.38323200  1
  O  O54  1  0.63875400  0.79474900  0.88323200  1
  O  O55  1  0.13875400  0.20525100  0.61676800  1
  O  O56  1  0.24062600  0.70867800  0.37636700  1
  O  O57  1  0.74062600  0.29132200  0.12363300  1
  O  O58  1  0.75937400  0.29132200  0.62363300  1
  O  O59  1  0.25937400  0.70867800  0.87636700  1
  O  O60  1  0.10233800  0.75193000  0.41829800  1
  O  O61  1  0.60233800  0.24807000  0.08170200  1
  O  O62  1  0.89766200  0.24807000  0.58170200  1
  O  O63  1  0.39766200  0.75193000  0.91829800  1
  O  O64  1  0.10356100  0.64333200  0.34130600  1
  O  O65  1  0.60356100  0.35666800  0.15869400  1
  O  O66  1  0.89643900  0.35666800  0.65869400  1
  O  O67  1  0.39643900  0.64333200  0.84130600  1
  O  O68  1  0.02907800  0.99442600  0.24763300  1
  O  O69  1  0.52907800  0.00557400  0.25236700  1
  O  O70  1  0.97092200  0.00557400  0.75236700  1
  O  O71  1  0.47092200  0.99442600  0.74763300  1
  O  O72  1  0.02836700  0.24129800  0.22952100  1
  O  O73  1  0.52836700  0.75870200  0.27047900  1
  O  O74  1  0.97163300  0.75870200  0.77047900  1
  O  O75  1  0.47163300  0.24129800  0.72952100  1
  O  O76  1  0.11867900  0.17023200  0.15917700  1
  O  O77  1  0.61867900  0.82976800  0.34082300  1
  O  O78  1  0.88132100  0.82976800  0.84082300  1
  O  O79  1  0.38132100  0.17023200  0.65917700  1
  O  O80  1  0.39603100  0.99783400  0.38028100  1
  O  O81  1  0.89603100  0.00216600  0.11971900  1
  O  O82  1  0.60396900  0.00216600  0.61971900  1
  O  O83  1  0.10396900  0.99783400  0.88028100  1
  O  O84  1  0.43408000  0.23177500  0.29378800  1
  O  O85  1  0.93408000  0.76822500  0.20621200  1
  O  O86  1  0.56592000  0.76822500  0.70621200  1
  O  O87  1  0.06592000  0.23177500  0.79378800  1
  O  O88  1  0.30202600  0.11199500  0.28464000  1
  O  O89  1  0.80202600  0.88800500  0.21536000  1
  O  O90  1  0.69797400  0.88800500  0.71536000  1
  O  O91  1  0.19797400  0.11199500  0.78464000  1
  O  O92  1  0.09433300  0.07551600  0.40302700  1
  O  O93  1  0.59433300  0.92448400  0.09697300  1
  O  O94  1  0.90566700  0.92448400  0.59697300  1
  O  O95  1  0.40566700  0.07551600  0.90302700  1
  O  O96  1  0.22945400  0.19818900  0.40327100  1
  O  O97  1  0.72945400  0.80181100  0.09672900  1
  O  O98  1  0.77054600  0.80181100  0.59672900  1
  O  O99  1  0.27054600  0.19818900  0.90327100  1
  O  O100  1  0.10338400  0.33186400  0.33954600  1
  O  O101  1  0.60338400  0.66813600  0.16045400  1
  O  O102  1  0.89661600  0.66813600  0.66045400  1
  O  O103  1  0.39661600  0.33186400  0.83954600  1
  O  O104  1  0.05261800  0.05574500  0.01205500  1
  O  O105  1  0.55261800  0.94425500  0.48794500  1
  O  O106  1  0.94738200  0.94425500  0.98794500  1
  O  O107  1  0.44738200  0.05574500  0.51205500  1
loop_
_geom_bond_atom_site_label_1
_geom_bond_atom_site_label_2
_geom_bond_distance
_geom_bond_site_symmetry_2
Bi0 O0 2.222577 1_555
Bi0 O4 2.239047 1_555
Bi0 O28 2.277881 1_555
Bi0 O20 2.374359 1_555
Bi0 O104 2.430376 1_565
Bi1 O1 2.222577 1_555
Bi1 O5 2.239047 1_555
Bi1 O29 2.277881 1_555
Bi1 O21 2.374359 1_555
Bi1 O105 2.430376 1_545
Bi2 O2 2.222577 1_555
Bi2 O6 2.239047 1_555
Bi2 O30 2.277881 1_555
Bi2 O22 2.374359 1_555
Bi2 O106 2.430376 1_545
Bi3 O3 2.222577 1_555
Bi3 O7 2.239047 1_555
Bi3 O31 2.277881 1_555
Bi3 O23 2.374359 1_555
Bi3 O107 2.430376 1_565
Bi4 O8 2.236910 1_555
Bi4 O24 2.248849 1_555
Bi4 O0 2.275503 1_555
Bi4 O20 2.410347 1_555
Bi4 O48 2.736778 1_565
Bi4 O93 2.797967 1_555
Bi4 O73 2.826299 1_555
Bi5 O9 2.236910 1_555
Bi5 O25 2.248849 1_555
Bi5 O1 2.275503 1_555
Bi5 O21 2.410347 1_555
Bi5 O49 2.736778 1_545
Bi5 O92 2.797967 1_655
Bi5 O72 2.826299 1_655
Bi6 O10 2.236910 1_555
Bi6 O26 2.248849 1_555
Bi6 O2 2.275503 1_555
Bi6 O22 2.410347 1_555
Bi6 O50 2.736778 1_545
Bi6 O95 2.797967 1_555
Bi6 O75 2.826299 1_555
Bi7 O11 2.236910 1_555
Bi7 O27 2.248849 1_555
Bi7 O3 2.275503 1_555
Bi7 O23 2.410347 1_555
Bi7 O51 2.736778 1_565
Bi7 O94 2.797967 1_455
Bi7 O74 2.826299 1_455
Bi8 O12 2.197311 1_556
Bi8 O24 2.273447 1_556
Bi8 O0 2.289941 1_556
Bi8 O28 2.426288 1_556
Bi8 O63 2.702562 1_555
Bi8 O95 2.824190 1_565
Bi9 O13 2.197311 1_555
Bi9 O25 2.273447 1_555
Bi9 O1 2.289941 1_555
Bi9 O29 2.426288 1_555
Bi9 O62 2.702562 1_555
Bi9 O94 2.824190 1_545
Bi10 O14 2.197311 1_554
Bi10 O26 2.273447 1_554
Bi10 O2 2.289941 1_554
Bi10 O30 2.426288 1_554
Bi10 O61 2.702562 1_555
Bi10 O93 2.824190 1_545
Bi11 O15 2.197311 1_555
Bi11 O27 2.273447 1_555
Bi11 O3 2.289941 1_555
Bi11 O31 2.426288 1_555
Bi11 O60 2.702562 1_555
Bi11 O92 2.824190 1_565
Bi12 O4 2.212795 1_555
Bi12 O8 2.267237 1_555
Bi12 O20 2.327057 1_555
Bi12 O16 2.369802 1_555
Bi12 O64 2.663046 1_555
Bi12 O100 2.663075 1_555
Bi13 O5 2.212795 1_555
Bi13 O9 2.267237 1_555
Bi13 O21 2.327057 1_555
Bi13 O17 2.369802 1_555
Bi13 O65 2.663046 1_555
Bi13 O101 2.663075 1_555
Bi14 O6 2.212795 1_555
Bi14 O10 2.267237 1_555
Bi14 O22 2.327057 1_555
Bi14 O18 2.369802 1_555
Bi14 O66 2.663046 1_555
Bi14 O102 2.663075 1_555
Bi15 O7 2.212795 1_555
Bi15 O11 2.267237 1_555
Bi15 O23 2.327057 1_555
Bi15 O19 2.369802 1_555
Bi15 O67 2.663046 1_555
Bi15 O103 2.663075 1_555
Bi16 O8 2.196612 1_555
Bi16 O12 2.221768 1_555
Bi16 O16 2.284480 1_555
Bi16 O24 2.348257 1_555
Bi17 O9 2.196612 1_555
Bi17 O13 2.221768 1_555
Bi17 O17 2.284480 1_555
Bi17 O25 2.348257 1_555
Bi18 O10 2.196612 1_555
Bi18 O14 2.221768 1_555
Bi18 O18 2.284480 1_555
Bi18 O26 2.348257 1_555
Bi19 O11 2.196612 1_555
Bi19 O15 2.221768 1_555
Bi19 O19 2.284480 1_555
Bi19 O27 2.348257 1_555
Bi20 O12 2.220603 1_555
Bi20 O4 2.221657 1_555
Bi20 O16 2.250995 1_555
Bi20 O28 2.539013 1_555
Bi20 O72 2.713533 1_555
Bi21 O13 2.220603 1_555
Bi21 O5 2.221657 1_555
Bi21 O17 2.250995 1_555
Bi21 O29 2.539013 1_555
Bi21 O73 2.713533 1_555
Bi22 O14 2.220603 1_555
Bi22 O6 2.221657 1_555
Bi22 O18 2.250995 1_555
Bi22 O30 2.539013 1_555
Bi22 O74 2.713533 1_555
Bi23 O15 2.220603 1_555
Bi23 O7 2.221657 1_555
Bi23 O19 2.250995 1_555
Bi23 O31 2.539013 1_555
Bi23 O75 2.713533 1_555
N0 O32 1.252426 1_555
N0 O36 1.256387 1_555
N0 O40 1.273172 1_555
N1 O33 1.252426 1_554
N1 O37 1.256387 1_555
N1 O41 1.273172 1_555
N2 O34 1.252426 1_555
N2 O38 1.256387 1_555
N2 O42 1.273172 1_555
N3 O35 1.252426 1_556
N3 O39 1.256387 1_555
N3 O43 1.273172 1_555
N4 O44 1.251062 1_555
N4 O48 1.270970 1_555
N4 O52 1.271136 1_555
N5 O45 1.251062 1_555
N5 O49 1.270970 1_555
N5 O53 1.271136 1_555
N6 O46 1.251062 1_555
N6 O50 1.270970 1_555
N6 O54 1.271136 1_555
N7 O47 1.251062 1_555
N7 O51 1.270970 1_555
N7 O55 1.271136 1_555
N8 O60 1.262671 1_555
N8 O56 1.262899 1_555
N8 O64 1.276016 1_555
N9 O61 1.262671 1_555
N9 O57 1.262899 1_555
N9 O65 1.276016 1_555
N10 O62 1.262671 1_555
N10 O58 1.262899 1_555
N10 O66 1.276016 1_555
N11 O63 1.262671 1_555
N11 O59 1.262899 1_555
N11 O67 1.276016 1_555
N12 O68 1.250824 1_545
N12 O76 1.273835 1_555
N12 O72 1.282713 1_555
N13 O69 1.250824 1_565
N13 O77 1.273835 1_555
N13 O73 1.282713 1_555
N14 O70 1.250824 1_565
N14 O78 1.273835 1_555
N14 O74 1.282713 1_555
N15 O71 1.250824 1_545
N15 O79 1.273835 1_555
N15 O75 1.282713 1_555
N16 O88 1.252864 1_555
N16 O80 1.262286 1_545
N16 O84 1.268875 1_555
N17 O89 1.252864 1_555
N17 O81 1.262286 1_565
N17 O85 1.268875 1_555
N18 O90 1.252864 1_555
N18 O82 1.262286 1_565
N18 O86 1.268875 1_555
N19 O91 1.252864 1_555
N19 O83 1.262286 1_545
N19 O87 1.268875 1_555
N20 O96 1.257981 1_555
N20 O100 1.269260 1_555
N20 O92 1.274313 1_555
N21 O97 1.257981 1_555
N21 O101 1.269260 1_555
N21 O93 1.274313 1_555
N22 O98 1.257981 1_555
N22 O102 1.269260 1_555
N22 O94 1.274313 1_555
N23 O99 1.257981 1_555
N23 O103 1.269260 1_555
N23 O95 1.274313 1_555
O104 O106 1.973276 1_444
O105 O107 1.973276 1_565
