# generated using pymatgen
data_Li2MnCoO4
_symmetry_space_group_name_H-M   'P 1'
_cell_length_a   3.01516300
_cell_length_b   3.01516300
_cell_length_c   19.77768498
_cell_angle_alpha   83.27785523
_cell_angle_beta   83.27785523
_cell_angle_gamma   57.02515148
_symmetry_Int_Tables_number   1
_chemical_formula_structural   Li2MnCoO4
_chemical_formula_sum   'Li4 Mn2 Co2 O8'
_cell_volume   149.49416860
_cell_formula_units_Z   2
loop_
 _symmetry_equiv_pos_site_id
 _symmetry_equiv_pos_as_xyz
  1  'x, y, z'
loop_
 _atom_site_type_symbol
 _atom_site_label
 _atom_site_symmetry_multiplicity
 _atom_site_fract_x
 _atom_site_fract_y
 _atom_site_fract_z
 _atom_site_occupancy
  Li  Li0  1  0.50000000  0.50000000  0.00000000  1
  Li  Li1  1  0.00243700  0.00243700  0.24771700  1
  Li  Li2  1  0.50000000  0.50000000  0.50000000  1
  Li  Li3  1  0.99756300  0.99756300  0.75228300  1
  Mn  Mn0  1  0.25180300  0.25180300  0.37459000  1
  Mn  Mn1  1  0.74819700  0.74819700  0.62541000  1
  Co  Co0  1  0.24907800  0.24907800  0.87548700  1
  Co  Co1  1  0.75092200  0.75092200  0.12451300  1
  O  O0  1  0.88541700  0.88541700  0.93207900  1
  O  O1  1  0.38488800  0.38488800  0.18248400  1
  O  O2  1  0.85641700  0.85641700  0.43297900  1
  O  O3  1  0.35635600  0.35635600  0.68244900  1
  O  O4  1  0.11458300  0.11458300  0.06792100  1
  O  O5  1  0.64364400  0.64364400  0.31755100  1
  O  O6  1  0.14358300  0.14358300  0.56702100  1
  O  O7  1  0.61511200  0.61511200  0.81751600  1
loop_
_geom_bond_atom_site_label_1
_geom_bond_atom_site_label_2
_geom_bond_distance
_geom_bond_site_symmetry_2
Li0 O4 2.112350 1_655
Li0 O4 2.112350 1_565
Li0 O0 2.112350 1_544
Li0 O0 2.112350 1_454
Li0 O0 2.290100 1_554
Li0 O4 2.290100 1_555
Li1 O1 2.082824 1_545
Li1 O1 2.082824 1_455
Li1 O5 2.194164 1_545
Li1 O5 2.194164 1_455
Li1 O5 2.196046 1_445
Li1 O1 2.252762 1_555
Li2 O2 2.157996 1_555
Li2 O6 2.157996 1_555
Li2 O2 2.162435 1_455
Li2 O6 2.162435 1_655
Li2 O2 2.162435 1_545
Li2 O6 2.162435 1_565
Li3 O7 2.082824 1_565
Li3 O7 2.082824 1_655
Li3 O3 2.194164 1_565
Li3 O3 2.194164 1_655
Li3 O3 2.196046 1_665
Li3 O7 2.252762 1_555
Mn0 O5 1.960842 1_545
Mn0 O5 1.960842 1_455
Mn0 O2 1.970526 1_545
Mn0 O2 1.970526 1_455
Mn0 O5 2.227045 1_555
Mn0 O2 2.253551 1_445
Mn1 O3 1.960842 1_565
Mn1 O3 1.960842 1_655
Mn1 O6 1.970526 1_565
Mn1 O6 1.970526 1_655
Mn1 O3 2.227045 1_555
Mn1 O6 2.253551 1_665
Co0 O0 2.015359 1_455
Co0 O0 2.015359 1_545
Co0 O7 2.026540 1_455
Co0 O7 2.026540 1_545
Co0 O0 2.095587 1_445
Co0 O7 2.117559 1_555
Co1 O4 2.015359 1_565
Co1 O4 2.015359 1_655
Co1 O1 2.026540 1_565
Co1 O1 2.026540 1_655
Co1 O4 2.095587 1_665
Co1 O1 2.117559 1_555
