# generated using pymatgen
data_NaCeZrNbO6
_symmetry_space_group_name_H-M   'P 1'
_cell_length_a   5.80866080
_cell_length_b   5.80866080
_cell_length_c   5.80866080
_cell_angle_alpha   60.00000000
_cell_angle_beta   60.00000000
_cell_angle_gamma   60.00000000
_symmetry_Int_Tables_number   1
_chemical_formula_structural   NaCeZrNbO6
_chemical_formula_sum   'Na1 Ce1 Zr1 Nb1 O6'
_cell_volume   138.58398673
_cell_formula_units_Z   1
loop_
 _symmetry_equiv_pos_site_id
 _symmetry_equiv_pos_as_xyz
  1  'x, y, z'
loop_
 _atom_site_type_symbol
 _atom_site_label
 _atom_site_symmetry_multiplicity
 _atom_site_fract_x
 _atom_site_fract_y
 _atom_site_fract_z
 _atom_site_occupancy
  Na  Na0  1  0.25000000  0.25000000  0.25000000  1
  Ce  Ce0  1  0.75000000  0.75000000  0.75000000  1
  Zr  Zr0  1  0.50000000  0.50000000  0.50000000  1
  Nb  Nb0  1  0.00000000  0.00000000  0.00000000  1
  O  O0  1  0.75449185  0.24550815  0.24550815  1
  O  O1  1  0.24550815  0.75449185  0.75449185  1
  O  O2  1  0.75449185  0.24550815  0.75449185  1
  O  O3  1  0.24550815  0.75449185  0.24550815  1
  O  O4  1  0.75449185  0.75449185  0.24550815  1
  O  O5  1  0.24550815  0.24550815  0.75449185  1
loop_
_geom_bond_atom_site_label_1
_geom_bond_atom_site_label_2
_geom_bond_distance
_geom_bond_site_symmetry_2
Na0 O2 2.904565 1_455
Na0 O5 2.904565 1_555
Na0 O5 2.904565 1_554
Na0 O1 2.904565 1_545
Na0 O2 2.904565 1_554
Na0 O0 2.904565 1_455
Na0 O4 2.904565 1_545
Na0 O3 2.904565 1_555
Na0 O0 2.904565 1_555
Na0 O4 2.904565 1_455
Na0 O1 2.904565 1_554
Na0 O3 2.904565 1_545
Ce0 O4 2.904565 1_556
Ce0 O0 2.904565 1_565
Ce0 O1 2.904565 1_655
Ce0 O5 2.904565 1_655
Ce0 O5 2.904565 1_565
Ce0 O2 2.904565 1_555
Ce0 O3 2.904565 1_556
Ce0 O2 2.904565 1_565
Ce0 O0 2.904565 1_556
Ce0 O4 2.904565 1_555
Ce0 O1 2.904565 1_555
Ce0 O3 2.904565 1_655
Nb0 O3 2.016773 1_545
Nb0 O5 2.016773 1_554
Nb0 O0 2.016773 1_455
Nb0 O4 2.016773 1_445
Nb0 O2 2.016773 1_454
Nb0 O1 2.016773 1_544
O0 Zr0 2.090571 1_555
O1 Zr0 2.090571 1_555
O2 Zr0 2.090571 1_555
O3 Zr0 2.090571 1_555
O4 Zr0 2.090571 1_555
O5 Zr0 2.090571 1_555
