# generated using pymatgen
data_NaNiO2
_symmetry_space_group_name_H-M   'P 1'
_cell_length_a   3.73724200
_cell_length_b   3.73724200
_cell_length_c   3.35516500
_cell_angle_alpha   90.00000000
_cell_angle_beta   90.00000000
_cell_angle_gamma   90.00000000
_symmetry_Int_Tables_number   1
_chemical_formula_structural   NaNiO2
_chemical_formula_sum   'Na1 Ni1 O2'
_cell_volume   46.86151496
_cell_formula_units_Z   1
loop_
 _symmetry_equiv_pos_site_id
 _symmetry_equiv_pos_as_xyz
  1  'x, y, z'
loop_
 _atom_site_type_symbol
 _atom_site_label
 _atom_site_symmetry_multiplicity
 _atom_site_fract_x
 _atom_site_fract_y
 _atom_site_fract_z
 _atom_site_occupancy
  Na  Na0  1  0.50000000  0.50000000  0.50000000  1
  Ni  Ni0  1  0.00000000  0.00000000  0.00000000  1
  O  O0  1  0.00000000  0.50000000  0.00000000  1
  O  O1  1  0.50000000  0.00000000  0.00000000  1
loop_
_geom_bond_atom_site_label_1
_geom_bond_atom_site_label_2
_geom_bond_distance
_geom_bond_site_symmetry_2
Na0 O0 2.511180 1_555
Na0 O1 2.511180 1_565
Na0 O0 2.511180 1_556
Na0 O0 2.511180 1_656
Na0 O1 2.511180 1_555
Na0 O1 2.511180 1_566
Na0 O1 2.511180 1_556
Na0 O0 2.511180 1_655
Ni0 O0 1.868621 1_545
Ni0 O1 1.868621 1_555
Ni0 O1 1.868621 1_455
Ni0 O0 1.868621 1_555
