# generated using pymatgen
data_K11Np2H9(S5O22)2
_symmetry_space_group_name_H-M   'P 1'
_cell_length_a   14.30260000
_cell_length_b   8.47160600
_cell_length_c   19.19115113
_cell_angle_alpha   90.00000000
_cell_angle_beta   107.37234740
_cell_angle_gamma   90.00000000
_symmetry_Int_Tables_number   1
_chemical_formula_structural   K11Np2H9(S5O22)2
_chemical_formula_sum   'K22 Np4 H18 S20 O88'
_cell_volume   2219.24456354
_cell_formula_units_Z   2
loop_
 _symmetry_equiv_pos_site_id
 _symmetry_equiv_pos_as_xyz
  1  'x, y, z'
loop_
 _atom_site_type_symbol
 _atom_site_label
 _atom_site_symmetry_multiplicity
 _atom_site_fract_x
 _atom_site_fract_y
 _atom_site_fract_z
 _atom_site_occupancy
  K  K0  1  0.00000000  0.00000000  0.00000000  1
  K  K1  1  0.00000000  0.50000000  0.50000000  1
  K  K2  1  0.32193800  0.87003600  0.13654400  1
  K  K3  1  0.67806200  0.37003600  0.36345600  1
  K  K4  1  0.67806200  0.12996400  0.86345600  1
  K  K5  1  0.32193800  0.62996400  0.63654400  1
  K  K6  1  0.38513200  0.38615200  0.85398300  1
  K  K7  1  0.61486800  0.88615200  0.64601700  1
  K  K8  1  0.61486800  0.61384800  0.14601700  1
  K  K9  1  0.38513200  0.11384800  0.35398300  1
  K  K10  1  0.09394500  0.64185600  0.92779700  1
  K  K11  1  0.90605500  0.14185600  0.57220300  1
  K  K12  1  0.90605500  0.35814400  0.07220300  1
  K  K13  1  0.09394500  0.85814400  0.42779700  1
  K  K14  1  0.33924500  0.91380700  0.81774500  1
  K  K15  1  0.66075500  0.41380700  0.68225500  1
  K  K16  1  0.66075500  0.08619300  0.18225500  1
  K  K17  1  0.33924500  0.58619300  0.31774500  1
  K  K18  1  0.93974800  0.89418600  0.20568100  1
  K  K19  1  0.06025200  0.39418600  0.29431900  1
  K  K20  1  0.06025200  0.10581400  0.79431900  1
  K  K21  1  0.93974800  0.60581400  0.70568100  1
  Np  Np0  1  0.26418400  0.36387500  0.09961300  1
  Np  Np1  1  0.73581600  0.86387500  0.40038700  1
  Np  Np2  1  0.73581600  0.63612500  0.90038700  1
  Np  Np3  1  0.26418400  0.13612500  0.59961300  1
  H  H0  1  0.50000000  0.00000000  0.00000000  1
  H  H1  1  0.50000000  0.50000000  0.50000000  1
  H  H2  1  0.57062900  0.87337200  0.95923200  1
  H  H3  1  0.42937100  0.37337200  0.54076800  1
  H  H4  1  0.42937100  0.12662800  0.04076800  1
  H  H5  1  0.57062900  0.62662800  0.45923200  1
  H  H6  1  0.47819600  0.79969600  0.98271200  1
  H  H7  1  0.52180400  0.29969600  0.51728800  1
  H  H8  1  0.52180400  0.20030400  0.01728800  1
  H  H9  1  0.47819600  0.70030400  0.48271200  1
  H  H10  1  0.18188000  0.63992600  0.79278000  1
  H  H11  1  0.81812000  0.13992600  0.70722000  1
  H  H12  1  0.81812000  0.36007400  0.20722000  1
  H  H13  1  0.18188000  0.86007400  0.29278000  1
  H  H14  1  0.12331900  0.78637600  0.75604400  1
  H  H15  1  0.87668100  0.28637600  0.74395600  1
  H  H16  1  0.87668100  0.21362400  0.24395600  1
  H  H17  1  0.12331900  0.71362400  0.25604400  1
  S  S0  1  0.22899600  0.14049100  0.96177400  1
  S  S1  1  0.77100400  0.64049100  0.53822600  1
  S  S2  1  0.77100400  0.85950900  0.03822600  1
  S  S3  1  0.22899600  0.35950900  0.46177400  1
  S  S4  1  0.16544000  0.14510600  0.19007300  1
  S  S5  1  0.83456000  0.64510600  0.30992700  1
  S  S6  1  0.83456000  0.85489400  0.80992700  1
  S  S7  1  0.16544000  0.35489400  0.69007300  1
  S  S8  1  0.35415000  0.58659700  0.00643100  1
  S  S9  1  0.64585000  0.08659700  0.49356900  1
  S  S10  1  0.64585000  0.41340300  0.99356900  1
  S  S11  1  0.35415000  0.91340300  0.50643100  1
  S  S12  1  0.10985500  0.60999800  0.12054900  1
  S  S13  1  0.89014500  0.10999800  0.37945100  1
  S  S14  1  0.89014500  0.39000200  0.87945100  1
  S  S15  1  0.10985500  0.89000200  0.62054900  1
  S  S16  1  0.46030200  0.34749600  0.21895200  1
  S  S17  1  0.53969800  0.84749600  0.28104800  1
  S  S18  1  0.53969800  0.65250400  0.78104800  1
  S  S19  1  0.46030200  0.15250400  0.71895200  1
  O  O0  1  0.30977200  0.11677700  0.03350500  1
  O  O1  1  0.69022800  0.61677700  0.46649500  1
  O  O2  1  0.69022800  0.88322300  0.96649500  1
  O  O3  1  0.30977200  0.38322300  0.53350500  1
  O  O4  1  0.18017500  0.29222100  0.97559500  1
  O  O5  1  0.81982500  0.79222100  0.52440500  1
  O  O6  1  0.81982500  0.70777900  0.02440500  1
  O  O7  1  0.18017500  0.20777900  0.47559500  1
  O  O8  1  0.26945500  0.15917500  0.90004100  1
  O  O9  1  0.73054500  0.65917500  0.59995900  1
  O  O10  1  0.73054500  0.84082500  0.09995900  1
  O  O11  1  0.26945500  0.34082500  0.40004100  1
  O  O12  1  0.15757100  0.01038700  0.94783700  1
  O  O13  1  0.84242900  0.51038700  0.55216300  1
  O  O14  1  0.84242900  0.98961300  0.05216300  1
  O  O15  1  0.15757100  0.48961300  0.44783700  1
  O  O16  1  0.17279100  0.12922400  0.11276000  1
  O  O17  1  0.82720900  0.62922400  0.38724000  1
  O  O18  1  0.82720900  0.87077600  0.88724000  1
  O  O19  1  0.17279100  0.37077600  0.61276000  1
  O  O20  1  0.21601600  0.30009800  0.21532500  1
  O  O21  1  0.78398400  0.80009800  0.28467500  1
  O  O22  1  0.78398400  0.69990200  0.78467500  1
  O  O23  1  0.21601600  0.19990200  0.71532500  1
  O  O24  1  0.06164300  0.15088400  0.18855200  1
  O  O25  1  0.93835700  0.65088400  0.31144800  1
  O  O26  1  0.93835700  0.84911600  0.81144800  1
  O  O27  1  0.06164300  0.34911600  0.68855200  1
  O  O28  1  0.21861700  0.01354800  0.23548200  1
  O  O29  1  0.78138300  0.51354800  0.26451800  1
  O  O30  1  0.78138300  0.98645200  0.76451800  1
  O  O31  1  0.21861700  0.48645200  0.73548200  1
  O  O32  1  0.26907300  0.61346400  0.03774700  1
  O  O33  1  0.73092700  0.11346400  0.46225300  1
  O  O34  1  0.73092700  0.38653600  0.96225300  1
  O  O35  1  0.26907300  0.88653600  0.53774700  1
  O  O36  1  0.38510800  0.42072600  0.03037600  1
  O  O37  1  0.61489200  0.92072600  0.46962400  1
  O  O38  1  0.61489200  0.57927400  0.96962400  1
  O  O39  1  0.38510800  0.07927400  0.53037600  1
  O  O40  1  0.43368400  0.70041800  0.04039700  1
  O  O41  1  0.56631600  0.20041800  0.45960300  1
  O  O42  1  0.56631600  0.29958200  0.95960300  1
  O  O43  1  0.43368400  0.79958200  0.54039700  1
  O  O44  1  0.32042000  0.60496800  0.92693300  1
  O  O45  1  0.67958000  0.10496800  0.57306700  1
  O  O46  1  0.67958000  0.39503200  0.07306700  1
  O  O47  1  0.32042000  0.89503200  0.42693300  1
  O  O48  1  0.09744300  0.46625500  0.07093100  1
  O  O49  1  0.90255700  0.96625500  0.42906900  1
  O  O50  1  0.90255700  0.53374500  0.92906900  1
  O  O51  1  0.09744300  0.03374500  0.57093100  1
  O  O52  1  0.21651100  0.60497600  0.16454300  1
  O  O53  1  0.78348900  0.10497600  0.33545700  1
  O  O54  1  0.78348900  0.39502400  0.83545700  1
  O  O55  1  0.21651100  0.89502400  0.66454300  1
  O  O56  1  0.04687200  0.59458100  0.16944200  1
  O  O57  1  0.95312800  0.09458100  0.33055800  1
  O  O58  1  0.95312800  0.40541900  0.83055800  1
  O  O59  1  0.04687200  0.90541900  0.66944200  1
  O  O60  1  0.08674900  0.75379000  0.07610700  1
  O  O61  1  0.91325100  0.25379000  0.42389300  1
  O  O62  1  0.91325100  0.24621000  0.92389300  1
  O  O63  1  0.08674900  0.74621000  0.57610700  1
  O  O64  1  0.39981500  0.49115000  0.18473000  1
  O  O65  1  0.60018500  0.99115000  0.31527000  1
  O  O66  1  0.60018500  0.50885000  0.81527000  1
  O  O67  1  0.39981500  0.00885000  0.68473000  1
  O  O68  1  0.39880500  0.21299600  0.17632100  1
  O  O69  1  0.60119500  0.71299600  0.32367900  1
  O  O70  1  0.60119500  0.78700400  0.82367900  1
  O  O71  1  0.39880500  0.28700400  0.67632100  1
  O  O72  1  0.55764000  0.34988900  0.20799500  1
  O  O73  1  0.44236000  0.84988900  0.29200500  1
  O  O74  1  0.44236000  0.65011100  0.79200500  1
  O  O75  1  0.55764000  0.15011100  0.70799500  1
  O  O76  1  0.46706800  0.34171000  0.29681400  1
  O  O77  1  0.53293200  0.84171000  0.20318600  1
  O  O78  1  0.53293200  0.65829000  0.70318600  1
  O  O79  1  0.46706800  0.15829000  0.79681400  1
  O  O80  1  0.50039400  0.89182500  0.95811400  1
  O  O81  1  0.49960600  0.39182500  0.54188600  1
  O  O82  1  0.49960600  0.10817500  0.04188600  1
  O  O83  1  0.50039400  0.60817500  0.45811400  1
  O  O84  1  0.15075400  0.73671700  0.80404900  1
  O  O85  1  0.84924600  0.23671700  0.69595100  1
  O  O86  1  0.84924600  0.26328300  0.19595100  1
  O  O87  1  0.15075400  0.76328300  0.30404900  1
loop_
_geom_bond_atom_site_label_1
_geom_bond_atom_site_label_2
_geom_bond_distance
_geom_bond_site_symmetry_2
K0 O62 2.634595 1_454
K0 O60 2.634595 1_545
K0 O12 2.726935 1_554
K0 O14 2.726935 1_445
K0 O16 2.965690 1_555
K0 O18 2.965690 1_444
K1 O61 2.634595 1_455
K1 O63 2.634595 1_555
K1 O15 2.726935 1_555
K1 O13 2.726935 1_455
K1 O19 2.965690 1_555
K1 O17 2.965690 1_455
K2 O32 2.834602 1_555
K2 O52 2.844023 1_555
K2 O0 2.846820 1_565
K2 O77 2.914687 1_555
K2 O73 2.971225 1_555
K2 O28 2.990423 1_565
K2 O16 2.999777 1_565
K2 O68 3.119570 1_565
K2 O40 3.128089 1_555
K3 O33 2.834602 1_555
K3 O53 2.844023 1_555
K3 O1 2.846820 1_555
K3 O76 2.914687 1_555
K3 O72 2.971225 1_555
K3 O29 2.990423 1_555
K3 O17 2.999777 1_555
K3 O69 3.119570 1_555
K3 O41 3.128089 1_555
K4 O34 2.834602 1_555
K4 O54 2.844023 1_555
K4 O2 2.846820 1_545
K4 O79 2.914687 1_555
K4 O75 2.971225 1_555
K4 O30 2.990423 1_545
K4 O18 2.999777 1_545
K4 O70 3.119570 1_545
K4 O42 3.128089 1_555
K5 O35 2.834602 1_555
K5 O55 2.844023 1_555
K5 O3 2.846820 1_555
K5 O78 2.914687 1_555
K5 O74 2.971225 1_555
K5 O31 2.990423 1_555
K5 O19 2.999777 1_555
K5 O71 3.119570 1_555
K5 O43 3.128089 1_555
K6 O44 2.650791 1_555
K6 O79 2.659159 1_555
K6 O74 2.768838 1_555
K6 O8 2.844166 1_555
K6 O42 2.867948 1_555
K6 O31 2.886440 1_555
K7 O45 2.650791 1_565
K7 O78 2.659159 1_555
K7 O75 2.768838 1_565
K7 O9 2.844166 1_555
K7 O43 2.867948 1_555
K7 O30 2.886440 1_555
K8 O46 2.650791 1_555
K8 O77 2.659159 1_555
K8 O72 2.768838 1_555
K8 O10 2.844166 1_555
K8 O40 2.867948 1_555
K8 O29 2.886440 1_555
K9 O47 2.650791 1_545
K9 O76 2.659159 1_555
K9 O73 2.768838 1_545
K9 O11 2.844166 1_555
K9 O41 2.867948 1_555
K9 O28 2.886440 1_555
K10 O32 2.761890 1_556
K10 O84 2.845747 1_555
K10 O50 2.893508 1_455
K10 O60 3.030809 1_556
K10 O58 3.050644 1_455
K10 O48 3.111101 1_556
K10 O26 3.170719 1_455
K10 O4 3.234221 1_555
K10 O12 3.242566 1_565
K10 O44 3.259187 1_555
K11 O33 2.761890 1_555
K11 O85 2.845747 1_555
K11 O51 2.893508 1_655
K11 O61 3.030809 1_555
K11 O59 3.050644 1_645
K11 O49 3.111101 1_545
K11 O27 3.170719 1_655
K11 O5 3.234221 1_545
K11 O13 3.242566 1_555
K11 O45 3.259187 1_555
K12 O34 2.761890 1_554
K12 O86 2.845747 1_555
K12 O48 2.893508 1_655
K12 O62 3.030809 1_554
K12 O56 3.050644 1_655
K12 O50 3.111101 1_554
K12 O24 3.170719 1_655
K12 O6 3.234221 1_555
K12 O14 3.242566 1_545
K12 O46 3.259187 1_555
K13 O35 2.761890 1_555
K13 O87 2.845747 1_555
K13 O49 2.893508 1_455
K13 O63 3.030809 1_555
K13 O57 3.050644 1_465
K13 O51 3.111101 1_565
K13 O25 3.170719 1_455
K13 O7 3.234221 1_565
K13 O15 3.242566 1_555
K13 O47 3.259187 1_555
K14 O74 2.800817 1_555
K14 O79 2.869134 1_565
K14 O55 2.944333 1_555
K14 O8 2.958541 1_565
K14 O80 2.982631 1_555
K14 O84 3.027307 1_555
K14 O67 3.039029 1_565
K14 O23 3.282578 1_565
K15 O75 2.800817 1_555
K15 O78 2.869134 1_555
K15 O54 2.944333 1_555
K15 O9 2.958541 1_555
K15 O81 2.982631 1_555
K15 O85 3.027307 1_555
K15 O66 3.039029 1_555
K15 O22 3.282578 1_555
K16 O72 2.800817 1_555
K16 O77 2.869134 1_545
K16 O53 2.944333 1_555
K16 O10 2.958541 1_545
K16 O82 2.982631 1_555
K16 O86 3.027307 1_555
K16 O65 3.039029 1_545
K16 O21 3.282578 1_545
K17 O73 2.800817 1_555
K17 O76 2.869134 1_555
K17 O52 2.944333 1_555
K17 O11 2.958541 1_555
K17 O83 2.982631 1_555
K17 O87 3.027307 1_555
K17 O64 3.039029 1_555
K17 O20 3.282578 1_555
K18 O24 2.866857 1_665
K18 O57 2.896239 1_565
K18 O25 2.897056 1_555
K18 O14 2.970207 1_555
K18 O10 3.106215 1_555
K18 O56 3.147953 1_655
K18 O21 3.148586 1_555
K19 O25 2.866857 1_455
K19 O56 2.896239 1_555
K19 O24 2.897056 1_555
K19 O15 2.970207 1_555
K19 O11 3.106215 1_555
K19 O57 3.147953 1_455
K19 O20 3.148586 1_555
K20 O26 2.866857 1_445
K20 O59 2.896239 1_545
K20 O27 2.897056 1_555
K20 O12 2.970207 1_555
K20 O8 3.106215 1_555
K20 O58 3.147953 1_455
K20 O23 3.148586 1_555
K21 O27 2.866857 1_655
K21 O58 2.896239 1_555
K21 O26 2.897056 1_555
K21 O13 2.970207 1_555
K21 O9 3.106215 1_555
K21 O59 3.147953 1_655
K21 O22 3.148586 1_555
Np0 O64 2.387827 1_555
Np0 O4 2.401895 1_554
Np0 O68 2.411544 1_555
Np0 O16 2.433289 1_555
Np0 O32 2.436159 1_555
Np0 O48 2.441055 1_555
Np0 O36 2.522121 1_555
Np0 O20 2.571261 1_555
Np0 O52 2.587830 1_555
Np0 O0 2.628815 1_555
Np1 O65 2.387827 1_555
Np1 O5 2.401895 1_555
Np1 O69 2.411544 1_555
Np1 O17 2.433289 1_555
Np1 O33 2.436159 1_565
Np1 O49 2.441055 1_555
Np1 O37 2.522121 1_555
Np1 O21 2.571261 1_555
Np1 O53 2.587830 1_565
Np1 O1 2.628815 1_555
Np2 O66 2.387827 1_555
Np2 O6 2.401895 1_556
Np2 O70 2.411544 1_555
Np2 O18 2.433289 1_555
Np2 O34 2.436159 1_555
Np2 O50 2.441055 1_555
Np2 O38 2.522121 1_555
Np2 O22 2.571261 1_555
Np2 O54 2.587830 1_555
Np2 O2 2.628815 1_555
Np3 O67 2.387827 1_555
Np3 O7 2.401895 1_555
Np3 O71 2.411544 1_555
Np3 O19 2.433289 1_555
Np3 O35 2.436159 1_545
Np3 O51 2.441055 1_555
Np3 O39 2.522121 1_555
Np3 O23 2.571261 1_555
Np3 O55 2.587830 1_545
Np3 O3 2.628815 1_555
H0 O80 1.220129 1_544
H0 O82 1.220129 1_555
H1 O81 1.220129 1_555
H1 O83 1.220129 1_555
H2 O80 1.010512 1_555
H2 O2 1.676331 1_555
H3 O81 1.010512 1_555
H3 O3 1.676331 1_555
H4 O82 1.010512 1_555
H4 O0 1.676331 1_555
H5 O83 1.010512 1_555
H5 O1 1.676331 1_555
H6 O80 1.011085 1_555
H6 O40 1.661046 1_556
H7 O81 1.011085 1_555
H7 O41 1.661046 1_555
H8 O82 1.011085 1_555
H8 O42 1.661046 1_554
H9 O83 1.011085 1_555
H9 O43 1.661046 1_555
H10 O84 0.987325 1_555
H11 O85 0.987325 1_555
H12 O86 0.987325 1_555
H13 O87 0.987325 1_555
H14 O84 0.981743 1_555
H14 K21 2.941443 1_455
H14 K20 3.011996 1_565
H15 O85 0.981743 1_555
H15 K20 2.941443 1_655
H15 K21 3.011996 1_555
H16 O86 0.981743 1_555
H16 K19 2.941443 1_655
H16 K18 3.011996 1_545
H17 O87 0.981743 1_555
H17 K18 2.941443 1_455
H17 K19 3.011996 1_555
O0 S0 1.523286 1_554
O1 S1 1.523286 1_555
O2 S2 1.523286 1_556
O3 S3 1.523286 1_555
O4 S0 1.523409 1_555
O5 S1 1.523409 1_555
O6 S2 1.523409 1_555
O7 S3 1.523409 1_555
O8 S0 1.474070 1_555
O9 S1 1.474070 1_555
O10 S2 1.474070 1_555
O11 S3 1.474070 1_555
O12 S0 1.472001 1_555
O13 S1 1.472001 1_555
O14 S2 1.472001 1_555
O15 S3 1.472001 1_555
O16 S4 1.524386 1_555
O17 S5 1.524386 1_555
O18 S6 1.524386 1_555
O19 S7 1.524386 1_555
O20 S4 1.507590 1_555
O21 S5 1.507590 1_555
O22 S6 1.507590 1_555
O23 S7 1.507590 1_555
O24 S4 1.476926 1_555
O25 S5 1.476926 1_555
O26 S6 1.476926 1_555
O27 S7 1.476926 1_555
O28 S4 1.477911 1_555
O29 S5 1.477911 1_555
O30 S6 1.477911 1_555
O31 S7 1.477911 1_555
O32 S8 1.526549 1_555
O33 S9 1.526549 1_555
O34 S10 1.526549 1_555
O35 S11 1.526549 1_555
O36 S8 1.503425 1_555
O37 S9 1.503425 1_565
O38 S10 1.503425 1_555
O39 S11 1.503425 1_545
O40 S8 1.485222 1_555
O41 S9 1.485222 1_555
O42 S10 1.485222 1_555
O43 S11 1.485222 1_555
O44 S8 1.464605 1_556
O45 S9 1.464605 1_555
O46 S10 1.464605 1_554
O47 S11 1.464605 1_555
O48 S12 1.523214 1_555
O49 S13 1.523214 1_565
O50 S14 1.523214 1_555
O51 S15 1.523214 1_545
O52 S12 1.507502 1_555
O53 S13 1.507502 1_555
O54 S14 1.507502 1_555
O55 S15 1.507502 1_555
O56 S12 1.487857 1_555
O57 S13 1.487857 1_555
O58 S14 1.487857 1_555
O59 S15 1.487857 1_555
O60 S12 1.467042 1_555
O61 S13 1.467042 1_555
O62 S14 1.467042 1_555
O63 S15 1.467042 1_555
O64 S16 1.523652 1_555
O65 S17 1.523652 1_555
O66 S18 1.523652 1_555
O67 S19 1.523652 1_555
O68 S16 1.520385 1_555
O69 S17 1.520385 1_555
O70 S18 1.520385 1_555
O71 S19 1.520385 1_555
O72 S16 1.468886 1_555
O73 S17 1.468886 1_555
O74 S18 1.468886 1_555
O75 S19 1.468886 1_555
O76 S16 1.469093 1_555
O77 S17 1.469093 1_555
O78 S18 1.469093 1_555
O79 S19 1.469093 1_555
