# generated using pymatgen
data_Zr2(ZnGa)3
_symmetry_space_group_name_H-M   'P 1'
_cell_length_a   3.99435182
_cell_length_b   4.03265764
_cell_length_c   8.16630704
_cell_angle_alpha   90.00000000
_cell_angle_beta   90.00000000
_cell_angle_gamma   90.00000000
_symmetry_Int_Tables_number   1
_chemical_formula_structural   Zr2(ZnGa)3
_chemical_formula_sum   'Zr2 Zn3 Ga3'
_cell_volume   131.54167649
_cell_formula_units_Z   1
loop_
 _symmetry_equiv_pos_site_id
 _symmetry_equiv_pos_as_xyz
  1  'x, y, z'
loop_
 _atom_site_type_symbol
 _atom_site_label
 _atom_site_symmetry_multiplicity
 _atom_site_fract_x
 _atom_site_fract_y
 _atom_site_fract_z
 _atom_site_occupancy
  Zr  Zr0  1  -0.00000000  -0.00000000  0.75427051  1
  Zr  Zr1  1  -0.00000000  -0.00000000  0.24572949  1
  Zn  Zn0  1  0.50000000  -0.00000000  0.50000000  1
  Zn  Zn1  1  -0.00000000  0.50000000  -0.00000000  1
  Zn  Zn2  1  -0.00000000  0.50000000  0.50000000  1
  Ga  Ga0  1  0.50000000  0.50000000  0.74132457  1
  Ga  Ga1  1  0.50000000  0.50000000  0.25867543  1
  Ga  Ga2  1  0.50000000  -0.00000000  0.00000000  1
loop_
_geom_bond_atom_site_label_1
_geom_bond_atom_site_label_2
_geom_bond_distance
_geom_bond_site_symmetry_2
Zn0 Zn2 2.838009 1_655
Zn0 Zn2 2.838009 1_645
Zn0 Zn2 2.838009 1_545
Zn0 Zn2 2.838009 1_555
Zn0 Zr1 2.881035 1_555
Zn0 Zr0 2.881035 1_655
Zn0 Zr1 2.881035 1_655
Zn0 Zr0 2.881035 1_555
Zn1 Zr0 2.844721 1_554
Zn1 Zr1 2.844721 1_555
Zn1 Zr1 2.844721 1_565
Zn1 Zr0 2.844721 1_564
Zn2 Zr0 2.894345 1_565
Zn2 Zr1 2.894345 1_565
Zn2 Zr0 2.894345 1_555
Zn2 Zr1 2.894345 1_555
Ga0 Zn2 2.805796 1_555
Ga0 Zn2 2.805796 1_655
Ga0 Zn0 2.819461 1_565
Ga0 Zn0 2.819461 1_555
Ga0 Zr0 2.839977 1_655
Ga0 Zr0 2.839977 1_565
Ga0 Zr0 2.839977 1_665
Ga0 Zr0 2.839977 1_555
Ga0 Zn1 2.907068 1_556
Ga0 Zn1 2.907068 1_656
Ga0 Ga2 2.920259 1_566
Ga0 Ga2 2.920259 1_556
Ga1 Zn2 2.805796 1_655
Ga1 Zn2 2.805796 1_555
Ga1 Zn0 2.819461 1_555
Ga1 Zn0 2.819461 1_565
Ga1 Zr1 2.839977 1_565
Ga1 Zr1 2.839977 1_655
Ga1 Zr1 2.839977 1_665
Ga1 Zr1 2.839977 1_555
Ga1 Zn1 2.907068 1_555
Ga1 Zn1 2.907068 1_655
Ga1 Ga2 2.920259 1_555
Ga1 Ga2 2.920259 1_565
Ga2 Zr0 2.831178 1_554
Ga2 Zr1 2.831178 1_555
Ga2 Zr0 2.831178 1_654
Ga2 Zr1 2.831178 1_655
Ga2 Zn1 2.838009 1_645
Ga2 Zn1 2.838009 1_555
Ga2 Zn1 2.838009 1_545
Ga2 Zn1 2.838009 1_655
