# generated using pymatgen
data_MgTi2O4
_symmetry_space_group_name_H-M   'P 1'
_cell_length_a   5.01970900
_cell_length_b   5.80455300
_cell_length_c   10.52677700
_cell_angle_alpha   90.00000000
_cell_angle_beta   90.00000000
_cell_angle_gamma   90.00000000
_symmetry_Int_Tables_number   1
_chemical_formula_structural   MgTi2O4
_chemical_formula_sum   'Mg4 Ti8 O16'
_cell_volume   306.72045874
_cell_formula_units_Z   4
loop_
 _symmetry_equiv_pos_site_id
 _symmetry_equiv_pos_as_xyz
  1  'x, y, z'
loop_
 _atom_site_type_symbol
 _atom_site_label
 _atom_site_symmetry_multiplicity
 _atom_site_fract_x
 _atom_site_fract_y
 _atom_site_fract_z
 _atom_site_occupancy
  Mg  Mg0  1  0.33509500  0.00000000  0.50000000  1
  Mg  Mg1  1  0.66490500  0.50000000  0.00000000  1
  Mg  Mg2  1  0.02700300  0.00000000  0.00000000  1
  Mg  Mg3  1  0.97299700  0.50000000  0.50000000  1
  Ti  Ti0  1  0.03377200  0.50000000  0.23680200  1
  Ti  Ti1  1  0.03377200  0.50000000  0.76319800  1
  Ti  Ti2  1  0.96622800  0.00000000  0.26319800  1
  Ti  Ti3  1  0.96622800  0.00000000  0.73680200  1
  Ti  Ti4  1  0.50000000  0.25000000  0.25000000  1
  Ti  Ti5  1  0.50000000  0.75000000  0.75000000  1
  Ti  Ti6  1  0.50000000  0.75000000  0.25000000  1
  Ti  Ti7  1  0.50000000  0.25000000  0.75000000  1
  O  O0  1  0.36334900  0.50000000  0.13165200  1
  O  O1  1  0.36334900  0.50000000  0.86834800  1
  O  O2  1  0.63665100  0.00000000  0.36834800  1
  O  O3  1  0.63665100  0.00000000  0.63165200  1
  O  O4  1  0.68814700  0.50000000  0.34861200  1
  O  O5  1  0.68814700  0.50000000  0.65138800  1
  O  O6  1  0.31185300  0.00000000  0.15138800  1
  O  O7  1  0.31185300  0.00000000  0.84861200  1
  O  O8  1  0.16025400  0.25130700  0.36717000  1
  O  O9  1  0.16025400  0.74869300  0.63283000  1
  O  O10  1  0.83974600  0.75130700  0.13283000  1
  O  O11  1  0.83974600  0.24869300  0.86717000  1
  O  O12  1  0.83974600  0.24869300  0.13283000  1
  O  O13  1  0.83974600  0.75130700  0.86717000  1
  O  O14  1  0.16025400  0.74869300  0.36717000  1
  O  O15  1  0.16025400  0.25130700  0.63283000  1
loop_
_geom_bond_atom_site_label_1
_geom_bond_atom_site_label_2
_geom_bond_distance
_geom_bond_site_symmetry_2
Mg0 O2 2.052315 1_555
Mg0 O3 2.052315 1_555
Mg0 O8 2.203024 1_555
Mg0 O15 2.203024 1_555
Mg0 O14 2.203024 1_545
Mg0 O9 2.203024 1_545
Mg1 O0 2.052315 1_555
Mg1 O1 2.052315 1_554
Mg1 O13 2.203024 1_554
Mg1 O11 2.203024 1_554
Mg1 O12 2.203024 1_555
Mg1 O10 2.203024 1_555
Mg2 O6 2.141065 1_555
Mg2 O7 2.141065 1_554
Mg2 O11 2.218684 1_454
Mg2 O13 2.218684 1_444
Mg2 O10 2.218684 1_445
Mg2 O12 2.218684 1_455
Mg3 O5 2.141065 1_555
Mg3 O4 2.141065 1_555
Mg3 O14 2.218684 1_655
Mg3 O9 2.218684 1_655
Mg3 O8 2.218684 1_655
Mg3 O15 2.218684 1_655
O0 Ti0 1.990523 1_555
O0 Ti6 2.031847 1_555
O0 Ti4 2.031847 1_555
O1 Ti1 1.990523 1_555
O1 Ti5 2.031847 1_555
O1 Ti7 2.031847 1_555
O2 Ti2 1.990523 1_555
O2 Ti4 2.031847 1_555
O2 Ti6 2.031847 1_545
O3 Ti3 1.990523 1_555
O3 Ti5 2.031847 1_545
O3 Ti7 2.031847 1_555
O4 Ti4 2.018751 1_555
O4 Ti6 2.018751 1_555
O4 Ti0 2.096505 1_655
O5 Ti7 2.018751 1_555
O5 Ti5 2.018751 1_555
O5 Ti1 2.096505 1_655
O6 Ti4 2.018751 1_555
O6 Ti6 2.018751 1_545
O6 Ti2 2.096505 1_455
O7 Ti7 2.018751 1_555
O7 Ti5 2.018751 1_545
O7 Ti3 2.096505 1_455
O8 Ti2 2.067456 1_455
O8 Ti0 2.090526 1_555
O8 Ti4 2.104725 1_555
O9 Ti3 2.067456 1_465
O9 Ti1 2.090526 1_555
O9 Ti5 2.104725 1_555
O10 Ti0 2.067456 1_655
O10 Ti2 2.090526 1_565
O10 Ti6 2.104725 1_555
O11 Ti1 2.067456 1_655
O11 Ti3 2.090526 1_555
O11 Ti7 2.104725 1_555
O12 Ti0 2.067456 1_655
O12 Ti2 2.090526 1_555
O12 Ti4 2.104725 1_555
O13 Ti1 2.067456 1_655
O13 Ti3 2.090526 1_565
O13 Ti5 2.104725 1_555
O14 Ti2 2.067456 1_465
O14 Ti0 2.090526 1_555
O14 Ti6 2.104725 1_555
O15 Ti3 2.067456 1_455
O15 Ti1 2.090526 1_555
O15 Ti7 2.104725 1_555
