# generated using pymatgen
data_CeErS3
_symmetry_space_group_name_H-M   'P 1'
_cell_length_a   3.92719700
_cell_length_b   10.97052400
_cell_length_c   21.49247287
_cell_angle_alpha   78.46956427
_cell_angle_beta   90.00000000
_cell_angle_gamma   90.00000000
_symmetry_Int_Tables_number   1
_chemical_formula_structural   CeErS3
_chemical_formula_sum   'Ce8 Er8 S24'
_cell_volume   907.28170404
_cell_formula_units_Z   8
loop_
 _symmetry_equiv_pos_site_id
 _symmetry_equiv_pos_as_xyz
  1  'x, y, z'
loop_
 _atom_site_type_symbol
 _atom_site_label
 _atom_site_symmetry_multiplicity
 _atom_site_fract_x
 _atom_site_fract_y
 _atom_site_fract_z
 _atom_site_occupancy
  Ce  Ce0  1  0.25000000  0.30415000  0.76637100  1
  Ce  Ce1  1  0.75000000  0.69585000  0.23362900  1
  Ce  Ce2  1  0.25000000  0.90767500  0.86288600  1
  Ce  Ce3  1  0.75000000  0.09232500  0.13711400  1
  Ce  Ce4  1  0.25000000  0.69284200  0.73145700  1
  Ce  Ce5  1  0.75000000  0.30715800  0.26854300  1
  Ce  Ce6  1  0.25000000  0.80028400  0.53704900  1
  Ce  Ce7  1  0.75000000  0.19971600  0.46295100  1
  Er  Er0  1  0.25000000  0.55335200  0.41769600  1
  Er  Er1  1  0.75000000  0.44664800  0.58230400  1
  Er  Er2  1  0.25000000  0.96996200  0.35226100  1
  Er  Er3  1  0.75000000  0.03003800  0.64773900  1
  Er  Er4  1  0.25000000  0.82277200  0.04649300  1
  Er  Er5  1  0.75000000  0.17722800  0.95350700  1
  Er  Er6  1  0.25000000  0.47734800  0.08868000  1
  Er  Er7  1  0.75000000  0.52265200  0.91132000  1
  S  S0  1  0.25000000  0.08572600  0.03825800  1
  S  S1  1  0.75000000  0.91427400  0.96174200  1
  S  S2  1  0.25000000  0.20646500  0.36572800  1
  S  S3  1  0.75000000  0.79353500  0.63427200  1
  S  S4  1  0.25000000  0.74534700  0.32265600  1
  S  S5  1  0.75000000  0.25465300  0.67734400  1
  S  S6  1  0.25000000  0.63709900  0.96414000  1
  S  S7  1  0.75000000  0.36290100  0.03586000  1
  S  S8  1  0.25000000  0.50579700  0.22235300  1
  S  S9  1  0.75000000  0.49420300  0.77764700  1
  S  S10  1  0.25000000  0.25174700  0.17556300  1
  S  S11  1  0.75000000  0.74825300  0.82443700  1
  S  S12  1  0.25000000  0.87562400  0.16496700  1
  S  S13  1  0.75000000  0.12437600  0.83503300  1
  S  S14  1  0.25000000  0.35361200  0.51465800  1
  S  S15  1  0.75000000  0.64638800  0.48534200  1
  S  S16  1  0.25000000  0.05809600  0.55527600  1
  S  S17  1  0.75000000  0.94190400  0.44472400  1
  S  S18  1  0.25000000  0.96052300  0.72923700  1
  S  S19  1  0.75000000  0.03947700  0.27076300  1
  S  S20  1  0.25000000  0.54855000  0.63409000  1
  S  S21  1  0.75000000  0.45145000  0.36591000  1
  S  S22  1  0.25000000  0.34180700  0.90012200  1
  S  S23  1  0.75000000  0.65819300  0.09987800  1
loop_
_geom_bond_atom_site_label_1
_geom_bond_atom_site_label_2
_geom_bond_distance
_geom_bond_site_symmetry_2
Ce0 S5 2.868289 1_555
Ce0 S5 2.868289 1_455
Ce0 S9 2.909227 1_455
Ce0 S9 2.909227 1_555
Ce0 S13 2.959657 1_455
Ce0 S13 2.959657 1_555
Ce0 S22 2.984791 1_555
Ce0 S20 3.496329 1_555
Ce1 S4 2.868289 1_555
Ce1 S4 2.868289 1_655
Ce1 S8 2.909227 1_555
Ce1 S8 2.909227 1_655
Ce1 S12 2.959657 1_555
Ce1 S12 2.959657 1_655
Ce1 S23 2.984791 1_555
Ce1 S21 3.496329 1_555
Ce2 S18 2.814483 1_555
Ce2 S11 2.859227 1_555
Ce2 S11 2.859227 1_455
Ce2 S1 2.904588 1_455
Ce2 S1 2.904588 1_555
Ce2 S13 3.049067 1_465
Ce2 S13 3.049067 1_565
Ce2 S6 3.311276 1_555
Ce3 S19 2.814483 1_555
Ce3 S10 2.859227 1_555
Ce3 S10 2.859227 1_655
Ce3 S0 2.904588 1_555
Ce3 S0 2.904588 1_655
Ce3 S12 3.049067 1_545
Ce3 S12 3.049067 1_645
Ce3 S7 3.311276 1_555
Ce4 S20 2.865183 1_555
Ce4 S3 2.918290 1_555
Ce4 S3 2.918290 1_455
Ce4 S18 2.927437 1_555
Ce4 S11 2.950317 1_455
Ce4 S11 2.950317 1_555
Ce4 S9 2.953843 1_455
Ce4 S9 2.953843 1_555
Ce5 S21 2.865183 1_555
Ce5 S2 2.918290 1_655
Ce5 S2 2.918290 1_555
Ce5 S19 2.927437 1_555
Ce5 S10 2.950317 1_555
Ce5 S10 2.950317 1_655
Ce5 S8 2.953843 1_655
Ce5 S8 2.953843 1_555
Ce6 S3 2.857555 1_555
Ce6 S3 2.857555 1_455
Ce6 S16 2.931872 1_565
Ce6 S15 2.948090 1_555
Ce6 S15 2.948090 1_455
Ce6 S17 2.995744 1_455
Ce6 S17 2.995744 1_555
Ce6 S20 3.110309 1_555
Ce7 S2 2.857555 1_655
Ce7 S2 2.857555 1_555
Ce7 S17 2.931872 1_545
Ce7 S14 2.948090 1_555
Ce7 S14 2.948090 1_655
Ce7 S16 2.995744 1_555
Ce7 S16 2.995744 1_655
Ce7 S21 3.110309 1_555
Er0 S21 2.615659 1_455
Er0 S21 2.615659 1_555
Er0 S4 2.624660 1_555
Er0 S14 2.705343 1_555
Er0 S15 2.757617 1_455
Er0 S15 2.757617 1_555
Er1 S20 2.615659 1_555
Er1 S20 2.615659 1_655
Er1 S5 2.624660 1_555
Er1 S15 2.705343 1_555
Er1 S14 2.757617 1_655
Er1 S14 2.757617 1_555
Er2 S19 2.640334 1_565
Er2 S19 2.640334 1_465
Er2 S4 2.665272 1_555
Er2 S2 2.667536 1_565
Er2 S17 2.766789 1_555
Er2 S17 2.766789 1_455
Er3 S18 2.640334 1_645
Er3 S18 2.640334 1_545
Er3 S5 2.665272 1_555
Er3 S3 2.667536 1_545
Er3 S16 2.766789 1_655
Er3 S16 2.766789 1_555
Er4 S12 2.722140 1_555
Er4 S1 2.729523 1_454
Er4 S1 2.729523 1_554
Er4 S23 2.757518 1_455
Er4 S23 2.757518 1_555
Er4 S0 2.854637 1_565
Er4 S6 2.953505 1_554
Er5 S13 2.722140 1_555
Er5 S0 2.729523 1_656
Er5 S0 2.729523 1_556
Er5 S22 2.757518 1_655
Er5 S22 2.757518 1_555
Er5 S1 2.854637 1_545
Er5 S7 2.953505 1_556
Er6 S7 2.700125 1_455
Er6 S7 2.700125 1_555
Er6 S10 2.786532 1_555
Er6 S23 2.835603 1_455
Er6 S23 2.835603 1_555
Er6 S6 2.891480 1_554
Er6 S8 2.951235 1_555
Er7 S6 2.700125 1_555
Er7 S6 2.700125 1_655
Er7 S11 2.786532 1_555
Er7 S22 2.835603 1_655
Er7 S22 2.835603 1_555
Er7 S7 2.891480 1_556
Er7 S9 2.951235 1_555
