# generated using pymatgen
data_Sr2CeBiO6
_symmetry_space_group_name_H-M   'P 1'
_cell_length_a   8.70874117
_cell_length_b   8.70874117
_cell_length_c   8.70874117
_cell_angle_alpha   90.00000000
_cell_angle_beta   90.00000000
_cell_angle_gamma   90.00000000
_symmetry_Int_Tables_number   1
_chemical_formula_structural   Sr2CeBiO6
_chemical_formula_sum   'Sr8 Ce4 Bi4 O24'
_cell_volume   660.48985239
_cell_formula_units_Z   4
loop_
 _symmetry_equiv_pos_site_id
 _symmetry_equiv_pos_as_xyz
  1  'x, y, z'
loop_
 _atom_site_type_symbol
 _atom_site_label
 _atom_site_symmetry_multiplicity
 _atom_site_fract_x
 _atom_site_fract_y
 _atom_site_fract_z
 _atom_site_occupancy
  Sr  Sr0  1  0.50000000  0.50000000  0.50000000  1
  Sr  Sr1  1  -0.00000000  0.00000000  -0.00000000  1
  Sr  Sr2  1  -0.00000000  0.00000000  0.50000000  1
  Sr  Sr3  1  -0.00000000  0.50000000  -0.00000000  1
  Sr  Sr4  1  0.50000000  0.00000000  -0.00000000  1
  Sr  Sr5  1  0.50000000  0.50000000  -0.00000000  1
  Sr  Sr6  1  0.50000000  0.00000000  0.50000000  1
  Sr  Sr7  1  -0.00000000  0.50000000  0.50000000  1
  Ce  Ce0  1  0.25000000  0.25000000  0.25000000  1
  Ce  Ce1  1  0.25000000  0.75000000  0.75000000  1
  Ce  Ce2  1  0.75000000  0.25000000  0.75000000  1
  Ce  Ce3  1  0.75000000  0.75000000  0.25000000  1
  Bi  Bi0  1  0.75000000  0.75000000  0.75000000  1
  Bi  Bi1  1  0.75000000  0.25000000  0.25000000  1
  Bi  Bi2  1  0.25000000  0.75000000  0.25000000  1
  Bi  Bi3  1  0.25000000  0.25000000  0.75000000  1
  O  O0  1  0.21121670  0.30013300  0.49859800  1
  O  O1  1  0.21121670  0.69986700  0.50140200  1
  O  O2  1  0.78878330  0.30013300  0.50140200  1
  O  O3  1  0.78878330  0.69986700  0.49859800  1
  O  O4  1  0.30013300  0.49859800  0.21121670  1
  O  O5  1  0.69986700  0.50140200  0.21121670  1
  O  O6  1  0.30013300  0.50140200  0.78878330  1
  O  O7  1  0.69986700  0.49859800  0.78878330  1
  O  O8  1  0.49859800  0.21121670  0.30013300  1
  O  O9  1  0.50140200  0.21121670  0.69986700  1
  O  O10  1  0.50140200  0.78878330  0.30013300  1
  O  O11  1  0.49859800  0.78878330  0.69986700  1
  O  O12  1  0.28878330  0.19986700  0.00140200  1
  O  O13  1  0.28878330  0.80013300  0.99859800  1
  O  O14  1  0.71121670  0.19986700  0.99859800  1
  O  O15  1  0.71121670  0.80013300  0.00140200  1
  O  O16  1  0.19986700  0.00140200  0.28878330  1
  O  O17  1  0.80013300  0.99859800  0.28878330  1
  O  O18  1  0.19986700  0.99859800  0.71121670  1
  O  O19  1  0.80013300  0.00140200  0.71121670  1
  O  O20  1  0.00140200  0.28878330  0.19986700  1
  O  O21  1  0.99859800  0.28878330  0.80013300  1
  O  O22  1  0.99859800  0.71121670  0.19986700  1
  O  O23  1  0.00140200  0.71121670  0.80013300  1
loop_
_geom_bond_atom_site_label_1
_geom_bond_atom_site_label_2
_geom_bond_distance
_geom_bond_site_symmetry_2
Ce0 O8 2.234236 1_555
Ce0 O0 2.234236 1_555
Ce0 O4 2.234236 1_555
Ce0 O12 2.234236 1_555
Ce0 O16 2.234236 1_555
Ce0 O20 2.234236 1_555
Ce1 O11 2.234236 1_555
Ce1 O13 2.234236 1_555
Ce1 O18 2.234236 1_555
Ce1 O1 2.234236 1_555
Ce1 O6 2.234236 1_555
Ce1 O23 2.234236 1_555
Ce2 O21 2.234236 1_555
Ce2 O9 2.234236 1_555
Ce2 O2 2.234236 1_555
Ce2 O14 2.234236 1_555
Ce2 O7 2.234236 1_555
Ce2 O19 2.234236 1_555
Ce3 O10 2.234236 1_555
Ce3 O3 2.234236 1_555
Ce3 O22 2.234236 1_555
Ce3 O17 2.234236 1_555
Ce3 O5 2.234236 1_555
Ce3 O15 2.234236 1_555
Bi0 O19 2.257907 1_565
Bi0 O23 2.257907 1_655
Bi0 O15 2.257907 1_556
Bi0 O3 2.257907 1_555
Bi0 O11 2.257907 1_555
Bi0 O7 2.257907 1_555
Bi1 O20 2.257907 1_655
Bi1 O2 2.257907 1_555
Bi1 O8 2.257907 1_555
Bi1 O5 2.257907 1_555
Bi1 O17 2.257907 1_545
Bi1 O14 2.257907 1_554
Bi2 O16 2.257907 1_565
Bi2 O10 2.257907 1_555
Bi2 O22 2.257907 1_455
Bi2 O13 2.257907 1_554
Bi2 O4 2.257907 1_555
Bi2 O1 2.257907 1_555
Bi3 O12 2.257907 1_556
Bi3 O21 2.257907 1_455
Bi3 O9 2.257907 1_555
Bi3 O6 2.257907 1_555
Bi3 O0 2.257907 1_555
Bi3 O18 2.257907 1_545
O0 Sr7 2.532452 1_555
O0 Sr0 3.058549 1_555
O1 Sr7 2.532452 1_555
O1 Sr0 3.058549 1_555
O2 Sr7 2.532452 1_655
O2 Sr0 3.058549 1_555
O3 Sr7 2.532452 1_655
O3 Sr0 3.058549 1_555
O4 Sr5 2.532452 1_555
O4 Sr0 3.058549 1_555
O5 Sr5 2.532452 1_555
O5 Sr0 3.058549 1_555
O6 Sr5 2.532452 1_556
O6 Sr0 3.058549 1_555
O7 Sr5 2.532452 1_556
O7 Sr0 3.058549 1_555
O8 Sr6 2.532452 1_555
O8 Sr0 3.058549 1_555
O9 Sr6 2.532452 1_555
O9 Sr0 3.058549 1_555
O10 Sr6 2.532452 1_565
O10 Sr0 3.058549 1_555
O11 Sr6 2.532452 1_565
O11 Sr0 3.058549 1_555
O12 Sr4 2.532452 1_555
O12 Sr1 3.058549 1_555
O13 Sr4 2.532452 1_566
O13 Sr1 3.058549 1_566
O14 Sr4 2.532452 1_556
O14 Sr1 3.058549 1_656
O15 Sr4 2.532452 1_565
O15 Sr1 3.058549 1_665
O16 Sr2 2.532452 1_555
O16 Sr1 3.058549 1_555
O17 Sr2 2.532452 1_665
O17 Sr1 3.058549 1_665
O18 Sr2 2.532452 1_565
O18 Sr1 3.058549 1_566
O19 Sr2 2.532452 1_655
O19 Sr1 3.058549 1_656
O20 Sr3 2.532452 1_555
O20 Sr1 3.058549 1_555
O21 Sr3 2.532452 1_656
O21 Sr1 3.058549 1_656
O22 Sr3 2.532452 1_655
O22 Sr1 3.058549 1_665
O23 Sr3 2.532452 1_556
O23 Sr1 3.058549 1_566
