# generated using pymatgen
data_LiMg14Nb
_symmetry_space_group_name_H-M   'P 1'
_cell_length_a   6.37829312
_cell_length_b   6.37829260
_cell_length_c   9.95354798
_cell_angle_alpha   90.00000000
_cell_angle_beta   90.00000000
_cell_angle_gamma   120.00000267
_symmetry_Int_Tables_number   1
_chemical_formula_structural   LiMg14Nb
_chemical_formula_sum   'Li1 Mg14 Nb1'
_cell_volume   350.68520726
_cell_formula_units_Z   1
loop_
 _symmetry_equiv_pos_site_id
 _symmetry_equiv_pos_as_xyz
  1  'x, y, z'
loop_
 _atom_site_type_symbol
 _atom_site_label
 _atom_site_symmetry_multiplicity
 _atom_site_fract_x
 _atom_site_fract_y
 _atom_site_fract_z
 _atom_site_occupancy
  Li  Li0  1  0.16666700  0.33333300  0.12500000  1
  Mg  Mg0  1  0.16779803  0.83389851  0.12500000  1
  Mg  Mg1  1  0.16996719  0.83498310  0.62500000  1
  Mg  Mg2  1  0.66610149  0.33220197  0.12500000  1
  Mg  Mg3  1  0.66501690  0.33003281  0.62500000  1
  Mg  Mg4  1  0.66610149  0.83389851  0.12500000  1
  Mg  Mg5  1  0.66501690  0.83498310  0.62500000  1
  Mg  Mg6  1  0.32887142  0.17112858  0.37787272  1
  Mg  Mg7  1  0.32887142  0.17112858  0.87212728  1
  Mg  Mg8  1  0.32887142  0.65774385  0.37787272  1
  Mg  Mg9  1  0.32887142  0.65774385  0.87212728  1
  Mg  Mg10  1  0.84225615  0.17112858  0.37787272  1
  Mg  Mg11  1  0.84225615  0.17112858  0.87212728  1
  Mg  Mg12  1  0.83333300  0.66666700  0.37604415  1
  Mg  Mg13  1  0.83333300  0.66666700  0.87395585  1
  Nb  Nb0  1  0.16666700  0.33333300  0.62500000  1
loop_
_geom_bond_atom_site_label_1
_geom_bond_atom_site_label_2
_geom_bond_distance
_geom_bond_site_symmetry_2
Li0 Mg6 3.089710 1_555
Li0 Mg7 3.089710 1_554
Li0 Mg8 3.089716 1_555
Li0 Mg9 3.089716 1_554
Li0 Mg10 3.089716 1_455
Li0 Mg11 3.089716 1_454
Li0 Mg0 3.189152 1_555
Li0 Mg4 3.189152 1_555
Li0 Mg4 3.189152 1_445
Li0 Mg0 3.189152 1_545
Li0 Mg2 3.189153 1_455
Li0 Mg2 3.189153 1_555
Mg0 Mg12 3.107600 1_455
Mg0 Mg13 3.107600 1_454
Mg0 Mg8 3.131679 1_555
Mg0 Mg9 3.131679 1_554
Mg0 Mg6 3.131685 1_565
Mg0 Mg7 3.131685 1_564
Mg0 Mg2 3.178325 1_565
Mg0 Mg4 3.178326 1_555
Mg0 Mg2 3.199967 1_455
Mg0 Mg4 3.199968 1_455
Mg1 Mg9 3.082470 1_555
Mg1 Mg8 3.082470 1_555
Mg1 Mg7 3.082477 1_565
Mg1 Mg6 3.082477 1_565
Mg1 Mg12 3.098088 1_455
Mg1 Mg13 3.098088 1_455
Mg1 Mg3 3.157572 1_565
Mg1 Mg5 3.157572 1_555
Mg1 Nb0 3.189198 1_565
Mg1 Nb0 3.189198 1_555
Mg1 Mg3 3.220721 1_455
Mg1 Mg5 3.220721 1_455
Mg2 Mg6 3.131685 1_555
Mg2 Mg7 3.131685 1_554
Mg2 Mg4 3.178325 1_545
Mg2 Mg4 3.199967 1_555
Mg3 Mg7 3.082477 1_555
Mg3 Mg6 3.082477 1_555
Mg3 Mg5 3.157572 1_545
Mg3 Nb0 3.189199 1_555
Mg3 Nb0 3.189199 1_655
Mg3 Mg5 3.220721 1_555
Mg4 Mg8 3.131685 1_555
Mg4 Mg9 3.131685 1_554
Mg5 Mg9 3.082477 1_555
Mg5 Mg8 3.082477 1_555
Mg5 Nb0 3.189198 1_555
Mg5 Nb0 3.189198 1_665
Mg6 Nb0 3.043303 1_555
Mg6 Mg8 3.103775 1_555
Mg6 Mg8 3.274518 1_545
Mg7 Nb0 3.043303 1_555
Mg7 Mg9 3.103775 1_555
Mg7 Mg9 3.274518 1_545
Mg8 Nb0 3.043310 1_555
Mg9 Nb0 3.043310 1_555
Mg10 Nb0 3.043310 1_655
Mg10 Mg3 3.082470 1_555
Mg10 Mg5 3.082477 1_545
Mg10 Mg8 3.103775 1_655
Mg10 Mg6 3.103775 1_655
Mg10 Mg2 3.131679 1_555
Mg10 Mg4 3.131685 1_545
Mg10 Mg12 3.189579 1_555
Mg10 Mg12 3.189579 1_545
Mg10 Mg8 3.274518 1_545
Mg10 Mg6 3.274518 1_555
Mg11 Nb0 3.043310 1_655
Mg11 Mg3 3.082470 1_555
Mg11 Mg5 3.082477 1_545
Mg11 Mg9 3.103775 1_655
Mg11 Mg7 3.103775 1_655
Mg11 Mg2 3.131679 1_556
Mg11 Mg4 3.131685 1_546
Mg11 Mg13 3.189579 1_555
Mg11 Mg13 3.189579 1_545
Mg11 Mg9 3.274518 1_545
Mg11 Mg7 3.274518 1_555
Mg12 Mg5 3.098081 1_555
Mg12 Mg3 3.098088 1_555
Mg12 Mg4 3.107594 1_555
Mg12 Mg2 3.107600 1_555
Mg12 Mg6 3.189579 1_665
Mg12 Mg6 3.189579 1_555
Mg12 Mg8 3.189579 1_655
Mg12 Mg8 3.189579 1_555
Mg13 Mg5 3.098081 1_555
Mg13 Mg3 3.098088 1_555
Mg13 Mg4 3.107594 1_556
Mg13 Mg2 3.107600 1_556
Mg13 Mg7 3.189579 1_665
Mg13 Mg7 3.189579 1_555
Mg13 Mg9 3.189579 1_655
Mg13 Mg9 3.189579 1_555
