# generated using pymatgen
data_Li4Ti3Fe2Co3O16
_symmetry_space_group_name_H-M   'P 1'
_cell_length_a   5.82261000
_cell_length_b   5.84902362
_cell_length_c   9.58366717
_cell_angle_alpha   90.23638271
_cell_angle_beta   90.36422352
_cell_angle_gamma   119.00685554
_symmetry_Int_Tables_number   1
_chemical_formula_structural   Li4Ti3Fe2Co3O16
_chemical_formula_sum   'Li4 Ti3 Fe2 Co3 O16'
_cell_volume   285.43006947
_cell_formula_units_Z   1
loop_
 _symmetry_equiv_pos_site_id
 _symmetry_equiv_pos_as_xyz
  1  'x, y, z'
loop_
 _atom_site_type_symbol
 _atom_site_label
 _atom_site_symmetry_multiplicity
 _atom_site_fract_x
 _atom_site_fract_y
 _atom_site_fract_z
 _atom_site_occupancy
  Li  Li0  1  0.67335400  0.33347100  0.11086800  1
  Li  Li1  1  0.99091500  0.00643400  0.00520800  1
  Li  Li2  1  0.99467000  0.00519100  0.50229800  1
  Li  Li3  1  0.33570900  0.66646700  0.60377800  1
  Ti  Ti0  1  0.34083600  0.16579800  0.78396900  1
  Ti  Ti1  1  0.83309100  0.65988600  0.78459900  1
  Ti  Ti2  1  0.17371200  0.83068100  0.28411800  1
  Fe  Fe0  1  0.66376200  0.32923500  0.50852400  1
  Fe  Fe1  1  0.33901700  0.66302700  0.01097600  1
  Co  Co0  1  0.83099200  0.17057200  0.78899500  1
  Co  Co1  1  0.16998600  0.33853300  0.28536000  1
  Co  Co2  1  0.66119100  0.82976600  0.28826500  1
  O  O0  1  0.32350500  0.15922800  0.39903500  1
  O  O1  1  0.51553600  0.48052900  0.66579900  1
  O  O2  1  0.66945600  0.33348900  0.89617300  1
  O  O3  1  0.99344300  0.00418300  0.69058300  1
  O  O4  1  0.98596200  0.98849900  0.19124100  1
  O  O5  1  0.83148200  0.67606600  0.39632200  1
  O  O6  1  0.51077200  0.03570200  0.66051900  1
  O  O7  1  0.96285200  0.48865400  0.65729900  1
  O  O8  1  0.16580600  0.83737600  0.89825400  1
  O  O9  1  0.82153300  0.14832000  0.39220600  1
  O  O10  1  0.04161900  0.52121500  0.16171100  1
  O  O11  1  0.48695100  0.96277800  0.16524600  1
  O  O12  1  0.34259000  0.67471500  0.39572200  1
  O  O13  1  0.17045100  0.32739200  0.89981800  1
  O  O14  1  0.49825000  0.53329900  0.16770800  1
  O  O15  1  0.67225800  0.82920000  0.89756300  1
loop_
_geom_bond_atom_site_label_1
_geom_bond_atom_site_label_2
_geom_bond_distance
_geom_bond_site_symmetry_2
Li0 O10 1.933868 1_655
Li0 O14 1.964650 1_555
Li0 O11 1.971014 1_545
Li0 O2 2.057547 1_554
Li1 O4 1.785988 1_545
Li1 O15 1.919097 1_544
Li1 O13 1.939840 1_654
Li1 O8 2.011683 1_644
Li2 O3 1.804543 1_555
Li2 O9 1.908557 1_555
Li2 O0 1.953343 1_655
Li2 O5 1.959044 1_545
Li3 O1 1.932412 1_555
Li3 O6 1.961418 1_565
Li3 O7 1.971492 1_455
Li3 O12 1.994909 1_555
Fe0 O0 2.017244 1_555
Fe0 O9 2.037731 1_555
Fe0 O7 2.077925 1_555
Fe0 O5 2.082142 1_555
Fe0 O6 2.101659 1_555
Fe0 O1 2.132150 1_555
Fe1 O13 2.013177 1_554
Fe1 O15 2.024223 1_554
Fe1 O8 2.053485 1_554
Fe1 O14 2.089389 1_555
Fe1 O10 2.102882 1_555
Fe1 O11 2.121206 1_555
Co0 O3 1.904711 1_555
Co0 O2 1.929033 1_555
Co0 O13 2.020663 1_655
Co0 O6 2.037421 1_555
Co0 O15 2.040398 1_545
Co0 O7 2.071273 1_555
Co1 O10 1.969353 1_555
Co1 O0 1.997997 1_555
Co1 O4 1.999579 1_445
Co1 O12 2.011954 1_555
Co1 O14 2.036827 1_555
Co1 O9 2.061411 1_455
Co2 O14 1.901558 1_555
Co2 O9 1.902986 1_565
Co2 O4 1.905074 1_555
Co2 O5 1.929479 1_555
Co2 O12 1.929962 1_555
Co2 O11 1.944830 1_555
O0 Ti2 2.002826 1_545
O1 Ti1 1.974282 1_555
O1 Ti0 1.980371 1_555
O2 Ti0 1.981052 1_555
O2 Ti1 1.990368 1_555
O3 Ti0 1.975257 1_655
O3 Ti1 1.985230 1_545
O4 Ti2 1.952564 1_655
O5 Ti2 2.057299 1_655
O6 Ti0 1.922360 1_555
O7 Ti1 1.948808 1_555
O8 Ti1 2.007620 1_455
O8 Ti0 2.015243 1_565
O10 Ti2 1.965945 1_555
O11 Ti2 1.971882 1_555
O12 Ti2 1.951340 1_555
O13 Ti0 2.006237 1_555
O15 Ti1 1.983234 1_555
