# generated using pymatgen
data_U2(SnPb)3
_symmetry_space_group_name_H-M   'P 1'
_cell_length_a   4.67451400
_cell_length_b   4.70932100
_cell_length_c   9.48439000
_cell_angle_alpha   90.00000000
_cell_angle_beta   90.00000000
_cell_angle_gamma   90.00000000
_symmetry_Int_Tables_number   1
_chemical_formula_structural   U2(SnPb)3
_chemical_formula_sum   'U2 Sn3 Pb3'
_cell_volume   208.78734076
_cell_formula_units_Z   1
loop_
 _symmetry_equiv_pos_site_id
 _symmetry_equiv_pos_as_xyz
  1  'x, y, z'
loop_
 _atom_site_type_symbol
 _atom_site_label
 _atom_site_symmetry_multiplicity
 _atom_site_fract_x
 _atom_site_fract_y
 _atom_site_fract_z
 _atom_site_occupancy
  U  U0  1  0.00000000  0.00000000  0.24524100  1
  U  U1  1  0.00000000  0.00000000  0.75475900  1
  Sn  Sn0  1  0.00000000  0.50000000  0.00000000  1
  Sn  Sn1  1  0.50000000  0.00000000  0.50000000  1
  Sn  Sn2  1  0.50000000  0.00000000  0.00000000  1
  Pb  Pb0  1  0.50000000  0.50000000  0.24763500  1
  Pb  Pb1  1  0.50000000  0.50000000  0.75236500  1
  Pb  Pb2  1  0.00000000  0.50000000  0.50000000  1
loop_
_geom_bond_atom_site_label_1
_geom_bond_atom_site_label_2
_geom_bond_distance
_geom_bond_site_symmetry_2
Sn0 U0 3.309762 1_555
Sn0 U1 3.309762 1_564
Sn0 U1 3.309762 1_554
Sn0 U0 3.309762 1_565
Sn0 Sn2 3.317710 1_565
Sn0 Sn2 3.317710 1_455
Sn0 Sn2 3.317710 1_555
Sn0 Sn2 3.317710 1_465
Sn1 U1 3.361689 1_555
Sn1 U1 3.361689 1_655
Sn1 U0 3.361689 1_655
Sn1 U0 3.361689 1_555
Sn2 U1 3.297403 1_654
Sn2 U1 3.297403 1_554
Sn2 U0 3.297403 1_655
Sn2 U0 3.297403 1_555
Pb0 Sn0 3.313458 1_655
Pb0 Sn0 3.313458 1_555
Pb0 U0 3.317787 1_665
Pb0 U0 3.317787 1_655
Pb0 U0 3.317787 1_565
Pb0 U0 3.317787 1_555
Pb0 Sn2 3.325757 1_565
Pb0 Sn2 3.325757 1_555
Pb0 Pb2 3.345407 1_555
Pb0 Pb2 3.345407 1_655
Pb0 Sn1 3.357589 1_565
Pb0 Sn1 3.357589 1_555
Pb1 Sn0 3.313458 1_556
Pb1 Sn0 3.313458 1_656
Pb1 U1 3.317787 1_565
Pb1 U1 3.317787 1_665
Pb1 U1 3.317787 1_655
Pb1 U1 3.317787 1_555
Pb1 Sn2 3.325757 1_566
Pb1 Sn2 3.325757 1_556
Pb1 Pb2 3.345407 1_555
Pb1 Pb2 3.345407 1_655
Pb1 Sn1 3.357589 1_555
Pb1 Sn1 3.357589 1_565
Pb2 Sn1 3.317710 1_555
Pb2 Sn1 3.317710 1_465
Pb2 Sn1 3.317710 1_455
Pb2 Sn1 3.317710 1_565
Pb2 U1 3.373813 1_555
Pb2 U0 3.373813 1_565
Pb2 U1 3.373813 1_565
Pb2 U0 3.373813 1_555
