# generated using pymatgen
data_Ho5In3
_symmetry_space_group_name_H-M   'P 1'
_cell_length_a   8.98163396
_cell_length_b   8.98163396
_cell_length_c   6.52176328
_cell_angle_alpha   90.00000000
_cell_angle_beta   90.00000000
_cell_angle_gamma   119.99999144
_symmetry_Int_Tables_number   1
_chemical_formula_structural   Ho5In3
_chemical_formula_sum   'Ho10 In6'
_cell_volume   455.62380188
_cell_formula_units_Z   2
loop_
 _symmetry_equiv_pos_site_id
 _symmetry_equiv_pos_as_xyz
  1  'x, y, z'
loop_
 _atom_site_type_symbol
 _atom_site_label
 _atom_site_symmetry_multiplicity
 _atom_site_fract_x
 _atom_site_fract_y
 _atom_site_fract_z
 _atom_site_occupancy
  Ho  Ho0  1  0.66666700  0.33333300  0.00000000  1
  Ho  Ho1  1  0.33333300  0.66666700  0.00000000  1
  Ho  Ho2  1  0.33333300  0.66666700  0.50000000  1
  Ho  Ho3  1  0.66666700  0.33333300  0.50000000  1
  Ho  Ho4  1  0.76328897  0.76328897  0.75000000  1
  Ho  Ho5  1  0.23671103  0.00000000  0.75000000  1
  Ho  Ho6  1  0.00000000  0.23671103  0.75000000  1
  Ho  Ho7  1  0.23671103  0.23671103  0.25000000  1
  Ho  Ho8  1  0.76328897  -0.00000000  0.25000000  1
  Ho  Ho9  1  -0.00000000  0.76328897  0.25000000  1
  In  In0  1  0.40197439  0.40197439  0.75000000  1
  In  In1  1  0.59802561  -0.00000000  0.75000000  1
  In  In2  1  -0.00000000  0.59802561  0.75000000  1
  In  In3  1  0.59802561  0.59802561  0.25000000  1
  In  In4  1  0.40197439  0.00000000  0.25000000  1
  In  In5  1  0.00000000  0.40197439  0.25000000  1
loop_
_geom_bond_atom_site_label_1
_geom_bond_atom_site_label_2
_geom_bond_distance
_geom_bond_site_symmetry_2
Ho0 In1 3.186841 1_554
Ho0 In5 3.186841 1_655
Ho0 In4 3.186843 1_555
Ho0 In2 3.186843 1_654
Ho0 In0 3.186848 1_554
Ho0 In3 3.186848 1_555
Ho0 Ho3 3.260882 1_555
Ho0 Ho3 3.260882 1_554
Ho0 Ho6 3.869483 1_654
Ho0 Ho8 3.869483 1_555
Ho0 Ho5 3.869489 1_554
Ho0 Ho9 3.869489 1_655
Ho0 Ho7 3.869491 1_555
Ho0 Ho4 3.869491 1_554
Ho1 In4 3.186841 1_565
Ho1 In2 3.186841 1_554
Ho1 In1 3.186843 1_564
Ho1 In5 3.186843 1_555
Ho1 In0 3.186848 1_554
Ho1 In3 3.186848 1_555
Ho1 Ho2 3.260882 1_554
Ho1 Ho2 3.260882 1_555
Ho1 Ho5 3.869483 1_564
Ho1 Ho9 3.869483 1_555
Ho1 Ho6 3.869489 1_554
Ho1 Ho8 3.869489 1_565
Ho1 Ho7 3.869491 1_555
Ho1 Ho4 3.869491 1_554
Ho2 In4 3.186841 1_565
Ho2 In2 3.186841 1_555
Ho2 In1 3.186843 1_565
Ho2 In5 3.186843 1_555
Ho2 In3 3.186848 1_555
Ho2 In0 3.186848 1_555
Ho2 Ho5 3.869483 1_565
Ho2 Ho9 3.869483 1_555
Ho2 Ho6 3.869489 1_555
Ho2 Ho8 3.869489 1_565
Ho2 Ho7 3.869491 1_555
Ho2 Ho4 3.869491 1_555
Ho3 In1 3.186841 1_555
Ho3 In5 3.186841 1_655
Ho3 In4 3.186843 1_555
Ho3 In2 3.186843 1_655
Ho3 In3 3.186848 1_555
Ho3 In0 3.186848 1_555
Ho3 Ho6 3.869483 1_655
Ho3 Ho8 3.869483 1_555
Ho3 Ho5 3.869489 1_555
Ho3 Ho9 3.869489 1_655
Ho3 Ho7 3.869491 1_555
Ho3 Ho4 3.869491 1_555
Ho4 In1 3.143107 1_565
Ho4 In2 3.143107 1_655
Ho4 In0 3.245196 1_555
Ho4 In3 3.582820 1_555
Ho4 In3 3.582820 1_556
Ho4 Ho5 3.682430 1_665
Ho4 Ho6 3.682430 1_665
Ho4 Ho8 3.892743 1_566
Ho4 Ho8 3.892743 1_565
Ho4 Ho9 3.892743 1_655
Ho4 Ho9 3.892743 1_656
Ho5 In0 3.143107 1_555
Ho5 In2 3.143107 1_545
Ho5 In1 3.245195 1_555
Ho5 In4 3.582820 1_556
Ho5 In4 3.582820 1_555
Ho5 Ho6 3.682430 1_555
Ho5 Ho7 3.892743 1_555
Ho5 Ho7 3.892743 1_556
Ho5 Ho9 3.892743 1_545
Ho5 Ho9 3.892743 1_546
Ho6 In0 3.143107 1_555
Ho6 In1 3.143107 1_455
Ho6 In2 3.245195 1_555
Ho6 In5 3.582820 1_555
Ho6 In5 3.582820 1_556
Ho6 Ho7 3.892743 1_555
Ho6 Ho7 3.892743 1_556
Ho6 Ho8 3.892743 1_456
Ho6 Ho8 3.892743 1_455
Ho7 In4 3.143107 1_555
Ho7 In5 3.143107 1_555
Ho7 In3 3.245196 1_555
Ho7 In0 3.582820 1_555
Ho7 In0 3.582820 1_554
Ho7 Ho9 3.682430 1_545
Ho7 Ho8 3.682430 1_455
Ho8 In3 3.143107 1_545
Ho8 In5 3.143107 1_655
Ho8 In4 3.245195 1_555
Ho8 In1 3.582820 1_555
Ho8 In1 3.582820 1_554
Ho8 Ho9 3.682430 1_645
Ho9 In3 3.143107 1_455
Ho9 In4 3.143107 1_565
Ho9 In5 3.245195 1_555
Ho9 In2 3.582820 1_554
Ho9 In2 3.582820 1_555
