# generated using pymatgen
data_Cu(SbO3)2
_symmetry_space_group_name_H-M   'P 1'
_cell_length_a   4.65674046
_cell_length_b   4.66541399
_cell_length_c   10.27580399
_cell_angle_alpha   90.00000000
_cell_angle_beta   115.23426268
_cell_angle_gamma   90.00000000
_symmetry_Int_Tables_number   1
_chemical_formula_structural   Cu(SbO3)2
_chemical_formula_sum   'Cu2 Sb4 O12'
_cell_volume   201.94416358
_cell_formula_units_Z   2
loop_
 _symmetry_equiv_pos_site_id
 _symmetry_equiv_pos_as_xyz
  1  'x, y, z'
loop_
 _atom_site_type_symbol
 _atom_site_label
 _atom_site_symmetry_multiplicity
 _atom_site_fract_x
 _atom_site_fract_y
 _atom_site_fract_z
 _atom_site_occupancy
  Cu  Cu0  1  -0.00000000  0.00000000  -0.00000000  1
  Cu  Cu1  1  -0.00000000  0.50000000  0.50000000  1
  Sb  Sb0  1  0.33153683  0.01296164  0.33260238  1
  Sb  Sb1  1  0.33153683  0.48703836  0.83260238  1
  Sb  Sb2  1  0.66846317  0.51296164  0.16739762  1
  Sb  Sb3  1  0.66846317  0.98703836  0.66739762  1
  O  O0  1  0.30739995  0.69062338  -0.00145081  1
  O  O1  1  0.62410617  0.71673277  0.32411439  1
  O  O2  1  0.69260005  0.19062338  0.50145081  1
  O  O3  1  0.02568886  0.18180539  0.83127746  1
  O  O4  1  0.97431114  0.68180539  0.66872254  1
  O  O5  1  0.62410617  0.78326723  0.82411439  1
  O  O6  1  0.69260005  0.30937662  0.00145081  1
  O  O7  1  0.37589383  0.28326723  0.67588561  1
  O  O8  1  0.30739995  0.80937662  0.49854919  1
  O  O9  1  0.37589383  0.21673277  0.17588561  1
  O  O10  1  0.02568886  0.31819461  0.33127746  1
  O  O11  1  0.97431114  0.81819461  0.16872254  1
loop_
_geom_bond_atom_site_label_1
_geom_bond_atom_site_label_2
_geom_bond_distance
_geom_bond_site_symmetry_2
Cu0 O11 1.979018 1_445
Cu0 O3 1.979018 1_554
Cu0 O6 2.037370 1_455
Cu0 O0 2.037370 1_545
Cu0 O9 2.157671 1_555
Cu0 O5 2.157671 1_444
Cu1 O4 1.979018 1_455
Cu1 O10 1.979018 1_555
Cu1 O2 2.037370 1_455
Cu1 O8 2.037370 1_555
Cu1 O1 2.157671 1_455
Cu1 O7 2.157671 1_555
O0 Sb1 1.996503 1_554
O0 Sb2 2.009246 1_555
O1 Sb2 1.955360 1_555
O1 Sb0 1.968533 1_565
O2 Sb3 1.996503 1_545
O2 Sb0 2.009246 1_555
O3 Sb1 2.009985 1_555
O3 Sb3 2.010036 1_445
O4 Sb3 2.009985 1_555
O4 Sb1 2.010036 1_655
O5 Sb3 1.955360 1_555
O5 Sb1 1.968533 1_555
O6 Sb2 1.996503 1_555
O6 Sb1 2.009246 1_554
O7 Sb1 1.955360 1_555
O7 Sb3 1.968533 1_545
O8 Sb0 1.996503 1_565
O8 Sb3 2.009246 1_555
O9 Sb0 1.955360 1_555
O9 Sb2 1.968533 1_555
O10 Sb0 2.009985 1_555
O10 Sb2 2.010036 1_455
O11 Sb2 2.009985 1_555
O11 Sb0 2.010036 1_665
