# generated using pymatgen
data_Fe2O3
_symmetry_space_group_name_H-M   'P 1'
_cell_length_a   8.23347377
_cell_length_b   8.23347377
_cell_length_c   9.49221284
_cell_angle_alpha   54.80432635
_cell_angle_beta   54.80432635
_cell_angle_gamma   70.17763754
_symmetry_Int_Tables_number   1
_chemical_formula_structural   Fe2O3
_chemical_formula_sum   'Fe16 O24'
_cell_volume   429.68964888
_cell_formula_units_Z   8
loop_
 _symmetry_equiv_pos_site_id
 _symmetry_equiv_pos_as_xyz
  1  'x, y, z'
loop_
 _atom_site_type_symbol
 _atom_site_label
 _atom_site_symmetry_multiplicity
 _atom_site_fract_x
 _atom_site_fract_y
 _atom_site_fract_z
 _atom_site_occupancy
  Fe  Fe0  1  0.53647300  0.46352700  0.00000000  1
  Fe  Fe1  1  0.24978800  0.24655000  0.54018100  1
  Fe  Fe2  1  0.46462100  0.53537900  0.50000000  1
  Fe  Fe3  1  0.78269500  0.27931800  0.72246700  1
  Fe  Fe4  1  0.04231300  0.95768700  0.00000000  1
  Fe  Fe5  1  0.21249500  0.71193600  0.78577400  1
  Fe  Fe6  1  0.28806400  0.78750500  0.21422600  1
  Fe  Fe7  1  0.72068200  0.21730500  0.27753300  1
  Fe  Fe8  1  0.96477700  0.03522300  0.50000000  1
  Fe  Fe9  1  0.75345000  0.75021200  0.45981900  1
  Fe  Fe10  1  0.24833900  0.24444600  0.04382200  1
  Fe  Fe11  1  0.75555400  0.75166100  0.95617800  1
  Fe  Fe12  1  0.50332400  0.99659200  0.25382100  1
  Fe  Fe13  1  0.00340800  0.49667600  0.74617900  1
  Fe  Fe14  1  0.50066000  0.99487300  0.75302700  1
  Fe  Fe15  1  0.00512700  0.49934000  0.24697300  1
  O  O0  1  0.76113500  0.54143000  0.71562700  1
  O  O1  1  0.99471900  0.22285500  0.80225500  1
  O  O2  1  0.95719100  0.27052700  0.24811700  1
  O  O3  1  0.27208100  0.49680600  0.02849200  1
  O  O4  1  0.22095500  0.53805000  0.48591000  1
  O  O5  1  0.46195000  0.77904500  0.51409000  1
  O  O6  1  0.27667400  0.95271600  0.74729800  1
  O  O7  1  0.50256800  0.26862800  0.52619500  1
  O  O8  1  0.77481700  0.45504400  0.02759600  1
  O  O9  1  0.77714500  0.00528100  0.19774500  1
  O  O10  1  0.26365300  0.04022300  0.98548800  1
  O  O11  1  0.95977700  0.73634700  0.01451200  1
  O  O12  1  0.73137200  0.49743200  0.47380500  1
  O  O13  1  0.04786600  0.25878500  0.48367100  1
  O  O14  1  0.00637900  0.76974600  0.70614900  1
  O  O15  1  0.72947300  0.04280900  0.75188300  1
  O  O16  1  0.50319400  0.72791900  0.97150800  1
  O  O17  1  0.23025400  0.99362100  0.29385100  1
  O  O18  1  0.74121500  0.95213400  0.51632900  1
  O  O19  1  0.54467400  0.75737000  0.21493400  1
  O  O20  1  0.54495600  0.22518300  0.97240400  1
  O  O21  1  0.45857000  0.23886500  0.28437300  1
  O  O22  1  0.24263000  0.45532600  0.78506600  1
  O  O23  1  0.04728400  0.72332600  0.25270200  1
loop_
_geom_bond_atom_site_label_1
_geom_bond_atom_site_label_2
_geom_bond_distance
_geom_bond_site_symmetry_2
Fe0 O3 1.972104 1_555
Fe0 O16 1.972104 1_554
Fe0 O0 2.042659 1_554
Fe0 O21 2.042659 1_555
Fe0 O8 2.098337 1_555
Fe0 O20 2.098337 1_554
Fe1 O13 1.978376 1_555
Fe1 O21 2.036366 1_555
Fe1 O7 2.071850 1_555
Fe1 O1 2.081600 1_455
Fe1 O4 2.100316 1_555
Fe1 O6 2.103030 1_545
Fe2 O12 1.994435 1_555
Fe2 O7 1.994435 1_555
Fe2 O22 2.038879 1_555
Fe2 O19 2.038879 1_555
Fe2 O4 2.078286 1_555
Fe2 O5 2.078286 1_555
Fe3 O20 1.917874 1_555
Fe3 O15 1.967950 1_555
Fe3 O0 2.070034 1_555
Fe3 O1 2.098802 1_555
Fe3 O13 2.102355 1_655
Fe3 O12 2.173406 1_555
Fe4 O1 1.996770 1_464
Fe4 O9 1.996770 1_465
Fe4 O6 2.050100 1_554
Fe4 O23 2.050100 1_555
Fe4 O10 2.060226 1_564
Fe4 O11 2.060226 1_455
Fe5 O6 1.999028 1_555
Fe5 O11 2.023790 1_456
Fe5 O22 2.045583 1_555
Fe5 O14 2.047887 1_555
Fe5 O5 2.048342 1_555
Fe5 O3 2.166928 1_556
Fe6 O23 1.999028 1_555
Fe6 O10 2.023790 1_564
Fe6 O19 2.045583 1_555
Fe6 O17 2.047887 1_555
Fe6 O4 2.048342 1_555
Fe6 O16 2.166928 1_554
Fe7 O8 1.917874 1_555
Fe7 O2 1.967950 1_555
Fe7 O21 2.070034 1_555
Fe7 O9 2.098802 1_555
Fe7 O18 2.102355 1_545
Fe7 O7 2.173406 1_555
Fe8 O14 2.014576 1_645
Fe8 O17 2.014576 1_645
Fe8 O15 2.055307 1_555
Fe8 O2 2.055307 1_555
Fe8 O18 2.069563 1_545
Fe8 O13 2.069563 1_655
Fe9 O18 1.978376 1_555
Fe9 O0 2.036366 1_555
Fe9 O12 2.071850 1_555
Fe9 O9 2.081600 1_565
Fe9 O5 2.100316 1_555
Fe9 O23 2.103030 1_655
Fe10 O10 1.999707 1_554
Fe10 O17 2.017671 1_545
Fe10 O22 2.052168 1_554
Fe10 O3 2.066586 1_555
Fe10 O2 2.079737 1_455
Fe10 O20 2.098042 1_554
Fe11 O11 1.999707 1_556
Fe11 O14 2.017671 1_655
Fe11 O19 2.052168 1_556
Fe11 O16 2.066586 1_555
Fe11 O15 2.079737 1_565
Fe11 O8 2.098042 1_556
Fe12 O5 1.941775 1_555
Fe12 O9 2.013297 1_565
Fe12 O17 2.059538 1_555
Fe12 O21 2.060113 1_565
Fe12 O19 2.090462 1_555
Fe12 O20 2.093321 1_564
Fe13 O4 1.941775 1_555
Fe13 O1 2.013297 1_455
Fe13 O14 2.059538 1_555
Fe13 O0 2.060113 1_455
Fe13 O22 2.090462 1_555
Fe13 O8 2.093321 1_456
Fe14 O16 1.973993 1_555
Fe14 O6 2.023843 1_555
Fe14 O7 2.026634 1_565
Fe14 O15 2.044707 1_565
Fe14 O10 2.075649 1_565
Fe14 O18 2.098495 1_555
Fe15 O3 1.973993 1_555
Fe15 O23 2.023843 1_555
Fe15 O12 2.026634 1_455
Fe15 O2 2.044707 1_455
Fe15 O11 2.075649 1_455
Fe15 O13 2.098495 1_555
