# generated using pymatgen
data_K2YCuF6
_symmetry_space_group_name_H-M   'P 1'
_cell_length_a   6.25655347
_cell_length_b   6.25655364
_cell_length_c   6.25655363
_cell_angle_alpha   59.99999928
_cell_angle_beta   59.99999895
_cell_angle_gamma   59.99999899
_symmetry_Int_Tables_number   1
_chemical_formula_structural   K2YCuF6
_chemical_formula_sum   'K2 Y1 Cu1 F6'
_cell_volume   173.17711371
_cell_formula_units_Z   1
loop_
 _symmetry_equiv_pos_site_id
 _symmetry_equiv_pos_as_xyz
  1  'x, y, z'
loop_
 _atom_site_type_symbol
 _atom_site_label
 _atom_site_symmetry_multiplicity
 _atom_site_fract_x
 _atom_site_fract_y
 _atom_site_fract_z
 _atom_site_occupancy
  K  K0  1  0.25000000  0.25000000  0.25000000  1
  K  K1  1  0.75000000  0.75000000  0.75000000  1
  Y  Y0  1  0.50000000  0.50000000  0.50000000  1
  Cu  Cu0  1  0.00000000  0.00000000  0.00000000  1
  F  F0  1  0.25397502  0.74602498  0.25397502  1
  F  F1  1  0.74602498  0.74602498  0.25397502  1
  F  F2  1  0.74602498  0.25397502  0.74602498  1
  F  F3  1  0.74602498  0.25397502  0.25397502  1
  F  F4  1  0.25397502  0.74602498  0.74602498  1
  F  F5  1  0.25397502  0.25397502  0.74602498  1
loop_
_geom_bond_atom_site_label_1
_geom_bond_atom_site_label_2
_geom_bond_distance
_geom_bond_site_symmetry_2
Cu0 F0 2.247197 1_545
Cu0 F2 2.247197 1_454
Cu0 F5 2.247197 1_554
Cu0 F1 2.247197 1_445
Cu0 F3 2.247197 1_455
Cu0 F4 2.247197 1_544
F0 Y0 2.176854 1_555
F0 K1 3.128474 1_455
F0 K1 3.128474 1_554
F0 K0 3.128475 1_565
F0 K0 3.128475 1_555
F1 Y0 2.176854 1_555
F1 K0 3.128474 1_655
F1 K0 3.128474 1_565
F1 K1 3.128475 1_554
F1 K1 3.128475 1_555
F2 Y0 2.176854 1_555
F2 K0 3.128474 1_655
F2 K0 3.128474 1_556
F2 K1 3.128475 1_545
F2 K1 3.128475 1_555
F3 Y0 2.176854 1_555
F3 K0 3.128474 1_655
F3 K0 3.128474 1_555
F3 K1 3.128474 1_554
F3 K1 3.128474 1_545
F4 Y0 2.176854 1_555
F4 K1 3.128474 1_455
F4 K1 3.128474 1_555
F4 K0 3.128474 1_556
F4 K0 3.128474 1_565
F5 Y0 2.176854 1_555
F5 K1 3.128474 1_455
F5 K1 3.128474 1_545
F5 K0 3.128475 1_556
F5 K0 3.128475 1_555
