# generated using pymatgen
data_Sr9Zn3(CuO7)2
_symmetry_space_group_name_H-M   'P 1'
_cell_length_a   3.66729300
_cell_length_b   11.42483100
_cell_length_c   11.45452479
_cell_angle_alpha   98.35869529
_cell_angle_beta   99.15613071
_cell_angle_gamma   90.00109327
_symmetry_Int_Tables_number   1
_chemical_formula_structural   Sr9Zn3(CuO7)2
_chemical_formula_sum   'Sr9 Zn3 Cu2 O14'
_cell_volume   468.64421864
_cell_formula_units_Z   1
loop_
 _symmetry_equiv_pos_site_id
 _symmetry_equiv_pos_as_xyz
  1  'x, y, z'
loop_
 _atom_site_type_symbol
 _atom_site_label
 _atom_site_symmetry_multiplicity
 _atom_site_fract_x
 _atom_site_fract_y
 _atom_site_fract_z
 _atom_site_occupancy
  Sr  Sr0  1  0.30173800  0.42642200  0.61122400  1
  Sr  Sr1  1  0.32845700  0.08442900  0.64847700  1
  Sr  Sr2  1  0.31365000  0.78982200  0.63249100  1
  Sr  Sr3  1  0.69158600  0.21964200  0.37916700  1
  Sr  Sr4  1  0.48426300  0.17575900  0.97039300  1
  Sr  Sr5  1  0.49429600  0.49801500  0.00191900  1
  Sr  Sr6  1  0.69715600  0.57586400  0.39257500  1
  Sr  Sr7  1  0.51227100  0.81104200  0.02153700  1
  Sr  Sr8  1  0.68916400  0.90067400  0.37429700  1
  Zn  Zn0  1  0.11170100  0.70357700  0.22326400  1
  Zn  Zn1  1  0.10482000  0.03963700  0.20527800  1
  Zn  Zn2  1  0.88628900  0.29858700  0.77688200  1
  Cu  Cu0  1  0.88724600  0.62374100  0.78828200  1
  Cu  Cu1  1  0.10503300  0.37656300  0.21356800  1
  O  O0  1  0.79345900  0.27551500  0.59489500  1
  O  O1  1  0.19683100  0.07031500  0.39005300  1
  O  O2  1  0.02108500  0.35361400  0.05434400  1
  O  O3  1  0.90951000  0.14125000  0.82208100  1
  O  O4  1  0.18813200  0.40135500  0.37864000  1
  O  O5  1  0.40380600  0.36505100  0.81292500  1
  O  O6  1  0.79314400  0.92758100  0.58843600  1
  O  O7  1  0.20291600  0.72856500  0.40592900  1
  O  O8  1  0.58230300  0.09305100  0.16056700  1
  O  O9  1  0.80468300  0.59920600  0.62316400  1
  O  O10  1  0.96894700  0.64769900  0.94793300  1
  O  O11  1  0.42898200  0.90938400  0.84041100  1
  O  O12  1  0.08555600  0.86328500  0.17180100  1
  O  O13  1  0.59401900  0.63978200  0.18801600  1
loop_
_geom_bond_atom_site_label_1
_geom_bond_atom_site_label_2
_geom_bond_distance
_geom_bond_site_symmetry_2
Cu0 O10 1.785783 1_555
Cu0 O9 1.846904 1_555
Cu1 O2 1.781059 1_555
Cu1 O4 1.846404 1_555
O0 Zn2 2.035981 1_555
O0 Sr3 2.429152 1_555
O0 Sr0 2.504596 1_555
O0 Sr0 2.505424 1_655
O0 Sr1 2.961974 1_555
O0 Sr1 2.999775 1_655
O1 Zn1 2.067208 1_555
O1 Sr3 2.519468 1_455
O1 Sr3 2.520304 1_555
O1 Sr8 2.654482 1_445
O1 Sr8 2.655364 1_545
O1 Sr1 2.903071 1_555
O2 Sr5 2.591043 1_555
O2 Sr5 2.594889 1_455
O2 Sr4 2.785420 1_454
O2 Sr4 2.809044 1_554
O3 Zn2 1.939854 1_555
O3 Sr4 2.474271 1_555
O3 Sr4 2.479903 1_655
O3 Sr1 2.681890 1_555
O3 Sr1 2.708012 1_655
O4 Sr0 2.603490 1_555
O4 Sr6 2.691009 1_455
O4 Sr6 2.701423 1_555
O4 Sr3 2.762778 1_455
O4 Sr3 2.778326 1_555
O5 Zn2 2.002112 1_455
O5 Zn2 2.004803 1_555
O5 Sr5 2.433004 1_556
O5 Sr0 2.483020 1_555
O5 Sr4 2.997031 1_555
O6 Sr8 2.395732 1_555
O6 Sr2 2.509960 1_655
O6 Sr2 2.517353 1_555
O6 Sr1 2.569634 1_565
O6 Sr1 2.598066 1_665
O7 Zn0 2.043250 1_555
O7 Sr6 2.517765 1_455
O7 Sr6 2.522494 1_555
O7 Sr2 2.554624 1_555
O7 Sr8 2.745444 1_455
O7 Sr8 2.755025 1_555
O8 Zn1 2.019200 1_555
O8 Zn1 2.021184 1_655
O8 Sr4 2.473173 1_554
O8 Sr3 2.673925 1_555
O9 Sr6 2.582005 1_555
O9 Sr0 2.675549 1_555
O9 Sr0 2.690584 1_655
O9 Sr2 2.826749 1_555
O9 Sr2 2.847228 1_655
O10 Sr5 2.635742 1_656
O10 Sr5 2.643253 1_556
O10 Sr7 2.643913 1_556
O10 Sr7 2.677938 1_656
O11 Sr7 2.477121 1_556
O11 Sr2 2.539777 1_555
O11 Sr1 3.160568 1_565
O11 Sr4 3.178997 1_565
O12 Zn1 1.994535 1_565
O12 Zn0 1.995175 1_555
O12 Sr7 2.507692 1_455
O12 Sr7 2.515198 1_555
O12 Sr8 2.908740 1_455
O12 Sr8 2.922403 1_555
O13 Zn0 1.991146 1_555
O13 Zn0 1.992222 1_655
O13 Sr5 2.459488 1_555
O13 Sr6 2.526264 1_555
O13 Sr7 2.908180 1_555
