# generated using pymatgen
data_EuCdPt
_symmetry_space_group_name_H-M   'P 1'
_cell_length_a   4.35246097
_cell_length_b   7.38814426
_cell_length_c   8.68030573
_cell_angle_alpha   89.99790756
_cell_angle_beta   90.00000270
_cell_angle_gamma   90.00000376
_symmetry_Int_Tables_number   1
_chemical_formula_structural   EuCdPt
_chemical_formula_sum   'Eu4 Cd4 Pt4'
_cell_volume   279.12920189
_cell_formula_units_Z   4
loop_
 _symmetry_equiv_pos_site_id
 _symmetry_equiv_pos_as_xyz
  1  'x, y, z'
loop_
 _atom_site_type_symbol
 _atom_site_label
 _atom_site_symmetry_multiplicity
 _atom_site_fract_x
 _atom_site_fract_y
 _atom_site_fract_z
 _atom_site_occupancy
  Eu  Eu0  1  0.25000000  0.03815620  0.32116407  1
  Eu  Eu1  1  0.24999998  0.53817135  0.17887398  1
  Eu  Eu2  1  0.75000003  0.96183574  0.67884345  1
  Eu  Eu3  1  0.75000005  0.46185234  0.82112369  1
  Cd  Cd0  1  0.25000003  0.13850489  0.93811484  1
  Cd  Cd1  1  0.24999995  0.63852417  0.56186060  1
  Cd  Cd2  1  0.75000003  0.86149722  0.06187426  1
  Cd  Cd3  1  0.75000002  0.36145535  0.43813997  1
  Pt  Pt0  1  0.24999994  0.25708117  0.62851402  1
  Pt  Pt1  1  0.24999998  0.75712346  0.87147105  1
  Pt  Pt2  1  0.75000006  0.74290659  0.37150234  1
  Pt  Pt3  1  0.74999994  0.24289353  0.12851772  1
loop_
_geom_bond_atom_site_label_1
_geom_bond_atom_site_label_2
_geom_bond_distance
_geom_bond_site_symmetry_2
Eu0 Pt2 3.112091 1_445
Eu0 Pt2 3.112091 1_545
Eu0 Pt0 3.119952 1_555
Eu0 Pt3 3.133718 1_555
Eu0 Pt3 3.133719 1_455
Eu1 Pt3 3.112281 1_555
Eu1 Pt3 3.112281 1_455
Eu1 Pt1 3.120349 1_554
Eu1 Pt2 3.133686 1_455
Eu1 Pt2 3.133687 1_555
Eu2 Pt0 3.112058 1_665
Eu2 Pt0 3.112059 1_565
Eu2 Pt2 3.119903 1_555
Eu2 Pt1 3.133542 1_655
Eu2 Pt1 3.133542 1_555
Eu3 Pt1 3.112235 1_655
Eu3 Pt1 3.112236 1_555
Eu3 Pt3 3.120308 1_556
Eu3 Pt0 3.133728 1_655
Eu3 Pt0 3.133728 1_555
Cd0 Pt0 2.826586 1_555
Cd0 Pt3 2.839450 1_556
Cd0 Pt3 2.839451 1_456
Cd0 Pt1 2.876492 1_545
Cd1 Pt1 2.826779 1_555
Cd1 Pt2 2.839180 1_455
Cd1 Pt2 2.839180 1_555
Cd1 Pt0 2.876913 1_555
Cd2 Pt2 2.826843 1_555
Cd2 Pt1 2.839422 1_654
Cd2 Pt1 2.839423 1_554
Cd2 Pt3 2.876599 1_565
Cd3 Pt3 2.826790 1_555
Cd3 Pt0 2.839243 1_655
Cd3 Pt0 2.839244 1_555
Cd3 Pt2 2.876945 1_555
