# generated using pymatgen
data_NpCo3
_symmetry_space_group_name_H-M   'P 1'
_cell_length_a   5.21481271
_cell_length_b   5.21952391
_cell_length_c   4.36855100
_cell_angle_alpha   90.00000000
_cell_angle_beta   90.00000000
_cell_angle_gamma   120.06302057
_symmetry_Int_Tables_number   1
_chemical_formula_structural   NpCo3
_chemical_formula_sum   'Np2 Co6'
_cell_volume   102.91093053
_cell_formula_units_Z   2
loop_
 _symmetry_equiv_pos_site_id
 _symmetry_equiv_pos_as_xyz
  1  'x, y, z'
loop_
 _atom_site_type_symbol
 _atom_site_label
 _atom_site_symmetry_multiplicity
 _atom_site_fract_x
 _atom_site_fract_y
 _atom_site_fract_z
 _atom_site_occupancy
  Np  Np0  1  0.66674300  0.33335800  0.25000000  1
  Np  Np1  1  0.33337000  0.66666200  0.75000000  1
  Co  Co0  1  0.83774500  0.16225500  0.75000000  1
  Co  Co1  1  0.32447500  0.16222500  0.75000000  1
  Co  Co2  1  0.83776600  0.67550700  0.75000000  1
  Co  Co3  1  0.16215400  0.83779800  0.25000000  1
  Co  Co4  1  0.67558500  0.83780000  0.25000000  1
  Co  Co5  1  0.16216600  0.32439900  0.25000000  1
loop_
_geom_bond_atom_site_label_1
_geom_bond_atom_site_label_2
_geom_bond_distance
_geom_bond_site_symmetry_2
Co0 Co1 2.538284 1_655
Co0 Co2 2.540648 1_545
Co0 Np1 2.606277 1_545
Co0 Np1 2.606527 1_655
Co0 Co5 2.629631 1_655
Co0 Co5 2.629631 1_656
Co0 Co4 2.630455 1_546
Co0 Co4 2.630455 1_545
Co0 Np0 2.676147 1_555
Co0 Np0 2.676147 1_556
Co0 Co1 2.676528 1_555
Co0 Co2 2.678876 1_555
Co1 Co2 2.536848 1_445
Co1 Np1 2.609993 1_555
Co1 Np1 2.610149 1_545
Co1 Co3 2.630383 1_545
Co1 Co3 2.630383 1_546
Co1 Co5 2.630934 1_555
Co1 Co5 2.630934 1_556
Co1 Np0 2.675318 1_555
Co1 Np0 2.675318 1_556
Co1 Co2 2.675352 1_555
Co2 Np1 2.607510 1_555
Co2 Np1 2.607915 1_655
Co2 Co3 2.629548 1_655
Co2 Co3 2.629548 1_656
Co2 Co4 2.630911 1_556
Co2 Co4 2.630911 1_555
Co2 Np0 2.675815 1_555
Co2 Np0 2.675815 1_556
Co3 Co4 2.537371 1_455
Co3 Co5 2.539794 1_565
Co3 Np0 2.606074 1_455
Co3 Np0 2.606765 1_565
Co3 Np1 2.676792 1_555
Co3 Np1 2.676792 1_554
Co3 Co4 2.677441 1_555
Co3 Co5 2.679730 1_555
Co4 Co5 2.536204 1_665
Co4 Np0 2.609981 1_565
Co4 Np0 2.610154 1_555
Co4 Np1 2.675180 1_554
Co4 Np1 2.675180 1_555
Co4 Co5 2.675995 1_555
Co5 Np0 2.607278 1_455
Co5 Np0 2.608163 1_555
Co5 Np1 2.676112 1_555
Co5 Np1 2.676112 1_554
