# generated using pymatgen
data_Mg149Pd
_symmetry_space_group_name_H-M   'P 1'
_cell_length_a   15.88232609
_cell_length_b   15.88233132
_cell_length_c   15.61148482
_cell_angle_alpha   90.00000000
_cell_angle_beta   90.00000000
_cell_angle_gamma   120.00001297
_symmetry_Int_Tables_number   1
_chemical_formula_structural   Mg149Pd
_chemical_formula_sum   'Mg149 Pd1'
_cell_volume   3410.38293279
_cell_formula_units_Z   1
loop_
 _symmetry_equiv_pos_site_id
 _symmetry_equiv_pos_as_xyz
  1  'x, y, z'
loop_
 _atom_site_type_symbol
 _atom_site_label
 _atom_site_symmetry_multiplicity
 _atom_site_fract_x
 _atom_site_fract_y
 _atom_site_fract_z
 _atom_site_occupancy
  Mg  Mg0  1  0.39855809  0.00011387  0.00000000  1
  Mg  Mg1  1  0.60155578  0.00011387  0.00000000  1
  Mg  Mg2  1  0.19312111  0.00162080  0.00000000  1
  Mg  Mg3  1  0.80850068  0.00162180  0.00000000  1
  Mg  Mg4  1  0.99837920  0.19149932  0.00000000  1
  Mg  Mg5  1  0.19312111  0.19150032  0.00000000  1
  Mg  Mg6  1  0.39817057  0.19908479  0.00000000  1
  Mg  Mg7  1  0.80091521  0.19908479  0.00000000  1
  Mg  Mg8  1  0.59980695  0.19961289  0.00000000  1
  Mg  Mg9  1  0.19854379  0.39708757  0.00000000  1
  Mg  Mg10  1  0.99988613  0.39844322  0.00000000  1
  Mg  Mg11  1  0.39855809  0.39844422  0.00000000  1
  Mg  Mg12  1  0.80038711  0.40019405  0.00000000  1
  Mg  Mg13  1  0.59980695  0.40019405  0.00000000  1
  Mg  Mg14  1  0.40013601  0.59986399  0.00000000  1
  Mg  Mg15  1  0.19972798  0.59986399  0.00000000  1
  Mg  Mg16  1  0.99988613  0.60144191  0.00000000  1
  Mg  Mg17  1  0.60155578  0.60144191  0.00000000  1
  Mg  Mg18  1  0.80091521  0.60183043  0.00000000  1
  Mg  Mg19  1  0.40013601  0.80027102  0.00000000  1
  Mg  Mg20  1  0.19854379  0.80145621  0.00000000  1
  Mg  Mg21  1  0.60291243  0.80145621  0.00000000  1
  Mg  Mg22  1  0.99837920  0.80687889  0.00000000  1
  Mg  Mg23  1  0.80850068  0.80687889  0.00000000  1
  Mg  Mg24  1  0.06416466  0.12832931  0.15984538  1
  Mg  Mg25  1  0.06416466  0.93583534  0.15984538  1
  Mg  Mg26  1  0.87167069  0.93583534  0.15984538  1
  Mg  Mg27  1  0.06594645  0.33107760  0.16560311  1
  Mg  Mg28  1  0.26513014  0.33107760  0.16560311  1
  Mg  Mg29  1  0.06594645  0.73486886  0.16560311  1
  Mg  Mg30  1  0.66892240  0.73486986  0.16560311  1
  Mg  Mg31  1  0.66892240  0.93405355  0.16560311  1
  Mg  Mg32  1  0.26513014  0.93405355  0.16560311  1
  Mg  Mg33  1  0.46672343  0.53327757  0.16610145  1
  Mg  Mg34  1  0.06655513  0.53327757  0.16610145  1
  Mg  Mg35  1  0.46672343  0.93344587  0.16610145  1
  Mg  Mg36  1  0.26624935  0.53250070  0.16605108  1
  Mg  Mg37  1  0.26624935  0.73374965  0.16605108  1
  Mg  Mg38  1  0.46749930  0.73374965  0.16605108  1
  Mg  Mg39  1  0.66648769  0.13363526  0.16661022  1
  Mg  Mg40  1  0.46714857  0.13363626  0.16661022  1
  Mg  Mg41  1  0.86636474  0.33351231  0.16661022  1
  Mg  Mg42  1  0.46714857  0.33351231  0.16661022  1
  Mg  Mg43  1  0.66648769  0.53285243  0.16661022  1
  Mg  Mg44  1  0.86636474  0.53285243  0.16661022  1
  Mg  Mg45  1  0.66666700  0.33333300  0.16665081  1
  Mg  Mg46  1  0.26816675  0.13408338  0.16728737  1
  Mg  Mg47  1  0.86591662  0.13408338  0.16728737  1
  Mg  Mg48  1  0.86591662  0.73183325  0.16728737  1
  Mg  Mg49  1  0.00000000  0.00000000  0.33134613  1
  Mg  Mg50  1  0.80080433  0.99969926  0.33188335  1
  Mg  Mg51  1  0.19889494  0.99969926  0.33188335  1
  Mg  Mg52  1  0.19889494  0.19919567  0.33188335  1
  Mg  Mg53  1  0.00030074  0.19919567  0.33188335  1
  Mg  Mg54  1  0.00030074  0.80110506  0.33188335  1
  Mg  Mg55  1  0.80080433  0.80110506  0.33188335  1
  Mg  Mg56  1  0.39949712  0.99981933  0.33276713  1
  Mg  Mg57  1  0.60032221  0.99981933  0.33276713  1
  Mg  Mg58  1  0.39949712  0.39967779  0.33276713  1
  Mg  Mg59  1  0.00018067  0.39967779  0.33276713  1
  Mg  Mg60  1  0.60032221  0.60050188  0.33276713  1
  Mg  Mg61  1  0.00018067  0.60050288  0.33276713  1
  Mg  Mg62  1  0.19988619  0.39977239  0.33288790  1
  Mg  Mg63  1  0.19988619  0.80011381  0.33288790  1
  Mg  Mg64  1  0.60022761  0.80011381  0.33288790  1
  Mg  Mg65  1  0.20002160  0.60001080  0.33314990  1
  Mg  Mg66  1  0.39998920  0.60001080  0.33314990  1
  Mg  Mg67  1  0.39998920  0.79997940  0.33314990  1
  Mg  Mg68  1  0.59986097  0.19972294  0.33344267  1
  Mg  Mg69  1  0.59986097  0.40013803  0.33344267  1
  Mg  Mg70  1  0.80027706  0.40013903  0.33344267  1
  Mg  Mg71  1  0.39979272  0.19989636  0.33360800  1
  Mg  Mg72  1  0.80010364  0.19989636  0.33360800  1
  Mg  Mg73  1  0.80010364  0.60020728  0.33360800  1
  Mg  Mg74  1  0.06655535  0.13311070  0.50000000  1
  Mg  Mg75  1  0.86688796  0.13311204  0.50000000  1
  Mg  Mg76  1  0.26622507  0.13311204  0.50000000  1
  Mg  Mg77  1  0.46672570  0.13329394  0.50000000  1
  Mg  Mg78  1  0.66656924  0.13329394  0.50000000  1
  Mg  Mg79  1  0.06638622  0.33277008  0.50000000  1
  Mg  Mg80  1  0.26638386  0.33277108  0.50000000  1
  Mg  Mg81  1  0.66666700  0.33333300  0.50000000  1
  Mg  Mg82  1  0.86670506  0.33343076  0.50000000  1
  Mg  Mg83  1  0.46672570  0.33343076  0.50000000  1
  Mg  Mg84  1  0.26649146  0.53298192  0.50000000  1
  Mg  Mg85  1  0.46674272  0.53325728  0.50000000  1
  Mg  Mg86  1  0.06651557  0.53325828  0.50000000  1
  Mg  Mg87  1  0.86670506  0.53327430  0.50000000  1
  Mg  Mg88  1  0.66656924  0.53327430  0.50000000  1
  Mg  Mg89  1  0.46701808  0.73350954  0.50000000  1
  Mg  Mg90  1  0.26649146  0.73350954  0.50000000  1
  Mg  Mg91  1  0.06638622  0.73361614  0.50000000  1
  Mg  Mg92  1  0.66722992  0.73361614  0.50000000  1
  Mg  Mg93  1  0.86688796  0.73377593  0.50000000  1
  Mg  Mg94  1  0.46674272  0.93348443  0.50000000  1
  Mg  Mg95  1  0.06655535  0.93344465  0.50000000  1
  Mg  Mg96  1  0.86688930  0.93344465  0.50000000  1
  Mg  Mg97  1  0.66722992  0.93361378  0.50000000  1
  Mg  Mg98  1  0.26638386  0.93361378  0.50000000  1
  Mg  Mg99  1  0.39979272  0.19989636  0.66639200  1
  Mg  Mg100  1  0.80010364  0.19989636  0.66639200  1
  Mg  Mg101  1  0.80010364  0.60020728  0.66639200  1
  Mg  Mg102  1  0.59986097  0.19972294  0.66655833  1
  Mg  Mg103  1  0.59986097  0.40013803  0.66655833  1
  Mg  Mg104  1  0.80027706  0.40013903  0.66655833  1
  Mg  Mg105  1  0.20002160  0.60001080  0.66685010  1
  Mg  Mg106  1  0.39998920  0.60001080  0.66685010  1
  Mg  Mg107  1  0.39998920  0.79997940  0.66685010  1
  Mg  Mg108  1  0.19988619  0.39977239  0.66711210  1
  Mg  Mg109  1  0.19988619  0.80011381  0.66711210  1
  Mg  Mg110  1  0.60022761  0.80011381  0.66711210  1
  Mg  Mg111  1  0.39949712  0.99981933  0.66723287  1
  Mg  Mg112  1  0.60032221  0.99981933  0.66723287  1
  Mg  Mg113  1  0.39949712  0.39967779  0.66723287  1
  Mg  Mg114  1  0.00018067  0.39967779  0.66723287  1
  Mg  Mg115  1  0.60032221  0.60050188  0.66723287  1
  Mg  Mg116  1  0.00018067  0.60050288  0.66723287  1
  Mg  Mg117  1  0.80080433  0.99969926  0.66811665  1
  Mg  Mg118  1  0.19889494  0.99969926  0.66811665  1
  Mg  Mg119  1  0.19889494  0.19919567  0.66811665  1
  Mg  Mg120  1  0.00030074  0.19919567  0.66811665  1
  Mg  Mg121  1  0.00030074  0.80110506  0.66811665  1
  Mg  Mg122  1  0.80080433  0.80110506  0.66811665  1
  Mg  Mg123  1  0.00000000  0.00000000  0.66865387  1
  Mg  Mg124  1  0.26816675  0.13408338  0.83271263  1
  Mg  Mg125  1  0.86591662  0.13408338  0.83271263  1
  Mg  Mg126  1  0.86591662  0.73183325  0.83271263  1
  Mg  Mg127  1  0.66666700  0.33333300  0.83335019  1
  Mg  Mg128  1  0.66648769  0.13363526  0.83338978  1
  Mg  Mg129  1  0.46714857  0.13363626  0.83338978  1
  Mg  Mg130  1  0.86636474  0.33351231  0.83338978  1
  Mg  Mg131  1  0.46714857  0.33351231  0.83338978  1
  Mg  Mg132  1  0.66648769  0.53285243  0.83338978  1
  Mg  Mg133  1  0.86636474  0.53285243  0.83338978  1
  Mg  Mg134  1  0.26624935  0.53250070  0.83394892  1
  Mg  Mg135  1  0.26624935  0.73374965  0.83394892  1
  Mg  Mg136  1  0.46749930  0.73374965  0.83394892  1
  Mg  Mg137  1  0.46672343  0.53327757  0.83389855  1
  Mg  Mg138  1  0.06655513  0.53327757  0.83389855  1
  Mg  Mg139  1  0.46672343  0.93344587  0.83389855  1
  Mg  Mg140  1  0.06594645  0.33107760  0.83439689  1
  Mg  Mg141  1  0.26513014  0.33107760  0.83439689  1
  Mg  Mg142  1  0.06594645  0.73486886  0.83439689  1
  Mg  Mg143  1  0.66892240  0.73486986  0.83439689  1
  Mg  Mg144  1  0.66892240  0.93405355  0.83439689  1
  Mg  Mg145  1  0.26513014  0.93405355  0.83439689  1
  Mg  Mg146  1  0.06416466  0.12832931  0.84015362  1
  Mg  Mg147  1  0.06416466  0.93583534  0.84015362  1
  Mg  Mg148  1  0.87167069  0.93583534  0.84015362  1
  Pd  Pd0  1  0.00000000  0.00000000  0.00000000  1
loop_
_geom_bond_atom_site_label_1
_geom_bond_atom_site_label_2
_geom_bond_distance
_geom_bond_site_symmetry_2
Mg0 Mg6 3.163204 1_555
Mg0 Mg20 3.165974 1_545
Mg0 Mg32 3.170492 1_545
Mg0 Mg145 3.170492 1_544
Mg0 Mg8 3.182495 1_555
Mg0 Mg40 3.184191 1_555
Mg0 Mg129 3.184191 1_554
Mg0 Mg19 3.186575 1_545
Mg0 Mg139 3.188051 1_544
Mg0 Mg35 3.188051 1_545
Mg0 Mg1 3.224076 1_555
Mg0 Mg2 3.274849 1_555
Mg1 Mg7 3.163211 1_555
Mg1 Mg21 3.165975 1_545
Mg1 Mg31 3.170485 1_545
Mg1 Mg144 3.170485 1_544
Mg1 Mg8 3.182488 1_555
Mg1 Mg39 3.184183 1_555
Mg1 Mg128 3.184183 1_554
Mg1 Mg19 3.186566 1_545
Mg1 Mg139 3.188043 1_544
Mg1 Mg35 3.188043 1_545
Mg1 Mg3 3.274857 1_555
Mg2 Pd0 3.054423 1_555
Mg2 Mg46 3.187413 1_555
Mg2 Mg6 3.198127 1_555
Mg2 Mg32 3.220359 1_545
Mg2 Mg20 3.223006 1_545
Mg3 Pd0 3.054415 1_655
Mg3 Mg47 3.187405 1_555
Mg3 Mg7 3.198112 1_555
Mg3 Mg31 3.220375 1_545
Mg4 Pd0 3.054408 1_655
Mg4 Mg47 3.187413 1_555
Mg4 Mg7 3.198127 1_555
Mg4 Mg9 3.223013 1_655
Mg5 Pd0 3.054423 1_555
Mg5 Mg6 3.198135 1_555
Mg5 Mg9 3.223006 1_555
Mg6 Mg8 3.198269 1_555
Mg7 Mg8 3.198269 1_555
Mg10 Mg7 3.163203 1_555
Mg10 Mg9 3.165966 1_655
Mg10 Mg27 3.170477 1_655
Mg10 Mg140 3.170477 1_654
Mg10 Mg12 3.182503 1_555
Mg10 Mg41 3.184183 1_555
Mg10 Mg130 3.184183 1_554
Mg10 Mg15 3.186566 1_655
Mg10 Mg138 3.188059 1_654
Mg10 Mg34 3.188059 1_655
Mg10 Mg16 3.224092 1_555
Mg10 Mg4 3.274850 1_555
Mg11 Mg6 3.163220 1_555
Mg11 Mg9 3.165974 1_555
Mg11 Mg28 3.170492 1_555
Mg11 Mg141 3.170492 1_554
Mg11 Mg13 3.182495 1_555
Mg11 Mg42 3.184191 1_555
Mg11 Mg131 3.184191 1_554
Mg11 Mg14 3.186559 1_555
Mg11 Mg137 3.188051 1_554
Mg11 Mg33 3.188051 1_555
Mg11 Mg17 3.224075 1_555
Mg11 Mg5 3.274849 1_555
Mg12 Mg133 3.177224 1_554
Mg12 Mg44 3.177224 1_555
Mg12 Mg130 3.177232 1_554
Mg12 Mg41 3.177232 1_555
Mg12 Mg16 3.182487 1_555
Mg12 Mg13 3.185680 1_555
Mg12 Mg8 3.185687 1_555
Mg12 Mg127 3.186132 1_554
Mg12 Mg45 3.186145 1_555
Mg12 Mg18 3.198270 1_555
Mg12 Mg7 3.198286 1_555
Mg13 Mg42 3.177223 1_555
Mg13 Mg131 3.177223 1_554
Mg13 Mg43 3.177224 1_555
Mg13 Mg132 3.177224 1_554
Mg13 Mg17 3.182488 1_555
Mg13 Mg8 3.185696 1_555
Mg13 Mg45 3.186153 1_555
Mg13 Mg18 3.198269 1_555
Mg13 Mg6 3.198277 1_555
Mg14 Mg33 3.174805 1_555
Mg14 Mg38 3.179830 1_555
Mg14 Mg36 3.179838 1_555
Mg14 Mg19 3.182931 1_555
Mg14 Mg15 3.182946 1_555
Mg14 Mg17 3.186558 1_555
Mg14 Mg21 3.211199 1_555
Mg14 Mg9 3.211199 1_555
Mg15 Mg34 3.174797 1_555
Mg15 Mg36 3.179822 1_555
Mg15 Mg37 3.179830 1_555
Mg15 Mg19 3.182938 1_555
Mg15 Mg16 3.186558 1_455
Mg15 Mg20 3.211200 1_555
Mg15 Mg9 3.211200 1_555
Mg16 Mg18 3.163211 1_555
Mg16 Mg20 3.165974 1_655
Mg16 Mg29 3.170485 1_655
Mg16 Mg44 3.184183 1_555
Mg16 Mg34 3.188051 1_655
Mg16 Mg22 3.274851 1_555
Mg17 Mg18 3.163211 1_555
Mg17 Mg21 3.165975 1_555
Mg17 Mg30 3.170493 1_555
Mg17 Mg43 3.184183 1_555
Mg17 Mg33 3.188043 1_555
Mg17 Mg23 3.274857 1_555
Mg18 Mg48 3.165101 1_555
Mg18 Mg43 3.191378 1_555
Mg18 Mg44 3.191379 1_555
Mg18 Mg23 3.198112 1_555
Mg18 Mg22 3.198119 1_555
Mg19 Mg35 3.174813 1_555
Mg19 Mg38 3.179822 1_555
Mg19 Mg37 3.179838 1_555
Mg19 Mg21 3.211191 1_555
Mg19 Mg20 3.211207 1_555
Mg20 Mg29 3.163879 1_555
Mg20 Mg32 3.163880 1_555
Mg20 Mg37 3.192028 1_555
Mg20 Mg22 3.223005 1_455
Mg21 Mg30 3.163872 1_555
Mg21 Mg31 3.163880 1_555
Mg21 Mg38 3.192036 1_555
Mg21 Mg23 3.223020 1_555
Mg21 Mg3 3.223020 1_565
Mg22 Pd0 3.054424 1_665
Mg22 Mg48 3.187412 1_555
Mg22 Mg29 3.220368 1_655
Mg23 Pd0 3.054415 1_665
Mg23 Mg48 3.187405 1_555
Mg23 Mg30 3.220375 1_555
Mg24 Pd0 3.056589 1_555
Mg24 Mg46 3.197425 1_555
Mg24 Mg47 3.197426 1_455
Mg24 Mg49 3.206863 1_555
Mg24 Mg28 3.207310 1_555
Mg24 Mg27 3.207320 1_555
Mg24 Mg52 3.263525 1_555
Mg24 Mg53 3.263526 1_555
Mg25 Pd0 3.056589 1_565
Mg25 Mg46 3.197425 1_565
Mg25 Mg48 3.197426 1_455
Mg25 Mg49 3.206863 1_565
Mg25 Mg32 3.207302 1_555
Mg25 Mg29 3.207319 1_555
Mg25 Mg51 3.263525 1_555
Mg25 Mg54 3.263526 1_555
Mg26 Pd0 3.056589 1_665
Mg26 Mg48 3.197427 1_555
Mg26 Mg47 3.197427 1_565
Mg26 Mg49 3.206862 1_665
Mg26 Mg30 3.207310 1_555
Mg26 Mg31 3.207318 1_555
Mg26 Mg55 3.263526 1_555
Mg26 Mg50 3.263526 1_555
Mg27 Mg47 3.153219 1_455
Mg27 Mg28 3.163500 1_555
Mg27 Mg9 3.163879 1_555
Mg27 Mg53 3.166877 1_555
Mg27 Mg41 3.189371 1_455
Mg27 Mg36 3.190216 1_555
Mg27 Mg62 3.196090 1_555
Mg27 Mg59 3.197896 1_555
Mg27 Mg34 3.206594 1_555
Mg27 Mg4 3.220376 1_455
Mg28 Mg46 3.153228 1_555
Mg28 Mg9 3.163872 1_555
Mg28 Mg52 3.166877 1_555
Mg28 Mg42 3.189403 1_555
Mg28 Mg36 3.190225 1_555
Mg28 Mg62 3.196082 1_555
Mg28 Mg58 3.197904 1_555
Mg28 Mg33 3.206608 1_555
Mg28 Mg5 3.220367 1_555
Mg29 Mg48 3.153219 1_455
Mg29 Mg32 3.163508 1_555
Mg29 Mg54 3.166877 1_555
Mg29 Mg44 3.189371 1_455
Mg29 Mg37 3.190209 1_555
Mg29 Mg63 3.196090 1_555
Mg29 Mg61 3.197896 1_555
Mg29 Mg34 3.206594 1_555
Mg30 Mg48 3.153227 1_555
Mg30 Mg31 3.163501 1_555
Mg30 Mg55 3.166877 1_555
Mg30 Mg43 3.189388 1_555
Mg30 Mg38 3.190216 1_555
Mg30 Mg64 3.196082 1_555
Mg30 Mg60 3.197912 1_555
Mg30 Mg33 3.206592 1_555
Mg31 Mg47 3.153219 1_565
Mg31 Mg50 3.166877 1_555
Mg31 Mg39 3.189372 1_565
Mg31 Mg38 3.190224 1_555
Mg31 Mg64 3.196090 1_555
Mg31 Mg57 3.197896 1_555
Mg31 Mg35 3.206585 1_555
Mg32 Mg46 3.153212 1_565
Mg32 Mg51 3.166869 1_555
Mg32 Mg40 3.189395 1_565
Mg32 Mg37 3.190226 1_555
Mg32 Mg63 3.196090 1_555
Mg32 Mg56 3.197904 1_555
Mg32 Mg35 3.206616 1_555
Mg33 Mg43 3.176113 1_555
Mg33 Mg42 3.176129 1_555
Mg33 Mg38 3.177821 1_555
Mg33 Mg36 3.177844 1_555
Mg33 Mg60 3.185379 1_555
Mg33 Mg58 3.185387 1_555
Mg33 Mg66 3.189215 1_555
Mg34 Mg41 3.176128 1_455
Mg34 Mg44 3.176128 1_455
Mg34 Mg36 3.177796 1_555
Mg34 Mg37 3.177804 1_555
Mg34 Mg61 3.185387 1_555
Mg34 Mg59 3.185387 1_555
Mg34 Mg65 3.189207 1_555
Mg35 Mg39 3.176112 1_565
Mg35 Mg40 3.176129 1_565
Mg35 Mg38 3.177821 1_555
Mg35 Mg37 3.177836 1_555
Mg35 Mg57 3.185379 1_555
Mg35 Mg56 3.185387 1_555
Mg35 Mg67 3.189207 1_555
Mg36 Mg62 3.180667 1_555
Mg36 Mg65 3.192016 1_555
Mg36 Mg66 3.192031 1_555
Mg36 Mg9 3.192036 1_555
Mg36 Mg37 3.196303 1_555
Mg36 Mg38 3.196309 1_555
Mg37 Mg63 3.180660 1_555
Mg37 Mg65 3.192024 1_555
Mg37 Mg67 3.192031 1_555
Mg37 Mg38 3.196317 1_555
Mg38 Mg64 3.180667 1_555
Mg38 Mg66 3.192024 1_555
Mg38 Mg67 3.192032 1_555
Mg39 Mg47 3.163860 1_555
Mg39 Mg40 3.165977 1_555
Mg39 Mg45 3.170243 1_555
Mg39 Mg41 3.174512 1_555
Mg39 Mg8 3.177224 1_555
Mg39 Mg68 3.180505 1_555
Mg39 Mg57 3.180637 1_545
Mg39 Mg72 3.189756 1_555
Mg39 Mg7 3.191378 1_555
Mg40 Mg46 3.163868 1_555
Mg40 Mg45 3.170234 1_555
Mg40 Mg42 3.174498 1_555
Mg40 Mg8 3.177223 1_555
Mg40 Mg68 3.180488 1_555
Mg40 Mg56 3.180645 1_545
Mg40 Mg71 3.189756 1_555
Mg40 Mg6 3.191371 1_555
Mg41 Mg47 3.163861 1_555
Mg41 Mg44 3.165986 1_555
Mg41 Mg45 3.170242 1_555
Mg41 Mg70 3.180505 1_555
Mg41 Mg59 3.180636 1_655
Mg41 Mg72 3.189756 1_555
Mg41 Mg7 3.191379 1_555
Mg42 Mg46 3.163868 1_555
Mg42 Mg43 3.165977 1_555
Mg42 Mg45 3.170242 1_555
Mg42 Mg69 3.180488 1_555
Mg42 Mg58 3.180645 1_555
Mg42 Mg71 3.189756 1_555
Mg42 Mg6 3.191379 1_555
Mg43 Mg48 3.163860 1_555
Mg43 Mg45 3.170259 1_555
Mg43 Mg44 3.174512 1_555
Mg43 Mg69 3.180505 1_555
Mg43 Mg60 3.180629 1_555
Mg43 Mg73 3.189756 1_555
Mg44 Mg48 3.163862 1_555
Mg44 Mg45 3.170250 1_555
Mg44 Mg70 3.180497 1_555
Mg44 Mg61 3.180636 1_655
Mg44 Mg73 3.189756 1_555
Mg45 Mg8 3.186145 1_555
Mg45 Mg70 3.187070 1_555
Mg45 Mg68 3.187071 1_555
Mg45 Mg69 3.187079 1_555
Mg46 Mg6 3.165108 1_555
Mg46 Mg71 3.165375 1_555
Mg46 Mg52 3.165502 1_555
Mg46 Mg51 3.165502 1_545
Mg46 Mg5 3.187413 1_555
Mg47 Mg7 3.165101 1_555
Mg47 Mg72 3.165375 1_555
Mg47 Mg53 3.165502 1_655
Mg47 Mg50 3.165502 1_545
Mg48 Mg73 3.165375 1_555
Mg48 Mg54 3.165502 1_655
Mg48 Mg55 3.165502 1_555
Mg49 Mg55 3.161316 1_445
Mg49 Mg52 3.161316 1_555
Mg49 Mg50 3.161316 1_445
Mg49 Mg51 3.161316 1_545
Mg49 Mg53 3.161317 1_555
Mg49 Mg54 3.161317 1_545
Mg49 Mg96 3.206937 1_445
Mg49 Mg74 3.206938 1_555
Mg49 Mg95 3.206938 1_545
Mg50 Mg55 3.154139 1_555
Mg50 Mg53 3.168467 1_665
Mg50 Mg64 3.177821 1_555
Mg50 Mg57 3.185106 1_555
Mg50 Mg72 3.185289 1_565
Mg50 Mg96 3.193999 1_555
Mg50 Mg75 3.202450 1_565
Mg50 Mg97 3.203728 1_555
Mg51 Mg54 3.154138 1_555
Mg51 Mg52 3.168468 1_565
Mg51 Mg63 3.177822 1_555
Mg51 Mg56 3.185106 1_555
Mg51 Mg71 3.185288 1_565
Mg51 Mg95 3.193999 1_555
Mg51 Mg76 3.202450 1_565
Mg51 Mg98 3.203728 1_555
Mg52 Mg53 3.154138 1_555
Mg52 Mg62 3.177822 1_555
Mg52 Mg58 3.185106 1_555
Mg52 Mg71 3.185288 1_555
Mg52 Mg74 3.193999 1_555
Mg52 Mg76 3.202458 1_555
Mg52 Mg80 3.203736 1_555
Mg53 Mg62 3.177821 1_555
Mg53 Mg59 3.185107 1_555
Mg53 Mg72 3.185288 1_455
Mg53 Mg74 3.193999 1_555
Mg53 Mg75 3.202449 1_455
Mg53 Mg79 3.203728 1_555
Mg54 Mg55 3.168467 1_455
Mg54 Mg63 3.177821 1_555
Mg54 Mg61 3.185107 1_555
Mg54 Mg73 3.185288 1_455
Mg54 Mg95 3.193999 1_555
Mg54 Mg93 3.202449 1_455
Mg54 Mg91 3.203728 1_555
Mg55 Mg64 3.177821 1_555
Mg55 Mg60 3.185114 1_555
Mg55 Mg73 3.185289 1_555
Mg55 Mg96 3.193999 1_555
Mg55 Mg93 3.202450 1_555
Mg55 Mg92 3.203728 1_555
Mg56 Mg63 3.171038 1_555
Mg56 Mg71 3.175372 1_565
Mg56 Mg67 3.177844 1_555
Mg56 Mg68 3.178613 1_565
Mg56 Mg98 3.188774 1_555
Mg56 Mg57 3.189570 1_555
Mg56 Mg77 3.191635 1_565
Mg56 Mg94 3.192472 1_555
Mg57 Mg64 3.171039 1_555
Mg57 Mg72 3.175371 1_565
Mg57 Mg67 3.177851 1_555
Mg57 Mg68 3.178622 1_565
Mg57 Mg97 3.188775 1_555
Mg57 Mg78 3.191635 1_565
Mg57 Mg94 3.192464 1_555
Mg58 Mg62 3.171038 1_555
Mg58 Mg71 3.175372 1_555
Mg58 Mg66 3.177860 1_555
Mg58 Mg69 3.178613 1_555
Mg58 Mg80 3.188774 1_555
Mg58 Mg60 3.189562 1_555
Mg58 Mg83 3.191643 1_555
Mg58 Mg85 3.192464 1_555
Mg59 Mg62 3.171038 1_555
Mg59 Mg72 3.175371 1_455
Mg59 Mg65 3.177859 1_555
Mg59 Mg70 3.178621 1_455
Mg59 Mg79 3.188775 1_555
Mg59 Mg61 3.189571 1_555
Mg59 Mg82 3.191643 1_455
Mg59 Mg86 3.192472 1_555
Mg60 Mg64 3.171055 1_555
Mg60 Mg73 3.175363 1_555
Mg60 Mg66 3.177867 1_555
Mg60 Mg69 3.178606 1_555
Mg60 Mg92 3.188782 1_555
Mg60 Mg88 3.191635 1_555
Mg60 Mg85 3.192464 1_555
Mg61 Mg63 3.171038 1_555
Mg61 Mg73 3.175371 1_455
Mg61 Mg65 3.177859 1_555
Mg61 Mg70 3.178613 1_455
Mg61 Mg91 3.188774 1_555
Mg61 Mg87 3.191643 1_455
Mg61 Mg86 3.192464 1_555
Mg62 Mg66 3.179180 1_555
Mg62 Mg65 3.179181 1_555
Mg62 Mg84 3.187987 1_555
Mg62 Mg80 3.190279 1_555
Mg62 Mg79 3.190287 1_555
Mg63 Mg67 3.179172 1_555
Mg63 Mg65 3.179181 1_555
Mg63 Mg90 3.187987 1_555
Mg63 Mg91 3.190287 1_555
Mg63 Mg98 3.190287 1_555
Mg64 Mg66 3.179180 1_555
Mg64 Mg67 3.179188 1_555
Mg64 Mg89 3.187987 1_555
Mg64 Mg97 3.190287 1_555
Mg64 Mg92 3.190287 1_555
Mg65 Mg66 3.175951 1_555
Mg65 Mg67 3.175958 1_555
Mg65 Mg90 3.186934 1_555
Mg65 Mg84 3.186934 1_555
Mg65 Mg86 3.186988 1_555
Mg66 Mg67 3.175968 1_555
Mg66 Mg84 3.186926 1_555
Mg66 Mg89 3.186934 1_555
Mg66 Mg85 3.186997 1_555
Mg67 Mg90 3.186926 1_555
Mg67 Mg89 3.186934 1_555
Mg67 Mg94 3.186981 1_555
Mg68 Mg71 3.178928 1_555
Mg68 Mg72 3.178944 1_555
Mg68 Mg77 3.180316 1_555
Mg68 Mg78 3.180332 1_555
Mg68 Mg69 3.183059 1_555
Mg68 Mg70 3.183074 1_555
Mg68 Mg81 3.184080 1_555
Mg69 Mg71 3.178928 1_555
Mg69 Mg73 3.178944 1_555
Mg69 Mg83 3.180316 1_555
Mg69 Mg88 3.180324 1_555
Mg69 Mg70 3.183066 1_555
Mg69 Mg81 3.184088 1_555
Mg70 Mg73 3.178929 1_555
Mg70 Mg72 3.178945 1_555
Mg70 Mg87 3.180316 1_555
Mg70 Mg82 3.180324 1_555
Mg70 Mg81 3.184080 1_555
Mg71 Mg83 3.181373 1_555
Mg71 Mg77 3.181381 1_555
Mg71 Mg76 3.181635 1_555
Mg72 Mg78 3.181372 1_555
Mg72 Mg82 3.181373 1_555
Mg72 Mg75 3.181644 1_555
Mg73 Mg88 3.181372 1_555
Mg73 Mg87 3.181373 1_555
Mg73 Mg93 3.181644 1_555
Mg74 Mg96 3.171161 1_445
Mg74 Mg95 3.171162 1_545
Mg74 Mg75 3.171193 1_455
Mg74 Mg76 3.171209 1_555
Mg74 Mg79 3.172400 1_555
Mg74 Mg80 3.172407 1_555
Mg75 Mg97 3.169766 1_545
Mg75 Mg79 3.169766 1_655
Mg75 Mg96 3.171194 1_545
Mg75 Mg78 3.182973 1_555
Mg75 Mg82 3.182982 1_555
Mg76 Mg98 3.169759 1_545
Mg76 Mg80 3.169791 1_555
Mg76 Mg95 3.171201 1_545
Mg76 Mg99 3.181635 1_555
Mg76 Mg83 3.182973 1_555
Mg76 Mg77 3.182973 1_555
Mg77 Mg94 3.173576 1_545
Mg77 Mg78 3.173980 1_555
Mg77 Mg81 3.176309 1_555
Mg77 Mg98 3.176653 1_545
Mg77 Mg83 3.178639 1_555
Mg77 Mg99 3.181381 1_555
Mg78 Mg94 3.173575 1_545
Mg78 Mg81 3.176311 1_555
Mg78 Mg97 3.176646 1_545
Mg78 Mg82 3.178630 1_555
Mg79 Mg80 3.176420 1_555
Mg79 Mg82 3.176661 1_455
Mg79 Mg84 3.178983 1_555
Mg79 Mg86 3.183193 1_555
Mg80 Mg83 3.176669 1_555
Mg80 Mg84 3.178961 1_555
Mg80 Mg85 3.183176 1_555
Mg81 Mg82 3.176294 1_555
Mg81 Mg87 3.176301 1_555
Mg81 Mg83 3.176310 1_555
Mg81 Mg88 3.176311 1_555
Mg82 Mg86 3.173591 1_655
Mg82 Mg87 3.173981 1_555
Mg83 Mg85 3.173576 1_555
Mg83 Mg88 3.173980 1_555
Mg83 Mg99 3.181373 1_555
Mg84 Mg85 3.178271 1_555
Mg84 Mg86 3.178279 1_555
Mg84 Mg89 3.184837 1_555
Mg84 Mg90 3.184846 1_555
Mg85 Mg88 3.173575 1_555
Mg85 Mg89 3.178288 1_555
Mg85 Mg92 3.183184 1_555
Mg86 Mg87 3.173583 1_455
Mg86 Mg90 3.178271 1_555
Mg86 Mg91 3.183178 1_555
Mg87 Mg91 3.176661 1_655
Mg87 Mg88 3.178622 1_555
Mg87 Mg93 3.182982 1_555
Mg88 Mg92 3.176662 1_555
Mg88 Mg93 3.182981 1_555
Mg89 Mg94 3.178256 1_555
Mg89 Mg97 3.178976 1_555
Mg89 Mg92 3.178984 1_555
Mg89 Mg90 3.184829 1_555
Mg90 Mg94 3.178263 1_555
Mg90 Mg98 3.178977 1_555
Mg90 Mg91 3.178984 1_555
Mg91 Mg93 3.169766 1_455
Mg91 Mg95 3.172400 1_555
Mg91 Mg98 3.176428 1_555
Mg92 Mg93 3.169766 1_555
Mg92 Mg96 3.172399 1_555
Mg92 Mg97 3.176429 1_555
Mg93 Mg95 3.171193 1_655
Mg93 Mg96 3.171194 1_555
Mg94 Mg97 3.183176 1_555
Mg94 Mg98 3.183192 1_555
Mg95 Mg96 3.171161 1_455
Mg95 Mg98 3.172399 1_555
Mg96 Mg97 3.172399 1_555
Mg100 Mg125 3.165375 1_555
Mg100 Mg114 3.175371 1_655
Mg100 Mg112 3.175371 1_545
Mg100 Mg102 3.178944 1_555
Mg100 Mg104 3.178945 1_555
Mg100 Mg78 3.181372 1_555
Mg100 Mg82 3.181373 1_555
Mg100 Mg75 3.181644 1_555
Mg100 Mg120 3.185288 1_655
Mg100 Mg117 3.185289 1_545
Mg100 Mg128 3.189756 1_555
Mg100 Mg130 3.189756 1_555
Mg101 Mg126 3.165375 1_555
Mg101 Mg115 3.175363 1_555
Mg101 Mg116 3.175371 1_655
Mg101 Mg104 3.178929 1_555
Mg101 Mg103 3.178944 1_555
Mg101 Mg88 3.181372 1_555
Mg101 Mg87 3.181373 1_555
Mg101 Mg93 3.181644 1_555
Mg101 Mg121 3.185288 1_655
Mg101 Mg122 3.185289 1_555
Mg101 Mg132 3.189756 1_555
Mg101 Mg133 3.189756 1_555
Mg102 Mg111 3.178613 1_545
Mg102 Mg112 3.178622 1_545
Mg102 Mg99 3.178928 1_555
Mg102 Mg77 3.180328 1_555
Mg102 Mg78 3.180345 1_555
Mg102 Mg129 3.180476 1_555
Mg102 Mg128 3.180492 1_555
Mg102 Mg103 3.183059 1_555
Mg102 Mg104 3.183074 1_555
Mg102 Mg81 3.184093 1_555
Mg102 Mg127 3.187071 1_555
Mg103 Mg115 3.178606 1_555
Mg103 Mg113 3.178613 1_555
Mg103 Mg99 3.178928 1_555
Mg103 Mg83 3.180328 1_555
Mg103 Mg88 3.180337 1_555
Mg103 Mg131 3.180476 1_555
Mg103 Mg132 3.180492 1_555
Mg103 Mg104 3.183066 1_555
Mg103 Mg81 3.184101 1_555
Mg103 Mg127 3.187079 1_555
Mg104 Mg116 3.178613 1_655
Mg104 Mg114 3.178621 1_655
Mg104 Mg87 3.180329 1_555
Mg104 Mg82 3.180337 1_555
Mg104 Mg133 3.180484 1_555
Mg104 Mg130 3.180492 1_555
Mg104 Mg81 3.184092 1_555
Mg104 Mg127 3.187070 1_555
Mg105 Mg106 3.175951 1_555
Mg105 Mg107 3.175958 1_555
Mg105 Mg114 3.177859 1_555
Mg105 Mg116 3.177859 1_555
Mg105 Mg108 3.179181 1_555
Mg105 Mg109 3.179181 1_555
Mg105 Mg90 3.186934 1_555
Mg105 Mg84 3.186934 1_555
Mg105 Mg86 3.186988 1_555
Mg105 Mg138 3.189207 1_555
Mg105 Mg134 3.192016 1_555
Mg105 Mg135 3.192024 1_555
Mg106 Mg107 3.175968 1_555
Mg106 Mg113 3.177860 1_555
Mg106 Mg115 3.177867 1_555
Mg106 Mg110 3.179180 1_555
Mg106 Mg108 3.179180 1_555
Mg106 Mg84 3.186926 1_555
Mg106 Mg89 3.186934 1_555
Mg106 Mg85 3.186997 1_555
Mg106 Mg137 3.189215 1_555
Mg106 Mg136 3.192024 1_555
Mg106 Mg134 3.192031 1_555
Mg107 Mg111 3.177844 1_555
Mg107 Mg112 3.177851 1_555
Mg107 Mg109 3.179172 1_555
Mg107 Mg110 3.179188 1_555
Mg107 Mg90 3.186926 1_555
Mg107 Mg89 3.186934 1_555
Mg107 Mg94 3.186981 1_555
Mg107 Mg139 3.189207 1_555
Mg107 Mg135 3.192031 1_555
Mg107 Mg136 3.192032 1_555
Mg108 Mg114 3.171038 1_555
Mg108 Mg113 3.171038 1_555
Mg108 Mg120 3.177821 1_555
Mg108 Mg119 3.177822 1_555
Mg108 Mg134 3.180667 1_555
Mg108 Mg84 3.187987 1_555
Mg108 Mg80 3.190279 1_555
Mg108 Mg79 3.190287 1_555
Mg108 Mg141 3.196082 1_555
Mg108 Mg140 3.196090 1_555
Mg109 Mg116 3.171038 1_555
Mg109 Mg111 3.171038 1_555
Mg109 Mg121 3.177821 1_555
Mg109 Mg118 3.177822 1_555
Mg109 Mg135 3.180660 1_555
Mg109 Mg90 3.187987 1_555
Mg109 Mg91 3.190287 1_555
Mg109 Mg98 3.190287 1_555
Mg109 Mg142 3.196090 1_555
Mg109 Mg145 3.196090 1_555
Mg110 Mg112 3.171039 1_555
Mg110 Mg115 3.171055 1_555
Mg110 Mg117 3.177821 1_555
Mg110 Mg122 3.177821 1_555
Mg110 Mg136 3.180667 1_555
Mg110 Mg89 3.187987 1_555
Mg110 Mg97 3.190287 1_555
Mg110 Mg92 3.190287 1_555
Mg110 Mg143 3.196082 1_555
Mg110 Mg144 3.196090 1_555
Mg111 Mg99 3.175372 1_565
Mg111 Mg129 3.180645 1_565
Mg111 Mg118 3.185106 1_555
Mg111 Mg139 3.185387 1_555
Mg111 Mg98 3.188774 1_555
Mg111 Mg112 3.189570 1_555
Mg111 Mg77 3.191635 1_565
Mg111 Mg94 3.192472 1_555
Mg111 Mg145 3.197904 1_555
Mg112 Mg128 3.180637 1_565
Mg112 Mg117 3.185106 1_555
Mg112 Mg139 3.185379 1_555
Mg112 Mg97 3.188775 1_555
Mg112 Mg78 3.191635 1_565
Mg112 Mg94 3.192464 1_555
Mg112 Mg144 3.197896 1_555
Mg113 Mg99 3.175372 1_555
Mg113 Mg131 3.180645 1_555
Mg113 Mg119 3.185106 1_555
Mg113 Mg137 3.185387 1_555
Mg113 Mg80 3.188774 1_555
Mg113 Mg115 3.189562 1_555
Mg113 Mg83 3.191643 1_555
Mg113 Mg85 3.192464 1_555
Mg113 Mg141 3.197904 1_555
Mg114 Mg130 3.180636 1_455
Mg114 Mg120 3.185107 1_555
Mg114 Mg138 3.185387 1_555
Mg114 Mg79 3.188775 1_555
Mg114 Mg116 3.189571 1_555
Mg114 Mg82 3.191643 1_455
Mg114 Mg86 3.192472 1_555
Mg114 Mg140 3.197896 1_555
Mg115 Mg132 3.180629 1_555
Mg115 Mg122 3.185114 1_555
Mg115 Mg137 3.185379 1_555
Mg115 Mg92 3.188782 1_555
Mg115 Mg88 3.191635 1_555
Mg115 Mg85 3.192464 1_555
Mg115 Mg143 3.197912 1_555
Mg116 Mg133 3.180636 1_455
Mg116 Mg121 3.185107 1_555
Mg116 Mg138 3.185387 1_555
Mg116 Mg91 3.188774 1_555
Mg116 Mg87 3.191643 1_455
Mg116 Mg86 3.192464 1_555
Mg116 Mg142 3.197896 1_555
Mg117 Mg122 3.154139 1_555
Mg117 Mg123 3.161316 1_665
Mg117 Mg125 3.165502 1_565
Mg117 Mg144 3.166877 1_555
Mg117 Mg120 3.168467 1_665
Mg117 Mg96 3.193999 1_555
Mg117 Mg75 3.202450 1_565
Mg117 Mg97 3.203728 1_555
Mg117 Mg148 3.263513 1_555
Mg118 Mg121 3.154138 1_555
Mg118 Mg123 3.161316 1_565
Mg118 Mg124 3.165502 1_565
Mg118 Mg145 3.166869 1_555
Mg118 Mg119 3.168468 1_565
Mg118 Mg99 3.185288 1_565
Mg118 Mg95 3.193999 1_555
Mg118 Mg76 3.202450 1_565
Mg118 Mg98 3.203728 1_555
Mg118 Mg147 3.263512 1_555
Mg119 Mg120 3.154138 1_555
Mg119 Mg123 3.161316 1_555
Mg119 Mg124 3.165502 1_555
Mg119 Mg141 3.166877 1_555
Mg119 Mg99 3.185288 1_555
Mg119 Mg74 3.193999 1_555
Mg119 Mg76 3.202458 1_555
Mg119 Mg80 3.203736 1_555
Mg119 Mg146 3.263512 1_555
Mg120 Mg123 3.161317 1_555
Mg120 Mg125 3.165502 1_455
Mg120 Mg140 3.166877 1_555
Mg120 Mg74 3.193999 1_555
Mg120 Mg75 3.202449 1_455
Mg120 Mg79 3.203728 1_555
Mg120 Mg146 3.263513 1_555
Mg121 Mg123 3.161317 1_565
Mg121 Mg126 3.165502 1_455
Mg121 Mg142 3.166877 1_555
Mg121 Mg122 3.168467 1_455
Mg121 Mg95 3.193999 1_555
Mg121 Mg93 3.202449 1_455
Mg121 Mg91 3.203728 1_555
Mg121 Mg147 3.263513 1_555
Mg122 Mg123 3.161316 1_665
Mg122 Mg126 3.165502 1_555
Mg122 Mg143 3.166877 1_555
Mg122 Mg96 3.193999 1_555
Mg122 Mg93 3.202450 1_555
Mg122 Mg92 3.203728 1_555
Mg122 Mg148 3.263513 1_555
Mg123 Mg148 3.206849 1_445
Mg123 Mg146 3.206850 1_555
Mg123 Mg147 3.206850 1_545
Mg123 Mg96 3.206937 1_445
Mg123 Mg74 3.206938 1_555
Mg123 Mg95 3.206938 1_545
Mg124 Mg145 3.153212 1_545
Mg124 Mg141 3.153228 1_555
Mg124 Mg131 3.163868 1_555
Mg124 Mg129 3.163868 1_555
Mg124 Mg6 3.165108 1_556
Mg124 Mg99 3.165375 1_555
Mg124 Mg2 3.187413 1_556
Mg124 Mg5 3.187413 1_556
Mg124 Mg146 3.197425 1_555
Mg124 Mg147 3.197425 1_545
Mg125 Mg140 3.153219 1_655
Mg125 Mg144 3.153219 1_545
Mg125 Mg128 3.163860 1_555
Mg125 Mg130 3.163861 1_555
Mg125 Mg7 3.165101 1_556
Mg125 Mg3 3.187405 1_556
Mg125 Mg4 3.187413 1_556
Mg125 Mg146 3.197425 1_655
Mg125 Mg148 3.197426 1_545
Mg126 Mg142 3.153219 1_655
Mg126 Mg143 3.153227 1_555
Mg126 Mg132 3.163860 1_555
Mg126 Mg133 3.163862 1_555
Mg126 Mg18 3.165101 1_556
Mg126 Mg23 3.187405 1_556
Mg126 Mg22 3.187412 1_556
Mg126 Mg147 3.197425 1_655
Mg126 Mg148 3.197426 1_555
Mg127 Mg129 3.170234 1_555
Mg127 Mg130 3.170242 1_555
Mg127 Mg131 3.170242 1_555
Mg127 Mg128 3.170243 1_555
Mg127 Mg133 3.170250 1_555
Mg127 Mg132 3.170259 1_555
Mg127 Mg8 3.186133 1_556
Mg127 Mg13 3.186140 1_556
Mg128 Mg129 3.165977 1_555
Mg128 Mg130 3.174512 1_555
Mg128 Mg139 3.176112 1_545
Mg128 Mg8 3.177224 1_556
Mg128 Mg144 3.189372 1_545
Mg128 Mg7 3.191378 1_556
Mg129 Mg131 3.174498 1_555
Mg129 Mg139 3.176129 1_545
Mg129 Mg8 3.177223 1_556
Mg129 Mg145 3.189395 1_545
Mg129 Mg99 3.189756 1_555
Mg129 Mg6 3.191371 1_556
Mg130 Mg133 3.165986 1_555
Mg130 Mg138 3.176128 1_655
Mg130 Mg140 3.189371 1_655
Mg130 Mg7 3.191379 1_556
Mg131 Mg132 3.165977 1_555
Mg131 Mg137 3.176129 1_555
Mg131 Mg141 3.189403 1_555
Mg131 Mg99 3.189756 1_555
Mg131 Mg6 3.191379 1_556
Mg132 Mg133 3.174512 1_555
Mg132 Mg137 3.176113 1_555
Mg132 Mg17 3.184183 1_556
Mg132 Mg143 3.189388 1_555
Mg132 Mg18 3.191378 1_556
Mg133 Mg138 3.176128 1_655
Mg133 Mg16 3.184183 1_556
Mg133 Mg142 3.189371 1_655
Mg133 Mg18 3.191379 1_556
Mg134 Mg138 3.177796 1_555
Mg134 Mg137 3.177844 1_555
Mg134 Mg15 3.179822 1_556
Mg134 Mg14 3.179838 1_556
Mg134 Mg140 3.190216 1_555
Mg134 Mg141 3.190225 1_555
Mg134 Mg9 3.192036 1_556
Mg134 Mg135 3.196303 1_555
Mg134 Mg136 3.196309 1_555
Mg135 Mg138 3.177804 1_555
Mg135 Mg139 3.177836 1_555
Mg135 Mg15 3.179830 1_556
Mg135 Mg19 3.179838 1_556
Mg135 Mg142 3.190209 1_555
Mg135 Mg145 3.190226 1_555
Mg135 Mg20 3.192028 1_556
Mg135 Mg136 3.196317 1_555
Mg136 Mg137 3.177821 1_555
Mg136 Mg139 3.177821 1_555
Mg136 Mg19 3.179822 1_556
Mg136 Mg14 3.179830 1_556
Mg136 Mg143 3.190216 1_555
Mg136 Mg144 3.190224 1_555
Mg136 Mg21 3.192036 1_556
Mg137 Mg14 3.174805 1_556
Mg137 Mg17 3.188043 1_556
Mg137 Mg143 3.206592 1_555
Mg137 Mg141 3.206608 1_555
Mg138 Mg15 3.174797 1_556
Mg138 Mg16 3.188051 1_456
Mg138 Mg140 3.206594 1_555
Mg138 Mg142 3.206594 1_555
Mg139 Mg19 3.174813 1_556
Mg139 Mg144 3.206585 1_555
Mg139 Mg145 3.206616 1_555
Mg140 Mg141 3.163500 1_555
Mg140 Mg9 3.163879 1_556
Mg140 Mg146 3.207319 1_555
Mg140 Mg4 3.220376 1_456
Mg141 Mg9 3.163872 1_556
Mg141 Mg146 3.207310 1_555
Mg141 Mg5 3.220367 1_556
Mg142 Mg145 3.163508 1_555
Mg142 Mg20 3.163879 1_556
Mg142 Mg16 3.170485 1_456
Mg142 Mg147 3.207319 1_555
Mg142 Mg22 3.220368 1_456
Mg143 Mg144 3.163501 1_555
Mg143 Mg21 3.163872 1_556
Mg143 Mg17 3.170493 1_556
Mg143 Mg148 3.207310 1_555
Mg143 Mg23 3.220375 1_556
Mg144 Mg21 3.163880 1_556
Mg144 Mg148 3.207318 1_555
Mg144 Mg3 3.220375 1_566
Mg145 Mg20 3.163880 1_556
Mg145 Mg147 3.207302 1_555
Mg145 Mg2 3.220359 1_566
Mg146 Pd0 3.056602 1_556
Mg147 Pd0 3.056602 1_566
Mg148 Pd0 3.056602 1_666
