# generated using pymatgen
data_Ca2IrWO6
_symmetry_space_group_name_H-M   'P 1'
_cell_length_a   5.67792600
_cell_length_b   5.44582500
_cell_length_c   9.51282724
_cell_angle_alpha   55.83944645
_cell_angle_beta   90.00000000
_cell_angle_gamma   90.00000000
_symmetry_Int_Tables_number   1
_chemical_formula_structural   Ca2IrWO6
_chemical_formula_sum   'Ca4 Ir2 W2 O12'
_cell_volume   243.39625322
_cell_formula_units_Z   2
loop_
 _symmetry_equiv_pos_site_id
 _symmetry_equiv_pos_as_xyz
  1  'x, y, z'
loop_
 _atom_site_type_symbol
 _atom_site_label
 _atom_site_symmetry_multiplicity
 _atom_site_fract_x
 _atom_site_fract_y
 _atom_site_fract_z
 _atom_site_occupancy
  Ca  Ca0  1  0.55432100  0.73247800  0.75284400  1
  Ca  Ca1  1  0.05432100  0.26752200  0.74715600  1
  Ca  Ca2  1  0.94567900  0.73247800  0.25284400  1
  Ca  Ca3  1  0.44567900  0.26752200  0.24715600  1
  Ir  Ir0  1  0.00000000  0.50000000  0.00000000  1
  Ir  Ir1  1  0.50000000  0.50000000  0.50000000  1
  W  W0  1  0.00000000  0.00000000  0.50000000  1
  W  W1  1  0.50000000  0.00000000  0.00000000  1
  O  O0  1  0.04424400  0.14384100  0.25296800  1
  O  O1  1  0.29088300  0.74307500  0.56103100  1
  O  O2  1  0.30126400  0.33568500  0.95577000  1
  O  O3  1  0.80126400  0.66431500  0.54423000  1
  O  O4  1  0.79088300  0.25692500  0.93896900  1
  O  O5  1  0.54424400  0.85615900  0.24703200  1
  O  O6  1  0.45575600  0.14384100  0.75296800  1
  O  O7  1  0.20911700  0.74307500  0.06103100  1
  O  O8  1  0.19873600  0.33568500  0.45577000  1
  O  O9  1  0.70911700  0.25692500  0.43896900  1
  O  O10  1  0.69873600  0.66431500  0.04423000  1
  O  O11  1  0.95575600  0.85615900  0.74703200  1
loop_
_geom_bond_atom_site_label_1
_geom_bond_atom_site_label_2
_geom_bond_distance
_geom_bond_site_symmetry_2
Ca0 O6 2.309700 1_565
Ca0 O1 2.334932 1_555
Ca0 O11 2.368584 1_555
Ca0 O2 2.403282 1_555
Ca0 O4 2.548823 1_555
Ca0 O3 2.620936 1_555
Ca0 O10 2.708889 1_556
Ca0 O9 2.875395 1_565
Ca1 O11 2.309700 1_445
Ca1 O4 2.334932 1_455
Ca1 O6 2.368584 1_555
Ca1 O3 2.403282 1_455
Ca1 O1 2.548823 1_555
Ca1 O2 2.620936 1_555
Ca1 O8 2.708889 1_555
Ca1 O7 2.875395 1_546
Ca2 O0 2.309700 1_665
Ca2 O7 2.334932 1_655
Ca2 O5 2.368584 1_555
Ca2 O8 2.403282 1_655
Ca2 O9 2.548823 1_555
Ca2 O10 2.620936 1_555
Ca2 O3 2.708889 1_555
Ca2 O4 2.875395 1_564
Ca3 O5 2.309700 1_545
Ca3 O9 2.334932 1_555
Ca3 O0 2.368584 1_555
Ca3 O10 2.403282 1_555
Ca3 O7 2.548823 1_555
Ca3 O8 2.620936 1_555
Ca3 O2 2.708889 1_554
Ca3 O1 2.875395 1_545
Ir0 O2 2.080042 1_554
Ir0 O10 2.080042 1_455
Ir0 O4 2.088602 1_454
Ir0 O7 2.088602 1_555
Ir0 O11 2.091488 1_454
Ir0 O0 2.091488 1_555
Ir1 O8 2.080042 1_555
Ir1 O3 2.080042 1_555
Ir1 O9 2.088602 1_555
Ir1 O1 2.088602 1_555
Ir1 O5 2.091488 1_555
Ir1 O6 2.091488 1_555
O0 W0 2.032685 1_555
O1 W0 2.027388 1_565
O2 W1 1.982025 1_556
O3 W0 1.982025 1_665
O4 W1 2.027388 1_556
O5 W1 2.032685 1_565
O6 W1 2.032685 1_556
O7 W1 2.027388 1_565
O8 W0 1.982025 1_555
O9 W0 2.027388 1_655
O10 W1 1.982025 1_565
O11 W0 2.032685 1_665
