# generated using pymatgen
data_CaYb4Ti2O10
_symmetry_space_group_name_H-M   'P 1'
_cell_length_a   5.30943757
_cell_length_b   6.42298891
_cell_length_c   8.05286046
_cell_angle_alpha   61.53809898
_cell_angle_beta   83.57798066
_cell_angle_gamma   69.22302795
_symmetry_Int_Tables_number   1
_chemical_formula_structural   CaYb4Ti2O10
_chemical_formula_sum   'Ca1 Yb4 Ti2 O10'
_cell_volume   225.18197481
_cell_formula_units_Z   1
loop_
 _symmetry_equiv_pos_site_id
 _symmetry_equiv_pos_as_xyz
  1  'x, y, z'
loop_
 _atom_site_type_symbol
 _atom_site_label
 _atom_site_symmetry_multiplicity
 _atom_site_fract_x
 _atom_site_fract_y
 _atom_site_fract_z
 _atom_site_occupancy
  Ca  Ca0  1  0.98752700  0.50036700  0.01210300  1
  Yb  Yb0  1  0.51518000  0.78934400  0.75063000  1
  Yb  Yb1  1  0.56846800  0.71803300  0.25435400  1
  Yb  Yb2  1  0.42828200  0.29726400  0.75138200  1
  Yb  Yb3  1  0.50196600  0.22684700  0.23439400  1
  Ti  Ti0  1  0.00648000  0.93734000  0.47207800  1
  Ti  Ti1  1  0.01319400  0.00735500  0.98339400  1
  O  O0  1  0.72590800  0.89454100  0.95172200  1
  O  O1  1  0.37838000  0.85519300  0.46704800  1
  O  O2  1  0.02683200  0.66112100  0.70291200  1
  O  O3  1  0.70325200  0.34162200  0.93350500  1
  O  O4  1  0.28093700  0.66050000  0.08167800  1
  O  O5  1  0.87115600  0.31441600  0.31610100  1
  O  O6  1  0.62781600  0.15253400  0.52642600  1
  O  O7  1  0.14221800  0.10109700  0.75216900  1
  O  O8  1  0.26939000  0.11931600  0.06079000  1
  O  O9  1  0.89051200  0.88311000  0.29395700  1
loop_
_geom_bond_atom_site_label_1
_geom_bond_atom_site_label_2
_geom_bond_distance
_geom_bond_site_symmetry_2
Ca0 O2 2.212544 1_654
Ca0 O8 2.236419 1_655
Ca0 O0 2.249107 1_554
Ca0 O5 2.280249 1_555
Ca0 O3 2.374656 1_554
Ca0 O4 2.383264 1_655
O0 Ti1 1.990990 1_665
O0 Yb2 2.341700 1_565
O0 Yb1 2.346582 1_556
O0 Yb0 2.513019 1_555
O1 Ti0 1.855351 1_555
O1 Yb1 2.269167 1_555
O1 Yb0 2.270237 1_555
O1 Yb3 2.492491 1_565
O2 Ti0 1.838536 1_555
O2 Yb2 2.437189 1_555
O2 Yb0 2.585847 1_455
O3 Ti1 2.073203 1_655
O3 Yb2 2.352848 1_555
O3 Yb0 2.385526 1_555
O3 Yb3 2.415315 1_556
O4 Ti1 1.983611 1_564
O4 Yb3 2.320916 1_555
O4 Yb1 2.401173 1_555
O4 Yb0 2.687800 1_554
O5 Ti0 2.006863 1_645
O5 Yb1 2.354777 1_555
O5 Yb3 2.452569 1_555
O6 Ti0 2.133613 1_645
O6 Yb3 2.293494 1_555
O6 Yb2 2.396930 1_555
O6 Yb0 2.406861 1_545
O7 Ti1 1.799340 1_555
O7 Yb0 2.266274 1_545
O7 Yb2 2.289628 1_555
O8 Ti1 2.016615 1_554
O8 Yb1 2.327032 1_545
O8 Yb2 2.392843 1_554
O8 Yb3 2.422373 1_555
O9 Ti0 1.839522 1_655
O9 Yb3 2.311054 1_565
O9 Ti1 2.327619 1_664
O9 Yb1 2.424891 1_555
