# generated using pymatgen
data_Li2CoSn(PO4)2
_symmetry_space_group_name_H-M   'P 1'
_cell_length_a   4.84141827
_cell_length_b   11.24450041
_cell_length_c   6.30227905
_cell_angle_alpha   89.95749980
_cell_angle_beta   91.18934497
_cell_angle_gamma   90.69686133
_symmetry_Int_Tables_number   1
_chemical_formula_structural   Li2CoSn(PO4)2
_chemical_formula_sum   'Li4 Co2 Sn2 P4 O16'
_cell_volume   342.99251998
_cell_formula_units_Z   2
loop_
 _symmetry_equiv_pos_site_id
 _symmetry_equiv_pos_as_xyz
  1  'x, y, z'
loop_
 _atom_site_type_symbol
 _atom_site_label
 _atom_site_symmetry_multiplicity
 _atom_site_fract_x
 _atom_site_fract_y
 _atom_site_fract_z
 _atom_site_occupancy
  Li  Li0  1  0.99835600  0.00039800  0.00037200  1
  Li  Li1  1  0.99389800  0.00268600  0.49733000  1
  Li  Li2  1  0.50084200  0.50015500  0.99988800  1
  Li  Li3  1  0.50048700  0.50000800  0.49959600  1
  Co  Co0  1  0.06514900  0.70706300  0.74719100  1
  Co  Co1  1  0.93671800  0.29317400  0.25262700  1
  Sn  Sn0  1  0.48334100  0.22438700  0.75491900  1
  Sn  Sn1  1  0.51658000  0.77575300  0.24541200  1
  P  P0  1  0.34857000  0.12075600  0.25007200  1
  P  P1  1  0.65190600  0.87864800  0.75078100  1
  P  P2  1  0.92057800  0.42498700  0.75027600  1
  P  P3  1  0.08009300  0.57478900  0.24922100  1
  O  O0  1  0.74300100  0.01121400  0.73759900  1
  O  O1  1  0.25462400  0.98866300  0.26270200  1
  O  O2  1  0.66365300  0.13892700  0.24485400  1
  O  O3  1  0.33749900  0.85949000  0.75714100  1
  O  O4  1  0.23897800  0.41604900  0.75379900  1
  O  O5  1  0.76171600  0.58345700  0.24571300  1
  O  O6  1  0.19285300  0.44607500  0.25786800  1
  O  O7  1  0.80844500  0.55371600  0.74184400  1
  O  O8  1  0.19203400  0.17457400  0.05116300  1
  O  O9  1  0.21401600  0.18726100  0.44227000  1
  O  O10  1  0.78615300  0.81239200  0.55836800  1
  O  O11  1  0.80943200  0.82579700  0.94993600  1
  O  O12  1  0.78324500  0.35823700  0.55294800  1
  O  O13  1  0.79002800  0.36448600  0.95193800  1
  O  O14  1  0.21073100  0.63525000  0.04764800  1
  O  O15  1  0.21707400  0.64160800  0.44652300  1
loop_
_geom_bond_atom_site_label_1
_geom_bond_atom_site_label_2
_geom_bond_distance
_geom_bond_site_symmetry_2
Li0 O0 2.050393 1_554
Li0 O1 2.051483 1_645
Li0 O11 2.176549 1_544
Li0 O8 2.182042 1_655
Li1 O0 1.963930 1_555
Li1 O1 1.971655 1_645
Li1 O9 2.350337 1_655
Li1 O10 2.387601 1_545
Li2 O14 2.107386 1_556
Li2 O13 2.109256 1_555
Li2 O5 2.182866 1_556
Li2 O4 2.190536 1_555
Li2 O7 2.302728 1_555
Li2 O6 2.305152 1_556
Li3 O12 2.135780 1_555
Li3 O15 2.136132 1_555
Li3 O6 2.189091 1_555
Li3 O7 2.191686 1_555
Li3 O5 2.256777 1_555
Li3 O4 2.261349 1_555
Co0 O7 2.113098 1_455
Co0 O10 2.147896 1_455
Co0 O3 2.149876 1_555
Co0 O14 2.165777 1_556
Co0 O15 2.178631 1_555
Co0 O11 2.248621 1_455
Co1 O6 2.107447 1_655
Co1 O9 2.149259 1_655
Co1 O13 2.166613 1_554
Co1 O2 2.167961 1_555
Co1 O12 2.177918 1_555
Co1 O8 2.241932 1_655
O0 P1 1.552017 1_545
O0 Sn0 2.723486 1_555
O1 P0 1.550573 1_565
O1 Sn1 2.726139 1_555
O2 P0 1.537633 1_555
O3 P1 1.536091 1_555
O4 P2 1.545699 1_455
O4 Sn0 2.471029 1_555
O5 P3 1.545357 1_655
O5 Sn1 2.479164 1_555
O6 P3 1.553581 1_555
O7 P2 1.552606 1_555
O8 P0 1.575632 1_555
O8 Sn0 2.424267 1_554
O9 P0 1.580112 1_555
O9 Sn0 2.374505 1_555
O10 P1 1.579181 1_555
O10 Sn1 2.375802 1_555
O11 P1 1.574909 1_555
O11 Sn1 2.425529 1_556
O12 P2 1.583329 1_555
O12 Sn0 2.452425 1_555
O13 P2 1.580875 1_555
O13 Sn0 2.469322 1_555
O14 P3 1.580404 1_555
O14 Sn1 2.472138 1_555
O15 P3 1.582889 1_555
O15 Sn1 2.450419 1_555
