# generated using pymatgen
data_TbFeSb3
_symmetry_space_group_name_H-M   'P 1'
_cell_length_a   6.10281400
_cell_length_b   12.02909500
_cell_length_c   12.45241600
_cell_angle_alpha   90.00000000
_cell_angle_beta   90.00000000
_cell_angle_gamma   90.00000000
_symmetry_Int_Tables_number   1
_chemical_formula_structural   TbFeSb3
_chemical_formula_sum   'Tb8 Fe8 Sb24'
_cell_volume   914.14841247
_cell_formula_units_Z   8
loop_
 _symmetry_equiv_pos_site_id
 _symmetry_equiv_pos_as_xyz
  1  'x, y, z'
loop_
 _atom_site_type_symbol
 _atom_site_label
 _atom_site_symmetry_multiplicity
 _atom_site_fract_x
 _atom_site_fract_y
 _atom_site_fract_z
 _atom_site_occupancy
  Tb  Tb0  1  0.25000000  0.50000000  0.70123000  1
  Tb  Tb1  1  0.75000000  0.00000000  0.29877000  1
  Tb  Tb2  1  0.75000000  0.50000000  0.29877000  1
  Tb  Tb3  1  0.25000000  0.00000000  0.70123000  1
  Tb  Tb4  1  0.22199200  0.25000000  0.30473000  1
  Tb  Tb5  1  0.77800800  0.75000000  0.69527000  1
  Tb  Tb6  1  0.27800800  0.75000000  0.30473000  1
  Tb  Tb7  1  0.72199200  0.25000000  0.69527000  1
  Fe  Fe0  1  0.46237200  0.36094000  0.10385500  1
  Fe  Fe1  1  0.53762800  0.86094000  0.89614500  1
  Fe  Fe2  1  0.03762800  0.63906000  0.10385500  1
  Fe  Fe3  1  0.96237200  0.13906000  0.89614500  1
  Fe  Fe4  1  0.53762800  0.63906000  0.89614500  1
  Fe  Fe5  1  0.46237200  0.13906000  0.10385500  1
  Fe  Fe6  1  0.96237200  0.36094000  0.89614500  1
  Fe  Fe7  1  0.03762800  0.86094000  0.10385500  1
  Sb  Sb0  1  0.25000000  0.50000000  0.97200500  1
  Sb  Sb1  1  0.75000000  0.00000000  0.02799500  1
  Sb  Sb2  1  0.75000000  0.50000000  0.02799500  1
  Sb  Sb3  1  0.25000000  0.00000000  0.97200500  1
  Sb  Sb4  1  0.23359300  0.25000000  0.77787700  1
  Sb  Sb5  1  0.76640700  0.75000000  0.22212300  1
  Sb  Sb6  1  0.26640700  0.75000000  0.77787700  1
  Sb  Sb7  1  0.73359300  0.25000000  0.22212300  1
  Sb  Sb8  1  0.98656300  0.37584600  0.50341600  1
  Sb  Sb9  1  0.01343700  0.87584600  0.49658400  1
  Sb  Sb10  1  0.51343700  0.62415400  0.50341600  1
  Sb  Sb11  1  0.48656300  0.12415400  0.49658400  1
  Sb  Sb12  1  0.01343700  0.62415400  0.49658400  1
  Sb  Sb13  1  0.98656300  0.12415400  0.50341600  1
  Sb  Sb14  1  0.48656300  0.37584600  0.49658400  1
  Sb  Sb15  1  0.51343700  0.87584600  0.50341600  1
  Sb  Sb16  1  0.25000000  0.50000000  0.22476800  1
  Sb  Sb17  1  0.75000000  0.00000000  0.77523200  1
  Sb  Sb18  1  0.75000000  0.50000000  0.77523200  1
  Sb  Sb19  1  0.25000000  0.00000000  0.22476800  1
  Sb  Sb20  1  0.61110500  0.25000000  0.94161600  1
  Sb  Sb21  1  0.38889500  0.75000000  0.05838400  1
  Sb  Sb22  1  0.88889500  0.75000000  0.94161600  1
  Sb  Sb23  1  0.11110500  0.25000000  0.05838400  1
loop_
_geom_bond_atom_site_label_1
_geom_bond_atom_site_label_2
_geom_bond_distance
_geom_bond_site_symmetry_2
Fe0 Sb20 2.585787 1_554
Fe0 Sb7 2.586416 1_555
Fe0 Sb23 2.587865 1_555
Fe0 Sb16 2.597103 1_555
Fe0 Sb2 2.602251 1_555
Fe0 Fe5 2.669016 1_555
Fe0 Sb0 2.678360 1_554
Fe0 Tb4 3.192159 1_555
Fe0 Tb2 3.430814 1_555
Fe1 Sb21 2.585787 1_556
Fe1 Sb6 2.586416 1_555
Fe1 Sb22 2.587865 1_555
Fe1 Sb17 2.597103 1_565
Fe1 Sb3 2.602251 1_565
Fe1 Fe4 2.669016 1_555
Fe1 Sb1 2.678360 1_566
Fe1 Tb5 3.192159 1_555
Fe1 Tb3 3.430814 1_565
Fe2 Sb22 2.585787 1_454
Fe2 Sb5 2.586416 1_455
Fe2 Sb21 2.587865 1_555
Fe2 Sb16 2.597103 1_555
Fe2 Sb2 2.602251 1_455
Fe2 Fe7 2.669016 1_555
Fe2 Sb0 2.678360 1_554
Fe2 Tb6 3.192159 1_555
Fe2 Tb2 3.430814 1_455
Fe3 Sb23 2.585787 1_656
Fe3 Sb4 2.586416 1_655
Fe3 Sb20 2.587865 1_555
Fe3 Sb17 2.597103 1_555
Fe3 Sb3 2.602251 1_655
Fe3 Fe6 2.669016 1_555
Fe3 Sb1 2.678360 1_556
Fe3 Tb7 3.192159 1_555
Fe3 Tb3 3.430814 1_655
Fe4 Sb21 2.585787 1_556
Fe4 Sb6 2.586416 1_555
Fe4 Sb22 2.587865 1_555
Fe4 Sb18 2.597103 1_555
Fe4 Sb0 2.602251 1_555
Fe4 Sb2 2.678360 1_556
Fe4 Tb5 3.192159 1_555
Fe4 Tb0 3.430814 1_555
Fe5 Sb20 2.585787 1_554
Fe5 Sb7 2.586416 1_555
Fe5 Sb23 2.587865 1_555
Fe5 Sb19 2.597103 1_555
Fe5 Sb1 2.602251 1_555
Fe5 Sb3 2.678360 1_554
Fe5 Tb4 3.192159 1_555
Fe5 Tb1 3.430814 1_555
Fe6 Sb23 2.585787 1_656
Fe6 Sb4 2.586416 1_655
Fe6 Sb20 2.587865 1_555
Fe6 Sb18 2.597103 1_555
Fe6 Sb0 2.602251 1_655
Fe6 Sb2 2.678360 1_556
Fe6 Tb7 3.192159 1_555
Fe6 Tb0 3.430814 1_655
Fe7 Sb22 2.585787 1_454
Fe7 Sb5 2.586416 1_455
Fe7 Sb21 2.587865 1_555
Fe7 Sb19 2.597103 1_565
Fe7 Sb1 2.602251 1_465
Fe7 Sb3 2.678360 1_564
Fe7 Tb6 3.192159 1_555
Fe7 Tb1 3.430814 1_465
Sb0 Tb0 3.371803 1_555
Sb1 Tb1 3.371803 1_555
Sb2 Tb2 3.371803 1_555
Sb3 Tb3 3.371803 1_555
Sb4 Tb7 3.153119 1_555
Sb4 Tb3 3.156688 1_555
Sb4 Tb0 3.156688 1_555
Sb4 Tb7 3.287294 1_455
Sb5 Tb6 3.153119 1_555
Sb5 Tb1 3.156688 1_565
Sb5 Tb2 3.156688 1_555
Sb5 Tb6 3.287294 1_655
Sb6 Tb5 3.153119 1_455
Sb6 Tb3 3.156688 1_565
Sb6 Tb0 3.156688 1_555
Sb6 Tb5 3.287294 1_555
Sb7 Tb4 3.153119 1_655
Sb7 Tb1 3.156688 1_555
Sb7 Tb2 3.156688 1_555
Sb7 Tb4 3.287294 1_555
Sb8 Tb4 3.236856 1_655
Sb8 Tb7 3.256715 1_555
Sb8 Tb2 3.287661 1_555
Sb8 Tb0 3.298910 1_655
Sb9 Tb5 3.236856 1_455
Sb9 Tb6 3.256715 1_555
Sb9 Tb3 3.287661 1_565
Sb9 Tb1 3.298910 1_465
Sb10 Sb14 2.992629 1_555
Sb10 Sb15 3.027627 1_555
Sb10 Sb12 3.052593 1_655
Sb10 Sb12 3.052593 1_555
Sb10 Tb6 3.236856 1_555
Sb10 Tb5 3.256715 1_555
Sb10 Tb2 3.287661 1_555
Sb10 Tb0 3.298910 1_555
Sb11 Sb15 2.992629 1_545
Sb11 Sb14 3.027627 1_555
Sb11 Sb13 3.052593 1_455
Sb11 Sb13 3.052593 1_555
Sb11 Tb7 3.236856 1_555
Sb11 Tb4 3.256715 1_555
Sb11 Tb3 3.287661 1_555
Sb11 Tb1 3.298910 1_555
Sb12 Sb8 2.992629 1_455
Sb12 Sb9 3.027627 1_555
Sb12 Tb5 3.236856 1_455
Sb12 Tb6 3.256715 1_555
Sb12 Tb0 3.287661 1_555
Sb12 Tb2 3.298910 1_455
Sb13 Sb9 2.992629 1_645
Sb13 Sb8 3.027627 1_555
Sb13 Tb4 3.236856 1_655
Sb13 Tb7 3.256715 1_555
Sb13 Tb1 3.287661 1_555
Sb13 Tb3 3.298910 1_655
Sb14 Sb8 3.052593 1_455
Sb14 Sb8 3.052593 1_555
Sb14 Tb7 3.236856 1_555
Sb14 Tb4 3.256715 1_555
Sb14 Tb0 3.287661 1_555
Sb14 Tb2 3.298910 1_555
Sb15 Sb9 3.052593 1_655
Sb15 Sb9 3.052593 1_555
Sb15 Tb6 3.236856 1_555
Sb15 Tb5 3.256715 1_555
Sb15 Tb1 3.287661 1_565
Sb15 Tb3 3.298910 1_565
Sb16 Tb6 3.172439 1_555
Sb16 Tb4 3.172439 1_555
Sb16 Tb2 3.187515 1_555
Sb16 Tb2 3.187515 1_455
Sb17 Tb5 3.172439 1_545
Sb17 Tb7 3.172439 1_555
Sb17 Tb3 3.187515 1_655
Sb17 Tb3 3.187515 1_555
Sb18 Tb5 3.172439 1_555
Sb18 Tb7 3.172439 1_555
Sb18 Tb0 3.187515 1_655
Sb18 Tb0 3.187515 1_555
Sb19 Tb4 3.172439 1_555
Sb19 Tb6 3.172439 1_545
Sb19 Tb1 3.187515 1_455
Sb19 Tb1 3.187515 1_555
Sb20 Sb4 3.076555 1_555
Sb20 Tb7 3.141360 1_555
Sb21 Sb5 3.076555 1_555
Sb21 Tb6 3.141360 1_555
Sb22 Sb6 3.076555 1_655
Sb22 Tb5 3.141360 1_555
Sb23 Sb7 3.076555 1_455
Sb23 Tb4 3.141360 1_555
