# generated using pymatgen
data_Sr2Nd2CrNiO8
_symmetry_space_group_name_H-M   'P 1'
_cell_length_a   6.82645232
_cell_length_b   6.82645232
_cell_length_c   5.45457200
_cell_angle_alpha   90.00000000
_cell_angle_beta   90.00000000
_cell_angle_gamma   133.06858761
_symmetry_Int_Tables_number   1
_chemical_formula_structural   Sr2Nd2CrNiO8
_chemical_formula_sum   'Sr2 Nd2 Cr1 Ni1 O8'
_cell_volume   185.69186668
_cell_formula_units_Z   1
loop_
 _symmetry_equiv_pos_site_id
 _symmetry_equiv_pos_as_xyz
  1  'x, y, z'
loop_
 _atom_site_type_symbol
 _atom_site_label
 _atom_site_symmetry_multiplicity
 _atom_site_fract_x
 _atom_site_fract_y
 _atom_site_fract_z
 _atom_site_occupancy
  Sr  Sr0  1  0.85395800  0.14604200  0.50000000  1
  Sr  Sr1  1  0.64513500  0.35486500  0.00000000  1
  Nd  Nd0  1  0.36242800  0.63757200  0.00000000  1
  Nd  Nd1  1  0.13747100  0.86252900  0.50000000  1
  Cr  Cr0  1  0.50019000  0.49981000  0.50000000  1
  Ni  Ni0  1  0.99765700  0.00234300  0.00000000  1
  O  O0  1  0.17913800  0.82086200  0.00000000  1
  O  O1  1  0.66025400  0.33974600  0.50000000  1
  O  O2  1  0.32677300  0.67322700  0.50000000  1
  O  O3  1  0.83574600  0.16425400  0.00000000  1
  O  O4  1  0.24661000  0.24598500  0.75229000  1
  O  O5  1  0.75401500  0.75339000  0.24771000  1
  O  O6  1  0.24661000  0.24598500  0.24771000  1
  O  O7  1  0.75401500  0.75339000  0.75229000  1
loop_
_geom_bond_atom_site_label_1
_geom_bond_atom_site_label_2
_geom_bond_distance
_geom_bond_site_symmetry_2
Nd0 O0 2.295485 1_555
Nd0 O5 2.590363 1_555
Nd0 O7 2.590363 1_554
Nd0 O6 2.590363 1_555
Nd0 O4 2.590363 1_554
Nd0 O3 2.738756 1_455
Nd0 O3 2.738756 1_565
Nd0 O2 2.763600 1_554
Nd0 O2 2.763600 1_555
Nd1 O2 2.370778 1_555
Nd1 O4 2.576307 1_565
Nd1 O6 2.576307 1_565
Nd1 O7 2.576307 1_455
Nd1 O5 2.576307 1_455
Nd1 O1 2.733228 1_455
Nd1 O1 2.733228 1_565
Nd1 O0 2.776760 1_556
Nd1 O0 2.776760 1_555
Cr0 O5 1.948371 1_555
Cr0 O7 1.948371 1_555
Cr0 O6 1.948371 1_555
Cr0 O4 1.948371 1_555
Cr0 O1 2.004608 1_555
Cr0 O2 2.171838 1_555
Ni0 O7 1.902548 1_544
Ni0 O5 1.902548 1_545
Ni0 O4 1.902548 1_654
Ni0 O6 1.902548 1_655
Ni0 O3 2.027739 1_555
Ni0 O0 2.272830 1_645
O0 Sr1 2.751448 1_455
O0 Sr1 2.751448 1_565
O1 Sr0 2.425908 1_555
O1 Sr1 2.733851 1_555
O1 Sr1 2.733851 1_556
O2 Sr0 2.739532 1_565
O2 Sr0 2.739532 1_455
O3 Sr1 2.387172 1_555
O3 Sr0 2.736807 1_555
O3 Sr0 2.736807 1_554
O4 Sr1 2.649079 1_556
O4 Sr0 2.654484 1_455
O5 Sr1 2.649079 1_555
O5 Sr0 2.654484 1_565
O6 Sr1 2.649079 1_555
O6 Sr0 2.654484 1_455
O7 Sr1 2.649079 1_556
O7 Sr0 2.654484 1_565
