# generated using pymatgen
data_PAuS
_symmetry_space_group_name_H-M   'P 1'
_cell_length_a   5.65826200
_cell_length_b   5.69871700
_cell_length_c   16.63846300
_cell_angle_alpha   90.00000000
_cell_angle_beta   90.00000000
_cell_angle_gamma   90.00000000
_symmetry_Int_Tables_number   1
_chemical_formula_structural   PAuS
_chemical_formula_sum   'P8 Au8 S8'
_cell_volume   536.50447495
_cell_formula_units_Z   8
loop_
 _symmetry_equiv_pos_site_id
 _symmetry_equiv_pos_as_xyz
  1  'x, y, z'
loop_
 _atom_site_type_symbol
 _atom_site_label
 _atom_site_symmetry_multiplicity
 _atom_site_fract_x
 _atom_site_fract_y
 _atom_site_fract_z
 _atom_site_occupancy
  P  P0  1  0.10094700  0.07435600  0.17057500  1
  P  P1  1  0.60094700  0.42564400  0.82942500  1
  P  P2  1  0.89905300  0.57435600  0.32942500  1
  P  P3  1  0.39905300  0.92564400  0.67057500  1
  P  P4  1  0.89905300  0.92564400  0.82942500  1
  P  P5  1  0.39905300  0.57435600  0.17057500  1
  P  P6  1  0.10094700  0.42564400  0.67057500  1
  P  P7  1  0.60094700  0.07435600  0.32942500  1
  Au  Au0  1  0.99280000  0.18142400  0.37139700  1
  Au  Au1  1  0.99280000  0.31857600  0.87139700  1
  Au  Au2  1  0.50720000  0.68142400  0.37139700  1
  Au  Au3  1  0.00720000  0.81857600  0.62860300  1
  Au  Au4  1  0.49280000  0.31857600  0.62860300  1
  Au  Au5  1  0.50720000  0.81857600  0.87139700  1
  Au  Au6  1  0.00720000  0.68142400  0.12860300  1
  Au  Au7  1  0.49280000  0.18142400  0.12860300  1
  S  S0  1  0.59770900  0.71947200  0.58780600  1
  S  S1  1  0.90229100  0.28052800  0.08780600  1
  S  S2  1  0.40229100  0.21947200  0.91219400  1
  S  S3  1  0.09770900  0.78052800  0.41219400  1
  S  S4  1  0.09770900  0.71947200  0.91219400  1
  S  S5  1  0.59770900  0.78052800  0.08780600  1
  S  S6  1  0.90229100  0.21947200  0.58780600  1
  S  S7  1  0.40229100  0.28052800  0.41219400  1
loop_
_geom_bond_atom_site_label_1
_geom_bond_atom_site_label_2
_geom_bond_distance
_geom_bond_site_symmetry_2
P0 S1 2.130833 1_455
P1 S2 2.130833 1_555
P2 S3 2.130833 1_655
P3 S0 2.130833 1_555
P4 S4 2.130833 1_655
P5 S5 2.130833 1_555
P6 S6 2.130833 1_455
P7 S7 2.130833 1_555
Au0 P7 2.403327 1_555
Au0 P2 2.404811 1_555
Au0 S3 2.456114 1_645
Au0 S7 2.479567 1_655
Au1 P1 2.403327 1_555
Au1 P4 2.404811 1_545
Au1 S4 2.456114 1_655
Au1 S2 2.479567 1_655
Au2 P2 2.403327 1_555
Au2 P7 2.404811 1_565
Au2 S7 2.456114 1_555
Au2 S3 2.479567 1_555
Au3 P3 2.403327 1_555
Au3 P6 2.404811 1_555
Au3 S6 2.456114 1_465
Au3 S0 2.479567 1_455
Au4 P6 2.403327 1_555
Au4 P3 2.404811 1_545
Au4 S0 2.456114 1_555
Au4 S6 2.479567 1_555
Au5 P4 2.403327 1_555
Au5 P1 2.404811 1_555
Au5 S2 2.456114 1_565
Au5 S4 2.479567 1_555
Au6 P5 2.403327 1_555
Au6 P0 2.404811 1_565
Au6 S1 2.456114 1_455
Au6 S5 2.479567 1_455
Au7 P0 2.403327 1_555
Au7 P5 2.404811 1_555
Au7 S5 2.456114 1_545
Au7 S1 2.479567 1_555
