# generated using pymatgen
data_Mg14ZrGa
_symmetry_space_group_name_H-M   'P 1'
_cell_length_a   6.36439210
_cell_length_b   6.36439158
_cell_length_c   10.13328931
_cell_angle_alpha   90.00000000
_cell_angle_beta   90.00000000
_cell_angle_gamma   120.00000269
_symmetry_Int_Tables_number   1
_chemical_formula_structural   Mg14ZrGa
_chemical_formula_sum   'Mg14 Zr1 Ga1'
_cell_volume   355.46339351
_cell_formula_units_Z   1
loop_
 _symmetry_equiv_pos_site_id
 _symmetry_equiv_pos_as_xyz
  1  'x, y, z'
loop_
 _atom_site_type_symbol
 _atom_site_label
 _atom_site_symmetry_multiplicity
 _atom_site_fract_x
 _atom_site_fract_y
 _atom_site_fract_z
 _atom_site_occupancy
  Mg  Mg0  1  0.17170854  0.83585377  0.12500000  1
  Mg  Mg1  1  0.16492820  0.83246360  0.62500000  1
  Mg  Mg2  1  0.66414623  0.32829146  0.12500000  1
  Mg  Mg3  1  0.66753640  0.33507180  0.62500000  1
  Mg  Mg4  1  0.66414623  0.83585377  0.12500000  1
  Mg  Mg5  1  0.66753640  0.83246360  0.62500000  1
  Mg  Mg6  1  0.32907061  0.17092939  0.37584884  1
  Mg  Mg7  1  0.32907061  0.17092939  0.87415116  1
  Mg  Mg8  1  0.32907061  0.65814223  0.37584884  1
  Mg  Mg9  1  0.32907061  0.65814223  0.87415116  1
  Mg  Mg10  1  0.84185777  0.17092939  0.37584884  1
  Mg  Mg11  1  0.84185777  0.17092939  0.87415116  1
  Mg  Mg12  1  0.83333300  0.66666700  0.36976797  1
  Mg  Mg13  1  0.83333300  0.66666700  0.88023203  1
  Zr  Zr0  1  0.16666700  0.33333300  0.12500000  1
  Ga  Ga0  1  0.16666700  0.33333300  0.62500000  1
loop_
_geom_bond_atom_site_label_1
_geom_bond_atom_site_label_2
_geom_bond_distance
_geom_bond_site_symmetry_2
Mg0 Mg13 3.103266 1_454
Mg0 Mg12 3.103266 1_455
Mg0 Mg2 3.134066 1_565
Mg0 Mg4 3.134067 1_555
Mg0 Mg9 3.142668 1_554
Mg0 Mg8 3.142668 1_555
Mg0 Mg7 3.142675 1_564
Mg0 Mg6 3.142675 1_565
Mg0 Zr0 3.182317 1_555
Mg0 Zr0 3.182317 1_565
Mg0 Mg2 3.230325 1_455
Mg0 Mg4 3.230326 1_455
Mg1 Mg8 3.139335 1_555
Mg1 Mg9 3.139335 1_555
Mg1 Mg6 3.139342 1_565
Mg1 Mg7 3.139342 1_565
Mg1 Mg3 3.165596 1_455
Mg1 Mg5 3.165596 1_455
Mg1 Mg13 3.166939 1_455
Mg1 Mg12 3.166939 1_455
Mg1 Mg3 3.198795 1_565
Mg1 Mg5 3.198796 1_555
Mg2 Mg4 3.134066 1_545
Mg2 Mg7 3.142675 1_554
Mg2 Mg6 3.142675 1_555
Mg2 Zr0 3.182317 1_555
Mg2 Zr0 3.182317 1_655
Mg2 Mg4 3.230325 1_555
Mg3 Mg6 3.139342 1_555
Mg3 Mg7 3.139342 1_555
Mg3 Mg5 3.165596 1_555
Mg3 Mg5 3.198795 1_545
Mg4 Mg8 3.142675 1_555
Mg4 Mg9 3.142675 1_554
Mg4 Zr0 3.182317 1_555
Mg4 Zr0 3.182317 1_665
Mg5 Mg8 3.139342 1_555
Mg5 Mg9 3.139342 1_555
Mg6 Mg8 3.100813 1_555
Mg6 Zr0 3.109078 1_555
Mg6 Mg8 3.263578 1_545
Mg7 Mg9 3.100813 1_555
Mg7 Zr0 3.109078 1_556
Mg7 Mg9 3.263578 1_545
Mg8 Zr0 3.109084 1_555
Mg9 Zr0 3.109084 1_556
Mg10 Mg8 3.100813 1_655
Mg10 Mg6 3.100814 1_655
Mg10 Zr0 3.109084 1_655
Mg10 Mg3 3.139335 1_555
Mg10 Mg5 3.139342 1_545
Mg10 Mg2 3.142668 1_555
Mg10 Mg4 3.142675 1_545
Mg10 Mg12 3.183139 1_555
Mg10 Mg12 3.183139 1_545
Mg10 Mg8 3.263578 1_545
Mg10 Mg6 3.263579 1_555
Mg11 Mg9 3.100813 1_655
Mg11 Mg7 3.100814 1_655
Mg11 Zr0 3.109084 1_656
Mg11 Mg3 3.139335 1_555
Mg11 Mg5 3.139342 1_545
Mg11 Mg2 3.142668 1_556
Mg11 Mg4 3.142675 1_546
Mg11 Mg13 3.183139 1_555
Mg11 Mg13 3.183139 1_545
Mg11 Mg9 3.263578 1_545
Mg11 Mg7 3.263579 1_555
Mg12 Mg4 3.103259 1_555
Mg12 Mg2 3.103266 1_555
Mg12 Mg5 3.166932 1_555
Mg12 Mg3 3.166939 1_555
Mg12 Mg6 3.183139 1_665
Mg12 Mg6 3.183139 1_555
Mg12 Mg8 3.183139 1_655
Mg12 Mg8 3.183139 1_555
Mg13 Mg4 3.103259 1_556
Mg13 Mg2 3.103266 1_556
Mg13 Mg5 3.166932 1_555
Mg13 Mg3 3.166939 1_555
Mg13 Mg7 3.183139 1_665
Mg13 Mg7 3.183139 1_555
Mg13 Mg9 3.183139 1_655
Mg13 Mg9 3.183139 1_555
Ga0 Mg6 3.095029 1_555
Ga0 Mg7 3.095029 1_555
Ga0 Mg8 3.095035 1_555
Ga0 Mg9 3.095035 1_555
Ga0 Mg10 3.095035 1_455
Ga0 Mg11 3.095035 1_455
Ga0 Mg1 3.182210 1_545
Ga0 Mg5 3.182210 1_445
Ga0 Mg5 3.182210 1_555
Ga0 Mg1 3.182210 1_555
Ga0 Mg3 3.182210 1_455
Ga0 Mg3 3.182210 1_555
