# generated using pymatgen
data_Na2MgInF7
_symmetry_space_group_name_H-M   'P 1'
_cell_length_a   7.46185800
_cell_length_b   7.67550200
_cell_length_c   10.62244900
_cell_angle_alpha   90.00000000
_cell_angle_beta   90.00000000
_cell_angle_gamma   90.00000000
_symmetry_Int_Tables_number   1
_chemical_formula_structural   Na2MgInF7
_chemical_formula_sum   'Na8 Mg4 In4 F28'
_cell_volume   608.38489657
_cell_formula_units_Z   4
loop_
 _symmetry_equiv_pos_site_id
 _symmetry_equiv_pos_as_xyz
  1  'x, y, z'
loop_
 _atom_site_type_symbol
 _atom_site_label
 _atom_site_symmetry_multiplicity
 _atom_site_fract_x
 _atom_site_fract_y
 _atom_site_fract_z
 _atom_site_occupancy
  Na  Na0  1  0.00000000  0.00000000  0.00000000  1
  Na  Na1  1  0.50000000  0.00000000  0.00000000  1
  Na  Na2  1  0.00000000  0.50000000  0.50000000  1
  Na  Na3  1  0.50000000  0.50000000  0.50000000  1
  Na  Na4  1  0.25000000  0.23288700  0.27160900  1
  Na  Na5  1  0.25000000  0.26711300  0.77160900  1
  Na  Na6  1  0.75000000  0.73288700  0.22839100  1
  Na  Na7  1  0.75000000  0.76711300  0.72839100  1
  Mg  Mg0  1  0.50000000  0.00000000  0.50000000  1
  Mg  Mg1  1  0.50000000  0.50000000  0.00000000  1
  Mg  Mg2  1  0.00000000  0.00000000  0.50000000  1
  Mg  Mg3  1  0.00000000  0.50000000  0.00000000  1
  In  In0  1  0.25000000  0.74974200  0.26323100  1
  In  In1  1  0.75000000  0.25025800  0.73676900  1
  In  In2  1  0.75000000  0.24974200  0.23676900  1
  In  In3  1  0.25000000  0.75025800  0.76323100  1
  F  F0  1  0.45205900  0.67496700  0.13541900  1
  F  F1  1  0.95205900  0.32503300  0.86458100  1
  F  F2  1  0.54794100  0.17496700  0.36458100  1
  F  F3  1  0.04794100  0.82503300  0.63541900  1
  F  F4  1  0.54794100  0.32503300  0.86458100  1
  F  F5  1  0.04794100  0.67496700  0.13541900  1
  F  F6  1  0.45205900  0.82503300  0.63541900  1
  F  F7  1  0.95205900  0.17496700  0.36458100  1
  F  F8  1  0.51913000  0.29955600  0.12479100  1
  F  F9  1  0.01913000  0.70044400  0.87520900  1
  F  F10  1  0.48087000  0.79955600  0.37520900  1
  F  F11  1  0.98087000  0.20044400  0.62479100  1
  F  F12  1  0.48087000  0.70044400  0.87520900  1
  F  F13  1  0.98087000  0.29955600  0.12479100  1
  F  F14  1  0.51913000  0.20044400  0.62479100  1
  F  F15  1  0.01913000  0.79955600  0.37520900  1
  F  F16  1  0.25000000  0.50634100  0.35987500  1
  F  F17  1  0.75000000  0.49365900  0.64012500  1
  F  F18  1  0.75000000  0.00634100  0.14012500  1
  F  F19  1  0.25000000  0.99365900  0.85987500  1
  F  F20  1  0.25000000  0.98358300  0.15961700  1
  F  F21  1  0.75000000  0.01641700  0.84038300  1
  F  F22  1  0.75000000  0.48358300  0.34038300  1
  F  F23  1  0.25000000  0.51641700  0.65961700  1
  F  F24  1  0.25000000  0.05166800  0.46560800  1
  F  F25  1  0.75000000  0.94833200  0.53439200  1
  F  F26  1  0.75000000  0.55166800  0.03439200  1
  F  F27  1  0.25000000  0.44833200  0.96560800  1
loop_
_geom_bond_atom_site_label_1
_geom_bond_atom_site_label_2
_geom_bond_distance
_geom_bond_site_symmetry_2
F0 Mg1 2.000185 1_555
F0 In0 2.108543 1_555
F0 Na6 2.472966 1_555
F0 Na1 2.901927 1_565
F1 Mg3 2.000185 1_656
F1 In1 2.108543 1_555
F1 Na5 2.472966 1_655
F1 Na0 2.901927 1_656
F2 Mg0 2.000185 1_555
F2 In2 2.108543 1_555
F2 Na4 2.472966 1_555
F2 Na3 2.901927 1_555
F3 Mg2 2.000185 1_565
F3 In3 2.108543 1_555
F3 Na7 2.472966 1_455
F3 Na2 2.901927 1_555
F4 Mg1 2.000185 1_556
F4 In1 2.108543 1_555
F4 Na5 2.472966 1_555
F4 Na1 2.901927 1_556
F5 Mg3 2.000185 1_555
F5 In0 2.108543 1_555
F5 Na6 2.472966 1_455
F5 Na0 2.901927 1_565
F6 Mg0 2.000185 1_565
F6 In3 2.108543 1_555
F6 Na7 2.472966 1_555
F6 Na3 2.901927 1_555
F7 Mg2 2.000185 1_655
F7 In2 2.108543 1_555
F7 Na4 2.472966 1_655
F7 Na2 2.901927 1_655
F8 Mg1 2.035820 1_555
F8 In2 2.128101 1_555
F8 Na4 2.593648 1_555
F8 Na1 2.657832 1_555
F9 Mg3 2.035820 1_556
F9 In3 2.128101 1_555
F9 Na7 2.593648 1_455
F9 Na0 2.657832 1_566
F10 Mg0 2.035820 1_565
F10 In0 2.128101 1_555
F10 Na6 2.593648 1_555
F10 Na3 2.657832 1_555
F11 Mg2 2.035820 1_655
F11 In1 2.128101 1_555
F11 Na5 2.593648 1_655
F11 Na2 2.657832 1_655
F12 Mg1 2.035820 1_556
F12 In3 2.128101 1_555
F12 Na7 2.593648 1_555
F12 Na1 2.657832 1_566
F13 Mg3 2.035820 1_655
F13 In2 2.128101 1_555
F13 Na4 2.593648 1_655
F13 Na0 2.657832 1_655
F14 Mg0 2.035820 1_555
F14 In1 2.128101 1_555
F14 Na5 2.593648 1_555
F14 Na3 2.657832 1_555
F15 Mg2 2.035820 1_565
F15 In0 2.128101 1_555
F15 Na6 2.593648 1_455
F15 Na2 2.657832 1_555
F16 In0 2.131704 1_555
F16 Na4 2.298796 1_555
F16 Na2 2.387021 1_555
F16 Na3 2.387021 1_555
F17 In1 2.131704 1_555
F17 Na7 2.298796 1_555
F17 Na2 2.387021 1_655
F17 Na3 2.387021 1_555
F18 In2 2.131704 1_555
F18 Na6 2.298796 1_545
F18 Na1 2.387021 1_555
F18 Na0 2.387021 1_655
F19 In3 2.131704 1_555
F19 Na5 2.298796 1_565
F19 Na1 2.387021 1_566
F19 Na0 2.387021 1_566
F20 In0 2.105439 1_555
F20 Na4 2.253182 1_565
F20 Na0 2.524012 1_565
F20 Na1 2.524012 1_565
F21 In1 2.105439 1_555
F21 Na7 2.253182 1_545
F21 Na0 2.524012 1_656
F21 Na1 2.524012 1_556
F22 In2 2.105439 1_555
F22 Na6 2.253182 1_555
F22 Na2 2.524012 1_655
F22 Na3 2.524012 1_555
F23 In3 2.105439 1_555
F23 Na5 2.253182 1_555
F23 Na2 2.524012 1_555
F23 Na3 2.524012 1_555
F24 Mg0 1.941828 1_555
F24 Mg2 1.941828 1_555
F24 Na4 2.486242 1_555
F25 Mg0 1.941828 1_565
F25 Mg2 1.941828 1_665
F25 Na7 2.486242 1_555
F26 Mg1 1.941828 1_555
F26 Mg3 1.941828 1_655
F26 Na6 2.486242 1_555
F27 Mg3 1.941828 1_556
F27 Mg1 1.941828 1_556
F27 Na5 2.486242 1_555
