# generated using pymatgen
data_BaSrZr2O6
_symmetry_space_group_name_H-M   'P 1'
_cell_length_a   4.22790775
_cell_length_b   5.97524380
_cell_length_c   5.97524380
_cell_angle_alpha   89.77324697
_cell_angle_beta   90.00000000
_cell_angle_gamma   90.00000000
_symmetry_Int_Tables_number   1
_chemical_formula_structural   BaSrZr2O6
_chemical_formula_sum   'Ba1 Sr1 Zr2 O6'
_cell_volume   150.95008463
_cell_formula_units_Z   1
loop_
 _symmetry_equiv_pos_site_id
 _symmetry_equiv_pos_as_xyz
  1  'x, y, z'
loop_
 _atom_site_type_symbol
 _atom_site_label
 _atom_site_symmetry_multiplicity
 _atom_site_fract_x
 _atom_site_fract_y
 _atom_site_fract_z
 _atom_site_occupancy
  Ba  Ba0  1  0.50000000  0.00000000  0.00000000  1
  Sr  Sr0  1  0.50000000  0.50000000  0.50000000  1
  Zr  Zr0  1  0.00000000  0.00000000  0.50000000  1
  Zr  Zr1  1  0.00000000  0.50000000  0.00000000  1
  O  O0  1  0.50000000  0.00000000  0.50000000  1
  O  O1  1  0.50000000  0.50000000  0.00000000  1
  O  O2  1  -0.00000000  0.26621047  0.73378953  1
  O  O3  1  -0.00000000  0.73378953  0.26621047  1
  O  O4  1  -0.00000000  0.75915641  0.75915641  1
  O  O5  1  0.00000000  0.24084359  0.24084359  1
loop_
_geom_bond_atom_site_label_1
_geom_bond_atom_site_label_2
_geom_bond_distance
_geom_bond_site_symmetry_2
Ba0 O4 2.937211 1_644
Ba0 O4 2.937211 1_544
Ba0 O5 2.937211 1_555
Ba0 O5 2.937211 1_655
Ba0 O1 2.987622 1_545
Ba0 O0 2.987622 1_554
Ba0 O0 2.987622 1_555
Ba0 O1 2.987622 1_555
Ba0 O3 3.083707 1_645
Ba0 O2 3.083707 1_654
Ba0 O2 3.083707 1_554
Ba0 O3 3.083707 1_545
O0 Zr0 2.113954 1_555
O0 Zr0 2.113954 1_655
O0 Sr0 2.987622 1_545
O0 Sr0 2.987622 1_555
O1 Zr1 2.113954 1_655
O1 Zr1 2.113954 1_555
O1 Sr0 2.987622 1_554
O1 Sr0 2.987622 1_555
O2 Zr1 2.121154 1_556
O2 Zr0 2.121154 1_555
O2 Sr0 2.890725 1_455
O2 Sr0 2.890725 1_555
O3 Zr0 2.121154 1_565
O3 Zr1 2.121154 1_555
O3 Sr0 2.890725 1_455
O3 Sr0 2.890725 1_555
O4 Zr1 2.109808 1_556
O4 Zr0 2.109808 1_565
O4 Sr0 3.046904 1_555
O4 Sr0 3.046904 1_455
O5 Zr1 2.109808 1_555
O5 Zr0 2.109808 1_555
O5 Sr0 3.046904 1_555
O5 Sr0 3.046904 1_455
