# generated using pymatgen
data_TeMoWSe3
_symmetry_space_group_name_H-M   'P 1'
_cell_length_a   3.37911128
_cell_length_b   3.37911128
_cell_length_c   38.46450200
_cell_angle_alpha   90.00000000
_cell_angle_beta   90.00000000
_cell_angle_gamma   119.99998585
_symmetry_Int_Tables_number   1
_chemical_formula_structural   TeMoWSe3
_chemical_formula_sum   'Te2 Mo2 W2 Se6'
_cell_volume   380.36083763
_cell_formula_units_Z   2
loop_
 _symmetry_equiv_pos_site_id
 _symmetry_equiv_pos_as_xyz
  1  'x, y, z'
loop_
 _atom_site_type_symbol
 _atom_site_label
 _atom_site_symmetry_multiplicity
 _atom_site_fract_x
 _atom_site_fract_y
 _atom_site_fract_z
 _atom_site_occupancy
  Te  Te0  1  0.33333300  0.66666700  0.42081400  1
  Te  Te1  1  0.33333300  0.66666700  0.51849800  1
  Mo  Mo0  1  0.00000000  0.00000000  0.46965000  1
  Mo  Mo1  1  0.33333300  0.66666700  0.28179000  1
  W  W0  1  0.00000000  0.00000000  0.09392700  1
  W  W1  1  0.33333300  0.66666700  0.65756000  1
  Se  Se0  1  0.00000000  0.00000000  0.32478400  1
  Se  Se1  1  0.00000000  0.00000000  0.70071900  1
  Se  Se2  1  0.33333300  0.66666700  0.05075300  1
  Se  Se3  1  0.33333300  0.66666700  0.13710200  1
  Se  Se4  1  0.00000000  0.00000000  0.23877700  1
  Se  Se5  1  0.00000000  0.00000000  0.61437400  1
loop_
_geom_bond_atom_site_label_1
_geom_bond_atom_site_label_2
_geom_bond_distance
_geom_bond_site_symmetry_2
Mo0 Te0 2.708266 1_545
Mo0 Te0 2.708269 1_445
Mo0 Te0 2.708269 1_555
Mo0 Te1 2.708586 1_545
Mo0 Te1 2.708589 1_445
Mo0 Te1 2.708589 1_555
Mo1 Se0 2.557536 1_565
Mo1 Se0 2.557538 1_665
Mo1 Se0 2.557538 1_555
Mo1 Se4 2.558008 1_565
Mo1 Se4 2.558011 1_665
Mo1 Se4 2.558011 1_555
Se1 W1 2.561644 1_545
Se1 W1 2.561647 1_555
Se1 W1 2.561647 1_445
Se2 W0 2.562018 1_565
Se2 W0 2.562020 1_665
Se2 W0 2.562020 1_555
Se3 W0 2.562043 1_565
Se3 W0 2.562045 1_665
Se3 W0 2.562045 1_555
Se5 W1 2.562317 1_545
Se5 W1 2.562320 1_445
Se5 W1 2.562320 1_555
