# generated using pymatgen
data_CaCo6(OF5)2
_symmetry_space_group_name_H-M   'P 1'
_cell_length_a   4.77682981
_cell_length_b   4.78858543
_cell_length_c   11.44085040
_cell_angle_alpha   94.21025632
_cell_angle_beta   94.11344109
_cell_angle_gamma   93.76821160
_symmetry_Int_Tables_number   1
_chemical_formula_structural   CaCo6(OF5)2
_chemical_formula_sum   'Ca1 Co6 O2 F10'
_cell_volume   259.65868772
_cell_formula_units_Z   1
loop_
 _symmetry_equiv_pos_site_id
 _symmetry_equiv_pos_as_xyz
  1  'x, y, z'
loop_
 _atom_site_type_symbol
 _atom_site_label
 _atom_site_symmetry_multiplicity
 _atom_site_fract_x
 _atom_site_fract_y
 _atom_site_fract_z
 _atom_site_occupancy
  Ca  Ca0  1  0.24817000  0.24882000  0.51354600  1
  Co  Co0  1  0.91942000  0.91916900  0.01005900  1
  Co  Co1  1  0.09490000  0.09618300  0.25406700  1
  Co  Co2  1  0.96236900  0.96112500  0.74979400  1
  Co  Co3  1  0.49953700  0.50034400  0.16172500  1
  Co  Co4  1  0.43545800  0.43438100  0.89014600  1
  Co  Co5  1  0.64670100  0.64804000  0.43839900  1
  O  O0  1  0.36653900  0.36744500  0.32245700  1
  O  O1  1  0.63573000  0.63572100  0.01798900  1
  F  F0  1  0.19528400  0.78217600  0.15056900  1
  F  F1  1  0.11415000  0.70160100  0.85661100  1
  F  F2  1  0.27666900  0.77150800  0.49783600  1
  F  F3  1  0.22026700  0.22055500  0.00597200  1
  F  F4  1  0.25006800  0.24917000  0.71529600  1
  F  F5  1  0.78130200  0.78551800  0.60778200  1
  F  F6  1  0.79417200  0.79735200  0.30206800  1
  F  F7  1  0.78105600  0.19589200  0.15029400  1
  F  F8  1  0.70245100  0.11316500  0.85693200  1
  F  F9  1  0.77020100  0.28016900  0.49846000  1
loop_
_geom_bond_atom_site_label_1
_geom_bond_atom_site_label_2
_geom_bond_distance
_geom_bond_site_symmetry_2
Ca0 F9 2.292933 1_455
Ca0 F2 2.293277 1_545
Ca0 F4 2.307436 1_555
Ca0 O0 2.395709 1_555
Ca0 F9 2.507385 1_555
Ca0 F2 2.517996 1_555
Co0 O1 1.865715 1_555
Co0 F3 1.974140 1_665
Co0 F0 2.171546 1_655
Co0 F7 2.173009 1_565
Co0 F8 2.260829 1_564
Co0 F1 2.264031 1_654
Co1 O0 1.861928 1_555
Co1 F7 1.951166 1_455
Co1 F0 1.951358 1_545
Co1 F6 2.090758 1_445
Co2 F5 1.896624 1_555
Co2 F1 1.943682 1_655
Co2 F8 1.944266 1_565
Co2 F4 1.963565 1_665
Co3 O1 1.949955 1_555
Co3 F7 2.050827 1_555
Co3 F0 2.050953 1_555
Co3 O0 2.115777 1_555
Co3 F6 2.378886 1_555
Co3 F3 2.413190 1_555
Co4 O1 1.858769 1_556
Co4 F3 2.029134 1_556
Co4 F8 2.092491 1_555
Co4 F1 2.094292 1_555
Co4 F4 2.225909 1_555
Co5 F6 1.922350 1_555
Co5 F9 2.044394 1_555
Co5 F5 2.044623 1_555
Co5 F2 2.046236 1_555
Co5 O0 2.145510 1_555
