# generated using pymatgen
data_Yb5Ge3
_symmetry_space_group_name_H-M   'P 1'
_cell_length_a   8.82268086
_cell_length_b   8.82268086
_cell_length_c   6.48181600
_cell_angle_alpha   90.00000000
_cell_angle_beta   90.00000000
_cell_angle_gamma   120.00000643
_symmetry_Int_Tables_number   1
_chemical_formula_structural   Yb5Ge3
_chemical_formula_sum   'Yb10 Ge6'
_cell_volume   436.94667781
_cell_formula_units_Z   2
loop_
 _symmetry_equiv_pos_site_id
 _symmetry_equiv_pos_as_xyz
  1  'x, y, z'
loop_
 _atom_site_type_symbol
 _atom_site_label
 _atom_site_symmetry_multiplicity
 _atom_site_fract_x
 _atom_site_fract_y
 _atom_site_fract_z
 _atom_site_occupancy
  Yb  Yb0  1  0.33333300  0.66666700  0.00000000  1
  Yb  Yb1  1  0.66666700  0.33333300  0.50000000  1
  Yb  Yb2  1  0.66666700  0.33333300  0.00000000  1
  Yb  Yb3  1  0.33333300  0.66666700  0.50000000  1
  Yb  Yb4  1  0.72393600  0.00000000  0.75000000  1
  Yb  Yb5  1  0.72393600  0.72393600  0.25000000  1
  Yb  Yb6  1  0.00000000  0.27606400  0.25000000  1
  Yb  Yb7  1  0.00000000  0.72393600  0.75000000  1
  Yb  Yb8  1  0.27606400  0.27606400  0.75000000  1
  Yb  Yb9  1  0.27606400  0.00000000  0.25000000  1
  Ge  Ge0  1  0.38418400  0.00000000  0.75000000  1
  Ge  Ge1  1  0.38418400  0.38418400  0.25000000  1
  Ge  Ge2  1  0.00000000  0.61581600  0.25000000  1
  Ge  Ge3  1  0.00000000  0.38418400  0.75000000  1
  Ge  Ge4  1  0.61581600  0.61581600  0.75000000  1
  Ge  Ge5  1  0.61581600  0.00000000  0.25000000  1
loop_
_geom_bond_atom_site_label_1
_geom_bond_atom_site_label_2
_geom_bond_distance
_geom_bond_site_symmetry_2
Ge0 Yb4 2.997523 1_555
Ge0 Yb7 3.027469 1_545
Ge0 Yb8 3.027469 1_555
Ge0 Yb3 3.186939 1_545
Ge0 Yb0 3.186939 1_546
Ge0 Yb1 3.186942 1_555
Ge0 Yb2 3.186942 1_556
Ge0 Yb9 3.378376 1_556
Ge0 Yb9 3.378376 1_555
Ge1 Yb5 2.997523 1_555
Ge1 Yb9 3.027469 1_555
Ge1 Yb6 3.027469 1_555
Ge1 Yb3 3.186947 1_555
Ge1 Yb0 3.186947 1_555
Ge1 Yb1 3.186947 1_555
Ge1 Yb2 3.186947 1_555
Ge1 Yb8 3.378376 1_555
Ge1 Yb8 3.378376 1_554
Ge2 Yb6 2.997523 1_555
Ge2 Yb9 3.027469 1_565
Ge2 Yb5 3.027469 1_455
Ge2 Yb3 3.186939 1_555
Ge2 Yb0 3.186939 1_555
Ge2 Yb2 3.186942 1_455
Ge2 Yb1 3.186942 1_455
Ge2 Yb7 3.378376 1_554
Ge2 Yb7 3.378376 1_555
Ge3 Yb7 2.997523 1_555
Ge3 Yb4 3.027469 1_455
Ge3 Yb8 3.027469 1_555
Ge3 Yb1 3.186939 1_455
Ge3 Yb2 3.186939 1_456
Ge3 Yb3 3.186942 1_555
Ge3 Yb0 3.186942 1_556
Ge3 Yb6 3.378376 1_555
Ge3 Yb6 3.378376 1_556
Ge4 Yb8 2.997523 1_555
Ge4 Yb4 3.027469 1_565
Ge4 Yb7 3.027469 1_655
Ge4 Yb1 3.186947 1_555
Ge4 Yb2 3.186947 1_556
Ge4 Yb3 3.186947 1_555
Ge4 Yb0 3.186947 1_556
Ge4 Yb5 3.378376 1_555
Ge4 Yb5 3.378376 1_556
Ge5 Yb9 2.997523 1_555
Ge5 Yb6 3.027469 1_655
Ge5 Yb5 3.027469 1_545
Ge5 Yb1 3.186939 1_555
Ge5 Yb2 3.186939 1_555
Ge5 Yb0 3.186942 1_545
Ge5 Yb3 3.186942 1_545
Ge5 Yb4 3.378376 1_555
Ge5 Yb4 3.378376 1_554
