# generated using pymatgen
data_ThU3Re8
_symmetry_space_group_name_H-M   'P 1'
_cell_length_a   5.28909562
_cell_length_b   5.28909562
_cell_length_c   8.63315370
_cell_angle_alpha   89.76106178
_cell_angle_beta   89.76106178
_cell_angle_gamma   67.58824959
_symmetry_Int_Tables_number   1
_chemical_formula_structural   ThU3Re8
_chemical_formula_sum   'Th1 U3 Re8'
_cell_volume   223.26397874
_cell_formula_units_Z   1
loop_
 _symmetry_equiv_pos_site_id
 _symmetry_equiv_pos_as_xyz
  1  'x, y, z'
loop_
 _atom_site_type_symbol
 _atom_site_label
 _atom_site_symmetry_multiplicity
 _atom_site_fract_x
 _atom_site_fract_y
 _atom_site_fract_z
 _atom_site_occupancy
  Th  Th0  1  0.33527000  0.33527000  0.43384600  1
  U  U0  1  0.67054200  0.67054200  0.58396200  1
  U  U1  1  0.33914600  0.33914600  0.06470000  1
  U  U2  1  0.66161500  0.66161500  0.92453700  1
  Re  Re0  1  0.99460000  0.99460000  0.49995800  1
  Re  Re1  1  0.99981100  0.99981100  0.99922400  1
  Re  Re2  1  0.82615700  0.82615700  0.24885100  1
  Re  Re3  1  0.17102500  0.17102500  0.75179300  1
  Re  Re4  1  0.34018700  0.83119400  0.24305000  1
  Re  Re5  1  0.16949100  0.66096200  0.75351600  1
  Re  Re6  1  0.66096200  0.16949100  0.75351600  1
  Re  Re7  1  0.83119400  0.34018700  0.24305000  1
loop_
_geom_bond_atom_site_label_1
_geom_bond_atom_site_label_2
_geom_bond_distance
_geom_bond_site_symmetry_2
Th0 U1 3.186905 1_555
Th0 U0 3.225639 1_555
Th0 U0 3.523098 1_545
Th0 U0 3.523098 1_455
U0 U2 2.940890 1_555
U1 U2 3.076665 1_554
U1 U2 3.545887 1_454
U1 U2 3.545887 1_544
Re0 Re2 2.631434 1_555
Re0 Re3 2.676955 1_665
Re0 Re5 2.738860 1_655
Re0 Re6 2.738860 1_565
Re0 Re4 2.790117 1_655
Re0 Re7 2.790117 1_565
Re0 U0 2.936099 1_555
Re0 Th0 3.045889 1_665
Re0 Th0 3.309094 1_565
Re0 Th0 3.309094 1_655
Re0 U0 3.403518 1_565
Re0 U0 3.403518 1_655
Re1 Re3 2.606935 1_665
Re1 Re2 2.634718 1_556
Re1 Re4 2.694260 1_656
Re1 Re7 2.694260 1_566
Re1 Re6 2.703042 1_565
Re1 Re5 2.703042 1_655
Re1 U1 3.038935 1_666
Re1 U2 3.045329 1_555
Re1 U1 3.310717 1_656
Re1 U1 3.310717 1_566
Re1 U2 3.329303 1_565
Re1 U2 3.329303 1_655
Re2 Re7 2.561000 1_555
Re2 Re4 2.561000 1_555
Re2 Re7 2.729272 1_565
Re2 Re4 2.729272 1_655
Re2 U2 3.157865 1_554
Re2 U0 3.193982 1_555
Re2 U1 3.345620 1_565
Re2 U1 3.345620 1_655
Re2 Th0 3.348564 1_655
Re2 Th0 3.348564 1_565
Re3 Re6 2.588346 1_555
Re3 Re5 2.588346 1_555
Re3 Re5 2.700855 1_545
Re3 Re6 2.700855 1_455
Re3 U1 3.085740 1_556
Re3 Th0 3.095055 1_555
Re3 U0 3.279315 1_455
Re3 U0 3.279315 1_545
Re3 U2 3.299112 1_545
Re3 U2 3.299112 1_455
Re4 Re7 2.888938 1_555
Re4 Re7 2.994762 1_465
Re4 U1 3.031195 1_555
Re4 U1 3.089162 1_565
Re4 Th0 3.099927 1_555
Re4 Th0 3.131353 1_565
Re4 U2 3.174082 1_554
Re4 U0 3.365565 1_555
Re5 Re6 2.891668 1_555
Re5 Re6 2.992032 1_465
Re5 U2 2.998985 1_555
Re5 U0 3.006516 1_455
Re5 U0 3.039362 1_555
Re5 U2 3.058677 1_455
Re5 U1 3.120416 1_556
Re5 Th0 3.196910 1_555
Re6 U2 2.998985 1_555
Re6 U0 3.006516 1_545
Re6 U0 3.039362 1_555
Re6 U2 3.058677 1_545
Re6 U1 3.120416 1_556
Re6 Th0 3.196910 1_555
Re7 U1 3.031195 1_555
Re7 U1 3.089162 1_655
Re7 Th0 3.099927 1_555
Re7 Th0 3.131353 1_655
Re7 U2 3.174082 1_554
Re7 U0 3.365565 1_555
