# generated using pymatgen
data_MgV2O4
_symmetry_space_group_name_H-M   'P 1'
_cell_length_a   6.05390174
_cell_length_b   6.05390174
_cell_length_c   20.03550183
_cell_angle_alpha   81.29228262
_cell_angle_beta   81.29228262
_cell_angle_gamma   60.13892965
_symmetry_Int_Tables_number   1
_chemical_formula_structural   MgV2O4
_chemical_formula_sum   'Mg8 V16 O32'
_cell_volume   626.98724363
_cell_formula_units_Z   8
loop_
 _symmetry_equiv_pos_site_id
 _symmetry_equiv_pos_as_xyz
  1  'x, y, z'
loop_
 _atom_site_type_symbol
 _atom_site_label
 _atom_site_symmetry_multiplicity
 _atom_site_fract_x
 _atom_site_fract_y
 _atom_site_fract_z
 _atom_site_occupancy
  Mg  Mg0  1  0.65325100  0.65325100  0.03049200  1
  Mg  Mg1  1  0.12319900  0.12319900  0.12545100  1
  Mg  Mg2  1  0.90262800  0.90262800  0.28173100  1
  Mg  Mg3  1  0.37466900  0.37466900  0.37558700  1
  Mg  Mg4  1  0.62510200  0.62510200  0.62460100  1
  Mg  Mg5  1  0.49976900  0.49976900  0.50023400  1
  Mg  Mg6  1  0.87378000  0.87378000  0.87420500  1
  Mg  Mg7  1  0.74983800  0.74983800  0.74905400  1
  V  V0  1  0.63037900  0.12285800  0.12511800  1
  V  V1  1  0.25120200  0.25120200  0.25221700  1
  V  V2  1  0.12285800  0.63037900  0.12511800  1
  V  V3  1  0.15287700  0.15287700  0.53307900  1
  V  V4  1  0.87746200  0.37340900  0.37496600  1
  V  V5  1  0.59687600  0.59687600  0.21904100  1
  V  V6  1  0.40266100  0.40266100  0.78190600  1
  V  V7  1  0.37340900  0.87746200  0.37496600  1
  V  V8  1  0.12489000  0.62539400  0.62447900  1
  V  V9  1  0.84859100  0.84859100  0.46636000  1
  V  V10  1  0.62539400  0.12489000  0.62447900  1
  V  V11  1  0.87453700  0.37774000  0.87462600  1
  V  V12  1  0.37774000  0.87453700  0.87462600  1
  V  V13  1  0.09707500  0.09707500  0.71704000  1
  V  V14  1  0.99922200  0.99922200  0.00218700  1
  V  V15  1  0.34625400  0.34625400  0.96970800  1
  O  O0  1  0.28287500  0.81874500  0.06430000  1
  O  O1  1  0.93696500  0.93696500  0.18087200  1
  O  O2  1  0.81874500  0.28287500  0.06430000  1
  O  O3  1  0.82144700  0.82144700  0.06496100  1
  O  O4  1  0.43112800  0.43112800  0.18559400  1
  O  O5  1  0.53142700  0.07035400  0.31428000  1
  O  O6  1  0.43268500  0.96285100  0.18623600  1
  O  O7  1  0.18724400  0.18724400  0.43428400  1
  O  O8  1  0.07035400  0.53142700  0.31428000  1
  O  O9  1  0.31263100  0.31263100  0.06801500  1
  O  O10  1  0.07236700  0.07236700  0.31644000  1
  O  O11  1  0.96285100  0.43268500  0.18623600  1
  O  O12  1  0.79113800  0.31811000  0.56516000  1
  O  O13  1  0.68176900  0.68176900  0.43312600  1
  O  O14  1  0.68553200  0.20748100  0.43415300  1
  O  O15  1  0.43360600  0.43360600  0.68171500  1
  O  O16  1  0.31811000  0.79113800  0.56516000  1
  O  O17  1  0.56311300  0.56311300  0.31692300  1
  O  O18  1  0.31981000  0.31981000  0.56528300  1
  O  O19  1  0.20748100  0.68553200  0.43415300  1
  O  O20  1  0.93046600  0.93046600  0.68473300  1
  O  O21  1  0.04360400  0.56207200  0.81536700  1
  O  O22  1  0.93254500  0.45762900  0.68474100  1
  O  O23  1  0.68691900  0.68691900  0.92922200  1
  O  O24  1  0.56207200  0.04360400  0.81536700  1
  O  O25  1  0.81652600  0.81652600  0.56752400  1
  O  O26  1  0.56790000  0.56790000  0.81496400  1
  O  O27  1  0.45762900  0.93254500  0.68474100  1
  O  O28  1  0.17985200  0.17985200  0.93629000  1
  O  O29  1  0.18327100  0.71167500  0.93630700  1
  O  O30  1  0.06254600  0.06254600  0.81769400  1
  O  O31  1  0.71167500  0.18327100  0.93630700  1
loop_
_geom_bond_atom_site_label_1
_geom_bond_atom_site_label_2
_geom_bond_distance
_geom_bond_site_symmetry_2
Mg0 O23 1.997708 1_554
Mg0 O0 1.999687 1_555
Mg0 O2 1.999687 1_555
Mg0 O3 2.002216 1_555
Mg1 O1 2.069511 1_445
Mg1 O2 2.093710 1_455
Mg1 O0 2.093710 1_545
Mg1 O11 2.111323 1_455
Mg1 O6 2.111323 1_545
Mg1 O9 2.113058 1_555
Mg2 O1 1.989610 1_555
Mg2 O8 1.997705 1_655
Mg2 O5 1.997705 1_565
Mg2 O10 2.019823 1_665
Mg3 O19 2.086917 1_555
Mg3 O14 2.086917 1_555
Mg3 O8 2.096342 1_555
Mg3 O5 2.096342 1_555
Mg3 O7 2.105199 1_555
Mg3 O17 2.113865 1_555
Mg4 O12 2.080903 1_555
Mg4 O16 2.080903 1_555
Mg4 O27 2.091414 1_555
Mg4 O22 2.091414 1_555
Mg4 O25 2.128016 1_555
Mg4 O15 2.128933 1_555
Mg5 O12 2.083960 1_555
Mg5 O16 2.083960 1_555
Mg5 O18 2.096298 1_555
Mg5 O19 2.103712 1_555
Mg5 O14 2.103712 1_555
Mg5 O13 2.132494 1_555
Mg6 O23 2.072111 1_555
Mg6 O24 2.093395 1_565
Mg6 O21 2.093395 1_655
Mg6 O30 2.100163 1_665
Mg6 O31 2.127645 1_565
Mg6 O29 2.127645 1_655
Mg7 O27 2.079264 1_555
Mg7 O22 2.079264 1_555
Mg7 O20 2.095139 1_555
Mg7 O24 2.113110 1_565
Mg7 O21 2.113110 1_655
Mg7 O26 2.120707 1_555
O0 V2 2.011346 1_555
O0 V14 2.014520 1_455
O1 V2 2.031342 1_655
O1 V0 2.031342 1_565
O2 V0 2.011346 1_555
O2 V14 2.014520 1_545
O3 V14 2.057205 1_555
O3 V0 2.064518 1_565
O3 V2 2.064518 1_655
O4 V5 1.967894 1_555
O4 V2 2.099157 1_555
O4 V0 2.099157 1_555
O4 V1 2.110856 1_555
O5 V1 1.999951 1_555
O5 V7 2.021740 1_545
O6 V5 1.972987 1_555
O6 V0 2.054680 1_565
O6 V1 2.085926 1_565
O7 V3 1.948933 1_555
O7 V7 2.089090 1_545
O7 V4 2.089090 1_455
O8 V1 1.999951 1_555
O8 V4 2.021740 1_455
O9 V15 1.939273 1_554
O9 V0 2.096860 1_555
O9 V2 2.096860 1_555
O10 V7 2.043386 1_545
O10 V4 2.043386 1_455
O10 V1 2.079313 1_555
O11 V5 1.972987 1_555
O11 V2 2.054680 1_655
O11 V1 2.085926 1_655
O12 V3 1.948495 1_655
O12 V10 2.043120 1_555
O13 V9 1.976399 1_555
O13 V7 2.069929 1_555
O13 V4 2.069929 1_555
O14 V9 1.934949 1_545
O14 V4 2.037086 1_555
O15 V6 1.976606 1_555
O15 V10 2.059366 1_555
O15 V8 2.059366 1_555
O16 V3 1.948495 1_565
O16 V8 2.043120 1_555
O17 V5 1.930903 1_555
O17 V4 2.093375 1_555
O17 V7 2.093375 1_555
O18 V3 1.967436 1_555
O18 V10 2.070812 1_555
O18 V8 2.070812 1_555
O19 V9 1.934949 1_455
O19 V7 2.037086 1_555
O20 V13 1.965223 1_665
O20 V10 2.081798 1_565
O20 V8 2.081798 1_655
O21 V6 1.942027 1_555
O21 V11 2.017615 1_455
O22 V13 1.943656 1_655
O22 V8 2.055692 1_655
O23 V12 2.028975 1_555
O23 V11 2.028975 1_555
O24 V6 1.942027 1_555
O24 V12 2.017615 1_545
O25 V9 1.995703 1_555
O25 V10 2.054316 1_565
O25 V8 2.054316 1_655
O26 V6 1.959019 1_555
O26 V12 2.080229 1_555
O26 V11 2.080229 1_555
O27 V13 1.943656 1_565
O27 V10 2.055692 1_565
O28 V15 1.974065 1_555
O28 V12 2.101487 1_545
O28 V11 2.101487 1_455
O28 V14 2.109774 1_446
O29 V15 1.973168 1_555
O29 V12 2.057126 1_555
O29 V14 2.081585 1_456
O30 V13 1.985576 1_555
O30 V12 2.083471 1_545
O30 V11 2.083471 1_455
O31 V15 1.973168 1_555
O31 V11 2.057126 1_555
O31 V14 2.081585 1_546
