# generated using pymatgen
data_Pr4CrS7
_symmetry_space_group_name_H-M   'P 1'
_cell_length_a   10.00918793
_cell_length_b   10.00918793
_cell_length_c   6.82788600
_cell_angle_alpha   90.00000000
_cell_angle_beta   90.00000000
_cell_angle_gamma   119.99999955
_symmetry_Int_Tables_number   1
_chemical_formula_structural   Pr4CrS7
_chemical_formula_sum   'Pr8 Cr2 S14'
_cell_volume   592.39936221
_cell_formula_units_Z   2
loop_
 _symmetry_equiv_pos_site_id
 _symmetry_equiv_pos_as_xyz
  1  'x, y, z'
loop_
 _atom_site_type_symbol
 _atom_site_label
 _atom_site_symmetry_multiplicity
 _atom_site_fract_x
 _atom_site_fract_y
 _atom_site_fract_z
 _atom_site_occupancy
  Pr  Pr0  1  0.33333300  0.66666700  0.67055800  1
  Pr  Pr1  1  0.66666700  0.33333300  0.17055800  1
  Pr  Pr2  1  0.37387500  0.22453000  0.71561600  1
  Pr  Pr3  1  0.77547000  0.14934500  0.71561600  1
  Pr  Pr4  1  0.62612500  0.77547000  0.21561600  1
  Pr  Pr5  1  0.85065500  0.62612500  0.71561600  1
  Pr  Pr6  1  0.22453000  0.85065500  0.21561600  1
  Pr  Pr7  1  0.14934500  0.37387500  0.21561600  1
  Cr  Cr0  1  0.00000000  0.00000000  0.53188800  1
  Cr  Cr1  1  0.00000000  0.00000000  0.03188800  1
  S  S0  1  0.50680900  0.07134800  0.95756200  1
  S  S1  1  0.92865200  0.43546100  0.95756200  1
  S  S2  1  0.49319100  0.92865200  0.45756200  1
  S  S3  1  0.56453900  0.49319100  0.95756200  1
  S  S4  1  0.07134800  0.56453900  0.45756200  1
  S  S5  1  0.43546100  0.50680900  0.45756200  1
  S  S6  1  0.33333300  0.66666700  0.06061600  1
  S  S7  1  0.66666700  0.33333300  0.56061600  1
  S  S8  1  0.09575500  0.22898200  0.80446800  1
  S  S9  1  0.77101800  0.86677400  0.80446800  1
  S  S10  1  0.90424500  0.77101800  0.30446800  1
  S  S11  1  0.13322600  0.90424500  0.80446800  1
  S  S12  1  0.22898200  0.13322600  0.30446800  1
  S  S13  1  0.86677400  0.09575500  0.30446800  1
loop_
_geom_bond_atom_site_label_1
_geom_bond_atom_site_label_2
_geom_bond_distance
_geom_bond_site_symmetry_2
Pr0 S6 2.663272 1_556
Pr0 S4 2.712133 1_555
Pr0 S2 2.712135 1_555
Pr0 S5 2.712141 1_555
Pr1 S7 2.663272 1_555
Pr1 S1 2.712133 1_554
Pr1 S0 2.712135 1_554
Pr1 S3 2.712141 1_554
Pr2 S7 2.775425 1_555
Pr2 S8 2.871128 1_555
Pr2 S3 2.910382 1_555
Pr2 S11 2.953845 1_545
Pr2 S0 2.981656 1_555
Pr2 S12 3.081208 1_555
Pr2 S5 3.118597 1_555
Pr3 S7 2.775417 1_555
Pr3 S9 2.871118 1_545
Pr3 S0 2.910382 1_555
Pr3 S8 2.953843 1_655
Pr3 S1 2.981656 1_555
Pr3 S13 3.081211 1_555
Pr3 S2 3.118597 1_545
Pr4 S6 2.775425 1_555
Pr4 S10 2.871128 1_555
Pr4 S5 2.910382 1_555
Pr4 S13 2.953845 1_565
Pr4 S2 2.981656 1_555
Pr4 S9 3.081208 1_554
Pr4 S3 3.118597 1_554
Pr5 S7 2.775424 1_555
Pr5 S11 2.871123 1_655
Pr5 S1 2.910382 1_555
Pr5 S9 2.953852 1_555
Pr5 S3 2.981656 1_555
Pr5 S10 3.081208 1_555
Pr5 S4 3.118597 1_655
Pr6 S6 2.775417 1_555
Pr6 S12 2.871118 1_565
Pr6 S2 2.910382 1_555
Pr6 S10 2.953843 1_455
Pr6 S4 2.981656 1_555
Pr6 S11 3.081211 1_554
Pr6 S0 3.118597 1_564
Pr7 S6 2.775424 1_555
Pr7 S13 2.871123 1_455
Pr7 S4 2.910382 1_555
Pr7 S12 2.953852 1_555
Pr7 S5 2.981656 1_555
Pr7 S8 3.081208 1_554
Pr7 S1 3.118597 1_454
Cr0 S13 2.527053 1_455
Cr0 S12 2.527060 1_555
Cr0 S10 2.527061 1_445
Cr0 S11 2.727394 1_545
Cr0 S9 2.727400 1_445
Cr0 S8 2.727401 1_555
Cr1 S11 2.527053 1_544
Cr1 S9 2.527060 1_444
Cr1 S8 2.527061 1_554
Cr1 S13 2.727394 1_455
Cr1 S12 2.727400 1_555
Cr1 S10 2.727401 1_445
