# generated using pymatgen
data_NiPtO2
_symmetry_space_group_name_H-M   'P 1'
_cell_length_a   5.04079602
_cell_length_b   6.96574004
_cell_length_c   5.89209116
_cell_angle_alpha   114.94962189
_cell_angle_beta   90.16354420
_cell_angle_gamma   103.79060653
_symmetry_Int_Tables_number   1
_chemical_formula_structural   NiPtO2
_chemical_formula_sum   'Ni4 Pt4 O8'
_cell_volume   180.91339152
_cell_formula_units_Z   4
loop_
 _symmetry_equiv_pos_site_id
 _symmetry_equiv_pos_as_xyz
  1  'x, y, z'
loop_
 _atom_site_type_symbol
 _atom_site_label
 _atom_site_symmetry_multiplicity
 _atom_site_fract_x
 _atom_site_fract_y
 _atom_site_fract_z
 _atom_site_occupancy
  Ni  Ni0  1  0.49995300  0.50008600  0.74517600  1
  Ni  Ni1  1  0.99997700  0.49989700  0.00484500  1
  Ni  Ni2  1  0.50000200  0.50006100  0.24522300  1
  Ni  Ni3  1  0.00001500  0.49989000  0.50475800  1
  Pt  Pt0  1  0.99957300  0.99993700  0.49861700  1
  Pt  Pt1  1  0.50044500  0.00005200  0.75140100  1
  Pt  Pt2  1  0.99956600  0.99995700  0.99860100  1
  Pt  Pt3  1  0.50044200  0.00006800  0.25138600  1
  O  O0  1  0.10833300  0.32102800  0.66417000  1
  O  O1  1  0.60828200  0.32087100  0.90696300  1
  O  O2  1  0.10824300  0.32100200  0.16408600  1
  O  O3  1  0.60833500  0.32091500  0.40695500  1
  O  O4  1  0.89172200  0.67913000  0.84301900  1
  O  O5  1  0.39168500  0.67906600  0.08587500  1
  O  O6  1  0.89165800  0.67902700  0.34301700  1
  O  O7  1  0.39177000  0.67901400  0.58590800  1
loop_
_geom_bond_atom_site_label_1
_geom_bond_atom_site_label_2
_geom_bond_distance
_geom_bond_site_symmetry_2
Ni0 O0 1.999752 1_555
Ni0 O4 2.000114 1_555
Ni0 O7 2.009801 1_555
Ni0 O3 2.015069 1_555
Ni0 O1 2.022693 1_555
Ni0 O5 2.025141 1_556
Ni1 O1 1.999773 1_554
Ni1 O5 2.000342 1_655
Ni1 O2 2.009657 1_655
Ni1 O6 2.014649 1_555
Ni1 O4 2.022817 1_554
Ni1 O0 2.025021 1_654
Ni2 O6 1.999485 1_555
Ni2 O2 2.000320 1_555
Ni2 O5 2.010899 1_555
Ni2 O1 2.015055 1_554
Ni2 O3 2.022042 1_555
Ni2 O7 2.024955 1_555
Ni3 O3 1.999604 1_455
Ni3 O7 2.000431 1_555
Ni3 O0 2.010297 1_555
Ni3 O4 2.015180 1_455
Ni3 O6 2.022076 1_455
Ni3 O2 2.024772 1_555
O0 Pt0 1.956110 1_445
O1 Pt1 1.954390 1_555
O2 Pt2 1.955824 1_444
O3 Pt3 1.954562 1_555
O4 Pt2 1.954437 1_555
O5 Pt3 1.955569 1_565
O6 Pt0 1.954946 1_555
O7 Pt1 1.955782 1_565
