# generated using pymatgen
data_Mg6SiSn2
_symmetry_space_group_name_H-M   'P 1'
_cell_length_a   8.15439575
_cell_length_b   8.15439575
_cell_length_c   8.15439575
_cell_angle_alpha   146.33344808
_cell_angle_beta   131.72717574
_cell_angle_gamma   60.14132848
_symmetry_Int_Tables_number   1
_chemical_formula_structural   Mg6SiSn2
_chemical_formula_sum   'Mg6 Si1 Sn2'
_cell_volume   222.26174273
_cell_formula_units_Z   1
loop_
 _symmetry_equiv_pos_site_id
 _symmetry_equiv_pos_as_xyz
  1  'x, y, z'
loop_
 _atom_site_type_symbol
 _atom_site_label
 _atom_site_symmetry_multiplicity
 _atom_site_fract_x
 _atom_site_fract_y
 _atom_site_fract_z
 _atom_site_occupancy
  Mg  Mg0  1  0.23593500  0.50000000  0.73593500  1
  Mg  Mg1  1  0.91807900  0.16057300  0.75750600  1
  Mg  Mg2  1  0.59693400  0.83942700  0.75750600  1
  Mg  Mg3  1  0.76406500  0.50000000  0.26406500  1
  Mg  Mg4  1  0.40306600  0.16057300  0.24249400  1
  Mg  Mg5  1  0.08192100  0.83942700  0.24249400  1
  Si  Si0  1  0.00000000  0.00000000  0.00000000  1
  Sn  Sn0  1  0.66596900  0.66596900  0.00000000  1
  Sn  Sn1  1  0.33403100  0.33403100  0.00000000  1
loop_
_geom_bond_atom_site_label_1
_geom_bond_atom_site_label_2
_geom_bond_distance
_geom_bond_site_symmetry_2
Mg0 Si0 2.837586 1_555
Mg0 Si0 2.837586 1_566
Mg0 Sn1 2.930563 1_556
Mg0 Sn0 2.930563 1_556
Mg1 Si0 2.784106 1_656
Mg1 Sn0 2.920800 1_556
Mg1 Sn0 2.920800 1_545
Mg1 Sn1 2.934041 1_656
Mg2 Si0 2.784099 1_666
Mg2 Sn1 2.920800 1_555
Mg2 Sn1 2.920804 1_566
Mg2 Sn0 2.934045 1_556
Mg3 Si0 2.837586 1_655
Mg3 Si0 2.837586 1_666
Mg3 Sn1 2.930563 1_555
Mg3 Sn0 2.930563 1_555
Mg4 Si0 2.784099 1_555
Mg4 Sn0 2.920800 1_556
Mg4 Sn0 2.920804 1_545
Mg4 Sn1 2.934045 1_555
Mg5 Si0 2.784106 1_565
Mg5 Sn1 2.920800 1_566
Mg5 Sn1 2.920800 1_555
Mg5 Sn0 2.934041 1_455
