# generated using pymatgen
data_CaEu2BeO5
_symmetry_space_group_name_H-M   'P 1'
_cell_length_a   6.52783200
_cell_length_b   7.14864300
_cell_length_c   9.48738500
_cell_angle_alpha   90.00000000
_cell_angle_beta   90.00000000
_cell_angle_gamma   90.00000000
_symmetry_Int_Tables_number   1
_chemical_formula_structural   CaEu2BeO5
_chemical_formula_sum   'Ca4 Eu8 Be4 O20'
_cell_volume   442.73015431
_cell_formula_units_Z   4
loop_
 _symmetry_equiv_pos_site_id
 _symmetry_equiv_pos_as_xyz
  1  'x, y, z'
loop_
 _atom_site_type_symbol
 _atom_site_label
 _atom_site_symmetry_multiplicity
 _atom_site_fract_x
 _atom_site_fract_y
 _atom_site_fract_z
 _atom_site_occupancy
  Ca  Ca0  1  0.58032200  0.97979600  0.67473500  1
  Ca  Ca1  1  0.41967800  0.47979600  0.32526500  1
  Ca  Ca2  1  0.08032200  0.47979600  0.82526500  1
  Ca  Ca3  1  0.91967800  0.97979600  0.17473500  1
  Eu  Eu0  1  0.09158700  0.74689200  0.52184500  1
  Eu  Eu1  1  0.40841300  0.74689200  0.02184500  1
  Eu  Eu2  1  0.90841300  0.24689200  0.47815500  1
  Eu  Eu3  1  0.59158700  0.24689200  0.97815500  1
  Eu  Eu4  1  0.92231600  0.52505000  0.17429100  1
  Eu  Eu5  1  0.07768400  0.02505000  0.82570900  1
  Eu  Eu6  1  0.42231600  0.02505000  0.32570900  1
  Eu  Eu7  1  0.57768400  0.52505000  0.67429100  1
  Be  Be0  1  0.69218400  0.74940700  0.39631100  1
  Be  Be1  1  0.80781600  0.74940700  0.89631100  1
  Be  Be2  1  0.30781600  0.24940700  0.60368900  1
  Be  Be3  1  0.19218400  0.24940700  0.10368900  1
  O  O0  1  0.02096700  0.74995200  0.98744500  1
  O  O1  1  0.47903300  0.74995200  0.48744500  1
  O  O2  1  0.97903300  0.24995200  0.01255500  1
  O  O3  1  0.52096700  0.24995200  0.51255500  1
  O  O4  1  0.63754700  0.74981900  0.22315700  1
  O  O5  1  0.86245300  0.74981900  0.72315700  1
  O  O6  1  0.36245300  0.24981900  0.77684300  1
  O  O7  1  0.13754700  0.24981900  0.27684300  1
  O  O8  1  0.16439400  0.74947200  0.27633800  1
  O  O9  1  0.33560600  0.74947200  0.77633800  1
  O  O10  1  0.83560600  0.24947200  0.72366200  1
  O  O11  1  0.66439400  0.24947200  0.22366200  1
  O  O12  1  0.31313100  0.05777500  0.07111900  1
  O  O13  1  0.18913800  0.44183800  0.57220900  1
  O  O14  1  0.68686900  0.55777500  0.92888100  1
  O  O15  1  0.81086200  0.94183800  0.42779100  1
  O  O16  1  0.68913800  0.94183800  0.92779100  1
  O  O17  1  0.81313100  0.55777500  0.42888100  1
  O  O18  1  0.31086200  0.44183800  0.07220900  1
  O  O19  1  0.18686900  0.05777500  0.57111900  1
loop_
_geom_bond_atom_site_label_1
_geom_bond_atom_site_label_2
_geom_bond_distance
_geom_bond_site_symmetry_2
Ca0 O9 2.488386 1_555
Ca0 O3 2.499467 1_565
Ca0 O1 2.508828 1_555
Ca0 O5 2.511122 1_555
Ca0 O16 2.518379 1_555
Ca0 O6 2.585960 1_565
Ca0 O10 2.590176 1_565
Ca0 O15 2.797748 1_555
Ca0 O19 2.806025 1_565
Ca1 O11 2.488386 1_555
Ca1 O1 2.499467 1_555
Ca1 O3 2.508828 1_555
Ca1 O7 2.511122 1_555
Ca1 O18 2.518379 1_555
Ca1 O4 2.585960 1_555
Ca1 O8 2.590176 1_555
Ca1 O13 2.797748 1_555
Ca1 O17 2.806025 1_555
Ca2 O10 2.488386 1_455
Ca2 O0 2.499467 1_555
Ca2 O2 2.508828 1_456
Ca2 O6 2.511122 1_555
Ca2 O13 2.518379 1_555
Ca2 O5 2.585960 1_455
Ca2 O9 2.590176 1_555
Ca2 O18 2.797748 1_556
Ca2 O14 2.806025 1_455
Ca3 O8 2.488386 1_655
Ca3 O2 2.499467 1_565
Ca3 O0 2.508828 1_654
Ca3 O4 2.511122 1_555
Ca3 O15 2.518379 1_555
Ca3 O7 2.585960 1_665
Ca3 O11 2.590176 1_565
Ca3 O16 2.797748 1_554
Ca3 O12 2.806025 1_665
Eu0 O13 2.321502 1_555
Eu0 O19 2.354661 1_565
Eu0 O8 2.377286 1_555
Eu0 O5 2.426007 1_455
Eu0 O17 2.430987 1_455
Eu0 O15 2.469112 1_455
Eu0 O1 2.550246 1_555
Eu0 O9 2.892646 1_555
Eu1 O18 2.321502 1_555
Eu1 O12 2.354661 1_565
Eu1 O9 2.377286 1_554
Eu1 O4 2.426007 1_555
Eu1 O14 2.430987 1_554
Eu1 O16 2.469112 1_554
Eu1 O0 2.550246 1_554
Eu1 O8 2.892646 1_555
Eu2 O15 2.321502 1_545
Eu2 O17 2.354661 1_555
Eu2 O10 2.377286 1_555
Eu2 O7 2.426007 1_655
Eu2 O19 2.430987 1_655
Eu2 O13 2.469112 1_655
Eu2 O3 2.550246 1_555
Eu2 O11 2.892646 1_555
Eu3 O16 2.321502 1_545
Eu3 O14 2.354661 1_555
Eu3 O11 2.377286 1_556
Eu3 O6 2.426007 1_555
Eu3 O12 2.430987 1_556
Eu3 O18 2.469112 1_556
Eu3 O2 2.550246 1_556
Eu3 O10 2.892646 1_555
Eu4 O8 2.451188 1_655
Eu4 O0 2.478294 1_654
Eu4 O4 2.500464 1_555
Eu4 O2 2.521715 1_555
Eu4 O17 2.529200 1_555
Eu4 O7 2.606108 1_655
Eu4 O11 2.633455 1_555
Eu4 O18 2.779382 1_655
Eu4 O14 2.799633 1_554
Eu5 O10 2.451188 1_455
Eu5 O2 2.478294 1_456
Eu5 O6 2.500464 1_555
Eu5 O0 2.521715 1_545
Eu5 O19 2.529200 1_555
Eu5 O5 2.606108 1_445
Eu5 O9 2.633455 1_545
Eu5 O16 2.779382 1_445
Eu5 O12 2.799633 1_556
Eu6 O11 2.451188 1_555
Eu6 O3 2.478294 1_555
Eu6 O7 2.500464 1_555
Eu6 O1 2.521715 1_545
Eu6 O12 2.529200 1_555
Eu6 O4 2.606108 1_545
Eu6 O8 2.633455 1_545
Eu6 O15 2.779382 1_545
Eu6 O19 2.799633 1_555
Eu7 O9 2.451188 1_555
Eu7 O1 2.478294 1_555
Eu7 O5 2.500464 1_555
Eu7 O3 2.521715 1_555
Eu7 O14 2.529200 1_555
Eu7 O6 2.606108 1_555
Eu7 O10 2.633455 1_555
Eu7 O13 2.779382 1_555
Eu7 O17 2.799633 1_555
Be0 O15 1.606769 1_555
Be0 O17 1.611049 1_555
Be0 O1 1.638176 1_555
Be0 O4 1.681053 1_555
Be1 O16 1.606769 1_555
Be1 O14 1.611049 1_555
Be1 O0 1.638176 1_655
Be1 O5 1.681053 1_555
Be2 O13 1.606769 1_555
Be2 O19 1.611049 1_555
Be2 O3 1.638176 1_555
Be2 O6 1.681053 1_555
Be3 O18 1.606769 1_555
Be3 O12 1.611049 1_555
Be3 O2 1.638176 1_455
Be3 O7 1.681053 1_555
