# generated using pymatgen
data_PmY3
_symmetry_space_group_name_H-M   'P 1'
_cell_length_a   6.26533769
_cell_length_b   6.26533769
_cell_length_c   6.26533769
_cell_angle_alpha   131.75963771
_cell_angle_beta   131.75963771
_cell_angle_gamma   70.60891893
_symmetry_Int_Tables_number   1
_chemical_formula_structural   PmY3
_chemical_formula_sum   'Pm1 Y3'
_cell_volume   134.07260938
_cell_formula_units_Z   1
loop_
 _symmetry_equiv_pos_site_id
 _symmetry_equiv_pos_as_xyz
  1  'x, y, z'
loop_
 _atom_site_type_symbol
 _atom_site_label
 _atom_site_symmetry_multiplicity
 _atom_site_fract_x
 _atom_site_fract_y
 _atom_site_fract_z
 _atom_site_occupancy
  Pm  Pm0  1  0.00000000  0.00000000  0.00000000  1
  Y  Y0  1  0.75000000  0.25000000  0.50000000  1
  Y  Y1  1  0.25000000  0.75000000  0.50000000  1
  Y  Y2  1  0.50000000  0.50000000  0.00000000  1
loop_
_geom_bond_atom_site_label_1
_geom_bond_atom_site_label_2
_geom_bond_distance
_geom_bond_site_symmetry_2
Pm0 Y1 3.618189 1_444
Pm0 Y0 3.618189 1_555
Pm0 Y1 3.618189 1_544
Pm0 Y1 3.618189 1_545
Pm0 Y1 3.618189 1_555
Pm0 Y0 3.618189 1_455
Pm0 Y0 3.618189 1_444
Pm0 Y0 3.618189 1_454
Pm0 Y2 3.620871 1_444
Pm0 Y2 3.620871 1_545
Pm0 Y2 3.620871 1_455
Pm0 Y2 3.620871 1_556
Y0 Y2 3.618189 1_556
Y0 Y2 3.618189 1_656
Y0 Y2 3.618189 1_545
Y0 Y2 3.618189 1_555
Y0 Y1 3.620871 1_656
Y0 Y1 3.620871 1_645
Y0 Y1 3.620871 1_555
Y0 Y1 3.620871 1_544
Y1 Y2 3.618189 1_556
Y1 Y2 3.618189 1_455
Y1 Y2 3.618189 1_555
Y1 Y2 3.618189 1_566
