# generated using pymatgen
data_Cu5(Si2O7)2
_symmetry_space_group_name_H-M   'P 1'
_cell_length_a   5.40216300
_cell_length_b   9.83443600
_cell_length_c   20.08671100
_cell_angle_alpha   90.00000000
_cell_angle_beta   90.00000000
_cell_angle_gamma   90.00000000
_symmetry_Int_Tables_number   1
_chemical_formula_structural   Cu5(Si2O7)2
_chemical_formula_sum   'Cu20 Si16 O56'
_cell_volume   1067.15124062
_cell_formula_units_Z   4
loop_
 _symmetry_equiv_pos_site_id
 _symmetry_equiv_pos_as_xyz
  1  'x, y, z'
loop_
 _atom_site_type_symbol
 _atom_site_label
 _atom_site_symmetry_multiplicity
 _atom_site_fract_x
 _atom_site_fract_y
 _atom_site_fract_z
 _atom_site_occupancy
  Cu  Cu0  1  0.50000000  0.00000000  0.50000000  1
  Cu  Cu1  1  0.00000000  0.50000000  0.50000000  1
  Cu  Cu2  1  0.00000000  0.00000000  0.00000000  1
  Cu  Cu3  1  0.50000000  0.50000000  0.00000000  1
  Cu  Cu4  1  0.95031200  0.17179300  0.47587100  1
  Cu  Cu5  1  0.54968800  0.67179300  0.52412900  1
  Cu  Cu6  1  0.45031200  0.82820700  0.02412900  1
  Cu  Cu7  1  0.04968800  0.32820700  0.97587100  1
  Cu  Cu8  1  0.04968800  0.82820700  0.52412900  1
  Cu  Cu9  1  0.45031200  0.32820700  0.47587100  1
  Cu  Cu10  1  0.54968800  0.17179300  0.97587100  1
  Cu  Cu11  1  0.95031200  0.67179300  0.02412900  1
  Cu  Cu12  1  0.02011800  0.25109200  0.22029400  1
  Cu  Cu13  1  0.47988200  0.75109200  0.77970600  1
  Cu  Cu14  1  0.52011800  0.74890800  0.27970600  1
  Cu  Cu15  1  0.97988200  0.24890800  0.72029400  1
  Cu  Cu16  1  0.97988200  0.74890800  0.77970600  1
  Cu  Cu17  1  0.52011800  0.24890800  0.22029400  1
  Cu  Cu18  1  0.47988200  0.25109200  0.72029400  1
  Cu  Cu19  1  0.02011800  0.75109200  0.27970600  1
  Si  Si0  1  0.26416100  0.10074300  0.34440800  1
  Si  Si1  1  0.23583900  0.60074300  0.65559200  1
  Si  Si2  1  0.76416100  0.89925700  0.15559200  1
  Si  Si3  1  0.73583900  0.39925700  0.84440800  1
  Si  Si4  1  0.73583900  0.89925700  0.65559200  1
  Si  Si5  1  0.76416100  0.39925700  0.34440800  1
  Si  Si6  1  0.23583900  0.10074300  0.84440800  1
  Si  Si7  1  0.26416100  0.60074300  0.15559200  1
  Si  Si8  1  0.27449100  0.54899400  0.36577200  1
  Si  Si9  1  0.22550900  0.04899400  0.63422800  1
  Si  Si10  1  0.77449100  0.45100600  0.13422800  1
  Si  Si11  1  0.72550900  0.95100600  0.86577200  1
  Si  Si12  1  0.72550900  0.45100600  0.63422800  1
  Si  Si13  1  0.77449100  0.95100600  0.36577200  1
  Si  Si14  1  0.22550900  0.54899400  0.86577200  1
  Si  Si15  1  0.27449100  0.04899400  0.13422800  1
  O  O0  1  0.52380600  0.49537500  0.32715600  1
  O  O1  1  0.97619400  0.99537500  0.67284400  1
  O  O2  1  0.02380600  0.50462500  0.17284400  1
  O  O3  1  0.47619400  0.00462500  0.82715600  1
  O  O4  1  0.47619400  0.50462500  0.67284400  1
  O  O5  1  0.02380600  0.00462500  0.32715600  1
  O  O6  1  0.97619400  0.49537500  0.82715600  1
  O  O7  1  0.52380600  0.99537500  0.17284400  1
  O  O8  1  0.24119100  0.15469400  0.42038300  1
  O  O9  1  0.25880900  0.65469400  0.57961700  1
  O  O10  1  0.74119100  0.84530600  0.07961700  1
  O  O11  1  0.75880900  0.34530600  0.92038300  1
  O  O12  1  0.75880900  0.84530600  0.57961700  1
  O  O13  1  0.74119100  0.34530600  0.42038300  1
  O  O14  1  0.25880900  0.15469400  0.92038300  1
  O  O15  1  0.24119100  0.65469400  0.07961700  1
  O  O16  1  0.29703600  0.50837100  0.44563800  1
  O  O17  1  0.20296400  0.00837100  0.55436200  1
  O  O18  1  0.79703600  0.49162900  0.05436200  1
  O  O19  1  0.70296400  0.99162900  0.94563800  1
  O  O20  1  0.70296400  0.49162900  0.55436200  1
  O  O21  1  0.79703600  0.99162900  0.44563800  1
  O  O22  1  0.20296400  0.50837100  0.94563800  1
  O  O23  1  0.29703600  0.00837100  0.05436200  1
  O  O24  1  0.27064900  0.21849700  0.28621200  1
  O  O25  1  0.22935100  0.71849700  0.71378800  1
  O  O26  1  0.77064900  0.78150300  0.21378800  1
  O  O27  1  0.72935100  0.28150300  0.78621200  1
  O  O28  1  0.72935100  0.78150300  0.71378800  1
  O  O29  1  0.77064900  0.28150300  0.28621200  1
  O  O30  1  0.22935100  0.21849700  0.78621200  1
  O  O31  1  0.27064900  0.71849700  0.21378800  1
  O  O32  1  0.26708800  0.71147100  0.34643700  1
  O  O33  1  0.23291200  0.21147100  0.65356300  1
  O  O34  1  0.76708800  0.28852900  0.15356300  1
  O  O35  1  0.73291200  0.78852900  0.84643700  1
  O  O36  1  0.73291200  0.28852900  0.65356300  1
  O  O37  1  0.76708800  0.78852900  0.34643700  1
  O  O38  1  0.23291200  0.71147100  0.84643700  1
  O  O39  1  0.26708800  0.21147100  0.15356300  1
  O  O40  1  0.52125700  0.01530300  0.33413900  1
  O  O41  1  0.97874300  0.51530300  0.66586100  1
  O  O42  1  0.02125700  0.98469700  0.16586100  1
  O  O43  1  0.47874300  0.48469700  0.83413900  1
  O  O44  1  0.47874300  0.98469700  0.66586100  1
  O  O45  1  0.02125700  0.48469700  0.33413900  1
  O  O46  1  0.97874300  0.01530300  0.83413900  1
  O  O47  1  0.52125700  0.51530300  0.16586100  1
  O  O48  1  0.37639200  0.32190900  0.01774500  1
  O  O49  1  0.12360800  0.82190900  0.98225500  1
  O  O50  1  0.87639200  0.67809100  0.48225500  1
  O  O51  1  0.62360800  0.17809100  0.51774500  1
  O  O52  1  0.62360800  0.67809100  0.98225500  1
  O  O53  1  0.87639200  0.17809100  0.01774500  1
  O  O54  1  0.12360800  0.32190900  0.51774500  1
  O  O55  1  0.37639200  0.82190900  0.48225500  1
loop_
_geom_bond_atom_site_label_1
_geom_bond_atom_site_label_2
_geom_bond_distance
_geom_bond_site_symmetry_2
Cu0 O51 1.907990 1_555
Cu0 O55 1.907990 1_545
Cu0 O21 1.942679 1_545
Cu0 O17 1.942679 1_555
Cu0 O12 2.612811 1_545
Cu0 O8 2.612811 1_555
Cu1 O54 1.907990 1_555
Cu1 O50 1.907990 1_455
Cu1 O16 1.942679 1_555
Cu1 O20 1.942679 1_455
Cu1 O9 2.612811 1_555
Cu1 O13 2.612811 1_455
Cu2 O53 1.907990 1_455
Cu2 O49 1.907990 1_544
Cu2 O23 1.942679 1_555
Cu2 O19 1.942679 1_444
Cu2 O14 2.612811 1_554
Cu2 O10 2.612811 1_445
Cu3 O52 1.907990 1_554
Cu3 O48 1.907990 1_555
Cu3 O18 1.942679 1_555
Cu3 O22 1.942679 1_554
Cu3 O15 2.612811 1_555
Cu3 O11 2.612811 1_554
Cu4 O8 1.933848 1_655
Cu4 O54 1.939940 1_655
Cu4 O51 1.956069 1_555
Cu4 O21 2.047859 1_545
Cu4 O13 2.330303 1_555
Cu4 O17 2.632791 1_655
Cu5 O9 1.933848 1_555
Cu5 O55 1.939940 1_555
Cu5 O50 1.956069 1_555
Cu5 O20 2.047859 1_555
Cu5 O12 2.330303 1_555
Cu5 O16 2.632791 1_555
Cu6 O10 1.933848 1_555
Cu6 O52 1.939940 1_554
Cu6 O49 1.956069 1_554
Cu6 O23 2.047859 1_565
Cu6 O15 2.330303 1_555
Cu6 O19 2.632791 1_554
Cu7 O11 1.933848 1_455
Cu7 O53 1.939940 1_456
Cu7 O48 1.956069 1_556
Cu7 O22 2.047859 1_555
Cu7 O14 2.330303 1_555
Cu7 O18 2.632791 1_456
Cu8 O12 1.933848 1_455
Cu8 O50 1.939940 1_455
Cu8 O55 1.956069 1_555
Cu8 O17 2.047859 1_565
Cu8 O9 2.330303 1_555
Cu8 O21 2.632791 1_455
Cu9 O13 1.933848 1_555
Cu9 O51 1.939940 1_555
Cu9 O54 1.956069 1_555
Cu9 O16 2.047859 1_555
Cu9 O8 2.330303 1_555
Cu9 O20 2.632791 1_555
Cu10 O14 1.933848 1_555
Cu10 O48 1.939940 1_556
Cu10 O53 1.956069 1_556
Cu10 O19 2.047859 1_545
Cu10 O11 2.330303 1_555
Cu10 O23 2.632791 1_556
Cu11 O15 1.933848 1_655
Cu11 O49 1.939940 1_654
Cu11 O52 1.956069 1_554
Cu11 O18 2.047859 1_555
Cu11 O10 2.330303 1_555
Cu11 O22 2.632791 1_654
Cu12 O29 1.912810 1_455
Cu12 O24 1.920325 1_555
Cu12 O39 1.930941 1_555
Cu12 O34 1.949533 1_455
Cu13 O28 1.912810 1_555
Cu13 O25 1.920325 1_555
Cu13 O38 1.930941 1_555
Cu13 O35 1.949533 1_555
Cu14 O31 1.912810 1_555
Cu14 O26 1.920325 1_555
Cu14 O37 1.930941 1_555
Cu14 O32 1.949533 1_555
Cu15 O30 1.912810 1_655
Cu15 O27 1.920325 1_555
Cu15 O36 1.930941 1_555
Cu15 O33 1.949533 1_655
Cu16 O25 1.912810 1_655
Cu16 O28 1.920325 1_555
Cu16 O35 1.930941 1_555
Cu16 O38 1.949533 1_655
Cu17 O24 1.912810 1_555
Cu17 O29 1.920325 1_555
Cu17 O34 1.930941 1_555
Cu17 O39 1.949533 1_555
Cu18 O27 1.912810 1_555
Cu18 O30 1.920325 1_555
Cu18 O33 1.930941 1_555
Cu18 O36 1.949533 1_555
Cu19 O26 1.912810 1_455
Cu19 O31 1.920325 1_555
Cu19 O32 1.930941 1_555
Cu19 O37 1.949533 1_455
O0 Si8 1.641249 1_555
O0 Si5 1.643032 1_555
O1 Si9 1.641249 1_665
O1 Si4 1.643032 1_555
O2 Si10 1.641249 1_455
O2 Si7 1.643032 1_555
O3 Si11 1.641249 1_545
O3 Si6 1.643032 1_555
O4 Si12 1.641249 1_555
O4 Si1 1.643032 1_555
O5 Si13 1.641249 1_445
O5 Si0 1.643032 1_555
O6 Si14 1.641249 1_655
O6 Si3 1.643032 1_555
O7 Si15 1.641249 1_565
O7 Si2 1.643032 1_555
O8 Si0 1.620449 1_555
O9 Si1 1.620449 1_555
O10 Si2 1.620449 1_555
O11 Si3 1.620449 1_555
O12 Si4 1.620449 1_555
O13 Si5 1.620449 1_555
O14 Si6 1.620449 1_555
O15 Si7 1.620449 1_555
O16 Si8 1.657721 1_555
O17 Si9 1.657721 1_555
O18 Si10 1.657721 1_555
O19 Si11 1.657721 1_555
O20 Si12 1.657721 1_555
O21 Si13 1.657721 1_555
O22 Si14 1.657721 1_555
O23 Si15 1.657721 1_555
O24 Si0 1.645836 1_555
O25 Si1 1.645836 1_555
O26 Si2 1.645836 1_555
O27 Si3 1.645836 1_555
O28 Si4 1.645836 1_555
O29 Si5 1.645836 1_555
O30 Si6 1.645836 1_555
O31 Si7 1.645836 1_555
O32 Si8 1.644878 1_555
O33 Si9 1.644878 1_555
O34 Si10 1.644878 1_555
O35 Si11 1.644878 1_555
O36 Si12 1.644878 1_555
O37 Si13 1.644878 1_555
O38 Si14 1.644878 1_555
O39 Si15 1.644878 1_555
O40 Si13 1.635551 1_545
O40 Si0 1.636321 1_555
O41 Si12 1.635551 1_555
O41 Si1 1.636321 1_655
O42 Si15 1.635551 1_565
O42 Si2 1.636321 1_455
O43 Si14 1.635551 1_555
O43 Si3 1.636321 1_555
O44 Si9 1.635551 1_565
O44 Si4 1.636321 1_555
O45 Si8 1.635551 1_555
O45 Si5 1.636321 1_455
O46 Si11 1.635551 1_545
O46 Si6 1.636321 1_655
O47 Si10 1.635551 1_555
O47 Si7 1.636321 1_555
