# generated using pymatgen
data_Ca6Si6O19
_symmetry_space_group_name_H-M   'P 1'
_cell_length_a   7.41039100
_cell_length_b   7.93385262
_cell_length_c   8.89577267
_cell_angle_alpha   84.06480190
_cell_angle_beta   77.98097051
_cell_angle_gamma   62.18420869
_symmetry_Int_Tables_number   1
_chemical_formula_structural   Ca6Si6O19
_chemical_formula_sum   'Ca6 Si6 O19'
_cell_volume   452.42419859
_cell_formula_units_Z   1
loop_
 _symmetry_equiv_pos_site_id
 _symmetry_equiv_pos_as_xyz
  1  'x, y, z'
loop_
 _atom_site_type_symbol
 _atom_site_label
 _atom_site_symmetry_multiplicity
 _atom_site_fract_x
 _atom_site_fract_y
 _atom_site_fract_z
 _atom_site_occupancy
  Ca  Ca0  1  0.74568200  0.50817500  0.49527200  1
  Ca  Ca1  1  0.25431800  0.49182500  0.50472800  1
  Ca  Ca2  1  0.67004500  0.33696400  0.12990300  1
  Ca  Ca3  1  0.32995500  0.66303600  0.87009700  1
  Ca  Ca4  1  0.18073900  0.33574100  0.13487800  1
  Ca  Ca5  1  0.81926100  0.66425900  0.86512200  1
  Si  Si0  1  0.91015500  0.76255800  0.20836900  1
  Si  Si1  1  0.08984500  0.23744200  0.79163100  1
  Si  Si2  1  0.47770400  0.77091700  0.21498200  1
  Si  Si3  1  0.52229600  0.22908300  0.78501800  1
  Si  Si4  1  0.02023100  0.05702900  0.31899200  1
  Si  Si5  1  0.97976900  0.94297100  0.68100800  1
  O  O0  1  0.00000000  0.00000000  0.50000000  1
  O  O1  1  0.66067500  0.83240900  0.21875100  1
  O  O2  1  0.33932500  0.16759100  0.78124900  1
  O  O3  1  0.47033400  0.62155200  0.35198900  1
  O  O4  1  0.52966600  0.37844800  0.64801100  1
  O  O5  1  0.99949600  0.60741200  0.34240800  1
  O  O6  1  0.00050400  0.39258800  0.65759200  1
  O  O7  1  0.91682100  0.96672400  0.22473200  1
  O  O8  1  0.08317900  0.03327600  0.77526800  1
  O  O9  1  0.26506700  0.98134600  0.23451100  1
  O  O10  1  0.73493300  0.01865400  0.76548900  1
  O  O11  1  0.52264100  0.67462300  0.04883900  1
  O  O12  1  0.47735900  0.32537700  0.95116100  1
  O  O13  1  0.03514900  0.66532300  0.04153800  1
  O  O14  1  0.96485100  0.33467700  0.95846200  1
  O  O15  1  0.90711400  0.28375000  0.29446800  1
  O  O16  1  0.09288600  0.71625000  0.70553200  1
  O  O17  1  0.40936600  0.29128400  0.29528200  1
  O  O18  1  0.59063400  0.70871600  0.70471800  1
loop_
_geom_bond_atom_site_label_1
_geom_bond_atom_site_label_2
_geom_bond_distance
_geom_bond_site_symmetry_2
Ca0 O18 2.310518 1_555
Ca0 O15 2.360566 1_555
Ca0 O3 2.393799 1_555
Ca0 O6 2.395290 1_655
Ca0 O4 2.410494 1_555
Ca0 O5 2.470245 1_555
Ca1 O17 2.310518 1_555
Ca1 O16 2.360566 1_555
Ca1 O4 2.393799 1_555
Ca1 O5 2.395290 1_455
Ca1 O3 2.410494 1_555
Ca1 O6 2.470245 1_555
Ca2 O17 2.320952 1_555
Ca2 O15 2.378796 1_555
Ca2 O12 2.381981 1_554
Ca2 O14 2.383273 1_554
Ca2 O11 2.467279 1_555
Ca2 O3 2.788844 1_555
Ca2 O7 2.793046 1_545
Ca3 O18 2.320952 1_555
Ca3 O16 2.378796 1_555
Ca3 O11 2.381981 1_556
Ca3 O13 2.383273 1_556
Ca3 O12 2.467279 1_555
Ca3 O4 2.788844 1_555
Ca3 O8 2.793046 1_565
Ca4 O17 2.318602 1_555
Ca4 O15 2.399512 1_455
Ca4 O12 2.423270 1_554
Ca4 O13 2.445840 1_555
Ca4 O14 2.466441 1_454
Ca4 O5 2.635609 1_455
Ca4 O9 2.675316 1_545
Ca5 O18 2.318602 1_555
Ca5 O16 2.399512 1_655
Ca5 O11 2.423270 1_556
Ca5 O14 2.445840 1_555
Ca5 O13 2.466441 1_656
Ca5 O6 2.635609 1_655
Ca5 O10 2.675316 1_565
O0 Si5 1.622362 1_445
O0 Si4 1.622362 1_555
O1 Si0 1.648275 1_555
O1 Si2 1.648403 1_555
O2 Si1 1.648275 1_555
O2 Si3 1.648403 1_555
O3 Si2 1.620716 1_555
O4 Si3 1.620716 1_555
O5 Si0 1.624781 1_555
O6 Si1 1.624781 1_555
O7 Si4 1.645572 1_665
O7 Si0 1.665499 1_555
O8 Si5 1.645572 1_445
O8 Si1 1.665499 1_555
O9 Si4 1.651020 1_565
O9 Si2 1.670692 1_555
O10 Si5 1.651020 1_545
O10 Si3 1.670692 1_555
O11 Si2 1.634034 1_555
O12 Si3 1.634034 1_555
O13 Si0 1.628805 1_455
O14 Si1 1.628805 1_655
O15 Si4 1.604260 1_655
O16 Si5 1.604260 1_455
