# generated using pymatgen
data_Li6MnV3(PO4)6
_symmetry_space_group_name_H-M   'P 1'
_cell_length_a   8.71703800
_cell_length_b   8.76980368
_cell_length_c   12.27101426
_cell_angle_alpha   89.58297445
_cell_angle_beta   89.18871864
_cell_angle_gamma   89.68482537
_symmetry_Int_Tables_number   1
_chemical_formula_structural   Li6MnV3(PO4)6
_chemical_formula_sum   'Li12 Mn2 V6 P12 O48'
_cell_volume   937.94614227
_cell_formula_units_Z   2
loop_
 _symmetry_equiv_pos_site_id
 _symmetry_equiv_pos_as_xyz
  1  'x, y, z'
loop_
 _atom_site_type_symbol
 _atom_site_label
 _atom_site_symmetry_multiplicity
 _atom_site_fract_x
 _atom_site_fract_y
 _atom_site_fract_z
 _atom_site_occupancy
  Li  Li0  1  0.92364100  0.90289600  0.69774400  1
  Li  Li1  1  0.92014900  0.29523200  0.75968100  1
  Li  Li2  1  0.78986700  0.22772100  0.17806500  1
  Li  Li3  1  0.71103500  0.72676000  0.32119900  1
  Li  Li4  1  0.58297400  0.79554800  0.74244200  1
  Li  Li5  1  0.57638100  0.40320500  0.80275000  1
  Li  Li6  1  0.42061100  0.59612000  0.19678400  1
  Li  Li7  1  0.41576500  0.20547000  0.25837900  1
  Li  Li8  1  0.28862000  0.27382600  0.67942300  1
  Li  Li9  1  0.21093300  0.77221900  0.82253700  1
  Li  Li10  1  0.08433400  0.70274800  0.24007700  1
  Li  Li11  1  0.07805400  0.09759000  0.30165200  1
  Mn  Mn0  1  0.24679200  0.45777900  0.89042900  1
  Mn  Mn1  1  0.24549000  0.53359600  0.39430400  1
  V  V0  1  0.75366900  0.46856100  0.61053500  1
  V  V1  1  0.75294300  0.54185400  0.11128000  1
  V  V2  1  0.74606300  0.96946500  0.89000600  1
  V  V3  1  0.74696300  0.04232900  0.38836400  1
  V  V4  1  0.25345100  0.95849200  0.61193700  1
  V  V5  1  0.25389100  0.03107300  0.10920000  1
  P  P0  1  0.96167500  0.75138000  0.49410700  1
  P  P1  1  0.89528800  0.61150400  0.85271800  1
  P  P2  1  0.89403900  0.90138500  0.14918500  1
  P  P3  1  0.60556600  0.11248700  0.64673500  1
  P  P4  1  0.60388600  0.40232800  0.35201900  1
  P  P5  1  0.53896600  0.25238900  0.00696400  1
  P  P6  1  0.46169400  0.75076500  0.99394200  1
  P  P7  1  0.39434100  0.59845700  0.65338100  1
  P  P8  1  0.39474600  0.88712500  0.35369800  1
  P  P9  1  0.10519500  0.09688700  0.84971800  1
  P  P10  1  0.10671800  0.38883600  0.14281700  1
  P  P11  1  0.03950300  0.24907700  0.50569200  1
  O  O0  1  0.94987400  0.13612600  0.43377800  1
  O  O1  1  0.93665000  0.32647800  0.59309100  1
  O  O2  1  0.93123200  0.40619700  0.16395700  1
  O  O3  1  0.92637800  0.10269500  0.84811400  1
  O  O4  1  0.88482900  0.64112300  0.57572400  1
  O  O5  1  0.85259400  0.58566700  0.97254200  1
  O  O6  1  0.85061100  0.77744200  0.81802900  1
  O  O7  1  0.84844600  0.02427300  0.23703500  1
  O  O8  1  0.84212700  0.73982800  0.18756200  1
  O  O9  1  0.83417100  0.83387700  0.42940800  1
  O  O10  1  0.82845600  0.94950100  0.04113800  1
  O  O11  1  0.80852600  0.49174900  0.78254100  1
  O  O12  1  0.69353200  0.99210900  0.71721400  1
  O  O13  1  0.66948700  0.44850600  0.46005300  1
  O  O14  1  0.66644600  0.33402400  0.07027300  1
  O  O15  1  0.65687300  0.24096000  0.31363800  1
  O  O16  1  0.64915200  0.27807300  0.68081400  1
  O  O17  1  0.65010000  0.52465700  0.26370300  1
  O  O18  1  0.64853400  0.08641300  0.52690200  1
  O  O19  1  0.61506200  0.14267300  0.92488200  1
  O  O20  1  0.57300400  0.60433200  0.65538300  1
  O  O21  1  0.56978200  0.90557100  0.33458800  1
  O  O22  1  0.56649900  0.82873300  0.90724300  1
  O  O23  1  0.55140100  0.63529800  0.06572400  1
  O  O24  1  0.44952800  0.36651800  0.93403400  1
  O  O25  1  0.43564800  0.17388800  0.09396300  1
  O  O26  1  0.43077200  0.09494500  0.66628300  1
  O  O27  1  0.42435000  0.39472000  0.34902000  1
  O  O28  1  0.38739700  0.86009400  0.07779700  1
  O  O29  1  0.35229400  0.91323200  0.47332600  1
  O  O30  1  0.34933700  0.47564000  0.74296600  1
  O  O31  1  0.35081700  0.72095800  0.31964300  1
  O  O32  1  0.34284100  0.76080300  0.68886100  1
  O  O33  1  0.33391500  0.67266800  0.93073700  1
  O  O34  1  0.32898400  0.54802600  0.54666900  1
  O  O35  1  0.30693500  0.00712900  0.28254100  1
  O  O36  1  0.19492300  0.51000700  0.20813300  1
  O  O37  1  0.17158100  0.05077700  0.95854100  1
  O  O38  1  0.16746600  0.16561000  0.56913500  1
  O  O39  1  0.15474400  0.25627800  0.80820200  1
  O  O40  1  0.14958400  0.97226100  0.76296900  1
  O  O41  1  0.15031400  0.22279400  0.17941300  1
  O  O42  1  0.14012900  0.40668700  0.01992000  1
  O  O43  1  0.11255100  0.35938400  0.42091200  1
  O  O44  1  0.07275000  0.89516000  0.15239900  1
  O  O45  1  0.07096700  0.59446600  0.83277600  1
  O  O46  1  0.06424800  0.67276500  0.40540200  1
  O  O47  1  0.05091600  0.86378200  0.56526300  1
loop_
_geom_bond_atom_site_label_1
_geom_bond_atom_site_label_2
_geom_bond_distance
_geom_bond_site_symmetry_2
Li0 O6 1.936959 1_555
Li0 O47 1.986013 1_655
Li0 O12 2.159767 1_555
Li0 O40 2.225916 1_655
Li1 O11 1.994112 1_555
Li1 O3 2.001396 1_555
Li1 O1 2.063637 1_555
Li1 O39 2.162627 1_655
Li2 O14 1.946146 1_555
Li2 O7 1.987307 1_555
Li2 O2 2.002393 1_555
Li2 O15 2.017877 1_555
Li3 O9 1.966562 1_555
Li3 O8 1.988406 1_555
Li3 O17 1.990103 1_555
Li3 O21 1.994730 1_555
Li4 O20 1.997803 1_555
Li4 O12 1.999545 1_555
Li4 O22 2.048122 1_555
Li4 O32 2.226149 1_555
Li4 O6 2.526555 1_555
Li5 O16 1.958280 1_555
Li5 O24 1.966590 1_555
Li5 O11 2.181689 1_555
Li5 O30 2.208903 1_555
Li5 O20 2.517265 1_555
Li6 O31 1.957636 1_555
Li6 O23 1.987123 1_555
Li6 O36 2.113565 1_555
Li6 O17 2.257028 1_555
Li7 O35 2.004028 1_555
Li7 O27 2.006955 1_555
Li7 O25 2.043274 1_555
Li7 O15 2.241570 1_555
Li7 O41 2.524651 1_555
Li8 O39 1.956777 1_555
Li8 O38 1.979334 1_555
Li8 O26 1.999774 1_555
Li8 O30 2.015598 1_555
Li9 O33 1.920275 1_555
Li9 O40 1.969783 1_555
Li9 O45 1.987002 1_555
Li9 O32 1.992636 1_555
Li10 O36 1.980176 1_555
Li10 O44 1.997473 1_555
Li10 O46 2.048933 1_555
Li10 O8 2.237553 1_455
Li10 O31 2.538782 1_555
Li11 O41 1.951735 1_555
Li11 O0 1.985921 1_455
Li11 O35 2.153389 1_555
Li11 O7 2.261562 1_455
Mn0 O42 1.882159 1_556
Mn0 O30 2.012349 1_555
Mn0 O24 2.013712 1_555
Mn0 O45 2.069942 1_555
Mn0 O33 2.100677 1_555
Mn0 O39 2.202074 1_555
Mn1 O43 1.945558 1_555
Mn1 O46 1.994820 1_555
Mn1 O34 2.020992 1_555
Mn1 O27 2.046316 1_555
Mn1 O31 2.086402 1_555
Mn1 O36 2.343601 1_555
O0 P11 1.552781 1_655
O0 V3 2.041172 1_555
O1 P11 1.546440 1_655
O1 V0 2.028540 1_555
O2 P10 1.554763 1_655
O2 V1 2.060458 1_555
O3 P9 1.559705 1_655
O3 V2 2.022026 1_545
O4 P0 1.536477 1_555
O4 V0 1.943102 1_555
O5 P1 1.527218 1_555
O5 V1 1.937223 1_556
O6 P1 1.562064 1_555
O6 V2 2.104399 1_555
O7 P2 1.575300 1_545
O7 V3 2.052357 1_555
O8 P2 1.557317 1_555
O8 V1 2.134026 1_555
O9 P0 1.548179 1_555
O9 V3 2.038529 1_565
O10 P2 1.507787 1_555
O10 V2 2.004354 1_554
O11 P1 1.567448 1_555
O11 V0 2.181954 1_555
O12 P3 1.564295 1_565
O12 V2 2.182956 1_555
O13 P4 1.510062 1_555
O13 V0 2.005929 1_555
O14 P5 1.546685 1_555
O14 V1 2.045216 1_555
O15 P4 1.560193 1_555
O15 V3 2.115194 1_555
O16 P3 1.564417 1_555
O16 V0 2.082792 1_555
O17 P4 1.569434 1_555
O17 V1 2.067528 1_555
O18 P3 1.530759 1_555
O18 V3 1.933976 1_555
O19 P5 1.538990 1_556
O19 V2 1.941928 1_545
O20 P7 1.559094 1_555
O20 V0 2.040871 1_555
O21 P8 1.549594 1_555
O21 V3 2.078483 1_565
O22 P6 1.550093 1_555
O22 V2 2.006516 1_555
O23 P6 1.552605 1_554
O23 V1 2.018881 1_555
O24 P5 1.551977 1_556
O25 P5 1.547149 1_555
O25 V5 2.030743 1_555
O26 P3 1.547423 1_555
O26 V4 2.080175 1_545
O27 P4 1.567774 1_555
O28 P6 1.544735 1_554
O28 V5 1.930735 1_565
O29 P8 1.527362 1_555
O29 V4 1.938440 1_555
O30 P7 1.580399 1_555
O31 P8 1.569836 1_555
O32 P7 1.553894 1_555
O32 V4 2.118025 1_555
O33 P6 1.533585 1_555
O34 P7 1.505725 1_555
O35 P8 1.566077 1_545
O35 V5 2.191484 1_555
O36 P10 1.549720 1_555
O37 P9 1.514285 1_555
O37 V5 1.998512 1_556
O38 P11 1.547077 1_555
O38 V4 2.029580 1_545
O39 P9 1.545980 1_555
O40 P9 1.574176 1_565
O40 V4 2.055157 1_555
O41 P10 1.567067 1_555
O41 V5 2.089699 1_555
O42 P10 1.538907 1_555
O43 P11 1.548205 1_555
O44 P2 1.559533 1_455
O44 V5 2.045186 1_565
O45 P1 1.553962 1_455
O46 P0 1.560837 1_455
O47 P0 1.542546 1_455
O47 V4 2.046120 1_555
