# generated using pymatgen
data_H13RuN5(ClO)2
_symmetry_space_group_name_H-M   'P 1'
_cell_length_a   6.90791740
_cell_length_b   6.90791740
_cell_length_c   11.22281540
_cell_angle_alpha   74.62620101
_cell_angle_beta   74.62620101
_cell_angle_gamma   66.98726695
_symmetry_Int_Tables_number   1
_chemical_formula_structural   H13RuN5(ClO)2
_chemical_formula_sum   'H26 Ru2 N10 Cl4 O4'
_cell_volume   467.35384214
_cell_formula_units_Z   2
loop_
 _symmetry_equiv_pos_site_id
 _symmetry_equiv_pos_as_xyz
  1  'x, y, z'
loop_
 _atom_site_type_symbol
 _atom_site_label
 _atom_site_symmetry_multiplicity
 _atom_site_fract_x
 _atom_site_fract_y
 _atom_site_fract_z
 _atom_site_occupancy
  H  H0  1  0.89689500  0.89689500  0.81993300  1
  H  H1  1  0.10310500  0.10310500  0.18006700  1
  H  H2  1  0.06837900  0.42874900  0.88098500  1
  H  H3  1  0.42874900  0.06837900  0.88098500  1
  H  H4  1  0.93162100  0.57125100  0.11901500  1
  H  H5  1  0.57125100  0.93162100  0.11901500  1
  H  H6  1  0.93872100  0.27200700  0.97577000  1
  H  H7  1  0.27200700  0.93872100  0.97577000  1
  H  H8  1  0.06127900  0.72799300  0.02423000  1
  H  H9  1  0.72799300  0.06127900  0.02423000  1
  H  H10  1  0.82401800  0.45944400  0.86198500  1
  H  H11  1  0.45944400  0.82401800  0.86198500  1
  H  H12  1  0.17598200  0.54055600  0.13801500  1
  H  H13  1  0.54055600  0.17598200  0.13801500  1
  H  H14  1  0.74155100  0.37511100  0.69776000  1
  H  H15  1  0.37511100  0.74155100  0.69776000  1
  H  H16  1  0.25844900  0.62488900  0.30224000  1
  H  H17  1  0.62488900  0.25844900  0.30224000  1
  H  H18  1  0.82587800  0.14694000  0.64528400  1
  H  H19  1  0.14694000  0.82587800  0.64528400  1
  H  H20  1  0.17412200  0.85306000  0.35471600  1
  H  H21  1  0.85306000  0.17412200  0.35471600  1
  H  H22  1  0.92410700  0.33622900  0.56452100  1
  H  H23  1  0.33622900  0.92410700  0.56452100  1
  H  H24  1  0.07589300  0.66377100  0.43547900  1
  H  H25  1  0.66377100  0.07589300  0.43547900  1
  Ru  Ru0  1  0.12476500  0.12476500  0.76110000  1
  Ru  Ru1  1  0.87523500  0.87523500  0.23890000  1
  N  N0  1  0.27557400  0.27557400  0.65889300  1
  N  N1  1  0.72442600  0.72442600  0.34110700  1
  N  N2  1  0.96671400  0.35002800  0.88422600  1
  N  N3  1  0.35002800  0.96671400  0.88422600  1
  N  N4  1  0.03328600  0.64997200  0.11577400  1
  N  N5  1  0.64997200  0.03328600  0.11577400  1
  N  N6  1  0.87370100  0.26624800  0.65369200  1
  N  N7  1  0.26624800  0.87370100  0.65369200  1
  N  N8  1  0.12629900  0.73375200  0.34630800  1
  N  N9  1  0.73375200  0.12629900  0.34630800  1
  Cl  Cl0  1  0.43097500  0.43097500  0.85936300  1
  Cl  Cl1  1  0.56902500  0.56902500  0.14063700  1
  Cl  Cl2  1  0.81450600  0.81450600  0.64816000  1
  Cl  Cl3  1  0.18549400  0.18549400  0.35184000  1
  O  O0  1  0.37119000  0.37119000  0.57985100  1
  O  O1  1  0.62881000  0.62881000  0.42014900  1
  O  O2  1  0.95249400  0.95249400  0.87097900  1
  O  O3  1  0.04750600  0.04750600  0.12902100  1
loop_
_geom_bond_atom_site_label_1
_geom_bond_atom_site_label_2
_geom_bond_distance
_geom_bond_site_symmetry_2
H0 O2 0.985841 1_555
H1 O3 0.985841 1_555
H2 N2 1.031903 1_455
H3 N3 1.031903 1_545
H4 N4 1.031903 1_655
H5 N5 1.031903 1_565
H6 N2 1.032441 1_555
H7 N3 1.032441 1_555
H8 N4 1.032441 1_555
H9 N5 1.032441 1_555
H10 N2 1.026232 1_555
H11 N3 1.026232 1_555
H12 N4 1.026232 1_555
H13 N5 1.026232 1_555
H14 N6 1.031764 1_555
H15 N7 1.031764 1_555
H16 N8 1.031764 1_555
H17 N9 1.031764 1_555
H18 N6 1.033412 1_555
H19 N7 1.033412 1_555
H20 N8 1.033412 1_555
H21 N9 1.033412 1_555
H22 N6 1.023118 1_555
H23 N7 1.023118 1_555
H24 N8 1.023118 1_555
H25 N9 1.023118 1_555
N0 O0 1.174395 1_555
N0 Ru0 1.751475 1_555
N1 O1 1.174395 1_555
N1 Ru1 1.751475 1_555
N2 Ru0 2.129489 1_655
N3 Ru0 2.129489 1_565
N4 Ru1 2.129489 1_455
N5 Ru1 2.129489 1_545
N6 Ru0 2.138846 1_655
N7 Ru0 2.138846 1_565
N8 Ru1 2.138846 1_455
N9 Ru1 2.138846 1_545
O2 Ru0 1.975874 1_665
O3 Ru1 1.975874 1_445
