# generated using pymatgen
data_BaV13O18
_symmetry_space_group_name_H-M   'P 1'
_cell_length_a   7.90597082
_cell_length_b   8.01072385
_cell_length_c   8.12071435
_cell_angle_alpha   112.59034550
_cell_angle_beta   109.51473064
_cell_angle_gamma   110.92714466
_symmetry_Int_Tables_number   1
_chemical_formula_structural   BaV13O18
_chemical_formula_sum   'Ba1 V13 O18'
_cell_volume   371.44180516
_cell_formula_units_Z   1
loop_
 _symmetry_equiv_pos_site_id
 _symmetry_equiv_pos_as_xyz
  1  'x, y, z'
loop_
 _atom_site_type_symbol
 _atom_site_label
 _atom_site_symmetry_multiplicity
 _atom_site_fract_x
 _atom_site_fract_y
 _atom_site_fract_z
 _atom_site_occupancy
  Ba  Ba0  1  0.99985800  0.99576600  0.99652600  1
  V  V0  1  0.35410500  0.76806400  0.39822000  1
  V  V1  1  0.75804100  0.39405800  0.34139100  1
  V  V2  1  0.40262000  0.34400300  0.76570500  1
  V  V3  1  0.64746100  0.23102100  0.60352800  1
  V  V4  1  0.23247700  0.60035000  0.65380900  1
  V  V5  1  0.59818500  0.65776700  0.23585400  1
  V  V6  1  0.11548900  0.43147900  0.92017100  1
  V  V7  1  0.43443400  0.92694300  0.12317800  1
  V  V8  1  0.92759200  0.12703600  0.43093000  1
  V  V9  1  0.88569500  0.57059100  0.08115300  1
  V  V10  1  0.56718300  0.07586700  0.87740300  1
  V  V11  1  0.07771500  0.87885200  0.57193900  1
  V  V12  1  0.49924200  0.49848400  0.49914300  1
  O  O0  1  0.05916300  0.60751300  0.38622900  1
  O  O1  1  0.60319000  0.38521400  0.05946000  1
  O  O2  1  0.38307500  0.05110900  0.60968400  1
  O  O3  1  0.93327700  0.39029900  0.61354300  1
  O  O4  1  0.39546400  0.62115600  0.94598700  1
  O  O5  1  0.62229900  0.94956000  0.39172600  1
  O  O6  1  0.17493800  0.73605100  0.11434100  1
  O  O7  1  0.72290500  0.09950600  0.15441900  1
  O  O8  1  0.10105800  0.16200300  0.72026300  1
  O  O9  1  0.82970900  0.26340500  0.88600500  1
  O  O10  1  0.27585100  0.90314200  0.84164200  1
  O  O11  1  0.89796900  0.84144200  0.28701600  1
  O  O12  1  0.77779600  0.68185200  0.51137400  1
  O  O13  1  0.68339600  0.51564300  0.77954800  1
  O  O14  1  0.47978500  0.21190200  0.32703000  1
  O  O15  1  0.32263800  0.48037300  0.21252300  1
  O  O16  1  0.21996100  0.31523200  0.48451200  1
  O  O17  1  0.51743300  0.78432000  0.67575000  1
loop_
_geom_bond_atom_site_label_1
_geom_bond_atom_site_label_2
_geom_bond_distance
_geom_bond_site_symmetry_2
Ba0 O13 3.021774 1_555
Ba0 O10 3.027662 1_655
Ba0 O15 3.059467 1_666
Ba0 O7 3.079908 1_566
Ba0 O14 3.087246 1_666
Ba0 O12 3.088895 1_555
Ba0 O17 3.091754 1_555
Ba0 O16 3.114698 1_666
Ba0 O6 3.140305 1_656
Ba0 O9 3.153370 1_565
Ba0 O8 3.190603 1_665
Ba0 O11 3.246643 1_556
O0 V11 2.031387 1_555
O0 V0 2.170399 1_555
O0 V1 2.181403 1_455
O0 V4 2.182938 1_555
O0 V9 2.232333 1_455
O1 V9 2.095590 1_555
O1 V5 2.125380 1_555
O1 V1 2.164796 1_555
O1 V2 2.192678 1_554
O1 V10 2.192690 1_554
O2 V10 2.057396 1_555
O2 V3 2.102818 1_555
O2 V2 2.112003 1_555
O2 V0 2.125390 1_545
O2 V11 2.151091 1_545
O3 V8 2.033162 1_555
O3 V3 2.116252 1_555
O3 V4 2.179648 1_655
O3 V1 2.199997 1_555
O3 V6 2.239927 1_655
O4 V6 2.072391 1_555
O4 V7 2.150006 1_556
O4 V2 2.173400 1_555
O4 V5 2.192939 1_556
O4 V4 2.194993 1_555
O5 V7 2.082045 1_555
O5 V5 2.085580 1_555
O5 V0 2.131632 1_555
O5 V3 2.133818 1_565
O5 V8 2.153095 1_565
O6 V7 2.031920 1_555
O6 V9 2.051162 1_455
O6 V6 2.095242 1_554
O6 V0 2.119267 1_555
O7 V10 2.065907 1_554
O7 V7 2.066027 1_545
O7 V1 2.108943 1_555
O7 V8 2.155552 1_555
O8 V11 2.020705 1_545
O8 V6 2.077583 1_555
O8 V2 2.112272 1_555
O8 V8 2.132362 1_455
O9 V6 2.028696 1_655
O9 V10 2.040758 1_555
O9 V3 2.114945 1_555
O9 V9 2.126027 1_556
O10 V10 2.066798 1_565
O10 V7 2.101090 1_556
O10 V11 2.109801 1_555
O10 V4 2.131093 1_555
O11 V8 2.008725 1_565
O11 V5 2.082339 1_555
O11 V11 2.104551 1_655
O11 V9 2.113368 1_555
O12 V11 2.075125 1_655
O12 V1 2.097302 1_555
O12 V5 2.099919 1_555
O12 V12 2.109102 1_555
O13 V3 2.021017 1_555
O13 V2 2.089233 1_555
O13 V12 2.173793 1_555
O13 V9 2.191405 1_556
O14 V7 2.048261 1_545
O14 V12 2.094387 1_555
O14 V1 2.094531 1_555
O14 V3 2.103464 1_555
O15 V5 2.026560 1_555
O15 V0 2.077723 1_555
O15 V6 2.168323 1_554
O15 V12 2.193786 1_555
O16 V8 2.034628 1_455
O16 V12 2.102279 1_555
O16 V4 2.109923 1_555
O16 V2 2.123122 1_555
O17 V10 2.065442 1_565
O17 V12 2.103451 1_555
O17 V4 2.106494 1_555
O17 V0 2.115134 1_555
