# generated using pymatgen
data_BaCuSF
_symmetry_space_group_name_H-M   'P 1'
_cell_length_a   4.12992600
_cell_length_b   4.12992600
_cell_length_c   9.10646600
_cell_angle_alpha   90.00000000
_cell_angle_beta   90.00000000
_cell_angle_gamma   90.00000000
_symmetry_Int_Tables_number   1
_chemical_formula_structural   BaCuSF
_chemical_formula_sum   'Ba2 Cu2 S2 F2'
_cell_volume   155.32251373
_cell_formula_units_Z   2
loop_
 _symmetry_equiv_pos_site_id
 _symmetry_equiv_pos_as_xyz
  1  'x, y, z'
loop_
 _atom_site_type_symbol
 _atom_site_label
 _atom_site_symmetry_multiplicity
 _atom_site_fract_x
 _atom_site_fract_y
 _atom_site_fract_z
 _atom_site_occupancy
  Ba  Ba0  1  0.00000000  0.50000000  0.81990300  1
  Ba  Ba1  1  0.50000000  0.00000000  0.18009700  1
  Cu  Cu0  1  0.50000000  0.50000000  0.50000000  1
  Cu  Cu1  1  0.00000000  0.00000000  0.50000000  1
  S  S0  1  0.00000000  0.50000000  0.35650700  1
  S  S1  1  0.50000000  0.00000000  0.64349300  1
  F  F0  1  0.50000000  0.50000000  0.00000000  1
  F  F1  1  0.00000000  0.00000000  0.00000000  1
loop_
_geom_bond_atom_site_label_1
_geom_bond_atom_site_label_2
_geom_bond_distance
_geom_bond_site_symmetry_2
Ba0 F0 2.637011 1_556
Ba0 F1 2.637011 1_566
Ba0 F1 2.637011 1_556
Ba0 F0 2.637011 1_456
Ba0 S1 3.333001 1_455
Ba0 S1 3.333001 1_465
Ba0 S1 3.333001 1_555
Ba0 S1 3.333001 1_565
Ba1 F0 2.637011 1_545
Ba1 F0 2.637011 1_555
Ba1 F1 2.637011 1_555
Ba1 F1 2.637011 1_655
Ba1 S0 3.333001 1_555
Ba1 S0 3.333001 1_655
Ba1 S0 3.333001 1_545
Ba1 S0 3.333001 1_645
Cu0 S1 2.443680 1_565
Cu0 S1 2.443680 1_555
Cu0 S0 2.443680 1_655
Cu0 S0 2.443680 1_555
Cu1 S1 2.443680 1_555
Cu1 S1 2.443680 1_455
Cu1 S0 2.443680 1_545
Cu1 S0 2.443680 1_555
