# generated using pymatgen
data_Li2TiFeO4
_symmetry_space_group_name_H-M   'P 1'
_cell_length_a   6.00072972
_cell_length_b   9.08262344
_cell_length_c   6.00314228
_cell_angle_alpha   70.70375086
_cell_angle_beta   90.00021908
_cell_angle_gamma   70.70980578
_symmetry_Int_Tables_number   1
_chemical_formula_structural   Li2TiFeO4
_chemical_formula_sum   'Li8 Ti4 Fe4 O16'
_cell_volume   289.27104400
_cell_formula_units_Z   4
loop_
 _symmetry_equiv_pos_site_id
 _symmetry_equiv_pos_as_xyz
  1  'x, y, z'
loop_
 _atom_site_type_symbol
 _atom_site_label
 _atom_site_symmetry_multiplicity
 _atom_site_fract_x
 _atom_site_fract_y
 _atom_site_fract_z
 _atom_site_occupancy
  Li  Li0  1  0.49997300  0.00000000  0.49999900  1
  Li  Li1  1  0.99997300  0.00000000  0.00000000  1
  Li  Li2  1  0.24997200  0.50000000  0.75000000  1
  Li  Li3  1  0.74997400  0.50000000  0.25000000  1
  Li  Li4  1  0.75003000  0.49999900  0.75000300  1
  Li  Li5  1  0.25002800  0.50000000  0.25000300  1
  Li  Li6  1  0.50002800  0.00000000  0.00000400  1
  Li  Li7  1  0.00002900  0.00000000  0.50000300  1
  Ti  Ti0  1  0.62500200  0.24999700  0.62500200  1
  Ti  Ti1  1  0.12499800  0.25000200  0.12499900  1
  Ti  Ti2  1  0.37500000  0.74999900  0.87500100  1
  Ti  Ti3  1  0.87500200  0.75000100  0.37500000  1
  Fe  Fe0  1  0.62499500  0.24999800  0.12498800  1
  Fe  Fe1  1  0.37499000  0.75000600  0.37499100  1
  Fe  Fe2  1  0.12500800  0.24999400  0.62499800  1
  Fe  Fe3  1  0.87499400  0.75000700  0.87499100  1
  O  O0  1  0.50761300  0.48478400  0.50763300  1
  O  O1  1  0.00761000  0.48478600  0.00763100  1
  O  O2  1  0.25761300  0.98478200  0.75763300  1
  O  O3  1  0.75761200  0.98478700  0.25763200  1
  O  O4  1  0.74238800  0.01521700  0.74236900  1
  O  O5  1  0.24238900  0.01521200  0.24237100  1
  O  O6  1  0.49238800  0.51521500  0.99236900  1
  O  O7  1  0.99239100  0.51521300  0.49237100  1
  O  O8  1  0.87500000  0.25000000  0.37500100  1
  O  O9  1  0.37500100  0.25000000  0.87500100  1
  O  O10  1  0.62500100  0.75000000  0.62500100  1
  O  O11  1  0.12500100  0.75000100  0.12500100  1
  O  O12  1  0.87500000  0.24999900  0.87500000  1
  O  O13  1  0.37500200  0.25000000  0.37500200  1
  O  O14  1  0.62499900  0.75000000  0.12500000  1
  O  O15  1  0.12500100  0.74999900  0.62500200  1
loop_
_geom_bond_atom_site_label_1
_geom_bond_atom_site_label_2
_geom_bond_distance
_geom_bond_site_symmetry_2
Li0 O10 2.007531 1_545
Li0 O13 2.007531 1_555
Li0 O2 2.125503 1_545
Li0 O5 2.125515 1_555
Li0 O4 2.125524 1_555
Li0 O3 2.125545 1_545
Li1 O11 2.007523 1_645
Li1 O12 2.007523 1_554
Li1 O3 2.125496 1_545
Li1 O5 2.125509 1_655
Li1 O4 2.125513 1_554
Li1 O2 2.125551 1_644
Li2 O15 2.007523 1_555
Li2 O9 2.007531 1_555
Li2 O1 2.125497 1_556
Li2 O7 2.125502 1_455
Li2 O6 2.125514 1_555
Li2 O0 2.125554 1_555
Li3 O8 2.007531 1_555
Li3 O14 2.007531 1_555
Li3 O0 2.125502 1_555
Li3 O7 2.125518 1_555
Li3 O6 2.125524 1_554
Li3 O1 2.125541 1_655
Li4 O12 2.007531 1_555
Li4 O10 2.007539 1_555
Li4 O1 2.125494 1_656
Li4 O7 2.125497 1_555
Li4 O0 2.125523 1_555
Li4 O6 2.125554 1_555
Li5 O13 2.007531 1_555
Li5 O11 2.007539 1_555
Li5 O6 2.125501 1_554
Li5 O0 2.125512 1_555
Li5 O1 2.125531 1_555
Li5 O7 2.125540 1_455
Li6 O9 2.007531 1_554
Li6 O14 2.007531 1_545
Li6 O4 2.125506 1_554
Li6 O3 2.125511 1_545
Li6 O2 2.125533 1_544
Li6 O5 2.125544 1_555
Li7 O8 2.007531 1_455
Li7 O15 2.007539 1_545
Li7 O5 2.125491 1_555
Li7 O2 2.125500 1_545
Li7 O3 2.125518 1_445
Li7 O4 2.125551 1_455
Fe0 O9 2.121912 1_554
Fe0 O12 2.121979 1_554
Fe0 O13 2.122039 1_555
Fe0 O8 2.122086 1_555
Fe0 O3 2.129677 1_545
Fe0 O6 2.129725 1_554
Fe1 O11 2.121933 1_555
Fe1 O14 2.122009 1_555
Fe1 O15 2.122009 1_555
Fe1 O10 2.122064 1_555
Fe1 O5 2.129637 1_565
Fe1 O0 2.129766 1_555
Fe2 O13 2.121966 1_555
Fe2 O8 2.121997 1_455
Fe2 O9 2.122009 1_555
Fe2 O12 2.122051 1_455
Fe2 O2 2.129685 1_545
Fe2 O7 2.129742 1_455
Fe3 O10 2.121958 1_555
Fe3 O15 2.121992 1_655
Fe3 O14 2.122026 1_556
Fe3 O11 2.122047 1_656
Fe3 O4 2.129669 1_565
Fe3 O1 2.129758 1_656
O0 Ti0 1.885369 1_555
O1 Ti1 1.885345 1_555
O2 Ti2 1.885337 1_555
O3 Ti3 1.885361 1_555
O4 Ti0 1.885313 1_555
O5 Ti1 1.885393 1_555
O6 Ti2 1.885345 1_555
O7 Ti3 1.885377 1_555
O8 Ti0 2.122005 1_555
O8 Ti1 2.122009 1_655
O9 Ti0 2.122009 1_555
O9 Ti1 2.122013 1_556
O10 Ti2 2.122013 1_555
O10 Ti3 2.122017 1_555
O11 Ti3 2.122000 1_455
O11 Ti2 2.122005 1_554
O12 Ti0 2.121992 1_555
O12 Ti1 2.122001 1_656
O13 Ti0 2.121988 1_555
O13 Ti1 2.122022 1_555
O14 Ti2 2.121997 1_554
O14 Ti3 2.122018 1_555
O15 Ti2 2.121992 1_555
O15 Ti3 2.121997 1_455
