# generated using pymatgen
data_Mg2Si
_symmetry_space_group_name_H-M   'P 1'
_cell_length_a   5.30277204
_cell_length_b   6.14730621
_cell_length_c   7.63496740
_cell_angle_alpha   79.69698133
_cell_angle_beta   82.49512432
_cell_angle_gamma   105.91910406
_symmetry_Int_Tables_number   1
_chemical_formula_structural   Mg2Si
_chemical_formula_sum   'Mg8 Si4'
_cell_volume   231.19438575
_cell_formula_units_Z   4
loop_
 _symmetry_equiv_pos_site_id
 _symmetry_equiv_pos_as_xyz
  1  'x, y, z'
loop_
 _atom_site_type_symbol
 _atom_site_label
 _atom_site_symmetry_multiplicity
 _atom_site_fract_x
 _atom_site_fract_y
 _atom_site_fract_z
 _atom_site_occupancy
  Mg  Mg0  1  0.65211200  0.20097500  0.08507400  1
  Mg  Mg1  1  0.66722700  0.85075600  0.42604800  1
  Mg  Mg2  1  0.17902600  0.63039300  0.91674200  1
  Mg  Mg3  1  0.66538800  0.06626100  0.74013200  1
  Mg  Mg4  1  0.68116100  0.71585200  0.08110200  1
  Mg  Mg5  1  0.16692300  0.45807400  0.58360300  1
  Mg  Mg6  1  0.16598300  0.95786200  0.58352000  1
  Mg  Mg7  1  0.15463600  0.28606500  0.25012200  1
  Si  Si0  1  0.16988000  0.79387200  0.24053000  1
  Si  Si1  1  0.16290400  0.12180500  0.92669100  1
  Si  Si2  1  0.68690700  0.38854000  0.40525600  1
  Si  Si3  1  0.64796400  0.52954400  0.76071000  1
loop_
_geom_bond_atom_site_label_1
_geom_bond_atom_site_label_2
_geom_bond_distance
_geom_bond_site_symmetry_2
Mg0 Si2 2.889436 1_555
Mg0 Mg3 2.896621 1_554
Mg0 Si3 2.909045 1_554
Mg0 Si1 2.960776 1_554
Mg0 Si0 2.974039 1_545
Mg0 Mg7 2.990813 1_555
Mg0 Si1 3.018903 1_654
Mg0 Mg7 3.051374 1_655
Mg0 Mg1 3.092416 1_545
Mg0 Mg2 3.198352 1_654
Mg1 Mg4 2.897129 1_555
Mg1 Si2 2.903314 1_555
Mg1 Si3 2.907673 1_555
Mg1 Mg3 2.939896 1_565
Mg1 Mg5 2.987824 1_555
Mg1 Si0 2.989219 1_655
Mg1 Mg6 3.005409 1_655
Mg1 Mg6 3.058150 1_555
Mg1 Mg7 3.107834 1_665
Mg1 Si0 3.119465 1_555
Mg1 Si2 3.253292 1_565
Mg2 Si0 2.829790 1_556
Mg2 Si3 2.884975 1_555
Mg2 Mg5 2.926565 1_555
Mg2 Mg7 2.968584 1_556
Mg2 Mg6 2.969874 1_555
Mg2 Mg4 2.991968 1_456
Mg2 Mg4 3.046644 1_556
Mg2 Si1 3.059531 1_565
Mg2 Si1 3.091032 1_555
Mg2 Mg3 3.107649 1_565
Mg2 Si3 3.149094 1_455
Mg3 Si3 2.905961 1_555
Mg3 Si2 2.909105 1_555
Mg3 Si1 2.987796 1_555
Mg3 Mg5 2.988112 1_655
Mg3 Mg6 3.005177 1_545
Mg3 Mg6 3.057222 1_645
Mg3 Mg4 3.094182 1_546
Mg3 Si1 3.125225 1_655
Mg3 Si3 3.250012 1_545
Mg4 Si3 2.886266 1_554
Mg4 Si2 2.906307 1_555
Mg4 Si0 2.962922 1_655
Mg4 Si1 2.967686 1_664
Mg4 Si0 3.020328 1_555
Mg4 Mg7 3.199033 1_555
Mg5 Mg7 2.928073 1_555
Mg5 Si3 3.004511 1_555
Mg5 Si2 3.005454 1_455
Mg5 Si1 3.026464 1_555
Mg5 Si0 3.026512 1_555
Mg5 Mg6 3.073608 1_555
Mg5 Mg6 3.073706 1_545
Mg5 Si3 3.081925 1_455
Mg5 Si2 3.084452 1_555
Mg6 Si0 2.969172 1_555
Mg6 Mg7 2.970387 1_565
Mg6 Si1 2.970398 1_565
Mg6 Si3 3.177431 1_455
Mg6 Si2 3.195217 1_565
Mg7 Si1 2.829723 1_554
Mg7 Si2 2.882363 1_455
Mg7 Si0 3.062418 1_545
Mg7 Si0 3.087850 1_555
Mg7 Si2 3.151371 1_555
Si0 Si1 2.853588 1_564
