# generated using pymatgen
data_MgV12(BO5)4
_symmetry_space_group_name_H-M   'P 1'
_cell_length_a   3.16203528
_cell_length_b   9.69294047
_cell_length_c   13.01704809
_cell_angle_alpha   88.67932937
_cell_angle_beta   89.99999762
_cell_angle_gamma   90.00000192
_symmetry_Int_Tables_number   1
_chemical_formula_structural   MgV12(BO5)4
_chemical_formula_sum   'Mg1 V12 B4 O20'
_cell_volume   398.85898932
_cell_formula_units_Z   1
loop_
 _symmetry_equiv_pos_site_id
 _symmetry_equiv_pos_as_xyz
  1  'x, y, z'
loop_
 _atom_site_type_symbol
 _atom_site_label
 _atom_site_symmetry_multiplicity
 _atom_site_fract_x
 _atom_site_fract_y
 _atom_site_fract_z
 _atom_site_occupancy
  Mg  Mg0  1  0.49999993  0.21029439  0.03527515  1
  V  V0  1  0.50000002  0.00268301  0.23036800  1
  V  V1  1  0.50000008  0.98334989  0.76832599  1
  V  V2  1  0.50000010  0.49110919  0.72179365  1
  V  V3  1  0.50000008  0.52037910  0.28805621  1
  V  V4  1  0.49999999  0.99978630  0.49827806  1
  V  V5  1  0.49999994  0.51498200  0.99894925  1
  V  V6  1  0.00000002  0.25106277  0.39447547  1
  V  V7  1  0.99999997  0.74924918  0.60896143  1
  V  V8  1  0.00000005  0.25348466  0.85657350  1
  V  V9  1  0.99999990  0.74339171  0.12258957  1
  V  V10  1  0.00000009  0.96541610  0.98666914  1
  V  V11  1  0.00000006  0.49948883  0.50410907  1
  B  B0  1  0.00000005  0.29848105  0.16148722  1
  B  B1  1  0.99999994  0.71592724  0.85332443  1
  B  B2  1  0.00000005  0.21734371  0.63516611  1
  B  B3  1  0.00000001  0.78043683  0.36392586  1
  O  O0  1  0.99999988  0.35909480  0.06094795  1
  O  O1  1  0.99999997  0.65366455  0.95139737  1
  O  O2  1  0.00000004  0.15186259  0.54202362  1
  O  O3  1  1.00000000  0.84916937  0.45560504  1
  O  O4  1  0.00000022  0.15213579  0.15045938  1
  O  O5  1  0.00000011  0.86039471  0.84688253  1
  O  O6  1  0.00000010  0.36092924  0.64339782  1
  O  O7  1  0.00000005  0.63640253  0.36328439  1
  O  O8  1  0.50000002  0.12145628  0.36071956  1
  O  O9  1  0.49999997  0.87704568  0.63379619  1
  O  O10  1  0.50000007  0.38487326  0.86797777  1
  O  O11  1  0.49999992  0.61555921  0.14102583  1
  O  O12  1  0.00000013  0.36657094  0.24924419  1
  O  O13  1  0.99999988  0.64162496  0.76346116  1
  O  O14  1  0.00000003  0.13512738  0.72561448  1
  O  O15  1  0.00000001  0.85328932  0.26891055  1
  O  O16  1  0.50000004  0.39786847  0.42680599  1
  O  O17  1  0.50000009  0.60315487  0.57946257  1
  O  O18  1  0.50000022  0.09493257  0.91552581  1
  O  O19  1  0.49999998  0.89631250  0.08242171  1
loop_
_geom_bond_atom_site_label_1
_geom_bond_atom_site_label_2
_geom_bond_distance
_geom_bond_site_symmetry_2
Mg0 O18 1.939204 1_554
Mg0 O0 2.171125 1_555
Mg0 O0 2.171125 1_455
Mg0 O4 2.241990 1_555
Mg0 O4 2.241991 1_655
B0 O12 1.332394 1_555
B0 O0 1.422147 1_455
B0 O4 1.429049 1_555
B1 O13 1.387753 1_555
B1 O1 1.399452 1_555
B1 O5 1.400893 1_655
B2 O2 1.381425 1_555
B2 O6 1.398345 1_555
B2 O14 1.406424 1_555
B3 O3 1.380103 1_455
B3 O7 1.396333 1_555
B3 O15 1.410006 1_555
O0 V5 2.319020 1_554
O0 V5 2.319021 1_654
O1 V5 2.156708 1_655
O1 V5 2.156708 1_555
O1 V9 2.410725 1_556
O2 V6 2.127979 1_555
O2 V4 2.243979 1_545
O2 V4 2.243979 1_445
O3 V7 2.198616 1_555
O3 V4 2.230902 1_655
O3 V4 2.230902 1_555
O4 V0 2.368685 1_555
O4 V0 2.368685 1_455
O5 V10 2.105378 1_555
O5 V1 2.215734 1_555
O5 V1 2.215734 1_455
O6 V11 2.231360 1_555
O6 V2 2.278720 1_455
O6 V2 2.278720 1_555
O7 V3 2.184961 1_455
O7 V3 2.184961 1_555
O7 V11 2.238165 1_555
O8 V0 2.072331 1_555
O8 V6 2.072763 1_655
O8 V6 2.072763 1_555
O8 V4 2.121266 1_545
O9 V7 2.038877 1_455
O9 V7 2.038877 1_555
O9 V1 2.052203 1_555
O9 V4 2.104886 1_555
O10 V8 2.037714 1_655
O10 V8 2.037714 1_555
O10 V2 2.142665 1_555
O10 V5 2.143858 1_555
O11 V9 2.019605 1_555
O11 V9 2.019605 1_455
O11 V3 2.105415 1_555
O11 V5 2.110418 1_554
O12 V6 2.174832 1_555
O12 V3 2.238800 1_555
O12 V3 2.238800 1_455
O13 V2 2.226832 1_555
O13 V2 2.226833 1_655
O13 V7 2.244146 1_555
O14 V8 2.076605 1_555
O14 V1 2.221568 1_445
O14 V1 2.221569 1_545
O15 V0 2.194249 1_565
O15 V0 2.194249 1_465
O15 V9 2.203633 1_455
O16 V11 2.127930 1_555
O16 V11 2.127930 1_655
O16 V3 2.138529 1_555
O16 V6 2.174673 1_655
O16 V6 2.174673 1_555
O17 V11 2.125290 1_655
O17 V11 2.125290 1_555
O17 V2 2.125880 1_555
O17 V7 2.162734 1_555
O17 V7 2.162735 1_455
O18 V10 2.208995 1_645
O18 V10 2.208996 1_545
O18 V1 2.221886 1_545
O18 V8 2.322928 1_655
O18 V8 2.322929 1_555
O19 V10 2.112662 1_554
O19 V10 2.112662 1_654
O19 V0 2.205306 1_565
O19 V9 2.221340 1_555
O19 V9 2.221340 1_455
