# generated using pymatgen
data_Tb4Ga21Ni10
_symmetry_space_group_name_H-M   'P 1'
_cell_length_a   10.62393032
_cell_length_b   10.62393032
_cell_length_c   15.45277030
_cell_angle_alpha   56.76961589
_cell_angle_beta   56.76961589
_cell_angle_gamma   22.12653589
_symmetry_Int_Tables_number   1
_chemical_formula_structural   Tb4Ga21Ni10
_chemical_formula_sum   'Tb4 Ga21 Ni10'
_cell_volume   544.97709307
_cell_formula_units_Z   1
loop_
 _symmetry_equiv_pos_site_id
 _symmetry_equiv_pos_as_xyz
  1  'x, y, z'
loop_
 _atom_site_type_symbol
 _atom_site_label
 _atom_site_symmetry_multiplicity
 _atom_site_fract_x
 _atom_site_fract_y
 _atom_site_fract_z
 _atom_site_occupancy
  Tb  Tb0  1  0.88022300  0.88022300  0.33396500  1
  Tb  Tb1  1  0.11977700  0.11977700  0.66603500  1
  Tb  Tb2  1  0.22898400  0.22898400  0.17664200  1
  Tb  Tb3  1  0.77101600  0.77101600  0.82335800  1
  Ga  Ga0  1  0.45999900  0.45999900  0.36885200  1
  Ga  Ga1  1  0.54000100  0.54000100  0.63114800  1
  Ga  Ga2  1  0.79876100  0.79876100  0.00330600  1
  Ga  Ga3  1  0.20123900  0.20123900  0.99669400  1
  Ga  Ga4  1  0.70255000  0.70255000  0.49673100  1
  Ga  Ga5  1  0.29745000  0.29745000  0.50326900  1
  Ga  Ga6  1  0.88403100  0.88403100  0.55160300  1
  Ga  Ga7  1  0.11596900  0.11596900  0.44839700  1
  Ga  Ga8  1  0.61442900  0.61442900  0.29822800  1
  Ga  Ga9  1  0.38557100  0.38557100  0.70177200  1
  Ga  Ga10  1  0.75214100  0.75214100  0.29475100  1
  Ga  Ga11  1  0.24785900  0.24785900  0.70524900  1
  Ga  Ga12  1  0.60211000  0.60211000  0.00272400  1
  Ga  Ga13  1  0.39789000  0.39789000  0.99727600  1
  Ga  Ga14  1  0.99408400  0.99408400  0.09044800  1
  Ga  Ga15  1  0.00591600  0.00591600  0.90955200  1
  Ga  Ga16  1  0.93528200  0.93528200  0.79572100  1
  Ga  Ga17  1  0.06471800  0.06471800  0.20427900  1
  Ga  Ga18  1  0.50000000  0.50000000  0.50000000  1
  Ga  Ga19  1  0.37266900  0.37266900  0.19597000  1
  Ga  Ga20  1  0.62733100  0.62733100  0.80403000  1
  Ni  Ni0  1  0.49826000  0.49826000  0.18538600  1
  Ni  Ni1  1  0.50174000  0.50174000  0.81461400  1
  Ni  Ni2  1  0.86686300  0.86686300  0.10491000  1
  Ni  Ni3  1  0.13313700  0.13313700  0.89509000  1
  Ni  Ni4  1  0.75147600  0.75147600  0.61375900  1
  Ni  Ni5  1  0.24852400  0.24852400  0.38624100  1
  Ni  Ni6  1  0.65260100  0.65260100  0.11366700  1
  Ni  Ni7  1  0.34739900  0.34739900  0.88633300  1
  Ni  Ni8  1  0.97558000  0.97558000  0.60734400  1
  Ni  Ni9  1  0.02442000  0.02442000  0.39265600  1
loop_
_geom_bond_atom_site_label_1
_geom_bond_atom_site_label_2
_geom_bond_distance
_geom_bond_site_symmetry_2
Ga0 Ni0 2.479523 1_555
Ga0 Ni9 2.578354 1_655
Ga0 Ni9 2.578354 1_565
Ga0 Ga18 2.586650 1_555
Ga0 Ga5 2.818020 1_555
Ga0 Tb0 2.866314 1_455
Ga0 Tb0 2.866314 1_545
Ga1 Ni1 2.479523 1_555
Ga1 Ni8 2.578354 1_455
Ga1 Ni8 2.578354 1_545
Ga1 Ga18 2.586650 1_555
Ga1 Ga4 2.818020 1_555
Ga1 Tb1 2.866314 1_655
Ga1 Tb1 2.866314 1_565
Ga2 Ni6 2.528465 1_555
Ga2 Ni7 2.530750 1_654
Ga2 Ni7 2.530750 1_564
Ga2 Ni2 2.640439 1_555
Ga2 Ga3 2.921341 1_564
Ga2 Ga3 2.921341 1_654
Ga2 Tb2 3.015840 1_565
Ga2 Tb2 3.015840 1_655
Ga2 Tb3 3.140649 1_554
Ga3 Ni7 2.528465 1_555
Ga3 Ni6 2.530750 1_456
Ga3 Ni6 2.530750 1_546
Ga3 Ni3 2.640439 1_555
Ga3 Tb3 3.015840 1_455
Ga3 Tb3 3.015840 1_545
Ga3 Tb2 3.140649 1_556
Ga4 Ni5 2.482411 1_565
Ga4 Ni5 2.482411 1_655
Ga4 Ni4 2.524228 1_555
Ga4 Ga5 2.881986 1_655
Ga4 Ga5 2.881986 1_565
Ga4 Tb1 2.989473 1_565
Ga4 Tb1 2.989473 1_655
Ga4 Ga7 3.078905 1_655
Ga4 Ga7 3.078905 1_565
Ga4 Tb0 3.105857 1_555
Ga5 Ni4 2.482411 1_545
Ga5 Ni4 2.482411 1_455
Ga5 Ni5 2.524228 1_555
Ga5 Tb0 2.989473 1_455
Ga5 Tb0 2.989473 1_545
Ga5 Ga6 3.078905 1_455
Ga5 Ga6 3.078905 1_545
Ga5 Tb1 3.105857 1_555
Ga6 Ni4 2.366053 1_555
Ga6 Ni8 2.494569 1_555
Ga6 Ni9 2.563801 1_665
Ga6 Tb0 3.408087 1_555
Ga7 Ni5 2.366053 1_555
Ga7 Ni9 2.494569 1_555
Ga7 Ni8 2.563801 1_445
Ga7 Tb1 3.408087 1_555
Ga8 Ni6 2.496425 1_555
Ga8 Ni9 2.598011 1_655
Ga8 Ni9 2.598011 1_565
Ga8 Tb2 2.894877 1_655
Ga8 Tb2 2.894877 1_565
Ga9 Ni7 2.496425 1_555
Ga9 Ni8 2.598011 1_545
Ga9 Ni8 2.598011 1_455
Ga9 Tb3 2.894877 1_455
Ga9 Tb3 2.894877 1_545
Ga10 Ni5 2.457942 1_565
Ga10 Ni5 2.457942 1_655
Ga10 Ni2 2.547836 1_555
Ga10 Ga4 2.684484 1_555
Ga10 Ga8 2.842055 1_555
Ga10 Ga19 2.918677 1_565
Ga10 Ga19 2.918677 1_655
Ga10 Tb2 2.950352 1_655
Ga10 Tb2 2.950352 1_565
Ga10 Tb0 3.050953 1_555
Ga11 Ni4 2.457942 1_545
Ga11 Ni4 2.457942 1_455
Ga11 Ni3 2.547836 1_555
Ga11 Ga5 2.684484 1_555
Ga11 Ga9 2.842055 1_555
Ga11 Ga20 2.918677 1_455
Ga11 Ga20 2.918677 1_545
Ga11 Tb3 2.950352 1_455
Ga11 Tb3 2.950352 1_545
Ga11 Tb1 3.050953 1_555
Ga12 Ni0 2.414664 1_555
Ga12 Ni6 2.462413 1_555
Ga12 Ni3 2.477767 1_564
Ga12 Ni3 2.477767 1_654
Ga12 Ga14 2.767305 1_455
Ga12 Ga14 2.767305 1_545
Ga12 Ga20 2.810770 1_554
Ga12 Ga3 2.867533 1_564
Ga12 Ga3 2.867533 1_654
Ga12 Tb3 3.030803 1_554
Ga13 Ni1 2.414664 1_555
Ga13 Ni7 2.462413 1_555
Ga13 Ni2 2.477767 1_456
Ga13 Ni2 2.477767 1_546
Ga13 Ga15 2.767305 1_655
Ga13 Ga15 2.767305 1_565
Ga13 Ga19 2.810770 1_556
Ga13 Ga2 2.867533 1_456
Ga13 Ga2 2.867533 1_546
Ga13 Tb2 3.030803 1_556
Ga14 Ni2 2.534940 1_555
Ga14 Ni0 2.541382 1_565
Ga14 Ni0 2.541382 1_655
Ga14 Ga15 2.665444 1_664
Ga14 Ni3 2.783101 1_664
Ga14 Ga17 2.856054 1_665
Ga14 Ga19 2.935096 1_565
Ga14 Ga19 2.935096 1_655
Ga14 Tb0 3.133656 1_555
Ga15 Ni3 2.534940 1_555
Ga15 Ni1 2.541382 1_455
Ga15 Ni1 2.541382 1_545
Ga15 Ni2 2.783101 1_446
Ga15 Ga16 2.856054 1_445
Ga15 Ga20 2.935096 1_545
Ga15 Ga20 2.935096 1_455
Ga15 Tb1 3.133656 1_555
Ga16 Ni8 2.539285 1_555
Ga16 Ni7 2.570899 1_565
Ga16 Ni7 2.570899 1_655
Ga16 Ni1 2.571725 1_655
Ga16 Ni1 2.571725 1_565
Ga16 Ga2 2.862865 1_556
Ga16 Tb1 3.194888 1_665
Ga16 Tb3 3.206601 1_555
Ga17 Ni9 2.539285 1_555
Ga17 Ni6 2.570899 1_545
Ga17 Ni6 2.570899 1_455
Ga17 Ni0 2.571725 1_545
Ga17 Ni0 2.571725 1_455
Ga17 Ga3 2.862865 1_554
Ga17 Tb0 3.194888 1_445
Ga17 Tb2 3.206601 1_555
Ga18 Ni9 2.494715 1_565
Ga18 Ni9 2.494715 1_655
Ga18 Ni8 2.494715 1_545
Ga18 Ni8 2.494715 1_455
Ga18 Ga9 2.665837 1_555
Ga18 Ga8 2.665837 1_555
Ga18 Ga7 2.913178 1_655
Ga18 Ga7 2.913178 1_565
Ga18 Ga6 2.913178 1_545
Ga18 Ga6 2.913178 1_455
Ga19 Ni2 2.518144 1_455
Ga19 Ni2 2.518144 1_545
Ga19 Ni0 2.531262 1_555
Ga19 Ni5 2.616546 1_555
Ga19 Tb0 3.017153 1_455
Ga19 Tb0 3.017153 1_545
Ga19 Tb2 3.172724 1_555
Ga20 Ni3 2.518144 1_565
Ga20 Ni3 2.518144 1_655
Ga20 Ni1 2.531262 1_555
Ga20 Ni4 2.616546 1_555
Ga20 Tb1 3.017153 1_565
Ga20 Tb1 3.017153 1_655
Ga20 Tb3 3.172724 1_555
Ni0 Ni6 2.757426 1_555
Ni0 Tb0 3.029014 1_545
Ni0 Tb0 3.029014 1_455
Ni1 Ni7 2.757426 1_555
Ni1 Tb1 3.029014 1_565
Ni1 Tb1 3.029014 1_655
Ni2 Tb2 3.176845 1_565
Ni2 Tb2 3.176845 1_655
Ni3 Tb3 3.176845 1_455
Ni3 Tb3 3.176845 1_545
Ni4 Tb1 3.142194 1_565
Ni4 Tb1 3.142194 1_655
Ni5 Tb0 3.142194 1_455
Ni5 Tb0 3.142194 1_545
Ni6 Tb2 3.061241 1_655
Ni6 Tb2 3.061241 1_565
Ni7 Tb3 3.061241 1_455
Ni7 Tb3 3.061241 1_545
