# generated using pymatgen
data_Rb8Th(MoO4)6
_symmetry_space_group_name_H-M   'P 1'
_cell_length_a   10.71181369
_cell_length_b   10.71181369
_cell_length_c   15.31200844
_cell_angle_alpha   83.15770978
_cell_angle_beta   83.15770978
_cell_angle_gamma   118.47447141
_symmetry_Int_Tables_number   1
_chemical_formula_structural   Rb8Th(MoO4)6
_chemical_formula_sum   'Rb16 Th2 Mo12 O48'
_cell_volume   1501.92788573
_cell_formula_units_Z   2
loop_
 _symmetry_equiv_pos_site_id
 _symmetry_equiv_pos_as_xyz
  1  'x, y, z'
loop_
 _atom_site_type_symbol
 _atom_site_label
 _atom_site_symmetry_multiplicity
 _atom_site_fract_x
 _atom_site_fract_y
 _atom_site_fract_z
 _atom_site_occupancy
  Rb  Rb0  1  0.91430700  0.08569300  0.25000000  1
  Rb  Rb1  1  0.08569300  0.91430700  0.75000000  1
  Rb  Rb2  1  0.96820800  0.81512200  0.05033700  1
  Rb  Rb3  1  0.18487800  0.03179200  0.44966300  1
  Rb  Rb4  1  0.03179200  0.18487800  0.94966300  1
  Rb  Rb5  1  0.81512200  0.96820800  0.55033700  1
  Rb  Rb6  1  0.31903300  0.47713400  0.04545200  1
  Rb  Rb7  1  0.52286600  0.68096700  0.45454800  1
  Rb  Rb8  1  0.68096700  0.52286600  0.95454800  1
  Rb  Rb9  1  0.47713400  0.31903300  0.54545200  1
  Rb  Rb10  1  0.58950800  0.41049200  0.25000000  1
  Rb  Rb11  1  0.41049200  0.58950800  0.75000000  1
  Rb  Rb12  1  0.67266800  0.16795000  0.04680300  1
  Rb  Rb13  1  0.83205000  0.32733200  0.45319700  1
  Rb  Rb14  1  0.32733200  0.83205000  0.95319700  1
  Rb  Rb15  1  0.16795000  0.67266800  0.54680300  1
  Th  Th0  1  0.26949400  0.73050600  0.25000000  1
  Th  Th1  1  0.73050600  0.26949400  0.75000000  1
  Mo  Mo0  1  0.28722700  0.11512800  0.15763600  1
  Mo  Mo1  1  0.88487200  0.71277300  0.34236400  1
  Mo  Mo2  1  0.71277300  0.88487200  0.84236400  1
  Mo  Mo3  1  0.11512800  0.28722700  0.65763600  1
  Mo  Mo4  1  0.95946900  0.45742100  0.15106400  1
  Mo  Mo5  1  0.54257900  0.04053100  0.34893600  1
  Mo  Mo6  1  0.04053100  0.54257900  0.84893600  1
  Mo  Mo7  1  0.45742100  0.95946900  0.65106400  1
  Mo  Mo8  1  0.59759800  0.78392300  0.14570100  1
  Mo  Mo9  1  0.21607700  0.40240200  0.35429900  1
  Mo  Mo10  1  0.40240200  0.21607700  0.85429900  1
  Mo  Mo11  1  0.78392300  0.59759800  0.64570100  1
  O  O0  1  0.52014100  0.74860000  0.26459000  1
  O  O1  1  0.25140000  0.47985900  0.23541000  1
  O  O2  1  0.47985900  0.25140000  0.73541000  1
  O  O3  1  0.74860000  0.52014100  0.76459000  1
  O  O4  1  0.44980800  0.79768800  0.10568300  1
  O  O5  1  0.20231200  0.55019200  0.39431700  1
  O  O6  1  0.55019200  0.20231200  0.89431700  1
  O  O7  1  0.79768800  0.44980800  0.60568300  1
  O  O8  1  0.61081600  0.63777400  0.10983300  1
  O  O9  1  0.36222600  0.38918400  0.39016700  1
  O  O10  1  0.38918400  0.36222600  0.89016700  1
  O  O11  1  0.63777400  0.61081600  0.60983300  1
  O  O12  1  0.88704500  0.38557500  0.26714100  1
  O  O13  1  0.61442500  0.11295500  0.23285900  1
  O  O14  1  0.11295500  0.61442500  0.73285900  1
  O  O15  1  0.38557500  0.88704500  0.76714100  1
  O  O16  1  0.76369600  0.95088000  0.10603500  1
  O  O17  1  0.04912000  0.23630400  0.39396500  1
  O  O18  1  0.23630400  0.04912000  0.89396500  1
  O  O19  1  0.95088000  0.76369600  0.60603500  1
  O  O20  1  0.12685600  0.63594100  0.13921800  1
  O  O21  1  0.36405900  0.87314400  0.36078200  1
  O  O22  1  0.87314400  0.36405900  0.86078200  1
  O  O23  1  0.63594100  0.12685600  0.63921800  1
  O  O24  1  0.99357400  0.33133600  0.10068800  1
  O  O25  1  0.66866400  0.00642600  0.39931200  1
  O  O26  1  0.00642600  0.66866400  0.89931200  1
  O  O27  1  0.33133600  0.99357400  0.60068800  1
  O  O28  1  0.82816300  0.48004900  0.09985800  1
  O  O29  1  0.51995100  0.17183700  0.40014200  1
  O  O30  1  0.17183700  0.51995100  0.90014200  1
  O  O31  1  0.48004900  0.82816300  0.59985800  1
  O  O32  1  0.25335800  0.15594000  0.26398800  1
  O  O33  1  0.84406000  0.74664200  0.23601200  1
  O  O34  1  0.74664200  0.84406000  0.73601200  1
  O  O35  1  0.15594000  0.25335800  0.76398800  1
  O  O36  1  0.14578400  0.10159900  0.10145700  1
  O  O37  1  0.89840100  0.85421600  0.39854300  1
  O  O38  1  0.85421600  0.89840100  0.89854300  1
  O  O39  1  0.10159900  0.14578400  0.60145700  1
  O  O40  1  0.29265300  0.94297800  0.17034400  1
  O  O41  1  0.05702200  0.70734700  0.32965600  1
  O  O42  1  0.70734700  0.05702200  0.82965600  1
  O  O43  1  0.94297800  0.29265300  0.67034400  1
  O  O44  1  0.45507700  0.26424000  0.09484900  1
  O  O45  1  0.73576000  0.54492300  0.40515100  1
  O  O46  1  0.54492300  0.73576000  0.90515100  1
  O  O47  1  0.26424000  0.45507700  0.59484900  1
loop_
_geom_bond_atom_site_label_1
_geom_bond_atom_site_label_2
_geom_bond_distance
_geom_bond_site_symmetry_2
Mo0 O32 1.776154 1_555
Mo0 O36 1.785333 1_555
Mo0 O44 1.786640 1_555
Mo0 O40 1.860408 1_545
Mo1 O33 1.776154 1_555
Mo1 O37 1.785333 1_555
Mo1 O45 1.786640 1_555
Mo1 O41 1.860408 1_655
Mo2 O34 1.776154 1_555
Mo2 O38 1.785333 1_555
Mo2 O46 1.786640 1_555
Mo2 O42 1.860408 1_565
Mo3 O35 1.776154 1_555
Mo3 O39 1.785333 1_555
Mo3 O47 1.786640 1_555
Mo3 O43 1.860408 1_455
Mo4 O12 1.769013 1_555
Mo4 O28 1.787287 1_555
Mo4 O24 1.790012 1_555
Mo4 O20 1.864146 1_655
Mo5 O13 1.769013 1_555
Mo5 O29 1.787287 1_555
Mo5 O25 1.790012 1_555
Mo5 O21 1.864146 1_545
Mo6 O14 1.769013 1_555
Mo6 O30 1.787287 1_555
Mo6 O26 1.790012 1_555
Mo6 O22 1.864146 1_455
Mo7 O15 1.769013 1_555
Mo7 O31 1.787287 1_555
Mo7 O27 1.790012 1_555
Mo7 O23 1.864146 1_565
Mo8 O8 1.780516 1_555
Mo8 O16 1.783953 1_555
Mo8 O0 1.822683 1_555
Mo8 O4 1.826363 1_555
Mo9 O9 1.780516 1_555
Mo9 O17 1.783953 1_555
Mo9 O1 1.822683 1_555
Mo9 O5 1.826363 1_555
Mo10 O10 1.780516 1_555
Mo10 O18 1.783953 1_555
Mo10 O2 1.822683 1_555
Mo10 O6 1.826363 1_555
Mo11 O11 1.780516 1_555
Mo11 O19 1.783953 1_555
Mo11 O3 1.822683 1_555
Mo11 O7 1.826363 1_555
O0 Th0 2.636875 1_555
O0 Rb7 2.919621 1_555
O1 Th0 2.636875 1_555
O1 Rb6 2.919621 1_555
O2 Th1 2.636875 1_555
O2 Rb9 2.919621 1_555
O3 Th1 2.636875 1_555
O3 Rb8 2.919621 1_555
O4 Th0 2.531872 1_555
O4 Rb14 2.879902 1_554
O4 Rb6 3.328531 1_555
O4 Rb12 3.442265 1_565
O5 Th0 2.531872 1_555
O5 Rb15 2.879902 1_555
O5 Rb7 3.328531 1_555
O5 Rb13 3.442265 1_455
O6 Th1 2.531872 1_555
O6 Rb12 2.879902 1_556
O6 Rb8 3.328531 1_555
O6 Rb14 3.442265 1_545
O7 Th1 2.531872 1_555
O7 Rb13 2.879902 1_555
O7 Rb9 3.328531 1_555
O7 Rb15 3.442265 1_655
O8 Rb10 2.948575 1_555
O8 Rb8 2.981085 1_554
O8 Rb6 3.116359 1_555
O8 Rb2 3.304043 1_555
O9 Rb10 2.948575 1_555
O9 Rb9 2.981085 1_555
O9 Rb7 3.116359 1_555
O9 Rb3 3.304043 1_555
O10 Rb11 2.948575 1_555
O10 Rb6 2.981085 1_556
O10 Rb8 3.116359 1_555
O10 Rb4 3.304043 1_555
O11 Rb11 2.948575 1_555
O11 Rb7 2.981085 1_555
O11 Rb9 3.116359 1_555
O11 Rb5 3.304043 1_555
O12 Rb13 2.771030 1_555
O12 Rb10 3.360341 1_555
O12 Rb0 3.398531 1_555
O13 Rb12 2.771030 1_555
O13 Rb10 3.360341 1_555
O13 Rb0 3.398531 1_555
O14 Rb15 2.771030 1_555
O14 Rb11 3.360341 1_555
O14 Rb1 3.398531 1_555
O15 Rb14 2.771030 1_555
O15 Rb11 3.360341 1_555
O15 Rb1 3.398531 1_555
O16 Rb0 2.988632 1_565
O16 Rb12 3.008339 1_565
O16 Rb4 3.214147 1_664
O16 Rb2 3.244886 1_555
O17 Rb0 2.988632 1_455
O17 Rb13 3.008339 1_455
O17 Rb5 3.214147 1_445
O17 Rb3 3.244886 1_555
O18 Rb1 2.988632 1_545
O18 Rb14 3.008339 1_545
O18 Rb2 3.214147 1_446
O18 Rb4 3.244886 1_555
O19 Rb1 2.988632 1_655
O19 Rb15 3.008339 1_655
O19 Rb3 3.214147 1_665
O19 Rb5 3.244886 1_555
O20 Th0 2.406075 1_555
O20 Rb14 3.154822 1_554
O20 Rb2 3.385700 1_455
O20 Rb6 3.522737 1_555
O21 Th0 2.406075 1_555
O21 Rb15 3.154822 1_555
O21 Rb3 3.385700 1_565
O21 Rb7 3.522737 1_555
O22 Th1 2.406075 1_555
O22 Rb12 3.154822 1_556
O22 Rb4 3.385700 1_655
O22 Rb8 3.522737 1_555
O23 Th1 2.406075 1_555
O23 Rb13 3.154822 1_555
O23 Rb5 3.385700 1_545
O23 Rb9 3.522737 1_555
O24 Rb0 2.974100 1_555
O24 Rb6 3.016521 1_655
O24 Rb4 3.037719 1_654
O24 Rb12 3.292932 1_555
O25 Rb0 2.974100 1_555
O25 Rb7 3.016521 1_545
O25 Rb5 3.037719 1_545
O25 Rb13 3.292932 1_555
O26 Rb1 2.974100 1_555
O26 Rb8 3.016521 1_455
O26 Rb2 3.037719 1_456
O26 Rb14 3.292932 1_555
O27 Rb1 2.974100 1_555
O27 Rb9 3.016521 1_565
O27 Rb3 3.037719 1_565
O27 Rb15 3.292932 1_555
O28 Rb10 2.958209 1_555
O28 Rb8 2.988202 1_554
O28 Rb2 3.107142 1_555
O28 Rb12 3.204801 1_555
O29 Rb10 2.958209 1_555
O29 Rb9 2.988202 1_555
O29 Rb3 3.107142 1_555
O29 Rb13 3.204801 1_555
O30 Rb11 2.958209 1_555
O30 Rb6 2.988202 1_556
O30 Rb4 3.107142 1_555
O30 Rb14 3.204801 1_555
O31 Rb11 2.958209 1_555
O31 Rb7 2.988202 1_555
O31 Rb5 3.107142 1_555
O31 Rb15 3.204801 1_555
O32 Rb3 2.839294 1_555
O32 Rb10 3.280463 1_555
O32 Rb0 3.379393 1_455
O33 Rb2 2.839294 1_555
O33 Rb10 3.280463 1_555
O33 Rb0 3.379393 1_565
O34 Rb5 2.839294 1_555
O34 Rb11 3.280463 1_555
O34 Rb1 3.379393 1_655
O35 Rb4 2.839294 1_555
O35 Rb11 3.280463 1_555
O35 Rb1 3.379393 1_545
O36 Rb4 2.984941 1_554
O36 Rb2 3.001492 1_445
O36 Rb0 3.084070 1_455
O36 Rb6 3.470108 1_555
O37 Rb5 2.984941 1_555
O37 Rb3 3.001492 1_665
O37 Rb0 3.084070 1_565
O37 Rb7 3.470108 1_555
O38 Rb2 2.984941 1_556
O38 Rb4 3.001492 1_665
O38 Rb1 3.084070 1_655
O38 Rb8 3.470108 1_555
O39 Rb3 2.984941 1_555
O39 Rb5 3.001492 1_445
O39 Rb1 3.084070 1_545
O39 Rb9 3.470108 1_555
O40 Th0 2.336082 1_555
O41 Th0 2.336082 1_555
O42 Th1 2.336082 1_555
O43 Th1 2.336082 1_555
O44 Rb8 3.016009 1_554
O44 Rb12 3.017002 1_555
O44 Rb10 3.118101 1_555
O44 Rb6 3.304067 1_555
O45 Rb9 3.016009 1_555
O45 Rb13 3.017002 1_555
O45 Rb10 3.118101 1_555
O45 Rb7 3.304067 1_555
O46 Rb6 3.016009 1_556
O46 Rb14 3.017002 1_555
O46 Rb11 3.118101 1_555
O46 Rb8 3.304067 1_555
O47 Rb7 3.016009 1_555
O47 Rb15 3.017002 1_555
O47 Rb11 3.118101 1_555
O47 Rb9 3.304067 1_555
