# generated using pymatgen
data_Sr4CaSi3
_symmetry_space_group_name_H-M   'P 1'
_cell_length_a   9.76323461
_cell_length_b   9.76323461
_cell_length_c   9.76323461
_cell_angle_alpha   132.03720804
_cell_angle_beta   132.03720804
_cell_angle_gamma   70.17026719
_symmetry_Int_Tables_number   1
_chemical_formula_structural   Sr4CaSi3
_chemical_formula_sum   'Sr8 Ca2 Si6'
_cell_volume   503.20621519
_cell_formula_units_Z   2
loop_
 _symmetry_equiv_pos_site_id
 _symmetry_equiv_pos_as_xyz
  1  'x, y, z'
loop_
 _atom_site_type_symbol
 _atom_site_label
 _atom_site_symmetry_multiplicity
 _atom_site_fract_x
 _atom_site_fract_y
 _atom_site_fract_z
 _atom_site_occupancy
  Sr  Sr0  1  0.82024800  0.32024800  0.86079400  1
  Sr  Sr1  1  0.17975200  0.67975200  0.13920600  1
  Sr  Sr2  1  0.45945500  0.95945500  0.13920600  1
  Sr  Sr3  1  0.32024800  0.45945500  0.50000000  1
  Sr  Sr4  1  0.04054500  0.17975200  0.50000000  1
  Sr  Sr5  1  0.54054500  0.04054500  0.86079400  1
  Sr  Sr6  1  0.67975200  0.54054500  0.50000000  1
  Sr  Sr7  1  0.95945500  0.82024800  0.50000000  1
  Ca  Ca0  1  0.00000000  0.00000000  0.00000000  1
  Ca  Ca1  1  0.50000000  0.50000000  0.00000000  1
  Si  Si0  1  0.11059500  0.61059500  0.72119100  1
  Si  Si1  1  0.88940500  0.38940500  0.27880900  1
  Si  Si2  1  0.61059500  0.88940500  0.50000000  1
  Si  Si3  1  0.38940500  0.11059500  0.50000000  1
  Si  Si4  1  0.25000000  0.25000000  0.00000000  1
  Si  Si5  1  0.75000000  0.75000000  0.00000000  1
loop_
_geom_bond_atom_site_label_1
_geom_bond_atom_site_label_2
_geom_bond_distance
_geom_bond_site_symmetry_2
Ca0 Si1 3.212671 1_455
Ca0 Si0 3.212671 1_544
Ca0 Si2 3.212673 1_444
Ca0 Si3 3.212673 1_555
Ca1 Si1 3.212671 1_555
Ca1 Si0 3.212671 1_554
Ca1 Si3 3.212673 1_554
Ca1 Si2 3.212673 1_555
Si0 Si1 2.482576 1_455
Si0 Sr1 3.239810 1_556
Si0 Sr2 3.239832 1_556
Si0 Sr4 3.260939 1_555
Si0 Sr6 3.260939 1_455
Si0 Sr7 3.260950 1_455
Si0 Sr3 3.260950 1_555
Si1 Sr0 3.239810 1_554
Si1 Sr5 3.239832 1_554
Si1 Sr3 3.260939 1_655
Si1 Sr7 3.260939 1_555
Si1 Sr4 3.260950 1_655
Si1 Sr6 3.260950 1_555
Si2 Si3 2.482565 1_565
Si2 Sr7 3.239829 1_555
Si2 Sr6 3.239829 1_555
Si2 Sr0 3.260941 1_565
Si2 Sr1 3.260941 1_555
Si2 Sr2 3.260952 1_555
Si2 Sr5 3.260952 1_565
Si3 Sr4 3.239829 1_555
Si3 Sr3 3.239829 1_555
Si3 Sr1 3.260941 1_545
Si3 Sr0 3.260941 1_555
Si3 Sr2 3.260952 1_545
Si3 Sr5 3.260952 1_555
Si4 Sr5 3.403095 1_554
Si4 Sr2 3.403095 1_545
Si4 Sr6 3.403100 1_555
Si4 Sr3 3.403100 1_555
Si4 Sr4 3.403100 1_554
Si4 Sr7 3.403100 1_444
Si4 Sr0 3.403103 1_454
Si4 Sr1 3.403103 1_555
Si5 Sr2 3.403095 1_555
Si5 Sr5 3.403095 1_564
Si5 Sr6 3.403100 1_554
Si5 Sr7 3.403100 1_555
Si5 Sr4 3.403100 1_665
Si5 Sr3 3.403100 1_554
Si5 Sr1 3.403103 1_655
Si5 Sr0 3.403103 1_554
