# generated using pymatgen
data_PrRe2SiC
_symmetry_space_group_name_H-M   'P 1'
_cell_length_a   5.84190545
_cell_length_b   5.84190545
_cell_length_c   7.37026700
_cell_angle_alpha   90.00000000
_cell_angle_beta   90.00000000
_cell_angle_gamma   139.40596632
_symmetry_Int_Tables_number   1
_chemical_formula_structural   PrRe2SiC
_chemical_formula_sum   'Pr2 Re4 Si2 C2'
_cell_volume   163.67028494
_cell_formula_units_Z   2
loop_
 _symmetry_equiv_pos_site_id
 _symmetry_equiv_pos_as_xyz
  1  'x, y, z'
loop_
 _atom_site_type_symbol
 _atom_site_label
 _atom_site_symmetry_multiplicity
 _atom_site_fract_x
 _atom_site_fract_y
 _atom_site_fract_z
 _atom_site_occupancy
  Pr  Pr0  1  0.54389600  0.45610400  0.25000000  1
  Pr  Pr1  1  0.45610400  0.54389600  0.75000000  1
  Re  Re0  1  0.82507300  0.17492700  0.06153300  1
  Re  Re1  1  0.17492700  0.82507300  0.93846700  1
  Re  Re2  1  0.17492700  0.82507300  0.56153300  1
  Re  Re3  1  0.82507300  0.17492700  0.43846700  1
  Si  Si0  1  0.26642800  0.73357200  0.25000000  1
  Si  Si1  1  0.73357200  0.26642800  0.75000000  1
  C  C0  1  0.00000000  0.00000000  0.00000000  1
  C  C1  1  0.00000000  0.00000000  0.50000000  1
loop_
_geom_bond_atom_site_label_1
_geom_bond_atom_site_label_2
_geom_bond_distance
_geom_bond_site_symmetry_2
Pr0 Si0 3.040585 1_555
Pr0 Si0 3.170692 1_545
Pr0 Si0 3.170692 1_655
Pr1 Si1 3.040585 1_555
Pr1 Si1 3.170692 1_455
Pr1 Si1 3.170692 1_565
Re0 Si1 2.505473 1_554
Re0 Si0 2.539505 1_545
Re0 Si0 2.539505 1_655
Re1 Si0 2.505473 1_556
Re1 Si1 2.539505 1_455
Re1 Si1 2.539505 1_565
Re2 Si0 2.505473 1_555
Re2 Si1 2.539505 1_565
Re2 Si1 2.539505 1_455
Re3 Si1 2.505473 1_555
Re3 Si0 2.539505 1_655
Re3 Si0 2.539505 1_545
C0 Re0 1.969825 1_455
C0 Re1 1.969825 1_544
C0 Pr1 2.780838 1_554
C0 Pr0 2.780838 1_555
C0 Pr0 2.780838 1_445
C0 Pr1 2.780838 1_444
C1 Re2 1.969825 1_545
C1 Re3 1.969825 1_455
C1 Pr1 2.780838 1_555
C1 Pr0 2.780838 1_555
C1 Pr0 2.780838 1_445
C1 Pr1 2.780838 1_445
