# generated using pymatgen
data_CaCuO2
_symmetry_space_group_name_H-M   'P 1'
_cell_length_a   3.06902245
_cell_length_b   8.57608591
_cell_length_c   8.53381353
_cell_angle_alpha   91.13259586
_cell_angle_beta   72.21834038
_cell_angle_gamma   88.35967219
_symmetry_Int_Tables_number   1
_chemical_formula_structural   CaCuO2
_chemical_formula_sum   'Ca4 Cu4 O8'
_cell_volume   213.69779334
_cell_formula_units_Z   4
loop_
 _symmetry_equiv_pos_site_id
 _symmetry_equiv_pos_as_xyz
  1  'x, y, z'
loop_
 _atom_site_type_symbol
 _atom_site_label
 _atom_site_symmetry_multiplicity
 _atom_site_fract_x
 _atom_site_fract_y
 _atom_site_fract_z
 _atom_site_occupancy
  Ca  Ca0  1  0.59045000  0.02396400  0.19969700  1
  Ca  Ca1  1  0.40584100  0.95595300  0.82831100  1
  Ca  Ca2  1  0.19149400  0.66434200  0.09951600  1
  Ca  Ca3  1  0.80314100  0.31535000  0.92887500  1
  Cu  Cu0  1  0.62715300  0.18532200  0.55914800  1
  Cu  Cu1  1  0.03017700  0.36147500  0.27445300  1
  Cu  Cu2  1  0.96162200  0.61867200  0.75453200  1
  Cu  Cu3  1  0.37169100  0.79487200  0.46902400  1
  O  O0  1  0.74947800  0.75585800  0.61990200  1
  O  O1  1  0.36469900  0.50482500  0.84483000  1
  O  O2  1  0.62815600  0.47465300  0.18341700  1
  O  O3  1  0.24890400  0.22498800  0.40826700  1
  O  O4  1  0.00695700  0.13309400  0.70213600  1
  O  O5  1  0.21148800  0.15153200  0.04549200  1
  O  O6  1  0.99201700  0.84679400  0.32583100  1
  O  O7  1  0.78500800  0.82764300  0.98218500  1
loop_
_geom_bond_atom_site_label_1
_geom_bond_atom_site_label_2
_geom_bond_distance
_geom_bond_site_symmetry_2
Ca0 O5 2.280395 1_555
Ca0 O5 2.281612 1_655
Ca0 O6 2.398719 1_545
Ca0 O7 2.403894 1_544
Ca0 O6 2.420199 1_445
Ca0 O3 2.423768 1_555
Ca1 O7 2.281763 1_555
Ca1 O7 2.283538 1_455
Ca1 O4 2.393578 1_565
Ca1 O5 2.397658 1_566
Ca1 O0 2.418731 1_555
Ca1 O4 2.425400 1_665
Ca2 O7 2.288789 1_454
Ca2 O7 2.317180 1_554
Ca2 O2 2.337161 1_555
Ca2 O2 2.366256 1_455
Ca2 O6 2.378385 1_455
Ca2 O1 2.452162 1_554
Ca3 O5 2.291507 1_656
Ca3 O5 2.314932 1_556
Ca3 O1 2.340053 1_555
Ca3 O1 2.361469 1_655
Ca3 O4 2.379834 1_655
Ca3 O2 2.449812 1_556
Cu0 O4 1.977051 1_655
Cu0 O4 1.991063 1_555
Cu0 O3 1.992120 1_655
Cu0 O3 2.007197 1_555
Cu1 O3 1.897587 1_555
Cu1 O2 1.901224 1_455
Cu1 O2 2.043191 1_555
Cu1 O5 2.551207 1_555
Cu1 O3 2.639032 1_455
Cu2 O0 1.895928 1_555
Cu2 O1 1.902685 1_655
Cu2 O1 2.042819 1_555
Cu2 O7 2.538397 1_555
Cu3 O6 1.977566 1_455
Cu3 O6 1.991250 1_555
Cu3 O0 1.992025 1_455
Cu3 O0 2.005166 1_555
