# generated using pymatgen
data_MgI8(OF2)12
_symmetry_space_group_name_H-M   'P 1'
_cell_length_a   9.19029727
_cell_length_b   9.54679240
_cell_length_c   10.04779719
_cell_angle_alpha   114.51407472
_cell_angle_beta   88.75250332
_cell_angle_gamma   91.18457558
_symmetry_Int_Tables_number   1
_chemical_formula_structural   MgI8(OF2)12
_chemical_formula_sum   'Mg1 I8 O12 F24'
_cell_volume   801.85097941
_cell_formula_units_Z   1
loop_
 _symmetry_equiv_pos_site_id
 _symmetry_equiv_pos_as_xyz
  1  'x, y, z'
loop_
 _atom_site_type_symbol
 _atom_site_label
 _atom_site_symmetry_multiplicity
 _atom_site_fract_x
 _atom_site_fract_y
 _atom_site_fract_z
 _atom_site_occupancy
  Mg  Mg0  1  0.57934728  0.94653227  0.13415217  1
  I  I0  1  0.73113199  0.55838817  0.90155089  1
  I  I1  1  0.22914358  0.91956282  0.06929268  1
  I  I2  1  0.27135880  0.42538572  0.06695877  1
  I  I3  1  0.77549049  0.09054396  0.96011419  1
  I  I4  1  0.59006154  0.66783962  0.30138740  1
  I  I5  1  0.06284943  0.84349996  0.69874111  1
  I  I6  1  0.41462241  0.33265932  0.68021722  1
  I  I7  1  0.91300538  0.16092989  0.32278988  1
  O  O0  1  0.53703126  0.50118948  0.75937509  1
  O  O1  1  0.07514709  0.96592869  0.20160027  1
  O  O2  1  0.48619600  0.49211725  0.20427067  1
  O  O3  1  0.96086929  0.02092599  0.80881181  1
  O  O4  1  0.61716833  0.72746270  0.14981616  1
  O  O5  1  0.10450695  0.78501744  0.84353765  1
  O  O6  1  0.38030701  0.29814039  0.84382913  1
  O  O7  1  0.88945985  0.20114392  0.14318288  1
  O  O8  1  0.27597969  0.60130324  0.05031331  1
  O  O9  1  0.76562047  0.91694740  0.99118348  1
  O  O10  1  0.71182273  0.39382556  0.93713814  1
  O  O11  1  0.24700635  0.09137808  0.04247901  1
  F  F0  1  0.42602407  0.79205383  0.37520381  1
  F  F1  1  0.43699950  0.34541161  0.49975330  1
  F  F2  1  0.02920565  0.88107547  0.53279222  1
  F  F3  1  0.57895458  0.63158394  0.47092618  1
  F  F4  1  0.81201676  0.34762864  0.41943648  1
  F  F5  1  0.94358055  0.17393564  0.52043363  1
  F  F6  1  0.16349490  0.67335914  0.56271385  1
  F  F7  1  0.69718853  0.84132663  0.42336229  1
  F  F8  1  0.68617992  0.06945576  0.30665802  1
  F  F9  1  0.25177360  0.45712853  0.70867889  1
  F  F10  1  0.23673749  0.95516682  0.71375352  1
  F  F11  1  0.76797785  0.56538303  0.26293498  1
  F  F12  1  0.64668075  0.99556446  0.79343253  1
  F  F13  1  0.16432851  0.50074572  0.24637768  1
  F  F14  1  0.37882827  0.99328839  0.23509907  1
  F  F15  1  0.84490000  0.47059806  0.72906016  1
  F  F16  1  0.59190014  0.14945333  0.08135876  1
  F  F17  1  0.09204226  0.35351266  0.96898938  1
  F  F18  1  0.45429639  0.84026865  0.96952274  1
  F  F19  1  0.90945613  0.62731476  0.00456116  1
  F  F20  1  0.56669099  0.19145303  0.61883094  1
  F  F21  1  0.08144590  0.28723345  0.35754085  1
  F  F22  1  0.29225710  0.16659288  0.57298440  1
  F  F23  1  0.89320027  0.71965070  0.64402023  1
loop_
_geom_bond_atom_site_label_1
_geom_bond_atom_site_label_2
_geom_bond_distance
_geom_bond_site_symmetry_2
Mg0 O9 2.156434 1_554
Mg0 O4 2.196629 1_555
I0 O10 1.754826 1_555
I0 O0 2.223600 1_555
I0 O4 2.557308 1_556
I1 O11 1.773057 1_565
I1 O1 1.849838 1_555
I1 O5 2.396200 1_554
I2 O8 1.755037 1_555
I2 O6 2.279720 1_554
I2 O2 2.354767 1_555
I3 O9 1.809468 1_545
I3 O7 2.005473 1_556
I3 O3 2.179685 1_555
I4 O2 1.814822 1_555
I4 O4 1.844571 1_555
I5 O5 1.811669 1_555
I5 O3 1.853815 1_465
I6 O6 1.825729 1_555
I6 O0 1.840925 1_555
I7 O7 2.011559 1_555
I7 O1 2.307269 1_645
F0 I4 1.877344 1_555
F1 I6 1.873756 1_555
F2 I5 1.878291 1_555
F3 I4 1.874129 1_555
F4 I7 1.890532 1_555
F5 I7 1.963759 1_555
F6 I5 1.877971 1_555
F7 I4 1.874876 1_555
F8 Mg0 1.919374 1_545
F8 I7 2.226299 1_555
F9 I6 1.872590 1_555
F10 I5 1.876092 1_555
F11 I4 1.872057 1_555
F12 I3 1.951981 1_565
F13 I2 1.900229 1_555
F14 Mg0 2.049628 1_555
F14 I1 2.061557 1_555
F15 I0 1.884510 1_555
F16 I3 2.007087 1_554
F16 Mg0 2.210988 1_545
F17 I2 1.902368 1_556
F18 Mg0 1.930861 1_556
F18 I1 2.281311 1_556
F19 I0 1.911598 1_554
F20 I6 1.871164 1_555
F21 I7 1.889232 1_455
F22 I6 1.870988 1_555
F23 I5 1.884888 1_655
