# generated using pymatgen
data_EuTlS2
_symmetry_space_group_name_H-M   'P 1'
_cell_length_a   4.19198871
_cell_length_b   4.19198871
_cell_length_c   7.72425214
_cell_angle_alpha   74.25523067
_cell_angle_beta   74.25523067
_cell_angle_gamma   59.99998885
_symmetry_Int_Tables_number   1
_chemical_formula_structural   EuTlS2
_chemical_formula_sum   'Eu1 Tl1 S2'
_cell_volume   111.63183347
_cell_formula_units_Z   1
loop_
 _symmetry_equiv_pos_site_id
 _symmetry_equiv_pos_as_xyz
  1  'x, y, z'
loop_
 _atom_site_type_symbol
 _atom_site_label
 _atom_site_symmetry_multiplicity
 _atom_site_fract_x
 _atom_site_fract_y
 _atom_site_fract_z
 _atom_site_occupancy
  Eu  Eu0  1  0.00000000  0.00000000  0.00000000  1
  Tl  Tl0  1  0.50000000  0.50000000  0.50000000  1
  S  S0  1  0.73594200  0.73594200  0.79217400  1
  S  S1  1  0.26405800  0.26405800  0.20782600  1
loop_
_geom_bond_atom_site_label_1
_geom_bond_atom_site_label_2
_geom_bond_distance
_geom_bond_site_symmetry_2
Eu0 S0 2.860346 1_544
Eu0 S0 2.860346 1_454
Eu0 S1 2.860346 1_545
Eu0 S1 2.860346 1_455
Eu0 S0 2.860346 1_444
Eu0 S1 2.860346 1_555
S0 Tl0 3.232772 1_565
S0 Tl0 3.232772 1_655
S0 Tl0 3.232772 1_555
S1 Tl0 3.232772 1_545
S1 Tl0 3.232772 1_455
S1 Tl0 3.232772 1_555
