# generated using pymatgen
data_K2ErCuCl6
_symmetry_space_group_name_H-M   'P 1'
_cell_length_a   7.28633233
_cell_length_b   7.28633233
_cell_length_c   7.28633233
_cell_angle_alpha   60.00000000
_cell_angle_beta   60.00000000
_cell_angle_gamma   60.00000000
_symmetry_Int_Tables_number   1
_chemical_formula_structural   K2ErCuCl6
_chemical_formula_sum   'K2 Er1 Cu1 Cl6'
_cell_volume   273.53438565
_cell_formula_units_Z   1
loop_
 _symmetry_equiv_pos_site_id
 _symmetry_equiv_pos_as_xyz
  1  'x, y, z'
loop_
 _atom_site_type_symbol
 _atom_site_label
 _atom_site_symmetry_multiplicity
 _atom_site_fract_x
 _atom_site_fract_y
 _atom_site_fract_z
 _atom_site_occupancy
  K  K0  1  0.75000000  0.75000000  0.75000000  1
  K  K1  1  0.25000000  0.25000000  0.25000000  1
  Er  Er0  1  0.00000000  0.00000000  0.00000000  1
  Cu  Cu0  1  0.50000000  0.50000000  0.50000000  1
  Cl  Cl0  1  0.74690500  0.25309500  0.25309500  1
  Cl  Cl1  1  0.25309500  0.25309500  0.74690500  1
  Cl  Cl2  1  0.25309400  0.74690500  0.74690500  1
  Cl  Cl3  1  0.25309400  0.74690500  0.25309500  1
  Cl  Cl4  1  0.74690500  0.25309500  0.74690500  1
  Cl  Cl5  1  0.74690500  0.74690500  0.25309500  1
loop_
_geom_bond_atom_site_label_1
_geom_bond_atom_site_label_2
_geom_bond_distance
_geom_bond_site_symmetry_2
Cl0 Cu0 2.544215 1_555
Cl0 Er0 2.608000 1_655
Cl0 K1 3.643306 1_555
Cl0 K0 3.643306 1_545
Cl0 K0 3.643306 1_554
Cl0 K1 3.643306 1_655
Cl1 Cu0 2.544215 1_555
Cl1 Er0 2.608000 1_556
Cl1 K1 3.643306 1_555
Cl1 K0 3.643306 1_545
Cl1 K0 3.643306 1_455
Cl1 K1 3.643306 1_556
Cl2 Cu0 2.544215 1_555
Cl2 Er0 2.608000 1_566
Cl2 K0 3.643298 1_455
Cl2 K1 3.643306 1_556
Cl2 K1 3.643306 1_565
Cl2 K0 3.643313 1_555
Cl3 Cu0 2.544220 1_555
Cl3 Er0 2.607995 1_565
Cl3 K1 3.643302 1_555
Cl3 K0 3.643302 1_455
Cl3 K0 3.643309 1_554
Cl3 K1 3.643309 1_565
Cl4 Cu0 2.544215 1_555
Cl4 Er0 2.608000 1_656
Cl4 K0 3.643306 1_545
Cl4 K1 3.643306 1_655
Cl4 K1 3.643306 1_556
Cl4 K0 3.643306 1_555
Cl5 Cu0 2.544215 1_555
Cl5 Er0 2.608000 1_665
Cl5 K0 3.643306 1_554
Cl5 K1 3.643306 1_655
Cl5 K1 3.643306 1_565
Cl5 K0 3.643306 1_555
