# generated using pymatgen
data_Ce2Al11Pd3
_symmetry_space_group_name_H-M   'P 1'
_cell_length_a   4.26277900
_cell_length_b   4.26277900
_cell_length_c   16.89801800
_cell_angle_alpha   90.00000000
_cell_angle_beta   90.00000000
_cell_angle_gamma   90.00000000
_symmetry_Int_Tables_number   1
_chemical_formula_structural   Ce2Al11Pd3
_chemical_formula_sum   'Ce2 Al11 Pd3'
_cell_volume   307.05869768
_cell_formula_units_Z   1
loop_
 _symmetry_equiv_pos_site_id
 _symmetry_equiv_pos_as_xyz
  1  'x, y, z'
loop_
 _atom_site_type_symbol
 _atom_site_label
 _atom_site_symmetry_multiplicity
 _atom_site_fract_x
 _atom_site_fract_y
 _atom_site_fract_z
 _atom_site_occupancy
  Ce  Ce0  1  0.00000000  0.00000000  0.99876700  1
  Ce  Ce1  1  0.00000000  0.00000000  0.50226000  1
  Al  Al0  1  0.50000000  0.00000000  0.33843700  1
  Al  Al1  1  0.50000000  0.00000000  0.83407700  1
  Al  Al2  1  0.00000000  0.50000000  0.33843700  1
  Al  Al3  1  0.00000000  0.50000000  0.83407700  1
  Al  Al4  1  0.50000000  0.00000000  0.16611500  1
  Al  Al5  1  0.50000000  0.00000000  0.66574200  1
  Al  Al6  1  0.00000000  0.50000000  0.16611500  1
  Al  Al7  1  0.00000000  0.50000000  0.66574200  1
  Al  Al8  1  0.50000000  0.50000000  0.92672400  1
  Al  Al9  1  0.50000000  0.50000000  0.07311800  1
  Al  Al10  1  0.50000000  0.50000000  0.56857700  1
  Pd  Pd0  1  0.00000000  0.00000000  0.24834000  1
  Pd  Pd1  1  0.00000000  0.00000000  0.75087300  1
  Pd  Pd2  1  0.50000000  0.50000000  0.42260100  1
loop_
_geom_bond_atom_site_label_1
_geom_bond_atom_site_label_2
_geom_bond_distance
_geom_bond_site_symmetry_2
Ce1 Pd2 3.301147 1_555
Ce1 Pd2 3.301147 1_445
Ce1 Pd2 3.301147 1_455
Ce1 Pd2 3.301147 1_545
Al0 Pd2 2.562321 1_545
Al0 Pd2 2.562321 1_555
Al0 Pd0 2.619295 1_655
Al0 Pd0 2.619295 1_555
Al0 Ce1 3.493740 1_555
Al0 Ce1 3.493740 1_655
Al1 Pd1 2.553352 1_555
Al1 Pd1 2.553352 1_655
Al1 Al8 2.644574 1_555
Al1 Al8 2.644574 1_545
Al1 Ce0 3.505360 1_555
Al1 Ce0 3.505360 1_655
Al2 Pd2 2.562321 1_455
Al2 Pd2 2.562321 1_555
Al2 Pd0 2.619295 1_565
Al2 Pd0 2.619295 1_555
Al2 Ce1 3.493740 1_555
Al2 Ce1 3.493740 1_565
Al3 Pd1 2.553352 1_555
Al3 Pd1 2.553352 1_565
Al3 Al8 2.644574 1_555
Al3 Al8 2.644574 1_455
Al3 Ce0 3.505360 1_565
Al3 Ce0 3.505360 1_555
Al4 Pd0 2.544281 1_555
Al4 Pd0 2.544281 1_655
Al4 Al9 2.648079 1_555
Al4 Al9 2.648079 1_545
Al4 Ce0 3.541123 1_554
Al4 Ce0 3.541123 1_654
Al5 Pd1 2.571426 1_555
Al5 Pd1 2.571426 1_655
Al5 Ce1 3.489176 1_555
Al5 Ce1 3.489176 1_655
Al6 Pd0 2.544281 1_555
Al6 Pd0 2.544281 1_565
Al6 Al9 2.648079 1_555
Al6 Al9 2.648079 1_455
Al6 Ce0 3.541123 1_554
Al6 Ce0 3.541123 1_564
Al7 Pd1 2.571426 1_555
Al7 Pd1 2.571426 1_565
Al7 Ce1 3.489176 1_555
Al7 Ce1 3.489176 1_565
Al8 Al9 2.473768 1_556
Al8 Ce0 3.250795 1_655
Al8 Ce0 3.250795 1_665
Al8 Ce0 3.250795 1_565
Al8 Ce0 3.250795 1_555
Al9 Ce0 3.265600 1_664
Al9 Ce0 3.265600 1_564
Al9 Ce0 3.265600 1_654
Al9 Ce0 3.265600 1_554
Al10 Pd2 2.466705 1_555
Al10 Ce1 3.215812 1_665
Al10 Ce1 3.215812 1_565
Al10 Ce1 3.215812 1_555
Al10 Ce1 3.215812 1_655
