# generated using pymatgen
data_InFeNi
_symmetry_space_group_name_H-M   'P 1'
_cell_length_a   4.40732353
_cell_length_b   4.40732353
_cell_length_c   5.23582200
_cell_angle_alpha   90.00000000
_cell_angle_beta   90.00000000
_cell_angle_gamma   119.99999289
_symmetry_Int_Tables_number   1
_chemical_formula_structural   InFeNi
_chemical_formula_sum   'In2 Fe2 Ni2'
_cell_volume   88.07758535
_cell_formula_units_Z   2
loop_
 _symmetry_equiv_pos_site_id
 _symmetry_equiv_pos_as_xyz
  1  'x, y, z'
loop_
 _atom_site_type_symbol
 _atom_site_label
 _atom_site_symmetry_multiplicity
 _atom_site_fract_x
 _atom_site_fract_y
 _atom_site_fract_z
 _atom_site_occupancy
  In  In0  1  0.66666700  0.33333300  0.75000000  1
  In  In1  1  0.33333300  0.66666700  0.25000000  1
  Fe  Fe0  1  0.66666700  0.33333300  0.25000000  1
  Fe  Fe1  1  0.33333300  0.66666700  0.75000000  1
  Ni  Ni0  1  0.00000000  0.00000000  0.00000000  1
  Ni  Ni1  1  0.00000000  0.00000000  0.50000000  1
loop_
_geom_bond_atom_site_label_1
_geom_bond_atom_site_label_2
_geom_bond_distance
_geom_bond_site_symmetry_2
In0 Ni1 2.861500 1_655
In0 Ni0 2.861500 1_656
In0 Ni1 2.861504 1_665
In0 Ni0 2.861504 1_666
In0 Ni0 2.861504 1_556
In0 Ni1 2.861504 1_555
In1 Ni1 2.861500 1_565
In1 Ni0 2.861500 1_565
In1 Ni0 2.861504 1_665
In1 Ni1 2.861504 1_665
In1 Ni0 2.861504 1_555
In1 Ni1 2.861504 1_555
Fe0 In1 2.544567 1_545
Fe0 In1 2.544567 1_655
Fe0 In1 2.544574 1_555
Fe0 In0 2.617911 1_555
Fe0 In0 2.617911 1_554
Fe0 Ni1 2.861500 1_655
Fe0 Ni0 2.861500 1_655
Fe0 Ni0 2.861504 1_665
Fe0 Ni1 2.861504 1_665
Fe0 Ni0 2.861504 1_555
Fe0 Ni1 2.861504 1_555
Fe1 In0 2.544567 1_455
Fe1 In0 2.544567 1_565
Fe1 In0 2.544574 1_555
Fe1 In1 2.617911 1_555
Fe1 In1 2.617911 1_556
Fe1 Ni1 2.861500 1_565
Fe1 Ni0 2.861500 1_566
Fe1 Ni1 2.861504 1_665
Fe1 Ni0 2.861504 1_666
Fe1 Ni0 2.861504 1_556
Fe1 Ni1 2.861504 1_555
Ni0 Ni1 2.617911 1_554
Ni0 Ni1 2.617911 1_555
