# generated using pymatgen
data_LiTaO3
_symmetry_space_group_name_H-M   'P 1'
_cell_length_a   4.92779300
_cell_length_b   6.41438200
_cell_length_c   8.54838500
_cell_angle_alpha   90.00000000
_cell_angle_beta   90.00000000
_cell_angle_gamma   90.00000000
_symmetry_Int_Tables_number   1
_chemical_formula_structural   LiTaO3
_chemical_formula_sum   'Li4 Ta4 O12'
_cell_volume   270.20373632
_cell_formula_units_Z   4
loop_
 _symmetry_equiv_pos_site_id
 _symmetry_equiv_pos_as_xyz
  1  'x, y, z'
loop_
 _atom_site_type_symbol
 _atom_site_label
 _atom_site_symmetry_multiplicity
 _atom_site_fract_x
 _atom_site_fract_y
 _atom_site_fract_z
 _atom_site_occupancy
  Li  Li0  1  0.00000000  0.50000000  0.00000000  1
  Li  Li1  1  0.50000000  0.00000000  0.50000000  1
  Li  Li2  1  0.00000000  0.50000000  0.50000000  1
  Li  Li3  1  0.50000000  0.00000000  0.00000000  1
  Ta  Ta0  1  0.46221400  0.68716600  0.25000000  1
  Ta  Ta1  1  0.03778600  0.18716600  0.25000000  1
  Ta  Ta2  1  0.53778600  0.31283400  0.75000000  1
  Ta  Ta3  1  0.96221400  0.81283400  0.75000000  1
  O  O0  1  0.31208500  0.96594200  0.25000000  1
  O  O1  1  0.18791500  0.46594200  0.25000000  1
  O  O2  1  0.68791500  0.03405800  0.75000000  1
  O  O3  1  0.81208500  0.53405800  0.75000000  1
  O  O4  1  0.81803500  0.18205400  0.08047100  1
  O  O5  1  0.68196500  0.68205400  0.41952900  1
  O  O6  1  0.18196500  0.81794600  0.58047100  1
  O  O7  1  0.31803500  0.31794600  0.91952900  1
  O  O8  1  0.18196500  0.81794600  0.91952900  1
  O  O9  1  0.31803500  0.31794600  0.58047100  1
  O  O10  1  0.81803500  0.18205400  0.41952900  1
  O  O11  1  0.68196500  0.68205400  0.08047100  1
loop_
_geom_bond_atom_site_label_1
_geom_bond_atom_site_label_2
_geom_bond_distance
_geom_bond_site_symmetry_2
Li0 O11 2.071961 1_455
Li0 O7 2.071961 1_554
Li0 O4 2.331633 1_455
Li0 O8 2.331633 1_554
Li0 O3 2.339315 1_454
Li0 O1 2.339315 1_555
Li1 O10 2.071961 1_555
Li1 O6 2.071961 1_545
Li1 O9 2.331633 1_555
Li1 O5 2.331633 1_545
Li1 O0 2.339315 1_545
Li1 O2 2.339315 1_555
Li2 O9 2.071961 1_555
Li2 O5 2.071961 1_455
Li2 O10 2.331633 1_455
Li2 O6 2.331633 1_555
Li2 O1 2.339315 1_555
Li2 O3 2.339315 1_455
Li3 O8 2.071961 1_544
Li3 O4 2.071961 1_555
Li3 O11 2.331633 1_545
Li3 O7 2.331633 1_554
Li3 O2 2.339315 1_554
Li3 O0 2.339315 1_545
O0 Ta0 1.935170 1_555
O0 Ta1 1.959762 1_565
O1 Ta1 1.935170 1_555
O1 Ta0 1.959762 1_555
O2 Ta2 1.935170 1_555
O2 Ta3 1.959762 1_545
O3 Ta3 1.935170 1_555
O3 Ta2 1.959762 1_555
O4 Ta1 1.809392 1_655
O5 Ta0 1.809392 1_555
O6 Ta3 1.809392 1_455
O7 Ta2 1.809392 1_555
O8 Ta3 1.809392 1_455
O9 Ta2 1.809392 1_555
O10 Ta1 1.809392 1_655
O11 Ta0 1.809392 1_555
