# generated using pymatgen
data_CaMg6Cu
_symmetry_space_group_name_H-M   'P 1'
_cell_length_a   4.97253200
_cell_length_b   6.29336000
_cell_length_c   11.84422500
_cell_angle_alpha   90.00000000
_cell_angle_beta   90.00000000
_cell_angle_gamma   90.00000000
_symmetry_Int_Tables_number   1
_chemical_formula_structural   CaMg6Cu
_chemical_formula_sum   'Ca2 Mg12 Cu2'
_cell_volume   370.65239528
_cell_formula_units_Z   2
loop_
 _symmetry_equiv_pos_site_id
 _symmetry_equiv_pos_as_xyz
  1  'x, y, z'
loop_
 _atom_site_type_symbol
 _atom_site_label
 _atom_site_symmetry_multiplicity
 _atom_site_fract_x
 _atom_site_fract_y
 _atom_site_fract_z
 _atom_site_occupancy
  Ca  Ca0  1  0.00000000  0.50000000  0.31044600  1
  Ca  Ca1  1  0.00000000  0.00000000  0.81044600  1
  Mg  Mg0  1  0.00000000  0.74597900  0.07713200  1
  Mg  Mg1  1  0.00000000  0.25402100  0.07713200  1
  Mg  Mg2  1  0.00000000  0.00000000  0.34085300  1
  Mg  Mg3  1  0.50000000  0.24350200  0.43617700  1
  Mg  Mg4  1  0.50000000  0.75649800  0.43617700  1
  Mg  Mg5  1  0.50000000  0.00000000  0.18284600  1
  Mg  Mg6  1  0.00000000  0.24597900  0.57713200  1
  Mg  Mg7  1  0.00000000  0.75402100  0.57713200  1
  Mg  Mg8  1  0.00000000  0.50000000  0.84085300  1
  Mg  Mg9  1  0.50000000  0.74350200  0.93617700  1
  Mg  Mg10  1  0.50000000  0.25649800  0.93617700  1
  Mg  Mg11  1  0.50000000  0.50000000  0.68284600  1
  Cu  Cu0  1  0.50000000  0.50000000  0.13923700  1
  Cu  Cu1  1  0.50000000  0.00000000  0.63923700  1
loop_
_geom_bond_atom_site_label_1
_geom_bond_atom_site_label_2
_geom_bond_distance
_geom_bond_site_symmetry_2
Ca0 Mg2 3.167223 1_565
Ca0 Mg2 3.167223 1_555
Ca0 Mg1 3.167478 1_555
Ca0 Mg0 3.167478 1_555
Ca0 Cu0 3.208371 1_555
Ca0 Cu0 3.208371 1_455
Ca0 Mg4 3.317370 1_555
Ca0 Mg3 3.317370 1_555
Ca0 Mg3 3.317370 1_455
Ca0 Mg4 3.317370 1_455
Ca0 Mg6 3.540195 1_555
Ca0 Mg7 3.540195 1_555
Ca1 Mg8 3.167223 1_555
Ca1 Mg8 3.167223 1_545
Ca1 Mg7 3.167478 1_545
Ca1 Mg6 3.167478 1_555
Ca1 Cu1 3.208371 1_555
Ca1 Cu1 3.208371 1_455
Ca1 Mg9 3.317370 1_545
Ca1 Mg9 3.317370 1_445
Ca1 Mg10 3.317370 1_555
Ca1 Mg10 3.317370 1_455
Ca1 Mg0 3.540195 1_546
Ca1 Mg1 3.540195 1_556
Mg0 Mg5 3.210131 1_565
Mg0 Mg5 3.210131 1_465
Mg1 Mg5 3.210131 1_555
Mg1 Mg5 3.210131 1_455
Mg2 Mg5 3.111900 1_455
Mg2 Mg5 3.111900 1_555
Mg3 Mg5 3.369191 1_555
Mg4 Mg5 3.369191 1_565
Mg5 Mg9 3.337891 1_544
Mg10 Mg5 3.337891 1_556
Mg10 Mg11 3.369191 1_555
Mg11 Mg8 3.111900 1_555
Mg11 Mg8 3.111900 1_655
Mg11 Mg7 3.210131 1_655
Mg11 Mg6 3.210131 1_555
Mg11 Mg6 3.210131 1_655
Mg11 Mg7 3.210131 1_555
Mg11 Mg4 3.337891 1_555
Mg11 Mg3 3.337891 1_555
Mg11 Mg9 3.369191 1_555
Cu0 Mg9 2.851813 1_554
Cu0 Mg10 2.851813 1_554
Cu0 Mg1 3.019771 1_555
Cu0 Mg1 3.019771 1_655
Cu0 Mg0 3.019771 1_555
Cu0 Mg0 3.019771 1_655
Cu0 Mg5 3.188790 1_565
Cu0 Mg5 3.188790 1_555
Cu1 Mg4 2.851813 1_545
Cu1 Mg3 2.851813 1_555
Cu1 Mg7 3.019771 1_545
Cu1 Mg7 3.019771 1_645
Cu1 Mg6 3.019771 1_655
Cu1 Mg6 3.019771 1_555
Cu1 Mg11 3.188790 1_555
Cu1 Mg11 3.188790 1_545
