# generated using pymatgen
data_MnTc2As
_symmetry_space_group_name_H-M   'P 1'
_cell_length_a   4.24556669
_cell_length_b   4.24556669
_cell_length_c   4.24556669
_cell_angle_alpha   60.00000000
_cell_angle_beta   60.00000000
_cell_angle_gamma   60.00000000
_symmetry_Int_Tables_number   1
_chemical_formula_structural   MnTc2As
_chemical_formula_sum   'Mn1 Tc2 As1'
_cell_volume   54.11180307
_cell_formula_units_Z   1
loop_
 _symmetry_equiv_pos_site_id
 _symmetry_equiv_pos_as_xyz
  1  'x, y, z'
loop_
 _atom_site_type_symbol
 _atom_site_label
 _atom_site_symmetry_multiplicity
 _atom_site_fract_x
 _atom_site_fract_y
 _atom_site_fract_z
 _atom_site_occupancy
  Mn  Mn0  1  0.00000000  0.00000000  0.00000000  1
  Tc  Tc0  1  0.25000000  0.25000000  0.25000000  1
  Tc  Tc1  1  0.75000000  0.75000000  0.75000000  1
  As  As0  1  0.50000000  0.50000000  0.50000000  1
loop_
_geom_bond_atom_site_label_1
_geom_bond_atom_site_label_2
_geom_bond_distance
_geom_bond_site_symmetry_2
Mn0 Tc1 2.599868 1_454
Mn0 Tc0 2.599868 1_554
Mn0 Tc0 2.599868 1_555
Mn0 Tc0 2.599868 1_545
Mn0 Tc0 2.599868 1_455
Mn0 Tc1 2.599868 1_544
Mn0 Tc1 2.599868 1_444
Mn0 Tc1 2.599868 1_445
As0 Tc1 2.599868 1_455
As0 Tc1 2.599868 1_554
As0 Tc0 2.599868 1_565
As0 Tc0 2.599868 1_655
As0 Tc1 2.599868 1_555
As0 Tc1 2.599868 1_545
As0 Tc0 2.599868 1_555
As0 Tc0 2.599868 1_556
As0 Mn0 3.002069 1_565
As0 Mn0 3.002069 1_566
As0 Mn0 3.002069 1_655
As0 Mn0 3.002069 1_665
As0 Mn0 3.002069 1_656
As0 Mn0 3.002069 1_556
