# generated using pymatgen
data_DyMn2
_symmetry_space_group_name_H-M   'P 1'
_cell_length_a   5.01311200
_cell_length_b   5.01661951
_cell_length_c   8.71844600
_cell_angle_alpha   90.00000000
_cell_angle_beta   90.00000000
_cell_angle_gamma   119.97687405
_symmetry_Int_Tables_number   1
_chemical_formula_structural   DyMn2
_chemical_formula_sum   'Dy4 Mn8'
_cell_volume   189.92819540
_cell_formula_units_Z   4
loop_
 _symmetry_equiv_pos_site_id
 _symmetry_equiv_pos_as_xyz
  1  'x, y, z'
loop_
 _atom_site_type_symbol
 _atom_site_label
 _atom_site_symmetry_multiplicity
 _atom_site_fract_x
 _atom_site_fract_y
 _atom_site_fract_z
 _atom_site_occupancy
  Dy  Dy0  1  0.33334300  0.66668600  0.43494900  1
  Dy  Dy1  1  0.66665700  0.33331400  0.56505100  1
  Dy  Dy2  1  0.66665700  0.33331400  0.93494900  1
  Dy  Dy3  1  0.33334300  0.66668600  0.06505100  1
  Mn  Mn0  1  0.00000000  0.00000000  0.50000000  1
  Mn  Mn1  1  0.00000000  0.00000000  0.00000000  1
  Mn  Mn2  1  0.83060300  0.16872400  0.25000000  1
  Mn  Mn3  1  0.83120900  0.66241800  0.25000000  1
  Mn  Mn4  1  0.33812100  0.16872400  0.25000000  1
  Mn  Mn5  1  0.16939700  0.83127600  0.75000000  1
  Mn  Mn6  1  0.16879100  0.33758200  0.75000000  1
  Mn  Mn7  1  0.66187900  0.83127600  0.75000000  1
loop_
_geom_bond_atom_site_label_1
_geom_bond_atom_site_label_2
_geom_bond_distance
_geom_bond_site_symmetry_2
Dy0 Mn0 2.949986 1_565
Dy0 Mn0 2.949986 1_665
Dy0 Mn0 2.952096 1_555
Dy0 Mn3 2.980473 1_555
Dy0 Mn3 2.980473 1_455
Dy0 Mn2 2.980496 1_565
Dy0 Mn4 2.980496 1_565
Dy0 Mn4 2.983430 1_555
Dy0 Mn2 2.983430 1_455
Dy0 Mn7 3.095165 1_555
Dy0 Mn5 3.095165 1_555
Dy0 Mn6 3.096763 1_555
Dy0 Dy1 3.109357 1_455
Dy0 Dy1 3.109357 1_555
Dy0 Dy1 3.111007 1_565
Dy0 Dy3 3.224936 1_555
Dy1 Mn0 2.949986 1_655
Dy1 Mn0 2.949986 1_555
Dy1 Mn0 2.952096 1_665
Dy1 Mn6 2.980473 1_655
Dy1 Mn6 2.980473 1_555
Dy1 Mn7 2.980496 1_545
Dy1 Mn5 2.980496 1_545
Dy1 Mn5 2.983430 1_655
Dy1 Mn7 2.983430 1_555
Dy1 Mn4 3.095165 1_555
Dy1 Mn2 3.095165 1_555
Dy1 Mn3 3.096763 1_555
Dy1 Dy2 3.224936 1_555
Dy2 Mn1 2.949986 1_656
Dy2 Mn1 2.949986 1_556
Dy2 Mn1 2.952096 1_666
Dy2 Mn6 2.980473 1_655
Dy2 Mn6 2.980473 1_555
Dy2 Mn7 2.980496 1_545
Dy2 Mn5 2.980496 1_545
Dy2 Mn5 2.983430 1_655
Dy2 Mn7 2.983430 1_555
Dy2 Mn4 3.095165 1_556
Dy2 Mn2 3.095165 1_556
Dy2 Mn3 3.096763 1_556
Dy2 Dy3 3.109357 1_656
Dy2 Dy3 3.109357 1_556
Dy2 Dy3 3.111007 1_546
Dy3 Mn1 2.949986 1_565
Dy3 Mn1 2.949986 1_665
Dy3 Mn1 2.952096 1_555
Dy3 Mn3 2.980473 1_555
Dy3 Mn3 2.980473 1_455
Dy3 Mn2 2.980496 1_565
Dy3 Mn4 2.980496 1_565
Dy3 Mn4 2.983430 1_555
Dy3 Mn2 2.983430 1_455
Dy3 Mn7 3.095165 1_554
Dy3 Mn5 3.095165 1_554
Dy3 Mn6 3.096763 1_554
Mn0 Mn6 2.627302 1_555
Mn0 Mn3 2.627302 1_445
Mn0 Mn5 2.628037 1_545
Mn0 Mn4 2.628037 1_555
Mn0 Mn7 2.628037 1_445
Mn0 Mn2 2.628037 1_455
Mn1 Mn3 2.627302 1_445
Mn1 Mn6 2.627302 1_554
Mn1 Mn4 2.628037 1_555
Mn1 Mn7 2.628037 1_444
Mn1 Mn2 2.628037 1_455
Mn1 Mn5 2.628037 1_544
Mn2 Mn4 2.468867 1_555
Mn2 Mn3 2.475158 1_555
Mn2 Mn3 2.541464 1_545
Mn2 Mn4 2.544245 1_655
Mn3 Mn4 2.475158 1_555
Mn3 Mn4 2.541464 1_665
Mn5 Mn7 2.468867 1_555
Mn5 Mn6 2.475158 1_555
Mn5 Mn6 2.541464 1_565
Mn5 Mn7 2.544245 1_455
Mn6 Mn7 2.475158 1_555
Mn6 Mn7 2.541464 1_445
