# generated using pymatgen
data_Na5NiCO5
_symmetry_space_group_name_H-M   'P 1'
_cell_length_a   6.62045013
_cell_length_b   6.62013834
_cell_length_c   17.60280165
_cell_angle_alpha   80.12394481
_cell_angle_beta   80.12370171
_cell_angle_gamma   95.08481587
_symmetry_Int_Tables_number   1
_chemical_formula_structural   Na5NiCO5
_chemical_formula_sum   'Na20 Ni4 C4 O20'
_cell_volume   743.24481528
_cell_formula_units_Z   4
loop_
 _symmetry_equiv_pos_site_id
 _symmetry_equiv_pos_as_xyz
  1  'x, y, z'
loop_
 _atom_site_type_symbol
 _atom_site_label
 _atom_site_symmetry_multiplicity
 _atom_site_fract_x
 _atom_site_fract_y
 _atom_site_fract_z
 _atom_site_occupancy
  Na  Na0  1  0.10940000  0.14027300  0.74999200  1
  Na  Na1  1  0.85979900  0.89061500  0.24999900  1
  Na  Na2  1  0.60938300  0.64026900  0.74999600  1
  Na  Na3  1  0.35974700  0.39068800  0.24999400  1
  Na  Na4  1  0.80921900  0.81468500  0.87604900  1
  Na  Na5  1  0.55933800  0.56470000  0.37607200  1
  Na  Na6  1  0.30922300  0.31466100  0.87604000  1
  Na  Na7  1  0.05938300  0.06475100  0.37607200  1
  Na  Na8  1  0.93538300  0.94071900  0.62391900  1
  Na  Na9  1  0.68524100  0.69069400  0.12394300  1
  Na  Na10  1  0.43540200  0.44076100  0.62391600  1
  Na  Na11  1  0.18526600  0.19069600  0.12395200  1
  Na  Na12  1  0.80692800  0.30378500  0.88936500  1
  Na  Na13  1  0.55686100  0.05364400  0.38933600  1
  Na  Na14  1  0.30702100  0.80379000  0.88937300  1
  Na  Na15  1  0.05689000  0.55357700  0.38935900  1
  Na  Na16  1  0.94641900  0.44319900  0.61061900  1
  Na  Na17  1  0.69612800  0.19292100  0.11063300  1
  Na  Na18  1  0.44646000  0.94315000  0.61063100  1
  Na  Na19  1  0.19616800  0.69299900  0.11062600  1
  Ni  Ni0  1  0.50243300  0.49698900  0.00012100  1
  Ni  Ni1  1  0.25279400  0.24760600  0.50016400  1
  Ni  Ni2  1  0.75235200  0.74743500  0.49993100  1
  Ni  Ni3  1  0.00250800  0.99736000  0.99993300  1
  C  C0  1  0.58969200  0.16053400  0.74997900  1
  C  C1  1  0.33947400  0.91032500  0.25000400  1
  C  C2  1  0.08967800  0.66050100  0.74998400  1
  C  C3  1  0.83952800  0.41035300  0.24999700  1
  O  O0  1  0.45592700  0.29353300  0.74997800  1
  O  O1  1  0.20663200  0.04420400  0.25000600  1
  O  O2  1  0.95585600  0.79346400  0.74998700  1
  O  O3  1  0.70644400  0.54402700  0.25000200  1
  O  O4  1  0.55566400  0.54970600  0.89452100  1
  O  O5  1  0.30589900  0.29971000  0.39459800  1
  O  O6  1  0.05570600  0.04980500  0.89442100  1
  O  O7  1  0.80587400  0.79987900  0.39438600  1
  O  O8  1  0.70027700  0.69425200  0.60547700  1
  O  O9  1  0.45013700  0.44413100  0.10561500  1
  O  O10  1  0.20028300  0.19410000  0.60568700  1
  O  O11  1  0.95015600  0.94425300  0.10551600  1
  O  O12  1  0.62141500  0.06237600  0.81687800  1
  O  O13  1  0.37091800  0.81177800  0.31687800  1
  O  O14  1  0.12142100  0.56237600  0.81688700  1
  O  O15  1  0.87109200  0.31195400  0.31687700  1
  O  O16  1  0.68827000  0.12919200  0.68307000  1
  O  O17  1  0.43745400  0.87843200  0.18306900  1
  O  O18  1  0.18826200  0.62918600  0.68308000  1
  O  O19  1  0.93759000  0.37856600  0.18307000  1
loop_
_geom_bond_atom_site_label_1
_geom_bond_atom_site_label_2
_geom_bond_distance
_geom_bond_site_symmetry_2
Na0 O0 2.424815 1_555
Na0 O2 2.427137 1_445
Na0 O10 2.463467 1_555
Na0 O6 2.465470 1_555
Na1 O3 2.425355 1_555
Na1 O1 2.427472 1_665
Na1 O7 2.464770 1_555
Na1 O11 2.466370 1_555
Na2 O2 2.424366 1_555
Na2 O0 2.426556 1_555
Na2 O8 2.467048 1_555
Na2 O4 2.467125 1_555
Na3 O1 2.424161 1_555
Na3 O3 2.426103 1_555
Na3 O9 2.464686 1_555
Na3 O5 2.468568 1_555
Na4 O6 2.256940 1_665
Na4 O4 2.257413 1_555
Na4 O2 2.297491 1_555
Na4 O12 2.353580 1_565
Na5 O5 2.256853 1_555
Na5 O7 2.257024 1_555
Na5 O3 2.297479 1_555
Na5 O13 2.353761 1_555
Na6 O6 2.256878 1_555
Na6 O4 2.257149 1_555
Na6 O0 2.297445 1_555
Na6 O14 2.353546 1_555
Na7 O7 2.257055 1_445
Na7 O5 2.257426 1_555
Na7 O1 2.297446 1_555
Na7 O15 2.353749 1_455
Na8 O10 2.256808 1_665
Na8 O8 2.257260 1_555
Na8 O2 2.297353 1_555
Na8 O16 2.353843 1_565
Na9 O9 2.256913 1_555
Na9 O11 2.257238 1_555
Na9 O3 2.297458 1_555
Na9 O17 2.353393 1_555
Na10 O8 2.256738 1_555
Na10 O10 2.256753 1_555
Na10 O0 2.297301 1_555
Na10 O18 2.353844 1_555
Na11 O9 2.256690 1_555
Na11 O11 2.257127 1_445
Na11 O1 2.297360 1_555
Na11 O19 2.353426 1_455
Na12 O4 2.429988 1_555
Na12 O6 2.457130 1_655
Na12 O12 2.565119 1_555
Na12 O14 2.569268 1_655
Na13 O5 2.429288 1_555
Na13 O7 2.457224 1_545
Na13 O15 2.567084 1_555
Na13 O13 2.568233 1_545
Na14 O6 2.430630 1_565
Na14 O4 2.457034 1_555
Na14 O14 2.565422 1_555
Na14 O12 2.568887 1_565
Na15 O7 2.430559 1_455
Na15 O5 2.457818 1_555
Na15 O13 2.565916 1_555
Na15 O15 2.566962 1_455
Na16 O8 2.430028 1_555
Na16 O10 2.458058 1_655
Na16 O16 2.565496 1_555
Na16 O18 2.568337 1_655
Na17 O9 2.429982 1_555
Na17 O11 2.456865 1_545
Na17 O19 2.565215 1_555
Na17 O17 2.569327 1_545
Na18 O10 2.429577 1_565
Na18 O8 2.456980 1_555
Na18 O18 2.565463 1_555
Na18 O16 2.568112 1_565
Na19 O11 2.430355 1_455
Na19 O9 2.457489 1_555
Na19 O17 2.563797 1_555
Na19 O19 2.568790 1_455
Ni0 O9 1.796050 1_555
Ni0 O4 1.797853 1_554
Ni1 O10 1.796548 1_555
Ni1 O5 1.797280 1_555
Ni2 O7 1.796923 1_555
Ni2 O8 1.796941 1_555
Ni3 O6 1.796357 1_565
Ni3 O11 1.797566 1_456
C0 O0 1.302961 1_555
C0 O12 1.303714 1_555
C0 O16 1.303958 1_555
C1 O1 1.302754 1_565
C1 O13 1.303602 1_555
C1 O17 1.304239 1_555
C2 O2 1.303064 1_455
C2 O14 1.303743 1_555
C2 O18 1.303834 1_555
C3 O3 1.302929 1_555
C3 O15 1.303625 1_555
C3 O19 1.304061 1_555
