# generated using pymatgen
data_Eu2Ga7Ag
_symmetry_space_group_name_H-M   'P 1'
_cell_length_a   4.32261771
_cell_length_b   4.32263381
_cell_length_c   10.81187573
_cell_angle_alpha   90.00000000
_cell_angle_beta   90.00000000
_cell_angle_gamma   90.00000000
_symmetry_Int_Tables_number   1
_chemical_formula_structural   Eu2Ga7Ag
_chemical_formula_sum   'Eu2 Ga7 Ag1'
_cell_volume   202.02090850
_cell_formula_units_Z   1
loop_
 _symmetry_equiv_pos_site_id
 _symmetry_equiv_pos_as_xyz
  1  'x, y, z'
loop_
 _atom_site_type_symbol
 _atom_site_label
 _atom_site_symmetry_multiplicity
 _atom_site_fract_x
 _atom_site_fract_y
 _atom_site_fract_z
 _atom_site_occupancy
  Eu  Eu0  1  0.50000000  0.00000000  0.74522918  1
  Eu  Eu1  1  -0.00000000  0.50000000  0.25477937  1
  Ga  Ga0  1  -0.00000000  0.50000000  0.86344594  1
  Ga  Ga1  1  0.50000000  0.00000000  0.36590923  1
  Ga  Ga2  1  0.50000000  -0.00000000  0.13658012  1
  Ga  Ga3  1  -0.00000000  0.50000000  0.63407134  1
  Ga  Ga4  1  -0.00000000  0.00000000  0.49997610  1
  Ga  Ga5  1  0.00000000  0.00000000  0.00004330  1
  Ga  Ga6  1  0.50000000  0.50000000  0.49997151  1
  Ag  Ag0  1  0.50000000  0.50000000  -0.00000508  1
loop_
_geom_bond_atom_site_label_1
_geom_bond_atom_site_label_2
_geom_bond_distance
_geom_bond_site_symmetry_2
Eu0 Ga3 3.284346 1_645
Eu0 Ga3 3.284346 1_655
Eu0 Ga3 3.284346 1_545
Eu0 Ga3 3.284346 1_555
Eu0 Ga0 3.313035 1_545
Eu0 Ga0 3.313035 1_555
Eu0 Ga0 3.313035 1_645
Eu0 Ga0 3.313035 1_655
Eu0 Ga4 3.420889 1_655
Eu0 Ga4 3.420889 1_555
Eu0 Ga6 3.420933 1_555
Eu0 Ga6 3.420933 1_545
Eu0 Ga5 3.501626 1_556
Eu0 Ga5 3.501626 1_656
Eu1 Ga1 3.284235 1_565
Eu1 Ga1 3.284235 1_465
Eu1 Ga1 3.284235 1_455
Eu1 Ga1 3.284235 1_555
Eu1 Ga2 3.312962 1_465
Eu1 Ga2 3.312962 1_455
Eu1 Ga2 3.312962 1_565
Eu1 Ga2 3.312962 1_555
Eu1 Ga6 3.420378 1_455
Eu1 Ga6 3.420378 1_555
Eu1 Ga4 3.420422 1_565
Eu1 Ga4 3.420422 1_555
Eu1 Ga5 3.500967 1_565
Eu1 Ga5 3.500967 1_555
Ga0 Ga3 2.479970 1_555
Ga0 Ga5 2.617718 1_566
Ga0 Ga5 2.617718 1_556
Ga1 Ga2 2.479478 1_555
Ga1 Ga6 2.602353 1_555
Ga1 Ga6 2.602353 1_545
Ga1 Ga4 2.602373 1_555
Ga1 Ga4 2.602373 1_655
Ga2 Ga5 2.617342 1_655
Ga2 Ga5 2.617342 1_555
Ga3 Ga4 2.602551 1_565
Ga3 Ga4 2.602551 1_555
Ga3 Ga6 2.602572 1_455
Ga3 Ga6 2.602572 1_555
Ga4 Ga6 3.056558 1_545
Ga4 Ga6 3.056558 1_555
Ga4 Ga6 3.056558 1_445
Ga4 Ga6 3.056558 1_455
Ag0 Ga0 2.617416 1_554
Ag0 Ga0 2.617416 1_654
Ag0 Ga2 2.617644 1_555
Ag0 Ga2 2.617644 1_565
Ag0 Ga5 3.056558 1_555
Ag0 Ga5 3.056558 1_655
Ag0 Ga5 3.056558 1_565
Ag0 Ga5 3.056558 1_665
Ag0 Eu0 3.501219 1_564
Ag0 Eu0 3.501219 1_554
Ag0 Eu1 3.501373 1_555
Ag0 Eu1 3.501373 1_655
