# generated using pymatgen
data_SrSmB12
_symmetry_space_group_name_H-M   'P 1'
_cell_length_a   4.14424018
_cell_length_b   4.14424018
_cell_length_c   8.29908583
_cell_angle_alpha   90.00000000
_cell_angle_beta   90.00000000
_cell_angle_gamma   90.00000000
_symmetry_Int_Tables_number   1
_chemical_formula_structural   SrSmB12
_chemical_formula_sum   'Sr1 Sm1 B12'
_cell_volume   142.53453074
_cell_formula_units_Z   1
loop_
 _symmetry_equiv_pos_site_id
 _symmetry_equiv_pos_as_xyz
  1  'x, y, z'
loop_
 _atom_site_type_symbol
 _atom_site_label
 _atom_site_symmetry_multiplicity
 _atom_site_fract_x
 _atom_site_fract_y
 _atom_site_fract_z
 _atom_site_occupancy
  Sr  Sr0  1  0.00000000  -0.00000000  0.50000000  1
  Sm  Sm0  1  -0.00000000  -0.00000000  -0.00000000  1
  B  B0  1  0.20094463  0.50000000  0.24780969  1
  B  B1  1  0.20094463  0.50000000  0.75219031  1
  B  B2  1  0.50000000  0.50000000  0.39811115  1
  B  B3  1  0.50000000  0.50000000  0.90074564  1
  B  B4  1  0.50000000  0.20094463  0.24780969  1
  B  B5  1  0.50000000  0.20094463  0.75219031  1
  B  B6  1  0.50000000  0.50000000  0.09925436  1
  B  B7  1  0.50000000  0.50000000  0.60188885  1
  B  B8  1  0.50000000  0.79905537  0.24780969  1
  B  B9  1  0.50000000  0.79905537  0.75219031  1
  B  B10  1  0.79905537  0.50000000  0.24780969  1
  B  B11  1  0.79905537  0.50000000  0.75219031  1
loop_
_geom_bond_atom_site_label_1
_geom_bond_atom_site_label_2
_geom_bond_distance
_geom_bond_site_symmetry_2
B0 B10 1.665526 1_455
B0 B6 1.748137 1_555
B0 B4 1.752716 1_555
B0 B8 1.752716 1_555
B0 B2 1.758387 1_555
B0 Sm0 3.035911 1_555
B0 Sm0 3.035911 1_565
B0 Sr0 3.060655 1_565
B0 Sr0 3.060655 1_555
B1 B11 1.665526 1_455
B1 B3 1.748137 1_555
B1 B5 1.752716 1_555
B1 B9 1.752716 1_555
B1 B7 1.758387 1_555
B1 Sm0 3.035911 1_556
B1 Sm0 3.035911 1_566
B1 Sr0 3.060655 1_565
B1 Sr0 3.060655 1_555
B2 B7 1.691169 1_555
B2 B4 1.758387 1_555
B2 B8 1.758387 1_555
B2 Sr0 3.049980 1_565
B2 Sr0 3.049980 1_665
B2 Sr0 3.049980 1_655
B2 Sr0 3.049980 1_555
B3 B6 1.647441 1_556
B3 B5 1.748137 1_555
B3 B9 1.748137 1_555
B3 Sm0 3.043991 1_656
B3 Sm0 3.043991 1_666
B3 Sm0 3.043991 1_556
B3 Sm0 3.043991 1_566
B4 B8 1.665526 1_545
B4 B6 1.748137 1_555
B4 Sm0 3.035911 1_555
B4 Sm0 3.035911 1_655
B4 Sr0 3.060655 1_655
B4 Sr0 3.060655 1_555
B5 B9 1.665526 1_545
B5 B7 1.758387 1_555
B5 Sm0 3.035911 1_656
B5 Sm0 3.035911 1_556
B5 Sr0 3.060655 1_655
B5 Sr0 3.060655 1_555
B6 B8 1.748137 1_555
B6 Sm0 3.043991 1_665
B6 Sm0 3.043991 1_555
B6 Sm0 3.043991 1_565
B6 Sm0 3.043991 1_655
B7 B9 1.758387 1_555
B7 Sr0 3.049980 1_555
B7 Sr0 3.049980 1_565
B7 Sr0 3.049980 1_665
B7 Sr0 3.049980 1_655
B8 Sm0 3.035911 1_665
B8 Sm0 3.035911 1_565
B8 Sr0 3.060655 1_565
B8 Sr0 3.060655 1_665
B9 Sm0 3.035911 1_666
B9 Sm0 3.035911 1_566
B9 Sr0 3.060655 1_565
B9 Sr0 3.060655 1_665
B10 B6 1.748137 1_555
B10 B4 1.752716 1_555
B10 B8 1.752716 1_555
B10 B2 1.758387 1_555
B10 Sm0 3.035911 1_665
B10 Sm0 3.035911 1_655
B10 Sr0 3.060655 1_665
B10 Sr0 3.060655 1_655
B11 B3 1.748137 1_555
B11 B5 1.752716 1_555
B11 B9 1.752716 1_555
B11 B7 1.758387 1_555
B11 Sm0 3.035911 1_656
B11 Sm0 3.035911 1_666
B11 Sr0 3.060655 1_665
B11 Sr0 3.060655 1_655
