# generated using pymatgen
data_CaTl4(NiO3)4
_symmetry_space_group_name_H-M   'P 1'
_cell_length_a   5.59247290
_cell_length_b   5.68950053
_cell_length_c   8.81907581
_cell_angle_alpha   96.64626158
_cell_angle_beta   82.89995007
_cell_angle_gamma   99.40568443
_symmetry_Int_Tables_number   1
_chemical_formula_structural   CaTl4(NiO3)4
_chemical_formula_sum   'Ca1 Tl4 Ni4 O12'
_cell_volume   273.40205534
_cell_formula_units_Z   1
loop_
 _symmetry_equiv_pos_site_id
 _symmetry_equiv_pos_as_xyz
  1  'x, y, z'
loop_
 _atom_site_type_symbol
 _atom_site_label
 _atom_site_symmetry_multiplicity
 _atom_site_fract_x
 _atom_site_fract_y
 _atom_site_fract_z
 _atom_site_occupancy
  Ca  Ca0  1  0.11277700  0.81556800  0.38622900  1
  Tl  Tl0  1  0.49361600  0.60337000  0.15192300  1
  Tl  Tl1  1  0.00651700  0.94184500  0.80240100  1
  Tl  Tl2  1  0.49987100  0.43279400  0.73840100  1
  Tl  Tl3  1  0.81198100  0.14360000  0.23952900  1
  Ni  Ni0  1  0.47771600  0.03027500  0.97888600  1
  Ni  Ni1  1  0.55208600  0.94156800  0.55498600  1
  Ni  Ni2  1  0.05336400  0.38118200  0.58080600  1
  Ni  Ni3  1  0.01761600  0.51939900  0.99273800  1
  O  O0  1  0.74891700  0.23776600  0.50144900  1
  O  O1  1  0.69453300  0.31718800  0.04780700  1
  O  O2  1  0.22199200  0.10449500  0.58635600  1
  O  O3  1  0.70358700  0.79789900  0.37281800  1
  O  O4  1  0.84686200  0.83014400  0.04821200  1
  O  O5  1  0.38676300  0.98698800  0.19567600  1
  O  O6  1  0.22801500  0.24067600  0.91983000  1
  O  O7  1  0.63202600  0.04545300  0.76951500  1
  O  O8  1  0.89564300  0.54981600  0.76025400  1
  O  O9  1  0.33511100  0.71132500  0.92643400  1
  O  O10  1  0.09631300  0.47767500  0.21969600  1
  O  O11  1  0.33469400  0.64097200  0.57605400  1
loop_
_geom_bond_atom_site_label_1
_geom_bond_atom_site_label_2
_geom_bond_distance
_geom_bond_site_symmetry_2
Ca0 O10 2.276677 1_555
Ca0 O3 2.291235 1_455
Ca0 O5 2.318945 1_555
Ca0 O2 2.336028 1_565
Ca0 O11 2.575083 1_555
Ni0 O9 1.888621 1_545
Ni0 O7 1.944283 1_555
Ni0 O5 1.949959 1_546
Ni0 O1 1.951918 1_556
Ni0 O6 2.127156 1_555
Ni1 O3 1.884918 1_555
Ni1 O0 1.929759 1_565
Ni1 O11 1.943099 1_555
Ni1 O7 1.998137 1_565
Ni1 O2 2.171954 1_565
Ni2 O0 1.939789 1_455
Ni2 O8 1.945023 1_455
Ni2 O2 1.970874 1_555
Ni2 O11 1.974788 1_555
Ni3 O9 1.986057 1_555
Ni3 O1 2.014224 1_456
Ni3 O6 2.121203 1_555
Ni3 O4 2.124413 1_456
Ni3 O10 2.148998 1_556
Ni3 O8 2.272753 1_455
O0 Tl3 2.306714 1_555
O0 Tl2 2.605152 1_555
O1 Tl0 2.180282 1_555
O1 Tl3 2.266887 1_555
O2 Tl1 2.326970 1_545
O2 Tl2 2.586218 1_555
O3 Tl3 2.363711 1_565
O3 Tl0 2.457743 1_555
O4 Tl0 2.323215 1_555
O4 Tl3 2.324046 1_565
O4 Tl1 2.357017 1_654
O5 Tl0 2.333249 1_555
O5 Tl3 2.460391 1_565
O6 Tl1 2.172278 1_545
O6 Tl2 2.307957 1_555
O7 Tl1 2.326169 1_645
O7 Tl2 2.490104 1_555
O8 Tl1 2.215980 1_655
O8 Tl2 2.230115 1_555
O9 Tl2 2.366730 1_555
O9 Tl0 2.452350 1_556
O10 Tl0 2.248740 1_555
O10 Tl3 2.278630 1_455
O11 Tl2 2.320170 1_555
