# generated using pymatgen
data_Li2Mn3CoO8
_symmetry_space_group_name_H-M   'P 1'
_cell_length_a   6.00550714
_cell_length_b   6.00539346
_cell_length_c   9.92633429
_cell_angle_alpha   106.42704790
_cell_angle_beta   90.09629419
_cell_angle_gamma   121.98940004
_symmetry_Int_Tables_number   1
_chemical_formula_structural   Li2Mn3CoO8
_chemical_formula_sum   'Li4 Mn6 Co2 O16'
_cell_volume   286.14572496
_cell_formula_units_Z   2
loop_
 _symmetry_equiv_pos_site_id
 _symmetry_equiv_pos_as_xyz
  1  'x, y, z'
loop_
 _atom_site_type_symbol
 _atom_site_label
 _atom_site_symmetry_multiplicity
 _atom_site_fract_x
 _atom_site_fract_y
 _atom_site_fract_z
 _atom_site_occupancy
  Li  Li0  1  0.06685200  0.11526900  0.18210800  1
  Li  Li1  1  0.56703900  0.11535100  0.68233500  1
  Li  Li2  1  0.43314500  0.88475100  0.31790100  1
  Li  Li3  1  0.93299400  0.88463900  0.81769300  1
  Mn  Mn0  1  0.49999100  0.50012400  0.00018700  1
  Mn  Mn1  1  0.50007400  0.00023500  0.00013100  1
  Mn  Mn2  1  0.99987300  0.50005600  0.00012800  1
  Mn  Mn3  1  0.99998700  0.49991400  0.49982600  1
  Mn  Mn4  1  0.99989100  0.99970600  0.49984800  1
  Mn  Mn5  1  0.50016400  0.49995500  0.49984500  1
  Co  Co0  1  0.25000300  0.49999000  0.75000100  1
  Co  Co1  1  0.74999900  0.49999700  0.24999900  1
  O  O0  1  0.14540100  0.24183400  0.38720100  1
  O  O1  1  0.64536500  0.24202500  0.88739800  1
  O  O2  1  0.35457600  0.75817300  0.11279100  1
  O  O3  1  0.85462700  0.75797400  0.61260700  1
  O  O4  1  0.91166300  0.25487600  0.61443200  1
  O  O5  1  0.41161800  0.25498600  0.11456900  1
  O  O6  1  0.35371500  0.26865200  0.62236400  1
  O  O7  1  0.85374600  0.26872300  0.12246600  1
  O  O8  1  0.35962200  0.70281300  0.61443900  1
  O  O9  1  0.85955300  0.70295200  0.11456700  1
  O  O10  1  0.14040300  0.29721000  0.88557400  1
  O  O11  1  0.64044200  0.29703800  0.38543100  1
  O  O12  1  0.14628400  0.73133500  0.87762700  1
  O  O13  1  0.64624200  0.73127800  0.37752700  1
  O  O14  1  0.58832800  0.74511000  0.88557800  1
  O  O15  1  0.08840200  0.74503400  0.38542700  1
loop_
_geom_bond_atom_site_label_1
_geom_bond_atom_site_label_2
_geom_bond_distance
_geom_bond_site_symmetry_2
Li0 O0 1.920029 1_555
Li0 O5 1.980547 1_555
Li0 O9 1.980583 1_445
Li0 O7 2.096022 1_455
Li1 O1 1.919680 1_555
Li1 O4 1.981551 1_555
Li1 O8 1.981595 1_545
Li1 O6 2.097678 1_555
Li2 O2 1.920191 1_555
Li2 O15 1.980374 1_555
Li2 O11 1.980437 1_565
Li2 O13 2.096008 1_555
Li3 O3 1.919906 1_555
Li3 O14 1.981675 1_555
Li3 O10 1.981761 1_665
Li3 O12 2.097372 1_655
Mn0 O5 1.964075 1_555
Mn0 O9 1.964265 1_555
Mn0 O14 1.965182 1_554
Mn0 O10 1.965249 1_554
Mn0 O2 2.207033 1_555
Mn0 O1 2.207642 1_554
Mn1 O1 1.924029 1_554
Mn1 O2 1.924630 1_545
Mn1 O5 1.947641 1_555
Mn1 O14 1.948936 1_544
Mn1 O7 1.959868 1_555
Mn1 O12 1.961155 1_544
Mn2 O1 1.924016 1_554
Mn2 O2 1.924605 1_655
Mn2 O9 1.947688 1_555
Mn2 O10 1.948911 1_654
Mn2 O7 1.959809 1_555
Mn2 O12 1.961054 1_654
Mn3 O15 1.964093 1_655
Mn3 O11 1.964210 1_555
Mn3 O4 1.965408 1_555
Mn3 O8 1.965477 1_655
Mn3 O0 2.207236 1_655
Mn3 O3 2.207373 1_555
Mn4 O3 1.923989 1_555
Mn4 O0 1.924800 1_665
Mn4 O15 1.947445 1_655
Mn4 O4 1.949147 1_565
Mn4 O13 1.959699 1_555
Mn4 O6 1.961353 1_665
Mn5 O3 1.923940 1_555
Mn5 O0 1.924785 1_555
Mn5 O11 1.947481 1_555
Mn5 O8 1.949177 1_555
Mn5 O13 1.959586 1_555
Mn5 O6 1.961310 1_555
Co0 O14 1.951334 1_555
Co0 O4 1.951354 1_455
Co0 O10 1.951370 1_555
Co0 O8 1.951441 1_555
Co0 O6 1.961417 1_555
Co0 O12 1.961427 1_555
Co1 O9 1.950828 1_555
Co1 O11 1.950844 1_555
Co1 O5 1.950853 1_555
Co1 O15 1.950929 1_655
Co1 O7 1.960836 1_555
Co1 O13 1.960885 1_555
