# generated using pymatgen
data_Sr(CrN2)2
_symmetry_space_group_name_H-M   'P 1'
_cell_length_a   10.53161653
_cell_length_b   10.53161653
_cell_length_c   10.53161653
_cell_angle_alpha   90.00000000
_cell_angle_beta   90.00000000
_cell_angle_gamma   90.00000000
_symmetry_Int_Tables_number   1
_chemical_formula_structural   Sr(CrN2)2
_chemical_formula_sum   'Sr12 Cr24 N48'
_cell_volume   1168.11368646
_cell_formula_units_Z   12
loop_
 _symmetry_equiv_pos_site_id
 _symmetry_equiv_pos_as_xyz
  1  'x, y, z'
loop_
 _atom_site_type_symbol
 _atom_site_label
 _atom_site_symmetry_multiplicity
 _atom_site_fract_x
 _atom_site_fract_y
 _atom_site_fract_z
 _atom_site_occupancy
  Sr  Sr0  1  0.50000000  0.50000000  -0.00000000  1
  Sr  Sr1  1  0.50000000  0.00000000  0.50000000  1
  Sr  Sr2  1  0.00000000  0.50000000  0.50000000  1
  Sr  Sr3  1  0.00000000  0.00000000  -0.00000000  1
  Sr  Sr4  1  0.12576377  0.87423623  0.37423623  1
  Sr  Sr5  1  0.87423623  0.37423623  0.12576377  1
  Sr  Sr6  1  0.37423623  0.12576377  0.87423623  1
  Sr  Sr7  1  0.62576377  0.62576377  0.62576377  1
  Sr  Sr8  1  0.87423623  0.12576377  0.62576377  1
  Sr  Sr9  1  0.12576377  0.62576377  0.87423623  1
  Sr  Sr10  1  0.62576377  0.87423623  0.12576377  1
  Sr  Sr11  1  0.37423623  0.37423623  0.37423623  1
  Cr  Cr0  1  0.38375883  0.69623577  0.35334070  1
  Cr  Cr1  1  0.61624117  0.19623577  0.14665930  1
  Cr  Cr2  1  0.11624117  0.30376423  0.85334070  1
  Cr  Cr3  1  0.88375883  0.80376423  0.64665930  1
  Cr  Cr4  1  0.35334070  0.38375883  0.69623577  1
  Cr  Cr5  1  0.14665930  0.61624117  0.19623577  1
  Cr  Cr6  1  0.85334070  0.11624117  0.30376423  1
  Cr  Cr7  1  0.64665930  0.88375883  0.80376423  1
  Cr  Cr8  1  0.69623577  0.35334070  0.38375883  1
  Cr  Cr9  1  0.19623577  0.14665930  0.61624117  1
  Cr  Cr10  1  0.30376423  0.85334070  0.11624117  1
  Cr  Cr11  1  0.80376423  0.64665930  0.88375883  1
  Cr  Cr12  1  0.61624117  0.30376423  0.64665930  1
  Cr  Cr13  1  0.38375883  0.80376423  0.85334070  1
  Cr  Cr14  1  0.88375883  0.69623577  0.14665930  1
  Cr  Cr15  1  0.11624117  0.19623577  0.35334070  1
  Cr  Cr16  1  0.64665930  0.61624117  0.30376423  1
  Cr  Cr17  1  0.85334070  0.38375883  0.80376423  1
  Cr  Cr18  1  0.14665930  0.88375883  0.69623577  1
  Cr  Cr19  1  0.35334070  0.11624117  0.19623577  1
  Cr  Cr20  1  0.30376423  0.64665930  0.61624117  1
  Cr  Cr21  1  0.80376423  0.85334070  0.38375883  1
  Cr  Cr22  1  0.69623577  0.14665930  0.88375883  1
  Cr  Cr23  1  0.19623577  0.35334070  0.11624117  1
  N  N0  1  0.37042721  0.84382869  0.27098765  1
  N  N1  1  0.62957279  0.34382869  0.22901235  1
  N  N2  1  0.12957279  0.15617131  0.77098765  1
  N  N3  1  0.87042721  0.65617131  0.72901235  1
  N  N4  1  0.27098765  0.37042721  0.84382869  1
  N  N5  1  0.22901235  0.62957279  0.34382869  1
  N  N6  1  0.77098765  0.12957279  0.15617131  1
  N  N7  1  0.72901235  0.87042721  0.65617131  1
  N  N8  1  0.84382869  0.27098765  0.37042721  1
  N  N9  1  0.34382869  0.22901235  0.62957279  1
  N  N10  1  0.15617131  0.77098765  0.12957279  1
  N  N11  1  0.65617131  0.72901235  0.87042721  1
  N  N12  1  0.62957279  0.15617131  0.72901235  1
  N  N13  1  0.37042721  0.65617131  0.77098765  1
  N  N14  1  0.87042721  0.84382869  0.22901235  1
  N  N15  1  0.12957279  0.34382869  0.27098765  1
  N  N16  1  0.72901235  0.62957279  0.15617131  1
  N  N17  1  0.77098765  0.37042721  0.65617131  1
  N  N18  1  0.22901235  0.87042721  0.84382869  1
  N  N19  1  0.27098765  0.12957279  0.34382869  1
  N  N20  1  0.15617131  0.72901235  0.62957279  1
  N  N21  1  0.65617131  0.77098765  0.37042721  1
  N  N22  1  0.84382869  0.22901235  0.87042721  1
  N  N23  1  0.34382869  0.27098765  0.12957279  1
  N  N24  1  0.41963747  0.72572817  0.51532364  1
  N  N25  1  0.58036253  0.22572817  0.98467636  1
  N  N26  1  0.08036253  0.27427183  0.01532364  1
  N  N27  1  0.91963747  0.77427183  0.48467636  1
  N  N28  1  0.51532364  0.41963747  0.72572817  1
  N  N29  1  0.98467636  0.58036253  0.22572817  1
  N  N30  1  0.01532364  0.08036253  0.27427183  1
  N  N31  1  0.48467636  0.91963747  0.77427183  1
  N  N32  1  0.72572817  0.51532364  0.41963747  1
  N  N33  1  0.22572817  0.98467636  0.58036253  1
  N  N34  1  0.27427183  0.01532364  0.08036253  1
  N  N35  1  0.77427183  0.48467636  0.91963747  1
  N  N36  1  0.58036253  0.27427183  0.48467636  1
  N  N37  1  0.41963747  0.77427183  0.01532364  1
  N  N38  1  0.91963747  0.72572817  0.98467636  1
  N  N39  1  0.08036253  0.22572817  0.51532364  1
  N  N40  1  0.48467636  0.58036253  0.27427183  1
  N  N41  1  0.01532364  0.41963747  0.77427183  1
  N  N42  1  0.98467636  0.91963747  0.72572817  1
  N  N43  1  0.51532364  0.08036253  0.22572817  1
  N  N44  1  0.27427183  0.48467636  0.58036253  1
  N  N45  1  0.77427183  0.01532364  0.41963747  1
  N  N46  1  0.72572817  0.98467636  0.91963747  1
  N  N47  1  0.22572817  0.51532364  0.08036253  1
loop_
_geom_bond_atom_site_label_1
_geom_bond_atom_site_label_2
_geom_bond_distance
_geom_bond_site_symmetry_2
Cr0 N24 1.774681 1_555
Cr0 N5 1.777346 1_555
Cr0 N0 1.785518 1_555
Cr0 N40 1.819955 1_555
Cr1 N25 1.774681 1_554
Cr1 N6 1.777346 1_555
Cr1 N1 1.785518 1_555
Cr1 N43 1.819955 1_555
Cr2 N26 1.774681 1_556
Cr2 N4 1.777346 1_555
Cr2 N2 1.785518 1_555
Cr2 N41 1.819955 1_555
Cr3 N27 1.774681 1_555
Cr3 N7 1.777346 1_555
Cr3 N3 1.785518 1_555
Cr3 N42 1.819955 1_555
Cr4 N28 1.774681 1_555
Cr4 N9 1.777346 1_555
Cr4 N4 1.785518 1_555
Cr4 N44 1.819955 1_555
Cr5 N29 1.774681 1_455
Cr5 N10 1.777346 1_555
Cr5 N5 1.785518 1_555
Cr5 N47 1.819955 1_555
Cr6 N30 1.774681 1_655
Cr6 N8 1.777346 1_555
Cr6 N6 1.785518 1_555
Cr6 N45 1.819955 1_555
Cr7 N31 1.774681 1_555
Cr7 N11 1.777346 1_555
Cr7 N7 1.785518 1_555
Cr7 N46 1.819955 1_555
Cr8 N32 1.774681 1_555
Cr8 N1 1.777346 1_555
Cr8 N8 1.785518 1_555
Cr8 N36 1.819955 1_555
Cr9 N33 1.774681 1_545
Cr9 N2 1.777346 1_555
Cr9 N9 1.785518 1_555
Cr9 N39 1.819955 1_555
Cr10 N34 1.774681 1_565
Cr10 N0 1.777346 1_555
Cr10 N10 1.785518 1_555
Cr10 N37 1.819955 1_555
Cr11 N35 1.774681 1_555
Cr11 N3 1.777346 1_555
Cr11 N11 1.785518 1_555
Cr11 N38 1.819955 1_555
Cr12 N36 1.774681 1_555
Cr12 N17 1.777346 1_555
Cr12 N12 1.785518 1_555
Cr12 N28 1.819955 1_555
Cr13 N37 1.774681 1_556
Cr13 N18 1.777346 1_555
Cr13 N13 1.785518 1_555
Cr13 N31 1.819955 1_555
Cr14 N38 1.774681 1_554
Cr14 N16 1.777346 1_555
Cr14 N14 1.785518 1_555
Cr14 N29 1.819955 1_555
Cr15 N39 1.774681 1_555
Cr15 N19 1.777346 1_555
Cr15 N15 1.785518 1_555
Cr15 N30 1.819955 1_555
Cr16 N40 1.774681 1_555
Cr16 N21 1.777346 1_555
Cr16 N16 1.785518 1_555
Cr16 N32 1.819955 1_555
Cr17 N41 1.774681 1_655
Cr17 N22 1.777346 1_555
Cr17 N17 1.785518 1_555
Cr17 N35 1.819955 1_555
Cr18 N42 1.774681 1_455
Cr18 N20 1.777346 1_555
Cr18 N18 1.785518 1_555
Cr18 N33 1.819955 1_555
Cr19 N43 1.774681 1_555
Cr19 N23 1.777346 1_555
Cr19 N19 1.785518 1_555
Cr19 N34 1.819955 1_555
Cr20 N44 1.774681 1_555
Cr20 N13 1.777346 1_555
Cr20 N20 1.785518 1_555
Cr20 N24 1.819955 1_555
Cr21 N45 1.774681 1_565
Cr21 N14 1.777346 1_555
Cr21 N21 1.785518 1_555
Cr21 N27 1.819955 1_555
Cr22 N46 1.774681 1_545
Cr22 N12 1.777346 1_555
Cr22 N22 1.785518 1_555
Cr22 N25 1.819955 1_555
Cr23 N47 1.774681 1_555
Cr23 N15 1.777346 1_555
Cr23 N23 1.785518 1_555
Cr23 N26 1.819955 1_555
N0 Sr4 2.815018 1_555
N0 Sr10 3.110152 1_555
N0 Sr1 3.222490 1_565
N1 Sr5 2.815018 1_555
N1 Sr11 3.110152 1_555
N1 Sr0 3.222490 1_555
N2 Sr6 2.815018 1_555
N2 Sr8 3.110152 1_455
N2 Sr3 3.222490 1_556
N3 Sr7 2.815018 1_555
N3 Sr9 3.110152 1_655
N3 Sr2 3.222490 1_655
N4 Sr6 2.815018 1_555
N4 Sr9 3.110152 1_555
N4 Sr0 3.222490 1_556
N5 Sr4 2.815018 1_555
N5 Sr11 3.110152 1_555
N5 Sr2 3.222490 1_555
N6 Sr5 2.815018 1_555
N6 Sr10 3.110152 1_545
N6 Sr3 3.222490 1_655
N7 Sr7 2.815018 1_555
N7 Sr8 3.110152 1_565
N7 Sr1 3.222490 1_565
N8 Sr5 2.815018 1_555
N8 Sr8 3.110152 1_555
N8 Sr2 3.222490 1_655
N9 Sr6 2.815018 1_555
N9 Sr11 3.110152 1_555
N9 Sr1 3.222490 1_555
N10 Sr4 2.815018 1_555
N10 Sr9 3.110152 1_554
N10 Sr3 3.222490 1_565
N11 Sr7 2.815018 1_555
N11 Sr10 3.110152 1_556
N11 Sr0 3.222490 1_556
N12 Sr8 2.815018 1_555
N12 Sr6 3.110152 1_555
N12 Sr1 3.222490 1_555
N13 Sr9 2.815018 1_555
N13 Sr7 3.110152 1_555
N13 Sr0 3.222490 1_556
N14 Sr10 2.815018 1_555
N14 Sr4 3.110152 1_655
N14 Sr3 3.222490 1_665
N15 Sr11 2.815018 1_555
N15 Sr5 3.110152 1_455
N15 Sr2 3.222490 1_555
N16 Sr10 2.815018 1_555
N16 Sr5 3.110152 1_555
N16 Sr0 3.222490 1_555
N17 Sr8 2.815018 1_555
N17 Sr7 3.110152 1_555
N17 Sr2 3.222490 1_655
N18 Sr9 2.815018 1_555
N18 Sr6 3.110152 1_565
N18 Sr3 3.222490 1_566
N19 Sr11 2.815018 1_555
N19 Sr4 3.110152 1_545
N19 Sr1 3.222490 1_555
N20 Sr9 2.815018 1_555
N20 Sr4 3.110152 1_555
N20 Sr2 3.222490 1_555
N21 Sr10 2.815018 1_555
N21 Sr7 3.110152 1_555
N21 Sr1 3.222490 1_565
N22 Sr8 2.815018 1_555
N22 Sr5 3.110152 1_556
N22 Sr3 3.222490 1_656
N23 Sr11 2.815018 1_555
N23 Sr6 3.110152 1_554
N23 Sr0 3.222490 1_555
N24 Sr7 2.678386 1_555
N24 Sr1 3.014288 1_565
N25 Sr6 2.678386 1_555
N25 Sr0 3.014288 1_556
N26 Sr5 2.678386 1_455
N26 Sr3 3.014288 1_555
N27 Sr4 2.678386 1_655
N27 Sr2 3.014288 1_655
N28 Sr7 2.678386 1_555
N28 Sr0 3.014288 1_556
N29 Sr5 2.678386 1_555
N29 Sr2 3.014288 1_655
N30 Sr4 2.678386 1_545
N30 Sr3 3.014288 1_555
N31 Sr6 2.678386 1_565
N31 Sr1 3.014288 1_565
N32 Sr7 2.678386 1_555
N32 Sr2 3.014288 1_655
N33 Sr4 2.678386 1_555
N33 Sr1 3.014288 1_565
N34 Sr6 2.678386 1_554
N34 Sr3 3.014288 1_555
N35 Sr5 2.678386 1_556
N35 Sr0 3.014288 1_556
N36 Sr11 2.678386 1_555
N36 Sr1 3.014288 1_555
N37 Sr10 2.678386 1_555
N37 Sr0 3.014288 1_555
N38 Sr9 2.678386 1_655
N38 Sr3 3.014288 1_666
N39 Sr8 2.678386 1_455
N39 Sr2 3.014288 1_555
N40 Sr11 2.678386 1_555
N40 Sr0 3.014288 1_555
N41 Sr9 2.678386 1_555
N41 Sr2 3.014288 1_555
N42 Sr8 2.678386 1_565
N42 Sr3 3.014288 1_666
N43 Sr10 2.678386 1_545
N43 Sr1 3.014288 1_555
N44 Sr11 2.678386 1_555
N44 Sr2 3.014288 1_555
N45 Sr8 2.678386 1_555
N45 Sr1 3.014288 1_555
N46 Sr10 2.678386 1_556
N46 Sr3 3.014288 1_666
N47 Sr9 2.678386 1_554
N47 Sr0 3.014288 1_555
