# generated using pymatgen
data_V3Bi2
_symmetry_space_group_name_H-M   'P 1'
_cell_length_a   10.11272900
_cell_length_b   10.11272900
_cell_length_c   4.01568500
_cell_angle_alpha   90.00000000
_cell_angle_beta   90.00000000
_cell_angle_gamma   90.00000000
_symmetry_Int_Tables_number   1
_chemical_formula_structural   V3Bi2
_chemical_formula_sum   'V12 Bi8'
_cell_volume   410.67321372
_cell_formula_units_Z   4
loop_
 _symmetry_equiv_pos_site_id
 _symmetry_equiv_pos_as_xyz
  1  'x, y, z'
loop_
 _atom_site_type_symbol
 _atom_site_label
 _atom_site_symmetry_multiplicity
 _atom_site_fract_x
 _atom_site_fract_y
 _atom_site_fract_z
 _atom_site_occupancy
  V  V0  1  0.15173800  0.08232000  0.50000000  1
  V  V1  1  0.08232000  0.84826200  0.50000000  1
  V  V2  1  0.91768000  0.15173800  0.50000000  1
  V  V3  1  0.84826200  0.91768000  0.50000000  1
  V  V4  1  0.33507700  0.43964100  0.00000000  1
  V  V5  1  0.43964100  0.66492300  0.00000000  1
  V  V6  1  0.56035900  0.33507700  0.00000000  1
  V  V7  1  0.66492300  0.56035900  0.00000000  1
  V  V8  1  0.50000000  0.00000000  0.50000000  1
  V  V9  1  0.00000000  0.50000000  0.50000000  1
  V  V10  1  0.50000000  0.50000000  0.50000000  1
  V  V11  1  0.00000000  0.00000000  0.00000000  1
  Bi  Bi0  1  0.38100800  0.24492700  0.50000000  1
  Bi  Bi1  1  0.24492700  0.61899200  0.50000000  1
  Bi  Bi2  1  0.75507300  0.38100800  0.50000000  1
  Bi  Bi3  1  0.61899200  0.75507300  0.50000000  1
  Bi  Bi4  1  0.07765900  0.28935400  0.00000000  1
  Bi  Bi5  1  0.28935400  0.92234100  0.00000000  1
  Bi  Bi6  1  0.71064600  0.07765900  0.00000000  1
  Bi  Bi7  1  0.92234100  0.71064600  0.00000000  1
loop_
_geom_bond_atom_site_label_1
_geom_bond_atom_site_label_2
_geom_bond_distance
_geom_bond_site_symmetry_2
V0 V2 2.468873 1_455
V0 V1 2.468873 1_545
V0 V11 2.660658 1_555
V0 V11 2.660658 1_556
V1 V3 2.468873 1_455
V1 V11 2.660658 1_565
V1 V11 2.660658 1_566
V2 V3 2.468873 1_545
V4 V5 2.511657 1_555
V4 V6 2.511657 1_555
V5 V7 2.511657 1_555
V6 V7 2.511657 1_555
V10 V7 2.680605 1_556
V10 V7 2.680605 1_555
V10 V5 2.680605 1_556
V10 V5 2.680605 1_555
V10 V6 2.680605 1_556
V10 V6 2.680605 1_555
V10 V4 2.680605 1_555
V10 V4 2.680605 1_556
V11 V2 2.660658 1_454
V11 V2 2.660658 1_455
V11 V3 2.660658 1_444
V11 V3 2.660658 1_445
Bi0 V8 2.753715 1_555
Bi0 V0 2.842482 1_555
Bi0 V10 2.846357 1_555
Bi0 V4 2.850350 1_556
Bi0 V4 2.850350 1_555
Bi0 V6 2.855200 1_555
Bi0 V6 2.855200 1_556
Bi1 V9 2.753715 1_555
Bi1 V1 2.842482 1_555
Bi1 V10 2.846357 1_555
Bi1 V5 2.850350 1_555
Bi1 V5 2.850350 1_556
Bi1 V4 2.855200 1_556
Bi1 V4 2.855200 1_555
Bi2 V9 2.753715 1_655
Bi2 V2 2.842482 1_555
Bi2 V10 2.846357 1_555
Bi2 V6 2.850350 1_556
Bi2 V6 2.850350 1_555
Bi2 V7 2.855200 1_556
Bi2 V7 2.855200 1_555
Bi3 V8 2.753715 1_565
Bi3 V3 2.842482 1_555
Bi3 V10 2.846357 1_555
Bi3 V7 2.850350 1_556
Bi3 V7 2.850350 1_555
Bi3 V5 2.855200 1_556
Bi3 V5 2.855200 1_555
Bi4 V2 2.930109 1_455
Bi4 V2 2.930109 1_454
Bi4 V0 2.996020 1_555
Bi4 V0 2.996020 1_554
Bi4 V4 3.014377 1_555
Bi4 V11 3.029714 1_555
Bi4 V9 3.030837 1_554
Bi4 V9 3.030837 1_555
Bi5 V0 2.930109 1_564
Bi5 V0 2.930109 1_565
Bi5 V1 2.996020 1_554
Bi5 V1 2.996020 1_555
Bi5 V5 3.014377 1_555
Bi5 V11 3.029714 1_565
Bi5 V8 3.030837 1_564
Bi5 V8 3.030837 1_565
Bi6 V3 2.930109 1_544
Bi6 V3 2.930109 1_545
Bi6 V2 2.996020 1_555
Bi6 V2 2.996020 1_554
Bi6 V6 3.014377 1_555
Bi6 V11 3.029714 1_655
Bi6 V8 3.030837 1_555
Bi6 V8 3.030837 1_554
Bi7 V1 2.930109 1_655
Bi7 V1 2.930109 1_654
Bi7 V3 2.996020 1_554
Bi7 V3 2.996020 1_555
Bi7 V7 3.014377 1_555
Bi7 V11 3.029714 1_665
Bi7 V9 3.030837 1_655
Bi7 V9 3.030837 1_654
