# generated using pymatgen
data_KV5ZnO22
_symmetry_space_group_name_H-M   'P 1'
_cell_length_a   8.72652100
_cell_length_b   10.70111683
_cell_length_c   11.28806546
_cell_angle_alpha   68.83844047
_cell_angle_beta   83.22351725
_cell_angle_gamma   76.55561356
_symmetry_Int_Tables_number   1
_chemical_formula_structural   KV5ZnO22
_chemical_formula_sum   'K2 V10 Zn2 O44'
_cell_volume   955.42246833
_cell_formula_units_Z   2
loop_
 _symmetry_equiv_pos_site_id
 _symmetry_equiv_pos_as_xyz
  1  'x, y, z'
loop_
 _atom_site_type_symbol
 _atom_site_label
 _atom_site_symmetry_multiplicity
 _atom_site_fract_x
 _atom_site_fract_y
 _atom_site_fract_z
 _atom_site_occupancy
  K  K0  1  0.73404000  0.06531600  0.23938800  1
  K  K1  1  0.26596000  0.93468400  0.76061200  1
  V  V0  1  0.60510500  0.20425000  0.56039600  1
  V  V1  1  0.39489500  0.79575000  0.43960400  1
  V  V2  1  0.62929600  0.44543900  0.26911900  1
  V  V3  1  0.37070400  0.55456100  0.73088100  1
  V  V4  1  0.64020700  0.28044100  0.80499500  1
  V  V5  1  0.35979300  0.71955900  0.19500500  1
  V  V6  1  0.67862400  0.49146100  0.51791600  1
  V  V7  1  0.32137600  0.50853900  0.48208400  1
  V  V8  1  0.69617100  0.73457000  0.26536400  1
  V  V9  1  0.30382900  0.26543000  0.73463600  1
  Zn  Zn0  1  0.81546800  0.57308100  0.70832900  1
  Zn  Zn1  1  0.18453200  0.42691900  0.29167100  1
  O  O0  1  0.53926300  0.65357300  0.59623200  1
  O  O1  1  0.46073700  0.34642700  0.40376800  1
  O  O2  1  0.53089000  0.44833800  0.82802500  1
  O  O3  1  0.46911000  0.55166200  0.17197500  1
  O  O4  1  0.51348200  0.58869400  0.39315600  1
  O  O5  1  0.48651800  0.41130600  0.60684400  1
  O  O6  1  0.53909600  0.78936600  0.15172700  1
  O  O7  1  0.46090400  0.21063400  0.84827300  1
  O  O8  1  0.57674900  0.84160600  0.35672700  1
  O  O9  1  0.42325100  0.15839400  0.64327300  1
  O  O10  1  0.68355200  0.08660900  0.49875500  1
  O  O11  1  0.31644800  0.91339100  0.50124500  1
  O  O12  1  0.70976100  0.32654000  0.20920900  1
  O  O13  1  0.29023900  0.67346000  0.79079100  1
  O  O14  1  0.71114500  0.17525300  0.69711300  1
  O  O15  1  0.28885500  0.82474700  0.30288700  1
  O  O16  1  0.72340400  0.35656800  0.44980200  1
  O  O17  1  0.27659600  0.64343200  0.55019800  1
  O  O18  1  0.75857500  0.56730800  0.22317200  1
  O  O19  1  0.24142500  0.43269200  0.77682800  1
  O  O20  1  0.74726900  0.20696800  0.92898000  1
  O  O21  1  0.25273100  0.79303200  0.07102000  1
  O  O22  1  0.76588500  0.41673300  0.67072200  1
  O  O23  1  0.23411500  0.58326700  0.32927800  1
  O  O24  1  0.79320800  0.60754900  0.43383500  1
  O  O25  1  0.20679200  0.39245100  0.56616500  1
  O  O26  1  0.83047100  0.82264700  0.19565100  1
  O  O27  1  0.16952900  0.17735300  0.80434900  1
  O  O28  1  0.59317900  0.70651600  0.90897600  1
  O  O29  1  0.40682100  0.29348400  0.09102400  1
  O  O30  1  0.63825600  0.71416100  0.64339300  1
  O  O31  1  0.36174400  0.28583900  0.35660700  1
  O  O32  1  0.58271800  0.83094600  0.87908600  1
  O  O33  1  0.41728200  0.16905400  0.12091400  1
  O  O34  1  0.98536100  0.47471200  0.80972600  1
  O  O35  1  0.01463900  0.52528800  0.19027400  1
  O  O36  1  0.93645300  0.72825000  0.90886400  1
  O  O37  1  0.06354700  0.27175000  0.09113600  1
  O  O38  1  0.94951500  0.83133200  0.58029100  1
  O  O39  1  0.05048500  0.16866800  0.41970900  1
  O  O40  1  0.97557500  0.87012500  0.46425600  1
  O  O41  1  0.02442500  0.12987500  0.53574400  1
  O  O42  1  0.94941500  0.84523500  0.89363300  1
  O  O43  1  0.05058500  0.15476500  0.10636700  1
loop_
_geom_bond_atom_site_label_1
_geom_bond_atom_site_label_2
_geom_bond_distance
_geom_bond_site_symmetry_2
K0 O12 2.651268 1_555
K0 O26 2.739865 1_545
K0 O8 2.859891 1_545
K0 O10 2.991375 1_555
K0 O33 3.005865 1_555
K0 O43 3.164546 1_655
K0 O40 3.261295 1_545
K0 O20 3.277129 1_554
K1 O13 2.651268 1_555
K1 O27 2.739865 1_565
K1 O9 2.859891 1_565
K1 O11 2.991375 1_555
K1 O32 3.005865 1_555
K1 O42 3.164546 1_455
K1 O41 3.261295 1_565
K1 O21 3.277129 1_556
O0 O30 1.438128 1_555
O0 V3 2.151935 1_555
O0 V1 2.172581 1_555
O0 V6 2.267704 1_555
O1 O31 1.438128 1_555
O1 V2 2.151935 1_555
O1 V0 2.172581 1_555
O1 V7 2.267704 1_555
O2 V3 1.780873 1_555
O2 V4 1.920260 1_555
O3 V2 1.780873 1_555
O3 V5 1.920260 1_555
O4 V6 1.966337 1_555
O4 V7 2.050274 1_555
O4 V2 2.413954 1_555
O4 V1 2.428944 1_555
O4 V8 2.459270 1_555
O4 V5 2.517125 1_555
O5 V7 1.966337 1_555
O5 V6 2.050274 1_555
O5 V3 2.413954 1_555
O5 V0 2.428944 1_555
O5 V9 2.459270 1_555
O5 V4 2.517125 1_555
O6 V5 1.828821 1_555
O6 V8 1.834737 1_555
O7 V4 1.828821 1_555
O7 V9 1.834737 1_555
O8 V1 1.820637 1_555
O8 V8 1.872374 1_555
O9 V0 1.820637 1_555
O9 V9 1.872374 1_555
O10 V0 1.629991 1_555
O11 V1 1.629991 1_555
O12 V2 1.631874 1_555
O13 V3 1.631874 1_555
O14 V0 1.786620 1_555
O14 V4 1.902894 1_555
O15 V1 1.786620 1_555
O15 V5 1.902894 1_555
O16 V6 1.815407 1_555
O16 V0 2.071274 1_555
O16 V2 2.090538 1_555
O17 V7 1.815407 1_555
O17 V1 2.071274 1_555
O17 V3 2.090538 1_555
O18 V2 1.816647 1_555
O18 V8 1.956557 1_555
O19 V3 1.816647 1_555
O19 V9 1.956557 1_555
O20 V4 1.619358 1_555
O21 V5 1.619358 1_555
O22 V6 1.795965 1_555
O22 Zn0 2.014810 1_555
O22 V4 2.093499 1_555
O23 V7 1.795965 1_555
O23 Zn1 2.014810 1_555
O23 V5 2.093499 1_555
O24 V6 1.716468 1_555
O24 V8 2.039526 1_555
O25 V7 1.716468 1_555
O25 V9 2.039526 1_555
O26 V8 1.625305 1_555
O27 V9 1.625305 1_555
O28 O32 1.233512 1_555
O29 O33 1.233512 1_555
O30 Zn0 1.894969 1_555
O31 Zn1 1.894969 1_555
O34 Zn0 1.849603 1_555
O35 Zn1 1.849603 1_555
O36 O42 1.231013 1_555
O37 O43 1.231013 1_555
O38 O40 1.233158 1_555
O39 O41 1.233158 1_555
