# generated using pymatgen
data_LaF
_symmetry_space_group_name_H-M   'P 1'
_cell_length_a   4.32880826
_cell_length_b   4.32880826
_cell_length_c   5.55810700
_cell_angle_alpha   90.00000000
_cell_angle_beta   90.00000000
_cell_angle_gamma   120.00000402
_symmetry_Int_Tables_number   1
_chemical_formula_structural   LaF
_chemical_formula_sum   'La2 F2'
_cell_volume   90.19744118
_cell_formula_units_Z   2
loop_
 _symmetry_equiv_pos_site_id
 _symmetry_equiv_pos_as_xyz
  1  'x, y, z'
loop_
 _atom_site_type_symbol
 _atom_site_label
 _atom_site_symmetry_multiplicity
 _atom_site_fract_x
 _atom_site_fract_y
 _atom_site_fract_z
 _atom_site_occupancy
  La  La0  1  0.66666700  0.33333300  0.75000000  1
  La  La1  1  0.33333300  0.66666700  0.25000000  1
  F  F0  1  0.66666700  0.33333300  0.25000000  1
  F  F1  1  0.33333300  0.66666700  0.75000000  1
loop_
_geom_bond_atom_site_label_1
_geom_bond_atom_site_label_2
_geom_bond_distance
_geom_bond_site_symmetry_2
F0 La1 2.499236 1_545
F0 La1 2.499236 1_655
F0 La1 2.499244 1_555
F0 La0 2.779053 1_555
F0 La0 2.779053 1_554
F1 La0 2.499236 1_455
F1 La0 2.499236 1_565
F1 La0 2.499244 1_555
F1 La1 2.779053 1_556
F1 La1 2.779053 1_555
