# generated using pymatgen
data_La2Ti2O5
_symmetry_space_group_name_H-M   'P 1'
_cell_length_a   8.83960618
_cell_length_b   8.83960618
_cell_length_c   8.83960618
_cell_angle_alpha   143.47616241
_cell_angle_beta   143.13301177
_cell_angle_gamma   52.86897479
_symmetry_Int_Tables_number   1
_chemical_formula_structural   La2Ti2O5
_chemical_formula_sum   'La4 Ti4 O10'
_cell_volume   245.13736631
_cell_formula_units_Z   2
loop_
 _symmetry_equiv_pos_site_id
 _symmetry_equiv_pos_as_xyz
  1  'x, y, z'
loop_
 _atom_site_type_symbol
 _atom_site_label
 _atom_site_symmetry_multiplicity
 _atom_site_fract_x
 _atom_site_fract_y
 _atom_site_fract_z
 _atom_site_occupancy
  La  La0  1  0.87593600  0.38118600  0.50701400  1
  La  La1  1  0.12406400  0.63107800  0.50525000  1
  La  La2  1  0.37417200  0.88118600  0.50525000  1
  La  La3  1  0.62582800  0.13107800  0.50701400  1
  Ti  Ti0  1  0.00000000  0.00585300  0.00585300  1
  Ti  Ti1  1  0.50000000  0.50585300  0.00585300  1
  Ti  Ti2  1  0.73822100  0.76246700  0.00068900  1
  Ti  Ti3  1  0.26177900  0.26246700  0.02424600  1
  O  O0  1  0.76315200  0.76854400  0.50698000  1
  O  O1  1  0.23684800  0.74382800  0.00539200  1
  O  O2  1  0.76156400  0.26854400  0.00539200  1
  O  O3  1  0.23843600  0.24382800  0.50698000  1
  O  O4  1  0.82649800  0.88154800  0.96144500  1
  O  O5  1  0.17350200  0.13494700  0.05505000  1
  O  O6  1  0.42010300  0.38154800  0.05505000  1
  O  O7  1  0.57989700  0.63494700  0.96144500  1
  O  O8  1  0.98626200  0.02654800  0.51281000  1
  O  O9  1  0.01373800  0.52654800  0.04028600  1
loop_
_geom_bond_atom_site_label_1
_geom_bond_atom_site_label_2
_geom_bond_distance
_geom_bond_site_symmetry_2
La0 O6 2.538589 1_555
La0 O1 2.650073 1_656
La0 O3 2.654422 1_655
La0 O8 2.695982 1_555
La0 O4 2.771261 1_544
La0 O4 2.794592 1_555
La0 O9 2.884912 1_656
La0 O0 2.932274 1_555
La0 O2 2.936234 1_555
La0 O6 3.051971 1_656
La1 O7 2.538589 1_555
La1 O0 2.650073 1_455
La1 O2 2.654422 1_455
La1 O9 2.695982 1_555
La1 O5 2.771261 1_555
La1 O5 2.794592 1_566
La1 O8 2.884912 1_465
La1 O1 2.932274 1_556
La1 O3 2.936234 1_555
La1 O7 3.051971 1_454
La2 O4 2.538589 1_555
La2 O3 2.650073 1_565
La2 O1 2.654422 1_555
La2 O9 2.695982 1_555
La2 O6 2.771261 1_555
La2 O6 2.794592 1_566
La2 O8 2.884912 1_465
La2 O2 2.932274 1_566
La2 O0 2.936234 1_555
La2 O4 3.051971 1_454
La3 O5 2.538589 1_555
La3 O2 2.650073 1_556
La3 O0 2.654422 1_545
La3 O8 2.695982 1_555
La3 O7 2.771261 1_544
La3 O7 2.794592 1_555
La3 O9 2.884912 1_656
La3 O3 2.932274 1_555
La3 O1 2.936234 1_545
La3 O5 3.051971 1_656
O0 Ti0 1.972856 1_666
O0 Ti1 1.981715 1_555
O1 Ti0 1.972856 1_565
O1 Ti1 1.981715 1_555
O2 Ti1 1.972856 1_555
O2 Ti0 1.981715 1_655
O3 Ti1 1.972856 1_556
O3 Ti0 1.981715 1_555
O4 Ti2 1.961881 1_556
O4 Ti0 2.022783 1_666
O5 Ti3 1.961873 1_555
O5 Ti0 2.022783 1_555
O6 Ti3 1.961873 1_555
O6 Ti1 2.022783 1_555
O7 Ti2 1.961865 1_556
O7 Ti1 2.022783 1_556
O8 Ti2 2.015699 1_545
O8 Ti3 2.020011 1_656
O9 Ti3 2.015703 1_555
O9 Ti2 2.020010 1_455
