# generated using pymatgen
data_Li9Mn2Co5O16
_symmetry_space_group_name_H-M   'P 1'
_cell_length_a   3.01849900
_cell_length_b   6.42990832
_cell_length_c   15.48822452
_cell_angle_alpha   88.87423617
_cell_angle_beta   86.95356464
_cell_angle_gamma   76.66669328
_symmetry_Int_Tables_number   1
_chemical_formula_structural   Li9Mn2Co5O16
_chemical_formula_sum   'Li9 Mn2 Co5 O16'
_cell_volume   292.08121155
_cell_formula_units_Z   1
loop_
 _symmetry_equiv_pos_site_id
 _symmetry_equiv_pos_as_xyz
  1  'x, y, z'
loop_
 _atom_site_type_symbol
 _atom_site_label
 _atom_site_symmetry_multiplicity
 _atom_site_fract_x
 _atom_site_fract_y
 _atom_site_fract_z
 _atom_site_occupancy
  Li  Li0  1  0.68782700  0.12692700  0.56227400  1
  Li  Li1  1  0.93859300  0.62162900  0.31162500  1
  Li  Li2  1  0.18171900  0.12834300  0.05993700  1
  Li  Li3  1  0.31217300  0.87307300  0.43772600  1
  Li  Li4  1  0.55185300  0.38464300  0.18697300  1
  Li  Li5  1  0.81828100  0.87165700  0.94006300  1
  Li  Li6  1  0.44814700  0.61535700  0.81302700  1
  Li  Li7  1  0.06140700  0.37837100  0.68837500  1
  Li  Li8  1  0.50000000  0.50000000  0.00000000  1
  Mn  Mn0  1  0.74527800  0.00147700  0.75158100  1
  Mn  Mn1  1  0.25472200  0.99852300  0.24841900  1
  Co  Co0  1  0.00000000  0.50000000  0.50000000  1
  Co  Co1  1  0.62504900  0.25000200  0.37640500  1
  Co  Co2  1  0.87245200  0.73993500  0.11864500  1
  Co  Co3  1  0.12754800  0.26006500  0.88135500  1
  Co  Co4  1  0.37495100  0.74999800  0.62359500  1
  O  O0  1  0.18839300  0.04821600  0.65747400  1
  O  O1  1  0.44432600  0.54643000  0.41031800  1
  O  O2  1  0.70564400  0.03850900  0.15579900  1
  O  O3  1  0.86664600  0.79397000  0.53375400  1
  O  O4  1  0.11949400  0.29713900  0.28465200  1
  O  O5  1  0.31833700  0.80653800  0.03914100  1
  O  O6  1  0.97972200  0.53368200  0.90129500  1
  O  O7  1  0.57576500  0.29814100  0.78535100  1
  O  O8  1  0.13335400  0.20603000  0.46624600  1
  O  O9  1  0.42423500  0.70185900  0.21464900  1
  O  O10  1  0.68166300  0.19346200  0.96085900  1
  O  O11  1  0.81160700  0.95178400  0.34252600  1
  O  O12  1  0.02027800  0.46631800  0.09870500  1
  O  O13  1  0.29435600  0.96149100  0.84420100  1
  O  O14  1  0.88050600  0.70286100  0.71534800  1
  O  O15  1  0.55567400  0.45357000  0.58968200  1
loop_
_geom_bond_atom_site_label_1
_geom_bond_atom_site_label_2
_geom_bond_distance
_geom_bond_site_symmetry_2
Li0 O8 2.086260 1_655
Li0 O15 2.093115 1_555
Li0 O3 2.132763 1_545
Li0 O0 2.137288 1_655
Li0 O0 2.188430 1_555
Li0 O8 2.261457 1_555
Li1 O4 2.076164 1_655
Li1 O11 2.127830 1_555
Li1 O9 2.180664 1_655
Li1 O1 2.186151 1_655
Li1 O9 2.186463 1_555
Li1 O1 2.203981 1_555
Li2 O5 2.042988 1_545
Li2 O2 2.173824 1_455
Li2 O10 2.176679 1_454
Li2 O10 2.197159 1_554
Li2 O2 2.198559 1_555
Li2 O12 2.202796 1_555
Li3 O3 2.086260 1_455
Li3 O1 2.093115 1_555
Li3 O8 2.132763 1_565
Li3 O11 2.137288 1_455
Li3 O11 2.188430 1_555
Li3 O3 2.261457 1_555
Li4 O9 2.036368 1_555
Li4 O12 2.062241 1_655
Li4 O4 2.098558 1_555
Li4 O12 2.129718 1_555
Li4 O2 2.223474 1_555
Li4 O4 2.310543 1_655
Li5 O10 2.042988 1_565
Li5 O13 2.173824 1_655
Li5 O5 2.176679 1_656
Li5 O5 2.197159 1_556
Li5 O13 2.198559 1_555
Li5 O6 2.202796 1_555
Li6 O7 2.036368 1_555
Li6 O6 2.062241 1_455
Li6 O14 2.098558 1_555
Li6 O6 2.129718 1_555
Li6 O13 2.223474 1_555
Li6 O14 2.310543 1_455
Li7 O14 2.076164 1_455
Li7 O0 2.127830 1_555
Li7 O7 2.180664 1_455
Li7 O15 2.186151 1_455
Li7 O7 2.186463 1_555
Li7 O15 2.203981 1_555
Li8 O5 2.016482 1_555
Li8 O10 2.016482 1_554
Li8 O6 2.092172 1_554
Li8 O12 2.092172 1_555
Li8 O12 2.221638 1_655
Li8 O6 2.221638 1_454
Mn0 O7 1.932512 1_555
Mn0 O14 1.955692 1_545
Mn0 O13 1.978874 1_545
Mn0 O0 1.991170 1_655
Mn0 O13 2.216432 1_645
Mn0 O0 2.247352 1_555
Mn1 O9 1.932512 1_555
Mn1 O4 1.955692 1_565
Mn1 O2 1.978874 1_565
Mn1 O11 1.991170 1_455
Mn1 O2 2.216432 1_465
Mn1 O11 2.247352 1_555
Co0 O8 1.916696 1_555
Co0 O3 1.916696 1_455
Co0 O15 1.946194 1_455
Co0 O1 1.946194 1_555
Co0 O15 2.198229 1_555
Co0 O1 2.198229 1_455
Co1 O1 1.932782 1_555
Co1 O11 1.944068 1_545
Co1 O8 2.043898 1_555
Co1 O4 2.074883 1_655
Co1 O8 2.093243 1_655
Co1 O4 2.107212 1_555
Co2 O12 1.741940 1_655
Co2 O5 1.892118 1_655
Co2 O2 1.958846 1_565
Co2 O9 2.006490 1_555
Co2 O5 2.089277 1_555
Co2 O9 2.259610 1_655
Co3 O6 1.741940 1_455
Co3 O10 1.892118 1_455
Co3 O13 1.958846 1_545
Co3 O7 2.006490 1_555
Co3 O10 2.089277 1_555
Co3 O7 2.259610 1_455
Co4 O15 1.932782 1_555
Co4 O0 1.944068 1_565
Co4 O3 2.043898 1_555
Co4 O14 2.074883 1_455
Co4 O3 2.093243 1_455
Co4 O14 2.107212 1_555
