# generated using pymatgen
data_KO4F
_symmetry_space_group_name_H-M   'P 1'
_cell_length_a   6.39725400
_cell_length_b   11.21500100
_cell_length_c   12.91405000
_cell_angle_alpha   90.00000000
_cell_angle_beta   90.00000000
_cell_angle_gamma   90.00000000
_symmetry_Int_Tables_number   1
_chemical_formula_structural   KO4F
_chemical_formula_sum   'K8 O32 F8'
_cell_volume   926.52122929
_cell_formula_units_Z   8
loop_
 _symmetry_equiv_pos_site_id
 _symmetry_equiv_pos_as_xyz
  1  'x, y, z'
loop_
 _atom_site_type_symbol
 _atom_site_label
 _atom_site_symmetry_multiplicity
 _atom_site_fract_x
 _atom_site_fract_y
 _atom_site_fract_z
 _atom_site_occupancy
  K  K0  1  0.30341000  0.55870300  0.65679900  1
  K  K1  1  0.69659000  0.44129700  0.34320100  1
  K  K2  1  0.19659000  0.05870300  0.34320100  1
  K  K3  1  0.69659000  0.94129700  0.15679900  1
  K  K4  1  0.80341000  0.94129700  0.65679900  1
  K  K5  1  0.30341000  0.05870300  0.84320100  1
  K  K6  1  0.80341000  0.44129700  0.84320100  1
  K  K7  1  0.19659000  0.55870300  0.15679900  1
  O  O0  1  0.12060200  0.64702500  0.85390600  1
  O  O1  1  0.87939800  0.35297500  0.14609400  1
  O  O2  1  0.37939800  0.14702500  0.14609400  1
  O  O3  1  0.87939800  0.85297500  0.35390600  1
  O  O4  1  0.62060200  0.85297500  0.85390600  1
  O  O5  1  0.12060200  0.14702500  0.64609400  1
  O  O6  1  0.62060200  0.35297500  0.64609400  1
  O  O7  1  0.37939800  0.64702500  0.35390600  1
  O  O8  1  0.26719000  0.64040700  0.91618200  1
  O  O9  1  0.73281000  0.35959300  0.08381800  1
  O  O10  1  0.23281000  0.14040700  0.08381800  1
  O  O11  1  0.73281000  0.85959300  0.41618200  1
  O  O12  1  0.76719000  0.85959300  0.91618200  1
  O  O13  1  0.26719000  0.14040700  0.58381800  1
  O  O14  1  0.76719000  0.35959300  0.58381800  1
  O  O15  1  0.23281000  0.64040700  0.41618200  1
  O  O16  1  0.24516500  0.87055100  0.53451000  1
  O  O17  1  0.75483500  0.12944900  0.46549000  1
  O  O18  1  0.25483500  0.37055100  0.46549000  1
  O  O19  1  0.75483500  0.62944900  0.03451000  1
  O  O20  1  0.74516500  0.62944900  0.53451000  1
  O  O21  1  0.24516500  0.37055100  0.96549000  1
  O  O22  1  0.74516500  0.12944900  0.96549000  1
  O  O23  1  0.25483500  0.87055100  0.03451000  1
  O  O24  1  0.35288000  0.83579400  0.60830300  1
  O  O25  1  0.64712000  0.16420600  0.39169700  1
  O  O26  1  0.14712000  0.33579400  0.39169700  1
  O  O27  1  0.64712000  0.66420600  0.10830300  1
  O  O28  1  0.85288000  0.66420600  0.60830300  1
  O  O29  1  0.35288000  0.33579400  0.89169700  1
  O  O30  1  0.85288000  0.16420600  0.89169700  1
  O  O31  1  0.14712000  0.83579400  0.10830300  1
  F  F0  1  0.10752700  0.88797500  0.76820200  1
  F  F1  1  0.89247300  0.11202500  0.23179800  1
  F  F2  1  0.39247300  0.38797500  0.23179800  1
  F  F3  1  0.89247300  0.61202500  0.26820200  1
  F  F4  1  0.60752700  0.61202500  0.76820200  1
  F  F5  1  0.10752700  0.38797500  0.73179800  1
  F  F6  1  0.60752700  0.11202500  0.73179800  1
  F  F7  1  0.39247300  0.88797500  0.26820200  1
loop_
_geom_bond_atom_site_label_1
_geom_bond_atom_site_label_2
_geom_bond_distance
_geom_bond_site_symmetry_2
K0 O0 2.971216 1_555
K0 O6 3.075703 1_555
K0 O28 3.177899 1_455
K0 O24 3.185814 1_555
K0 O18 3.263882 1_555
K0 O15 3.270959 1_555
K0 O20 3.333153 1_555
K1 O1 2.971216 1_555
K1 O7 3.075703 1_555
K1 O26 3.177899 1_655
K1 O25 3.185814 1_555
K1 O20 3.263882 1_555
K1 O14 3.270959 1_555
K1 O18 3.333153 1_555
K2 O2 2.971216 1_555
K2 O3 3.075703 1_445
K2 O25 3.177899 1_555
K2 O26 3.185814 1_555
K2 O16 3.263882 1_545
K2 O13 3.270959 1_555
K2 O17 3.333153 1_455
K3 O3 2.971216 1_555
K3 O2 3.075703 1_565
K3 O31 3.177899 1_655
K3 O27 3.185814 1_555
K3 O22 3.263882 1_564
K3 O12 3.270959 1_554
K3 O23 3.333153 1_555
K4 O4 2.971216 1_555
K4 O5 3.075703 1_665
K4 O24 3.177899 1_555
K4 O28 3.185814 1_555
K4 O17 3.263882 1_565
K4 O11 3.270959 1_555
K4 O16 3.333153 1_655
K5 O5 2.971216 1_555
K5 O4 3.075703 1_545
K5 O30 3.177899 1_455
K5 O29 3.185814 1_555
K5 O23 3.263882 1_546
K5 O10 3.270959 1_556
K5 O22 3.333153 1_555
K6 O6 2.971216 1_555
K6 O0 3.075703 1_655
K6 O29 3.177899 1_555
K6 O30 3.185814 1_555
K6 O19 3.263882 1_556
K6 O9 3.270959 1_556
K6 O21 3.333153 1_655
K7 O7 2.971216 1_555
K7 O1 3.075703 1_455
K7 O27 3.177899 1_555
K7 O31 3.185814 1_555
K7 O21 3.263882 1_554
K7 O8 3.270959 1_554
K7 O19 3.333153 1_455
O0 O8 1.237618 1_555
O1 O9 1.237618 1_555
O10 O2 1.237618 1_555
O11 O3 1.237618 1_555
O12 O4 1.237618 1_555
O13 O5 1.237618 1_555
O14 O6 1.237618 1_555
O15 O7 1.237618 1_555
O16 O24 1.238919 1_555
O17 O25 1.238919 1_555
O18 O26 1.238919 1_555
O19 O27 1.238919 1_555
O20 O28 1.238919 1_555
O21 O29 1.238919 1_555
O22 O30 1.238919 1_555
O23 O31 1.238919 1_555
F0 K5 2.484853 1_565
F0 K4 2.492466 1_455
F1 K3 2.484853 1_545
F1 K2 2.492466 1_655
F2 K7 2.484853 1_555
F2 K1 2.492466 1_555
F3 K1 2.484853 1_555
F3 K7 2.492466 1_655
F4 K6 2.484853 1_555
F4 K0 2.492466 1_555
F5 K0 2.484853 1_555
F5 K6 2.492466 1_455
F6 K4 2.484853 1_545
F6 K5 2.492466 1_555
F7 K2 2.484853 1_565
F7 K3 2.492466 1_555
