# generated using pymatgen
data_ErMnNi4
_symmetry_space_group_name_H-M   'P 1'
_cell_length_a   4.87361611
_cell_length_b   4.87361611
_cell_length_c   4.87361611
_cell_angle_alpha   60.00000000
_cell_angle_beta   60.00000000
_cell_angle_gamma   60.00000000
_symmetry_Int_Tables_number   1
_chemical_formula_structural   ErMnNi4
_chemical_formula_sum   'Er1 Mn1 Ni4'
_cell_volume   81.85382031
_cell_formula_units_Z   1
loop_
 _symmetry_equiv_pos_site_id
 _symmetry_equiv_pos_as_xyz
  1  'x, y, z'
loop_
 _atom_site_type_symbol
 _atom_site_label
 _atom_site_symmetry_multiplicity
 _atom_site_fract_x
 _atom_site_fract_y
 _atom_site_fract_z
 _atom_site_occupancy
  Er  Er0  1  0.00000000  0.00000000  0.00000000  1
  Mn  Mn0  1  0.25000000  0.25000000  0.25000000  1
  Ni  Ni0  1  0.62415900  0.62415900  0.12752200  1
  Ni  Ni1  1  0.62415900  0.12752200  0.62415900  1
  Ni  Ni2  1  0.12752200  0.62415900  0.62415900  1
  Ni  Ni3  1  0.62415900  0.62415900  0.62415900  1
loop_
_geom_bond_atom_site_label_1
_geom_bond_atom_site_label_2
_geom_bond_distance
_geom_bond_site_symmetry_2
Er0 Ni0 2.859173 1_545
Er0 Ni1 2.859173 1_554
Er0 Ni0 2.859173 1_455
Er0 Ni2 2.859173 1_554
Er0 Ni1 2.859173 1_455
Er0 Ni2 2.859173 1_545
Er0 Ni3 2.859176 1_544
Er0 Ni3 2.859176 1_454
Er0 Ni3 2.859176 1_445
Er0 Ni2 2.859178 1_544
Er0 Ni0 2.859178 1_445
Er0 Ni1 2.859178 1_454
Er0 Mn0 2.984468 1_555
Er0 Mn0 2.984468 1_554
Er0 Mn0 2.984468 1_545
Er0 Mn0 2.984468 1_455
Mn0 Ni0 2.855678 1_555
Mn0 Ni2 2.855678 1_555
Mn0 Ni1 2.855678 1_555
Mn0 Ni3 2.855680 1_455
Mn0 Ni3 2.855680 1_545
Mn0 Ni3 2.855680 1_554
Mn0 Ni0 2.855682 1_455
Mn0 Ni1 2.855682 1_554
Mn0 Ni2 2.855682 1_545
Mn0 Ni1 2.855682 1_455
Mn0 Ni2 2.855682 1_554
Mn0 Ni0 2.855682 1_545
Ni0 Ni3 2.420418 1_555
Ni0 Ni1 2.420418 1_555
Ni0 Ni2 2.420418 1_555
Ni0 Ni2 2.453198 1_654
Ni0 Ni1 2.453198 1_564
Ni0 Ni3 2.453198 1_554
Ni1 Ni3 2.420418 1_555
Ni1 Ni2 2.420418 1_555
Ni1 Ni2 2.453198 1_645
Ni1 Ni3 2.453198 1_545
Ni2 Ni3 2.420418 1_555
Ni2 Ni3 2.453198 1_455
