# generated using pymatgen
data_Er2Mg2Ru
_symmetry_space_group_name_H-M   'P 1'
_cell_length_a   21.30056129
_cell_length_b   21.30056129
_cell_length_c   21.30056129
_cell_angle_alpha   161.76937765
_cell_angle_beta   161.76937765
_cell_angle_gamma   25.89315318
_symmetry_Int_Tables_number   1
_chemical_formula_structural   Er2Mg2Ru
_chemical_formula_sum   'Er16 Mg16 Ru8'
_cell_volume   945.54227022
_cell_formula_units_Z   8
loop_
 _symmetry_equiv_pos_site_id
 _symmetry_equiv_pos_as_xyz
  1  'x, y, z'
loop_
 _atom_site_type_symbol
 _atom_site_label
 _atom_site_symmetry_multiplicity
 _atom_site_fract_x
 _atom_site_fract_y
 _atom_site_fract_z
 _atom_site_occupancy
  Er  Er0_0  1  0.28933650  0.28933650  0.00000000  1
  Er  Er0_1  1  0.28933650  0.28933650  0.50000000  1
  Er  Er0_2  1  0.28933650  0.78933650  0.00000000  1
  Er  Er0_3  1  0.28933650  0.78933650  0.50000000  1
  Er  Er0_4  1  0.78933650  0.28933650  0.00000000  1
  Er  Er0_5  1  0.78933650  0.28933650  0.50000000  1
  Er  Er0_6  1  0.78933650  0.78933650  0.00000000  1
  Er  Er0_7  1  0.78933650  0.78933650  0.50000000  1
  Er  Er1_0  1  0.21066350  0.21066350  0.00000000  1
  Er  Er1_1  1  0.21066350  0.21066350  0.50000000  1
  Er  Er1_2  1  0.21066350  0.71066350  0.00000000  1
  Er  Er1_3  1  0.21066350  0.71066350  0.50000000  1
  Er  Er1_4  1  0.71066350  0.21066350  0.00000000  1
  Er  Er1_5  1  0.71066350  0.21066350  0.50000000  1
  Er  Er1_6  1  0.71066350  0.71066350  0.00000000  1
  Er  Er1_7  1  0.71066350  0.71066350  0.50000000  1
  Mg  Mg0_0  1  0.39932050  0.39932050  0.00000000  1
  Mg  Mg0_1  1  0.39932050  0.39932050  0.50000000  1
  Mg  Mg0_2  1  0.39932050  0.89932050  0.00000000  1
  Mg  Mg0_3  1  0.39932050  0.89932050  0.50000000  1
  Mg  Mg0_4  1  0.89932050  0.39932050  0.00000000  1
  Mg  Mg0_5  1  0.89932050  0.39932050  0.50000000  1
  Mg  Mg0_6  1  0.89932050  0.89932050  0.00000000  1
  Mg  Mg0_7  1  0.89932050  0.89932050  0.50000000  1
  Mg  Mg1_0  1  0.10067950  0.10067950  0.00000000  1
  Mg  Mg1_1  1  0.10067950  0.10067950  0.50000000  1
  Mg  Mg1_2  1  0.10067950  0.60067950  0.00000000  1
  Mg  Mg1_3  1  0.10067950  0.60067950  0.50000000  1
  Mg  Mg1_4  1  0.60067950  0.10067950  0.00000000  1
  Mg  Mg1_5  1  0.60067950  0.10067950  0.50000000  1
  Mg  Mg1_6  1  0.60067950  0.60067950  0.00000000  1
  Mg  Mg1_7  1  0.60067950  0.60067950  0.50000000  1
  Ru  Ru0_0  1  0.00000000  0.00000000  0.00000000  1
  Ru  Ru0_1  1  0.00000000  0.00000000  0.50000000  1
  Ru  Ru0_2  1  0.00000000  0.50000000  0.00000000  1
  Ru  Ru0_3  1  0.00000000  0.50000000  0.50000000  1
  Ru  Ru0_4  1  0.50000000  0.00000000  0.00000000  1
  Ru  Ru0_5  1  0.50000000  0.00000000  0.50000000  1
  Ru  Ru0_6  1  0.50000000  0.50000000  0.00000000  1
  Ru  Ru0_7  1  0.50000000  0.50000000  0.50000000  1
loop_
_geom_bond_atom_site_label_1
_geom_bond_atom_site_label_2
_geom_bond_distance
_geom_bond_site_symmetry_2
Er0_0 Ru0_1 2.891508 1_554
Er0_0 Ru0_7 2.891508 1_555
Er0_0 Ru0_2 2.891508 1_555
Er0_0 Ru0_4 2.891508 1_555
Er0_0 Mg1_7 3.489984 1_555
Er0_0 Mg1_1 3.489984 1_554
Er0_0 Mg1_4 3.489984 1_555
Er0_0 Mg1_2 3.489984 1_555
Er0_1 Ru0_5 2.891508 1_555
Er0_1 Ru0_3 2.891508 1_555
Er0_1 Ru0_6 2.891508 1_556
Er0_1 Ru0_0 2.891508 1_555
Er0_1 Mg1_3 3.489984 1_555
Er0_1 Mg1_6 3.489984 1_556
Er0_1 Mg1_0 3.489984 1_555
Er0_1 Mg1_5 3.489984 1_555
Er0_2 Ru0_5 2.891508 1_565
Er0_2 Ru0_6 2.891508 1_555
Er0_2 Ru0_3 2.891508 1_554
Er0_2 Ru0_0 2.891508 1_565
Er0_2 Mg1_6 3.489984 1_555
Er0_2 Mg1_3 3.489984 1_554
Er0_2 Mg1_5 3.489984 1_565
Er0_2 Mg1_0 3.489984 1_565
Er0_3 Ru0_7 2.891508 1_555
Er0_3 Ru0_1 2.891508 1_565
Er0_3 Ru0_4 2.891508 1_566
Er0_3 Ru0_2 2.891508 1_555
Er0_3 Mg1_7 3.489984 1_555
Er0_3 Mg1_2 3.489984 1_555
Er0_3 Mg1_4 3.489984 1_566
Er0_3 Mg1_1 3.489984 1_565
Er0_4 Ru0_3 2.891508 1_655
Er0_4 Ru0_5 2.891508 1_554
Er0_4 Ru0_6 2.891508 1_555
Er0_4 Ru0_0 2.891508 1_655
Er0_4 Mg1_6 3.489984 1_555
Er0_4 Mg1_5 3.489984 1_554
Er0_4 Mg1_3 3.489984 1_655
Er0_4 Mg1_0 3.489984 1_655
Er0_5 Ru0_4 2.891508 1_555
Er0_5 Ru0_2 2.891508 1_656
Er0_5 Ru0_7 2.891508 1_555
Er0_5 Ru0_1 2.891508 1_655
Er0_5 Mg1_7 3.489984 1_555
Er0_5 Mg1_4 3.489984 1_555
Er0_5 Mg1_2 3.489984 1_656
Er0_5 Mg1_1 3.489984 1_655
Er0_6 Ru0_1 2.891508 1_665
Er0_6 Ru0_7 2.891508 1_554
Er0_6 Ru0_4 2.891508 1_565
Er0_6 Ru0_2 2.891508 1_655
Er0_6 Mg1_7 3.489984 1_554
Er0_6 Mg1_4 3.489984 1_565
Er0_6 Mg1_2 3.489984 1_655
Er0_6 Mg1_1 3.489984 1_665
Er0_7 Ru0_5 2.891508 1_565
Er0_7 Ru0_3 2.891508 1_655
Er0_7 Ru0_0 2.891508 1_666
Er0_7 Ru0_6 2.891508 1_555
Er0_7 Mg1_6 3.489984 1_555
Er0_7 Mg1_3 3.489984 1_655
Er0_7 Mg1_5 3.489984 1_565
Er0_7 Mg1_0 3.489984 1_666
Er1_0 Ru0_2 2.891508 1_555
Er1_0 Ru0_4 2.891508 1_555
Er1_0 Ru0_1 2.891508 1_554
Er1_0 Ru0_7 2.891508 1_555
Er1_0 Mg0_2 3.489984 1_545
Er1_0 Mg0_7 3.489984 1_444
Er1_0 Mg0_4 3.489984 1_455
Er1_0 Mg0_1 3.489984 1_555
Er1_1 Ru0_3 2.891508 1_555
Er1_1 Ru0_6 2.891508 1_556
Er1_1 Ru0_0 2.891508 1_555
Er1_1 Ru0_5 2.891508 1_555
Er1_1 Mg0_6 3.489984 1_445
Er1_1 Mg0_0 3.489984 1_556
Er1_1 Mg0_5 3.489984 1_455
Er1_1 Mg0_3 3.489984 1_545
Er1_2 Ru0_5 2.891508 1_565
Er1_2 Ru0_0 2.891508 1_565
Er1_2 Ru0_6 2.891508 1_555
Er1_2 Ru0_3 2.891508 1_554
Er1_2 Mg0_6 3.489984 1_455
Er1_2 Mg0_0 3.489984 1_555
Er1_2 Mg0_5 3.489984 1_454
Er1_2 Mg0_3 3.489984 1_555
Er1_3 Ru0_7 2.891508 1_555
Er1_3 Ru0_1 2.891508 1_565
Er1_3 Ru0_4 2.891508 1_566
Er1_3 Ru0_2 2.891508 1_555
Er1_3 Mg0_1 3.489984 1_555
Er1_3 Mg0_2 3.489984 1_556
Er1_3 Mg0_4 3.489984 1_455
Er1_3 Mg0_7 3.489984 1_455
Er1_4 Ru0_6 2.891508 1_555
Er1_4 Ru0_0 2.891508 1_655
Er1_4 Ru0_3 2.891508 1_655
Er1_4 Ru0_5 2.891508 1_554
Er1_4 Mg0_6 3.489984 1_545
Er1_4 Mg0_3 3.489984 1_544
Er1_4 Mg0_0 3.489984 1_555
Er1_4 Mg0_5 3.489984 1_555
Er1_5 Ru0_7 2.891508 1_555
Er1_5 Ru0_1 2.891508 1_655
Er1_5 Ru0_4 2.891508 1_555
Er1_5 Ru0_2 2.891508 1_656
Er1_5 Mg0_2 3.489984 1_545
Er1_5 Mg0_1 3.489984 1_555
Er1_5 Mg0_4 3.489984 1_556
Er1_5 Mg0_7 3.489984 1_545
Er1_6 Ru0_2 2.891508 1_655
Er1_6 Ru0_4 2.891508 1_565
Er1_6 Ru0_7 2.891508 1_554
Er1_6 Ru0_1 2.891508 1_665
Er1_6 Mg0_1 3.489984 1_554
Er1_6 Mg0_4 3.489984 1_555
Er1_6 Mg0_7 3.489984 1_555
Er1_6 Mg0_2 3.489984 1_555
Er1_7 Ru0_5 2.891508 1_565
Er1_7 Ru0_3 2.891508 1_655
Er1_7 Ru0_0 2.891508 1_666
Er1_7 Ru0_6 2.891508 1_555
Er1_7 Mg0_6 3.489984 1_556
Er1_7 Mg0_0 3.489984 1_555
Er1_7 Mg0_3 3.489984 1_555
Er1_7 Mg0_5 3.489984 1_555
Mg0_0 Mg1_4 3.125998 1_555
Mg0_0 Mg1_2 3.125998 1_555
Mg0_0 Mg1_1 3.125998 1_554
Mg0_0 Mg1_7 3.125998 1_555
Mg0_0 Mg0_5 3.374476 1_454
Mg0_0 Mg0_3 3.374476 1_555
Mg0_0 Mg0_5 3.374476 1_555
Mg0_0 Mg0_3 3.374476 1_544
Mg0_1 Mg1_3 3.125998 1_555
Mg0_1 Mg1_5 3.125998 1_555
Mg0_1 Mg1_6 3.125998 1_556
Mg0_1 Mg1_0 3.125998 1_555
Mg0_1 Mg0_4 3.374476 1_556
Mg0_1 Mg0_2 3.374476 1_545
Mg0_1 Mg0_2 3.374476 1_556
Mg0_1 Mg0_4 3.374476 1_455
Mg0_2 Mg1_5 3.125998 1_565
Mg0_2 Mg1_0 3.125998 1_565
Mg0_2 Mg1_6 3.125998 1_555
Mg0_2 Mg1_3 3.125998 1_554
Mg0_2 Mg0_7 3.374476 1_555
Mg0_2 Mg0_7 3.374476 1_454
Mg0_3 Mg1_4 3.125998 1_566
Mg0_3 Mg1_1 3.125998 1_565
Mg0_3 Mg1_7 3.125998 1_555
Mg0_3 Mg1_2 3.125998 1_555
Mg0_3 Mg0_6 3.374476 1_455
Mg0_3 Mg0_6 3.374476 1_556
Mg0_4 Mg1_3 3.125998 1_655
Mg0_4 Mg1_0 3.125998 1_655
Mg0_4 Mg1_6 3.125998 1_555
Mg0_4 Mg1_5 3.125998 1_554
Mg0_4 Mg0_7 3.374476 1_544
Mg0_4 Mg0_7 3.374476 1_555
Mg0_5 Mg1_2 3.125998 1_656
Mg0_5 Mg1_1 3.125998 1_655
Mg0_5 Mg1_7 3.125998 1_555
Mg0_5 Mg1_4 3.125998 1_555
Mg0_5 Mg0_6 3.374476 1_556
Mg0_5 Mg0_6 3.374476 1_545
Mg0_6 Mg1_1 3.125998 1_665
Mg0_6 Mg1_2 3.125998 1_655
Mg0_6 Mg1_4 3.125998 1_565
Mg0_6 Mg1_7 3.125998 1_554
Mg0_7 Mg1_0 3.125998 1_666
Mg0_7 Mg1_3 3.125998 1_655
Mg0_7 Mg1_5 3.125998 1_565
Mg0_7 Mg1_6 3.125998 1_555
Mg1_0 Mg1_5 3.374476 1_555
Mg1_0 Mg1_3 3.374476 1_544
Mg1_0 Mg1_3 3.374476 1_555
Mg1_0 Mg1_5 3.374476 1_454
Mg1_1 Mg1_2 3.374476 1_545
Mg1_1 Mg1_2 3.374476 1_556
Mg1_1 Mg1_4 3.374476 1_455
Mg1_1 Mg1_4 3.374476 1_556
Mg1_2 Mg1_7 3.374476 1_454
Mg1_2 Mg1_7 3.374476 1_555
Mg1_3 Mg1_6 3.374476 1_556
Mg1_3 Mg1_6 3.374476 1_455
Mg1_4 Mg1_7 3.374476 1_544
Mg1_4 Mg1_7 3.374476 1_555
Mg1_5 Mg1_6 3.374476 1_556
Mg1_5 Mg1_6 3.374476 1_545
