# generated using pymatgen
data_SiWO4
_symmetry_space_group_name_H-M   'P 1'
_cell_length_a   10.02589469
_cell_length_b   10.02589469
_cell_length_c   10.02589469
_cell_angle_alpha   109.47122063
_cell_angle_beta   109.47122063
_cell_angle_gamma   109.47122063
_symmetry_Int_Tables_number   1
_chemical_formula_structural   SiWO4
_chemical_formula_sum   'Si12 W12 O48'
_cell_volume   775.79598087
_cell_formula_units_Z   12
loop_
 _symmetry_equiv_pos_site_id
 _symmetry_equiv_pos_as_xyz
  1  'x, y, z'
loop_
 _atom_site_type_symbol
 _atom_site_label
 _atom_site_symmetry_multiplicity
 _atom_site_fract_x
 _atom_site_fract_y
 _atom_site_fract_z
 _atom_site_occupancy
  Si  Si0  1  0.12500000  0.87500000  0.25000000  1
  Si  Si1  1  0.25000000  0.12500000  0.87500000  1
  Si  Si2  1  0.75000000  0.37500000  0.62500000  1
  Si  Si3  1  0.62500000  0.37500000  0.25000000  1
  Si  Si4  1  0.62500000  0.75000000  0.37500000  1
  Si  Si5  1  0.37500000  0.62500000  0.75000000  1
  Si  Si6  1  0.12500000  0.75000000  0.87500000  1
  Si  Si7  1  0.75000000  0.87500000  0.12500000  1
  Si  Si8  1  0.87500000  0.25000000  0.12500000  1
  Si  Si9  1  0.37500000  0.25000000  0.62500000  1
  Si  Si10  1  0.25000000  0.62500000  0.37500000  1
  Si  Si11  1  0.87500000  0.12500000  0.75000000  1
  W  W0  1  0.87500000  0.62500000  0.25000000  1
  W  W1  1  0.62500000  0.25000000  0.87500000  1
  W  W2  1  0.87500000  0.75000000  0.62500000  1
  W  W3  1  0.75000000  0.62500000  0.87500000  1
  W  W4  1  0.25000000  0.87500000  0.62500000  1
  W  W5  1  0.62500000  0.87500000  0.75000000  1
  W  W6  1  0.12500000  0.37500000  0.75000000  1
  W  W7  1  0.37500000  0.75000000  0.12500000  1
  W  W8  1  0.12500000  0.25000000  0.37500000  1
  W  W9  1  0.25000000  0.37500000  0.12500000  1
  W  W10  1  0.75000000  0.12500000  0.37500000  1
  W  W11  1  0.37500000  0.12500000  0.25000000  1
  O  O0  1  0.46861400  0.36964700  0.27436000  1
  O  O1  1  0.30574600  0.90103300  0.03138600  1
  O  O2  1  0.59896700  0.90471300  0.13035300  1
  O  O3  1  0.59528700  0.19425400  0.22564000  1
  O  O4  1  0.13035300  0.03138600  0.22564000  1
  O  O5  1  0.19425400  0.22564000  0.59528700  1
  O  O6  1  0.19425400  0.46861400  0.59896700  1
  O  O7  1  0.22564000  0.59528700  0.19425400  1
  O  O8  1  0.36964700  0.59528700  0.90103300  1
  O  O9  1  0.90471300  0.27436000  0.30574600  1
  O  O10  1  0.27436000  0.30574600  0.90471300  1
  O  O11  1  0.22564000  0.13035300  0.03138600  1
  O  O12  1  0.46861400  0.59896700  0.19425400  1
  O  O13  1  0.90103300  0.36964700  0.59528700  1
  O  O14  1  0.03138600  0.22564000  0.13035300  1
  O  O15  1  0.59896700  0.19425400  0.46861400  1
  O  O16  1  0.59528700  0.90103300  0.36964700  1
  O  O17  1  0.03138600  0.30574600  0.90103300  1
  O  O18  1  0.90471300  0.13035300  0.59896700  1
  O  O19  1  0.63035300  0.40471300  0.09896700  1
  O  O20  1  0.36964700  0.27436000  0.46861400  1
  O  O21  1  0.27436000  0.46861400  0.36964700  1
  O  O22  1  0.90103300  0.03138600  0.30574600  1
  O  O23  1  0.30574600  0.90471300  0.27436000  1
  O  O24  1  0.53138600  0.63035300  0.72564000  1
  O  O25  1  0.69425400  0.09896700  0.96861400  1
  O  O26  1  0.40103300  0.09528700  0.86964700  1
  O  O27  1  0.40471300  0.80574600  0.77436000  1
  O  O28  1  0.86964700  0.96861400  0.77436000  1
  O  O29  1  0.80574600  0.77436000  0.40471300  1
  O  O30  1  0.80574600  0.53138600  0.40103300  1
  O  O31  1  0.77436000  0.40471300  0.80574600  1
  O  O32  1  0.69425400  0.09528700  0.72564000  1
  O  O33  1  0.09896700  0.96861400  0.69425400  1
  O  O34  1  0.72564000  0.53138600  0.63035300  1
  O  O35  1  0.63035300  0.72564000  0.53138600  1
  O  O36  1  0.86964700  0.40103300  0.09528700  1
  O  O37  1  0.09528700  0.86964700  0.40103300  1
  O  O38  1  0.96861400  0.69425400  0.09896700  1
  O  O39  1  0.40471300  0.09896700  0.63035300  1
  O  O40  1  0.40103300  0.80574600  0.53138600  1
  O  O41  1  0.96861400  0.77436000  0.86964700  1
  O  O42  1  0.09896700  0.63035300  0.40471300  1
  O  O43  1  0.53138600  0.40103300  0.80574600  1
  O  O44  1  0.77436000  0.86964700  0.96861400  1
  O  O45  1  0.72564000  0.69425400  0.09528700  1
  O  O46  1  0.09528700  0.72564000  0.69425400  1
  O  O47  1  0.13035300  0.59896700  0.90471300  1
loop_
_geom_bond_atom_site_label_1
_geom_bond_atom_site_label_2
_geom_bond_distance
_geom_bond_site_symmetry_2
O0 Si3 1.651907 1_555
O0 W11 2.206780 1_555
O0 W9 2.234542 1_555
O1 Si6 1.651907 1_554
O1 W7 2.206780 1_555
O1 W11 2.234542 1_565
O2 Si7 1.651907 1_555
O2 W10 2.206780 1_565
O2 W7 2.234542 1_555
O3 Si3 1.651907 1_555
O3 W11 2.206780 1_555
O3 W10 2.234542 1_555
O4 Si0 1.651907 1_545
O4 W11 2.206780 1_555
O4 W8 2.234542 1_555
O5 Si9 1.651907 1_555
O5 W8 2.206780 1_555
O5 W6 2.234542 1_555
O6 Si5 1.651907 1_555
O6 W6 2.206780 1_555
O6 W8 2.234542 1_555
O7 Si10 1.651907 1_555
O7 W9 2.206780 1_555
O7 W7 2.234542 1_555
O8 Si5 1.651907 1_555
O8 W6 2.206780 1_555
O8 W7 2.234542 1_556
O9 Si8 1.651907 1_555
O9 W8 2.206780 1_655
O9 W10 2.234542 1_555
O10 Si1 1.651907 1_555
O10 W9 2.206780 1_556
O10 W6 2.234542 1_555
O11 Si1 1.651907 1_554
O11 W9 2.206780 1_555
O11 W11 2.234542 1_555
O12 Si4 1.651907 1_555
O12 W7 2.206780 1_555
O12 W9 2.234542 1_555
O13 Si2 1.651907 1_555
O13 W10 2.206780 1_555
O13 W6 2.234542 1_655
O14 Si8 1.651907 1_455
O14 W8 2.206780 1_555
O14 W9 2.234542 1_555
O15 Si2 1.651907 1_555
O15 W10 2.206780 1_555
O15 W11 2.234542 1_555
O16 Si4 1.651907 1_555
O16 W7 2.206780 1_555
O16 W10 2.234542 1_565
O17 Si11 1.651907 1_455
O17 W6 2.206780 1_555
O17 W9 2.234542 1_556
O18 Si11 1.651907 1_555
O18 W6 2.206780 1_655
O18 W10 2.234542 1_555
O19 Si3 1.651907 1_555
O19 W0 2.206780 1_555
O19 W1 2.234542 1_554
O20 Si9 1.651907 1_555
O20 W8 2.206780 1_555
O20 W11 2.234542 1_555
O21 Si10 1.651907 1_555
O21 W9 2.206780 1_555
O21 W8 2.234542 1_555
O22 Si7 1.651907 1_545
O22 W10 2.206780 1_555
O22 W8 2.234542 1_655
O23 Si0 1.651907 1_555
O23 W11 2.206780 1_565
O23 W7 2.234542 1_555
O24 Si5 1.651907 1_555
O24 W5 2.206780 1_555
O24 W3 2.234542 1_555
O25 Si8 1.651907 1_556
O25 W1 2.206780 1_555
O25 W5 2.234542 1_545
O26 Si1 1.651907 1_555
O26 W4 2.206780 1_545
O26 W1 2.234542 1_555
O27 Si5 1.651907 1_555
O27 W5 2.206780 1_555
O27 W4 2.234542 1_555
O28 Si11 1.651907 1_565
O28 W5 2.206780 1_555
O28 W2 2.234542 1_555
O29 Si4 1.651907 1_555
O29 W2 2.206780 1_555
O29 W0 2.234542 1_555
O30 Si3 1.651907 1_555
O30 W0 2.206780 1_555
O30 W2 2.234542 1_555
O31 Si2 1.651907 1_555
O31 W3 2.206780 1_555
O31 W1 2.234542 1_555
O32 Si11 1.651907 1_555
O32 W5 2.206780 1_545
O32 W1 2.234542 1_555
O33 Si1 1.651907 1_565
O33 W4 2.206780 1_555
O33 W2 2.234542 1_455
O34 Si2 1.651907 1_555
O34 W3 2.206780 1_555
O34 W2 2.234542 1_555
O35 Si4 1.651907 1_555
O35 W2 2.206780 1_555
O35 W5 2.234542 1_555
O36 Si8 1.651907 1_555
O36 W1 2.206780 1_554
O36 W0 2.234542 1_555
O37 Si0 1.651907 1_555
O37 W0 2.206780 1_455
O37 W4 2.234542 1_555
O38 Si0 1.651907 1_655
O38 W0 2.206780 1_555
O38 W3 2.234542 1_554
O39 Si9 1.651907 1_555
O39 W1 2.206780 1_555
O39 W4 2.234542 1_545
O40 Si10 1.651907 1_555
O40 W4 2.206780 1_555
O40 W5 2.234542 1_555
O41 Si6 1.651907 1_655
O41 W2 2.206780 1_555
O41 W3 2.234542 1_555
O42 Si10 1.651907 1_555
O42 W4 2.206780 1_555
O42 W0 2.234542 1_455
O43 Si9 1.651907 1_555
O43 W1 2.206780 1_555
O43 W3 2.234542 1_555
O44 Si7 1.651907 1_556
O44 W3 2.206780 1_555
O44 W5 2.234542 1_555
O45 Si7 1.651907 1_555
O45 W3 2.206780 1_554
O45 W0 2.234542 1_555
O46 Si6 1.651907 1_555
O46 W2 2.206780 1_455
O46 W4 2.234542 1_555
O47 Si6 1.651907 1_555
O47 W7 2.206780 1_556
O47 W6 2.234542 1_555
