# generated using pymatgen
data_In2Te3
_symmetry_space_group_name_H-M   'P 1'
_cell_length_a   4.56679880
_cell_length_b   4.56679880
_cell_length_c   10.64132500
_cell_angle_alpha   90.00000000
_cell_angle_beta   90.00000000
_cell_angle_gamma   120.00001152
_symmetry_Int_Tables_number   1
_chemical_formula_structural   In2Te3
_chemical_formula_sum   'In2 Te3'
_cell_volume   192.19852225
_cell_formula_units_Z   1
loop_
 _symmetry_equiv_pos_site_id
 _symmetry_equiv_pos_as_xyz
  1  'x, y, z'
loop_
 _atom_site_type_symbol
 _atom_site_label
 _atom_site_symmetry_multiplicity
 _atom_site_fract_x
 _atom_site_fract_y
 _atom_site_fract_z
 _atom_site_occupancy
  In  In0  1  0.00000000  0.00000000  0.96871500  1
  In  In1  1  0.66666700  0.33333300  0.38118700  1
  Te  Te0  1  0.00000000  0.00000000  0.24886100  1
  Te  Te1  1  0.66666700  0.33333300  0.63462400  1
  Te  Te2  1  0.33333300  0.66666700  0.84994600  1
loop_
_geom_bond_atom_site_label_1
_geom_bond_atom_site_label_2
_geom_bond_distance
_geom_bond_site_symmetry_2
In0 Te2 2.923903 1_545
In0 Te2 2.923907 1_555
In0 Te2 2.923907 1_445
In0 Te0 2.981125 1_556
In1 Te1 2.696905 1_555
In1 Te0 2.989094 1_655
In1 Te0 2.989097 1_555
In1 Te0 2.989097 1_665
