# generated using pymatgen
data_Ca2YSnO5
_symmetry_space_group_name_H-M   'P 1'
_cell_length_a   5.97216400
_cell_length_b   6.04101985
_cell_length_c   8.72158981
_cell_angle_alpha   109.78557973
_cell_angle_beta   108.77942377
_cell_angle_gamma   89.36001362
_symmetry_Int_Tables_number   1
_chemical_formula_structural   Ca2YSnO5
_chemical_formula_sum   'Ca4 Y2 Sn2 O10'
_cell_volume   278.62541209
_cell_formula_units_Z   2
loop_
 _symmetry_equiv_pos_site_id
 _symmetry_equiv_pos_as_xyz
  1  'x, y, z'
loop_
 _atom_site_type_symbol
 _atom_site_label
 _atom_site_symmetry_multiplicity
 _atom_site_fract_x
 _atom_site_fract_y
 _atom_site_fract_z
 _atom_site_occupancy
  Ca  Ca0  1  0.37197900  0.81871100  0.74728500  1
  Ca  Ca1  1  0.12701400  0.55128000  0.24558300  1
  Ca  Ca2  1  0.63778100  0.08910300  0.23899000  1
  Ca  Ca3  1  0.86320300  0.31826800  0.75278600  1
  Y  Y0  1  0.72295000  0.63907200  0.45602200  1
  Y  Y1  1  0.27980900  0.19214000  0.53418800  1
  Sn  Sn0  1  0.50634600  0.51854300  0.99876800  1
  Sn  Sn1  1  0.98973000  0.96639600  0.97014300  1
  O  O0  1  0.58819100  0.32468000  0.50402700  1
  O  O1  1  0.38803400  0.81945300  0.48636300  1
  O  O2  1  0.22346400  0.45833600  0.76095700  1
  O  O3  1  0.78978200  0.73659900  0.24497200  1
  O  O4  1  0.97934900  0.91731600  0.70385500  1
  O  O5  1  0.98998400  0.34909500  0.38489500  1
  O  O6  1  0.30622100  0.81305800  0.06550000  1
  O  O7  1  0.72413000  0.67943000  0.89289800  1
  O  O8  1  0.58227200  0.19601000  0.84872700  1
  O  O9  1  0.43651300  0.38680500  0.16763300  1
loop_
_geom_bond_atom_site_label_1
_geom_bond_atom_site_label_2
_geom_bond_distance
_geom_bond_site_symmetry_2
Ca0 O1 2.309809 1_555
Ca0 O8 2.353392 1_565
Ca0 O4 2.355063 1_455
Ca0 O7 2.389156 1_555
Ca0 O2 2.413992 1_555
Ca0 O6 2.936686 1_556
Ca1 O1 2.260533 1_555
Ca1 O9 2.275229 1_555
Ca1 O3 2.292666 1_455
Ca1 O5 2.303270 1_455
Ca1 O6 2.985752 1_555
Ca2 O9 2.300925 1_555
Ca2 O3 2.315819 1_545
Ca2 O6 2.329748 1_545
Ca2 O5 2.346882 1_555
Ca2 O0 2.379183 1_555
Ca3 O0 2.273168 1_555
Ca3 O2 2.291570 1_655
Ca3 O8 2.326048 1_555
Ca3 O7 2.398193 1_555
Ca3 O4 2.446094 1_545
O0 Y1 2.142340 1_555
O0 Y0 2.284639 1_555
O1 Y1 2.272859 1_565
O1 Y0 2.314089 1_555
O2 Sn0 2.129607 1_555
O2 Y1 2.207730 1_555
O3 Sn0 2.237410 1_554
O3 Y0 2.259873 1_555
O4 Sn1 2.219702 1_555
O4 Y0 2.304116 1_555
O5 Y1 2.222263 1_655
O5 Y0 2.415706 1_555
O6 Sn1 2.143053 1_454
O6 Sn0 2.152201 1_554
O7 Sn1 2.134923 1_555
O7 Sn0 2.213125 1_555
O8 Sn0 2.085799 1_555
O8 Y1 2.748833 1_555
O9 Sn0 2.042724 1_554
O9 Y0 2.503600 1_555
