# generated using pymatgen
data_YCu(WO4)2
_symmetry_space_group_name_H-M   'P 1'
_cell_length_a   6.07513800
_cell_length_b   5.07384300
_cell_length_c   11.03530589
_cell_angle_alpha   65.78107786
_cell_angle_beta   90.00000000
_cell_angle_gamma   90.00000000
_symmetry_Int_Tables_number   1
_chemical_formula_structural   YCu(WO4)2
_chemical_formula_sum   'Y2 Cu2 W4 O16'
_cell_volume   310.21664385
_cell_formula_units_Z   2
loop_
 _symmetry_equiv_pos_site_id
 _symmetry_equiv_pos_as_xyz
  1  'x, y, z'
loop_
 _atom_site_type_symbol
 _atom_site_label
 _atom_site_symmetry_multiplicity
 _atom_site_fract_x
 _atom_site_fract_y
 _atom_site_fract_z
 _atom_site_occupancy
  Y  Y0  1  0.66518200  0.50000000  0.75000000  1
  Y  Y1  1  0.33481800  0.50000000  0.25000000  1
  Cu  Cu0  1  0.27044800  0.00000000  0.75000000  1
  Cu  Cu1  1  0.72955200  0.00000000  0.25000000  1
  W  W0  1  0.16677000  0.73705000  0.51331500  1
  W  W1  1  0.16677000  0.26295000  0.98668500  1
  W  W2  1  0.83323000  0.26295000  0.48668500  1
  W  W3  1  0.83323000  0.73705000  0.01331500  1
  O  O0  1  0.35578100  0.22994100  0.86228400  1
  O  O1  1  0.35578100  0.77005900  0.63771600  1
  O  O2  1  0.64421900  0.77005900  0.13771600  1
  O  O3  1  0.64421900  0.22994100  0.36228400  1
  O  O4  1  0.91275800  0.65964200  0.38974400  1
  O  O5  1  0.91275800  0.34035800  0.11025600  1
  O  O6  1  0.08724200  0.34035800  0.61025600  1
  O  O7  1  0.08724200  0.65964200  0.88974400  1
  O  O8  1  0.64022900  0.71383900  0.89104400  1
  O  O9  1  0.64022900  0.28616100  0.60895600  1
  O  O10  1  0.35977100  0.28616100  0.10895600  1
  O  O11  1  0.35977100  0.71383900  0.39104400  1
  O  O12  1  0.88611400  0.15861500  0.90407200  1
  O  O13  1  0.11388600  0.84138500  0.09592800  1
  O  O14  1  0.88611400  0.84138500  0.59592800  1
  O  O15  1  0.11388600  0.15861500  0.40407200  1
loop_
_geom_bond_atom_site_label_1
_geom_bond_atom_site_label_2
_geom_bond_distance
_geom_bond_site_symmetry_2
Cu0 O0 2.085978 1_555
Cu0 O1 2.085978 1_545
Cu0 O7 2.101003 1_545
Cu0 O6 2.101003 1_555
Cu1 O3 2.085978 1_555
Cu1 O2 2.085978 1_545
Cu1 O4 2.101003 1_545
Cu1 O5 2.101003 1_555
O0 W1 1.849269 1_555
O0 Y0 2.356479 1_555
O1 W0 1.849269 1_555
O1 Y0 2.356479 1_555
O2 W3 1.849269 1_555
O2 Y1 2.356479 1_555
O3 W2 1.849269 1_555
O3 Y1 2.356479 1_555
O4 W2 1.913749 1_555
O4 W0 2.198757 1_655
O5 W3 1.913749 1_555
O5 W1 2.198757 1_654
O6 W0 1.913749 1_555
O6 W2 2.198757 1_455
O7 W1 1.913749 1_555
O7 W3 2.198757 1_456
O8 W3 1.827463 1_556
O8 Y0 2.237918 1_555
O9 W2 1.827463 1_555
O9 Y0 2.237918 1_555
O10 W1 1.827463 1_554
O10 Y1 2.237918 1_555
O11 W0 1.827463 1_555
O11 Y1 2.237918 1_555
O12 W3 2.004011 1_546
O12 W1 2.101055 1_655
O12 Y0 2.297022 1_555
O13 W1 2.004011 1_564
O13 W3 2.101055 1_455
O13 Y1 2.297022 1_555
O14 W2 2.004011 1_565
O14 W0 2.101055 1_655
O14 Y0 2.297022 1_555
O15 W0 2.004011 1_545
O15 W2 2.101055 1_455
O15 Y1 2.297022 1_555
