# generated using pymatgen
data_Na11Zr8Si7P5O48
_symmetry_space_group_name_H-M   'P 1'
_cell_length_a   9.14790939
_cell_length_b   9.15690788
_cell_length_c   18.55550553
_cell_angle_alpha   60.84479755
_cell_angle_beta   60.71301598
_cell_angle_gamma   60.04385960
_symmetry_Int_Tables_number   1
_chemical_formula_structural   Na11Zr8Si7P5O48
_chemical_formula_sum   'Na11 Zr8 Si7 P5 O48'
_cell_volume   1112.21388682
_cell_formula_units_Z   1
loop_
 _symmetry_equiv_pos_site_id
 _symmetry_equiv_pos_as_xyz
  1  'x, y, z'
loop_
 _atom_site_type_symbol
 _atom_site_label
 _atom_site_symmetry_multiplicity
 _atom_site_fract_x
 _atom_site_fract_y
 _atom_site_fract_z
 _atom_site_occupancy
  Na  Na0  1  0.24275500  0.09943000  0.15767300  1
  Na  Na1  1  0.53380400  0.00988400  0.25823100  1
  Na  Na2  1  0.62134600  0.41047000  0.11267800  1
  Na  Na3  1  0.25169300  0.08280200  0.65917400  1
  Na  Na4  1  0.37694000  0.61182000  0.38009900  1
  Na  Na5  1  0.51984800  0.00675000  0.75816400  1
  Na  Na6  1  0.95391300  0.67794900  0.03444100  1
  Na  Na7  1  0.59432900  0.40275800  0.62625000  1
  Na  Na8  1  0.38097700  0.60911800  0.88060600  1
  Na  Na9  1  0.99683500  0.47158400  0.48995700  1
  Na  Na10  1  0.91968900  0.75158700  0.58528500  1
  Zr  Zr0  1  0.14409300  0.64947700  0.28221200  1
  Zr  Zr1  1  0.65337200  0.14507600  0.02803200  1
  Zr  Zr2  1  0.14516000  0.64690700  0.78474400  1
  Zr  Zr3  1  0.34951200  0.85682800  0.46883900  1
  Zr  Zr4  1  0.64530200  0.15031100  0.52626900  1
  Zr  Zr5  1  0.84686600  0.34875100  0.22583000  1
  Zr  Zr6  1  0.34398800  0.85431400  0.97307300  1
  Zr  Zr7  1  0.85219300  0.35235500  0.72251400  1
  Si  Si0  1  0.24881500  0.46727800  0.12204500  1
  Si  Si1  1  0.04607300  0.95114700  0.37599400  1
  Si  Si2  1  0.45891700  0.25227300  0.36903300  1
  Si  Si3  1  0.52958200  0.75351900  0.13050200  1
  Si  Si4  1  0.25168000  0.46294500  0.62293100  1
  Si  Si5  1  0.05447000  0.95929100  0.87239700  1
  Si  Si6  1  0.53688700  0.74877600  0.62914700  1
  P  P0  1  0.95330000  0.04231100  0.12848700  1
  P  P1  1  0.74557500  0.53218000  0.38519600  1
  P  P2  1  0.46885900  0.24877600  0.86803400  1
  P  P3  1  0.95587000  0.04111200  0.62796000  1
  P  P4  1  0.74487000  0.54208700  0.87853400  1
  O  O0  1  0.11221200  0.99945300  0.04736100  1
  O  O1  1  0.00507800  0.11502100  0.28901000  1
  O  O2  1  0.06945400  0.43237800  0.14529800  1
  O  O3  1  0.26886600  0.63246400  0.02813600  1
  O  O4  1  0.10905000  0.99858800  0.54604600  1
  O  O5  1  0.42166700  0.28364600  0.11240200  1
  O  O6  1  0.24279100  0.51953800  0.19601800  1
  O  O7  1  0.05697900  0.76300200  0.37966900  1
  O  O8  1  0.00968500  0.12109100  0.78536800  1
  O  O9  1  0.27521000  0.42656600  0.36833800  1
  O  O10  1  0.42939600  0.07429100  0.38824100  1
  O  O11  1  0.06812200  0.43663900  0.64254500  1
  O  O12  1  0.48619800  0.75964700  0.05278500  1
  O  O13  1  0.77322000  0.08303900  0.12074800  1
  O  O14  1  0.35510400  0.74602600  0.21942500  1
  O  O15  1  0.61865800  0.28738600  0.27625600  1
  O  O16  1  0.23898800  0.92160700  0.37579900  1
  O  O17  1  0.51191400  0.23336900  0.44765700  1
  O  O18  1  0.27448300  0.62548700  0.53030900  1
  O  O19  1  0.55936700  0.93796000  0.10529300  1
  O  O20  1  0.71215800  0.58438900  0.14052200  1
  O  O21  1  0.41729900  0.27220900  0.62143000  1
  O  O22  1  0.94565400  0.21122000  0.13235700  1
  O  O23  1  0.23727800  0.51866500  0.69812900  1
  O  O24  1  0.75927000  0.46903300  0.31764400  1
  O  O25  1  0.07466200  0.76716300  0.87555300  1
  O  O26  1  0.58611300  0.71008000  0.38334700  1
  O  O27  1  0.29764300  0.41415900  0.86333900  1
  O  O28  1  0.43868600  0.07980000  0.88914400  1
  O  O29  1  0.70701600  0.39049700  0.47728000  1
  O  O30  1  0.48440700  0.76626300  0.55243400  1
  O  O31  1  0.77615300  0.06284200  0.62821400  1
  O  O32  1  0.36891200  0.72924700  0.72063700  1
  O  O33  1  0.61921400  0.27798200  0.77815100  1
  O  O34  1  0.24453800  0.93753900  0.87159800  1
  O  O35  1  0.52457400  0.23601000  0.93829900  1
  O  O36  1  0.91749200  0.55628000  0.36476400  1
  O  O37  1  0.57205200  0.92480300  0.61175200  1
  O  O38  1  0.72282100  0.57654600  0.63348000  1
  O  O39  1  0.97754000  0.88267900  0.21102600  1
  O  O40  1  0.94280800  0.22010600  0.62609000  1
  O  O41  1  0.75487600  0.48987900  0.80684100  1
  O  O42  1  0.58265600  0.71736600  0.88138600  1
  O  O43  1  0.88472400  0.00050100  0.46357000  1
  O  O44  1  0.71069700  0.39269900  0.96651200  1
  O  O45  1  0.91655000  0.56924400  0.85485000  1
  O  O46  1  0.99669200  0.88994000  0.71029700  1
  O  O47  1  0.88956100  0.99979900  0.96031900  1
loop_
_geom_bond_atom_site_label_1
_geom_bond_atom_site_label_2
_geom_bond_distance
_geom_bond_site_symmetry_2
Na0 O1 2.351967 1_555
Na0 O19 2.426705 1_545
Na0 O5 2.502236 1_555
Na0 O22 2.580190 1_455
Na0 O2 2.590012 1_555
Na0 O14 2.656920 1_545
Na1 O10 2.376803 1_555
Na1 O13 2.467224 1_555
Na1 O26 2.592359 1_545
Na1 O16 2.718234 1_545
Na1 O5 2.863006 1_555
Na2 O20 2.456867 1_555
Na2 O44 2.485720 1_554
Na2 O13 2.558954 1_555
Na2 O5 2.611276 1_555
Na2 O12 2.630793 1_555
Na2 O15 2.665557 1_555
Na2 O22 2.696070 1_555
Na2 O6 2.862273 1_555
Na3 O8 2.336688 1_555
Na3 O37 2.437024 1_545
Na3 O21 2.489192 1_555
Na3 O32 2.657763 1_545
Na3 O40 2.709074 1_455
Na3 O11 2.740846 1_555
Na4 O9 2.434595 1_555
Na4 O16 2.438987 1_555
Na4 O18 2.515871 1_555
Na4 O26 2.521850 1_555
Na4 O7 2.539521 1_555
Na4 O14 2.684475 1_555
Na4 O17 2.848446 1_555
Na4 O24 2.868642 1_555
Na5 O31 2.457668 1_555
Na5 O28 2.495624 1_555
Na5 O34 2.506542 1_545
Na5 O42 2.537940 1_545
Na5 O21 2.695956 1_555
Na5 O37 2.920780 1_545
Na6 O20 2.342972 1_555
Na6 O2 2.377309 1_655
Na6 O25 2.438838 1_654
Na6 O47 2.456405 1_554
Na6 O3 2.647174 1_655
Na7 O29 2.472870 1_555
Na7 O38 2.482423 1_555
Na7 O21 2.497784 1_555
Na7 O33 2.555768 1_555
Na7 O23 2.688668 1_555
Na7 O31 2.689711 1_555
Na7 O30 2.743961 1_555
Na7 O40 2.762363 1_555
Na8 O27 2.454837 1_555
Na8 O25 2.455633 1_555
Na8 O3 2.489146 1_556
Na8 O42 2.500589 1_555
Na8 O34 2.568176 1_555
Na8 O32 2.655351 1_555
Na8 O35 2.806123 1_555
Na8 O41 2.812624 1_555
Na9 O36 2.420074 1_555
Na9 O9 2.446039 1_655
Na9 O40 2.485006 1_555
Na9 O7 2.579781 1_655
Na9 O38 2.802889 1_555
Na10 O43 2.315420 1_565
Na10 O11 2.409344 1_655
Na10 O38 2.553939 1_555
Na10 O37 2.657796 1_555
Na10 O18 2.659645 1_655
Na10 O31 2.816606 1_565
O0 P0 1.548613 1_465
O0 Zr6 2.067212 1_554
O1 Si1 1.633342 1_545
O1 Zr5 2.042432 1_455
O2 Si0 1.636191 1_555
O2 Zr5 2.104961 1_455
O3 Si0 1.659584 1_555
O3 Zr6 2.080357 1_554
O4 P3 1.540589 1_465
O4 Zr3 2.110290 1_555
O5 Si0 1.649481 1_555
O5 Zr1 2.134644 1_555
O6 Si0 1.629646 1_555
O6 Zr0 2.038979 1_555
O7 Si1 1.644162 1_555
O7 Zr0 2.140160 1_555
O8 Si5 1.637264 1_545
O8 Zr7 2.027553 1_455
O9 Si2 1.641380 1_555
O9 Zr0 2.100241 1_555
O10 Si2 1.623420 1_555
O10 Zr3 2.053828 1_545
O11 Si4 1.652487 1_555
O11 Zr7 2.058704 1_455
O12 Si3 1.642895 1_555
O12 Zr6 2.034364 1_554
O13 P0 1.561793 1_555
O13 Zr1 2.180735 1_555
O14 Si3 1.642327 1_555
O14 Zr0 2.089379 1_555
O15 Si2 1.634342 1_555
O15 Zr5 2.073054 1_555
O16 Si1 1.644861 1_555
O16 Zr3 2.113193 1_555
O17 Si2 1.659982 1_555
O17 Zr4 1.982118 1_555
O18 Si4 1.636904 1_555
O18 Zr3 2.142755 1_555
O19 Si3 1.646383 1_555
O19 Zr1 2.040846 1_565
O20 Si3 1.631761 1_555
O20 Zr5 2.145943 1_555
O21 Si4 1.646246 1_555
O21 Zr4 2.169397 1_555
O22 P0 1.548401 1_555
O22 Zr5 2.206607 1_555
O23 Si4 1.634422 1_555
O23 Zr2 2.048841 1_555
O24 P1 1.549656 1_555
O24 Zr5 2.090193 1_555
O25 Si5 1.648739 1_555
O25 Zr2 2.122087 1_555
O26 P1 1.550530 1_555
O26 Zr3 2.195455 1_555
O27 P2 1.546069 1_555
O27 Zr2 2.146560 1_555
O28 P2 1.534258 1_555
O28 Zr6 2.184558 1_545
O29 P1 1.560311 1_555
O29 Zr4 2.184528 1_555
O30 Si6 1.628514 1_555
O30 Zr3 2.052783 1_555
O31 P3 1.552129 1_555
O31 Zr4 2.331155 1_555
O32 Si6 1.643653 1_555
O32 Zr2 2.111479 1_555
O33 P2 1.559928 1_555
O33 Zr7 2.164190 1_555
O34 Si5 1.641600 1_555
O34 Zr6 2.130548 1_555
O35 P2 1.554180 1_555
O35 Zr1 2.107759 1_556
O36 P1 1.532154 1_555
O36 Zr0 2.181300 1_655
O37 Si6 1.647751 1_555
O37 Zr4 2.092752 1_565
O38 Si6 1.648663 1_555
O38 Zr7 2.127525 1_555
O39 P0 1.535822 1_565
O39 Zr0 2.144199 1_655
O40 P3 1.566831 1_555
O40 Zr7 2.238848 1_555
O41 P4 1.569536 1_555
O41 Zr7 2.064995 1_555
O42 P4 1.551858 1_555
O42 Zr6 2.223552 1_555
O43 Si1 1.651138 1_645
O43 Zr4 2.023332 1_555
O44 P4 1.544626 1_555
O44 Zr1 2.190728 1_556
O45 P4 1.526358 1_555
O45 Zr2 2.119849 1_655
O46 P3 1.539848 1_565
O46 Zr2 2.127712 1_655
O47 Si5 1.642516 1_655
O47 Zr1 2.029480 1_566
