# generated using pymatgen
data_CaMg6Fe
_symmetry_space_group_name_H-M   'P 1'
_cell_length_a   5.06228200
_cell_length_b   6.49993900
_cell_length_c   11.15586900
_cell_angle_alpha   90.00000000
_cell_angle_beta   90.00000000
_cell_angle_gamma   90.00000000
_symmetry_Int_Tables_number   1
_chemical_formula_structural   CaMg6Fe
_chemical_formula_sum   'Ca2 Mg12 Fe2'
_cell_volume   367.07856149
_cell_formula_units_Z   2
loop_
 _symmetry_equiv_pos_site_id
 _symmetry_equiv_pos_as_xyz
  1  'x, y, z'
loop_
 _atom_site_type_symbol
 _atom_site_label
 _atom_site_symmetry_multiplicity
 _atom_site_fract_x
 _atom_site_fract_y
 _atom_site_fract_z
 _atom_site_occupancy
  Ca  Ca0  1  0.00000000  0.50000000  0.33394300  1
  Ca  Ca1  1  0.00000000  0.00000000  0.83394300  1
  Mg  Mg0  1  0.00000000  0.74570100  0.08147200  1
  Mg  Mg1  1  0.00000000  0.25429900  0.08147200  1
  Mg  Mg2  1  0.50000000  0.72900200  0.91260900  1
  Mg  Mg3  1  0.50000000  0.27099800  0.91260900  1
  Mg  Mg4  1  0.50000000  0.50000000  0.15964300  1
  Mg  Mg5  1  0.50000000  0.50000000  0.67499600  1
  Mg  Mg6  1  0.00000000  0.24570100  0.58147200  1
  Mg  Mg7  1  0.00000000  0.75429900  0.58147200  1
  Mg  Mg8  1  0.50000000  0.22900200  0.41260900  1
  Mg  Mg9  1  0.50000000  0.77099800  0.41260900  1
  Mg  Mg10  1  0.50000000  0.00000000  0.65964300  1
  Mg  Mg11  1  0.50000000  0.00000000  0.17499600  1
  Fe  Fe0  1  0.00000000  0.50000000  0.84325900  1
  Fe  Fe1  1  0.00000000  0.00000000  0.34325900  1
loop_
_geom_bond_atom_site_label_1
_geom_bond_atom_site_label_2
_geom_bond_distance
_geom_bond_site_symmetry_2
Ca0 Mg4 3.191807 1_455
Ca0 Mg4 3.191807 1_555
Ca0 Mg9 3.206184 1_455
Ca0 Mg9 3.206184 1_555
Ca0 Mg8 3.206184 1_455
Ca0 Mg8 3.206184 1_555
Ca0 Mg7 3.218308 1_555
Ca0 Mg6 3.218308 1_555
Ca0 Mg0 3.237808 1_555
Ca0 Mg1 3.237808 1_555
Ca0 Fe1 3.251631 1_555
Ca0 Fe1 3.251631 1_565
Ca1 Mg10 3.191807 1_455
Ca1 Mg10 3.191807 1_555
Ca1 Mg3 3.206184 1_455
Ca1 Mg3 3.206184 1_555
Ca1 Mg2 3.206184 1_445
Ca1 Mg2 3.206184 1_545
Ca1 Mg0 3.218308 1_546
Ca1 Mg1 3.218308 1_556
Ca1 Mg6 3.237808 1_555
Ca1 Mg7 3.237808 1_545
Ca1 Fe0 3.251631 1_555
Ca1 Fe0 3.251631 1_545
Mg0 Mg4 3.117325 1_555
Mg0 Mg4 3.117325 1_455
Mg0 Mg2 3.157089 1_454
Mg0 Mg2 3.157089 1_554
Mg0 Mg1 3.194083 1_555
Mg0 Mg11 3.198032 1_565
Mg0 Mg11 3.198032 1_465
Mg0 Mg1 3.305856 1_565
Mg1 Mg4 3.117325 1_555
Mg1 Mg4 3.117325 1_455
Mg1 Mg3 3.157089 1_454
Mg1 Mg3 3.157089 1_554
Mg1 Mg11 3.198032 1_455
Mg1 Mg11 3.198032 1_555
Mg2 Mg3 2.976998 1_555
Mg2 Mg5 3.040109 1_555
Mg2 Mg4 3.132171 1_556
Mg2 Mg3 3.522941 1_565
Mg3 Mg5 3.040109 1_555
Mg3 Mg4 3.132171 1_556
Mg4 Mg9 3.326676 1_555
Mg4 Mg8 3.326676 1_555
Mg5 Mg7 3.198032 1_655
Mg5 Mg7 3.198032 1_555
Mg5 Mg6 3.198032 1_655
Mg5 Mg6 3.198032 1_555
Mg5 Mg9 3.416287 1_555
Mg5 Mg8 3.416287 1_555
Mg6 Mg8 3.157089 1_555
Mg6 Mg8 3.157089 1_455
Mg6 Mg7 3.194083 1_545
Mg6 Mg7 3.305856 1_555
Mg7 Mg9 3.157089 1_455
Mg7 Mg9 3.157089 1_555
Mg8 Mg9 2.976998 1_545
Mg8 Mg9 3.522941 1_555
Mg10 Mg6 3.117325 1_655
Mg10 Mg6 3.117325 1_555
Mg10 Mg7 3.117325 1_545
Mg10 Mg7 3.117325 1_645
Mg10 Mg8 3.132171 1_555
Mg10 Mg9 3.132171 1_545
Mg10 Mg5 3.254480 1_555
Mg10 Mg5 3.254480 1_545
Mg10 Mg3 3.326676 1_555
Mg10 Mg2 3.326676 1_545
Mg11 Mg8 3.040109 1_555
Mg11 Mg9 3.040109 1_545
Mg11 Mg4 3.254480 1_555
Mg11 Mg4 3.254480 1_545
Mg11 Mg3 3.416287 1_554
Mg11 Mg2 3.416287 1_544
Fe0 Mg2 3.036586 1_455
Fe0 Mg2 3.036586 1_555
Fe0 Mg3 3.036586 1_455
Fe0 Mg3 3.036586 1_555
Fe0 Mg0 3.100436 1_556
Fe0 Mg1 3.100436 1_556
Fe0 Mg5 3.151231 1_455
Fe0 Mg5 3.151231 1_555
Fe0 Mg7 3.355781 1_555
Fe0 Mg6 3.355781 1_555
Fe1 Mg8 3.036586 1_455
Fe1 Mg8 3.036586 1_555
Fe1 Mg9 3.036586 1_445
Fe1 Mg9 3.036586 1_545
Fe1 Mg6 3.100436 1_555
Fe1 Mg7 3.100436 1_545
Fe1 Mg11 3.151231 1_455
Fe1 Mg11 3.151231 1_555
Fe1 Mg0 3.355781 1_545
Fe1 Mg1 3.355781 1_555
