# generated using pymatgen
data_LiMnAu2
_symmetry_space_group_name_H-M   'P 1'
_cell_length_a   10.43431890
_cell_length_b   10.43431890
_cell_length_c   10.43431890
_cell_angle_alpha   121.56988232
_cell_angle_beta   119.47903889
_cell_angle_gamma   89.10367199
_symmetry_Int_Tables_number   1
_chemical_formula_structural   LiMnAu2
_chemical_formula_sum   'Li1 Mn1 Au2'
_cell_volume   796.48738982
_cell_formula_units_Z   1
loop_
 _symmetry_equiv_pos_site_id
 _symmetry_equiv_pos_as_xyz
  1  'x, y, z'
loop_
 _atom_site_type_symbol
 _atom_site_label
 _atom_site_symmetry_multiplicity
 _atom_site_fract_x
 _atom_site_fract_y
 _atom_site_fract_z
 _atom_site_occupancy
  Li  Li0  1  0.00000000  0.00000000  0.00000000  1
  Mn  Mn0  1  0.00000000  0.50000000  0.50000000  1
  Au  Au0  1  0.00000000  0.25265300  0.25265300  1
  Au  Au1  1  0.00000000  0.74734700  0.74734700  1
loop_
_geom_bond_atom_site_label_1
_geom_bond_atom_site_label_2
_geom_bond_distance
_geom_bond_site_symmetry_2
Au0 Mn0 2.519416 1_555
Au0 Li0 2.573461 1_555
Au1 Mn0 2.519416 1_555
Au1 Li0 2.573461 1_566
