# generated using pymatgen
data_TaCoSi
_symmetry_space_group_name_H-M   'P 1'
_cell_length_a   6.21574200
_cell_length_b   3.65427100
_cell_length_c   7.03058800
_cell_angle_alpha   90.00000000
_cell_angle_beta   90.00000000
_cell_angle_gamma   90.00000000
_symmetry_Int_Tables_number   1
_chemical_formula_structural   TaCoSi
_chemical_formula_sum   'Ta4 Co4 Si4'
_cell_volume   159.69281615
_cell_formula_units_Z   4
loop_
 _symmetry_equiv_pos_site_id
 _symmetry_equiv_pos_as_xyz
  1  'x, y, z'
loop_
 _atom_site_type_symbol
 _atom_site_label
 _atom_site_symmetry_multiplicity
 _atom_site_fract_x
 _atom_site_fract_y
 _atom_site_fract_z
 _atom_site_occupancy
  Ta  Ta0  1  0.02021600  0.25000000  0.82002100  1
  Ta  Ta1  1  0.52021600  0.25000000  0.67997900  1
  Ta  Ta2  1  0.97978400  0.75000000  0.17997900  1
  Ta  Ta3  1  0.47978400  0.75000000  0.32002100  1
  Co  Co0  1  0.14202000  0.25000000  0.43591200  1
  Co  Co1  1  0.64202000  0.25000000  0.06408800  1
  Co  Co2  1  0.85798000  0.75000000  0.56408800  1
  Co  Co3  1  0.35798000  0.75000000  0.93591200  1
  Si  Si0  1  0.77509000  0.25000000  0.38306500  1
  Si  Si1  1  0.27509000  0.25000000  0.11693500  1
  Si  Si2  1  0.22491000  0.75000000  0.61693500  1
  Si  Si3  1  0.72491000  0.75000000  0.88306500  1
loop_
_geom_bond_atom_site_label_1
_geom_bond_atom_site_label_2
_geom_bond_distance
_geom_bond_site_symmetry_2
Co0 Si2 2.285528 1_545
Co0 Si2 2.285528 1_555
Co0 Si0 2.310807 1_455
Co0 Si1 2.390267 1_555
Co0 Co2 2.695841 1_455
Co0 Co2 2.695841 1_445
Co0 Ta2 2.755544 1_455
Co0 Ta2 2.755544 1_445
Co0 Ta0 2.804634 1_555
Co0 Ta3 2.900000 1_545
Co0 Ta3 2.900000 1_555
Co0 Ta1 2.910420 1_555
Co1 Si3 2.285528 1_554
Co1 Si3 2.285528 1_544
Co1 Si1 2.310807 1_555
Co1 Si0 2.390267 1_555
Co1 Co3 2.695841 1_544
Co1 Co3 2.695841 1_554
Co1 Ta3 2.755544 1_545
Co1 Ta3 2.755544 1_555
Co1 Ta1 2.804634 1_554
Co1 Ta2 2.900000 1_555
Co1 Ta2 2.900000 1_545
Co1 Ta0 2.910420 1_654
Co2 Si0 2.285528 1_555
Co2 Si0 2.285528 1_565
Co2 Si2 2.310807 1_655
Co2 Si3 2.390267 1_555
Co2 Ta0 2.755544 1_665
Co2 Ta0 2.755544 1_655
Co2 Ta2 2.804634 1_555
Co2 Ta1 2.900000 1_565
Co2 Ta1 2.900000 1_555
Co2 Ta3 2.910420 1_555
Co3 Si1 2.285528 1_566
Co3 Si1 2.285528 1_556
Co3 Si3 2.310807 1_555
Co3 Si2 2.390267 1_555
Co3 Ta1 2.755544 1_555
Co3 Ta1 2.755544 1_565
Co3 Ta3 2.804634 1_556
Co3 Ta0 2.900000 1_565
Co3 Ta0 2.900000 1_555
Co3 Ta2 2.910420 1_456
Si0 Ta1 2.620565 1_555
Si0 Ta3 2.627568 1_545
Si0 Ta3 2.627568 1_555
Si0 Ta2 2.644974 1_555
Si0 Ta2 2.644974 1_545
Si1 Ta0 2.620565 1_554
Si1 Ta2 2.627568 1_445
Si1 Ta2 2.627568 1_455
Si1 Ta3 2.644974 1_545
Si1 Ta3 2.644974 1_555
Si2 Ta3 2.620565 1_555
Si2 Ta1 2.627568 1_555
Si2 Ta1 2.627568 1_565
Si2 Ta0 2.644974 1_565
Si2 Ta0 2.644974 1_555
Si3 Ta2 2.620565 1_556
Si3 Ta0 2.627568 1_665
Si3 Ta0 2.627568 1_655
Si3 Ta1 2.644974 1_555
Si3 Ta1 2.644974 1_565
