# generated using pymatgen
data_Sr3UIn2O9
_symmetry_space_group_name_H-M   'P 1'
_cell_length_a   6.01590000
_cell_length_b   8.39306600
_cell_length_c   19.58937964
_cell_angle_alpha   64.69299063
_cell_angle_beta   90.00000000
_cell_angle_gamma   90.00000000
_symmetry_Int_Tables_number   1
_chemical_formula_structural   Sr3UIn2O9
_chemical_formula_sum   'Sr12 U4 In8 O36'
_cell_volume   894.17988918
_cell_formula_units_Z   4
loop_
 _symmetry_equiv_pos_site_id
 _symmetry_equiv_pos_as_xyz
  1  'x, y, z'
loop_
 _atom_site_type_symbol
 _atom_site_label
 _atom_site_symmetry_multiplicity
 _atom_site_fract_x
 _atom_site_fract_y
 _atom_site_fract_z
 _atom_site_occupancy
  Sr  Sr0  1  0.95449600  0.39116700  0.34563600  1
  Sr  Sr1  1  0.95075200  0.77040800  0.00211600  1
  Sr  Sr2  1  0.96489900  0.07688800  0.66054800  1
  Sr  Sr3  1  0.54924800  0.77040800  0.50211600  1
  Sr  Sr4  1  0.53510100  0.07688800  0.16054800  1
  Sr  Sr5  1  0.54550400  0.39116700  0.84563600  1
  Sr  Sr6  1  0.04550400  0.60883300  0.65436400  1
  Sr  Sr7  1  0.03510100  0.92311200  0.33945200  1
  Sr  Sr8  1  0.04924800  0.22959200  0.99788400  1
  Sr  Sr9  1  0.45075200  0.22959200  0.49788400  1
  Sr  Sr10  1  0.45449600  0.60883300  0.15436400  1
  Sr  Sr11  1  0.46489900  0.92311200  0.83945200  1
  U  U0  1  0.99976100  0.33421700  0.16795100  1
  U  U1  1  0.00023900  0.66578300  0.83204900  1
  U  U2  1  0.50023900  0.33421700  0.66795100  1
  U  U3  1  0.49976100  0.66578300  0.33204900  1
  In  In0  1  0.50311800  0.83151000  0.66730800  1
  In  In1  1  0.49688200  0.16849000  0.33269200  1
  In  In2  1  0.50000000  0.50000000  0.00000000  1
  In  In3  1  0.00000000  0.50000000  0.50000000  1
  In  In4  1  0.99688200  0.83151000  0.16730800  1
  In  In5  1  0.00311800  0.16849000  0.83269200  1
  In  In6  1  0.00000000  0.00000000  0.50000000  1
  In  In7  1  0.50000000  0.00000000  0.00000000  1
  O  O0  1  0.79424300  0.86249900  0.60097900  1
  O  O1  1  0.79981100  0.19453900  0.26246100  1
  O  O2  1  0.80508300  0.52178100  0.92642400  1
  O  O3  1  0.69491700  0.52178100  0.42642400  1
  O  O4  1  0.70575700  0.86249900  0.10097900  1
  O  O5  1  0.70018900  0.19453900  0.76246100  1
  O  O6  1  0.20575700  0.13750100  0.39902100  1
  O  O7  1  0.19491700  0.47821900  0.07357600  1
  O  O8  1  0.20018900  0.80546100  0.73753900  1
  O  O9  1  0.30508300  0.47821900  0.57357600  1
  O  O10  1  0.29981100  0.80546100  0.23753900  1
  O  O11  1  0.29424300  0.13750100  0.89902100  1
  O  O12  1  0.29318300  0.88660400  0.57117000  1
  O  O13  1  0.28701900  0.21779000  0.23171000  1
  O  O14  1  0.28613800  0.55921800  0.89633700  1
  O  O15  1  0.21386200  0.55921800  0.39633700  1
  O  O16  1  0.20681700  0.88660400  0.07117000  1
  O  O17  1  0.21298100  0.21779000  0.73171000  1
  O  O18  1  0.70681700  0.11339600  0.42883000  1
  O  O19  1  0.71386200  0.44078200  0.10366300  1
  O  O20  1  0.71298100  0.78221000  0.76829000  1
  O  O21  1  0.78613800  0.44078200  0.60366300  1
  O  O22  1  0.78701900  0.78221000  0.26829000  1
  O  O23  1  0.79318300  0.11339600  0.92883000  1
  O  O24  1  0.52534300  0.12127400  0.63944300  1
  O  O25  1  0.52776500  0.45923000  0.29915100  1
  O  O26  1  0.53675400  0.76811100  0.97455100  1
  O  O27  1  0.96324600  0.76811100  0.47455100  1
  O  O28  1  0.97465700  0.12127400  0.13944300  1
  O  O29  1  0.97223500  0.45923000  0.79915100  1
  O  O30  1  0.47465700  0.87872600  0.36055700  1
  O  O31  1  0.46324600  0.23188900  0.02544900  1
  O  O32  1  0.47223500  0.54077000  0.70084900  1
  O  O33  1  0.03675400  0.23188900  0.52544900  1
  O  O34  1  0.02776500  0.54077000  0.20084900  1
  O  O35  1  0.02534300  0.87872600  0.86055700  1
loop_
_geom_bond_atom_site_label_1
_geom_bond_atom_site_label_2
_geom_bond_distance
_geom_bond_site_symmetry_2
In0 O0 2.129400 1_555
In0 O12 2.147347 1_555
In0 O20 2.231265 1_555
In0 O8 2.237080 1_555
In0 O32 2.247234 1_555
In0 O24 2.257332 1_565
In1 O6 2.129400 1_555
In1 O18 2.147347 1_555
In1 O13 2.231265 1_555
In1 O1 2.237080 1_555
In1 O25 2.247234 1_555
In1 O30 2.257332 1_545
In2 O26 2.098108 1_554
In2 O31 2.098108 1_555
In2 O19 2.272252 1_555
In2 O14 2.272252 1_554
In2 O7 2.292167 1_555
In2 O2 2.292167 1_554
In3 O27 2.098108 1_455
In3 O33 2.098108 1_555
In3 O21 2.272252 1_455
In3 O15 2.272252 1_555
In3 O9 2.292167 1_555
In3 O3 2.292167 1_455
In4 O4 2.129400 1_555
In4 O16 2.147347 1_655
In4 O22 2.231265 1_555
In4 O10 2.237080 1_655
In4 O34 2.247234 1_655
In4 O28 2.257332 1_565
In5 O11 2.129400 1_555
In5 O23 2.147347 1_455
In5 O17 2.231265 1_555
In5 O5 2.237080 1_455
In5 O29 2.247234 1_455
In5 O35 2.257332 1_545
In6 O0 2.196650 1_445
In6 O6 2.196650 1_555
In6 O12 2.196810 1_545
In6 O18 2.196810 1_455
In6 O33 2.216950 1_555
In6 O27 2.216950 1_445
In7 O11 2.196650 1_554
In7 O4 2.196650 1_545
In7 O23 2.196810 1_554
In7 O16 2.196810 1_545
In7 O31 2.216950 1_555
In7 O26 2.216950 1_544
O0 Sr6 2.451070 1_655
O0 Sr2 2.729216 1_565
O0 Sr3 2.792869 1_555
O1 U0 2.096028 1_555
O1 Sr7 2.555503 1_645
O1 Sr0 2.922862 1_555
O1 Sr4 3.030194 1_555
O2 U1 2.084873 1_655
O2 Sr8 2.682592 1_655
O2 Sr5 2.761918 1_555
O2 Sr1 3.156948 1_556
O3 U3 2.084873 1_555
O3 Sr9 2.682592 1_555
O3 Sr0 2.761918 1_555
O3 Sr3 3.156948 1_555
O4 Sr10 2.451070 1_555
O4 Sr4 2.729216 1_565
O4 Sr1 2.792869 1_555
O5 U2 2.096028 1_555
O5 Sr11 2.555503 1_545
O5 Sr5 2.922862 1_555
O5 Sr2 3.030194 1_555
O6 Sr0 2.451070 1_455
O6 Sr7 2.729216 1_545
O6 Sr9 2.792869 1_555
O7 U0 2.084873 1_455
O7 Sr1 2.682592 1_455
O7 Sr10 2.761918 1_555
O7 Sr8 3.156948 1_554
O8 U1 2.096028 1_555
O8 Sr2 2.555503 1_465
O8 Sr6 2.922862 1_555
O8 Sr11 3.030194 1_555
O9 U2 2.084873 1_555
O9 Sr3 2.682592 1_555
O9 Sr6 2.761918 1_555
O9 Sr9 3.156948 1_555
O10 U3 2.096028 1_555
O10 Sr4 2.555503 1_565
O10 Sr10 2.922862 1_555
O10 Sr7 3.030194 1_555
O11 Sr5 2.451070 1_555
O11 Sr11 2.729216 1_545
O11 Sr8 2.792869 1_555
O12 Sr3 2.506360 1_555
O12 Sr6 2.657636 1_555
O12 Sr9 2.777292 1_565
O13 U0 2.111354 1_455
O13 Sr4 2.641708 1_555
O13 Sr7 2.899237 1_545
O13 Sr10 3.135476 1_555
O14 U1 2.093123 1_555
O14 Sr5 2.570625 1_555
O14 Sr11 2.969279 1_555
O14 Sr8 2.989464 1_555
O15 U3 2.093123 1_555
O15 Sr0 2.570625 1_455
O15 Sr7 2.969279 1_555
O15 Sr9 2.989464 1_555
O16 Sr1 2.506360 1_455
O16 Sr10 2.657636 1_555
O16 Sr8 2.777292 1_564
O17 U2 2.111354 1_555
O17 Sr2 2.641708 1_455
O17 Sr11 2.899237 1_545
O17 Sr6 3.135476 1_555
O18 Sr9 2.506360 1_555
O18 Sr0 2.657636 1_555
O18 Sr3 2.777292 1_545
O19 U0 2.093123 1_555
O19 Sr10 2.570625 1_555
O19 Sr4 2.969279 1_555
O19 Sr1 2.989464 1_555
O20 U1 2.111354 1_655
O20 Sr11 2.641708 1_555
O20 Sr2 2.899237 1_565
O20 Sr5 3.135476 1_555
O21 U2 2.093123 1_555
O21 Sr6 2.570625 1_655
O21 Sr2 2.969279 1_555
O21 Sr3 2.989464 1_555
O22 U3 2.111354 1_555
O22 Sr7 2.641708 1_655
O22 Sr4 2.899237 1_565
O22 Sr0 3.135476 1_555
O23 Sr8 2.506360 1_655
O23 Sr5 2.657636 1_555
O23 Sr1 2.777292 1_546
O24 U2 2.093378 1_555
O24 Sr9 2.561709 1_555
O24 Sr2 2.677777 1_555
O25 U3 2.098636 1_555
O25 Sr10 2.602059 1_555
O25 Sr0 2.702070 1_555
O26 Sr11 2.437169 1_555
O26 Sr1 2.550254 1_556
O26 Sr10 3.227023 1_556
O27 Sr7 2.437169 1_655
O27 Sr3 2.550254 1_555
O27 Sr6 3.227023 1_655
O28 U0 2.093378 1_555
O28 Sr8 2.561709 1_654
O28 Sr4 2.677777 1_555
O29 U1 2.098636 1_655
O29 Sr6 2.602059 1_655
O29 Sr5 2.702070 1_555
O30 U3 2.093378 1_555
O30 Sr3 2.561709 1_555
O30 Sr7 2.677777 1_555
O31 Sr4 2.437169 1_555
O31 Sr8 2.550254 1_554
O31 Sr5 3.227023 1_554
O32 U2 2.098636 1_555
O32 Sr5 2.602059 1_555
O32 Sr6 2.702070 1_555
O33 Sr2 2.437169 1_455
O33 Sr9 2.550254 1_555
O33 Sr0 3.227023 1_455
O34 U0 2.098636 1_455
O34 Sr0 2.602059 1_455
O34 Sr10 2.702070 1_555
O35 U1 2.093378 1_555
O35 Sr1 2.561709 1_456
O35 Sr11 2.677777 1_555
