# generated using pymatgen
data_Cu3(WO3)4
_symmetry_space_group_name_H-M   'P 1'
_cell_length_a   6.59322634
_cell_length_b   6.59322634
_cell_length_c   6.59322634
_cell_angle_alpha   109.47122063
_cell_angle_beta   109.47122063
_cell_angle_gamma   109.47122063
_symmetry_Int_Tables_number   1
_chemical_formula_structural   Cu3(WO3)4
_chemical_formula_sum   'Cu3 W4 O12'
_cell_volume   220.63380937
_cell_formula_units_Z   1
loop_
 _symmetry_equiv_pos_site_id
 _symmetry_equiv_pos_as_xyz
  1  'x, y, z'
loop_
 _atom_site_type_symbol
 _atom_site_label
 _atom_site_symmetry_multiplicity
 _atom_site_fract_x
 _atom_site_fract_y
 _atom_site_fract_z
 _atom_site_occupancy
  Cu  Cu0  1  0.50000000  0.50000000  0.00000000  1
  Cu  Cu1  1  0.50000000  0.00000000  0.50000000  1
  Cu  Cu2  1  0.00000000  0.50000000  0.50000000  1
  W  W0  1  0.50000000  0.50000000  0.50000000  1
  W  W1  1  0.00000000  0.50000000  0.00000000  1
  W  W2  1  0.00000000  0.00000000  0.50000000  1
  W  W3  1  0.50000000  0.00000000  0.00000000  1
  O  O0  1  0.30864800  0.81789100  0.12653900  1
  O  O1  1  0.69135200  0.18210900  0.87346100  1
  O  O2  1  0.69135200  0.81789100  0.50924300  1
  O  O3  1  0.87346100  0.69135200  0.18210900  1
  O  O4  1  0.81789100  0.12653900  0.30864800  1
  O  O5  1  0.18210900  0.49075700  0.30864800  1
  O  O6  1  0.49075700  0.30864800  0.18210900  1
  O  O7  1  0.18210900  0.87346100  0.69135200  1
  O  O8  1  0.30864800  0.18210900  0.49075700  1
  O  O9  1  0.12653900  0.30864800  0.81789100  1
  O  O10  1  0.81789100  0.50924300  0.69135200  1
  O  O11  1  0.50924300  0.69135200  0.81789100  1
loop_
_geom_bond_atom_site_label_1
_geom_bond_atom_site_label_2
_geom_bond_distance
_geom_bond_site_symmetry_2
Cu0 O3 2.011086 1_555
Cu0 O6 2.011086 1_555
Cu0 O11 2.011086 1_554
Cu0 O9 2.011086 1_554
Cu1 O1 2.011086 1_555
Cu1 O8 2.011086 1_555
Cu1 O2 2.011086 1_545
Cu1 O0 2.011086 1_545
Cu2 O7 2.011086 1_555
Cu2 O5 2.011086 1_555
Cu2 O10 2.011086 1_455
Cu2 O4 2.011086 1_455
O0 W1 2.022144 1_555
O0 W3 2.022144 1_565
O1 W1 2.022144 1_656
O1 W3 2.022144 1_556
O2 W0 2.022144 1_555
O2 W2 2.022144 1_665
O3 W2 2.022144 1_665
O3 W1 2.022144 1_655
O4 W2 2.022144 1_655
O4 W3 2.022144 1_555
O5 W1 2.022144 1_555
O5 W0 2.022144 1_555
O6 W3 2.022144 1_555
O6 W0 2.022144 1_555
O7 W3 2.022144 1_566
O7 W2 2.022144 1_565
O8 W2 2.022144 1_555
O8 W0 2.022144 1_555
O9 W1 2.022144 1_556
O9 W2 2.022144 1_555
O10 W0 2.022144 1_555
O10 W1 2.022144 1_656
O11 W0 2.022144 1_555
O11 W3 2.022144 1_566
