# generated using pymatgen
data_Rb2LiPr2(WO4)4
_symmetry_space_group_name_H-M   'P 1'
_cell_length_a   7.87626680
_cell_length_b   7.87626680
_cell_length_c   7.51514570
_cell_angle_alpha   63.38599551
_cell_angle_beta   63.38599551
_cell_angle_gamma   92.77787580
_symmetry_Int_Tables_number   1
_chemical_formula_structural   Rb2LiPr2(WO4)4
_chemical_formula_sum   'Rb2 Li1 Pr2 W4 O16'
_cell_volume   354.08105224
_cell_formula_units_Z   1
loop_
 _symmetry_equiv_pos_site_id
 _symmetry_equiv_pos_as_xyz
  1  'x, y, z'
loop_
 _atom_site_type_symbol
 _atom_site_label
 _atom_site_symmetry_multiplicity
 _atom_site_fract_x
 _atom_site_fract_y
 _atom_site_fract_z
 _atom_site_occupancy
  Rb  Rb0  1  0.78636200  0.21363800  0.75000000  1
  Rb  Rb1  1  0.24558600  0.75441400  0.25000000  1
  Li  Li0  1  0.00652300  0.99347700  0.25000000  1
  Pr  Pr0  1  0.22770200  0.77229800  0.75000000  1
  Pr  Pr1  1  0.75559000  0.24441000  0.25000000  1
  W  W0  1  0.28843200  0.30951900  0.70989900  1
  W  W1  1  0.70806600  0.69138700  0.29267800  1
  W  W2  1  0.69048100  0.71156800  0.79010100  1
  W  W3  1  0.30861300  0.29193400  0.20732100  1
  O  O0  1  0.35201700  0.23931200  0.95571800  1
  O  O1  1  0.64487900  0.75821500  0.04488400  1
  O  O2  1  0.76068800  0.64798300  0.54428200  1
  O  O3  1  0.24178500  0.35512100  0.45511500  1
  O  O4  1  0.62445000  0.93579800  0.63581200  1
  O  O5  1  0.38192300  0.07144000  0.36024100  1
  O  O6  1  0.06420200  0.37555000  0.86418800  1
  O  O7  1  0.92856000  0.61807700  0.13975900  1
  O  O8  1  0.41947700  0.62736200  0.52512700  1
  O  O9  1  0.57637500  0.37561100  0.48170000  1
  O  O10  1  0.37263800  0.58052300  0.97487300  1
  O  O11  1  0.62438900  0.42362500  0.01830000  1
  O  O12  1  0.20981100  0.03649900  0.83171900  1
  O  O13  1  0.79077000  0.96448700  0.18672100  1
  O  O14  1  0.96350100  0.79018900  0.66828100  1
  O  O15  1  0.03551300  0.20923000  0.31327900  1
loop_
_geom_bond_atom_site_label_1
_geom_bond_atom_site_label_2
_geom_bond_distance
_geom_bond_site_symmetry_2
Li0 O13 1.987389 1_455
Li0 O15 1.987389 1_565
Li0 O2 2.511129 1_455
Li0 O0 2.511129 1_564
Li0 Rb1 2.726620 1_555
O0 W0 1.977337 1_555
O0 W3 2.000158 1_556
O0 Rb0 3.121363 1_555
O0 Rb1 3.262054 1_546
O1 W2 1.989246 1_554
O1 W1 1.992510 1_555
O1 Rb1 2.806021 1_555
O1 Rb0 3.049183 1_564
O2 W2 1.977337 1_555
O2 W1 2.000165 1_555
O2 Rb0 3.121363 1_555
O2 Rb1 3.262054 1_655
O3 W0 1.989253 1_555
O3 W3 1.992510 1_555
O3 Rb1 2.806021 1_555
O3 Rb0 3.049183 1_455
O4 W2 1.878460 1_555
O4 Pr1 2.478096 1_565
O4 Pr0 2.894298 1_555
O4 Rb0 3.089344 1_565
O5 W3 1.890420 1_555
O5 Pr0 2.440894 1_545
O5 Pr1 2.760389 1_555
O5 Rb1 3.234970 1_545
O6 W0 1.878460 1_555
O6 Pr1 2.478096 1_456
O6 Pr0 2.894298 1_555
O6 Rb0 3.089344 1_455
O7 W1 1.890418 1_555
O7 Pr0 2.440894 1_654
O7 Pr1 2.760389 1_555
O7 Rb1 3.234970 1_655
O8 W1 2.003632 1_555
O8 W0 2.147441 1_555
O8 Pr0 2.459504 1_555
O8 Rb1 2.822860 1_555
O9 W0 1.989096 1_555
O9 W1 2.131661 1_555
O9 Pr1 2.375649 1_555
O9 Rb0 3.052239 1_555
O10 W3 2.003630 1_556
O10 W2 2.147441 1_555
O10 Pr0 2.459504 1_555
O10 Rb1 2.822860 1_556
O11 W2 1.989096 1_554
O11 W3 2.131662 1_555
O11 Pr1 2.375649 1_555
O11 Rb0 3.052239 1_554
O12 W0 1.856041 1_555
O12 Pr0 2.413112 1_545
O12 Rb1 3.081202 1_546
O13 W1 1.884166 1_555
O13 Pr1 2.458532 1_565
O13 Rb0 2.993666 1_564
O14 W2 1.856041 1_555
O14 Pr0 2.413112 1_655
O14 Rb1 3.081202 1_655
O15 W3 1.884164 1_555
O15 Pr1 2.458532 1_455
O15 Rb0 2.993666 1_455
