# generated using pymatgen
data_YbPO4
_symmetry_space_group_name_H-M   'P 1'
_cell_length_a   6.66577238
_cell_length_b   6.66577238
_cell_length_c   6.66577238
_cell_angle_alpha   136.91545231
_cell_angle_beta   136.91545231
_cell_angle_gamma   62.56816224
_symmetry_Int_Tables_number   1
_chemical_formula_structural   YbPO4
_chemical_formula_sum   'Yb2 P2 O8'
_cell_volume   136.50606258
_cell_formula_units_Z   2
loop_
 _symmetry_equiv_pos_site_id
 _symmetry_equiv_pos_as_xyz
  1  'x, y, z'
loop_
 _atom_site_type_symbol
 _atom_site_label
 _atom_site_symmetry_multiplicity
 _atom_site_fract_x
 _atom_site_fract_y
 _atom_site_fract_z
 _atom_site_occupancy
  Yb  Yb0  1  0.50000000  0.50000000  0.00000000  1
  Yb  Yb1  1  0.25000000  0.75000000  0.50000000  1
  P  P0  1  0.00000000  0.00000000  0.00000000  1
  P  P1  1  0.75000000  0.25000000  0.50000000  1
  O  O0  1  0.96033000  0.83032500  0.64457800  1
  O  O1  1  0.58032500  0.43574800  0.36999600  1
  O  O2  1  0.06575200  0.21033000  0.63000400  1
  O  O3  1  0.18574800  0.31575200  0.35542200  1
  O  O4  1  0.56425200  0.93424800  0.14457800  1
  O  O5  1  0.68424800  0.03967000  0.86999600  1
  O  O6  1  0.16967500  0.81425200  0.13000400  1
  O  O7  1  0.78967000  0.41967500  0.85542200  1
loop_
_geom_bond_atom_site_label_1
_geom_bond_atom_site_label_2
_geom_bond_distance
_geom_bond_site_symmetry_2
O0 P0 1.551936 1_666
O0 Yb0 2.423426 1_555
O0 Yb1 2.440395 1_655
O1 P1 1.551938 1_555
O1 Yb1 2.423422 1_555
O1 Yb0 2.440396 1_555
O2 P1 1.551938 1_455
O2 Yb1 2.423427 1_545
O2 Yb0 2.440392 1_556
O3 P0 1.551938 1_555
O3 Yb0 2.423427 1_556
O3 Yb1 2.440392 1_555
O4 P1 1.551938 1_565
O4 Yb1 2.423427 1_554
O4 Yb0 2.440392 1_555
O5 P0 1.551938 1_656
O5 Yb0 2.423427 1_556
O5 Yb1 2.440392 1_545
O6 P0 1.551938 1_565
O6 Yb0 2.423422 1_555
O6 Yb1 2.440396 1_555
O7 P1 1.551936 1_555
O7 Yb1 2.423426 1_656
O7 Yb0 2.440395 1_556
