# generated using pymatgen
data_Nb6Al11Ir
_symmetry_space_group_name_H-M   'P 1'
_cell_length_a   8.95473302
_cell_length_b   8.95473302
_cell_length_c   8.22499600
_cell_angle_alpha   90.00000000
_cell_angle_beta   90.00000000
_cell_angle_gamma   119.99999278
_symmetry_Int_Tables_number   1
_chemical_formula_structural   Nb6Al11Ir
_chemical_formula_sum   'Nb12 Al22 Ir2'
_cell_volume   571.17822604
_cell_formula_units_Z   2
loop_
 _symmetry_equiv_pos_site_id
 _symmetry_equiv_pos_as_xyz
  1  'x, y, z'
loop_
 _atom_site_type_symbol
 _atom_site_label
 _atom_site_symmetry_multiplicity
 _atom_site_fract_x
 _atom_site_fract_y
 _atom_site_fract_z
 _atom_site_occupancy
  Nb  Nb0  1  0.33992600  0.00000000  0.06253400  1
  Nb  Nb1  1  0.66007400  0.00000000  0.93746600  1
  Nb  Nb2  1  0.00000000  0.33992600  0.06253400  1
  Nb  Nb3  1  0.66007400  0.00000000  0.56253400  1
  Nb  Nb4  1  0.00000000  0.33992600  0.43746600  1
  Nb  Nb5  1  0.00000000  0.66007400  0.93746600  1
  Nb  Nb6  1  0.33992600  0.00000000  0.43746600  1
  Nb  Nb7  1  0.00000000  0.66007400  0.56253400  1
  Nb  Nb8  1  0.66007400  0.66007400  0.06253400  1
  Nb  Nb9  1  0.33992600  0.33992600  0.93746600  1
  Nb  Nb10  1  0.33992600  0.33992600  0.56253400  1
  Nb  Nb11  1  0.66007400  0.66007400  0.43746600  1
  Al  Al0  1  0.16084900  0.49090500  0.75000000  1
  Al  Al1  1  0.83915100  0.50909500  0.25000000  1
  Al  Al2  1  0.50909500  0.66994400  0.75000000  1
  Al  Al3  1  0.49090500  0.16084900  0.75000000  1
  Al  Al4  1  0.49090500  0.33005600  0.25000000  1
  Al  Al5  1  0.50909500  0.83915100  0.25000000  1
  Al  Al6  1  0.33005600  0.83915100  0.75000000  1
  Al  Al7  1  0.66994400  0.50909500  0.75000000  1
  Al  Al8  1  0.66994400  0.16084900  0.25000000  1
  Al  Al9  1  0.33005600  0.49090500  0.25000000  1
  Al  Al10  1  0.83915100  0.33005600  0.75000000  1
  Al  Al11  1  0.16084900  0.66994400  0.25000000  1
  Al  Al12  1  0.33333300  0.66666700  0.50000000  1
  Al  Al13  1  0.66666700  0.33333300  0.50000000  1
  Al  Al14  1  0.66666700  0.33333300  0.00000000  1
  Al  Al15  1  0.33333300  0.66666700  0.00000000  1
  Al  Al16  1  0.16602900  0.00000000  0.75000000  1
  Al  Al17  1  0.83397100  0.00000000  0.25000000  1
  Al  Al18  1  0.00000000  0.16602900  0.75000000  1
  Al  Al19  1  0.00000000  0.83397100  0.25000000  1
  Al  Al20  1  0.83397100  0.83397100  0.75000000  1
  Al  Al21  1  0.16602900  0.16602900  0.25000000  1
  Ir  Ir0  1  0.00000000  0.00000000  0.50000000  1
  Ir  Ir1  1  0.00000000  0.00000000  0.00000000  1
loop_
_geom_bond_atom_site_label_1
_geom_bond_atom_site_label_2
_geom_bond_distance
_geom_bond_site_symmetry_2
Nb0 Nb1 3.045810 1_554
Nb0 Nb6 3.083814 1_555
Nb0 Nb9 3.213067 1_554
Nb0 Nb5 3.213068 1_544
Nb1 Nb3 3.083814 1_555
Nb1 Nb8 3.213067 1_546
Nb1 Nb2 3.213068 1_656
Nb2 Nb5 3.045810 1_554
Nb2 Nb4 3.083814 1_555
Nb2 Nb9 3.213067 1_554
Nb3 Nb6 3.045810 1_555
Nb3 Nb4 3.213068 1_655
Nb4 Nb7 3.045810 1_555
Nb5 Nb7 3.083814 1_555
Nb5 Nb8 3.213067 1_456
Nb6 Nb7 3.213068 1_545
Nb8 Nb9 3.045811 1_554
Nb10 Nb11 3.045811 1_555
Nb10 Nb9 3.083814 1_555
Nb10 Nb6 3.213067 1_555
Nb10 Nb4 3.213067 1_555
Nb11 Nb8 3.083814 1_555
Nb11 Nb7 3.213067 1_655
Nb11 Nb3 3.213067 1_565
Al0 Al10 2.494777 1_455
Al0 Al18 2.519462 1_555
Al0 Al12 2.580695 1_555
Al0 Al15 2.580695 1_556
Al0 Al6 2.701016 1_555
Al0 Al2 2.701016 1_555
Al0 Nb2 2.926275 1_556
Al0 Nb4 2.926275 1_555
Al0 Nb5 2.988122 1_555
Al0 Nb7 2.988122 1_555
Al0 Nb9 2.990789 1_555
Al0 Nb10 2.990789 1_555
Al1 Al11 2.494777 1_655
Al1 Al19 2.519462 1_655
Al1 Al13 2.580695 1_555
Al1 Al14 2.580695 1_555
Al1 Al8 2.701016 1_555
Al1 Al4 2.701016 1_555
Al1 Nb7 2.926275 1_655
Al1 Nb5 2.926275 1_654
Al1 Nb4 2.988122 1_655
Al1 Nb2 2.988122 1_655
Al1 Nb11 2.990789 1_555
Al1 Nb8 2.990789 1_555
Al2 Al7 2.494776 1_555
Al2 Al20 2.519462 1_555
Al2 Al6 2.701016 1_555
Al2 Nb8 2.926274 1_556
Al2 Nb11 2.926274 1_555
Al2 Nb9 2.988122 1_555
Al2 Nb10 2.988122 1_555
Al2 Nb1 2.990789 1_565
Al2 Nb3 2.990789 1_565
Al3 Al6 2.494777 1_545
Al3 Al7 2.701016 1_555
Al3 Nb0 2.926275 1_556
Al3 Nb6 2.926275 1_555
Al3 Nb1 2.988122 1_555
Al3 Nb3 2.988122 1_555
Al3 Nb9 2.990789 1_555
Al3 Nb10 2.990789 1_555
Al4 Al9 2.494776 1_555
Al4 Al8 2.701016 1_555
Al4 Nb10 2.926274 1_555
Al4 Nb9 2.926274 1_554
Al4 Nb11 2.988122 1_555
Al4 Nb8 2.988122 1_555
Al4 Nb6 2.990789 1_555
Al4 Nb0 2.990789 1_555
Al5 Al8 2.494777 1_565
Al5 Al9 2.701016 1_555
Al5 Nb3 2.926275 1_565
Al5 Nb1 2.926275 1_564
Al5 Nb6 2.988122 1_565
Al5 Nb0 2.988122 1_565
Al5 Nb11 2.990789 1_555
Al5 Nb8 2.990789 1_555
Al6 Nb0 2.926274 1_566
Al6 Nb6 2.926274 1_565
Al6 Nb1 2.988122 1_565
Al6 Nb3 2.988122 1_565
Al6 Nb5 2.990789 1_555
Al6 Nb7 2.990789 1_555
Al7 Nb8 2.926274 1_556
Al7 Nb11 2.926274 1_555
Al7 Nb9 2.988122 1_555
Al7 Nb10 2.988122 1_555
Al7 Nb5 2.990789 1_655
Al7 Nb7 2.990789 1_655
Al8 Nb3 2.926274 1_555
Al8 Nb1 2.926274 1_554
Al8 Nb6 2.988122 1_555
Al8 Nb0 2.988122 1_555
Al8 Nb4 2.990789 1_655
Al8 Nb2 2.990789 1_655
Al9 Nb10 2.926274 1_555
Al9 Nb9 2.926274 1_554
Al9 Nb11 2.988122 1_555
Al9 Nb8 2.988122 1_555
Al9 Nb4 2.990789 1_555
Al9 Nb2 2.990789 1_555
Al10 Al18 2.519462 1_655
Al10 Al13 2.580693 1_555
Al10 Al14 2.580693 1_556
Al10 Al7 2.701016 1_555
Al10 Al3 2.701016 1_555
Al10 Nb2 2.926274 1_656
Al10 Nb4 2.926274 1_655
Al10 Nb5 2.988122 1_655
Al10 Nb7 2.988122 1_655
Al10 Nb1 2.990789 1_555
Al10 Nb3 2.990789 1_555
Al11 Al19 2.519462 1_555
Al11 Al12 2.580693 1_555
Al11 Al15 2.580693 1_555
Al11 Al9 2.701016 1_555
Al11 Al5 2.701016 1_555
Al11 Nb7 2.926274 1_555
Al11 Nb5 2.926274 1_554
Al11 Nb4 2.988122 1_555
Al11 Nb2 2.988122 1_555
Al11 Nb6 2.990789 1_565
Al11 Nb0 2.990789 1_565
Al12 Al6 2.580693 1_555
Al12 Al5 2.580695 1_555
Al12 Al9 2.580698 1_555
Al12 Al2 2.580698 1_555
Al12 Nb7 3.000247 1_555
Al12 Nb6 3.000247 1_565
Al12 Nb3 3.000252 1_565
Al12 Nb4 3.000252 1_555
Al12 Nb11 3.000256 1_555
Al12 Nb10 3.000256 1_555
Al13 Al8 2.580693 1_555
Al13 Al3 2.580695 1_555
Al13 Al4 2.580698 1_555
Al13 Al7 2.580698 1_555
Al13 Nb3 3.000247 1_555
Al13 Nb4 3.000247 1_655
Al13 Nb7 3.000252 1_655
Al13 Nb6 3.000252 1_555
Al13 Nb11 3.000256 1_555
Al13 Nb10 3.000256 1_555
Al14 Al8 2.580693 1_555
Al14 Al3 2.580695 1_554
Al14 Al4 2.580698 1_555
Al14 Al7 2.580698 1_554
Al14 Nb1 3.000247 1_554
Al14 Nb2 3.000247 1_655
Al14 Nb5 3.000252 1_654
Al14 Nb0 3.000252 1_555
Al14 Nb8 3.000256 1_555
Al14 Nb9 3.000256 1_554
Al15 Al6 2.580693 1_554
Al15 Al5 2.580695 1_555
Al15 Al9 2.580698 1_555
Al15 Al2 2.580698 1_554
Al15 Nb5 3.000247 1_554
Al15 Nb0 3.000247 1_565
Al15 Nb1 3.000252 1_564
Al15 Nb2 3.000252 1_555
Al15 Nb8 3.000256 1_555
Al15 Nb9 3.000256 1_554
Al16 Al6 2.519462 1_545
Al16 Al3 2.519462 1_555
Al16 Ir1 2.537434 1_556
Al16 Ir0 2.537434 1_555
Al16 Nb0 3.005464 1_556
Al16 Nb6 3.005464 1_555
Al16 Nb5 3.054166 1_545
Al16 Nb7 3.054166 1_545
Al16 Nb9 3.054166 1_555
Al16 Nb10 3.054166 1_555
Al17 Al8 2.519462 1_555
Al17 Al5 2.519462 1_545
Al17 Ir1 2.537434 1_655
Al17 Ir0 2.537434 1_655
Al17 Nb3 3.005464 1_555
Al17 Nb1 3.005464 1_554
Al17 Nb4 3.054166 1_655
Al17 Nb2 3.054166 1_655
Al17 Nb11 3.054166 1_545
Al17 Nb8 3.054166 1_545
Al18 Ir1 2.537434 1_556
Al18 Ir0 2.537434 1_555
Al18 Nb2 3.005464 1_556
Al18 Nb4 3.005464 1_555
Al18 Nb1 3.054166 1_455
Al18 Nb3 3.054166 1_455
Al18 Nb9 3.054166 1_555
Al18 Nb10 3.054166 1_555
Al19 Ir0 2.537434 1_565
Al19 Ir1 2.537434 1_565
Al19 Nb7 3.005464 1_555
Al19 Nb5 3.005464 1_554
Al19 Nb6 3.054166 1_565
Al19 Nb0 3.054166 1_565
Al19 Nb11 3.054166 1_455
Al19 Nb8 3.054166 1_455
Al20 Al7 2.519462 1_555
Al20 Ir1 2.537434 1_666
Al20 Ir0 2.537434 1_665
Al20 Nb8 3.005464 1_556
Al20 Nb11 3.005464 1_555
Al20 Nb5 3.054165 1_655
Al20 Nb1 3.054165 1_565
Al20 Nb7 3.054165 1_655
Al20 Nb3 3.054165 1_565
Al21 Al4 2.519462 1_555
Al21 Al9 2.519462 1_555
Al21 Ir1 2.537434 1_555
Al21 Ir0 2.537434 1_555
Al21 Nb10 3.005464 1_555
Al21 Nb9 3.005464 1_554
Al21 Nb6 3.054165 1_555
Al21 Nb4 3.054165 1_555
Al21 Nb0 3.054165 1_555
Al21 Nb2 3.054165 1_555
Ir0 Nb6 3.087095 1_555
Ir0 Nb4 3.087095 1_555
Ir0 Nb7 3.087095 1_545
Ir0 Nb3 3.087095 1_455
Ir0 Nb10 3.087096 1_555
Ir0 Nb11 3.087096 1_445
Ir1 Nb2 3.087095 1_555
Ir1 Nb0 3.087095 1_555
Ir1 Nb5 3.087095 1_544
Ir1 Nb1 3.087095 1_454
Ir1 Nb9 3.087096 1_554
Ir1 Nb8 3.087096 1_445
