# generated using pymatgen
data_BaTi4AlO7
_symmetry_space_group_name_H-M   'P 1'
_cell_length_a   6.05696563
_cell_length_b   6.05696563
_cell_length_c   10.27584400
_cell_angle_alpha   90.00000000
_cell_angle_beta   90.00000000
_cell_angle_gamma   119.99999597
_symmetry_Int_Tables_number   1
_chemical_formula_structural   BaTi4AlO7
_chemical_formula_sum   'Ba2 Ti8 Al2 O14'
_cell_volume   326.48134474
_cell_formula_units_Z   2
loop_
 _symmetry_equiv_pos_site_id
 _symmetry_equiv_pos_as_xyz
  1  'x, y, z'
loop_
 _atom_site_type_symbol
 _atom_site_label
 _atom_site_symmetry_multiplicity
 _atom_site_fract_x
 _atom_site_fract_y
 _atom_site_fract_z
 _atom_site_occupancy
  Ba  Ba0  1  0.66666700  0.33333300  0.49821600  1
  Ba  Ba1  1  0.33333300  0.66666700  0.99821600  1
  Ti  Ti0  1  0.83528600  0.16471400  0.18183200  1
  Ti  Ti1  1  0.67057200  0.83528600  0.68183200  1
  Ti  Ti2  1  0.16471400  0.32942800  0.68183200  1
  Ti  Ti3  1  0.83528600  0.67057200  0.18183200  1
  Ti  Ti4  1  0.32942800  0.16471400  0.18183200  1
  Ti  Ti5  1  0.16471400  0.83528600  0.68183200  1
  Ti  Ti6  1  0.00000000  0.00000000  0.48058900  1
  Ti  Ti7  1  0.00000000  0.00000000  0.98058900  1
  Al  Al0  1  0.66666700  0.33333300  0.87160100  1
  Al  Al1  1  0.33333300  0.66666700  0.37160100  1
  O  O0  1  0.81373000  0.18627000  0.99019700  1
  O  O1  1  0.62746100  0.81373000  0.49019700  1
  O  O2  1  0.18627000  0.37253900  0.49019700  1
  O  O3  1  0.81373000  0.62746100  0.99019700  1
  O  O4  1  0.37253900  0.18627000  0.99019700  1
  O  O5  1  0.18627000  0.81373000  0.49019700  1
  O  O6  1  0.00000000  0.00000000  0.78674000  1
  O  O7  1  0.00000000  0.00000000  0.28674000  1
  O  O8  1  0.48386800  0.51613200  0.26025400  1
  O  O9  1  0.96773500  0.48386800  0.76025400  1
  O  O10  1  0.51613200  0.03226500  0.76025400  1
  O  O11  1  0.48386800  0.96773500  0.26025400  1
  O  O12  1  0.51613200  0.48386800  0.76025400  1
  O  O13  1  0.03226500  0.51613200  0.26025400  1
loop_
_geom_bond_atom_site_label_1
_geom_bond_atom_site_label_2
_geom_bond_distance
_geom_bond_site_symmetry_2
Ba0 O2 3.036576 1_555
Ba0 O1 3.036576 1_555
Ba0 O1 3.036576 1_545
Ba0 O2 3.036576 1_655
Ba0 O5 3.036576 1_545
Ba0 O5 3.036576 1_655
Ba0 O8 3.107575 1_555
Ba0 O13 3.107575 1_655
Ba0 O11 3.107575 1_545
Ba0 O9 3.121610 1_555
Ba0 O10 3.121610 1_555
Ba0 O12 3.121616 1_555
Ba1 O4 3.036576 1_555
Ba1 O3 3.036576 1_555
Ba1 O3 3.036576 1_455
Ba1 O4 3.036576 1_565
Ba1 O0 3.036576 1_455
Ba1 O0 3.036576 1_565
Ba1 O12 3.107575 1_555
Ba1 O10 3.107575 1_565
Ba1 O9 3.107575 1_455
Ba1 O11 3.121610 1_556
Ba1 O13 3.121610 1_556
Ba1 O8 3.121616 1_556
Al0 O9 1.950175 1_555
Al0 O10 1.950175 1_555
Al0 O12 1.950183 1_555
Al0 O0 1.966088 1_555
Al0 O3 1.966096 1_555
Al0 O4 1.966096 1_555
Al1 O11 1.950175 1_555
Al1 O13 1.950175 1_555
Al1 O8 1.950183 1_555
Al1 O5 1.966088 1_555
Al1 O1 1.966096 1_555
Al1 O2 1.966096 1_555
O0 Ti7 1.956646 1_655
O0 Ti0 1.982154 1_556
O1 Ti6 1.956641 1_665
O1 Ti1 1.982153 1_555
O2 Ti6 1.956641 1_555
O2 Ti2 1.982153 1_555
O3 Ti7 1.956641 1_665
O3 Ti3 1.982153 1_556
O4 Ti7 1.956641 1_555
O4 Ti4 1.982153 1_556
O5 Ti6 1.956646 1_565
O5 Ti5 1.982154 1_555
O6 Ti7 1.991962 1_555
O6 Ti5 2.036699 1_545
O6 Ti2 2.036699 1_555
O6 Ti1 2.036699 1_445
O7 Ti6 1.991962 1_555
O7 Ti0 2.036699 1_455
O7 Ti4 2.036699 1_555
O7 Ti3 2.036699 1_445
O8 Ti4 2.015928 1_555
O8 Ti3 2.015928 1_555
O9 Ti5 2.015928 1_655
O9 Ti2 2.015932 1_655
O10 Ti5 2.015928 1_545
O10 Ti1 2.015932 1_545
O11 Ti0 2.015928 1_565
O11 Ti4 2.015932 1_565
O12 Ti2 2.015928 1_555
O12 Ti1 2.015928 1_555
O13 Ti0 2.015928 1_455
O13 Ti3 2.015932 1_455
