# generated using pymatgen
data_CrSO4
_symmetry_space_group_name_H-M   'P 1'
_cell_length_a   4.97846200
_cell_length_b   8.64738200
_cell_length_c   7.12122300
_cell_angle_alpha   90.00000000
_cell_angle_beta   90.00000000
_cell_angle_gamma   90.00000000
_symmetry_Int_Tables_number   1
_chemical_formula_structural   CrSO4
_chemical_formula_sum   'Cr4 S4 O16'
_cell_volume   306.57336929
_cell_formula_units_Z   4
loop_
 _symmetry_equiv_pos_site_id
 _symmetry_equiv_pos_as_xyz
  1  'x, y, z'
loop_
 _atom_site_type_symbol
 _atom_site_label
 _atom_site_symmetry_multiplicity
 _atom_site_fract_x
 _atom_site_fract_y
 _atom_site_fract_z
 _atom_site_occupancy
  Cr  Cr0  1  0.00000000  0.00000000  0.00000000  1
  Cr  Cr1  1  0.00000000  0.00000000  0.50000000  1
  Cr  Cr2  1  0.50000000  0.50000000  0.00000000  1
  Cr  Cr3  1  0.50000000  0.50000000  0.50000000  1
  S  S0  1  0.03468700  0.68227700  0.25000000  1
  S  S1  1  0.46531300  0.18227700  0.25000000  1
  S  S2  1  0.53468700  0.81772300  0.75000000  1
  S  S3  1  0.96531300  0.31772300  0.75000000  1
  O  O0  1  0.04639800  0.85922800  0.25000000  1
  O  O1  1  0.17220400  0.62966000  0.07731800  1
  O  O2  1  0.17220400  0.62966000  0.42268200  1
  O  O3  1  0.25217900  0.86694800  0.75000000  1
  O  O4  1  0.24782100  0.36694800  0.75000000  1
  O  O5  1  0.32779600  0.12966000  0.07731800  1
  O  O6  1  0.32779600  0.12966000  0.42268200  1
  O  O7  1  0.45360200  0.35922800  0.25000000  1
  O  O8  1  0.54639800  0.64077200  0.75000000  1
  O  O9  1  0.67220400  0.87034000  0.57731800  1
  O  O10  1  0.67220400  0.87034000  0.92268200  1
  O  O11  1  0.75217900  0.63305200  0.25000000  1
  O  O12  1  0.74782100  0.13305200  0.25000000  1
  O  O13  1  0.82779600  0.37034000  0.57731800  1
  O  O14  1  0.82779600  0.37034000  0.92268200  1
  O  O15  1  0.95360200  0.14077200  0.75000000  1
loop_
_geom_bond_atom_site_label_1
_geom_bond_atom_site_label_2
_geom_bond_distance
_geom_bond_site_symmetry_2
Cr0 O10 2.055105 1_444
Cr0 O5 2.055105 1_555
Cr0 O15 2.169029 1_454
Cr0 O0 2.169029 1_545
Cr0 O12 2.463625 1_455
Cr0 O3 2.463625 1_544
Cr1 O9 2.055105 1_445
Cr1 O6 2.055105 1_555
Cr1 O15 2.169029 1_455
Cr1 O0 2.169029 1_545
Cr1 O12 2.463625 1_455
Cr1 O3 2.463625 1_545
Cr2 O14 2.055105 1_554
Cr2 O1 2.055105 1_555
Cr2 O8 2.169029 1_554
Cr2 O7 2.169029 1_555
Cr2 O11 2.463625 1_555
Cr2 O4 2.463625 1_554
Cr3 O13 2.055105 1_555
Cr3 O2 2.055105 1_555
Cr3 O8 2.169029 1_555
Cr3 O7 2.169029 1_555
Cr3 O11 2.463625 1_555
Cr3 O4 2.463625 1_555
O0 S0 1.531273 1_555
O1 S0 1.479159 1_555
O2 S0 1.479159 1_555
O3 S2 1.469459 1_555
O4 S3 1.469459 1_455
O5 S1 1.479159 1_555
O6 S1 1.479159 1_555
O7 S1 1.531273 1_555
O8 S2 1.531273 1_555
O9 S2 1.479159 1_555
O10 S2 1.479159 1_555
O11 S0 1.469459 1_655
O12 S1 1.469459 1_555
O13 S3 1.479159 1_555
O14 S3 1.479159 1_555
O15 S3 1.531273 1_555
