# generated using pymatgen
data_Ba(H8O5)2
_symmetry_space_group_name_H-M   'P 1'
_cell_length_a   6.57358900
_cell_length_b   6.72126295
_cell_length_c   11.43343790
_cell_angle_alpha   90.96377925
_cell_angle_beta   90.51857090
_cell_angle_gamma   94.32669149
_symmetry_Int_Tables_number   1
_chemical_formula_structural   Ba(H8O5)2
_chemical_formula_sum   'Ba2 H32 O20'
_cell_volume   503.62362689
_cell_formula_units_Z   2
loop_
 _symmetry_equiv_pos_site_id
 _symmetry_equiv_pos_as_xyz
  1  'x, y, z'
loop_
 _atom_site_type_symbol
 _atom_site_label
 _atom_site_symmetry_multiplicity
 _atom_site_fract_x
 _atom_site_fract_y
 _atom_site_fract_z
 _atom_site_occupancy
  Ba  Ba0  1  0.00542000  0.01236100  0.50890600  1
  Ba  Ba1  1  0.99028200  0.98769100  0.00510100  1
  H  H0  1  0.44897800  0.38719200  0.43445200  1
  H  H1  1  0.41316000  0.63913300  0.95337100  1
  H  H2  1  0.60919900  0.77754600  0.63279600  1
  H  H3  1  0.67357900  0.94652000  0.73366100  1
  H  H4  1  0.43579900  0.08705700  0.65028300  1
  H  H5  1  0.39396700  0.31418400  0.62523500  1
  H  H6  1  0.73839600  0.45004000  0.61804200  1
  H  H7  1  0.90004200  0.40605200  0.52332900  1
  H  H8  1  0.05747200  0.59931900  0.65446600  1
  H  H9  1  0.29264100  0.64318700  0.62913100  1
  H  H10  1  0.56996100  0.25513900  0.09446200  1
  H  H11  1  0.58891100  0.07980300  0.00212600  1
  H  H12  1  0.24498300  0.80111500  0.23498400  1
  H  H13  1  0.39729700  0.93358800  0.14979600  1
  H  H14  1  0.89970000  0.65107100  0.19474800  1
  H  H15  1  0.67367300  0.62641100  0.13139300  1
  H  H16  1  0.09355400  0.36213400  0.23609500  1
  H  H17  1  0.28842100  0.40184200  0.14656400  1
  H  H18  1  0.31073800  0.19005200  0.29458600  1
  H  H19  1  0.47141200  0.06250700  0.36312000  1
  H  H20  1  0.70274600  0.83912200  0.28469300  1
  H  H21  1  0.59675300  0.75685500  0.39821200  1
  H  H22  1  0.03753900  0.55664600  0.37500100  1
  H  H23  1  0.25956300  0.64696600  0.40533200  1
  H  H24  1  0.79242700  0.35529400  0.35966700  1
  H  H25  1  0.25096300  0.77660700  0.80097400  1
  H  H26  1  0.43535600  0.91375900  0.86538000  1
  H  H27  1  0.63156200  0.17206600  0.83762300  1
  H  H28  1  0.20388500  0.25498700  0.78651200  1
  H  H29  1  0.27299100  0.36940300  0.90294000  1
  H  H30  1  0.74276100  0.56481600  0.91112300  1
  H  H31  1  0.96363100  0.50523100  0.87371900  1
  O  O0  1  0.49440100  0.52841300  0.58896000  1
  O  O1  1  0.50899600  0.48742500  0.09087200  1
  O  O2  1  0.48417300  0.53090500  0.45930700  1
  O  O3  1  0.48395600  0.51168600  0.96325700  1
  O  O4  1  0.66535800  0.91788100  0.64492200  1
  O  O5  1  0.32593500  0.18020400  0.65041400  1
  O  O6  1  0.88036700  0.40694700  0.61127600  1
  O  O7  1  0.16880300  0.71002900  0.65773900  1
  O  O8  1  0.59711300  0.10855800  0.08882600  1
  O  O9  1  0.26447800  0.85337600  0.15580300  1
  O  O10  1  0.79124800  0.72970000  0.16722300  1
  O  O11  1  0.17629600  0.30244200  0.17515900  1
  O  O12  1  0.36628200  0.16110500  0.37370200  1
  O  O13  1  0.65544000  0.88324200  0.36442800  1
  O  O14  1  0.13106200  0.69139400  0.37209500  1
  O  O15  1  0.93473800  0.35218800  0.38386500  1
  O  O16  1  0.30454600  0.82466800  0.87942800  1
  O  O17  1  0.65211600  0.03656200  0.86199700  1
  O  O18  1  0.15163400  0.29893100  0.86334900  1
  O  O19  1  0.88344900  0.61864700  0.89389100  1
loop_
_geom_bond_atom_site_label_1
_geom_bond_atom_site_label_2
_geom_bond_distance
_geom_bond_site_symmetry_2
Ba0 O4 2.775028 1_445
Ba0 O15 2.781132 1_455
Ba0 H7 2.787984 1_455
Ba0 O5 2.801384 1_555
Ba0 O14 2.821630 1_545
Ba0 O13 2.890754 1_445
Ba0 O7 2.931037 1_545
Ba0 O12 2.962567 1_555
Ba0 O6 3.053091 1_455
Ba1 O9 2.697096 1_655
Ba1 H11 2.755252 1_565
Ba1 O17 2.790867 1_564
Ba1 O16 2.806284 1_654
Ba1 O19 2.806675 1_554
Ba1 O18 2.817490 1_664
Ba1 O10 2.822101 1_555
Ba1 O8 2.931134 1_565
Ba1 O11 3.029751 1_665
H0 O2 1.011517 1_555
H1 O3 1.012712 1_555
H2 O4 0.993640 1_555
H3 O4 1.029678 1_555
H3 O17 1.589327 1_565
H4 O5 0.990830 1_555
H5 O5 1.021807 1_555
H5 O0 1.600870 1_555
H6 O6 1.001093 1_555
H6 O0 1.756227 1_555
H7 O6 1.014956 1_555
H8 O7 1.003542 1_555
H9 O7 1.013201 1_555
H9 O0 1.648809 1_555
H10 O8 1.015506 1_555
H10 O1 1.641973 1_555
H11 O8 1.006931 1_555
H12 O9 0.982548 1_555
H13 O9 0.994475 1_555
H14 O10 0.972097 1_555
H15 O10 1.072791 1_555
H15 O1 1.443234 1_555
H16 O11 0.986200 1_555
H17 O11 1.016814 1_555
H17 O1 1.655879 1_555
H18 O12 1.000036 1_555
H19 O12 0.999663 1_555
H20 O13 1.012763 1_555
H21 O13 0.991936 1_555
H22 O14 1.056731 1_555
H22 O15 1.490373 1_455
H23 O14 0.991557 1_555
H24 O15 0.974980 1_555
H25 O16 1.000194 1_555
H26 O16 1.025583 1_555
H26 O17 1.593015 1_565
H27 O17 0.975614 1_555
H28 O18 0.994503 1_555
H29 O18 0.997447 1_555
H30 O19 0.990068 1_555
H31 O19 0.984388 1_555
O0 O2 1.483729 1_555
O1 O3 1.479966 1_554
