# generated using pymatgen
data_KLiMg30O31
_symmetry_space_group_name_H-M   'P 1'
_cell_length_a   8.47914072
_cell_length_b   8.64436372
_cell_length_c   8.61421422
_cell_angle_alpha   90.00000000
_cell_angle_beta   90.00000000
_cell_angle_gamma   90.00000000
_symmetry_Int_Tables_number   1
_chemical_formula_structural   KLiMg30O31
_chemical_formula_sum   'K1 Li1 Mg30 O31'
_cell_volume   631.39413369
_cell_formula_units_Z   1
loop_
 _symmetry_equiv_pos_site_id
 _symmetry_equiv_pos_as_xyz
  1  'x, y, z'
loop_
 _atom_site_type_symbol
 _atom_site_label
 _atom_site_symmetry_multiplicity
 _atom_site_fract_x
 _atom_site_fract_y
 _atom_site_fract_z
 _atom_site_occupancy
  K  K0  1  0.05679756  0.00000000  0.00000000  1
  Li  Li0  1  0.98929075  0.00000000  0.50000000  1
  Mg  Mg0  1  0.99196744  0.50000000  0.00000000  1
  Mg  Mg1  1  0.99646069  0.50000000  0.50000000  1
  Mg  Mg2  1  0.52110677  0.00000000  0.00000000  1
  Mg  Mg3  1  0.50280270  0.00000000  0.50000000  1
  Mg  Mg4  1  0.50405523  0.50000000  0.00000000  1
  Mg  Mg5  1  0.50086384  0.50000000  0.50000000  1
  Mg  Mg6  1  0.99738608  0.24804877  0.25580714  1
  Mg  Mg7  1  0.99738608  0.24804877  0.74419286  1
  Mg  Mg8  1  0.99738608  0.75195123  0.25580714  1
  Mg  Mg9  1  0.99738608  0.75195123  0.74419286  1
  Mg  Mg10  1  0.49916720  0.24737095  0.24910381  1
  Mg  Mg11  1  0.49916720  0.24737095  0.75089619  1
  Mg  Mg12  1  0.49916720  0.75262905  0.24910381  1
  Mg  Mg13  1  0.49916720  0.75262905  0.75089619  1
  Mg  Mg14  1  0.24283216  0.00000000  0.28015498  1
  Mg  Mg15  1  0.24283216  0.00000000  0.71984502  1
  Mg  Mg16  1  0.24746649  0.50000000  0.25421828  1
  Mg  Mg17  1  0.24746649  0.50000000  0.74578172  1
  Mg  Mg18  1  0.76037145  0.00000000  0.25269084  1
  Mg  Mg19  1  0.76037145  0.00000000  0.74730916  1
  Mg  Mg20  1  0.74929473  0.50000000  0.25113521  1
  Mg  Mg21  1  0.74929473  0.50000000  0.74886479  1
  Mg  Mg22  1  0.24771047  0.27719020  0.00000000  1
  Mg  Mg23  1  0.24595406  0.25040206  0.50000000  1
  Mg  Mg24  1  0.24771047  0.72280980  0.00000000  1
  Mg  Mg25  1  0.24595406  0.74959794  0.50000000  1
  Mg  Mg26  1  0.75741474  0.24650394  0.00000000  1
  Mg  Mg27  1  0.75186278  0.24652213  0.50000000  1
  Mg  Mg28  1  0.75741474  0.75349606  0.00000000  1
  Mg  Mg29  1  0.75186278  0.75347787  0.50000000  1
  O  O0  1  0.26448112  0.00000000  0.50000000  1
  O  O1  1  0.25616197  0.50000000  0.00000000  1
  O  O2  1  0.25257376  0.50000000  0.50000000  1
  O  O3  1  0.75083133  0.00000000  0.00000000  1
  O  O4  1  0.73810986  0.00000000  0.50000000  1
  O  O5  1  0.74401010  0.50000000  0.00000000  1
  O  O6  1  0.74560958  0.50000000  0.50000000  1
  O  O7  1  0.24786730  0.24339539  0.24273310  1
  O  O8  1  0.24786730  0.24339539  0.75726690  1
  O  O9  1  0.24786730  0.75660461  0.24273310  1
  O  O10  1  0.24786730  0.75660461  0.75726690  1
  O  O11  1  0.74777132  0.24907115  0.24909362  1
  O  O12  1  0.74777132  0.24907115  0.75090638  1
  O  O13  1  0.74777132  0.75092885  0.24909362  1
  O  O14  1  0.74777132  0.75092885  0.75090638  1
  O  O15  1  0.00196343  0.00000000  0.27155531  1
  O  O16  1  0.00196343  0.00000000  0.72844469  1
  O  O17  1  0.00037115  0.50000000  0.25173725  1
  O  O18  1  0.00037115  0.50000000  0.74826275  1
  O  O19  1  0.48957186  0.00000000  0.24061613  1
  O  O20  1  0.48957186  0.00000000  0.75938387  1
  O  O21  1  0.49651331  0.50000000  0.24852027  1
  O  O22  1  0.49651331  0.50000000  0.75147973  1
  O  O23  1  0.00214744  0.27099358  0.00000000  1
  O  O24  1  0.00089684  0.26185174  0.50000000  1
  O  O25  1  0.00214744  0.72900642  0.00000000  1
  O  O26  1  0.00089684  0.73814826  0.50000000  1
  O  O27  1  0.49213750  0.24395651  0.00000000  1
  O  O28  1  0.49654641  0.25054708  0.50000000  1
  O  O29  1  0.49213750  0.75604349  0.00000000  1
  O  O30  1  0.49654641  0.74945292  0.50000000  1
loop_
_geom_bond_atom_site_label_1
_geom_bond_atom_site_label_2
_geom_bond_distance
_geom_bond_site_symmetry_2
K0 O16 2.384994 1_554
K0 O15 2.384994 1_555
K0 O25 2.387959 1_545
K0 O23 2.387959 1_555
K0 O3 2.594331 1_455
Li0 O16 1.970803 1_655
Li0 O15 1.970803 1_655
Li0 O4 2.129798 1_555
Li0 O24 2.265680 1_655
Li0 O26 2.265680 1_645
Li0 O0 2.333378 1_655
Mg0 O23 1.981496 1_655
Mg0 O25 1.981496 1_655
Mg0 O5 2.102465 1_555
Mg0 O18 2.169689 1_654
Mg0 O17 2.169689 1_655
Mg0 O1 2.240143 1_655
Mg1 O24 2.058984 1_655
Mg1 O26 2.058984 1_655
Mg1 O6 2.127002 1_555
Mg1 O17 2.138846 1_655
Mg1 O18 2.138846 1_655
Mg1 O2 2.171619 1_655
Mg2 O3 1.947867 1_555
Mg2 O19 2.089895 1_555
Mg2 O20 2.089895 1_554
Mg2 O29 2.123106 1_545
Mg2 O27 2.123106 1_555
Mg3 O4 1.995203 1_555
Mg3 O0 2.020762 1_555
Mg3 O28 2.166470 1_555
Mg3 O30 2.166470 1_545
Mg3 O20 2.237203 1_555
Mg3 O19 2.237203 1_555
Mg4 O5 2.034611 1_555
Mg4 O1 2.101922 1_555
Mg4 O22 2.141762 1_554
Mg4 O21 2.141762 1_555
Mg4 O27 2.215639 1_555
Mg4 O29 2.215639 1_555
Mg5 O6 2.075234 1_555
Mg5 O2 2.105287 1_555
Mg5 O30 2.156672 1_555
Mg5 O28 2.156672 1_555
Mg5 O21 2.166614 1_555
Mg5 O22 2.166614 1_555
Mg6 O24 2.107121 1_655
Mg6 O11 2.117327 1_555
Mg6 O7 2.127230 1_655
Mg6 O15 2.148861 1_655
Mg6 O17 2.178387 1_655
Mg6 O23 2.212854 1_655
Mg7 O24 2.107121 1_655
Mg7 O12 2.117327 1_555
Mg7 O8 2.127230 1_655
Mg7 O16 2.148861 1_655
Mg7 O18 2.178387 1_655
Mg7 O23 2.212854 1_656
Mg8 O26 2.107121 1_655
Mg8 O13 2.117327 1_555
Mg8 O9 2.127230 1_655
Mg8 O15 2.148861 1_665
Mg8 O17 2.178387 1_655
Mg8 O25 2.212854 1_655
Mg9 O26 2.107121 1_655
Mg9 O14 2.117327 1_555
Mg9 O10 2.127230 1_655
Mg9 O16 2.148861 1_665
Mg9 O18 2.178387 1_655
Mg9 O25 2.212854 1_656
Mg10 O11 2.108001 1_555
Mg10 O7 2.131791 1_555
Mg10 O19 2.141160 1_555
Mg10 O27 2.146864 1_555
Mg10 O28 2.161562 1_555
Mg10 O21 2.183939 1_555
Mg11 O12 2.108001 1_555
Mg11 O8 2.131791 1_555
Mg11 O20 2.141160 1_555
Mg11 O27 2.146864 1_556
Mg11 O28 2.161562 1_555
Mg11 O22 2.183939 1_555
Mg12 O13 2.108001 1_555
Mg12 O9 2.131791 1_555
Mg12 O19 2.141160 1_565
Mg12 O29 2.146864 1_555
Mg12 O30 2.161562 1_555
Mg12 O21 2.183939 1_555
Mg13 O14 2.108001 1_555
Mg13 O10 2.131791 1_555
Mg13 O20 2.141160 1_565
Mg13 O29 2.146864 1_556
Mg13 O30 2.161562 1_555
Mg13 O22 2.183939 1_555
Mg14 O0 1.902668 1_555
Mg14 O15 2.043703 1_555
Mg14 O19 2.119684 1_555
Mg14 O7 2.128978 1_555
Mg14 O9 2.128978 1_545
Mg15 O0 1.902668 1_555
Mg15 O16 2.043703 1_555
Mg15 O20 2.119684 1_555
Mg15 O8 2.128978 1_555
Mg15 O10 2.128978 1_545
Mg16 O17 2.095265 1_555
Mg16 O21 2.112273 1_555
Mg16 O2 2.117659 1_555
Mg16 O1 2.191132 1_555
Mg16 O7 2.220391 1_555
Mg16 O9 2.220391 1_555
Mg17 O18 2.095265 1_555
Mg17 O22 2.112273 1_555
Mg17 O2 2.117659 1_555
Mg17 O1 2.191132 1_556
Mg17 O10 2.220391 1_555
Mg17 O8 2.220391 1_555
Mg18 O15 2.054928 1_655
Mg18 O4 2.138720 1_555
Mg18 O11 2.155933 1_555
Mg18 O13 2.155933 1_545
Mg18 O3 2.178236 1_555
Mg18 O19 2.298503 1_555
Mg19 O16 2.054928 1_655
Mg19 O4 2.138720 1_555
Mg19 O12 2.155933 1_555
Mg19 O14 2.155933 1_545
Mg19 O3 2.178236 1_556
Mg19 O20 2.298503 1_555
Mg20 O17 2.128919 1_655
Mg20 O21 2.143488 1_555
Mg20 O6 2.144002 1_555
Mg20 O5 2.163797 1_555
Mg20 O13 2.169230 1_555
Mg20 O11 2.169230 1_555
Mg21 O18 2.128919 1_655
Mg21 O22 2.143488 1_555
Mg21 O6 2.144002 1_555
Mg21 O5 2.163797 1_556
Mg21 O12 2.169230 1_555
Mg21 O14 2.169230 1_555
Mg22 O1 1.927382 1_555
Mg22 O23 2.082852 1_555
Mg22 O27 2.092347 1_555
Mg22 O7 2.111264 1_555
Mg22 O8 2.111264 1_554
Mg23 O24 2.080231 1_555
Mg23 O28 2.124808 1_555
Mg23 O2 2.158345 1_555
Mg23 O0 2.170260 1_555
Mg23 O7 2.217039 1_555
Mg23 O8 2.217039 1_555
Mg24 O1 1.927382 1_555
Mg24 O25 2.082852 1_555
Mg24 O29 2.092347 1_555
Mg24 O9 2.111264 1_555
Mg24 O10 2.111264 1_554
Mg25 O26 2.080231 1_555
Mg25 O30 2.124808 1_555
Mg25 O2 2.158345 1_555
Mg25 O0 2.170260 1_565
Mg25 O9 2.217039 1_555
Mg25 O10 2.217039 1_555
Mg26 O23 2.085893 1_655
Mg26 O3 2.131601 1_555
Mg26 O11 2.147418 1_555
Mg26 O12 2.147418 1_554
Mg26 O5 2.194258 1_555
Mg26 O27 2.249431 1_555
Mg27 O24 2.115749 1_655
Mg27 O4 2.134215 1_555
Mg27 O12 2.161752 1_555
Mg27 O11 2.161752 1_555
Mg27 O28 2.165143 1_555
Mg27 O6 2.191796 1_555
Mg28 O25 2.085893 1_655
Mg28 O3 2.131601 1_565
Mg28 O13 2.147418 1_555
Mg28 O14 2.147418 1_554
Mg28 O5 2.194258 1_555
Mg28 O29 2.249431 1_555
Mg29 O26 2.115749 1_655
Mg29 O4 2.134215 1_565
Mg29 O13 2.161752 1_555
Mg29 O14 2.161752 1_555
Mg29 O30 2.165143 1_555
Mg29 O6 2.191796 1_555
