# generated using pymatgen
data_CsCoCuF6
_symmetry_space_group_name_H-M   'P 1'
_cell_length_a   7.34758642
_cell_length_b   7.34758642
_cell_length_c   7.34758642
_cell_angle_alpha   120.55910248
_cell_angle_beta   118.66672118
_cell_angle_gamma   90.67949576
_symmetry_Int_Tables_number   1
_chemical_formula_structural   CsCoCuF6
_chemical_formula_sum   'Cs2 Co2 Cu2 F12'
_cell_volume   282.01595616
_cell_formula_units_Z   2
loop_
 _symmetry_equiv_pos_site_id
 _symmetry_equiv_pos_as_xyz
  1  'x, y, z'
loop_
 _atom_site_type_symbol
 _atom_site_label
 _atom_site_symmetry_multiplicity
 _atom_site_fract_x
 _atom_site_fract_y
 _atom_site_fract_z
 _atom_site_occupancy
  Cs  Cs0  1  0.62358700  0.87358700  0.75000000  1
  Cs  Cs1  1  0.37641300  0.12641300  0.25000000  1
  Co  Co0  1  0.00000000  0.50000000  0.00000000  1
  Co  Co1  1  0.00000000  0.00000000  0.50000000  1
  Cu  Cu0  1  0.50000000  0.50000000  0.00000000  1
  Cu  Cu1  1  0.00000000  0.50000000  0.50000000  1
  F  F0  1  0.07063400  0.82063400  0.25000000  1
  F  F1  1  0.68111800  0.43111800  0.25000000  1
  F  F2  1  0.06829900  0.81899700  0.63723600  1
  F  F3  1  0.68176100  0.43106200  0.86276400  1
  F  F4  1  0.68176100  0.81899700  0.25069900  1
  F  F5  1  0.06829900  0.43106200  0.24930100  1
  F  F6  1  0.92936600  0.17936600  0.75000000  1
  F  F7  1  0.31888200  0.56888200  0.75000000  1
  F  F8  1  0.93170100  0.18100300  0.36276400  1
  F  F9  1  0.31823900  0.56893800  0.13723600  1
  F  F10  1  0.31823900  0.18100300  0.74930100  1
  F  F11  1  0.93170100  0.56893800  0.75069900  1
loop_
_geom_bond_atom_site_label_1
_geom_bond_atom_site_label_2
_geom_bond_distance
_geom_bond_site_symmetry_2
Cs0 F7 3.147377 1_555
Cs0 F6 3.158470 1_565
Cs0 F11 3.202587 1_555
Cs0 F8 3.202592 1_566
Cs0 F9 3.202592 1_555
Cs0 F10 3.202592 1_565
Cs1 F1 3.147377 1_555
Cs1 F0 3.158470 1_545
Cs1 F5 3.202587 1_555
Cs1 F2 3.202592 1_544
Cs1 F4 3.202592 1_545
Cs1 F3 3.202592 1_555
Co0 F6 1.962048 1_454
Co0 F0 1.962048 1_555
Co0 F11 1.982755 1_454
Co0 F5 1.982755 1_555
Co0 F9 1.982756 1_555
Co0 F3 1.982756 1_454
Co1 F0 1.962048 1_545
Co1 F6 1.962048 1_455
Co1 F10 1.982756 1_555
Co1 F4 1.982756 1_445
Co1 F8 1.982756 1_455
Co1 F2 1.982756 1_545
Cu0 F10 1.961025 1_554
Cu0 F9 1.961025 1_555
Cu0 F3 1.961025 1_554
Cu0 F4 1.961025 1_555
Cu0 F7 2.004325 1_554
Cu0 F1 2.004325 1_555
Cu1 F2 1.961025 1_555
Cu1 F8 1.961025 1_455
Cu1 F5 1.961031 1_555
Cu1 F11 1.961031 1_455
Cu1 F1 2.004325 1_455
Cu1 F7 2.004325 1_555
