# generated using pymatgen
data_Ho5Ir2
_symmetry_space_group_name_H-M   'P 1'
_cell_length_a   6.48531200
_cell_length_b   7.17022859
_cell_length_c   8.45997631
_cell_angle_alpha   96.29114780
_cell_angle_beta   112.53785463
_cell_angle_gamma   90.00000000
_symmetry_Int_Tables_number   1
_chemical_formula_structural   Ho5Ir2
_chemical_formula_sum   'Ho10 Ir4'
_cell_volume   360.78722409
_cell_formula_units_Z   2
loop_
 _symmetry_equiv_pos_site_id
 _symmetry_equiv_pos_as_xyz
  1  'x, y, z'
loop_
 _atom_site_type_symbol
 _atom_site_label
 _atom_site_symmetry_multiplicity
 _atom_site_fract_x
 _atom_site_fract_y
 _atom_site_fract_z
 _atom_site_occupancy
  Ho  Ho0  1  0.96972200  0.91828100  0.18177100  1
  Ho  Ho1  1  0.78795200  0.58171900  0.81822900  1
  Ho  Ho2  1  0.03027800  0.08171900  0.81822900  1
  Ho  Ho3  1  0.21204800  0.41828100  0.18177100  1
  Ho  Ho4  1  0.65400500  0.81864700  0.44243400  1
  Ho  Ho5  1  0.21157100  0.68135300  0.55756600  1
  Ho  Ho6  1  0.34599500  0.18135300  0.55756600  1
  Ho  Ho7  1  0.78842900  0.31864700  0.44243400  1
  Ho  Ho8  1  0.42729100  0.75000000  0.00000000  1
  Ho  Ho9  1  0.57270900  0.25000000  0.00000000  1
  Ir  Ir0  1  0.82720400  0.57336200  0.21895800  1
  Ir  Ir1  1  0.60824700  0.92663800  0.78104200  1
  Ir  Ir2  1  0.17279600  0.42663800  0.78104200  1
  Ir  Ir3  1  0.39175300  0.07336200  0.21895800  1
loop_
_geom_bond_atom_site_label_1
_geom_bond_atom_site_label_2
_geom_bond_distance
_geom_bond_site_symmetry_2
Ho0 Ir0 2.731875 1_555
Ho0 Ir3 2.844271 1_665
Ho0 Ir1 3.308246 1_554
Ho1 Ir1 2.731875 1_555
Ho1 Ir2 2.844271 1_655
Ho1 Ir0 3.308250 1_556
Ho2 Ir2 2.731875 1_555
Ho2 Ir1 2.844271 1_445
Ho2 Ir3 3.308246 1_556
Ho3 Ir3 2.731875 1_555
Ho3 Ir0 2.844271 1_455
Ho3 Ir2 3.308250 1_554
Ho4 Ir3 2.845072 1_565
Ho4 Ir0 2.971274 1_555
Ho4 Ir1 3.009850 1_555
Ho5 Ir2 2.845070 1_555
Ho5 Ir1 2.971278 1_555
Ho5 Ir0 3.009853 1_455
Ho6 Ir1 2.845072 1_545
Ho6 Ir2 2.971274 1_555
Ho6 Ir3 3.009850 1_555
Ho7 Ir0 2.845070 1_555
Ho7 Ir3 2.971278 1_555
Ho7 Ir2 3.009853 1_655
Ho8 Ir2 2.871625 1_554
Ho8 Ir3 2.871627 1_565
Ho8 Ir0 2.931428 1_555
Ho8 Ir1 2.931432 1_554
Ho9 Ir0 2.871625 1_555
Ho9 Ir1 2.871627 1_544
Ho9 Ir2 2.931428 1_554
Ho9 Ir3 2.931432 1_555
