# generated using pymatgen
data_Cu5O7
_symmetry_space_group_name_H-M   'P 1'
_cell_length_a   5.12667874
_cell_length_b   5.12667874
_cell_length_c   17.87939700
_cell_angle_alpha   90.00000000
_cell_angle_beta   90.00000000
_cell_angle_gamma   146.94426701
_symmetry_Int_Tables_number   1
_chemical_formula_structural   Cu5O7
_chemical_formula_sum   'Cu10 O14'
_cell_volume   256.32068888
_cell_formula_units_Z   2
loop_
 _symmetry_equiv_pos_site_id
 _symmetry_equiv_pos_as_xyz
  1  'x, y, z'
loop_
 _atom_site_type_symbol
 _atom_site_label
 _atom_site_symmetry_multiplicity
 _atom_site_fract_x
 _atom_site_fract_y
 _atom_site_fract_z
 _atom_site_occupancy
  Cu  Cu0  1  0.73262300  0.26737700  0.57461100  1
  Cu  Cu1  1  0.00000000  0.00000000  0.50000000  1
  Cu  Cu2  1  0.00000000  0.00000000  0.00000000  1
  Cu  Cu3  1  0.26737700  0.73262300  0.42538900  1
  Cu  Cu4  1  0.26737700  0.73262300  0.07461100  1
  Cu  Cu5  1  0.73262300  0.26737700  0.92538900  1
  Cu  Cu6  1  0.53196100  0.46803900  0.15518700  1
  Cu  Cu7  1  0.46803900  0.53196100  0.84481300  1
  Cu  Cu8  1  0.46803900  0.53196100  0.65518700  1
  Cu  Cu9  1  0.53196100  0.46803900  0.34481300  1
  O  O0  1  0.35870600  0.64129400  0.97702000  1
  O  O1  1  0.64129400  0.35870600  0.02298000  1
  O  O2  1  0.64129400  0.35870600  0.47702000  1
  O  O3  1  0.35870600  0.64129400  0.52298000  1
  O  O4  1  0.84179000  0.15821000  0.84140200  1
  O  O5  1  0.15821000  0.84179000  0.15859800  1
  O  O6  1  0.15821000  0.84179000  0.34140200  1
  O  O7  1  0.84179000  0.15821000  0.65859800  1
  O  O8  1  0.08290100  0.91709900  0.89890700  1
  O  O9  1  0.91709900  0.08290100  0.10109300  1
  O  O10  1  0.91709900  0.08290100  0.39890700  1
  O  O11  1  0.08290100  0.91709900  0.60109300  1
  O  O12  1  0.54656000  0.45344000  0.75000000  1
  O  O13  1  0.45344000  0.54656000  0.25000000  1
loop_
_geom_bond_atom_site_label_1
_geom_bond_atom_site_label_2
_geom_bond_distance
_geom_bond_site_symmetry_2
Cu0 O7 1.845647 1_555
Cu0 O2 1.962268 1_555
Cu0 O3 2.124911 1_545
Cu0 O3 2.124911 1_655
Cu0 O11 2.125375 1_655
Cu0 O11 2.125375 1_545
Cu1 O11 1.982685 1_545
Cu1 O10 1.982685 1_455
Cu1 O2 2.055447 1_555
Cu1 O3 2.055447 1_445
Cu1 O2 2.055447 1_445
Cu1 O3 2.055447 1_555
Cu2 O8 1.982685 1_544
Cu2 O9 1.982685 1_455
Cu2 O1 2.055447 1_555
Cu2 O0 2.055447 1_444
Cu2 O1 2.055447 1_445
Cu2 O0 2.055447 1_554
Cu3 O6 1.845647 1_555
Cu3 O3 1.962268 1_555
Cu3 O2 2.124911 1_455
Cu3 O2 2.124911 1_565
Cu3 O10 2.125375 1_565
Cu3 O10 2.125375 1_455
Cu4 O5 1.845647 1_555
Cu4 O0 1.962268 1_554
Cu4 O1 2.124911 1_565
Cu4 O1 2.124911 1_455
Cu4 O9 2.125375 1_565
Cu4 O9 2.125375 1_455
Cu5 O4 1.845647 1_555
Cu5 O1 1.962268 1_556
Cu5 O0 2.124911 1_545
Cu5 O0 2.124911 1_655
Cu5 O8 2.125375 1_655
Cu5 O8 2.125375 1_545
Cu6 O13 1.862642 1_555
Cu6 O5 1.915944 1_655
Cu6 O5 1.915944 1_545
Cu6 O9 2.082608 1_455
Cu6 O9 2.082608 1_565
Cu7 O12 1.862642 1_555
Cu7 O4 1.915944 1_565
Cu7 O4 1.915944 1_455
Cu7 O8 2.082608 1_545
Cu7 O8 2.082608 1_655
Cu8 O12 1.862642 1_555
Cu8 O7 1.915944 1_455
Cu8 O7 1.915944 1_565
Cu8 O11 2.082608 1_545
Cu8 O11 2.082608 1_655
Cu9 O13 1.862642 1_555
Cu9 O6 1.915944 1_545
Cu9 O6 1.915944 1_655
Cu9 O10 2.082608 1_455
Cu9 O10 2.082608 1_565
