# generated using pymatgen
data_LaMg14Sb
_symmetry_space_group_name_H-M   'P 1'
_cell_length_a   6.57363821
_cell_length_b   6.47028561
_cell_length_c   10.48855400
_cell_angle_alpha   90.00000000
_cell_angle_beta   90.00000000
_cell_angle_gamma   119.48126548
_symmetry_Int_Tables_number   1
_chemical_formula_structural   LaMg14Sb
_chemical_formula_sum   'La1 Mg14 Sb1'
_cell_volume   388.34878958
_cell_formula_units_Z   1
loop_
 _symmetry_equiv_pos_site_id
 _symmetry_equiv_pos_as_xyz
  1  'x, y, z'
loop_
 _atom_site_type_symbol
 _atom_site_label
 _atom_site_symmetry_multiplicity
 _atom_site_fract_x
 _atom_site_fract_y
 _atom_site_fract_z
 _atom_site_occupancy
  La  La0  1  0.16617066  0.33308483  0.12500000  1
  Mg  Mg0  1  0.16579935  0.33289917  0.62500000  1
  Mg  Mg1  1  0.16470869  0.83235384  0.62500000  1
  Mg  Mg2  1  0.66558097  0.32871863  0.12500000  1
  Mg  Mg3  1  0.66659886  0.33433150  0.62500000  1
  Mg  Mg4  1  0.66558097  0.83686134  0.12500000  1
  Mg  Mg5  1  0.66659886  0.83226636  0.62500000  1
  Mg  Mg6  1  0.33742876  0.16635235  0.38411043  1
  Mg  Mg7  1  0.33742876  0.16635235  0.86588957  1
  Mg  Mg8  1  0.33742876  0.67107741  0.38411043  1
  Mg  Mg9  1  0.33742876  0.67107741  0.86588957  1
  Mg  Mg10  1  0.82766740  0.16383420  0.38237080  1
  Mg  Mg11  1  0.82766740  0.16383420  0.86762920  1
  Mg  Mg12  1  0.83104693  0.66552396  0.37385231  1
  Mg  Mg13  1  0.83104693  0.66552396  0.87614769  1
  Sb  Sb0  1  0.17181796  0.83590848  0.12500000  1
loop_
_geom_bond_atom_site_label_1
_geom_bond_atom_site_label_2
_geom_bond_distance
_geom_bond_site_symmetry_2
La0 Sb0 3.235304 1_555
La0 Sb0 3.235304 1_545
La0 Mg4 3.276884 1_445
La0 Mg2 3.276885 1_455
La0 Mg4 3.296937 1_555
La0 Mg2 3.296938 1_555
La0 Mg7 3.318508 1_554
La0 Mg6 3.318508 1_555
La0 Mg8 3.318515 1_555
La0 Mg9 3.318515 1_554
La0 Mg11 3.322539 1_454
La0 Mg10 3.322539 1_455
Mg0 Mg6 3.164558 1_555
Mg0 Mg7 3.164558 1_555
Mg0 Mg9 3.164565 1_555
Mg0 Mg8 3.164565 1_555
Mg0 Mg10 3.196901 1_455
Mg0 Mg11 3.196901 1_455
Mg0 Mg1 3.235149 1_545
Mg0 Mg1 3.235149 1_555
Mg0 Mg5 3.286134 1_445
Mg0 Mg3 3.286134 1_455
Mg0 Mg5 3.287524 1_555
Mg0 Mg3 3.287524 1_555
Mg1 Mg8 3.150845 1_555
Mg1 Mg9 3.150845 1_555
Mg1 Mg7 3.150851 1_565
Mg1 Mg6 3.150851 1_565
Mg1 Mg12 3.253393 1_455
Mg1 Mg13 3.253393 1_455
Mg1 Mg3 3.274115 1_455
Mg1 Mg5 3.274115 1_455
Mg1 Mg3 3.299523 1_565
Mg1 Mg5 3.299523 1_555
Mg2 Mg4 3.182457 1_545
Mg2 Sb0 3.242789 1_545
Mg2 Mg4 3.287828 1_555
Mg2 Mg6 3.303371 1_555
Mg2 Mg7 3.303371 1_554
Mg2 Sb0 3.330857 1_655
Mg3 Mg6 3.151554 1_555
Mg3 Mg7 3.151554 1_555
Mg3 Mg5 3.221781 1_555
Mg3 Mg5 3.248505 1_545
Mg4 Sb0 3.242790 1_555
Mg4 Mg8 3.303371 1_555
Mg4 Mg9 3.303371 1_554
Mg4 Sb0 3.330857 1_655
Mg5 Mg8 3.151554 1_555
Mg5 Mg9 3.151554 1_555
Mg6 Mg8 3.204570 1_545
Mg6 Mg8 3.265715 1_555
Mg6 Sb0 3.294137 1_545
Mg7 Mg9 3.204570 1_545
Mg7 Mg9 3.265715 1_555
Mg7 Sb0 3.294137 1_546
Mg8 Sb0 3.294130 1_555
Mg9 Sb0 3.294130 1_556
Mg10 Mg3 3.156561 1_555
Mg10 Mg5 3.156568 1_545
Mg10 Mg8 3.230752 1_545
Mg10 Mg6 3.230753 1_555
Mg10 Mg12 3.236434 1_555
Mg10 Mg12 3.236434 1_545
Mg10 Mg2 3.267923 1_555
Mg10 Mg4 3.267930 1_545
Mg10 Mg8 3.343048 1_655
Mg10 Mg6 3.343048 1_655
Mg11 Mg3 3.156561 1_555
Mg11 Mg5 3.156568 1_545
Mg11 Mg9 3.230752 1_545
Mg11 Mg7 3.230753 1_555
Mg11 Mg13 3.236434 1_555
Mg11 Mg13 3.236434 1_545
Mg11 Mg2 3.267923 1_556
Mg11 Mg4 3.267930 1_546
Mg11 Mg9 3.343048 1_655
Mg11 Mg7 3.343048 1_655
Mg12 Mg4 3.226705 1_555
Mg12 Mg2 3.226712 1_555
Mg12 Mg5 3.227910 1_555
Mg12 Mg3 3.227916 1_555
Mg12 Sb0 3.258116 1_655
Mg12 Mg6 3.264474 1_555
Mg12 Mg8 3.264474 1_555
Mg12 Mg6 3.312982 1_665
Mg12 Mg8 3.312983 1_655
Mg13 Mg4 3.226705 1_556
Mg13 Mg2 3.226712 1_556
Mg13 Mg5 3.227910 1_555
Mg13 Mg3 3.227916 1_555
Mg13 Sb0 3.258116 1_656
Mg13 Mg7 3.264474 1_555
Mg13 Mg9 3.264474 1_555
Mg13 Mg7 3.312982 1_665
Mg13 Mg9 3.312983 1_655
