# generated using pymatgen
data_KNa7V7MoO20
_symmetry_space_group_name_H-M   'P 1'
_cell_length_a   11.00221303
_cell_length_b   11.32213640
_cell_length_c   16.61367695
_cell_angle_alpha   109.98172251
_cell_angle_beta   108.93406540
_cell_angle_gamma   89.93537268
_symmetry_Int_Tables_number   1
_chemical_formula_structural   KNa7V7MoO20
_chemical_formula_sum   'K4 Na28 V28 Mo4 O80'
_cell_volume   1825.64656730
_cell_formula_units_Z   4
loop_
 _symmetry_equiv_pos_site_id
 _symmetry_equiv_pos_as_xyz
  1  'x, y, z'
loop_
 _atom_site_type_symbol
 _atom_site_label
 _atom_site_symmetry_multiplicity
 _atom_site_fract_x
 _atom_site_fract_y
 _atom_site_fract_z
 _atom_site_occupancy
  K  K0  1  0.30741100  0.07148200  0.11704200  1
  K  K1  1  0.80548300  0.06971200  0.11689800  1
  K  K2  1  0.05402400  0.79809600  0.11567900  1
  K  K3  1  0.55927100  0.79456200  0.11551000  1
  Na  Na0  1  0.30428800  0.06879100  0.60723900  1
  Na  Na1  1  0.31017000  0.56425500  0.10709900  1
  Na  Na2  1  0.30406800  0.56816100  0.60741900  1
  Na  Na3  1  0.80451000  0.06865000  0.60686400  1
  Na  Na4  1  0.80110400  0.56572100  0.10707600  1
  Na  Na5  1  0.80348600  0.56826300  0.60692000  1
  Na  Na6  1  0.19864500  0.43389100  0.39502900  1
  Na  Na7  1  0.20240000  0.42987400  0.89052000  1
  Na  Na8  1  0.19828200  0.93275700  0.39627300  1
  Na  Na9  1  0.19516900  0.93122700  0.88921900  1
  Na  Na10  1  0.69787500  0.43381800  0.39474800  1
  Na  Na11  1  0.69311300  0.42958200  0.88978800  1
  Na  Na12  1  0.69858000  0.93257900  0.39629900  1
  Na  Na13  1  0.69244700  0.92952900  0.88928900  1
  Na  Na14  1  0.05145000  0.29328200  0.10824300  1
  Na  Na15  1  0.05458500  0.28848600  0.60718300  1
  Na  Na16  1  0.05348700  0.78883900  0.60692800  1
  Na  Na17  1  0.55445200  0.29399800  0.10711500  1
  Na  Na18  1  0.55398400  0.28878900  0.60724400  1
  Na  Na19  1  0.55334000  0.78870700  0.60697200  1
  Na  Na20  1  0.44851200  0.21399700  0.39651400  1
  Na  Na21  1  0.44767900  0.21164400  0.89054000  1
  Na  Na22  1  0.44828700  0.71096200  0.39497000  1
  Na  Na23  1  0.44941500  0.70605100  0.89018200  1
  Na  Na24  1  0.94839900  0.21373500  0.39637300  1
  Na  Na25  1  0.94395100  0.20953700  0.89006600  1
  Na  Na26  1  0.94784100  0.71097100  0.39474600  1
  Na  Na27  1  0.94171500  0.70763800  0.88914900  1
  V  V0  1  0.00662600  0.00039800  0.50103800  1
  V  V1  1  0.00525100  0.50073100  0.49964700  1
  V  V2  1  0.50681400  0.00086500  0.50162900  1
  V  V3  1  0.50624400  0.49639300  0.99699000  1
  V  V4  1  0.50557000  0.50124900  0.50028800  1
  V  V5  1  0.25868500  0.25474200  0.99775500  1
  V  V6  1  0.25695000  0.25081500  0.50188500  1
  V  V7  1  0.25523400  0.74889400  0.49998000  1
  V  V8  1  0.75137700  0.25288200  0.99779100  1
  V  V9  1  0.75663500  0.25066000  0.50117400  1
  V  V10  1  0.74898900  0.74351500  0.99449700  1
  V  V11  1  0.75495100  0.74871000  0.49922800  1
  V  V12  1  0.11207700  0.09621600  0.25688500  1
  V  V13  1  0.10354400  0.08967800  0.74900900  1
  V  V14  1  0.10466800  0.58652800  0.25296800  1
  V  V15  1  0.10191800  0.58558000  0.74656900  1
  V  V16  1  0.61260900  0.09617800  0.25732200  1
  V  V17  1  0.60298300  0.08962300  0.74923400  1
  V  V18  1  0.60499900  0.58619100  0.25200100  1
  V  V19  1  0.60254900  0.58656300  0.74724900  1
  V  V20  1  0.35498500  0.41575800  0.25177200  1
  V  V21  1  0.35390500  0.40985000  0.74903600  1
  V  V22  1  0.36300200  0.91072700  0.25713000  1
  V  V23  1  0.35134000  0.91098000  0.74640800  1
  V  V24  1  0.85438100  0.41522200  0.25186200  1
  V  V25  1  0.85193300  0.40977700  0.74768300  1
  V  V26  1  0.86277300  0.91060300  0.25711300  1
  V  V27  1  0.85064600  0.91187500  0.74624000  1
  Mo  Mo0  1  0.99909600  0.00109000  0.99488300  1
  Mo  Mo1  1  0.00156600  0.49592600  0.99717500  1
  Mo  Mo2  1  0.50430600  0.99964600  0.99553000  1
  Mo  Mo3  1  0.25434000  0.74448500  0.99511700  1
  O  O0  1  0.11924000  0.11169400  0.49021000  1
  O  O1  1  0.11527900  0.11914500  0.98661500  1
  O  O2  1  0.11894700  0.61146100  0.48918000  1
  O  O3  1  0.12317200  0.61300800  0.98333800  1
  O  O4  1  0.61904200  0.11150100  0.49005000  1
  O  O5  1  0.61922000  0.12065400  0.98278000  1
  O  O6  1  0.61892000  0.61146700  0.48898900  1
  O  O7  1  0.61984200  0.60482200  0.98720400  1
  O  O8  1  0.14253500  0.37204100  0.00747400  1
  O  O9  1  0.14459900  0.37077900  0.51108600  1
  O  O10  1  0.12943500  0.87924000  0.00537900  1
  O  O11  1  0.14531800  0.87063400  0.51173300  1
  O  O12  1  0.63976000  0.37149600  0.00801800  1
  O  O13  1  0.64467600  0.37109000  0.51145100  1
  O  O14  1  0.63100700  0.87349700  0.00365500  1
  O  O15  1  0.64530000  0.87058800  0.51170300  1
  O  O16  1  0.36907200  0.12847700  0.48991500  1
  O  O17  1  0.36514800  0.12674100  0.98548100  1
  O  O18  1  0.36903800  0.62775600  0.48927100  1
  O  O19  1  0.37260600  0.60981400  0.98055400  1
  O  O20  1  0.86901900  0.12836700  0.48980300  1
  O  O21  1  0.86626200  0.12535400  0.98531200  1
  O  O22  1  0.86898300  0.62787600  0.48937400  1
  O  O23  1  0.86891000  0.61517800  0.98322400  1
  O  O24  1  0.39145800  0.38235000  0.00698900  1
  O  O25  1  0.39529500  0.39114600  0.51156600  1
  O  O26  1  0.37982600  0.87976400  0.00439200  1
  O  O27  1  0.39482400  0.89067500  0.51157700  1
  O  O28  1  0.88696500  0.37773200  0.01135200  1
  O  O29  1  0.89522400  0.39103600  0.51141000  1
  O  O30  1  0.88185300  0.88460900  0.00116500  1
  O  O31  1  0.89471700  0.89056100  0.51151900  1
  O  O32  1  0.07198600  0.09650200  0.14202100  1
  O  O33  1  0.08162200  0.09986500  0.64096700  1
  O  O34  1  0.08461900  0.58842700  0.14295500  1
  O  O35  1  0.08097000  0.59848600  0.63943300  1
  O  O36  1  0.57597100  0.09923200  0.14462400  1
  O  O37  1  0.58178500  0.09987800  0.64111400  1
  O  O38  1  0.58239200  0.58401500  0.14109500  1
  O  O39  1  0.58133500  0.59907900  0.63956200  1
  O  O40  1  0.44218700  0.40084100  0.35827700  1
  O  O41  1  0.44149000  0.39583600  0.85473900  1
  O  O42  1  0.44776200  0.89504100  0.36248100  1
  O  O43  1  0.43826800  0.89616400  0.85220700  1
  O  O44  1  0.94258400  0.40080600  0.35856900  1
  O  O45  1  0.93775600  0.39355200  0.85343200  1
  O  O46  1  0.94840100  0.89514300  0.36288100  1
  O  O47  1  0.93927500  0.90033500  0.85426400  1
  O  O48  1  0.33341000  0.30653000  0.14069600  1
  O  O49  1  0.33150200  0.29109000  0.64051800  1
  O  O50  1  0.32739200  0.79523100  0.14462100  1
  O  O51  1  0.33105200  0.79078400  0.63944700  1
  O  O52  1  0.83137600  0.30437200  0.14164200  1
  O  O53  1  0.83144200  0.29094400  0.64011100  1
  O  O54  1  0.82641900  0.79685300  0.14522000  1
  O  O55  1  0.83135500  0.79135400  0.64012900  1
  O  O56  1  0.19797900  0.21697600  0.36162300  1
  O  O57  1  0.18979900  0.20819600  0.85577700  1
  O  O58  1  0.19253400  0.70794600  0.35917000  1
  O  O59  1  0.18865000  0.70698000  0.85194700  1
  O  O60  1  0.69804900  0.21748000  0.36244100  1
  O  O61  1  0.68964500  0.20838400  0.85544000  1
  O  O62  1  0.69279100  0.70788800  0.35881300  1
  O  O63  1  0.68903300  0.70491800  0.85339300  1
  O  O64  1  0.45245800  0.05715000  0.26529000  1
  O  O65  1  0.43309600  0.05783600  0.74818600  1
  O  O66  1  0.43552300  0.56340900  0.25377300  1
  O  O67  1  0.43373300  0.55612300  0.74839600  1
  O  O68  1  0.95314400  0.05746100  0.26528700  1
  O  O69  1  0.93328900  0.05752700  0.74805400  1
  O  O70  1  0.93479800  0.56294100  0.25328900  1
  O  O71  1  0.93318700  0.55645400  0.74836800  1
  O  O72  1  0.18501700  0.44010700  0.25317100  1
  O  O73  1  0.18391100  0.44034900  0.74824300  1
  O  O74  1  0.20254600  0.95871100  0.26469400  1
  O  O75  1  0.18299300  0.94217800  0.74835100  1
  O  O76  1  0.68495700  0.44017100  0.25372000  1
  O  O77  1  0.68296300  0.43984500  0.74789900  1
  O  O78  1  0.70243800  0.95826300  0.26525700  1
  O  O79  1  0.68325400  0.94185700  0.74841700  1
loop_
_geom_bond_atom_site_label_1
_geom_bond_atom_site_label_2
_geom_bond_distance
_geom_bond_site_symmetry_2
K0 O64 2.522097 1_555
K0 O48 2.555875 1_555
K0 O10 2.627909 1_545
K0 O26 2.652634 1_545
K0 O1 2.697976 1_554
K0 O17 2.721918 1_554
K0 O32 2.752664 1_555
K0 O36 2.839769 1_555
K1 O68 2.523935 1_555
K1 O52 2.547208 1_555
K1 O14 2.639940 1_545
K1 O30 2.661887 1_545
K1 O36 2.710708 1_555
K1 O5 2.722043 1_554
K1 O21 2.741186 1_554
K1 O32 2.825743 1_655
K2 O74 2.531928 1_555
K2 O34 2.566803 1_555
K2 O10 2.651311 1_555
K2 O30 2.664179 1_455
K2 O23 2.695532 1_454
K2 O54 2.704487 1_455
K2 O3 2.781619 1_554
K2 O50 2.889664 1_555
K3 O78 2.533344 1_555
K3 O38 2.559114 1_555
K3 O14 2.638842 1_555
K3 O26 2.661573 1_555
K3 O7 2.718818 1_554
K3 O19 2.726978 1_554
K3 O50 2.746028 1_555
K3 O54 2.816601 1_555
Na0 O65 2.356183 1_555
Na0 O49 2.381877 1_555
Na0 O0 2.497119 1_555
Na0 O11 2.526893 1_545
Na0 O27 2.533245 1_545
Na0 O16 2.562606 1_555
Na0 O33 2.682081 1_555
Na0 O37 2.917858 1_555
Na1 O66 2.382244 1_555
Na1 O50 2.464503 1_555
Na1 O24 2.535332 1_555
Na1 O8 2.538409 1_555
Na1 O3 2.606348 1_554
Na1 O19 2.614791 1_554
Na1 O34 2.726588 1_555
Na1 O38 2.855996 1_555
Na2 O67 2.364059 1_555
Na2 O51 2.388948 1_555
Na2 O2 2.511362 1_555
Na2 O9 2.525102 1_555
Na2 O25 2.532114 1_555
Na2 O18 2.576027 1_555
Na2 O35 2.673240 1_555
Na2 O39 2.920795 1_555
Na3 O69 2.360138 1_555
Na3 O53 2.381754 1_555
Na3 O4 2.497383 1_555
Na3 O15 2.526896 1_545
Na3 O31 2.528372 1_545
Na3 O20 2.557090 1_555
Na3 O37 2.686823 1_555
Na3 O33 2.913063 1_655
Na4 O70 2.408046 1_555
Na4 O54 2.465984 1_555
Na4 O7 2.482422 1_554
Na4 O12 2.516917 1_555
Na4 O28 2.570757 1_555
Na4 O23 2.624602 1_554
Na4 O38 2.637071 1_555
Na5 O71 2.369525 1_555
Na5 O55 2.391224 1_555
Na5 O6 2.504462 1_555
Na5 O13 2.518470 1_555
Na5 O29 2.534103 1_555
Na5 O22 2.569772 1_555
Na5 O39 2.668080 1_555
Na5 O35 2.921497 1_655
Na6 O56 2.324988 1_555
Na6 O72 2.337921 1_555
Na6 O2 2.448352 1_555
Na6 O9 2.503698 1_555
Na6 O18 2.557242 1_555
Na6 O25 2.565817 1_555
Na6 O44 2.680283 1_455
Na6 O40 2.931875 1_555
Na7 O73 2.349943 1_555
Na7 O57 2.368664 1_555
Na7 O19 2.450083 1_555
Na7 O3 2.473869 1_555
Na7 O8 2.517735 1_556
Na7 O24 2.541136 1_556
Na7 O45 2.773417 1_455
Na7 O41 2.877058 1_555
Na8 O74 2.317930 1_555
Na8 O58 2.401142 1_555
Na8 O0 2.451986 1_565
Na8 O11 2.482390 1_555
Na8 O27 2.550654 1_555
Na8 O16 2.572520 1_565
Na8 O46 2.626569 1_455
Na9 O75 2.346339 1_555
Na9 O59 2.394153 1_555
Na9 O10 2.505363 1_556
Na9 O26 2.522865 1_556
Na9 O1 2.546279 1_565
Na9 O17 2.569856 1_565
Na9 O47 2.681123 1_455
Na9 O43 2.930429 1_555
Na10 O60 2.321602 1_555
Na10 O76 2.326810 1_555
Na10 O6 2.444996 1_555
Na10 O13 2.506929 1_555
Na10 O22 2.563397 1_555
Na10 O29 2.571740 1_555
Na10 O40 2.676163 1_555
Na10 O44 2.940079 1_555
Na11 O77 2.366256 1_555
Na11 O61 2.368255 1_555
Na11 O7 2.419565 1_555
Na11 O12 2.503456 1_556
Na11 O23 2.529359 1_555
Na11 O41 2.636918 1_555
Na11 O28 2.642815 1_556
Na11 O45 2.942822 1_555
Na12 O78 2.306244 1_555
Na12 O62 2.399078 1_555
Na12 O4 2.453495 1_565
Na12 O15 2.482383 1_555
Na12 O31 2.546890 1_555
Na12 O20 2.570792 1_565
Na12 O42 2.635282 1_555
Na13 O79 2.361526 1_555
Na13 O63 2.402805 1_555
Na13 O14 2.475450 1_556
Na13 O30 2.487163 1_556
Na13 O5 2.501060 1_565
Na13 O21 2.594269 1_565
Na13 O43 2.658589 1_555
Na14 O72 2.386245 1_555
Na14 O28 2.436790 1_455
Na14 O32 2.469999 1_555
Na14 O21 2.567453 1_454
Na14 O1 2.580412 1_554
Na14 O8 2.590999 1_555
Na14 O52 2.647631 1_455
Na15 O73 2.358110 1_555
Na15 O33 2.381953 1_555
Na15 O20 2.503230 1_455
Na15 O29 2.530132 1_455
Na15 O9 2.538232 1_555
Na15 O0 2.554341 1_555
Na15 O53 2.681124 1_455
Na15 O49 2.912732 1_555
Na16 O75 2.368527 1_555
Na16 O35 2.390806 1_555
Na16 O22 2.501849 1_455
Na16 O31 2.517258 1_455
Na16 O11 2.533732 1_555
Na16 O2 2.569981 1_555
Na16 O55 2.672427 1_455
Na16 O51 2.922254 1_555
Na17 O76 2.390377 1_555
Na17 O36 2.479797 1_555
Na17 O24 2.486159 1_555
Na17 O12 2.520576 1_555
Na17 O17 2.582591 1_554
Na17 O5 2.609212 1_554
Na17 O48 2.659211 1_555
Na17 O52 2.906246 1_555
Na18 O77 2.349779 1_555
Na18 O37 2.386289 1_555
Na18 O16 2.499960 1_555
Na18 O25 2.524169 1_555
Na18 O13 2.538283 1_555
Na18 O4 2.561748 1_555
Na18 O49 2.676961 1_555
Na18 O53 2.920063 1_555
Na19 O79 2.369147 1_555
Na19 O39 2.383772 1_555
Na19 O18 2.501202 1_555
Na19 O27 2.517635 1_555
Na19 O15 2.536230 1_555
Na19 O6 2.572150 1_555
Na19 O51 2.668408 1_555
Na19 O55 2.925053 1_555
Na20 O64 2.307310 1_555
Na20 O40 2.402718 1_555
Na20 O16 2.453212 1_555
Na20 O25 2.474416 1_555
Na20 O13 2.545735 1_555
Na20 O4 2.572386 1_555
Na20 O56 2.628922 1_555
Na21 O41 2.351304 1_555
Na21 O65 2.364588 1_555
Na21 O24 2.465643 1_556
Na21 O5 2.483820 1_555
Na21 O17 2.490826 1_555
Na21 O12 2.543371 1_556
Na21 O57 2.703055 1_555
Na21 O61 2.901903 1_555
Na22 O42 2.324203 1_555
Na22 O66 2.328486 1_555
Na22 O18 2.449344 1_555
Na22 O27 2.506383 1_555
Na22 O6 2.555002 1_555
Na22 O15 2.571226 1_555
Na22 O58 2.678228 1_555
Na22 O62 2.938161 1_555
Na23 O67 2.337556 1_555
Na23 O43 2.433842 1_555
Na23 O19 2.469651 1_555
Na23 O14 2.502296 1_556
Na23 O26 2.538436 1_556
Na23 O7 2.593077 1_555
Na23 O59 2.730666 1_555
Na23 O63 2.892094 1_555
Na24 O68 2.305709 1_555
Na24 O44 2.401550 1_555
Na24 O20 2.452215 1_555
Na24 O29 2.474990 1_555
Na24 O9 2.544852 1_655
Na24 O0 2.573441 1_655
Na24 O60 2.629588 1_555
Na25 O45 2.356945 1_555
Na25 O69 2.363900 1_555
Na25 O21 2.460360 1_555
Na25 O28 2.504887 1_556
Na25 O1 2.515735 1_655
Na25 O8 2.598882 1_656
Na25 O61 2.666444 1_555
Na25 O57 2.938545 1_655
Na26 O46 2.320569 1_555
Na26 O70 2.332897 1_555
Na26 O22 2.450982 1_555
Na26 O31 2.505393 1_555
Na26 O2 2.561513 1_655
Na26 O11 2.575488 1_655
Na26 O62 2.670342 1_555
Na26 O58 2.935446 1_655
Na27 O71 2.351804 1_555
Na27 O47 2.439380 1_555
Na27 O23 2.472412 1_555
Na27 O30 2.481097 1_556
Na27 O10 2.574111 1_656
Na27 O3 2.587655 1_655
Na27 O63 2.645473 1_555
Mo0 O30 1.897199 1_546
Mo0 O1 1.919041 1_655
Mo0 O10 1.996945 1_646
Mo0 O21 2.034228 1_555
Mo0 O47 2.091600 1_545
Mo0 O32 2.170410 1_656
Mo1 O28 1.961633 1_456
Mo1 O23 1.999199 1_455
Mo1 O3 2.003011 1_555
Mo1 O8 2.095016 1_556
Mo1 O45 2.135748 1_455
Mo1 O34 2.151748 1_556
Mo2 O5 1.973952 1_565
Mo2 O14 2.001641 1_556
Mo2 O26 2.002824 1_556
Mo2 O17 2.106181 1_565
Mo2 O43 2.131407 1_555
Mo2 O36 2.203252 1_566
Mo3 O3 1.989813 1_555
Mo3 O26 1.995299 1_556
Mo3 O19 2.006048 1_555
Mo3 O10 2.053028 1_556
Mo3 O59 2.134264 1_555
Mo3 O50 2.208076 1_556
O0 V0 1.859693 1_555
O0 V6 2.102414 1_555
O1 V5 2.121888 1_555
O2 V1 1.860236 1_555
O2 V7 2.083667 1_555
O4 V2 1.858239 1_555
O4 V9 2.105489 1_555
O5 V8 1.982954 1_555
O6 V4 1.860993 1_555
O6 V11 2.083940 1_555
O7 V3 1.835038 1_555
O7 V10 2.064646 1_555
O8 V5 1.845650 1_554
O9 V6 1.836603 1_555
O9 V1 2.132693 1_555
O11 V7 1.834663 1_555
O11 V0 2.125081 1_565
O12 V8 1.821051 1_554
O12 V3 2.046668 1_554
O13 V9 1.838277 1_555
O13 V4 2.132128 1_555
O14 V10 1.960808 1_554
O15 V11 1.834554 1_555
O15 V2 2.126818 1_565
O16 V6 1.856599 1_555
O16 V2 2.101883 1_555
O17 V5 1.860942 1_555
O18 V7 1.858613 1_555
O18 V4 2.082649 1_555
O19 V3 1.964769 1_555
O20 V9 1.857600 1_555
O20 V0 2.103029 1_655
O21 V8 1.920111 1_555
O22 V11 1.857115 1_555
O22 V1 2.084750 1_655
O23 V10 1.963996 1_555
O24 V3 1.891073 1_554
O24 V5 1.988150 1_554
O25 V4 1.836224 1_555
O25 V6 2.130499 1_555
O27 V2 1.838067 1_565
O27 V7 2.138885 1_555
O28 V8 1.960433 1_554
O29 V1 1.835461 1_655
O29 V9 2.128947 1_555
O30 V10 2.116675 1_554
O31 V0 1.839398 1_665
O31 V11 2.136212 1_555
O32 V12 1.814992 1_555
O33 V13 1.775918 1_555
O33 V0 2.078815 1_555
O34 V14 1.776201 1_555
O35 V15 1.775966 1_555
O35 V1 2.074175 1_555
O36 V16 1.795472 1_555
O37 V17 1.779065 1_555
O37 V2 2.072052 1_555
O38 V18 1.768915 1_555
O38 V3 2.120102 1_554
O39 V19 1.782572 1_555
O39 V4 2.067468 1_555
O40 V20 1.783845 1_555
O40 V4 2.108572 1_555
O41 V21 1.769064 1_555
O41 V3 2.111703 1_555
O42 V22 1.765632 1_555
O42 V2 2.082293 1_565
O43 V23 1.772735 1_555
O44 V24 1.786652 1_555
O44 V1 2.095141 1_655
O45 V25 1.776395 1_555
O46 V26 1.772412 1_555
O46 V0 2.068092 1_665
O47 V27 1.792502 1_555
O48 V20 1.774218 1_555
O48 V5 2.107530 1_554
O49 V21 1.781772 1_555
O49 V6 2.059740 1_555
O50 V22 1.792411 1_555
O51 V23 1.774852 1_555
O51 V7 2.070038 1_555
O52 V24 1.766813 1_555
O52 V8 2.123679 1_554
O53 V25 1.775068 1_555
O53 V9 2.064437 1_555
O54 V26 1.776724 1_555
O54 V10 2.223522 1_554
O55 V27 1.768793 1_555
O55 V11 2.090681 1_555
O56 V12 1.760732 1_555
O56 V6 2.099313 1_555
O57 V13 1.769557 1_555
O57 V5 2.099320 1_555
O58 V14 1.782095 1_555
O58 V7 2.091811 1_555
O59 V15 1.771735 1_555
O60 V16 1.765819 1_555
O60 V9 2.076934 1_555
O61 V17 1.766378 1_555
O61 V8 2.110041 1_555
O62 V18 1.788877 1_555
O62 V11 2.086099 1_555
O63 V19 1.763445 1_555
O63 V10 2.102048 1_555
O64 V22 1.870539 1_545
O64 V16 1.873656 1_555
O65 V23 1.878079 1_545
O65 V17 1.897262 1_555
O66 V20 1.878078 1_555
O66 V18 1.893693 1_555
O67 V21 1.880323 1_555
O67 V19 1.896785 1_555
O68 V12 1.863241 1_655
O68 V26 1.879772 1_545
O69 V27 1.870506 1_545
O69 V13 1.902597 1_655
O70 V24 1.882349 1_555
O70 V14 1.890205 1_655
O71 V25 1.881771 1_555
O71 V15 1.897377 1_655
O72 V14 1.878396 1_555
O72 V20 1.896364 1_555
O73 V15 1.878829 1_555
O73 V21 1.898193 1_555
O74 V12 1.866038 1_565
O74 V22 1.876867 1_555
O75 V13 1.882439 1_565
O75 V23 1.893661 1_555
O76 V18 1.876342 1_555
O76 V24 1.893563 1_555
O77 V19 1.882835 1_555
O77 V25 1.890508 1_555
O78 V16 1.866832 1_565
O78 V26 1.877278 1_555
O79 V27 1.881957 1_555
O79 V17 1.888941 1_565
