# generated using pymatgen
data_Re3Ir
_symmetry_space_group_name_H-M   'P 1'
_cell_length_a   3.88196526
_cell_length_b   3.88196526
_cell_length_c   3.88196526
_cell_angle_alpha   90.00000000
_cell_angle_beta   90.00000000
_cell_angle_gamma   90.00000000
_symmetry_Int_Tables_number   1
_chemical_formula_structural   Re3Ir
_chemical_formula_sum   'Re3 Ir1'
_cell_volume   58.49987439
_cell_formula_units_Z   1
loop_
 _symmetry_equiv_pos_site_id
 _symmetry_equiv_pos_as_xyz
  1  'x, y, z'
loop_
 _atom_site_type_symbol
 _atom_site_label
 _atom_site_symmetry_multiplicity
 _atom_site_fract_x
 _atom_site_fract_y
 _atom_site_fract_z
 _atom_site_occupancy
  Re  Re0  1  0.00000000  0.49999900  0.49999900  1
  Re  Re1  1  0.49999900  0.00000000  0.49999900  1
  Re  Re2  1  0.49999900  0.49999900  0.00000000  1
  Ir  Ir0  1  -0.00000000  -0.00000000  -0.00000000  1
loop_
_geom_bond_atom_site_label_1
_geom_bond_atom_site_label_2
_geom_bond_distance
_geom_bond_site_symmetry_2
Re0 Re2 2.744958 1_555
Re0 Re1 2.744958 1_555
Re0 Re1 2.744964 1_455
Re0 Re1 2.744964 1_565
Re0 Re2 2.744964 1_455
Re0 Re2 2.744964 1_556
Re0 Re2 2.744969 1_456
Re0 Re1 2.744969 1_465
Re1 Re2 2.744958 1_555
Re1 Re2 2.744964 1_545
Re1 Re2 2.744964 1_556
Re1 Re2 2.744969 1_546
Ir0 Re1 2.744958 1_555
Ir0 Re0 2.744958 1_555
Ir0 Re2 2.744958 1_555
Ir0 Re2 2.744964 1_545
Ir0 Re1 2.744964 1_455
Ir0 Re1 2.744964 1_554
Ir0 Re2 2.744964 1_455
Ir0 Re0 2.744964 1_545
Ir0 Re0 2.744964 1_554
Ir0 Re2 2.744969 1_445
Ir0 Re1 2.744969 1_454
Ir0 Re0 2.744969 1_544
