# generated using pymatgen
data_Mn2SnSe4
_symmetry_space_group_name_H-M   'P 1'
_cell_length_a   6.57372800
_cell_length_b   7.92932600
_cell_length_c   13.55545000
_cell_angle_alpha   90.00000000
_cell_angle_beta   90.00000000
_cell_angle_gamma   90.00000000
_symmetry_Int_Tables_number   1
_chemical_formula_structural   Mn2SnSe4
_chemical_formula_sum   'Mn8 Sn4 Se16'
_cell_volume   706.58098082
_cell_formula_units_Z   4
loop_
 _symmetry_equiv_pos_site_id
 _symmetry_equiv_pos_as_xyz
  1  'x, y, z'
loop_
 _atom_site_type_symbol
 _atom_site_label
 _atom_site_symmetry_multiplicity
 _atom_site_fract_x
 _atom_site_fract_y
 _atom_site_fract_z
 _atom_site_occupancy
  Mn  Mn0  1  0.50000000  0.00000000  0.50000000  1
  Mn  Mn1  1  0.00000000  0.50000000  0.00000000  1
  Mn  Mn2  1  0.50000000  0.50000000  0.50000000  1
  Mn  Mn3  1  0.00000000  0.00000000  0.00000000  1
  Mn  Mn4  1  0.99960400  0.75000000  0.26809300  1
  Mn  Mn5  1  0.50039600  0.75000000  0.76809300  1
  Mn  Mn6  1  0.00039600  0.25000000  0.73190700  1
  Mn  Mn7  1  0.49960400  0.25000000  0.23190700  1
  Sn  Sn0  1  0.57718700  0.75000000  0.08849200  1
  Sn  Sn1  1  0.92281300  0.75000000  0.58849200  1
  Sn  Sn2  1  0.42281300  0.25000000  0.91150800  1
  Sn  Sn3  1  0.07718700  0.25000000  0.41150800  1
  Se  Se0  1  0.76370700  0.00085800  0.16969000  1
  Se  Se1  1  0.73629300  0.49914200  0.66969000  1
  Se  Se2  1  0.23629300  0.50085800  0.83031000  1
  Se  Se3  1  0.26370700  0.99914200  0.33031000  1
  Se  Se4  1  0.23629300  0.99914200  0.83031000  1
  Se  Se5  1  0.26370700  0.50085800  0.33031000  1
  Se  Se6  1  0.76370700  0.49914200  0.16969000  1
  Se  Se7  1  0.73629300  0.00085800  0.66969000  1
  Se  Se8  1  0.18424800  0.75000000  0.09237800  1
  Se  Se9  1  0.31575200  0.75000000  0.59237800  1
  Se  Se10  1  0.81575200  0.25000000  0.90762200  1
  Se  Se11  1  0.68424800  0.25000000  0.40762200  1
  Se  Se12  1  0.75877700  0.75000000  0.91876400  1
  Se  Se13  1  0.74122300  0.75000000  0.41876400  1
  Se  Se14  1  0.24122300  0.25000000  0.08123600  1
  Se  Se15  1  0.25877700  0.25000000  0.58123600  1
loop_
_geom_bond_atom_site_label_1
_geom_bond_atom_site_label_2
_geom_bond_distance
_geom_bond_site_symmetry_2
Mn0 Se9 2.639072 1_545
Mn0 Se11 2.639072 1_555
Mn0 Se15 2.767095 1_555
Mn0 Se13 2.767095 1_545
Mn0 Se7 2.775590 1_555
Mn0 Se3 2.775590 1_545
Mn1 Se10 2.639072 1_454
Mn1 Se8 2.639072 1_555
Mn1 Se14 2.767095 1_555
Mn1 Se12 2.767095 1_454
Mn1 Se6 2.775590 1_455
Mn1 Se2 2.775590 1_554
Mn2 Se9 2.639072 1_555
Mn2 Se11 2.639072 1_555
Mn2 Se15 2.767095 1_555
Mn2 Se13 2.767095 1_555
Mn2 Se1 2.775590 1_555
Mn2 Se5 2.775590 1_555
Mn3 Se10 2.639072 1_454
Mn3 Se8 2.639072 1_545
Mn3 Se12 2.767095 1_444
Mn3 Se14 2.767095 1_555
Mn3 Se0 2.775590 1_455
Mn3 Se4 2.775590 1_544
Mn4 Se13 2.656397 1_555
Mn4 Se8 2.673338 1_655
Mn4 Se3 2.761917 1_655
Mn4 Se5 2.761917 1_655
Mn4 Se6 2.853188 1_555
Mn4 Se0 2.853188 1_565
Mn5 Se12 2.656397 1_555
Mn5 Se9 2.673338 1_555
Mn5 Se4 2.761917 1_555
Mn5 Se2 2.761917 1_555
Mn5 Se1 2.853188 1_555
Mn5 Se7 2.853188 1_565
Mn6 Se15 2.656397 1_555
Mn6 Se10 2.673338 1_455
Mn6 Se1 2.761917 1_455
Mn6 Se7 2.761917 1_455
Mn6 Se2 2.853188 1_555
Mn6 Se4 2.853188 1_545
Mn7 Se14 2.656397 1_555
Mn7 Se11 2.673338 1_555
Mn7 Se6 2.761917 1_555
Mn7 Se0 2.761917 1_555
Mn7 Se5 2.853188 1_555
Mn7 Se3 2.853188 1_545
Se0 Sn0 2.582933 1_545
Se1 Sn1 2.582933 1_555
Se2 Sn2 2.582933 1_555
Se3 Sn3 2.582933 1_565
Se4 Sn2 2.582933 1_565
Se5 Sn3 2.582933 1_555
Se6 Sn0 2.582933 1_555
Se7 Sn1 2.582933 1_545
Se8 Sn0 2.583611 1_555
Se9 Sn1 2.583611 1_455
Se10 Sn2 2.583611 1_555
Se11 Sn3 2.583611 1_655
Se12 Sn0 2.591983 1_556
Se13 Sn1 2.591983 1_555
Se14 Sn2 2.591983 1_554
Se15 Sn3 2.591983 1_555
