# generated using pymatgen
data_BaEuZr2O6
_symmetry_space_group_name_H-M   'P 1'
_cell_length_a   8.44182873
_cell_length_b   8.44182873
_cell_length_c   8.44429465
_cell_angle_alpha   90.00000000
_cell_angle_beta   90.00000000
_cell_angle_gamma   90.00000000
_symmetry_Int_Tables_number   1
_chemical_formula_structural   BaEuZr2O6
_chemical_formula_sum   'Ba4 Eu4 Zr8 O24'
_cell_volume   601.77820223
_cell_formula_units_Z   4
loop_
 _symmetry_equiv_pos_site_id
 _symmetry_equiv_pos_as_xyz
  1  'x, y, z'
loop_
 _atom_site_type_symbol
 _atom_site_label
 _atom_site_symmetry_multiplicity
 _atom_site_fract_x
 _atom_site_fract_y
 _atom_site_fract_z
 _atom_site_occupancy
  Ba  Ba0  1  0.50000000  0.00000000  0.50000000  1
  Ba  Ba1  1  0.00000000  0.50000000  -0.00000000  1
  Ba  Ba2  1  0.50000000  0.50000000  -0.00000000  1
  Ba  Ba3  1  0.50000000  0.50000000  0.50000000  1
  Eu  Eu0  1  0.00000000  0.00000000  -0.00000000  1
  Eu  Eu1  1  0.50000000  0.00000000  -0.00000000  1
  Eu  Eu2  1  0.00000000  0.00000000  0.50000000  1
  Eu  Eu3  1  0.00000000  0.50000000  0.50000000  1
  Zr  Zr0  1  0.75176231  0.75176231  0.75000000  1
  Zr  Zr1  1  0.24823769  0.75176231  0.75000000  1
  Zr  Zr2  1  0.75176231  0.75176231  0.25000000  1
  Zr  Zr3  1  0.24823769  0.75176231  0.25000000  1
  Zr  Zr4  1  0.75176231  0.24823769  0.75000000  1
  Zr  Zr5  1  0.24823769  0.24823769  0.75000000  1
  Zr  Zr6  1  0.75176231  0.24823769  0.25000000  1
  Zr  Zr7  1  0.24823769  0.24823769  0.25000000  1
  O  O0  1  0.00000000  0.75387411  0.74742465  1
  O  O1  1  0.50000000  0.75395259  0.75279834  1
  O  O2  1  0.00000000  0.75387411  0.25257535  1
  O  O3  1  0.50000000  0.75395259  0.24720166  1
  O  O4  1  0.00000000  0.24612589  0.74742465  1
  O  O5  1  0.50000000  0.24604741  0.75279834  1
  O  O6  1  0.00000000  0.24612589  0.25257535  1
  O  O7  1  0.50000000  0.24604741  0.24720166  1
  O  O8  1  0.75387411  0.00000000  0.75257535  1
  O  O9  1  0.24612589  0.00000000  0.75257535  1
  O  O10  1  0.75387411  0.00000000  0.24742465  1
  O  O11  1  0.24612589  0.00000000  0.24742465  1
  O  O12  1  0.75395259  0.50000000  0.74720166  1
  O  O13  1  0.24604741  0.50000000  0.74720166  1
  O  O14  1  0.75395259  0.50000000  0.25279834  1
  O  O15  1  0.24604741  0.50000000  0.25279834  1
  O  O16  1  0.75122652  0.75658696  -0.00000000  1
  O  O17  1  0.24877348  0.75658696  -0.00000000  1
  O  O18  1  0.75658696  0.75122652  0.50000000  1
  O  O19  1  0.24341304  0.75122652  0.50000000  1
  O  O20  1  0.75122652  0.24341304  -0.00000000  1
  O  O21  1  0.24877348  0.24341304  -0.00000000  1
  O  O22  1  0.75658696  0.24877348  0.50000000  1
  O  O23  1  0.24341304  0.24877348  0.50000000  1
loop_
_geom_bond_atom_site_label_1
_geom_bond_atom_site_label_2
_geom_bond_distance
_geom_bond_site_symmetry_2
Ba0 O7 2.978467 1_555
Ba0 O3 2.978467 1_545
Ba0 O5 2.978467 1_555
Ba0 O1 2.978467 1_545
Ba0 O19 3.016996 1_545
Ba0 O22 3.016996 1_555
Ba0 O18 3.016996 1_545
Ba0 O23 3.016996 1_555
Ba0 O11 3.023585 1_555
Ba0 O9 3.023585 1_555
Ba0 O8 3.023585 1_555
Ba0 O10 3.023585 1_555
Ba1 O13 2.978467 1_554
Ba1 O14 2.978467 1_455
Ba1 O12 2.978467 1_454
Ba1 O15 2.978467 1_555
Ba1 O20 3.016996 1_455
Ba1 O17 3.016996 1_555
Ba1 O21 3.016996 1_555
Ba1 O16 3.016996 1_455
Ba1 O4 3.023585 1_554
Ba1 O6 3.023585 1_555
Ba1 O0 3.023585 1_554
Ba1 O2 3.023585 1_555
Ba2 O5 2.992224 1_554
Ba2 O7 2.992224 1_555
Ba2 O1 2.992224 1_554
Ba2 O3 2.992224 1_555
Ba2 O14 3.025383 1_555
Ba2 O15 3.025383 1_555
Ba2 O12 3.025383 1_554
Ba2 O13 3.025383 1_554
Ba2 O16 3.031447 1_555
Ba2 O20 3.031447 1_555
Ba2 O17 3.031447 1_555
Ba2 O21 3.031447 1_555
Ba3 O14 2.992224 1_555
Ba3 O15 2.992224 1_555
Ba3 O12 2.992224 1_555
Ba3 O13 2.992224 1_555
Ba3 O7 3.025383 1_555
Ba3 O5 3.025383 1_555
Ba3 O3 3.025383 1_555
Ba3 O1 3.025383 1_555
Ba3 O18 3.031447 1_555
Ba3 O19 3.031447 1_555
Ba3 O22 3.031447 1_555
Ba3 O23 3.031447 1_555
Eu0 O17 2.938171 1_545
Eu0 O16 2.938171 1_445
Eu0 O20 2.938171 1_455
Eu0 O21 2.938171 1_555
Eu0 O10 2.946581 1_455
Eu0 O8 2.946581 1_454
Eu0 O11 2.946581 1_555
Eu0 O9 2.946581 1_554
Eu0 O2 2.977580 1_545
Eu0 O0 2.977580 1_544
Eu0 O6 2.977580 1_555
Eu0 O4 2.977580 1_554
Eu1 O5 2.944779 1_554
Eu1 O3 2.944779 1_545
Eu1 O7 2.944779 1_555
Eu1 O1 2.944779 1_544
Eu1 O16 2.953008 1_545
Eu1 O21 2.953008 1_555
Eu1 O17 2.953008 1_545
Eu1 O20 2.953008 1_555
Eu1 O11 2.993063 1_555
Eu1 O9 2.993063 1_554
Eu1 O10 2.993063 1_555
Eu1 O8 2.993063 1_554
Eu2 O22 2.938171 1_455
Eu2 O18 2.938171 1_445
Eu2 O23 2.938171 1_555
Eu2 O19 2.938171 1_545
Eu2 O0 2.946581 1_545
Eu2 O2 2.946581 1_545
Eu2 O4 2.946581 1_555
Eu2 O6 2.946581 1_555
Eu2 O8 2.977580 1_455
Eu2 O10 2.977580 1_455
Eu2 O9 2.977580 1_555
Eu2 O11 2.977580 1_555
Eu3 O13 2.944779 1_555
Eu3 O14 2.944779 1_455
Eu3 O12 2.944779 1_455
Eu3 O15 2.944779 1_555
Eu3 O18 2.953008 1_455
Eu3 O22 2.953008 1_455
Eu3 O19 2.953008 1_555
Eu3 O23 2.953008 1_555
Eu3 O4 2.993063 1_555
Eu3 O6 2.993063 1_555
Eu3 O2 2.993063 1_555
Eu3 O0 2.993063 1_555
O0 Zr0 2.095769 1_455
O0 Zr1 2.095769 1_555
O1 Zr1 2.125546 1_555
O1 Zr0 2.125546 1_555
O2 Zr2 2.095769 1_455
O2 Zr3 2.095769 1_555
O3 Zr3 2.125546 1_555
O3 Zr2 2.125546 1_555
O4 Zr4 2.095769 1_455
O4 Zr5 2.095769 1_555
O5 Zr5 2.125546 1_555
O5 Zr4 2.125546 1_555
O6 Zr6 2.095769 1_455
O6 Zr7 2.095769 1_555
O7 Zr7 2.125546 1_555
O7 Zr6 2.125546 1_555
O8 Zr0 2.095769 1_545
O8 Zr4 2.095769 1_555
O9 Zr1 2.095769 1_545
O9 Zr5 2.095769 1_555
O10 Zr2 2.095769 1_545
O10 Zr6 2.095769 1_555
O11 Zr3 2.095769 1_545
O11 Zr7 2.095769 1_555
O12 Zr4 2.125546 1_555
O12 Zr0 2.125546 1_555
O13 Zr5 2.125546 1_555
O13 Zr1 2.125546 1_555
O14 Zr6 2.125546 1_555
O14 Zr2 2.125546 1_555
O15 Zr7 2.125546 1_555
O15 Zr3 2.125546 1_555
O16 Zr2 2.111471 1_555
O16 Zr0 2.111471 1_554
O17 Zr1 2.111471 1_554
O17 Zr3 2.111471 1_555
O18 Zr0 2.111471 1_555
O18 Zr2 2.111471 1_555
O19 Zr1 2.111471 1_555
O19 Zr3 2.111471 1_555
O20 Zr4 2.111471 1_554
O20 Zr6 2.111471 1_555
O21 Zr7 2.111471 1_555
O21 Zr5 2.111471 1_554
O22 Zr4 2.111471 1_555
O22 Zr6 2.111471 1_555
O23 Zr7 2.111471 1_555
O23 Zr5 2.111471 1_555
