# generated using pymatgen
data_Tb7NiI12
_symmetry_space_group_name_H-M   'P 1'
_cell_length_a   9.68017446
_cell_length_b   9.68017446
_cell_length_c   9.68017601
_cell_angle_alpha   107.42341284
_cell_angle_beta   107.42341286
_cell_angle_gamma   107.42341086
_symmetry_Int_Tables_number   1
_chemical_formula_structural   Tb7NiI12
_chemical_formula_sum   'Tb7 Ni1 I12'
_cell_volume   746.53466930
_cell_formula_units_Z   1
loop_
 _symmetry_equiv_pos_site_id
 _symmetry_equiv_pos_as_xyz
  1  'x, y, z'
loop_
 _atom_site_type_symbol
 _atom_site_label
 _atom_site_symmetry_multiplicity
 _atom_site_fract_x
 _atom_site_fract_y
 _atom_site_fract_z
 _atom_site_occupancy
  Tb  Tb0  1  0.90044903  0.96939724  0.70250087  1
  Tb  Tb1  1  0.70250087  0.90044903  0.96939724  1
  Tb  Tb2  1  0.96939724  0.70250087  0.90044903  1
  Tb  Tb3  1  0.09955097  0.03060276  0.29749913  1
  Tb  Tb4  1  0.29749913  0.09955097  0.03060276  1
  Tb  Tb5  1  0.03060276  0.29749913  0.09955097  1
  Tb  Tb6  1  0.50000000  0.50000000  0.50000000  1
  Ni  Ni0  1  -0.00000000  0.00000000  -0.00000000  1
  I  I0  1  0.92469170  0.31935276  0.77299415  1
  I  I1  1  0.77299415  0.92469170  0.31935276  1
  I  I2  1  0.31935276  0.77299415  0.92469170  1
  I  I3  1  0.07530830  0.68064724  0.22700585  1
  I  I4  1  0.22700585  0.07530830  0.68064724  1
  I  I5  1  0.68064724  0.22700585  0.07530830  1
  I  I6  1  0.52932981  0.84414068  0.60918596  1
  I  I7  1  0.60918596  0.52932981  0.84414068  1
  I  I8  1  0.84414068  0.60918596  0.52932981  1
  I  I9  1  0.47067019  0.15585932  0.39081404  1
  I  I10  1  0.39081404  0.47067019  0.15585932  1
  I  I11  1  0.15585932  0.39081404  0.47067019  1
loop_
_geom_bond_atom_site_label_1
_geom_bond_atom_site_label_2
_geom_bond_distance
_geom_bond_site_symmetry_2
Ni0 Tb2 2.639333 1_444
Ni0 Tb5 2.639333 1_555
Ni0 Tb4 2.639333 1_555
Ni0 Tb1 2.639333 1_444
Ni0 Tb0 2.639334 1_444
Ni0 Tb3 2.639334 1_555
I0 Tb5 3.110964 1_656
I0 Tb0 3.168660 1_545
I0 Tb2 3.382953 1_555
I1 Tb3 3.110964 1_665
I1 Tb1 3.168660 1_554
I1 Tb0 3.382953 1_555
I2 Tb4 3.110963 1_566
I2 Tb2 3.168660 1_455
I2 Tb1 3.382953 1_555
I3 Tb2 3.110964 1_454
I3 Tb3 3.168660 1_565
I3 Tb5 3.382953 1_555
I4 Tb0 3.110964 1_445
I4 Tb4 3.168660 1_556
I4 Tb3 3.382953 1_555
I5 Tb1 3.110963 1_544
I5 Tb5 3.168660 1_655
I5 Tb4 3.382953 1_555
I6 Tb6 3.072594 1_555
I6 Tb0 3.159793 1_555
I6 Tb1 3.174876 1_555
I7 Tb6 3.072595 1_555
I7 Tb1 3.159793 1_555
I7 Tb2 3.174876 1_555
I8 Tb6 3.072594 1_555
I8 Tb2 3.159794 1_555
I8 Tb0 3.174876 1_555
I9 Tb6 3.072594 1_555
I9 Tb3 3.159793 1_555
I9 Tb4 3.174876 1_555
I10 Tb6 3.072595 1_555
I10 Tb4 3.159793 1_555
I10 Tb5 3.174876 1_555
I11 Tb6 3.072594 1_555
I11 Tb5 3.159794 1_555
I11 Tb3 3.174876 1_555
