# generated using pymatgen
data_K2ReCl5O
_symmetry_space_group_name_H-M   'P 1'
_cell_length_a   10.33148828
_cell_length_b   10.33148828
_cell_length_c   10.33148828
_cell_angle_alpha   139.17574028
_cell_angle_beta   139.17574028
_cell_angle_gamma   59.10698481
_symmetry_Int_Tables_number   1
_chemical_formula_structural   K2ReCl5O
_chemical_formula_sum   'K4 Re2 Cl10 O2'
_cell_volume   466.76167075
_cell_formula_units_Z   2
loop_
 _symmetry_equiv_pos_site_id
 _symmetry_equiv_pos_as_xyz
  1  'x, y, z'
loop_
 _atom_site_type_symbol
 _atom_site_label
 _atom_site_symmetry_multiplicity
 _atom_site_fract_x
 _atom_site_fract_y
 _atom_site_fract_z
 _atom_site_occupancy
  K  K0  1  0.00000000  0.50000000  0.50000000  1
  K  K1  1  0.50000000  0.00000000  0.50000000  1
  K  K2  1  0.75000000  0.25000000  0.50000000  1
  K  K3  1  0.25000000  0.75000000  0.50000000  1
  Re  Re0  1  0.89646700  0.89646700  0.00000000  1
  Re  Re1  1  0.10353300  0.10353300  0.00000000  1
  Cl  Cl0  1  0.12198200  0.12198200  0.46746500  1
  Cl  Cl1  1  0.65451700  0.65451700  0.53253500  1
  Cl  Cl2  1  0.12198200  0.65451700  0.00000000  1
  Cl  Cl3  1  0.65451700  0.12198200  0.00000000  1
  Cl  Cl4  1  0.87801800  0.87801800  0.53253500  1
  Cl  Cl5  1  0.34548300  0.34548300  0.46746500  1
  Cl  Cl6  1  0.87801800  0.34548300  0.00000000  1
  Cl  Cl7  1  0.34548300  0.87801800  0.00000000  1
  Cl  Cl8  1  0.76272200  0.76272200  0.00000000  1
  Cl  Cl9  1  0.23727800  0.23727800  0.00000000  1
  O  O0  1  0.00000000  0.00000000  0.00000000  1
  O  O1  1  0.50000000  0.50000000  0.00000000  1
loop_
_geom_bond_atom_site_label_1
_geom_bond_atom_site_label_2
_geom_bond_distance
_geom_bond_site_symmetry_2
Cl0 Re0 2.386712 1_445
Cl0 K0 3.248724 1_555
Cl0 K1 3.248724 1_555
Cl0 K2 3.562946 1_455
Cl0 K3 3.562946 1_545
Cl1 Re0 2.386712 1_556
Cl1 K1 3.248724 1_565
Cl1 K0 3.248724 1_655
Cl1 K2 3.562946 1_555
Cl1 K3 3.562946 1_555
Cl2 Re0 2.386712 1_455
Cl2 K0 3.248724 1_554
Cl2 K1 3.248724 1_565
Cl2 K2 3.562946 1_454
Cl2 K3 3.562946 1_555
Cl3 Re0 2.386712 1_545
Cl3 K1 3.248724 1_554
Cl3 K0 3.248724 1_655
Cl3 K3 3.562946 1_544
Cl3 K2 3.562946 1_555
Cl4 Re1 2.386712 1_666
Cl4 K1 3.248724 1_565
Cl4 K0 3.248724 1_655
Cl4 K2 3.562946 1_565
Cl4 K3 3.562946 1_655
Cl5 Re1 2.386712 1_555
Cl5 K0 3.248724 1_555
Cl5 K1 3.248724 1_555
Cl5 K2 3.562946 1_555
Cl5 K3 3.562946 1_555
Cl6 Re1 2.386712 1_655
Cl6 K1 3.248724 1_554
Cl6 K0 3.248724 1_655
Cl6 K3 3.562946 1_655
Cl6 K2 3.562946 1_554
Cl7 Re1 2.386712 1_565
Cl7 K1 3.248724 1_565
Cl7 K0 3.248724 1_554
Cl7 K2 3.562946 1_565
Cl7 K3 3.562946 1_554
Cl8 Re0 2.404017 1_555
Cl8 K2 3.610567 1_565
Cl8 K3 3.610567 1_655
Cl8 K3 3.610567 1_554
Cl8 K2 3.610567 1_554
Cl9 Re1 2.404017 1_555
Cl9 K3 3.610567 1_544
Cl9 K2 3.610567 1_555
Cl9 K3 3.610567 1_555
Cl9 K2 3.610567 1_454
O0 Re0 1.860968 1_445
O0 Re1 1.860968 1_555
