# generated using pymatgen
data_MgCr2(PO4)2
_symmetry_space_group_name_H-M   'P 1'
_cell_length_a   9.22562490
_cell_length_b   9.22562490
_cell_length_c   16.48756714
_cell_angle_alpha   61.10839695
_cell_angle_beta   61.10839695
_cell_angle_gamma   31.81149475
_symmetry_Int_Tables_number   1
_chemical_formula_structural   MgCr2(PO4)2
_chemical_formula_sum   'Mg4 Cr8 P8 O32'
_cell_volume   639.58627755
_cell_formula_units_Z   4
loop_
 _symmetry_equiv_pos_site_id
 _symmetry_equiv_pos_as_xyz
  1  'x, y, z'
loop_
 _atom_site_type_symbol
 _atom_site_label
 _atom_site_symmetry_multiplicity
 _atom_site_fract_x
 _atom_site_fract_y
 _atom_site_fract_z
 _atom_site_occupancy
  Mg  Mg0  1  0.14605800  0.57428300  0.62498300  1
  Mg  Mg1  1  0.42571700  0.85394200  0.87501700  1
  Mg  Mg2  1  0.57428300  0.14605800  0.12498300  1
  Mg  Mg3  1  0.85394200  0.42571700  0.37501700  1
  Cr  Cr0  1  0.36455400  0.83672600  0.53066200  1
  Cr  Cr1  1  0.16327400  0.63544600  0.96933800  1
  Cr  Cr2  1  0.63544600  0.16327400  0.46933800  1
  Cr  Cr3  1  0.00000000  0.50000000  0.50000000  1
  Cr  Cr4  1  0.83672600  0.36455400  0.03066200  1
  Cr  Cr5  1  0.68330300  0.31669700  0.25000000  1
  Cr  Cr6  1  0.31669700  0.68330300  0.75000000  1
  Cr  Cr7  1  0.50000000  0.00000000  0.00000000  1
  P  P0  1  0.48967000  0.93628500  0.64238500  1
  P  P1  1  0.80832300  0.22544100  0.89300600  1
  P  P2  1  0.51033000  0.06371500  0.35761500  1
  P  P3  1  0.22544100  0.80832300  0.39300600  1
  P  P4  1  0.93628500  0.48967000  0.14238500  1
  P  P5  1  0.06371500  0.51033000  0.85761500  1
  P  P6  1  0.19167700  0.77455900  0.10699400  1
  P  P7  1  0.77455900  0.19167700  0.60699400  1
  O  O0  1  0.18756900  0.29721000  0.39445700  1
  O  O1  1  0.60109400  0.22248600  0.58430500  1
  O  O2  1  0.29721000  0.18756900  0.89445700  1
  O  O3  1  0.67176400  0.17426400  0.97851200  1
  O  O4  1  0.65003700  0.80129700  0.43742900  1
  O  O5  1  0.68029100  0.38578200  0.80643500  1
  O  O6  1  0.82573600  0.32823600  0.52148800  1
  O  O7  1  0.92447700  0.12685800  0.37990900  1
  O  O8  1  0.32823600  0.82573600  0.02148800  1
  O  O9  1  0.77751400  0.39890600  0.91569500  1
  O  O10  1  0.60694800  0.14329700  0.35835700  1
  O  O11  1  0.98802700  0.41673100  0.23637400  1
  O  O12  1  0.39890600  0.77751400  0.41569500  1
  O  O13  1  0.12685800  0.92447700  0.87990900  1
  O  O14  1  0.81243100  0.70279000  0.60554300  1
  O  O15  1  0.39305200  0.85670300  0.64164300  1
  O  O16  1  0.41673100  0.98802700  0.73637400  1
  O  O17  1  0.17426400  0.67176400  0.47851200  1
  O  O18  1  0.14329700  0.60694800  0.85835700  1
  O  O19  1  0.01197300  0.58326900  0.76362600  1
  O  O20  1  0.87314200  0.07552300  0.12009100  1
  O  O21  1  0.80129700  0.65003700  0.93742900  1
  O  O22  1  0.07552300  0.87314200  0.62009100  1
  O  O23  1  0.38578200  0.68029100  0.30643500  1
  O  O24  1  0.22248600  0.60109400  0.08430500  1
  O  O25  1  0.70279000  0.81243100  0.10554300  1
  O  O26  1  0.58326900  0.01197300  0.26362600  1
  O  O27  1  0.19870300  0.34996300  0.06257100  1
  O  O28  1  0.34996300  0.19870300  0.56257100  1
  O  O29  1  0.61421800  0.31970900  0.69356500  1
  O  O30  1  0.31970900  0.61421800  0.19356500  1
  O  O31  1  0.85670300  0.39305200  0.14164300  1
loop_
_geom_bond_atom_site_label_1
_geom_bond_atom_site_label_2
_geom_bond_distance
_geom_bond_site_symmetry_2
Mg0 O19 2.009670 1_555
Mg0 O17 2.097695 1_555
Mg0 O22 2.195085 1_555
Mg0 O1 2.198394 1_555
Mg0 O14 2.316491 1_455
Mg0 O28 2.664660 1_555
Mg1 O16 2.009670 1_555
Mg1 O8 2.097695 1_556
Mg1 O13 2.195085 1_555
Mg1 O9 2.198394 1_555
Mg1 O2 2.316491 1_565
Mg1 O21 2.664660 1_555
Mg2 O26 2.009670 1_555
Mg2 O3 2.097695 1_554
Mg2 O20 2.195085 1_555
Mg2 O24 2.198394 1_555
Mg2 O25 2.316491 1_545
Mg2 O27 2.664660 1_555
Mg3 O11 2.009670 1_555
Mg3 O6 2.097695 1_555
Mg3 O7 2.195085 1_555
Mg3 O12 2.198394 1_555
Mg3 O0 2.316491 1_655
Mg3 O4 2.664660 1_555
Cr0 O12 2.029217 1_555
Cr0 O15 2.079513 1_555
Cr0 O4 2.125255 1_555
Cr0 O22 2.134021 1_555
Cr0 O6 2.504688 1_555
Cr0 O6 2.654985 1_465
Cr1 O24 2.029217 1_556
Cr1 O18 2.079513 1_555
Cr1 O27 2.125255 1_556
Cr1 O13 2.134021 1_555
Cr1 O3 2.504688 1_555
Cr1 O3 2.654985 1_465
Cr2 O1 2.029217 1_555
Cr2 O10 2.079513 1_555
Cr2 O28 2.125255 1_555
Cr2 O7 2.134021 1_555
Cr2 O17 2.504688 1_555
Cr2 O17 2.654985 1_645
Cr3 O14 2.063144 1_455
Cr3 O0 2.063144 1_555
Cr3 O28 2.099906 1_555
Cr3 O4 2.099906 1_455
Cr4 O9 2.029217 1_554
Cr4 O31 2.079513 1_555
Cr4 O21 2.125255 1_554
Cr4 O20 2.134021 1_555
Cr4 O8 2.504688 1_555
Cr4 O8 2.654985 1_645
Cr5 O31 2.045609 1_555
Cr5 O10 2.045609 1_555
Cr5 O23 2.133425 1_555
Cr5 O30 2.133425 1_555
Cr5 O7 2.638725 1_555
Cr5 O20 2.638725 1_555
Cr6 O15 2.045609 1_555
Cr6 O18 2.045609 1_555
Cr6 O5 2.133425 1_555
Cr6 O29 2.133425 1_555
Cr6 O13 2.638725 1_555
Cr6 O22 2.638725 1_555
Cr7 O25 2.063144 1_545
Cr7 O2 2.063144 1_554
Cr7 O27 2.099906 1_555
Cr7 O21 2.099906 1_544
O0 P2 1.578235 1_555
O1 P7 1.576208 1_555
O2 P5 1.578235 1_555
O3 P1 1.564960 1_555
O4 P2 1.584672 1_565
O5 P1 1.496651 1_555
O6 P7 1.564960 1_555
O7 P3 1.578102 1_645
O8 P6 1.564960 1_555
O9 P1 1.576208 1_555
O10 P2 1.570091 1_555
O11 P4 1.497773 1_555
O12 P3 1.576208 1_555
O13 P1 1.578102 1_465
O14 P0 1.578235 1_555
O15 P0 1.570091 1_555
O16 P0 1.497773 1_555
O17 P3 1.564960 1_555
O18 P5 1.570091 1_555
O19 P5 1.497773 1_555
O20 P6 1.578102 1_645
O21 P5 1.584672 1_655
O22 P7 1.578102 1_465
O23 P3 1.496651 1_555
O24 P6 1.576208 1_555
O25 P4 1.578235 1_555
O26 P2 1.497773 1_555
O27 P4 1.584672 1_455
O28 P0 1.584672 1_545
O29 P7 1.496651 1_555
O30 P6 1.496651 1_555
O31 P4 1.570091 1_555
