# generated using pymatgen
data_BaPb2(SO4)3
_symmetry_space_group_name_H-M   'P 1'
_cell_length_a   5.51824400
_cell_length_b   7.12095900
_cell_length_c   26.12240804
_cell_angle_alpha   89.82558175
_cell_angle_beta   90.00000000
_cell_angle_gamma   90.00000000
_symmetry_Int_Tables_number   1
_chemical_formula_structural   BaPb2(SO4)3
_chemical_formula_sum   'Ba4 Pb8 S12 O48'
_cell_volume   1026.48021199
_cell_formula_units_Z   4
loop_
 _symmetry_equiv_pos_site_id
 _symmetry_equiv_pos_as_xyz
  1  'x, y, z'
loop_
 _atom_site_type_symbol
 _atom_site_label
 _atom_site_symmetry_multiplicity
 _atom_site_fract_x
 _atom_site_fract_y
 _atom_site_fract_z
 _atom_site_occupancy
  Ba  Ba0  1  0.00000000  0.66036000  0.77189100  1
  Ba  Ba1  1  0.00000000  0.66041100  0.43885700  1
  Ba  Ba2  1  0.00000000  0.65990700  0.10600100  1
  Ba  Ba3  1  0.00000000  0.84006000  0.93901800  1
  Pb  Pb0  1  0.00000000  0.83166600  0.60404400  1
  Pb  Pb1  1  0.00000000  0.83184600  0.27071800  1
  Pb  Pb2  1  0.50000000  0.33246200  0.89639700  1
  Pb  Pb3  1  0.50000000  0.33128200  0.56401400  1
  Pb  Pb4  1  0.50000000  0.33126900  0.23066900  1
  Pb  Pb5  1  0.50000000  0.16687700  0.72957500  1
  Pb  Pb6  1  0.50000000  0.16738100  0.39638000  1
  Pb  Pb7  1  0.50000000  0.16804300  0.06319700  1
  S  S0  1  0.50000000  0.68624700  0.68675100  1
  S  S1  1  0.50000000  0.68626500  0.35342300  1
  S  S2  1  0.50000000  0.68617300  0.02117000  1
  S  S3  1  0.50000000  0.81388700  0.85442900  1
  S  S4  1  0.50000000  0.81612700  0.52225000  1
  S  S5  1  0.50000000  0.81616800  0.18895200  1
  S  S6  1  0.00000000  0.31421600  0.97834800  1
  S  S7  1  0.00000000  0.31472700  0.64492400  1
  S  S8  1  0.00000000  0.31476200  0.31159000  1
  S  S9  1  0.00000000  0.18590200  0.81171700  1
  S  S10  1  0.00000000  0.18478100  0.47878700  1
  S  S11  1  0.00000000  0.18468000  0.14545700  1
  O  O0  1  0.50000000  0.59748100  0.97011500  1
  O  O1  1  0.50000000  0.59440400  0.63628200  1
  O  O2  1  0.50000000  0.59442600  0.30295100  1
  O  O3  1  0.50000000  0.90293200  0.80330100  1
  O  O4  1  0.50000000  0.90062300  0.47053500  1
  O  O5  1  0.50000000  0.90058300  0.13726900  1
  O  O6  1  0.00000000  0.40165900  0.69585400  1
  O  O7  1  0.00000000  0.40176100  0.36253600  1
  O  O8  1  0.00000000  0.40326200  0.02908000  1
  O  O9  1  0.00000000  0.09672500  0.86243700  1
  O  O10  1  0.00000000  0.09528000  0.52958700  1
  O  O11  1  0.00000000  0.09515700  0.19625300  1
  O  O12  1  0.50000000  0.54646600  0.72978600  1
  O  O13  1  0.50000000  0.54638600  0.39646800  1
  O  O14  1  0.50000000  0.54356800  0.06341300  1
  O  O15  1  0.50000000  0.95605800  0.89658300  1
  O  O16  1  0.50000000  0.95901300  0.56388700  1
  O  O17  1  0.50000000  0.95901300  0.23059400  1
  O  O18  1  0.00000000  0.45087800  0.93539600  1
  O  O19  1  0.00000000  0.45591400  0.60250800  1
  O  O20  1  0.00000000  0.45589300  0.26916700  1
  O  O21  1  0.00000000  0.04936900  0.76882500  1
  O  O22  1  0.00000000  0.04860500  0.43571400  1
  O  O23  1  0.00000000  0.04862500  0.10237900  1
  O  O24  1  0.27994300  0.80968100  0.69191700  1
  O  O25  1  0.27990800  0.80960500  0.35861600  1
  O  O26  1  0.28133800  0.80931600  0.02694900  1
  O  O27  1  0.71872600  0.69066800  0.86025900  1
  O  O28  1  0.72038200  0.69306200  0.52851700  1
  O  O29  1  0.72034300  0.69303200  0.19523700  1
  O  O30  1  0.77760000  0.19133600  0.97336000  1
  O  O31  1  0.77812100  0.19189800  0.63927800  1
  O  O32  1  0.77812200  0.19192400  0.30595500  1
  O  O33  1  0.22248500  0.30874000  0.80656500  1
  O  O34  1  0.22221700  0.30798500  0.47345400  1
  O  O35  1  0.22216200  0.30796000  0.14015300  1
  O  O36  1  0.22240000  0.19133600  0.97336000  1
  O  O37  1  0.22187900  0.19189800  0.63927800  1
  O  O38  1  0.22187800  0.19192400  0.30595500  1
  O  O39  1  0.77751500  0.30874000  0.80656500  1
  O  O40  1  0.77778300  0.30798500  0.47345400  1
  O  O41  1  0.77783800  0.30796000  0.14015300  1
  O  O42  1  0.72005700  0.80968100  0.69191700  1
  O  O43  1  0.72009200  0.80960500  0.35861600  1
  O  O44  1  0.71866200  0.80931600  0.02694900  1
  O  O45  1  0.28127400  0.69066800  0.86025900  1
  O  O46  1  0.27961800  0.69306200  0.52851700  1
  O  O47  1  0.27965700  0.69303200  0.19523700  1
loop_
_geom_bond_atom_site_label_1
_geom_bond_atom_site_label_2
_geom_bond_distance
_geom_bond_site_symmetry_2
Ba0 O6 2.713161 1_555
Ba0 O21 2.771031 1_565
Ba0 O45 2.790589 1_555
Ba0 O27 2.790589 1_455
Ba0 O24 2.804975 1_555
Ba0 O42 2.804975 1_455
Ba0 O33 2.929726 1_555
Ba0 O39 2.929726 1_455
Ba0 O12 3.079888 1_455
Ba0 O12 3.079888 1_555
Ba0 O3 3.358323 1_455
Ba0 O3 3.358323 1_555
Ba1 O7 2.718365 1_555
Ba1 O22 2.765283 1_565
Ba1 O25 2.809719 1_555
Ba1 O43 2.809719 1_455
Ba1 O46 2.814928 1_555
Ba1 O28 2.814928 1_455
Ba1 O40 2.933394 1_455
Ba1 O34 2.933394 1_555
Ba1 O13 3.082797 1_455
Ba1 O13 3.082797 1_555
Ba1 O4 3.351430 1_455
Ba1 O4 3.351430 1_555
Ba2 O8 2.720269 1_555
Ba2 O23 2.769374 1_565
Ba2 O26 2.791622 1_555
Ba2 O44 2.791622 1_455
Ba2 O47 2.806125 1_555
Ba2 O29 2.806125 1_455
Ba2 O35 2.926818 1_555
Ba2 O41 2.926818 1_455
Ba2 O14 3.089069 1_555
Ba2 O14 3.089069 1_455
Ba2 O5 3.350477 1_455
Ba2 O5 3.350477 1_555
Ba3 O9 2.705578 1_565
Ba3 O18 2.773252 1_555
Ba3 O26 2.780498 1_556
Ba3 O44 2.780498 1_456
Ba3 O45 2.790511 1_555
Ba3 O27 2.790511 1_455
Ba3 O30 2.929457 1_465
Ba3 O36 2.929457 1_565
Ba3 O15 3.085169 1_455
Ba3 O15 3.085169 1_555
Ba3 O0 3.353801 1_455
Ba3 O0 3.353801 1_555
O0 S2 1.477401 1_556
O0 Pb2 2.700352 1_555
O1 S0 1.473460 1_555
O1 Pb3 2.663843 1_555
O2 S1 1.473517 1_555
O2 Pb4 2.664279 1_555
O3 S3 1.476719 1_555
O3 Pb5 2.686956 1_565
O4 S4 1.477183 1_555
O4 Pb6 2.708940 1_565
O5 S5 1.476187 1_555
O5 Pb7 2.710894 1_565
O6 S7 1.469090 1_555
O7 S8 1.469672 1_555
O8 S6 1.470869 1_554
O9 S9 1.467505 1_555
O10 S10 1.470381 1_555
O10 Pb0 2.699000 1_545
O11 S11 1.470355 1_555
O11 Pb1 2.697655 1_545
O12 S0 1.499244 1_555
O12 Pb5 2.703060 1_555
O13 S1 1.499902 1_555
O13 Pb6 2.698887 1_555
O14 S2 1.497356 1_555
O14 Pb7 2.674121 1_555
O15 S3 1.498096 1_555
O15 Pb2 2.680347 1_565
O16 S4 1.491649 1_555
O16 Pb3 2.650924 1_565
O17 S5 1.491544 1_555
O17 Pb4 2.650826 1_565
O18 S6 1.483006 1_555
O19 S7 1.493888 1_555
O19 Pb0 2.676138 1_555
O20 S8 1.493756 1_555
O20 Pb1 2.677576 1_555
O21 S9 1.485694 1_555
O22 S10 1.487608 1_555
O23 S11 1.487143 1_555
O24 S0 1.505361 1_555
O24 Pb0 2.770888 1_555
O25 S1 1.505191 1_555
O25 Pb1 2.771420 1_555
O26 S2 1.499500 1_555
O27 S3 1.499695 1_555
O28 S4 1.507598 1_555
O28 Pb0 2.694324 1_655
O29 S5 1.507769 1_555
O29 Pb1 2.694118 1_655
O30 S6 1.513109 1_655
O30 Pb2 2.717753 1_555
O30 Pb7 2.806961 1_556
O31 S7 1.512178 1_655
O31 Pb3 2.682192 1_555
O31 Pb5 2.819296 1_555
O32 S8 1.512182 1_655
O32 Pb4 2.682514 1_555
O32 Pb6 2.821893 1_555
O33 S9 1.513225 1_555
O33 Pb5 2.724487 1_555
O33 Pb2 2.807630 1_555
O34 S10 1.513954 1_555
O34 Pb6 2.723612 1_555
O34 Pb3 2.824162 1_555
O35 S11 1.513953 1_555
O35 Pb7 2.719695 1_555
O35 Pb4 2.823369 1_555
O36 S6 1.513109 1_555
O36 Pb2 2.717753 1_555
O36 Pb7 2.806961 1_556
O37 S7 1.512178 1_555
O37 Pb3 2.682192 1_555
O37 Pb5 2.819296 1_555
O38 S8 1.512182 1_555
O38 Pb4 2.682514 1_555
O38 Pb6 2.821893 1_555
O39 S9 1.513225 1_655
O39 Pb5 2.724487 1_555
O39 Pb2 2.807630 1_555
O40 S10 1.513954 1_655
O40 Pb6 2.723612 1_555
O40 Pb3 2.824162 1_555
O41 S11 1.513953 1_655
O41 Pb7 2.719695 1_555
O41 Pb4 2.823369 1_555
O42 S0 1.505361 1_555
O42 Pb0 2.770888 1_655
O43 S1 1.505191 1_555
O43 Pb1 2.771420 1_655
O44 S2 1.499500 1_555
O45 S3 1.499695 1_555
O46 S4 1.507598 1_555
O46 Pb0 2.694324 1_555
O47 S5 1.507769 1_555
O47 Pb1 2.694118 1_555
