# generated using pymatgen
data_Ba8Al10B12O41
_symmetry_space_group_name_H-M   'P 1'
_cell_length_a   9.35363500
_cell_length_b   9.93258323
_cell_length_c   11.23431447
_cell_angle_alpha   76.25698005
_cell_angle_beta   73.72265114
_cell_angle_gamma   77.99799002
_symmetry_Int_Tables_number   1
_chemical_formula_structural   Ba8Al10B12O41
_chemical_formula_sum   'Ba8 Al10 B12 O41'
_cell_volume   961.96371666
_cell_formula_units_Z   1
loop_
 _symmetry_equiv_pos_site_id
 _symmetry_equiv_pos_as_xyz
  1  'x, y, z'
loop_
 _atom_site_type_symbol
 _atom_site_label
 _atom_site_symmetry_multiplicity
 _atom_site_fract_x
 _atom_site_fract_y
 _atom_site_fract_z
 _atom_site_occupancy
  Ba  Ba0  1  0.77762100  0.94802400  0.85527700  1
  Ba  Ba1  1  0.22237900  0.05197600  0.14472300  1
  Ba  Ba2  1  0.80426100  0.42479000  0.84899700  1
  Ba  Ba3  1  0.19573900  0.57521000  0.15100300  1
  Ba  Ba4  1  0.79045300  0.57164600  0.44605100  1
  Ba  Ba5  1  0.20954700  0.42835400  0.55394900  1
  Ba  Ba6  1  0.21067000  0.94389800  0.55750200  1
  Ba  Ba7  1  0.78933000  0.05610200  0.44249800  1
  Al  Al0  1  0.58334400  0.28939800  0.70452900  1
  Al  Al1  1  0.41665600  0.71060200  0.29547100  1
  Al  Al2  1  0.45202900  0.33963700  0.99290400  1
  Al  Al3  1  0.54797100  0.66036300  0.00709600  1
  Al  Al4  1  0.10304400  0.13501600  0.81374600  1
  Al  Al5  1  0.89695600  0.86498400  0.18625400  1
  Al  Al6  1  0.13101800  0.63758000  0.79533800  1
  Al  Al7  1  0.86898200  0.36242000  0.20466200  1
  Al  Al8  1  0.57966200  0.79241100  0.70705900  1
  Al  Al9  1  0.42033800  0.20758900  0.29294100  1
  B  B0  1  0.90300700  0.21579100  0.64617200  1
  B  B1  1  0.09699300  0.78420900  0.35382800  1
  B  B2  1  0.43133800  0.07507700  0.66666600  1
  B  B3  1  0.56866200  0.92492300  0.33333400  1
  B  B4  1  0.43947400  0.57646500  0.66305100  1
  B  B5  1  0.56052600  0.42353500  0.33694900  1
  B  B6  1  0.18059400  0.34995900  0.90862300  1
  B  B7  1  0.81940600  0.65004100  0.09137700  1
  B  B8  1  0.11852700  0.84253300  0.93976700  1
  B  B9  1  0.88147300  0.15746700  0.06023300  1
  B  B10  1  0.90058900  0.71587600  0.65673700  1
  B  B11  1  0.09941100  0.28412400  0.34326300  1
  O  O0  1  0.92229100  0.08562800  0.62077700  1
  O  O1  1  0.07770900  0.91437200  0.37922300  1
  O  O2  1  0.77462900  0.31537600  0.63006000  1
  O  O3  1  0.22537100  0.68462400  0.36994000  1
  O  O4  1  0.00387000  0.25297900  0.69984400  1
  O  O5  1  0.99613000  0.74702100  0.30015600  1
  O  O6  1  0.46512500  0.93930400  0.64219900  1
  O  O7  1  0.53487500  0.06069600  0.35780100  1
  O  O8  1  0.28605300  0.14363400  0.68046900  1
  O  O9  1  0.71394700  0.85636600  0.31953100  1
  O  O10  1  0.55240200  0.13704100  0.66597000  1
  O  O11  1  0.44759800  0.86295900  0.33403000  1
  O  O12  1  0.46325500  0.43894500  0.64763100  1
  O  O13  1  0.53674500  0.56105500  0.35236900  1
  O  O14  1  0.29560700  0.65217300  0.67017100  1
  O  O15  1  0.70439300  0.34782700  0.32982900  1
  O  O16  1  0.55862800  0.63753200  0.66396200  1
  O  O17  1  0.44137200  0.36246800  0.33603800  1
  O  O18  1  0.17459700  0.21198300  0.91157900  1
  O  O19  1  0.82540300  0.78801700  0.08842100  1
  O  O20  1  0.10461100  0.45838100  0.83343200  1
  O  O21  1  0.89538900  0.54161900  0.16656800  1
  O  O22  1  0.25991400  0.38273500  0.98129200  1
  O  O23  1  0.74008600  0.61726500  0.01870800  1
  O  O24  1  0.13939200  0.70390600  0.92362600  1
  O  O25  1  0.86060800  0.29609400  0.07637400  1
  O  O26  1  0.09669700  0.86415400  0.06087200  1
  O  O27  1  0.90330300  0.13584600  0.93912800  1
  O  O28  1  0.11928400  0.94750800  0.83375700  1
  O  O29  1  0.88071600  0.05249200  0.16624300  1
  O  O30  1  0.98386400  0.74870800  0.73032700  1
  O  O31  1  0.01613600  0.25129200  0.26967300  1
  O  O32  1  0.93634900  0.59297900  0.61625200  1
  O  O33  1  0.06365100  0.40702100  0.38374800  1
  O  O34  1  0.77344600  0.81422100  0.63621400  1
  O  O35  1  0.22655400  0.18577900  0.36378600  1
  O  O36  1  0.57372200  0.26874000  0.86499300  1
  O  O37  1  0.42627800  0.73126000  0.13500700  1
  O  O38  1  0.43988400  0.21532900  0.13364000  1
  O  O39  1  0.56011600  0.78467100  0.86636000  1
  O  O40  1  0.50000000  0.50000000  0.00000000  1
loop_
_geom_bond_atom_site_label_1
_geom_bond_atom_site_label_2
_geom_bond_distance
_geom_bond_site_symmetry_2
Ba0 O0 2.774791 1_565
Ba0 O30 2.797374 1_555
Ba0 O39 2.814597 1_555
Ba0 O19 2.822911 1_556
Ba0 O27 2.849133 1_565
Ba1 O1 2.774791 1_545
Ba1 O31 2.797374 1_555
Ba1 O38 2.814597 1_555
Ba1 O18 2.822911 1_554
Ba1 O26 2.849133 1_545
Ba2 O25 2.712921 1_556
Ba2 O4 2.735999 1_655
Ba2 O20 2.849763 1_655
Ba2 O36 2.850470 1_555
Ba2 O32 2.850625 1_555
Ba2 O27 2.856487 1_555
Ba2 O23 2.874595 1_556
Ba2 O40 2.923495 1_556
Ba2 O2 3.014136 1_555
Ba3 O24 2.712921 1_554
Ba3 O5 2.735999 1_455
Ba3 O21 2.849763 1_455
Ba3 O37 2.850470 1_555
Ba3 O33 2.850625 1_555
Ba3 O26 2.856487 1_555
Ba3 O22 2.874595 1_554
Ba3 O40 2.923495 1_555
Ba3 O3 3.014136 1_555
Ba4 O32 2.709019 1_555
Ba4 O33 2.738069 1_655
Ba4 O5 2.773339 1_555
Ba4 O2 2.873935 1_555
Ba4 O13 2.882150 1_555
Ba4 O16 2.884199 1_555
Ba4 O9 2.889402 1_555
Ba4 O21 3.083228 1_555
Ba4 O15 3.163468 1_555
Ba5 O33 2.709019 1_555
Ba5 O32 2.738069 1_455
Ba5 O4 2.773339 1_555
Ba5 O3 2.873935 1_555
Ba5 O12 2.882150 1_555
Ba5 O17 2.884199 1_555
Ba5 O8 2.889402 1_555
Ba5 O20 3.083228 1_555
Ba5 O14 3.163468 1_555
Ba6 O1 2.733347 1_555
Ba6 O0 2.753967 1_465
Ba6 O6 2.788541 1_555
Ba6 O35 2.830758 1_565
Ba6 O14 2.914276 1_555
Ba6 O8 2.961655 1_565
Ba6 O28 2.986114 1_555
Ba6 O11 2.993256 1_555
Ba6 O30 3.105167 1_455
Ba7 O0 2.733347 1_555
Ba7 O1 2.753967 1_645
Ba7 O7 2.788541 1_555
Ba7 O34 2.830758 1_545
Ba7 O15 2.914276 1_555
Ba7 O9 2.961655 1_545
Ba7 O29 2.986114 1_555
Ba7 O10 2.993256 1_555
Ba7 O31 3.105167 1_655
Al0 O36 1.743824 1_555
Al0 O10 1.767876 1_555
Al0 O12 1.770354 1_555
Al0 O2 1.793905 1_555
Al1 O37 1.743824 1_555
Al1 O11 1.767876 1_555
Al1 O13 1.770354 1_555
Al1 O3 1.793905 1_555
Al2 O38 1.751369 1_556
Al2 O36 1.756987 1_555
Al2 O40 1.767027 1_556
Al2 O22 1.792857 1_555
Al3 O39 1.751369 1_554
Al3 O37 1.756987 1_555
Al3 O40 1.767027 1_555
Al3 O23 1.792857 1_555
Al4 O28 1.801344 1_545
Al4 O18 1.806857 1_555
Al4 O4 1.836235 1_555
Al4 O8 1.934603 1_555
Al4 O27 1.999650 1_455
Al5 O29 1.801344 1_565
Al5 O19 1.806857 1_555
Al5 O5 1.836235 1_555
Al5 O9 1.934603 1_555
Al5 O26 1.999650 1_655
Al6 O24 1.747324 1_555
Al6 O14 1.775055 1_555
Al6 O20 1.781543 1_555
Al6 O30 1.787443 1_455
Al7 O25 1.747324 1_555
Al7 O15 1.775055 1_555
Al7 O21 1.781543 1_555
Al7 O31 1.787443 1_655
Al8 O39 1.731819 1_555
Al8 O6 1.757798 1_555
Al8 O16 1.781236 1_555
Al8 O34 1.799590 1_555
Al9 O38 1.731819 1_555
Al9 O7 1.757798 1_555
Al9 O17 1.781236 1_555
Al9 O35 1.799590 1_555
B0 O0 1.354556 1_555
B0 O4 1.399900 1_655
B0 O2 1.412754 1_555
B1 O1 1.354556 1_555
B1 O5 1.399900 1_455
B1 O3 1.412754 1_555
B2 O8 1.371733 1_555
B2 O10 1.394189 1_555
B2 O6 1.394370 1_545
B3 O9 1.371733 1_555
B3 O11 1.394189 1_555
B3 O7 1.394370 1_565
B4 O16 1.378647 1_555
B4 O12 1.381924 1_555
B4 O14 1.389284 1_555
B5 O17 1.378647 1_555
B5 O13 1.381924 1_555
B5 O15 1.389284 1_555
B6 O22 1.374483 1_555
B6 O18 1.375394 1_555
B6 O20 1.401575 1_555
B7 O23 1.374483 1_555
B7 O19 1.375394 1_555
B7 O21 1.401575 1_555
B8 O26 1.379751 1_556
B8 O28 1.383442 1_555
B8 O24 1.397828 1_555
B9 O27 1.379751 1_554
B9 O29 1.383442 1_555
B9 O25 1.397828 1_555
B10 O32 1.348153 1_555
B10 O34 1.408976 1_555
B10 O30 1.411129 1_555
B11 O33 1.348153 1_555
B11 O35 1.408976 1_555
B11 O31 1.411129 1_555
