# generated using pymatgen
data_Cs2U(PdSe2)3
_symmetry_space_group_name_H-M   'P 1'
_cell_length_a   11.92830241
_cell_length_b   10.21883400
_cell_length_c   9.47242546
_cell_angle_alpha   74.45970359
_cell_angle_beta   55.62596720
_cell_angle_gamma   49.91432921
_symmetry_Int_Tables_number   1
_chemical_formula_structural   Cs2U(PdSe2)3
_chemical_formula_sum   'Cs4 U2 Pd6 Se12'
_cell_volume   720.70640577
_cell_formula_units_Z   2
loop_
 _symmetry_equiv_pos_site_id
 _symmetry_equiv_pos_as_xyz
  1  'x, y, z'
loop_
 _atom_site_type_symbol
 _atom_site_label
 _atom_site_symmetry_multiplicity
 _atom_site_fract_x
 _atom_site_fract_y
 _atom_site_fract_z
 _atom_site_occupancy
  Cs  Cs0  1  0.75000000  0.75000000  0.75000000  1
  Cs  Cs1  1  0.25000000  0.25000000  0.25000000  1
  Cs  Cs2  1  0.30600274  0.69399726  0.30600274  1
  Cs  Cs3  1  0.69399726  0.30600274  0.69399726  1
  U  U0  1  0.83243583  0.83243583  0.16756417  1
  U  U1  1  0.16756417  0.16756417  0.83243583  1
  Pd  Pd0  1  0.50409538  0.17681919  0.49590462  1
  Pd  Pd1  1  0.82318081  0.49590462  0.17681919  1
  Pd  Pd2  1  0.49590462  0.82318081  0.50409538  1
  Pd  Pd3  1  0.17681919  0.50409538  0.82318081  1
  Pd  Pd4  1  0.82758283  0.17241717  0.17241717  1
  Pd  Pd5  1  0.17241717  0.82758283  0.82758283  1
  Se  Se0  1  0.80632415  0.59581437  0.40418563  1
  Se  Se1  1  0.19367585  0.40418563  0.59581437  1
  Se  Se2  1  0.40418563  0.19367585  0.80632415  1
  Se  Se3  1  0.59581437  0.80632415  0.19367585  1
  Se  Se4  1  0.81556577  0.98386490  0.39818652  1
  Se  Se5  1  0.80238281  0.39818652  0.98386490  1
  Se  Se6  1  0.39818652  0.80238281  0.81556577  1
  Se  Se7  1  0.98386490  0.81556577  0.80238281  1
  Se  Se8  1  0.18443423  0.01613510  0.60181348  1
  Se  Se9  1  0.19761719  0.60181348  0.01613510  1
  Se  Se10  1  0.60181348  0.19761719  0.18443423  1
  Se  Se11  1  0.01613510  0.18443423  0.19761719  1
loop_
_geom_bond_atom_site_label_1
_geom_bond_atom_site_label_2
_geom_bond_distance
_geom_bond_site_symmetry_2
Cs0 Se0 3.547006 1_555
Cs0 Se3 3.547006 1_556
Cs0 Se2 3.547006 1_565
Cs0 Se1 3.547006 1_655
Cs0 Se7 3.553206 1_555
Cs0 Se4 3.553206 1_555
Cs0 Se5 3.553206 1_555
Cs0 Se6 3.553206 1_555
Cs1 Se2 3.547006 1_554
Cs1 Se0 3.547006 1_455
Cs1 Se3 3.547006 1_545
Cs1 Se1 3.547006 1_555
Cs1 Se11 3.553206 1_555
Cs1 Se8 3.553206 1_555
Cs1 Se9 3.553206 1_555
Cs1 Se10 3.553206 1_555
Cs2 Se3 3.834417 1_555
Cs2 Se1 3.834417 1_555
Cs2 Se10 3.872636 1_555
Cs2 Se8 3.872636 1_565
Cs2 Se7 3.872636 1_455
Cs2 Se5 3.872636 1_554
Cs2 Se11 4.130480 1_565
Cs2 Se6 4.130480 1_554
Cs2 Se9 4.130480 1_555
Cs2 Se4 4.130480 1_455
Cs3 Se0 3.834417 1_555
Cs3 Se2 3.834417 1_555
Cs3 Se6 3.872636 1_555
Cs3 Se11 3.872636 1_655
Cs3 Se9 3.872636 1_556
Cs3 Se4 3.872636 1_545
Cs3 Se5 4.130480 1_555
Cs3 Se7 4.130480 1_545
Cs3 Se8 4.130480 1_655
Cs3 Se10 4.130480 1_556
Pd0 Se1 2.479135 1_555
Pd0 Se2 2.479135 1_555
Pd0 Se4 2.491655 1_545
Pd0 Se10 2.491655 1_555
Pd1 Se3 2.479135 1_555
Pd1 Se0 2.479135 1_555
Pd1 Se11 2.491655 1_655
Pd1 Se5 2.491655 1_554
Pd2 Se3 2.479135 1_555
Pd2 Se0 2.479135 1_555
Pd2 Se8 2.491655 1_565
Pd2 Se6 2.491655 1_555
Pd3 Se1 2.479135 1_555
Pd3 Se2 2.479135 1_555
Pd3 Se9 2.491655 1_556
Pd3 Se7 2.491655 1_455
Pd4 Se10 2.471474 1_555
Pd4 Se11 2.471474 1_655
Pd4 Se5 2.471474 1_554
Pd4 Se4 2.471474 1_545
Pd5 Se6 2.471474 1_555
Pd5 Se9 2.471474 1_556
Pd5 Se8 2.471474 1_565
Pd5 Se7 2.471474 1_455
Se0 U0 2.871428 1_555
Se1 U1 2.871428 1_555
Se2 U1 2.871428 1_555
Se3 U0 2.871428 1_555
Se4 U0 2.849777 1_555
Se5 U1 2.849777 1_655
Se6 U1 2.849777 1_565
Se7 U0 2.849777 1_556
Se8 U1 2.849777 1_555
Se9 U0 2.849777 1_455
Se10 U0 2.849777 1_545
Se11 U1 2.849777 1_554
