# generated using pymatgen
data_Ca(CdAu2)2
_symmetry_space_group_name_H-M   'P 1'
_cell_length_a   5.78159296
_cell_length_b   5.78159296
_cell_length_c   5.78159296
_cell_angle_alpha   103.33098068
_cell_angle_beta   103.33098068
_cell_angle_gamma   122.60526306
_symmetry_Int_Tables_number   1
_chemical_formula_structural   Ca(CdAu2)2
_chemical_formula_sum   'Ca1 Cd2 Au4'
_cell_volume   142.80561430
_cell_formula_units_Z   1
loop_
 _symmetry_equiv_pos_site_id
 _symmetry_equiv_pos_as_xyz
  1  'x, y, z'
loop_
 _atom_site_type_symbol
 _atom_site_label
 _atom_site_symmetry_multiplicity
 _atom_site_fract_x
 _atom_site_fract_y
 _atom_site_fract_z
 _atom_site_occupancy
  Ca  Ca0  1  -0.00000000  -0.00000000  0.00000000  1
  Cd  Cd0  1  0.25000000  0.75000000  0.50000000  1
  Cd  Cd1  1  0.75000000  0.25000000  0.50000000  1
  Au  Au0  1  0.30365359  0.30365359  0.60730817  1
  Au  Au1  1  0.69634641  0.69634641  0.39269183  1
  Au  Au2  1  0.69634641  0.30365359  0.00000000  1
  Au  Au3  1  0.30365359  0.69634641  -0.00000000  1
loop_
_geom_bond_atom_site_label_1
_geom_bond_atom_site_label_2
_geom_bond_distance
_geom_bond_site_symmetry_2
Cd0 Cd1 2.776224 1_455
Cd0 Cd1 2.776224 1_565
Au0 Au2 2.816423 1_556
Au0 Au3 2.816423 1_556
Au0 Cd0 2.941574 1_545
Au0 Cd1 2.941574 1_455
Au0 Cd0 2.941576 1_555
Au0 Cd1 2.941576 1_555
Au0 Au1 2.981950 1_445
Au0 Au1 2.981961 1_555
Au0 Ca0 3.079921 1_555
Au0 Ca0 3.416652 1_556
Au0 Ca0 3.416657 1_666
Au1 Au3 2.816423 1_555
Au1 Au2 2.816423 1_555
Au1 Cd1 2.941574 1_565
Au1 Cd0 2.941574 1_655
Au1 Cd0 2.941576 1_555
Au1 Cd1 2.941576 1_555
Au1 Ca0 3.079921 1_666
Au1 Ca0 3.416652 1_665
Au1 Ca0 3.416657 1_555
Au2 Cd1 2.941574 1_555
Au2 Cd1 2.941574 1_554
Au2 Cd0 2.941574 1_655
Au2 Cd0 2.941574 1_544
Au2 Au3 2.981952 1_545
Au2 Au3 2.981952 1_655
Au2 Ca0 3.079916 1_655
Au2 Ca0 3.416657 1_555
Au2 Ca0 3.416657 1_665
Au3 Cd1 2.941574 1_565
Au3 Cd1 2.941574 1_454
Au3 Cd0 2.941574 1_554
Au3 Cd0 2.941574 1_555
Au3 Ca0 3.079916 1_565
Au3 Ca0 3.416657 1_555
Au3 Ca0 3.416657 1_665
