# generated using pymatgen
data_CaSeO4
_symmetry_space_group_name_H-M   'P 1'
_cell_length_a   6.76461382
_cell_length_b   8.34770730
_cell_length_c   6.46674800
_cell_angle_alpha   90.00000000
_cell_angle_beta   90.00000000
_cell_angle_gamma   106.18933228
_symmetry_Int_Tables_number   1
_chemical_formula_structural   CaSeO4
_chemical_formula_sum   'Ca4 Se4 O16'
_cell_volume   350.69026945
_cell_formula_units_Z   4
loop_
 _symmetry_equiv_pos_site_id
 _symmetry_equiv_pos_as_xyz
  1  'x, y, z'
loop_
 _atom_site_type_symbol
 _atom_site_label
 _atom_site_symmetry_multiplicity
 _atom_site_fract_x
 _atom_site_fract_y
 _atom_site_fract_z
 _atom_site_occupancy
  Ca  Ca0  1  0.68841400  0.87299700  0.64104100  1
  Ca  Ca1  1  0.18841400  0.37299700  0.85895900  1
  Ca  Ca2  1  0.31158600  0.12700300  0.35895900  1
  Ca  Ca3  1  0.81158600  0.62700300  0.14104100  1
  Se  Se0  1  0.81896600  0.04756800  0.19355700  1
  Se  Se1  1  0.31896600  0.54756800  0.30644300  1
  Se  Se2  1  0.18103400  0.95243200  0.80644300  1
  Se  Se3  1  0.68103400  0.45243200  0.69355700  1
  O  O0  1  0.02044100  0.21387400  0.15650300  1
  O  O1  1  0.52044100  0.71387400  0.34349700  1
  O  O2  1  0.97955900  0.78612600  0.84349700  1
  O  O3  1  0.47955900  0.28612600  0.65650300  1
  O  O4  1  0.42224200  0.40712700  0.18742300  1
  O  O5  1  0.92224200  0.90712700  0.31257700  1
  O  O6  1  0.57775800  0.59287300  0.81257700  1
  O  O7  1  0.07775800  0.09287300  0.68742300  1
  O  O8  1  0.80225500  0.52947300  0.47956700  1
  O  O9  1  0.30225500  0.02947300  0.02043300  1
  O  O10  1  0.19774500  0.47052700  0.52043300  1
  O  O11  1  0.69774500  0.97052700  0.97956700  1
  O  O12  1  0.65780100  0.08786300  0.36995800  1
  O  O13  1  0.15780100  0.58786300  0.13004200  1
  O  O14  1  0.34219900  0.91213700  0.63004200  1
  O  O15  1  0.84219900  0.41213700  0.86995800  1
loop_
_geom_bond_atom_site_label_1
_geom_bond_atom_site_label_2
_geom_bond_distance
_geom_bond_site_symmetry_2
Ca0 O11 2.330365 1_555
Ca0 O1 2.432327 1_555
Ca0 O14 2.454286 1_555
Ca0 O6 2.506560 1_555
Ca0 O12 2.557390 1_565
Ca0 O5 2.616028 1_555
Ca0 O2 2.629684 1_555
Ca0 O7 2.774875 1_665
Ca1 O10 2.330365 1_555
Ca1 O0 2.432327 1_556
Ca1 O15 2.454286 1_455
Ca1 O7 2.506560 1_555
Ca1 O13 2.557390 1_556
Ca1 O4 2.616028 1_556
Ca1 O3 2.629684 1_555
Ca1 O6 2.774875 1_555
Ca2 O9 2.330365 1_555
Ca2 O3 2.432327 1_555
Ca2 O12 2.454286 1_555
Ca2 O4 2.506560 1_555
Ca2 O14 2.557390 1_545
Ca2 O7 2.616028 1_555
Ca2 O0 2.629684 1_555
Ca2 O5 2.774875 1_445
Ca3 O8 2.330365 1_555
Ca3 O2 2.432327 1_554
Ca3 O13 2.454286 1_655
Ca3 O5 2.506560 1_555
Ca3 O15 2.557390 1_554
Ca3 O6 2.616028 1_554
Ca3 O1 2.629684 1_555
Ca3 O4 2.774875 1_555
O0 Se0 1.669476 1_455
O1 Se1 1.669476 1_555
O2 Se2 1.669476 1_655
O3 Se3 1.669476 1_555
O4 Se1 1.706345 1_555
O5 Se0 1.706345 1_565
O6 Se3 1.706345 1_555
O7 Se2 1.706345 1_545
O8 Se3 1.645267 1_555
O9 Se2 1.645267 1_544
O10 Se1 1.645267 1_555
O11 Se0 1.645267 1_566
O12 Se0 1.675561 1_555
O13 Se1 1.675561 1_555
O14 Se2 1.675561 1_555
O15 Se3 1.675561 1_555
