# generated using pymatgen
data_NaNbFe(PO4)3
_symmetry_space_group_name_H-M   'P 1'
_cell_length_a   9.02347768
_cell_length_b   9.02347768
_cell_length_c   9.02347753
_cell_angle_alpha   57.83306727
_cell_angle_beta   57.83306727
_cell_angle_gamma   57.83306418
_symmetry_Int_Tables_number   1
_chemical_formula_structural   NaNbFe(PO4)3
_chemical_formula_sum   'Na2 Nb2 Fe2 P6 O24'
_cell_volume   493.67834152
_cell_formula_units_Z   2
loop_
 _symmetry_equiv_pos_site_id
 _symmetry_equiv_pos_as_xyz
  1  'x, y, z'
loop_
 _atom_site_type_symbol
 _atom_site_label
 _atom_site_symmetry_multiplicity
 _atom_site_fract_x
 _atom_site_fract_y
 _atom_site_fract_z
 _atom_site_occupancy
  Na  Na0  1  0.62155300  0.62155300  0.62155300  1
  Na  Na1  1  0.12155300  0.12155300  0.12155300  1
  Nb  Nb0  1  0.97311300  0.97311300  0.97311300  1
  Nb  Nb1  1  0.47311300  0.47311300  0.47311300  1
  Fe  Fe0  1  0.76278300  0.76278300  0.76278300  1
  Fe  Fe1  1  0.26278300  0.26278300  0.26278300  1
  P  P0  1  0.07617200  0.37146600  0.64845900  1
  P  P1  1  0.64845900  0.07617200  0.37146600  1
  P  P2  1  0.37146600  0.64845900  0.07617200  1
  P  P3  1  0.14845900  0.87146600  0.57617200  1
  P  P4  1  0.57617100  0.14845900  0.87146600  1
  P  P5  1  0.87146600  0.57617200  0.14845900  1
  O  O0  1  0.10924900  0.33513200  0.48592700  1
  O  O1  1  0.48592700  0.10924900  0.33513200  1
  O  O2  1  0.33513200  0.48592700  0.10924900  1
  O  O3  1  0.98592700  0.83513200  0.60924900  1
  O  O4  1  0.60924900  0.98592700  0.83513200  1
  O  O5  1  0.83513200  0.60924900  0.98592700  1
  O  O6  1  0.89811600  0.53702400  0.68189700  1
  O  O7  1  0.68189700  0.89811600  0.53702400  1
  O  O8  1  0.53702400  0.68189700  0.89811600  1
  O  O9  1  0.18189700  0.03702400  0.39811600  1
  O  O10  1  0.39811600  0.18189700  0.03702400  1
  O  O11  1  0.03702400  0.39811600  0.18189700  1
  O  O12  1  0.05850400  0.19335700  0.83121600  1
  O  O13  1  0.83121600  0.05850400  0.19335700  1
  O  O14  1  0.19335700  0.83121600  0.05850400  1
  O  O15  1  0.33121600  0.69335700  0.55850400  1
  O  O16  1  0.55850400  0.33121600  0.69335700  1
  O  O17  1  0.69335700  0.55850400  0.33121600  1
  O  O18  1  0.24936100  0.39749700  0.62053500  1
  O  O19  1  0.62053500  0.24936100  0.39749700  1
  O  O20  1  0.39749700  0.62053500  0.24936100  1
  O  O21  1  0.12053500  0.89749700  0.74936100  1
  O  O22  1  0.74936100  0.12053500  0.89749700  1
  O  O23  1  0.89749700  0.74936100  0.12053500  1
loop_
_geom_bond_atom_site_label_1
_geom_bond_atom_site_label_2
_geom_bond_distance
_geom_bond_site_symmetry_2
Na0 O8 2.466572 1_555
Na0 O6 2.466572 1_555
Na0 O7 2.466572 1_555
Na0 O17 2.644658 1_555
Na0 O15 2.644658 1_555
Na0 O16 2.644658 1_555
Na1 O9 2.466572 1_555
Na1 O11 2.466572 1_555
Na1 O10 2.466572 1_555
Na1 O12 2.644658 1_554
Na1 O14 2.644658 1_545
Na1 O13 2.644658 1_455
Nb0 O22 1.988013 1_565
Nb0 O21 1.988013 1_655
Nb0 O23 1.988013 1_556
Nb0 O14 2.013286 1_656
Nb0 O13 2.013286 1_566
Nb0 O12 2.013287 1_665
Nb1 O19 1.988013 1_555
Nb1 O20 1.988013 1_555
Nb1 O18 1.988013 1_555
Nb1 O15 2.013286 1_555
Nb1 O16 2.013286 1_555
Nb1 O17 2.013287 1_555
Fe0 O4 1.966276 1_555
Fe0 O5 1.966276 1_555
Fe0 O3 1.966276 1_555
Fe0 O6 2.039405 1_555
Fe0 O7 2.039405 1_555
Fe0 O8 2.039405 1_555
Fe1 O1 1.966276 1_555
Fe1 O0 1.966276 1_555
Fe1 O2 1.966276 1_555
Fe1 O11 2.039405 1_555
Fe1 O10 2.039405 1_555
Fe1 O9 2.039405 1_555
O0 P0 1.513011 1_555
O1 P1 1.513011 1_555
O2 P2 1.513011 1_555
O3 P3 1.513011 1_655
O4 P4 1.513007 1_565
O5 P5 1.513011 1_556
O6 P0 1.520621 1_655
O7 P1 1.520621 1_565
O8 P2 1.520621 1_556
O9 P3 1.520621 1_545
O10 P4 1.520617 1_554
O11 P5 1.520621 1_455
O12 P0 1.580745 1_555
O13 P1 1.580745 1_555
O14 P2 1.580745 1_555
O15 P3 1.580745 1_555
O16 P4 1.580744 1_555
O17 P5 1.580745 1_555
O18 P0 1.571452 1_555
O19 P1 1.571452 1_555
O20 P2 1.571452 1_555
O21 P3 1.571452 1_555
O22 P4 1.571461 1_555
O23 P5 1.571452 1_555
