# generated using pymatgen
data_ZrCuF6
_symmetry_space_group_name_H-M   'P 1'
_cell_length_a   5.66870170
_cell_length_b   5.66870312
_cell_length_c   5.66871305
_cell_angle_alpha   59.99992552
_cell_angle_beta   59.99995028
_cell_angle_gamma   60.00012420
_symmetry_Int_Tables_number   1
_chemical_formula_structural   ZrCuF6
_chemical_formula_sum   'Zr1 Cu1 F6'
_cell_volume   128.80620737
_cell_formula_units_Z   1
loop_
 _symmetry_equiv_pos_site_id
 _symmetry_equiv_pos_as_xyz
  1  'x, y, z'
loop_
 _atom_site_type_symbol
 _atom_site_label
 _atom_site_symmetry_multiplicity
 _atom_site_fract_x
 _atom_site_fract_y
 _atom_site_fract_z
 _atom_site_occupancy
  Zr  Zr0  1  0.00000000  -0.00000000  -0.00000000  1
  Cu  Cu0  1  0.50000000  0.50000000  0.50000000  1
  F  F0  1  0.25102101  0.74897899  0.74897899  1
  F  F1  1  0.74897899  0.25102101  0.74897899  1
  F  F2  1  0.25102201  0.25102201  0.74897799  1
  F  F3  1  0.25102101  0.74897899  0.25102101  1
  F  F4  1  0.74897899  0.25102101  0.25102101  1
  F  F5  1  0.74897799  0.74897799  0.25102201  1
loop_
_geom_bond_atom_site_label_1
_geom_bond_atom_site_label_2
_geom_bond_distance
_geom_bond_site_symmetry_2
Cu0 F5 1.995992 1_555
Cu0 F2 1.995992 1_555
Cu0 F3 1.996007 1_555
Cu0 F1 1.996007 1_555
Cu0 F4 1.996008 1_555
Cu0 F0 1.996008 1_555
F0 Zr0 2.012378 1_566
F1 Zr0 2.012377 1_656
F2 Zr0 2.012378 1_556
F3 Zr0 2.012377 1_565
F4 Zr0 2.012378 1_655
F5 Zr0 2.012378 1_665
