# generated using pymatgen
data_CoBr2(N3O)2
_symmetry_space_group_name_H-M   'P 1'
_cell_length_a   6.81490820
_cell_length_b   6.81490820
_cell_length_c   10.54962574
_cell_angle_alpha   75.27554330
_cell_angle_beta   75.27554330
_cell_angle_gamma   91.57265299
_symmetry_Int_Tables_number   1
_chemical_formula_structural   CoBr2(N3O)2
_chemical_formula_sum   'Co2 Br4 N12 O4'
_cell_volume   456.07908794
_cell_formula_units_Z   2
loop_
 _symmetry_equiv_pos_site_id
 _symmetry_equiv_pos_as_xyz
  1  'x, y, z'
loop_
 _atom_site_type_symbol
 _atom_site_label
 _atom_site_symmetry_multiplicity
 _atom_site_fract_x
 _atom_site_fract_y
 _atom_site_fract_z
 _atom_site_occupancy
  Co  Co0  1  0.03463100  0.96536900  0.75000000  1
  Co  Co1  1  0.96536900  0.03463100  0.25000000  1
  Br  Br0  1  0.78538600  0.05058500  0.54956400  1
  Br  Br1  1  0.94941500  0.21461400  0.95043600  1
  Br  Br2  1  0.21461400  0.94941500  0.45043600  1
  Br  Br3  1  0.05058500  0.78538600  0.04956400  1
  N  N0  1  0.65725000  0.34275000  0.75000000  1
  N  N1  1  0.34275000  0.65725000  0.25000000  1
  N  N2  1  0.19428200  0.80571800  0.75000000  1
  N  N3  1  0.80571800  0.19428200  0.25000000  1
  N  N4  1  0.09457800  0.21104800  0.77915700  1
  N  N5  1  0.78895200  0.90542200  0.72084300  1
  N  N6  1  0.90542200  0.78895200  0.22084300  1
  N  N7  1  0.21104800  0.09457800  0.27915700  1
  N  N8  1  0.87839300  0.85913800  0.94342600  1
  N  N9  1  0.14086200  0.12160700  0.55657400  1
  N  N10  1  0.12160700  0.14086200  0.05657400  1
  N  N11  1  0.85913800  0.87839300  0.44342600  1
  O  O0  1  0.72297600  0.50596700  0.66813900  1
  O  O1  1  0.49403300  0.27702400  0.83186100  1
  O  O2  1  0.27702400  0.49403300  0.33186100  1
  O  O3  1  0.50596700  0.72297600  0.16813900  1
loop_
_geom_bond_atom_site_label_1
_geom_bond_atom_site_label_2
_geom_bond_distance
_geom_bond_site_symmetry_2
Co0 N2 1.559645 1_555
Co0 N5 1.831081 1_455
Co0 N4 1.831081 1_565
Co0 N8 1.980906 1_455
Co0 N9 1.980906 1_565
Co1 N3 1.559645 1_555
Co1 N6 1.831081 1_545
Co1 N7 1.831081 1_655
Co1 N11 1.980906 1_545
Co1 N10 1.980906 1_655
Br0 N11 1.815943 1_545
Br0 N5 1.832813 1_545
Br0 N9 2.480589 1_655
Br1 N10 1.815943 1_656
Br1 N4 1.832813 1_655
Br1 N8 2.480589 1_545
Br2 N9 1.815943 1_565
Br2 N7 1.832813 1_565
Br2 N11 2.480589 1_455
Br3 N8 1.815943 1_454
Br3 N6 1.832813 1_455
Br3 N10 2.480589 1_565
N0 O1 1.213003 1_555
N0 O0 1.213003 1_555
N1 O2 1.213003 1_555
N1 O3 1.213003 1_555
