# generated using pymatgen
data_LiMg6Sb
_symmetry_space_group_name_H-M   'P 1'
_cell_length_a   5.08177300
_cell_length_b   6.42949600
_cell_length_c   11.03566000
_cell_angle_alpha   90.00000000
_cell_angle_beta   90.00000000
_cell_angle_gamma   90.00000000
_symmetry_Int_Tables_number   1
_chemical_formula_structural   LiMg6Sb
_chemical_formula_sum   'Li2 Mg12 Sb2'
_cell_volume   360.57075865
_cell_formula_units_Z   2
loop_
 _symmetry_equiv_pos_site_id
 _symmetry_equiv_pos_as_xyz
  1  'x, y, z'
loop_
 _atom_site_type_symbol
 _atom_site_label
 _atom_site_symmetry_multiplicity
 _atom_site_fract_x
 _atom_site_fract_y
 _atom_site_fract_z
 _atom_site_occupancy
  Li  Li0  1  0.00000000  0.50000000  0.33445800  1
  Li  Li1  1  0.00000000  0.00000000  0.83445800  1
  Mg  Mg0  1  0.00000000  0.24514700  0.08074000  1
  Mg  Mg1  1  0.00000000  0.75485300  0.08074000  1
  Mg  Mg2  1  0.00000000  0.50000000  0.83477200  1
  Mg  Mg3  1  0.50000000  0.24860000  0.91576100  1
  Mg  Mg4  1  0.50000000  0.75140000  0.91576100  1
  Mg  Mg5  1  0.50000000  0.50000000  0.66703200  1
  Mg  Mg6  1  0.00000000  0.74514700  0.58074000  1
  Mg  Mg7  1  0.00000000  0.25485300  0.58074000  1
  Mg  Mg8  1  0.00000000  0.00000000  0.33477200  1
  Mg  Mg9  1  0.50000000  0.74860000  0.41576100  1
  Mg  Mg10  1  0.50000000  0.25140000  0.41576100  1
  Mg  Mg11  1  0.50000000  0.00000000  0.16703200  1
  Sb  Sb0  1  0.50000000  0.50000000  0.17073700  1
  Sb  Sb1  1  0.50000000  0.00000000  0.67073700  1
loop_
_geom_bond_atom_site_label_1
_geom_bond_atom_site_label_2
_geom_bond_distance
_geom_bond_site_symmetry_2
Li0 Sb0 3.117775 1_455
Li0 Sb0 3.117775 1_555
Li0 Mg9 3.133038 1_455
Li0 Mg9 3.133038 1_555
Li0 Mg10 3.133038 1_555
Li0 Mg10 3.133038 1_455
Li0 Mg7 3.141849 1_555
Li0 Mg6 3.141849 1_555
Li0 Mg8 3.214750 1_555
Li0 Mg8 3.214750 1_565
Li0 Mg1 3.244168 1_555
Li0 Mg0 3.244168 1_555
Li1 Sb1 3.117775 1_455
Li1 Sb1 3.117775 1_555
Li1 Mg4 3.133038 1_445
Li1 Mg4 3.133038 1_545
Li1 Mg3 3.133038 1_455
Li1 Mg3 3.133038 1_555
Li1 Mg0 3.141849 1_556
Li1 Mg1 3.141849 1_546
Li1 Mg2 3.214750 1_555
Li1 Mg2 3.214750 1_545
Li1 Mg6 3.244168 1_545
Li1 Mg7 3.244168 1_555
Mg0 Mg3 3.125919 1_554
Mg0 Mg3 3.125919 1_454
Mg0 Mg11 3.138037 1_455
Mg0 Mg11 3.138037 1_555
Mg0 Mg1 3.152343 1_545
Mg0 Mg2 3.170647 1_554
Mg0 Sb0 3.182363 1_455
Mg0 Sb0 3.182363 1_555
Mg0 Mg8 3.216120 1_555
Mg0 Mg1 3.277153 1_555
Mg1 Mg4 3.125919 1_554
Mg1 Mg4 3.125919 1_454
Mg1 Mg11 3.138037 1_565
Mg1 Mg11 3.138037 1_465
Mg1 Mg2 3.170647 1_554
Mg1 Sb0 3.182363 1_455
Mg1 Sb0 3.182363 1_555
Mg1 Mg8 3.216120 1_565
Mg2 Mg3 3.141272 1_455
Mg2 Mg3 3.141272 1_555
Mg2 Mg4 3.141272 1_555
Mg2 Mg4 3.141272 1_455
Mg2 Mg5 3.143685 1_455
Mg2 Mg5 3.143685 1_555
Mg2 Mg6 3.216120 1_555
Mg2 Mg7 3.216120 1_555
Mg3 Sb1 3.141086 1_555
Mg3 Mg5 3.185449 1_555
Mg3 Mg4 3.196745 1_545
Mg3 Mg4 3.232751 1_555
Mg3 Sb0 3.245042 1_556
Mg4 Sb1 3.141086 1_565
Mg4 Mg5 3.185449 1_555
Mg4 Sb0 3.245042 1_556
Mg5 Mg7 3.138037 1_555
Mg5 Mg6 3.138037 1_655
Mg5 Mg7 3.138037 1_655
Mg5 Mg6 3.138037 1_555
Mg5 Mg9 3.200625 1_555
Mg5 Sb1 3.215008 1_555
Mg5 Sb1 3.215008 1_565
Mg6 Mg9 3.125919 1_555
Mg6 Mg9 3.125919 1_455
Mg6 Mg7 3.152343 1_555
Mg6 Mg8 3.170647 1_565
Mg6 Sb1 3.182363 1_565
Mg6 Sb1 3.182363 1_465
Mg6 Mg7 3.277153 1_565
Mg7 Mg8 3.170647 1_555
Mg7 Sb1 3.182363 1_455
Mg7 Sb1 3.182363 1_555
Mg8 Mg9 3.141272 1_445
Mg8 Mg9 3.141272 1_545
Mg9 Sb0 3.141086 1_555
Mg9 Sb1 3.245042 1_565
Mg10 Mg7 3.125919 1_555
Mg10 Mg7 3.125919 1_655
Mg10 Sb0 3.141086 1_555
Mg10 Mg8 3.141272 1_655
Mg10 Mg8 3.141272 1_555
Mg10 Mg11 3.185449 1_555
Mg10 Mg9 3.196745 1_555
Mg10 Mg5 3.200625 1_555
Mg10 Mg9 3.232751 1_545
Mg10 Sb1 3.245042 1_555
Mg11 Mg8 3.143685 1_555
Mg11 Mg8 3.143685 1_655
Mg11 Mg9 3.185449 1_545
Mg11 Mg4 3.200625 1_544
Mg11 Mg3 3.200625 1_554
Mg11 Sb0 3.215008 1_545
Mg11 Sb0 3.215008 1_555
