# generated using pymatgen
data_Rb2LuCl5
_symmetry_space_group_name_H-M   'P 1'
_cell_length_a   7.24316363
_cell_length_b   9.29843296
_cell_length_c   14.65850659
_cell_angle_alpha   90.00000000
_cell_angle_beta   90.00000000
_cell_angle_gamma   90.00000000
_symmetry_Int_Tables_number   1
_chemical_formula_structural   Rb2LuCl5
_chemical_formula_sum   'Rb8 Lu4 Cl20'
_cell_volume   987.25146592
_cell_formula_units_Z   4
loop_
 _symmetry_equiv_pos_site_id
 _symmetry_equiv_pos_as_xyz
  1  'x, y, z'
loop_
 _atom_site_type_symbol
 _atom_site_label
 _atom_site_symmetry_multiplicity
 _atom_site_fract_x
 _atom_site_fract_y
 _atom_site_fract_z
 _atom_site_occupancy
  Rb  Rb0  1  0.25000000  0.66878988  0.91570791  1
  Rb  Rb1  1  0.75000000  0.33121012  0.08429209  1
  Rb  Rb2  1  0.75000000  0.83121012  0.41570791  1
  Rb  Rb3  1  0.25000000  0.16878988  0.58429209  1
  Rb  Rb4  1  0.25000000  0.96808369  0.20849754  1
  Rb  Rb5  1  0.75000000  0.03191631  0.79150246  1
  Rb  Rb6  1  0.75000000  0.53191631  0.70849754  1
  Rb  Rb7  1  0.25000000  0.46808369  0.29150246  1
  Lu  Lu0  1  0.25000000  0.68568327  0.56271461  1
  Lu  Lu1  1  0.75000000  0.31431673  0.43728539  1
  Lu  Lu2  1  0.75000000  0.81431673  0.06271461  1
  Lu  Lu3  1  0.25000000  0.18568327  0.93728539  1
  Cl  Cl0  1  0.25000000  0.53243424  0.70494971  1
  Cl  Cl1  1  0.75000000  0.46756576  0.29505029  1
  Cl  Cl2  1  0.75000000  0.96756576  0.20494971  1
  Cl  Cl3  1  0.25000000  0.03243424  0.79505029  1
  Cl  Cl4  1  0.50618277  0.84627038  0.61345412  1
  Cl  Cl5  1  0.49381723  0.15372962  0.38654588  1
  Cl  Cl6  1  0.49381723  0.65372962  0.11345412  1
  Cl  Cl7  1  0.00618277  0.15372962  0.38654588  1
  Cl  Cl8  1  0.50618277  0.34627038  0.88654588  1
  Cl  Cl9  1  0.99381723  0.84627038  0.61345412  1
  Cl  Cl10  1  0.99381723  0.34627038  0.88654588  1
  Cl  Cl11  1  0.00618277  0.65372962  0.11345412  1
  Cl  Cl12  1  0.25000000  0.78344555  0.39810298  1
  Cl  Cl13  1  0.75000000  0.21655445  0.60189702  1
  Cl  Cl14  1  0.75000000  0.71655445  0.89810298  1
  Cl  Cl15  1  0.25000000  0.28344555  0.10189702  1
  Cl  Cl16  1  -0.00000000  0.50000000  0.50000000  1
  Cl  Cl17  1  -0.00000000  0.00000000  -0.00000000  1
  Cl  Cl18  1  0.50000000  0.50000000  0.50000000  1
  Cl  Cl19  1  0.50000000  0.00000000  -0.00000000  1
loop_
_geom_bond_atom_site_label_1
_geom_bond_atom_site_label_2
_geom_bond_distance
_geom_bond_site_symmetry_2
Cl0 Lu0 2.525389 1_555
Cl0 Rb0 3.339454 1_555
Cl0 Rb6 3.621958 1_455
Cl0 Rb6 3.621958 1_555
Cl0 Rb3 3.815954 1_555
Cl1 Lu1 2.525389 1_555
Cl1 Rb1 3.339454 1_555
Cl1 Rb7 3.621958 1_555
Cl1 Rb7 3.621958 1_655
Cl1 Rb2 3.815954 1_555
Cl2 Lu2 2.525389 1_555
Cl2 Rb2 3.339454 1_555
Cl2 Rb4 3.621958 1_655
Cl2 Rb4 3.621958 1_555
Cl2 Rb1 3.815954 1_565
Cl3 Lu3 2.525389 1_555
Cl3 Rb3 3.339454 1_555
Cl3 Rb5 3.621958 1_555
Cl3 Rb5 3.621958 1_455
Cl3 Rb0 3.815954 1_545
Cl4 Lu0 2.495198 1_555
Cl4 Rb2 3.397153 1_555
Cl4 Rb3 3.552386 1_565
Cl4 Rb5 3.593091 1_565
Cl4 Rb6 3.688320 1_555
Cl5 Lu1 2.495198 1_555
Cl5 Rb3 3.397153 1_555
Cl5 Rb2 3.552386 1_545
Cl5 Rb4 3.593091 1_545
Cl5 Rb7 3.688320 1_555
Cl6 Lu2 2.495198 1_555
Cl6 Rb0 3.397153 1_554
Cl6 Rb1 3.552386 1_555
Cl6 Rb7 3.593091 1_555
Cl6 Rb4 3.688320 1_555
Cl7 Lu1 2.495198 1_455
Cl7 Rb3 3.397153 1_555
Cl7 Rb2 3.552386 1_445
Cl7 Rb4 3.593091 1_545
Cl7 Rb7 3.688320 1_555
Cl8 Lu3 2.495198 1_555
Cl8 Rb1 3.397153 1_556
Cl8 Rb0 3.552386 1_555
Cl8 Rb6 3.593091 1_555
Cl8 Rb5 3.688320 1_555
Cl9 Lu0 2.495198 1_655
Cl9 Rb2 3.397153 1_555
Cl9 Rb3 3.552386 1_665
Cl9 Rb5 3.593091 1_565
Cl9 Rb6 3.688320 1_555
Cl10 Lu3 2.495198 1_655
Cl10 Rb1 3.397153 1_556
Cl10 Rb0 3.552386 1_655
Cl10 Rb6 3.593091 1_555
Cl10 Rb5 3.688320 1_555
Cl11 Lu2 2.495198 1_455
Cl11 Rb0 3.397153 1_554
Cl11 Rb1 3.552386 1_455
Cl11 Rb7 3.593091 1_555
Cl11 Rb4 3.688320 1_555
Cl12 Lu0 2.578512 1_555
Cl12 Rb4 3.266841 1_555
Cl12 Rb7 3.322730 1_555
Cl12 Rb2 3.657828 1_555
Cl12 Rb2 3.657828 1_455
Cl13 Lu1 2.578512 1_555
Cl13 Rb5 3.266841 1_555
Cl13 Rb6 3.322730 1_555
Cl13 Rb3 3.657828 1_555
Cl13 Rb3 3.657828 1_655
Cl14 Lu2 2.578512 1_556
Cl14 Rb6 3.266841 1_555
Cl14 Rb5 3.322730 1_565
Cl14 Rb0 3.657828 1_555
Cl14 Rb0 3.657828 1_655
Cl15 Lu3 2.578512 1_554
Cl15 Rb7 3.266841 1_555
Cl15 Rb4 3.322730 1_545
Cl15 Rb1 3.657828 1_555
Cl15 Rb1 3.657828 1_455
Cl16 Lu0 2.665540 1_555
Cl16 Lu1 2.665540 1_455
Cl16 Rb6 3.564797 1_455
Cl16 Rb7 3.564797 1_555
Cl16 Rb3 3.780268 1_555
Cl16 Rb2 3.780268 1_455
Cl17 Lu2 2.665540 1_445
Cl17 Lu3 2.665540 1_554
Cl17 Rb5 3.564797 1_454
Cl17 Rb4 3.564797 1_545
Cl17 Rb1 3.780268 1_455
Cl17 Rb0 3.780268 1_544
Cl18 Lu0 2.665540 1_555
Cl18 Lu1 2.665540 1_555
Cl18 Rb6 3.564797 1_555
Cl18 Rb7 3.564797 1_555
Cl18 Rb3 3.780268 1_555
Cl18 Rb2 3.780268 1_555
Cl19 Lu2 2.665540 1_545
Cl19 Lu3 2.665540 1_554
Cl19 Rb5 3.564797 1_554
Cl19 Rb4 3.564797 1_545
Cl19 Rb1 3.780268 1_555
Cl19 Rb0 3.780268 1_544
