# generated using pymatgen
data_Ba6Lu2Ga4O15
_symmetry_space_group_name_H-M   'P 1'
_cell_length_a   5.97601900
_cell_length_b   7.99899200
_cell_length_c   18.48124779
_cell_angle_alpha   88.62020115
_cell_angle_beta   90.00000000
_cell_angle_gamma   90.00000000
_symmetry_Int_Tables_number   1
_chemical_formula_structural   Ba6Lu2Ga4O15
_chemical_formula_sum   'Ba12 Lu4 Ga8 O30'
_cell_volume   883.18681409
_cell_formula_units_Z   2
loop_
 _symmetry_equiv_pos_site_id
 _symmetry_equiv_pos_as_xyz
  1  'x, y, z'
loop_
 _atom_site_type_symbol
 _atom_site_label
 _atom_site_symmetry_multiplicity
 _atom_site_fract_x
 _atom_site_fract_y
 _atom_site_fract_z
 _atom_site_occupancy
  Ba  Ba0  1  0.75580600  0.49764400  0.07826100  1
  Ba  Ba1  1  0.24419400  0.50235600  0.92173900  1
  Ba  Ba2  1  0.75580600  0.50235600  0.42173900  1
  Ba  Ba3  1  0.24419400  0.49764400  0.57826100  1
  Ba  Ba4  1  0.74665000  0.97353900  0.08887000  1
  Ba  Ba5  1  0.25335000  0.02646100  0.91113000  1
  Ba  Ba6  1  0.74665000  0.02646100  0.41113000  1
  Ba  Ba7  1  0.25335000  0.97353900  0.58887000  1
  Ba  Ba8  1  0.71783300  0.00000000  0.75000000  1
  Ba  Ba9  1  0.28216700  0.00000000  0.25000000  1
  Ba  Ba10  1  0.67113500  0.50000000  0.75000000  1
  Ba  Ba11  1  0.32886500  0.50000000  0.25000000  1
  Lu  Lu0  1  0.74167200  0.75237400  0.91018900  1
  Lu  Lu1  1  0.25832800  0.24762600  0.08981100  1
  Lu  Lu2  1  0.74167200  0.24762600  0.58981100  1
  Lu  Lu3  1  0.25832800  0.75237400  0.41018900  1
  Ga  Ga0  1  0.75464600  0.75292600  0.55794300  1
  Ga  Ga1  1  0.24535400  0.24707400  0.44205700  1
  Ga  Ga2  1  0.75464600  0.24707400  0.94205700  1
  Ga  Ga3  1  0.24535400  0.75292600  0.05794300  1
  Ga  Ga4  1  0.77600700  0.77007000  0.26702100  1
  Ga  Ga5  1  0.22399300  0.22993000  0.73297900  1
  Ga  Ga6  1  0.77600700  0.22993000  0.23297900  1
  Ga  Ga7  1  0.22399300  0.77007000  0.76702100  1
  O  O0  1  0.20970900  0.00000000  0.75000000  1
  O  O1  1  0.79029100  0.00000000  0.25000000  1
  O  O2  1  0.49527500  0.76352100  0.99596900  1
  O  O3  1  0.50472500  0.23647900  0.00403100  1
  O  O4  1  0.49527500  0.23647900  0.50403100  1
  O  O5  1  0.50472500  0.76352100  0.49596900  1
  O  O6  1  0.75755900  0.95762600  0.60555900  1
  O  O7  1  0.24244100  0.04237400  0.39444100  1
  O  O8  1  0.75755900  0.04237400  0.89444100  1
  O  O9  1  0.24244100  0.95762600  0.10555900  1
  O  O10  1  0.99199500  0.76236200  0.99558900  1
  O  O11  1  0.00800500  0.23763800  0.00441100  1
  O  O12  1  0.99199500  0.23763800  0.50441100  1
  O  O13  1  0.00800500  0.76236200  0.49558900  1
  O  O14  1  0.32095700  0.68716900  0.68211500  1
  O  O15  1  0.67904300  0.31283100  0.31788500  1
  O  O16  1  0.32095700  0.31283100  0.81788500  1
  O  O17  1  0.67904300  0.68716900  0.18211500  1
  O  O18  1  0.45583700  0.74932300  0.83583900  1
  O  O19  1  0.54416300  0.25067700  0.16416100  1
  O  O20  1  0.45583700  0.25067700  0.66416100  1
  O  O21  1  0.54416300  0.74932300  0.33583900  1
  O  O22  1  0.95264900  0.73130800  0.81244500  1
  O  O23  1  0.04735100  0.26869200  0.18755500  1
  O  O24  1  0.95264900  0.26869200  0.68755500  1
  O  O25  1  0.04735100  0.73130800  0.31244500  1
  O  O26  1  0.75572200  0.53073500  0.59259400  1
  O  O27  1  0.24427800  0.46926500  0.40740600  1
  O  O28  1  0.75572200  0.46926500  0.90740600  1
  O  O29  1  0.24427800  0.53073500  0.09259400  1
loop_
_geom_bond_atom_site_label_1
_geom_bond_atom_site_label_2
_geom_bond_distance
_geom_bond_site_symmetry_2
Ba0 O17 2.516499 1_555
Ba0 O19 2.805614 1_555
Ba0 O11 2.931977 1_655
Ba0 O3 2.938636 1_555
Ba0 O10 2.941865 1_554
Ba0 O29 2.943613 1_655
Ba0 O2 3.017342 1_554
Ba0 O29 3.080301 1_555
Ba0 O28 3.171210 1_554
Ba0 O23 3.208007 1_655
Ba1 O16 2.516499 1_555
Ba1 O18 2.805614 1_555
Ba1 O10 2.931977 1_455
Ba1 O2 2.938636 1_555
Ba1 O11 2.941865 1_556
Ba1 O28 2.943613 1_455
Ba1 O3 3.017342 1_556
Ba1 O28 3.080301 1_555
Ba1 O29 3.171210 1_556
Ba1 O22 3.208007 1_455
Ba2 O15 2.516499 1_555
Ba2 O21 2.805614 1_555
Ba2 O13 2.931977 1_655
Ba2 O5 2.938636 1_555
Ba2 O12 2.941865 1_555
Ba2 O27 2.943613 1_655
Ba2 O4 3.017342 1_555
Ba2 O27 3.080301 1_555
Ba2 O26 3.171210 1_555
Ba2 O25 3.208007 1_655
Ba3 O14 2.516499 1_555
Ba3 O20 2.805614 1_555
Ba3 O12 2.931977 1_455
Ba3 O4 2.938636 1_555
Ba3 O13 2.941865 1_555
Ba3 O26 2.943613 1_455
Ba3 O5 3.017342 1_555
Ba3 O26 3.080301 1_555
Ba3 O27 3.171210 1_555
Ba3 O24 3.208007 1_455
Ba4 O10 2.848746 1_554
Ba4 O2 2.857549 1_554
Ba4 O17 2.861819 1_555
Ba4 O19 2.909179 1_565
Ba4 O3 2.968747 1_565
Ba4 O9 2.981268 1_655
Ba4 O1 3.001826 1_565
Ba4 O11 3.029820 1_665
Ba4 O9 3.031269 1_555
Ba5 O11 2.848746 1_556
Ba5 O3 2.857549 1_556
Ba5 O16 2.861819 1_555
Ba5 O18 2.909179 1_545
Ba5 O2 2.968747 1_545
Ba5 O8 2.981268 1_455
Ba5 O0 3.001826 1_555
Ba5 O10 3.029820 1_445
Ba5 O8 3.031269 1_555
Ba6 O12 2.848746 1_555
Ba6 O4 2.857549 1_555
Ba6 O15 2.861819 1_555
Ba6 O21 2.909179 1_545
Ba6 O5 2.968747 1_545
Ba6 O7 2.981268 1_655
Ba6 O1 3.001826 1_555
Ba6 O13 3.029820 1_645
Ba6 O7 3.031269 1_555
Ba7 O13 2.848746 1_555
Ba7 O5 2.857549 1_555
Ba7 O14 2.861819 1_555
Ba7 O20 2.909179 1_565
Ba7 O4 2.968747 1_565
Ba7 O6 2.981268 1_455
Ba7 O0 3.001826 1_565
Ba7 O12 3.029820 1_465
Ba7 O6 3.031269 1_555
Ba8 O8 2.709388 1_555
Ba8 O6 2.709388 1_545
Ba8 O22 2.793009 1_545
Ba8 O24 2.793009 1_555
Ba8 O0 2.939460 1_655
Ba8 O20 2.972471 1_555
Ba8 O18 2.972471 1_545
Ba8 O0 3.036559 1_555
Ba9 O7 2.709388 1_555
Ba9 O9 2.709388 1_545
Ba9 O23 2.793009 1_555
Ba9 O25 2.793009 1_545
Ba9 O1 2.939460 1_455
Ba9 O21 2.972471 1_545
Ba9 O19 2.972471 1_555
Ba9 O1 3.036559 1_555
Ba10 O22 2.772777 1_555
Ba10 O24 2.772777 1_555
Ba10 O16 2.846810 1_555
Ba10 O14 2.846810 1_555
Ba10 O18 2.881291 1_555
Ba10 O20 2.881291 1_555
Ba10 O28 2.957051 1_555
Ba10 O26 2.957051 1_555
Ba11 O25 2.772777 1_555
Ba11 O23 2.772777 1_555
Ba11 O17 2.846810 1_555
Ba11 O15 2.846810 1_555
Ba11 O21 2.881291 1_555
Ba11 O19 2.881291 1_555
Ba11 O27 2.957051 1_555
Ba11 O29 2.957051 1_555
Lu0 O2 2.167067 1_555
Lu0 O10 2.177453 1_555
Lu0 O18 2.192739 1_555
Lu0 O22 2.212661 1_555
Lu0 O28 2.267963 1_555
Lu0 O8 2.332863 1_565
Lu1 O3 2.167067 1_555
Lu1 O11 2.177453 1_555
Lu1 O19 2.192739 1_555
Lu1 O23 2.212661 1_555
Lu1 O29 2.267963 1_555
Lu1 O9 2.332863 1_545
Lu2 O4 2.167067 1_555
Lu2 O12 2.177453 1_555
Lu2 O20 2.192739 1_555
Lu2 O24 2.212661 1_555
Lu2 O26 2.267963 1_555
Lu2 O6 2.332863 1_545
Lu3 O5 2.167067 1_555
Lu3 O13 2.177453 1_555
Lu3 O21 2.192739 1_555
Lu3 O25 2.212661 1_555
Lu3 O27 2.267963 1_555
Lu3 O7 2.332863 1_565
Ga0 O26 1.874604 1_555
Ga0 O6 1.877541 1_555
Ga0 O5 1.882814 1_555
Ga0 O13 1.903134 1_655
Ga1 O27 1.874604 1_555
Ga1 O7 1.877541 1_555
Ga1 O4 1.882814 1_555
Ga1 O12 1.903134 1_455
Ga2 O28 1.874604 1_555
Ga2 O8 1.877541 1_555
Ga2 O3 1.882814 1_556
Ga2 O11 1.903134 1_656
Ga3 O29 1.874604 1_555
Ga3 O9 1.877541 1_555
Ga3 O2 1.882814 1_554
Ga3 O10 1.903134 1_454
Ga4 O17 1.813259 1_555
Ga4 O25 1.848728 1_655
Ga4 O1 1.860394 1_565
Ga4 O21 1.885360 1_555
Ga5 O16 1.813259 1_555
Ga5 O24 1.848728 1_455
Ga5 O0 1.860394 1_555
Ga5 O20 1.885360 1_555
Ga6 O15 1.813259 1_555
Ga6 O23 1.848728 1_655
Ga6 O1 1.860394 1_555
Ga6 O19 1.885360 1_555
Ga7 O14 1.813259 1_555
Ga7 O22 1.848728 1_455
Ga7 O0 1.860394 1_565
Ga7 O18 1.885360 1_555
