# generated using pymatgen
data_Tm3Sb4Au3
_symmetry_space_group_name_H-M   'P 1'
_cell_length_a   8.49538128
_cell_length_b   8.49538128
_cell_length_c   8.49538128
_cell_angle_alpha   109.47122063
_cell_angle_beta   109.47122063
_cell_angle_gamma   109.47122063
_symmetry_Int_Tables_number   1
_chemical_formula_structural   Tm3Sb4Au3
_chemical_formula_sum   'Tm6 Sb8 Au6'
_cell_volume   471.98341147
_cell_formula_units_Z   2
loop_
 _symmetry_equiv_pos_site_id
 _symmetry_equiv_pos_as_xyz
  1  'x, y, z'
loop_
 _atom_site_type_symbol
 _atom_site_label
 _atom_site_symmetry_multiplicity
 _atom_site_fract_x
 _atom_site_fract_y
 _atom_site_fract_z
 _atom_site_occupancy
  Tm  Tm0  1  0.87500000  0.25000000  0.12500000  1
  Tm  Tm1  1  0.62500000  0.75000000  0.37500000  1
  Tm  Tm2  1  0.25000000  0.12500000  0.87500000  1
  Tm  Tm3  1  0.75000000  0.37500000  0.62500000  1
  Tm  Tm4  1  0.12500000  0.87500000  0.25000000  1
  Tm  Tm5  1  0.37500000  0.62500000  0.75000000  1
  Sb  Sb0  1  0.67727320  0.50000000  -0.00000000  1
  Sb  Sb1  1  0.50000000  0.00000000  0.67727320  1
  Sb  Sb2  1  -0.00000000  0.67727320  0.50000000  1
  Sb  Sb3  1  0.82272680  0.82272680  0.82272680  1
  Sb  Sb4  1  0.50000000  0.00000000  0.17727320  1
  Sb  Sb5  1  0.17727320  0.50000000  0.00000000  1
  Sb  Sb6  1  -0.00000000  0.17727320  0.50000000  1
  Sb  Sb7  1  0.32272680  0.32272680  0.32272680  1
  Au  Au0  1  0.37500000  0.25000000  0.62500000  1
  Au  Au1  1  0.12500000  0.75000000  0.87500000  1
  Au  Au2  1  0.25000000  0.62500000  0.37500000  1
  Au  Au3  1  0.75000000  0.87500000  0.12500000  1
  Au  Au4  1  0.62500000  0.37500000  0.25000000  1
  Au  Au5  1  0.87500000  0.12500000  0.75000000  1
loop_
_geom_bond_atom_site_label_1
_geom_bond_atom_site_label_2
_geom_bond_distance
_geom_bond_site_symmetry_2
Sb0 Tm4 3.339576 1_655
Sb0 Tm0 3.339576 1_555
Sb0 Tm3 3.339576 1_554
Sb0 Tm5 3.452283 1_554
Sb0 Tm1 3.452283 1_555
Sb0 Tm2 3.452283 1_554
Sb1 Tm2 3.339576 1_555
Sb1 Tm0 3.339576 1_556
Sb1 Tm5 3.339576 1_545
Sb1 Tm4 3.452283 1_545
Sb1 Tm1 3.452283 1_545
Sb1 Tm3 3.452283 1_555
Sb2 Tm2 3.339576 1_565
Sb2 Tm4 3.339576 1_555
Sb2 Tm1 3.339576 1_455
Sb2 Tm5 3.452283 1_555
Sb2 Tm0 3.452283 1_455
Sb2 Tm3 3.452283 1_455
Sb3 Tm1 3.339576 1_555
Sb3 Tm5 3.339576 1_555
Sb3 Tm3 3.339576 1_555
Sb3 Tm2 3.452283 1_665
Sb3 Tm0 3.452283 1_566
Sb3 Tm4 3.452283 1_656
Sb4 Tm4 3.339576 1_545
Sb4 Tm1 3.339576 1_545
Sb4 Tm3 3.339576 1_555
Sb4 Tm2 3.452283 1_554
Sb4 Tm0 3.452283 1_555
Sb4 Tm5 3.452283 1_544
Sb5 Tm5 3.339576 1_554
Sb5 Tm1 3.339576 1_555
Sb5 Tm2 3.339576 1_554
Sb5 Tm0 3.452283 1_455
Sb5 Tm4 3.452283 1_555
Sb5 Tm3 3.452283 1_454
Sb6 Tm5 3.339576 1_555
Sb6 Tm3 3.339576 1_455
Sb6 Tm0 3.339576 1_455
Sb6 Tm1 3.452283 1_445
Sb6 Tm4 3.452283 1_545
Sb6 Tm2 3.452283 1_555
Sb7 Tm2 3.339576 1_554
Sb7 Tm4 3.339576 1_545
Sb7 Tm0 3.339576 1_455
Sb7 Tm1 3.452283 1_555
Sb7 Tm5 3.452283 1_555
Sb7 Tm3 3.452283 1_555
Au0 Sb6 2.766508 1_555
Au0 Sb7 2.766508 1_555
Au0 Sb1 2.766508 1_555
Au0 Sb0 2.766508 1_556
Au0 Tm5 3.003571 1_555
Au0 Tm4 3.003571 1_545
Au0 Tm2 3.003571 1_555
Au0 Tm3 3.003571 1_555
Au1 Sb5 2.766508 1_556
Au1 Sb3 2.766508 1_455
Au1 Sb4 2.766508 1_566
Au1 Sb2 2.766508 1_555
Au1 Tm5 3.003571 1_555
Au1 Tm2 3.003571 1_565
Au1 Tm3 3.003571 1_455
Au1 Tm4 3.003571 1_556
Au2 Sb7 2.766508 1_555
Au2 Sb2 2.766508 1_555
Au2 Sb1 2.766508 1_565
Au2 Sb5 2.766508 1_555
Au2 Tm5 3.003571 1_555
Au2 Tm1 3.003571 1_555
Au2 Tm0 3.003571 1_455
Au2 Tm4 3.003571 1_555
Au3 Sb6 2.766508 1_665
Au3 Sb0 2.766508 1_555
Au3 Sb4 2.766508 1_565
Au3 Sb3 2.766508 1_554
Au3 Tm5 3.003571 1_554
Au3 Tm1 3.003571 1_555
Au3 Tm4 3.003571 1_655
Au3 Tm0 3.003571 1_565
Au4 Sb4 2.766508 1_555
Au4 Sb0 2.766508 1_555
Au4 Sb7 2.766508 1_555
Au4 Sb2 2.766508 1_655
Au4 Tm1 3.003571 1_555
Au4 Tm2 3.003571 1_554
Au4 Tm0 3.003571 1_555
Au4 Tm3 3.003571 1_555
Au5 Sb5 2.766508 1_656
Au5 Sb6 2.766508 1_655
Au5 Sb1 2.766508 1_555
Au5 Sb3 2.766508 1_545
Au5 Tm1 3.003571 1_545
Au5 Tm0 3.003571 1_556
Au5 Tm2 3.003571 1_655
Au5 Tm3 3.003571 1_555
