# generated using pymatgen
data_Pt(NCl)2
_symmetry_space_group_name_H-M   'P 1'
_cell_length_a   5.18275000
_cell_length_b   9.16812800
_cell_length_c   9.16812800
_cell_angle_alpha   90.00000000
_cell_angle_beta   90.00000000
_cell_angle_gamma   90.00000000
_symmetry_Int_Tables_number   1
_chemical_formula_structural   Pt(NCl)2
_chemical_formula_sum   'Pt4 N8 Cl8'
_cell_volume   435.63382798
_cell_formula_units_Z   4
loop_
 _symmetry_equiv_pos_site_id
 _symmetry_equiv_pos_as_xyz
  1  'x, y, z'
loop_
 _atom_site_type_symbol
 _atom_site_label
 _atom_site_symmetry_multiplicity
 _atom_site_fract_x
 _atom_site_fract_y
 _atom_site_fract_z
 _atom_site_occupancy
  Pt  Pt0  1  0.50000000  0.50000000  0.50000000  1
  Pt  Pt1  1  0.00000000  0.00000000  0.00000000  1
  Pt  Pt2  1  0.00000000  0.50000000  0.50000000  1
  Pt  Pt3  1  0.50000000  0.00000000  0.00000000  1
  N  N0  1  0.50000000  0.21635900  0.99401800  1
  N  N1  1  0.50000000  0.78364100  0.00598200  1
  N  N2  1  0.00000000  0.28364100  0.49401800  1
  N  N3  1  0.00000000  0.71635900  0.50598200  1
  N  N4  1  0.50000000  0.99401800  0.78364100  1
  N  N5  1  0.50000000  0.00598200  0.21635900  1
  N  N6  1  0.00000000  0.49401800  0.71635900  1
  N  N7  1  0.00000000  0.50598200  0.28364100  1
  Cl  Cl0  1  0.50000000  0.75143900  0.51229300  1
  Cl  Cl1  1  0.50000000  0.24856100  0.48770700  1
  Cl  Cl2  1  0.00000000  0.74856100  0.01229300  1
  Cl  Cl3  1  0.00000000  0.25143900  0.98770700  1
  Cl  Cl4  1  0.50000000  0.51229300  0.24856100  1
  Cl  Cl5  1  0.50000000  0.48770700  0.75143900  1
  Cl  Cl6  1  0.00000000  0.01229300  0.25143900  1
  Cl  Cl7  1  0.00000000  0.98770700  0.74856100  1
loop_
_geom_bond_atom_site_label_1
_geom_bond_atom_site_label_2
_geom_bond_distance
_geom_bond_site_symmetry_2
N0 Pt3 1.984365 1_556
N1 Pt3 1.984365 1_565
N2 Pt2 1.984365 1_555
N3 Pt2 1.984365 1_555
N4 Pt3 1.984365 1_566
N5 Pt3 1.984365 1_555
N6 Pt2 1.984365 1_555
N7 Pt2 1.984365 1_555
Cl0 Pt0 2.307978 1_555
Cl1 Pt0 2.307978 1_555
Cl2 Pt1 2.307978 1_565
Cl3 Pt1 2.307978 1_556
Cl4 Pt0 2.307978 1_555
Cl5 Pt0 2.307978 1_555
Cl6 Pt1 2.307978 1_555
Cl7 Pt1 2.307978 1_566
