# generated using pymatgen
data_Sm3TaO7
_symmetry_space_group_name_H-M   'P 1'
_cell_length_a   8.30366118
_cell_length_b   8.30366118
_cell_length_c   5.47188600
_cell_angle_alpha   90.00000000
_cell_angle_beta   90.00000000
_cell_angle_gamma   125.14894925
_symmetry_Int_Tables_number   1
_chemical_formula_structural   Sm3TaO7
_chemical_formula_sum   'Sm6 Ta2 O14'
_cell_volume   308.49495426
_cell_formula_units_Z   2
loop_
 _symmetry_equiv_pos_site_id
 _symmetry_equiv_pos_as_xyz
  1  'x, y, z'
loop_
 _atom_site_type_symbol
 _atom_site_label
 _atom_site_symmetry_multiplicity
 _atom_site_fract_x
 _atom_site_fract_y
 _atom_site_fract_z
 _atom_site_occupancy
  Sm  Sm0  1  0.38223700  0.61776300  0.52759100  1
  Sm  Sm1  1  0.50000000  0.00000000  0.00000000  1
  Sm  Sm2  1  0.88223700  0.11776300  0.47240900  1
  Sm  Sm3  1  0.61776300  0.38223700  0.47240900  1
  Sm  Sm4  1  0.00000000  0.50000000  0.00000000  1
  Sm  Sm5  1  0.11776300  0.88223700  0.52759100  1
  Ta  Ta0  1  0.75000000  0.75000000  0.00000000  1
  Ta  Ta1  1  0.25000000  0.25000000  0.00000000  1
  O  O0  1  0.98970200  0.01029800  0.20753100  1
  O  O1  1  0.51029800  0.48970200  0.20753100  1
  O  O2  1  0.48970200  0.51029800  0.79246900  1
  O  O3  1  0.66097200  0.89291800  0.76671700  1
  O  O4  1  0.75000000  0.25000000  0.24324300  1
  O  O5  1  0.01029800  0.98970200  0.79246900  1
  O  O6  1  0.10708200  0.33902800  0.76671700  1
  O  O7  1  0.83902800  0.60708200  0.76671700  1
  O  O8  1  0.16097200  0.39291800  0.23328300  1
  O  O9  1  0.25000000  0.75000000  0.75675700  1
  O  O10  1  0.39291800  0.16097200  0.76671700  1
  O  O11  1  0.60708200  0.83902800  0.23328300  1
  O  O12  1  0.33902800  0.10708200  0.23328300  1
  O  O13  1  0.89291800  0.66097200  0.23328300  1
loop_
_geom_bond_atom_site_label_1
_geom_bond_atom_site_label_2
_geom_bond_distance
_geom_bond_site_symmetry_2
O0 Sm2 2.147127 1_555
O0 Ta0 2.229247 1_545
O0 Ta1 2.229247 1_655
O0 Sm5 2.575009 1_645
O1 Sm3 2.147127 1_555
O1 Ta1 2.229247 1_555
O1 Ta0 2.229247 1_555
O1 Sm0 2.575009 1_555
O2 Sm0 2.147127 1_555
O2 Ta1 2.229247 1_556
O2 Ta0 2.229247 1_556
O2 Sm3 2.575009 1_555
O3 Ta0 2.143467 1_556
O3 Sm2 2.346334 1_565
O3 Sm1 2.361185 1_566
O3 Sm0 2.490081 1_555
O4 Sm2 2.317789 1_555
O4 Sm3 2.317789 1_555
O4 Sm4 2.329914 1_655
O4 Sm1 2.329914 1_555
O5 Sm5 2.147127 1_555
O5 Ta0 2.229247 1_456
O5 Ta1 2.229247 1_566
O5 Sm2 2.575009 1_465
O6 Ta1 2.143467 1_556
O6 Sm2 2.346334 1_455
O6 Sm4 2.361185 1_556
O6 Sm0 2.490081 1_555
O7 Ta0 2.143467 1_556
O7 Sm3 2.346334 1_555
O7 Sm4 2.361185 1_656
O7 Sm5 2.490081 1_655
O8 Ta1 2.143467 1_555
O8 Sm0 2.346334 1_555
O8 Sm4 2.361185 1_555
O8 Sm2 2.490081 1_455
O9 Sm0 2.317789 1_555
O9 Sm5 2.317789 1_555
O9 Sm1 2.329914 1_566
O9 Sm4 2.329914 1_556
O10 Ta1 2.143467 1_556
O10 Sm3 2.346334 1_555
O10 Sm1 2.361185 1_556
O10 Sm5 2.490081 1_545
O11 Ta0 2.143467 1_555
O11 Sm0 2.346334 1_555
O11 Sm1 2.361185 1_565
O11 Sm2 2.490081 1_565
O12 Ta1 2.143467 1_555
O12 Sm5 2.346334 1_545
O12 Sm1 2.361185 1_555
O12 Sm3 2.490081 1_555
O13 Ta0 2.143467 1_555
O13 Sm5 2.346334 1_655
O13 Sm4 2.361185 1_655
O13 Sm3 2.490081 1_555
