# generated using pymatgen
data_CaMg14Al
_symmetry_space_group_name_H-M   'P 1'
_cell_length_a   6.43599208
_cell_length_b   6.37488705
_cell_length_c   10.46052128
_cell_angle_alpha   90.00000000
_cell_angle_beta   90.00000000
_cell_angle_gamma   119.68643148
_symmetry_Int_Tables_number   1
_chemical_formula_structural   CaMg14Al
_chemical_formula_sum   'Ca1 Mg14 Al1'
_cell_volume   372.85120526
_cell_formula_units_Z   1
loop_
 _symmetry_equiv_pos_site_id
 _symmetry_equiv_pos_as_xyz
  1  'x, y, z'
loop_
 _atom_site_type_symbol
 _atom_site_label
 _atom_site_symmetry_multiplicity
 _atom_site_fract_x
 _atom_site_fract_y
 _atom_site_fract_z
 _atom_site_occupancy
  Ca  Ca0  1  0.16317370  0.83158635  0.12500000  1
  Mg  Mg0  1  0.16458103  0.33229001  0.62500000  1
  Mg  Mg1  1  0.16786283  0.83393091  0.62500000  1
  Mg  Mg2  1  0.66188658  0.33635958  0.12500000  1
  Mg  Mg3  1  0.66634180  0.33052213  0.62500000  1
  Mg  Mg4  1  0.66188658  0.82552599  0.12500000  1
  Mg  Mg5  1  0.66634180  0.83581867  0.62500000  1
  Mg  Mg6  1  0.33409408  0.17214664  0.37886799  1
  Mg  Mg7  1  0.33409408  0.17214664  0.87113201  1
  Mg  Mg8  1  0.33409408  0.66194845  0.37886799  1
  Mg  Mg9  1  0.33409408  0.66194845  0.87113201  1
  Mg  Mg10  1  0.83670941  0.16835521  0.36857823  1
  Mg  Mg11  1  0.83670941  0.16835521  0.88142177  1
  Mg  Mg12  1  0.82871502  0.66435801  0.38347928  1
  Mg  Mg13  1  0.82871502  0.66435801  0.86652072  1
  Al  Al0  1  0.18070049  0.34034974  0.12500000  1
loop_
_geom_bond_atom_site_label_1
_geom_bond_atom_site_label_2
_geom_bond_distance
_geom_bond_site_symmetry_2
Ca0 Mg2 3.207322 1_455
Ca0 Mg4 3.207322 1_455
Ca0 Mg2 3.229020 1_565
Ca0 Mg4 3.229020 1_555
Ca0 Mg8 3.257307 1_555
Ca0 Mg9 3.257307 1_554
Ca0 Mg6 3.257313 1_565
Ca0 Mg7 3.257313 1_564
Ca0 Mg13 3.287515 1_454
Ca0 Mg12 3.287515 1_455
Mg0 Mg7 3.156676 1_555
Mg0 Mg6 3.156676 1_555
Mg0 Mg9 3.156682 1_555
Mg0 Mg8 3.156682 1_555
Mg0 Mg1 3.187496 1_555
Mg0 Mg1 3.187496 1_545
Mg0 Mg5 3.201097 1_445
Mg0 Mg3 3.201097 1_455
Mg0 Mg5 3.234924 1_555
Mg0 Mg3 3.234925 1_555
Mg0 Mg11 3.248914 1_455
Mg0 Mg10 3.248914 1_455
Mg1 Mg13 3.158905 1_455
Mg1 Mg12 3.158905 1_455
Mg1 Mg9 3.183925 1_555
Mg1 Mg8 3.183925 1_555
Mg1 Mg7 3.183932 1_565
Mg1 Mg6 3.183932 1_565
Mg1 Mg3 3.202264 1_565
Mg1 Mg5 3.202264 1_555
Mg1 Mg3 3.233762 1_455
Mg1 Mg5 3.233762 1_455
Mg2 Mg4 3.118381 1_555
Mg2 Mg6 3.226643 1_555
Mg2 Mg7 3.226643 1_554
Mg2 Mg4 3.256506 1_545
Mg3 Mg5 3.153679 1_545
Mg3 Mg7 3.175272 1_555
Mg3 Mg6 3.175272 1_555
Mg3 Mg5 3.221208 1_555
Mg4 Mg8 3.226643 1_555
Mg4 Mg9 3.226643 1_554
Mg5 Mg9 3.175271 1_555
Mg5 Mg8 3.175271 1_555
Mg6 Mg8 3.122431 1_555
Mg6 Mg8 3.252456 1_545
Mg7 Mg9 3.122431 1_555
Mg7 Mg9 3.252456 1_545
Mg10 Mg2 3.177850 1_555
Mg10 Mg4 3.177857 1_545
Mg10 Mg8 3.191078 1_655
Mg10 Mg6 3.191079 1_655
Mg10 Mg12 3.191566 1_555
Mg10 Mg12 3.191566 1_545
Mg10 Mg8 3.248650 1_545
Mg10 Mg6 3.248650 1_555
Mg10 Mg3 3.254006 1_555
Mg10 Mg5 3.254012 1_545
Mg11 Mg2 3.177850 1_556
Mg11 Mg4 3.177857 1_546
Mg11 Mg9 3.191078 1_655
Mg11 Mg7 3.191079 1_655
Mg11 Mg13 3.191566 1_555
Mg11 Mg13 3.191566 1_545
Mg11 Mg9 3.248650 1_545
Mg11 Mg7 3.248650 1_555
Mg11 Mg3 3.254006 1_555
Mg11 Mg5 3.254012 1_545
Mg12 Mg5 3.130674 1_555
Mg12 Mg3 3.130680 1_555
Mg12 Mg6 3.176163 1_555
Mg12 Mg8 3.176163 1_555
Mg12 Mg4 3.257579 1_555
Mg12 Mg2 3.257585 1_555
Mg12 Mg6 3.260607 1_665
Mg12 Mg8 3.260607 1_655
Mg13 Mg5 3.130674 1_555
Mg13 Mg3 3.130680 1_555
Mg13 Mg7 3.176163 1_555
Mg13 Mg9 3.176163 1_555
Mg13 Mg4 3.257579 1_556
Mg13 Mg2 3.257585 1_556
Mg13 Mg7 3.260607 1_665
Mg13 Mg9 3.260607 1_655
Al0 Mg4 3.109586 1_555
Al0 Mg2 3.109586 1_555
Al0 Ca0 3.188950 1_545
Al0 Ca0 3.188950 1_555
Al0 Mg10 3.192386 1_455
Al0 Mg11 3.192386 1_454
Al0 Mg6 3.197675 1_555
Al0 Mg7 3.197675 1_554
Al0 Mg9 3.197682 1_554
Al0 Mg8 3.197682 1_555
Al0 Mg4 3.326558 1_445
Al0 Mg2 3.326558 1_455
