# generated using pymatgen
data_NaMg6MnO8
_symmetry_space_group_name_H-M   'P 1'
_cell_length_a   8.59829823
_cell_length_b   4.29713512
_cell_length_c   4.29713512
_cell_angle_alpha   90.00000000
_cell_angle_beta   90.00000000
_cell_angle_gamma   90.00000000
_symmetry_Int_Tables_number   1
_chemical_formula_structural   NaMg6MnO8
_chemical_formula_sum   'Na1 Mg6 Mn1 O8'
_cell_volume   158.77076025
_cell_formula_units_Z   1
loop_
 _symmetry_equiv_pos_site_id
 _symmetry_equiv_pos_as_xyz
  1  'x, y, z'
loop_
 _atom_site_type_symbol
 _atom_site_label
 _atom_site_symmetry_multiplicity
 _atom_site_fract_x
 _atom_site_fract_y
 _atom_site_fract_z
 _atom_site_occupancy
  Na  Na0  1  0.00000000  0.50000000  0.50000000  1
  Mg  Mg0  1  0.50000000  0.00000000  -0.00000000  1
  Mg  Mg1  1  0.50000000  0.50000000  0.50000000  1
  Mg  Mg2  1  0.24837053  0.00000000  0.50000000  1
  Mg  Mg3  1  0.75162947  0.00000000  0.50000000  1
  Mg  Mg4  1  0.24837053  0.50000000  0.00000000  1
  Mg  Mg5  1  0.75162947  0.50000000  -0.00000000  1
  Mn  Mn0  1  0.00000000  0.00000000  -0.00000000  1
  O  O0  1  0.23849218  0.00000000  0.00000000  1
  O  O1  1  0.76150782  -0.00000000  -0.00000000  1
  O  O2  1  0.26452161  0.50000000  0.50000000  1
  O  O3  1  0.73547839  0.50000000  0.50000000  1
  O  O4  1  0.00000000  0.00000000  0.50000000  1
  O  O5  1  0.50000000  0.00000000  0.50000000  1
  O  O6  1  0.00000000  0.50000000  -0.00000000  1
  O  O7  1  0.50000000  0.50000000  -0.00000000  1
loop_
_geom_bond_atom_site_label_1
_geom_bond_atom_site_label_2
_geom_bond_distance
_geom_bond_site_symmetry_2
Na0 O4 2.148568 1_555
Na0 O4 2.148568 1_565
Na0 O6 2.148568 1_556
Na0 O6 2.148568 1_555
Na0 O3 2.274436 1_455
Na0 O2 2.274436 1_555
Mg0 O5 2.148568 1_554
Mg0 O7 2.148568 1_545
Mg0 O5 2.148568 1_555
Mg0 O7 2.148568 1_555
Mg0 O0 2.248522 1_555
Mg0 O1 2.248522 1_555
Mg1 O2 2.024713 1_555
Mg1 O3 2.024713 1_555
Mg1 O7 2.148568 1_556
Mg1 O5 2.148568 1_555
Mg1 O5 2.148568 1_565
Mg1 O7 2.148568 1_555
Mg2 O4 2.135564 1_555
Mg2 O0 2.150246 1_555
Mg2 O0 2.150246 1_556
Mg2 O2 2.153051 1_555
Mg2 O2 2.153051 1_545
Mg2 O5 2.163585 1_555
Mg3 O4 2.135564 1_655
Mg3 O1 2.150246 1_555
Mg3 O1 2.150246 1_556
Mg3 O3 2.153051 1_545
Mg3 O3 2.153051 1_555
Mg3 O5 2.163585 1_555
Mg4 O6 2.135564 1_555
Mg4 O0 2.150246 1_565
Mg4 O0 2.150246 1_555
Mg4 O2 2.153051 1_555
Mg4 O2 2.153051 1_554
Mg4 O7 2.163585 1_555
Mg5 O6 2.135564 1_655
Mg5 O1 2.150246 1_555
Mg5 O1 2.150246 1_565
Mg5 O3 2.153051 1_555
Mg5 O3 2.153051 1_554
Mg5 O7 2.163585 1_555
Mn0 O1 2.050627 1_455
Mn0 O0 2.050627 1_555
Mn0 O4 2.148568 1_554
Mn0 O4 2.148568 1_555
Mn0 O6 2.148568 1_545
Mn0 O6 2.148568 1_555
