# generated using pymatgen
data_Y2AlN3
_symmetry_space_group_name_H-M   'P 1'
_cell_length_a   5.95780646
_cell_length_b   10.55414603
_cell_length_c   11.17560300
_cell_angle_alpha   90.00000000
_cell_angle_beta   90.00000000
_cell_angle_gamma   27.65716967
_symmetry_Int_Tables_number   1
_chemical_formula_structural   Y2AlN3
_chemical_formula_sum   'Y8 Al4 N12'
_cell_volume   326.18721387
_cell_formula_units_Z   4
loop_
 _symmetry_equiv_pos_site_id
 _symmetry_equiv_pos_as_xyz
  1  'x, y, z'
loop_
 _atom_site_type_symbol
 _atom_site_label
 _atom_site_symmetry_multiplicity
 _atom_site_fract_x
 _atom_site_fract_y
 _atom_site_fract_z
 _atom_site_occupancy
  Y  Y0  1  0.00000000  0.47133200  0.65069600  1
  Y  Y1  1  0.00000000  0.52866800  0.34930400  1
  Y  Y2  1  0.00000000  0.02866800  0.15069600  1
  Y  Y3  1  0.00000000  0.97133200  0.84930400  1
  Y  Y4  1  0.00000000  0.14184600  0.57672700  1
  Y  Y5  1  0.00000000  0.85815400  0.42327300  1
  Y  Y6  1  0.00000000  0.35815400  0.07672700  1
  Y  Y7  1  0.00000000  0.64184600  0.92327300  1
  Al  Al0  1  0.00000000  0.24949800  0.83699600  1
  Al  Al1  1  0.00000000  0.75050200  0.16300400  1
  Al  Al2  1  0.00000000  0.25050200  0.33699600  1
  Al  Al3  1  0.00000000  0.74949800  0.66300400  1
  N  N0  1  0.00000000  0.15175200  0.98074100  1
  N  N1  1  0.00000000  0.84824800  0.01925900  1
  N  N2  1  0.00000000  0.34824800  0.48074100  1
  N  N3  1  0.00000000  0.65175200  0.51925900  1
  N  N4  1  0.00000000  0.42671700  0.86194900  1
  N  N5  1  0.00000000  0.57328300  0.13805100  1
  N  N6  1  0.00000000  0.07328300  0.36194900  1
  N  N7  1  0.00000000  0.92671700  0.63805100  1
  N  N8  1  0.50000000  0.42875300  0.75000000  1
  N  N9  1  0.50000000  0.07124700  0.25000000  1
  N  N10  1  0.50000000  0.57124700  0.25000000  1
  N  N11  1  0.50000000  0.92875300  0.75000000  1
loop_
_geom_bond_atom_site_label_1
_geom_bond_atom_site_label_2
_geom_bond_distance
_geom_bond_site_symmetry_2
Al0 N8 1.847895 1_455
Al0 N11 1.847896 1_545
Al0 N4 1.891069 1_555
Al0 N0 1.909160 1_555
Al1 N10 1.847895 1_555
Al1 N9 1.847896 1_465
Al1 N5 1.891069 1_555
Al1 N1 1.909160 1_555
Al2 N9 1.847895 1_555
Al2 N10 1.847896 1_455
Al2 N6 1.891069 1_555
Al2 N2 1.909160 1_555
Al3 N11 1.847895 1_455
Al3 N8 1.847896 1_555
Al3 N7 1.891069 1_555
Al3 N3 1.909160 1_555
N0 Y2 2.301098 1_556
N0 Y3 2.404897 1_545
N0 Y6 2.428189 1_556
N0 Y7 2.841015 1_455
N0 Y7 2.841015 1_645
N1 Y3 2.301098 1_554
N1 Y2 2.404897 1_565
N1 Y7 2.428189 1_554
N1 Y6 2.841015 1_655
N1 Y6 2.841015 1_465
N2 Y0 2.301098 1_555
N2 Y1 2.404897 1_555
N2 Y4 2.428189 1_555
N2 Y5 2.841015 1_645
N2 Y5 2.841015 1_455
N3 Y1 2.301098 1_555
N3 Y0 2.404897 1_555
N3 Y5 2.428189 1_555
N3 Y4 2.841015 1_465
N3 Y4 2.841015 1_655
N4 Y7 2.371680 1_555
N4 Y0 2.407379 1_555
N4 Y6 2.506979 1_556
N4 Y3 2.808853 1_645
N4 Y3 2.808853 1_455
N5 Y6 2.371680 1_555
N5 Y1 2.407379 1_555
N5 Y7 2.506979 1_554
N5 Y2 2.808853 1_465
N5 Y2 2.808853 1_655
N6 Y5 2.371680 1_545
N6 Y2 2.407379 1_555
N6 Y4 2.506979 1_555
N6 Y1 2.808853 1_455
N6 Y1 2.808853 1_645
N7 Y4 2.371680 1_565
N7 Y3 2.407379 1_555
N7 Y5 2.506979 1_555
N7 Y0 2.808853 1_655
N7 Y0 2.808853 1_465
N8 Y7 2.411116 1_555
N8 Y4 2.411116 1_655
N8 Y0 2.817089 1_555
N8 Y3 2.817089 1_645
N9 Y5 2.411116 1_645
N9 Y6 2.411116 1_555
N9 Y2 2.817089 1_655
N9 Y1 2.817089 1_555
N10 Y6 2.411116 1_655
N10 Y5 2.411116 1_555
N10 Y1 2.817089 1_655
N10 Y2 2.817089 1_565
N11 Y4 2.411116 1_565
N11 Y7 2.411116 1_655
N11 Y3 2.817089 1_555
N11 Y0 2.817089 1_655
