# generated using pymatgen
data_EuGe7Rh3
_symmetry_space_group_name_H-M   'P 1'
_cell_length_a   8.27844422
_cell_length_b   8.27844753
_cell_length_c   8.27844381
_cell_angle_alpha   57.16886815
_cell_angle_beta   57.16888427
_cell_angle_gamma   57.16886485
_symmetry_Int_Tables_number   1
_chemical_formula_structural   EuGe7Rh3
_chemical_formula_sum   'Eu2 Ge14 Rh6'
_cell_volume   375.00643179
_cell_formula_units_Z   2
loop_
 _symmetry_equiv_pos_site_id
 _symmetry_equiv_pos_as_xyz
  1  'x, y, z'
loop_
 _atom_site_type_symbol
 _atom_site_label
 _atom_site_symmetry_multiplicity
 _atom_site_fract_x
 _atom_site_fract_y
 _atom_site_fract_z
 _atom_site_occupancy
  Eu  Eu0  1  0.50000225  0.50000223  0.49999639  1
  Eu  Eu1  1  0.00000252  -0.00000194  0.99999975  1
  Ge  Ge0  1  0.35091550  0.16911785  0.57212486  1
  Ge  Ge1  1  0.57212231  0.35091636  0.16912137  1
  Ge  Ge2  1  0.16912168  0.57212420  0.35091250  1
  Ge  Ge3  1  0.07210490  0.66913794  0.85093081  1
  Ge  Ge4  1  0.85093210  0.07210461  0.66913610  1
  Ge  Ge5  1  0.66913609  0.85092860  0.07210585  1
  Ge  Ge6  1  0.64908598  0.83087827  0.42787664  1
  Ge  Ge7  1  0.42787521  0.64908624  0.83088053  1
  Ge  Ge8  1  0.83088014  0.42787636  0.64908403  1
  Ge  Ge9  1  0.92789383  0.33086488  0.14906978  1
  Ge  Ge10  1  0.14907043  0.92789467  0.33086185  1
  Ge  Ge11  1  0.33086373  0.14906795  0.92789561  1
  Ge  Ge12  1  0.24999961  0.25000130  0.25000250  1
  Ge  Ge13  1  0.74999696  0.74999891  0.75000054  1
  Rh  Rh0  1  0.93381158  0.56625685  0.24995976  1
  Rh  Rh1  1  0.24996014  0.93381100  0.56625628  1
  Rh  Rh2  1  0.56625523  0.24996068  0.93381280  1
  Rh  Rh3  1  0.75004050  0.06618728  0.43374393  1
  Rh  Rh4  1  0.43374112  0.75003960  0.06619045  1
  Rh  Rh5  1  0.06618818  0.43374617  0.75003764  1
loop_
_geom_bond_atom_site_label_1
_geom_bond_atom_site_label_2
_geom_bond_distance
_geom_bond_site_symmetry_2
Eu0 Rh4 3.213547 1_555
Eu0 Rh0 3.213549 1_555
Eu0 Rh1 3.213562 1_555
Eu0 Rh3 3.213581 1_555
Eu0 Rh5 3.213586 1_555
Eu0 Rh2 3.213591 1_555
Eu0 Ge6 3.236657 1_555
Eu0 Ge1 3.236660 1_555
Eu0 Ge8 3.236670 1_555
Eu0 Ge2 3.236683 1_555
Eu0 Ge7 3.236693 1_555
Eu0 Ge0 3.236707 1_555
Eu0 Ge5 3.289681 1_555
Eu0 Ge9 3.289694 1_555
Eu0 Ge10 3.289711 1_555
Eu0 Ge4 3.289732 1_555
Eu0 Ge3 3.289741 1_555
Eu0 Ge11 3.289754 1_555
Eu1 Rh4 3.212853 1_546
Eu1 Rh0 3.212874 1_446
Eu1 Rh1 3.212876 1_545
Eu1 Rh3 3.212887 1_456
Eu1 Rh2 3.212900 1_455
Eu1 Rh5 3.212903 1_555
Eu1 Ge3 3.236510 1_545
Eu1 Ge10 3.236514 1_546
Eu1 Ge11 3.236517 1_555
Eu1 Ge4 3.236529 1_455
Eu1 Ge9 3.236544 1_456
Eu1 Ge5 3.236548 1_446
Eu1 Ge7 3.289523 1_545
Eu1 Ge2 3.289530 1_546
Eu1 Ge0 3.289537 1_555
Eu1 Ge6 3.289559 1_446
Eu1 Ge8 3.289565 1_455
Eu1 Ge1 3.289581 1_456
Ge0 Rh1 2.531287 1_545
Ge0 Rh5 2.580598 1_555
Ge0 Rh3 2.618581 1_555
Ge1 Rh2 2.531295 1_554
Ge1 Rh3 2.580592 1_555
Ge1 Rh4 2.618569 1_555
Ge2 Rh0 2.531290 1_455
Ge2 Rh4 2.580555 1_555
Ge2 Rh5 2.618580 1_555
Ge3 Rh5 2.531817 1_555
Ge3 Rh1 2.580526 1_555
Ge3 Rh0 2.618007 1_456
Ge4 Rh3 2.531812 1_555
Ge4 Rh2 2.580552 1_555
Ge4 Rh1 2.618002 1_645
Ge5 Rh4 2.531809 1_555
Ge5 Rh0 2.580529 1_555
Ge5 Rh2 2.618030 1_564
Ge6 Rh3 2.531293 1_565
Ge6 Rh0 2.580577 1_555
Ge6 Rh1 2.618585 1_555
Ge7 Rh4 2.531285 1_556
Ge7 Rh1 2.580582 1_555
Ge7 Rh2 2.618584 1_555
Ge8 Rh5 2.531291 1_655
Ge8 Rh2 2.580594 1_555
Ge8 Rh0 2.618575 1_555
Ge9 Rh0 2.531804 1_555
Ge9 Rh3 2.580542 1_555
Ge9 Rh5 2.618029 1_654
Ge10 Rh1 2.531813 1_555
Ge10 Rh4 2.580511 1_555
Ge10 Rh3 2.618013 1_465
Ge11 Rh2 2.531814 1_555
Ge11 Rh5 2.580555 1_555
Ge11 Rh4 2.618007 1_546
Ge12 Rh0 2.505014 1_455
Ge12 Rh1 2.505016 1_545
Ge12 Rh2 2.505021 1_554
Ge13 Rh5 2.505015 1_655
Ge13 Rh3 2.505020 1_565
Ge13 Rh4 2.505023 1_556
