# generated using pymatgen
data_LiFe8(O7F)2
_symmetry_space_group_name_H-M   'P 1'
_cell_length_a   7.40240945
_cell_length_b   7.29362573
_cell_length_c   5.54690244
_cell_angle_alpha   108.70983237
_cell_angle_beta   109.46777672
_cell_angle_gamma   81.77709493
_symmetry_Int_Tables_number   1
_chemical_formula_structural   LiFe8(O7F)2
_chemical_formula_sum   'Li1 Fe8 O14 F2'
_cell_volume   267.21801936
_cell_formula_units_Z   1
loop_
 _symmetry_equiv_pos_site_id
 _symmetry_equiv_pos_as_xyz
  1  'x, y, z'
loop_
 _atom_site_type_symbol
 _atom_site_label
 _atom_site_symmetry_multiplicity
 _atom_site_fract_x
 _atom_site_fract_y
 _atom_site_fract_z
 _atom_site_occupancy
  Li  Li0  1  0.36830700  0.86859800  0.23496800  1
  Fe  Fe0  1  0.74678100  0.23866700  0.50450400  1
  Fe  Fe1  1  0.52246000  0.99814400  0.96631900  1
  Fe  Fe2  1  0.24033700  0.26830100  0.52815100  1
  Fe  Fe3  1  0.75446400  0.75260400  0.47908000  1
  Fe  Fe4  1  0.51648700  0.48715100  0.00314700  1
  Fe  Fe5  1  0.97973100  0.01422300  0.00767900  1
  Fe  Fe6  1  0.22621700  0.75989300  0.53118400  1
  Fe  Fe7  1  0.01955000  0.50072600  0.02242900  1
  O  O0  1  0.97903500  0.17191600  0.35993400  1
  O  O1  1  0.91983300  0.23769500  0.85724800  1
  O  O2  1  0.59126200  0.25809300  0.14444000  1
  O  O3  1  0.33279000  0.01264000  0.63303900  1
  O  O4  1  0.52142500  0.33355300  0.65982000  1
  O  O5  1  0.77580400  0.58025200  0.14629300  1
  O  O6  1  0.72836200  0.90504100  0.81783900  1
  O  O7  1  0.24887100  0.42720100  0.88481800  1
  O  O8  1  0.50630700  0.65202300  0.34396900  1
  O  O9  1  0.64532500  0.97433100  0.31953400  1
  O  O10  1  0.16963400  0.49570100  0.38463800  1
  O  O11  1  0.40962500  0.75020400  0.86488000  1
  O  O12  1  0.10037300  0.77902600  0.17451600  1
  O  O13  1  0.00746800  0.84251100  0.66011900  1
  F  F0  1  0.84489300  0.51888900  0.65313500  1
  F  F1  1  0.26132300  0.09854300  0.15165100  1
loop_
_geom_bond_atom_site_label_1
_geom_bond_atom_site_label_2
_geom_bond_distance
_geom_bond_site_symmetry_2
Li0 O8 1.908858 1_555
Li0 O11 2.063752 1_554
Li0 O12 2.063918 1_555
Li0 O9 2.144489 1_555
Li0 O3 2.206374 1_565
Fe0 O1 1.950656 1_555
Fe0 O2 1.984100 1_555
Fe0 O9 1.991304 1_545
Fe0 O4 2.061357 1_555
Fe0 O0 2.065175 1_555
Fe1 O2 1.889257 1_566
Fe1 O6 1.909034 1_555
Fe1 O9 1.918693 1_556
Fe1 O11 1.936619 1_555
Fe1 O3 1.937234 1_565
Fe2 O7 1.930768 1_555
Fe2 O0 1.967574 1_455
Fe2 O10 1.994870 1_555
Fe2 O4 2.033882 1_555
Fe2 O3 2.085550 1_555
Fe3 O8 1.894564 1_555
Fe3 O13 1.902945 1_655
Fe3 O6 1.909081 1_555
Fe3 O5 1.913511 1_555
Fe3 O9 2.029555 1_555
Fe4 O4 1.883899 1_554
Fe4 O8 1.906907 1_555
Fe4 O7 1.934771 1_554
Fe4 O5 1.946105 1_555
Fe4 O2 1.999521 1_555
Fe4 O11 2.236186 1_554
Fe5 O0 1.924564 1_555
Fe5 O6 1.945554 1_544
Fe5 O13 1.992152 1_644
Fe5 O1 1.992162 1_554
Fe5 O12 2.150827 1_645
Fe6 O10 1.883679 1_555
Fe6 O11 1.912011 1_555
Fe6 O12 1.926870 1_555
Fe6 O13 1.926906 1_555
Fe6 O3 1.946938 1_565
Fe7 O10 1.954490 1_555
Fe7 O1 1.972659 1_454
Fe7 O7 2.022994 1_554
Fe7 O12 2.025379 1_555
Fe7 O5 2.082135 1_455
F0 Fe7 2.060340 1_656
F0 Fe0 2.080599 1_555
F0 Fe3 2.141176 1_555
F1 Li0 1.878005 1_545
F1 Fe5 2.074364 1_455
F1 Fe2 2.102601 1_555
F1 Fe1 2.401337 1_544
