# generated using pymatgen
data_La2Cu2O5
_symmetry_space_group_name_H-M   'P 1'
_cell_length_a   8.94342395
_cell_length_b   8.94342395
_cell_length_c   8.94342395
_cell_angle_alpha   145.06155881
_cell_angle_beta   143.78021111
_cell_angle_gamma   51.20585973
_symmetry_Int_Tables_number   1
_chemical_formula_structural   La2Cu2O5
_chemical_formula_sum   'La4 Cu4 O10'
_cell_volume   240.78285648
_cell_formula_units_Z   2
loop_
 _symmetry_equiv_pos_site_id
 _symmetry_equiv_pos_as_xyz
  1  'x, y, z'
loop_
 _atom_site_type_symbol
 _atom_site_label
 _atom_site_symmetry_multiplicity
 _atom_site_fract_x
 _atom_site_fract_y
 _atom_site_fract_z
 _atom_site_occupancy
  La  La0  1  0.87433900  0.38079700  0.48281200  1
  La  La1  1  0.12566100  0.60847300  0.50645800  1
  La  La2  1  0.39798500  0.88079700  0.50645800  1
  La  La3  1  0.60201500  0.10847300  0.48281200  1
  Cu  Cu0  1  0.00000000  0.99004400  0.99004400  1
  Cu  Cu1  1  0.50000000  0.49004400  0.99004400  1
  Cu  Cu2  1  0.78490700  0.77219300  0.05710000  1
  Cu  Cu3  1  0.21509300  0.27219300  0.98728600  1
  O  O0  1  0.75682100  0.75447900  0.48806800  1
  O  O1  1  0.24317900  0.73124700  0.99765800  1
  O  O2  1  0.76641100  0.25447900  0.99765800  1
  O  O3  1  0.23358900  0.23124700  0.48806800  1
  O  O4  1  0.80224100  0.83372900  0.90992500  1
  O  O5  1  0.19775900  0.10768500  0.03148800  1
  O  O6  1  0.42380400  0.33372900  0.03148800  1
  O  O7  1  0.57619600  0.60768500  0.90992500  1
  O  O8  1  0.85090100  0.15735500  0.50825600  1
  O  O9  1  0.14909900  0.65735500  0.30645400  1
loop_
_geom_bond_atom_site_label_1
_geom_bond_atom_site_label_2
_geom_bond_distance
_geom_bond_site_symmetry_2
La0 O8 2.331623 1_555
La0 O6 2.408865 1_555
La0 O3 2.566847 1_655
La0 O1 2.587054 1_655
La0 O4 2.597680 1_555
La0 O2 2.757987 1_554
La0 O0 2.774278 1_555
La0 O4 2.850919 1_544
La0 O6 3.208036 1_656
La1 O9 2.331623 1_555
La1 O7 2.408864 1_555
La1 O2 2.566847 1_454
La1 O0 2.587054 1_455
La1 O5 2.597684 1_566
La1 O3 2.757987 1_555
La1 O1 2.774278 1_555
La1 O5 2.850918 1_555
La1 O7 3.208040 1_454
La2 O9 2.331623 1_555
La2 O4 2.408865 1_555
La2 O1 2.566847 1_554
La2 O3 2.587054 1_565
La2 O6 2.597680 1_566
La2 O0 2.757987 1_555
La2 O2 2.774278 1_565
La2 O6 2.850919 1_555
La2 O4 3.208036 1_454
La3 O8 2.331623 1_555
La3 O5 2.408869 1_555
La3 O0 2.566847 1_545
La3 O2 2.587054 1_555
La3 O7 2.597685 1_555
La3 O1 2.757987 1_544
La3 O3 2.774278 1_555
La3 O7 2.850918 1_544
La3 O5 3.208034 1_656
Cu0 O3 1.933035 1_566
Cu0 O2 1.933035 1_465
Cu0 O1 1.950276 1_555
Cu0 O0 1.950276 1_455
Cu0 O4 2.237627 1_455
Cu0 O5 2.237634 1_566
Cu1 O0 1.933035 1_556
Cu1 O1 1.933035 1_555
Cu1 O3 1.950276 1_555
Cu1 O2 1.950276 1_555
Cu1 O6 2.237627 1_556
Cu1 O7 2.237635 1_555
Cu2 O7 1.919166 1_554
Cu2 O4 1.919173 1_554
Cu2 O8 2.100430 1_565
Cu2 O9 2.116699 1_655
Cu3 O5 1.919164 1_556
Cu3 O6 1.919173 1_556
Cu3 O9 2.100430 1_556
Cu3 O8 2.116699 1_455
