# generated using pymatgen
data_CaMn2F10
_symmetry_space_group_name_H-M   'P 1'
_cell_length_a   5.55025002
_cell_length_b   5.55025002
_cell_length_c   7.40159824
_cell_angle_alpha   70.07457250
_cell_angle_beta   70.07457250
_cell_angle_gamma   71.92422072
_symmetry_Int_Tables_number   1
_chemical_formula_structural   CaMn2F10
_chemical_formula_sum   'Ca1 Mn2 F10'
_cell_volume   196.60565816
_cell_formula_units_Z   1
loop_
 _symmetry_equiv_pos_site_id
 _symmetry_equiv_pos_as_xyz
  1  'x, y, z'
loop_
 _atom_site_type_symbol
 _atom_site_label
 _atom_site_symmetry_multiplicity
 _atom_site_fract_x
 _atom_site_fract_y
 _atom_site_fract_z
 _atom_site_occupancy
  Ca  Ca0  1  0.53840600  0.46159400  0.50000000  1
  Mn  Mn0  1  0.99757700  0.99570600  0.75511200  1
  Mn  Mn1  1  0.00429400  0.00242400  0.24488800  1
  F  F0  1  0.07219700  0.92780300  0.00000000  1
  F  F1  1  0.92840200  0.07159800  0.50000000  1
  F  F2  1  0.20448100  0.23398700  0.13535000  1
  F  F3  1  0.76601300  0.79551900  0.86465000  1
  F  F4  1  0.73552400  0.28744700  0.77799800  1
  F  F5  1  0.71255300  0.26447600  0.22200200  1
  F  F6  1  0.26461700  0.71365500  0.70728000  1
  F  F7  1  0.28634500  0.73538300  0.29272000  1
  F  F8  1  0.24085000  0.20742500  0.63356200  1
  F  F9  1  0.79257500  0.75915000  0.36643800  1
loop_
_geom_bond_atom_site_label_1
_geom_bond_atom_site_label_2
_geom_bond_distance
_geom_bond_site_symmetry_2
Ca0 F8 2.253277 1_555
Ca0 F9 2.253277 1_555
Ca0 F6 2.274822 1_555
Ca0 F7 2.274822 1_555
Ca0 F4 2.426443 1_555
Ca0 F5 2.426443 1_555
Ca0 F1 2.542294 1_555
F0 Mn0 1.883653 1_454
F0 Mn1 1.883655 1_565
F1 Mn1 1.934405 1_655
F1 Mn0 1.934408 1_545
F2 Mn1 1.762269 1_555
F3 Mn0 1.762273 1_555
F4 Mn0 1.823083 1_545
F5 Mn1 1.823080 1_655
F6 Mn0 1.831124 1_455
F7 Mn1 1.831126 1_565
F8 Mn0 1.857256 1_445
F9 Mn1 1.857260 1_665
