# generated using pymatgen
data_Ti9O13
_symmetry_space_group_name_H-M   'P 1'
_cell_length_a   5.11948101
_cell_length_b   5.11948101
_cell_length_c   17.75140936
_cell_angle_alpha   81.87911015
_cell_angle_beta   81.87911015
_cell_angle_gamma   33.12801681
_symmetry_Int_Tables_number   1
_chemical_formula_structural   Ti9O13
_chemical_formula_sum   'Ti9 O13'
_cell_volume   251.48701080
_cell_formula_units_Z   1
loop_
 _symmetry_equiv_pos_site_id
 _symmetry_equiv_pos_as_xyz
  1  'x, y, z'
loop_
 _atom_site_type_symbol
 _atom_site_label
 _atom_site_symmetry_multiplicity
 _atom_site_fract_x
 _atom_site_fract_y
 _atom_site_fract_z
 _atom_site_occupancy
  Ti  Ti0  1  0.50000000  0.50000000  0.50000000  1
  Ti  Ti1  1  0.34405400  0.34405400  0.03704900  1
  Ti  Ti2  1  0.65594600  0.65594600  0.96295100  1
  Ti  Ti3  1  0.24282700  0.24282700  0.42345700  1
  Ti  Ti4  1  0.75717300  0.75717300  0.57654300  1
  Ti  Ti5  1  0.06818900  0.06818900  0.12786000  1
  Ti  Ti6  1  0.93181100  0.93181100  0.87214000  1
  Ti  Ti7  1  0.01831000  0.01831000  0.32495200  1
  Ti  Ti8  1  0.98169000  0.98169000  0.67504800  1
  O  O0  1  0.00000000  0.00000000  0.00000000  1
  O  O1  1  0.09812800  0.09812800  0.22807100  1
  O  O2  1  0.90187200  0.90187200  0.77192900  1
  O  O3  1  0.70220700  0.70220700  0.08007400  1
  O  O4  1  0.29779300  0.29779300  0.91992600  1
  O  O5  1  0.43403900  0.43403900  0.13074900  1
  O  O6  1  0.56596100  0.56596100  0.86925100  1
  O  O7  1  0.38136500  0.38136500  0.33042600  1
  O  O8  1  0.61863500  0.61863500  0.66957400  1
  O  O9  1  0.61487400  0.61487400  0.38378700  1
  O  O10  1  0.38512600  0.38512600  0.61621300  1
  O  O11  1  0.87027900  0.87027900  0.46428400  1
  O  O12  1  0.12972100  0.12972100  0.53571600  1
loop_
_geom_bond_atom_site_label_1
_geom_bond_atom_site_label_2
_geom_bond_distance
_geom_bond_site_symmetry_2
O0 Ti1 2.146693 1_545
O0 Ti1 2.146693 1_455
O0 Ti2 2.146693 1_544
O0 Ti2 2.146693 1_454
O0 Ti5 2.459078 1_555
O0 Ti6 2.459078 1_444
O1 Ti7 1.781617 1_555
O1 Ti5 1.845219 1_555
O2 Ti8 1.781617 1_555
O2 Ti6 1.845219 1_555
O3 Ti5 2.061732 1_655
O3 Ti5 2.061732 1_565
O3 Ti1 2.082783 1_655
O3 Ti1 2.082783 1_565
O3 Ti2 2.192488 1_554
O4 Ti6 2.061732 1_455
O4 Ti6 2.061732 1_545
O4 Ti2 2.082783 1_545
O4 Ti2 2.082783 1_455
O4 Ti1 2.192488 1_556
O5 Ti5 1.961166 1_655
O5 Ti5 1.961166 1_565
O5 Ti1 1.994857 1_555
O6 Ti6 1.961166 1_545
O6 Ti6 1.961166 1_455
O6 Ti2 1.994857 1_555
O7 Ti7 1.976707 1_655
O7 Ti7 1.976707 1_565
O7 Ti3 1.978376 1_555
O8 Ti8 1.976707 1_455
O8 Ti8 1.976707 1_545
O8 Ti4 1.978376 1_555
O9 Ti7 2.100179 1_565
O9 Ti7 2.100179 1_655
O9 Ti3 2.112711 1_565
O9 Ti3 2.112711 1_655
O9 Ti0 2.200274 1_555
O10 Ti8 2.100179 1_455
O10 Ti8 2.100179 1_545
O10 Ti4 2.112711 1_455
O10 Ti4 2.112711 1_545
O10 Ti0 2.200274 1_555
O11 Ti0 2.095415 1_655
O11 Ti0 2.095415 1_565
O11 Ti3 2.118283 1_655
O11 Ti3 2.118283 1_565
O11 Ti4 2.133362 1_555
O12 Ti0 2.095415 1_545
O12 Ti0 2.095415 1_455
O12 Ti4 2.118283 1_545
O12 Ti4 2.118283 1_455
O12 Ti3 2.133362 1_555
