# generated using pymatgen
data_Li9Mn2Co5O16
_symmetry_space_group_name_H-M   'P 1'
_cell_length_a   3.02272000
_cell_length_b   9.76787124
_cell_length_c   9.98994925
_cell_angle_alpha   87.31177365
_cell_angle_beta   88.38669310
_cell_angle_gamma   82.58774870
_symmetry_Int_Tables_number   1
_chemical_formula_structural   Li9Mn2Co5O16
_chemical_formula_sum   'Li9 Mn2 Co5 O16'
_cell_volume   292.09922414
_cell_formula_units_Z   1
loop_
 _symmetry_equiv_pos_site_id
 _symmetry_equiv_pos_as_xyz
  1  'x, y, z'
loop_
 _atom_site_type_symbol
 _atom_site_label
 _atom_site_symmetry_multiplicity
 _atom_site_fract_x
 _atom_site_fract_y
 _atom_site_fract_z
 _atom_site_occupancy
  Li  Li0  1  0.86712900  0.25679100  0.81138000  1
  Li  Li1  1  0.13182900  0.74638800  0.68607600  1
  Li  Li2  1  0.37899200  0.25188800  0.56340800  1
  Li  Li3  1  0.62826300  0.75163800  0.44124100  1
  Li  Li4  1  0.87407500  0.24839900  0.30841500  1
  Li  Li5  1  0.11878800  0.74788900  0.18656900  1
  Li  Li6  1  0.36041500  0.25484700  0.06543900  1
  Li  Li7  1  0.63776300  0.74173800  0.93710700  1
  Li  Li8  1  0.25071100  0.49961200  0.87500300  1
  Mn  Mn0  1  0.99869100  0.00006900  0.99964900  1
  Mn  Mn1  1  0.25061300  0.50000900  0.37501600  1
  Co  Co0  1  0.49417300  0.99950900  0.74863500  1
  Co  Co1  1  0.76595700  0.49936000  0.63561100  1
  Co  Co2  1  0.00042300  0.00136200  0.50030700  1
  Co  Co3  1  0.50617800  0.99915800  0.25164600  1
  Co  Co4  1  0.73438000  0.50105200  0.11430600  1
  O  O0  1  0.39895500  0.11831200  0.90117400  1
  O  O1  1  0.69524000  0.61496100  0.76373800  1
  O  O2  1  0.94646800  0.11461000  0.65303300  1
  O  O3  1  0.16823200  0.61483200  0.52830900  1
  O  O4  1  0.45647500  0.11608600  0.40324500  1
  O  O5  1  0.66477100  0.61089300  0.27264600  1
  O  O6  1  0.96092400  0.11313500  0.15588700  1
  O  O7  1  0.15504100  0.61393500  0.03833400  1
  O  O8  1  0.34991900  0.38585800  0.71117900  1
  O  O9  1  0.54244600  0.88612300  0.59569500  1
  O  O10  1  0.83660000  0.38923500  0.47750100  1
  O  O11  1  0.05535600  0.88435400  0.34805300  1
  O  O12  1  0.33180300  0.38523600  0.22213700  1
  O  O13  1  0.59505400  0.88376300  0.09777700  1
  O  O14  1  0.80370200  0.38458600  0.98685600  1
  O  O15  1  0.04063600  0.88437100  0.84462800  1
loop_
_geom_bond_atom_site_label_1
_geom_bond_atom_site_label_2
_geom_bond_distance
_geom_bond_site_symmetry_2
Li0 O8 2.120556 1_555
Li0 O2 2.141825 1_555
Li0 O0 2.150561 1_655
Li0 O14 2.189191 1_555
Li0 O0 2.223870 1_555
Li0 O8 2.234979 1_655
Li1 O1 2.068233 1_455
Li1 O3 2.071512 1_555
Li1 O9 2.115928 1_555
Li1 O15 2.116880 1_555
Li1 O1 2.137094 1_555
Li1 O9 2.280280 1_455
Li2 O8 2.010878 1_555
Li2 O4 2.114791 1_555
Li2 O2 2.140745 1_455
Li2 O10 2.151290 1_455
Li2 O10 2.180283 1_555
Li2 O2 2.218654 1_555
Li3 O9 2.062378 1_555
Li3 O11 2.112996 1_655
Li3 O3 2.148120 1_655
Li3 O3 2.185907 1_555
Li3 O5 2.215062 1_555
Li3 O11 2.223611 1_555
Li4 O6 2.052615 1_555
Li4 O4 2.097599 1_555
Li4 O12 2.149973 1_555
Li4 O12 2.178451 1_655
Li4 O10 2.219357 1_555
Li4 O4 2.249210 1_655
Li5 O7 2.013109 1_555
Li5 O13 2.116840 1_455
Li5 O11 2.129413 1_555
Li5 O5 2.157762 1_555
Li5 O5 2.170931 1_455
Li5 O13 2.220681 1_555
Li6 O12 2.056954 1_555
Li6 O14 2.074431 1_554
Li6 O6 2.107893 1_455
Li6 O14 2.117753 1_454
Li6 O0 2.153956 1_554
Li6 O6 2.313893 1_555
Li7 O7 2.119631 1_656
Li7 O15 2.128667 1_655
Li7 O13 2.160673 1_556
Li7 O1 2.166113 1_555
Li7 O7 2.231276 1_556
Li7 O15 2.318781 1_555
Li8 O7 2.013454 1_556
Li8 O8 2.014933 1_555
Li8 O1 2.121209 1_555
Li8 O14 2.127345 1_455
Li8 O14 2.192681 1_555
Li8 O1 2.196279 1_455
Mn0 O6 1.946284 1_556
Mn0 O15 1.951338 1_645
Mn0 O13 1.981422 1_546
Mn0 O0 1.988100 1_655
Mn0 O13 2.228848 1_646
Mn0 O0 2.245383 1_555
Mn1 O12 1.928233 1_555
Mn1 O3 1.932013 1_555
Mn1 O10 1.989578 1_455
Mn1 O5 1.989983 1_555
Mn1 O5 2.204093 1_455
Mn1 O10 2.204563 1_555
Co0 O9 1.920099 1_555
Co0 O0 1.951059 1_565
Co0 O2 2.065829 1_565
Co0 O15 2.070383 1_555
Co0 O15 2.102767 1_655
Co0 O2 2.103593 1_465
Co1 O1 1.736945 1_555
Co1 O8 1.899553 1_555
Co1 O10 1.943881 1_555
Co1 O3 2.016652 1_655
Co1 O8 2.099148 1_655
Co1 O3 2.270563 1_555
Co2 O2 1.917251 1_455
Co2 O11 1.935765 1_545
Co2 O4 2.077901 1_555
Co2 O9 2.078141 1_445
Co2 O9 2.090665 1_545
Co2 O4 2.100435 1_455
Co3 O4 1.930240 1_565
Co3 O13 1.940778 1_555
Co3 O11 2.064250 1_555
Co3 O6 2.065175 1_565
Co3 O6 2.094384 1_465
Co3 O11 2.109297 1_655
Co4 O14 1.737390 1_554
Co4 O7 1.907229 1_655
Co4 O5 1.944155 1_555
Co4 O12 2.021895 1_555
Co4 O7 2.087239 1_555
Co4 O12 2.273630 1_655
