# generated using pymatgen
data_LiMg6Zr
_symmetry_space_group_name_H-M   'P 1'
_cell_length_a   5.02747700
_cell_length_b   6.46358200
_cell_length_c   11.00721200
_cell_angle_alpha   90.00000000
_cell_angle_beta   90.00000000
_cell_angle_gamma   90.00000000
_symmetry_Int_Tables_number   1
_chemical_formula_structural   LiMg6Zr
_chemical_formula_sum   'Li2 Mg12 Zr2'
_cell_volume   357.68496589
_cell_formula_units_Z   2
loop_
 _symmetry_equiv_pos_site_id
 _symmetry_equiv_pos_as_xyz
  1  'x, y, z'
loop_
 _atom_site_type_symbol
 _atom_site_label
 _atom_site_symmetry_multiplicity
 _atom_site_fract_x
 _atom_site_fract_y
 _atom_site_fract_z
 _atom_site_occupancy
  Li  Li0  1  0.50000000  0.50000000  0.83535500  1
  Li  Li1  1  0.50000000  0.00000000  0.33535500  1
  Mg  Mg0  1  0.50000000  0.25446600  0.08183400  1
  Mg  Mg1  1  0.50000000  0.74553400  0.08183400  1
  Mg  Mg2  1  0.00000000  0.24996300  0.91467600  1
  Mg  Mg3  1  0.00000000  0.75003700  0.91467600  1
  Mg  Mg4  1  0.00000000  0.50000000  0.16867600  1
  Mg  Mg5  1  0.00000000  0.50000000  0.66841700  1
  Mg  Mg6  1  0.50000000  0.75446600  0.58183400  1
  Mg  Mg7  1  0.50000000  0.24553400  0.58183400  1
  Mg  Mg8  1  0.00000000  0.74996300  0.41467600  1
  Mg  Mg9  1  0.00000000  0.25003700  0.41467600  1
  Mg  Mg10  1  0.00000000  0.00000000  0.66867600  1
  Mg  Mg11  1  0.00000000  0.00000000  0.16841700  1
  Zr  Zr0  1  0.50000000  0.50000000  0.33453700  1
  Zr  Zr1  1  0.50000000  0.00000000  0.83453700  1
loop_
_geom_bond_atom_site_label_1
_geom_bond_atom_site_label_2
_geom_bond_distance
_geom_bond_site_symmetry_2
Li0 Mg3 3.113371 1_655
Li0 Mg2 3.113371 1_655
Li0 Mg3 3.113371 1_555
Li0 Mg2 3.113371 1_555
Li0 Mg5 3.113739 1_655
Li0 Mg5 3.113739 1_555
Li0 Mg1 3.143133 1_556
Li0 Mg0 3.143133 1_556
Li0 Zr1 3.231804 1_555
Li0 Zr1 3.231804 1_565
Li0 Mg7 3.239207 1_555
Li0 Mg6 3.239207 1_555
Li1 Mg9 3.113371 1_555
Li1 Mg9 3.113371 1_655
Li1 Mg8 3.113371 1_545
Li1 Mg8 3.113371 1_645
Li1 Mg11 3.113739 1_555
Li1 Mg11 3.113739 1_655
Li1 Mg7 3.143133 1_555
Li1 Mg6 3.143133 1_545
Li1 Zr0 3.231804 1_545
Li1 Zr0 3.231804 1_555
Li1 Mg0 3.239207 1_555
Li1 Mg1 3.239207 1_545
Mg0 Mg2 3.115304 1_554
Mg0 Mg2 3.115304 1_654
Mg0 Mg4 3.122702 1_655
Mg0 Mg4 3.122702 1_555
Mg0 Mg11 3.151572 1_655
Mg0 Mg11 3.151572 1_555
Mg0 Mg1 3.174058 1_555
Mg0 Zr1 3.180377 1_554
Mg0 Zr0 3.202454 1_555
Mg0 Mg1 3.289524 1_545
Mg1 Mg3 3.115304 1_554
Mg1 Mg3 3.115304 1_654
Mg1 Mg4 3.122702 1_655
Mg1 Mg4 3.122702 1_555
Mg1 Mg11 3.151572 1_665
Mg1 Mg11 3.151572 1_565
Mg1 Zr1 3.180377 1_564
Mg1 Zr0 3.202454 1_555
Mg2 Zr1 3.115660 1_455
Mg2 Zr1 3.115660 1_555
Mg2 Mg5 3.155848 1_555
Mg2 Mg4 3.229329 1_556
Mg2 Mg3 3.231313 1_545
Mg2 Mg3 3.232269 1_555
Mg3 Zr1 3.115660 1_565
Mg3 Zr1 3.115660 1_465
Mg3 Mg5 3.155848 1_555
Mg3 Mg4 3.229329 1_556
Mg4 Zr0 3.106757 1_455
Mg4 Zr0 3.106757 1_555
Mg4 Mg8 3.153155 1_555
Mg4 Mg9 3.153155 1_555
Mg5 Mg7 3.151572 1_455
Mg5 Mg7 3.151572 1_555
Mg5 Mg6 3.151572 1_455
Mg5 Mg6 3.151572 1_555
Mg5 Mg8 3.226622 1_555
Mg5 Mg9 3.226622 1_555
Mg6 Mg8 3.115304 1_555
Mg6 Mg8 3.115304 1_655
Mg6 Mg7 3.174058 1_565
Mg6 Zr0 3.180377 1_555
Mg6 Zr1 3.202454 1_565
Mg6 Mg7 3.289524 1_555
Mg7 Mg9 3.115304 1_555
Mg7 Mg9 3.115304 1_655
Mg7 Zr0 3.180377 1_555
Mg7 Zr1 3.202454 1_555
Mg8 Zr0 3.115660 1_455
Mg8 Zr0 3.115660 1_555
Mg8 Mg9 3.231313 1_555
Mg8 Mg9 3.232269 1_565
Mg9 Zr0 3.115660 1_455
Mg9 Zr0 3.115660 1_555
Mg10 Zr1 3.106757 1_555
Mg10 Zr1 3.106757 1_455
Mg10 Mg6 3.122702 1_545
Mg10 Mg7 3.122702 1_455
Mg10 Mg7 3.122702 1_555
Mg10 Mg6 3.122702 1_445
Mg10 Mg2 3.153155 1_555
Mg10 Mg3 3.153155 1_545
Mg10 Mg9 3.229329 1_555
Mg10 Mg8 3.229329 1_545
Mg10 Mg5 3.231792 1_545
Mg10 Mg5 3.231792 1_555
Mg11 Mg9 3.155848 1_555
Mg11 Mg8 3.155848 1_545
Mg11 Mg2 3.226622 1_554
Mg11 Mg3 3.226622 1_544
Mg11 Mg4 3.231792 1_555
Mg11 Mg4 3.231792 1_545
