# generated using pymatgen
data_CsMg6Co
_symmetry_space_group_name_H-M   'P 1'
_cell_length_a   6.45345400
_cell_length_b   15.17215400
_cell_length_c   35.39780600
_cell_angle_alpha   90.00000000
_cell_angle_beta   90.00000000
_cell_angle_gamma   90.00000000
_symmetry_Int_Tables_number   1
_chemical_formula_structural   CsMg6Co
_chemical_formula_sum   'Cs16 Mg96 Co16'
_cell_volume   3465.89822569
_cell_formula_units_Z   16
loop_
 _symmetry_equiv_pos_site_id
 _symmetry_equiv_pos_as_xyz
  1  'x, y, z'
loop_
 _atom_site_type_symbol
 _atom_site_label
 _atom_site_symmetry_multiplicity
 _atom_site_fract_x
 _atom_site_fract_y
 _atom_site_fract_z
 _atom_site_occupancy
  Cs  Cs0_0  1  0.25000000  0.25000000  0.11107700  1
  Cs  Cs0_1  1  0.25000000  0.25000000  0.61107700  1
  Cs  Cs0_2  1  0.25000000  0.75000000  0.11107700  1
  Cs  Cs0_3  1  0.25000000  0.75000000  0.61107700  1
  Cs  Cs0_4  1  0.75000000  0.25000000  0.11107700  1
  Cs  Cs0_5  1  0.75000000  0.25000000  0.61107700  1
  Cs  Cs0_6  1  0.75000000  0.75000000  0.11107700  1
  Cs  Cs0_7  1  0.75000000  0.75000000  0.61107700  1
  Cs  Cs1_0  1  0.25000000  0.00000000  0.36107700  1
  Cs  Cs1_1  1  0.25000000  0.00000000  0.86107700  1
  Cs  Cs1_2  1  0.25000000  0.50000000  0.36107700  1
  Cs  Cs1_3  1  0.25000000  0.50000000  0.86107700  1
  Cs  Cs1_4  1  0.75000000  0.00000000  0.36107700  1
  Cs  Cs1_5  1  0.75000000  0.00000000  0.86107700  1
  Cs  Cs1_6  1  0.75000000  0.50000000  0.36107700  1
  Cs  Cs1_7  1  0.75000000  0.50000000  0.86107700  1
  Mg  Mg0_0  1  0.00000000  0.34612600  0.02106100  1
  Mg  Mg0_1  1  0.00000000  0.34612600  0.52106100  1
  Mg  Mg0_2  1  0.00000000  0.84612600  0.02106100  1
  Mg  Mg0_3  1  0.00000000  0.84612600  0.52106100  1
  Mg  Mg0_4  1  0.50000000  0.34612600  0.02106100  1
  Mg  Mg0_5  1  0.50000000  0.34612600  0.52106100  1
  Mg  Mg0_6  1  0.50000000  0.84612600  0.02106100  1
  Mg  Mg0_7  1  0.50000000  0.84612600  0.52106100  1
  Mg  Mg1_0  1  0.00000000  0.15387400  0.02106100  1
  Mg  Mg1_1  1  0.00000000  0.15387400  0.52106100  1
  Mg  Mg1_2  1  0.00000000  0.65387400  0.02106100  1
  Mg  Mg1_3  1  0.00000000  0.65387400  0.52106100  1
  Mg  Mg1_4  1  0.50000000  0.15387400  0.02106100  1
  Mg  Mg1_5  1  0.50000000  0.15387400  0.52106100  1
  Mg  Mg1_6  1  0.50000000  0.65387400  0.02106100  1
  Mg  Mg1_7  1  0.50000000  0.65387400  0.52106100  1
  Mg  Mg2_0  1  0.00000000  0.00000000  0.14532200  1
  Mg  Mg2_1  1  0.00000000  0.00000000  0.64532200  1
  Mg  Mg2_2  1  0.00000000  0.50000000  0.14532200  1
  Mg  Mg2_3  1  0.00000000  0.50000000  0.64532200  1
  Mg  Mg2_4  1  0.50000000  0.00000000  0.14532200  1
  Mg  Mg2_5  1  0.50000000  0.00000000  0.64532200  1
  Mg  Mg2_6  1  0.50000000  0.50000000  0.14532200  1
  Mg  Mg2_7  1  0.50000000  0.50000000  0.64532200  1
  Mg  Mg3_0  1  0.25000000  0.14543900  0.20164900  1
  Mg  Mg3_1  1  0.25000000  0.14543900  0.70164900  1
  Mg  Mg3_2  1  0.25000000  0.64543900  0.20164900  1
  Mg  Mg3_3  1  0.25000000  0.64543900  0.70164900  1
  Mg  Mg3_4  1  0.75000000  0.14543900  0.20164900  1
  Mg  Mg3_5  1  0.75000000  0.14543900  0.70164900  1
  Mg  Mg3_6  1  0.75000000  0.64543900  0.20164900  1
  Mg  Mg3_7  1  0.75000000  0.64543900  0.70164900  1
  Mg  Mg4_0  1  0.25000000  0.35456100  0.20164900  1
  Mg  Mg4_1  1  0.25000000  0.35456100  0.70164900  1
  Mg  Mg4_2  1  0.25000000  0.85456100  0.20164900  1
  Mg  Mg4_3  1  0.25000000  0.85456100  0.70164900  1
  Mg  Mg4_4  1  0.75000000  0.35456100  0.20164900  1
  Mg  Mg4_5  1  0.75000000  0.35456100  0.70164900  1
  Mg  Mg4_6  1  0.75000000  0.85456100  0.20164900  1
  Mg  Mg4_7  1  0.75000000  0.85456100  0.70164900  1
  Mg  Mg5_0  1  0.25000000  0.00000000  0.05564550  1
  Mg  Mg5_1  1  0.25000000  0.00000000  0.55564550  1
  Mg  Mg5_2  1  0.25000000  0.50000000  0.05564550  1
  Mg  Mg5_3  1  0.25000000  0.50000000  0.55564550  1
  Mg  Mg5_4  1  0.75000000  0.00000000  0.05564550  1
  Mg  Mg5_5  1  0.75000000  0.00000000  0.55564550  1
  Mg  Mg5_6  1  0.75000000  0.50000000  0.05564550  1
  Mg  Mg5_7  1  0.75000000  0.50000000  0.55564550  1
  Mg  Mg6_0  1  0.00000000  0.09612600  0.27106100  1
  Mg  Mg6_1  1  0.00000000  0.09612600  0.77106100  1
  Mg  Mg6_2  1  0.00000000  0.59612600  0.27106100  1
  Mg  Mg6_3  1  0.00000000  0.59612600  0.77106100  1
  Mg  Mg6_4  1  0.50000000  0.09612600  0.27106100  1
  Mg  Mg6_5  1  0.50000000  0.09612600  0.77106100  1
  Mg  Mg6_6  1  0.50000000  0.59612600  0.27106100  1
  Mg  Mg6_7  1  0.50000000  0.59612600  0.77106100  1
  Mg  Mg7_0  1  0.00000000  0.40387400  0.27106100  1
  Mg  Mg7_1  1  0.00000000  0.40387400  0.77106100  1
  Mg  Mg7_2  1  0.00000000  0.90387400  0.27106100  1
  Mg  Mg7_3  1  0.00000000  0.90387400  0.77106100  1
  Mg  Mg7_4  1  0.50000000  0.40387400  0.27106100  1
  Mg  Mg7_5  1  0.50000000  0.40387400  0.77106100  1
  Mg  Mg7_6  1  0.50000000  0.90387400  0.27106100  1
  Mg  Mg7_7  1  0.50000000  0.90387400  0.77106100  1
  Mg  Mg8_0  1  0.00000000  0.25000000  0.39532200  1
  Mg  Mg8_1  1  0.00000000  0.25000000  0.89532200  1
  Mg  Mg8_2  1  0.00000000  0.75000000  0.39532200  1
  Mg  Mg8_3  1  0.00000000  0.75000000  0.89532200  1
  Mg  Mg8_4  1  0.50000000  0.25000000  0.39532200  1
  Mg  Mg8_5  1  0.50000000  0.25000000  0.89532200  1
  Mg  Mg8_6  1  0.50000000  0.75000000  0.39532200  1
  Mg  Mg8_7  1  0.50000000  0.75000000  0.89532200  1
  Mg  Mg9_0  1  0.25000000  0.39543900  0.45164900  1
  Mg  Mg9_1  1  0.25000000  0.39543900  0.95164900  1
  Mg  Mg9_2  1  0.25000000  0.89543900  0.45164900  1
  Mg  Mg9_3  1  0.25000000  0.89543900  0.95164900  1
  Mg  Mg9_4  1  0.75000000  0.39543900  0.45164900  1
  Mg  Mg9_5  1  0.75000000  0.39543900  0.95164900  1
  Mg  Mg9_6  1  0.75000000  0.89543900  0.45164900  1
  Mg  Mg9_7  1  0.75000000  0.89543900  0.95164900  1
  Mg  Mg10_0  1  0.25000000  0.10456100  0.45164900  1
  Mg  Mg10_1  1  0.25000000  0.10456100  0.95164900  1
  Mg  Mg10_2  1  0.25000000  0.60456100  0.45164900  1
  Mg  Mg10_3  1  0.25000000  0.60456100  0.95164900  1
  Mg  Mg10_4  1  0.75000000  0.10456100  0.45164900  1
  Mg  Mg10_5  1  0.75000000  0.10456100  0.95164900  1
  Mg  Mg10_6  1  0.75000000  0.60456100  0.45164900  1
  Mg  Mg10_7  1  0.75000000  0.60456100  0.95164900  1
  Mg  Mg11_0  1  0.25000000  0.25000000  0.30564550  1
  Mg  Mg11_1  1  0.25000000  0.25000000  0.80564550  1
  Mg  Mg11_2  1  0.25000000  0.75000000  0.30564550  1
  Mg  Mg11_3  1  0.25000000  0.75000000  0.80564550  1
  Mg  Mg11_4  1  0.75000000  0.25000000  0.30564550  1
  Mg  Mg11_5  1  0.75000000  0.25000000  0.80564550  1
  Mg  Mg11_6  1  0.75000000  0.75000000  0.30564550  1
  Mg  Mg11_7  1  0.75000000  0.75000000  0.80564550  1
  Co  Co0_0  1  0.00000000  0.25000000  0.24253600  1
  Co  Co0_1  1  0.00000000  0.25000000  0.74253600  1
  Co  Co0_2  1  0.00000000  0.75000000  0.24253600  1
  Co  Co0_3  1  0.00000000  0.75000000  0.74253600  1
  Co  Co0_4  1  0.50000000  0.25000000  0.24253600  1
  Co  Co0_5  1  0.50000000  0.25000000  0.74253600  1
  Co  Co0_6  1  0.50000000  0.75000000  0.24253600  1
  Co  Co0_7  1  0.50000000  0.75000000  0.74253600  1
  Co  Co1_0  1  0.00000000  0.00000000  0.49253600  1
  Co  Co1_1  1  0.00000000  0.00000000  0.99253600  1
  Co  Co1_2  1  0.00000000  0.50000000  0.49253600  1
  Co  Co1_3  1  0.00000000  0.50000000  0.99253600  1
  Co  Co1_4  1  0.50000000  0.00000000  0.49253600  1
  Co  Co1_5  1  0.50000000  0.00000000  0.99253600  1
  Co  Co1_6  1  0.50000000  0.50000000  0.49253600  1
  Co  Co1_7  1  0.50000000  0.50000000  0.99253600  1
loop_
_geom_bond_atom_site_label_1
_geom_bond_atom_site_label_2
_geom_bond_distance
_geom_bond_site_symmetry_2
Cs0_0 Cs0_4 3.226727 1_455
Cs0_0 Cs0_4 3.226727 1_555
Cs0_0 Mg4_0 3.577076 1_555
Cs0_0 Mg3_0 3.577076 1_555
Cs0_0 Mg0_4 3.857840 1_555
Cs0_0 Mg0_0 3.857840 1_555
Cs0_0 Mg1_4 3.857840 1_555
Cs0_0 Mg1_0 3.857840 1_555
Cs0_0 Mg5_2 4.270502 1_555
Cs0_0 Mg5_0 4.270502 1_555
Cs0_0 Mg2_4 4.296453 1_555
Cs0_0 Mg2_2 4.296453 1_555
Cs0_0 Mg2_0 4.296453 1_555
Cs0_0 Mg2_6 4.296453 1_555
Cs0_1 Cs0_5 3.226727 1_455
Cs0_1 Cs0_5 3.226727 1_555
Cs0_1 Mg4_1 3.577076 1_555
Cs0_1 Mg3_1 3.577076 1_555
Cs0_1 Mg0_1 3.857840 1_555
Cs0_1 Mg0_5 3.857840 1_555
Cs0_1 Mg1_5 3.857840 1_555
Cs0_1 Mg1_1 3.857840 1_555
Cs0_1 Mg5_1 4.270502 1_555
Cs0_1 Mg5_3 4.270502 1_555
Cs0_1 Mg2_3 4.296453 1_555
Cs0_1 Mg2_7 4.296453 1_555
Cs0_1 Mg2_1 4.296453 1_555
Cs0_1 Mg2_5 4.296453 1_555
Cs0_2 Cs0_6 3.226727 1_555
Cs0_2 Cs0_6 3.226727 1_455
Cs0_2 Mg4_2 3.577076 1_555
Cs0_2 Mg3_2 3.577076 1_555
Cs0_2 Mg0_2 3.857840 1_555
Cs0_2 Mg0_6 3.857840 1_555
Cs0_2 Mg1_2 3.857840 1_555
Cs0_2 Mg1_6 3.857840 1_555
Cs0_2 Mg5_2 4.270502 1_555
Cs0_2 Mg5_0 4.270502 1_565
Cs0_2 Mg2_6 4.296453 1_555
Cs0_2 Mg2_2 4.296453 1_555
Cs0_2 Mg2_0 4.296453 1_565
Cs0_2 Mg2_4 4.296453 1_565
Cs0_3 Cs0_7 3.226727 1_555
Cs0_3 Cs0_7 3.226727 1_455
Cs0_3 Mg4_3 3.577076 1_555
Cs0_3 Mg3_3 3.577076 1_555
Cs0_3 Mg0_7 3.857840 1_555
Cs0_3 Mg0_3 3.857840 1_555
Cs0_3 Mg1_3 3.857840 1_555
Cs0_3 Mg1_7 3.857840 1_555
Cs0_3 Mg5_3 4.270502 1_555
Cs0_3 Mg5_1 4.270502 1_565
Cs0_3 Mg2_3 4.296453 1_555
Cs0_3 Mg2_7 4.296453 1_555
Cs0_3 Mg2_1 4.296453 1_565
Cs0_3 Mg2_5 4.296453 1_565
Cs0_4 Mg4_4 3.577076 1_555
Cs0_4 Mg3_4 3.577076 1_555
Cs0_4 Mg0_0 3.857840 1_655
Cs0_4 Mg0_4 3.857840 1_555
Cs0_4 Mg1_4 3.857840 1_555
Cs0_4 Mg1_0 3.857840 1_655
Cs0_4 Mg5_4 4.270502 1_555
Cs0_4 Mg5_6 4.270502 1_555
Cs0_4 Mg2_2 4.296453 1_655
Cs0_4 Mg2_4 4.296453 1_555
Cs0_4 Mg2_0 4.296453 1_655
Cs0_4 Mg2_6 4.296453 1_555
Cs0_5 Mg4_5 3.577076 1_555
Cs0_5 Mg3_5 3.577076 1_555
Cs0_5 Mg0_1 3.857840 1_655
Cs0_5 Mg0_5 3.857840 1_555
Cs0_5 Mg1_1 3.857840 1_655
Cs0_5 Mg1_5 3.857840 1_555
Cs0_5 Mg5_5 4.270502 1_555
Cs0_5 Mg5_7 4.270502 1_555
Cs0_5 Mg2_7 4.296453 1_555
Cs0_5 Mg2_3 4.296453 1_655
Cs0_5 Mg2_1 4.296453 1_655
Cs0_5 Mg2_5 4.296453 1_555
Cs0_6 Mg4_6 3.577076 1_555
Cs0_6 Mg3_6 3.577076 1_555
Cs0_6 Mg0_2 3.857840 1_655
Cs0_6 Mg0_6 3.857840 1_555
Cs0_6 Mg1_2 3.857840 1_655
Cs0_6 Mg1_6 3.857840 1_555
Cs0_6 Mg5_6 4.270502 1_555
Cs0_6 Mg5_4 4.270502 1_565
Cs0_6 Mg2_6 4.296453 1_555
Cs0_6 Mg2_2 4.296453 1_655
Cs0_6 Mg2_4 4.296453 1_565
Cs0_6 Mg2_0 4.296453 1_665
Cs0_7 Mg4_7 3.577076 1_555
Cs0_7 Mg3_7 3.577076 1_555
Cs0_7 Mg0_3 3.857840 1_655
Cs0_7 Mg0_7 3.857840 1_555
Cs0_7 Mg1_3 3.857840 1_655
Cs0_7 Mg1_7 3.857840 1_555
Cs0_7 Mg5_7 4.270502 1_555
Cs0_7 Mg5_5 4.270502 1_565
Cs0_7 Mg2_7 4.296453 1_555
Cs0_7 Mg2_3 4.296453 1_655
Cs0_7 Mg2_5 4.296453 1_565
Cs0_7 Mg2_1 4.296453 1_665
Cs1_0 Cs1_4 3.226727 1_555
Cs1_0 Cs1_4 3.226727 1_455
Cs1_0 Mg10_0 3.577076 1_555
Cs1_0 Mg9_2 3.577076 1_545
Cs1_0 Mg6_0 3.857840 1_555
Cs1_0 Mg6_4 3.857840 1_555
Cs1_0 Mg7_6 3.857840 1_545
Cs1_0 Mg7_2 3.857840 1_545
Cs1_0 Mg11_0 4.270502 1_555
Cs1_0 Mg11_2 4.270502 1_545
Cs1_0 Mg8_0 4.296453 1_555
Cs1_0 Mg8_4 4.296453 1_555
Cs1_0 Mg8_6 4.296453 1_545
Cs1_0 Mg8_2 4.296453 1_545
Cs1_1 Cs1_5 3.226727 1_555
Cs1_1 Cs1_5 3.226727 1_455
Cs1_1 Mg10_1 3.577076 1_555
Cs1_1 Mg9_3 3.577076 1_545
Cs1_1 Mg6_5 3.857840 1_555
Cs1_1 Mg6_1 3.857840 1_555
Cs1_1 Mg7_3 3.857840 1_545
Cs1_1 Mg7_7 3.857840 1_545
Cs1_1 Mg11_1 4.270502 1_555
Cs1_1 Mg11_3 4.270502 1_545
Cs1_1 Mg8_1 4.296453 1_555
Cs1_1 Mg8_5 4.296453 1_555
Cs1_1 Mg8_7 4.296453 1_545
Cs1_1 Mg8_3 4.296453 1_545
Cs1_2 Cs1_6 3.226727 1_455
Cs1_2 Cs1_6 3.226727 1_555
Cs1_2 Mg10_2 3.577076 1_555
Cs1_2 Mg9_0 3.577076 1_555
Cs1_2 Mg6_2 3.857840 1_555
Cs1_2 Mg6_6 3.857840 1_555
Cs1_2 Mg7_0 3.857840 1_555
Cs1_2 Mg7_4 3.857840 1_555
Cs1_2 Mg11_2 4.270502 1_555
Cs1_2 Mg11_0 4.270502 1_555
Cs1_2 Mg8_2 4.296453 1_555
Cs1_2 Mg8_0 4.296453 1_555
Cs1_2 Mg8_6 4.296453 1_555
Cs1_2 Mg8_4 4.296453 1_555
Cs1_3 Cs1_7 3.226727 1_555
Cs1_3 Cs1_7 3.226727 1_455
Cs1_3 Mg10_3 3.577076 1_555
Cs1_3 Mg9_1 3.577076 1_555
Cs1_3 Mg6_3 3.857840 1_555
Cs1_3 Mg6_7 3.857840 1_555
Cs1_3 Mg7_1 3.857840 1_555
Cs1_3 Mg7_5 3.857840 1_555
Cs1_3 Mg11_3 4.270502 1_555
Cs1_3 Mg11_1 4.270502 1_555
Cs1_3 Mg8_3 4.296453 1_555
Cs1_3 Mg8_1 4.296453 1_555
Cs1_3 Mg8_5 4.296453 1_555
Cs1_3 Mg8_7 4.296453 1_555
Cs1_4 Mg10_4 3.577076 1_555
Cs1_4 Mg9_6 3.577076 1_545
Cs1_4 Mg6_0 3.857840 1_655
Cs1_4 Mg6_4 3.857840 1_555
Cs1_4 Mg7_6 3.857840 1_545
Cs1_4 Mg7_2 3.857840 1_645
Cs1_4 Mg11_4 4.270502 1_555
Cs1_4 Mg11_6 4.270502 1_545
Cs1_4 Mg8_4 4.296453 1_555
Cs1_4 Mg8_0 4.296453 1_655
Cs1_4 Mg8_6 4.296453 1_545
Cs1_4 Mg8_2 4.296453 1_645
Cs1_5 Mg10_5 3.577076 1_555
Cs1_5 Mg9_7 3.577076 1_545
Cs1_5 Mg6_5 3.857840 1_555
Cs1_5 Mg6_1 3.857840 1_655
Cs1_5 Mg7_7 3.857840 1_545
Cs1_5 Mg7_3 3.857840 1_645
Cs1_5 Mg11_5 4.270502 1_555
Cs1_5 Mg11_7 4.270502 1_545
Cs1_5 Mg8_1 4.296453 1_655
Cs1_5 Mg8_5 4.296453 1_555
Cs1_5 Mg8_7 4.296453 1_545
Cs1_5 Mg8_3 4.296453 1_645
Cs1_6 Mg10_6 3.577076 1_555
Cs1_6 Mg9_4 3.577076 1_555
Cs1_6 Mg6_2 3.857840 1_655
Cs1_6 Mg6_6 3.857840 1_555
Cs1_6 Mg7_0 3.857840 1_655
Cs1_6 Mg7_4 3.857840 1_555
Cs1_6 Mg11_6 4.270502 1_555
Cs1_6 Mg11_4 4.270502 1_555
Cs1_6 Mg8_6 4.296453 1_555
Cs1_6 Mg8_4 4.296453 1_555
Cs1_6 Mg8_2 4.296453 1_655
Cs1_6 Mg8_0 4.296453 1_655
Cs1_7 Mg10_7 3.577076 1_555
Cs1_7 Mg9_5 3.577076 1_555
Cs1_7 Mg6_3 3.857840 1_655
Cs1_7 Mg6_7 3.857840 1_555
Cs1_7 Mg7_1 3.857840 1_655
Cs1_7 Mg7_5 3.857840 1_555
Cs1_7 Mg11_7 4.270502 1_555
Cs1_7 Mg11_5 4.270502 1_555
Cs1_7 Mg8_3 4.296453 1_655
Cs1_7 Mg8_5 4.296453 1_555
Cs1_7 Mg8_1 4.296453 1_655
Cs1_7 Mg8_7 4.296453 1_555
Mg2_0 Mg2_4 3.226727 1_555
Mg2_0 Mg2_4 3.226727 1_455
Mg2_0 Mg3_4 3.383426 1_455
Mg2_0 Mg3_0 3.383426 1_555
Mg2_0 Mg4_2 3.383426 1_545
Mg2_0 Mg4_6 3.383426 1_445
Mg2_0 Mg5_0 3.560821 1_555
Mg2_0 Mg5_4 3.560821 1_455
Mg2_1 Mg2_5 3.226727 1_555
Mg2_1 Mg2_5 3.226727 1_455
Mg2_1 Mg3_5 3.383426 1_455
Mg2_1 Mg3_1 3.383426 1_555
Mg2_1 Mg4_7 3.383426 1_445
Mg2_1 Mg4_3 3.383426 1_545
Mg2_1 Mg5_1 3.560821 1_555
Mg2_1 Mg5_5 3.560821 1_455
Mg2_2 Mg2_6 3.226727 1_455
Mg2_2 Mg2_6 3.226727 1_555
Mg2_2 Mg3_2 3.383426 1_555
Mg2_2 Mg3_6 3.383426 1_455
Mg2_2 Mg4_0 3.383426 1_555
Mg2_2 Mg4_4 3.383426 1_455
Mg2_2 Mg5_6 3.560821 1_455
Mg2_2 Mg5_2 3.560821 1_555
Mg2_3 Mg2_7 3.226727 1_555
Mg2_3 Mg2_7 3.226727 1_455
Mg2_3 Mg3_7 3.383426 1_455
Mg2_3 Mg3_3 3.383426 1_555
Mg2_3 Mg4_5 3.383426 1_455
Mg2_3 Mg4_1 3.383426 1_555
Mg2_3 Mg5_7 3.560821 1_455
Mg2_3 Mg5_3 3.560821 1_555
Mg2_4 Mg3_4 3.383426 1_555
Mg2_4 Mg3_0 3.383426 1_555
Mg2_4 Mg4_2 3.383426 1_545
Mg2_4 Mg4_6 3.383426 1_545
Mg2_4 Mg5_4 3.560821 1_555
Mg2_4 Mg5_0 3.560821 1_555
Mg2_5 Mg3_1 3.383426 1_555
Mg2_5 Mg3_5 3.383426 1_555
Mg2_5 Mg4_7 3.383426 1_545
Mg2_5 Mg4_3 3.383426 1_545
Mg2_5 Mg5_5 3.560821 1_555
Mg2_5 Mg5_1 3.560821 1_555
Mg2_6 Mg3_2 3.383426 1_555
Mg2_6 Mg3_6 3.383426 1_555
Mg2_6 Mg4_0 3.383426 1_555
Mg2_6 Mg4_4 3.383426 1_555
Mg2_6 Mg5_2 3.560821 1_555
Mg2_6 Mg5_6 3.560821 1_555
Mg2_7 Mg3_3 3.383426 1_555
Mg2_7 Mg3_7 3.383426 1_555
Mg2_7 Mg4_5 3.383426 1_555
Mg2_7 Mg4_1 3.383426 1_555
Mg2_7 Mg5_7 3.560821 1_555
Mg2_7 Mg5_3 3.560821 1_555
Mg8_0 Mg8_4 3.226727 1_555
Mg8_0 Mg8_4 3.226727 1_455
Mg8_0 Mg9_0 3.383426 1_555
Mg8_0 Mg9_4 3.383426 1_455
Mg8_1 Mg8_5 3.226727 1_455
Mg8_1 Mg8_5 3.226727 1_555
Mg8_1 Mg9_1 3.383426 1_555
Mg8_1 Mg9_5 3.383426 1_455
Mg8_2 Mg8_6 3.226727 1_555
Mg8_2 Mg8_6 3.226727 1_455
Mg8_2 Mg9_6 3.383426 1_455
Mg8_2 Mg9_2 3.383426 1_555
Mg8_3 Mg8_7 3.226727 1_455
Mg8_3 Mg8_7 3.226727 1_555
Mg8_3 Mg9_3 3.383426 1_555
Mg8_3 Mg9_7 3.383426 1_455
Mg8_4 Mg9_4 3.383426 1_555
Mg8_4 Mg9_0 3.383426 1_555
Mg8_5 Mg9_1 3.383426 1_555
Mg8_5 Mg9_5 3.383426 1_555
Mg8_6 Mg9_6 3.383426 1_555
Mg8_6 Mg9_2 3.383426 1_555
Mg8_7 Mg9_3 3.383426 1_555
Mg8_7 Mg9_7 3.383426 1_555
Mg10_0 Mg8_4 3.383426 1_555
Mg10_0 Mg8_0 3.383426 1_555
Mg10_1 Mg8_5 3.383426 1_555
Mg10_1 Mg8_1 3.383426 1_555
Mg10_2 Mg8_2 3.383426 1_555
Mg10_2 Mg8_6 3.383426 1_555
Mg10_3 Mg8_3 3.383426 1_555
Mg10_3 Mg8_7 3.383426 1_555
Mg10_4 Mg8_4 3.383426 1_555
Mg10_4 Mg8_0 3.383426 1_655
Mg10_5 Mg8_5 3.383426 1_555
Mg10_5 Mg8_1 3.383426 1_655
Mg10_6 Mg8_2 3.383426 1_655
Mg10_6 Mg8_6 3.383426 1_555
Mg10_7 Mg8_7 3.383426 1_555
Mg10_7 Mg8_3 3.383426 1_655
Mg11_0 Mg8_0 3.560821 1_555
Mg11_0 Mg8_4 3.560821 1_555
Mg11_1 Mg8_1 3.560821 1_555
Mg11_1 Mg8_5 3.560821 1_555
Mg11_2 Mg8_6 3.560821 1_555
Mg11_2 Mg8_2 3.560821 1_555
Mg11_3 Mg8_3 3.560821 1_555
Mg11_3 Mg8_7 3.560821 1_555
Mg11_4 Mg8_4 3.560821 1_555
Mg11_4 Mg8_0 3.560821 1_655
Mg11_5 Mg8_1 3.560821 1_655
Mg11_5 Mg8_5 3.560821 1_555
Mg11_6 Mg8_6 3.560821 1_555
Mg11_6 Mg8_2 3.560821 1_655
Mg11_7 Mg8_7 3.560821 1_555
Mg11_7 Mg8_3 3.560821 1_655
Co0_0 Mg7_0 2.543599 1_555
Co0_0 Mg6_0 2.543599 1_555
Co0_0 Mg4_0 2.685957 1_555
Co0_0 Mg4_4 2.685957 1_455
Co0_0 Mg3_4 2.685957 1_455
Co0_0 Mg3_0 2.685957 1_555
Co0_0 Mg11_0 2.755616 1_555
Co0_0 Mg11_4 2.755616 1_455
Co0_1 Mg7_1 2.543599 1_555
Co0_1 Mg6_1 2.543599 1_555
Co0_1 Mg4_5 2.685957 1_455
Co0_1 Mg4_1 2.685957 1_555
Co0_1 Mg3_1 2.685957 1_555
Co0_1 Mg3_5 2.685957 1_455
Co0_1 Mg11_1 2.755616 1_555
Co0_1 Mg11_5 2.755616 1_455
Co0_2 Mg7_2 2.543599 1_555
Co0_2 Mg6_2 2.543599 1_555
Co0_2 Mg4_2 2.685957 1_555
Co0_2 Mg4_6 2.685957 1_455
Co0_2 Mg3_2 2.685957 1_555
Co0_2 Mg3_6 2.685957 1_455
Co0_2 Mg11_2 2.755616 1_555
Co0_2 Mg11_6 2.755616 1_455
Co0_3 Mg7_3 2.543599 1_555
Co0_3 Mg6_3 2.543599 1_555
Co0_3 Mg4_3 2.685957 1_555
Co0_3 Mg4_7 2.685957 1_455
Co0_3 Mg3_3 2.685957 1_555
Co0_3 Mg3_7 2.685957 1_455
Co0_3 Mg11_3 2.755616 1_555
Co0_3 Mg11_7 2.755616 1_455
Co0_4 Mg7_4 2.543599 1_555
Co0_4 Mg6_4 2.543599 1_555
Co0_4 Mg4_0 2.685957 1_555
Co0_4 Mg4_4 2.685957 1_555
Co0_4 Mg3_0 2.685957 1_555
Co0_4 Mg3_4 2.685957 1_555
Co0_4 Mg11_0 2.755616 1_555
Co0_4 Mg11_4 2.755616 1_555
Co0_5 Mg7_5 2.543599 1_555
Co0_5 Mg6_5 2.543599 1_555
Co0_5 Mg4_1 2.685957 1_555
Co0_5 Mg4_5 2.685957 1_555
Co0_5 Mg3_1 2.685957 1_555
Co0_5 Mg3_5 2.685957 1_555
Co0_5 Mg11_5 2.755616 1_555
Co0_5 Mg11_1 2.755616 1_555
Co0_6 Mg7_6 2.543599 1_555
Co0_6 Mg6_6 2.543599 1_555
Co0_6 Mg4_2 2.685957 1_555
Co0_6 Mg4_6 2.685957 1_555
Co0_6 Mg3_2 2.685957 1_555
Co0_6 Mg3_6 2.685957 1_555
Co0_6 Mg11_2 2.755616 1_555
Co0_6 Mg11_6 2.755616 1_555
Co0_7 Mg7_7 2.543599 1_555
Co0_7 Mg6_7 2.543599 1_555
Co0_7 Mg4_3 2.685957 1_555
Co0_7 Mg4_7 2.685957 1_555
Co0_7 Mg3_3 2.685957 1_555
Co0_7 Mg3_7 2.685957 1_555
Co0_7 Mg11_3 2.755616 1_555
Co0_7 Mg11_7 2.755616 1_555
Co1_0 Mg1_1 2.543599 1_555
Co1_0 Mg0_3 2.543599 1_545
Co1_0 Mg10_4 2.685957 1_455
Co1_0 Mg10_0 2.685957 1_555
Co1_0 Mg9_6 2.685957 1_445
Co1_0 Mg9_2 2.685957 1_545
Co1_0 Mg5_1 2.755616 1_555
Co1_0 Mg5_5 2.755616 1_455
Co1_1 Mg1_0 2.543599 1_556
Co1_1 Mg0_2 2.543599 1_546
Co1_1 Mg10_5 2.685957 1_455
Co1_1 Mg10_1 2.685957 1_555
Co1_1 Mg9_7 2.685957 1_445
Co1_1 Mg9_3 2.685957 1_545
Co1_1 Mg5_0 2.755616 1_556
Co1_1 Mg5_4 2.755616 1_456
Co1_2 Mg1_3 2.543599 1_555
Co1_2 Mg0_1 2.543599 1_555
Co1_2 Mg10_6 2.685957 1_455
Co1_2 Mg10_2 2.685957 1_555
Co1_2 Mg9_0 2.685957 1_555
Co1_2 Mg9_4 2.685957 1_455
Co1_2 Mg5_3 2.755616 1_555
Co1_2 Mg5_7 2.755616 1_455
Co1_3 Mg1_2 2.543599 1_556
Co1_3 Mg0_0 2.543599 1_556
Co1_3 Mg10_3 2.685957 1_555
Co1_3 Mg10_7 2.685957 1_455
Co1_3 Mg9_1 2.685957 1_555
Co1_3 Mg9_5 2.685957 1_455
Co1_3 Mg5_2 2.755616 1_556
Co1_3 Mg5_6 2.755616 1_456
Co1_4 Mg1_5 2.543599 1_555
Co1_4 Mg0_7 2.543599 1_545
Co1_4 Mg10_0 2.685957 1_555
Co1_4 Mg10_4 2.685957 1_555
Co1_4 Mg9_6 2.685957 1_545
Co1_4 Mg9_2 2.685957 1_545
Co1_4 Mg5_1 2.755616 1_555
Co1_4 Mg5_5 2.755616 1_555
Co1_5 Mg1_4 2.543599 1_556
Co1_5 Mg0_6 2.543599 1_546
Co1_5 Mg10_1 2.685957 1_555
Co1_5 Mg10_5 2.685957 1_555
Co1_5 Mg9_7 2.685957 1_545
Co1_5 Mg9_3 2.685957 1_545
Co1_5 Mg5_0 2.755616 1_556
Co1_5 Mg5_4 2.755616 1_556
Co1_6 Mg1_7 2.543599 1_555
Co1_6 Mg0_5 2.543599 1_555
Co1_6 Mg10_2 2.685957 1_555
Co1_6 Mg10_6 2.685957 1_555
Co1_6 Mg9_4 2.685957 1_555
Co1_6 Mg9_0 2.685957 1_555
Co1_6 Mg5_3 2.755616 1_555
Co1_6 Mg5_7 2.755616 1_555
Co1_7 Mg1_6 2.543599 1_556
Co1_7 Mg0_4 2.543599 1_556
Co1_7 Mg10_7 2.685957 1_555
Co1_7 Mg10_3 2.685957 1_555
Co1_7 Mg9_1 2.685957 1_555
Co1_7 Mg9_5 2.685957 1_555
Co1_7 Mg5_2 2.755616 1_556
Co1_7 Mg5_6 2.755616 1_556
