# generated using pymatgen
data_Na5AgGe2Se7
_symmetry_space_group_name_H-M   'P 1'
_cell_length_a   7.33296019
_cell_length_b   7.33296019
_cell_length_c   15.46812664
_cell_angle_alpha   81.61600332
_cell_angle_beta   81.61600332
_cell_angle_gamma   94.41520651
_symmetry_Int_Tables_number   1
_chemical_formula_structural   Na5AgGe2Se7
_chemical_formula_sum   'Na10 Ag2 Ge4 Se14'
_cell_volume   809.96249158
_cell_formula_units_Z   2
loop_
 _symmetry_equiv_pos_site_id
 _symmetry_equiv_pos_as_xyz
  1  'x, y, z'
loop_
 _atom_site_type_symbol
 _atom_site_label
 _atom_site_symmetry_multiplicity
 _atom_site_fract_x
 _atom_site_fract_y
 _atom_site_fract_z
 _atom_site_occupancy
  Na  Na0  1  0.00000000  0.00000000  0.50000000  1
  Na  Na1  1  0.00000000  0.00000000  0.00000000  1
  Na  Na2  1  0.47810500  0.75884400  0.91491400  1
  Na  Na3  1  0.52189500  0.24115600  0.08508600  1
  Na  Na4  1  0.24115600  0.52189500  0.58508600  1
  Na  Na5  1  0.75884400  0.47810500  0.41491400  1
  Na  Na6  1  0.51421100  0.03471700  0.64434700  1
  Na  Na7  1  0.48578900  0.96528400  0.35565300  1
  Na  Na8  1  0.96528300  0.48578900  0.85565300  1
  Na  Na9  1  0.03471700  0.51421100  0.14434700  1
  Ag  Ag0  1  0.91289800  0.08710200  0.75000000  1
  Ag  Ag1  1  0.08710200  0.91289800  0.25000000  1
  Ge  Ge0  1  0.41535800  0.26225100  0.85728600  1
  Ge  Ge1  1  0.58464200  0.73774900  0.14271400  1
  Ge  Ge2  1  0.73774900  0.58464200  0.64271400  1
  Ge  Ge3  1  0.26225100  0.41535800  0.35728600  1
  Se  Se0  1  0.24865700  0.02058700  0.80667300  1
  Se  Se1  1  0.75134300  0.97941300  0.19332700  1
  Se  Se2  1  0.97941300  0.75134300  0.69332700  1
  Se  Se3  1  0.02058700  0.24865700  0.30667300  1
  Se  Se4  1  0.45310100  0.54689900  0.75000000  1
  Se  Se5  1  0.54689900  0.45310100  0.25000000  1
  Se  Se6  1  0.69647200  0.15879800  0.89551200  1
  Se  Se7  1  0.30352800  0.84120200  0.10448800  1
  Se  Se8  1  0.84120200  0.30352800  0.60448800  1
  Se  Se9  1  0.15879800  0.69647200  0.39551200  1
  Se  Se10  1  0.62921100  0.77146700  0.52618300  1
  Se  Se11  1  0.37078900  0.22853300  0.47381700  1
  Se  Se12  1  0.22853300  0.37078900  0.97381700  1
  Se  Se13  1  0.77146700  0.62921100  0.02618300  1
loop_
_geom_bond_atom_site_label_1
_geom_bond_atom_site_label_2
_geom_bond_distance
_geom_bond_site_symmetry_2
Na0 Se10 3.024015 1_445
Na0 Se11 3.024015 1_555
Na0 Se8 3.133917 1_455
Na0 Se9 3.133917 1_545
Na0 Se2 3.244376 1_445
Na0 Se3 3.244376 1_555
Na1 Se12 3.024015 1_554
Na1 Se13 3.024015 1_445
Na1 Se6 3.133917 1_454
Na1 Se7 3.133917 1_545
Na1 Se1 3.244376 1_445
Na1 Se0 3.244376 1_554
Na2 Se13 3.067744 1_556
Na2 Se0 3.114426 1_565
Na2 Se6 3.183686 1_565
Na2 Se7 3.184813 1_556
Na2 Se4 3.194510 1_555
Na2 Se12 3.198856 1_555
Na3 Se12 3.067744 1_554
Na3 Se1 3.114426 1_545
Na3 Se7 3.183686 1_545
Na3 Se6 3.184813 1_554
Na3 Se5 3.194510 1_555
Na3 Se13 3.198856 1_555
Na4 Se11 3.067744 1_555
Na4 Se2 3.114426 1_455
Na4 Se8 3.183686 1_455
Na4 Se9 3.184813 1_555
Na4 Se4 3.194510 1_555
Na4 Se10 3.198856 1_555
Na5 Se10 3.067744 1_555
Na5 Se3 3.114426 1_655
Na5 Se9 3.183686 1_655
Na5 Se8 3.184813 1_555
Na5 Se5 3.194510 1_555
Na5 Se11 3.198856 1_555
Na6 Se8 2.915809 1_555
Na6 Se0 2.928218 1_555
Na6 Se10 2.934013 1_545
Na6 Se11 3.166985 1_555
Na7 Se9 2.915813 1_555
Na7 Se1 2.928219 1_555
Na7 Se11 2.934007 1_565
Na7 Se10 3.166988 1_555
Na8 Se6 2.915809 1_555
Na8 Se2 2.928218 1_555
Na8 Se12 2.934013 1_655
Na8 Se13 3.166985 1_556
Na9 Se7 2.915809 1_555
Na9 Se3 2.928218 1_555
Na9 Se13 2.934013 1_455
Na9 Se12 3.166985 1_554
Ag0 Se8 2.700569 1_555
Ag0 Se6 2.700569 1_555
Ag0 Se0 2.785312 1_655
Ag0 Se2 2.785312 1_545
Ag1 Se9 2.700569 1_555
Ag1 Se7 2.700569 1_555
Ag1 Se3 2.785312 1_565
Ag1 Se1 2.785312 1_455
Ge0 Se0 2.365948 1_555
Ge0 Se12 2.371814 1_555
Ge0 Se6 2.374845 1_555
Ge0 Se4 2.440174 1_555
Ge1 Se1 2.365948 1_555
Ge1 Se13 2.371814 1_555
Ge1 Se7 2.374845 1_555
Ge1 Se5 2.440174 1_555
Ge2 Se2 2.365948 1_555
Ge2 Se10 2.371814 1_555
Ge2 Se8 2.374845 1_555
Ge2 Se4 2.440174 1_555
Ge3 Se3 2.365948 1_555
Ge3 Se11 2.371814 1_555
Ge3 Se9 2.374845 1_555
Ge3 Se5 2.440174 1_555
