# generated using pymatgen
data_Rb3B(SO4)3
_symmetry_space_group_name_H-M   'P 1'
_cell_length_a   14.04139905
_cell_length_b   14.04139905
_cell_length_c   14.04139905
_cell_angle_alpha   150.11673808
_cell_angle_beta   116.63538191
_cell_angle_gamma   71.61784396
_symmetry_Int_Tables_number   1
_chemical_formula_structural   Rb3B(SO4)3
_chemical_formula_sum   'Rb12 B4 S12 O48'
_cell_volume   1216.10526395
_cell_formula_units_Z   4
loop_
 _symmetry_equiv_pos_site_id
 _symmetry_equiv_pos_as_xyz
  1  'x, y, z'
loop_
 _atom_site_type_symbol
 _atom_site_label
 _atom_site_symmetry_multiplicity
 _atom_site_fract_x
 _atom_site_fract_y
 _atom_site_fract_z
 _atom_site_occupancy
  Rb  Rb0  1  0.29255332  0.30335303  0.24225622  1
  Rb  Rb1  1  0.20744668  0.44970390  0.01079971  1
  Rb  Rb2  1  0.93890318  0.19664697  0.48920029  1
  Rb  Rb3  1  0.56109682  0.05029610  0.25774378  1
  Rb  Rb4  1  0.70744668  0.69664697  0.75774378  1
  Rb  Rb5  1  0.79255332  0.55029610  0.98920029  1
  Rb  Rb6  1  0.06109682  0.80335303  0.51079971  1
  Rb  Rb7  1  0.43890318  0.94970390  0.74225622  1
  Rb  Rb8  1  0.55492751  0.75000000  0.30492751  1
  Rb  Rb9  1  0.94507249  0.25000000  0.19507249  1
  Rb  Rb10  1  0.44507249  0.25000000  0.69507249  1
  Rb  Rb11  1  0.05492751  0.75000000  0.80492751  1
  B  B0  1  0.66875642  0.41875642  0.25000000  1
  B  B1  1  0.83124358  0.08124358  0.75000000  1
  B  B2  1  0.33124358  0.58124358  0.75000000  1
  B  B3  1  0.16875642  0.91875642  0.25000000  1
  S  S0  1  0.46785648  0.47840572  0.26066483  1
  S  S1  1  0.03214352  0.29280835  0.01054924  1
  S  S2  1  0.78226011  0.02159428  0.48945076  1
  S  S3  1  0.71773989  0.20719165  0.23933517  1
  S  S4  1  0.53214352  0.52159428  0.73933517  1
  S  S5  1  0.96785648  0.70719165  0.98945076  1
  S  S6  1  0.21773989  0.97840572  0.51054924  1
  S  S7  1  0.28226011  0.79280835  0.76066483  1
  S  S8  1  0.81088452  0.75000000  0.56088452  1
  S  S9  1  0.68911548  0.25000000  0.93911548  1
  S  S10  1  0.18911548  0.25000000  0.43911548  1
  S  S11  1  0.31088452  0.75000000  0.06088452  1
  O  O0  1  0.72038968  0.40183217  0.34886443  1
  O  O1  1  0.77961032  0.12847475  0.68144249  1
  O  O2  1  0.94703126  0.09816783  0.81855751  1
  O  O3  1  0.55296874  0.37152525  0.15113557  1
  O  O4  1  0.27961032  0.59816783  0.65113557  1
  O  O5  1  0.22038968  0.87152525  0.31855751  1
  O  O6  1  0.05296874  0.90183217  0.18144249  1
  O  O7  1  0.44703126  0.62847475  0.84886443  1
  O  O8  1  0.37995453  0.32207088  0.10567292  1
  O  O9  1  0.12004547  0.22571739  0.94211635  1
  O  O10  1  0.78360104  0.17792912  0.55788365  1
  O  O11  1  0.71639896  0.27428261  0.39432708  1
  O  O12  1  0.62004547  0.67792912  0.89432708  1
  O  O13  1  0.87995453  0.77428261  0.05788365  1
  O  O14  1  0.21639896  0.82207088  0.44211635  1
  O  O15  1  0.28360104  0.72571739  0.60567292  1
  O  O16  1  0.16434867  0.13410265  0.24345450  1
  O  O17  1  0.33565133  0.57910583  0.96975398  1
  O  O18  1  0.10935185  0.36589735  0.53024602  1
  O  O19  1  0.39064815  0.92089417  0.25654550  1
  O  O20  1  0.83565133  0.86589735  0.75654550  1
  O  O21  1  0.66434867  0.42089417  0.03024602  1
  O  O22  1  0.89064815  0.63410265  0.46975398  1
  O  O23  1  0.60935185  0.07910583  0.74345450  1
  O  O24  1  0.69915283  0.62608259  0.41232758  1
  O  O25  1  0.80084717  0.21317475  0.92692876  1
  O  O26  1  0.78624500  0.87391741  0.57307124  1
  O  O27  1  0.71375500  0.28682525  0.08767242  1
  O  O28  1  0.30084717  0.37391741  0.58767242  1
  O  O29  1  0.19915283  0.78682525  0.07307124  1
  O  O30  1  0.21375500  0.12608259  0.42692876  1
  O  O31  1  0.28624500  0.71317475  0.91232758  1
  O  O32  1  0.43767239  0.61784292  0.30039954  1
  O  O33  1  0.06232761  0.36272715  0.18017054  1
  O  O34  1  0.68255661  0.88215708  0.31982946  1
  O  O35  1  0.81744339  0.13727285  0.19960046  1
  O  O36  1  0.56232761  0.38215708  0.69960046  1
  O  O37  1  0.93767239  0.63727285  0.81982946  1
  O  O38  1  0.31744339  0.11784292  0.68017054  1
  O  O39  1  0.18255661  0.86272715  0.80039954  1
  O  O40  1  0.52106333  0.56918916  0.44695971  1
  O  O41  1  0.97893667  0.42589638  0.04812584  1
  O  O42  1  0.87777055  0.93081084  0.45187416  1
  O  O43  1  0.62222945  0.07410362  0.05304029  1
  O  O44  1  0.47893667  0.43081084  0.55304029  1
  O  O45  1  0.02106333  0.57410362  0.95187416  1
  O  O46  1  0.12222945  0.06918916  0.54812584  1
  O  O47  1  0.37777055  0.92589638  0.94695971  1
loop_
_geom_bond_atom_site_label_1
_geom_bond_atom_site_label_2
_geom_bond_distance
_geom_bond_site_symmetry_2
B0 O3 1.438800 1_555
B0 O0 1.438812 1_555
B0 O27 1.502412 1_555
B0 O24 1.502412 1_555
B1 O2 1.438800 1_555
B1 O1 1.438812 1_555
B1 O25 1.502402 1_555
B1 O26 1.502415 1_545
B2 O7 1.438800 1_555
B2 O4 1.438812 1_555
B2 O31 1.502412 1_555
B2 O28 1.502412 1_555
B3 O6 1.438800 1_555
B3 O5 1.438812 1_555
B3 O29 1.502402 1_555
B3 O30 1.502415 1_565
O0 S3 1.600043 1_555
O0 Rb4 3.062540 1_555
O1 S2 1.600048 1_555
O1 Rb5 3.062530 1_555
O2 S1 1.600049 1_656
O2 Rb6 3.062550 1_645
O3 S0 1.600054 1_555
O3 Rb7 3.062537 1_544
O4 S7 1.600043 1_555
O4 Rb0 3.062540 1_555
O5 S6 1.600048 1_555
O5 Rb1 3.062530 1_555
O6 S5 1.600049 1_454
O6 Rb2 3.062550 1_465
O7 S4 1.600054 1_555
O7 Rb3 3.062537 1_566
O8 S0 1.447249 1_555
O8 Rb0 2.905344 1_555
O8 Rb7 2.975445 1_544
O8 Rb1 3.059828 1_555
O9 S1 1.447246 1_556
O9 Rb1 2.905370 1_556
O9 Rb6 2.975443 1_545
O9 Rb0 3.059810 1_556
O10 S2 1.447243 1_555
O10 Rb2 2.905357 1_555
O10 Rb5 2.975443 1_555
O10 Rb3 3.059806 1_555
O11 S3 1.447226 1_555
O11 Rb3 2.905376 1_555
O11 Rb4 2.975443 1_555
O11 Rb2 3.059814 1_555
O12 S4 1.447249 1_555
O12 Rb4 2.905344 1_555
O12 Rb3 2.975445 1_566
O12 Rb5 3.059828 1_555
O13 S5 1.447246 1_554
O13 Rb5 2.905370 1_554
O13 Rb2 2.975443 1_565
O13 Rb4 3.059810 1_554
O14 S6 1.447243 1_555
O14 Rb6 2.905357 1_555
O14 Rb1 2.975443 1_555
O14 Rb7 3.059806 1_555
O15 S7 1.447226 1_555
O15 Rb7 2.905376 1_555
O15 Rb0 2.975443 1_555
O15 Rb6 3.059814 1_555
O16 S10 1.436836 1_555
O16 Rb11 2.918785 1_544
O16 Rb9 3.077530 1_455
O16 Rb0 3.418108 1_555
O17 S11 1.436836 1_556
O17 Rb10 2.918785 1_555
O17 Rb8 3.077530 1_556
O17 Rb1 3.418096 1_556
O18 S10 1.436836 1_555
O18 Rb11 2.918785 1_555
O18 Rb9 3.077530 1_455
O18 Rb2 3.418108 1_455
O19 S11 1.436836 1_555
O19 Rb10 2.918785 1_565
O19 Rb8 3.077530 1_555
O19 Rb3 3.418097 1_565
O20 S8 1.436836 1_555
O20 Rb9 2.918785 1_566
O20 Rb11 3.077530 1_655
O20 Rb4 3.418108 1_555
O21 S9 1.436836 1_554
O21 Rb8 2.918785 1_555
O21 Rb10 3.077530 1_554
O21 Rb5 3.418096 1_554
O22 S8 1.436836 1_555
O22 Rb9 2.918785 1_555
O22 Rb11 3.077530 1_655
O22 Rb6 3.418108 1_655
O23 S9 1.436836 1_555
O23 Rb8 2.918785 1_545
O23 Rb10 3.077530 1_555
O23 Rb7 3.418097 1_545
O24 S8 1.527618 1_555
O24 Rb8 2.998725 1_555
O25 S9 1.527622 1_555
O25 Rb9 2.998736 1_556
O26 S8 1.527608 1_555
O26 Rb8 2.998729 1_555
O27 S9 1.527618 1_554
O27 Rb9 2.998725 1_555
O28 S10 1.527618 1_555
O28 Rb10 2.998725 1_555
O29 S11 1.527622 1_555
O29 Rb11 2.998736 1_554
O30 S10 1.527608 1_555
O30 Rb10 2.998729 1_555
O31 S11 1.527618 1_556
O31 Rb11 2.998725 1_555
O32 S0 1.455561 1_555
O32 Rb8 2.790480 1_555
O32 Rb1 2.989818 1_555
O32 Rb7 3.166734 1_555
O33 S1 1.455561 1_555
O33 Rb9 2.790480 1_455
O33 Rb0 2.989817 1_555
O33 Rb6 3.166737 1_555
O34 S2 1.455570 1_565
O34 Rb8 2.790480 1_555
O34 Rb3 2.989805 1_565
O34 Rb5 3.166738 1_554
O35 S3 1.455574 1_555
O35 Rb9 2.790480 1_555
O35 Rb2 2.989817 1_555
O35 Rb4 3.166737 1_544
O36 S4 1.455561 1_555
O36 Rb10 2.790480 1_555
O36 Rb5 2.989818 1_555
O36 Rb3 3.166734 1_555
O37 S5 1.455561 1_555
O37 Rb11 2.790480 1_655
O37 Rb4 2.989817 1_555
O37 Rb2 3.166737 1_555
O38 S6 1.455570 1_545
O38 Rb10 2.790480 1_555
O38 Rb7 2.989805 1_545
O38 Rb1 3.166738 1_556
O39 S7 1.455574 1_555
O39 Rb11 2.790480 1_555
O39 Rb6 2.989817 1_555
O39 Rb0 3.166737 1_566
O40 S0 1.446314 1_555
O40 Rb4 2.875126 1_555
O40 Rb7 3.009172 1_555
O41 S1 1.446314 1_655
O41 Rb5 2.875118 1_554
O41 Rb6 3.009165 1_655
O42 S2 1.446303 1_565
O42 Rb6 2.875126 1_655
O42 Rb5 3.009165 1_554
O43 S3 1.446307 1_555
O43 Rb7 2.875132 1_544
O43 Rb4 3.009165 1_544
O44 S4 1.446314 1_555
O44 Rb0 2.875126 1_555
O44 Rb3 3.009172 1_555
O45 S5 1.446314 1_455
O45 Rb1 2.875118 1_556
O45 Rb2 3.009165 1_455
O46 S6 1.446303 1_545
O46 Rb2 2.875126 1_455
O46 Rb1 3.009165 1_556
O47 S7 1.446307 1_555
O47 Rb3 2.875132 1_566
O47 Rb0 3.009165 1_566
