# generated using pymatgen
data_BaSrLaWO6
_symmetry_space_group_name_H-M   'P 1'
_cell_length_a   8.63872858
_cell_length_b   8.65958458
_cell_length_c   8.65104321
_cell_angle_alpha   90.00000000
_cell_angle_beta   90.00000000
_cell_angle_gamma   90.00000000
_symmetry_Int_Tables_number   1
_chemical_formula_structural   BaSrLaWO6
_chemical_formula_sum   'Ba4 Sr4 La4 W4 O24'
_cell_volume   647.16551718
_cell_formula_units_Z   4
loop_
 _symmetry_equiv_pos_site_id
 _symmetry_equiv_pos_as_xyz
  1  'x, y, z'
loop_
 _atom_site_type_symbol
 _atom_site_label
 _atom_site_symmetry_multiplicity
 _atom_site_fract_x
 _atom_site_fract_y
 _atom_site_fract_z
 _atom_site_occupancy
  Ba  Ba0  1  0.00000000  -0.00000000  0.00000000  1
  Ba  Ba1  1  0.50000000  0.50000000  0.50000000  1
  Ba  Ba2  1  0.50000000  -0.00000000  0.00000000  1
  Ba  Ba3  1  0.00000000  -0.00000000  0.50000000  1
  Sr  Sr0  1  0.00000000  0.50000000  0.50000000  1
  Sr  Sr1  1  0.50000000  -0.00000000  0.50000000  1
  Sr  Sr2  1  0.50000000  0.50000000  0.00000000  1
  Sr  Sr3  1  0.00000000  0.50000000  0.00000000  1
  La  La0  1  0.74961986  0.74756603  0.74956398  1
  La  La1  1  0.25038014  0.25243397  0.74956398  1
  La  La2  1  0.25038014  0.74756603  0.25043602  1
  La  La3  1  0.74961986  0.25243397  0.25043602  1
  W  W0  1  0.24984123  0.25322791  0.25044689  1
  W  W1  1  0.75015877  0.74677209  0.25044689  1
  W  W2  1  0.75015877  0.25322791  0.74955311  1
  W  W3  1  0.24984123  0.74677209  0.74955311  1
  O  O0  1  0.02000213  0.22177650  0.28211115  1
  O  O1  1  0.97999787  0.77822350  0.28211115  1
  O  O2  1  0.97999787  0.22177650  0.71788885  1
  O  O3  1  0.02000213  0.77822350  0.71788885  1
  O  O4  1  0.27897656  0.02179450  0.21980312  1
  O  O5  1  0.27897656  0.97820550  0.78019688  1
  O  O6  1  0.72102344  0.97820550  0.21980312  1
  O  O7  1  0.72102344  0.02179450  0.78019688  1
  O  O8  1  0.21284387  0.29024374  0.02161323  1
  O  O9  1  0.78715613  0.29024374  0.97838677  1
  O  O10  1  0.21284387  0.70975626  0.97838677  1
  O  O11  1  0.78715613  0.70975626  0.02161323  1
  O  O12  1  0.47804055  0.29233050  0.20903412  1
  O  O13  1  0.52195945  0.70766950  0.20903412  1
  O  O14  1  0.52195945  0.29233050  0.79096588  1
  O  O15  1  0.47804055  0.70766950  0.79096588  1
  O  O16  1  0.21100737  0.48054073  0.29308187  1
  O  O17  1  0.21100737  0.51945927  0.70691813  1
  O  O18  1  0.78899263  0.51945927  0.29308187  1
  O  O19  1  0.78899263  0.48054073  0.70691813  1
  O  O20  1  0.29173707  0.21301540  0.47758006  1
  O  O21  1  0.70826293  0.21301540  0.52241994  1
  O  O22  1  0.29173707  0.78698460  0.52241994  1
  O  O23  1  0.70826293  0.78698460  0.47758006  1
loop_
_geom_bond_atom_site_label_1
_geom_bond_atom_site_label_2
_geom_bond_distance
_geom_bond_site_symmetry_2
Ba0 O4 3.075636 1_555
Ba0 O5 3.075636 1_544
Ba0 O7 3.075636 1_454
Ba0 O6 3.075636 1_445
Ba0 O0 3.110380 1_555
Ba0 O2 3.110380 1_454
Ba0 O3 3.110380 1_544
Ba0 O1 3.110380 1_445
Ba0 O9 3.119761 1_454
Ba0 O11 3.119761 1_445
Ba0 O10 3.119761 1_544
Ba0 O8 3.119761 1_555
Ba1 O23 3.074172 1_555
Ba1 O21 3.074172 1_555
Ba1 O22 3.074172 1_555
Ba1 O20 3.074172 1_555
Ba1 O16 3.076582 1_555
Ba1 O18 3.076582 1_555
Ba1 O17 3.076582 1_555
Ba1 O19 3.076582 1_555
Ba1 O14 3.099366 1_555
Ba1 O15 3.099366 1_555
Ba1 O12 3.099366 1_555
Ba1 O13 3.099366 1_555
Ba2 O6 2.701311 1_545
Ba2 O7 2.701311 1_554
Ba2 O5 2.701311 1_544
Ba2 O4 2.701311 1_555
Ba2 O12 3.116802 1_555
Ba2 O14 3.116802 1_554
Ba2 O15 3.116802 1_544
Ba2 O13 3.116802 1_545
Ba3 O0 2.696525 1_555
Ba3 O2 2.696525 1_455
Ba3 O3 2.696525 1_545
Ba3 O1 2.696525 1_445
Ba3 O22 3.129194 1_545
Ba3 O20 3.129194 1_555
Ba3 O23 3.129194 1_445
Ba3 O21 3.129194 1_455
La0 O19 2.366149 1_555
La0 O3 2.366715 1_655
La0 O11 2.398199 1_556
La0 O15 2.398298 1_555
La0 O7 2.402182 1_565
La0 O23 2.404269 1_555
La1 O17 2.366149 1_555
La1 O2 2.366715 1_455
La1 O8 2.398199 1_556
La1 O14 2.398298 1_555
La1 O5 2.402182 1_545
La1 O20 2.404269 1_555
La2 O16 2.366149 1_555
La2 O1 2.366715 1_455
La2 O10 2.398199 1_554
La2 O13 2.398298 1_555
La2 O4 2.402182 1_565
La2 O22 2.404269 1_555
La3 O18 2.366149 1_555
La3 O0 2.366715 1_655
La3 O9 2.398199 1_554
La3 O12 2.398298 1_555
La3 O6 2.402182 1_545
La3 O21 2.404269 1_555
O0 W0 2.022744 1_555
O0 Sr0 3.063932 1_555
O1 W1 2.022744 1_555
O1 Sr0 3.063932 1_655
O2 W2 2.022744 1_555
O2 Sr0 3.063932 1_655
O3 W3 2.022744 1_555
O3 Sr0 3.063932 1_555
O4 W0 2.037183 1_555
O4 Sr1 3.091445 1_555
O5 W3 2.037183 1_555
O5 Sr1 3.091445 1_565
O6 W1 2.037183 1_555
O6 Sr1 3.091445 1_565
O7 W2 2.037183 1_555
O7 Sr1 3.091445 1_555
O8 W0 2.030742 1_555
O8 Sr3 2.591350 1_555
O8 Sr2 3.080255 1_555
O9 W2 2.030742 1_555
O9 Sr3 2.591350 1_656
O9 Sr2 3.080255 1_556
O10 W3 2.030742 1_555
O10 Sr3 2.591350 1_556
O10 Sr2 3.080255 1_556
O11 W1 2.030742 1_555
O11 Sr3 2.591350 1_655
O11 Sr2 3.080255 1_555
O12 W0 2.032053 1_555
O12 Sr2 2.557374 1_555
O13 W1 2.032053 1_555
O13 Sr2 2.557374 1_555
O14 W2 2.032053 1_555
O14 Sr2 2.557374 1_556
O15 W3 2.032053 1_555
O15 Sr2 2.557374 1_556
O16 W0 2.030596 1_555
O16 Sr0 2.560358 1_555
O16 Sr3 3.127251 1_555
O17 W3 2.030596 1_555
O17 Sr0 2.560358 1_555
O17 Sr3 3.127251 1_556
O18 W1 2.030596 1_555
O18 Sr0 2.560358 1_655
O18 Sr3 3.127251 1_655
O19 W2 2.030596 1_555
O19 Sr0 2.560358 1_655
O19 Sr3 3.127251 1_656
O20 W0 2.028111 1_555
O20 Sr1 2.584012 1_555
O21 W2 2.028111 1_555
O21 Sr1 2.584012 1_555
O22 W3 2.028111 1_555
O22 Sr1 2.584012 1_565
O23 W1 2.028111 1_555
O23 Sr1 2.584012 1_565
