# generated using pymatgen
data_Ca2EuBeO5
_symmetry_space_group_name_H-M   'P 1'
_cell_length_a   6.52970200
_cell_length_b   7.18419900
_cell_length_c   9.42088200
_cell_angle_alpha   90.00000000
_cell_angle_beta   90.00000000
_cell_angle_gamma   90.00000000
_symmetry_Int_Tables_number   1
_chemical_formula_structural   Ca2EuBeO5
_chemical_formula_sum   'Ca8 Eu4 Be4 O20'
_cell_volume   441.93996743
_cell_formula_units_Z   4
loop_
 _symmetry_equiv_pos_site_id
 _symmetry_equiv_pos_as_xyz
  1  'x, y, z'
loop_
 _atom_site_type_symbol
 _atom_site_label
 _atom_site_symmetry_multiplicity
 _atom_site_fract_x
 _atom_site_fract_y
 _atom_site_fract_z
 _atom_site_occupancy
  Ca  Ca0  1  0.91900400  0.97612900  0.67389900  1
  Ca  Ca1  1  0.08099600  0.02387100  0.32610100  1
  Ca  Ca2  1  0.41900400  0.02387100  0.82610100  1
  Ca  Ca3  1  0.08099600  0.47612900  0.32610100  1
  Ca  Ca4  1  0.58099600  0.97612900  0.17389900  1
  Ca  Ca5  1  0.91900400  0.52387100  0.67389900  1
  Ca  Ca6  1  0.58099600  0.52387100  0.17389900  1
  Ca  Ca7  1  0.41900400  0.47612900  0.82610100  1
  Eu  Eu0  1  0.40711800  0.75000000  0.52278500  1
  Eu  Eu1  1  0.59288200  0.25000000  0.47721500  1
  Eu  Eu2  1  0.90711800  0.25000000  0.97721500  1
  Eu  Eu3  1  0.09288200  0.75000000  0.02278500  1
  Be  Be0  1  0.68905200  0.75000000  0.89488000  1
  Be  Be1  1  0.31094800  0.25000000  0.10512000  1
  Be  Be2  1  0.18905200  0.25000000  0.60512000  1
  Be  Be3  1  0.81094800  0.75000000  0.39488000  1
  O  O0  1  0.16731600  0.75000000  0.77721600  1
  O  O1  1  0.83268400  0.25000000  0.22278400  1
  O  O2  1  0.66731600  0.25000000  0.72278400  1
  O  O3  1  0.33268400  0.75000000  0.27721600  1
  O  O4  1  0.63495100  0.75000000  0.72187000  1
  O  O5  1  0.36504900  0.25000000  0.27813000  1
  O  O6  1  0.13495100  0.25000000  0.77813000  1
  O  O7  1  0.86504900  0.75000000  0.22187000  1
  O  O8  1  0.47551600  0.75000000  0.98861900  1
  O  O9  1  0.52448400  0.25000000  0.01138100  1
  O  O10  1  0.97551600  0.25000000  0.51138100  1
  O  O11  1  0.02448400  0.75000000  0.48861900  1
  O  O12  1  0.81386900  0.94119100  0.92921000  1
  O  O13  1  0.18613100  0.05880900  0.07079000  1
  O  O14  1  0.31386900  0.05880900  0.57079000  1
  O  O15  1  0.18613100  0.44119100  0.07079000  1
  O  O16  1  0.68613100  0.94119100  0.42921000  1
  O  O17  1  0.81386900  0.55880900  0.92921000  1
  O  O18  1  0.68613100  0.55880900  0.42921000  1
  O  O19  1  0.31386900  0.44119100  0.57079000  1
loop_
_geom_bond_atom_site_label_1
_geom_bond_atom_site_label_2
_geom_bond_distance
_geom_bond_site_symmetry_2
Ca0 O11 2.482002 1_655
Ca0 O0 2.493094 1_655
Ca0 O4 2.506718 1_555
Ca0 O12 2.513869 1_555
Ca0 O10 2.520228 1_565
Ca0 O2 2.604658 1_565
Ca0 O6 2.612230 1_665
Ca0 O16 2.772920 1_555
Ca0 O14 2.818562 1_665
Ca1 O10 2.482002 1_455
Ca1 O1 2.493094 1_455
Ca1 O5 2.506718 1_555
Ca1 O13 2.513869 1_555
Ca1 O11 2.520228 1_545
Ca1 O3 2.604658 1_545
Ca1 O7 2.612230 1_445
Ca1 O14 2.772920 1_555
Ca1 O16 2.818562 1_445
Ca2 O9 2.482002 1_556
Ca2 O2 2.493094 1_555
Ca2 O6 2.506718 1_555
Ca2 O14 2.513869 1_555
Ca2 O8 2.520228 1_545
Ca2 O0 2.604658 1_545
Ca2 O4 2.612230 1_545
Ca2 O13 2.772920 1_556
Ca2 O12 2.818562 1_545
Ca3 O10 2.482002 1_455
Ca3 O1 2.493094 1_455
Ca3 O5 2.506718 1_555
Ca3 O15 2.513869 1_555
Ca3 O11 2.520228 1_555
Ca3 O3 2.604658 1_555
Ca3 O7 2.612230 1_455
Ca3 O19 2.772920 1_555
Ca3 O18 2.818562 1_455
Ca4 O8 2.482002 1_554
Ca4 O3 2.493094 1_555
Ca4 O7 2.506718 1_555
Ca4 O16 2.513869 1_555
Ca4 O9 2.520228 1_565
Ca4 O1 2.604658 1_565
Ca4 O5 2.612230 1_565
Ca4 O12 2.772920 1_554
Ca4 O13 2.818562 1_565
Ca5 O11 2.482002 1_655
Ca5 O0 2.493094 1_655
Ca5 O4 2.506718 1_555
Ca5 O17 2.513869 1_555
Ca5 O10 2.520228 1_555
Ca5 O2 2.604658 1_555
Ca5 O6 2.612230 1_655
Ca5 O18 2.772920 1_555
Ca5 O19 2.818562 1_655
Ca6 O8 2.482002 1_554
Ca6 O3 2.493094 1_555
Ca6 O7 2.506718 1_555
Ca6 O18 2.513869 1_555
Ca6 O9 2.520228 1_555
Ca6 O1 2.604658 1_555
Ca6 O5 2.612230 1_555
Ca6 O17 2.772920 1_554
Ca6 O15 2.818562 1_555
Ca7 O9 2.482002 1_556
Ca7 O2 2.493094 1_555
Ca7 O6 2.506718 1_555
Ca7 O19 2.513869 1_555
Ca7 O8 2.520228 1_555
Ca7 O0 2.604658 1_555
Ca7 O4 2.612230 1_555
Ca7 O15 2.772920 1_556
Ca7 O17 2.818562 1_555
Eu0 O19 2.344615 1_555
Eu0 O14 2.344615 1_565
Eu0 O3 2.363980 1_555
Eu0 O4 2.393931 1_555
Eu0 O18 2.446020 1_555
Eu0 O16 2.446020 1_555
Eu0 O11 2.519134 1_555
Eu0 O0 2.863089 1_555
Eu1 O16 2.344615 1_545
Eu1 O18 2.344615 1_555
Eu1 O2 2.363980 1_555
Eu1 O5 2.393931 1_555
Eu1 O14 2.446020 1_555
Eu1 O19 2.446020 1_555
Eu1 O10 2.519134 1_555
Eu1 O1 2.863089 1_555
Eu2 O12 2.344615 1_545
Eu2 O17 2.344615 1_555
Eu2 O1 2.363980 1_556
Eu2 O6 2.393931 1_655
Eu2 O13 2.446020 1_656
Eu2 O15 2.446020 1_656
Eu2 O9 2.519134 1_556
Eu2 O2 2.863089 1_555
Eu3 O15 2.344615 1_555
Eu3 O13 2.344615 1_565
Eu3 O0 2.363980 1_554
Eu3 O7 2.393931 1_455
Eu3 O17 2.446020 1_454
Eu3 O12 2.446020 1_454
Eu3 O8 2.519134 1_554
Eu3 O3 2.863089 1_555
Be0 O12 1.629572 1_555
Be0 O17 1.629572 1_555
Be0 O8 1.650460 1_555
Be0 O4 1.667750 1_555
Be1 O15 1.629572 1_555
Be1 O13 1.629572 1_555
Be1 O9 1.650460 1_555
Be1 O5 1.667750 1_555
Be2 O19 1.629572 1_555
Be2 O14 1.629572 1_555
Be2 O10 1.650460 1_455
Be2 O6 1.667750 1_555
Be3 O18 1.629572 1_555
Be3 O16 1.629572 1_555
Be3 O11 1.650460 1_655
Be3 O7 1.667750 1_555
