# generated using pymatgen
data_Ba3Sr(ClF)4
_symmetry_space_group_name_H-M   'P 1'
_cell_length_a   4.38844600
_cell_length_b   4.38844600
_cell_length_c   14.57332800
_cell_angle_alpha   90.00000000
_cell_angle_beta   90.00000000
_cell_angle_gamma   90.00000000
_symmetry_Int_Tables_number   1
_chemical_formula_structural   Ba3Sr(ClF)4
_chemical_formula_sum   'Ba3 Sr1 Cl4 F4'
_cell_volume   280.65982951
_cell_formula_units_Z   1
loop_
 _symmetry_equiv_pos_site_id
 _symmetry_equiv_pos_as_xyz
  1  'x, y, z'
loop_
 _atom_site_type_symbol
 _atom_site_label
 _atom_site_symmetry_multiplicity
 _atom_site_fract_x
 _atom_site_fract_y
 _atom_site_fract_z
 _atom_site_occupancy
  Ba  Ba0  1  0.50000000  0.50000000  0.89644700  1
  Ba  Ba1  1  0.00000000  0.00000000  0.10792100  1
  Ba  Ba2  1  0.00000000  0.00000000  0.59804400  1
  Sr  Sr0  1  0.50000000  0.50000000  0.40077600  1
  Cl  Cl0  1  0.50000000  0.50000000  0.18618800  1
  Cl  Cl1  1  0.50000000  0.50000000  0.67235800  1
  Cl  Cl2  1  0.00000000  0.00000000  0.32864000  1
  Cl  Cl3  1  0.00000000  0.00000000  0.82023700  1
  F  F0  1  0.50000000  0.00000000  0.00177400  1
  F  F1  1  0.50000000  0.00000000  0.49292000  1
  F  F2  1  0.00000000  0.50000000  0.00177400  1
  F  F3  1  0.00000000  0.50000000  0.49292000  1
loop_
_geom_bond_atom_site_label_1
_geom_bond_atom_site_label_2
_geom_bond_distance
_geom_bond_site_symmetry_2
Ba0 F0 2.677822 1_556
Ba0 F0 2.677822 1_566
Ba0 F2 2.677822 1_656
Ba0 F2 2.677822 1_556
Ba0 Cl1 3.265722 1_555
Ba0 Cl3 3.295866 1_555
Ba0 Cl3 3.295866 1_665
Ba0 Cl3 3.295866 1_655
Ba0 Cl3 3.295866 1_565
Ba1 F2 2.684690 1_555
Ba1 F0 2.684690 1_455
Ba1 F2 2.684690 1_545
Ba1 F0 2.684690 1_555
Ba1 Cl2 3.216610 1_555
Ba1 Cl0 3.306089 1_455
Ba1 Cl0 3.306089 1_445
Ba1 Cl0 3.306089 1_555
Ba1 Cl0 3.306089 1_545
Ba2 F1 2.676128 1_555
Ba2 F3 2.676128 1_545
Ba2 F3 2.676128 1_555
Ba2 F1 2.676128 1_455
Ba2 Cl3 3.238091 1_555
Ba2 Cl1 3.286658 1_555
Ba2 Cl1 3.286658 1_545
Ba2 Cl1 3.286658 1_445
Ba2 Cl1 3.286658 1_455
Cl0 Sr0 3.127261 1_555
Cl2 Sr0 3.276336 1_545
Cl2 Sr0 3.276336 1_445
Cl2 Sr0 3.276336 1_455
Cl2 Sr0 3.276336 1_555
F1 Sr0 2.572518 1_545
F1 Sr0 2.572518 1_555
F3 Sr0 2.572518 1_455
F3 Sr0 2.572518 1_555
