# generated using pymatgen
data_EuDyTi4O12
_symmetry_space_group_name_H-M   'P 1'
_cell_length_a   5.43495577
_cell_length_b   5.43495577
_cell_length_c   7.70862640
_cell_angle_alpha   90.00000000
_cell_angle_beta   90.00000000
_cell_angle_gamma   89.65372392
_symmetry_Int_Tables_number   1
_chemical_formula_structural   EuDyTi4O12
_chemical_formula_sum   'Eu1 Dy1 Ti4 O12'
_cell_volume   227.69898515
_cell_formula_units_Z   1
loop_
 _symmetry_equiv_pos_site_id
 _symmetry_equiv_pos_as_xyz
  1  'x, y, z'
loop_
 _atom_site_type_symbol
 _atom_site_label
 _atom_site_symmetry_multiplicity
 _atom_site_fract_x
 _atom_site_fract_y
 _atom_site_fract_z
 _atom_site_occupancy
  Eu  Eu0  1  0.98135867  0.98135867  0.50000000  1
  Dy  Dy0  1  0.52667048  0.52667048  -0.00000000  1
  Ti  Ti0  1  0.49125039  0.01011585  0.75036915  1
  Ti  Ti1  1  0.49125039  0.01011585  0.24963085  1
  Ti  Ti2  1  0.01011585  0.49125039  0.24963085  1
  Ti  Ti3  1  0.01011585  0.49125039  0.75036915  1
  O  O0  1  0.78413772  0.21421162  0.74170656  1
  O  O1  1  0.21421162  0.78413772  0.74170656  1
  O  O2  1  0.21421162  0.78413772  0.25829344  1
  O  O3  1  0.78413772  0.21421162  0.25829344  1
  O  O4  1  0.72608727  0.72608727  0.72844820  1
  O  O5  1  0.29950834  0.29950834  0.80302737  1
  O  O6  1  0.29950834  0.29950834  0.19697263  1
  O  O7  1  0.72608727  0.72608727  0.27155180  1
  O  O8  1  0.51303064  0.93899323  -0.00000000  1
  O  O9  1  0.45896360  0.02866103  0.50000000  1
  O  O10  1  0.93899323  0.51303064  -0.00000000  1
  O  O11  1  0.02866103  0.45896360  0.50000000  1
loop_
_geom_bond_atom_site_label_1
_geom_bond_atom_site_label_2
_geom_bond_distance
_geom_bond_site_symmetry_2
Eu0 O3 2.491136 1_565
Eu0 O0 2.491136 1_565
Eu0 O1 2.491136 1_655
Eu0 O2 2.491136 1_655
Eu0 O11 2.610007 1_665
Eu0 O9 2.610007 1_665
Eu0 O4 2.640863 1_555
Eu0 O7 2.640863 1_555
Eu0 O9 2.849262 1_565
Eu0 O11 2.849262 1_655
Dy0 O10 2.241734 1_555
Dy0 O8 2.241734 1_555
Dy0 O5 2.317861 1_554
Dy0 O6 2.317861 1_555
Dy0 O4 2.597192 1_554
Dy0 O7 2.597192 1_555
O0 Ti0 1.946834 1_555
O0 Ti3 1.949962 1_655
O1 Ti3 1.946834 1_555
O1 Ti0 1.949962 1_565
O2 Ti2 1.946834 1_555
O2 Ti1 1.949962 1_565
O3 Ti1 1.946834 1_555
O3 Ti2 1.949962 1_655
O4 Ti3 2.004173 1_655
O4 Ti0 2.004173 1_565
O5 Ti0 1.924777 1_555
O5 Ti3 1.924777 1_555
O6 Ti1 1.924777 1_555
O6 Ti2 1.924777 1_555
O7 Ti1 2.004173 1_565
O7 Ti2 2.004173 1_655
O8 Ti0 1.966177 1_564
O8 Ti1 1.966177 1_565
O9 Ti1 1.940527 1_555
O9 Ti0 1.940527 1_555
O10 Ti3 1.966177 1_654
O10 Ti2 1.966177 1_655
O11 Ti3 1.940527 1_555
O11 Ti2 1.940527 1_555
