# generated using pymatgen
data_Sr4LiSm2Ta2O12
_symmetry_space_group_name_H-M   'P 1'
_cell_length_a   5.98246110
_cell_length_b   6.09789995
_cell_length_c   8.48126069
_cell_angle_alpha   91.47735019
_cell_angle_beta   90.07797747
_cell_angle_gamma   88.84856558
_symmetry_Int_Tables_number   1
_chemical_formula_structural   Sr4LiSm2Ta2O12
_chemical_formula_sum   'Sr4 Li1 Sm2 Ta2 O12'
_cell_volume   309.23478967
_cell_formula_units_Z   1
loop_
 _symmetry_equiv_pos_site_id
 _symmetry_equiv_pos_as_xyz
  1  'x, y, z'
loop_
 _atom_site_type_symbol
 _atom_site_label
 _atom_site_symmetry_multiplicity
 _atom_site_fract_x
 _atom_site_fract_y
 _atom_site_fract_z
 _atom_site_occupancy
  Sr  Sr0  1  0.96662800  0.44679000  0.24325800  1
  Sr  Sr1  1  0.98737600  0.53423200  0.74164400  1
  Sr  Sr2  1  0.52777300  0.07092700  0.21803600  1
  Sr  Sr3  1  0.50679900  0.04032200  0.74442000  1
  Li  Li0  1  0.32032900  0.69578800  0.26861200  1
  Sm  Sm0  1  0.00614700  0.98679800  0.49985300  1
  Sm  Sm1  1  0.49958400  0.51866400  0.98717600  1
  Ta  Ta0  1  0.00843800  0.00252900  0.99739500  1
  Ta  Ta1  1  0.49728200  0.48167400  0.50978000  1
  O  O0  1  0.93517300  0.04361800  0.23458600  1
  O  O1  1  0.08532900  0.94970600  0.76913800  1
  O  O2  1  0.55486400  0.49220400  0.26481700  1
  O  O3  1  0.40490700  0.47077500  0.73283200  1
  O  O4  1  0.19683300  0.73884100  0.07138700  1
  O  O5  1  0.80269500  0.27027900  0.96330400  1
  O  O6  1  0.32685600  0.19388100  0.46780000  1
  O  O7  1  0.68705400  0.74589700  0.54678000  1
  O  O8  1  0.26975900  0.20651100  0.01965700  1
  O  O9  1  0.73167200  0.81273600  0.96418600  1
  O  O10  1  0.20352600  0.65312900  0.46089400  1
  O  O11  1  0.77264300  0.29053200  0.54444500  1
loop_
_geom_bond_atom_site_label_1
_geom_bond_atom_site_label_2
_geom_bond_distance
_geom_bond_site_symmetry_2
Li0 O10 1.802142 1_555
Li0 O4 1.850467 1_555
Li0 O2 1.854436 1_555
O0 Ta0 2.067302 1_654
O0 Sm0 2.322415 1_645
O0 Sr2 2.443687 1_555
O0 Sr0 2.468661 1_555
O1 Ta0 2.006839 1_565
O1 Sm0 2.347558 1_555
O1 Sr3 2.601977 1_565
O1 Sr1 2.616357 1_455
O2 Ta1 2.109243 1_555
O2 Sm1 2.386537 1_554
O2 Sr0 2.479813 1_555
O2 Sr2 2.597491 1_555
O3 Ta1 1.974686 1_555
O3 Sm1 2.242824 1_555
O3 Sr1 2.520875 1_455
O3 Sr3 2.686996 1_555
O4 Ta0 2.055929 1_564
O4 Sm1 2.334417 1_554
O4 Sr0 2.725984 1_455
O5 Ta0 2.051084 1_655
O5 Sm1 2.344809 1_555
O5 Sr1 2.752953 1_555
O5 Sr0 2.768076 1_556
O5 Sr3 2.915945 1_555
O5 Sr2 3.012608 1_556
O6 Ta1 2.069970 1_555
O6 Sm0 2.337974 1_545
O6 Sr2 2.526453 1_555
O6 Sr3 2.757841 1_555
O7 Ta1 2.007448 1_555
O7 Sm0 2.470908 1_655
O7 Sr3 2.639687 1_565
O7 Sr1 2.762977 1_555
O8 Ta0 2.022899 1_554
O8 Sm1 2.392231 1_554
O8 Sr2 2.431116 1_555
O8 Sr3 2.883824 1_554
O8 Sr0 2.964991 1_455
O9 Ta0 2.054064 1_665
O9 Sm1 2.302240 1_555
O9 Sr3 2.694701 1_565
O9 Sr2 2.890885 1_566
O9 Sr1 2.919738 1_555
O10 Ta1 2.073627 1_555
O10 Sm0 2.348032 1_555
O10 Sr0 2.635066 1_455
O10 Sr1 2.828881 1_455
O11 Ta1 2.024322 1_555
O11 Sm0 2.320818 1_645
O11 Sr1 2.568776 1_555
O11 Sr3 2.823501 1_555
O11 Sr0 2.992975 1_555
