# generated using pymatgen
data_Pr2O3
_symmetry_space_group_name_H-M   'P 1'
_cell_length_a   9.73497360
_cell_length_b   9.73497158
_cell_length_c   9.73497328
_cell_angle_alpha   109.47122414
_cell_angle_beta   109.47121994
_cell_angle_gamma   109.47121344
_symmetry_Int_Tables_number   1
_chemical_formula_structural   Pr2O3
_chemical_formula_sum   'Pr16 O24'
_cell_volume   710.20277175
_cell_formula_units_Z   8
loop_
 _symmetry_equiv_pos_site_id
 _symmetry_equiv_pos_as_xyz
  1  'x, y, z'
loop_
 _atom_site_type_symbol
 _atom_site_label
 _atom_site_symmetry_multiplicity
 _atom_site_fract_x
 _atom_site_fract_y
 _atom_site_fract_z
 _atom_site_occupancy
  Pr  Pr0  1  0.25000000  0.72004153  0.47004153  1
  Pr  Pr1  1  0.02995847  0.75000000  0.77995847  1
  Pr  Pr2  1  0.77995847  0.02995847  0.75000000  1
  Pr  Pr3  1  0.47004153  0.25000000  0.72004153  1
  Pr  Pr4  1  0.72004153  0.47004153  0.25000000  1
  Pr  Pr5  1  0.75000000  0.77995847  0.02995847  1
  Pr  Pr6  1  0.75000000  0.27995847  0.52995847  1
  Pr  Pr7  1  0.97004153  0.25000000  0.22004153  1
  Pr  Pr8  1  0.22004153  0.97004153  0.25000000  1
  Pr  Pr9  1  0.52995847  0.75000000  0.27995847  1
  Pr  Pr10  1  0.27995847  0.52995847  0.75000000  1
  Pr  Pr11  1  0.25000000  0.22004153  0.97004153  1
  Pr  Pr12  1  0.00000000  0.50000000  -0.00000000  1
  Pr  Pr13  1  0.50000000  0.00000000  -0.00000000  1
  Pr  Pr14  1  0.00000000  0.00000000  0.50000000  1
  Pr  Pr15  1  0.50000000  0.50000000  0.50000000  1
  O  O0  1  0.02733245  0.48755728  0.75847731  1
  O  O1  1  0.22907898  0.26885615  0.74152269  1
  O  O2  1  0.27092102  0.01244272  0.03977517  1
  O  O3  1  0.23114385  0.46022483  0.47266755  1
  O  O4  1  0.46022483  0.47266755  0.23114385  1
  O  O5  1  0.75847731  0.02733245  0.48755728  1
  O  O6  1  0.26885615  0.74152269  0.22907898  1
  O  O7  1  0.03977517  0.27092102  0.01244272  1
  O  O8  1  0.48755728  0.75847731  0.02733245  1
  O  O9  1  0.74152269  0.22907898  0.26885615  1
  O  O10  1  0.01244272  0.03977517  0.27092102  1
  O  O11  1  0.47266755  0.23114385  0.46022483  1
  O  O12  1  0.97266755  0.51244272  0.24152269  1
  O  O13  1  0.77092102  0.73114385  0.25847731  1
  O  O14  1  0.72907898  0.98755728  0.96022483  1
  O  O15  1  0.76885615  0.53977517  0.52733245  1
  O  O16  1  0.52733245  0.76885615  0.53977517  1
  O  O17  1  0.98755728  0.96022483  0.72907898  1
  O  O18  1  0.25847731  0.77092102  0.73114385  1
  O  O19  1  0.51244272  0.24152269  0.97266755  1
  O  O20  1  0.96022483  0.72907898  0.98755728  1
  O  O21  1  0.73114385  0.25847731  0.77092102  1
  O  O22  1  0.24152269  0.97266755  0.51244272  1
  O  O23  1  0.53977517  0.52733245  0.76885615  1
loop_
_geom_bond_atom_site_label_1
_geom_bond_atom_site_label_2
_geom_bond_distance
_geom_bond_site_symmetry_2
O0 Pr6 2.384006 1_455
O0 Pr10 2.388858 1_555
O0 Pr12 2.421237 1_556
O0 Pr1 2.483641 1_555
O1 Pr11 2.384010 1_555
O1 Pr10 2.388846 1_555
O1 Pr14 2.421239 1_555
O1 Pr3 2.483654 1_555
O2 Pr11 2.384008 1_554
O2 Pr8 2.388862 1_545
O2 Pr13 2.421227 1_555
O2 Pr1 2.483644 1_544
O3 Pr10 2.384003 1_555
O3 Pr7 2.388854 1_455
O3 Pr15 2.421247 1_555
O3 Pr0 2.483638 1_555
O4 Pr9 2.384003 1_555
O4 Pr11 2.388854 1_554
O4 Pr15 2.421246 1_555
O4 Pr4 2.483638 1_555
O5 Pr9 2.384006 1_545
O5 Pr6 2.388858 1_555
O5 Pr14 2.421237 1_655
O5 Pr2 2.483641 1_555
O6 Pr8 2.384009 1_555
O6 Pr9 2.388847 1_555
O6 Pr12 2.421239 1_555
O6 Pr0 2.483654 1_555
O7 Pr7 2.384009 1_455
O7 Pr11 2.388862 1_554
O7 Pr12 2.421227 1_555
O7 Pr2 2.483644 1_454
O8 Pr10 2.384006 1_554
O8 Pr9 2.388858 1_555
O8 Pr13 2.421236 1_565
O8 Pr5 2.483641 1_555
O9 Pr7 2.384010 1_555
O9 Pr6 2.388847 1_555
O9 Pr13 2.421239 1_555
O9 Pr4 2.483654 1_555
O10 Pr8 2.384009 1_545
O10 Pr7 2.388862 1_455
O10 Pr14 2.421227 1_555
O10 Pr5 2.483644 1_445
O11 Pr6 2.384004 1_555
O11 Pr8 2.388854 1_545
O11 Pr15 2.421246 1_555
O11 Pr3 2.483638 1_555
O12 Pr0 2.384006 1_655
O12 Pr4 2.388858 1_555
O12 Pr12 2.421237 1_655
O12 Pr7 2.483641 1_555
O13 Pr5 2.384010 1_555
O13 Pr4 2.388846 1_555
O13 Pr14 2.421239 1_665
O13 Pr9 2.483654 1_555
O14 Pr5 2.384008 1_556
O14 Pr2 2.388862 1_565
O14 Pr13 2.421227 1_566
O14 Pr7 2.483644 1_566
O15 Pr4 2.384003 1_555
O15 Pr1 2.388854 1_655
O15 Pr15 2.421247 1_555
O15 Pr6 2.483638 1_555
O16 Pr0 2.384004 1_555
O16 Pr2 2.388854 1_565
O16 Pr15 2.421246 1_555
O16 Pr9 2.483638 1_555
O17 Pr2 2.384009 1_565
O17 Pr1 2.388862 1_655
O17 Pr14 2.421227 1_665
O17 Pr11 2.483644 1_665
O18 Pr1 2.384010 1_555
O18 Pr0 2.388847 1_555
O18 Pr13 2.421239 1_566
O18 Pr10 2.483654 1_555
O19 Pr4 2.384006 1_556
O19 Pr3 2.388858 1_555
O19 Pr13 2.421236 1_556
O19 Pr11 2.483641 1_555
O20 Pr1 2.384009 1_655
O20 Pr5 2.388862 1_556
O20 Pr12 2.421227 1_656
O20 Pr8 2.483644 1_656
O21 Pr2 2.384009 1_555
O21 Pr3 2.388847 1_555
O21 Pr12 2.421239 1_656
O21 Pr6 2.483654 1_555
O22 Pr3 2.384006 1_565
O22 Pr0 2.388858 1_555
O22 Pr14 2.421237 1_565
O22 Pr8 2.483641 1_555
O23 Pr3 2.384003 1_555
O23 Pr5 2.388854 1_556
O23 Pr15 2.421246 1_555
O23 Pr10 2.483638 1_555
