# generated using pymatgen
data_CeIrOs
_symmetry_space_group_name_H-M   'P 1'
_cell_length_a   5.44664038
_cell_length_b   5.44664038
_cell_length_c   5.44664038
_cell_angle_alpha   124.78077534
_cell_angle_beta   119.59565143
_cell_angle_gamma   86.31254075
_symmetry_Int_Tables_number   1
_chemical_formula_structural   CeIrOs
_chemical_formula_sum   'Ce2 Ir2 Os2'
_cell_volume   109.92017432
_cell_formula_units_Z   2
loop_
 _symmetry_equiv_pos_site_id
 _symmetry_equiv_pos_as_xyz
  1  'x, y, z'
loop_
 _atom_site_type_symbol
 _atom_site_label
 _atom_site_symmetry_multiplicity
 _atom_site_fract_x
 _atom_site_fract_y
 _atom_site_fract_z
 _atom_site_occupancy
  Ce  Ce0  1  0.12219214  0.87219214  0.25000000  1
  Ce  Ce1  1  0.87780786  0.12780786  0.75000000  1
  Ir  Ir0  1  0.00000000  0.50000000  0.50000000  1
  Ir  Ir1  1  0.50000000  0.50000000  -0.00000000  1
  Os  Os0  1  0.50000000  0.00000000  -0.00000000  1
  Os  Os1  1  0.50000000  0.50000000  0.50000000  1
loop_
_geom_bond_atom_site_label_1
_geom_bond_atom_site_label_2
_geom_bond_distance
_geom_bond_site_symmetry_2
Ce0 Ir0 3.046310 1_565
Ce0 Ir1 3.046310 1_555
Ce0 Ir0 3.046310 1_554
Ce0 Ir1 3.046310 1_566
Ce0 Os0 3.169082 1_566
Ce0 Os0 3.169082 1_465
Ce0 Os1 3.169082 1_454
Ce0 Os1 3.169082 1_555
Ce0 Ce1 3.184820 1_454
Ce0 Ce1 3.184820 1_465
Ce0 Os0 3.256767 1_565
Ce0 Os1 3.256767 1_565
Ce0 Ir1 3.259522 1_455
Ce0 Ir0 3.259522 1_555
Ce0 Ce1 3.410768 1_464
Ce0 Ce1 3.410768 1_565
Ce1 Ir0 3.046310 1_645
Ce1 Ir1 3.046310 1_556
Ce1 Ir0 3.046310 1_656
Ce1 Ir1 3.046310 1_545
Ce1 Os0 3.169082 1_656
Ce1 Os0 3.169082 1_555
Ce1 Os1 3.169082 1_656
Ce1 Os1 3.169082 1_555
Ce1 Os1 3.256767 1_545
Ce1 Os0 3.256767 1_556
Ce1 Ir0 3.259522 1_655
Ce1 Ir1 3.259522 1_656
Ir0 Os1 2.723320 1_555
Ir0 Os0 2.723320 1_455
Ir0 Os0 2.723320 1_566
Ir0 Os1 2.723320 1_455
Ir0 Ir1 2.739947 1_556
Ir0 Ir1 2.739947 1_455
Ir1 Os0 2.723320 1_555
Ir1 Os1 2.723320 1_555
Ir1 Os0 2.723320 1_565
Ir1 Os1 2.723320 1_554
Os0 Os1 2.524217 1_544
Os0 Os1 2.524217 1_555
