# generated using pymatgen
data_Dy2Mn3Sb3O14
_symmetry_space_group_name_H-M   'P 1'
_cell_length_a   7.27834419
_cell_length_b   7.27834419
_cell_length_c   7.25606678
_cell_angle_alpha   60.54377168
_cell_angle_beta   60.54377168
_cell_angle_gamma   60.57940077
_symmetry_Int_Tables_number   1
_chemical_formula_structural   Dy2Mn3Sb3O14
_chemical_formula_sum   'Dy2 Mn3 Sb3 O14'
_cell_volume   275.21310619
_cell_formula_units_Z   1
loop_
 _symmetry_equiv_pos_site_id
 _symmetry_equiv_pos_as_xyz
  1  'x, y, z'
loop_
 _atom_site_type_symbol
 _atom_site_label
 _atom_site_symmetry_multiplicity
 _atom_site_fract_x
 _atom_site_fract_y
 _atom_site_fract_z
 _atom_site_occupancy
  Dy  Dy0  1  0.50000000  0.50000000  0.00000000  1
  Dy  Dy1  1  0.50000000  0.50000000  0.50000000  1
  Mn  Mn0  1  0.50000000  0.00000000  0.00000000  1
  Mn  Mn1  1  0.00000000  0.50000000  0.00000000  1
  Mn  Mn2  1  0.00000000  0.00000000  0.50000000  1
  Sb  Sb0  1  0.00000000  0.00000000  0.00000000  1
  Sb  Sb1  1  0.00000000  0.50000000  0.50000000  1
  Sb  Sb2  1  0.50000000  0.00000000  0.50000000  1
  O  O0  1  0.92492700  0.92492700  0.82182900  1
  O  O1  1  0.33188700  0.33188700  0.40979800  1
  O  O2  1  0.90981100  0.34115700  0.42305800  1
  O  O3  1  0.32913500  0.91432100  0.83176400  1
  O  O4  1  0.91432100  0.32913500  0.83176400  1
  O  O5  1  0.34115700  0.90981100  0.42305800  1
  O  O6  1  0.07507300  0.07507300  0.17817100  1
  O  O7  1  0.66811300  0.66811300  0.59020200  1
  O  O8  1  0.09018900  0.65884300  0.57694200  1
  O  O9  1  0.67086500  0.08567900  0.16823600  1
  O  O10  1  0.08567900  0.67086500  0.16823600  1
  O  O11  1  0.65884300  0.09018900  0.57694200  1
  O  O12  1  0.62976300  0.62976300  0.11869300  1
  O  O13  1  0.37023700  0.37023700  0.88130700  1
loop_
_geom_bond_atom_site_label_1
_geom_bond_atom_site_label_2
_geom_bond_distance
_geom_bond_site_symmetry_2
Dy0 O12 2.236536 1_555
Dy0 O13 2.236536 1_554
Dy0 O7 2.479968 1_554
Dy0 O1 2.479968 1_555
Dy0 O3 2.513696 1_554
Dy0 O4 2.513696 1_554
Dy0 O9 2.513696 1_555
Dy0 O10 2.513696 1_555
Dy1 O13 2.274943 1_555
Dy1 O12 2.274943 1_555
Dy1 O5 2.480777 1_555
Dy1 O2 2.480777 1_555
Dy1 O11 2.480777 1_555
Dy1 O8 2.480777 1_555
Dy1 O7 2.543396 1_555
Dy1 O1 2.543396 1_555
Mn0 O12 2.216378 1_545
Mn0 O13 2.216378 1_554
Mn0 O9 2.535613 1_555
Mn0 O3 2.535613 1_544
Mn0 O5 2.542448 1_545
Mn0 O11 2.542448 1_554
Mn0 O0 2.576275 1_544
Mn0 O6 2.576275 1_555
Mn1 O12 2.216378 1_455
Mn1 O13 2.216378 1_554
Mn1 O10 2.535613 1_555
Mn1 O4 2.535613 1_454
Mn1 O2 2.542448 1_455
Mn1 O8 2.542448 1_554
Mn1 O0 2.576275 1_454
Mn1 O6 2.576275 1_555
Mn2 O0 1.958001 1_445
Mn2 O6 1.958001 1_555
Mn2 O5 2.074575 1_545
Mn2 O2 2.074575 1_455
Mn2 O8 2.074575 1_545
Mn2 O11 2.074575 1_455
O0 Sb0 1.987800 1_666
O1 Sb2 2.022259 1_555
O1 Sb1 2.022259 1_555
O2 Sb1 1.954487 1_655
O3 Sb0 2.005667 1_566
O3 Sb2 2.017819 1_565
O4 Sb0 2.005667 1_656
O4 Sb1 2.017819 1_655
O5 Sb2 1.954487 1_565
O6 Sb0 1.987800 1_555
O7 Sb2 2.022259 1_565
O7 Sb1 2.022259 1_655
O8 Sb1 1.954487 1_555
O9 Sb0 2.005667 1_655
O9 Sb2 2.017819 1_555
O10 Sb0 2.005667 1_565
O10 Sb1 2.017819 1_555
O11 Sb2 1.954487 1_555
