# generated using pymatgen
data_Ca(AlH4)2
_symmetry_space_group_name_H-M   'P 1'
_cell_length_a   9.09047500
_cell_length_b   9.48515000
_cell_length_c   13.56284000
_cell_angle_alpha   90.00000000
_cell_angle_beta   90.00000000
_cell_angle_gamma   90.00000000
_symmetry_Int_Tables_number   1
_chemical_formula_structural   Ca(AlH4)2
_chemical_formula_sum   'Ca8 Al16 H64'
_cell_volume   1169.44935454
_cell_formula_units_Z   8
loop_
 _symmetry_equiv_pos_site_id
 _symmetry_equiv_pos_as_xyz
  1  'x, y, z'
loop_
 _atom_site_type_symbol
 _atom_site_label
 _atom_site_symmetry_multiplicity
 _atom_site_fract_x
 _atom_site_fract_y
 _atom_site_fract_z
 _atom_site_occupancy
  Ca  Ca0  1  0.71742600  0.46800500  0.60661300  1
  Ca  Ca1  1  0.28257400  0.03199500  0.10661300  1
  Ca  Ca2  1  0.78257400  0.96800500  0.39338700  1
  Ca  Ca3  1  0.21742600  0.53199500  0.89338700  1
  Ca  Ca4  1  0.28257400  0.53199500  0.39338700  1
  Ca  Ca5  1  0.71742600  0.96800500  0.89338700  1
  Ca  Ca6  1  0.21742600  0.03199500  0.60661300  1
  Ca  Ca7  1  0.78257400  0.46800500  0.10661300  1
  Al  Al0  1  0.49501000  0.22245400  0.43970600  1
  Al  Al1  1  0.50499000  0.27754600  0.93970600  1
  Al  Al2  1  0.00499000  0.72245400  0.56029400  1
  Al  Al3  1  0.99501000  0.77754600  0.06029400  1
  Al  Al4  1  0.50499000  0.77754600  0.56029400  1
  Al  Al5  1  0.49501000  0.72245400  0.06029400  1
  Al  Al6  1  0.99501000  0.27754600  0.43970600  1
  Al  Al7  1  0.00499000  0.22245400  0.93970600  1
  Al  Al8  1  0.82004600  0.10840300  0.65586700  1
  Al  Al9  1  0.17995400  0.39159700  0.15586700  1
  Al  Al10  1  0.67995400  0.60840300  0.34413300  1
  Al  Al11  1  0.32004600  0.89159700  0.84413300  1
  Al  Al12  1  0.17995400  0.89159700  0.34413300  1
  Al  Al13  1  0.82004600  0.60840300  0.84413300  1
  Al  Al14  1  0.32004600  0.39159700  0.65586700  1
  Al  Al15  1  0.67995400  0.10840300  0.15586700  1
  H  H0  1  0.60494200  0.33640100  0.49097500  1
  H  H1  1  0.39505800  0.16359900  0.99097500  1
  H  H2  1  0.89505800  0.83640100  0.50902500  1
  H  H3  1  0.10494200  0.66359900  0.00902500  1
  H  H4  1  0.39505800  0.66359900  0.50902500  1
  H  H5  1  0.60494200  0.83640100  0.00902500  1
  H  H6  1  0.10494200  0.16359900  0.49097500  1
  H  H7  1  0.89505800  0.33640100  0.99097500  1
  H  H8  1  0.91015100  0.61487600  0.62844400  1
  H  H9  1  0.08984900  0.88512400  0.12844400  1
  H  H10  1  0.58984900  0.11487600  0.37155600  1
  H  H11  1  0.41015100  0.38512400  0.87155600  1
  H  H12  1  0.08984900  0.38512400  0.37155600  1
  H  H13  1  0.91015100  0.11487600  0.87155600  1
  H  H14  1  0.41015100  0.88512400  0.62844400  1
  H  H15  1  0.58984900  0.61487600  0.12844400  1
  H  H16  1  0.61796000  0.68777300  0.62915400  1
  H  H17  1  0.38204000  0.81222700  0.12915400  1
  H  H18  1  0.88204000  0.18777300  0.37084600  1
  H  H19  1  0.11796000  0.31222700  0.87084600  1
  H  H20  1  0.38204000  0.31222700  0.37084600  1
  H  H21  1  0.61796000  0.18777300  0.87084600  1
  H  H22  1  0.11796000  0.81222700  0.62915400  1
  H  H23  1  0.88204000  0.68777300  0.12915400  1
  H  H24  1  0.90779200  0.36758100  0.52333900  1
  H  H25  1  0.09220800  0.13241900  0.02333900  1
  H  H26  1  0.59220800  0.86758100  0.47666100  1
  H  H27  1  0.40779200  0.63241900  0.97666100  1
  H  H28  1  0.09220800  0.63241900  0.47666100  1
  H  H29  1  0.90779200  0.86758100  0.97666100  1
  H  H30  1  0.40779200  0.13241900  0.52333900  1
  H  H31  1  0.59220800  0.36758100  0.02333900  1
  H  H32  1  0.99543300  0.08335000  0.66807200  1
  H  H33  1  0.00456700  0.41665000  0.16807200  1
  H  H34  1  0.50456700  0.58335000  0.33192800  1
  H  H35  1  0.49543300  0.91665000  0.83192800  1
  H  H36  1  0.00456700  0.91665000  0.33192800  1
  H  H37  1  0.99543300  0.58335000  0.83192800  1
  H  H38  1  0.49543300  0.41665000  0.66807200  1
  H  H39  1  0.50456700  0.08335000  0.16807200  1
  H  H40  1  0.77305300  0.08692100  0.54009500  1
  H  H41  1  0.22694700  0.41307900  0.04009500  1
  H  H42  1  0.72694700  0.58692100  0.45990500  1
  H  H43  1  0.27305300  0.91307900  0.95990500  1
  H  H44  1  0.22694700  0.91307900  0.45990500  1
  H  H45  1  0.77305300  0.58692100  0.95990500  1
  H  H46  1  0.27305300  0.41307900  0.54009500  1
  H  H47  1  0.72694700  0.08692100  0.04009500  1
  H  H48  1  0.77451500  0.26740100  0.68701900  1
  H  H49  1  0.22548500  0.23259900  0.18701900  1
  H  H50  1  0.72548500  0.76740100  0.31298100  1
  H  H51  1  0.27451500  0.73259900  0.81298100  1
  H  H52  1  0.22548500  0.73259900  0.31298100  1
  H  H53  1  0.77451500  0.76740100  0.81298100  1
  H  H54  1  0.27451500  0.23259900  0.68701900  1
  H  H55  1  0.72548500  0.26740100  0.18701900  1
  H  H56  1  0.73269500  0.99583100  0.72481700  1
  H  H57  1  0.26730500  0.50416900  0.22481700  1
  H  H58  1  0.76730500  0.49583100  0.27518300  1
  H  H59  1  0.23269500  0.00416900  0.77518300  1
  H  H60  1  0.26730500  0.00416900  0.27518300  1
  H  H61  1  0.73269500  0.49583100  0.77518300  1
  H  H62  1  0.23269500  0.50416900  0.72481700  1
  H  H63  1  0.76730500  0.99583100  0.22481700  1
loop_
_geom_bond_atom_site_label_1
_geom_bond_atom_site_label_2
_geom_bond_distance
_geom_bond_site_symmetry_2
Ca0 H38 2.237076 1_555
Ca0 H0 2.250245 1_555
Ca0 H48 2.253682 1_555
Ca0 H8 2.257820 1_555
Ca0 H24 2.275441 1_555
Ca0 H42 2.288874 1_555
Ca0 H16 2.292663 1_555
Ca0 H61 2.305654 1_555
Ca1 H39 2.237076 1_555
Ca1 H1 2.250245 1_554
Ca1 H49 2.253682 1_555
Ca1 H9 2.257820 1_545
Ca1 H25 2.275441 1_555
Ca1 H43 2.288874 1_544
Ca1 H17 2.292663 1_545
Ca1 H60 2.305654 1_555
Ca2 H36 2.237076 1_655
Ca2 H2 2.250245 1_555
Ca2 H50 2.253682 1_555
Ca2 H10 2.257820 1_565
Ca2 H26 2.275441 1_555
Ca2 H40 2.288874 1_565
Ca2 H18 2.292663 1_565
Ca2 H63 2.305654 1_555
Ca3 H37 2.237076 1_455
Ca3 H3 2.250245 1_556
Ca3 H51 2.253682 1_555
Ca3 H11 2.257820 1_555
Ca3 H27 2.275441 1_555
Ca3 H41 2.288874 1_556
Ca3 H19 2.292663 1_555
Ca3 H62 2.305654 1_555
Ca4 H34 2.237076 1_555
Ca4 H4 2.250245 1_555
Ca4 H52 2.253682 1_555
Ca4 H12 2.257820 1_555
Ca4 H28 2.275441 1_555
Ca4 H46 2.288874 1_555
Ca4 H20 2.292663 1_555
Ca4 H57 2.305654 1_555
Ca5 H35 2.237076 1_555
Ca5 H5 2.250245 1_556
Ca5 H53 2.253682 1_555
Ca5 H13 2.257820 1_565
Ca5 H29 2.275441 1_555
Ca5 H47 2.288874 1_566
Ca5 H21 2.292663 1_565
Ca5 H56 2.305654 1_555
Ca6 H32 2.237076 1_455
Ca6 H6 2.250245 1_555
Ca6 H54 2.253682 1_555
Ca6 H14 2.257820 1_545
Ca6 H30 2.275441 1_555
Ca6 H44 2.288874 1_545
Ca6 H22 2.292663 1_545
Ca6 H59 2.305654 1_555
Ca7 H33 2.237076 1_655
Ca7 H7 2.250245 1_554
Ca7 H55 2.253682 1_555
Ca7 H15 2.257820 1_555
Ca7 H31 2.275441 1_555
Ca7 H45 2.288874 1_554
Ca7 H23 2.292663 1_555
Ca7 H58 2.305654 1_555
Al0 H10 1.624444 1_555
Al0 H30 1.626211 1_555
Al0 H0 1.627981 1_555
Al0 H20 1.628477 1_555
Al1 H11 1.624444 1_555
Al1 H31 1.626211 1_556
Al1 H1 1.627981 1_555
Al1 H21 1.628477 1_555
Al2 H8 1.624444 1_455
Al2 H28 1.626211 1_555
Al2 H2 1.627981 1_455
Al2 H22 1.628477 1_555
Al3 H9 1.624444 1_655
Al3 H29 1.626211 1_554
Al3 H3 1.627981 1_655
Al3 H23 1.628477 1_555
Al4 H14 1.624444 1_555
Al4 H26 1.626211 1_555
Al4 H4 1.627981 1_555
Al4 H16 1.628477 1_555
Al5 H15 1.624444 1_555
Al5 H27 1.626211 1_554
Al5 H5 1.627981 1_555
Al5 H17 1.628477 1_555
Al6 H12 1.624444 1_655
Al6 H24 1.626211 1_555
Al6 H6 1.627981 1_655
Al6 H18 1.628477 1_555
Al7 H13 1.624444 1_455
Al7 H25 1.626211 1_556
Al7 H7 1.627981 1_455
Al7 H19 1.628477 1_555
Al8 H48 1.619954 1_555
Al8 H32 1.620440 1_555
Al8 H56 1.626398 1_545
Al8 H40 1.639978 1_555
Al9 H49 1.619954 1_555
Al9 H33 1.620440 1_555
Al9 H57 1.626398 1_555
Al9 H41 1.639978 1_555
Al10 H50 1.619954 1_555
Al10 H34 1.620440 1_555
Al10 H58 1.626398 1_555
Al10 H42 1.639978 1_555
Al11 H51 1.619954 1_555
Al11 H35 1.620440 1_555
Al11 H59 1.626398 1_565
Al11 H43 1.639978 1_555
Al12 H52 1.619954 1_555
Al12 H36 1.620440 1_555
Al12 H60 1.626398 1_565
Al12 H44 1.639978 1_555
Al13 H53 1.619954 1_555
Al13 H37 1.620440 1_555
Al13 H61 1.626398 1_555
Al13 H45 1.639978 1_555
Al14 H54 1.619954 1_555
Al14 H38 1.620440 1_555
Al14 H62 1.626398 1_555
Al14 H46 1.639978 1_555
Al15 H55 1.619954 1_555
Al15 H39 1.620440 1_555
Al15 H63 1.626398 1_545
Al15 H47 1.639978 1_555
