# generated using pymatgen
data_K6InP3
_symmetry_space_group_name_H-M   'P 1'
_cell_length_a   8.92324606
_cell_length_b   8.93681191
_cell_length_c   9.91291819
_cell_angle_alpha   81.73589017
_cell_angle_beta   107.29356935
_cell_angle_gamma   119.67320160
_symmetry_Int_Tables_number   1
_chemical_formula_structural   K6InP3
_chemical_formula_sum   'K12 In2 P6'
_cell_volume   655.78947623
_cell_formula_units_Z   2
loop_
 _symmetry_equiv_pos_site_id
 _symmetry_equiv_pos_as_xyz
  1  'x, y, z'
loop_
 _atom_site_type_symbol
 _atom_site_label
 _atom_site_symmetry_multiplicity
 _atom_site_fract_x
 _atom_site_fract_y
 _atom_site_fract_z
 _atom_site_occupancy
  K  K0  1  0.73404853  0.12773402  0.61703208  1
  K  K1  1  0.25505856  0.85325447  0.39325945  1
  K  K2  1  0.96913625  0.81676122  0.62546637  1
  K  K3  1  0.02299082  0.19994619  0.39349401  1
  K  K4  1  0.62641574  0.44873084  0.39830915  1
  K  K5  1  0.40032730  0.56405812  0.59326521  1
  K  K6  1  0.86636683  0.48560072  0.13365807  1
  K  K7  1  0.11669224  0.50584722  0.85056353  1
  K  K8  1  0.75793926  0.09530764  0.98705401  1
  K  K9  1  0.23074194  0.87229375  0.00399598  1
  K  K10  1  0.56671372  0.62172533  0.94380175  1
  K  K11  1  0.24500293  0.20363230  0.11362004  1
  In  In0  1  0.58544391  0.82826541  0.25498799  1
  In  In1  1  0.42036066  0.17607058  0.75167098  1
  P  P0  1  0.28907611  0.55300877  0.23056442  1
  P  P1  1  0.71639933  0.44373792  0.76271054  1
  P  P2  1  0.59588106  0.11648651  0.25949871  1
  P  P3  1  0.38947014  0.87626569  0.74221865  1
  P  P4  1  0.86522626  0.82608185  0.24364694  1
  P  P5  1  0.15608740  0.20193046  0.76256511  1
loop_
_geom_bond_atom_site_label_1
_geom_bond_atom_site_label_2
_geom_bond_distance
_geom_bond_site_symmetry_2
K0 P3 3.266470 1_545
K0 P5 3.357952 1_655
K0 P2 3.387226 1_555
K0 P1 3.439990 1_555
K1 P4 3.249449 1_455
K1 P3 3.307646 1_555
K1 P2 3.310375 1_565
K1 P0 3.497785 1_555
K2 P5 3.284816 1_665
K2 P1 3.335684 1_555
K2 P3 3.363270 1_655
K2 P4 3.618261 1_555
K3 P4 3.298190 1_445
K3 P2 3.362511 1_455
K3 P0 3.405751 1_555
K3 P5 3.494346 1_555
K4 P2 3.306727 1_555
K4 P4 3.406611 1_555
K4 P1 3.458323 1_555
K4 P0 3.471407 1_555
K5 P3 3.392864 1_555
K5 P1 3.405749 1_555
K5 P5 3.416090 1_555
K5 P0 3.435880 1_555
K6 P2 3.314696 1_555
K6 P0 3.357909 1_655
K6 P4 3.382099 1_555
K6 P1 3.525130 1_554
K7 P5 3.173354 1_555
K7 P1 3.186159 1_455
K7 P3 3.254372 1_555
K7 P0 3.619805 1_556
K8 P3 3.283572 1_545
K8 P2 3.487230 1_556
K8 P4 3.499831 1_546
K8 P1 3.666224 1_555
K9 P3 3.293964 1_554
K9 P2 3.381715 1_565
K9 P0 3.519988 1_555
K10 P4 3.361877 1_556
K10 P1 3.447706 1_555
K10 P3 3.470673 1_555
K11 P0 3.286499 1_555
K11 P5 3.331922 1_554
K11 P2 3.449546 1_555
K11 P4 3.815199 1_445
In0 P2 2.537404 1_565
In0 P0 2.540282 1_555
In0 P4 2.541968 1_555
In0 K8 3.477121 1_564
In1 P5 2.514804 1_555
In1 P1 2.521739 1_555
In1 P3 2.566904 1_545
In1 K8 3.539636 1_555
