# generated using pymatgen
data_Dy(GaCo)6
_symmetry_space_group_name_H-M   'P 1'
_cell_length_a   6.50775710
_cell_length_b   6.50316927
_cell_length_c   6.50472996
_cell_angle_alpha   135.29266637
_cell_angle_beta   98.82827500
_cell_angle_gamma   97.82025828
_symmetry_Int_Tables_number   1
_chemical_formula_structural   Dy(GaCo)6
_chemical_formula_sum   'Dy1 Ga6 Co6'
_cell_volume   179.07227890
_cell_formula_units_Z   1
loop_
 _symmetry_equiv_pos_site_id
 _symmetry_equiv_pos_as_xyz
  1  'x, y, z'
loop_
 _atom_site_type_symbol
 _atom_site_label
 _atom_site_symmetry_multiplicity
 _atom_site_fract_x
 _atom_site_fract_y
 _atom_site_fract_z
 _atom_site_occupancy
  Dy  Dy0  1  -0.00000000  -0.00000000  -0.00000000  1
  Ga  Ga0  1  0.34736243  0.34749886  0.00025117  1
  Ga  Ga1  1  0.65263757  0.65250114  0.99974883  1
  Ga  Ga2  1  0.34419861  0.00013352  0.34425118  1
  Ga  Ga3  1  0.65580139  0.99986648  0.65574882  1
  Ga  Ga4  1  0.19484801  0.69494684  0.50023969  1
  Ga  Ga5  1  0.80515199  0.30505316  0.49976031  1
  Co  Co0  1  0.76122036  0.49994761  0.26118827  1
  Co  Co1  1  0.23877964  0.50005239  0.73881173  1
  Co  Co2  1  0.50000000  0.50000000  0.50000000  1
  Co  Co3  1  -0.00000000  -0.00000000  0.50000000  1
  Co  Co4  1  -0.00000000  0.50000000  -0.00000000  1
  Co  Co5  1  0.50000000  -0.00000000  -0.00000000  1
loop_
_geom_bond_atom_site_label_1
_geom_bond_atom_site_label_2
_geom_bond_distance
_geom_bond_site_symmetry_2
Dy0 Ga3 2.913558 1_444
Dy0 Ga2 2.913558 1_555
Dy0 Ga0 2.969919 1_555
Dy0 Ga1 2.969919 1_444
Dy0 Ga5 2.981885 1_444
Dy0 Ga4 2.981885 1_555
Dy0 Ga5 2.982321 1_455
Dy0 Ga4 2.982321 1_544
Ga0 Ga1 2.611491 1_554
Ga0 Ga4 2.795758 1_544
Ga0 Ga4 2.797067 1_555
Ga0 Ga3 3.090489 1_555
Ga0 Ga2 3.091827 1_565
Ga0 Ga2 3.093619 1_554
Ga0 Ga3 3.094522 1_544
Ga1 Ga5 2.795758 1_566
Ga1 Ga5 2.797067 1_555
Ga1 Ga2 3.090489 1_555
Ga1 Ga3 3.091827 1_545
Ga1 Ga3 3.093619 1_556
Ga1 Ga2 3.094522 1_566
Ga2 Ga3 2.638638 1_545
Ga2 Ga5 2.924491 1_555
Ga2 Ga4 2.924613 1_545
Ga3 Ga4 2.924491 1_555
Ga3 Ga5 2.924613 1_565
Co0 Co5 2.470788 1_555
Co0 Co3 2.471093 1_665
Co0 Co4 2.472279 1_655
Co0 Co2 2.472427 1_555
Co0 Ga1 2.568190 1_554
Co0 Ga0 2.568253 1_555
Co0 Ga5 2.618111 1_555
Co0 Ga4 2.620269 1_655
Co0 Ga3 2.629499 1_555
Co0 Ga3 2.629666 1_544
Co0 Dy0 3.194341 1_666
Co0 Dy0 3.194588 1_655
Co1 Co5 2.470788 1_566
Co1 Co3 2.471093 1_555
Co1 Co4 2.472279 1_556
Co1 Co2 2.472427 1_555
Co1 Ga0 2.568190 1_556
Co1 Ga1 2.568253 1_555
Co1 Ga4 2.618111 1_555
Co1 Ga5 2.620269 1_455
Co1 Ga2 2.629499 1_555
Co1 Ga2 2.629666 1_566
Co1 Dy0 3.194341 1_555
Co1 Dy0 3.194588 1_566
Co2 Co5 2.473599 1_555
Co2 Co5 2.473599 1_566
Co2 Ga5 2.496824 1_555
Co2 Ga4 2.496824 1_555
Co2 Ga0 2.587622 1_555
Co2 Ga1 2.587622 1_555
Co2 Ga2 2.593869 1_555
Co2 Ga3 2.593869 1_555
Co2 Dy0 3.252512 1_666
Co2 Dy0 3.252512 1_555
Co3 Co4 2.473599 1_545
Co3 Co4 2.473599 1_556
Co3 Ga5 2.496345 1_455
Co3 Ga4 2.496345 1_545
Co3 Ga1 2.589404 1_444
Co3 Ga0 2.589404 1_556
Co3 Ga2 2.596360 1_555
Co3 Ga3 2.596360 1_445
Co3 Dy0 3.252365 1_555
Co3 Dy0 3.252365 1_556
Co4 Ga5 2.497102 1_454
Co4 Ga4 2.497102 1_555
Co4 Ga0 2.589381 1_555
Co4 Ga1 2.589381 1_454
Co4 Ga3 2.595315 1_444
Co4 Ga2 2.595315 1_565
Co4 Dy0 3.251585 1_565
Co4 Dy0 3.251585 1_555
Co5 Ga5 2.495304 1_555
Co5 Ga4 2.495304 1_544
Co5 Ga0 2.588382 1_555
Co5 Ga1 2.588382 1_544
Co5 Ga2 2.595515 1_555
Co5 Ga3 2.595515 1_544
Co5 Dy0 3.253879 1_655
Co5 Dy0 3.253879 1_555
