# generated using pymatgen
data_CrP2O7
_symmetry_space_group_name_H-M   'P 1'
_cell_length_a   8.55854400
_cell_length_b   6.90572300
_cell_length_c   9.38675674
_cell_angle_alpha   72.00501467
_cell_angle_beta   90.00000000
_cell_angle_gamma   90.00000000
_symmetry_Int_Tables_number   1
_chemical_formula_structural   CrP2O7
_chemical_formula_sum   'Cr4 P8 O28'
_cell_volume   527.64676386
_cell_formula_units_Z   4
loop_
 _symmetry_equiv_pos_site_id
 _symmetry_equiv_pos_as_xyz
  1  'x, y, z'
loop_
 _atom_site_type_symbol
 _atom_site_label
 _atom_site_symmetry_multiplicity
 _atom_site_fract_x
 _atom_site_fract_y
 _atom_site_fract_z
 _atom_site_occupancy
  Cr  Cr0  1  0.07855600  0.70412600  0.19116300  1
  Cr  Cr1  1  0.42144400  0.70412600  0.69116300  1
  Cr  Cr2  1  0.57855600  0.29587400  0.30883700  1
  Cr  Cr3  1  0.92144400  0.29587400  0.80883700  1
  P  P0  1  0.71442100  0.52031700  0.53916100  1
  P  P1  1  0.24864400  0.09433500  0.24333900  1
  P  P2  1  0.74864400  0.90566500  0.25666100  1
  P  P3  1  0.25135600  0.09433500  0.74333900  1
  P  P4  1  0.78557900  0.52031700  0.03916100  1
  P  P5  1  0.75135600  0.90566500  0.75666100  1
  P  P6  1  0.21442100  0.47968300  0.96083900  1
  P  P7  1  0.28557900  0.47968300  0.46083900  1
  O  O0  1  0.12444300  0.52016400  0.37978300  1
  O  O1  1  0.22274400  0.26391300  0.08079100  1
  O  O2  1  0.26184700  0.89202300  0.70854700  1
  O  O3  1  0.07565200  0.11753500  0.78294600  1
  O  O4  1  0.87555700  0.47983600  0.62021700  1
  O  O5  1  0.77725600  0.73608700  0.91920900  1
  O  O6  1  0.19738500  0.64390600  0.04113200  1
  O  O7  1  0.91667100  0.52079700  0.14762500  1
  O  O8  1  0.57565200  0.88246500  0.71705400  1
  O  O9  1  0.69738500  0.35609400  0.45886800  1
  O  O10  1  0.37555700  0.52016400  0.87978300  1
  O  O11  1  0.86384700  0.87470600  0.64467200  1
  O  O12  1  0.62444300  0.47983600  0.12021700  1
  O  O13  1  0.73815300  0.10797700  0.29145300  1
  O  O14  1  0.41667100  0.47920300  0.35237500  1
  O  O15  1  0.80261500  0.35609400  0.95886800  1
  O  O16  1  0.92434800  0.88246500  0.21705400  1
  O  O17  1  0.23815300  0.89202300  0.20854700  1
  O  O18  1  0.13615300  0.12529400  0.35532800  1
  O  O19  1  0.58332900  0.52079700  0.64762500  1
  O  O20  1  0.27725600  0.26391300  0.58079100  1
  O  O21  1  0.30261500  0.64390600  0.54113200  1
  O  O22  1  0.08332900  0.47920300  0.85237500  1
  O  O23  1  0.42434800  0.11753500  0.28294600  1
  O  O24  1  0.72274400  0.73608700  0.41920900  1
  O  O25  1  0.63615300  0.87470600  0.14467200  1
  O  O26  1  0.76184700  0.10797700  0.79145300  1
  O  O27  1  0.36384700  0.12529400  0.85532800  1
loop_
_geom_bond_atom_site_label_1
_geom_bond_atom_site_label_2
_geom_bond_distance
_geom_bond_site_symmetry_2
Cr0 O16 1.871523 1_455
Cr0 O0 1.874341 1_555
Cr0 O6 1.884786 1_555
Cr0 O17 1.925320 1_555
Cr0 O7 2.002278 1_455
Cr1 O8 1.871523 1_555
Cr1 O10 1.874341 1_555
Cr1 O21 1.884786 1_555
Cr1 O2 1.925320 1_555
Cr1 O19 2.002278 1_555
Cr2 O23 1.871523 1_555
Cr2 O12 1.874341 1_555
Cr2 O9 1.884786 1_555
Cr2 O13 1.925320 1_555
Cr2 O14 2.002278 1_555
Cr3 O3 1.871523 1_655
Cr3 O4 1.874341 1_555
Cr3 O15 1.884786 1_555
Cr3 O26 1.925320 1_555
Cr3 O22 2.002278 1_655
O0 P7 1.558049 1_555
O1 P6 1.567318 1_554
O1 P1 1.626213 1_555
O2 P3 1.532499 1_565
O3 P3 1.569082 1_555
O4 P0 1.558049 1_555
O5 P4 1.567318 1_556
O5 P5 1.626213 1_555
O6 P6 1.550342 1_554
O7 P4 1.515738 1_555
O8 P5 1.569082 1_555
O9 P0 1.550342 1_555
O10 P6 1.558049 1_555
O11 P5 1.488800 1_555
O12 P4 1.558049 1_555
O13 P2 1.532499 1_545
O14 P7 1.515738 1_555
O15 P4 1.550342 1_556
O16 P2 1.569082 1_555
O17 P1 1.532499 1_565
O18 P1 1.488800 1_555
O19 P0 1.515738 1_555
O20 P7 1.567318 1_555
O20 P3 1.626213 1_555
O21 P7 1.550342 1_555
O22 P6 1.515738 1_555
O23 P1 1.569082 1_555
O24 P0 1.567318 1_555
O24 P2 1.626213 1_555
O25 P2 1.488800 1_555
O26 P5 1.532499 1_545
O27 P3 1.488800 1_555
