# generated using pymatgen
data_V2Ag4O7
_symmetry_space_group_name_H-M   'P 1'
_cell_length_a   10.99512482
_cell_length_b   14.11948071
_cell_length_c   19.05775934
_cell_angle_alpha   90.00000000
_cell_angle_beta   90.00000000
_cell_angle_gamma   90.00000000
_symmetry_Int_Tables_number   1
_chemical_formula_structural   V2Ag4O7
_chemical_formula_sum   'V32 Ag64 O112'
_cell_volume   2958.63047809
_cell_formula_units_Z   16
loop_
 _symmetry_equiv_pos_site_id
 _symmetry_equiv_pos_as_xyz
  1  'x, y, z'
loop_
 _atom_site_type_symbol
 _atom_site_label
 _atom_site_symmetry_multiplicity
 _atom_site_fract_x
 _atom_site_fract_y
 _atom_site_fract_z
 _atom_site_occupancy
  V  V0  1  0.98632797  0.74982495  0.75727226  1
  V  V1  1  0.51367203  0.25017505  0.25727226  1
  V  V2  1  0.48632797  0.75017505  0.24272774  1
  V  V3  1  0.01367203  0.24982495  0.74272774  1
  V  V4  1  0.01367203  0.25017505  0.24272774  1
  V  V5  1  0.48632797  0.74982495  0.74272774  1
  V  V6  1  0.51367203  0.24982495  0.75727226  1
  V  V7  1  0.98632797  0.75017505  0.25727226  1
  V  V8  1  0.98300575  0.48370025  0.75763043  1
  V  V9  1  0.51699425  0.51629975  0.25763043  1
  V  V10  1  0.48300575  0.01629975  0.24236957  1
  V  V11  1  0.01699425  0.98370025  0.74236957  1
  V  V12  1  0.01699425  0.51629975  0.24236957  1
  V  V13  1  0.48300575  0.48370025  0.74236957  1
  V  V14  1  0.51699425  0.98370025  0.75763043  1
  V  V15  1  0.98300575  0.01629975  0.25763043  1
  V  V16  1  0.75648471  0.77076949  0.49881766  1
  V  V17  1  0.74351529  0.22923051  0.99881766  1
  V  V18  1  0.25648471  0.72923051  0.50118234  1
  V  V19  1  0.24351529  0.27076949  0.00118234  1
  V  V20  1  0.24351529  0.22923051  0.50118234  1
  V  V21  1  0.25648471  0.77076949  0.00118234  1
  V  V22  1  0.74351529  0.27076949  0.49881766  1
  V  V23  1  0.75648471  0.72923051  0.99881766  1
  V  V24  1  0.25490075  0.00359168  0.99795878  1
  V  V25  1  0.24509925  0.99640832  0.49795878  1
  V  V26  1  0.75490075  0.49640832  0.00204122  1
  V  V27  1  0.74509925  0.50359168  0.50204122  1
  V  V28  1  0.74509925  0.99640832  0.00204122  1
  V  V29  1  0.75490075  0.00359168  0.50204122  1
  V  V30  1  0.24509925  0.50359168  0.99795878  1
  V  V31  1  0.25490075  0.49640832  0.49795878  1
  Ag  Ag0  1  0.00874870  0.61483889  0.41841787  1
  Ag  Ag1  1  0.49125130  0.38516111  0.91841787  1
  Ag  Ag2  1  0.50874870  0.88516111  0.58158213  1
  Ag  Ag3  1  0.99125130  0.11483889  0.08158213  1
  Ag  Ag4  1  0.99125130  0.38516111  0.58158213  1
  Ag  Ag5  1  0.50874870  0.61483889  0.08158213  1
  Ag  Ag6  1  0.49125130  0.11483889  0.41841787  1
  Ag  Ag7  1  0.00874870  0.88516111  0.91841787  1
  Ag  Ag8  1  0.00177477  0.37631961  0.41602376  1
  Ag  Ag9  1  0.49822523  0.62368039  0.91602376  1
  Ag  Ag10  1  0.50177477  0.12368039  0.58397624  1
  Ag  Ag11  1  0.99822523  0.87631961  0.08397624  1
  Ag  Ag12  1  0.99822523  0.62368039  0.58397624  1
  Ag  Ag13  1  0.50177477  0.37631961  0.08397624  1
  Ag  Ag14  1  0.49822523  0.87631961  0.41602376  1
  Ag  Ag15  1  0.00177477  0.12368039  0.91602376  1
  Ag  Ag16  1  0.22260317  0.60144012  0.67433805  1
  Ag  Ag17  1  0.27739683  0.39855988  0.17433805  1
  Ag  Ag18  1  0.72260317  0.89855988  0.32566195  1
  Ag  Ag19  1  0.77739683  0.10144012  0.82566195  1
  Ag  Ag20  1  0.77739683  0.39855988  0.32566195  1
  Ag  Ag21  1  0.72260317  0.60144012  0.82566195  1
  Ag  Ag22  1  0.27739683  0.10144012  0.67433805  1
  Ag  Ag23  1  0.22260317  0.89855988  0.17433805  1
  Ag  Ag24  1  0.75127822  0.37777775  0.67042909  1
  Ag  Ag25  1  0.74872178  0.62222225  0.17042909  1
  Ag  Ag26  1  0.25127822  0.12222225  0.32957091  1
  Ag  Ag27  1  0.24872178  0.87777775  0.82957091  1
  Ag  Ag28  1  0.24872178  0.62222225  0.32957091  1
  Ag  Ag29  1  0.25127822  0.37777775  0.82957091  1
  Ag  Ag30  1  0.74872178  0.87777775  0.67042909  1
  Ag  Ag31  1  0.75127822  0.12222225  0.17042909  1
  Ag  Ag32  1  0.24857597  0.87002566  0.33565611  1
  Ag  Ag33  1  0.25142403  0.12997434  0.83565611  1
  Ag  Ag34  1  0.74857597  0.62997434  0.66434389  1
  Ag  Ag35  1  0.75142403  0.37002566  0.16434389  1
  Ag  Ag36  1  0.75142403  0.12997434  0.66434389  1
  Ag  Ag37  1  0.74857597  0.87002566  0.16434389  1
  Ag  Ag38  1  0.25142403  0.37002566  0.33565611  1
  Ag  Ag39  1  0.24857597  0.62997434  0.83565611  1
  Ag  Ag40  1  0.74541645  0.84201554  0.83822156  1
  Ag  Ag41  1  0.75458355  0.15798446  0.33822156  1
  Ag  Ag42  1  0.24541645  0.65798446  0.16177844  1
  Ag  Ag43  1  0.25458355  0.34201554  0.66177844  1
  Ag  Ag44  1  0.25458355  0.15798446  0.16177844  1
  Ag  Ag45  1  0.24541645  0.84201554  0.66177844  1
  Ag  Ag46  1  0.75458355  0.34201554  0.83822156  1
  Ag  Ag47  1  0.74541645  0.65798446  0.33822156  1
  Ag  Ag48  1  0.49752871  0.35911979  0.59088225  1
  Ag  Ag49  1  0.00247129  0.64088021  0.09088225  1
  Ag  Ag50  1  0.99752871  0.14088021  0.40911775  1
  Ag  Ag51  1  0.50247129  0.85911979  0.90911775  1
  Ag  Ag52  1  0.50247129  0.64088021  0.40911775  1
  Ag  Ag53  1  0.99752871  0.35911979  0.90911775  1
  Ag  Ag54  1  0.00247129  0.85911979  0.59088225  1
  Ag  Ag55  1  0.49752871  0.14088021  0.09088225  1
  Ag  Ag56  1  0.51120720  0.63075875  0.58695542  1
  Ag  Ag57  1  0.98879280  0.36924125  0.08695542  1
  Ag  Ag58  1  0.01120720  0.86924125  0.41304458  1
  Ag  Ag59  1  0.48879280  0.13075875  0.91304458  1
  Ag  Ag60  1  0.48879280  0.36924125  0.41304458  1
  Ag  Ag61  1  0.01120720  0.63075875  0.91304458  1
  Ag  Ag62  1  0.98879280  0.13075875  0.58695542  1
  Ag  Ag63  1  0.51120720  0.86924125  0.08695542  1
  O  O0  1  0.46846574  0.87628130  0.71101578  1
  O  O1  1  0.03153426  0.12371870  0.21101578  1
  O  O2  1  0.96846574  0.62371870  0.28898422  1
  O  O3  1  0.53153426  0.37628130  0.78898422  1
  O  O4  1  0.53153426  0.12371870  0.28898422  1
  O  O5  1  0.96846574  0.87628130  0.78898422  1
  O  O6  1  0.03153426  0.37628130  0.71101578  1
  O  O7  1  0.46846574  0.62371870  0.21101578  1
  O  O8  1  0.41561885  0.76056842  0.82463620  1
  O  O9  1  0.08438115  0.23943158  0.32463620  1
  O  O10  1  0.91561885  0.73943158  0.17536380  1
  O  O11  1  0.58438115  0.26056842  0.67536380  1
  O  O12  1  0.58438115  0.23943158  0.17536380  1
  O  O13  1  0.91561885  0.76056842  0.67536380  1
  O  O14  1  0.08438115  0.26056842  0.82463620  1
  O  O15  1  0.41561885  0.73943158  0.32463620  1
  O  O16  1  0.09536033  0.19244257  0.67722594  1
  O  O17  1  0.40463967  0.80755743  0.17722594  1
  O  O18  1  0.59536033  0.30755743  0.32277406  1
  O  O19  1  0.90463967  0.69244257  0.82277406  1
  O  O20  1  0.90463967  0.80755743  0.32277406  1
  O  O21  1  0.59536033  0.19244257  0.82277406  1
  O  O22  1  0.40463967  0.69244257  0.67722594  1
  O  O23  1  0.09536033  0.30755743  0.17722594  1
  O  O24  1  0.35617738  0.23781114  0.75862462  1
  O  O25  1  0.14382262  0.76218886  0.25862462  1
  O  O26  1  0.85617738  0.26218886  0.24137538  1
  O  O27  1  0.64382262  0.73781114  0.74137538  1
  O  O28  1  0.64382262  0.76218886  0.24137538  1
  O  O29  1  0.85617738  0.23781114  0.74137538  1
  O  O30  1  0.14382262  0.73781114  0.75862462  1
  O  O31  1  0.35617738  0.26218886  0.25862462  1
  O  O32  1  0.56400152  0.49165443  0.66461031  1
  O  O33  1  0.93599848  0.50834557  0.16461031  1
  O  O34  1  0.06400152  0.00834557  0.33538969  1
  O  O35  1  0.43599848  0.99165443  0.83538969  1
  O  O36  1  0.43599848  0.50834557  0.33538969  1
  O  O37  1  0.06400152  0.49165443  0.83538969  1
  O  O38  1  0.93599848  0.99165443  0.66461031  1
  O  O39  1  0.56400152  0.00834557  0.16461031  1
  O  O40  1  0.82661415  0.47034900  0.77366344  1
  O  O41  1  0.67338585  0.52965100  0.27366344  1
  O  O42  1  0.32661415  0.02965100  0.22633656  1
  O  O43  1  0.17338585  0.97034900  0.72633656  1
  O  O44  1  0.17338585  0.52965100  0.22633656  1
  O  O45  1  0.32661415  0.47034900  0.72633656  1
  O  O46  1  0.67338585  0.97034900  0.77366344  1
  O  O47  1  0.82661415  0.02965100  0.27366344  1
  O  O48  1  0.32134163  0.50859346  0.91702598  1
  O  O49  1  0.17865837  0.49140654  0.41702598  1
  O  O50  1  0.82134163  0.99140654  0.08297402  1
  O  O51  1  0.67865837  0.00859346  0.58297402  1
  O  O52  1  0.67865837  0.49140654  0.08297402  1
  O  O53  1  0.82134163  0.50859346  0.58297402  1
  O  O54  1  0.17865837  0.00859346  0.91702598  1
  O  O55  1  0.32134163  0.99140654  0.41702598  1
  O  O56  1  0.16836698  0.11216898  0.50034760  1
  O  O57  1  0.33163302  0.88783102  0.00034760  1
  O  O58  1  0.66836698  0.38783102  0.49965240  1
  O  O59  1  0.83163302  0.61216898  0.99965240  1
  O  O60  1  0.83163302  0.88783102  0.49965240  1
  O  O61  1  0.66836698  0.11216898  0.99965240  1
  O  O62  1  0.33163302  0.61216898  0.50034760  1
  O  O63  1  0.16836698  0.38783102  0.00034760  1
  O  O64  1  0.83278197  0.26960546  0.57450301  1
  O  O65  1  0.66721803  0.73039454  0.07450301  1
  O  O66  1  0.33278197  0.23039454  0.42549699  1
  O  O67  1  0.16721803  0.76960546  0.92549699  1
  O  O68  1  0.16721803  0.73039454  0.42549699  1
  O  O69  1  0.33278197  0.26960546  0.92549699  1
  O  O70  1  0.66721803  0.76960546  0.57450301  1
  O  O71  1  0.83278197  0.23039454  0.07450301  1
  O  O72  1  0.87413263  0.69112074  0.49984894  1
  O  O73  1  0.62586737  0.30887926  0.99984894  1
  O  O74  1  0.37413263  0.80887926  0.50015106  1
  O  O75  1  0.12586737  0.19112074  0.00015106  1
  O  O76  1  0.12586737  0.30887926  0.50015106  1
  O  O77  1  0.37413263  0.69112074  0.00015106  1
  O  O78  1  0.62586737  0.19112074  0.49984894  1
  O  O79  1  0.87413263  0.80887926  0.99984894  1
  O  O80  1  0.67212482  0.73288456  0.92129802  1
  O  O81  1  0.82787518  0.26711544  0.42129802  1
  O  O82  1  0.17212482  0.76711544  0.07870198  1
  O  O83  1  0.32787518  0.23288456  0.57870198  1
  O  O84  1  0.32787518  0.26711544  0.07870198  1
  O  O85  1  0.17212482  0.73288456  0.57870198  1
  O  O86  1  0.82787518  0.23288456  0.92129802  1
  O  O87  1  0.67212482  0.76711544  0.42129802  1
  O  O88  1  0.84264362  0.99634124  0.93050539  1
  O  O89  1  0.65735638  0.00365876  0.43050539  1
  O  O90  1  0.34264362  0.50365876  0.06949461  1
  O  O91  1  0.15735638  0.49634124  0.56949461  1
  O  O92  1  0.15735638  0.00365876  0.06949461  1
  O  O93  1  0.34264362  0.99634124  0.56949461  1
  O  O94  1  0.65735638  0.49634124  0.93050539  1
  O  O95  1  0.84264362  0.50365876  0.43050539  1
  O  O96  1  0.37070986  0.41416453  0.50515402  1
  O  O97  1  0.12929014  0.58583547  0.00515402  1
  O  O98  1  0.87070986  0.08583547  0.49484598  1
  O  O99  1  0.62929014  0.91416453  0.99484598  1
  O  O100  1  0.62929014  0.58583547  0.49484598  1
  O  O101  1  0.87070986  0.41416453  0.99484598  1
  O  O102  1  0.12929014  0.91416453  0.50515402  1
  O  O103  1  0.37070986  0.08583547  0.00515402  1
  O  O104  1  0.98939187  0.08345169  0.79230727  1
  O  O105  1  0.51060813  0.91654831  0.29230727  1
  O  O106  1  0.48939187  0.41654831  0.20769273  1
  O  O107  1  0.01060813  0.58345169  0.70769273  1
  O  O108  1  0.01060813  0.91654831  0.20769273  1
  O  O109  1  0.48939187  0.08345169  0.70769273  1
  O  O110  1  0.51060813  0.58345169  0.79230727  1
  O  O111  1  0.98939187  0.41654831  0.29230727  1
loop_
_geom_bond_atom_site_label_1
_geom_bond_atom_site_label_2
_geom_bond_distance
_geom_bond_site_symmetry_2
Ag0 O68 2.390857 1_555
Ag0 O72 2.399831 1_455
Ag0 O95 2.419276 1_455
Ag0 O2 2.509299 1_455
Ag0 O49 2.555024 1_555
Ag1 O69 2.390857 1_555
Ag1 O73 2.399831 1_555
Ag1 O94 2.419276 1_555
Ag1 O3 2.509299 1_555
Ag1 O48 2.555024 1_555
Ag2 O70 2.390857 1_555
Ag2 O74 2.399831 1_555
Ag2 O93 2.419276 1_555
Ag2 O0 2.509299 1_555
Ag2 O51 2.555024 1_565
Ag3 O71 2.390857 1_555
Ag3 O75 2.399831 1_655
Ag3 O92 2.419276 1_655
Ag3 O1 2.509299 1_655
Ag3 O50 2.555024 1_545
Ag4 O64 2.390857 1_555
Ag4 O76 2.399831 1_655
Ag4 O91 2.419276 1_655
Ag4 O6 2.509299 1_655
Ag4 O53 2.555024 1_555
Ag5 O65 2.390857 1_555
Ag5 O77 2.399831 1_555
Ag5 O90 2.419276 1_555
Ag5 O7 2.509299 1_555
Ag5 O52 2.555024 1_555
Ag6 O66 2.390857 1_555
Ag6 O78 2.399831 1_555
Ag6 O89 2.419276 1_555
Ag6 O4 2.509299 1_555
Ag6 O55 2.555024 1_545
Ag7 O67 2.390857 1_555
Ag7 O79 2.399831 1_455
Ag7 O88 2.419276 1_455
Ag7 O5 2.509299 1_455
Ag7 O54 2.555024 1_565
Ag8 O76 2.310596 1_555
Ag8 O111 2.429032 1_455
Ag8 O81 2.458354 1_455
Ag8 O95 2.523920 1_455
Ag8 O49 2.534434 1_555
Ag8 O9 2.755710 1_555
Ag9 O77 2.310596 1_556
Ag9 O110 2.429032 1_555
Ag9 O80 2.458354 1_555
Ag9 O94 2.523920 1_555
Ag9 O48 2.534434 1_555
Ag9 O8 2.755710 1_555
Ag10 O78 2.310596 1_555
Ag10 O109 2.429032 1_555
Ag10 O83 2.458354 1_555
Ag10 O93 2.523920 1_545
Ag10 O51 2.534434 1_555
Ag10 O11 2.755710 1_555
Ag11 O79 2.310596 1_554
Ag11 O108 2.429032 1_655
Ag11 O82 2.458354 1_655
Ag11 O92 2.523920 1_665
Ag11 O50 2.534434 1_555
Ag11 O10 2.755710 1_555
Ag12 O72 2.310596 1_555
Ag12 O107 2.429032 1_655
Ag12 O85 2.458354 1_655
Ag12 O91 2.523920 1_655
Ag12 O53 2.534434 1_555
Ag12 O13 2.755710 1_555
Ag13 O73 2.310596 1_554
Ag13 O106 2.429032 1_555
Ag13 O84 2.458354 1_555
Ag13 O90 2.523920 1_555
Ag13 O52 2.534434 1_555
Ag13 O12 2.755710 1_555
Ag14 O74 2.310596 1_555
Ag14 O105 2.429032 1_555
Ag14 O87 2.458354 1_555
Ag14 O89 2.523920 1_565
Ag14 O55 2.534434 1_555
Ag14 O15 2.755710 1_555
Ag15 O75 2.310596 1_556
Ag15 O104 2.429032 1_455
Ag15 O86 2.458354 1_455
Ag15 O88 2.523920 1_445
Ag15 O54 2.534434 1_555
Ag15 O14 2.755710 1_555
Ag16 O22 2.379091 1_555
Ag16 O45 2.390786 1_555
Ag16 O107 2.429348 1_555
Ag16 O91 2.590187 1_555
Ag16 O30 2.652933 1_555
Ag16 O85 2.659777 1_555
Ag17 O23 2.379091 1_555
Ag17 O44 2.390786 1_555
Ag17 O106 2.429348 1_555
Ag17 O90 2.590187 1_555
Ag17 O31 2.652933 1_555
Ag17 O84 2.659777 1_555
Ag18 O20 2.379091 1_555
Ag18 O47 2.390786 1_565
Ag18 O105 2.429348 1_555
Ag18 O89 2.590187 1_565
Ag18 O28 2.652933 1_555
Ag18 O87 2.659777 1_555
Ag19 O21 2.379091 1_555
Ag19 O46 2.390786 1_545
Ag19 O104 2.429348 1_555
Ag19 O88 2.590187 1_545
Ag19 O29 2.652933 1_555
Ag19 O86 2.659777 1_555
Ag20 O18 2.379091 1_555
Ag20 O41 2.390786 1_555
Ag20 O111 2.429348 1_555
Ag20 O95 2.590187 1_555
Ag20 O26 2.652933 1_555
Ag20 O81 2.659777 1_555
Ag21 O19 2.379091 1_555
Ag21 O40 2.390786 1_555
Ag21 O110 2.429348 1_555
Ag21 O94 2.590187 1_555
Ag21 O27 2.652933 1_555
Ag21 O80 2.659777 1_555
Ag22 O16 2.379091 1_555
Ag22 O43 2.390786 1_545
Ag22 O109 2.429348 1_555
Ag22 O93 2.590187 1_545
Ag22 O24 2.652933 1_555
Ag22 O83 2.659777 1_555
Ag23 O17 2.379091 1_555
Ag23 O42 2.390786 1_565
Ag23 O108 2.429348 1_555
Ag23 O92 2.590187 1_565
Ag23 O25 2.652933 1_555
Ag23 O82 2.659777 1_555
Ag24 O11 2.472868 1_555
Ag24 O40 2.503048 1_555
Ag24 O64 2.545174 1_555
Ag24 O53 2.604404 1_555
Ag24 O32 2.614879 1_555
Ag24 O29 2.657816 1_555
Ag25 O10 2.472868 1_555
Ag25 O41 2.503048 1_555
Ag25 O65 2.545174 1_555
Ag25 O52 2.604404 1_555
Ag25 O33 2.614879 1_555
Ag25 O28 2.657816 1_555
Ag26 O9 2.472868 1_555
Ag26 O42 2.503048 1_555
Ag26 O66 2.545174 1_555
Ag26 O55 2.604404 1_545
Ag26 O34 2.614879 1_555
Ag26 O31 2.657816 1_555
Ag27 O8 2.472868 1_555
Ag27 O43 2.503048 1_555
Ag27 O67 2.545174 1_555
Ag27 O54 2.604404 1_565
Ag27 O35 2.614879 1_555
Ag27 O30 2.657816 1_555
Ag28 O15 2.472868 1_555
Ag28 O44 2.503048 1_555
Ag28 O68 2.545174 1_555
Ag28 O49 2.604404 1_555
Ag28 O36 2.614879 1_555
Ag28 O25 2.657816 1_555
Ag29 O14 2.472868 1_555
Ag29 O45 2.503048 1_555
Ag29 O69 2.545174 1_555
Ag29 O48 2.604404 1_555
Ag29 O37 2.614879 1_555
Ag29 O24 2.657816 1_555
Ag30 O13 2.472868 1_555
Ag30 O46 2.503048 1_555
Ag30 O70 2.545174 1_555
Ag30 O51 2.604404 1_565
Ag30 O38 2.614879 1_555
Ag30 O27 2.657816 1_555
Ag31 O12 2.472868 1_555
Ag31 O47 2.503048 1_555
Ag31 O71 2.545174 1_555
Ag31 O50 2.604404 1_545
Ag31 O39 2.614879 1_555
Ag31 O26 2.657816 1_555
Ag32 O25 2.408332 1_555
Ag32 O55 2.445832 1_555
Ag32 O15 2.611027 1_555
Ag32 O68 2.760181 1_555
Ag32 O34 2.816522 1_565
Ag33 O24 2.408332 1_555
Ag33 O54 2.445832 1_555
Ag33 O14 2.611027 1_555
Ag33 O69 2.760181 1_555
Ag33 O35 2.816522 1_545
Ag34 O27 2.408332 1_555
Ag34 O53 2.445832 1_555
Ag34 O13 2.611027 1_555
Ag34 O70 2.760181 1_555
Ag34 O32 2.816522 1_555
Ag35 O26 2.408332 1_555
Ag35 O52 2.445832 1_555
Ag35 O12 2.611027 1_555
Ag35 O71 2.760181 1_555
Ag35 O33 2.816522 1_555
Ag36 O29 2.408332 1_555
Ag36 O51 2.445832 1_555
Ag36 O11 2.611027 1_555
Ag36 O64 2.760181 1_555
Ag36 O38 2.816522 1_545
Ag37 O28 2.408332 1_555
Ag37 O50 2.445832 1_555
Ag37 O10 2.611027 1_555
Ag37 O65 2.760181 1_555
Ag37 O39 2.816522 1_565
Ag38 O31 2.408332 1_555
Ag38 O49 2.445832 1_555
Ag38 O9 2.611027 1_555
Ag38 O66 2.760181 1_555
Ag38 O36 2.816522 1_555
Ag39 O30 2.408332 1_555
Ag39 O48 2.445832 1_555
Ag39 O8 2.611027 1_555
Ag39 O67 2.760181 1_555
Ag39 O37 2.816522 1_555
Ag40 O46 2.329015 1_555
Ag40 O80 2.351674 1_555
Ag40 O27 2.611328 1_555
Ag40 O5 2.670041 1_555
Ag40 O19 2.758919 1_555
Ag41 O47 2.329015 1_555
Ag41 O81 2.351674 1_555
Ag41 O26 2.611328 1_555
Ag41 O4 2.670041 1_555
Ag41 O18 2.758919 1_555
Ag42 O44 2.329015 1_555
Ag42 O82 2.351674 1_555
Ag42 O25 2.611328 1_555
Ag42 O7 2.670041 1_555
Ag42 O17 2.758919 1_555
Ag43 O45 2.329015 1_555
Ag43 O83 2.351674 1_555
Ag43 O24 2.611328 1_555
Ag43 O6 2.670041 1_555
Ag43 O16 2.758919 1_555
Ag44 O42 2.329015 1_555
Ag44 O84 2.351674 1_555
Ag44 O31 2.611328 1_555
Ag44 O1 2.670041 1_555
Ag44 O23 2.758919 1_555
Ag45 O43 2.329015 1_555
Ag45 O85 2.351674 1_555
Ag45 O30 2.611328 1_555
Ag45 O0 2.670041 1_555
Ag45 O22 2.758919 1_555
Ag46 O40 2.329015 1_555
Ag46 O86 2.351674 1_555
Ag46 O29 2.611328 1_555
Ag46 O3 2.670041 1_555
Ag46 O21 2.758919 1_555
Ag47 O41 2.329015 1_555
Ag47 O87 2.351674 1_555
Ag47 O28 2.611328 1_555
Ag47 O2 2.670041 1_555
Ag47 O20 2.758919 1_555
Ag48 O96 2.284213 1_555
Ag48 O11 2.332463 1_555
Ag48 O32 2.451592 1_555
Ag48 O83 2.590429 1_555
Ag48 O58 2.591436 1_555
Ag49 O97 2.284213 1_555
Ag49 O10 2.332463 1_455
Ag49 O33 2.451592 1_455
Ag49 O82 2.590429 1_555
Ag49 O59 2.591436 1_454
Ag50 O98 2.284213 1_555
Ag50 O9 2.332463 1_655
Ag50 O34 2.451592 1_655
Ag50 O81 2.590429 1_555
Ag50 O56 2.591436 1_655
Ag51 O99 2.284213 1_555
Ag51 O8 2.332463 1_555
Ag51 O35 2.451592 1_555
Ag51 O80 2.590429 1_555
Ag51 O57 2.591436 1_556
Ag52 O100 2.284213 1_555
Ag52 O15 2.332463 1_555
Ag52 O36 2.451592 1_555
Ag52 O87 2.590429 1_555
Ag52 O62 2.591436 1_555
Ag53 O101 2.284213 1_555
Ag53 O14 2.332463 1_655
Ag53 O37 2.451592 1_655
Ag53 O86 2.590429 1_555
Ag53 O63 2.591436 1_656
Ag54 O102 2.284213 1_555
Ag54 O13 2.332463 1_455
Ag54 O38 2.451592 1_455
Ag54 O85 2.590429 1_555
Ag54 O60 2.591436 1_455
Ag55 O103 2.284213 1_555
Ag55 O12 2.332463 1_555
Ag55 O39 2.451592 1_555
Ag55 O84 2.590429 1_555
Ag55 O61 2.591436 1_554
Ag56 O22 2.256346 1_555
Ag56 O100 2.273639 1_555
Ag56 O32 2.526808 1_555
Ag56 O62 2.586818 1_555
Ag56 O70 2.615743 1_555
Ag57 O23 2.256346 1_655
Ag57 O101 2.273639 1_554
Ag57 O33 2.526808 1_555
Ag57 O63 2.586818 1_655
Ag57 O71 2.615743 1_555
Ag58 O20 2.256346 1_455
Ag58 O102 2.273639 1_555
Ag58 O34 2.526808 1_565
Ag58 O60 2.586818 1_455
Ag58 O68 2.615743 1_555
Ag59 O21 2.256346 1_555
Ag59 O103 2.273639 1_556
Ag59 O35 2.526808 1_545
Ag59 O61 2.586818 1_555
Ag59 O69 2.615743 1_555
Ag60 O18 2.256346 1_555
Ag60 O96 2.273639 1_555
Ag60 O36 2.526808 1_555
Ag60 O58 2.586818 1_555
Ag60 O66 2.615743 1_555
Ag61 O19 2.256346 1_455
Ag61 O97 2.273639 1_556
Ag61 O37 2.526808 1_555
Ag61 O59 2.586818 1_455
Ag61 O67 2.615743 1_555
Ag62 O16 2.256346 1_655
Ag62 O98 2.273639 1_555
Ag62 O38 2.526808 1_545
Ag62 O56 2.586818 1_655
Ag62 O64 2.615743 1_555
Ag63 O17 2.256346 1_555
Ag63 O99 2.273639 1_554
Ag63 O39 2.526808 1_565
Ag63 O57 2.586818 1_555
Ag63 O65 2.615743 1_555
O0 V14 1.836923 1_555
O0 V5 1.895211 1_555
O1 V15 1.836923 1_455
O1 V4 1.895211 1_555
O2 V12 1.836923 1_655
O2 V7 1.895211 1_555
O3 V13 1.836923 1_555
O3 V6 1.895211 1_555
O4 V10 1.836923 1_555
O4 V1 1.895211 1_555
O5 V11 1.836923 1_655
O5 V0 1.895211 1_555
O6 V8 1.836923 1_455
O6 V3 1.895211 1_555
O7 V9 1.836923 1_555
O7 V2 1.895211 1_555
O8 V5 1.750469 1_555
O9 V4 1.750469 1_555
O10 V7 1.750469 1_555
O11 V6 1.750469 1_555
O12 V1 1.750469 1_555
O13 V0 1.750469 1_555
O14 V3 1.750469 1_555
O15 V2 1.750469 1_555
O16 V3 1.738232 1_555
O17 V2 1.738232 1_555
O18 V1 1.738232 1_555
O19 V0 1.738232 1_555
O20 V7 1.738232 1_555
O21 V6 1.738232 1_555
O22 V5 1.738232 1_555
O23 V4 1.738232 1_555
O24 V6 1.740152 1_555
O25 V7 1.740152 1_455
O26 V4 1.740152 1_655
O27 V5 1.740152 1_555
O28 V2 1.740152 1_555
O29 V3 1.740152 1_655
O30 V0 1.740152 1_455
O31 V1 1.740152 1_555
O32 V13 1.732567 1_555
O33 V12 1.732567 1_655
O34 V15 1.732567 1_455
O35 V14 1.732567 1_555
O36 V9 1.732567 1_555
O37 V8 1.732567 1_455
O38 V11 1.732567 1_655
O39 V10 1.732567 1_555
O40 V8 1.756626 1_555
O41 V9 1.756626 1_555
O42 V10 1.756626 1_555
O43 V11 1.756626 1_555
O44 V12 1.756626 1_555
O45 V13 1.756626 1_555
O46 V14 1.756626 1_555
O47 V15 1.756626 1_555
O48 V30 1.756905 1_555
O49 V31 1.756905 1_555
O50 V28 1.756905 1_555
O51 V29 1.756905 1_555
O52 V26 1.756905 1_555
O53 V27 1.756905 1_555
O54 V24 1.756905 1_555
O55 V25 1.756905 1_555
O56 V25 1.839945 1_545
O56 V20 1.847938 1_555
O57 V24 1.839945 1_564
O57 V21 1.847938 1_555
O58 V27 1.839945 1_555
O58 V22 1.847938 1_555
O59 V26 1.839945 1_556
O59 V23 1.847938 1_555
O60 V29 1.839945 1_565
O60 V16 1.847938 1_555
O61 V28 1.839945 1_546
O61 V17 1.847938 1_555
O62 V31 1.839945 1_555
O62 V18 1.847938 1_555
O63 V30 1.839945 1_554
O63 V19 1.847938 1_555
O64 V22 1.744737 1_555
O65 V23 1.744737 1_554
O66 V20 1.744737 1_555
O67 V21 1.744737 1_556
O68 V18 1.744737 1_555
O69 V19 1.744737 1_556
O70 V16 1.744737 1_555
O71 V17 1.744737 1_554
O72 V16 1.714173 1_555
O73 V17 1.714173 1_555
O74 V18 1.714173 1_555
O75 V19 1.714173 1_555
O76 V20 1.714173 1_555
O77 V21 1.714173 1_555
O78 V22 1.714173 1_555
O79 V23 1.714173 1_555
O80 V23 1.745156 1_555
O81 V22 1.745156 1_555
O82 V21 1.745156 1_555
O83 V20 1.745156 1_555
O84 V19 1.745156 1_555
O85 V18 1.745156 1_555
O86 V17 1.745156 1_555
O87 V16 1.745156 1_555
O88 V28 1.734620 1_556
O89 V29 1.734620 1_555
O90 V30 1.734620 1_554
O91 V31 1.734620 1_555
O92 V24 1.734620 1_554
O93 V25 1.734620 1_555
O94 V26 1.734620 1_556
O95 V27 1.734620 1_555
O96 V31 1.728775 1_555
O97 V30 1.728775 1_554
O98 V29 1.728775 1_555
O99 V28 1.728775 1_556
O100 V27 1.728775 1_555
O101 V26 1.728775 1_556
O102 V25 1.728775 1_555
O103 V24 1.728775 1_554
O104 V11 1.726714 1_645
O105 V10 1.726714 1_565
O106 V9 1.726714 1_555
O107 V8 1.726714 1_455
O108 V15 1.726714 1_465
O109 V14 1.726714 1_545
O110 V13 1.726714 1_555
O111 V12 1.726714 1_655
