# generated using pymatgen
data_Nb3AgTe4
_symmetry_space_group_name_H-M   'P 1'
_cell_length_a   4.89897500
_cell_length_b   8.71101076
_cell_length_c   9.65515331
_cell_angle_alpha   109.62446151
_cell_angle_beta   90.00000000
_cell_angle_gamma   90.00000000
_symmetry_Int_Tables_number   1
_chemical_formula_structural   Nb3AgTe4
_chemical_formula_sum   'Nb6 Ag2 Te8'
_cell_volume   388.10055986
_cell_formula_units_Z   2
loop_
 _symmetry_equiv_pos_site_id
 _symmetry_equiv_pos_as_xyz
  1  'x, y, z'
loop_
 _atom_site_type_symbol
 _atom_site_label
 _atom_site_symmetry_multiplicity
 _atom_site_fract_x
 _atom_site_fract_y
 _atom_site_fract_z
 _atom_site_occupancy
  Nb  Nb0  1  0.75000000  0.33545000  0.88993800  1
  Nb  Nb1  1  0.75000000  0.09920200  0.48061900  1
  Nb  Nb2  1  0.75000000  0.44253600  0.65752500  1
  Nb  Nb3  1  0.25000000  0.66455000  0.11006200  1
  Nb  Nb4  1  0.25000000  0.90079800  0.51938100  1
  Nb  Nb5  1  0.25000000  0.55746400  0.34247500  1
  Ag  Ag0  1  0.50000000  0.00000000  0.00000000  1
  Ag  Ag1  1  0.00000000  0.00000000  0.00000000  1
  Te  Te0  1  0.75000000  0.74066200  0.32468200  1
  Te  Te1  1  0.25000000  0.25933800  0.67531800  1
  Te  Te2  1  0.75000000  0.96649700  0.70359600  1
  Te  Te3  1  0.75000000  0.35368600  0.34397100  1
  Te  Te4  1  0.75000000  0.66908500  0.95323600  1
  Te  Te5  1  0.25000000  0.03350300  0.29640400  1
  Te  Te6  1  0.25000000  0.64631400  0.65602900  1
  Te  Te7  1  0.25000000  0.33091500  0.04676400  1
loop_
_geom_bond_atom_site_label_1
_geom_bond_atom_site_label_2
_geom_bond_distance
_geom_bond_site_symmetry_2
Nb0 Nb2 2.704011 1_555
Nb0 Te4 2.761702 1_555
Nb0 Te7 2.886948 1_656
Nb0 Te7 2.886948 1_556
Nb0 Te2 3.111653 1_545
Nb0 Te1 3.132202 1_555
Nb0 Te1 3.132202 1_655
Nb1 Te2 2.764578 1_545
Nb1 Nb2 2.903599 1_555
Nb1 Te3 2.935907 1_555
Nb1 Te5 2.967707 1_555
Nb1 Te5 2.967707 1_655
Nb1 Te0 2.977059 1_545
Nb1 Te1 3.117416 1_655
Nb1 Te1 3.117416 1_555
Nb2 Te3 2.861880 1_555
Nb2 Te4 2.874305 1_555
Nb2 Te1 2.959790 1_655
Nb2 Te1 2.959790 1_555
Nb2 Te6 3.027944 1_555
Nb2 Te6 3.027944 1_655
Nb3 Nb5 2.704011 1_555
Nb3 Te7 2.761702 1_555
Nb3 Te4 2.886948 1_454
Nb3 Te4 2.886948 1_554
Nb3 Te5 3.111653 1_565
Nb3 Te0 3.132202 1_555
Nb3 Te0 3.132202 1_455
Nb4 Te5 2.764578 1_565
Nb4 Nb5 2.903599 1_555
Nb4 Te6 2.935907 1_555
Nb4 Te2 2.967707 1_555
Nb4 Te2 2.967707 1_455
Nb4 Te1 2.977059 1_565
Nb4 Te0 3.117416 1_555
Nb4 Te0 3.117416 1_455
Nb5 Te6 2.861880 1_555
Nb5 Te7 2.874305 1_555
Nb5 Te0 2.959790 1_555
Nb5 Te0 2.959790 1_455
Nb5 Te3 3.027944 1_455
Nb5 Te3 3.027944 1_555
Ag0 Ag1 2.449488 1_655
Ag0 Ag1 2.449488 1_555
Ag0 Te4 3.023081 1_544
Ag0 Te7 3.023081 1_555
Ag0 Te5 3.035491 1_555
Ag0 Te2 3.035491 1_544
Ag1 Te4 3.023081 1_444
Ag1 Te7 3.023081 1_555
Ag1 Te2 3.035491 1_444
Ag1 Te5 3.035491 1_555
