# generated using pymatgen
data_Mg6ZnNi
_symmetry_space_group_name_H-M   'P 1'
_cell_length_a   4.83225500
_cell_length_b   6.05703800
_cell_length_c   10.45033500
_cell_angle_alpha   90.00000000
_cell_angle_beta   90.00000000
_cell_angle_gamma   90.00000000
_symmetry_Int_Tables_number   1
_chemical_formula_structural   Mg6ZnNi
_chemical_formula_sum   'Mg12 Zn2 Ni2'
_cell_volume   305.87244525
_cell_formula_units_Z   2
loop_
 _symmetry_equiv_pos_site_id
 _symmetry_equiv_pos_as_xyz
  1  'x, y, z'
loop_
 _atom_site_type_symbol
 _atom_site_label
 _atom_site_symmetry_multiplicity
 _atom_site_fract_x
 _atom_site_fract_y
 _atom_site_fract_z
 _atom_site_occupancy
  Mg  Mg0  1  0.00000000  0.26372600  0.09182400  1
  Mg  Mg1  1  0.00000000  0.73627400  0.09182400  1
  Mg  Mg2  1  0.00000000  0.50000000  0.83386000  1
  Mg  Mg3  1  0.50000000  0.24360200  0.91140400  1
  Mg  Mg4  1  0.50000000  0.75639800  0.91140400  1
  Mg  Mg5  1  0.50000000  0.50000000  0.66560500  1
  Mg  Mg6  1  0.00000000  0.76372600  0.59182400  1
  Mg  Mg7  1  0.00000000  0.23627400  0.59182400  1
  Mg  Mg8  1  0.00000000  0.00000000  0.33386000  1
  Mg  Mg9  1  0.50000000  0.74360200  0.41140400  1
  Mg  Mg10  1  0.50000000  0.25639800  0.41140400  1
  Mg  Mg11  1  0.50000000  0.00000000  0.16560500  1
  Zn  Zn0  1  0.00000000  0.50000000  0.32901900  1
  Zn  Zn1  1  0.00000000  0.00000000  0.82901900  1
  Ni  Ni0  1  0.50000000  0.50000000  0.16506000  1
  Ni  Ni1  1  0.50000000  0.00000000  0.66506000  1
loop_
_geom_bond_atom_site_label_1
_geom_bond_atom_site_label_2
_geom_bond_distance
_geom_bond_site_symmetry_2
Mg0 Zn0 2.862236 1_555
Mg0 Mg1 2.862241 1_555
Mg0 Ni0 2.910588 1_555
Mg0 Ni0 2.910588 1_455
Mg0 Mg8 2.991543 1_555
Mg0 Mg11 2.997307 1_555
Mg0 Mg11 2.997307 1_455
Mg0 Mg2 3.052130 1_554
Mg0 Mg3 3.067157 1_554
Mg0 Mg3 3.067157 1_454
Mg0 Zn1 3.177168 1_554
Mg0 Mg1 3.194797 1_545
Mg1 Zn0 2.862236 1_555
Mg1 Ni0 2.910588 1_555
Mg1 Ni0 2.910588 1_455
Mg1 Mg8 2.991543 1_565
Mg1 Mg11 2.997307 1_565
Mg1 Mg11 2.997307 1_465
Mg1 Mg2 3.052130 1_554
Mg1 Mg4 3.067157 1_554
Mg1 Mg4 3.067157 1_454
Mg1 Zn1 3.177168 1_564
Mg2 Mg4 2.984326 1_455
Mg2 Mg4 2.984326 1_555
Mg2 Mg3 2.984326 1_555
Mg2 Mg3 2.984326 1_455
Mg2 Mg5 2.988204 1_555
Mg2 Mg5 2.988204 1_455
Mg2 Mg6 2.991543 1_555
Mg2 Mg7 2.991543 1_555
Mg2 Zn1 3.028942 1_555
Mg2 Zn1 3.028942 1_565
Mg3 Mg4 2.951013 1_545
Mg3 Zn1 2.959059 1_655
Mg3 Zn1 2.959059 1_555
Mg3 Ni1 2.967244 1_555
Mg3 Mg5 3.001662 1_555
Mg3 Ni0 3.072220 1_556
Mg3 Mg4 3.106025 1_555
Mg4 Zn1 2.959059 1_565
Mg4 Zn1 2.959059 1_665
Mg4 Ni1 2.967244 1_565
Mg4 Mg5 3.001662 1_555
Mg4 Ni0 3.072220 1_556
Mg5 Mg6 2.997307 1_655
Mg5 Mg6 2.997307 1_555
Mg5 Mg7 2.997307 1_555
Mg5 Mg7 2.997307 1_655
Mg5 Ni1 3.028524 1_565
Mg5 Ni1 3.028524 1_555
Mg5 Mg9 3.038756 1_555
Mg6 Zn1 2.862236 1_565
Mg6 Mg7 2.862241 1_565
Mg6 Ni1 2.910588 1_465
Mg6 Ni1 2.910588 1_565
Mg6 Mg8 3.052130 1_565
Mg6 Mg9 3.067157 1_555
Mg6 Mg9 3.067157 1_455
Mg6 Zn0 3.177168 1_555
Mg6 Mg7 3.194797 1_555
Mg7 Zn1 2.862236 1_555
Mg7 Ni1 2.910588 1_555
Mg7 Ni1 2.910588 1_455
Mg7 Mg8 3.052130 1_555
Mg7 Zn0 3.177168 1_555
Mg8 Mg9 2.984326 1_545
Mg8 Mg9 2.984326 1_445
Mg8 Zn0 3.028942 1_555
Mg8 Zn0 3.028942 1_545
Mg9 Zn0 2.959059 1_555
Mg9 Zn0 2.959059 1_655
Mg9 Ni0 2.967244 1_555
Mg9 Ni1 3.072220 1_565
Mg10 Mg9 2.951013 1_555
Mg10 Zn0 2.959059 1_555
Mg10 Zn0 2.959059 1_655
Mg10 Ni0 2.967244 1_555
Mg10 Mg8 2.984326 1_655
Mg10 Mg8 2.984326 1_555
Mg10 Mg11 3.001662 1_555
Mg10 Mg5 3.038756 1_555
Mg10 Mg7 3.067157 1_655
Mg10 Mg7 3.067157 1_555
Mg10 Ni1 3.072220 1_555
Mg10 Mg9 3.106025 1_545
Mg11 Mg8 2.988204 1_655
Mg11 Mg8 2.988204 1_555
Mg11 Mg9 3.001662 1_545
Mg11 Ni0 3.028524 1_545
Mg11 Ni0 3.028524 1_555
Mg11 Mg3 3.038756 1_554
Mg11 Mg4 3.038756 1_544
Ni0 Zn0 2.962010 1_655
Ni0 Zn0 2.962010 1_555
Ni1 Zn1 2.962010 1_555
Ni1 Zn1 2.962010 1_655
