# generated using pymatgen
data_K2CoF6
_symmetry_space_group_name_H-M   'P 1'
_cell_length_a   5.64829012
_cell_length_b   5.64829012
_cell_length_c   5.69522738
_cell_angle_alpha   59.72472473
_cell_angle_beta   59.72472473
_cell_angle_gamma   60.55055053
_symmetry_Int_Tables_number   1
_chemical_formula_structural   K2CoF6
_chemical_formula_sum   'K2 Co1 F6'
_cell_volume   128.46048927
_cell_formula_units_Z   1
loop_
 _symmetry_equiv_pos_site_id
 _symmetry_equiv_pos_as_xyz
  1  'x, y, z'
loop_
 _atom_site_type_symbol
 _atom_site_label
 _atom_site_symmetry_multiplicity
 _atom_site_fract_x
 _atom_site_fract_y
 _atom_site_fract_z
 _atom_site_occupancy
  K  K0  1  0.25000000  0.25000000  0.25000000  1
  K  K1  1  0.75000000  0.75000000  0.75000000  1
  Co  Co0  1  0.00000000  -0.00000000  -0.00000000  1
  F  F0  1  0.77708319  0.22291681  0.22291681  1
  F  F1  1  0.22291681  0.77708319  0.77708319  1
  F  F2  1  0.22291681  0.77708319  0.22291681  1
  F  F3  1  0.77708319  0.22291681  0.77708319  1
  F  F4  1  0.22414526  0.22414526  0.77585474  1
  F  F5  1  0.77585474  0.77585474  0.22414526  1
loop_
_geom_bond_atom_site_label_1
_geom_bond_atom_site_label_2
_geom_bond_distance
_geom_bond_site_symmetry_2
Co0 F5 1.775444 1_445
Co0 F4 1.775444 1_554
Co0 F1 1.795432 1_544
Co0 F3 1.795432 1_454
Co0 F0 1.795432 1_455
Co0 F2 1.795432 1_545
F0 K0 2.832557 1_555
F0 K1 2.832557 1_554
F0 K0 2.832557 1_655
F0 K1 2.832557 1_545
F1 K1 2.832557 1_455
F1 K1 2.832557 1_555
F1 K0 2.832557 1_565
F1 K0 2.832557 1_556
F2 K1 2.832557 1_554
F2 K0 2.832557 1_565
F2 K0 2.832557 1_555
F2 K1 2.832557 1_455
F3 K0 2.832557 1_655
F3 K1 2.832557 1_555
F3 K0 2.832557 1_556
F3 K1 2.832557 1_545
F4 K1 2.854968 1_545
F4 K1 2.854968 1_455
F4 K0 2.854968 1_555
F4 K0 2.854968 1_556
F5 K0 2.854968 1_655
F5 K1 2.854968 1_555
F5 K1 2.854968 1_554
F5 K0 2.854968 1_565
