# generated using pymatgen
data_NaBiTeO5
_symmetry_space_group_name_H-M   'P 1'
_cell_length_a   6.35747429
_cell_length_b   7.39825482
_cell_length_c   9.91294600
_cell_angle_alpha   90.00000000
_cell_angle_beta   90.00000000
_cell_angle_gamma   107.29131824
_symmetry_Int_Tables_number   1
_chemical_formula_structural   NaBiTeO5
_chemical_formula_sum   'Na4 Bi4 Te4 O20'
_cell_volume   445.17596539
_cell_formula_units_Z   4
loop_
 _symmetry_equiv_pos_site_id
 _symmetry_equiv_pos_as_xyz
  1  'x, y, z'
loop_
 _atom_site_type_symbol
 _atom_site_label
 _atom_site_symmetry_multiplicity
 _atom_site_fract_x
 _atom_site_fract_y
 _atom_site_fract_z
 _atom_site_occupancy
  Na  Na0  1  0.59837000  0.23231000  0.78238700  1
  Na  Na1  1  0.90163000  0.76769000  0.28238700  1
  Na  Na2  1  0.40163000  0.76769000  0.21761300  1
  Na  Na3  1  0.09837000  0.23231000  0.71761300  1
  Bi  Bi0  1  0.54421200  0.70984700  0.86903600  1
  Bi  Bi1  1  0.95578800  0.29015300  0.36903600  1
  Bi  Bi2  1  0.45578800  0.29015300  0.13096400  1
  Bi  Bi3  1  0.04421200  0.70984700  0.63096400  1
  Te  Te0  1  0.00000000  0.00000000  0.00000000  1
  Te  Te1  1  0.50000000  0.00000000  0.50000000  1
  Te  Te2  1  0.00000000  0.50000000  0.00000000  1
  Te  Te3  1  0.50000000  0.50000000  0.50000000  1
  O  O0  1  0.69978000  0.49189700  0.94927300  1
  O  O1  1  0.80022000  0.50810300  0.44927300  1
  O  O2  1  0.30022000  0.50810300  0.05072700  1
  O  O3  1  0.19978000  0.49189700  0.55072700  1
  O  O4  1  0.11104400  0.77706800  0.04453100  1
  O  O5  1  0.38895600  0.22293200  0.54453100  1
  O  O6  1  0.88895600  0.22293200  0.95546900  1
  O  O7  1  0.61104400  0.77706800  0.45546900  1
  O  O8  1  0.89439500  0.46001900  0.18356300  1
  O  O9  1  0.60560500  0.53998100  0.68356300  1
  O  O10  1  0.10560500  0.53998100  0.81643700  1
  O  O11  1  0.39439500  0.46001900  0.31643700  1
  O  O12  1  0.10184900  0.09740900  0.17922800  1
  O  O13  1  0.39815100  0.90259100  0.67922800  1
  O  O14  1  0.89815100  0.90259100  0.82077200  1
  O  O15  1  0.60184900  0.09740900  0.32077200  1
  O  O16  1  0.28614200  0.13442600  0.93104300  1
  O  O17  1  0.21385800  0.86557400  0.43104300  1
  O  O18  1  0.71385800  0.86557400  0.06895700  1
  O  O19  1  0.78614200  0.13442600  0.56895700  1
loop_
_geom_bond_atom_site_label_1
_geom_bond_atom_site_label_2
_geom_bond_distance
_geom_bond_site_symmetry_2
Na0 O16 2.404498 1_555
Na0 O9 2.465924 1_555
Na0 O0 2.470772 1_555
Na0 O6 2.537257 1_555
Na0 O13 2.602032 1_545
Na0 O19 2.634321 1_555
Na0 O5 2.698491 1_555
Na1 O17 2.404498 1_655
Na1 O8 2.465924 1_555
Na1 O1 2.470772 1_555
Na1 O7 2.537257 1_555
Na1 O12 2.602032 1_665
Na1 O18 2.634321 1_555
Na1 O4 2.698491 1_655
Na2 O18 2.404498 1_555
Na2 O11 2.465924 1_555
Na2 O2 2.470772 1_555
Na2 O4 2.537257 1_555
Na2 O15 2.602032 1_565
Na2 O17 2.634321 1_555
Na2 O7 2.698491 1_555
Na3 O19 2.404498 1_455
Na3 O10 2.465924 1_555
Na3 O3 2.470772 1_555
Na3 O5 2.537257 1_555
Na3 O14 2.602032 1_445
Na3 O16 2.634321 1_555
Na3 O6 2.698491 1_455
Bi0 O0 2.271300 1_555
Bi0 O9 2.324572 1_555
Bi0 O14 2.327678 1_555
Bi0 O18 2.383161 1_556
Bi0 O2 2.549802 1_556
Bi0 O13 2.687572 1_555
Bi0 O10 2.746527 1_555
Bi1 O1 2.271300 1_555
Bi1 O8 2.324572 1_555
Bi1 O15 2.327678 1_555
Bi1 O19 2.383161 1_555
Bi1 O3 2.549802 1_655
Bi1 O12 2.687572 1_655
Bi1 O11 2.746527 1_655
Bi2 O2 2.271300 1_555
Bi2 O11 2.324572 1_555
Bi2 O12 2.327678 1_555
Bi2 O16 2.383161 1_554
Bi2 O0 2.549802 1_554
Bi2 O15 2.687572 1_555
Bi2 O8 2.746527 1_555
Bi3 O3 2.271300 1_555
Bi3 O10 2.324572 1_555
Bi3 O13 2.327678 1_555
Bi3 O17 2.383161 1_555
Bi3 O1 2.549802 1_455
Bi3 O14 2.687572 1_455
Bi3 O9 2.746527 1_455
O0 Te2 1.957383 1_656
O1 Te3 1.957383 1_555
O2 Te2 1.957383 1_555
O3 Te3 1.957383 1_555
O4 Te2 2.008673 1_555
O4 Te0 2.026232 1_565
O5 Te3 2.008673 1_555
O5 Te1 2.026232 1_555
O6 Te2 2.008673 1_656
O6 Te0 2.026232 1_656
O7 Te3 2.008673 1_555
O7 Te1 2.026232 1_565
O8 Te2 1.931662 1_655
O9 Te3 1.931662 1_555
O10 Te2 1.931662 1_556
O11 Te3 1.931662 1_555
O12 Te0 1.953918 1_555
O13 Te1 1.953918 1_565
O14 Te0 1.953918 1_666
O15 Te1 1.953918 1_555
O16 Te0 1.920969 1_556
O17 Te1 1.920969 1_565
O18 Te0 1.920969 1_665
O19 Te1 1.920969 1_555
