# generated using pymatgen
data_Sm3GaFeS7
_symmetry_space_group_name_H-M   'P 1'
_cell_length_a   9.84777087
_cell_length_b   9.84777087
_cell_length_c   6.14846500
_cell_angle_alpha   90.00000000
_cell_angle_beta   90.00000000
_cell_angle_gamma   120.00000587
_symmetry_Int_Tables_number   1
_chemical_formula_structural   Sm3GaFeS7
_chemical_formula_sum   'Sm6 Ga2 Fe2 S14'
_cell_volume   516.38448115
_cell_formula_units_Z   2
loop_
 _symmetry_equiv_pos_site_id
 _symmetry_equiv_pos_as_xyz
  1  'x, y, z'
loop_
 _atom_site_type_symbol
 _atom_site_label
 _atom_site_symmetry_multiplicity
 _atom_site_fract_x
 _atom_site_fract_y
 _atom_site_fract_z
 _atom_site_occupancy
  Sm  Sm0  1  0.14982900  0.37430500  0.32033400  1
  Sm  Sm1  1  0.22447600  0.85017100  0.32033400  1
  Sm  Sm2  1  0.62569500  0.77552400  0.32033400  1
  Sm  Sm3  1  0.85017100  0.62569500  0.82033400  1
  Sm  Sm4  1  0.77552400  0.14982900  0.82033400  1
  Sm  Sm5  1  0.37430500  0.22447600  0.82033400  1
  Ga  Ga0  1  0.66666700  0.33333300  0.39557900  1
  Ga  Ga1  1  0.33333300  0.66666700  0.89557900  1
  Fe  Fe0  1  0.00000000  0.00000000  0.00998100  1
  Fe  Fe1  1  0.00000000  0.00000000  0.50998100  1
  S  S0  1  0.42757600  0.51904300  0.04990700  1
  S  S1  1  0.09146700  0.57242400  0.04990700  1
  S  S2  1  0.48095700  0.90853300  0.04990700  1
  S  S3  1  0.57242400  0.48095700  0.54990700  1
  S  S4  1  0.90853300  0.42757600  0.54990700  1
  S  S5  1  0.51904300  0.09146700  0.54990700  1
  S  S6  1  0.66666700  0.33333300  0.02915000  1
  S  S7  1  0.33333300  0.66666700  0.52915000  1
  S  S8  1  0.86344800  0.09687000  0.24380500  1
  S  S9  1  0.23342300  0.13655200  0.24380500  1
  S  S10  1  0.90313000  0.76657700  0.24380500  1
  S  S11  1  0.13655200  0.90313000  0.74380500  1
  S  S12  1  0.76657700  0.86344800  0.74380500  1
  S  S13  1  0.09687000  0.23342300  0.74380500  1
loop_
_geom_bond_atom_site_label_1
_geom_bond_atom_site_label_2
_geom_bond_distance
_geom_bond_site_symmetry_2
Ga0 S6 2.252976 1_555
Ga0 S4 2.285680 1_555
Ga0 S5 2.285681 1_555
Ga0 S3 2.285688 1_555
Ga1 S7 2.252976 1_555
Ga1 S1 2.285680 1_556
Ga1 S2 2.285681 1_556
Ga1 S0 2.285688 1_556
Fe0 S8 2.463333 1_455
Fe0 S9 2.463339 1_555
Fe0 S10 2.463340 1_445
Fe0 S11 2.584477 1_544
Fe0 S12 2.584483 1_444
Fe0 S13 2.584484 1_554
Fe1 S11 2.463333 1_545
Fe1 S12 2.463339 1_445
Fe1 S13 2.463340 1_555
Fe1 S8 2.584477 1_455
Fe1 S9 2.584483 1_555
Fe1 S10 2.584484 1_445
S0 Sm2 2.832450 1_555
S0 Sm0 2.894630 1_555
S0 Sm5 3.026653 1_554
S1 Sm0 2.832450 1_555
S1 Sm1 2.894631 1_555
S1 Sm3 3.026653 1_454
S2 Sm1 2.832450 1_555
S2 Sm2 2.894631 1_555
S2 Sm4 3.026653 1_564
S3 Sm5 2.832450 1_555
S3 Sm3 2.894630 1_555
S3 Sm2 3.026653 1_555
S4 Sm3 2.832450 1_555
S4 Sm4 2.894631 1_555
S4 Sm0 3.026653 1_655
S5 Sm4 2.832450 1_555
S5 Sm5 2.894631 1_555
S5 Sm1 3.026653 1_545
S6 Sm4 2.828501 1_554
S6 Sm3 2.828508 1_554
S6 Sm5 2.828509 1_554
S7 Sm1 2.828501 1_555
S7 Sm0 2.828508 1_555
S7 Sm2 2.828509 1_555
S8 Sm0 2.816792 1_655
S8 Sm4 2.872717 1_554
S8 Sm2 2.882417 1_545
S9 Sm1 2.816788 1_545
S9 Sm5 2.872713 1_554
S9 Sm0 2.882424 1_555
S10 Sm2 2.816797 1_555
S10 Sm3 2.872713 1_554
S10 Sm1 2.882415 1_655
S11 Sm3 2.816792 1_455
S11 Sm1 2.872717 1_555
S11 Sm5 2.882417 1_565
S12 Sm4 2.816788 1_565
S12 Sm2 2.872713 1_555
S12 Sm3 2.882424 1_555
S13 Sm5 2.816797 1_555
S13 Sm0 2.872713 1_555
S13 Sm4 2.882415 1_455
