# generated using pymatgen
data_Ba2CeSnO6
_symmetry_space_group_name_H-M   'P 1'
_cell_length_a   8.65851522
_cell_length_b   8.65851522
_cell_length_c   8.65851522
_cell_angle_alpha   90.00000000
_cell_angle_beta   90.00000000
_cell_angle_gamma   90.00000000
_symmetry_Int_Tables_number   1
_chemical_formula_structural   Ba2CeSnO6
_chemical_formula_sum   'Ba8 Ce4 Sn4 O24'
_cell_volume   649.12789737
_cell_formula_units_Z   4
loop_
 _symmetry_equiv_pos_site_id
 _symmetry_equiv_pos_as_xyz
  1  'x, y, z'
loop_
 _atom_site_type_symbol
 _atom_site_label
 _atom_site_symmetry_multiplicity
 _atom_site_fract_x
 _atom_site_fract_y
 _atom_site_fract_z
 _atom_site_occupancy
  Ba  Ba0  1  0.50000000  0.50000000  0.50000000  1
  Ba  Ba1  1  0.00000000  0.00000000  0.00000000  1
  Ba  Ba2  1  0.00000000  0.00000000  0.50000000  1
  Ba  Ba3  1  0.00000000  0.50000000  0.00000000  1
  Ba  Ba4  1  0.50000000  0.00000000  0.00000000  1
  Ba  Ba5  1  0.50000000  0.50000000  0.00000000  1
  Ba  Ba6  1  0.50000000  -0.00000000  0.50000000  1
  Ba  Ba7  1  0.00000000  0.50000000  0.50000000  1
  Ce  Ce0  1  0.75000000  0.75000000  0.75000000  1
  Ce  Ce1  1  0.75000000  0.25000000  0.25000000  1
  Ce  Ce2  1  0.25000000  0.75000000  0.25000000  1
  Ce  Ce3  1  0.25000000  0.25000000  0.75000000  1
  Sn  Sn0  1  0.25000000  0.25000000  0.25000000  1
  Sn  Sn1  1  0.25000000  0.75000000  0.75000000  1
  Sn  Sn2  1  0.75000000  0.25000000  0.75000000  1
  Sn  Sn3  1  0.75000000  0.75000000  0.25000000  1
  O  O0  1  0.23324872  0.26804137  0.49214842  1
  O  O1  1  0.23324872  0.73195863  0.50785158  1
  O  O2  1  0.76675128  0.26804137  0.50785158  1
  O  O3  1  0.76675128  0.73195863  0.49214842  1
  O  O4  1  0.26804137  0.49214842  0.23324872  1
  O  O5  1  0.73195863  0.50785158  0.23324872  1
  O  O6  1  0.26804137  0.50785158  0.76675128  1
  O  O7  1  0.73195863  0.49214842  0.76675128  1
  O  O8  1  0.49214842  0.23324872  0.26804137  1
  O  O9  1  0.50785158  0.23324872  0.73195863  1
  O  O10  1  0.50785158  0.76675128  0.26804137  1
  O  O11  1  0.49214842  0.76675128  0.73195863  1
  O  O12  1  0.26675128  0.23195863  0.00785158  1
  O  O13  1  0.26675128  0.76804137  0.99214842  1
  O  O14  1  0.73324872  0.23195863  0.99214842  1
  O  O15  1  0.73324872  0.76804137  0.00785158  1
  O  O16  1  0.23195863  0.00785158  0.26675128  1
  O  O17  1  0.76804137  0.99214842  0.26675128  1
  O  O18  1  0.23195863  0.99214842  0.73324872  1
  O  O19  1  0.76804137  0.00785158  0.73324872  1
  O  O20  1  0.00785158  0.26675128  0.23195863  1
  O  O21  1  0.99214842  0.26675128  0.76804137  1
  O  O22  1  0.99214842  0.73324872  0.23195863  1
  O  O23  1  0.00785158  0.73324872  0.76804137  1
loop_
_geom_bond_atom_site_label_1
_geom_bond_atom_site_label_2
_geom_bond_distance
_geom_bond_site_symmetry_2
Ba0 O2 3.061525 1_555
Ba0 O8 3.061525 1_555
Ba0 O10 3.061525 1_555
Ba0 O0 3.061525 1_555
Ba0 O6 3.061525 1_555
Ba0 O11 3.061525 1_555
Ba0 O9 3.061525 1_555
Ba0 O3 3.061525 1_555
Ba0 O4 3.061525 1_555
Ba0 O1 3.061525 1_555
Ba0 O5 3.061525 1_555
Ba0 O7 3.061525 1_555
Ba1 O13 3.061525 1_544
Ba1 O21 3.061525 1_454
Ba1 O23 3.061525 1_544
Ba1 O15 3.061525 1_445
Ba1 O17 3.061525 1_445
Ba1 O22 3.061525 1_445
Ba1 O20 3.061525 1_555
Ba1 O14 3.061525 1_454
Ba1 O19 3.061525 1_454
Ba1 O12 3.061525 1_555
Ba1 O16 3.061525 1_555
Ba1 O18 3.061525 1_544
Ba2 O19 2.849052 1_455
Ba2 O17 2.849052 1_445
Ba2 O16 2.849052 1_555
Ba2 O18 2.849052 1_545
Ba2 O3 3.077281 1_445
Ba2 O1 3.077281 1_545
Ba2 O0 3.077281 1_555
Ba2 O2 3.077281 1_455
Ba2 O20 3.274980 1_555
Ba2 O22 3.274980 1_445
Ba2 O23 3.274980 1_545
Ba2 O21 3.274980 1_455
Ba3 O23 2.849052 1_554
Ba3 O21 2.849052 1_454
Ba3 O20 2.849052 1_555
Ba3 O22 2.849052 1_455
Ba3 O6 3.077281 1_554
Ba3 O5 3.077281 1_455
Ba3 O7 3.077281 1_454
Ba3 O4 3.077281 1_555
Ba3 O14 3.274980 1_454
Ba3 O12 3.274980 1_555
Ba3 O13 3.274980 1_554
Ba3 O15 3.274980 1_455
Ba4 O13 2.849052 1_544
Ba4 O15 2.849052 1_545
Ba4 O14 2.849052 1_554
Ba4 O12 2.849052 1_555
Ba4 O10 3.077281 1_545
Ba4 O9 3.077281 1_554
Ba4 O11 3.077281 1_544
Ba4 O8 3.077281 1_555
Ba4 O16 3.274980 1_555
Ba4 O18 3.274980 1_544
Ba4 O17 3.274980 1_545
Ba4 O19 3.274980 1_554
Ba5 O7 2.849052 1_554
Ba5 O4 2.849052 1_555
Ba5 O6 2.849052 1_554
Ba5 O5 2.849052 1_555
Ba5 O12 3.077281 1_555
Ba5 O14 3.077281 1_554
Ba5 O15 3.077281 1_555
Ba5 O13 3.077281 1_554
Ba5 O9 3.274980 1_554
Ba5 O8 3.274980 1_555
Ba5 O10 3.274980 1_555
Ba5 O11 3.274980 1_554
Ba6 O11 2.849052 1_545
Ba6 O8 2.849052 1_555
Ba6 O10 2.849052 1_545
Ba6 O9 2.849052 1_555
Ba6 O18 3.077281 1_545
Ba6 O19 3.077281 1_555
Ba6 O16 3.077281 1_555
Ba6 O17 3.077281 1_545
Ba6 O1 3.274980 1_545
Ba6 O3 3.274980 1_545
Ba6 O2 3.274980 1_555
Ba6 O0 3.274980 1_555
Ba7 O2 2.849052 1_455
Ba7 O0 2.849052 1_555
Ba7 O1 2.849052 1_555
Ba7 O3 2.849052 1_455
Ba7 O22 3.077281 1_455
Ba7 O23 3.077281 1_555
Ba7 O20 3.077281 1_555
Ba7 O21 3.077281 1_455
Ba7 O7 3.274980 1_455
Ba7 O5 3.274980 1_455
Ba7 O4 3.274980 1_555
Ba7 O6 3.274980 1_555
Ce0 O7 2.242765 1_555
Ce0 O3 2.242765 1_555
Ce0 O11 2.242765 1_555
Ce0 O23 2.242765 1_655
Ce0 O15 2.242765 1_556
Ce0 O19 2.242765 1_565
Ce1 O5 2.242765 1_555
Ce1 O2 2.242765 1_555
Ce1 O14 2.242765 1_554
Ce1 O8 2.242765 1_555
Ce1 O17 2.242765 1_545
Ce1 O20 2.242765 1_655
Ce2 O13 2.242765 1_554
Ce2 O1 2.242765 1_555
Ce2 O4 2.242765 1_555
Ce2 O22 2.242765 1_455
Ce2 O10 2.242765 1_555
Ce2 O16 2.242765 1_565
Ce3 O0 2.242765 1_555
Ce3 O21 2.242765 1_455
Ce3 O6 2.242765 1_555
Ce3 O9 2.242765 1_555
Ce3 O18 2.242765 1_545
Ce3 O12 2.242765 1_556
O0 Sn0 2.107454 1_555
O1 Sn1 2.107454 1_555
O2 Sn2 2.107454 1_555
O3 Sn3 2.107454 1_555
O4 Sn0 2.107454 1_555
O5 Sn3 2.107454 1_555
O6 Sn1 2.107454 1_555
O7 Sn2 2.107454 1_555
O8 Sn0 2.107454 1_555
O9 Sn2 2.107454 1_555
O10 Sn3 2.107454 1_555
O11 Sn1 2.107454 1_555
O12 Sn0 2.107454 1_555
O13 Sn1 2.107454 1_555
O14 Sn2 2.107454 1_555
O15 Sn3 2.107454 1_555
O16 Sn0 2.107454 1_555
O17 Sn3 2.107454 1_555
O18 Sn1 2.107454 1_555
O19 Sn2 2.107454 1_555
O20 Sn0 2.107454 1_555
O21 Sn2 2.107454 1_555
O22 Sn3 2.107454 1_555
O23 Sn1 2.107454 1_555
