# generated using pymatgen
data_SmAl3Ni2
_symmetry_space_group_name_H-M   'P 1'
_cell_length_a   9.04430983
_cell_length_b   9.04430983
_cell_length_c   4.06740244
_cell_angle_alpha   90.00000000
_cell_angle_beta   90.00000000
_cell_angle_gamma   119.99999891
_symmetry_Int_Tables_number   1
_chemical_formula_structural   SmAl3Ni2
_chemical_formula_sum   'Sm3 Al9 Ni6'
_cell_volume   288.13674409
_cell_formula_units_Z   3
loop_
 _symmetry_equiv_pos_site_id
 _symmetry_equiv_pos_as_xyz
  1  'x, y, z'
loop_
 _atom_site_type_symbol
 _atom_site_label
 _atom_site_symmetry_multiplicity
 _atom_site_fract_x
 _atom_site_fract_y
 _atom_site_fract_z
 _atom_site_occupancy
  Sm  Sm0  1  0.33333300  0.66666700  0.50000000  1
  Sm  Sm1  1  0.66666700  0.33333300  0.50000000  1
  Sm  Sm2  1  0.00000000  0.00000000  -0.00000000  1
  Al  Al0  1  0.50000000  0.00000000  -0.00000000  1
  Al  Al1  1  0.00000000  0.50000000  -0.00000000  1
  Al  Al2  1  0.50000000  0.50000000  -0.00000000  1
  Al  Al3  1  0.29647349  0.00000000  0.50000000  1
  Al  Al4  1  0.70352651  -0.00000000  0.50000000  1
  Al  Al5  1  0.00000000  0.29647349  0.50000000  1
  Al  Al6  1  -0.00000000  0.70352651  0.50000000  1
  Al  Al7  1  0.70352651  0.70352651  0.50000000  1
  Al  Al8  1  0.29647349  0.29647349  0.50000000  1
  Ni  Ni0  1  0.18126659  0.36253418  -0.00000000  1
  Ni  Ni1  1  0.81873341  0.63746582  0.00000000  1
  Ni  Ni2  1  0.63746582  0.81873341  -0.00000000  1
  Ni  Ni3  1  0.36253418  0.18126659  0.00000000  1
  Ni  Ni4  1  0.18126659  0.81873341  0.00000000  1
  Ni  Ni5  1  0.81873341  0.18126659  -0.00000000  1
loop_
_geom_bond_atom_site_label_1
_geom_bond_atom_site_label_2
_geom_bond_distance
_geom_bond_site_symmetry_2
Al0 Ni2 2.504349 1_545
Al0 Ni3 2.504349 1_555
Al0 Ni5 2.504357 1_555
Al0 Ni4 2.504357 1_545
Al0 Al3 2.743051 1_555
Al0 Al4 2.743051 1_555
Al0 Al4 2.743051 1_554
Al0 Al3 2.743051 1_554
Al0 Sm1 3.309465 1_554
Al0 Sm0 3.309465 1_545
Al0 Sm0 3.309465 1_544
Al0 Sm1 3.309465 1_555
Al1 Ni1 2.504349 1_455
Al1 Ni0 2.504349 1_555
Al1 Ni5 2.504357 1_455
Al1 Ni4 2.504357 1_555
Al1 Al6 2.743051 1_555
Al1 Al5 2.743051 1_554
Al1 Al5 2.743051 1_555
Al1 Al6 2.743051 1_554
Al1 Sm1 3.309465 1_455
Al1 Sm1 3.309465 1_454
Al1 Sm0 3.309465 1_555
Al1 Sm0 3.309465 1_554
Al2 Ni1 2.504358 1_555
Al2 Ni2 2.504358 1_555
Al2 Ni3 2.504358 1_555
Al2 Ni0 2.504358 1_555
Al2 Al7 2.743051 1_555
Al2 Al8 2.743051 1_555
Al2 Al7 2.743051 1_554
Al2 Al8 2.743051 1_554
Al2 Sm0 3.309471 1_555
Al2 Sm1 3.309471 1_554
Al2 Sm0 3.309471 1_554
Al2 Sm1 3.309471 1_555
Al3 Ni3 2.490207 1_556
Al3 Ni3 2.490207 1_555
Al3 Ni4 2.490208 1_546
Al3 Ni4 2.490208 1_545
Al3 Al8 2.681398 1_555
Al3 Al6 2.681398 1_545
Al3 Sm0 3.194524 1_545
Al3 Sm1 3.194529 1_555
Al4 Ni2 2.490207 1_545
Al4 Ni2 2.490207 1_546
Al4 Ni5 2.490208 1_555
Al4 Ni5 2.490208 1_556
Al4 Al7 2.681398 1_545
Al4 Al5 2.681398 1_655
Al4 Sm1 3.194524 1_555
Al4 Sm0 3.194529 1_545
Al5 Ni0 2.490207 1_556
Al5 Ni0 2.490207 1_555
Al5 Ni5 2.490208 1_456
Al5 Ni5 2.490208 1_455
Al5 Al8 2.681398 1_555
Al5 Sm1 3.194524 1_455
Al5 Sm0 3.194529 1_555
Al6 Ni1 2.490207 1_455
Al6 Ni1 2.490207 1_456
Al6 Ni4 2.490208 1_556
Al6 Ni4 2.490208 1_555
Al6 Al7 2.681398 1_455
Al6 Sm0 3.194524 1_555
Al6 Sm1 3.194529 1_455
Al7 Ni2 2.490212 1_556
Al7 Ni1 2.490212 1_555
Al7 Ni1 2.490212 1_556
Al7 Ni2 2.490212 1_555
Al7 Sm1 3.194533 1_555
Al7 Sm0 3.194533 1_555
Al8 Ni3 2.490212 1_556
Al8 Ni0 2.490212 1_556
Al8 Ni3 2.490212 1_555
Al8 Ni0 2.490212 1_555
Al8 Sm0 3.194533 1_555
Al8 Sm1 3.194533 1_555
Ni0 Ni5 2.839578 1_455
Ni0 Sm2 2.839586 1_555
Ni0 Ni3 2.839594 1_555
Ni0 Sm0 3.132185 1_554
Ni0 Sm0 3.132185 1_555
Ni1 Ni4 2.839578 1_655
Ni1 Sm2 2.839586 1_665
Ni1 Ni2 2.839594 1_555
Ni1 Sm1 3.132185 1_554
Ni1 Sm1 3.132185 1_555
Ni2 Ni5 2.839578 1_565
Ni2 Sm2 2.839586 1_665
Ni2 Sm0 3.132185 1_554
Ni2 Sm0 3.132185 1_555
Ni3 Ni4 2.839578 1_545
Ni3 Sm2 2.839586 1_555
Ni3 Sm1 3.132185 1_555
Ni3 Sm1 3.132185 1_554
Ni4 Sm2 2.839578 1_565
Ni4 Sm0 3.132185 1_554
Ni4 Sm0 3.132185 1_555
Ni5 Sm2 2.839578 1_655
Ni5 Sm1 3.132185 1_555
Ni5 Sm1 3.132185 1_554
