# generated using pymatgen
data_AlNi
_symmetry_space_group_name_H-M   'P 1'
_cell_length_a   2.85971129
_cell_length_b   2.85971129
_cell_length_c   2.85971129
_cell_angle_alpha   90.00000000
_cell_angle_beta   90.00000000
_cell_angle_gamma   90.00000000
_symmetry_Int_Tables_number   1
_chemical_formula_structural   AlNi
_chemical_formula_sum   'Al1 Ni1'
_cell_volume   23.38657212
_cell_formula_units_Z   1
loop_
 _symmetry_equiv_pos_site_id
 _symmetry_equiv_pos_as_xyz
  1  'x, y, z'
loop_
 _atom_site_type_symbol
 _atom_site_label
 _atom_site_symmetry_multiplicity
 _atom_site_fract_x
 _atom_site_fract_y
 _atom_site_fract_z
 _atom_site_occupancy
  Al  Al0  1  0.50000000  0.50000000  0.50000000  1
  Ni  Ni0  1  -0.00000000  -0.00000000  -0.00000000  1
loop_
_geom_bond_atom_site_label_1
_geom_bond_atom_site_label_2
_geom_bond_distance
_geom_bond_site_symmetry_2
Al0 Ni0 2.476583 1_665
Al0 Ni0 2.476583 1_656
Al0 Ni0 2.476583 1_555
Al0 Ni0 2.476583 1_655
Al0 Ni0 2.476583 1_565
Al0 Ni0 2.476583 1_566
Al0 Ni0 2.476583 1_666
Al0 Ni0 2.476583 1_556
