# generated using pymatgen
data_Pd3Rh
_symmetry_space_group_name_H-M   'P 1'
_cell_length_a   4.80025669
_cell_length_b   4.80025669
_cell_length_c   4.80025669
_cell_angle_alpha   132.33896818
_cell_angle_beta   132.33896818
_cell_angle_gamma   69.69418751
_symmetry_Int_Tables_number   1
_chemical_formula_structural   Pd3Rh
_chemical_formula_sum   'Pd3 Rh1'
_cell_volume   59.27340133
_cell_formula_units_Z   1
loop_
 _symmetry_equiv_pos_site_id
 _symmetry_equiv_pos_as_xyz
  1  'x, y, z'
loop_
 _atom_site_type_symbol
 _atom_site_label
 _atom_site_symmetry_multiplicity
 _atom_site_fract_x
 _atom_site_fract_y
 _atom_site_fract_z
 _atom_site_occupancy
  Pd  Pd0  1  0.75000000  0.25000000  0.50000000  1
  Pd  Pd1  1  0.25000000  0.75000000  0.50000000  1
  Pd  Pd2  1  0.50000000  0.50000000  -0.00000000  1
  Rh  Rh0  1  0.00000000  -0.00000000  -0.00000000  1
loop_
_geom_bond_atom_site_label_1
_geom_bond_atom_site_label_2
_geom_bond_distance
_geom_bond_site_symmetry_2
Pd0 Pd1 2.742811 1_656
Pd0 Pd1 2.742811 1_544
Pd0 Pd1 2.742811 1_555
Pd0 Pd1 2.742811 1_645
Pd0 Rh0 2.764303 1_555
Pd0 Pd2 2.764303 1_545
Pd0 Rh0 2.764303 1_656
Pd0 Rh0 2.764303 1_655
Pd0 Pd2 2.764303 1_556
Pd0 Rh0 2.764303 1_666
Pd0 Pd2 2.764303 1_555
Pd0 Pd2 2.764303 1_656
Pd1 Rh0 2.764303 1_555
Pd1 Pd2 2.764303 1_566
Pd1 Pd2 2.764303 1_455
Pd1 Pd2 2.764303 1_556
Pd1 Rh0 2.764303 1_565
Pd1 Rh0 2.764303 1_566
Pd1 Rh0 2.764303 1_666
Pd1 Pd2 2.764303 1_555
Pd2 Rh0 2.742811 1_565
Pd2 Rh0 2.742811 1_666
Pd2 Rh0 2.742811 1_554
Pd2 Rh0 2.742811 1_655
