# generated using pymatgen
data_Pr2(MoO4)3
_symmetry_space_group_name_H-M   'P 1'
_cell_length_a   10.45143622
_cell_length_b   10.45143622
_cell_length_c   16.19557405
_cell_angle_alpha   74.96937785
_cell_angle_beta   74.96937785
_cell_angle_gamma   70.00692619
_symmetry_Int_Tables_number   1
_chemical_formula_structural   Pr2(MoO4)3
_chemical_formula_sum   'Pr12 Mo18 O72'
_cell_volume   1576.94710806
_cell_formula_units_Z   6
loop_
 _symmetry_equiv_pos_site_id
 _symmetry_equiv_pos_as_xyz
  1  'x, y, z'
loop_
 _atom_site_type_symbol
 _atom_site_label
 _atom_site_symmetry_multiplicity
 _atom_site_fract_x
 _atom_site_fract_y
 _atom_site_fract_z
 _atom_site_occupancy
  Pr  Pr0  1  0.61768200  0.36887400  0.08876500  1
  Pr  Pr1  1  0.38231800  0.63112600  0.91123500  1
  Pr  Pr2  1  0.63112600  0.38231800  0.41123500  1
  Pr  Pr3  1  0.36887400  0.61768200  0.58876500  1
  Pr  Pr4  1  0.71291000  0.95601600  0.47715400  1
  Pr  Pr5  1  0.28709000  0.04398400  0.52284600  1
  Pr  Pr6  1  0.04398400  0.28709000  0.02284600  1
  Pr  Pr7  1  0.95601600  0.71291000  0.97715400  1
  Pr  Pr8  1  0.29391000  0.03776100  0.19728100  1
  Pr  Pr9  1  0.70609000  0.96223900  0.80271900  1
  Pr  Pr10  1  0.96223900  0.70609000  0.30271900  1
  Pr  Pr11  1  0.03776100  0.29391000  0.69728100  1
  Mo  Mo0  1  0.54661600  0.79532200  0.36315000  1
  Mo  Mo1  1  0.45338400  0.20467800  0.63685000  1
  Mo  Mo2  1  0.20467800  0.45338400  0.13685000  1
  Mo  Mo3  1  0.79532200  0.54661600  0.86315000  1
  Mo  Mo4  1  0.46502800  0.20097000  0.30955800  1
  Mo  Mo5  1  0.53497200  0.79903000  0.69044200  1
  Mo  Mo6  1  0.79903000  0.53497200  0.19044200  1
  Mo  Mo7  1  0.20097000  0.46502800  0.80955800  1
  Mo  Mo8  1  0.87353900  0.12646100  0.25000000  1
  Mo  Mo9  1  0.12646100  0.87353900  0.75000000  1
  Mo  Mo10  1  0.54710200  0.77681600  0.03416000  1
  Mo  Mo11  1  0.45289800  0.22318400  0.96584000  1
  Mo  Mo12  1  0.22318400  0.45289800  0.46584000  1
  Mo  Mo13  1  0.77681600  0.54710200  0.53416000  1
  Mo  Mo14  1  0.13475300  0.87900400  0.07906900  1
  Mo  Mo15  1  0.86524700  0.12099600  0.92093100  1
  Mo  Mo16  1  0.12099600  0.86524700  0.42093100  1
  Mo  Mo17  1  0.87900400  0.13475300  0.57906900  1
  O  O0  1  0.24165700  0.84916400  0.32139700  1
  O  O1  1  0.75834300  0.15083600  0.67860300  1
  O  O2  1  0.15083600  0.75834300  0.17860300  1
  O  O3  1  0.84916400  0.24165700  0.82139700  1
  O  O4  1  0.53126400  0.61552900  0.01571000  1
  O  O5  1  0.46873600  0.38447100  0.98429000  1
  O  O6  1  0.38447100  0.46873600  0.48429000  1
  O  O7  1  0.61552900  0.53126400  0.51571000  1
  O  O8  1  0.71057200  0.80697500  0.37652300  1
  O  O9  1  0.28942800  0.19302500  0.62347700  1
  O  O10  1  0.19302500  0.28942800  0.12347700  1
  O  O11  1  0.80697500  0.71057200  0.87652300  1
  O  O12  1  0.46540000  0.10519900  0.06659900  1
  O  O13  1  0.53460000  0.89480100  0.93340100  1
  O  O14  1  0.89480100  0.53460000  0.43340100  1
  O  O15  1  0.10519900  0.46540000  0.56659900  1
  O  O16  1  0.71699100  0.75370400  0.05209300  1
  O  O17  1  0.28300900  0.24629600  0.94790700  1
  O  O18  1  0.24629600  0.28300900  0.44790700  1
  O  O19  1  0.75370400  0.71699100  0.55209300  1
  O  O20  1  0.46776900  0.35982200  0.33123900  1
  O  O21  1  0.53223100  0.64017800  0.66876100  1
  O  O22  1  0.64017800  0.53223100  0.16876100  1
  O  O23  1  0.35982200  0.46776900  0.83123900  1
  O  O24  1  0.56887900  0.62923000  0.34301500  1
  O  O25  1  0.43112100  0.37077000  0.65698500  1
  O  O26  1  0.37077000  0.43112100  0.15698500  1
  O  O27  1  0.62923000  0.56887900  0.84301500  1
  O  O28  1  0.72833800  0.18059300  0.00704900  1
  O  O29  1  0.27166200  0.81940700  0.99295100  1
  O  O30  1  0.81940700  0.27166200  0.49295100  1
  O  O31  1  0.18059300  0.72833800  0.50704900  1
  O  O32  1  0.31090200  0.19875600  0.28202500  1
  O  O33  1  0.68909800  0.80124400  0.71797500  1
  O  O34  1  0.80124400  0.68909800  0.21797500  1
  O  O35  1  0.19875600  0.31090200  0.78202500  1
  O  O36  1  0.57900800  0.18369800  0.53484100  1
  O  O37  1  0.42099200  0.81630200  0.46515900  1
  O  O38  1  0.81630200  0.42099200  0.96515900  1
  O  O39  1  0.18369800  0.57900800  0.03484100  1
  O  O40  1  0.59707500  0.17648100  0.21427100  1
  O  O41  1  0.40292500  0.82351900  0.78572900  1
  O  O42  1  0.82351900  0.40292500  0.28572900  1
  O  O43  1  0.17648100  0.59707500  0.71427100  1
  O  O44  1  0.74792000  0.15440200  0.35272700  1
  O  O45  1  0.25208000  0.84559800  0.64727300  1
  O  O46  1  0.84559800  0.25208000  0.14727300  1
  O  O47  1  0.15440200  0.74792000  0.85272700  1
  O  O48  1  0.41639900  0.84501900  0.12056800  1
  O  O49  1  0.58360100  0.15498100  0.87943200  1
  O  O50  1  0.15498100  0.58360100  0.37943200  1
  O  O51  1  0.84501900  0.41639900  0.62056800  1
  O  O52  1  0.87432000  0.97959700  0.55316700  1
  O  O53  1  0.12568000  0.02040300  0.44683300  1
  O  O54  1  0.02040300  0.12568000  0.94683300  1
  O  O55  1  0.97959700  0.87432000  0.05316700  1
  O  O56  1  0.13948100  0.04536400  0.09722000  1
  O  O57  1  0.86051900  0.95463600  0.90278000  1
  O  O58  1  0.95463600  0.86051900  0.40278000  1
  O  O59  1  0.04536400  0.13948100  0.59722000  1
  O  O60  1  0.49934000  0.06482300  0.40769100  1
  O  O61  1  0.50066000  0.93517700  0.59230900  1
  O  O62  1  0.93517700  0.50066000  0.09230900  1
  O  O63  1  0.06482300  0.49934000  0.90769100  1
  O  O64  1  0.48811700  0.92430100  0.27435200  1
  O  O65  1  0.51188300  0.07569900  0.72564800  1
  O  O66  1  0.07569900  0.51188300  0.22564800  1
  O  O67  1  0.92430100  0.48811700  0.77435200  1
  O  O68  1  0.88707600  0.96095100  0.23387000  1
  O  O69  1  0.11292400  0.03904900  0.76613000  1
  O  O70  1  0.03904900  0.11292400  0.26613000  1
  O  O71  1  0.96095100  0.88707600  0.73387000  1
loop_
_geom_bond_atom_site_label_1
_geom_bond_atom_site_label_2
_geom_bond_distance
_geom_bond_site_symmetry_2
Mo0 O64 1.773738 1_555
Mo0 O24 1.775354 1_555
Mo0 O8 1.829472 1_555
Mo0 O37 1.835022 1_555
Mo1 O65 1.773738 1_555
Mo1 O25 1.775354 1_555
Mo1 O9 1.829472 1_555
Mo1 O36 1.835022 1_555
Mo2 O66 1.773738 1_555
Mo2 O26 1.775354 1_555
Mo2 O10 1.829472 1_555
Mo2 O39 1.835022 1_555
Mo3 O67 1.773738 1_555
Mo3 O27 1.775354 1_555
Mo3 O11 1.829472 1_555
Mo3 O38 1.835022 1_555
Mo4 O32 1.788175 1_555
Mo4 O40 1.791746 1_555
Mo4 O20 1.794602 1_555
Mo4 O60 1.858221 1_555
Mo5 O33 1.788175 1_555
Mo5 O41 1.791746 1_555
Mo5 O21 1.794602 1_555
Mo5 O61 1.858221 1_555
Mo6 O34 1.788175 1_555
Mo6 O42 1.791746 1_555
Mo6 O22 1.794602 1_555
Mo6 O62 1.858221 1_555
Mo7 O35 1.788175 1_555
Mo7 O43 1.791746 1_555
Mo7 O23 1.794602 1_555
Mo7 O63 1.858221 1_555
Mo8 O70 1.768724 1_655
Mo8 O68 1.768724 1_545
Mo8 O44 1.853064 1_555
Mo8 O46 1.853064 1_555
Mo9 O69 1.768724 1_565
Mo9 O71 1.768724 1_455
Mo9 O47 1.853064 1_555
Mo9 O45 1.853064 1_555
Mo10 O13 1.776877 1_554
Mo10 O48 1.786777 1_555
Mo10 O16 1.798110 1_555
Mo10 O4 1.853623 1_555
Mo11 O12 1.776877 1_556
Mo11 O49 1.786777 1_555
Mo11 O17 1.798110 1_555
Mo11 O5 1.853623 1_555
Mo12 O15 1.776877 1_555
Mo12 O50 1.786777 1_555
Mo12 O18 1.798110 1_555
Mo12 O6 1.853623 1_555
Mo13 O14 1.776877 1_555
Mo13 O51 1.786777 1_555
Mo13 O19 1.798110 1_555
Mo13 O7 1.853623 1_555
Mo14 O2 1.777176 1_555
Mo14 O29 1.785139 1_554
Mo14 O55 1.796034 1_455
Mo14 O56 1.855620 1_565
Mo15 O3 1.777176 1_555
Mo15 O28 1.785139 1_556
Mo15 O54 1.796034 1_655
Mo15 O57 1.855620 1_545
Mo16 O0 1.777176 1_555
Mo16 O31 1.785139 1_555
Mo16 O53 1.796034 1_565
Mo16 O58 1.855620 1_455
Mo17 O1 1.777176 1_555
Mo17 O30 1.785139 1_555
Mo17 O52 1.796034 1_545
Mo17 O59 1.855620 1_655
O0 Pr8 2.517099 1_565
O1 Pr9 2.517099 1_545
O2 Pr10 2.517099 1_455
O3 Pr11 2.517099 1_655
O4 Pr0 2.498266 1_555
O4 Pr1 2.522389 1_554
O5 Pr1 2.498266 1_555
O5 Pr0 2.522389 1_556
O6 Pr2 2.498266 1_555
O6 Pr3 2.522389 1_555
O7 Pr3 2.498266 1_555
O7 Pr2 2.522389 1_555
O8 Pr4 2.539016 1_555
O8 Pr10 2.566206 1_555
O9 Pr5 2.539016 1_555
O9 Pr11 2.566206 1_555
O10 Pr6 2.539016 1_555
O10 Pr8 2.566206 1_555
O11 Pr7 2.539016 1_555
O11 Pr9 2.566206 1_555
O12 Pr8 2.512215 1_555
O13 Pr9 2.512215 1_555
O14 Pr10 2.512215 1_555
O15 Pr11 2.512215 1_555
O16 Pr7 2.421373 1_554
O17 Pr6 2.421373 1_556
O18 Pr5 2.421373 1_555
O19 Pr4 2.421373 1_555
O20 Pr2 2.495697 1_555
O21 Pr3 2.495697 1_555
O22 Pr0 2.495697 1_555
O23 Pr1 2.495697 1_555
O24 Pr2 2.459542 1_555
O25 Pr3 2.459542 1_555
O26 Pr0 2.459542 1_555
O27 Pr1 2.459542 1_555
O28 Pr0 2.441711 1_555
O29 Pr1 2.441711 1_555
O30 Pr2 2.441711 1_555
O31 Pr3 2.441711 1_555
O32 Pr8 2.505002 1_555
O33 Pr9 2.505002 1_555
O34 Pr10 2.505002 1_555
O35 Pr11 2.505002 1_555
O36 Pr2 2.581792 1_555
O36 Pr4 2.586818 1_545
O37 Pr3 2.581792 1_555
O37 Pr5 2.586818 1_565
O38 Pr0 2.581792 1_556
O38 Pr6 2.586818 1_656
O39 Pr1 2.581792 1_554
O39 Pr7 2.586818 1_454
O40 Pr0 2.484035 1_555
O41 Pr1 2.484035 1_555
O42 Pr2 2.484035 1_555
O43 Pr3 2.484035 1_555
O44 Pr4 2.542251 1_545
O44 Pr2 2.577703 1_555
O45 Pr5 2.542251 1_565
O45 Pr3 2.577703 1_555
O46 Pr6 2.542251 1_655
O46 Pr0 2.577703 1_555
O47 Pr7 2.542251 1_455
O47 Pr1 2.577703 1_555
O48 Pr8 2.439281 1_565
O49 Pr9 2.439281 1_545
O50 Pr10 2.439281 1_455
O51 Pr11 2.439281 1_655
O52 Pr4 2.437411 1_555
O53 Pr5 2.437411 1_555
O54 Pr6 2.437411 1_556
O55 Pr7 2.437411 1_554
O56 Pr6 2.480040 1_555
O56 Pr8 2.537641 1_555
O57 Pr7 2.480040 1_555
O57 Pr9 2.537641 1_555
O58 Pr4 2.480040 1_555
O58 Pr10 2.537641 1_555
O59 Pr5 2.480040 1_555
O59 Pr11 2.537641 1_555
O60 Pr5 2.533865 1_555
O60 Pr4 2.538559 1_545
O61 Pr4 2.533865 1_555
O61 Pr5 2.538559 1_565
O62 Pr7 2.533865 1_554
O62 Pr6 2.538559 1_655
O63 Pr6 2.533865 1_556
O63 Pr7 2.538559 1_455
O64 Pr8 2.446331 1_565
O65 Pr9 2.446331 1_545
O66 Pr10 2.446331 1_455
O67 Pr11 2.446331 1_655
O68 Pr10 2.537420 1_555
O69 Pr11 2.537420 1_555
O70 Pr8 2.537420 1_555
O71 Pr9 2.537420 1_555
