# generated using pymatgen
data_Li4Mn3CoO8
_symmetry_space_group_name_H-M   'P 1'
_cell_length_a   3.07855300
_cell_length_b   5.09118400
_cell_length_c   9.94435403
_cell_angle_alpha   76.92840407
_cell_angle_beta   90.00000000
_cell_angle_gamma   90.00000000
_symmetry_Int_Tables_number   1
_chemical_formula_structural   Li4Mn3CoO8
_chemical_formula_sum   'Li4 Mn3 Co1 O8'
_cell_volume   151.82395174
_cell_formula_units_Z   1
loop_
 _symmetry_equiv_pos_site_id
 _symmetry_equiv_pos_as_xyz
  1  'x, y, z'
loop_
 _atom_site_type_symbol
 _atom_site_label
 _atom_site_symmetry_multiplicity
 _atom_site_fract_x
 _atom_site_fract_y
 _atom_site_fract_z
 _atom_site_occupancy
  Li  Li0  1  0.00000000  0.25062600  0.24970200  1
  Li  Li1  1  0.50000000  0.00000000  0.50000000  1
  Li  Li2  1  0.00000000  0.74937400  0.75029800  1
  Li  Li3  1  0.50000000  0.50000000  0.00000000  1
  Mn  Mn0  1  0.50000000  0.74989600  0.24812900  1
  Mn  Mn1  1  0.00000000  0.50000000  0.50000000  1
  Mn  Mn2  1  0.50000000  0.25010400  0.75187100  1
  Co  Co0  1  0.00000000  0.00000000  0.00000000  1
  O  O0  1  0.00000000  0.85205800  0.37659700  1
  O  O1  1  0.50000000  0.60283300  0.62845400  1
  O  O2  1  0.00000000  0.35279400  0.87840700  1
  O  O3  1  0.50000000  0.10076100  0.12462500  1
  O  O4  1  0.00000000  0.64720600  0.12159300  1
  O  O5  1  0.50000000  0.39716700  0.37154600  1
  O  O6  1  0.00000000  0.14794200  0.62340300  1
  O  O7  1  0.50000000  0.89923900  0.87537500  1
loop_
_geom_bond_atom_site_label_1
_geom_bond_atom_site_label_2
_geom_bond_distance
_geom_bond_site_symmetry_2
Li0 O4 2.129808 1_555
Li0 O0 2.133469 1_545
Li0 O5 2.191577 1_455
Li0 O5 2.191577 1_555
Li0 O3 2.219879 1_555
Li0 O3 2.219879 1_455
Li1 O5 2.133554 1_555
Li1 O1 2.133554 1_545
Li1 O6 2.204701 1_655
Li1 O6 2.204701 1_555
Li1 O0 2.204701 1_545
Li1 O0 2.204701 1_645
Li2 O2 2.129808 1_555
Li2 O6 2.133469 1_565
Li2 O1 2.191577 1_555
Li2 O1 2.191577 1_455
Li2 O7 2.219879 1_455
Li2 O7 2.219879 1_555
Li3 O7 2.127889 1_554
Li3 O3 2.127889 1_555
Li3 O4 2.191584 1_655
Li3 O4 2.191584 1_555
Li3 O2 2.191584 1_554
Li3 O2 2.191584 1_654
Mn0 O3 1.925343 1_565
Mn0 O5 1.932420 1_555
Mn0 O4 2.126887 1_555
Mn0 O4 2.126887 1_655
Mn0 O0 2.138354 1_555
Mn0 O0 2.138354 1_655
Mn1 O6 1.929678 1_555
Mn1 O0 1.929678 1_555
Mn1 O1 2.139558 1_455
Mn1 O1 2.139558 1_555
Mn1 O5 2.139558 1_555
Mn1 O5 2.139558 1_455
Mn2 O7 1.925343 1_545
Mn2 O1 1.932420 1_555
Mn2 O2 2.126887 1_555
Mn2 O2 2.126887 1_655
Mn2 O6 2.138354 1_555
Mn2 O6 2.138354 1_655
Co0 O4 1.925044 1_545
Co0 O2 1.925044 1_554
Co0 O3 2.110927 1_555
Co0 O3 2.110927 1_455
Co0 O7 2.110927 1_444
Co0 O7 2.110927 1_544
