# generated using pymatgen
data_NaNiF3
_symmetry_space_group_name_H-M   'P 1'
_cell_length_a   2.99466387
_cell_length_b   5.17533902
_cell_length_c   7.31394038
_cell_angle_alpha   90.00000000
_cell_angle_beta   90.00000000
_cell_angle_gamma   106.81728848
_symmetry_Int_Tables_number   1
_chemical_formula_structural   NaNiF3
_chemical_formula_sum   'Na2 Ni2 F6'
_cell_volume   108.50646655
_cell_formula_units_Z   2
loop_
 _symmetry_equiv_pos_site_id
 _symmetry_equiv_pos_as_xyz
  1  'x, y, z'
loop_
 _atom_site_type_symbol
 _atom_site_label
 _atom_site_symmetry_multiplicity
 _atom_site_fract_x
 _atom_site_fract_y
 _atom_site_fract_z
 _atom_site_occupancy
  Na  Na0  1  0.25300452  0.50600904  0.25000000  1
  Na  Na1  1  0.74699548  0.49399096  0.75000000  1
  Ni  Ni0  1  0.00000000  0.00000000  0.50000000  1
  Ni  Ni1  1  0.00000000  0.00000000  0.00000000  1
  F  F0  1  0.92284853  0.84569506  0.25000000  1
  F  F1  1  0.07715147  0.15430494  0.75000000  1
  F  F2  1  0.63000590  0.26001180  0.44178192  1
  F  F3  1  0.36999410  0.73998820  0.55821808  1
  F  F4  1  0.63000590  0.26001180  0.05821808  1
  F  F5  1  0.36999410  0.73998820  0.94178192  1
loop_
_geom_bond_atom_site_label_1
_geom_bond_atom_site_label_2
_geom_bond_distance
_geom_bond_site_symmetry_2
F0 Ni0 1.981844 1_665
F0 Ni1 1.981844 1_665
F0 Na0 2.252516 1_655
F0 Na0 2.252519 1_555
F1 Ni1 1.981844 1_556
F1 Ni0 1.981844 1_555
F1 Na1 2.252516 1_455
F1 Na1 2.252519 1_555
F2 Ni0 2.020522 1_555
F2 Ni0 2.020522 1_655
F2 Na0 2.386352 1_655
F2 Na0 2.386352 1_555
F2 Na1 2.534839 1_555
F3 Ni0 2.020522 1_665
F3 Ni0 2.020522 1_565
F3 Na1 2.386352 1_455
F3 Na1 2.386352 1_555
F3 Na0 2.534839 1_555
F4 Ni1 2.020522 1_555
F4 Ni1 2.020522 1_655
F4 Na0 2.386352 1_655
F4 Na0 2.386352 1_555
F4 Na1 2.534839 1_554
F5 Ni1 2.020522 1_666
F5 Ni1 2.020522 1_566
F5 Na1 2.386352 1_455
F5 Na1 2.386352 1_555
F5 Na0 2.534839 1_556
