# generated using pymatgen
data_RbAlV(PO5)2
_symmetry_space_group_name_H-M   'P 1'
_cell_length_a   7.91712000
_cell_length_b   8.29404800
_cell_length_c   14.35862334
_cell_angle_alpha   90.00000000
_cell_angle_beta   107.41929075
_cell_angle_gamma   90.00000000
_symmetry_Int_Tables_number   1
_chemical_formula_structural   RbAlV(PO5)2
_chemical_formula_sum   'Rb4 Al4 V4 P8 O40'
_cell_volume   899.61873635
_cell_formula_units_Z   4
loop_
 _symmetry_equiv_pos_site_id
 _symmetry_equiv_pos_as_xyz
  1  'x, y, z'
loop_
 _atom_site_type_symbol
 _atom_site_label
 _atom_site_symmetry_multiplicity
 _atom_site_fract_x
 _atom_site_fract_y
 _atom_site_fract_z
 _atom_site_occupancy
  Rb  Rb0  1  0.31554500  0.47105600  0.19860000  1
  Rb  Rb1  1  0.31554500  0.02894400  0.69860000  1
  Rb  Rb2  1  0.68445500  0.52894400  0.80140000  1
  Rb  Rb3  1  0.68445500  0.97105600  0.30140000  1
  Al  Al0  1  0.71491200  0.53745500  0.46501500  1
  Al  Al1  1  0.71491200  0.96254500  0.96501500  1
  Al  Al2  1  0.28508800  0.46254500  0.53498500  1
  Al  Al3  1  0.28508800  0.03745500  0.03498500  1
  V  V0  1  0.79997200  0.45130400  0.13611500  1
  V  V1  1  0.79997200  0.04869600  0.63611500  1
  V  V2  1  0.20002800  0.54869600  0.86388500  1
  V  V3  1  0.20002800  0.95130400  0.36388500  1
  P  P0  1  0.49310200  0.27330400  0.95869100  1
  P  P1  1  0.49310200  0.22669600  0.45869100  1
  P  P2  1  0.50689800  0.72669600  0.04130900  1
  P  P3  1  0.50689800  0.77330400  0.54130900  1
  P  P4  1  0.99599100  0.60394000  0.35149600  1
  P  P5  1  0.99599100  0.89606000  0.85149600  1
  P  P6  1  0.00400900  0.39606000  0.64850400  1
  P  P7  1  0.00400900  0.10394000  0.14850400  1
  O  O0  1  0.70466500  0.33138900  0.19867500  1
  O  O1  1  0.70466500  0.16861100  0.69867500  1
  O  O2  1  0.29533500  0.66861100  0.80132500  1
  O  O3  1  0.29533500  0.83138900  0.30132500  1
  O  O4  1  0.65364900  0.38328600  0.00641900  1
  O  O5  1  0.65364900  0.11671400  0.50641900  1
  O  O6  1  0.34635100  0.61671400  0.99358100  1
  O  O7  1  0.34635100  0.88328600  0.49358100  1
  O  O8  1  0.55699400  0.11687300  0.91941300  1
  O  O9  1  0.55699400  0.38312700  0.41941300  1
  O  O10  1  0.44300600  0.88312700  0.08058700  1
  O  O11  1  0.44300600  0.61687300  0.58058700  1
  O  O12  1  0.37020700  0.36264100  0.87002500  1
  O  O13  1  0.37020700  0.13735900  0.37002500  1
  O  O14  1  0.62979300  0.63735900  0.12997500  1
  O  O15  1  0.62979300  0.86264100  0.62997500  1
  O  O16  1  0.39693200  0.22139500  0.03351400  1
  O  O17  1  0.39693200  0.27860500  0.53351400  1
  O  O18  1  0.60306800  0.77860500  0.96648600  1
  O  O19  1  0.60306800  0.72139500  0.46648600  1
  O  O20  1  0.92919000  0.57463900  0.06389800  1
  O  O21  1  0.92919000  0.92536100  0.56389800  1
  O  O22  1  0.07081000  0.42536100  0.93610200  1
  O  O23  1  0.07081000  0.07463900  0.43610200  1
  O  O24  1  0.97230800  0.55637000  0.24442600  1
  O  O25  1  0.97230800  0.94363000  0.74442600  1
  O  O26  1  0.02769200  0.44363000  0.75557400  1
  O  O27  1  0.02769200  0.05637000  0.25557400  1
  O  O28  1  0.15899900  0.51305300  0.41627600  1
  O  O29  1  0.15899900  0.98694700  0.91627600  1
  O  O30  1  0.84100100  0.48694700  0.58372400  1
  O  O31  1  0.84100100  0.01305300  0.08372400  1
  O  O32  1  0.01751300  0.78713000  0.36396100  1
  O  O33  1  0.01751300  0.71287000  0.86396100  1
  O  O34  1  0.98248700  0.21287000  0.63603900  1
  O  O35  1  0.98248700  0.28713000  0.13603900  1
  O  O36  1  0.83031500  0.55505700  0.37996300  1
  O  O37  1  0.83031500  0.94494300  0.87996300  1
  O  O38  1  0.16968500  0.44494300  0.62003700  1
  O  O39  1  0.16968500  0.05505700  0.12003700  1
loop_
_geom_bond_atom_site_label_1
_geom_bond_atom_site_label_2
_geom_bond_distance
_geom_bond_site_symmetry_2
Al0 O36 1.736530 1_555
Al0 O30 1.748880 1_555
Al0 O19 1.767258 1_555
Al0 O9 1.772046 1_555
Al1 O37 1.736530 1_555
Al1 O31 1.748880 1_566
Al1 O18 1.767258 1_555
Al1 O8 1.772046 1_565
Al2 O38 1.736530 1_555
Al2 O28 1.748880 1_555
Al2 O17 1.767258 1_555
Al2 O11 1.772046 1_555
Al3 O39 1.736530 1_555
Al3 O29 1.748880 1_544
Al3 O16 1.767258 1_555
Al3 O10 1.772046 1_545
O0 V0 1.664711 1_555
O0 Rb0 3.291001 1_555
O0 Rb3 3.357729 1_545
O1 V1 1.664711 1_555
O1 Rb1 3.291001 1_555
O1 Rb2 3.357729 1_555
O2 V2 1.664711 1_555
O2 Rb2 3.291001 1_555
O2 Rb1 3.357729 1_565
O3 V3 1.664711 1_555
O3 Rb3 3.291001 1_555
O3 Rb0 3.357729 1_555
O4 P0 1.547848 1_554
O4 V0 1.958731 1_555
O4 Rb2 3.258028 1_554
O5 P1 1.547848 1_555
O5 V1 1.958731 1_555
O5 Rb3 3.258028 1_545
O6 P2 1.547848 1_556
O6 V2 1.958731 1_555
O6 Rb0 3.258028 1_556
O7 P3 1.547848 1_555
O7 V3 1.958731 1_555
O7 Rb1 3.258028 1_565
O8 P0 1.558242 1_555
O8 Rb1 3.257264 1_555
O9 P1 1.558242 1_555
O9 Rb0 3.257264 1_555
O10 P2 1.558242 1_555
O10 Rb3 3.257264 1_555
O11 P3 1.558242 1_555
O11 Rb2 3.257264 1_555
O12 P0 1.541071 1_555
O12 V2 2.033041 1_555
O12 Rb2 3.245165 1_555
O13 P1 1.541071 1_555
O13 V3 2.033041 1_545
O13 Rb3 3.245165 1_545
O14 P2 1.541071 1_555
O14 V0 2.033041 1_555
O14 Rb0 3.245165 1_555
O15 P3 1.541071 1_555
O15 V1 2.033041 1_565
O15 Rb1 3.245165 1_565
O16 P0 1.552119 1_554
O16 Rb0 3.352058 1_555
O17 P1 1.552119 1_555
O17 Rb1 3.352058 1_555
O18 P2 1.552119 1_556
O18 Rb2 3.352058 1_555
O19 P3 1.552119 1_555
O19 Rb3 3.352058 1_555
O20 V0 1.950230 1_555
O20 Rb0 3.208300 1_655
O21 V1 1.950230 1_565
O21 Rb1 3.208300 1_665
O22 V2 1.950230 1_555
O22 Rb2 3.208300 1_455
O23 V3 1.950230 1_545
O23 Rb3 3.208300 1_445
O24 P4 1.543297 1_555
O24 V0 1.941435 1_555
O24 Rb0 3.064106 1_655
O25 P5 1.543297 1_555
O25 V1 1.941435 1_565
O25 Rb1 3.064106 1_665
O26 P6 1.543297 1_555
O26 V2 1.941435 1_555
O26 Rb2 3.064106 1_455
O27 P7 1.543297 1_555
O27 V3 1.941435 1_545
O27 Rb3 3.064106 1_445
O28 P4 1.542804 1_455
O29 P5 1.542804 1_455
O30 P6 1.542804 1_655
O31 P7 1.542804 1_655
O32 P4 1.533409 1_455
O32 V3 1.985721 1_555
O32 Rb3 2.944300 1_455
O33 P5 1.533409 1_455
O33 V2 1.985721 1_555
O33 Rb2 2.944300 1_455
O34 P6 1.533409 1_655
O34 V1 1.985721 1_555
O34 Rb1 2.944300 1_655
O35 P7 1.533409 1_655
O35 V0 1.985721 1_555
O35 Rb0 2.944300 1_655
O36 P4 1.540439 1_555
O37 P5 1.540439 1_555
O38 P6 1.540439 1_555
O39 P7 1.540439 1_555
