# generated using pymatgen
data_MgCr4O6
_symmetry_space_group_name_H-M   'P 1'
_cell_length_a   5.28343826
_cell_length_b   5.28343826
_cell_length_c   15.24271600
_cell_angle_alpha   90.00000000
_cell_angle_beta   90.00000000
_cell_angle_gamma   147.03179245
_symmetry_Int_Tables_number   1
_chemical_formula_structural   MgCr4O6
_chemical_formula_sum   'Mg2 Cr8 O12'
_cell_volume   231.54376463
_cell_formula_units_Z   2
loop_
 _symmetry_equiv_pos_site_id
 _symmetry_equiv_pos_as_xyz
  1  'x, y, z'
loop_
 _atom_site_type_symbol
 _atom_site_label
 _atom_site_symmetry_multiplicity
 _atom_site_fract_x
 _atom_site_fract_y
 _atom_site_fract_z
 _atom_site_occupancy
  Mg  Mg0  1  0.34094300  0.65905700  0.75000000  1
  Mg  Mg1  1  0.65905700  0.34094300  0.25000000  1
  Cr  Cr0  1  0.13631700  0.86368300  0.04578100  1
  Cr  Cr1  1  0.59480200  0.40519800  0.63648500  1
  Cr  Cr2  1  0.86368300  0.13631700  0.95421900  1
  Cr  Cr3  1  0.40519800  0.59480200  0.36351500  1
  Cr  Cr4  1  0.13631700  0.86368300  0.45421900  1
  Cr  Cr5  1  0.86368300  0.13631700  0.54578100  1
  Cr  Cr6  1  0.40519800  0.59480200  0.13648500  1
  Cr  Cr7  1  0.59480200  0.40519800  0.86351500  1
  O  O0  1  0.50000000  0.50000000  0.50000000  1
  O  O1  1  0.50000000  0.50000000  0.00000000  1
  O  O2  1  0.95845100  0.04154900  0.83819200  1
  O  O3  1  0.04154900  0.95845100  0.16180800  1
  O  O4  1  0.04154900  0.95845100  0.33819200  1
  O  O5  1  0.95845100  0.04154900  0.66180800  1
  O  O6  1  0.21348500  0.78651500  0.91804600  1
  O  O7  1  0.78651500  0.21348500  0.08195400  1
  O  O8  1  0.78651500  0.21348500  0.41804600  1
  O  O9  1  0.21348500  0.78651500  0.58195400  1
  O  O10  1  0.69858100  0.30141900  0.75000000  1
  O  O11  1  0.30141900  0.69858100  0.25000000  1
loop_
_geom_bond_atom_site_label_1
_geom_bond_atom_site_label_2
_geom_bond_distance
_geom_bond_site_symmetry_2
Mg0 O10 2.080457 1_455
Mg0 O10 2.080457 1_565
Mg0 O2 2.339292 1_565
Mg0 O2 2.339292 1_455
Mg0 O5 2.339292 1_565
Mg0 O5 2.339292 1_455
Mg1 O11 2.080457 1_545
Mg1 O11 2.080457 1_655
Mg1 O4 2.339292 1_655
Mg1 O4 2.339292 1_545
Mg1 O3 2.339292 1_655
Mg1 O3 2.339292 1_545
Cr0 O3 2.012435 1_555
Cr0 O6 2.098166 1_554
Cr0 O1 2.154601 1_565
Cr0 O1 2.154601 1_455
Cr0 O7 2.206282 1_565
Cr0 O7 2.206282 1_455
Cr1 O10 2.024749 1_555
Cr1 O5 2.074918 1_565
Cr1 O5 2.074918 1_455
Cr1 O9 2.093936 1_655
Cr1 O9 2.093936 1_545
Cr1 O0 2.291463 1_555
Cr2 O2 2.012435 1_555
Cr2 O7 2.098166 1_556
Cr2 O1 2.154601 1_656
Cr2 O1 2.154601 1_546
Cr2 O6 2.206282 1_655
Cr2 O6 2.206282 1_545
Cr3 O11 2.024749 1_555
Cr3 O4 2.074918 1_655
Cr3 O4 2.074918 1_545
Cr3 O8 2.093936 1_565
Cr3 O8 2.093936 1_455
Cr3 O0 2.291463 1_555
Cr4 O4 2.012435 1_555
Cr4 O9 2.098166 1_555
Cr4 O0 2.154601 1_565
Cr4 O0 2.154601 1_455
Cr4 O8 2.206282 1_565
Cr4 O8 2.206282 1_455
Cr5 O5 2.012435 1_555
Cr5 O8 2.098166 1_555
Cr5 O0 2.154601 1_545
Cr5 O0 2.154601 1_655
Cr5 O9 2.206282 1_655
Cr5 O9 2.206282 1_545
Cr6 O11 2.024749 1_555
Cr6 O3 2.074918 1_655
Cr6 O3 2.074918 1_545
Cr6 O7 2.093936 1_565
Cr6 O7 2.093936 1_455
Cr6 O1 2.291463 1_555
Cr7 O10 2.024749 1_555
Cr7 O2 2.074918 1_565
Cr7 O2 2.074918 1_455
Cr7 O6 2.093936 1_655
Cr7 O6 2.093936 1_545
Cr7 O1 2.291463 1_556
