# generated using pymatgen
data_Ba8Eu(BN2)6
_symmetry_space_group_name_H-M   'P 1'
_cell_length_a   8.03076400
_cell_length_b   8.03076400
_cell_length_c   8.03076400
_cell_angle_alpha   90.00000000
_cell_angle_beta   90.00000000
_cell_angle_gamma   90.00000000
_symmetry_Int_Tables_number   1
_chemical_formula_structural   Ba8Eu(BN2)6
_chemical_formula_sum   'Ba8 Eu1 B6 N12'
_cell_volume   517.92943128
_cell_formula_units_Z   1
loop_
 _symmetry_equiv_pos_site_id
 _symmetry_equiv_pos_as_xyz
  1  'x, y, z'
loop_
 _atom_site_type_symbol
 _atom_site_label
 _atom_site_symmetry_multiplicity
 _atom_site_fract_x
 _atom_site_fract_y
 _atom_site_fract_z
 _atom_site_occupancy
  Ba  Ba0  1  0.73820700  0.73820700  0.26179300  1
  Ba  Ba1  1  0.26179300  0.26179300  0.73820700  1
  Ba  Ba2  1  0.26179300  0.73820700  0.26179300  1
  Ba  Ba3  1  0.73820700  0.26179300  0.73820700  1
  Ba  Ba4  1  0.26179300  0.73820700  0.73820700  1
  Ba  Ba5  1  0.73820700  0.26179300  0.26179300  1
  Ba  Ba6  1  0.73820700  0.73820700  0.73820700  1
  Ba  Ba7  1  0.26179300  0.26179300  0.26179300  1
  Eu  Eu0  1  0.00000000  0.00000000  0.00000000  1
  B  B0  1  0.50000000  0.00000000  0.00000000  1
  B  B1  1  0.00000000  0.50000000  0.50000000  1
  B  B2  1  0.00000000  0.00000000  0.50000000  1
  B  B3  1  0.50000000  0.50000000  0.00000000  1
  B  B4  1  0.50000000  0.00000000  0.50000000  1
  B  B5  1  0.00000000  0.50000000  0.00000000  1
  N  N0  1  0.50000000  0.50000000  0.16780200  1
  N  N1  1  0.00000000  0.00000000  0.66982000  1
  N  N2  1  0.00000000  0.33018000  0.00000000  1
  N  N3  1  0.50000000  0.83219800  0.50000000  1
  N  N4  1  0.83219800  0.50000000  0.50000000  1
  N  N5  1  0.33018000  0.00000000  0.00000000  1
  N  N6  1  0.50000000  0.50000000  0.83219800  1
  N  N7  1  0.00000000  0.00000000  0.33018000  1
  N  N8  1  0.00000000  0.66982000  0.00000000  1
  N  N9  1  0.50000000  0.16780200  0.50000000  1
  N  N10  1  0.66982000  0.00000000  0.00000000  1
  N  N11  1  0.16780200  0.50000000  0.50000000  1
loop_
_geom_bond_atom_site_label_1
_geom_bond_atom_site_label_2
_geom_bond_distance
_geom_bond_site_symmetry_2
Ba0 N4 2.808695 1_555
Ba0 N3 2.808695 1_555
Ba0 N0 2.808695 1_555
Ba0 N10 3.023537 1_565
Ba0 N8 3.023537 1_655
Ba0 N7 3.023537 1_665
Ba1 N6 2.808695 1_555
Ba1 N11 2.808695 1_555
Ba1 N9 2.808695 1_555
Ba1 N1 3.023537 1_555
Ba1 N5 3.023537 1_556
Ba1 N2 3.023537 1_556
Ba2 N3 2.808695 1_555
Ba2 N11 2.808695 1_555
Ba2 N0 2.808695 1_555
Ba2 N8 3.023537 1_555
Ba2 N5 3.023537 1_565
Ba2 N7 3.023537 1_565
Ba3 N4 2.808695 1_555
Ba3 N6 2.808695 1_555
Ba3 N9 2.808695 1_555
Ba3 N10 3.023537 1_556
Ba3 N1 3.023537 1_655
Ba3 N2 3.023537 1_656
Ba4 N6 2.808695 1_555
Ba4 N3 2.808695 1_555
Ba4 N11 2.808695 1_555
Ba4 N1 3.023537 1_565
Ba4 N8 3.023537 1_556
Ba4 N5 3.023537 1_566
Ba5 N4 2.808695 1_555
Ba5 N9 2.808695 1_555
Ba5 N0 2.808695 1_555
Ba5 N10 3.023537 1_555
Ba5 N2 3.023537 1_655
Ba5 N7 3.023537 1_655
Ba6 N4 2.808695 1_555
Ba6 N6 2.808695 1_555
Ba6 N3 2.808695 1_555
Ba6 N10 3.023537 1_566
Ba6 N8 3.023537 1_656
Ba6 N1 3.023537 1_665
Ba7 N9 2.808695 1_555
Ba7 N0 2.808695 1_555
Ba7 N11 2.808695 1_555
Ba7 N5 3.023537 1_555
Ba7 N2 3.023537 1_555
Ba7 N7 3.023537 1_555
Eu0 N8 2.651598 1_545
Eu0 N10 2.651598 1_455
Eu0 N1 2.651598 1_554
Eu0 N7 2.651598 1_555
Eu0 N5 2.651598 1_555
Eu0 N2 2.651598 1_555
B0 N5 1.363784 1_555
B0 N10 1.363784 1_555
B1 N11 1.347578 1_555
B1 N4 1.347578 1_455
B2 N7 1.363784 1_555
B2 N1 1.363784 1_555
B3 N0 1.347578 1_555
B3 N6 1.347578 1_554
B4 N9 1.347578 1_555
B4 N3 1.347578 1_545
B5 N2 1.363784 1_555
B5 N8 1.363784 1_555
