# generated using pymatgen
data_KMn4O8
_symmetry_space_group_name_H-M   'P 1'
_cell_length_a   7.06489525
_cell_length_b   7.06489685
_cell_length_c   7.06485700
_cell_angle_alpha   92.43927084
_cell_angle_beta   92.43987567
_cell_angle_gamma   156.18696988
_symmetry_Int_Tables_number   1
_chemical_formula_structural   KMn4O8
_chemical_formula_sum   'K1 Mn4 O8'
_cell_volume   139.31107612
_cell_formula_units_Z   1
loop_
 _symmetry_equiv_pos_site_id
 _symmetry_equiv_pos_as_xyz
  1  'x, y, z'
loop_
 _atom_site_type_symbol
 _atom_site_label
 _atom_site_symmetry_multiplicity
 _atom_site_fract_x
 _atom_site_fract_y
 _atom_site_fract_z
 _atom_site_occupancy
  K  K0  1  0.50000226  0.50000025  0.00000225  1
  Mn  Mn0  1  0.34926712  0.83349489  0.18276287  1
  Mn  Mn1  1  0.83349189  0.65073155  0.48422243  1
  Mn  Mn2  1  0.16651114  0.34926649  0.51577901  1
  Mn  Mn3  1  0.65072569  0.16650670  0.81723242  1
  O  O0  1  0.16542858  0.54265267  0.70808117  1
  O  O1  1  0.54264288  0.83457186  0.37721564  1
  O  O2  1  0.45735737  0.16542566  0.62278274  1
  O  O3  1  0.83456975  0.45735674  0.29192717  1
  O  O4  1  0.84682377  0.20116784  0.04799237  1
  O  O5  1  0.20116879  0.15316910  0.35433664  1
  O  O6  1  0.15317437  0.79882831  0.95200041  1
  O  O7  1  0.79883538  0.84682698  0.64566388  1
loop_
_geom_bond_atom_site_label_1
_geom_bond_atom_site_label_2
_geom_bond_distance
_geom_bond_site_symmetry_2
K0 O5 2.869587 1_555
K0 O5 2.869595 1_665
K0 O7 2.869606 1_554
K0 O7 2.869616 1_444
K0 O6 2.869665 1_544
K0 O6 2.869665 1_654
K0 O4 2.869667 1_455
K0 O4 2.869668 1_565
Mn0 O1 1.890522 1_555
Mn0 O3 1.900404 1_455
Mn0 O3 1.900409 1_565
Mn0 O6 1.946797 1_554
Mn0 O4 1.949035 1_565
Mn0 O4 1.949040 1_455
Mn1 O3 1.890515 1_555
Mn1 O2 1.900423 1_555
Mn1 O2 1.900425 1_665
Mn1 O7 1.946812 1_555
Mn1 O5 1.949005 1_665
Mn1 O5 1.949008 1_555
Mn2 O0 1.890627 1_555
Mn2 O1 1.900440 1_555
Mn2 O1 1.900443 1_445
Mn2 O5 1.946833 1_555
Mn2 O7 1.949013 1_445
Mn2 O7 1.949015 1_555
Mn3 O2 1.890450 1_555
Mn3 O0 1.900361 1_655
Mn3 O0 1.900365 1_545
Mn3 O4 1.946826 1_556
Mn3 O6 1.948990 1_545
Mn3 O6 1.949000 1_655
