# generated using pymatgen
data_MgTi3V5O16
_symmetry_space_group_name_H-M   'P 1'
_cell_length_a   5.92048100
_cell_length_b   5.96086003
_cell_length_c   9.42877921
_cell_angle_alpha   89.57410682
_cell_angle_beta   91.25442949
_cell_angle_gamma   120.59526297
_symmetry_Int_Tables_number   1
_chemical_formula_structural   MgTi3V5O16
_chemical_formula_sum   'Mg1 Ti3 V5 O16'
_cell_volume   286.35679475
_cell_formula_units_Z   1
loop_
 _symmetry_equiv_pos_site_id
 _symmetry_equiv_pos_as_xyz
  1  'x, y, z'
loop_
 _atom_site_type_symbol
 _atom_site_label
 _atom_site_symmetry_multiplicity
 _atom_site_fract_x
 _atom_site_fract_y
 _atom_site_fract_z
 _atom_site_occupancy
  Mg  Mg0  1  0.64096900  0.81505000  0.94911600  1
  Ti  Ti0  1  0.13697800  0.80802500  0.20206800  1
  Ti  Ti1  1  0.22074600  0.34123700  0.21031300  1
  Ti  Ti2  1  0.32974900  0.15993600  0.73241800  1
  V  V0  1  0.32166000  0.65995800  0.48760100  1
  V  V1  1  0.67341600  0.88640000  0.24454100  1
  V  V2  1  0.68653300  0.33383200  0.98523200  1
  V  V3  1  0.83561100  0.17168200  0.69270500  1
  V  V4  1  0.83371700  0.65851300  0.69272400  1
  O  O0  1  0.14297300  0.82008900  0.60574200  1
  O  O1  1  0.05641300  0.53230500  0.32433100  1
  O  O2  1  0.36790000  0.69534800  0.10599400  1
  O  O3  1  0.03191200  0.01471100  0.31231500  1
  O  O4  1  0.96870200  0.98104800  0.81392900  1
  O  O5  1  0.14392600  0.31979000  0.60560000  1
  O  O6  1  0.49667600  0.97848200  0.34850600  1
  O  O7  1  0.49534900  0.54000100  0.34066100  1
  O  O8  1  0.35774100  0.17644200  0.10407800  1
  O  O9  1  0.64210200  0.81843200  0.60652900  1
  O  O10  1  0.51187400  0.47592400  0.83963000  1
  O  O11  1  0.51243000  0.02449000  0.83861900  1
  O  O12  1  0.62514300  0.31064200  0.60682700  1
  O  O13  1  0.83602800  0.68323600  0.09149900  1
  O  O14  1  0.93774800  0.46498800  0.82471400  1
  O  O15  1  0.84995600  0.16296800  0.10003100  1
loop_
_geom_bond_atom_site_label_1
_geom_bond_atom_site_label_2
_geom_bond_distance
_geom_bond_site_symmetry_2
Mg0 O11 2.033784 1_565
Mg0 O10 2.039600 1_555
Mg0 O2 2.055611 1_556
Mg0 O4 2.122234 1_555
Mg0 O13 2.143229 1_556
Mg0 O15 2.282855 1_566
O0 V4 1.792073 1_455
O0 V0 2.089601 1_555
O0 Ti2 2.109743 1_565
O1 Ti0 1.858907 1_555
O1 V0 2.027357 1_555
O1 Ti1 2.142771 1_555
O2 V1 2.024100 1_555
O2 Ti0 2.034418 1_555
O2 Ti1 2.077663 1_555
O3 Ti1 1.940988 1_555
O3 V1 1.947720 1_445
O3 Ti0 1.952650 1_545
O4 Ti2 2.009089 1_665
O4 V4 2.017343 1_555
O4 V3 2.017749 1_565
O5 V3 1.788953 1_455
O5 V0 2.074229 1_555
O5 Ti2 2.130887 1_555
O6 V1 1.730514 1_555
O6 V0 2.102018 1_555
O6 Ti0 2.272320 1_555
O7 Ti1 1.879041 1_555
O7 V1 1.998616 1_555
O7 V0 2.076981 1_555
O8 Ti1 1.867448 1_555
O8 V2 2.036170 1_554
O8 Ti0 2.117926 1_545
O9 V0 1.961460 1_555
O9 V4 1.976138 1_555
O9 V3 1.983841 1_565
O10 Ti2 1.909319 1_555
O10 V2 2.117430 1_555
O10 V4 2.171651 1_555
O11 Ti2 1.911484 1_555
O11 V2 2.101029 1_555
O11 V3 2.170731 1_555
O12 Ti2 1.934794 1_555
O12 V4 1.963493 1_555
O12 V3 1.972557 1_555
O13 Ti0 1.842806 1_655
O13 V2 2.059337 1_554
O13 V1 2.397780 1_555
O14 V3 1.973537 1_555
O14 V4 1.981722 1_555
O14 V2 2.002820 1_555
O15 V1 1.985389 1_545
O15 V2 2.021378 1_554
O15 Ti1 2.138095 1_655
