# generated using pymatgen
data_EuV2IO9
_symmetry_space_group_name_H-M   'P 1'
_cell_length_a   7.10456800
_cell_length_b   7.29364900
_cell_length_c   14.71382200
_cell_angle_alpha   90.00000000
_cell_angle_beta   90.00000000
_cell_angle_gamma   90.00000000
_symmetry_Int_Tables_number   1
_chemical_formula_structural   EuV2IO9
_chemical_formula_sum   'Eu4 V8 I4 O36'
_cell_volume   762.44414325
_cell_formula_units_Z   4
loop_
 _symmetry_equiv_pos_site_id
 _symmetry_equiv_pos_as_xyz
  1  'x, y, z'
loop_
 _atom_site_type_symbol
 _atom_site_label
 _atom_site_symmetry_multiplicity
 _atom_site_fract_x
 _atom_site_fract_y
 _atom_site_fract_z
 _atom_site_occupancy
  Eu  Eu0  1  0.85128500  0.25000000  0.95244800  1
  Eu  Eu1  1  0.14871500  0.75000000  0.04755200  1
  Eu  Eu2  1  0.85128500  0.75000000  0.54755200  1
  Eu  Eu3  1  0.14871500  0.25000000  0.45244800  1
  V  V0  1  0.46079700  0.00000000  0.25000000  1
  V  V1  1  0.53920300  0.50000000  0.75000000  1
  V  V2  1  0.53920300  0.00000000  0.75000000  1
  V  V3  1  0.46079700  0.50000000  0.25000000  1
  V  V4  1  0.81648700  0.25000000  0.22851400  1
  V  V5  1  0.18351300  0.75000000  0.77148600  1
  V  V6  1  0.81648700  0.75000000  0.27148600  1
  V  V7  1  0.18351300  0.25000000  0.72851400  1
  I  I0  1  0.29788600  0.25000000  0.05365200  1
  I  I1  1  0.70211400  0.75000000  0.94634800  1
  I  I2  1  0.29788600  0.75000000  0.44634800  1
  I  I3  1  0.70211400  0.25000000  0.55365200  1
  O  O0  1  0.17337100  0.06962300  0.98870600  1
  O  O1  1  0.82662900  0.56962300  0.01129400  1
  O  O2  1  0.17337100  0.93037700  0.51129400  1
  O  O3  1  0.82662900  0.43037700  0.48870600  1
  O  O4  1  0.82662900  0.93037700  0.01129400  1
  O  O5  1  0.17337100  0.43037700  0.98870600  1
  O  O6  1  0.82662900  0.06962300  0.48870600  1
  O  O7  1  0.17337100  0.56962300  0.51129400  1
  O  O8  1  0.52618200  0.25000000  0.99857100  1
  O  O9  1  0.47381800  0.75000000  0.00142900  1
  O  O10  1  0.52618200  0.75000000  0.50142900  1
  O  O11  1  0.47381800  0.25000000  0.49857100  1
  O  O12  1  0.32532400  0.95479200  0.15812900  1
  O  O13  1  0.67467600  0.45479200  0.84187100  1
  O  O14  1  0.32532400  0.04520800  0.34187100  1
  O  O15  1  0.67467600  0.54520800  0.65812900  1
  O  O16  1  0.67467600  0.04520800  0.84187100  1
  O  O17  1  0.32532400  0.54520800  0.15812900  1
  O  O18  1  0.67467600  0.95479200  0.65812900  1
  O  O19  1  0.32532400  0.45479200  0.34187100  1
  O  O20  1  0.52854500  0.75000000  0.28055000  1
  O  O21  1  0.47145500  0.25000000  0.71945000  1
  O  O22  1  0.52854500  0.25000000  0.21945000  1
  O  O23  1  0.47145500  0.75000000  0.78055000  1
  O  O24  1  0.73634100  0.00000000  0.25000000  1
  O  O25  1  0.26365900  0.50000000  0.75000000  1
  O  O26  1  0.26365900  0.00000000  0.75000000  1
  O  O27  1  0.73634100  0.50000000  0.25000000  1
  O  O28  1  0.98631200  0.25000000  0.30730100  1
  O  O29  1  0.01368800  0.75000000  0.69269900  1
  O  O30  1  0.98631200  0.75000000  0.19269900  1
  O  O31  1  0.01368800  0.25000000  0.80730100  1
  O  O32  1  0.91880700  0.25000000  0.12529900  1
  O  O33  1  0.08119300  0.75000000  0.87470100  1
  O  O34  1  0.91880700  0.75000000  0.37470100  1
  O  O35  1  0.08119300  0.25000000  0.62529900  1
loop_
_geom_bond_atom_site_label_1
_geom_bond_atom_site_label_2
_geom_bond_distance
_geom_bond_site_symmetry_2
Eu0 O8 2.407353 1_555
Eu0 O31 2.427413 1_655
Eu0 O1 2.492982 1_556
Eu0 O4 2.492982 1_546
Eu0 O13 2.540196 1_555
Eu0 O16 2.540196 1_555
Eu0 O32 2.588145 1_556
Eu0 O5 2.692893 1_655
Eu0 O0 2.692893 1_655
Eu1 O9 2.407353 1_555
Eu1 O30 2.427413 1_455
Eu1 O0 2.492982 1_564
Eu1 O5 2.492982 1_554
Eu1 O12 2.540196 1_555
Eu1 O17 2.540196 1_555
Eu1 O33 2.588145 1_554
Eu1 O4 2.692893 1_455
Eu1 O1 2.692893 1_455
Eu2 O10 2.407353 1_555
Eu2 O29 2.427413 1_655
Eu2 O6 2.492982 1_565
Eu2 O3 2.492982 1_555
Eu2 O18 2.540196 1_555
Eu2 O15 2.540196 1_555
Eu2 O34 2.588145 1_555
Eu2 O2 2.692893 1_655
Eu2 O7 2.692893 1_655
Eu3 O11 2.407353 1_555
Eu3 O28 2.427413 1_455
Eu3 O7 2.492982 1_555
Eu3 O2 2.492982 1_545
Eu3 O19 2.540196 1_555
Eu3 O14 2.540196 1_555
Eu3 O35 2.588145 1_555
Eu3 O3 2.692893 1_455
Eu3 O6 2.692893 1_455
I0 O8 1.813156 1_554
I0 O5 1.851097 1_554
I0 O0 1.851097 1_554
I1 O9 1.813156 1_556
I1 O4 1.851097 1_556
I1 O1 1.851097 1_556
I2 O10 1.813156 1_555
I2 O7 1.851097 1_555
I2 O2 1.851097 1_555
I3 O11 1.813156 1_555
I3 O3 1.851097 1_555
I3 O6 1.851097 1_555
O12 V0 1.691856 1_565
O13 V1 1.691856 1_555
O14 V0 1.691856 1_555
O15 V1 1.691856 1_555
O16 V2 1.691856 1_555
O17 V3 1.691856 1_555
O18 V2 1.691856 1_565
O19 V3 1.691856 1_555
O20 V3 1.938700 1_555
O20 V0 1.938700 1_565
O20 V6 2.050046 1_555
O21 V2 1.938700 1_555
O21 V1 1.938700 1_555
O21 V7 2.050046 1_555
O22 V3 1.938700 1_555
O22 V0 1.938700 1_555
O22 V4 2.050046 1_555
O23 V1 1.938700 1_555
O23 V2 1.938700 1_565
O23 V5 2.050046 1_555
O24 V6 1.936233 1_545
O24 V4 1.936233 1_555
O24 V0 1.957621 1_555
O25 V7 1.936233 1_555
O25 V5 1.936233 1_555
O25 V1 1.957621 1_555
O26 V5 1.936233 1_545
O26 V7 1.936233 1_555
O26 V2 1.957621 1_555
O27 V6 1.936233 1_555
O27 V4 1.936233 1_555
O27 V3 1.957621 1_555
O28 V4 1.673201 1_555
O29 V5 1.673201 1_555
O30 V6 1.673201 1_555
O31 V7 1.673201 1_555
O32 V4 1.683702 1_555
O33 V5 1.683702 1_555
O34 V6 1.683702 1_555
O35 V7 1.683702 1_555
