# generated using pymatgen
data_RbB3O5
_symmetry_space_group_name_H-M   'P 1'
_cell_length_a   6.70474755
_cell_length_b   6.70474755
_cell_length_c   9.30837215
_cell_angle_alpha   80.19793455
_cell_angle_beta   80.19793455
_cell_angle_gamma   83.91829487
_symmetry_Int_Tables_number   1
_chemical_formula_structural   RbB3O5
_chemical_formula_sum   'Rb4 B12 O20'
_cell_volume   405.03895896
_cell_formula_units_Z   4
loop_
 _symmetry_equiv_pos_site_id
 _symmetry_equiv_pos_as_xyz
  1  'x, y, z'
loop_
 _atom_site_type_symbol
 _atom_site_label
 _atom_site_symmetry_multiplicity
 _atom_site_fract_x
 _atom_site_fract_y
 _atom_site_fract_z
 _atom_site_occupancy
  Rb  Rb0  1  0.26597600  0.57715400  0.94560900  1
  Rb  Rb1  1  0.42284600  0.73402400  0.55439100  1
  Rb  Rb2  1  0.73402400  0.42284600  0.05439100  1
  Rb  Rb3  1  0.57715400  0.26597600  0.44560900  1
  B  B0  1  0.80730600  0.79056000  0.73483400  1
  B  B1  1  0.20944000  0.19269400  0.76516600  1
  B  B2  1  0.19269400  0.20944000  0.26516600  1
  B  B3  1  0.79056000  0.80730600  0.23483400  1
  B  B4  1  0.93209300  0.42857300  0.68008900  1
  B  B5  1  0.57142700  0.06790700  0.81991100  1
  B  B6  1  0.06790700  0.57142700  0.31991100  1
  B  B7  1  0.42857300  0.93209300  0.18008900  1
  B  B8  1  0.03409300  0.11252800  0.56783000  1
  B  B9  1  0.88747200  0.96590700  0.93217000  1
  B  B10  1  0.96590700  0.88747200  0.43217000  1
  B  B11  1  0.11252800  0.03409300  0.06783000  1
  O  O0  1  0.92670700  0.91057000  0.59595100  1
  O  O1  1  0.08943000  0.07329300  0.90404900  1
  O  O2  1  0.07329300  0.08943000  0.40404900  1
  O  O3  1  0.91057000  0.92670700  0.09595100  1
  O  O4  1  0.90433500  0.78937600  0.86317000  1
  O  O5  1  0.21062400  0.09566500  0.63683000  1
  O  O6  1  0.09566500  0.21062400  0.13683000  1
  O  O7  1  0.78937600  0.90433500  0.36317000  1
  O  O8  1  0.10508900  0.40091900  0.74518100  1
  O  O9  1  0.59908100  0.89491100  0.75481900  1
  O  O10  1  0.89491100  0.59908100  0.25481900  1
  O  O11  1  0.40091900  0.10508900  0.24518100  1
  O  O12  1  0.78877800  0.58886400  0.69989800  1
  O  O13  1  0.41113600  0.21122200  0.80010200  1
  O  O14  1  0.21122200  0.41113600  0.30010200  1
  O  O15  1  0.58886400  0.78877800  0.19989800  1
  O  O16  1  0.89415200  0.28809000  0.59604700  1
  O  O17  1  0.71191000  0.10584800  0.90395300  1
  O  O18  1  0.10584800  0.71191000  0.40395300  1
  O  O19  1  0.28809000  0.89415200  0.09604700  1
loop_
_geom_bond_atom_site_label_1
_geom_bond_atom_site_label_2
_geom_bond_distance
_geom_bond_site_symmetry_2
B0 O4 1.452805 1_555
B0 O12 1.465962 1_555
B0 O9 1.490675 1_555
B0 O0 1.545806 1_555
B1 O5 1.452805 1_555
B1 O13 1.465962 1_555
B1 O8 1.490675 1_555
B1 O1 1.545806 1_555
B2 O6 1.452805 1_555
B2 O14 1.465962 1_555
B2 O11 1.490675 1_555
B2 O2 1.545806 1_555
B3 O7 1.452805 1_555
B3 O15 1.465962 1_555
B3 O10 1.490675 1_555
B3 O3 1.545806 1_555
B4 O12 1.378638 1_555
B4 O8 1.379245 1_655
B4 O16 1.390430 1_555
B5 O13 1.378638 1_555
B5 O9 1.379245 1_545
B5 O17 1.390430 1_555
B6 O14 1.378638 1_555
B6 O10 1.379245 1_455
B6 O18 1.390430 1_555
B7 O15 1.378638 1_555
B7 O11 1.379245 1_565
B7 O19 1.390430 1_555
B8 O5 1.425469 1_555
B8 O16 1.456789 1_455
B8 O2 1.533819 1_555
B8 O0 1.562742 1_445
B9 O4 1.425469 1_555
B9 O17 1.456789 1_565
B9 O3 1.533819 1_556
B9 O1 1.562742 1_665
B10 O7 1.425469 1_555
B10 O18 1.456789 1_655
B10 O0 1.533819 1_555
B10 O2 1.562742 1_665
B11 O6 1.425469 1_555
B11 O19 1.456789 1_545
B11 O1 1.533819 1_554
B11 O3 1.562742 1_445
O4 Rb0 2.832564 1_655
O4 Rb2 2.987408 1_556
O5 Rb1 2.832564 1_545
O5 Rb3 2.987408 1_555
O6 Rb2 2.832564 1_455
O6 Rb0 2.987408 1_554
O7 Rb3 2.832564 1_565
O7 Rb1 2.987408 1_555
O8 Rb0 2.783238 1_555
O8 Rb1 3.324209 1_555
O9 Rb1 2.783238 1_555
O9 Rb0 3.324209 1_555
O10 Rb2 2.783238 1_555
O10 Rb3 3.324209 1_555
O11 Rb3 2.783238 1_555
O11 Rb2 3.324209 1_555
O12 Rb1 2.996324 1_555
O12 Rb2 3.268893 1_556
O13 Rb0 2.996324 1_555
O13 Rb3 3.268893 1_555
O14 Rb3 2.996324 1_555
O14 Rb0 3.268893 1_554
O15 Rb2 2.996324 1_555
O15 Rb1 3.268893 1_555
O16 Rb3 2.766055 1_555
O17 Rb2 2.766055 1_556
O18 Rb1 2.766055 1_555
O19 Rb0 2.766055 1_554
