# generated using pymatgen
data_Sr3Nd10Al12Si18(N2O)18
_symmetry_space_group_name_H-M   'P 1'
_cell_length_a   11.69800718
_cell_length_b   11.67457780
_cell_length_c   11.67457772
_cell_angle_alpha   109.39036602
_cell_angle_beta   109.36046096
_cell_angle_gamma   109.36045794
_symmetry_Int_Tables_number   1
_chemical_formula_structural   Sr3Nd10Al12Si18(N2O)18
_chemical_formula_sum   'Sr3 Nd10 Al12 Si18 N36 O18'
_cell_volume   1231.91992514
_cell_formula_units_Z   1
loop_
 _symmetry_equiv_pos_site_id
 _symmetry_equiv_pos_as_xyz
  1  'x, y, z'
loop_
 _atom_site_type_symbol
 _atom_site_label
 _atom_site_symmetry_multiplicity
 _atom_site_fract_x
 _atom_site_fract_y
 _atom_site_fract_z
 _atom_site_occupancy
  Sr  Sr0  1  0.67988088  0.42389889  0.99774793  1
  Sr  Sr1  1  0.67988088  0.99774793  0.42389889  1
  Sr  Sr2  1  0.91906417  0.97594220  0.97594220  1
  Nd  Nd0  1  0.25347483  0.57562529  0.57562529  1
  Nd  Nd1  1  0.32992388  0.75084788  0.32500463  1
  Nd  Nd2  1  0.32992388  0.32500463  0.75084788  1
  Nd  Nd3  1  0.42053815  0.00229340  0.67203925  1
  Nd  Nd4  1  0.42053815  0.67203925  0.00229340  1
  Nd  Nd5  1  0.57956650  0.57267100  0.24982431  1
  Nd  Nd6  1  0.57956650  0.24982431  0.57267100  1
  Nd  Nd7  1  0.74917314  0.32964764  0.32964764  1
  Nd  Nd8  1  0.00108473  0.67563956  0.42490835  1
  Nd  Nd9  1  0.00108473  0.42490835  0.67563956  1
  Al  Al0  1  0.16257334  0.99955816  0.75440439  1
  Al  Al1  1  0.00093013  0.75534012  0.16263197  1
  Al  Al2  1  0.00093013  0.16263197  0.75534012  1
  Al  Al3  1  0.16257334  0.75440439  0.99955816  1
  Al  Al4  1  0.58641286  0.83645759  0.83645759  1
  Al  Al5  1  0.25009739  0.24916170  0.41288167  1
  Al  Al6  1  0.25009739  0.41288167  0.24916170  1
  Al  Al7  1  0.41146156  0.24815039  0.24815039  1
  Al  Al8  1  0.83775441  0.59086743  0.83784615  1
  Al  Al9  1  0.83775441  0.83784615  0.59086743  1
  Al  Al10  1  0.75489368  0.00092869  0.16346974  1
  Al  Al11  1  0.75489368  0.16346974  0.00092869  1
  Si  Si0  1  0.00053386  0.69819862  0.69819862  1
  Si  Si1  1  0.29979008  0.83818547  0.83818547  1
  Si  Si2  1  0.00155648  0.16089396  0.46230907  1
  Si  Si3  1  0.30244790  0.00000032  0.30063340  1
  Si  Si4  1  0.16095946  0.99861766  0.46118062  1
  Si  Si5  1  0.16095946  0.46118062  0.99861766  1
  Si  Si6  1  0.53915235  0.70080696  0.54007501  1
  Si  Si7  1  0.53915235  0.54007501  0.70080696  1
  Si  Si8  1  0.30244790  0.30063340  0.00000032  1
  Si  Si9  1  0.70041549  0.53931588  0.53931588  1
  Si  Si10  1  0.46266012  0.99919227  0.16009007  1
  Si  Si11  1  0.46266012  0.16009007  0.99919227  1
  Si  Si12  1  0.84048445  0.84222328  0.30185259  1
  Si  Si13  1  0.84048445  0.30185259  0.84222328  1
  Si  Si14  1  0.70053044  0.70076288  0.00087218  1
  Si  Si15  1  0.70053044  0.00087218  0.70076288  1
  Si  Si16  1  0.00155648  0.46230907  0.16089396  1
  Si  Si17  1  0.00257197  0.30110541  0.30110541  1
  N  N0  1  0.99991361  0.68115296  0.83874380  1
  N  N1  1  0.99991361  0.83874380  0.68115296  1
  N  N2  1  0.14595476  0.69372655  0.69372655  1
  N  N3  1  0.99952538  0.30453610  0.44982622  1
  N  N4  1  0.15965052  0.84585872  0.15860123  1
  N  N5  1  0.15965052  0.15860123  0.84585872  1
  N  N6  1  0.15298204  0.48070375  0.15098504  1
  N  N7  1  0.15298204  0.15098504  0.48070375  1
  N  N8  1  0.15896801  0.31647883  0.31647883  1
  N  N9  1  0.44992838  0.99767392  0.30249784  1
  N  N10  1  0.32763454  0.99906902  0.84938752  1
  N  N11  1  0.32763454  0.84938752  0.99906902  1
  N  N12  1  0.69577346  0.84683307  0.99851669  1
  N  N13  1  0.52588023  0.67503655  0.67503655  1
  N  N14  1  0.55070566  0.85639223  0.55303086  1
  N  N15  1  0.55070566  0.55303086  0.85639223  1
  N  N16  1  0.32503696  0.16195952  0.32520745  1
  N  N17  1  0.32503696  0.32520745  0.16195952  1
  N  N18  1  0.30161488  0.99222085  0.44643195  1
  N  N19  1  0.30161488  0.44643195  0.99222085  1
  N  N20  1  0.67181388  0.52182406  0.67233375  1
  N  N21  1  0.67181388  0.67233375  0.52182406  1
  N  N22  1  0.84766943  0.00005943  0.70081021  1
  N  N23  1  0.44992838  0.30249784  0.99767392  1
  N  N24  1  0.47876425  0.15028883  0.15028883  1
  N  N25  1  0.69577346  0.99851669  0.84683307  1
  N  N26  1  0.69600049  0.70072522  0.14729836  1
  N  N27  1  0.69600049  0.14729836  0.70072522  1
  N  N28  1  0.85540377  0.55043797  0.55043797  1
  N  N29  1  0.00005937  0.84918335  0.32915672  1
  N  N30  1  0.00005937  0.32915672  0.84918335  1
  N  N31  1  0.84766943  0.70081021  0.00005943  1
  N  N32  1  0.85474709  0.15378450  0.15378450  1
  N  N33  1  0.85694637  0.00260621  0.32508915  1
  N  N34  1  0.85694637  0.32508915  0.00260621  1
  N  N35  1  0.99952538  0.44982622  0.30453610  1
  O  O0  1  0.25012207  0.74854998  0.50087606  1
  O  O1  1  0.25012207  0.50087606  0.74854998  1
  O  O2  1  0.41964826  0.80925121  0.80925121  1
  O  O3  1  0.18885607  0.99782385  0.60994748  1
  O  O4  1  0.18885607  0.60994748  0.99782385  1
  O  O5  1  0.38742985  0.39667879  0.58110266  1
  O  O6  1  0.38742985  0.58110266  0.39667879  1
  O  O7  1  0.48520606  0.23995591  0.72977698  1
  O  O8  1  0.48520606  0.72977698  0.23995591  1
  O  O9  1  0.60864876  0.99681911  0.18073610  1
  O  O10  1  0.58135500  0.39084295  0.39084295  1
  O  O11  1  0.80913397  0.42269821  0.81701356  1
  O  O12  1  0.80913397  0.81701356  0.42269821  1
  O  O13  1  0.75615531  0.50840397  0.26691899  1
  O  O14  1  0.75615531  0.26691899  0.50840397  1
  O  O15  1  0.60864876  0.18073610  0.99681911  1
  O  O16  1  0.99738951  0.18629079  0.60925796  1
  O  O17  1  0.99738951  0.60925796  0.18629079  1
loop_
_geom_bond_atom_site_label_1
_geom_bond_atom_site_label_2
_geom_bond_distance
_geom_bond_site_symmetry_2
Nd0 O1 2.457305 1_555
Nd0 O0 2.457305 1_555
Nd0 O2 2.585891 1_555
Nd0 O5 3.002802 1_555
Nd0 O6 3.002802 1_555
Nd1 O8 2.382423 1_555
Nd1 O0 2.525612 1_555
Nd1 O6 2.586810 1_555
Nd1 O4 3.141347 1_554
Nd1 O17 3.204596 1_455
Nd2 O7 2.382423 1_555
Nd2 O1 2.525612 1_555
Nd2 O5 2.586810 1_555
Nd2 O3 3.141347 1_545
Nd2 O16 3.204596 1_455
Nd3 O7 2.398644 1_555
Nd3 O0 2.501082 1_545
Nd3 O3 2.540082 1_545
Nd4 O8 2.398644 1_555
Nd4 O1 2.501082 1_554
Nd4 O4 2.540082 1_554
Nd5 O13 2.392434 1_555
Nd5 O8 2.448293 1_555
Nd5 O12 2.631904 1_555
Nd6 O14 2.392434 1_555
Nd6 O7 2.448293 1_555
Nd6 O11 2.631904 1_555
Nd7 O14 2.416526 1_555
Nd7 O13 2.416526 1_555
Nd7 O10 2.528956 1_555
Nd8 O13 2.412307 1_455
Nd8 O0 2.477828 1_555
Nd8 O17 2.612918 1_455
Nd9 O14 2.412307 1_455
Nd9 O1 2.477828 1_555
Nd9 O16 2.612918 1_455
Al0 O3 1.806757 1_555
Al0 N5 1.827193 1_565
Al0 N1 1.833903 1_455
Al0 N10 1.884115 1_555
Al1 O17 1.805572 1_455
Al1 N4 1.832043 1_555
Al1 N31 1.845727 1_455
Al1 N29 1.893726 1_555
Al2 O16 1.805572 1_455
Al2 N5 1.832042 1_555
Al2 N22 1.845728 1_455
Al2 N30 1.893726 1_555
Al3 O4 1.806757 1_555
Al3 N4 1.827193 1_556
Al3 N0 1.833903 1_455
Al3 N11 1.884115 1_555
Al4 O2 1.766015 1_555
Al4 N12 1.836069 1_555
Al4 N25 1.836069 1_555
Al4 N13 1.864556 1_555
Al5 O5 1.797695 1_555
Al5 N16 1.829572 1_555
Al5 N8 1.835221 1_555
Al5 N7 1.888637 1_555
Al6 O6 1.797695 1_555
Al6 N17 1.829572 1_555
Al6 N8 1.835221 1_555
Al6 N6 1.888637 1_555
Al7 O10 1.807528 1_555
Al7 N17 1.836716 1_555
Al7 N16 1.836716 1_555
Al7 N24 1.885862 1_555
Al8 O11 1.794142 1_555
Al8 N0 1.833931 1_555
Al8 N31 1.840906 1_556
Al8 N20 1.895537 1_555
Al9 O12 1.794142 1_555
Al9 N1 1.833931 1_555
Al9 N22 1.840906 1_565
Al9 N21 1.895537 1_555
Al10 O9 1.774917 1_545
Al10 N32 1.844246 1_555
Al10 N12 1.847943 1_544
Al10 N33 1.858015 1_555
Al11 O15 1.774917 1_554
Al11 N32 1.844246 1_555
Al11 N25 1.847943 1_544
Al11 N34 1.858015 1_555
N0 Si0 1.719199 1_655
N1 Si0 1.719199 1_655
N2 Si1 1.736055 1_555
N2 Si0 1.736454 1_555
N2 Nd0 2.534043 1_555
N3 Si17 1.735870 1_655
N3 Si2 1.737929 1_655
N3 Nd9 2.533039 1_655
N3 Nd0 2.964059 1_655
N4 Si3 1.722600 1_565
N4 Nd1 3.049918 1_555
N5 Si8 1.722600 1_556
N5 Nd2 3.049918 1_555
N6 Si5 1.754944 1_554
N6 Si16 1.759950 1_555
N6 Nd1 2.643400 1_555
N7 Si4 1.754944 1_545
N7 Si2 1.759950 1_555
N7 Nd2 2.643400 1_555
N8 Si17 1.718944 1_555
N8 Nd0 3.002599 1_555
N9 Si10 1.722951 1_555
N9 Si3 1.727479 1_565
N9 Sr1 2.591262 1_555
N9 Nd1 2.899751 1_555
N10 Si1 1.747580 1_555
N10 Si11 1.761857 1_565
N10 Nd3 2.643082 1_565
N11 Si1 1.747580 1_555
N11 Si10 1.761857 1_556
N11 Nd4 2.643082 1_556
N12 Si14 1.733485 1_556
N12 Sr2 2.697040 1_555
N13 Si6 1.744472 1_555
N13 Si7 1.744472 1_555
N13 Nd0 2.655151 1_555
N14 Si6 1.726755 1_555
N14 Si15 1.730771 1_565
N14 Nd1 2.535521 1_555
N14 Sr1 2.964543 1_555
N15 Si7 1.726755 1_555
N15 Si14 1.730771 1_556
N15 Nd2 2.535521 1_555
N15 Sr0 2.964543 1_555
N16 Si3 1.727874 1_555
N17 Si8 1.727874 1_555
N18 Si4 1.733003 1_555
N18 Si3 1.737433 1_565
N18 Nd3 2.478490 1_565
N18 Nd1 2.887467 1_555
N19 Si5 1.733003 1_555
N19 Si8 1.737433 1_556
N19 Nd4 2.478490 1_556
N19 Nd2 2.887467 1_555
N20 Si9 1.753566 1_555
N20 Si7 1.754551 1_555
N20 Nd6 2.654089 1_555
N21 Si9 1.753566 1_555
N21 Si6 1.754551 1_555
N21 Nd5 2.654089 1_555
N22 Si15 1.724220 1_555
N22 Sr1 3.162954 1_545
N22 Sr2 3.173617 1_545
N23 Si11 1.722951 1_555
N23 Si8 1.727479 1_556
N23 Sr0 2.591262 1_555
N23 Nd2 2.899751 1_555
N24 Si11 1.757335 1_554
N24 Si10 1.757335 1_545
N24 Nd7 2.660954 1_555
N25 Si15 1.733485 1_565
N25 Sr2 2.697040 1_555
N26 Si14 1.727894 1_555
N26 Si12 1.728843 1_555
N26 Nd5 2.538080 1_555
N26 Sr0 3.026474 1_554
N27 Si15 1.727894 1_555
N27 Si13 1.728843 1_555
N27 Nd6 2.538080 1_555
N27 Sr1 3.026474 1_545
N28 Si0 1.724642 1_655
N28 Si9 1.731334 1_555
N28 Nd7 2.484617 1_555
N29 Si4 1.753810 1_555
N29 Si12 1.755142 1_455
N29 Nd8 2.620252 1_555
N30 Si5 1.753810 1_555
N30 Si13 1.755142 1_455
N30 Nd9 2.620252 1_555
N31 Si14 1.724220 1_555
N31 Sr0 3.162954 1_554
N31 Sr2 3.173617 1_554
N32 Si17 1.731605 1_655
N32 Sr2 2.897697 1_544
N33 Si12 1.733664 1_545
N33 Si2 1.734298 1_655
N33 Sr1 2.678437 1_545
N34 Si13 1.733664 1_554
N34 Si16 1.734298 1_655
N34 Sr0 2.678437 1_554
N35 Si17 1.735870 1_655
N35 Si16 1.737929 1_655
N35 Nd8 2.533039 1_655
N35 Nd0 2.964059 1_655
O2 Si1 1.657220 1_555
O3 Si4 1.661304 1_555
O4 Si5 1.661304 1_555
O5 Si7 1.654594 1_555
O6 Si6 1.654594 1_555
O7 Sr0 2.675419 1_555
O8 Sr1 2.675419 1_555
O9 Si10 1.654766 1_555
O9 Sr1 2.675549 1_555
O10 Si9 1.659085 1_555
O11 Si13 1.660942 1_555
O11 Sr0 2.974576 1_555
O12 Si12 1.660942 1_555
O12 Sr1 2.974576 1_555
O13 Sr0 2.672684 1_554
O14 Sr1 2.672684 1_545
O15 Si11 1.654766 1_555
O15 Sr0 2.675549 1_555
O16 Si2 1.661544 1_655
O16 Sr1 3.067719 1_545
O17 Si16 1.661544 1_655
O17 Sr0 3.067719 1_554
