# generated using pymatgen
data_SmGa3(BO3)4
_symmetry_space_group_name_H-M   'P 1'
_cell_length_a   6.07784260
_cell_length_b   6.07784260
_cell_length_c   6.07784284
_cell_angle_alpha   103.89391753
_cell_angle_beta   103.89391753
_cell_angle_gamma   103.89391032
_symmetry_Int_Tables_number   1
_chemical_formula_structural   SmGa3(BO3)4
_chemical_formula_sum   'Sm1 Ga3 B4 O12'
_cell_volume   200.72945204
_cell_formula_units_Z   1
loop_
 _symmetry_equiv_pos_site_id
 _symmetry_equiv_pos_as_xyz
  1  'x, y, z'
loop_
 _atom_site_type_symbol
 _atom_site_label
 _atom_site_symmetry_multiplicity
 _atom_site_fract_x
 _atom_site_fract_y
 _atom_site_fract_z
 _atom_site_occupancy
  Sm  Sm0  1  0.50000000  0.50000000  0.50000000  1
  Ga  Ga0  1  0.05003600  0.94996400  0.50000000  1
  Ga  Ga1  1  0.94996400  0.50000000  0.05003600  1
  Ga  Ga2  1  0.50000000  0.05003600  0.94996400  1
  B  B0  1  0.44740200  0.55259800  0.00000000  1
  B  B1  1  0.55259800  0.00000000  0.44740200  1
  B  B2  1  0.00000000  0.44740200  0.55259800  1
  B  B3  1  0.00000000  0.00000000  0.00000000  1
  O  O0  1  0.28805700  0.52449900  0.12621700  1
  O  O1  1  0.52449900  0.12621700  0.28805700  1
  O  O2  1  0.71194300  0.87378300  0.47550100  1
  O  O3  1  0.12621700  0.28805700  0.52449900  1
  O  O4  1  0.47550100  0.71194300  0.87378300  1
  O  O5  1  0.87378300  0.47550100  0.71194300  1
  O  O6  1  0.85470400  0.14529600  0.00000000  1
  O  O7  1  0.14529600  0.00000000  0.85470400  1
  O  O8  1  0.00000000  0.85470400  0.14529600  1
  O  O9  1  0.59242000  0.40758000  0.00000000  1
  O  O10  1  0.40758000  0.00000000  0.59242000  1
  O  O11  1  0.00000000  0.59242000  0.40758000  1
loop_
_geom_bond_atom_site_label_1
_geom_bond_atom_site_label_2
_geom_bond_distance
_geom_bond_site_symmetry_2
Ga0 O2 1.955016 1_455
Ga0 O3 1.955016 1_565
Ga0 O8 2.019026 1_555
Ga0 O7 2.019026 1_565
Ga0 O10 2.035857 1_565
Ga0 O11 2.035857 1_555
Ga1 O0 1.955016 1_655
Ga1 O5 1.955016 1_554
Ga1 O8 2.019026 1_655
Ga1 O6 2.019026 1_555
Ga1 O9 2.035857 1_555
Ga1 O11 2.035857 1_655
Ga2 O4 1.955016 1_545
Ga2 O1 1.955016 1_556
Ga2 O7 2.019026 1_555
Ga2 O6 2.019026 1_556
Ga2 O9 2.035857 1_556
Ga2 O10 2.035857 1_555
B0 O4 1.376908 1_554
B0 O0 1.376908 1_555
B0 O9 1.388095 1_555
B1 O2 1.376908 1_545
B1 O1 1.376908 1_555
B1 O10 1.388095 1_555
B2 O3 1.376908 1_555
B2 O5 1.376908 1_455
B2 O11 1.388095 1_555
B3 O6 1.390756 1_455
B3 O7 1.390756 1_554
B3 O8 1.390756 1_545
O0 Sm0 2.385733 1_555
O1 Sm0 2.385733 1_555
O2 Sm0 2.385733 1_555
O3 Sm0 2.385733 1_555
O4 Sm0 2.385733 1_555
O5 Sm0 2.385733 1_555
