# generated using pymatgen
data_YAl3Fe2
_symmetry_space_group_name_H-M   'P 1'
_cell_length_a   5.43506617
_cell_length_b   13.43153141
_cell_length_c   13.43153258
_cell_angle_alpha   73.30469269
_cell_angle_beta   66.29842451
_cell_angle_gamma   66.29843374
_symmetry_Int_Tables_number   1
_chemical_formula_structural   YAl3Fe2
_chemical_formula_sum   'Y8 Al24 Fe16'
_cell_volume   812.79271623
_cell_formula_units_Z   8
loop_
 _symmetry_equiv_pos_site_id
 _symmetry_equiv_pos_as_xyz
  1  'x, y, z'
loop_
 _atom_site_type_symbol
 _atom_site_label
 _atom_site_symmetry_multiplicity
 _atom_site_fract_x
 _atom_site_fract_y
 _atom_site_fract_z
 _atom_site_occupancy
  Y  Y0_0  1  0.00000000  0.05727750  0.44272250  1
  Y  Y0_1  1  0.00000000  0.05727750  0.94272250  1
  Y  Y0_2  1  0.00000000  0.55727750  0.44272250  1
  Y  Y0_3  1  0.00000000  0.55727750  0.94272250  1
  Y  Y0_4  1  0.50000000  0.05727750  0.44272250  1
  Y  Y0_5  1  0.50000000  0.05727750  0.94272250  1
  Y  Y0_6  1  0.50000000  0.55727750  0.44272250  1
  Y  Y0_7  1  0.50000000  0.55727750  0.94272250  1
  Al  Al0_0  1  0.00000000  0.35741800  0.14258200  1
  Al  Al0_1  1  0.00000000  0.35741800  0.64258200  1
  Al  Al0_2  1  0.00000000  0.85741800  0.14258200  1
  Al  Al0_3  1  1.00000000  0.85741800  0.64258200  1
  Al  Al0_4  1  0.50000000  0.35741800  0.14258200  1
  Al  Al0_5  1  0.50000000  0.35741800  0.64258200  1
  Al  Al0_6  1  0.50000000  0.85741800  0.14258200  1
  Al  Al0_7  1  0.50000000  0.85741800  0.64258200  1
  Al  Al1_0  1  0.20222750  0.12538700  0.17371500  1
  Al  Al1_1  1  0.20222750  0.12538700  0.67371500  1
  Al  Al1_2  1  0.20222750  0.62538700  0.17371500  1
  Al  Al1_3  1  0.20222750  0.62538700  0.67371500  1
  Al  Al1_4  1  0.70222750  0.12538700  0.17371500  1
  Al  Al1_5  1  0.70222750  0.12538700  0.67371500  1
  Al  Al1_6  1  0.70222750  0.62538700  0.17371500  1
  Al  Al1_7  1  0.70222750  0.62538700  0.67371500  1
  Al  Al2_0  1  0.29777250  0.32628500  0.37461300  1
  Al  Al2_1  1  0.29777250  0.32628500  0.87461300  1
  Al  Al2_2  1  0.29777250  0.82628500  0.37461300  1
  Al  Al2_3  1  0.29777250  0.82628500  0.87461300  1
  Al  Al2_4  1  0.79777250  0.32628500  0.37461300  1
  Al  Al2_5  1  0.79777250  0.32628500  0.87461300  1
  Al  Al2_6  1  0.79777250  0.82628500  0.37461300  1
  Al  Al2_7  1  0.79777250  0.82628500  0.87461300  1
  Fe  Fe0_0  1  0.47086050  0.24610450  0.03262950  1
  Fe  Fe0_1  1  0.47086050  0.24610450  0.53262950  1
  Fe  Fe0_2  1  0.47086050  0.74610450  0.03262950  1
  Fe  Fe0_3  1  0.47086050  0.74610450  0.53262950  1
  Fe  Fe0_4  1  0.97086050  0.24610450  0.03262950  1
  Fe  Fe0_5  1  0.97086050  0.24610450  0.53262950  1
  Fe  Fe0_6  1  0.97086050  0.74610450  0.03262950  1
  Fe  Fe0_7  1  0.97086050  0.74610450  0.53262950  1
  Fe  Fe1_0  1  0.02913950  0.46737050  0.25389550  1
  Fe  Fe1_1  1  0.02913950  0.46737050  0.75389550  1
  Fe  Fe1_2  1  0.02913950  0.96737050  0.25389550  1
  Fe  Fe1_3  1  0.02913950  0.96737050  0.75389550  1
  Fe  Fe1_4  1  0.52913950  0.46737050  0.25389550  1
  Fe  Fe1_5  1  0.52913950  0.46737050  0.75389550  1
  Fe  Fe1_6  1  0.52913950  0.96737050  0.25389550  1
  Fe  Fe1_7  1  0.52913950  0.96737050  0.75389550  1
loop_
_geom_bond_atom_site_label_1
_geom_bond_atom_site_label_2
_geom_bond_distance
_geom_bond_site_symmetry_2
Y0_0 Y0_4 2.717533 1_455
Y0_0 Y0_4 2.717533 1_555
Y0_1 Y0_5 2.717533 1_555
Y0_1 Y0_5 2.717533 1_455
Y0_2 Y0_6 2.717533 1_455
Y0_2 Y0_6 2.717533 1_555
Y0_3 Y0_7 2.717533 1_455
Y0_3 Y0_7 2.717533 1_555
Al0_0 Fe0_4 2.467493 1_455
Al0_0 Fe1_0 2.467493 1_555
Al0_0 Fe1_4 2.473819 1_455
Al0_0 Fe0_0 2.473819 1_555
Al0_0 Al0_4 2.717533 1_455
Al0_0 Al0_4 2.717533 1_555
Al0_0 Al1_0 2.821798 1_555
Al0_0 Al2_4 2.821798 1_455
Al0_0 Y0_3 3.204972 1_554
Al0_1 Fe0_5 2.467493 1_455
Al0_1 Fe1_1 2.467493 1_555
Al0_1 Fe1_5 2.473819 1_455
Al0_1 Fe0_1 2.473819 1_555
Al0_1 Al0_5 2.717533 1_555
Al0_1 Al0_5 2.717533 1_455
Al0_1 Al1_1 2.821798 1_555
Al0_1 Al2_5 2.821798 1_455
Al0_1 Y0_2 3.204972 1_555
Al0_2 Fe0_6 2.467493 1_455
Al0_2 Fe1_2 2.467493 1_555
Al0_2 Fe1_6 2.473819 1_455
Al0_2 Fe0_2 2.473819 1_555
Al0_2 Al0_6 2.717533 1_555
Al0_2 Al0_6 2.717533 1_455
Al0_2 Al1_2 2.821798 1_555
Al0_2 Al2_6 2.821798 1_455
Al0_2 Y0_1 3.204972 1_564
Al0_3 Fe0_7 2.467493 1_555
Al0_3 Fe1_3 2.467493 1_655
Al0_3 Fe1_7 2.473819 1_555
Al0_3 Fe0_3 2.473819 1_655
Al0_3 Al0_7 2.717533 1_655
Al0_3 Al0_7 2.717533 1_555
Al0_3 Al1_3 2.821798 1_655
Al0_3 Al2_7 2.821798 1_555
Al0_3 Y0_0 3.204972 1_665
Al0_4 Fe0_0 2.467493 1_555
Al0_4 Fe1_4 2.467493 1_555
Al0_4 Fe1_0 2.473819 1_555
Al0_4 Fe0_4 2.473819 1_555
Al0_4 Al1_4 2.821798 1_555
Al0_4 Al2_0 2.821798 1_555
Al0_4 Y0_7 3.204972 1_554
Al0_5 Fe0_1 2.467493 1_555
Al0_5 Fe1_5 2.467493 1_555
Al0_5 Fe1_1 2.473819 1_555
Al0_5 Fe0_5 2.473819 1_555
Al0_5 Al1_5 2.821798 1_555
Al0_5 Al2_1 2.821798 1_555
Al0_5 Y0_6 3.204972 1_555
Al0_6 Fe0_2 2.467493 1_555
Al0_6 Fe1_6 2.467493 1_555
Al0_6 Fe1_2 2.473819 1_555
Al0_6 Fe0_6 2.473819 1_555
Al0_6 Al1_6 2.821798 1_555
Al0_6 Al2_2 2.821798 1_555
Al0_6 Y0_5 3.204972 1_564
Al0_7 Fe0_3 2.467493 1_555
Al0_7 Fe1_7 2.467493 1_555
Al0_7 Fe1_3 2.473819 1_555
Al0_7 Fe0_7 2.473819 1_555
Al0_7 Al1_7 2.821798 1_555
Al0_7 Al2_3 2.821798 1_555
Al0_7 Y0_4 3.204972 1_565
Al1_0 Fe1_6 2.452494 1_545
Al1_0 Fe1_2 2.454956 1_545
Al1_0 Fe0_0 2.503039 1_555
Al1_0 Fe0_4 2.512465 1_455
Al1_0 Al1_4 2.717533 1_455
Al1_0 Al1_4 2.717533 1_555
Al1_0 Y0_5 3.079910 1_554
Al1_0 Y0_0 3.288847 1_555
Al1_1 Fe1_7 2.452494 1_545
Al1_1 Fe1_3 2.454956 1_545
Al1_1 Fe0_1 2.503039 1_555
Al1_1 Fe0_5 2.512465 1_455
Al1_1 Al1_5 2.717533 1_555
Al1_1 Al1_5 2.717533 1_455
Al1_1 Y0_4 3.079910 1_555
Al1_1 Y0_1 3.288847 1_555
Al1_2 Fe1_4 2.452494 1_555
Al1_2 Fe1_0 2.454956 1_555
Al1_2 Fe0_2 2.503039 1_555
Al1_2 Fe0_6 2.512465 1_455
Al1_2 Al1_6 2.717533 1_555
Al1_2 Al1_6 2.717533 1_455
Al1_2 Y0_7 3.079910 1_554
Al1_2 Y0_2 3.288847 1_555
Al1_3 Fe1_5 2.452494 1_555
Al1_3 Fe1_1 2.454956 1_555
Al1_3 Fe0_3 2.503039 1_555
Al1_3 Fe0_7 2.512465 1_455
Al1_3 Al1_7 2.717533 1_555
Al1_3 Al1_7 2.717533 1_455
Al1_3 Y0_6 3.079910 1_555
Al1_3 Y0_3 3.288847 1_555
Al1_4 Fe1_2 2.452494 1_645
Al1_4 Fe1_6 2.454956 1_545
Al1_4 Fe0_4 2.503039 1_555
Al1_4 Fe0_0 2.512465 1_555
Al1_4 Y0_1 3.079910 1_654
Al1_4 Y0_4 3.288847 1_555
Al1_5 Fe1_3 2.452494 1_645
Al1_5 Fe1_7 2.454956 1_545
Al1_5 Fe0_5 2.503039 1_555
Al1_5 Fe0_1 2.512465 1_555
Al1_5 Y0_0 3.079910 1_655
Al1_5 Y0_5 3.288847 1_555
Al1_6 Fe1_0 2.452494 1_655
Al1_6 Fe1_4 2.454956 1_555
Al1_6 Fe0_6 2.503039 1_555
Al1_6 Fe0_2 2.512465 1_555
Al1_6 Y0_3 3.079910 1_654
Al1_6 Y0_6 3.288847 1_555
Al1_7 Fe1_1 2.452494 1_655
Al1_7 Fe1_5 2.454956 1_555
Al1_7 Fe0_7 2.503039 1_555
Al1_7 Fe0_3 2.512465 1_555
Al1_7 Y0_2 3.079910 1_655
Al1_7 Y0_7 3.288847 1_555
Al2_0 Fe0_5 2.452493 1_455
Al2_0 Fe0_1 2.454956 1_555
Al2_0 Fe1_0 2.503040 1_555
Al2_0 Fe1_4 2.512464 1_555
Al2_0 Al2_4 2.717533 1_455
Al2_0 Al2_4 2.717533 1_555
Al2_0 Y0_2 3.079910 1_555
Al2_0 Y0_4 3.288847 1_555
Al2_1 Fe0_4 2.452493 1_456
Al2_1 Fe0_0 2.454956 1_556
Al2_1 Fe1_1 2.503040 1_555
Al2_1 Fe1_5 2.512464 1_555
Al2_1 Al2_5 2.717533 1_555
Al2_1 Al2_5 2.717533 1_455
Al2_1 Y0_3 3.079910 1_555
Al2_1 Y0_5 3.288847 1_555
Al2_2 Fe0_7 2.452493 1_455
Al2_2 Fe0_3 2.454956 1_555
Al2_2 Fe1_2 2.503040 1_555
Al2_2 Fe1_6 2.512464 1_555
Al2_2 Al2_6 2.717533 1_455
Al2_2 Al2_6 2.717533 1_555
Al2_2 Y0_0 3.079910 1_565
Al2_2 Y0_6 3.288847 1_555
Al2_3 Fe0_6 2.452493 1_456
Al2_3 Fe0_2 2.454956 1_556
Al2_3 Fe1_3 2.503040 1_555
Al2_3 Fe1_7 2.512464 1_555
Al2_3 Al2_7 2.717533 1_455
Al2_3 Al2_7 2.717533 1_555
Al2_3 Y0_1 3.079910 1_565
Al2_3 Y0_7 3.288847 1_555
Al2_4 Fe0_1 2.452493 1_555
Al2_4 Fe0_5 2.454956 1_555
Al2_4 Fe1_4 2.503040 1_555
Al2_4 Fe1_0 2.512464 1_655
Al2_4 Y0_6 3.079910 1_555
Al2_4 Y0_0 3.288847 1_655
Al2_5 Fe0_0 2.452493 1_556
Al2_5 Fe0_4 2.454956 1_556
Al2_5 Fe1_5 2.503040 1_555
Al2_5 Fe1_1 2.512464 1_655
Al2_5 Y0_7 3.079910 1_555
Al2_5 Y0_1 3.288847 1_655
Al2_6 Fe0_3 2.452493 1_555
Al2_6 Fe0_7 2.454956 1_555
Al2_6 Fe1_6 2.503040 1_555
Al2_6 Fe1_2 2.512464 1_655
Al2_6 Y0_4 3.079910 1_565
Al2_6 Y0_2 3.288847 1_655
Al2_7 Fe0_2 2.452493 1_556
Al2_7 Fe0_6 2.454956 1_556
Al2_7 Fe1_7 2.503040 1_555
Al2_7 Fe1_3 2.512464 1_655
Al2_7 Y0_5 3.079910 1_565
Al2_7 Y0_3 3.288847 1_655
Fe0_0 Fe0_4 2.717533 1_455
Fe0_0 Fe0_4 2.717533 1_555
Fe0_0 Y0_5 3.032968 1_554
Fe0_0 Y0_1 3.043903 1_654
Fe0_1 Fe0_5 2.717533 1_555
Fe0_1 Fe0_5 2.717533 1_455
Fe0_1 Y0_4 3.032968 1_555
Fe0_1 Y0_0 3.043903 1_655
Fe0_2 Fe0_6 2.717533 1_455
Fe0_2 Fe0_6 2.717533 1_555
Fe0_2 Y0_7 3.032968 1_554
Fe0_2 Y0_3 3.043903 1_654
Fe0_3 Fe0_7 2.717533 1_555
Fe0_3 Fe0_7 2.717533 1_455
Fe0_3 Y0_6 3.032968 1_555
Fe0_3 Y0_2 3.043903 1_655
Fe0_4 Y0_1 3.032968 1_654
Fe0_4 Y0_5 3.043903 1_654
Fe0_5 Y0_0 3.032968 1_655
Fe0_5 Y0_4 3.043903 1_655
Fe0_6 Y0_3 3.032968 1_654
Fe0_6 Y0_7 3.043903 1_654
Fe0_7 Y0_2 3.032968 1_655
Fe0_7 Y0_6 3.043903 1_655
Fe1_0 Fe1_4 2.717533 1_455
Fe1_0 Fe1_4 2.717533 1_555
Fe1_0 Y0_2 3.032969 1_555
Fe1_0 Y0_6 3.043903 1_455
Fe1_1 Fe1_5 2.717533 1_455
Fe1_1 Fe1_5 2.717533 1_555
Fe1_1 Y0_3 3.032969 1_555
Fe1_1 Y0_7 3.043903 1_455
Fe1_2 Fe1_6 2.717533 1_455
Fe1_2 Fe1_6 2.717533 1_555
Fe1_2 Y0_0 3.032969 1_565
Fe1_2 Y0_4 3.043903 1_465
Fe1_3 Fe1_7 2.717533 1_455
Fe1_3 Fe1_7 2.717533 1_555
Fe1_3 Y0_1 3.032969 1_565
Fe1_3 Y0_5 3.043903 1_465
Fe1_4 Y0_6 3.032969 1_555
Fe1_4 Y0_2 3.043903 1_555
Fe1_5 Y0_7 3.032969 1_555
Fe1_5 Y0_3 3.043903 1_555
Fe1_6 Y0_4 3.032969 1_565
Fe1_6 Y0_0 3.043903 1_565
Fe1_7 Y0_5 3.032969 1_565
Fe1_7 Y0_1 3.043903 1_565
