# generated using pymatgen
data_Te2Mo3W(SeS2)2
_symmetry_space_group_name_H-M   'P 1'
_cell_length_a   3.30537190
_cell_length_b   3.30537190
_cell_length_c   39.65062500
_cell_angle_alpha   90.00000000
_cell_angle_beta   90.00000000
_cell_angle_gamma   119.99999790
_symmetry_Int_Tables_number   1
_chemical_formula_structural   Te2Mo3W(SeS2)2
_chemical_formula_sum   'Te2 Mo3 W1 Se2 S4'
_cell_volume   375.16415611
_cell_formula_units_Z   1
loop_
 _symmetry_equiv_pos_site_id
 _symmetry_equiv_pos_as_xyz
  1  'x, y, z'
loop_
 _atom_site_type_symbol
 _atom_site_label
 _atom_site_symmetry_multiplicity
 _atom_site_fract_x
 _atom_site_fract_y
 _atom_site_fract_z
 _atom_site_occupancy
  Te  Te0  1  0.33333300  0.66666700  0.42207400  1
  Te  Te1  1  0.33333300  0.66666700  0.51855800  1
  Mo  Mo0  1  0.00000000  0.00000000  0.09377000  1
  Mo  Mo1  1  0.00000000  0.00000000  0.47031100  1
  Mo  Mo2  1  0.33333300  0.66666700  0.28041300  1
  W  W0  1  0.33333300  0.66666700  0.65841000  1
  Se  Se0  1  0.00000000  0.00000000  0.32274800  1
  Se  Se1  1  0.00000000  0.00000000  0.23811900  1
  S  S0  1  0.00000000  0.00000000  0.69710300  1
  S  S1  1  0.33333300  0.66666700  0.05518700  1
  S  S2  1  0.33333300  0.66666700  0.13236300  1
  S  S3  1  0.00000000  0.00000000  0.61969100  1
loop_
_geom_bond_atom_site_label_1
_geom_bond_atom_site_label_2
_geom_bond_distance
_geom_bond_site_symmetry_2
Mo0 S1 2.445860 1_545
Mo0 S1 2.445862 1_445
Mo0 S1 2.445862 1_555
Mo0 S2 2.446108 1_545
Mo0 S2 2.446110 1_555
Mo0 S2 2.446110 1_445
Mo1 Te0 2.701844 1_545
Mo1 Te0 2.701846 1_445
Mo1 Te0 2.701846 1_555
Mo1 Te1 2.702125 1_545
Mo1 Te1 2.702127 1_555
Mo1 Te1 2.702127 1_445
Mo2 Se1 2.540491 1_565
Mo2 Se1 2.540493 1_555
Mo2 Se1 2.540493 1_665
Mo2 Se0 2.541564 1_565
Mo2 Se0 2.541567 1_665
Mo2 Se0 2.541567 1_555
S0 W0 2.448590 1_545
S0 W0 2.448593 1_445
S0 W0 2.448593 1_555
S3 W0 2.449236 1_545
S3 W0 2.449239 1_555
S3 W0 2.449239 1_445
