# generated using pymatgen
data_Sr3(GeP2)2
_symmetry_space_group_name_H-M   'P 1'
_cell_length_a   18.19033179
_cell_length_b   7.28128117
_cell_length_c   7.48648608
_cell_angle_alpha   67.93461039
_cell_angle_beta   90.00000000
_cell_angle_gamma   90.00000000
_symmetry_Int_Tables_number   1
_chemical_formula_structural   Sr3(GeP2)2
_chemical_formula_sum   'Sr12 Ge8 P16'
_cell_volume   918.94966062
_cell_formula_units_Z   4
loop_
 _symmetry_equiv_pos_site_id
 _symmetry_equiv_pos_as_xyz
  1  'x, y, z'
loop_
 _atom_site_type_symbol
 _atom_site_label
 _atom_site_symmetry_multiplicity
 _atom_site_fract_x
 _atom_site_fract_y
 _atom_site_fract_z
 _atom_site_occupancy
  Sr  Sr0  1  0.31551993  0.01099834  0.78380509  1
  Sr  Sr1  1  0.81551993  0.48900166  0.21619491  1
  Sr  Sr2  1  0.68448007  0.98900166  0.21619491  1
  Sr  Sr3  1  0.18448007  0.51099834  0.78380509  1
  Sr  Sr4  1  0.44173193  0.99506946  0.26086988  1
  Sr  Sr5  1  0.94173193  0.50493054  0.73913012  1
  Sr  Sr6  1  0.55826807  0.00493054  0.73913012  1
  Sr  Sr7  1  0.05826807  0.49506946  0.26086988  1
  Sr  Sr8  1  0.43598168  0.51152789  0.74356583  1
  Sr  Sr9  1  0.93598168  0.98847211  0.25643417  1
  Sr  Sr10  1  0.56401832  0.48847211  0.25643417  1
  Sr  Sr11  1  0.06401832  0.01152789  0.74356583  1
  Ge  Ge0  1  0.62770763  0.52625462  0.78746995  1
  Ge  Ge1  1  0.12770763  0.97374538  0.21253005  1
  Ge  Ge2  1  0.37229237  0.47374538  0.21253005  1
  Ge  Ge3  1  0.87229237  0.02625462  0.78746995  1
  Ge  Ge4  1  0.74110470  0.40862712  0.68618345  1
  Ge  Ge5  1  0.75889530  0.90862712  0.68618345  1
  Ge  Ge6  1  0.25889530  0.59137288  0.31381655  1
  Ge  Ge7  1  0.24110470  0.09137288  0.31381655  1
  P  P0  1  0.43137708  0.26333556  0.48930696  1
  P  P1  1  0.93137708  0.23666444  0.51069304  1
  P  P2  1  0.56862292  0.73666444  0.51069304  1
  P  P3  1  0.06862292  0.76333556  0.48930696  1
  P  P4  1  0.43902129  0.74135493  0.01123407  1
  P  P5  1  0.93902129  0.75864507  0.98876593  1
  P  P6  1  0.56097871  0.25864507  0.98876593  1
  P  P7  1  0.06097871  0.24135493  0.01123407  1
  P  P8  1  0.18528299  0.78170851  0.04970022  1
  P  P9  1  0.68528299  0.71829149  0.95029978  1
  P  P10  1  0.81471701  0.21829149  0.95029978  1
  P  P11  1  0.31471701  0.28170851  0.04970022  1
  P  P12  1  0.79897592  0.71761377  0.50518221  1
  P  P13  1  0.70102408  0.21761377  0.50518221  1
  P  P14  1  0.20102408  0.28238623  0.49481779  1
  P  P15  1  0.29897592  0.78238623  0.49481779  1
loop_
_geom_bond_atom_site_label_1
_geom_bond_atom_site_label_2
_geom_bond_distance
_geom_bond_site_symmetry_2
Ge0 P6 2.309757 1_555
Ge0 P2 2.326098 1_555
Ge0 P9 2.412202 1_555
Ge0 Ge4 2.459950 1_555
Ge1 P7 2.309757 1_565
Ge1 P3 2.326098 1_555
Ge1 P8 2.412202 1_555
Ge1 Ge7 2.459950 1_565
Ge2 P4 2.309757 1_555
Ge2 P0 2.326098 1_555
Ge2 P11 2.412202 1_555
Ge2 Ge6 2.459950 1_555
Ge3 P5 2.309757 1_545
Ge3 P1 2.326098 1_555
Ge3 P10 2.412202 1_555
Ge3 Ge5 2.459950 1_545
Ge4 P10 2.358927 1_555
Ge4 P12 2.390714 1_555
Ge4 P13 2.391262 1_555
Ge5 P9 2.358927 1_555
Ge5 P13 2.390714 1_565
Ge5 P12 2.391262 1_555
Ge6 P8 2.358927 1_555
Ge6 P14 2.390714 1_555
Ge6 P15 2.391262 1_555
Ge7 P11 2.358927 1_555
Ge7 P15 2.390714 1_545
Ge7 P14 2.391262 1_555
P0 Sr4 3.047220 1_545
P0 Sr10 3.066104 1_555
P0 Sr8 3.079073 1_555
P0 Sr0 3.103979 1_555
P0 Sr6 3.118002 1_555
P1 Sr5 3.047220 1_555
P1 Sr11 3.066104 1_655
P1 Sr9 3.079073 1_545
P1 Sr1 3.103979 1_555
P1 Sr7 3.118002 1_655
P2 Sr6 3.047220 1_565
P2 Sr8 3.066104 1_555
P2 Sr10 3.079073 1_555
P2 Sr2 3.103979 1_555
P2 Sr4 3.118002 1_555
P3 Sr7 3.047220 1_555
P3 Sr9 3.066104 1_455
P3 Sr11 3.079073 1_565
P3 Sr3 3.103979 1_555
P3 Sr5 3.118002 1_455
P4 Sr0 3.047791 1_564
P4 Sr8 3.055901 1_554
P4 Sr10 3.064394 1_555
P4 Sr4 3.082524 1_555
P4 Sr6 3.098516 1_564
P5 Sr1 3.047791 1_556
P5 Sr9 3.055901 1_556
P5 Sr11 3.064394 1_665
P5 Sr5 3.082524 1_555
P5 Sr7 3.098516 1_656
P6 Sr2 3.047791 1_546
P6 Sr10 3.055901 1_556
P6 Sr8 3.064394 1_555
P6 Sr6 3.082524 1_555
P6 Sr4 3.098516 1_546
P7 Sr3 3.047791 1_554
P7 Sr11 3.055901 1_554
P7 Sr9 3.064394 1_445
P7 Sr7 3.082524 1_555
P7 Sr5 3.098516 1_454
P8 Sr7 3.116793 1_555
P8 Sr0 3.140913 1_564
P8 Sr11 3.168146 1_564
P8 Sr3 3.285743 1_554
P9 Sr6 3.116793 1_565
P9 Sr1 3.140913 1_556
P9 Sr10 3.168146 1_556
P9 Sr2 3.285743 1_556
P10 Sr5 3.116793 1_555
P10 Sr2 3.140913 1_546
P10 Sr9 3.168146 1_546
P10 Sr1 3.285743 1_556
P11 Sr4 3.116793 1_545
P11 Sr3 3.140913 1_554
P11 Sr8 3.168146 1_554
P11 Sr0 3.285743 1_554
P12 Sr2 3.116272 1_555
P12 Sr5 3.189229 1_555
P12 Sr1 3.201241 1_555
P12 Sr9 3.287715 1_555
P13 Sr1 3.116272 1_555
P13 Sr6 3.189229 1_555
P13 Sr2 3.201241 1_545
P13 Sr10 3.287715 1_555
P14 Sr0 3.116272 1_555
P14 Sr7 3.189229 1_555
P14 Sr3 3.201241 1_555
P14 Sr11 3.287715 1_555
P15 Sr3 3.116272 1_555
P15 Sr4 3.189229 1_555
P15 Sr0 3.201241 1_565
P15 Sr8 3.287715 1_555
