# generated using pymatgen
data_Li2Cr2(SO4)3
_symmetry_space_group_name_H-M   'P 1'
_cell_length_a   8.84439485
_cell_length_b   8.87109867
_cell_length_c   24.60548084
_cell_angle_alpha   90.00000000
_cell_angle_beta   90.00000000
_cell_angle_gamma   90.00000000
_symmetry_Int_Tables_number   1
_chemical_formula_structural   Li2Cr2(SO4)3
_chemical_formula_sum   'Li16 Cr16 S24 O96'
_cell_volume   1930.53370898
_cell_formula_units_Z   8
loop_
 _symmetry_equiv_pos_site_id
 _symmetry_equiv_pos_as_xyz
  1  'x, y, z'
loop_
 _atom_site_type_symbol
 _atom_site_label
 _atom_site_symmetry_multiplicity
 _atom_site_fract_x
 _atom_site_fract_y
 _atom_site_fract_z
 _atom_site_occupancy
  Li  Li0  1  0.03840746  0.62224384  0.29078388  1
  Li  Li1  1  0.03840746  0.87775616  0.79078388  1
  Li  Li2  1  0.14214918  0.93185037  0.00935791  1
  Li  Li3  1  0.14214918  0.56814963  0.50935791  1
  Li  Li4  1  0.35785082  0.06814963  0.50935791  1
  Li  Li5  1  0.35785082  0.43185037  0.00935791  1
  Li  Li6  1  0.46159254  0.12224384  0.29078388  1
  Li  Li7  1  0.46159254  0.37775616  0.79078388  1
  Li  Li8  1  0.53840746  0.62224384  0.20921612  1
  Li  Li9  1  0.53840746  0.87775616  0.70921612  1
  Li  Li10  1  0.64214918  0.56814963  0.99064209  1
  Li  Li11  1  0.64214918  0.93185037  0.49064209  1
  Li  Li12  1  0.85785082  0.43185037  0.49064209  1
  Li  Li13  1  0.85785082  0.06814963  0.99064209  1
  Li  Li14  1  0.96159254  0.12224384  0.20921612  1
  Li  Li15  1  0.96159254  0.37775616  0.70921612  1
  Cr  Cr0  1  0.00682375  0.40301483  0.06594568  1
  Cr  Cr1  1  0.00682375  0.09698517  0.56594568  1
  Cr  Cr2  1  0.99726386  0.79466325  0.18033062  1
  Cr  Cr3  1  0.99726386  0.70533675  0.68033062  1
  Cr  Cr4  1  0.50273614  0.29466325  0.18033062  1
  Cr  Cr5  1  0.50273614  0.20533675  0.68033062  1
  Cr  Cr6  1  0.49317625  0.59698517  0.56594568  1
  Cr  Cr7  1  0.49317625  0.90301483  0.06594568  1
  Cr  Cr8  1  0.50682375  0.40301483  0.43405432  1
  Cr  Cr9  1  0.50682375  0.09698517  0.93405432  1
  Cr  Cr10  1  0.49726386  0.70533675  0.81966938  1
  Cr  Cr11  1  0.49726386  0.79466325  0.31966938  1
  Cr  Cr12  1  0.00273614  0.29466325  0.31966938  1
  Cr  Cr13  1  0.00273614  0.20533675  0.81966938  1
  Cr  Cr14  1  0.99317625  0.90301483  0.43405432  1
  Cr  Cr15  1  0.99317625  0.59698517  0.93405432  1
  S  S0  1  0.14412671  0.94575239  0.29605774  1
  S  S1  1  0.14412671  0.55424761  0.79605774  1
  S  S2  1  0.14620428  0.25139731  0.44511156  1
  S  S3  1  0.14620428  0.24860269  0.94511156  1
  S  S4  1  0.19263063  0.09742701  0.11525577  1
  S  S5  1  0.19263063  0.40257299  0.61525577  1
  S  S6  1  0.30736937  0.59742701  0.11525577  1
  S  S7  1  0.30736937  0.90257299  0.61525577  1
  S  S8  1  0.35379572  0.75139731  0.44511156  1
  S  S9  1  0.35379572  0.74860269  0.94511156  1
  S  S10  1  0.35587329  0.44575239  0.29605774  1
  S  S11  1  0.35587329  0.05424761  0.79605774  1
  S  S12  1  0.64412671  0.55424761  0.70394226  1
  S  S13  1  0.64412671  0.94575239  0.20394226  1
  S  S14  1  0.64620428  0.25139731  0.05488844  1
  S  S15  1  0.64620428  0.24860269  0.55488844  1
  S  S16  1  0.69263063  0.09742701  0.38474423  1
  S  S17  1  0.69263063  0.40257299  0.88474423  1
  S  S18  1  0.80736937  0.59742701  0.38474423  1
  S  S19  1  0.80736937  0.90257299  0.88474423  1
  S  S20  1  0.85379572  0.75139731  0.05488844  1
  S  S21  1  0.85379572  0.74860269  0.55488844  1
  S  S22  1  0.85587329  0.44575239  0.20394226  1
  S  S23  1  0.85587329  0.05424761  0.70394226  1
  O  O0  1  0.06306012  0.38376116  0.46587779  1
  O  O1  1  0.06306012  0.11623884  0.96587779  1
  O  O2  1  0.08001856  0.09032375  0.27586376  1
  O  O3  1  0.08001856  0.40967625  0.77586376  1
  O  O4  1  0.08224367  0.10680569  0.46950813  1
  O  O5  1  0.08224367  0.39319431  0.96950813  1
  O  O6  1  0.08903015  0.90943396  0.35066578  1
  O  O7  1  0.08903015  0.59056604  0.85066578  1
  O  O8  1  0.09439208  0.19551147  0.08160838  1
  O  O9  1  0.09439208  0.30448853  0.58160838  1
  O  O10  1  0.09497216  0.82044624  0.25830613  1
  O  O11  1  0.09497216  0.67955376  0.75830613  1
  O  O12  1  0.09458732  0.01674018  0.15499549  1
  O  O13  1  0.09458732  0.48325982  0.65499549  1
  O  O14  1  0.13664701  0.24017159  0.38553524  1
  O  O15  1  0.13664701  0.25982841  0.88553524  1
  O  O16  1  0.18807534  0.45652116  0.29483957  1
  O  O17  1  0.18807534  0.04347884  0.79483957  1
  O  O18  1  0.19002650  0.68202683  0.14394497  1
  O  O19  1  0.19002650  0.81797317  0.64394497  1
  O  O20  1  0.19281302  0.75962117  0.46317843  1
  O  O21  1  0.19281302  0.74037883  0.96317843  1
  O  O22  1  0.23636738  0.01382940  0.57645471  1
  O  O23  1  0.23636738  0.48617060  0.07645471  1
  O  O24  1  0.26363262  0.51382940  0.57645471  1
  O  O25  1  0.26363262  0.98617060  0.07645471  1
  O  O26  1  0.30718698  0.24037883  0.96317843  1
  O  O27  1  0.30718698  0.25962117  0.46317843  1
  O  O28  1  0.30997350  0.18202683  0.14394497  1
  O  O29  1  0.30997350  0.31797317  0.64394497  1
  O  O30  1  0.31192466  0.95652116  0.29483957  1
  O  O31  1  0.31192466  0.54347884  0.79483957  1
  O  O32  1  0.36335299  0.74017159  0.38553524  1
  O  O33  1  0.36335299  0.75982841  0.88553524  1
  O  O34  1  0.40541268  0.98325982  0.65499549  1
  O  O35  1  0.40541268  0.51674018  0.15499549  1
  O  O36  1  0.40502784  0.32044624  0.25830613  1
  O  O37  1  0.40502784  0.17955376  0.75830613  1
  O  O38  1  0.40560792  0.69551147  0.08160838  1
  O  O39  1  0.40560792  0.80448853  0.58160838  1
  O  O40  1  0.41096985  0.09056604  0.85066578  1
  O  O41  1  0.41096985  0.40943396  0.35066578  1
  O  O42  1  0.41775633  0.89319431  0.96950813  1
  O  O43  1  0.41775633  0.60680569  0.46950813  1
  O  O44  1  0.41998144  0.59032375  0.27586376  1
  O  O45  1  0.41998144  0.90967625  0.77586376  1
  O  O46  1  0.43693988  0.61623884  0.96587779  1
  O  O47  1  0.43693988  0.88376116  0.46587779  1
  O  O48  1  0.56306012  0.38376116  0.03412221  1
  O  O49  1  0.56306012  0.11623884  0.53412221  1
  O  O50  1  0.58001856  0.09032375  0.22413624  1
  O  O51  1  0.58001856  0.40967625  0.72413624  1
  O  O52  1  0.58224367  0.10680569  0.03049187  1
  O  O53  1  0.58224367  0.39319431  0.53049187  1
  O  O54  1  0.58903015  0.59056604  0.64933422  1
  O  O55  1  0.58903015  0.90943396  0.14933422  1
  O  O56  1  0.59439208  0.19551147  0.41839162  1
  O  O57  1  0.59439208  0.30448853  0.91839162  1
  O  O58  1  0.59497216  0.82044624  0.24169387  1
  O  O59  1  0.59497216  0.67955376  0.74169387  1
  O  O60  1  0.59458732  0.01674018  0.34500451  1
  O  O61  1  0.59458732  0.48325982  0.84500451  1
  O  O62  1  0.63664701  0.24017159  0.11446476  1
  O  O63  1  0.63664701  0.25982841  0.61446476  1
  O  O64  1  0.68807534  0.45652116  0.20516043  1
  O  O65  1  0.68807534  0.04347884  0.70516043  1
  O  O66  1  0.69002650  0.68202683  0.35605503  1
  O  O67  1  0.69002650  0.81797317  0.85605503  1
  O  O68  1  0.69281302  0.75962117  0.03682157  1
  O  O69  1  0.69281302  0.74037883  0.53682157  1
  O  O70  1  0.73636738  0.48617060  0.42354529  1
  O  O71  1  0.73636738  0.01382940  0.92354529  1
  O  O72  1  0.76363262  0.98617060  0.42354529  1
  O  O73  1  0.76363262  0.51382940  0.92354529  1
  O  O74  1  0.80718698  0.25962117  0.03682157  1
  O  O75  1  0.80718698  0.24037883  0.53682157  1
  O  O76  1  0.80997350  0.18202683  0.35605503  1
  O  O77  1  0.80997350  0.31797317  0.85605503  1
  O  O78  1  0.81192466  0.54347884  0.70516043  1
  O  O79  1  0.81192466  0.95652116  0.20516043  1
  O  O80  1  0.86335299  0.74017159  0.11446476  1
  O  O81  1  0.86335299  0.75982841  0.61446476  1
  O  O82  1  0.90541268  0.51674018  0.34500451  1
  O  O83  1  0.90541268  0.98325982  0.84500451  1
  O  O84  1  0.90502784  0.32044624  0.24169387  1
  O  O85  1  0.90502784  0.17955376  0.74169387  1
  O  O86  1  0.90560792  0.69551147  0.41839162  1
  O  O87  1  0.90560792  0.80448853  0.91839162  1
  O  O88  1  0.91096985  0.40943396  0.14933422  1
  O  O89  1  0.91096985  0.09056604  0.64933422  1
  O  O90  1  0.91775633  0.60680569  0.03049187  1
  O  O91  1  0.91775633  0.89319431  0.53049187  1
  O  O92  1  0.91998144  0.59032375  0.22413624  1
  O  O93  1  0.91998144  0.90967625  0.72413624  1
  O  O94  1  0.93693988  0.61623884  0.53412221  1
  O  O95  1  0.93693988  0.88376116  0.03412221  1
loop_
_geom_bond_atom_site_label_1
_geom_bond_atom_site_label_2
_geom_bond_distance
_geom_bond_site_symmetry_2
Li0 O92 1.966343 1_455
Li0 O16 1.980787 1_555
Li0 O10 1.995098 1_555
Li0 O82 2.009837 1_455
Li1 O93 1.966343 1_455
Li1 O17 1.980787 1_565
Li1 O11 1.995098 1_555
Li1 O83 2.009837 1_455
Li2 O95 1.961462 1_455
Li2 O25 2.027875 1_555
Li2 O1 2.075928 1_564
Li2 O21 2.092130 1_554
Li3 O94 1.961462 1_455
Li3 O24 2.027875 1_555
Li3 O0 2.075928 1_555
Li3 O20 2.092130 1_555
Li4 O49 1.961462 1_555
Li4 O22 2.027875 1_555
Li4 O47 2.075928 1_545
Li4 O27 2.092130 1_555
Li5 O48 1.961462 1_555
Li5 O23 2.027875 1_555
Li5 O46 2.075928 1_554
Li5 O26 2.092130 1_554
Li6 O50 1.966343 1_555
Li6 O30 1.980787 1_545
Li6 O36 1.995098 1_555
Li6 O60 2.009837 1_555
Li7 O51 1.966343 1_555
Li7 O31 1.980787 1_555
Li7 O37 1.995098 1_555
Li7 O61 2.009837 1_555
Li8 O44 1.966343 1_555
Li8 O64 1.980787 1_555
Li8 O58 1.995098 1_555
Li8 O35 2.009837 1_555
Li9 O45 1.966343 1_555
Li9 O65 1.980787 1_565
Li9 O59 1.995098 1_555
Li9 O34 2.009837 1_555
Li10 O46 1.961462 1_555
Li10 O73 2.027875 1_555
Li10 O48 2.075928 1_556
Li10 O68 2.092130 1_556
Li11 O47 1.961462 1_555
Li11 O72 2.027875 1_555
Li11 O49 2.075928 1_565
Li11 O69 2.092130 1_555
Li12 O0 1.961462 1_655
Li12 O70 2.027875 1_555
Li12 O94 2.075928 1_555
Li12 O75 2.092130 1_555
Li13 O1 1.961462 1_655
Li13 O71 2.027875 1_555
Li13 O95 2.075928 1_546
Li13 O74 2.092130 1_556
Li14 O2 1.966343 1_655
Li14 O79 1.980787 1_545
Li14 O84 1.995098 1_555
Li14 O12 2.009837 1_655
Li15 O3 1.966343 1_655
Li15 O78 1.980787 1_555
Li15 O85 1.995098 1_555
Li15 O13 2.009837 1_655
Cr0 O8 2.033922 1_555
Cr0 O90 2.156356 1_455
Cr0 O23 2.175465 1_555
Cr0 O88 2.220788 1_455
Cr0 O74 2.291123 1_455
Cr0 O5 2.466405 1_554
Cr1 O9 2.033922 1_555
Cr1 O91 2.156356 1_445
Cr1 O22 2.175465 1_555
Cr1 O89 2.220788 1_455
Cr1 O75 2.291123 1_455
Cr1 O4 2.466405 1_555
Cr2 O80 2.064686 1_555
Cr2 O10 2.116655 1_655
Cr2 O18 2.169455 1_655
Cr2 O92 2.216960 1_555
Cr2 O12 2.238457 1_665
Cr2 O79 2.263176 1_555
Cr3 O81 2.064686 1_555
Cr3 O11 2.116655 1_655
Cr3 O19 2.169455 1_655
Cr3 O93 2.216960 1_555
Cr3 O13 2.238457 1_655
Cr3 O78 2.263176 1_555
Cr4 O62 2.064686 1_555
Cr4 O36 2.116655 1_555
Cr4 O28 2.169455 1_555
Cr4 O50 2.216960 1_555
Cr4 O35 2.238457 1_555
Cr4 O64 2.263176 1_555
Cr5 O63 2.064686 1_555
Cr5 O37 2.116655 1_555
Cr5 O29 2.169455 1_555
Cr5 O51 2.216960 1_555
Cr5 O34 2.238457 1_545
Cr5 O65 2.263176 1_555
Cr6 O39 2.033922 1_555
Cr6 O53 2.156356 1_555
Cr6 O24 2.175465 1_555
Cr6 O54 2.220788 1_555
Cr6 O69 2.291123 1_555
Cr6 O43 2.466405 1_555
Cr7 O38 2.033922 1_555
Cr7 O52 2.156356 1_565
Cr7 O25 2.175465 1_555
Cr7 O55 2.220788 1_555
Cr7 O68 2.291123 1_555
Cr7 O42 2.466405 1_554
Cr8 O56 2.033922 1_555
Cr8 O43 2.156356 1_555
Cr8 O70 2.175465 1_555
Cr8 O41 2.220788 1_555
Cr8 O27 2.291123 1_555
Cr8 O53 2.466405 1_555
Cr9 O57 2.033922 1_555
Cr9 O42 2.156356 1_545
Cr9 O71 2.175465 1_555
Cr9 O40 2.220788 1_555
Cr9 O26 2.291123 1_555
Cr9 O52 2.466405 1_556
Cr10 O33 2.064686 1_555
Cr10 O59 2.116655 1_555
Cr10 O67 2.169455 1_555
Cr10 O45 2.216960 1_555
Cr10 O61 2.238457 1_555
Cr10 O31 2.263176 1_555
Cr11 O32 2.064686 1_555
Cr11 O58 2.116655 1_555
Cr11 O66 2.169455 1_555
Cr11 O44 2.216960 1_555
Cr11 O60 2.238457 1_565
Cr11 O30 2.263176 1_555
Cr12 O14 2.064686 1_555
Cr12 O84 2.116655 1_455
Cr12 O76 2.169455 1_455
Cr12 O2 2.216960 1_555
Cr12 O82 2.238457 1_455
Cr12 O16 2.263176 1_555
Cr13 O15 2.064686 1_555
Cr13 O85 2.116655 1_455
Cr13 O77 2.169455 1_455
Cr13 O3 2.216960 1_555
Cr13 O83 2.238457 1_445
Cr13 O17 2.263176 1_555
Cr14 O86 2.033922 1_555
Cr14 O4 2.156356 1_665
Cr14 O72 2.175465 1_555
Cr14 O6 2.220788 1_655
Cr14 O20 2.291123 1_655
Cr14 O91 2.466405 1_555
Cr15 O87 2.033922 1_555
Cr15 O5 2.156356 1_655
Cr15 O73 2.175465 1_555
Cr15 O7 2.220788 1_655
Cr15 O21 2.291123 1_655
Cr15 O90 2.466405 1_556
O0 S2 1.476690 1_555
O1 S3 1.476690 1_555
O2 S0 1.487684 1_545
O3 S1 1.487684 1_555
O4 S2 1.525005 1_555
O5 S3 1.525005 1_555
O6 S0 1.465153 1_555
O7 S1 1.465153 1_555
O8 S4 1.482382 1_555
O9 S5 1.482382 1_555
O10 S0 1.512452 1_555
O11 S1 1.512452 1_555
O12 S4 1.490096 1_555
O13 S5 1.490096 1_555
O14 S2 1.471712 1_555
O15 S3 1.471712 1_555
O16 S10 1.487445 1_555
O17 S11 1.487445 1_555
O18 S6 1.462407 1_555
O19 S7 1.462407 1_555
O20 S8 1.493363 1_555
O21 S9 1.493363 1_555
O22 S7 1.509946 1_545
O23 S6 1.509946 1_555
O24 S5 1.509946 1_555
O25 S4 1.509946 1_565
O26 S3 1.493363 1_555
O27 S2 1.493363 1_555
O28 S4 1.462407 1_555
O29 S5 1.462407 1_555
O30 S0 1.487445 1_555
O31 S1 1.487445 1_555
O32 S8 1.471712 1_555
O33 S9 1.471712 1_555
O34 S7 1.490096 1_555
O35 S6 1.490096 1_555
O36 S10 1.512452 1_555
O37 S11 1.512452 1_555
O38 S6 1.482382 1_555
O39 S7 1.482382 1_555
O40 S11 1.465153 1_555
O41 S10 1.465153 1_555
O42 S9 1.525005 1_555
O43 S8 1.525005 1_555
O44 S10 1.487684 1_555
O45 S11 1.487684 1_565
O46 S9 1.476690 1_555
O47 S8 1.476690 1_555
O48 S14 1.476690 1_555
O49 S15 1.476690 1_555
O50 S13 1.487684 1_545
O51 S12 1.487684 1_555
O52 S14 1.525005 1_555
O53 S15 1.525005 1_555
O54 S12 1.465153 1_555
O55 S13 1.465153 1_555
O56 S16 1.482382 1_555
O57 S17 1.482382 1_555
O58 S13 1.512452 1_555
O59 S12 1.512452 1_555
O60 S16 1.490096 1_555
O61 S17 1.490096 1_555
O62 S14 1.471712 1_555
O63 S15 1.471712 1_555
O64 S22 1.487445 1_555
O65 S23 1.487445 1_555
O66 S18 1.462407 1_555
O67 S19 1.462407 1_555
O68 S20 1.493363 1_555
O69 S21 1.493363 1_555
O70 S18 1.509946 1_555
O71 S19 1.509946 1_545
O72 S16 1.509946 1_565
O73 S17 1.509946 1_555
O74 S14 1.493363 1_555
O75 S15 1.493363 1_555
O76 S16 1.462407 1_555
O77 S17 1.462407 1_555
O78 S12 1.487445 1_555
O79 S13 1.487445 1_555
O80 S20 1.471712 1_555
O81 S21 1.471712 1_555
O82 S18 1.490096 1_555
O83 S19 1.490096 1_555
O84 S22 1.512452 1_555
O85 S23 1.512452 1_555
O86 S18 1.482382 1_555
O87 S19 1.482382 1_555
O88 S22 1.465153 1_555
O89 S23 1.465153 1_555
O90 S20 1.525005 1_555
O91 S21 1.525005 1_555
O92 S22 1.487684 1_555
O93 S23 1.487684 1_565
O94 S21 1.476690 1_555
O95 S20 1.476690 1_555
