# generated using pymatgen
data_Mg3Si4
_symmetry_space_group_name_H-M   'P 1'
_cell_length_a   3.58909800
_cell_length_b   7.80643447
_cell_length_c   9.76580397
_cell_angle_alpha   68.31251540
_cell_angle_beta   80.64435655
_cell_angle_gamma   78.15965044
_symmetry_Int_Tables_number   1
_chemical_formula_structural   Mg3Si4
_chemical_formula_sum   'Mg6 Si8'
_cell_volume   247.70630580
_cell_formula_units_Z   2
loop_
 _symmetry_equiv_pos_site_id
 _symmetry_equiv_pos_as_xyz
  1  'x, y, z'
loop_
 _atom_site_type_symbol
 _atom_site_label
 _atom_site_symmetry_multiplicity
 _atom_site_fract_x
 _atom_site_fract_y
 _atom_site_fract_z
 _atom_site_occupancy
  Mg  Mg0  1  0.78967400  0.10873000  0.35939700  1
  Mg  Mg1  1  0.41696800  0.08233300  0.10943800  1
  Mg  Mg2  1  0.52695700  0.27390200  0.78979600  1
  Mg  Mg3  1  0.00514200  0.75039300  0.28417900  1
  Mg  Mg4  1  0.26961400  0.62447700  0.84389700  1
  Mg  Mg5  1  0.15055400  0.18561500  0.57315100  1
  Si  Si0  1  0.96922200  0.54627100  0.59882200  1
  Si  Si1  1  0.37919100  0.79902700  0.53335000  1
  Si  Si2  1  0.20350500  0.41434500  0.23463000  1
  Si  Si3  1  0.57603700  0.46424300  0.43002500  1
  Si  Si4  1  0.78321100  0.39629900  0.05994100  1
  Si  Si5  1  0.63198200  0.72821700  0.05159400  1
  Si  Si6  1  0.69743900  0.92101500  0.72482200  1
  Si  Si7  1  0.10039300  0.95857700  0.90684800  1
loop_
_geom_bond_atom_site_label_1
_geom_bond_atom_site_label_2
_geom_bond_distance
_geom_bond_site_symmetry_2
Mg0 Si2 2.846021 1_655
Mg0 Si2 2.868405 1_555
Mg0 Si1 2.917877 1_545
Mg0 Mg5 2.918823 1_655
Mg0 Si4 2.956503 1_555
Mg0 Mg5 2.963750 1_555
Mg0 Si3 3.022493 1_555
Mg0 Si1 3.040013 1_645
Mg0 Mg1 3.055669 1_555
Mg0 Mg3 3.067404 1_645
Mg0 Mg1 3.076466 1_655
Mg1 Si4 2.865065 1_555
Mg1 Mg2 2.920244 1_554
Mg1 Si4 2.934068 1_455
Mg1 Si5 2.948461 1_545
Mg1 Si7 2.955098 1_544
Mg1 Mg3 3.048766 1_545
Mg1 Si7 3.118757 1_644
Mg1 Mg3 3.121113 1_645
Mg1 Si2 3.165737 1_555
Mg2 Si0 2.830276 1_555
Mg2 Si7 2.864971 1_645
Mg2 Mg4 2.914565 1_555
Mg2 Si0 2.922765 1_455
Mg2 Si7 2.933898 1_545
Mg2 Si6 2.973187 1_545
Mg2 Mg5 2.977533 1_655
Mg2 Mg5 3.027438 1_555
Mg3 Si2 2.771761 1_555
Mg3 Si3 2.781649 1_455
Mg3 Si3 2.817089 1_555
Mg3 Si0 2.886902 1_455
Mg3 Si5 2.890968 1_455
Mg3 Si5 2.952973 1_555
Mg3 Si1 3.109335 1_455
Mg3 Si1 3.133964 1_555
Mg4 Si6 2.786445 1_455
Mg4 Si6 2.820886 1_555
Mg4 Si7 2.821836 1_555
Mg4 Si4 2.823635 1_456
Mg4 Si1 2.826091 1_555
Mg4 Si4 2.856861 1_556
Mg4 Si5 2.991921 1_456
Mg4 Si5 2.994226 1_556
Mg4 Si0 3.074447 1_455
Mg5 Si6 2.708029 1_545
Mg5 Si3 2.727427 1_555
Mg5 Si6 2.727530 1_445
Mg5 Si3 2.790354 1_455
Mg5 Si0 2.851277 1_455
Mg5 Si7 3.076515 1_545
Mg5 Si1 3.111112 1_545
Mg5 Si2 3.118609 1_555
Si0 Si1 2.533817 1_655
Si0 Si1 2.565089 1_555
Si0 Si3 2.628939 1_655
Si0 Si3 2.650684 1_555
Si1 Si6 2.857416 1_555
Si2 Si4 2.482440 1_555
Si2 Si4 2.511419 1_455
Si2 Si3 2.678287 1_555
Si2 Si3 2.767096 1_455
Si4 Si5 2.509217 1_555
Si5 Si7 2.542104 1_554
Si5 Si7 2.578294 1_654
Si6 Si7 2.593591 1_555
Si6 Si7 2.594744 1_655
