# generated using pymatgen
data_Na2HgP6(NO9)2
_symmetry_space_group_name_H-M   'P 1'
_cell_length_a   7.90879033
_cell_length_b   7.90879033
_cell_length_c   15.10391998
_cell_angle_alpha   88.20117146
_cell_angle_beta   88.20117146
_cell_angle_gamma   62.63058071
_symmetry_Int_Tables_number   1
_chemical_formula_structural   Na2HgP6(NO9)2
_chemical_formula_sum   'Na4 Hg2 P12 N4 O36'
_cell_volume   838.41527737
_cell_formula_units_Z   2
loop_
 _symmetry_equiv_pos_site_id
 _symmetry_equiv_pos_as_xyz
  1  'x, y, z'
loop_
 _atom_site_type_symbol
 _atom_site_label
 _atom_site_symmetry_multiplicity
 _atom_site_fract_x
 _atom_site_fract_y
 _atom_site_fract_z
 _atom_site_occupancy
  Na  Na0  1  0.96718100  0.69692200  0.92166900  1
  Na  Na1  1  0.30307800  0.03281900  0.57833100  1
  Na  Na2  1  0.03281900  0.30307800  0.07833100  1
  Na  Na3  1  0.69692200  0.96718100  0.42166900  1
  Hg  Hg0  1  0.35971000  0.64029000  0.75000000  1
  Hg  Hg1  1  0.64029000  0.35971000  0.25000000  1
  P  P0  1  0.94807800  0.88812900  0.62056100  1
  P  P1  1  0.11187100  0.05192200  0.87943900  1
  P  P2  1  0.05192200  0.11187100  0.37943900  1
  P  P3  1  0.88812900  0.94807800  0.12056100  1
  P  P4  1  0.78117300  0.40882700  0.87079000  1
  P  P5  1  0.59117300  0.21882700  0.62921000  1
  P  P6  1  0.21882700  0.59117300  0.12921000  1
  P  P7  1  0.40882700  0.78117300  0.37079000  1
  P  P8  1  0.10081000  0.35731900  0.75465100  1
  P  P9  1  0.64268100  0.89919000  0.74534900  1
  P  P10  1  0.89919000  0.64268100  0.24534900  1
  P  P11  1  0.35731900  0.10081000  0.25465100  1
  N  N0  1  0.78052700  0.53299600  0.53652600  1
  N  N1  1  0.46700400  0.21947300  0.96347400  1
  N  N2  1  0.21947300  0.46700400  0.46347400  1
  N  N3  1  0.53299600  0.78052700  0.03652600  1
  O  O0  1  0.87430700  0.44243700  0.77856100  1
  O  O1  1  0.55756300  0.12569300  0.72143900  1
  O  O2  1  0.12569300  0.55756300  0.22143900  1
  O  O3  1  0.44243700  0.87430700  0.27856100  1
  O  O4  1  0.17533300  0.47175200  0.80431200  1
  O  O5  1  0.52824800  0.82466700  0.69568800  1
  O  O6  1  0.82466700  0.52824800  0.19568800  1
  O  O7  1  0.47175200  0.17533300  0.30431200  1
  O  O8  1  0.15733900  0.85079500  0.85683200  1
  O  O9  1  0.14920500  0.84266100  0.64316800  1
  O  O10  1  0.84266100  0.14920500  0.14316800  1
  O  O11  1  0.85079500  0.15733900  0.35683200  1
  O  O12  1  0.92159300  0.81465400  0.53399300  1
  O  O13  1  0.18534600  0.07840700  0.96600700  1
  O  O14  1  0.07840700  0.18534600  0.46600700  1
  O  O15  1  0.81465400  0.92159300  0.03399300  1
  O  O16  1  0.57122700  0.48283400  0.85865400  1
  O  O17  1  0.51716600  0.42877300  0.64134600  1
  O  O18  1  0.42877300  0.51716600  0.14134600  1
  O  O19  1  0.48283400  0.57122700  0.35865400  1
  O  O20  1  0.84428100  0.47637000  0.94927400  1
  O  O21  1  0.52363000  0.15571900  0.55072600  1
  O  O22  1  0.15571900  0.52363000  0.05072600  1
  O  O23  1  0.47637000  0.84428100  0.44927400  1
  O  O24  1  0.18559900  0.14381100  0.79994900  1
  O  O25  1  0.85618900  0.81440100  0.70005100  1
  O  O26  1  0.81440100  0.85618900  0.20005100  1
  O  O27  1  0.14381100  0.18559900  0.29994900  1
  O  O28  1  0.13418300  0.33167400  0.65728600  1
  O  O29  1  0.66832600  0.86581700  0.84271400  1
  O  O30  1  0.86581700  0.66832600  0.34271400  1
  O  O31  1  0.33167400  0.13418300  0.15728600  1
  O  O32  1  0.88196400  0.17672700  0.87377900  1
  O  O33  1  0.82327300  0.11803600  0.62622100  1
  O  O34  1  0.11803600  0.82327300  0.12622100  1
  O  O35  1  0.17672700  0.88196400  0.37377900  1
loop_
_geom_bond_atom_site_label_1
_geom_bond_atom_site_label_2
_geom_bond_distance
_geom_bond_site_symmetry_2
Na0 O15 2.362340 1_556
Na0 O20 2.376755 1_555
Na0 O29 2.442740 1_555
Na0 O22 2.457062 1_656
Na0 O8 2.493441 1_655
Na0 O4 2.518494 1_655
Na1 O14 2.362340 1_555
Na1 O21 2.376755 1_555
Na1 O28 2.442740 1_555
Na1 O23 2.457062 1_545
Na1 O9 2.493441 1_545
Na1 O5 2.518494 1_545
Na2 O13 2.362340 1_554
Na2 O22 2.376755 1_555
Na2 O31 2.442740 1_555
Na2 O20 2.457062 1_454
Na2 O10 2.493441 1_455
Na2 O6 2.518494 1_455
Na3 O12 2.362340 1_555
Na3 O23 2.376755 1_555
Na3 O30 2.442740 1_555
Na3 O21 2.457062 1_565
Na3 O11 2.493441 1_565
Na3 O7 2.518494 1_565
Hg0 O16 2.273991 1_555
Hg0 O17 2.273991 1_555
Hg0 O8 2.343827 1_555
Hg0 O9 2.343827 1_555
Hg0 O5 2.493864 1_555
Hg0 O4 2.493864 1_555
Hg1 O19 2.273991 1_555
Hg1 O18 2.273991 1_555
Hg1 O11 2.343827 1_555
Hg1 O10 2.343827 1_555
Hg1 O6 2.493864 1_555
Hg1 O7 2.493864 1_555
O0 P4 1.626673 1_555
O0 P8 1.630475 1_655
O1 P5 1.626673 1_555
O1 P9 1.630475 1_545
O2 P6 1.626673 1_555
O2 P10 1.630475 1_455
O3 P7 1.626673 1_555
O3 P11 1.630475 1_565
O4 P8 1.513235 1_555
O5 P9 1.513235 1_555
O6 P10 1.513235 1_555
O7 P11 1.513235 1_555
O8 P1 1.508840 1_565
O9 P0 1.508840 1_455
O10 P3 1.508840 1_545
O11 P2 1.508840 1_655
O12 P0 1.505974 1_555
O13 P1 1.505974 1_555
O14 P2 1.505974 1_555
O15 P3 1.505974 1_555
O16 P4 1.500658 1_555
O17 P5 1.500658 1_555
O18 P6 1.500658 1_555
O19 P7 1.500658 1_555
O20 P4 1.503898 1_555
O21 P5 1.503898 1_555
O22 P6 1.503898 1_555
O23 P7 1.503898 1_555
O24 P1 1.612608 1_555
O24 P8 1.638371 1_555
O25 P0 1.612608 1_555
O25 P9 1.638371 1_555
O26 P3 1.612608 1_555
O26 P10 1.638371 1_555
O27 P2 1.612608 1_555
O27 P11 1.638371 1_555
O28 P8 1.489490 1_555
O29 P9 1.489490 1_555
O30 P10 1.489490 1_555
O31 P11 1.489490 1_555
O32 P1 1.625432 1_655
O32 P4 1.630544 1_555
O33 P0 1.625432 1_545
O33 P5 1.630544 1_555
O34 P3 1.625432 1_455
O34 P6 1.630544 1_555
O35 P2 1.625432 1_565
O35 P7 1.630544 1_555
