# generated using pymatgen
data_Ti17(NO4)6
_symmetry_space_group_name_H-M   'P 1'
_cell_length_a   7.64343000
_cell_length_b   10.73889209
_cell_length_c   14.64910436
_cell_angle_alpha   87.32145309
_cell_angle_beta   82.50643345
_cell_angle_gamma   69.15113368
_symmetry_Int_Tables_number   1
_chemical_formula_structural   Ti17(NO4)6
_chemical_formula_sum   'Ti34 N12 O48'
_cell_volume   1114.09840315
_cell_formula_units_Z   2
loop_
 _symmetry_equiv_pos_site_id
 _symmetry_equiv_pos_as_xyz
  1  'x, y, z'
loop_
 _atom_site_type_symbol
 _atom_site_label
 _atom_site_symmetry_multiplicity
 _atom_site_fract_x
 _atom_site_fract_y
 _atom_site_fract_z
 _atom_site_occupancy
  Ti  Ti0  1  0.92932200  0.07018500  0.42398700  1
  Ti  Ti1  1  0.08857500  0.05684100  0.75933000  1
  Ti  Ti2  1  0.27240200  0.42567200  0.76171400  1
  Ti  Ti3  1  0.59272300  0.75001600  0.13047500  1
  Ti  Ti4  1  0.25895900  0.07612500  0.09345600  1
  Ti  Ti5  1  0.23911500  0.24964900  0.53610400  1
  Ti  Ti6  1  0.56783200  0.57619500  0.90656900  1
  Ti  Ti7  1  0.40727700  0.24998400  0.86952500  1
  Ti  Ti8  1  0.43216800  0.42380500  0.09343100  1
  Ti  Ti9  1  0.91142500  0.94315900  0.24067000  1
  Ti  Ti10  1  0.76088500  0.75035100  0.46389600  1
  Ti  Ti11  1  0.60797500  0.42788100  0.42510100  1
  Ti  Ti12  1  0.72759800  0.57432800  0.23828600  1
  Ti  Ti13  1  0.78156300  0.44290100  0.75930000  1
  Ti  Ti14  1  0.42954300  0.07216900  0.42511200  1
  Ti  Ti15  1  0.59678500  0.07449800  0.76169800  1
  Ti  Ti16  1  0.57502300  0.25004700  0.19994600  1
  Ti  Ti17  1  0.89133600  0.57021500  0.57604000  1
  Ti  Ti18  1  0.05513400  0.57618600  0.90655600  1
  Ti  Ti19  1  0.94486600  0.42381400  0.09344400  1
  Ti  Ti20  1  0.74292300  0.25038500  0.53608200  1
  Ti  Ti21  1  0.09209200  0.74998600  0.13046900  1
  Ti  Ti22  1  0.22951100  0.92383200  0.90653700  1
  Ti  Ti23  1  0.07067800  0.92981500  0.57601300  1
  Ti  Ti24  1  0.77048900  0.07616800  0.09346300  1
  Ti  Ti25  1  0.90790800  0.25001400  0.86953100  1
  Ti  Ti26  1  0.21843700  0.55709900  0.24070000  1
  Ti  Ti27  1  0.25707700  0.74961500  0.46391800  1
  Ti  Ti28  1  0.40321500  0.92550200  0.23830200  1
  Ti  Ti29  1  0.42497700  0.74995300  0.80005400  1
  Ti  Ti30  1  0.10866400  0.42978500  0.42396000  1
  Ti  Ti31  1  0.39202500  0.57211900  0.57489900  1
  Ti  Ti32  1  0.57045700  0.92783100  0.57488800  1
  Ti  Ti33  1  0.74104100  0.92387500  0.90654400  1
  N  N0  1  0.16963200  0.24975000  0.82084700  1
  N  N1  1  0.35706500  0.24997900  0.14490500  1
  N  N2  1  0.64293500  0.75002100  0.85509500  1
  N  N3  1  0.66977400  0.25005800  0.82098100  1
  N  N4  1  0.83036800  0.75025000  0.17915300  1
  N  N5  1  0.50329000  0.25001200  0.48709900  1
  N  N6  1  0.17949400  0.74996700  0.85505600  1
  N  N7  1  0.99721700  0.75003500  0.51111400  1
  N  N8  1  0.82050600  0.25003300  0.14494400  1
  N  N9  1  0.00278300  0.24996500  0.48888600  1
  N  N10  1  0.33022600  0.74994200  0.17901900  1
  N  N11  1  0.49671000  0.74998800  0.51290100  1
  O  O0  1  0.99515100  0.04931300  0.11806500  1
  O  O1  1  0.97784300  0.10897500  0.30433400  1
  O  O2  1  0.33350600  0.06448400  0.79186300  1
  O  O3  1  0.32085700  0.11971700  0.96810500  1
  O  O4  1  0.35336700  0.43562900  0.45929100  1
  O  O5  1  0.15278300  0.12288200  0.63410700  1
  O  O6  1  0.16932300  0.06677000  0.45778200  1
  O  O7  1  0.47956100  0.56455600  0.20812800  1
  O  O8  1  0.55691100  0.61974700  0.03192300  1
  O  O9  1  0.52043900  0.43544400  0.79187200  1
  O  O10  1  0.44308900  0.38025300  0.96807700  1
  O  O11  1  0.28257200  0.38243600  0.63477000  1
  O  O12  1  0.64663300  0.56437100  0.54070900  1
  O  O13  1  0.68816100  0.44040500  0.12802600  1
  O  O14  1  0.00484900  0.95068700  0.88193500  1
  O  O15  1  0.02215700  0.89102500  0.69566600  1
  O  O16  1  0.48437600  0.11892000  0.30214100  1
  O  O17  1  0.49766500  0.05936200  0.12823000  1
  O  O18  1  0.84721800  0.87711800  0.36589300  1
  O  O19  1  0.83067700  0.93323000  0.54221800  1
  O  O20  1  0.80402600  0.54882600  0.88164200  1
  O  O21  1  0.71742800  0.61756400  0.36523000  1
  O  O22  1  0.88008000  0.60890000  0.69567000  1
  O  O23  1  0.61451700  0.38114900  0.30210100  1
  O  O24  1  0.65000800  0.11758700  0.63474300  1
  O  O25  1  0.81488300  0.11972400  0.96810100  1
  O  O26  1  0.78013100  0.37715300  0.63401800  1
  O  O27  1  0.85185800  0.43329700  0.45772700  1
  O  O28  1  0.66700600  0.06435500  0.45930400  1
  O  O29  1  0.16502000  0.93556800  0.20818100  1
  O  O30  1  0.04694600  0.61977800  0.03191600  1
  O  O31  1  0.83498000  0.06443200  0.79181900  1
  O  O32  1  0.98091100  0.56449800  0.20817700  1
  O  O33  1  0.95305400  0.38022200  0.96808400  1
  O  O34  1  0.01908900  0.43550200  0.79182300  1
  O  O35  1  0.18511700  0.88027600  0.03189900  1
  O  O36  1  0.11992000  0.39110000  0.30433000  1
  O  O37  1  0.51562400  0.88108000  0.69785900  1
  O  O38  1  0.14814200  0.56670300  0.54227300  1
  O  O39  1  0.33299400  0.93564500  0.54069600  1
  O  O40  1  0.19597400  0.45117400  0.11835800  1
  O  O41  1  0.50233500  0.94063800  0.87177000  1
  O  O42  1  0.38548300  0.61885100  0.69789900  1
  O  O43  1  0.31183900  0.55959500  0.87197400  1
  O  O44  1  0.34999200  0.88241300  0.36525700  1
  O  O45  1  0.21986900  0.62284700  0.36598200  1
  O  O46  1  0.67914300  0.88028300  0.03189500  1
  O  O47  1  0.66649400  0.93551600  0.20813700  1
loop_
_geom_bond_atom_site_label_1
_geom_bond_atom_site_label_2
_geom_bond_distance
_geom_bond_site_symmetry_2
N0 O2 1.968219 1_555
N0 O34 1.974444 1_555
N0 Ti25 2.033356 1_455
N0 Ti7 2.036948 1_555
N0 Ti2 2.379581 1_555
N0 Ti1 2.592549 1_555
N1 Ti16 1.943395 1_555
N1 O17 1.953775 1_555
N1 O40 2.118551 1_555
N1 Ti8 2.213813 1_555
N1 Ti4 2.427237 1_555
N2 Ti29 1.943395 1_555
N2 O41 1.953775 1_555
N2 O20 2.118551 1_555
N2 Ti6 2.213813 1_555
N2 Ti33 2.427237 1_555
N3 O9 1.969323 1_555
N3 O31 1.974303 1_555
N3 Ti25 2.038582 1_555
N3 Ti7 2.039653 1_555
N3 Ti15 2.376539 1_555
N3 Ti13 2.592010 1_555
N4 O47 1.968219 1_555
N4 O32 1.974444 1_555
N4 Ti21 2.033356 1_655
N4 Ti3 2.036948 1_555
N4 Ti12 2.379581 1_555
N4 Ti9 2.592549 1_555
N5 O4 1.967834 1_555
N5 O28 1.968200 1_555
N5 Ti20 2.053783 1_555
N5 Ti5 2.054216 1_555
N5 Ti11 2.418650 1_555
N5 Ti14 2.419020 1_555
N6 Ti29 1.943015 1_555
N6 O43 1.951971 1_555
N6 O14 2.115961 1_555
N6 Ti22 2.217188 1_555
N6 Ti18 2.428886 1_555
N7 O19 1.961693 1_555
N7 O38 1.962634 1_655
N7 Ti27 2.014656 1_655
N7 Ti10 2.015643 1_555
N7 Ti17 2.455315 1_555
N7 Ti23 2.455384 1_655
N8 Ti16 1.943015 1_555
N8 O13 1.951971 1_555
N8 O0 2.115961 1_555
N8 Ti24 2.217188 1_555
N8 Ti19 2.428886 1_555
N9 O6 1.961693 1_555
N9 O27 1.962634 1_455
N9 Ti20 2.014656 1_455
N9 Ti5 2.015643 1_555
N9 Ti30 2.455315 1_555
N9 Ti0 2.455384 1_455
N10 O7 1.969323 1_555
N10 O29 1.974303 1_555
N10 Ti21 2.038582 1_555
N10 Ti3 2.039653 1_555
N10 Ti28 2.376539 1_555
N10 Ti26 2.592010 1_555
N11 O12 1.967834 1_555
N11 O39 1.968200 1_555
N11 Ti27 2.053783 1_555
N11 Ti10 2.054216 1_555
N11 Ti31 2.418650 1_555
N11 Ti32 2.419020 1_555
O0 Ti24 1.720753 1_555
O0 Ti4 2.119596 1_655
O0 Ti9 2.227784 1_545
O1 Ti0 1.804321 1_555
O1 Ti9 2.284840 1_545
O2 O41 1.957323 1_545
O2 Ti1 2.020994 1_555
O2 Ti15 2.043052 1_555
O2 Ti22 2.450392 1_545
O2 Ti7 2.599858 1_555
O3 Ti4 1.914578 1_556
O3 Ti7 2.167690 1_555
O3 Ti22 2.667027 1_545
O4 Ti11 1.918177 1_555
O4 Ti30 2.027112 1_555
O5 Ti1 2.000052 1_555
O5 Ti5 2.135284 1_555
O5 Ti23 2.578205 1_545
O6 Ti0 1.949068 1_455
O6 Ti14 2.004902 1_555
O7 Ti26 2.019761 1_555
O7 Ti12 2.040799 1_555
O7 Ti8 2.454556 1_555
O7 Ti3 2.601263 1_555
O8 Ti6 1.900078 1_554
O8 Ti3 2.163481 1_555
O8 Ti8 2.678697 1_555
O9 Ti13 2.019761 1_555
O9 Ti2 2.040799 1_555
O9 Ti6 2.454556 1_555
O9 Ti7 2.601263 1_555
O10 Ti8 1.900078 1_556
O10 Ti7 2.163481 1_555
O10 Ti6 2.678697 1_555
O11 Ti2 1.922784 1_555
O11 Ti5 2.210852 1_555
O11 Ti31 2.544226 1_555
O12 Ti31 1.918177 1_555
O12 Ti17 2.027112 1_555
O13 Ti19 1.907506 1_555
O13 O7 1.960035 1_555
O13 Ti8 2.152328 1_555
O13 Ti12 2.328268 1_555
O14 Ti22 1.720753 1_555
O14 Ti33 2.119596 1_455
O14 Ti1 2.227784 1_565
O15 Ti23 1.804321 1_555
O15 Ti1 2.284840 1_565
O16 Ti14 1.881789 1_555
O16 Ti16 2.220598 1_555
O16 Ti28 2.612236 1_545
O17 Ti4 1.902862 1_555
O17 O47 1.957323 1_545
O17 Ti24 2.150063 1_555
O17 Ti28 2.325089 1_545
O18 Ti9 2.000050 1_555
O18 Ti10 2.135287 1_555
O18 Ti0 2.578201 1_565
O19 Ti23 1.949068 1_655
O19 Ti32 2.004902 1_555
O20 Ti6 1.714451 1_555
O20 Ti18 2.120727 1_655
O20 Ti13 2.223787 1_555
O21 Ti12 1.922784 1_555
O21 Ti10 2.210852 1_555
O21 Ti11 2.544226 1_555
O22 Ti17 1.804003 1_555
O22 Ti13 2.287096 1_555
O23 Ti11 1.882587 1_555
O23 Ti16 2.220359 1_555
O23 Ti12 2.609397 1_555
O24 Ti15 1.922135 1_555
O24 Ti20 2.210785 1_555
O24 Ti32 2.545400 1_545
O25 Ti24 1.891189 1_556
O25 Ti25 2.190841 1_555
O25 Ti33 2.590395 1_545
O26 Ti13 1.999677 1_555
O26 Ti20 2.134712 1_555
O26 Ti17 2.577557 1_555
O27 Ti30 1.948024 1_655
O27 Ti11 2.004705 1_555
O28 Ti14 1.917563 1_555
O28 Ti0 2.026659 1_555
O29 Ti28 1.893688 1_555
O29 Ti9 1.908097 1_455
O29 Ti4 2.416196 1_565
O30 Ti18 1.903940 1_554
O30 Ti21 2.195602 1_555
O30 Ti19 2.580286 1_455
O31 Ti15 1.893688 1_555
O31 Ti1 1.908097 1_655
O31 Ti33 2.416196 1_545
O32 Ti12 1.894888 1_555
O32 Ti26 1.910178 1_655
O32 Ti19 2.416123 1_555
O33 Ti19 1.903940 1_556
O33 Ti25 2.195602 1_555
O33 Ti18 2.580286 1_655
O34 Ti2 1.894888 1_555
O34 Ti13 1.910178 1_455
O34 Ti18 2.416123 1_555
O35 Ti22 1.891189 1_554
O35 Ti21 2.190841 1_555
O35 Ti4 2.590395 1_565
O36 Ti30 1.804003 1_555
O36 Ti26 2.287096 1_555
O37 Ti32 1.881789 1_555
O37 Ti29 2.220598 1_555
O37 Ti15 2.612236 1_565
O38 Ti17 1.948024 1_455
O38 Ti31 2.004705 1_555
O39 Ti32 1.917563 1_555
O39 Ti23 2.026659 1_555
O40 Ti8 1.714451 1_555
O40 Ti19 2.120727 1_455
O40 Ti26 2.223787 1_555
O41 Ti33 1.902862 1_555
O41 Ti22 2.150063 1_555
O41 Ti15 2.325089 1_565
O42 Ti31 1.882587 1_555
O42 Ti29 2.220359 1_555
O42 Ti2 2.609397 1_555
O43 Ti18 1.907506 1_555
O43 O9 1.960035 1_555
O43 Ti6 2.152328 1_555
O43 Ti2 2.328268 1_555
O44 Ti28 1.922135 1_555
O44 Ti27 2.210785 1_555
O44 Ti14 2.545400 1_565
O45 Ti26 1.999677 1_555
O45 Ti27 2.134712 1_555
O45 Ti30 2.577557 1_555
O46 Ti33 1.914578 1_554
O46 Ti3 2.167690 1_555
O46 Ti24 2.667027 1_565
O47 Ti9 2.020994 1_555
O47 Ti28 2.043052 1_555
O47 Ti24 2.450392 1_565
O47 Ti3 2.599858 1_555
