# generated using pymatgen
data_Ca(SnO2)2
_symmetry_space_group_name_H-M   'P 1'
_cell_length_a   7.41042468
_cell_length_b   7.41042468
_cell_length_c   10.95178638
_cell_angle_alpha   57.49727229
_cell_angle_beta   57.49727229
_cell_angle_gamma   25.78457778
_symmetry_Int_Tables_number   1
_chemical_formula_structural   Ca(SnO2)2
_chemical_formula_sum   'Ca2 Sn4 O8'
_cell_volume   218.27159131
_cell_formula_units_Z   2
loop_
 _symmetry_equiv_pos_site_id
 _symmetry_equiv_pos_as_xyz
  1  'x, y, z'
loop_
 _atom_site_type_symbol
 _atom_site_label
 _atom_site_symmetry_multiplicity
 _atom_site_fract_x
 _atom_site_fract_y
 _atom_site_fract_z
 _atom_site_occupancy
  Ca  Ca0  1  0.67532200  0.67532200  0.79590300  1
  Ca  Ca1  1  0.32467800  0.32467800  0.20409700  1
  Sn  Sn0  1  0.36138600  0.36138600  0.85848500  1
  Sn  Sn1  1  0.88652200  0.88652200  0.43338800  1
  Sn  Sn2  1  0.11347800  0.11347800  0.56661200  1
  Sn  Sn3  1  0.63861400  0.63861400  0.14151500  1
  O  O0  1  0.14640800  0.14640800  0.24944900  1
  O  O1  1  0.52663700  0.52663700  0.77038500  1
  O  O2  1  0.47336300  0.47336300  0.22961500  1
  O  O3  1  0.85359200  0.85359200  0.75055100  1
  O  O4  1  0.82339900  0.82339900  0.02367800  1
  O  O5  1  0.23181100  0.23181100  0.62686200  1
  O  O6  1  0.17660100  0.17660100  0.97632200  1
  O  O7  1  0.76818900  0.76818900  0.37313800  1
loop_
_geom_bond_atom_site_label_1
_geom_bond_atom_site_label_2
_geom_bond_distance
_geom_bond_site_symmetry_2
Ca0 O5 2.271875 1_565
Ca0 O5 2.271875 1_655
Ca0 O1 2.313918 1_555
Ca0 O3 2.338726 1_555
Ca0 O6 2.584292 1_655
Ca0 O6 2.584292 1_565
Ca1 O7 2.271875 1_545
Ca1 O7 2.271875 1_455
Ca1 O2 2.313918 1_555
Ca1 O0 2.338726 1_555
Ca1 O4 2.584292 1_545
Ca1 O4 2.584292 1_455
O0 Sn3 2.071343 1_545
O0 Sn3 2.071343 1_455
O1 Sn0 2.022662 1_555
O1 Sn2 2.490259 1_655
O1 Sn2 2.490259 1_565
O2 Sn3 2.022662 1_555
O2 Sn1 2.490259 1_455
O2 Sn1 2.490259 1_545
O3 Sn0 2.071343 1_565
O3 Sn0 2.071343 1_655
O4 Sn3 2.234754 1_555
O4 Sn0 2.283281 1_564
O4 Sn0 2.283281 1_654
O5 Sn2 2.145164 1_555
O5 Sn1 2.645370 1_455
O5 Sn1 2.645370 1_545
O6 Sn0 2.234754 1_555
O6 Sn3 2.283281 1_456
O6 Sn3 2.283281 1_546
O7 Sn1 2.145164 1_555
O7 Sn2 2.645370 1_655
O7 Sn2 2.645370 1_565
