# generated using pymatgen
data_Zn5(CO6)2
_symmetry_space_group_name_H-M   'P 1'
_cell_length_a   5.38050801
_cell_length_b   6.28550700
_cell_length_c   7.58295011
_cell_angle_alpha   114.48467954
_cell_angle_beta   95.74461903
_cell_angle_gamma   90.00000000
_symmetry_Int_Tables_number   1
_chemical_formula_structural   Zn5(CO6)2
_chemical_formula_sum   'Zn5 C2 O12'
_cell_volume   231.97159459
_cell_formula_units_Z   1
loop_
 _symmetry_equiv_pos_site_id
 _symmetry_equiv_pos_as_xyz
  1  'x, y, z'
loop_
 _atom_site_type_symbol
 _atom_site_label
 _atom_site_symmetry_multiplicity
 _atom_site_fract_x
 _atom_site_fract_y
 _atom_site_fract_z
 _atom_site_occupancy
  Zn  Zn0  1  0.00000000  0.00000000  0.00000000  1
  Zn  Zn1  1  0.50000000  0.73012500  0.00000000  1
  Zn  Zn2  1  0.50000000  0.26987500  0.00000000  1
  Zn  Zn3  1  0.04487000  0.62540900  0.25081700  1
  Zn  Zn4  1  0.95513000  0.37459200  0.74918300  1
  C  C0  1  0.30490700  0.81782500  0.63565100  1
  C  C1  1  0.69509300  0.18217500  0.36434900  1
  O  O0  1  0.31577400  0.91452700  0.82905500  1
  O  O1  1  0.68422600  0.08547300  0.17094500  1
  O  O2  1  0.08820500  0.76912300  0.53824700  1
  O  O3  1  0.91179500  0.23087700  0.46175300  1
  O  O4  1  0.50603900  0.77893000  0.55786000  1
  O  O5  1  0.49396100  0.22107000  0.44214000  1
  O  O6  1  0.31559900  0.41638300  0.83276500  1
  O  O7  1  0.68440100  0.58361700  0.16723500  1
  O  O8  1  0.19236500  0.82056800  0.13524400  1
  O  O9  1  0.19236500  0.31467600  0.13524400  1
  O  O10  1  0.80763500  0.17943200  0.86475600  1
  O  O11  1  0.80763500  0.68532400  0.86475600  1
loop_
_geom_bond_atom_site_label_1
_geom_bond_atom_site_label_2
_geom_bond_distance
_geom_bond_site_symmetry_2
C0 O4 1.259814 1_555
C0 O2 1.280201 1_555
C0 O0 1.329527 1_555
C1 O5 1.259814 1_555
C1 O3 1.280201 1_555
C1 O1 1.329527 1_555
O0 Zn0 2.172387 1_566
O0 Zn1 2.234821 1_556
O0 Zn2 2.234826 1_566
O1 Zn0 2.172387 1_655
O1 Zn2 2.234821 1_555
O1 Zn1 2.234826 1_545
O2 Zn3 1.971587 1_555
O3 Zn4 1.971587 1_555
O6 Zn4 1.961709 1_455
O6 Zn1 2.038792 1_556
O6 Zn2 2.038796 1_556
O7 Zn3 1.961709 1_655
O7 Zn2 2.038792 1_555
O7 Zn1 2.038796 1_555
O8 Zn3 1.983155 1_555
O8 Zn1 1.992809 1_555
O8 Zn0 2.035004 1_565
O9 Zn3 1.983160 1_555
O9 Zn2 1.992809 1_555
O9 Zn0 2.035004 1_555
O10 Zn4 1.983160 1_555
O10 Zn2 1.992809 1_556
O10 Zn0 2.035004 1_656
O11 Zn4 1.983155 1_555
O11 Zn1 1.992809 1_556
O11 Zn0 2.035004 1_666
