# generated using pymatgen
data_LiZn4(SnO2)4
_symmetry_space_group_name_H-M   'P 1'
_cell_length_a   3.33685116
_cell_length_b   8.74762297
_cell_length_c   9.72329385
_cell_angle_alpha   99.12758398
_cell_angle_beta   80.13306857
_cell_angle_gamma   79.02672427
_symmetry_Int_Tables_number   1
_chemical_formula_structural   LiZn4(SnO2)4
_chemical_formula_sum   'Li1 Zn4 Sn4 O8'
_cell_volume   269.08733051
_cell_formula_units_Z   1
loop_
 _symmetry_equiv_pos_site_id
 _symmetry_equiv_pos_as_xyz
  1  'x, y, z'
loop_
 _atom_site_type_symbol
 _atom_site_label
 _atom_site_symmetry_multiplicity
 _atom_site_fract_x
 _atom_site_fract_y
 _atom_site_fract_z
 _atom_site_occupancy
  Li  Li0  1  0.38445200  0.10071700  0.63635500  1
  Zn  Zn0  1  0.56073800  0.07591500  0.30795600  1
  Zn  Zn1  1  0.42448400  0.89005600  0.76531900  1
  Zn  Zn2  1  0.31485800  0.76963200  0.10362900  1
  Zn  Zn3  1  0.68862700  0.18663600  0.94168500  1
  Sn  Sn0  1  0.77793800  0.40814600  0.54311700  1
  Sn  Sn1  1  0.95850000  0.39606200  0.19211000  1
  Sn  Sn2  1  0.05029200  0.54470400  0.85683900  1
  Sn  Sn3  1  0.16167700  0.75459200  0.42694700  1
  O  O0  1  0.54603500  0.86796200  0.54539300  1
  O  O1  1  0.10993000  0.32228100  0.96373500  1
  O  O2  1  0.89120400  0.63502300  0.08529200  1
  O  O3  1  0.38712100  0.23404600  0.49818700  1
  O  O4  1  0.85254400  0.03059100  0.76903700  1
  O  O5  1  0.56496600  0.21441000  0.16092000  1
  O  O6  1  0.14217800  0.93550900  0.28501400  1
  O  O7  1  0.43844400  0.73867900  0.88693700  1
loop_
_geom_bond_atom_site_label_1
_geom_bond_atom_site_label_2
_geom_bond_distance
_geom_bond_site_symmetry_2
Li0 O3 1.913684 1_555
Li0 O0 2.016378 1_545
Li0 O4 2.248844 1_555
Li0 O4 2.252057 1_455
O0 Zn1 2.077600 1_555
O0 Sn3 2.140383 1_655
O0 Sn3 2.140770 1_555
O1 Zn3 2.021849 1_555
O1 Zn3 2.021856 1_455
O1 Sn1 2.153916 1_456
O1 Sn2 2.338941 1_555
O2 Zn2 2.017492 1_655
O2 Zn2 2.017595 1_555
O2 Sn2 2.172477 1_654
O2 Sn1 2.467535 1_555
O3 Zn0 2.046034 1_555
O3 Sn0 2.224484 1_455
O3 Sn0 2.225132 1_555
O4 Zn3 1.911696 1_555
O4 Zn1 2.055225 1_645
O4 Zn1 2.055468 1_545
O5 Zn0 2.015198 1_555
O5 Zn3 2.066263 1_554
O5 Sn1 2.262599 1_555
O5 Sn1 2.263809 1_455
O6 Zn2 2.017296 1_555
O6 Zn0 2.044535 1_465
O6 Zn0 2.044968 1_565
O6 Sn3 2.257852 1_555
O7 Zn1 1.909507 1_555
O7 Zn2 2.039943 1_556
O7 Sn2 2.334832 1_555
O7 Sn2 2.334946 1_655
