# generated using pymatgen
data_Y2ZrS5
_symmetry_space_group_name_H-M   'P 1'
_cell_length_a   7.26340286
_cell_length_b   7.75609859
_cell_length_c   11.58471498
_cell_angle_alpha   90.00000000
_cell_angle_beta   90.00000000
_cell_angle_gamma   90.00000000
_symmetry_Int_Tables_number   1
_chemical_formula_structural   Y2ZrS5
_chemical_formula_sum   'Y8 Zr4 S20'
_cell_volume   652.63266488
_cell_formula_units_Z   4
loop_
 _symmetry_equiv_pos_site_id
 _symmetry_equiv_pos_as_xyz
  1  'x, y, z'
loop_
 _atom_site_type_symbol
 _atom_site_label
 _atom_site_symmetry_multiplicity
 _atom_site_fract_x
 _atom_site_fract_y
 _atom_site_fract_z
 _atom_site_occupancy
  Y  Y0  1  0.52143806  0.49753388  0.32093100  1
  Y  Y1  1  0.97856194  0.00246612  0.82093100  1
  Y  Y2  1  0.47856194  0.99753388  0.67906900  1
  Y  Y3  1  0.02143806  0.50246612  0.17906900  1
  Y  Y4  1  0.47856194  0.50246612  0.67906900  1
  Y  Y5  1  0.02143806  0.99753388  0.17906900  1
  Y  Y6  1  0.52143806  0.00246612  0.32093100  1
  Y  Y7  1  0.97856194  0.49753388  0.82093100  1
  Zr  Zr0  1  0.07752142  0.75000000  0.49380299  1
  Zr  Zr1  1  0.42247858  0.75000000  0.99380299  1
  Zr  Zr2  1  0.92247858  0.25000000  0.50619701  1
  Zr  Zr3  1  0.57752142  0.25000000  0.00619701  1
  S  S0  1  0.83945494  0.96328295  0.59440067  1
  S  S1  1  0.66054506  0.53671705  0.09440067  1
  S  S2  1  0.16054506  0.46328295  0.40559933  1
  S  S3  1  0.33945494  0.03671705  0.90559933  1
  S  S4  1  0.16054506  0.03671705  0.40559933  1
  S  S5  1  0.33945494  0.46328295  0.90559933  1
  S  S6  1  0.83945494  0.53671705  0.59440067  1
  S  S7  1  0.66054506  0.96328295  0.09440067  1
  S  S8  1  0.83152321  0.75000000  0.31831311  1
  S  S9  1  0.66847679  0.75000000  0.81831311  1
  S  S10  1  0.16847679  0.25000000  0.68168689  1
  S  S11  1  0.33152321  0.25000000  0.18168689  1
  S  S12  1  0.44882143  0.75000000  0.49725349  1
  S  S13  1  0.05117857  0.75000000  0.99725349  1
  S  S14  1  0.55117857  0.25000000  0.50274651  1
  S  S15  1  0.94882143  0.25000000  0.00274651  1
  S  S16  1  0.19044144  0.75000000  0.70815945  1
  S  S17  1  0.30955856  0.75000000  0.20815945  1
  S  S18  1  0.80955856  0.25000000  0.29184055  1
  S  S19  1  0.69044144  0.25000000  0.79184055  1
loop_
_geom_bond_atom_site_label_1
_geom_bond_atom_site_label_2
_geom_bond_distance
_geom_bond_site_symmetry_2
S0 Zr2 2.520529 1_565
S0 Zr0 2.661711 1_655
S0 Y2 2.811393 1_555
S0 Y1 2.828452 1_565
S1 Zr3 2.520529 1_555
S1 Zr1 2.661711 1_554
S1 Y3 2.811393 1_655
S1 Y0 2.828452 1_555
S2 Zr0 2.520529 1_555
S2 Zr2 2.661711 1_455
S2 Y0 2.811393 1_555
S2 Y3 2.828452 1_555
S3 Zr1 2.520529 1_545
S3 Zr3 2.661711 1_556
S3 Y1 2.811393 1_455
S3 Y2 2.828452 1_545
S4 Zr0 2.520529 1_545
S4 Zr2 2.661711 1_455
S4 Y6 2.811393 1_555
S4 Y5 2.828452 1_545
S5 Zr1 2.520529 1_555
S5 Zr3 2.661711 1_556
S5 Y7 2.811393 1_455
S5 Y4 2.828452 1_555
S6 Zr2 2.520529 1_555
S6 Zr0 2.661711 1_655
S6 Y4 2.811393 1_555
S6 Y7 2.828452 1_555
S7 Zr3 2.520529 1_565
S7 Zr1 2.661711 1_554
S7 Y5 2.811393 1_655
S7 Y6 2.828452 1_565
S8 Zr0 2.706601 1_655
S8 Y5 2.861980 1_655
S8 Y3 2.861980 1_655
S8 Y6 2.984630 1_565
S8 Y0 2.984630 1_555
S9 Zr1 2.706601 1_555
S9 Y2 2.861980 1_555
S9 Y4 2.861980 1_555
S9 Y7 2.984630 1_555
S9 Y1 2.984630 1_565
S10 Zr2 2.706601 1_455
S10 Y7 2.861980 1_455
S10 Y1 2.861980 1_455
S10 Y4 2.984630 1_555
S10 Y2 2.984630 1_545
S11 Zr3 2.706601 1_555
S11 Y6 2.861980 1_555
S11 Y0 2.861980 1_555
S11 Y3 2.984630 1_555
S11 Y5 2.984630 1_545
S12 Zr0 2.697198 1_555
S12 Y4 2.858162 1_555
S12 Y2 2.858162 1_555
S12 Y6 2.878360 1_565
S12 Y0 2.878360 1_555
S13 Zr1 2.697198 1_555
S13 Y3 2.858162 1_556
S13 Y5 2.858162 1_556
S13 Y7 2.878360 1_455
S13 Y1 2.878360 1_465
S14 Zr2 2.697198 1_555
S14 Y0 2.858162 1_555
S14 Y6 2.858162 1_555
S14 Y2 2.878360 1_545
S14 Y4 2.878360 1_555
S15 Zr3 2.697198 1_555
S15 Y7 2.858162 1_554
S15 Y1 2.858162 1_554
S15 Y3 2.878360 1_655
S15 Y5 2.878360 1_645
S16 Zr0 2.615201 1_555
S16 Y7 2.812388 1_455
S16 Y1 2.812388 1_465
S16 Y4 2.859916 1_555
S16 Y2 2.859916 1_555
S17 Zr1 2.615201 1_554
S17 Y6 2.812388 1_565
S17 Y0 2.812388 1_555
S17 Y3 2.859916 1_555
S17 Y5 2.859916 1_555
S18 Zr2 2.615201 1_555
S18 Y3 2.812388 1_655
S18 Y5 2.812388 1_645
S18 Y0 2.859916 1_555
S18 Y6 2.859916 1_555
S19 Zr3 2.615201 1_556
S19 Y4 2.812388 1_555
S19 Y2 2.812388 1_545
S19 Y7 2.859916 1_555
S19 Y1 2.859916 1_555
