# generated using pymatgen
data_Nd2In8Co
_symmetry_space_group_name_H-M   'P 1'
_cell_length_a   4.62131002
_cell_length_b   4.62131002
_cell_length_c   12.29585174
_cell_angle_alpha   90.00000000
_cell_angle_beta   90.00000000
_cell_angle_gamma   90.00000000
_symmetry_Int_Tables_number   1
_chemical_formula_structural   Nd2In8Co
_chemical_formula_sum   'Nd2 In8 Co1'
_cell_volume   262.59643516
_cell_formula_units_Z   1
loop_
 _symmetry_equiv_pos_site_id
 _symmetry_equiv_pos_as_xyz
  1  'x, y, z'
loop_
 _atom_site_type_symbol
 _atom_site_label
 _atom_site_symmetry_multiplicity
 _atom_site_fract_x
 _atom_site_fract_y
 _atom_site_fract_z
 _atom_site_occupancy
  Nd  Nd0  1  0.00000000  -0.00000000  0.69407216  1
  Nd  Nd1  1  -0.00000000  0.00000000  0.30592784  1
  In  In0  1  0.50000000  0.00000000  0.88383198  1
  In  In1  1  0.00000000  0.50000000  0.88383198  1
  In  In2  1  0.50000000  -0.00000000  0.11616802  1
  In  In3  1  -0.00000000  0.50000000  0.11616802  1
  In  In4  1  0.50000000  0.00000000  0.50000000  1
  In  In5  1  0.00000000  0.50000000  0.50000000  1
  In  In6  1  0.50000000  0.50000000  0.69344882  1
  In  In7  1  0.50000000  0.50000000  0.30655118  1
  Co  Co0  1  0.00000000  0.00000000  0.00000000  1
loop_
_geom_bond_atom_site_label_1
_geom_bond_atom_site_label_2
_geom_bond_distance
_geom_bond_site_symmetry_2
In0 In2 2.856770 1_556
In0 In1 3.267760 1_655
In0 In1 3.267760 1_645
In0 In1 3.267760 1_555
In0 In1 3.267760 1_545
In0 Nd0 3.283782 1_655
In0 Nd0 3.283782 1_555
In0 In6 3.289232 1_555
In0 In6 3.289232 1_545
In1 In3 2.856770 1_556
In1 Nd0 3.283782 1_565
In1 Nd0 3.283782 1_555
In1 In6 3.289232 1_455
In1 In6 3.289232 1_555
In2 In3 3.267760 1_645
In2 In3 3.267760 1_555
In2 In3 3.267760 1_545
In2 In3 3.267760 1_655
In2 Nd1 3.283782 1_655
In2 Nd1 3.283782 1_555
In2 In7 3.289232 1_555
In2 In7 3.289232 1_545
In3 Nd1 3.283782 1_565
In3 Nd1 3.283782 1_555
In3 In7 3.289232 1_455
In3 In7 3.289232 1_555
In4 In5 3.267760 1_555
In4 In5 3.267760 1_645
In4 In5 3.267760 1_545
In4 In5 3.267760 1_655
In4 In6 3.316165 1_555
In4 In6 3.316165 1_545
In4 In7 3.316165 1_555
In4 In7 3.316165 1_545
In4 Nd1 3.321667 1_655
In4 Nd1 3.321667 1_555
In4 Nd0 3.321667 1_655
In4 Nd0 3.321667 1_555
In5 In6 3.316165 1_555
In5 In7 3.316165 1_455
In5 In7 3.316165 1_555
In5 In6 3.316165 1_455
In5 Nd1 3.321667 1_565
In5 Nd1 3.321667 1_555
In5 Nd0 3.321667 1_565
In5 Nd0 3.321667 1_555
In6 Nd0 3.267769 1_555
In6 Nd0 3.267769 1_655
In6 Nd0 3.267769 1_565
In6 Nd0 3.267769 1_665
In7 Nd1 3.267769 1_565
In7 Nd1 3.267769 1_655
In7 Nd1 3.267769 1_555
In7 Nd1 3.267769 1_665
Co0 In2 2.716507 1_455
Co0 In2 2.716507 1_555
Co0 In3 2.716507 1_555
Co0 In1 2.716507 1_554
Co0 In0 2.716507 1_454
Co0 In0 2.716507 1_554
Co0 In3 2.716507 1_545
Co0 In1 2.716507 1_544
