# generated using pymatgen
data_BaZn(CuO2)4
_symmetry_space_group_name_H-M   'P 1'
_cell_length_a   5.30967127
_cell_length_b   5.30967127
_cell_length_c   7.15659400
_cell_angle_alpha   90.00000000
_cell_angle_beta   90.00000000
_cell_angle_gamma   119.99999096
_symmetry_Int_Tables_number   1
_chemical_formula_structural   BaZn(CuO2)4
_chemical_formula_sum   'Ba1 Zn1 Cu4 O8'
_cell_volume   174.73194858
_cell_formula_units_Z   1
loop_
 _symmetry_equiv_pos_site_id
 _symmetry_equiv_pos_as_xyz
  1  'x, y, z'
loop_
 _atom_site_type_symbol
 _atom_site_label
 _atom_site_symmetry_multiplicity
 _atom_site_fract_x
 _atom_site_fract_y
 _atom_site_fract_z
 _atom_site_occupancy
  Ba  Ba0  1  0.00000000  0.00000000  0.00000000  1
  Zn  Zn0  1  0.00000000  0.00000000  0.50000000  1
  Cu  Cu0  1  0.33333300  0.66666700  0.73733200  1
  Cu  Cu1  1  0.66666700  0.33333300  0.73733200  1
  Cu  Cu2  1  0.33333300  0.66666700  0.26266800  1
  Cu  Cu3  1  0.66666700  0.33333300  0.26266800  1
  O  O0  1  0.31189800  0.31189800  0.67916800  1
  O  O1  1  0.68810200  0.00000000  0.67916800  1
  O  O2  1  0.00000000  0.68810200  0.67916800  1
  O  O3  1  0.68810200  0.68810200  0.32083200  1
  O  O4  1  0.00000000  0.31189800  0.32083200  1
  O  O5  1  0.31189800  0.00000000  0.32083200  1
  O  O6  1  0.33333300  0.66666700  0.00000000  1
  O  O7  1  0.66666700  0.33333300  0.00000000  1
loop_
_geom_bond_atom_site_label_1
_geom_bond_atom_site_label_2
_geom_bond_distance
_geom_bond_site_symmetry_2
Ba0 O1 2.830989 1_454
Ba0 O2 2.830989 1_544
Ba0 O4 2.830989 1_555
Ba0 O5 2.830989 1_555
Ba0 O3 2.830989 1_445
Ba0 O0 2.830989 1_554
Ba0 O7 3.065537 1_455
Ba0 O6 3.065537 1_545
Ba0 O6 3.065542 1_555
Ba0 O6 3.065542 1_445
Ba0 O7 3.065542 1_555
Ba0 O7 3.065542 1_445
Cu0 O2 1.876210 1_555
Cu0 O1 1.876213 1_565
Cu0 O0 1.876215 1_555
Cu0 O6 1.879808 1_556
Cu1 O1 1.876210 1_555
Cu1 O2 1.876213 1_655
Cu1 O0 1.876215 1_555
Cu1 O7 1.879808 1_556
Cu2 O5 1.876210 1_565
Cu2 O4 1.876213 1_555
Cu2 O3 1.876215 1_555
Cu2 O6 1.879808 1_555
Cu3 O4 1.876210 1_655
Cu3 O5 1.876213 1_555
Cu3 O3 1.876215 1_555
Cu3 O7 1.879808 1_555
O0 Zn0 2.094447 1_555
O1 Zn0 2.094447 1_655
O2 Zn0 2.094447 1_565
O3 Zn0 2.094447 1_665
O4 Zn0 2.094447 1_555
O5 Zn0 2.094447 1_555
