# generated using pymatgen
data_La3IrI3
_symmetry_space_group_name_H-M   'P 1'
_cell_length_a   10.99723557
_cell_length_b   10.99520250
_cell_length_c   10.99703179
_cell_angle_alpha   109.46529469
_cell_angle_beta   109.52001529
_cell_angle_gamma   109.43420211
_symmetry_Int_Tables_number   1
_chemical_formula_structural   La3IrI3
_chemical_formula_sum   'La12 Ir4 I12'
_cell_volume   1023.54938799
_cell_formula_units_Z   4
loop_
 _symmetry_equiv_pos_site_id
 _symmetry_equiv_pos_as_xyz
  1  'x, y, z'
loop_
 _atom_site_type_symbol
 _atom_site_label
 _atom_site_symmetry_multiplicity
 _atom_site_fract_x
 _atom_site_fract_y
 _atom_site_fract_z
 _atom_site_occupancy
  La  La0  1  0.45413859  0.47733411  0.22655482  1
  La  La1  1  0.75017212  0.22643017  0.27324109  1
  La  La2  1  0.74924010  0.02266619  0.47678847  1
  La  La3  1  0.22804461  0.45583231  0.47818116  1
  La  La4  1  0.27183544  0.75013227  0.22803765  1
  La  La5  1  0.04683375  0.27355462  0.02375880  1
  La  La6  1  0.02232963  0.04415690  0.27223566  1
  La  La7  1  0.47790105  0.74987215  0.02168384  1
  La  La8  1  0.47739013  0.22766810  0.45513806  1
  La  La9  1  0.02270769  0.47730295  0.75006215  1
  La  La10  1  0.27276226  0.02272122  0.04541101  1
  La  La11  1  0.22746727  0.27232919  0.74975043  1
  Ir  Ir0  1  0.24991852  0.25025107  0.25055288  1
  Ir  Ir1  1  0.49915906  -0.00049696  0.24969379  1
  Ir  Ir2  1  0.00029414  0.24973071  0.49967107  1
  Ir  Ir3  1  0.25019007  0.50048611  -0.00033889  1
  I  I0  1  0.24982159  0.75998880  0.74013567  1
  I  I1  1  0.51981366  0.50981893  0.75978477  1
  I  I2  1  0.98017062  0.74008377  0.98989637  1
  I  I3  1  0.74033343  0.24997861  0.75974187  1
  I  I4  1  0.99018040  0.98070233  0.74018316  1
  I  I5  1  0.24997495  0.99016775  0.50995118  1
  I  I6  1  0.75943282  0.51922956  0.50943470  1
  I  I7  1  0.50970775  0.25000494  0.99032763  1
  I  I8  1  0.75982620  0.74017757  0.24995417  1
  I  I9  1  0.74042786  0.99040352  0.98049196  1
  I  I10  1  0.99008822  0.50963281  0.25000654  1
  I  I11  1  0.50983807  0.75983931  0.51967100  1
loop_
_geom_bond_atom_site_label_1
_geom_bond_atom_site_label_2
_geom_bond_distance
_geom_bond_site_symmetry_2
Ir0 La5 2.891066 1_555
Ir0 La8 2.899268 1_555
Ir0 La3 2.902864 1_555
Ir0 La6 2.905318 1_555
Ir0 La10 2.906310 1_555
Ir0 La0 2.907126 1_555
Ir1 La10 2.894504 1_555
Ir1 La2 2.895762 1_555
Ir1 La1 2.901904 1_555
Ir1 La4 2.903429 1_545
Ir1 La8 2.904985 1_555
Ir1 La7 2.910314 1_545
Ir2 La1 2.891506 1_455
Ir2 La11 2.899381 1_555
Ir2 La6 2.902605 1_555
Ir2 La3 2.905144 1_555
Ir2 La9 2.906528 1_555
Ir2 La2 2.906739 1_455
Ir3 La9 2.894487 1_554
Ir3 La0 2.895596 1_555
Ir3 La5 2.901865 1_555
Ir3 La7 2.903653 1_555
Ir3 La11 2.904767 1_554
Ir3 La4 2.910300 1_555
I0 La7 3.333987 1_556
I0 La9 3.339653 1_555
I0 La3 3.482139 1_555
I0 La10 3.487782 1_566
I1 La3 3.332431 1_555
I1 La11 3.339365 1_555
I1 La7 3.479136 1_556
I1 La8 3.483004 1_555
I2 La4 3.334147 1_656
I2 La10 3.339533 1_666
I2 La6 3.481569 1_666
I2 La9 3.488314 1_655
I3 La2 3.334974 1_555
I3 La9 3.336920 1_655
I3 La8 3.485657 1_555
I3 La5 3.497894 1_656
I4 La11 3.335539 1_665
I4 La5 3.340006 1_666
I4 La10 3.489669 1_666
I4 La2 3.492715 1_565
I5 La6 3.332160 1_565
I5 La8 3.338836 1_565
I5 La4 3.478760 1_555
I5 La11 3.483543 1_565
I6 La8 3.335243 1_555
I6 La1 3.339669 1_555
I6 La9 3.489811 1_655
I6 La0 3.492526 1_555
I7 La0 3.334582 1_556
I7 La10 3.336531 1_556
I7 La11 3.485076 1_555
I7 La1 3.497907 1_556
I8 La7 3.335050 1_555
I8 La2 3.339812 1_565
I8 La6 3.482183 1_665
I8 La0 3.490091 1_555
I9 La6 3.335211 1_666
I9 La1 3.335695 1_566
I9 La7 3.482270 1_556
I9 La5 3.497670 1_666
I10 La3 3.335487 1_655
I10 La5 3.335998 1_655
I10 La4 3.482100 1_655
I10 La1 3.498052 1_555
I11 La4 3.335251 1_555
I11 La0 3.339964 1_555
I11 La3 3.482858 1_555
I11 La2 3.489990 1_565
