# generated using pymatgen
data_PrNiSb
_symmetry_space_group_name_H-M   'P 1'
_cell_length_a   4.35625794
_cell_length_b   4.35625794
_cell_length_c   8.43480756
_cell_angle_alpha   90.00000000
_cell_angle_beta   90.00000000
_cell_angle_gamma   119.99999186
_symmetry_Int_Tables_number   1
_chemical_formula_structural   PrNiSb
_chemical_formula_sum   'Pr2 Ni2 Sb2'
_cell_volume   138.62227460
_cell_formula_units_Z   2
loop_
 _symmetry_equiv_pos_site_id
 _symmetry_equiv_pos_as_xyz
  1  'x, y, z'
loop_
 _atom_site_type_symbol
 _atom_site_label
 _atom_site_symmetry_multiplicity
 _atom_site_fract_x
 _atom_site_fract_y
 _atom_site_fract_z
 _atom_site_occupancy
  Pr  Pr0  1  0.00000000  -0.00000000  0.00000000  1
  Pr  Pr1  1  0.00000000  -0.00000000  0.50000000  1
  Ni  Ni0  1  0.66666700  0.33333300  0.74999900  1
  Ni  Ni1  1  0.33333300  0.66666700  0.25000100  1
  Sb  Sb0  1  0.66666700  0.33333300  0.25000100  1
  Sb  Sb1  1  0.33333300  0.66666700  0.74999900  1
loop_
_geom_bond_atom_site_label_1
_geom_bond_atom_site_label_2
_geom_bond_distance
_geom_bond_site_symmetry_2
Pr0 Sb0 3.282119 1_455
Pr0 Sb1 3.282119 1_544
Pr0 Sb0 3.282122 1_445
Pr0 Sb0 3.282122 1_555
Pr0 Sb1 3.282122 1_554
Pr0 Sb1 3.282122 1_444
Pr1 Sb1 3.282108 1_545
Pr1 Sb0 3.282108 1_455
Pr1 Sb1 3.282112 1_555
Pr1 Sb0 3.282112 1_555
Pr1 Sb1 3.282112 1_445
Pr1 Sb0 3.282112 1_445
Ni0 Sb1 2.515084 1_545
Ni0 Sb1 2.515084 1_655
Ni0 Sb1 2.515092 1_555
Ni0 Pr1 3.282108 1_655
Ni0 Pr1 3.282112 1_555
Ni0 Pr1 3.282112 1_665
Ni0 Pr0 3.282119 1_656
Ni0 Pr0 3.282122 1_666
Ni0 Pr0 3.282122 1_556
Ni1 Sb0 2.515084 1_455
Ni1 Sb0 2.515084 1_565
Ni1 Sb0 2.515092 1_555
Ni1 Pr1 3.282108 1_565
Ni1 Pr1 3.282112 1_555
Ni1 Pr1 3.282112 1_665
Ni1 Pr0 3.282119 1_565
Ni1 Pr0 3.282122 1_555
Ni1 Pr0 3.282122 1_665
