# generated using pymatgen
data_Mg6AlSiO8
_symmetry_space_group_name_H-M   'P 1'
_cell_length_a   9.39887415
_cell_length_b   4.16893422
_cell_length_c   4.16893422
_cell_angle_alpha   90.00000000
_cell_angle_beta   90.00000000
_cell_angle_gamma   90.00000000
_symmetry_Int_Tables_number   1
_chemical_formula_structural   Mg6AlSiO8
_chemical_formula_sum   'Mg6 Al1 Si1 O8'
_cell_volume   163.35255050
_cell_formula_units_Z   1
loop_
 _symmetry_equiv_pos_site_id
 _symmetry_equiv_pos_as_xyz
  1  'x, y, z'
loop_
 _atom_site_type_symbol
 _atom_site_label
 _atom_site_symmetry_multiplicity
 _atom_site_fract_x
 _atom_site_fract_y
 _atom_site_fract_z
 _atom_site_occupancy
  Mg  Mg0  1  0.00000000  0.50000000  0.50000000  1
  Mg  Mg1  1  0.50000000  0.50000000  0.50000000  1
  Mg  Mg2  1  0.25106341  0.00000000  0.50000000  1
  Mg  Mg3  1  0.74893659  -0.00000000  0.50000000  1
  Mg  Mg4  1  0.25106341  0.50000000  -0.00000000  1
  Mg  Mg5  1  0.74893659  0.50000000  0.00000000  1
  Al  Al0  1  0.00000000  0.00000000  -0.00000000  1
  Si  Si0  1  0.50000000  0.00000000  -0.00000000  1
  O  O0  1  0.19118370  -0.00000000  -0.00000000  1
  O  O1  1  0.80881630  0.00000000  0.00000000  1
  O  O2  1  0.25470576  0.50000000  0.50000000  1
  O  O3  1  0.74529424  0.50000000  0.50000000  1
  O  O4  1  0.00000000  0.00000000  0.50000000  1
  O  O5  1  0.50000000  0.00000000  0.50000000  1
  O  O6  1  0.00000000  0.50000000  -0.00000000  1
  O  O7  1  0.50000000  0.50000000  -0.00000000  1
loop_
_geom_bond_atom_site_label_1
_geom_bond_atom_site_label_2
_geom_bond_distance
_geom_bond_site_symmetry_2
Mg0 O6 2.084467 1_555
Mg0 O4 2.084467 1_555
Mg0 O4 2.084467 1_565
Mg0 O6 2.084467 1_556
Mg0 O3 2.393947 1_455
Mg0 O2 2.393947 1_555
Mg1 O7 2.084467 1_555
Mg1 O7 2.084467 1_556
Mg1 O5 2.084467 1_555
Mg1 O5 2.084467 1_565
Mg1 O3 2.305490 1_555
Mg1 O2 2.305490 1_555
Mg2 O2 2.084748 1_555
Mg2 O2 2.084748 1_545
Mg2 O0 2.159108 1_555
Mg2 O0 2.159108 1_556
Mg2 O5 2.339724 1_555
Mg2 O4 2.359713 1_555
Mg3 O3 2.084748 1_555
Mg3 O3 2.084748 1_545
Mg3 O1 2.159108 1_555
Mg3 O1 2.159108 1_556
Mg3 O5 2.339724 1_555
Mg3 O4 2.359713 1_655
Mg4 O2 2.084748 1_555
Mg4 O2 2.084748 1_554
Mg4 O0 2.159108 1_565
Mg4 O0 2.159108 1_555
Mg4 O7 2.339724 1_555
Mg4 O6 2.359713 1_555
Mg5 O3 2.084748 1_555
Mg5 O3 2.084748 1_554
Mg5 O1 2.159108 1_555
Mg5 O1 2.159108 1_565
Mg5 O7 2.339724 1_555
Mg5 O6 2.359713 1_655
Al0 O1 1.796912 1_455
Al0 O0 1.796912 1_555
Al0 O6 2.084467 1_555
Al0 O4 2.084467 1_555
Al0 O4 2.084467 1_554
Al0 O6 2.084467 1_545
O5 Si0 2.084467 1_555
O5 Si0 2.084467 1_556
O7 Si0 2.084467 1_565
O7 Si0 2.084467 1_555
