# generated using pymatgen
data_Li3Ag3Sn2
_symmetry_space_group_name_H-M   'P 1'
_cell_length_a   8.12332939
_cell_length_b   8.12332939
_cell_length_c   8.12332942
_cell_angle_alpha   33.72426724
_cell_angle_beta   33.72426724
_cell_angle_gamma   33.72426194
_symmetry_Int_Tables_number   1
_chemical_formula_structural   Li3Ag3Sn2
_chemical_formula_sum   'Li3 Ag3 Sn2'
_cell_volume   147.21715400
_cell_formula_units_Z   1
loop_
 _symmetry_equiv_pos_site_id
 _symmetry_equiv_pos_as_xyz
  1  'x, y, z'
loop_
 _atom_site_type_symbol
 _atom_site_label
 _atom_site_symmetry_multiplicity
 _atom_site_fract_x
 _atom_site_fract_y
 _atom_site_fract_z
 _atom_site_occupancy
  Li  Li0  1  0.74932100  0.74932100  0.74932100  1
  Li  Li1  1  0.25050500  0.25050500  0.25050500  1
  Li  Li2  1  0.12509000  0.12509000  0.12509000  1
  Ag  Ag0  1  0.62481200  0.62481200  0.62481200  1
  Ag  Ag1  1  0.00101000  0.00101000  0.00101000  1
  Ag  Ag2  1  0.49928000  0.49928000  0.49928000  1
  Sn  Sn0  1  0.37591900  0.37591900  0.37591900  1
  Sn  Sn1  1  0.87406300  0.87406300  0.87406300  1
loop_
_geom_bond_atom_site_label_1
_geom_bond_atom_site_label_2
_geom_bond_distance
_geom_bond_site_symmetry_2
Li0 Sn1 2.864367 1_555
Li0 Sn0 2.872211 1_565
Li0 Sn0 2.872211 1_655
Li0 Sn0 2.872212 1_556
Li0 Li2 2.890081 1_656
Li0 Li2 2.890081 1_566
Li0 Li2 2.890081 1_665
Li1 Sn0 2.879798 1_555
Li1 Li2 2.879821 1_555
Li1 Sn1 2.895328 1_454
Li1 Sn1 2.895328 1_544
Li1 Sn1 2.895328 1_445
Ag0 Li0 2.859017 1_555
Ag0 Li1 2.878935 1_565
Ag0 Li1 2.878935 1_655
Ag0 Li1 2.878936 1_556
Ag0 Ag2 2.882508 1_555
Ag0 Ag1 2.893417 1_656
Ag0 Ag1 2.893417 1_566
Ag0 Ag1 2.893417 1_665
Ag1 Li2 2.849166 1_555
Ag1 Sn0 2.883482 1_545
Ag1 Sn0 2.883482 1_455
Ag1 Sn0 2.883483 1_554
Ag1 Sn1 2.914999 1_444
Ag2 Sn0 2.832656 1_555
Ag2 Li2 2.878058 1_655
Ag2 Li2 2.878058 1_565
Ag2 Li2 2.878059 1_556
Ag2 Sn1 2.882526 1_545
Ag2 Sn1 2.882526 1_455
Ag2 Sn1 2.882526 1_554
