# generated using pymatgen
data_NaPr3Ge4O13
_symmetry_space_group_name_H-M   'P 1'
_cell_length_a   6.94820500
_cell_length_b   7.20075454
_cell_length_c   12.04521451
_cell_angle_alpha   102.29272234
_cell_angle_beta   98.58421946
_cell_angle_gamma   91.61166252
_symmetry_Int_Tables_number   1
_chemical_formula_structural   NaPr3Ge4O13
_chemical_formula_sum   'Na2 Pr6 Ge8 O26'
_cell_volume   581.11615008
_cell_formula_units_Z   2
loop_
 _symmetry_equiv_pos_site_id
 _symmetry_equiv_pos_as_xyz
  1  'x, y, z'
loop_
 _atom_site_type_symbol
 _atom_site_label
 _atom_site_symmetry_multiplicity
 _atom_site_fract_x
 _atom_site_fract_y
 _atom_site_fract_z
 _atom_site_occupancy
  Na  Na0  1  0.12283300  0.80659000  0.34878200  1
  Na  Na1  1  0.87716700  0.19341000  0.65121800  1
  Pr  Pr0  1  0.94672100  0.67572400  0.64552900  1
  Pr  Pr1  1  0.05327900  0.32427600  0.35447100  1
  Pr  Pr2  1  0.72552700  0.91223100  0.13522300  1
  Pr  Pr3  1  0.27447300  0.08776900  0.86477700  1
  Pr  Pr4  1  0.55366200  0.53728300  0.83490500  1
  Pr  Pr5  1  0.44633800  0.46271700  0.16509500  1
  Ge  Ge0  1  0.22873300  0.93952400  0.12052200  1
  Ge  Ge1  1  0.77126700  0.06047600  0.87947800  1
  Ge  Ge2  1  0.40565100  0.72228600  0.56728600  1
  Ge  Ge3  1  0.59434900  0.27771400  0.43271400  1
  Ge  Ge4  1  0.11550700  0.60072900  0.89794700  1
  Ge  Ge5  1  0.88449300  0.39927100  0.10205300  1
  Ge  Ge6  1  0.69016500  0.84434400  0.40486000  1
  Ge  Ge7  1  0.30983500  0.15565600  0.59514000  1
  O  O0  1  0.59242300  0.64746000  0.65755500  1
  O  O1  1  0.40757700  0.35254000  0.34244500  1
  O  O2  1  0.64358800  0.88540400  0.92896200  1
  O  O3  1  0.35641200  0.11459600  0.07103800  1
  O  O4  1  0.41123900  0.79174100  0.15927000  1
  O  O5  1  0.58876100  0.20825900  0.84073000  1
  O  O6  1  0.24671500  0.72302800  0.81490200  1
  O  O7  1  0.75328500  0.27697200  0.18509800  1
  O  O8  1  0.05182400  0.79310700  0.00749300  1
  O  O9  1  0.94817600  0.20689300  0.99250700  1
  O  O10  1  0.75092200  0.69473800  0.28225200  1
  O  O11  1  0.24907800  0.30526200  0.71774800  1
  O  O12  1  0.85170200  0.88470300  0.53155600  1
  O  O13  1  0.14829800  0.11529700  0.46844400  1
  O  O14  1  0.18721900  0.58170300  0.51868900  1
  O  O15  1  0.81278100  0.41829700  0.48131100  1
  O  O16  1  0.45312900  0.78095000  0.43469200  1
  O  O17  1  0.54687100  0.21905000  0.56530800  1
  O  O18  1  0.32509900  0.93887600  0.65082400  1
  O  O19  1  0.67490100  0.06112400  0.34917600  1
  O  O20  1  0.89564500  0.51098000  0.80513700  1
  O  O21  1  0.10435500  0.48902000  0.19486300  1
  O  O22  1  0.71653100  0.55136000  0.04563300  1
  O  O23  1  0.28346900  0.44864000  0.95436700  1
  O  O24  1  0.93132300  0.98659500  0.78026300  1
  O  O25  1  0.06867700  0.01340500  0.21973700  1
loop_
_geom_bond_atom_site_label_1
_geom_bond_atom_site_label_2
_geom_bond_distance
_geom_bond_site_symmetry_2
Na0 O13 2.363817 1_565
Na0 O25 2.370243 1_565
Na0 O16 2.401667 1_555
Na0 O21 2.605783 1_555
Na0 O10 2.637884 1_455
Na0 O14 2.861732 1_555
Na1 O12 2.363817 1_545
Na1 O24 2.370243 1_545
Na1 O17 2.401667 1_555
Na1 O20 2.605783 1_555
Na1 O11 2.637884 1_655
Na1 O15 2.861732 1_555
Ge0 O4 1.751859 1_555
Ge0 O25 1.762750 1_565
Ge0 O3 1.773818 1_565
Ge0 O8 1.814492 1_555
Ge1 O5 1.751859 1_555
Ge1 O24 1.762750 1_545
Ge1 O2 1.773818 1_545
Ge1 O9 1.814492 1_555
Ge2 O0 1.739027 1_555
Ge2 O14 1.751255 1_555
Ge2 O16 1.809640 1_555
Ge2 O18 1.818552 1_555
Ge3 O1 1.739027 1_555
Ge3 O15 1.751255 1_555
Ge3 O17 1.809640 1_555
Ge3 O19 1.818552 1_555
Ge4 O20 1.768646 1_455
Ge4 O23 1.781916 1_555
Ge4 O6 1.791487 1_555
Ge4 O8 1.812814 1_556
Ge5 O21 1.768646 1_655
Ge5 O22 1.781916 1_555
Ge5 O7 1.791487 1_555
Ge5 O9 1.812814 1_554
Ge6 O12 1.718899 1_555
Ge6 O10 1.747580 1_555
Ge6 O16 1.803954 1_555
Ge6 O19 1.825288 1_565
Ge7 O13 1.718899 1_555
Ge7 O11 1.747580 1_555
Ge7 O17 1.803954 1_555
Ge7 O18 1.825288 1_545
O0 Pr4 2.479268 1_555
O0 Pr0 2.492663 1_555
O1 Pr5 2.479268 1_555
O1 Pr1 2.492663 1_555
O2 Pr2 2.429234 1_556
O2 Pr4 2.539477 1_555
O2 Pr3 3.065407 1_565
O3 Pr3 2.429234 1_554
O3 Pr5 2.539477 1_555
O3 Pr2 3.065407 1_545
O4 Pr5 2.403286 1_555
O4 Pr2 2.407204 1_555
O5 Pr4 2.403286 1_555
O5 Pr3 2.407204 1_555
O6 Pr4 2.557301 1_555
O6 Pr3 2.561483 1_565
O6 Pr0 2.649086 1_455
O7 Pr5 2.557301 1_555
O7 Pr2 2.561483 1_545
O7 Pr1 2.649086 1_655
O8 Pr2 2.971820 1_455
O9 Pr3 2.971820 1_655
O10 Pr2 2.592982 1_555
O10 Pr5 2.677156 1_555
O11 Pr3 2.592982 1_555
O11 Pr4 2.677156 1_555
O12 Pr0 2.291278 1_555
O13 Pr1 2.291278 1_555
O14 Pr0 2.443410 1_455
O14 Pr1 2.450908 1_555
O15 Pr1 2.443410 1_655
O15 Pr0 2.450908 1_555
O18 Pr3 2.651419 1_565
O19 Pr2 2.651419 1_545
O20 Pr4 2.461982 1_555
O20 Pr0 2.525942 1_555
O21 Pr5 2.461982 1_555
O21 Pr1 2.525942 1_555
O22 Pr2 2.587960 1_555
O22 Pr4 2.600035 1_554
O22 Pr5 2.670691 1_555
O23 Pr3 2.587960 1_555
O23 Pr5 2.600035 1_556
O23 Pr4 2.670691 1_555
O24 Pr3 2.472601 1_665
O24 Pr0 2.484863 1_555
O25 Pr2 2.472601 1_445
O25 Pr1 2.484863 1_555
