# generated using pymatgen
data_Li2GaCu3
_symmetry_space_group_name_H-M   'P 1'
_cell_length_a   4.86696759
_cell_length_b   4.86696759
_cell_length_c   4.86696796
_cell_angle_alpha   60.82662417
_cell_angle_beta   60.82662417
_cell_angle_gamma   60.82663246
_symmetry_Int_Tables_number   1
_chemical_formula_structural   Li2GaCu3
_chemical_formula_sum   'Li2 Ga1 Cu3'
_cell_volume   83.03892535
_cell_formula_units_Z   1
loop_
 _symmetry_equiv_pos_site_id
 _symmetry_equiv_pos_as_xyz
  1  'x, y, z'
loop_
 _atom_site_type_symbol
 _atom_site_label
 _atom_site_symmetry_multiplicity
 _atom_site_fract_x
 _atom_site_fract_y
 _atom_site_fract_z
 _atom_site_occupancy
  Li  Li0  1  0.62478392  0.62478392  0.62478392  1
  Li  Li1  1  0.37521608  0.37521608  0.37521608  1
  Ga  Ga0  1  -0.00000000  -0.00000000  0.00000000  1
  Cu  Cu0  1  -0.00000000  0.50000000  0.00000000  1
  Cu  Cu1  1  0.50000000  -0.00000000  0.00000000  1
  Cu  Cu2  1  -0.00000000  -0.00000000  0.50000000  1
loop_
_geom_bond_atom_site_label_1
_geom_bond_atom_site_label_2
_geom_bond_distance
_geom_bond_site_symmetry_2
Li0 Li1 2.956522 1_555
Li0 Li1 3.013078 1_556
Li0 Li1 3.013078 1_565
Li0 Li1 3.013078 1_655
Ga0 Li0 2.887922 1_445
Ga0 Li1 2.887922 1_554
Ga0 Li0 2.887922 1_454
Ga0 Li1 2.887922 1_455
Ga0 Li1 2.887922 1_545
Ga0 Li0 2.887922 1_544
Cu0 Ga0 2.433484 1_565
Cu0 Ga0 2.433484 1_555
Cu0 Cu2 2.463825 1_564
Cu0 Cu2 2.463825 1_555
Cu0 Cu1 2.463825 1_555
Cu0 Cu1 2.463825 1_465
Cu0 Li0 2.850845 1_454
Cu0 Li1 2.850845 1_555
Cu0 Li1 2.873272 1_455
Cu0 Li0 2.873272 1_554
Cu0 Li0 2.873272 1_455
Cu0 Li1 2.873272 1_554
Cu1 Ga0 2.433484 1_655
Cu1 Ga0 2.433484 1_555
Cu1 Cu2 2.463825 1_654
Cu1 Cu2 2.463825 1_555
Cu1 Li0 2.850845 1_544
Cu1 Li1 2.850845 1_555
Cu1 Li0 2.873272 1_554
Cu1 Li1 2.873272 1_545
Cu1 Li0 2.873272 1_545
Cu1 Li1 2.873272 1_554
Cu2 Ga0 2.433484 1_556
Cu2 Ga0 2.433484 1_555
Cu2 Li0 2.850845 1_445
Cu2 Li1 2.850845 1_555
Cu2 Li1 2.873272 1_545
Cu2 Li0 2.873272 1_545
Cu2 Li0 2.873272 1_455
Cu2 Li1 2.873272 1_455
