# generated using pymatgen
data_K3IrC4Cl2O9
_symmetry_space_group_name_H-M   'P 1'
_cell_length_a   14.49589788
_cell_length_b   14.49589788
_cell_length_c   14.50228881
_cell_angle_alpha   60.08461107
_cell_angle_beta   60.08461107
_cell_angle_gamma   30.78331139
_symmetry_Int_Tables_number   1
_chemical_formula_structural   K3IrC4Cl2O9
_chemical_formula_sum   'K12 Ir4 C16 Cl8 O36'
_cell_volume   1334.76093231
_cell_formula_units_Z   4
loop_
 _symmetry_equiv_pos_site_id
 _symmetry_equiv_pos_as_xyz
  1  'x, y, z'
loop_
 _atom_site_type_symbol
 _atom_site_label
 _atom_site_symmetry_multiplicity
 _atom_site_fract_x
 _atom_site_fract_y
 _atom_site_fract_z
 _atom_site_occupancy
  K  K0  1  0.24278900  0.47621700  0.50569500  1
  K  K1  1  0.52378300  0.75721100  0.99430500  1
  K  K2  1  0.75721100  0.52378300  0.49430500  1
  K  K3  1  0.47621700  0.24278900  0.00569500  1
  K  K4  1  0.81262600  0.14291500  0.40187300  1
  K  K5  1  0.85708500  0.18737400  0.09812700  1
  K  K6  1  0.18737400  0.85708500  0.59812700  1
  K  K7  1  0.14291500  0.81262600  0.90187300  1
  K  K8  1  0.57677700  0.06211000  0.34937900  1
  K  K9  1  0.93789000  0.42322300  0.15062100  1
  K  K10  1  0.42322300  0.93789000  0.65062100  1
  K  K11  1  0.06211000  0.57677700  0.84937900  1
  Ir  Ir0  1  0.71309000  0.06138200  0.70129100  1
  Ir  Ir1  1  0.93861800  0.28691000  0.79870900  1
  Ir  Ir2  1  0.28691000  0.93861800  0.29870900  1
  Ir  Ir3  1  0.06138200  0.71309000  0.20129100  1
  C  C0  1  0.57406200  0.05454400  0.62271300  1
  C  C1  1  0.94545600  0.42593800  0.87728700  1
  C  C2  1  0.42593800  0.94545600  0.37728700  1
  C  C3  1  0.05454400  0.57406200  0.12271300  1
  C  C4  1  0.61932900  0.93506800  0.73564000  1
  C  C5  1  0.06493200  0.38067100  0.76436000  1
  C  C6  1  0.38067100  0.06493200  0.26436000  1
  C  C7  1  0.93506800  0.61932900  0.23564000  1
  C  C8  1  0.58043000  0.38109100  0.63093000  1
  C  C9  1  0.61890900  0.41957000  0.86907000  1
  C  C10  1  0.41957000  0.61890900  0.36907000  1
  C  C11  1  0.38109100  0.58043000  0.13093000  1
  C  C12  1  0.43592300  0.42534100  0.72656500  1
  C  C13  1  0.57465900  0.56407700  0.77343500  1
  C  C14  1  0.56407700  0.57465900  0.27343500  1
  C  C15  1  0.42534100  0.43592300  0.22656500  1
  Cl  Cl0  1  0.99671200  0.80807900  0.61199300  1
  Cl  Cl1  1  0.19192100  0.00328800  0.88800700  1
  Cl  Cl2  1  0.00328800  0.19192100  0.38800700  1
  Cl  Cl3  1  0.80807900  0.99671200  0.11199300  1
  Cl  Cl4  1  0.83972200  0.97049300  0.83249400  1
  Cl  Cl5  1  0.02950700  0.16027800  0.66750600  1
  Cl  Cl6  1  0.16027800  0.02950700  0.16750600  1
  Cl  Cl7  1  0.97049300  0.83972200  0.33249400  1
  O  O0  1  0.59068800  0.14054900  0.59567800  1
  O  O1  1  0.85945100  0.40931200  0.90432200  1
  O  O2  1  0.40931200  0.85945100  0.40432200  1
  O  O3  1  0.14054900  0.59068800  0.09567800  1
  O  O4  1  0.51856900  0.07167400  0.56426500  1
  O  O5  1  0.92832600  0.48143100  0.93573500  1
  O  O6  1  0.48143100  0.92832600  0.43573500  1
  O  O7  1  0.07167400  0.51856900  0.06426500  1
  O  O8  1  0.68495000  0.92131800  0.78582700  1
  O  O9  1  0.07868200  0.31505000  0.71417300  1
  O  O10  1  0.31505000  0.07868200  0.21417300  1
  O  O11  1  0.92131800  0.68495000  0.28582700  1
  O  O12  1  0.58789200  0.86441300  0.77397500  1
  O  O13  1  0.13558700  0.41210800  0.72602500  1
  O  O14  1  0.41210800  0.13558700  0.22602500  1
  O  O15  1  0.86441300  0.58789200  0.27397500  1
  O  O16  1  0.72293600  0.21603000  0.60896600  1
  O  O17  1  0.78397000  0.27706400  0.89103400  1
  O  O18  1  0.27706400  0.78397000  0.39103400  1
  O  O19  1  0.21603000  0.72293600  0.10896600  1
  O  O20  1  0.55644600  0.49800800  0.58068800  1
  O  O21  1  0.50199200  0.44355400  0.91931200  1
  O  O22  1  0.44355400  0.50199200  0.41931200  1
  O  O23  1  0.49800800  0.55644600  0.08068800  1
  O  O24  1  0.46483500  0.29927100  0.76741400  1
  O  O25  1  0.70072900  0.53516500  0.73258600  1
  O  O26  1  0.53516500  0.70072900  0.23258600  1
  O  O27  1  0.29927100  0.46483500  0.26741400  1
  O  O28  1  0.30066900  0.57242200  0.76096700  1
  O  O29  1  0.42757800  0.69933100  0.73903300  1
  O  O30  1  0.69933100  0.42757800  0.23903300  1
  O  O31  1  0.57242200  0.30066900  0.26096700  1
  O  O32  1  0.08437700  0.43096800  0.48757100  1
  O  O33  1  0.56903200  0.91562300  0.01242900  1
  O  O34  1  0.91562300  0.56903200  0.51242900  1
  O  O35  1  0.43096800  0.08437700  0.98757100  1
loop_
_geom_bond_atom_site_label_1
_geom_bond_atom_site_label_2
_geom_bond_distance
_geom_bond_site_symmetry_2
K0 O22 2.818440 1_555
K0 O13 2.838163 1_555
K0 O0 2.979886 1_555
K0 O32 3.022320 1_555
K0 O4 3.038082 1_555
K0 O27 3.186440 1_555
K1 O23 2.818440 1_556
K1 O12 2.838163 1_555
K1 O1 2.979886 1_555
K1 O33 3.022320 1_556
K1 O5 3.038082 1_555
K1 O26 3.186440 1_556
K2 O20 2.818440 1_555
K2 O15 2.838163 1_555
K2 O2 2.979886 1_555
K2 O34 3.022320 1_555
K2 O6 3.038082 1_555
K2 O25 3.186440 1_555
K3 O21 2.818440 1_554
K3 O14 2.838163 1_555
K3 O3 2.979886 1_555
K3 O35 3.022320 1_554
K3 O7 3.038082 1_555
K3 O24 3.186440 1_554
K4 O30 2.793933 1_555
K4 O22 2.809871 1_555
K4 O16 2.957398 1_555
K4 O0 3.053743 1_555
K4 O31 3.206862 1_555
K5 O31 2.793933 1_555
K5 O23 2.809871 1_555
K5 O17 2.957398 1_554
K5 O1 3.053743 1_554
K5 O30 3.206862 1_555
K6 O28 2.793933 1_555
K6 O20 2.809871 1_555
K6 O18 2.957398 1_555
K6 O2 3.053743 1_555
K6 O29 3.206862 1_555
K7 O29 2.793933 1_555
K7 O21 2.809871 1_555
K7 O19 2.957398 1_556
K7 O3 3.053743 1_556
K7 O28 3.206862 1_555
K8 O6 2.774188 1_545
K8 O14 2.832458 1_555
K8 O4 2.837239 1_555
K8 O31 2.981552 1_555
K8 O27 3.028696 1_555
K8 O11 3.033482 1_545
K9 O7 2.774188 1_655
K9 O15 2.832458 1_555
K9 O5 2.837239 1_554
K9 O30 2.981552 1_555
K9 O26 3.028696 1_555
K9 O10 3.033482 1_655
K10 O4 2.774188 1_565
K10 O12 2.832458 1_555
K10 O6 2.837239 1_555
K10 O29 2.981552 1_555
K10 O25 3.028696 1_555
K10 O9 3.033482 1_565
K11 O5 2.774188 1_455
K11 O13 2.832458 1_555
K11 O7 2.837239 1_556
K11 O28 2.981552 1_555
K11 O24 3.028696 1_555
K11 O8 3.033482 1_455
Ir0 O16 2.050333 1_555
Ir0 O8 2.057470 1_545
Ir0 O0 2.066377 1_555
Ir0 O24 2.072499 1_555
Ir1 O17 2.050333 1_555
Ir1 O9 2.057470 1_655
Ir1 O1 2.066377 1_555
Ir1 O25 2.072499 1_555
Ir2 O18 2.050333 1_555
Ir2 O10 2.057470 1_565
Ir2 O2 2.066377 1_555
Ir2 O26 2.072499 1_555
Ir3 O19 2.050333 1_555
Ir3 O11 2.057470 1_455
Ir3 O3 2.066377 1_555
Ir3 O27 2.072499 1_555
C0 O4 1.246668 1_555
C0 O0 1.304066 1_555
C1 O5 1.246668 1_555
C1 O1 1.304066 1_555
C2 O6 1.246668 1_555
C2 O2 1.304066 1_555
C3 O7 1.246668 1_555
C3 O3 1.304066 1_555
C4 O12 1.243808 1_555
C4 O8 1.301691 1_555
C5 O13 1.243808 1_555
C5 O9 1.301691 1_555
C6 O14 1.243808 1_555
C6 O10 1.301691 1_555
C7 O15 1.243808 1_555
C7 O11 1.301691 1_555
C8 O20 1.238016 1_555
C8 O16 1.305762 1_555
C9 O21 1.238016 1_555
C9 O17 1.305762 1_555
C10 O22 1.238016 1_555
C10 O18 1.305762 1_555
C11 O23 1.238016 1_555
C11 O19 1.305762 1_555
C12 O28 1.241580 1_555
C12 O24 1.310775 1_555
C13 O29 1.241580 1_555
C13 O25 1.310775 1_555
C14 O30 1.241580 1_555
C14 O26 1.310775 1_555
C15 O31 1.241580 1_555
C15 O27 1.310775 1_555
Cl0 Ir0 2.357204 1_565
Cl0 K11 3.205153 1_655
Cl0 K0 3.266537 1_655
Cl0 K6 3.295519 1_655
Cl0 K4 3.326962 1_565
Cl1 Ir1 2.357204 1_455
Cl1 K10 3.205153 1_545
Cl1 K1 3.266537 1_545
Cl1 K7 3.295519 1_545
Cl1 K5 3.326962 1_456
Cl2 Ir2 2.357204 1_545
Cl2 K9 3.205153 1_455
Cl2 K2 3.266537 1_455
Cl2 K4 3.295519 1_455
Cl2 K6 3.326962 1_545
Cl3 Ir3 2.357204 1_655
Cl3 K8 3.205153 1_565
Cl3 K3 3.266537 1_565
Cl3 K5 3.295519 1_565
Cl3 K7 3.326962 1_654
Cl4 Ir0 2.356633 1_565
Cl4 K7 3.224671 1_655
Cl4 K3 3.256618 1_566
Cl4 K11 3.287217 1_655
Cl5 Ir1 2.356633 1_455
Cl5 K6 3.224671 1_545
Cl5 K2 3.256618 1_455
Cl5 K10 3.287217 1_545
Cl6 Ir2 2.356633 1_545
Cl6 K5 3.224671 1_455
Cl6 K1 3.256618 1_544
Cl6 K9 3.287217 1_455
Cl7 Ir3 2.356633 1_655
Cl7 K4 3.224671 1_565
Cl7 K0 3.256618 1_655
Cl7 K8 3.287217 1_565
O32 O34 1.243970 1_455
O33 O35 1.243970 1_564
