# generated using pymatgen
data_Zn(Mo3O8)2
_symmetry_space_group_name_H-M   'P 1'
_cell_length_a   6.18704736
_cell_length_b   6.18704736
_cell_length_c   9.55773300
_cell_angle_alpha   90.00000000
_cell_angle_beta   90.00000000
_cell_angle_gamma   119.99999312
_symmetry_Int_Tables_number   1
_chemical_formula_structural   Zn(Mo3O8)2
_chemical_formula_sum   'Zn1 Mo6 O16'
_cell_volume   316.84906971
_cell_formula_units_Z   1
loop_
 _symmetry_equiv_pos_site_id
 _symmetry_equiv_pos_as_xyz
  1  'x, y, z'
loop_
 _atom_site_type_symbol
 _atom_site_label
 _atom_site_symmetry_multiplicity
 _atom_site_fract_x
 _atom_site_fract_y
 _atom_site_fract_z
 _atom_site_occupancy
  Zn  Zn0  1  0.00000000  0.00000000  0.28532000  1
  Mo  Mo0  1  0.50255000  0.00510000  0.07128200  1
  Mo  Mo1  1  0.66571500  0.83285800  0.57535300  1
  Mo  Mo2  1  0.50255000  0.49745000  0.07128200  1
  Mo  Mo3  1  0.16714200  0.83285800  0.57535300  1
  Mo  Mo4  1  0.16714200  0.33428500  0.57535300  1
  Mo  Mo5  1  0.99490000  0.49745000  0.07128200  1
  O  O0  1  0.33333300  0.66666700  0.46094400  1
  O  O1  1  0.33333300  0.66666700  0.96843800  1
  O  O2  1  0.00000000  0.00000000  0.68661400  1
  O  O3  1  0.66666700  0.33333300  0.18912000  1
  O  O4  1  0.86001300  0.72002600  0.45600900  1
  O  O5  1  0.81087900  0.18912100  0.96640400  1
  O  O6  1  0.37824200  0.18912100  0.96640400  1
  O  O7  1  0.27997400  0.13998700  0.45600900  1
  O  O8  1  0.86001300  0.13998700  0.45600900  1
  O  O9  1  0.81087900  0.62175800  0.96640400  1
  O  O10  1  0.17533900  0.82466100  0.17937400  1
  O  O11  1  0.03288200  0.51644100  0.67541200  1
  O  O12  1  0.48355900  0.96711800  0.67541200  1
  O  O13  1  0.48355900  0.51644100  0.67541200  1
  O  O14  1  0.64932100  0.82466100  0.17937400  1
  O  O15  1  0.17533900  0.35067900  0.17937400  1
loop_
_geom_bond_atom_site_label_1
_geom_bond_atom_site_label_2
_geom_bond_distance
_geom_bond_site_symmetry_2
Mo0 O6 1.941200 1_554
Mo0 O5 1.941200 1_554
Mo0 O14 2.037649 1_545
Mo0 O10 2.037654 1_545
Mo0 O1 2.062648 1_544
Mo0 O3 2.088435 1_555
Mo1 O12 1.952158 1_555
Mo1 O13 1.952162 1_555
Mo1 O8 2.018105 1_565
Mo1 O4 2.018109 1_555
Mo1 O2 2.083034 1_665
Mo1 O0 2.089857 1_555
Mo2 O9 1.941200 1_554
Mo2 O6 1.941200 1_554
Mo2 O14 2.037654 1_555
Mo2 O15 2.037654 1_555
Mo2 O1 2.062653 1_554
Mo2 O3 2.088440 1_555
Mo3 O11 1.952163 1_555
Mo3 O12 1.952163 1_555
Mo3 O4 2.018104 1_455
Mo3 O7 2.018104 1_565
Mo3 O2 2.083029 1_565
Mo3 O0 2.089857 1_555
Mo4 O11 1.952158 1_555
Mo4 O13 1.952162 1_555
Mo4 O8 2.018105 1_455
Mo4 O7 2.018109 1_555
Mo4 O2 2.083034 1_555
Mo4 O0 2.089857 1_555
Mo5 O9 1.941200 1_554
Mo5 O5 1.941200 1_554
Mo5 O15 2.037649 1_655
Mo5 O10 2.037654 1_655
Mo5 O1 2.062648 1_654
Mo5 O3 2.088435 1_555
O4 Zn0 2.216277 1_665
O7 Zn0 2.216277 1_555
O8 Zn0 2.216277 1_655
O10 Zn0 2.134464 1_565
O14 Zn0 2.134469 1_665
O15 Zn0 2.134469 1_555
