# generated using pymatgen
data_MgPt5
_symmetry_space_group_name_H-M   'P 1'
_cell_length_a   14.56798292
_cell_length_b   14.56798292
_cell_length_c   9.34621030
_cell_angle_alpha   90.00000000
_cell_angle_beta   90.00000000
_cell_angle_gamma   158.06756053
_symmetry_Int_Tables_number   1
_chemical_formula_structural   MgPt5
_chemical_formula_sum   'Mg8 Pt40'
_cell_volume   740.86685449
_cell_formula_units_Z   8
loop_
 _symmetry_equiv_pos_site_id
 _symmetry_equiv_pos_as_xyz
  1  'x, y, z'
loop_
 _atom_site_type_symbol
 _atom_site_label
 _atom_site_symmetry_multiplicity
 _atom_site_fract_x
 _atom_site_fract_y
 _atom_site_fract_z
 _atom_site_occupancy
  Mg  Mg0_0  1  0.39636426  0.10363573  0.25000000  1
  Mg  Mg0_1  1  0.39636426  0.10363573  0.75000000  1
  Mg  Mg0_2  1  0.39636426  0.60363574  0.25000000  1
  Mg  Mg0_3  1  0.39636426  0.60363574  0.75000000  1
  Mg  Mg0_4  1  0.89636426  0.10363574  0.25000000  1
  Mg  Mg0_5  1  0.89636426  0.10363574  0.75000000  1
  Mg  Mg0_6  1  0.89636427  0.60363574  0.25000000  1
  Mg  Mg0_7  1  0.89636427  0.60363574  0.75000000  1
  Pt  Pt0_0  1  0.49090646  0.00909354  0.00000000  1
  Pt  Pt0_1  1  0.49090646  0.00909354  0.50000000  1
  Pt  Pt0_2  1  0.49090646  0.50909354  0.00000000  1
  Pt  Pt0_3  1  0.49090646  0.50909354  0.50000000  1
  Pt  Pt0_4  1  0.99090646  0.00909354  0.00000000  1
  Pt  Pt0_5  1  0.99090646  0.00909354  0.50000000  1
  Pt  Pt0_6  1  0.99090646  0.50909354  0.00000000  1
  Pt  Pt0_7  1  0.99090646  0.50909354  0.50000000  1
  Pt  Pt1_0  1  0.15905637  0.34094363  0.00000000  1
  Pt  Pt1_1  1  0.15905637  0.34094363  0.50000000  1
  Pt  Pt1_2  1  0.15905637  0.84094362  0.00000000  1
  Pt  Pt1_3  1  0.15905637  0.84094362  0.50000000  1
  Pt  Pt1_4  1  0.65905638  0.34094363  0.00000000  1
  Pt  Pt1_5  1  0.65905638  0.34094363  0.50000000  1
  Pt  Pt1_6  1  0.65905638  0.84094363  0.00000000  1
  Pt  Pt1_7  1  0.65905638  0.84094363  0.50000000  1
  Pt  Pt2_0  1  0.32548668  0.17451332  0.00000000  1
  Pt  Pt2_1  1  0.32548668  0.17451332  0.50000000  1
  Pt  Pt2_2  1  0.32548668  0.67451333  0.00000000  1
  Pt  Pt2_3  1  0.32548668  0.67451333  0.50000000  1
  Pt  Pt2_4  1  0.82548667  0.17451333  0.00000000  1
  Pt  Pt2_5  1  0.82548667  0.17451333  0.50000000  1
  Pt  Pt2_6  1  0.82548668  0.67451333  0.00000000  1
  Pt  Pt2_7  1  0.82548668  0.67451333  0.50000000  1
  Pt  Pt3_0  1  0.22795561  0.27204439  0.25000000  1
  Pt  Pt3_1  1  0.22795561  0.27204439  0.75000000  1
  Pt  Pt3_2  1  0.22795561  0.77204439  0.25000000  1
  Pt  Pt3_3  1  0.22795561  0.77204439  0.75000000  1
  Pt  Pt3_4  1  0.72795561  0.27204439  0.25000000  1
  Pt  Pt3_5  1  0.72795561  0.27204439  0.75000000  1
  Pt  Pt3_6  1  0.72795561  0.77204440  0.25000000  1
  Pt  Pt3_7  1  0.72795561  0.77204440  0.75000000  1
  Pt  Pt4_0  1  0.06685062  0.43314938  0.25000000  1
  Pt  Pt4_1  1  0.06685062  0.43314938  0.75000000  1
  Pt  Pt4_2  1  0.06685062  0.93314938  0.25000000  1
  Pt  Pt4_3  1  0.06685062  0.93314938  0.75000000  1
  Pt  Pt4_4  1  0.56685062  0.43314938  0.25000000  1
  Pt  Pt4_5  1  0.56685062  0.43314938  0.75000000  1
  Pt  Pt4_6  1  0.56685062  0.93314938  0.25000000  1
  Pt  Pt4_7  1  0.56685062  0.93314938  0.75000000  1
loop_
_geom_bond_atom_site_label_1
_geom_bond_atom_site_label_2
_geom_bond_distance
_geom_bond_site_symmetry_2
Mg0_0 Pt4_4 2.663248 1_555
Mg0_0 Pt4_2 2.663248 1_545
Mg0_0 Pt3_4 2.714178 1_555
Mg0_0 Pt3_2 2.714178 1_545
Mg0_0 Pt1_5 2.740669 1_555
Mg0_0 Pt1_2 2.740669 1_545
Mg0_0 Pt1_3 2.740669 1_545
Mg0_0 Pt1_4 2.740669 1_555
Mg0_0 Mg0_6 2.771271 1_445
Mg0_0 Mg0_6 2.771271 1_555
Mg0_0 Pt2_0 3.093499 1_555
Mg0_0 Pt2_1 3.093499 1_555
Mg0_1 Pt4_5 2.663248 1_555
Mg0_1 Pt4_3 2.663248 1_545
Mg0_1 Pt3_3 2.714178 1_545
Mg0_1 Pt3_5 2.714178 1_555
Mg0_1 Pt1_5 2.740669 1_555
Mg0_1 Pt1_2 2.740669 1_546
Mg0_1 Pt1_4 2.740669 1_556
Mg0_1 Pt1_3 2.740669 1_545
Mg0_1 Mg0_7 2.771271 1_445
Mg0_1 Mg0_7 2.771271 1_555
Mg0_1 Pt2_0 3.093499 1_556
Mg0_1 Pt2_1 3.093499 1_555
Mg0_2 Pt4_6 2.663248 1_555
Mg0_2 Pt4_0 2.663248 1_555
Mg0_2 Pt3_0 2.714178 1_555
Mg0_2 Pt3_6 2.714178 1_555
Mg0_2 Pt1_1 2.740669 1_555
Mg0_2 Pt1_0 2.740669 1_555
Mg0_2 Pt1_6 2.740669 1_555
Mg0_2 Pt1_7 2.740669 1_555
Mg0_2 Mg0_4 2.771271 1_455
Mg0_2 Mg0_4 2.771271 1_565
Mg0_2 Pt2_3 3.093499 1_555
Mg0_2 Pt2_2 3.093499 1_555
Mg0_3 Pt4_7 2.663248 1_555
Mg0_3 Pt4_1 2.663248 1_555
Mg0_3 Pt3_1 2.714178 1_555
Mg0_3 Pt3_7 2.714178 1_555
Mg0_3 Pt1_0 2.740669 1_556
Mg0_3 Pt1_1 2.740669 1_555
Mg0_3 Pt1_6 2.740669 1_556
Mg0_3 Pt1_7 2.740669 1_555
Mg0_3 Mg0_5 2.771271 1_455
Mg0_3 Mg0_5 2.771271 1_565
Mg0_3 Pt2_3 3.093499 1_555
Mg0_3 Pt2_2 3.093499 1_556
Mg0_4 Pt4_0 2.663248 1_655
Mg0_4 Pt4_6 2.663248 1_545
Mg0_4 Pt3_6 2.714178 1_545
Mg0_4 Pt3_0 2.714178 1_655
Mg0_4 Pt1_6 2.740669 1_545
Mg0_4 Pt1_7 2.740669 1_545
Mg0_4 Pt1_1 2.740669 1_655
Mg0_4 Pt1_0 2.740669 1_655
Mg0_4 Pt2_5 3.093499 1_555
Mg0_4 Pt2_4 3.093499 1_555
Mg0_5 Pt4_1 2.663248 1_655
Mg0_5 Pt4_7 2.663248 1_545
Mg0_5 Pt3_7 2.714178 1_545
Mg0_5 Pt3_1 2.714178 1_655
Mg0_5 Pt1_6 2.740669 1_546
Mg0_5 Pt1_7 2.740669 1_545
Mg0_5 Pt1_1 2.740669 1_655
Mg0_5 Pt1_0 2.740669 1_656
Mg0_5 Pt2_5 3.093499 1_555
Mg0_5 Pt2_4 3.093499 1_556
Mg0_6 Pt4_2 2.663248 1_655
Mg0_6 Pt4_4 2.663248 1_555
Mg0_6 Pt3_2 2.714178 1_655
Mg0_6 Pt3_4 2.714178 1_555
Mg0_6 Pt1_2 2.740669 1_655
Mg0_6 Pt1_3 2.740669 1_655
Mg0_6 Pt1_4 2.740669 1_555
Mg0_6 Pt1_5 2.740669 1_555
Mg0_6 Pt2_6 3.093499 1_555
Mg0_6 Pt2_7 3.093499 1_555
Mg0_7 Pt4_3 2.663248 1_655
Mg0_7 Pt4_5 2.663248 1_555
Mg0_7 Pt3_3 2.714178 1_655
Mg0_7 Pt3_5 2.714178 1_555
Mg0_7 Pt1_2 2.740669 1_656
Mg0_7 Pt1_3 2.740669 1_655
Mg0_7 Pt1_4 2.740669 1_556
Mg0_7 Pt1_5 2.740669 1_555
Mg0_7 Pt2_6 3.093499 1_556
Mg0_7 Pt2_7 3.093499 1_555
Pt0_0 Pt1_4 2.720544 1_555
Pt0_0 Pt1_2 2.720544 1_545
Pt0_0 Pt3_5 2.741659 1_554
Pt0_0 Pt3_2 2.741659 1_545
Pt0_0 Pt3_3 2.741659 1_544
Pt0_0 Pt3_4 2.741659 1_555
Pt0_0 Pt0_6 2.771271 1_445
Pt0_0 Pt0_6 2.771271 1_555
Pt0_0 Pt2_4 2.788033 1_555
Pt0_0 Pt2_2 2.788033 1_545
Pt0_1 Pt1_5 2.720544 1_555
Pt0_1 Pt1_3 2.720544 1_545
Pt0_1 Pt3_2 2.741659 1_545
Pt0_1 Pt3_3 2.741659 1_545
Pt0_1 Pt3_5 2.741659 1_555
Pt0_1 Pt3_4 2.741659 1_555
Pt0_1 Pt0_7 2.771271 1_445
Pt0_1 Pt0_7 2.771271 1_555
Pt0_1 Pt2_3 2.788033 1_545
Pt0_1 Pt2_5 2.788033 1_555
Pt0_2 Pt1_6 2.720544 1_555
Pt0_2 Pt1_0 2.720544 1_555
Pt0_2 Pt3_0 2.741659 1_555
Pt0_2 Pt3_1 2.741659 1_554
Pt0_2 Pt3_7 2.741659 1_554
Pt0_2 Pt3_6 2.741659 1_555
Pt0_2 Pt0_4 2.771271 1_455
Pt0_2 Pt0_4 2.771271 1_565
Pt0_2 Pt2_6 2.788033 1_555
Pt0_2 Pt2_0 2.788033 1_555
Pt0_3 Pt1_7 2.720544 1_555
Pt0_3 Pt1_1 2.720544 1_555
Pt0_3 Pt3_0 2.741659 1_555
Pt0_3 Pt3_1 2.741659 1_555
Pt0_3 Pt3_6 2.741659 1_555
Pt0_3 Pt3_7 2.741659 1_555
Pt0_3 Pt0_5 2.771271 1_455
Pt0_3 Pt0_5 2.771271 1_565
Pt0_3 Pt2_7 2.788033 1_555
Pt0_3 Pt2_1 2.788033 1_555
Pt0_4 Pt1_6 2.720544 1_545
Pt0_4 Pt1_0 2.720544 1_655
Pt0_4 Pt3_6 2.741659 1_545
Pt0_4 Pt3_0 2.741659 1_655
Pt0_4 Pt3_7 2.741659 1_544
Pt0_4 Pt3_1 2.741659 1_654
Pt0_4 Pt2_6 2.788033 1_545
Pt0_4 Pt2_0 2.788033 1_655
Pt0_5 Pt1_7 2.720544 1_545
Pt0_5 Pt1_1 2.720544 1_655
Pt0_5 Pt3_6 2.741659 1_545
Pt0_5 Pt3_7 2.741659 1_545
Pt0_5 Pt3_0 2.741659 1_655
Pt0_5 Pt3_1 2.741659 1_655
Pt0_5 Pt2_7 2.788033 1_545
Pt0_5 Pt2_1 2.788033 1_655
Pt0_6 Pt1_2 2.720544 1_655
Pt0_6 Pt1_4 2.720544 1_555
Pt0_6 Pt3_2 2.741659 1_655
Pt0_6 Pt3_3 2.741659 1_654
Pt0_6 Pt3_4 2.741659 1_555
Pt0_6 Pt3_5 2.741659 1_554
Pt0_6 Pt2_4 2.788033 1_555
Pt0_6 Pt2_2 2.788033 1_655
Pt0_7 Pt1_3 2.720544 1_655
Pt0_7 Pt1_5 2.720544 1_555
Pt0_7 Pt3_2 2.741659 1_655
Pt0_7 Pt3_3 2.741659 1_655
Pt0_7 Pt3_4 2.741659 1_555
Pt0_7 Pt3_5 2.741659 1_555
Pt0_7 Pt2_5 2.788033 1_555
Pt0_7 Pt2_3 2.788033 1_655
Pt1_0 Pt2_2 2.762988 1_555
Pt1_0 Pt2_4 2.762988 1_455
Pt1_0 Pt1_6 2.771271 1_445
Pt1_0 Pt1_6 2.771271 1_555
Pt1_0 Pt3_0 3.056712 1_555
Pt1_0 Pt3_1 3.056712 1_554
Pt1_1 Pt2_3 2.762988 1_555
Pt1_1 Pt2_5 2.762988 1_455
Pt1_1 Pt1_7 2.771271 1_445
Pt1_1 Pt1_7 2.771271 1_555
Pt1_1 Pt3_1 3.056712 1_555
Pt1_1 Pt3_0 3.056712 1_555
Pt1_2 Pt2_0 2.762988 1_565
Pt1_2 Pt2_6 2.762988 1_455
Pt1_2 Pt1_4 2.771271 1_565
Pt1_2 Pt1_4 2.771271 1_455
Pt1_2 Pt3_3 3.056712 1_554
Pt1_2 Pt3_2 3.056712 1_555
Pt1_3 Pt2_1 2.762988 1_565
Pt1_3 Pt2_7 2.762988 1_455
Pt1_3 Pt1_5 2.771271 1_565
Pt1_3 Pt1_5 2.771271 1_455
Pt1_3 Pt3_3 3.056712 1_555
Pt1_3 Pt3_2 3.056712 1_555
Pt1_4 Pt2_0 2.762988 1_555
Pt1_4 Pt2_6 2.762988 1_555
Pt1_4 Pt3_4 3.056712 1_555
Pt1_4 Pt3_5 3.056712 1_554
Pt1_5 Pt2_1 2.762988 1_555
Pt1_5 Pt2_7 2.762988 1_555
Pt1_5 Pt3_4 3.056712 1_555
Pt1_5 Pt3_5 3.056712 1_555
Pt1_6 Pt2_4 2.762988 1_565
Pt1_6 Pt2_2 2.762988 1_555
Pt1_6 Pt3_7 3.056712 1_554
Pt1_6 Pt3_6 3.056712 1_555
Pt1_7 Pt2_5 2.762988 1_565
Pt1_7 Pt2_3 2.762988 1_555
Pt1_7 Pt3_7 3.056712 1_555
Pt1_7 Pt3_6 3.056712 1_555
Pt2_0 Pt4_2 2.727725 1_545
Pt2_0 Pt4_4 2.727725 1_555
Pt2_0 Pt4_3 2.727725 1_544
Pt2_0 Pt4_5 2.727725 1_554
Pt2_0 Pt2_6 2.771271 1_445
Pt2_0 Pt2_6 2.771271 1_555
Pt2_1 Pt4_2 2.727725 1_545
Pt2_1 Pt4_4 2.727725 1_555
Pt2_1 Pt4_5 2.727725 1_555
Pt2_1 Pt4_3 2.727725 1_545
Pt2_1 Pt2_7 2.771271 1_445
Pt2_1 Pt2_7 2.771271 1_555
Pt2_2 Pt4_0 2.727725 1_555
Pt2_2 Pt4_1 2.727725 1_554
Pt2_2 Pt4_7 2.727725 1_554
Pt2_2 Pt4_6 2.727725 1_555
Pt2_2 Pt2_4 2.771271 1_565
Pt2_2 Pt2_4 2.771271 1_455
Pt2_3 Pt4_0 2.727725 1_555
Pt2_3 Pt4_1 2.727725 1_555
Pt2_3 Pt4_6 2.727725 1_555
Pt2_3 Pt4_7 2.727725 1_555
Pt2_3 Pt2_5 2.771271 1_565
Pt2_3 Pt2_5 2.771271 1_455
Pt2_4 Pt4_7 2.727725 1_544
Pt2_4 Pt4_6 2.727725 1_545
Pt2_4 Pt4_0 2.727725 1_655
Pt2_4 Pt4_1 2.727725 1_654
Pt2_5 Pt4_6 2.727725 1_545
Pt2_5 Pt4_7 2.727725 1_545
Pt2_5 Pt4_0 2.727725 1_655
Pt2_5 Pt4_1 2.727725 1_655
Pt2_6 Pt4_2 2.727725 1_655
Pt2_6 Pt4_3 2.727725 1_654
Pt2_6 Pt4_4 2.727725 1_555
Pt2_6 Pt4_5 2.727725 1_554
Pt2_7 Pt4_2 2.727725 1_655
Pt2_7 Pt4_3 2.727725 1_655
Pt2_7 Pt4_4 2.727725 1_555
Pt2_7 Pt4_5 2.727725 1_555
Pt3_0 Pt3_6 2.771271 1_445
Pt3_0 Pt3_6 2.771271 1_555
Pt3_0 Pt4_2 2.895781 1_545
Pt3_0 Pt4_4 2.895781 1_555
Pt3_1 Pt3_7 2.771271 1_445
Pt3_1 Pt3_7 2.771271 1_555
Pt3_1 Pt4_3 2.895781 1_545
Pt3_1 Pt4_5 2.895781 1_555
Pt3_2 Pt3_4 2.771271 1_565
Pt3_2 Pt3_4 2.771271 1_455
Pt3_2 Pt4_0 2.895781 1_555
Pt3_2 Pt4_6 2.895781 1_555
Pt3_3 Pt3_5 2.771271 1_565
Pt3_3 Pt3_5 2.771271 1_455
Pt3_3 Pt4_1 2.895781 1_555
Pt3_3 Pt4_7 2.895781 1_555
Pt3_4 Pt4_6 2.895781 1_545
Pt3_4 Pt4_0 2.895781 1_655
Pt3_5 Pt4_7 2.895781 1_545
Pt3_5 Pt4_1 2.895781 1_655
Pt3_6 Pt4_4 2.895781 1_555
Pt3_6 Pt4_2 2.895781 1_655
Pt3_7 Pt4_5 2.895781 1_555
Pt3_7 Pt4_3 2.895781 1_655
Pt4_0 Pt4_6 2.771271 1_445
Pt4_0 Pt4_6 2.771271 1_555
Pt4_1 Pt4_7 2.771271 1_445
Pt4_1 Pt4_7 2.771271 1_555
Pt4_2 Pt4_4 2.771271 1_455
Pt4_2 Pt4_4 2.771271 1_565
Pt4_3 Pt4_5 2.771271 1_455
Pt4_3 Pt4_5 2.771271 1_565
