# generated using pymatgen
data_YbGd3F12
_symmetry_space_group_name_H-M   'P 1'
_cell_length_a   6.90617908
_cell_length_b   4.37849411
_cell_length_c   6.45362597
_cell_angle_alpha   89.10118198
_cell_angle_beta   90.00000000
_cell_angle_gamma   90.00000000
_symmetry_Int_Tables_number   1
_chemical_formula_structural   YbGd3F12
_chemical_formula_sum   'Yb1 Gd3 F12'
_cell_volume   195.12501794
_cell_formula_units_Z   1
loop_
 _symmetry_equiv_pos_site_id
 _symmetry_equiv_pos_as_xyz
  1  'x, y, z'
loop_
 _atom_site_type_symbol
 _atom_site_label
 _atom_site_symmetry_multiplicity
 _atom_site_fract_x
 _atom_site_fract_y
 _atom_site_fract_z
 _atom_site_occupancy
  Yb  Yb0  1  0.00000000  0.93817489  0.13148288  1
  Gd  Gd0  1  0.00000000  0.56548125  0.63102827  1
  Gd  Gd1  1  0.50000000  0.06170999  0.87146314  1
  Gd  Gd2  1  0.50000000  0.43769202  0.36562983  1
  F  F0  1  0.00000000  0.08413890  0.46808492  1
  F  F1  1  0.00000000  0.40349891  0.98628044  1
  F  F2  1  0.50000000  0.91917098  0.52191113  1
  F  F3  1  0.50000000  0.57727041  0.01696101  1
  F  F4  1  0.18426271  0.62406766  0.32700567  1
  F  F5  1  0.81838297  0.88257323  0.84442616  1
  F  F6  1  0.68797671  0.38608768  0.66508490  1
  F  F7  1  0.30792754  0.11370326  0.16706196  1
  F  F8  1  0.31202329  0.38608768  0.66508490  1
  F  F9  1  0.69207246  0.11370326  0.16706196  1
  F  F10  1  0.81573729  0.62406766  0.32700567  1
  F  F11  1  0.18161703  0.88257323  0.84442616  1
loop_
_geom_bond_atom_site_label_1
_geom_bond_atom_site_label_2
_geom_bond_distance
_geom_bond_site_symmetry_2
F0 Yb0 2.273964 1_545
F0 Gd0 2.370048 1_555
F0 Gd0 2.487580 1_545
F1 Yb0 2.229192 1_546
F1 Gd0 2.389208 1_555
F1 Yb0 2.535268 1_556
F2 Gd1 2.350035 1_565
F2 Gd2 2.351223 1_555
F2 Gd2 2.469787 1_565
F3 Gd1 2.306154 1_564
F3 Gd2 2.322424 1_555
F3 Gd1 2.458446 1_554
F4 Yb0 2.246921 1_555
F4 Gd2 2.340177 1_555
F4 Gd0 2.349262 1_555
F5 Yb0 2.253575 1_656
F5 Gd0 2.336123 1_655
F5 Gd1 2.341945 1_565
F6 Gd0 2.302912 1_655
F6 Gd1 2.327470 1_555
F6 Gd2 2.336131 1_555
F7 Yb0 2.274064 1_545
F7 Gd1 2.337579 1_554
F7 Gd2 2.339055 1_555
F8 Gd0 2.302912 1_555
F8 Gd1 2.327470 1_555
F8 Gd2 2.336131 1_555
F9 Yb0 2.274064 1_645
F9 Gd1 2.337579 1_554
F9 Gd2 2.339055 1_555
F10 Yb0 2.246921 1_655
F10 Gd2 2.340177 1_555
F10 Gd0 2.349262 1_655
F11 Yb0 2.253575 1_556
F11 Gd0 2.336123 1_555
F11 Gd1 2.341945 1_565
