# generated using pymatgen
data_ScPIr
_symmetry_space_group_name_H-M   'P 1'
_cell_length_a   6.34634545
_cell_length_b   6.34634545
_cell_length_c   3.91412633
_cell_angle_alpha   90.00000000
_cell_angle_beta   90.00000000
_cell_angle_gamma   119.99999505
_symmetry_Int_Tables_number   1
_chemical_formula_structural   ScPIr
_chemical_formula_sum   'Sc3 P3 Ir3'
_cell_volume   136.52522720
_cell_formula_units_Z   3
loop_
 _symmetry_equiv_pos_site_id
 _symmetry_equiv_pos_as_xyz
  1  'x, y, z'
loop_
 _atom_site_type_symbol
 _atom_site_label
 _atom_site_symmetry_multiplicity
 _atom_site_fract_x
 _atom_site_fract_y
 _atom_site_fract_z
 _atom_site_occupancy
  Sc  Sc0  1  0.00000000  0.41946679  0.50000000  1
  Sc  Sc1  1  0.58053321  0.58053321  0.50000000  1
  Sc  Sc2  1  0.41946679  0.00000000  0.50000000  1
  P  P0  1  0.66666700  0.33333300  -0.00000000  1
  P  P1  1  0.33333300  0.66666700  -0.00000000  1
  P  P2  1  0.00000000  0.00000000  0.50000000  1
  Ir  Ir0  1  -0.00000000  0.75034332  -0.00000000  1
  Ir  Ir1  1  0.24965668  0.24965668  -0.00000000  1
  Ir  Ir2  1  0.75034332  -0.00000000  0.00000000  1
loop_
_geom_bond_atom_site_label_1
_geom_bond_atom_site_label_2
_geom_bond_distance
_geom_bond_site_symmetry_2
P0 Sc0 2.729037 1_654
P0 Sc0 2.729037 1_655
P0 Sc2 2.729038 1_554
P0 Sc2 2.729038 1_555
P0 Sc1 2.729041 1_554
P0 Sc1 2.729041 1_555
P1 Sc2 2.729037 1_565
P1 Sc2 2.729037 1_564
P1 Sc0 2.729038 1_555
P1 Sc0 2.729038 1_554
P1 Sc1 2.729041 1_554
P1 Sc1 2.729041 1_555
P2 Sc0 2.662081 1_555
P2 Sc2 2.662081 1_555
P2 Sc1 2.662081 1_445
Ir0 P1 2.424974 1_555
Ir0 P0 2.424979 1_455
Ir0 P2 2.518024 1_565
Ir0 P2 2.518024 1_564
Ir0 Ir2 2.744274 1_465
Ir0 Ir1 2.744274 1_565
Ir0 Sc0 2.870452 1_555
Ir0 Sc0 2.870452 1_554
Ir0 Sc1 3.034683 1_454
Ir0 Sc1 3.034683 1_455
Ir0 Sc2 3.034683 1_564
Ir0 Sc2 3.034683 1_565
Ir1 P0 2.424980 1_555
Ir1 P1 2.424980 1_555
Ir1 P2 2.518024 1_554
Ir1 P2 2.518024 1_555
Ir1 Ir2 2.744274 1_455
Ir1 Sc1 2.870452 1_554
Ir1 Sc1 2.870452 1_555
Ir1 Sc2 3.034682 1_554
Ir1 Sc0 3.034682 1_555
Ir1 Sc0 3.034682 1_554
Ir1 Sc2 3.034682 1_555
Ir2 P0 2.424974 1_555
Ir2 P1 2.424979 1_545
Ir2 P2 2.518024 1_654
Ir2 P2 2.518024 1_655
Ir2 Sc2 2.870452 1_555
Ir2 Sc2 2.870452 1_554
Ir2 Sc1 3.034683 1_544
Ir2 Sc1 3.034683 1_545
Ir2 Sc0 3.034683 1_654
Ir2 Sc0 3.034683 1_655
