# generated using pymatgen
data_MgB3H20N3
_symmetry_space_group_name_H-M   'P 1'
_cell_length_a   5.58275600
_cell_length_b   9.51695321
_cell_length_c   9.56101103
_cell_angle_alpha   89.99644572
_cell_angle_beta   89.99693776
_cell_angle_gamma   89.98801942
_symmetry_Int_Tables_number   1
_chemical_formula_structural   MgB3H20N3
_chemical_formula_sum   'Mg2 B6 H40 N6'
_cell_volume   507.98441625
_cell_formula_units_Z   2
loop_
 _symmetry_equiv_pos_site_id
 _symmetry_equiv_pos_as_xyz
  1  'x, y, z'
loop_
 _atom_site_type_symbol
 _atom_site_label
 _atom_site_symmetry_multiplicity
 _atom_site_fract_x
 _atom_site_fract_y
 _atom_site_fract_z
 _atom_site_occupancy
  Mg  Mg0  1  0.56575700  0.50184400  0.00813700  1
  Mg  Mg1  1  0.56316400  0.99845300  0.49279500  1
  B  B0  1  0.34797500  0.35050800  0.86970200  1
  B  B1  1  0.36060900  0.65106500  0.15272600  1
  B  B2  1  0.31386300  0.15376000  0.35001600  1
  B  B3  1  0.34288200  0.84959700  0.63142600  1
  B  B4  1  0.88164800  0.98016200  0.00054800  1
  B  B5  1  0.89772300  0.48249800  0.50045600  1
  H  H0  1  0.56392200  0.33676700  0.84739600  1
  H  H1  1  0.31134600  0.32961700  0.99550400  1
  H  H2  1  0.82424500  0.22618400  0.57072300  1
  H  H3  1  0.76186800  0.08005900  0.03944600  1
  H  H4  1  0.20899300  0.10329600  0.95846400  1
  H  H5  1  0.31791600  0.68277300  0.03009200  1
  H  H6  1  0.78797400  0.76777600  0.39720900  1
  H  H7  1  0.37557000  0.26757500  0.30536500  1
  H  H8  1  0.11132700  0.12221800  0.31398300  1
  H  H9  1  0.80098300  0.38760500  0.23088700  1
  H  H10  1  0.84208700  0.87723100  0.07328600  1
  H  H11  1  0.19817500  0.04645200  0.12141200  1
  H  H12  1  0.56076700  0.83853700  0.64952800  1
  H  H13  1  0.23896200  0.75489700  0.69016300  1
  H  H14  1  0.72406300  0.64040900  0.77973100  1
  H  H15  1  0.95947400  0.58216100  0.86189300  1
  H  H16  1  0.84718300  0.95443600  0.87749200  1
  H  H17  1  0.26827400  0.93675200  0.99397200  1
  H  H18  1  0.30223800  0.84293000  0.50391100  1
  H  H19  1  0.82317600  0.72489300  0.91758800  1
  H  H20  1  0.78307700  0.58557600  0.46482200  1
  H  H21  1  0.31752800  0.15743700  0.47950100  1
  H  H22  1  0.77283300  0.26819300  0.10817100  1
  H  H23  1  0.98453600  0.38621900  0.09757700  1
  H  H24  1  0.85230400  0.38261900  0.42471900  1
  H  H25  1  0.28143800  0.43170300  0.50578800  1
  H  H26  1  0.28647400  0.53041500  0.17279400  1
  H  H27  1  0.79824200  0.88328100  0.26977900  1
  H  H28  1  0.98619600  0.89431700  0.40046400  1
  H  H29  1  0.22013600  0.54680500  0.38247400  1
  H  H30  1  0.23257400  0.26936500  0.79937200  1
  H  H31  1  0.71171700  0.15298900  0.71104000  1
  H  H32  1  0.95030700  0.08577300  0.63847900  1
  H  H33  1  0.86183600  0.45372600  0.62261300  1
  H  H34  1  0.22954500  0.59812400  0.54742200  1
  H  H35  1  0.45515700  0.06498300  0.30315700  1
  H  H36  1  0.29033400  0.47255800  0.84181300  1
  H  H37  1  0.27647400  0.96437000  0.67532400  1
  H  H38  1  0.57894000  0.65214700  0.17163700  1
  H  H39  1  0.26538900  0.73296500  0.23160400  1
  N  N0  1  0.78731800  0.13025400  0.61613300  1
  N  N1  1  0.81086700  0.87311900  0.37677600  1
  N  N2  1  0.80786300  0.37298900  0.12421200  1
  N  N3  1  0.79353100  0.62576300  0.87768900  1
  N  N4  1  0.15899900  0.01941300  0.01956500  1
  N  N5  1  0.17696900  0.51728200  0.48298400  1
loop_
_geom_bond_atom_site_label_1
_geom_bond_atom_site_label_2
_geom_bond_distance
_geom_bond_site_symmetry_2
Mg0 N2 2.135801 1_555
Mg0 N3 2.136264 1_554
Mg1 N0 2.128607 1_565
Mg1 N1 2.136551 1_555
B0 H30 1.209912 1_555
B0 H0 1.231226 1_555
B0 H36 1.234363 1_555
B0 H1 1.236131 1_555
B1 H39 1.207773 1_555
B1 H38 1.232281 1_555
B1 H5 1.233934 1_555
B1 H26 1.235590 1_555
B2 H7 1.214196 1_555
B2 H8 1.219630 1_555
B2 H21 1.238674 1_555
B2 H35 1.239559 1_555
B3 H13 1.210102 1_555
B3 H37 1.227424 1_555
B3 H12 1.233137 1_555
B3 H18 1.241748 1_555
B4 H16 1.217083 1_554
B4 H3 1.220281 1_565
B4 H10 1.221480 1_555
B4 N4 1.603237 1_665
B5 H33 1.216211 1_555
B5 H20 1.219748 1_555
B5 H24 1.221633 1_555
B5 N5 1.602509 1_655
H0 Mg0 2.197827 1_556
H1 Mg0 2.172434 1_556
H2 N0 1.031755 1_555
H4 N4 1.027858 1_556
H5 Mg0 2.218658 1_555
H6 N1 1.029379 1_555
H9 N2 1.030084 1_555
H11 N4 1.030698 1_555
H12 Mg1 2.135814 1_555
H14 N3 1.023236 1_555
H15 N3 1.026199 1_555
H17 N4 1.025045 1_566
H18 Mg1 2.079617 1_555
H19 N3 1.031050 1_555
H21 Mg1 2.045756 1_545
H22 N2 1.027889 1_555
H23 N2 1.026429 1_555
H25 N5 1.025091 1_555
H26 Mg0 2.232249 1_555
H27 N1 1.029972 1_555
H28 N1 1.024789 1_555
H29 N5 1.029790 1_555
H31 N0 1.023857 1_555
H32 N0 1.025995 1_555
H34 N5 1.028506 1_555
H35 Mg1 2.012892 1_545
H36 Mg0 2.229634 1_556
H38 Mg0 2.120270 1_555
