# generated using pymatgen
data_YFeNi
_symmetry_space_group_name_H-M   'P 1'
_cell_length_a   5.15467832
_cell_length_b   5.15467832
_cell_length_c   5.15467832
_cell_angle_alpha   91.52774917
_cell_angle_beta   57.48740271
_cell_angle_gamma   119.28644121
_symmetry_Int_Tables_number   1
_chemical_formula_structural   YFeNi
_chemical_formula_sum   'Y2 Fe2 Ni2'
_cell_volume   95.39635267
_cell_formula_units_Z   2
loop_
 _symmetry_equiv_pos_site_id
 _symmetry_equiv_pos_as_xyz
  1  'x, y, z'
loop_
 _atom_site_type_symbol
 _atom_site_label
 _atom_site_symmetry_multiplicity
 _atom_site_fract_x
 _atom_site_fract_y
 _atom_site_fract_z
 _atom_site_occupancy
  Y  Y0  1  0.50000000  0.74625600  0.75374400  1
  Y  Y1  1  0.00000000  0.00374400  0.99625600  1
  Fe  Fe0  1  0.75000000  0.37500000  0.87500000  1
  Fe  Fe1  1  0.25000000  0.37500000  0.37500000  1
  Ni  Ni0  1  0.25000000  0.87500000  0.37500000  1
  Ni  Ni1  1  0.75000000  0.37500000  0.37500000  1
loop_
_geom_bond_atom_site_label_1
_geom_bond_atom_site_label_2
_geom_bond_distance
_geom_bond_site_symmetry_2
Fe0 Fe1 2.478846 1_556
Fe0 Fe1 2.478846 1_655
Fe0 Ni1 2.577339 1_555
Fe0 Ni0 2.577339 1_546
Fe0 Ni0 2.577339 1_655
Fe0 Ni1 2.577339 1_556
Fe0 Y0 3.009316 1_555
Fe0 Y1 3.009316 1_655
Fe0 Y1 3.037589 1_665
Fe0 Y0 3.037589 1_655
Fe0 Y1 3.037589 1_555
Fe0 Y0 3.037589 1_545
Fe1 Ni0 2.577339 1_545
Fe1 Ni1 2.577339 1_555
Fe1 Ni1 2.577339 1_455
Fe1 Ni0 2.577339 1_555
Fe1 Y1 3.009316 1_555
Fe1 Y0 3.009316 1_554
Fe1 Y0 3.037589 1_555
Fe1 Y1 3.037589 1_664
Fe1 Y0 3.037589 1_445
Fe1 Y1 3.037589 1_554
Ni0 Ni1 2.605087 1_455
Ni0 Ni1 2.605087 1_565
Ni0 Y1 2.939977 1_565
Ni0 Y0 2.939977 1_455
Ni0 Y1 2.939977 1_664
Ni0 Y0 2.939977 1_554
Ni0 Y0 3.085909 1_555
Ni0 Y1 3.085909 1_564
Ni1 Y0 2.939977 1_555
Ni1 Y1 2.939977 1_555
Ni1 Y0 2.939977 1_654
Ni1 Y1 2.939977 1_654
Ni1 Y1 3.085909 1_664
Ni1 Y0 3.085909 1_545
