# generated using pymatgen
data_Mg(SiO2)16
_symmetry_space_group_name_H-M   'P 1'
_cell_length_a   8.48437153
_cell_length_b   9.90747433
_cell_length_c   9.92950788
_cell_angle_alpha   89.94240771
_cell_angle_beta   90.00000000
_cell_angle_gamma   90.00000000
_symmetry_Int_Tables_number   1
_chemical_formula_structural   Mg(SiO2)16
_chemical_formula_sum   'Mg1 Si16 O32'
_cell_volume   834.66103470
_cell_formula_units_Z   1
loop_
 _symmetry_equiv_pos_site_id
 _symmetry_equiv_pos_as_xyz
  1  'x, y, z'
loop_
 _atom_site_type_symbol
 _atom_site_label
 _atom_site_symmetry_multiplicity
 _atom_site_fract_x
 _atom_site_fract_y
 _atom_site_fract_z
 _atom_site_occupancy
  Mg  Mg0  1  -0.00000000  0.00000000  0.50000000  1
  Si  Si0  1  0.31279860  0.17019101  0.12038041  1
  Si  Si1  1  0.18745607  0.37869978  0.32964330  1
  Si  Si2  1  0.31283183  0.33045133  0.62064069  1
  Si  Si3  1  0.31279860  0.82980899  0.87961959  1
  Si  Si4  1  0.18745607  0.62130022  0.67035670  1
  Si  Si5  1  0.81278959  0.12122821  0.82999567  1
  Si  Si6  1  0.68716817  0.33045133  0.62064069  1
  Si  Si7  1  0.18721041  0.12122821  0.82999567  1
  Si  Si8  1  0.81278959  0.87877179  0.17000433  1
  Si  Si9  1  0.81254393  0.62130022  0.67035670  1
  Si  Si10  1  0.68720140  0.82980899  0.87961959  1
  Si  Si11  1  0.81254393  0.37869978  0.32964330  1
  Si  Si12  1  0.31283183  0.66954867  0.37935931  1
  Si  Si13  1  0.68716817  0.66954867  0.37935931  1
  Si  Si14  1  0.18721041  0.87877179  0.17000433  1
  Si  Si15  1  0.68720140  0.17019101  0.12038041  1
  O  O0  1  0.50000000  0.64957819  0.35331071  1
  O  O1  1  0.21829013  0.04062097  0.18180490  1
  O  O2  1  0.25125105  0.30676064  0.19351400  1
  O  O3  1  0.78201903  0.45937431  0.68230329  1
  O  O4  1  0.00000000  0.85073395  0.15094962  1
  O  O5  1  0.50000000  0.15003784  0.14680653  1
  O  O6  1  0.71888736  0.68311872  0.54067753  1
  O  O7  1  0.71901621  0.18339981  0.95916818  1
  O  O8  1  0.78201903  0.54062569  0.31769671  1
  O  O9  1  0.21829013  0.95937903  0.81819510  1
  O  O10  1  -0.00000000  0.14926605  0.84905038  1
  O  O11  1  0.50000000  0.35042181  0.64668929  1
  O  O12  1  0.28098379  0.18339981  0.95916818  1
  O  O13  1  0.21798097  0.54062569  0.31769671  1
  O  O14  1  0.50000000  0.84996216  0.85319347  1
  O  O15  1  0.25211358  0.19363542  0.69409254  1
  O  O16  1  0.00000000  0.35184698  0.34773290  1
  O  O17  1  0.74788642  0.80636458  0.30590746  1
  O  O18  1  0.21798097  0.45937431  0.68230329  1
  O  O19  1  0.25125105  0.69323936  0.80648600  1
  O  O20  1  -0.00000000  0.64815302  0.65226710  1
  O  O21  1  0.74874895  0.30676064  0.19351400  1
  O  O22  1  0.74874895  0.69323936  0.80648600  1
  O  O23  1  0.28098379  0.81660019  0.04083182  1
  O  O24  1  0.28111264  0.31688128  0.45932247  1
  O  O25  1  0.71888736  0.31688128  0.45932247  1
  O  O26  1  0.25211358  0.80636458  0.30590746  1
  O  O27  1  0.74788642  0.19363542  0.69409254  1
  O  O28  1  0.78170987  0.95937903  0.81819510  1
  O  O29  1  0.28111264  0.68311872  0.54067753  1
  O  O30  1  0.71901621  0.81660019  0.04083182  1
  O  O31  1  0.78170987  0.04062097  0.18180490  1
loop_
_geom_bond_atom_site_label_1
_geom_bond_atom_site_label_2
_geom_bond_distance
_geom_bond_site_symmetry_2
O0 Si12 1.621082 1_555
O0 Si13 1.621082 1_555
O1 Si14 1.629388 1_545
O1 Si0 1.631347 1_555
O2 Si1 1.621720 1_555
O2 Si0 1.622581 1_555
O3 Si9 1.629253 1_555
O3 Si6 1.629595 1_555
O4 Si8 1.623565 1_455
O4 Si14 1.623565 1_555
O5 Si15 1.622118 1_555
O5 Si0 1.622118 1_555
O6 Si13 1.629948 1_555
O6 Si9 1.631866 1_555
O7 Si15 1.628494 1_556
O7 Si5 1.630676 1_555
O8 Si11 1.629253 1_555
O8 Si13 1.629595 1_555
O9 Si7 1.629388 1_565
O9 Si3 1.631347 1_555
O10 Si5 1.623565 1_455
O10 Si7 1.623565 1_555
O11 Si6 1.621082 1_555
O11 Si2 1.621082 1_555
O12 Si0 1.628494 1_556
O12 Si7 1.630676 1_555
O13 Si1 1.629253 1_555
O13 Si12 1.629595 1_555
O14 Si10 1.622118 1_555
O14 Si3 1.622118 1_555
O15 Si2 1.622565 1_555
O15 Si7 1.623861 1_555
O16 Si11 1.622488 1_455
O16 Si1 1.622488 1_555
O17 Si13 1.622565 1_555
O17 Si8 1.623861 1_555
O18 Si4 1.629253 1_555
O18 Si2 1.629595 1_555
O19 Si4 1.621720 1_555
O19 Si3 1.622581 1_555
O20 Si9 1.622488 1_455
O20 Si4 1.622488 1_555
O21 Si11 1.621720 1_555
O21 Si15 1.622581 1_555
O22 Si9 1.621720 1_555
O22 Si10 1.622581 1_555
O23 Si3 1.628494 1_554
O23 Si14 1.630676 1_555
O24 Si2 1.629948 1_555
O24 Si1 1.631866 1_555
O25 Si6 1.629948 1_555
O25 Si11 1.631866 1_555
O26 Si12 1.622565 1_555
O26 Si14 1.623861 1_555
O27 Si6 1.622565 1_555
O27 Si5 1.623861 1_555
O28 Si5 1.629388 1_565
O28 Si10 1.631347 1_555
O29 Si12 1.629948 1_555
O29 Si4 1.631866 1_555
O30 Si10 1.628494 1_554
O30 Si8 1.630676 1_555
O31 Si8 1.629388 1_545
O31 Si15 1.631347 1_555
