# generated using pymatgen
data_DySnGe
_symmetry_space_group_name_H-M   'P 1'
_cell_length_a   8.60895866
_cell_length_b   8.60895866
_cell_length_c   4.02745338
_cell_angle_alpha   90.00000000
_cell_angle_beta   90.00000000
_cell_angle_gamma   151.61467237
_symmetry_Int_Tables_number   1
_chemical_formula_structural   DySnGe
_chemical_formula_sum   'Dy2 Sn2 Ge2'
_cell_volume   141.90247426
_cell_formula_units_Z   2
loop_
 _symmetry_equiv_pos_site_id
 _symmetry_equiv_pos_as_xyz
  1  'x, y, z'
loop_
 _atom_site_type_symbol
 _atom_site_label
 _atom_site_symmetry_multiplicity
 _atom_site_fract_x
 _atom_site_fract_y
 _atom_site_fract_z
 _atom_site_occupancy
  Dy  Dy0  1  0.90458734  0.09541266  0.75000000  1
  Dy  Dy1  1  0.09541266  0.90458734  0.25000000  1
  Sn  Sn0  1  0.25835509  0.74164491  0.75000000  1
  Sn  Sn1  1  0.74164491  0.25835509  0.25000000  1
  Ge  Ge0  1  0.55007695  0.44992305  0.75000000  1
  Ge  Ge1  1  0.44992305  0.55007695  0.25000000  1
loop_
_geom_bond_atom_site_label_1
_geom_bond_atom_site_label_2
_geom_bond_distance
_geom_bond_site_symmetry_2
Dy0 Ge1 3.013825 1_655
Dy0 Ge1 3.013825 1_656
Dy0 Ge1 3.013825 1_545
Dy0 Ge1 3.013825 1_546
Dy0 Ge0 3.217654 1_655
Dy0 Ge0 3.217654 1_545
Dy0 Sn0 3.227020 1_545
Dy0 Sn0 3.227020 1_655
Dy0 Sn1 3.384217 1_555
Dy0 Sn1 3.384217 1_556
Dy1 Ge0 3.013825 1_565
Dy1 Ge0 3.013825 1_564
Dy1 Ge0 3.013825 1_455
Dy1 Ge0 3.013825 1_454
Dy1 Ge1 3.217654 1_565
Dy1 Ge1 3.217654 1_455
Dy1 Sn1 3.227020 1_565
Dy1 Sn1 3.227020 1_455
Dy1 Sn0 3.384217 1_554
Dy1 Sn0 3.384217 1_555
Sn0 Sn1 2.930573 1_565
Sn0 Sn1 2.930573 1_566
Sn0 Sn1 2.930573 1_456
Sn0 Sn1 2.930573 1_455
Ge0 Ge1 2.617256 1_555
Ge0 Ge1 2.617256 1_556
