# generated using pymatgen
data_CaMn4O8
_symmetry_space_group_name_H-M   'P 1'
_cell_length_a   6.26568500
_cell_length_b   10.37990638
_cell_length_c   10.66016585
_cell_angle_alpha   108.22851200
_cell_angle_beta   92.59276365
_cell_angle_gamma   89.43797393
_symmetry_Int_Tables_number   1
_chemical_formula_structural   CaMn4O8
_chemical_formula_sum   'Ca4 Mn16 O32'
_cell_volume   657.83398078
_cell_formula_units_Z   4
loop_
 _symmetry_equiv_pos_site_id
 _symmetry_equiv_pos_as_xyz
  1  'x, y, z'
loop_
 _atom_site_type_symbol
 _atom_site_label
 _atom_site_symmetry_multiplicity
 _atom_site_fract_x
 _atom_site_fract_y
 _atom_site_fract_z
 _atom_site_occupancy
  Ca  Ca0  1  0.73175300  0.43383800  0.54290300  1
  Ca  Ca1  1  0.24809900  0.91197500  0.55687900  1
  Ca  Ca2  1  0.20504400  0.44653000  0.03764100  1
  Ca  Ca3  1  0.76937800  0.92031100  0.05923700  1
  Mn  Mn0  1  0.74218300  0.00392300  0.74958400  1
  Mn  Mn1  1  0.25631200  0.49346600  0.75049400  1
  Mn  Mn2  1  0.25945800  0.00418400  0.25372000  1
  Mn  Mn3  1  0.73075400  0.50216200  0.23672900  1
  Mn  Mn4  1  0.71501600  0.24974400  0.98603600  1
  Mn  Mn5  1  0.28714500  0.74995900  0.00983200  1
  Mn  Mn6  1  0.22933600  0.23952800  0.48705600  1
  Mn  Mn7  1  0.77193800  0.76087800  0.50757900  1
  Mn  Mn8  1  0.48455700  0.23793100  0.73692800  1
  Mn  Mn9  1  0.02078000  0.75262600  0.76356000  1
  Mn  Mn10  1  0.97745500  0.24263800  0.23914300  1
  Mn  Mn11  1  0.53132900  0.76151100  0.26506500  1
  Mn  Mn12  1  0.98034800  0.23681700  0.73290900  1
  Mn  Mn13  1  0.51928300  0.75464800  0.76651000  1
  Mn  Mn14  1  0.47252800  0.24487500  0.23296700  1
  Mn  Mn15  1  0.02589800  0.75955800  0.26823500  1
  O  O0  1  0.52297300  0.12180800  0.85104900  1
  O  O1  1  0.10661600  0.60820300  0.89841400  1
  O  O2  1  0.04866800  0.10490800  0.36566100  1
  O  O3  1  0.57266000  0.63926900  0.37384900  1
  O  O4  1  0.93410600  0.14198400  0.86421100  1
  O  O5  1  0.52360100  0.67927600  0.90770300  1
  O  O6  1  0.45061100  0.14437600  0.36466300  1
  O  O7  1  0.01053800  0.68588400  0.40969900  1
  O  O8  1  0.72112700  0.13148500  0.64818400  1
  O  O9  1  0.27076400  0.64207100  0.67814000  1
  O  O10  1  0.22681000  0.12727400  0.15199000  1
  O  O11  1  0.77165400  0.65746700  0.17292800  1
  O  O12  1  0.68544600  0.34973200  0.86187800  1
  O  O13  1  0.22453800  0.85418400  0.89490900  1
  O  O14  1  0.18391800  0.34563100  0.37079700  1
  O  O15  1  0.73198300  0.86837600  0.39114600  1
  O  O16  1  0.01240800  0.33713800  0.60896700  1
  O  O17  1  0.54884900  0.86020800  0.63888900  1
  O  O18  1  0.49074800  0.34335500  0.10357400  1
  O  O19  1  0.06725500  0.85947300  0.14073200  1
  O  O20  1  0.44301000  0.36047700  0.62412900  1
  O  O21  1  0.94774500  0.89345200  0.64189100  1
  O  O22  1  0.91186400  0.37814800  0.11026000  1
  O  O23  1  0.47811200  0.88219800  0.15175300  1
  O  O24  1  0.26612900  0.13492400  0.61318600  1
  O  O25  1  0.80016100  0.65249600  0.63231600  1
  O  O26  1  0.75428600  0.14403000  0.11006300  1
  O  O27  1  0.31839500  0.65230900  0.14350900  1
  O  O28  1  0.23916300  0.34093800  0.82472500  1
  O  O29  1  0.76901100  0.87279800  0.84592100  1
  O  O30  1  0.72175200  0.36018500  0.32375200  1
  O  O31  1  0.28657000  0.86882300  0.34812400  1
loop_
_geom_bond_atom_site_label_1
_geom_bond_atom_site_label_2
_geom_bond_distance
_geom_bond_site_symmetry_2
Ca0 O25 2.207316 1_555
Ca0 O16 2.211636 1_655
Ca0 O30 2.217316 1_555
Ca0 O20 2.276833 1_555
Ca1 O31 2.152624 1_555
Ca1 O21 2.161084 1_455
Ca1 O17 2.174623 1_555
Ca1 O24 2.204199 1_565
Ca2 O27 2.188511 1_555
Ca2 O28 2.209431 1_554
Ca2 O22 2.230597 1_455
Ca2 O18 2.272658 1_555
Ca2 O1 2.618095 1_554
Ca3 O29 2.170753 1_554
Ca3 O19 2.193256 1_655
Ca3 O23 2.209258 1_555
Ca3 O26 2.215450 1_565
Mn0 O21 1.890232 1_545
Mn0 O29 1.946735 1_545
Mn0 O4 1.948902 1_555
Mn0 O8 1.954000 1_555
Mn0 O0 1.956308 1_555
Mn0 O17 1.972320 1_545
Mn1 O1 1.929146 1_555
Mn1 O9 1.932826 1_555
Mn1 O28 1.984729 1_555
Mn1 O20 2.009005 1_555
Mn1 O16 2.356518 1_555
Mn1 O5 2.668423 1_555
Mn2 O2 1.896421 1_555
Mn2 O10 1.921446 1_555
Mn2 O6 1.944250 1_555
Mn2 O31 1.969822 1_545
Mn2 O23 1.975194 1_545
Mn2 O19 1.982345 1_545
Mn3 O22 1.945859 1_555
Mn3 O11 1.958764 1_555
Mn3 O30 1.974145 1_555
Mn3 O3 1.986236 1_555
Mn3 O18 2.320598 1_555
Mn3 O7 2.771832 1_655
Mn4 O12 1.922678 1_555
Mn4 O22 1.957439 1_556
Mn4 O18 1.964559 1_556
Mn4 O26 1.971192 1_556
Mn4 O0 1.990286 1_555
Mn4 O4 2.011098 1_555
Mn5 O5 1.882415 1_554
Mn5 O13 1.898026 1_554
Mn5 O1 1.916505 1_554
Mn5 O27 1.992711 1_555
Mn5 O23 2.043023 1_555
Mn5 O19 2.070856 1_555
Mn6 O14 1.909388 1_555
Mn6 O2 1.917260 1_555
Mn6 O16 1.967725 1_555
Mn6 O24 1.979976 1_555
Mn6 O6 1.982581 1_555
Mn6 O20 2.052321 1_555
Mn7 O7 1.881444 1_655
Mn7 O15 1.918631 1_555
Mn7 O21 1.952306 1_555
Mn7 O3 1.982116 1_555
Mn7 O25 1.993923 1_555
Mn7 O17 2.054785 1_555
Mn8 O12 1.901363 1_555
Mn8 O24 1.933733 1_555
Mn8 O8 1.937449 1_555
Mn8 O28 1.963453 1_555
Mn8 O0 1.968751 1_555
Mn8 O20 2.013400 1_555
Mn9 O13 1.908660 1_555
Mn9 O25 1.972811 1_455
Mn9 O9 2.009839 1_555
Mn9 O29 2.053501 1_455
Mn9 O21 2.268852 1_455
Mn9 O1 2.421901 1_555
Mn10 O14 1.926205 1_655
Mn10 O26 1.967026 1_555
Mn10 O10 2.033896 1_655
Mn10 O30 2.067129 1_555
Mn10 O22 2.276312 1_555
Mn10 O2 2.280621 1_655
Mn11 O15 1.886608 1_555
Mn11 O27 1.923104 1_555
Mn11 O11 1.958766 1_555
Mn11 O31 1.961865 1_555
Mn11 O3 1.977071 1_555
Mn11 O23 2.010376 1_555
Mn12 O16 1.938878 1_655
Mn12 O4 1.978973 1_555
Mn12 O8 1.983299 1_555
Mn12 O28 1.996197 1_655
Mn12 O24 2.297583 1_655
Mn12 O12 2.420194 1_555
Mn13 O5 1.900225 1_555
Mn13 O9 1.972792 1_555
Mn13 O29 1.984260 1_555
Mn13 O17 2.011244 1_555
Mn13 O25 2.347371 1_555
Mn13 O13 2.378671 1_555
Mn14 O18 1.964487 1_555
Mn14 O10 1.965447 1_555
Mn14 O30 1.995725 1_555
Mn14 O6 2.003615 1_555
Mn14 O26 2.289968 1_555
Mn14 O14 2.400963 1_555
Mn15 O7 1.898495 1_555
Mn15 O11 1.976361 1_455
Mn15 O19 1.977171 1_555
Mn15 O31 1.996359 1_555
Mn15 O27 2.370722 1_555
Mn15 O15 2.373943 1_455
