# generated using pymatgen
data_Zr3Tl2(CuSe4)2
_symmetry_space_group_name_H-M   'P 1'
_cell_length_a   7.68915979
_cell_length_b   7.68915979
_cell_length_c   14.53415874
_cell_angle_alpha   66.36673968
_cell_angle_beta   66.36673968
_cell_angle_gamma   29.06284213
_symmetry_Int_Tables_number   1
_chemical_formula_structural   Zr3Tl2(CuSe4)2
_chemical_formula_sum   'Zr3 Tl2 Cu2 Se8'
_cell_volume   379.94669949
_cell_formula_units_Z   1
loop_
 _symmetry_equiv_pos_site_id
 _symmetry_equiv_pos_as_xyz
  1  'x, y, z'
loop_
 _atom_site_type_symbol
 _atom_site_label
 _atom_site_symmetry_multiplicity
 _atom_site_fract_x
 _atom_site_fract_y
 _atom_site_fract_z
 _atom_site_occupancy
  Zr  Zr0  1  0.00000000  0.00000000  0.00000000  1
  Zr  Zr1  1  0.84550900  0.84550900  0.38023700  1
  Zr  Zr2  1  0.15449100  0.15449100  0.61976300  1
  Tl  Tl0  1  0.83159800  0.83159800  0.80155700  1
  Tl  Tl1  1  0.16840200  0.16840200  0.19844300  1
  Cu  Cu0  1  0.45728700  0.45728700  0.19795500  1
  Cu  Cu1  1  0.54271300  0.54271300  0.80204500  1
  Se  Se0  1  0.85509700  0.85509700  0.19071000  1
  Se  Se1  1  0.14490300  0.14490300  0.80929000  1
  Se  Se2  1  0.79626400  0.79626400  0.58148300  1
  Se  Se3  1  0.20373600  0.20373600  0.41851700  1
  Se  Se4  1  0.48290600  0.48290600  0.35288800  1
  Se  Se5  1  0.51709400  0.51709400  0.64711200  1
  Se  Se6  1  0.60734500  0.60734500  0.04211100  1
  Se  Se7  1  0.39265500  0.39265500  0.95788900  1
loop_
_geom_bond_atom_site_label_1
_geom_bond_atom_site_label_2
_geom_bond_distance
_geom_bond_site_symmetry_2
Cu0 Se4 2.434633 1_555
Cu0 Se6 2.435094 1_555
Cu0 Se0 2.485982 1_455
Cu0 Se0 2.485982 1_545
Cu1 Se5 2.434633 1_555
Cu1 Se7 2.435094 1_555
Cu1 Se1 2.485982 1_565
Cu1 Se1 2.485982 1_655
Se0 Zr1 2.698636 1_555
Se0 Zr0 2.717307 1_665
Se0 Tl1 3.346656 1_655
Se0 Tl1 3.346656 1_565
Se1 Zr2 2.698636 1_555
Se1 Zr0 2.717307 1_556
Se1 Tl0 3.346656 1_455
Se1 Tl0 3.346656 1_545
Se2 Zr1 2.704945 1_555
Se2 Zr2 2.741044 1_565
Se2 Zr2 2.741044 1_655
Se2 Tl0 3.449804 1_555
Se3 Zr2 2.704945 1_555
Se3 Zr1 2.741044 1_455
Se3 Zr1 2.741044 1_545
Se3 Tl1 3.449804 1_555
Se4 Zr1 2.718496 1_455
Se4 Zr1 2.718496 1_545
Se4 Tl1 3.354421 1_565
Se4 Tl1 3.354421 1_655
Se5 Zr2 2.718496 1_565
Se5 Zr2 2.718496 1_655
Se5 Tl0 3.354421 1_455
Se5 Tl0 3.354421 1_545
Se6 Zr0 2.731369 1_655
Se6 Zr0 2.731369 1_565
Se6 Tl1 3.379572 1_565
Se6 Tl1 3.379572 1_655
Se7 Zr0 2.731369 1_656
Se7 Zr0 2.731369 1_566
Se7 Tl0 3.379572 1_455
Se7 Tl0 3.379572 1_545
