# generated using pymatgen
data_Li5Nb2Fe3O10
_symmetry_space_group_name_H-M   'P 1'
_cell_length_a   5.27858602
_cell_length_b   8.00279621
_cell_length_c   10.66168747
_cell_angle_alpha   108.80689255
_cell_angle_beta   99.47583768
_cell_angle_gamma   71.85404170
_symmetry_Int_Tables_number   1
_chemical_formula_structural   Li5Nb2Fe3O10
_chemical_formula_sum   'Li10 Nb4 Fe6 O20'
_cell_volume   404.10288397
_cell_formula_units_Z   2
loop_
 _symmetry_equiv_pos_site_id
 _symmetry_equiv_pos_as_xyz
  1  'x, y, z'
loop_
 _atom_site_type_symbol
 _atom_site_label
 _atom_site_symmetry_multiplicity
 _atom_site_fract_x
 _atom_site_fract_y
 _atom_site_fract_z
 _atom_site_occupancy
  Li  Li0  1  0.00129300  0.49863900  0.24849100  1
  Li  Li1  1  0.99871900  0.50247900  0.75013200  1
  Li  Li2  1  0.51484400  0.39966100  0.11340300  1
  Li  Li3  1  0.51491300  0.39873500  0.61388700  1
  Li  Li4  1  0.48540400  0.60092800  0.38565000  1
  Li  Li5  1  0.48587600  0.60069000  0.88726500  1
  Li  Li6  1  0.50514900  0.79661900  0.19873800  1
  Li  Li7  1  0.50523300  0.79804300  0.70081900  1
  Li  Li8  1  0.49257500  0.20259700  0.29992100  1
  Li  Li9  1  0.49238800  0.20469000  0.80143800  1
  Nb  Nb0  1  0.01292600  0.68671600  0.05115100  1
  Nb  Nb1  1  0.02037600  0.68598500  0.54978500  1
  Nb  Nb2  1  0.98104800  0.30994700  0.44750500  1
  Nb  Nb3  1  0.98488700  0.30974600  0.94534600  1
  Fe  Fe0  1  0.50067100  0.00028100  0.50109700  1
  Fe  Fe1  1  0.99938800  0.89563600  0.34581100  1
  Fe  Fe2  1  0.00341800  0.10352200  0.65444400  1
  Fe  Fe3  1  0.50219900  0.99979500  0.99901300  1
  Fe  Fe4  1  0.99696200  0.89969000  0.85034900  1
  Fe  Fe5  1  0.00137000  0.10530500  0.15331400  1
  O  O0  1  0.23585100  0.84212700  0.02137800  1
  O  O1  1  0.24392600  0.84032800  0.52472500  1
  O  O2  1  0.75731700  0.15842600  0.47517500  1
  O  O3  1  0.75736300  0.15938000  0.97416600  1
  O  O4  1  0.76706300  0.93955300  0.16787400  1
  O  O5  1  0.77394800  0.93740300  0.67200700  1
  O  O6  1  0.23466400  0.06033500  0.33216500  1
  O  O7  1  0.24238600  0.06664700  0.83240300  1
  O  O8  1  0.76371800  0.54406300  0.07866700  1
  O  O9  1  0.76323400  0.54529100  0.57680900  1
  O  O10  1  0.23884600  0.45256200  0.42205700  1
  O  O11  1  0.23810700  0.45451900  0.92219800  1
  O  O12  1  0.23761400  0.24457200  0.10959900  1
  O  O13  1  0.23841700  0.24481000  0.60942000  1
  O  O14  1  0.76148600  0.75629100  0.39173200  1
  O  O15  1  0.75539100  0.74998900  0.89268900  1
  O  O16  1  0.24151500  0.64813400  0.21102200  1
  O  O17  1  0.23440600  0.65157000  0.71200900  1
  O  O18  1  0.75853700  0.35200100  0.28848700  1
  O  O19  1  0.75657200  0.35229400  0.78786000  1
loop_
_geom_bond_atom_site_label_1
_geom_bond_atom_site_label_2
_geom_bond_distance
_geom_bond_site_symmetry_2
Li0 O8 2.091868 1_455
Li0 O10 2.126180 1_555
Li0 O16 2.149114 1_555
Li0 O18 2.154112 1_455
Li0 O12 2.229380 1_555
Li0 O14 2.273034 1_455
Li1 O9 2.112798 1_555
Li1 O11 2.120878 1_655
Li1 O17 2.130808 1_655
Li1 O19 2.162880 1_555
Li1 O15 2.236135 1_555
Li1 O13 2.260306 1_655
Li2 O16 2.119426 1_555
Li2 O8 2.140135 1_555
Li2 O18 2.155814 1_555
Li2 O12 2.182405 1_555
Li2 O3 2.189083 1_554
Li2 O11 2.383158 1_554
Li3 O19 2.139134 1_555
Li3 O17 2.158710 1_555
Li3 O9 2.162676 1_555
Li3 O13 2.170017 1_555
Li3 O2 2.186189 1_555
Li3 O10 2.384910 1_555
Li4 O18 2.119555 1_555
Li4 O16 2.151243 1_555
Li4 O10 2.163405 1_555
Li4 O14 2.172419 1_555
Li4 O1 2.182546 1_555
Li4 O9 2.386837 1_555
Li5 O15 2.107606 1_555
Li5 O19 2.118389 1_555
Li5 O11 2.147524 1_555
Li5 O17 2.180919 1_555
Li5 O0 2.184334 1_556
Li5 O8 2.391125 1_556
Li6 O16 2.134517 1_555
Li6 O4 2.169253 1_555
Li6 O8 2.185300 1_555
Li6 O0 2.228351 1_555
Li6 O6 2.317847 1_565
Li6 O14 2.325586 1_555
Li7 O17 2.149905 1_555
Li7 O5 2.167916 1_555
Li7 O1 2.192749 1_555
Li7 O9 2.201577 1_555
Li7 O7 2.313595 1_565
Li7 O15 2.319003 1_555
Li8 O18 2.147385 1_555
Li8 O6 2.153986 1_555
Li8 O10 2.171874 1_555
Li8 O2 2.197174 1_555
Li8 O12 2.302233 1_555
Li8 O4 2.318133 1_545
Li9 O7 2.087484 1_555
Li9 O19 2.136293 1_555
Li9 O11 2.166650 1_555
Li9 O3 2.178472 1_555
Li9 O13 2.311605 1_555
Li9 O5 2.341065 1_545
Nb0 O16 1.971461 1_555
Nb0 O11 2.066679 1_554
Nb0 O0 2.078806 1_555
Nb0 O15 2.079745 1_454
Nb0 O8 2.097198 1_455
Nb0 O4 2.144700 1_455
Nb1 O17 1.952851 1_555
Nb1 O10 2.051588 1_555
Nb1 O1 2.052796 1_555
Nb1 O14 2.097102 1_455
Nb1 O9 2.117317 1_455
Nb1 O5 2.162371 1_455
Nb2 O18 1.957857 1_555
Nb2 O2 2.046823 1_555
Nb2 O9 2.066079 1_555
Nb2 O13 2.112897 1_655
Nb2 O10 2.125241 1_655
Nb2 O6 2.141796 1_655
Nb3 O19 1.958161 1_555
Nb3 O3 2.060336 1_555
Nb3 O8 2.089013 1_556
Nb3 O11 2.108893 1_655
Nb3 O7 2.112756 1_655
Nb3 O12 2.122440 1_656
Fe0 O14 2.110407 1_545
Fe0 O13 2.112235 1_555
Fe0 O6 2.179820 1_555
Fe0 O5 2.219914 1_545
Fe0 O2 2.220399 1_555
Fe0 O1 2.222533 1_545
Fe1 O14 2.118252 1_555
Fe1 O6 2.122155 1_665
Fe1 O4 2.149853 1_555
Fe1 O16 2.194215 1_655
Fe1 O1 2.208740 1_655
Fe1 O2 2.234758 1_565
Fe2 O13 2.113604 1_555
Fe2 O5 2.123159 1_445
Fe2 O7 2.149248 1_555
Fe2 O19 2.203016 1_455
Fe2 O2 2.214078 1_455
Fe2 O1 2.235008 1_545
Fe3 O15 2.107436 1_555
Fe3 O12 2.127660 1_566
Fe3 O7 2.162423 1_565
Fe3 O4 2.177008 1_556
Fe3 O3 2.218662 1_565
Fe3 O0 2.243877 1_556
Fe4 O5 2.122264 1_555
Fe4 O0 2.133072 1_656
Fe4 O15 2.180558 1_555
Fe4 O3 2.192028 1_565
Fe4 O7 2.196529 1_665
Fe4 O17 2.204400 1_655
Fe5 O12 2.099164 1_555
Fe5 O4 2.128666 1_445
Fe5 O6 2.162254 1_555
Fe5 O18 2.194357 1_455
Fe5 O3 2.206840 1_454
Fe5 O0 2.232912 1_545
