# generated using pymatgen
data_Cs3P11(H3N)3
_symmetry_space_group_name_H-M   'P 1'
_cell_length_a   15.86668100
_cell_length_b   9.58776500
_cell_length_c   17.86254181
_cell_angle_alpha   58.91323820
_cell_angle_beta   90.00000000
_cell_angle_gamma   90.00000000
_symmetry_Int_Tables_number   1
_chemical_formula_structural   Cs3P11(H3N)3
_chemical_formula_sum   'Cs12 P44 H36 N12'
_cell_volume   2327.10776196
_cell_formula_units_Z   4
loop_
 _symmetry_equiv_pos_site_id
 _symmetry_equiv_pos_as_xyz
  1  'x, y, z'
loop_
 _atom_site_type_symbol
 _atom_site_label
 _atom_site_symmetry_multiplicity
 _atom_site_fract_x
 _atom_site_fract_y
 _atom_site_fract_z
 _atom_site_occupancy
  Cs  Cs0  1  0.21013000  0.51864400  0.14231000  1
  Cs  Cs1  1  0.28987000  0.51864400  0.64231000  1
  Cs  Cs2  1  0.78987000  0.48135600  0.85769000  1
  Cs  Cs3  1  0.71013000  0.48135600  0.35769000  1
  Cs  Cs4  1  0.39627900  0.30118200  0.45193100  1
  Cs  Cs5  1  0.10372100  0.30118200  0.95193100  1
  Cs  Cs6  1  0.60372100  0.69881800  0.54806900  1
  Cs  Cs7  1  0.89627900  0.69881800  0.04806900  1
  Cs  Cs8  1  0.13943000  0.96600900  0.43441400  1
  Cs  Cs9  1  0.36057000  0.96600900  0.93441400  1
  Cs  Cs10  1  0.86057000  0.03399100  0.56558600  1
  Cs  Cs11  1  0.63943000  0.03399100  0.06558600  1
  P  P0  1  0.09919800  0.73577200  0.90516700  1
  P  P1  1  0.40080200  0.73577200  0.40516700  1
  P  P2  1  0.90080200  0.26422800  0.09483300  1
  P  P3  1  0.59919800  0.26422800  0.59483300  1
  P  P4  1  0.22758600  0.04239000  0.74937000  1
  P  P5  1  0.27241400  0.04239000  0.24937000  1
  P  P6  1  0.77241400  0.95761000  0.25063000  1
  P  P7  1  0.72758600  0.95761000  0.75063000  1
  P  P8  1  0.99717700  0.67615400  0.75755900  1
  P  P9  1  0.50282300  0.67615400  0.25755900  1
  P  P10  1  0.00282300  0.32384600  0.24244100  1
  P  P11  1  0.49717700  0.32384600  0.74244100  1
  P  P12  1  0.08381200  0.04670500  0.62198800  1
  P  P13  1  0.41618800  0.04670500  0.12198800  1
  P  P14  1  0.91618800  0.95329500  0.37801200  1
  P  P15  1  0.58381200  0.95329500  0.87801200  1
  P  P16  1  0.11683500  0.12823000  0.79039900  1
  P  P17  1  0.38316500  0.12823000  0.29039900  1
  P  P18  1  0.88316500  0.87177000  0.20960100  1
  P  P19  1  0.61683500  0.87177000  0.70960100  1
  P  P20  1  0.20573300  0.15956200  0.60985600  1
  P  P21  1  0.29426700  0.15956200  0.10985600  1
  P  P22  1  0.79426700  0.84043800  0.39014400  1
  P  P23  1  0.70573300  0.84043800  0.89014400  1
  P  P24  1  0.11787900  0.78344100  0.69715900  1
  P  P25  1  0.38212100  0.78344100  0.19715900  1
  P  P26  1  0.88212100  0.21655900  0.30284100  1
  P  P27  1  0.61787900  0.21655900  0.80284100  1
  P  P28  1  0.19805300  0.77563700  0.80489900  1
  P  P29  1  0.30194700  0.77563700  0.30489900  1
  P  P30  1  0.80194700  0.22436300  0.19510100  1
  P  P31  1  0.69805300  0.22436300  0.69510100  1
  P  P32  1  0.98184700  0.80927300  0.82497200  1
  P  P33  1  0.51815300  0.80927300  0.32497200  1
  P  P34  1  0.01815300  0.19072700  0.17502800  1
  P  P35  1  0.48184700  0.19072700  0.67502800  1
  P  P36  1  0.11235600  0.93663100  0.92788600  1
  P  P37  1  0.38764400  0.93663100  0.42788600  1
  P  P38  1  0.88764400  0.06336900  0.07211400  1
  P  P39  1  0.61235600  0.06336900  0.57211400  1
  P  P40  1  0.01127600  0.07231100  0.72388500  1
  P  P41  1  0.48872400  0.07231100  0.22388500  1
  P  P42  1  0.98872400  0.92768900  0.27611500  1
  P  P43  1  0.51127600  0.92768900  0.77611500  1
  H  H0  1  0.12995200  0.45402000  0.35508500  1
  H  H1  1  0.37004800  0.45402000  0.85508500  1
  H  H2  1  0.87004800  0.54598000  0.64491500  1
  H  H3  1  0.62995200  0.54598000  0.14491500  1
  H  H4  1  0.16627400  0.30797300  0.44965800  1
  H  H5  1  0.33372600  0.30797300  0.94965800  1
  H  H6  1  0.83372600  0.69202700  0.55034200  1
  H  H7  1  0.66627400  0.69202700  0.05034200  1
  H  H8  1  0.19237900  0.31661500  0.35814600  1
  H  H9  1  0.30762100  0.31661500  0.85814600  1
  H  H10  1  0.80762100  0.68338500  0.64185400  1
  H  H11  1  0.69237900  0.68338500  0.14185400  1
  H  H12  1  0.17658900  0.88046400  0.14125100  1
  H  H13  1  0.32341100  0.88046400  0.64125100  1
  H  H14  1  0.82341100  0.11953600  0.85874900  1
  H  H15  1  0.67658900  0.11953600  0.35874900  1
  H  H16  1  0.10563000  0.78030700  0.21630000  1
  H  H17  1  0.39437000  0.78030700  0.71630000  1
  H  H18  1  0.89437000  0.21969300  0.78370000  1
  H  H19  1  0.60563000  0.21969300  0.28370000  1
  H  H20  1  0.08351800  0.84910300  0.11339900  1
  H  H21  1  0.41648200  0.84910300  0.61339900  1
  H  H22  1  0.91648200  0.15089700  0.88660100  1
  H  H23  1  0.58351800  0.15089700  0.38660100  1
  H  H24  1  0.05204300  0.63094400  0.48121200  1
  H  H25  1  0.44795700  0.63094400  0.98121200  1
  H  H26  1  0.94795700  0.36905600  0.51878800  1
  H  H27  1  0.55204300  0.36905600  0.01878800  1
  H  H28  1  0.12252000  0.48752500  0.53535800  1
  H  H29  1  0.37748000  0.48752500  0.03535800  1
  H  H30  1  0.87748000  0.51247500  0.46464200  1
  H  H31  1  0.62252000  0.51247500  0.96464200  1
  H  H32  1  0.06773000  0.56043100  0.58554200  1
  H  H33  1  0.43227000  0.56043100  0.08554200  1
  H  H34  1  0.93227000  0.43956900  0.41445800  1
  H  H35  1  0.56773000  0.43956900  0.91445800  1
  N  N0  1  0.12998500  0.79468100  0.15946300  1
  N  N1  1  0.37001500  0.79468100  0.65946300  1
  N  N2  1  0.87001500  0.20531900  0.84053700  1
  N  N3  1  0.62998500  0.20531900  0.34053700  1
  N  N4  1  0.18240000  0.38617000  0.38549900  1
  N  N5  1  0.31760000  0.38617000  0.88549900  1
  N  N6  1  0.81760000  0.61383000  0.61450100  1
  N  N7  1  0.68240000  0.61383000  0.11450100  1
  N  N8  1  0.09804200  0.59282000  0.52804800  1
  N  N9  1  0.40195800  0.59282000  0.02804800  1
  N  N10  1  0.90195800  0.40718000  0.47195200  1
  N  N11  1  0.59804200  0.40718000  0.97195200  1
loop_
_geom_bond_atom_site_label_1
_geom_bond_atom_site_label_2
_geom_bond_distance
_geom_bond_site_symmetry_2
Cs0 N0 3.090745 1_555
Cs0 H8 3.314120 1_555
Cs0 P10 3.749261 1_555
Cs0 P21 4.004008 1_555
Cs0 P0 4.033468 1_554
Cs0 P5 4.057893 1_555
Cs1 N1 3.090745 1_555
Cs1 H9 3.314120 1_555
Cs1 P11 3.749261 1_555
Cs1 P20 4.004008 1_555
Cs1 P1 4.033468 1_555
Cs1 P4 4.057893 1_555
Cs2 N2 3.090745 1_555
Cs2 H10 3.314120 1_555
Cs2 P8 3.749261 1_555
Cs2 P23 4.004008 1_555
Cs2 P2 4.033468 1_556
Cs2 P7 4.057893 1_555
Cs3 N3 3.090745 1_555
Cs3 H11 3.314120 1_555
Cs3 P9 3.749261 1_555
Cs3 P22 4.004008 1_555
Cs3 P3 4.033468 1_555
Cs3 P6 4.057893 1_555
Cs4 N4 3.548205 1_555
Cs4 P37 3.737665 1_545
Cs4 P1 3.803998 1_555
Cs4 P35 3.806248 1_555
Cs4 P9 3.866188 1_555
Cs4 P20 3.871235 1_555
Cs4 P17 4.007403 1_555
Cs4 P3 4.009173 1_555
Cs4 P39 4.062856 1_555
Cs5 N5 3.548205 1_555
Cs5 P36 3.737665 1_545
Cs5 P0 3.803998 1_555
Cs5 P34 3.806248 1_556
Cs5 P8 3.866188 1_455
Cs5 P21 3.871235 1_556
Cs5 P16 4.007403 1_555
Cs5 P2 4.009173 1_456
Cs5 P38 4.062856 1_456
Cs6 N6 3.548205 1_555
Cs6 P39 3.737665 1_565
Cs6 P3 3.803998 1_555
Cs6 P33 3.806248 1_555
Cs6 P11 3.866188 1_555
Cs6 P22 3.871235 1_555
Cs6 P19 4.007403 1_555
Cs6 P1 4.009173 1_555
Cs6 P37 4.062856 1_555
Cs7 N7 3.548205 1_555
Cs7 P38 3.737665 1_565
Cs7 P2 3.803998 1_555
Cs7 P32 3.806248 1_554
Cs7 P10 3.866188 1_655
Cs7 P23 3.871235 1_554
Cs7 P18 4.007403 1_555
Cs7 P0 4.009173 1_654
Cs7 P36 4.062856 1_654
Cs8 H8 3.022001 1_565
Cs8 N8 3.138649 1_555
Cs8 H24 3.188794 1_555
Cs8 H4 3.453574 1_565
Cs8 P5 3.662536 1_565
Cs8 P14 3.701789 1_455
Cs8 P42 3.862785 1_455
Cs8 P12 3.909032 1_565
Cs8 P37 3.954404 1_555
Cs8 P10 4.009804 1_565
Cs8 P24 4.089531 1_555
Cs9 H9 3.022001 1_565
Cs9 N9 3.138649 1_556
Cs9 H25 3.188794 1_555
Cs9 H5 3.453574 1_565
Cs9 P4 3.662536 1_565
Cs9 P15 3.701789 1_555
Cs9 P43 3.862785 1_555
Cs9 P13 3.909032 1_566
Cs9 P36 3.954404 1_555
Cs9 P11 4.009804 1_565
Cs9 P25 4.089531 1_556
Cs10 H10 3.022001 1_545
Cs10 N10 3.138649 1_555
Cs10 H26 3.188794 1_555
Cs10 H6 3.453574 1_545
Cs10 P7 3.662536 1_545
Cs10 P12 3.701789 1_655
Cs10 P40 3.862785 1_655
Cs10 P14 3.909032 1_545
Cs10 P39 3.954404 1_555
Cs10 P8 4.009804 1_545
Cs10 P26 4.089531 1_555
Cs11 H11 3.022001 1_545
Cs11 N11 3.138649 1_554
Cs11 H27 3.188794 1_555
Cs11 H7 3.453574 1_545
Cs11 P6 3.662536 1_545
Cs11 P13 3.701789 1_555
Cs11 P41 3.862785 1_555
Cs11 P15 3.909032 1_544
Cs11 P38 3.954404 1_555
Cs11 P9 4.009804 1_545
Cs11 P27 4.089531 1_554
P0 P36 2.173475 1_555
P0 P32 2.230045 1_455
P0 P28 2.259908 1_555
P1 P37 2.173475 1_555
P1 P33 2.230045 1_555
P1 P29 2.259908 1_555
P2 P38 2.173475 1_555
P2 P34 2.230045 1_655
P2 P30 2.259908 1_555
P3 P39 2.173475 1_555
P3 P35 2.230045 1_555
P3 P31 2.259908 1_555
P10 P34 2.173768 1_555
P10 P26 2.178033 1_455
P11 P35 2.173768 1_555
P11 P27 2.178033 1_555
P12 P20 2.172063 1_555
P12 P24 2.228523 1_545
P12 P40 2.271390 1_555
P13 P21 2.172063 1_555
P13 P25 2.228523 1_545
P13 P41 2.271390 1_555
P14 P22 2.172063 1_555
P14 P26 2.228523 1_565
P14 P42 2.271390 1_555
P15 P23 2.172063 1_555
P15 P27 2.228523 1_565
P15 P43 2.271390 1_555
P16 P36 2.179929 1_545
P16 P4 2.219296 1_555
P16 P40 2.272013 1_555
P17 P37 2.179929 1_545
P17 P5 2.219296 1_555
P17 P41 2.272013 1_555
P18 P38 2.179929 1_565
P18 P6 2.219296 1_555
P18 P42 2.272013 1_555
P19 P39 2.179929 1_565
P19 P7 2.219296 1_555
P19 P43 2.272013 1_555
P20 P4 2.168322 1_555
P21 P5 2.168322 1_555
P22 P6 2.168322 1_555
P23 P7 2.168322 1_555
P24 P8 2.178033 1_455
P24 P28 2.275711 1_555
P25 P9 2.178033 1_555
P25 P29 2.275711 1_555
P26 P30 2.275711 1_555
P27 P31 2.275711 1_555
P28 P4 2.263815 1_565
P29 P5 2.263815 1_565
P30 P6 2.263815 1_545
P31 P7 2.263815 1_545
P32 P8 2.173768 1_555
P32 P40 2.266299 1_665
P33 P9 2.173768 1_555
P33 P41 2.266299 1_565
P34 P42 2.266299 1_445
P35 P43 2.266299 1_545
H0 N4 1.022687 1_555
H1 N5 1.022687 1_555
H2 N6 1.022687 1_555
H3 N7 1.022687 1_555
H4 N4 1.026491 1_555
H5 N5 1.026491 1_555
H6 N6 1.026491 1_555
H7 N7 1.026491 1_555
H8 N4 1.022250 1_555
H9 N5 1.022250 1_555
H10 N6 1.022250 1_555
H11 N7 1.022250 1_555
H12 N0 1.026045 1_555
H13 N1 1.026045 1_555
H14 N2 1.026045 1_555
H15 N3 1.026045 1_555
H16 N0 1.026925 1_555
H17 N1 1.026925 1_555
H18 N2 1.026925 1_555
H19 N3 1.026925 1_555
H20 N0 1.024455 1_555
H21 N1 1.024455 1_555
H22 N2 1.024455 1_555
H23 N3 1.024455 1_555
H24 N8 1.024898 1_555
H25 N9 1.024898 1_556
H26 N10 1.024898 1_555
H27 N11 1.024898 1_554
H28 N8 1.025155 1_555
H29 N9 1.025155 1_555
H30 N10 1.025155 1_555
H31 N11 1.025155 1_555
H32 N8 1.026214 1_555
H33 N9 1.026214 1_555
H34 N10 1.026214 1_555
H35 N11 1.026214 1_555
