# generated using pymatgen
data_NaMg14BO15
_symmetry_space_group_name_H-M   'P 1'
_cell_length_a   8.70194813
_cell_length_b   8.26205380
_cell_length_c   4.32544319
_cell_angle_alpha   90.00000000
_cell_angle_beta   90.00000000
_cell_angle_gamma   90.00000000
_symmetry_Int_Tables_number   1
_chemical_formula_structural   NaMg14BO15
_chemical_formula_sum   'Na1 Mg14 B1 O15'
_cell_volume   310.98190621
_cell_formula_units_Z   1
loop_
 _symmetry_equiv_pos_site_id
 _symmetry_equiv_pos_as_xyz
  1  'x, y, z'
loop_
 _atom_site_type_symbol
 _atom_site_label
 _atom_site_symmetry_multiplicity
 _atom_site_fract_x
 _atom_site_fract_y
 _atom_site_fract_z
 _atom_site_occupancy
  Na  Na0  1  0.99671796  -0.00000000  -0.00000000  1
  Mg  Mg0  1  0.49815017  -0.00000000  -0.00000000  1
  Mg  Mg1  1  0.50220463  0.50000000  -0.00000000  1
  Mg  Mg2  1  0.99990134  0.25925339  0.50000000  1
  Mg  Mg3  1  0.99990134  0.74074661  0.50000000  1
  Mg  Mg4  1  0.49709247  0.24989488  0.50000000  1
  Mg  Mg5  1  0.49709247  0.75010512  0.50000000  1
  Mg  Mg6  1  0.24389568  -0.00000000  0.50000000  1
  Mg  Mg7  1  0.24317321  0.50000000  0.50000000  1
  Mg  Mg8  1  0.75229673  -0.00000000  0.50000000  1
  Mg  Mg9  1  0.75984079  0.50000000  0.50000000  1
  Mg  Mg10  1  0.25032650  0.24812910  0.00000000  1
  Mg  Mg11  1  0.25032650  0.75187090  -0.00000000  1
  Mg  Mg12  1  0.74458104  0.25808449  -0.00000000  1
  Mg  Mg13  1  0.74458104  0.74191551  -0.00000000  1
  B  B0  1  0.06066054  0.50000000  -0.00000000  1
  O  O0  1  0.25600268  -0.00000000  -0.00000000  1
  O  O1  1  0.73793616  -0.00000000  -0.00000000  1
  O  O2  1  0.72707640  0.50000000  -0.00000000  1
  O  O3  1  0.24576566  0.25086818  0.50000000  1
  O  O4  1  0.24576566  0.74913182  0.50000000  1
  O  O5  1  0.75266389  0.25154626  0.50000000  1
  O  O6  1  0.75266389  0.74845374  0.50000000  1
  O  O7  1  0.99899188  -0.00000000  0.50000000  1
  O  O8  1  0.00869627  0.50000000  0.50000000  1
  O  O9  1  0.49798660  -0.00000000  0.50000000  1
  O  O10  1  0.48589166  0.50000000  0.50000000  1
  O  O11  1  0.00828400  0.32761454  -0.00000000  1
  O  O12  1  0.00828400  0.67238546  -0.00000000  1
  O  O13  1  0.49162443  0.25282543  -0.00000000  1
  O  O14  1  0.49162443  0.74717457  -0.00000000  1
loop_
_geom_bond_atom_site_label_1
_geom_bond_atom_site_label_2
_geom_bond_distance
_geom_bond_site_symmetry_2
Na0 O7 2.162812 1_555
Na0 O7 2.162812 1_554
Na0 O1 2.251906 1_555
Na0 O0 2.256282 1_655
Na0 O12 2.708640 1_645
Na0 O11 2.708640 1_655
Mg0 O1 2.086605 1_555
Mg0 O14 2.089629 1_545
Mg0 O13 2.089629 1_555
Mg0 O0 2.107155 1_555
Mg0 O9 2.162722 1_555
Mg0 O9 2.162722 1_554
Mg1 O2 1.956822 1_555
Mg1 O13 2.044244 1_555
Mg1 O14 2.044244 1_555
Mg1 O10 2.167375 1_554
Mg1 O10 2.167375 1_555
Mg2 O8 1.990533 1_655
Mg2 O3 2.140620 1_655
Mg2 O7 2.141980 1_555
Mg2 O5 2.152390 1_555
Mg2 O11 2.236446 1_655
Mg2 O11 2.236446 1_656
Mg3 O8 1.990533 1_655
Mg3 O4 2.140620 1_655
Mg3 O7 2.141980 1_565
Mg3 O6 2.152390 1_555
Mg3 O12 2.236446 1_655
Mg3 O12 2.236446 1_656
Mg4 O9 2.064660 1_555
Mg4 O10 2.068679 1_555
Mg4 O13 2.163380 1_555
Mg4 O13 2.163380 1_556
Mg4 O3 2.187048 1_555
Mg4 O5 2.224011 1_555
Mg5 O9 2.064660 1_565
Mg5 O10 2.068679 1_555
Mg5 O14 2.163380 1_556
Mg5 O14 2.163380 1_555
Mg5 O4 2.187048 1_555
Mg5 O6 2.224011 1_555
Mg6 O4 2.072750 1_545
Mg6 O3 2.072750 1_555
Mg6 O7 2.131140 1_455
Mg6 O0 2.165286 1_555
Mg6 O0 2.165286 1_556
Mg6 O9 2.211086 1_555
Mg7 O8 2.040406 1_555
Mg7 O4 2.058464 1_555
Mg7 O3 2.058464 1_555
Mg7 O10 2.112123 1_555
Mg8 O6 2.078291 1_545
Mg8 O5 2.078291 1_555
Mg8 O7 2.146728 1_555
Mg8 O1 2.166329 1_556
Mg8 O1 2.166329 1_555
Mg8 O9 2.212994 1_555
Mg9 O6 2.053688 1_555
Mg9 O5 2.053688 1_555
Mg9 O8 2.165527 1_655
Mg9 O2 2.181434 1_556
Mg9 O2 2.181434 1_555
Mg9 O10 2.383891 1_555
Mg10 O0 2.050651 1_555
Mg10 O13 2.100121 1_555
Mg10 O3 2.163204 1_554
Mg10 O3 2.163204 1_555
Mg10 O11 2.206247 1_555
Mg11 O0 2.050651 1_565
Mg11 O14 2.100121 1_555
Mg11 O4 2.163204 1_555
Mg11 O4 2.163204 1_554
Mg11 O12 2.206247 1_555
Mg12 O2 2.004515 1_555
Mg12 O1 2.133092 1_555
Mg12 O5 2.164539 1_554
Mg12 O5 2.164539 1_555
Mg12 O13 2.201644 1_555
Mg12 O11 2.365542 1_655
Mg13 O2 2.004515 1_555
Mg13 O1 2.133092 1_565
Mg13 O6 2.164539 1_554
Mg13 O6 2.164539 1_555
Mg13 O14 2.201644 1_555
Mg13 O12 2.365542 1_655
B0 O11 1.495408 1_555
B0 O12 1.495408 1_555
