# generated using pymatgen
data_UHg2
_symmetry_space_group_name_H-M   'P 1'
_cell_length_a   6.06535200
_cell_length_b   10.36779091
_cell_length_c   10.36779091
_cell_angle_alpha   119.99999307
_cell_angle_beta   90.00000000
_cell_angle_gamma   90.00000000
_symmetry_Int_Tables_number   1
_chemical_formula_structural   UHg2
_chemical_formula_sum   'U8 Hg16'
_cell_volume   564.62373763
_cell_formula_units_Z   8
loop_
 _symmetry_equiv_pos_site_id
 _symmetry_equiv_pos_as_xyz
  1  'x, y, z'
loop_
 _atom_site_type_symbol
 _atom_site_label
 _atom_site_symmetry_multiplicity
 _atom_site_fract_x
 _atom_site_fract_y
 _atom_site_fract_z
 _atom_site_occupancy
  U  U0_0  1  0.00000000  0.00000000  0.00000000  1
  U  U0_1  1  0.00000000  0.00000000  0.50000000  1
  U  U0_2  1  0.00000000  0.50000000  0.00000000  1
  U  U0_3  1  0.00000000  0.50000000  0.50000000  1
  U  U0_4  1  0.50000000  0.00000000  0.00000000  1
  U  U0_5  1  0.50000000  0.00000000  0.50000000  1
  U  U0_6  1  0.50000000  0.50000000  0.00000000  1
  U  U0_7  1  0.50000000  0.50000000  0.50000000  1
  Hg  Hg0_0  1  0.25000000  0.16666650  0.33333350  1
  Hg  Hg0_1  1  0.25000000  0.16666650  0.83333350  1
  Hg  Hg0_2  1  0.25000000  0.66666650  0.33333350  1
  Hg  Hg0_3  1  0.25000000  0.66666650  0.83333350  1
  Hg  Hg0_4  1  0.75000000  0.16666650  0.33333350  1
  Hg  Hg0_5  1  0.75000000  0.16666650  0.83333350  1
  Hg  Hg0_6  1  0.75000000  0.66666650  0.33333350  1
  Hg  Hg0_7  1  0.75000000  0.66666650  0.83333350  1
  Hg  Hg1_0  1  0.25000000  0.33333350  0.16666650  1
  Hg  Hg1_1  1  0.25000000  0.33333350  0.66666650  1
  Hg  Hg1_2  1  0.25000000  0.83333350  0.16666650  1
  Hg  Hg1_3  1  0.25000000  0.83333350  0.66666650  1
  Hg  Hg1_4  1  0.75000000  0.33333350  0.16666650  1
  Hg  Hg1_5  1  0.75000000  0.33333350  0.66666650  1
  Hg  Hg1_6  1  0.75000000  0.83333350  0.16666650  1
  Hg  Hg1_7  1  0.75000000  0.83333350  0.66666650  1
loop_
_geom_bond_atom_site_label_1
_geom_bond_atom_site_label_2
_geom_bond_distance
_geom_bond_site_symmetry_2
U0_0 U0_4 3.032676 1_455
U0_0 U0_4 3.032676 1_555
U0_1 U0_5 3.032676 1_455
U0_1 U0_5 3.032676 1_555
U0_2 U0_6 3.032676 1_555
U0_2 U0_6 3.032676 1_455
U0_3 U0_7 3.032676 1_455
U0_3 U0_7 3.032676 1_555
Hg0_0 Hg1_2 2.992921 1_545
Hg0_0 Hg1_1 2.992921 1_555
Hg0_0 Hg1_0 2.992929 1_555
Hg0_0 Hg0_4 3.032676 1_455
Hg0_0 Hg0_4 3.032676 1_555
Hg0_0 U0_1 3.355123 1_555
Hg0_0 U0_5 3.355123 1_555
Hg0_0 U0_3 3.355128 1_555
Hg0_0 U0_4 3.355128 1_555
Hg0_0 U0_7 3.355128 1_555
Hg0_0 U0_0 3.355128 1_555
Hg0_1 Hg1_0 2.992921 1_556
Hg0_1 Hg1_3 2.992921 1_545
Hg0_1 Hg1_1 2.992929 1_555
Hg0_1 Hg0_5 3.032676 1_455
Hg0_1 Hg0_5 3.032676 1_555
Hg0_1 U0_0 3.355123 1_556
Hg0_1 U0_4 3.355123 1_556
Hg0_1 U0_2 3.355128 1_556
Hg0_1 U0_6 3.355128 1_556
Hg0_1 U0_5 3.355128 1_555
Hg0_1 U0_1 3.355128 1_555
Hg0_2 Hg1_3 2.992921 1_555
Hg0_2 Hg1_0 2.992921 1_555
Hg0_2 Hg1_2 2.992929 1_555
Hg0_2 Hg0_6 3.032676 1_455
Hg0_2 Hg0_6 3.032676 1_555
Hg0_2 U0_3 3.355123 1_555
Hg0_2 U0_7 3.355123 1_555
Hg0_2 U0_1 3.355128 1_565
Hg0_2 U0_2 3.355128 1_555
Hg0_2 U0_5 3.355128 1_565
Hg0_2 U0_6 3.355128 1_555
Hg0_3 Hg1_1 2.992921 1_555
Hg0_3 Hg1_2 2.992921 1_556
Hg0_3 Hg1_3 2.992929 1_555
Hg0_3 Hg0_7 3.032676 1_455
Hg0_3 Hg0_7 3.032676 1_555
Hg0_3 U0_2 3.355123 1_556
Hg0_3 U0_6 3.355123 1_556
Hg0_3 U0_0 3.355128 1_566
Hg0_3 U0_4 3.355128 1_566
Hg0_3 U0_3 3.355128 1_555
Hg0_3 U0_7 3.355128 1_555
Hg0_4 Hg1_6 2.992921 1_545
Hg0_4 Hg1_5 2.992921 1_555
Hg0_4 Hg1_4 2.992929 1_555
Hg0_4 U0_5 3.355123 1_555
Hg0_4 U0_1 3.355123 1_655
Hg0_4 U0_7 3.355128 1_555
Hg0_4 U0_0 3.355128 1_655
Hg0_4 U0_3 3.355128 1_655
Hg0_4 U0_4 3.355128 1_555
Hg0_5 Hg1_4 2.992921 1_556
Hg0_5 Hg1_7 2.992921 1_545
Hg0_5 Hg1_5 2.992929 1_555
Hg0_5 U0_4 3.355123 1_556
Hg0_5 U0_0 3.355123 1_656
Hg0_5 U0_6 3.355128 1_556
Hg0_5 U0_2 3.355128 1_656
Hg0_5 U0_1 3.355128 1_655
Hg0_5 U0_5 3.355128 1_555
Hg0_6 Hg1_4 2.992921 1_555
Hg0_6 Hg1_7 2.992921 1_555
Hg0_6 Hg1_6 2.992929 1_555
Hg0_6 U0_7 3.355123 1_555
Hg0_6 U0_3 3.355123 1_655
Hg0_6 U0_1 3.355128 1_665
Hg0_6 U0_2 3.355128 1_655
Hg0_6 U0_5 3.355128 1_565
Hg0_6 U0_6 3.355128 1_555
Hg0_7 Hg1_6 2.992921 1_556
Hg0_7 Hg1_5 2.992921 1_555
Hg0_7 Hg1_7 2.992929 1_555
Hg0_7 U0_2 3.355123 1_656
Hg0_7 U0_6 3.355123 1_556
Hg0_7 U0_4 3.355128 1_566
Hg0_7 U0_0 3.355128 1_666
Hg0_7 U0_7 3.355128 1_555
Hg0_7 U0_3 3.355128 1_655
Hg1_0 Hg1_4 3.032676 1_555
Hg1_0 Hg1_4 3.032676 1_455
Hg1_0 U0_2 3.355123 1_555
Hg1_0 U0_6 3.355123 1_555
Hg1_0 U0_3 3.355128 1_555
Hg1_0 U0_7 3.355128 1_555
Hg1_0 U0_0 3.355128 1_555
Hg1_0 U0_4 3.355128 1_555
Hg1_1 Hg1_5 3.032676 1_455
Hg1_1 Hg1_5 3.032676 1_555
Hg1_1 U0_3 3.355123 1_555
Hg1_1 U0_7 3.355123 1_555
Hg1_1 U0_1 3.355128 1_555
Hg1_1 U0_5 3.355128 1_555
Hg1_1 U0_2 3.355128 1_556
Hg1_1 U0_6 3.355128 1_556
Hg1_2 Hg1_6 3.032676 1_555
Hg1_2 Hg1_6 3.032676 1_455
Hg1_2 U0_0 3.355123 1_565
Hg1_2 U0_4 3.355123 1_565
Hg1_2 U0_1 3.355128 1_565
Hg1_2 U0_5 3.355128 1_565
Hg1_2 U0_2 3.355128 1_555
Hg1_2 U0_6 3.355128 1_555
Hg1_3 Hg1_7 3.032676 1_555
Hg1_3 Hg1_7 3.032676 1_455
Hg1_3 U0_5 3.355123 1_565
Hg1_3 U0_1 3.355123 1_565
Hg1_3 U0_3 3.355128 1_555
Hg1_3 U0_7 3.355128 1_555
Hg1_3 U0_4 3.355128 1_566
Hg1_3 U0_0 3.355128 1_566
Hg1_4 U0_2 3.355123 1_655
Hg1_4 U0_6 3.355123 1_555
Hg1_4 U0_3 3.355128 1_655
Hg1_4 U0_7 3.355128 1_555
Hg1_4 U0_0 3.355128 1_655
Hg1_4 U0_4 3.355128 1_555
Hg1_5 U0_7 3.355123 1_555
Hg1_5 U0_3 3.355123 1_655
Hg1_5 U0_5 3.355128 1_555
Hg1_5 U0_1 3.355128 1_655
Hg1_5 U0_2 3.355128 1_656
Hg1_5 U0_6 3.355128 1_556
Hg1_6 U0_4 3.355123 1_565
Hg1_6 U0_0 3.355123 1_665
Hg1_6 U0_5 3.355128 1_565
Hg1_6 U0_1 3.355128 1_665
Hg1_6 U0_2 3.355128 1_655
Hg1_6 U0_6 3.355128 1_555
Hg1_7 U0_1 3.355123 1_665
Hg1_7 U0_5 3.355123 1_565
Hg1_7 U0_3 3.355128 1_655
Hg1_7 U0_7 3.355128 1_555
Hg1_7 U0_0 3.355128 1_666
Hg1_7 U0_4 3.355128 1_566
