# generated using pymatgen
data_CaMn9CdO10
_symmetry_space_group_name_H-M   'P 1'
_cell_length_a   6.28607590
_cell_length_b   9.31422845
_cell_length_c   6.56427596
_cell_angle_alpha   64.00094670
_cell_angle_beta   121.30054708
_cell_angle_gamma   92.07229552
_symmetry_Int_Tables_number   1
_chemical_formula_structural   CaMn9CdO10
_chemical_formula_sum   'Ca1 Mn9 Cd1 O10'
_cell_volume   285.83428197
_cell_formula_units_Z   1
loop_
 _symmetry_equiv_pos_site_id
 _symmetry_equiv_pos_as_xyz
  1  'x, y, z'
loop_
 _atom_site_type_symbol
 _atom_site_label
 _atom_site_symmetry_multiplicity
 _atom_site_fract_x
 _atom_site_fract_y
 _atom_site_fract_z
 _atom_site_occupancy
  Ca  Ca0  1  0.73115300  0.51208800  0.23170500  1
  Mn  Mn0  1  0.38747600  0.32190900  0.37752700  1
  Mn  Mn1  1  0.95765000  0.04361000  0.01227400  1
  Mn  Mn2  1  0.47459400  0.96012500  0.52387700  1
  Mn  Mn3  1  0.10469000  0.67959200  0.11006600  1
  Mn  Mn4  1  0.95110800  0.14424100  0.44682000  1
  Mn  Mn5  1  0.45462500  0.23499400  0.90391500  1
  Mn  Mn6  1  0.51906700  0.59837200  0.65382700  1
  Mn  Mn7  1  0.98327200  0.39332200  0.84239100  1
  Mn  Mn8  1  0.01817800  0.75962600  0.57354600  1
  Cd  Cd0  1  0.42031600  0.87874800  0.02602300  1
  O  O0  1  0.77520400  0.00721500  0.24072000  1
  O  O1  1  0.76342700  0.36124100  0.02927700  1
  O  O2  1  0.80089800  0.24494200  0.60250200  1
  O  O3  1  0.74426500  0.61995100  0.48930700  1
  O  O4  1  0.27771000  0.17316500  0.13144400  1
  O  O5  1  0.20941700  0.81599000  0.36744000  1
  O  O6  1  0.70892500  0.74006900  0.87502000  1
  O  O7  1  0.35536500  0.11182400  0.64300700  1
  O  O8  1  0.23515900  0.46184100  0.49349100  1
  O  O9  1  0.25845200  0.53869700  0.99724900  1
loop_
_geom_bond_atom_site_label_1
_geom_bond_atom_site_label_2
_geom_bond_distance
_geom_bond_site_symmetry_2
Ca0 O3 2.283444 1_555
Ca0 O6 2.309403 1_554
Ca0 O1 2.391333 1_555
Ca0 O2 2.443029 1_555
Ca0 O9 2.495312 1_554
Ca0 O8 2.637196 1_655
Mn0 O7 2.062519 1_555
Mn0 O9 2.135892 1_554
Mn0 O2 2.160417 1_555
Mn0 O8 2.216382 1_555
Mn0 O4 2.395769 1_555
Mn1 O5 2.123767 1_645
Mn1 O2 2.163378 1_554
Mn1 O0 2.234318 1_555
Mn1 O4 2.265521 1_655
Mn2 O6 2.057265 1_555
Mn2 O4 2.118640 1_565
Mn2 O7 2.196359 1_565
Mn2 O5 2.214422 1_555
Mn3 O6 2.058659 1_454
Mn3 O8 2.149662 1_555
Mn3 O9 2.211878 1_554
Mn3 O5 2.359523 1_555
Mn4 O7 2.126376 1_655
Mn4 O0 2.130561 1_555
Mn4 O2 2.173184 1_555
Mn4 O1 2.223772 1_555
Mn5 O4 2.173617 1_556
Mn5 O1 2.202607 1_556
Mn5 O8 2.232534 1_555
Mn5 O0 2.240015 1_556
Mn5 O7 2.280169 1_555
Mn6 O5 2.138664 1_555
Mn6 O3 2.142027 1_555
Mn6 O1 2.202570 1_556
Mn6 O8 2.228795 1_555
Mn6 O6 2.245001 1_555
Mn7 O3 2.099247 1_555
Mn7 O4 2.108351 1_656
Mn7 O1 2.216844 1_556
Mn7 O9 2.251510 1_655
Mn7 O2 2.370999 1_555
Mn8 O3 2.107700 1_455
Mn8 O5 2.138408 1_555
Mn8 O0 2.189629 1_465
Mn8 O9 2.256890 1_555
Cd0 O7 2.326618 1_564
Cd0 O0 2.532451 1_565
Cd0 O3 2.588275 1_555
