# generated using pymatgen
data_Te2MoWSe2
_symmetry_space_group_name_H-M   'P 1'
_cell_length_a   3.44283066
_cell_length_b   3.44283066
_cell_length_c   39.12330800
_cell_angle_alpha   90.00000000
_cell_angle_beta   90.00000000
_cell_angle_gamma   120.00001263
_symmetry_Int_Tables_number   1
_chemical_formula_structural   Te2MoWSe2
_chemical_formula_sum   'Te4 Mo2 W2 Se4'
_cell_volume   401.60348072
_cell_formula_units_Z   2
loop_
 _symmetry_equiv_pos_site_id
 _symmetry_equiv_pos_as_xyz
  1  'x, y, z'
loop_
 _atom_site_type_symbol
 _atom_site_label
 _atom_site_symmetry_multiplicity
 _atom_site_fract_x
 _atom_site_fract_y
 _atom_site_fract_z
 _atom_site_occupancy
  Te  Te0  1  0.33333300  0.66666700  0.32944500  1
  Te  Te1  1  0.66666700  0.33333300  0.67055500  1
  Te  Te2  1  0.66666700  0.33333300  0.76584800  1
  Te  Te3  1  0.33333300  0.66666700  0.23415200  1
  Mo  Mo0  1  0.33333300  0.66666700  0.09392100  1
  Mo  Mo1  1  0.66666700  0.33333300  0.90607900  1
  W  W0  1  0.33333300  0.66666700  0.71820000  1
  W  W1  1  0.66666700  0.33333300  0.28180000  1
  Se  Se0  1  0.33333300  0.66666700  0.94785200  1
  Se  Se1  1  0.66666700  0.33333300  0.05214800  1
  Se  Se2  1  0.66666700  0.33333300  0.13572500  1
  Se  Se3  1  0.33333300  0.66666700  0.86427500  1
loop_
_geom_bond_atom_site_label_1
_geom_bond_atom_site_label_2
_geom_bond_distance
_geom_bond_site_symmetry_2
Te0 W1 2.725000 1_455
Te0 W1 2.725000 1_565
Te0 W1 2.725005 1_555
Te1 W0 2.725000 1_545
Te1 W0 2.725000 1_655
Te1 W0 2.725005 1_555
Te2 W0 2.725081 1_545
Te2 W0 2.725081 1_655
Te2 W0 2.725085 1_555
Te3 W1 2.725081 1_455
Te3 W1 2.725081 1_565
Te3 W1 2.725085 1_555
Mo0 Se1 2.573315 1_455
Mo0 Se1 2.573315 1_565
Mo0 Se1 2.573320 1_555
Mo0 Se2 2.574085 1_455
Mo0 Se2 2.574085 1_565
Mo0 Se2 2.574090 1_555
Mo1 Se0 2.573315 1_545
Mo1 Se0 2.573315 1_655
Mo1 Se0 2.573320 1_555
Mo1 Se3 2.574085 1_545
Mo1 Se3 2.574085 1_655
Mo1 Se3 2.574090 1_555
