# generated using pymatgen
data_BaCa2Yb10O18
_symmetry_space_group_name_H-M   'P 1'
_cell_length_a   3.47890630
_cell_length_b   17.39918057
_cell_length_c   17.40122439
_cell_angle_alpha   59.92327488
_cell_angle_beta   90.03426094
_cell_angle_gamma   90.09878474
_symmetry_Int_Tables_number   1
_chemical_formula_structural   BaCa2Yb10O18
_chemical_formula_sum   'Ba2 Ca4 Yb20 O36'
_cell_volume   911.47552832
_cell_formula_units_Z   2
loop_
 _symmetry_equiv_pos_site_id
 _symmetry_equiv_pos_as_xyz
  1  'x, y, z'
loop_
 _atom_site_type_symbol
 _atom_site_label
 _atom_site_symmetry_multiplicity
 _atom_site_fract_x
 _atom_site_fract_y
 _atom_site_fract_z
 _atom_site_occupancy
  Ba  Ba0  1  0.25778100  0.33402000  0.33233700  1
  Ba  Ba1  1  0.75834800  0.66616600  0.66714700  1
  Ca  Ca0  1  0.75918000  0.68270100  0.34466800  1
  Ca  Ca1  1  0.75896400  0.97370200  0.68104400  1
  Ca  Ca2  1  0.75653500  0.34413900  0.97287300  1
  Ca  Ca3  1  0.25701300  0.65399200  0.02776100  1
  Yb  Yb0  1  0.25987000  0.10401500  0.45087100  1
  Yb  Yb1  1  0.25986500  0.44287400  0.10383000  1
  Yb  Yb2  1  0.25927700  0.45183500  0.44480200  1
  Yb  Yb3  1  0.76149900  0.89743800  0.54573700  1
  Yb  Yb4  1  0.75972500  0.55571000  0.89722000  1
  Yb  Yb5  1  0.76052500  0.54804500  0.55538200  1
  Yb  Yb6  1  0.25642600  0.44193000  0.76394000  1
  Yb  Yb7  1  0.25982800  0.79475900  0.44179000  1
  Yb  Yb8  1  0.25828900  0.76433500  0.79414400  1
  Yb  Yb9  1  0.75638000  0.55723600  0.23640100  1
  Yb  Yb10  1  0.75773100  0.20596300  0.55807600  1
  Yb  Yb11  1  0.75569600  0.23436400  0.20664200  1
  Yb  Yb12  1  0.25437100  0.75931600  0.14626100  1
  Yb  Yb13  1  0.25820000  0.09556200  0.75716500  1
  Yb  Yb14  1  0.25599200  0.14488500  0.09650900  1
  Yb  Yb15  1  0.75671700  0.24132500  0.85353300  1
  Yb  Yb16  1  0.76511000  0.90467700  0.24201600  1
  Yb  Yb17  1  0.76094900  0.85467600  0.90384600  1
  Yb  Yb18  1  0.25778000  0.32009400  0.65509700  1
  Yb  Yb19  1  0.25818700  0.02581200  0.31799000  1
  O  O0  1  0.25704400  0.09677900  0.61914500  1
  O  O1  1  0.25531400  0.28322200  0.09695600  1
  O  O2  1  0.25508400  0.61943400  0.28449700  1
  O  O3  1  0.75926800  0.90602100  0.38124200  1
  O  O4  1  0.75692700  0.71595800  0.90287900  1
  O  O5  1  0.75665400  0.38104100  0.71332600  1
  O  O6  1  0.25790800  0.44340900  0.97175100  1
  O  O7  1  0.25930000  0.58407400  0.44343200  1
  O  O8  1  0.25980000  0.97221500  0.58266500  1
  O  O9  1  0.75832000  0.55466600  0.02938200  1
  O  O10  1  0.75809000  0.41472800  0.55843700  1
  O  O11  1  0.75796000  0.02845900  0.41311100  1
  O  O12  1  0.25810500  0.29986600  0.52902100  1
  O  O13  1  0.25565500  0.17185500  0.30037400  1
  O  O14  1  0.25598400  0.52273900  0.17589800  1
  O  O15  1  0.75863300  0.70020000  0.47554400  1
  O  O16  1  0.75774100  0.82579100  0.69799600  1
  O  O17  1  0.75680900  0.47650100  0.82453600  1
  O  O18  1  0.26525500  0.79803800  0.31073300  1
  O  O19  1  0.26101600  0.89305500  0.79682300  1
  O  O20  1  0.25615500  0.31004100  0.89115900  1
  O  O21  1  0.75826200  0.20680500  0.68988000  1
  O  O22  1  0.75384800  0.10372700  0.20635400  1
  O  O23  1  0.75343100  0.68979700  0.10839100  1
  O  O24  1  0.25734200  0.63283200  0.80375400  1
  O  O25  1  0.25699900  0.56436200  0.63274600  1
  O  O26  1  0.25791000  0.80313200  0.56397700  1
  O  O27  1  0.75724500  0.36589000  0.19780900  1
  O  O28  1  0.75708700  0.43444200  0.36878400  1
  O  O29  1  0.75755200  0.19776200  0.43494500  1
  O  O30  1  0.26664000  0.99787300  0.19748000  1
  O  O31  1  0.26125400  0.80737400  0.99861800  1
  O  O32  1  0.25595500  0.19763500  0.80224200  1
  O  O33  1  0.75737500  0.00277600  0.80508000  1
  O  O34  1  0.75706300  0.19033000  0.00221200  1
  O  O35  1  0.75477800  0.80760200  0.19173800  1
loop_
_geom_bond_atom_site_label_1
_geom_bond_atom_site_label_2
_geom_bond_distance
_geom_bond_site_symmetry_2
Ba0 O27 2.739927 1_555
Ba0 O27 2.741731 1_455
Ba0 O28 2.751618 1_555
Ba0 O29 2.753856 1_455
Ba0 O29 2.756663 1_555
Ba0 O28 2.758948 1_455
Ba0 O14 3.038593 1_555
Ba0 O13 3.137415 1_555
Ba0 O12 3.166759 1_555
Ba1 O25 2.753161 1_655
Ba1 O25 2.754780 1_555
Ba1 O24 2.759946 1_655
Ba1 O26 2.761121 1_655
Ba1 O24 2.764884 1_555
Ba1 O26 2.766859 1_555
Ba1 O17 3.054831 1_555
Ba1 O15 3.080282 1_555
Ba1 O16 3.081590 1_555
Ca0 O7 2.441289 1_555
Ca0 O15 2.444234 1_555
Ca0 O7 2.444633 1_655
Ca0 O35 2.451166 1_555
Ca0 O18 2.480193 1_555
Ca0 O18 2.505352 1_655
Ca0 O2 2.539361 1_655
Ca0 O2 2.555374 1_555
Ca1 O16 2.439086 1_555
Ca1 O8 2.446956 1_555
Ca1 O33 2.451311 1_565
Ca1 O8 2.452603 1_655
Ca1 O19 2.488191 1_555
Ca1 O19 2.499843 1_655
Ca1 O0 2.534947 1_665
Ca1 O0 2.548262 1_565
Ca2 O6 2.443205 1_555
Ca2 O6 2.445782 1_655
Ca2 O17 2.451168 1_555
Ca2 O34 2.460287 1_556
Ca2 O20 2.498634 1_555
Ca2 O20 2.499401 1_655
Ca2 O1 2.550388 1_656
Ca2 O1 2.555445 1_556
Ca3 O9 2.436842 1_455
Ca3 O14 2.441240 1_555
Ca3 O9 2.447539 1_555
Ca3 O31 2.454145 1_554
Ca3 O23 2.491721 1_555
Ca3 O23 2.511711 1_455
Ca3 O4 2.561078 1_554
Ca3 O4 2.562244 1_454
O0 Yb13 2.391176 1_555
O0 Yb10 2.395735 1_555
O0 Yb10 2.396098 1_455
O0 Yb0 2.867170 1_555
O1 Yb11 2.399859 1_455
O1 Yb11 2.402254 1_555
O1 Yb14 2.410863 1_555
O1 Yb1 2.839665 1_555
O2 Yb9 2.404420 1_455
O2 Yb9 2.414347 1_555
O2 Yb12 2.416976 1_555
O2 Yb2 2.851649 1_555
O3 Yb7 2.413051 1_555
O3 Yb7 2.419754 1_655
O3 Yb16 2.434604 1_555
O3 Yb19 2.501733 1_665
O3 Yb19 2.511027 1_565
O3 Yb3 2.790573 1_555
O4 Yb8 2.388019 1_555
O4 Yb8 2.394447 1_655
O4 Yb17 2.422073 1_555
O4 Yb4 2.838847 1_555
O5 Yb6 2.418280 1_655
O5 Yb6 2.422802 1_555
O5 Yb15 2.432546 1_555
O5 Yb18 2.496359 1_555
O5 Yb18 2.505194 1_655
O5 Yb5 2.827100 1_555
O6 Yb1 2.293691 1_556
O6 Yb4 2.443903 1_455
O6 Yb4 2.449204 1_555
O7 Yb2 2.288996 1_555
O7 Yb5 2.444400 1_455
O7 Yb5 2.450339 1_555
O8 Yb0 2.290634 1_565
O8 Yb3 2.437156 1_455
O8 Yb3 2.449313 1_555
O9 Yb4 2.290739 1_554
O9 Yb1 2.435993 1_555
O9 Yb1 2.447326 1_655
O10 Yb5 2.293427 1_555
O10 Yb18 2.405704 1_555
O10 Yb18 2.406795 1_655
O10 Yb2 2.461379 1_555
O10 Yb2 2.467307 1_655
O11 Yb3 2.291273 1_545
O11 Yb19 2.416096 1_555
O11 Yb19 2.418772 1_655
O11 Yb0 2.457150 1_555
O11 Yb0 2.462786 1_655
O12 Yb10 2.262420 1_455
O12 Yb10 2.264285 1_555
O12 Yb2 2.292416 1_555
O12 Yb18 2.389748 1_555
O13 Yb11 2.255709 1_555
O13 Yb11 2.256877 1_455
O13 Yb0 2.270116 1_555
O13 Yb19 2.402126 1_555
O14 Yb9 2.264243 1_555
O14 Yb9 2.264683 1_455
O14 Yb1 2.291417 1_555
O15 Yb7 2.259009 1_555
O15 Yb7 2.261582 1_655
O15 Yb5 2.291790 1_555
O16 Yb8 2.272793 1_555
O16 Yb8 2.276998 1_655
O16 Yb3 2.294224 1_555
O17 Yb6 2.265815 1_555
O17 Yb6 2.266330 1_655
O17 Yb4 2.290465 1_555
O18 Yb7 2.252591 1_555
O18 Yb16 2.379911 1_555
O18 Yb16 2.384275 1_455
O19 Yb8 2.263349 1_555
O19 Yb17 2.385943 1_555
O19 Yb17 2.386228 1_455
O20 Yb6 2.252741 1_555
O20 Yb15 2.377634 1_455
O20 Yb15 2.384075 1_555
O21 Yb10 2.300928 1_555
O21 Yb13 2.421360 1_555
O21 Yb13 2.424836 1_655
O21 Yb18 2.462764 1_655
O21 Yb18 2.469413 1_555
O22 Yb11 2.275490 1_555
O22 Yb14 2.407188 1_555
O22 Yb14 2.417811 1_655
O22 Yb19 2.437470 1_555
O22 Yb19 2.460583 1_655
O23 Yb9 2.265430 1_555
O23 Yb12 2.391487 1_555
O23 Yb12 2.392636 1_655
O24 Yb8 2.208979 1_555
O24 Yb4 2.291425 1_455
O24 Yb4 2.306001 1_555
O25 Yb6 2.207984 1_555
O25 Yb5 2.292317 1_455
O25 Yb5 2.312806 1_555
O26 Yb7 2.202839 1_555
O26 Yb3 2.294045 1_455
O26 Yb3 2.308929 1_555
O27 Yb11 2.215408 1_555
O27 Yb1 2.296004 1_555
O27 Yb1 2.307767 1_655
O28 Yb9 2.222221 1_555
O28 Yb2 2.290510 1_555
O28 Yb2 2.300068 1_655
O29 Yb10 2.217581 1_555
O29 Yb0 2.296262 1_555
O29 Yb0 2.312432 1_655
O30 Yb16 2.232867 1_555
O30 Yb16 2.237521 1_455
O30 Yb14 2.264255 1_565
O30 Yb19 2.378351 1_565
O31 Yb17 2.248806 1_555
O31 Yb17 2.251115 1_455
O31 Yb12 2.268732 1_556
O32 Yb15 2.253308 1_455
O32 Yb15 2.254553 1_555
O32 Yb13 2.272845 1_555
O32 Yb18 2.372285 1_555
O33 Yb13 2.230686 1_555
O33 Yb13 2.231598 1_655
O33 Yb17 2.270479 1_545
O34 Yb14 2.243061 1_655
O34 Yb14 2.248242 1_555
O34 Yb15 2.275955 1_554
O35 Yb12 2.241070 1_555
O35 Yb12 2.241855 1_655
O35 Yb16 2.258418 1_555
