# generated using pymatgen
data_Mg14VBi
_symmetry_space_group_name_H-M   'P 1'
_cell_length_a   6.37480663
_cell_length_b   6.32483380
_cell_length_c   10.36512567
_cell_angle_alpha   90.00000000
_cell_angle_beta   90.00000000
_cell_angle_gamma   119.74102665
_symmetry_Int_Tables_number   1
_chemical_formula_structural   Mg14VBi
_chemical_formula_sum   'Mg14 V1 Bi1'
_cell_volume   362.86807595
_cell_formula_units_Z   1
loop_
 _symmetry_equiv_pos_site_id
 _symmetry_equiv_pos_as_xyz
  1  'x, y, z'
loop_
 _atom_site_type_symbol
 _atom_site_label
 _atom_site_symmetry_multiplicity
 _atom_site_fract_x
 _atom_site_fract_y
 _atom_site_fract_z
 _atom_site_occupancy
  Mg  Mg0  1  0.16633226  0.33316563  0.62500000  1
  Mg  Mg1  1  0.16670193  0.83335046  0.62500000  1
  Mg  Mg2  1  0.66748417  0.33271349  0.12500000  1
  Mg  Mg3  1  0.66658869  0.33304160  0.62500000  1
  Mg  Mg4  1  0.66748417  0.83476968  0.12500000  1
  Mg  Mg5  1  0.66658869  0.83354609  0.62500000  1
  Mg  Mg6  1  0.33332256  0.17253225  0.37582593  1
  Mg  Mg7  1  0.33332256  0.17253225  0.87417407  1
  Mg  Mg8  1  0.33332256  0.66079131  0.37582593  1
  Mg  Mg9  1  0.33332256  0.66079131  0.87417407  1
  Mg  Mg10  1  0.83776056  0.16888078  0.37335602  1
  Mg  Mg11  1  0.83776056  0.16888078  0.87664398  1
  Mg  Mg12  1  0.82961599  0.66480849  0.37922010  1
  Mg  Mg13  1  0.82961599  0.66480849  0.87077990  1
  V  V0  1  0.16675159  0.33337530  0.12500000  1
  Bi  Bi0  1  0.16402518  0.83201209  0.12500000  1
loop_
_geom_bond_atom_site_label_1
_geom_bond_atom_site_label_2
_geom_bond_distance
_geom_bond_site_symmetry_2
Mg0 Mg6 3.147848 1_555
Mg0 Mg7 3.147848 1_555
Mg0 Mg8 3.147854 1_555
Mg0 Mg9 3.147854 1_555
Mg0 Mg1 3.162418 1_555
Mg0 Mg1 3.162418 1_545
Mg0 Mg11 3.179768 1_455
Mg0 Mg10 3.179768 1_455
Mg0 Mg5 3.185379 1_445
Mg0 Mg3 3.185380 1_455
Mg0 Mg5 3.189427 1_555
Mg0 Mg3 3.189427 1_555
Mg1 Mg13 3.157717 1_455
Mg1 Mg12 3.157717 1_455
Mg1 Mg8 3.184338 1_555
Mg1 Mg9 3.184338 1_555
Mg1 Mg6 3.184344 1_565
Mg1 Mg7 3.184344 1_565
Mg1 Mg3 3.186068 1_565
Mg1 Mg5 3.186068 1_555
Mg1 Mg3 3.188739 1_455
Mg1 Mg5 3.188739 1_455
Mg2 Mg4 3.149412 1_545
Mg2 Mg4 3.175422 1_555
Mg2 V0 3.180659 1_655
Mg2 Mg7 3.190950 1_554
Mg2 Mg6 3.190950 1_555
Mg2 V0 3.194152 1_555
Mg3 Mg5 3.159226 1_545
Mg3 Mg5 3.165608 1_555
Mg3 Mg6 3.174069 1_555
Mg3 Mg7 3.174069 1_555
Mg4 V0 3.180659 1_665
Mg4 Mg9 3.190950 1_554
Mg4 Mg8 3.190950 1_555
Mg4 V0 3.194152 1_555
Mg5 Mg8 3.174069 1_555
Mg5 Mg9 3.174069 1_555
Mg6 Mg8 3.088157 1_555
Mg6 V0 3.161234 1_555
Mg6 Mg8 3.236676 1_545
Mg7 Mg9 3.088157 1_555
Mg7 V0 3.161234 1_556
Mg7 Mg9 3.236676 1_545
Mg8 V0 3.161240 1_555
Mg9 V0 3.161240 1_556
Mg10 Mg8 3.147823 1_655
Mg10 Mg6 3.147823 1_655
Mg10 V0 3.153212 1_655
Mg10 Mg2 3.161439 1_555
Mg10 Mg4 3.161445 1_545
Mg10 Mg12 3.163322 1_555
Mg10 Mg12 3.163322 1_545
Mg10 Mg3 3.193143 1_555
Mg10 Mg5 3.193150 1_545
Mg10 Mg8 3.227315 1_545
Mg10 Mg6 3.227316 1_555
Mg11 Mg9 3.147823 1_655
Mg11 Mg7 3.147823 1_655
Mg11 V0 3.153212 1_656
Mg11 Mg2 3.161439 1_556
Mg11 Mg4 3.161445 1_546
Mg11 Mg13 3.163322 1_555
Mg11 Mg13 3.163322 1_545
Mg11 Mg3 3.193143 1_555
Mg11 Mg5 3.193150 1_545
Mg11 Mg9 3.227315 1_545
Mg11 Mg7 3.227316 1_555
Mg12 Mg5 3.132009 1_555
Mg12 Mg3 3.132015 1_555
Mg12 Mg6 3.151444 1_555
Mg12 Mg8 3.151444 1_555
Mg12 Mg4 3.204607 1_555
Mg12 Mg2 3.204613 1_555
Mg12 Mg6 3.223904 1_665
Mg12 Mg8 3.223904 1_655
Mg13 Mg5 3.132009 1_555
Mg13 Mg3 3.132015 1_555
Mg13 Mg7 3.151444 1_555
Mg13 Mg9 3.151444 1_555
Mg13 Mg4 3.204607 1_556
Mg13 Mg2 3.204613 1_556
Mg13 Mg7 3.223904 1_665
Mg13 Mg9 3.223904 1_655
Bi0 V0 3.162453 1_555
Bi0 V0 3.162453 1_565
Bi0 Mg2 3.174041 1_455
Bi0 Mg4 3.174041 1_455
Bi0 Mg2 3.200837 1_565
Bi0 Mg4 3.200837 1_555
Bi0 Mg9 3.202545 1_554
Bi0 Mg8 3.202545 1_555
Bi0 Mg7 3.202551 1_564
Bi0 Mg6 3.202551 1_565
Bi0 Mg12 3.220171 1_455
Bi0 Mg13 3.220171 1_454
