# generated using pymatgen
data_Li2VO2F
_symmetry_space_group_name_H-M   'P 1'
_cell_length_a   5.15953411
_cell_length_b   5.90290008
_cell_length_c   7.91276671
_cell_angle_alpha   79.38017794
_cell_angle_beta   102.67978135
_cell_angle_gamma   106.51767731
_symmetry_Int_Tables_number   1
_chemical_formula_structural   Li2VO2F
_chemical_formula_sum   'Li8 V4 O8 F4'
_cell_volume   223.49086636
_cell_formula_units_Z   4
loop_
 _symmetry_equiv_pos_site_id
 _symmetry_equiv_pos_as_xyz
  1  'x, y, z'
loop_
 _atom_site_type_symbol
 _atom_site_label
 _atom_site_symmetry_multiplicity
 _atom_site_fract_x
 _atom_site_fract_y
 _atom_site_fract_z
 _atom_site_occupancy
  Li  Li0  1  0.50001500  0.66667000  0.83334400  1
  Li  Li1  1  0.50001400  0.16667000  0.83334500  1
  Li  Li2  1  0.00000500  0.16667200  0.33333000  1
  Li  Li3  1  0.00000300  0.66667000  0.33332900  1
  Li  Li4  1  0.47688400  0.49300900  0.50695000  1
  Li  Li5  1  0.47681600  0.99310400  0.50698800  1
  Li  Li6  1  0.52318000  0.34023200  0.15967200  1
  Li  Li7  1  0.52311100  0.84032600  0.15971200  1
  V  V0  1  0.00501800  0.83812000  0.66614600  1
  V  V1  1  0.99498500  0.49521400  0.00052200  1
  V  V2  1  0.00490500  0.33815900  0.66610000  1
  V  V3  1  0.99509700  0.99517400  0.00056700  1
  O  O0  1  0.76930000  0.51032100  0.74697900  1
  O  O1  1  0.76936000  0.01040000  0.74684100  1
  O  O2  1  0.23065700  0.32293000  0.91983400  1
  O  O3  1  0.23071500  0.82300700  0.91969600  1
  O  O4  1  0.22295800  0.16192900  0.58282300  1
  O  O5  1  0.22297700  0.66186800  0.58273900  1
  O  O6  1  0.77701500  0.67146500  0.08391400  1
  O  O7  1  0.77703800  0.17140600  0.08383100  1
  F  F0  1  0.74302900  0.83224600  0.41657900  1
  F  F1  1  0.74315000  0.33255300  0.41662500  1
  F  F2  1  0.25693600  0.50107400  0.25009500  1
  F  F3  1  0.25683100  0.00077800  0.25003900  1
loop_
_geom_bond_atom_site_label_1
_geom_bond_atom_site_label_2
_geom_bond_distance
_geom_bond_site_symmetry_2
Li0 O3 2.151149 1_555
Li0 O0 2.151187 1_555
Li0 O6 2.174440 1_556
Li0 O5 2.174742 1_555
Li0 O1 2.195216 1_565
Li0 O2 2.195257 1_555
Li1 O2 2.151674 1_555
Li1 O1 2.151730 1_555
Li1 O7 2.173987 1_556
Li1 O4 2.174281 1_555
Li1 O0 2.194458 1_555
Li1 O3 2.194503 1_545
Li2 O4 2.054852 1_555
Li2 O7 2.054917 1_455
Li3 O5 2.054340 1_555
Li3 O6 2.054399 1_455
Li4 O4 2.086440 1_555
Li4 O5 2.092152 1_555
Li4 O0 2.149400 1_555
Li5 O5 2.086655 1_555
Li5 O4 2.091988 1_565
Li5 O1 2.148698 1_565
Li6 O6 2.086648 1_555
Li6 O7 2.092016 1_555
Li6 O2 2.148557 1_554
Li7 O7 2.086458 1_565
Li7 O6 2.092184 1_555
Li7 O3 2.149273 1_554
O0 V0 2.044387 1_655
O0 V2 2.050308 1_655
O0 V1 2.087184 1_556
O1 V2 2.043669 1_655
O1 V0 2.050254 1_645
O1 V3 2.088500 1_546
O2 V3 2.043670 1_446
O2 V1 2.050300 1_456
O2 V2 2.088581 1_555
O3 V1 2.044371 1_456
O3 V3 2.050350 1_456
O3 V0 2.087253 1_555
O4 V0 1.997859 1_545
O4 V2 2.006420 1_555
O5 V2 1.997756 1_555
O5 V0 2.006701 1_555
O6 V3 1.997744 1_555
O6 V1 2.006676 1_555
O7 V1 1.997837 1_555
O7 V3 2.006397 1_545
F0 Li7 2.098456 1_555
F0 Li2 2.122427 1_665
F0 Li3 2.122433 1_655
F0 V0 2.134204 1_655
F0 Li5 2.173320 1_555
F0 Li4 2.178673 1_555
F1 Li6 2.099128 1_555
F1 Li3 2.120989 1_655
F1 Li2 2.123369 1_655
F1 V2 2.133106 1_655
F1 Li4 2.171576 1_555
F1 Li5 2.179935 1_545
F2 Li4 2.098428 1_555
F2 Li2 2.122198 1_555
F2 Li3 2.122273 1_555
F2 V1 2.134158 1_455
F2 Li6 2.173450 1_555
F2 Li7 2.178830 1_555
F3 Li5 2.099127 1_545
F3 Li3 2.120884 1_545
F3 Li2 2.123282 1_555
F3 V3 2.133041 1_445
F3 Li7 2.171629 1_545
F3 Li6 2.179999 1_555
