# generated using pymatgen
data_Sr2YAlW2O7
_symmetry_space_group_name_H-M   'P 1'
_cell_length_a   12.23101556
_cell_length_b   12.23101556
_cell_length_c   12.23101556
_cell_angle_alpha   153.39888243
_cell_angle_beta   152.48367832
_cell_angle_gamma   38.64550225
_symmetry_Int_Tables_number   1
_chemical_formula_structural   Sr2YAlW2O7
_chemical_formula_sum   'Sr4 Y2 Al2 W4 O14'
_cell_volume   377.88817980
_cell_formula_units_Z   2
loop_
 _symmetry_equiv_pos_site_id
 _symmetry_equiv_pos_as_xyz
  1  'x, y, z'
loop_
 _atom_site_type_symbol
 _atom_site_label
 _atom_site_symmetry_multiplicity
 _atom_site_fract_x
 _atom_site_fract_y
 _atom_site_fract_z
 _atom_site_occupancy
  Sr  Sr0  1  0.80693200  0.84022600  0.96966800  1
  Sr  Sr1  1  0.19306800  0.16273700  0.03329500  1
  Sr  Sr2  1  0.62944200  0.66273700  0.96966800  1
  Sr  Sr3  1  0.37055800  0.34022600  0.03329500  1
  Y  Y0  1  0.50000000  0.47868200  0.97868200  1
  Y  Y1  1  0.00000000  0.97868200  0.97868200  1
  Al  Al0  1  0.17344800  0.75751300  0.43096100  1
  Al  Al1  1  0.82655200  0.25751300  0.58406500  1
  W  W0  1  0.94593900  0.42360100  0.47968700  1
  W  W1  1  0.05406100  0.53374800  0.47766300  1
  W  W2  1  0.55608500  0.03374800  0.47968700  1
  W  W3  1  0.44391500  0.92360100  0.47766300  1
  O  O0  1  0.91822400  0.56799000  0.98621400  1
  O  O1  1  0.08177600  0.06799000  0.64976600  1
  O  O2  1  0.73101400  0.71143900  0.59032700  1
  O  O3  1  0.26898600  0.85931300  0.98042500  1
  O  O4  1  0.37888800  0.35931300  0.59032700  1
  O  O5  1  0.62111200  0.21143900  0.98042500  1
  O  O6  1  0.11876100  0.09471200  0.36319400  1
  O  O7  1  0.88123900  0.24443300  0.97595100  1
  O  O8  1  0.76848200  0.74443300  0.36319400  1
  O  O9  1  0.23151800  0.59471200  0.97595100  1
  O  O10  1  0.37784600  0.76948500  0.51396700  1
  O  O11  1  0.62215400  0.13612100  0.39163900  1
  O  O12  1  0.24448200  0.63612100  0.51396700  1
  O  O13  1  0.75551800  0.26948500  0.39163900  1
loop_
_geom_bond_atom_site_label_1
_geom_bond_atom_site_label_2
_geom_bond_distance
_geom_bond_site_symmetry_2
Al0 O10 1.762418 1_555
Al0 O12 1.762418 1_555
Al0 O1 1.826856 1_565
Al0 O0 1.828182 1_454
Al1 O11 1.762418 1_555
Al1 O13 1.762418 1_555
Al1 O0 1.826856 1_555
Al1 O1 1.828182 1_655
O0 Sr2 2.572422 1_555
O0 Sr0 2.572429 1_555
O1 Sr3 2.572422 1_556
O1 Sr1 2.572431 1_556
O2 W0 2.114191 1_555
O2 W3 2.131042 1_555
O2 Y1 2.320373 1_655
O2 Sr0 2.538463 1_555
O3 W1 2.114189 1_555
O3 W2 2.131048 1_566
O3 Y1 2.320373 1_555
O3 Sr1 2.538466 1_566
O4 W2 2.114189 1_555
O4 W1 2.131048 1_555
O4 Y0 2.320373 1_555
O4 Sr2 2.538472 1_555
O5 W3 2.114188 1_545
O5 W0 2.131047 1_556
O5 Y0 2.320373 1_555
O5 Sr3 2.538472 1_556
O6 W0 2.119015 1_455
O6 W3 2.125754 1_545
O6 Y1 2.325765 1_544
O6 Sr0 2.567544 1_444
O7 W1 2.119021 1_656
O7 W2 2.125752 1_555
O7 Y1 2.325765 1_645
O7 Sr1 2.567542 1_656
O8 W2 2.119021 1_565
O8 W1 2.125752 1_655
O8 Y0 2.325765 1_554
O8 Sr2 2.567553 1_554
O9 W3 2.119018 1_556
O9 W0 2.125749 1_455
O9 Y0 2.325765 1_555
O9 Sr3 2.567553 1_556
O10 Sr0 2.437519 1_555
O10 Sr3 2.596088 1_555
O11 Sr1 2.437519 1_555
O11 Sr2 2.596088 1_544
O12 Sr2 2.437514 1_555
O12 Sr1 2.596088 1_555
O13 Sr3 2.437514 1_555
O13 Sr0 2.596093 1_544
