# generated using pymatgen
data_KLaYBiO6
_symmetry_space_group_name_H-M   'P 1'
_cell_length_a   8.46782389
_cell_length_b   8.59203896
_cell_length_c   8.59218570
_cell_angle_alpha   90.00000000
_cell_angle_beta   90.00000000
_cell_angle_gamma   90.00000000
_symmetry_Int_Tables_number   1
_chemical_formula_structural   KLaYBiO6
_chemical_formula_sum   'K4 La4 Y4 Bi4 O24'
_cell_volume   625.13196960
_cell_formula_units_Z   4
loop_
 _symmetry_equiv_pos_site_id
 _symmetry_equiv_pos_as_xyz
  1  'x, y, z'
loop_
 _atom_site_type_symbol
 _atom_site_label
 _atom_site_symmetry_multiplicity
 _atom_site_fract_x
 _atom_site_fract_y
 _atom_site_fract_z
 _atom_site_occupancy
  K  K0  1  0.50000000  0.00000000  0.50000000  1
  K  K1  1  0.50000000  0.50000000  -0.00000000  1
  K  K2  1  -0.00000000  0.50000000  -0.00000000  1
  K  K3  1  -0.00000000  -0.00000000  0.50000000  1
  La  La0  1  -0.00000000  0.50000000  0.50000000  1
  La  La1  1  0.50000000  -0.00000000  -0.00000000  1
  La  La2  1  -0.00000000  0.00000000  -0.00000000  1
  La  La3  1  0.50000000  0.50000000  0.50000000  1
  Y  Y0  1  0.25000000  0.25000000  0.25000000  1
  Y  Y1  1  0.75000000  0.75000000  0.25000000  1
  Y  Y2  1  0.75000000  0.25000000  0.75000000  1
  Y  Y3  1  0.25000000  0.75000000  0.75000000  1
  Bi  Bi0  1  0.75000000  0.75000000  0.75000000  1
  Bi  Bi1  1  0.25000000  0.25000000  0.75000000  1
  Bi  Bi2  1  0.25000000  0.75000000  0.25000000  1
  Bi  Bi3  1  0.75000000  0.25000000  0.25000000  1
  O  O0  1  0.99381506  0.21098705  0.27524128  1
  O  O1  1  0.00618494  0.78901295  0.27524128  1
  O  O2  1  0.00618494  0.21098705  0.72475872  1
  O  O3  1  0.99381506  0.78901295  0.72475872  1
  O  O4  1  0.28229016  0.99424825  0.19108665  1
  O  O5  1  0.28229016  0.00575175  0.80891335  1
  O  O6  1  0.71770984  0.00575175  0.19108665  1
  O  O7  1  0.71770984  0.99424825  0.80891335  1
  O  O8  1  0.20838059  0.25949954  0.99346954  1
  O  O9  1  0.79161941  0.25949954  0.00653046  1
  O  O10  1  0.20838059  0.74050046  0.00653046  1
  O  O11  1  0.79161941  0.74050046  0.99346954  1
  O  O12  1  0.50618494  0.28901295  0.22475872  1
  O  O13  1  0.49381506  0.71098705  0.22475872  1
  O  O14  1  0.49381506  0.28901295  0.77524128  1
  O  O15  1  0.50618494  0.71098705  0.77524128  1
  O  O16  1  0.21770984  0.50575175  0.30891335  1
  O  O17  1  0.21770984  0.49424825  0.69108665  1
  O  O18  1  0.78229016  0.49424825  0.30891335  1
  O  O19  1  0.78229016  0.50575175  0.69108665  1
  O  O20  1  0.29161941  0.24050046  0.50653046  1
  O  O21  1  0.70838059  0.24050046  0.49346954  1
  O  O22  1  0.29161941  0.75949954  0.49346954  1
  O  O23  1  0.70838059  0.75949954  0.50653046  1
loop_
_geom_bond_atom_site_label_1
_geom_bond_atom_site_label_2
_geom_bond_distance
_geom_bond_site_symmetry_2
K0 O21 2.717845 1_555
K0 O23 2.717845 1_545
K0 O20 2.717845 1_555
K0 O22 2.717845 1_545
K0 O5 3.232033 1_555
K0 O6 3.232033 1_555
K0 O7 3.232033 1_545
K0 O4 3.232033 1_545
K1 O14 2.649232 1_554
K1 O12 2.649232 1_555
K1 O13 2.649232 1_555
K1 O15 2.649232 1_554
K1 O9 3.220397 1_555
K1 O8 3.220397 1_554
K1 O11 3.220397 1_554
K1 O10 3.220397 1_555
K2 O9 2.717845 1_455
K2 O10 2.717845 1_555
K2 O11 2.717845 1_454
K2 O8 2.717845 1_554
K2 O19 3.232033 1_454
K2 O17 3.232033 1_554
K2 O16 3.232033 1_555
K2 O18 3.232033 1_455
K3 O3 2.649232 1_445
K3 O1 2.649232 1_545
K3 O0 2.649232 1_455
K3 O2 2.649232 1_555
K3 O22 3.220397 1_545
K3 O21 3.220397 1_455
K3 O23 3.220397 1_445
K3 O20 3.220397 1_555
La0 O18 2.469153 1_455
La0 O19 2.469153 1_455
La0 O16 2.469153 1_555
La0 O17 2.469153 1_555
La1 O5 2.469153 1_554
La1 O4 2.469153 1_545
La1 O6 2.469153 1_555
La1 O7 2.469153 1_544
La2 O11 2.843935 1_444
La2 O10 2.843935 1_545
La2 O9 2.843935 1_455
La2 O8 2.843935 1_554
La2 O6 2.900354 1_455
La2 O7 2.900354 1_444
La2 O5 2.900354 1_554
La2 O4 2.900354 1_545
La2 O3 2.980249 1_444
La2 O1 2.980249 1_545
La2 O2 2.980249 1_554
La2 O0 2.980249 1_455
La3 O23 2.843935 1_555
La3 O21 2.843935 1_555
La3 O22 2.843935 1_555
La3 O20 2.843935 1_555
La3 O16 2.900354 1_555
La3 O17 2.900354 1_555
La3 O18 2.900354 1_555
La3 O19 2.900354 1_555
La3 O14 2.980249 1_555
La3 O12 2.980249 1_555
La3 O15 2.980249 1_555
La3 O13 2.980249 1_555
Bi0 O15 2.102831 1_555
Bi0 O3 2.102831 1_555
Bi0 O11 2.122984 1_555
Bi0 O23 2.122984 1_555
Bi0 O19 2.176023 1_555
Bi0 O7 2.176023 1_555
Bi1 O14 2.102831 1_555
Bi1 O2 2.102831 1_555
Bi1 O8 2.122984 1_555
Bi1 O20 2.122984 1_555
Bi1 O5 2.176023 1_555
Bi1 O17 2.176023 1_555
Bi2 O13 2.102831 1_555
Bi2 O1 2.102831 1_555
Bi2 O10 2.122984 1_555
Bi2 O22 2.122984 1_555
Bi2 O16 2.176023 1_555
Bi2 O4 2.176023 1_555
Bi3 O12 2.102831 1_555
Bi3 O0 2.102831 1_555
Bi3 O9 2.122984 1_555
Bi3 O21 2.122984 1_555
Bi3 O6 2.176023 1_555
Bi3 O18 2.176023 1_555
O0 Y0 2.205761 1_655
O1 Y1 2.205761 1_455
O2 Y2 2.205761 1_455
O3 Y3 2.205761 1_655
O4 Y0 2.271495 1_565
O5 Y3 2.271495 1_545
O6 Y1 2.271495 1_545
O7 Y2 2.271495 1_565
O8 Y0 2.233646 1_556
O9 Y2 2.233646 1_554
O10 Y3 2.233646 1_554
O11 Y1 2.233646 1_556
O12 Y0 2.205761 1_555
O13 Y1 2.205761 1_555
O14 Y2 2.205761 1_555
O15 Y3 2.205761 1_555
O16 Y0 2.271495 1_555
O17 Y3 2.271495 1_555
O18 Y1 2.271495 1_555
O19 Y2 2.271495 1_555
O20 Y0 2.233646 1_555
O21 Y2 2.233646 1_555
O22 Y3 2.233646 1_555
O23 Y1 2.233646 1_555
