# generated using pymatgen
data_BaSr7Co4(CuO5)4
_symmetry_space_group_name_H-M   'P 1'
_cell_length_a   11.09500800
_cell_length_b   11.07346115
_cell_length_c   17.87966413
_cell_angle_alpha   108.23829550
_cell_angle_beta   108.03592150
_cell_angle_gamma   89.79613287
_symmetry_Int_Tables_number   1
_chemical_formula_structural   BaSr7Co4(CuO5)4
_chemical_formula_sum   'Ba4 Sr28 Co16 Cu16 O80'
_cell_volume   1973.20042366
_cell_formula_units_Z   4
loop_
 _symmetry_equiv_pos_site_id
 _symmetry_equiv_pos_as_xyz
  1  'x, y, z'
loop_
 _atom_site_type_symbol
 _atom_site_label
 _atom_site_symmetry_multiplicity
 _atom_site_fract_x
 _atom_site_fract_y
 _atom_site_fract_z
 _atom_site_occupancy
  Ba  Ba0  1  0.30790142  0.06031323  0.11981139  1
  Ba  Ba1  1  0.31004171  0.55809404  0.11865493  1
  Ba  Ba2  1  0.80951630  0.05971824  0.11971504  1
  Ba  Ba3  1  0.05728642  0.81185389  0.11965923  1
  Sr  Sr0  1  0.30841097  0.05773874  0.61210807  1
  Sr  Sr1  1  0.30319229  0.55729780  0.61160359  1
  Sr  Sr2  1  0.80802021  0.05850578  0.61123869  1
  Sr  Sr3  1  0.80500306  0.55614104  0.11159751  1
  Sr  Sr4  1  0.80396624  0.55905870  0.61197947  1
  Sr  Sr5  1  0.19321825  0.44391651  0.38908953  1
  Sr  Sr6  1  0.19607549  0.43849135  0.88579497  1
  Sr  Sr7  1  0.19549721  0.94235949  0.38892075  1
  Sr  Sr8  1  0.19216671  0.94342968  0.88565542  1
  Sr  Sr9  1  0.69321879  0.44361933  0.38863309  1
  Sr  Sr10  1  0.69038331  0.44234674  0.88534773  1
  Sr  Sr11  1  0.69632665  0.94543157  0.38719292  1
  Sr  Sr12  1  0.69346605  0.94051015  0.88626953  1
  Sr  Sr13  1  0.05586604  0.30454869  0.11006900  1
  Sr  Sr14  1  0.05621575  0.30336487  0.61172156  1
  Sr  Sr15  1  0.05569610  0.79977139  0.61124249  1
  Sr  Sr16  1  0.55567535  0.30783274  0.11179739  1
  Sr  Sr17  1  0.56022496  0.30718165  0.61327548  1
  Sr  Sr18  1  0.55924092  0.80196100  0.11108994  1
  Sr  Sr19  1  0.55386900  0.80670995  0.61297083  1
  Sr  Sr20  1  0.44639092  0.19846515  0.39140145  1
  Sr  Sr21  1  0.44295803  0.19655896  0.88596725  1
  Sr  Sr22  1  0.44323477  0.69854212  0.39089042  1
  Sr  Sr23  1  0.44457031  0.69235819  0.88465109  1
  Sr  Sr24  1  0.94579078  0.19666991  0.39007530  1
  Sr  Sr25  1  0.94265952  0.19362887  0.88449597  1
  Sr  Sr26  1  0.94660875  0.69303245  0.39039074  1
  Sr  Sr27  1  0.94054542  0.69441647  0.88546722  1
  Co  Co0  1  0.99450439  0.99676308  0.99054296  1
  Co  Co1  1  0.00097519  0.99948196  0.50081494  1
  Co  Co2  1  0.99598006  0.49627847  0.99490861  1
  Co  Co3  1  0.99973660  0.49885523  0.50157683  1
  Co  Co4  1  0.49694211  0.99811403  0.99553302  1
  Co  Co5  1  0.50154372  0.00058737  0.50138306  1
  Co  Co6  1  0.49937868  0.49826843  0.99608914  1
  Co  Co7  1  0.49992306  0.50055963  0.50004316  1
  Co  Co8  1  0.24803290  0.24818552  0.99604060  1
  Co  Co9  1  0.25128897  0.25180427  0.50170708  1
  Co  Co10  1  0.24706905  0.74611490  0.99211847  1
  Co  Co11  1  0.24959820  0.74976794  0.50136451  1
  Co  Co12  1  0.74822305  0.24969994  0.99754341  1
  Co  Co13  1  0.75252003  0.25173624  0.50155598  1
  Co  Co14  1  0.74692831  0.74712404  0.99526026  1
  Co  Co15  1  0.74972288  0.75037751  0.49893311  1
  Cu  Cu0  1  0.12125463  0.11114399  0.25773815  1
  Cu  Cu1  1  0.11423387  0.09843044  0.74806396  1
  Cu  Cu2  1  0.11026462  0.59562272  0.24962699  1
  Cu  Cu3  1  0.11325038  0.59689793  0.74850745  1
  Cu  Cu4  1  0.61942671  0.10480813  0.25122503  1
  Cu  Cu5  1  0.61375464  0.10024546  0.74920271  1
  Cu  Cu6  1  0.62123165  0.60368317  0.25470182  1
  Cu  Cu7  1  0.61409018  0.60059973  0.74865934  1
  Cu  Cu8  1  0.36588905  0.40033017  0.25316414  1
  Cu  Cu9  1  0.36408555  0.39815446  0.74692138  1
  Cu  Cu10  1  0.37494285  0.89942398  0.25515850  1
  Cu  Cu11  1  0.36417784  0.90026940  0.75002333  1
  Cu  Cu12  1  0.86353607  0.40341829  0.25047381  1
  Cu  Cu13  1  0.86579818  0.40011795  0.74998979  1
  Cu  Cu14  1  0.86544970  0.89302189  0.25271986  1
  Cu  Cu15  1  0.86227576  0.89954411  0.74676281  1
  O  O0  1  0.12053916  0.11436823  0.49759352  1
  O  O1  1  0.12220572  0.12758108  0.99290895  1
  O  O2  1  0.12217530  0.62264993  0.49535747  1
  O  O3  1  0.12930244  0.63016587  0.99230271  1
  O  O4  1  0.63231774  0.13185991  0.49669323  1
  O  O5  1  0.62831550  0.13217880  0.99389112  1
  O  O6  1  0.61297928  0.62078705  0.49679441  1
  O  O7  1  0.62495638  0.62558227  0.99419897  1
  O  O8  1  0.11607969  0.37916447  0.99861653  1
  O  O9  1  0.12346417  0.37611152  0.50437903  1
  O  O10  1  0.11500605  0.88124723  0.99693854  1
  O  O11  1  0.13485584  0.86889986  0.50479302  1
  O  O12  1  0.61843250  0.38316959  0.00123188  1
  O  O13  1  0.62991402  0.37745067  0.50706156  1
  O  O14  1  0.61606906  0.87988240  0.99970535  1
  O  O15  1  0.62393519  0.88405406  0.50413198  1
  O  O16  1  0.38212042  0.11981737  0.49719326  1
  O  O17  1  0.37856306  0.11531404  0.99310112  1
  O  O18  1  0.36508159  0.63087391  0.49739373  1
  O  O19  1  0.38083771  0.61455485  0.99365229  1
  O  O20  1  0.87238029  0.12295223  0.49469289  1
  O  O21  1  0.87933774  0.11511525  0.99327461  1
  O  O22  1  0.87180048  0.61846839  0.49690574  1
  O  O23  1  0.87647837  0.61287011  0.99281805  1
  O  O24  1  0.37362755  0.37063147  0.99948104  1
  O  O25  1  0.38348444  0.38724118  0.50591202  1
  O  O26  1  0.36760801  0.86605555  0.99862124  1
  O  O27  1  0.37647990  0.87843697  0.50628444  1
  O  O28  1  0.86630209  0.36753405  0.99897639  1
  O  O29  1  0.87081482  0.37130504  0.50421751  1
  O  O30  1  0.86926526  0.87166087  0.99781016  1
  O  O31  1  0.88651712  0.88346398  0.50550542  1
  O  O32  1  0.07249685  0.09346250  0.14572122  1
  O  O33  1  0.07644785  0.08361045  0.63656501  1
  O  O34  1  0.06158110  0.57127918  0.13527093  1
  O  O35  1  0.07128223  0.58113794  0.63625345  1
  O  O36  1  0.56939135  0.08706740  0.13816369  1
  O  O37  1  0.57607242  0.08552746  0.63730762  1
  O  O38  1  0.58078555  0.58596650  0.14199898  1
  O  O39  1  0.57467810  0.58753257  0.63744241  1
  O  O40  1  0.43371271  0.41384400  0.36532404  1
  O  O41  1  0.43746984  0.41428213  0.85940805  1
  O  O42  1  0.44158366  0.91232334  0.36620251  1
  O  O43  1  0.43907703  0.91616301  0.86197561  1
  O  O44  1  0.93578312  0.41417311  0.36213611  1
  O  O45  1  0.93878251  0.41552851  0.86204127  1
  O  O46  1  0.93637759  0.90987308  0.36479090  1
  O  O47  1  0.93569666  0.91427983  0.85899756  1
  O  O48  1  0.32560096  0.31338722  0.13882704  1
  O  O49  1  0.32370612  0.30237155  0.63392430  1
  O  O50  1  0.33169476  0.81235575  0.14189127  1
  O  O51  1  0.32400733  0.80181380  0.63900477  1
  O  O52  1  0.82280583  0.31452718  0.13583845  1
  O  O53  1  0.82727914  0.30243979  0.63859990  1
  O  O54  1  0.81599902  0.80202295  0.13859972  1
  O  O55  1  0.82035631  0.80416973  0.63420622  1
  O  O56  1  0.19065739  0.20383578  0.37026645  1
  O  O57  1  0.18672439  0.19341450  0.86025776  1
  O  O58  1  0.18746724  0.69659360  0.36007165  1
  O  O59  1  0.18899316  0.69578642  0.86037341  1
  O  O60  1  0.69314849  0.20063764  0.36224588  1
  O  O61  1  0.68681956  0.19677094  0.86097716  1
  O  O62  1  0.69208508  0.70027812  0.36760354  1
  O  O63  1  0.68517550  0.69413367  0.86133001  1
  O  O64  1  0.47163798  0.04847322  0.26292434  1
  O  O65  1  0.45218632  0.05168474  0.74904322  1
  O  O66  1  0.46854690  0.54690454  0.26209889  1
  O  O67  1  0.45108469  0.55056246  0.74733500  1
  O  O68  1  0.97182447  0.03678264  0.26076174  1
  O  O69  1  0.95237612  0.05030688  0.74762391  1
  O  O70  1  0.94875401  0.55705026  0.25193521  1
  O  O71  1  0.95037266  0.55306049  0.74854694  1
  O  O72  1  0.20196007  0.44625655  0.24989184  1
  O  O73  1  0.20100745  0.44403342  0.74853438  1
  O  O74  1  0.22352116  0.97005737  0.26034668  1
  O  O75  1  0.20151123  0.94578843  0.74831522  1
  O  O76  1  0.70166600  0.44519024  0.25124652  1
  O  O77  1  0.70341424  0.44916967  0.75000270  1
  O  O78  1  0.70622466  0.95157464  0.24868809  1
  O  O79  1  0.70165973  0.94776756  0.74951811  1
loop_
_geom_bond_atom_site_label_1
_geom_bond_atom_site_label_2
_geom_bond_distance
_geom_bond_site_symmetry_2
Ba0 O64 2.682310 1_555
Ba0 O48 2.715476 1_555
Ba0 O26 2.778924 1_544
Ba0 O10 2.780399 1_544
Ba0 O32 2.794083 1_555
Ba0 O36 2.822829 1_555
Ba0 O17 2.843444 1_554
Ba0 O1 2.846082 1_554
Ba0 O50 2.893696 1_545
Ba1 O66 2.662770 1_555
Ba1 O50 2.714498 1_555
Ba1 O24 2.738416 1_554
Ba1 O8 2.769807 1_554
Ba1 O19 2.822831 1_554
Ba1 O48 2.841215 1_555
Ba1 O3 2.841442 1_554
Ba1 O34 2.861108 1_555
Ba1 O38 2.905599 1_555
Ba2 O68 2.693091 1_555
Ba2 O52 2.744787 1_555
Ba2 O30 2.751467 1_544
Ba2 O14 2.771362 1_544
Ba2 O36 2.788248 1_555
Ba2 O32 2.815691 1_655
Ba2 O21 2.836041 1_554
Ba2 O5 2.839807 1_554
Ba2 O54 2.974676 1_545
Ba3 O74 2.681418 1_555
Ba3 O30 2.759677 1_454
Ba3 O34 2.762855 1_555
Ba3 O10 2.782827 1_554
Ba3 O54 2.807109 1_455
Ba3 O23 2.847647 1_454
Ba3 O3 2.849378 1_554
Ba3 O50 2.945631 1_555
Ba3 O32 3.002569 1_565
Co0 O21 1.827387 1_565
Co0 O10 1.849737 1_655
Co0 O1 2.011677 1_665
Co0 O30 2.026065 1_555
Co0 O47 2.121584 1_555
Co0 O32 2.500741 1_666
Co1 O31 1.848031 1_455
Co1 O0 1.867282 1_565
Co1 O20 1.974860 1_465
Co1 O11 2.070282 1_555
Co1 O33 2.189034 1_565
Co1 O46 2.197351 1_455
Co2 O23 1.847577 1_555
Co2 O8 1.857047 1_655
Co2 O28 2.062071 1_555
Co2 O3 2.118928 1_655
Co2 O45 2.141665 1_555
Co2 O34 2.255290 1_656
Co3 O9 1.929029 1_655
Co3 O22 1.938726 1_555
Co3 O2 1.984735 1_655
Co3 O29 2.034973 1_555
Co3 O35 2.169527 1_655
Co3 O44 2.246004 1_555
Co4 O17 1.843663 1_565
Co4 O14 1.858588 1_555
Co4 O26 2.077295 1_555
Co4 O5 2.097266 1_565
Co4 O43 2.153240 1_555
Co4 O36 2.298649 1_566
Co5 O16 1.868797 1_555
Co5 O15 1.870162 1_545
Co5 O27 1.981293 1_545
Co5 O4 2.095703 1_555
Co5 O42 2.184021 1_545
Co5 O37 2.192044 1_555
Co6 O12 1.834084 1_556
Co6 O19 1.837776 1_555
Co6 O7 2.000724 1_555
Co6 O24 2.016934 1_555
Co6 O41 2.202597 1_555
Co6 O38 2.350776 1_556
Co7 O25 1.852694 1_555
Co7 O6 1.858669 1_555
Co7 O13 1.983754 1_555
Co7 O18 2.075172 1_555
Co7 O40 2.173763 1_555
Co7 O39 2.216667 1_555
Co8 O1 1.911476 1_555
Co8 O24 1.921504 1_555
Co8 O8 2.057655 1_555
Co8 O17 2.061206 1_555
Co8 O57 2.187054 1_555
Co8 O48 2.295595 1_556
Co9 O9 1.973653 1_555
Co9 O16 2.057506 1_555
Co9 O25 2.069529 1_555
Co9 O0 2.074991 1_555
Co9 O56 2.121303 1_555
Co9 O49 2.132152 1_555
Co10 O3 1.836591 1_555
Co10 O26 1.840056 1_555
Co10 O19 2.076115 1_555
Co10 O10 2.091742 1_555
Co10 O59 2.124948 1_555
Co10 O50 2.410217 1_556
Co11 O11 1.830439 1_555
Co11 O18 1.834642 1_555
Co11 O2 1.953763 1_555
Co11 O27 1.969450 1_555
Co11 O51 2.219814 1_555
Co11 O58 2.279773 1_555
Co12 O5 1.836586 1_555
Co12 O28 1.841202 1_555
Co12 O12 2.060358 1_556
Co12 O21 2.079713 1_555
Co12 O61 2.201543 1_555
Co12 O52 2.222682 1_556
Co13 O29 1.847216 1_555
Co13 O4 1.848469 1_555
Co13 O13 1.944669 1_555
Co13 O20 1.948152 1_555
Co13 O53 2.211528 1_555
Co13 O60 2.250047 1_555
Co14 O7 1.903737 1_555
Co14 O30 1.918817 1_555
Co14 O14 2.063636 1_555
Co14 O23 2.064238 1_555
Co14 O63 2.157631 1_555
Co14 O54 2.310199 1_556
Co15 O22 1.988128 1_555
Co15 O15 2.031517 1_555
Co15 O31 2.070332 1_555
Co15 O6 2.075514 1_555
Co15 O62 2.118424 1_555
Co15 O55 2.178671 1_555
Cu0 O32 1.851128 1_555
Cu0 O56 1.856913 1_555
Cu0 O68 1.876907 1_455
Cu0 O74 1.931492 1_545
Cu1 O33 1.858806 1_555
Cu1 O57 1.861033 1_555
Cu1 O69 1.872009 1_455
Cu1 O75 1.945546 1_545
Cu2 O70 1.859448 1_455
Cu2 O58 1.860302 1_555
Cu2 O34 1.875411 1_555
Cu2 O72 1.939255 1_555
Cu3 O35 1.864995 1_555
Cu3 O59 1.870993 1_555
Cu3 O71 1.873128 1_455
Cu3 O73 1.949841 1_555
Cu4 O60 1.848695 1_555
Cu4 O64 1.850117 1_555
Cu4 O36 1.868295 1_555
Cu4 O78 1.943176 1_545
Cu5 O61 1.859970 1_555
Cu5 O37 1.866116 1_555
Cu5 O65 1.872251 1_555
Cu5 O79 1.947558 1_545
Cu6 O66 1.865726 1_555
Cu6 O38 1.869137 1_555
Cu6 O62 1.873188 1_555
Cu6 O76 1.958471 1_555
Cu7 O39 1.856952 1_555
Cu7 O63 1.862525 1_555
Cu7 O67 1.884361 1_555
Cu7 O77 1.947626 1_555
Cu8 O40 1.867812 1_555
Cu8 O48 1.873810 1_555
Cu8 O72 1.875158 1_555
Cu8 O66 1.922345 1_555
Cu9 O41 1.871373 1_555
Cu9 O49 1.873255 1_555
Cu9 O73 1.883957 1_555
Cu9 O67 1.944071 1_555
Cu10 O42 1.850199 1_555
Cu10 O50 1.854869 1_555
Cu10 O74 1.866707 1_555
Cu10 O64 1.916059 1_565
Cu11 O51 1.851603 1_555
Cu11 O43 1.865137 1_555
Cu11 O75 1.865822 1_555
Cu11 O65 1.950822 1_565
Cu12 O76 1.856082 1_555
Cu12 O44 1.871775 1_555
Cu12 O52 1.881733 1_555
Cu12 O70 1.938343 1_555
Cu13 O53 1.856593 1_555
Cu13 O45 1.865750 1_555
Cu13 O77 1.879946 1_555
Cu13 O71 1.950157 1_555
Cu14 O46 1.860066 1_555
Cu14 O78 1.867814 1_555
Cu14 O54 1.871767 1_555
Cu14 O68 1.926879 1_565
Cu15 O55 1.864211 1_555
Cu15 O79 1.869321 1_555
Cu15 O47 1.871063 1_555
Cu15 O69 1.942405 1_565
O0 Sr7 2.601504 1_545
O0 Sr24 2.657318 1_455
O0 Sr0 2.661185 1_555
O0 Sr14 2.696529 1_555
O1 Sr25 2.597409 1_455
O1 Sr8 2.626971 1_545
O1 Sr13 2.673024 1_556
O2 Sr26 2.562239 1_455
O2 Sr5 2.590571 1_555
O2 Sr15 2.660140 1_555
O2 Sr1 2.687663 1_555
O3 Sr27 2.627516 1_455
O3 Sr6 2.648156 1_555
O4 Sr20 2.607107 1_555
O4 Sr11 2.630565 1_545
O4 Sr2 2.685568 1_555
O4 Sr17 2.691128 1_555
O5 Sr21 2.618100 1_555
O5 Sr12 2.650270 1_545
O5 Sr16 2.711345 1_556
O6 Sr22 2.583489 1_555
O6 Sr9 2.657107 1_555
O6 Sr19 2.672198 1_555
O6 Sr4 2.714288 1_555
O7 Sr10 2.612338 1_555
O7 Sr23 2.618656 1_555
O7 Sr18 2.663206 1_556
O7 Sr3 2.718580 1_556
O8 Sr13 2.637974 1_556
O8 Sr25 2.656996 1_455
O8 Sr6 2.689013 1_555
O9 Sr14 2.597669 1_555
O9 Sr1 2.632646 1_555
O9 Sr24 2.646192 1_455
O9 Sr5 2.715254 1_555
O10 Sr27 2.656660 1_455
O10 Sr8 2.661299 1_555
O11 Sr15 2.632808 1_555
O11 Sr0 2.644154 1_565
O11 Sr26 2.688663 1_455
O11 Sr7 2.707118 1_555
O12 Sr16 2.641512 1_555
O12 Sr3 2.642075 1_555
O12 Sr21 2.680706 1_554
O12 Sr10 2.690273 1_554
O13 Sr17 2.578422 1_555
O13 Sr4 2.591432 1_555
O13 Sr20 2.684511 1_555
O13 Sr9 2.722054 1_555
O14 Sr18 2.639175 1_556
O14 Sr23 2.663616 1_555
O14 Sr12 2.690090 1_555
O15 Sr2 2.619372 1_565
O15 Sr19 2.666370 1_555
O15 Sr22 2.692805 1_555
O15 Sr11 2.722477 1_555
O16 Sr20 2.591444 1_555
O16 Sr7 2.657469 1_545
O16 Sr0 2.700272 1_555
O16 Sr17 2.703952 1_555
O17 Sr8 2.620946 1_545
O17 Sr21 2.630547 1_555
O17 Sr16 2.743294 1_556
O18 Sr22 2.619110 1_555
O18 Sr5 2.627557 1_555
O18 Sr1 2.686794 1_555
O18 Sr19 2.697979 1_555
O19 Sr23 2.636135 1_555
O19 Sr6 2.636164 1_555
O19 Sr18 2.713224 1_556
O20 Sr11 2.590659 1_545
O20 Sr24 2.594713 1_555
O20 Sr2 2.686499 1_555
O20 Sr14 2.701722 1_655
O21 Sr12 2.630848 1_545
O21 Sr25 2.634599 1_555
O21 Sr13 2.711416 1_656
O22 Sr9 2.593883 1_555
O22 Sr26 2.639232 1_555
O22 Sr4 2.653695 1_555
O22 Sr15 2.692597 1_655
O23 Sr10 2.611674 1_555
O23 Sr27 2.634211 1_555
O23 Sr3 2.723096 1_556
O24 Sr21 2.633230 1_555
O24 Sr16 2.635997 1_556
O24 Sr6 2.653884 1_555
O25 Sr1 2.591109 1_555
O25 Sr17 2.652943 1_555
O25 Sr20 2.691528 1_555
O25 Sr5 2.700702 1_555
O26 Sr23 2.682085 1_555
O26 Sr8 2.690620 1_555
O26 Sr18 2.702439 1_556
O27 Sr0 2.572011 1_565
O27 Sr19 2.599139 1_555
O27 Sr22 2.671477 1_555
O27 Sr7 2.692013 1_555
O28 Sr3 2.661716 1_556
O28 Sr13 2.669304 1_656
O28 Sr10 2.685144 1_555
O28 Sr25 2.685284 1_555
O29 Sr14 2.633964 1_655
O29 Sr4 2.636576 1_555
O29 Sr24 2.676953 1_555
O29 Sr9 2.701439 1_555
O30 Sr12 2.625902 1_555
O30 Sr27 2.649017 1_555
O31 Sr2 2.608322 1_565
O31 Sr15 2.615962 1_655
O31 Sr26 2.692679 1_555
O31 Sr11 2.744577 1_555
O32 Sr13 2.600161 1_555
O33 Sr14 2.603900 1_555
O33 Sr0 2.740455 1_555
O33 Sr2 2.871245 1_455
O33 Sr15 3.030975 1_545
O34 Sr3 2.742993 1_455
O34 Sr13 2.842809 1_555
O35 Sr15 2.591925 1_555
O35 Sr1 2.740264 1_555
O35 Sr4 2.861154 1_455
O35 Sr14 2.965689 1_555
O36 Sr16 2.626012 1_555
O36 Sr18 3.037524 1_545
O37 Sr17 2.617310 1_555
O37 Sr2 2.753086 1_555
O37 Sr0 2.864965 1_555
O37 Sr19 2.980040 1_545
O38 Sr18 2.612432 1_555
O38 Sr3 2.704125 1_555
O38 Sr16 2.954140 1_555
O39 Sr19 2.594899 1_555
O39 Sr4 2.720295 1_555
O39 Sr1 2.906399 1_555
O39 Sr17 2.995171 1_555
O40 Sr20 2.564841 1_555
O40 Sr9 2.783888 1_555
O40 Sr5 2.831678 1_555
O40 Sr22 3.037990 1_555
O41 Sr21 2.596067 1_555
O41 Sr10 2.701084 1_555
O41 Sr6 2.857579 1_555
O41 Sr23 2.966744 1_555
O42 Sr22 2.539299 1_555
O42 Sr11 2.743733 1_555
O42 Sr7 2.885490 1_555
O42 Sr20 3.055891 1_565
O43 Sr23 2.631080 1_555
O43 Sr12 2.720392 1_555
O43 Sr8 2.899558 1_555
O43 Sr21 2.997068 1_565
O44 Sr24 2.603778 1_555
O44 Sr5 2.748427 1_655
O44 Sr9 2.874054 1_555
O44 Sr26 2.965403 1_555
O45 Sr25 2.609006 1_555
O45 Sr6 2.753358 1_655
O45 Sr10 2.912936 1_555
O45 Sr27 2.983091 1_555
O46 Sr26 2.577182 1_555
O46 Sr7 2.779020 1_655
O46 Sr11 2.821950 1_555
O46 Sr24 3.061968 1_565
O47 Sr27 2.618955 1_555
O47 Sr8 2.738402 1_655
O47 Sr12 2.874429 1_555
O47 Sr25 2.979906 1_565
O48 Sr16 2.738192 1_555
O48 Sr13 2.871933 1_555
O49 Sr0 2.611539 1_555
O49 Sr17 2.763817 1_555
O49 Sr14 2.870288 1_555
O49 Sr1 2.970570 1_555
O50 Sr18 2.740342 1_555
O51 Sr1 2.593978 1_555
O51 Sr19 2.734155 1_555
O51 Sr15 2.861357 1_555
O51 Sr0 3.015075 1_565
O52 Sr13 2.759481 1_655
O52 Sr3 2.838002 1_555
O52 Sr16 2.857830 1_555
O53 Sr2 2.587211 1_555
O53 Sr14 2.728017 1_655
O53 Sr17 2.858317 1_555
O53 Sr4 3.022186 1_555
O54 Sr3 2.608542 1_555
O54 Sr18 2.736669 1_555
O55 Sr4 2.615650 1_555
O55 Sr15 2.763913 1_655
O55 Sr19 2.863189 1_555
O55 Sr2 2.967449 1_565
O56 Sr5 2.572236 1_555
O56 Sr20 2.746982 1_555
O56 Sr24 2.850909 1_455
O56 Sr7 3.014968 1_545
O57 Sr6 2.604087 1_555
O57 Sr21 2.734254 1_555
O57 Sr25 2.871678 1_455
O57 Sr8 2.939632 1_545
O58 Sr7 2.602891 1_555
O58 Sr22 2.716911 1_555
O58 Sr26 2.889278 1_455
O58 Sr5 2.998169 1_555
O59 Sr8 2.634488 1_555
O59 Sr23 2.734597 1_555
O59 Sr27 2.927522 1_455
O59 Sr6 3.019487 1_555
O60 Sr9 2.582127 1_555
O60 Sr24 2.693668 1_555
O60 Sr20 2.942756 1_555
O60 Sr11 2.994182 1_545
O61 Sr10 2.614350 1_555
O61 Sr25 2.739473 1_555
O61 Sr21 2.875668 1_555
O61 Sr12 3.007250 1_545
O62 Sr11 2.624884 1_555
O62 Sr26 2.730107 1_555
O62 Sr22 2.917886 1_555
O62 Sr9 2.980737 1_555
O63 Sr12 2.620209 1_555
O63 Sr27 2.730581 1_555
O63 Sr23 2.827605 1_555
O63 Sr10 2.948640 1_555
O64 Sr20 2.474045 1_555
O65 Sr0 2.495415 1_555
O65 Sr21 2.504652 1_555
O66 Sr22 2.485533 1_555
O67 Sr23 2.488887 1_555
O67 Sr1 2.496822 1_555
O68 Sr24 2.532080 1_555
O68 Sr7 3.234581 1_645
O69 Sr2 2.497787 1_555
O69 Sr25 2.500076 1_555
O70 Sr26 2.469660 1_555
O70 Sr3 2.519145 1_555
O71 Sr27 2.494126 1_555
O71 Sr4 2.499996 1_555
O72 Sr13 2.528430 1_555
O72 Sr5 2.528657 1_555
O73 Sr14 2.488020 1_555
O73 Sr6 2.491422 1_555
O74 Sr7 2.521931 1_555
O75 Sr8 2.497839 1_555
O75 Sr15 2.514199 1_555
O76 Sr9 2.492475 1_555
O76 Sr16 2.509316 1_555
O77 Sr17 2.485804 1_555
O77 Sr10 2.492752 1_555
O78 Sr11 2.534412 1_555
O78 Sr18 2.537802 1_555
O79 Sr19 2.498275 1_555
O79 Sr12 2.500755 1_555
