# generated using pymatgen
data_Nb10(SnGe)3
_symmetry_space_group_name_H-M   'P 1'
_cell_length_a   10.56328620
_cell_length_b   7.94967848
_cell_length_c   7.88231144
_cell_angle_alpha   83.70326660
_cell_angle_beta   48.42054663
_cell_angle_gamma   47.87618677
_symmetry_Int_Tables_number   1
_chemical_formula_structural   Nb10(SnGe)3
_chemical_formula_sum   'Nb10 Sn3 Ge3'
_cell_volume   292.50876462
_cell_formula_units_Z   1
loop_
 _symmetry_equiv_pos_site_id
 _symmetry_equiv_pos_as_xyz
  1  'x, y, z'
loop_
 _atom_site_type_symbol
 _atom_site_label
 _atom_site_symmetry_multiplicity
 _atom_site_fract_x
 _atom_site_fract_y
 _atom_site_fract_z
 _atom_site_occupancy
  Nb  Nb0  1  0.06916800  0.28196300  0.71803700  1
  Nb  Nb1  1  0.93630300  0.72281900  0.27718100  1
  Nb  Nb2  1  0.57395400  0.22054300  0.77945700  1
  Nb  Nb3  1  0.42042600  0.78448100  0.21551900  1
  Nb  Nb4  1  0.77945700  0.42604600  0.57395400  1
  Nb  Nb5  1  0.21551900  0.57957400  0.42042600  1
  Nb  Nb6  1  0.71803700  0.93083200  0.06916800  1
  Nb  Nb7  1  0.27718100  0.06369700  0.93630300  1
  Nb  Nb8  1  0.75683300  0.24316700  0.25475000  1
  Nb  Nb9  1  0.25475000  0.74525000  0.75683300  1
  Sn  Sn0  1  0.83372400  0.16627600  0.83372400  1
  Sn  Sn1  1  0.66835300  0.67064300  0.32935700  1
  Sn  Sn2  1  0.32935700  0.33164700  0.66835300  1
  Ge  Ge0  1  0.74943400  0.75056600  0.74943400  1
  Ge  Ge1  1  0.24943400  0.25056600  0.24943400  1
  Ge  Ge2  1  0.16807100  0.83192900  0.16807100  1
loop_
_geom_bond_atom_site_label_1
_geom_bond_atom_site_label_2
_geom_bond_distance
_geom_bond_site_symmetry_2
Nb0 Sn0 2.781537 1_455
Nb0 Sn2 2.803034 1_555
Nb0 Sn1 3.054426 1_456
Nb0 Sn1 3.054426 1_545
Nb1 Sn1 2.888760 1_555
Nb1 Sn2 3.073359 1_565
Nb1 Sn2 3.073359 1_654
Nb2 Sn0 2.797893 1_555
Nb2 Sn2 2.827574 1_555
Nb3 Sn1 2.871336 1_555
Nb3 Sn0 3.048335 1_465
Nb3 Sn0 3.048335 1_554
Nb4 Sn0 2.797893 1_555
Nb4 Sn1 2.827574 1_555
Nb5 Sn2 2.871336 1_555
Nb5 Sn0 3.048335 1_465
Nb5 Sn0 3.048335 1_554
Nb6 Sn0 2.781537 1_564
Nb6 Sn1 2.803034 1_555
Nb6 Sn2 3.054426 1_654
Nb6 Sn2 3.054426 1_565
Nb7 Sn2 2.888760 1_555
Nb7 Sn1 3.073359 1_545
Nb7 Sn1 3.073359 1_456
Nb8 Nb9 2.610644 1_644
Nb8 Nb9 2.632486 1_555
Nb8 Sn2 2.866335 1_555
Nb8 Sn1 2.866335 1_555
Nb8 Sn0 2.871939 1_554
Nb9 Sn2 2.866335 1_555
Nb9 Sn1 2.866335 1_555
Nb9 Sn0 2.871939 1_465
Ge0 Ge1 2.621565 1_655
Ge0 Ge1 2.621565 1_566
Ge0 Nb6 2.749635 1_556
Ge0 Nb0 2.749635 1_655
Ge0 Nb7 2.764912 1_565
Ge0 Nb1 2.764912 1_555
Ge0 Nb5 2.767890 1_655
Ge0 Nb3 2.767890 1_556
Ge0 Nb2 2.787876 1_565
Ge0 Nb4 2.787876 1_555
Ge1 Nb0 2.749635 1_555
Ge1 Nb6 2.749635 1_545
Ge1 Nb1 2.764912 1_455
Ge1 Nb7 2.764912 1_554
Ge1 Nb3 2.767890 1_545
Ge1 Nb5 2.767890 1_555
Ge1 Nb2 2.787876 1_554
Ge1 Nb4 2.787876 1_455
Ge2 Nb3 2.707695 1_555
Ge2 Nb5 2.707695 1_555
Ge2 Nb7 2.715912 1_564
Ge2 Nb1 2.715912 1_455
Ge2 Nb8 2.743116 1_465
Ge2 Nb9 2.743116 1_554
Ge2 Nb4 3.044300 1_465
Ge2 Nb4 3.044300 1_554
Ge2 Nb2 3.044300 1_465
Ge2 Nb2 3.044300 1_554
