# generated using pymatgen
data_HfAl2
_symmetry_space_group_name_H-M   'P 1'
_cell_length_a   5.22138211
_cell_length_b   5.22138152
_cell_length_c   8.65582195
_cell_angle_alpha   90.00000000
_cell_angle_beta   90.00000000
_cell_angle_gamma   119.99999734
_symmetry_Int_Tables_number   1
_chemical_formula_structural   HfAl2
_chemical_formula_sum   'Hf4 Al8'
_cell_volume   204.36657296
_cell_formula_units_Z   4
loop_
 _symmetry_equiv_pos_site_id
 _symmetry_equiv_pos_as_xyz
  1  'x, y, z'
loop_
 _atom_site_type_symbol
 _atom_site_label
 _atom_site_symmetry_multiplicity
 _atom_site_fract_x
 _atom_site_fract_y
 _atom_site_fract_z
 _atom_site_occupancy
  Hf  Hf0  1  0.33333300  0.66666700  0.43522079  1
  Hf  Hf1  1  0.66666700  0.33333300  0.93524467  1
  Hf  Hf2  1  0.66666700  0.33333300  0.56477921  1
  Hf  Hf3  1  0.33333300  0.66666700  0.06475533  1
  Al  Al0  1  0.17069850  0.34139800  0.75001385  1
  Al  Al1  1  0.82930150  0.17069850  0.24998615  1
  Al  Al2  1  0.34139800  0.17069850  0.24998615  1
  Al  Al3  1  0.65860200  0.82930150  0.75001385  1
  Al  Al4  1  -0.00000000  0.00000000  -0.00000000  1
  Al  Al5  1  0.00000000  -0.00000000  0.50000000  1
  Al  Al6  1  0.82930150  0.65860200  0.24998615  1
  Al  Al7  1  0.17069850  0.82930150  0.75001385  1
loop_
_geom_bond_atom_site_label_1
_geom_bond_atom_site_label_2
_geom_bond_distance
_geom_bond_site_symmetry_2
Hf0 Hf3 3.206683 1_555
Hf0 Hf2 3.216396 1_565
Hf0 Hf2 3.216397 1_455
Hf0 Hf2 3.216405 1_555
Hf1 Hf2 3.206683 1_555
Hf1 Hf3 3.216252 1_546
Hf1 Hf3 3.216253 1_656
Hf1 Hf3 3.216261 1_556
Al0 Al7 2.547530 1_555
Al0 Al3 2.547531 1_555
Al0 Al4 2.658072 1_556
Al0 Al5 2.658268 1_555
Al0 Al7 2.673851 1_545
Al0 Al3 2.673851 1_445
Al0 Hf1 3.063929 1_455
Al0 Hf1 3.063938 1_555
Al0 Hf2 3.063946 1_455
Al0 Hf2 3.063955 1_555
Al0 Hf3 3.096024 1_556
Al0 Hf0 3.096417 1_555
Al1 Al6 2.547530 1_555
Al1 Al2 2.547531 1_555
Al1 Al4 2.658070 1_655
Al1 Al5 2.658265 1_655
Al1 Al6 2.673851 1_545
Al1 Al2 2.673852 1_655
Al1 Hf3 3.063933 1_545
Al1 Hf3 3.063933 1_655
Al1 Hf0 3.063951 1_545
Al1 Hf0 3.063951 1_655
Al1 Hf1 3.096024 1_554
Al1 Hf2 3.096417 1_555
Al2 Al6 2.547531 1_555
Al2 Al4 2.658073 1_555
Al2 Al5 2.658268 1_555
Al2 Al6 2.673851 1_445
Al2 Hf3 3.063929 1_545
Al2 Hf3 3.063938 1_555
Al2 Hf0 3.063946 1_545
Al2 Hf0 3.063955 1_555
Al2 Hf1 3.096024 1_554
Al2 Hf2 3.096417 1_555
Al3 Al7 2.547531 1_555
Al3 Al4 2.658073 1_666
Al3 Al5 2.658268 1_665
Al3 Al7 2.673852 1_655
Al3 Hf1 3.063929 1_565
Al3 Hf1 3.063938 1_555
Al3 Hf2 3.063946 1_565
Al3 Hf2 3.063955 1_555
Al3 Hf3 3.096024 1_556
Al3 Hf0 3.096417 1_555
Al4 Al7 2.658070 1_544
Al4 Al6 2.658072 1_445
Al4 Hf3 3.066229 1_545
Al4 Hf1 3.066229 1_454
Al4 Hf1 3.066234 1_444
Al4 Hf3 3.066234 1_555
Al4 Hf3 3.066234 1_445
Al4 Hf1 3.066234 1_554
Al5 Al7 2.658265 1_545
Al5 Al6 2.658268 1_445
Al5 Hf2 3.066267 1_455
Al5 Hf0 3.066267 1_545
Al5 Hf2 3.066272 1_445
Al5 Hf0 3.066272 1_555
Al5 Hf2 3.066272 1_555
Al5 Hf0 3.066272 1_445
Al6 Hf3 3.063929 1_655
Al6 Hf3 3.063938 1_555
Al6 Hf0 3.063946 1_655
Al6 Hf0 3.063955 1_555
Al6 Hf1 3.096024 1_554
Al6 Hf2 3.096417 1_555
Al7 Hf1 3.063933 1_565
Al7 Hf1 3.063933 1_455
Al7 Hf2 3.063951 1_565
Al7 Hf2 3.063951 1_455
Al7 Hf3 3.096024 1_556
Al7 Hf0 3.096417 1_555
