# generated using pymatgen
data_AsPRu
_symmetry_space_group_name_H-M   'P 1'
_cell_length_a   2.96155600
_cell_length_b   5.32735771
_cell_length_c   6.10365844
_cell_angle_alpha   91.92363287
_cell_angle_beta   90.00000000
_cell_angle_gamma   90.00000000
_symmetry_Int_Tables_number   1
_chemical_formula_structural   AsPRu
_chemical_formula_sum   'As2 P2 Ru2'
_cell_volume   96.24478718
_cell_formula_units_Z   2
loop_
 _symmetry_equiv_pos_site_id
 _symmetry_equiv_pos_as_xyz
  1  'x, y, z'
loop_
 _atom_site_type_symbol
 _atom_site_label
 _atom_site_symmetry_multiplicity
 _atom_site_fract_x
 _atom_site_fract_y
 _atom_site_fract_z
 _atom_site_occupancy
  As  As0  1  0.50000000  0.67125400  0.13672400  1
  As  As1  1  0.50000000  0.32874600  0.86327600  1
  P  P0  1  0.00000000  0.16338300  0.37315200  1
  P  P1  1  0.00000000  0.83661700  0.62684800  1
  Ru  Ru0  1  0.50000000  0.50000000  0.50000000  1
  Ru  Ru1  1  0.00000000  0.00000000  0.00000000  1
loop_
_geom_bond_atom_site_label_1
_geom_bond_atom_site_label_2
_geom_bond_distance
_geom_bond_site_symmetry_2
As0 Ru0 2.425826 1_555
As0 As1 2.431175 1_554
As0 Ru1 2.460581 1_565
As0 Ru1 2.460581 1_665
As1 Ru0 2.425826 1_555
As1 Ru1 2.460581 1_656
As1 Ru1 2.460581 1_556
P0 P1 2.368358 1_545
P0 Ru1 2.410795 1_555
P0 Ru0 2.432033 1_555
P0 Ru0 2.432033 1_455
P1 Ru1 2.410795 1_566
P1 Ru0 2.432033 1_555
P1 Ru0 2.432033 1_455
