# generated using pymatgen
data_K3Mn5(Si2O5)6
_symmetry_space_group_name_H-M   'P 1'
_cell_length_a   10.63101743
_cell_length_b   10.63101743
_cell_length_c   14.49608300
_cell_angle_alpha   90.00000000
_cell_angle_beta   90.00000000
_cell_angle_gamma   119.99999646
_symmetry_Int_Tables_number   1
_chemical_formula_structural   K3Mn5(Si2O5)6
_chemical_formula_sum   'K6 Mn10 Si24 O60'
_cell_volume   1418.83199933
_cell_formula_units_Z   2
loop_
 _symmetry_equiv_pos_site_id
 _symmetry_equiv_pos_as_xyz
  1  'x, y, z'
loop_
 _atom_site_type_symbol
 _atom_site_label
 _atom_site_symmetry_multiplicity
 _atom_site_fract_x
 _atom_site_fract_y
 _atom_site_fract_z
 _atom_site_occupancy
  K  K0  1  0.33333300  0.66666700  0.50000000  1
  K  K1  1  0.66666700  0.33333300  0.50000000  1
  K  K2  1  0.66666700  0.33333300  0.00000000  1
  K  K3  1  0.33333300  0.66666700  0.00000000  1
  K  K4  1  0.00000000  0.00000000  0.75000000  1
  K  K5  1  0.00000000  0.00000000  0.25000000  1
  Mn  Mn0  1  0.50000000  0.00000000  0.75000000  1
  Mn  Mn1  1  0.50000000  0.00000000  0.25000000  1
  Mn  Mn2  1  0.00000000  0.50000000  0.75000000  1
  Mn  Mn3  1  0.00000000  0.50000000  0.25000000  1
  Mn  Mn4  1  0.50000000  0.50000000  0.75000000  1
  Mn  Mn5  1  0.50000000  0.50000000  0.25000000  1
  Mn  Mn6  1  0.33333300  0.66666700  0.75000000  1
  Mn  Mn7  1  0.66666700  0.33333300  0.25000000  1
  Mn  Mn8  1  0.66666700  0.33333300  0.75000000  1
  Mn  Mn9  1  0.33333300  0.66666700  0.25000000  1
  Si  Si0  1  0.10998200  0.33844300  0.61195800  1
  Si  Si1  1  0.89001800  0.66155700  0.38804200  1
  Si  Si2  1  0.66155700  0.77153800  0.61195800  1
  Si  Si3  1  0.89001800  0.66155700  0.61195800  1
  Si  Si4  1  0.33844300  0.10998200  0.88804200  1
  Si  Si5  1  0.33844300  0.22846200  0.38804200  1
  Si  Si6  1  0.10998200  0.33844300  0.38804200  1
  Si  Si7  1  0.66155700  0.89001800  0.11195800  1
  Si  Si8  1  0.22846200  0.89001800  0.61195800  1
  Si  Si9  1  0.33844300  0.22846200  0.61195800  1
  Si  Si10  1  0.77153800  0.66155700  0.88804200  1
  Si  Si11  1  0.77153800  0.10998200  0.38804200  1
  Si  Si12  1  0.66155700  0.77153800  0.38804200  1
  Si  Si13  1  0.22846200  0.33844300  0.11195800  1
  Si  Si14  1  0.66155700  0.89001800  0.88804200  1
  Si  Si15  1  0.33844300  0.10998200  0.11195800  1
  Si  Si16  1  0.77153800  0.10998200  0.61195800  1
  Si  Si17  1  0.22846200  0.33844300  0.88804200  1
  Si  Si18  1  0.22846200  0.89001800  0.38804200  1
  Si  Si19  1  0.77153800  0.66155700  0.11195800  1
  Si  Si20  1  0.89001800  0.22846200  0.88804200  1
  Si  Si21  1  0.10998200  0.77153800  0.11195800  1
  Si  Si22  1  0.10998200  0.77153800  0.88804200  1
  Si  Si23  1  0.89001800  0.22846200  0.11195800  1
  O  O0  1  0.12158400  0.36513800  0.50000000  1
  O  O1  1  0.87841600  0.63486200  0.50000000  1
  O  O2  1  0.63486200  0.75644600  0.50000000  1
  O  O3  1  0.36513800  0.12158400  0.00000000  1
  O  O4  1  0.36513800  0.24355400  0.50000000  1
  O  O5  1  0.63486200  0.87841600  0.00000000  1
  O  O6  1  0.24355400  0.87841600  0.50000000  1
  O  O7  1  0.75644600  0.63486200  0.00000000  1
  O  O8  1  0.75644600  0.12158400  0.50000000  1
  O  O9  1  0.24355400  0.36513800  0.00000000  1
  O  O10  1  0.87841600  0.24355400  0.00000000  1
  O  O11  1  0.12158400  0.75644600  0.00000000  1
  O  O12  1  0.26954200  0.05636400  0.64001400  1
  O  O13  1  0.73045800  0.94363600  0.35998600  1
  O  O14  1  0.94363600  0.21317800  0.64001400  1
  O  O15  1  0.73045800  0.94363600  0.64001400  1
  O  O16  1  0.05636400  0.26954200  0.85998600  1
  O  O17  1  0.05636400  0.78682200  0.35998600  1
  O  O18  1  0.26954200  0.05636400  0.35998600  1
  O  O19  1  0.94363600  0.73045800  0.14001400  1
  O  O20  1  0.78682200  0.73045800  0.64001400  1
  O  O21  1  0.05636400  0.78682200  0.64001400  1
  O  O22  1  0.21317800  0.94363600  0.85998600  1
  O  O23  1  0.21317800  0.26954200  0.35998600  1
  O  O24  1  0.94363600  0.21317800  0.35998600  1
  O  O25  1  0.78682200  0.05636400  0.14001400  1
  O  O26  1  0.94363600  0.73045800  0.85998600  1
  O  O27  1  0.05636400  0.26954200  0.14001400  1
  O  O28  1  0.21317800  0.26954200  0.64001400  1
  O  O29  1  0.78682200  0.05636400  0.85998600  1
  O  O30  1  0.78682200  0.73045800  0.35998600  1
  O  O31  1  0.21317800  0.94363600  0.14001400  1
  O  O32  1  0.73045800  0.78682200  0.85998600  1
  O  O33  1  0.26954200  0.21317800  0.14001400  1
  O  O34  1  0.26954200  0.21317800  0.85998600  1
  O  O35  1  0.73045800  0.78682200  0.14001400  1
  O  O36  1  0.15562800  0.48918700  0.66459900  1
  O  O37  1  0.84437200  0.51081300  0.33540100  1
  O  O38  1  0.51081300  0.66644100  0.66459900  1
  O  O39  1  0.84437200  0.51081300  0.66459900  1
  O  O40  1  0.48918700  0.15562800  0.83540100  1
  O  O41  1  0.48918700  0.33355900  0.33540100  1
  O  O42  1  0.15562800  0.48918700  0.33540100  1
  O  O43  1  0.51081300  0.84437200  0.16459900  1
  O  O44  1  0.33355900  0.84437200  0.66459900  1
  O  O45  1  0.48918700  0.33355900  0.66459900  1
  O  O46  1  0.66644100  0.51081300  0.83540100  1
  O  O47  1  0.66644100  0.15562800  0.33540100  1
  O  O48  1  0.51081300  0.66644100  0.33540100  1
  O  O49  1  0.33355900  0.48918700  0.16459900  1
  O  O50  1  0.51081300  0.84437200  0.83540100  1
  O  O51  1  0.48918700  0.15562800  0.16459900  1
  O  O52  1  0.66644100  0.15562800  0.66459900  1
  O  O53  1  0.33355900  0.48918700  0.83540100  1
  O  O54  1  0.33355900  0.84437200  0.33540100  1
  O  O55  1  0.66644100  0.51081300  0.16459900  1
  O  O56  1  0.84437200  0.33355900  0.83540100  1
  O  O57  1  0.15562800  0.66644100  0.16459900  1
  O  O58  1  0.15562800  0.66644100  0.83540100  1
  O  O59  1  0.84437200  0.33355900  0.16459900  1
loop_
_geom_bond_atom_site_label_1
_geom_bond_atom_site_label_2
_geom_bond_distance
_geom_bond_site_symmetry_2
K0 O6 2.850789 1_555
K0 O0 2.850796 1_555
K0 O2 2.850799 1_555
K0 O54 3.042643 1_555
K0 O44 3.042643 1_555
K0 O42 3.042646 1_555
K0 O36 3.042646 1_555
K0 O48 3.042650 1_555
K0 O38 3.042650 1_555
K1 O8 2.850789 1_555
K1 O1 2.850796 1_555
K1 O4 2.850799 1_555
K1 O47 3.042643 1_555
K1 O52 3.042643 1_555
K1 O37 3.042646 1_555
K1 O39 3.042646 1_555
K1 O41 3.042650 1_555
K1 O45 3.042650 1_555
K2 O10 2.850789 1_555
K2 O3 2.850796 1_555
K2 O7 2.850799 1_555
K2 O59 3.042643 1_555
K2 O56 3.042643 1_554
K2 O51 3.042646 1_555
K2 O40 3.042646 1_554
K2 O55 3.042650 1_555
K2 O46 3.042650 1_554
K3 O11 2.850789 1_555
K3 O5 2.850796 1_555
K3 O9 2.850799 1_555
K3 O57 3.042643 1_555
K3 O58 3.042643 1_554
K3 O43 3.042646 1_555
K3 O50 3.042646 1_554
K3 O49 3.042650 1_555
K3 O53 3.042650 1_554
K4 O29 3.065150 1_455
K4 O21 3.065150 1_545
K4 O14 3.065150 1_455
K4 O22 3.065150 1_545
K4 O15 3.065150 1_445
K4 O26 3.065150 1_445
K4 O16 3.065150 1_555
K4 O12 3.065150 1_555
K4 O32 3.065150 1_445
K4 O20 3.065150 1_445
K4 O28 3.065150 1_555
K4 O34 3.065150 1_555
K5 O17 3.065150 1_545
K5 O31 3.065150 1_545
K5 O24 3.065150 1_455
K5 O25 3.065150 1_455
K5 O19 3.065150 1_445
K5 O13 3.065150 1_445
K5 O18 3.065150 1_555
K5 O27 3.065150 1_555
K5 O30 3.065150 1_445
K5 O33 3.065150 1_555
K5 O23 3.065150 1_555
K5 O35 3.065150 1_445
Mn0 O50 2.115021 1_545
Mn0 O40 2.115021 1_555
Mn0 O52 2.115021 1_555
Mn0 O44 2.115021 1_545
Mn1 O51 2.115021 1_555
Mn1 O43 2.115021 1_545
Mn1 O47 2.115021 1_555
Mn1 O54 2.115021 1_545
Mn2 O39 2.115021 1_455
Mn2 O36 2.115021 1_555
Mn2 O58 2.115021 1_555
Mn2 O56 2.115021 1_455
Mn3 O37 2.115021 1_455
Mn3 O42 2.115021 1_555
Mn3 O57 2.115021 1_555
Mn3 O59 2.115021 1_455
Mn4 O38 2.115021 1_555
Mn4 O53 2.115021 1_555
Mn4 O46 2.115021 1_555
Mn4 O45 2.115021 1_555
Mn5 O48 2.115021 1_555
Mn5 O55 2.115021 1_555
Mn5 O49 2.115021 1_555
Mn5 O41 2.115021 1_555
Mn6 O58 2.257672 1_555
Mn6 O44 2.257672 1_555
Mn6 O36 2.257676 1_555
Mn6 O50 2.257676 1_555
Mn6 O38 2.257680 1_555
Mn6 O53 2.257680 1_555
Mn7 O47 2.257672 1_555
Mn7 O59 2.257672 1_555
Mn7 O37 2.257676 1_555
Mn7 O51 2.257676 1_555
Mn7 O55 2.257680 1_555
Mn7 O41 2.257680 1_555
Mn8 O52 2.257672 1_555
Mn8 O56 2.257672 1_555
Mn8 O39 2.257676 1_555
Mn8 O40 2.257676 1_555
Mn8 O46 2.257680 1_555
Mn8 O45 2.257680 1_555
Mn9 O57 2.257672 1_555
Mn9 O54 2.257672 1_555
Mn9 O43 2.257676 1_555
Mn9 O42 2.257676 1_555
Mn9 O48 2.257680 1_555
Mn9 O49 2.257680 1_555
O0 Si6 1.641561 1_555
O0 Si0 1.641561 1_555
O1 Si1 1.641561 1_555
O1 Si3 1.641561 1_555
O2 Si2 1.641561 1_555
O2 Si12 1.641561 1_555
O3 Si15 1.641561 1_555
O3 Si4 1.641561 1_554
O4 Si9 1.641561 1_555
O4 Si5 1.641561 1_555
O5 Si14 1.641561 1_554
O5 Si7 1.641561 1_555
O6 Si8 1.641560 1_555
O6 Si18 1.641560 1_555
O7 Si19 1.641561 1_555
O7 Si10 1.641561 1_554
O8 Si11 1.641560 1_555
O8 Si16 1.641560 1_555
O9 Si17 1.641561 1_554
O9 Si13 1.641561 1_555
O10 Si23 1.641560 1_555
O10 Si20 1.641560 1_554
O11 Si21 1.641560 1_555
O11 Si22 1.641560 1_554
O12 Si9 1.645951 1_555
O12 Si8 1.646559 1_545
O13 Si12 1.645951 1_555
O13 Si11 1.646559 1_565
O14 Si16 1.645950 1_555
O14 Si0 1.646556 1_655
O15 Si2 1.645951 1_555
O15 Si16 1.646559 1_565
O16 Si17 1.645951 1_555
O16 Si20 1.646559 1_455
O17 Si18 1.645950 1_555
O17 Si1 1.646556 1_455
O18 Si5 1.645951 1_555
O18 Si18 1.646559 1_545
O19 Si19 1.645951 1_555
O19 Si21 1.646559 1_655
O20 Si3 1.645941 1_555
O20 Si2 1.646549 1_555
O21 Si8 1.645950 1_555
O21 Si3 1.646556 1_455
O22 Si22 1.645950 1_555
O22 Si4 1.646556 1_565
O23 Si6 1.645941 1_555
O23 Si5 1.646549 1_555
O24 Si11 1.645950 1_555
O24 Si6 1.646556 1_655
O25 Si23 1.645950 1_555
O25 Si7 1.646556 1_545
O26 Si10 1.645951 1_555
O26 Si22 1.646559 1_655
O27 Si13 1.645951 1_555
O27 Si23 1.646559 1_455
O28 Si0 1.645941 1_555
O28 Si9 1.646549 1_555
O29 Si20 1.645950 1_555
O29 Si14 1.646556 1_545
O30 Si1 1.645941 1_555
O30 Si12 1.646549 1_555
O31 Si21 1.645950 1_555
O31 Si15 1.646556 1_565
O32 Si14 1.645941 1_555
O32 Si10 1.646549 1_555
O33 Si15 1.645941 1_555
O33 Si13 1.646549 1_555
O34 Si4 1.645941 1_555
O34 Si17 1.646549 1_555
O35 Si7 1.645941 1_555
O35 Si19 1.646549 1_555
O36 Si0 1.615031 1_555
O37 Si1 1.615031 1_555
O38 Si2 1.615029 1_555
O39 Si3 1.615031 1_555
O40 Si4 1.615031 1_555
O41 Si5 1.615029 1_555
O42 Si6 1.615031 1_555
O43 Si7 1.615031 1_555
O44 Si8 1.615022 1_555
O45 Si9 1.615029 1_555
O46 Si10 1.615029 1_555
O47 Si11 1.615022 1_555
O48 Si12 1.615029 1_555
O49 Si13 1.615029 1_555
O50 Si14 1.615031 1_555
O51 Si15 1.615031 1_555
O52 Si16 1.615022 1_555
O53 Si17 1.615029 1_555
O54 Si18 1.615022 1_555
O55 Si19 1.615029 1_555
O56 Si20 1.615022 1_555
O57 Si21 1.615022 1_555
O58 Si22 1.615022 1_555
O59 Si23 1.615022 1_555
