# generated using pymatgen
data_Na2MgGaF7
_symmetry_space_group_name_H-M   'P 1'
_cell_length_a   7.34836979
_cell_length_b   7.34836979
_cell_length_c   7.34836979
_cell_angle_alpha   121.03123427
_cell_angle_beta   118.46048767
_cell_angle_gamma   90.45505520
_symmetry_Int_Tables_number   1
_chemical_formula_structural   Na2MgGaF7
_chemical_formula_sum   'Na4 Mg2 Ga2 F14'
_cell_volume   281.47353121
_cell_formula_units_Z   2
loop_
 _symmetry_equiv_pos_site_id
 _symmetry_equiv_pos_as_xyz
  1  'x, y, z'
loop_
 _atom_site_type_symbol
 _atom_site_label
 _atom_site_symmetry_multiplicity
 _atom_site_fract_x
 _atom_site_fract_y
 _atom_site_fract_z
 _atom_site_occupancy
  Na  Na0  1  0.50000000  0.50000000  0.00000000  1
  Na  Na1  1  0.00000000  0.00000000  0.00000000  1
  Na  Na2  1  0.00000000  0.50000000  0.00000000  1
  Na  Na3  1  0.00000000  0.00000000  0.50000000  1
  Mg  Mg0  1  0.50000000  0.50000000  0.50000000  1
  Mg  Mg1  1  0.50000000  0.00000000  0.00000000  1
  Ga  Ga0  1  0.00000000  0.50000000  0.50000000  1
  Ga  Ga1  1  0.50000000  0.00000000  0.50000000  1
  F  F0  1  0.86341800  0.59055300  0.27286600  1
  F  F1  1  0.18231300  0.90944700  0.27286600  1
  F  F2  1  0.18219200  0.80972900  0.76212400  1
  F  F3  1  0.45239400  0.69027100  0.37246300  1
  F  F4  1  0.45239400  0.07993200  0.76212400  1
  F  F5  1  0.18219200  0.42006800  0.37246300  1
  F  F6  1  0.81780800  0.57993200  0.62753700  1
  F  F7  1  0.54760600  0.92006800  0.23787600  1
  F  F8  1  0.54760600  0.30972900  0.62753700  1
  F  F9  1  0.81780800  0.19027100  0.23787600  1
  F  F10  1  0.39908500  0.25000000  0.14908500  1
  F  F11  1  0.13658200  0.40944700  0.72713400  1
  F  F12  1  0.81768700  0.09055300  0.72713400  1
  F  F13  1  0.60091500  0.75000000  0.85091500  1
loop_
_geom_bond_atom_site_label_1
_geom_bond_atom_site_label_2
_geom_bond_distance
_geom_bond_site_symmetry_2
F0 Ga0 1.948062 1_655
F0 Na0 2.255560 1_555
F0 Na3 2.454313 1_665
F0 Na2 2.454318 1_655
F1 Ga1 1.948061 1_565
F1 Na1 2.255565 1_565
F1 Na3 2.454312 1_565
F1 Na2 2.454312 1_555
F2 Ga0 1.912218 1_555
F2 Mg1 2.000475 1_566
F2 Na1 2.557981 1_566
F2 Na3 2.793932 1_565
F3 Ga1 1.912217 1_565
F3 Mg0 2.000475 1_555
F3 Na0 2.557986 1_555
F3 Na2 2.793927 1_555
F4 Ga1 1.912222 1_555
F4 Mg1 2.000473 1_556
F4 Na0 2.557979 1_556
F4 Na3 2.793926 1_555
F5 Ga0 1.912218 1_555
F5 Mg0 2.000475 1_555
F5 Na1 2.557981 1_555
F5 Na2 2.793932 1_555
F6 Ga0 1.912218 1_655
F6 Mg0 2.000475 1_555
F6 Na1 2.557981 1_666
F6 Na2 2.793932 1_656
F7 Ga1 1.912222 1_565
F7 Mg1 2.000473 1_565
F7 Na0 2.557979 1_555
F7 Na3 2.793926 1_665
F8 Ga1 1.912217 1_555
F8 Mg0 2.000475 1_555
F8 Na0 2.557986 1_556
F8 Na2 2.793927 1_656
F9 Ga0 1.912218 1_655
F9 Mg1 2.000475 1_555
F9 Na1 2.557981 1_655
F9 Na3 2.793932 1_655
F10 Mg1 1.961110 1_555
F10 Mg0 1.961110 1_555
F10 Na0 2.820050 1_555
F10 Na1 2.820050 1_555
F11 Ga0 1.948062 1_555
F11 Na0 2.255560 1_556
F11 Na3 2.454313 1_555
F11 Na2 2.454318 1_556
F12 Ga1 1.948061 1_555
F12 Na1 2.255565 1_656
F12 Na3 2.454312 1_655
F12 Na2 2.454312 1_656
F13 Mg0 1.961110 1_555
F13 Mg1 1.961110 1_566
F13 Na1 2.820050 1_666
F13 Na0 2.820050 1_556
