# generated using pymatgen
data_Ba3UMnS6
_symmetry_space_group_name_H-M   'P 1'
_cell_length_a   8.34515561
_cell_length_b   8.34515561
_cell_length_c   8.34515540
_cell_angle_alpha   93.39111811
_cell_angle_beta   93.39111811
_cell_angle_gamma   93.39111228
_symmetry_Int_Tables_number   1
_chemical_formula_structural   Ba3UMnS6
_chemical_formula_sum   'Ba6 U2 Mn2 S12'
_cell_volume   577.99098776
_cell_formula_units_Z   2
loop_
 _symmetry_equiv_pos_site_id
 _symmetry_equiv_pos_as_xyz
  1  'x, y, z'
loop_
 _atom_site_type_symbol
 _atom_site_label
 _atom_site_symmetry_multiplicity
 _atom_site_fract_x
 _atom_site_fract_y
 _atom_site_fract_z
 _atom_site_occupancy
  Ba  Ba0  1  0.13088500  0.36912500  0.75000500  1
  Ba  Ba1  1  0.36912500  0.75000500  0.13088500  1
  Ba  Ba2  1  0.75000500  0.13088500  0.36912500  1
  Ba  Ba3  1  0.63088500  0.25000500  0.86912500  1
  Ba  Ba4  1  0.25000500  0.86912500  0.63088500  1
  Ba  Ba5  1  0.86912500  0.63088500  0.25000500  1
  U  U0  1  0.25001300  0.25001300  0.25001300  1
  U  U1  1  0.75001300  0.75001300  0.75001300  1
  Mn  Mn0  1  0.50002000  0.50002000  0.50002000  1
  Mn  Mn1  1  0.00002000  0.00002000  0.00002000  1
  S  S0  1  0.40818000  0.20352200  0.53443000  1
  S  S1  1  0.20352200  0.53443000  0.40818000  1
  S  S2  1  0.53443000  0.40818000  0.20352200  1
  S  S3  1  0.90818000  0.03443000  0.70352200  1
  S  S4  1  0.03443000  0.70352200  0.90818000  1
  S  S5  1  0.70352200  0.90818000  0.03443000  1
  S  S6  1  0.59183800  0.79646700  0.46555000  1
  S  S7  1  0.79646700  0.46555000  0.59183800  1
  S  S8  1  0.46555000  0.59183800  0.79646700  1
  S  S9  1  0.09183800  0.96555000  0.29646700  1
  S  S10  1  0.96555000  0.29646700  0.09183800  1
  S  S11  1  0.29646700  0.09183800  0.96555000  1
loop_
_geom_bond_atom_site_label_1
_geom_bond_atom_site_label_2
_geom_bond_distance
_geom_bond_site_symmetry_2
Ba0 S4 3.183297 1_555
Ba0 S7 3.183341 1_455
Ba0 S8 3.252247 1_555
Ba0 S3 3.252423 1_455
Ba0 S1 3.313435 1_555
Ba0 S10 3.313646 1_456
Ba0 S11 3.328088 1_555
Ba0 S0 3.328352 1_555
Ba1 S5 3.183297 1_555
Ba1 S8 3.183341 1_554
Ba1 S6 3.252247 1_555
Ba1 S4 3.252423 1_554
Ba1 S2 3.313435 1_555
Ba1 S11 3.313646 1_564
Ba1 S9 3.328088 1_555
Ba1 S1 3.328353 1_555
Ba2 S3 3.183297 1_555
Ba2 S6 3.183341 1_545
Ba2 S7 3.252247 1_555
Ba2 S5 3.252423 1_545
Ba2 S0 3.313435 1_555
Ba2 S9 3.313646 1_645
Ba2 S10 3.328089 1_555
Ba2 S2 3.328352 1_555
Ba3 S2 3.183297 1_556
Ba3 S11 3.183341 1_555
Ba3 S10 3.252247 1_556
Ba3 S0 3.252423 1_555
Ba3 S5 3.313435 1_546
Ba3 S8 3.313646 1_555
Ba3 S7 3.328089 1_555
Ba3 S3 3.328352 1_555
Ba4 S0 3.183297 1_565
Ba4 S9 3.183341 1_555
Ba4 S11 3.252247 1_565
Ba4 S1 3.252423 1_555
Ba4 S3 3.313435 1_465
Ba4 S6 3.313646 1_555
Ba4 S8 3.328088 1_555
Ba4 S4 3.328353 1_555
Ba5 S1 3.183297 1_655
Ba5 S10 3.183341 1_555
Ba5 S9 3.252247 1_655
Ba5 S2 3.252423 1_555
Ba5 S4 3.313435 1_654
Ba5 S7 3.313646 1_555
Ba5 S6 3.328088 1_555
Ba5 S5 3.328352 1_555
Mn0 S8 2.583803 1_555
Mn0 S7 2.583803 1_555
Mn0 S6 2.583803 1_555
Mn0 S2 2.584158 1_555
Mn0 S1 2.584158 1_555
Mn0 S0 2.584158 1_555
Mn1 S9 2.583803 1_545
Mn1 S10 2.583803 1_455
Mn1 S11 2.583803 1_554
Mn1 S3 2.584158 1_454
Mn1 S4 2.584158 1_544
Mn1 S5 2.584158 1_445
S0 U0 2.706502 1_555
S1 U0 2.706502 1_555
S2 U0 2.706502 1_555
S3 U1 2.706502 1_545
S4 U1 2.706502 1_455
S5 U1 2.706502 1_554
S6 U1 2.706791 1_555
S7 U1 2.706791 1_555
S8 U1 2.706791 1_555
S9 U0 2.706791 1_565
S10 U0 2.706791 1_655
S11 U0 2.706791 1_556
