# generated using pymatgen
data_ZnCo2(CuO4)2
_symmetry_space_group_name_H-M   'P 1'
_cell_length_a   6.42040956
_cell_length_b   8.28677100
_cell_length_c   11.82971719
_cell_angle_alpha   90.00000000
_cell_angle_beta   91.68203716
_cell_angle_gamma   90.00000000
_symmetry_Int_Tables_number   1
_chemical_formula_structural   ZnCo2(CuO4)2
_chemical_formula_sum   'Zn4 Co8 Cu8 O32'
_cell_volume   629.12256097
_cell_formula_units_Z   4
loop_
 _symmetry_equiv_pos_site_id
 _symmetry_equiv_pos_as_xyz
  1  'x, y, z'
loop_
 _atom_site_type_symbol
 _atom_site_label
 _atom_site_symmetry_multiplicity
 _atom_site_fract_x
 _atom_site_fract_y
 _atom_site_fract_z
 _atom_site_occupancy
  Zn  Zn0  1  0.11090000  0.15839500  0.04912800  1
  Zn  Zn1  1  0.88910000  0.84160500  0.95087200  1
  Zn  Zn2  1  0.88910000  0.65839500  0.45087200  1
  Zn  Zn3  1  0.11090000  0.34160500  0.54912800  1
  Co  Co0  1  0.10300200  0.46321600  0.84131200  1
  Co  Co1  1  0.10300200  0.03678400  0.34131200  1
  Co  Co2  1  0.60723200  0.09183700  0.13209400  1
  Co  Co3  1  0.89699800  0.96321600  0.65868800  1
  Co  Co4  1  0.39276800  0.90816300  0.86790600  1
  Co  Co5  1  0.39276800  0.59183700  0.36790600  1
  Co  Co6  1  0.60723200  0.40816300  0.63209400  1
  Co  Co7  1  0.89699800  0.53678400  0.15868800  1
  Cu  Cu0  1  0.75059700  0.19312800  0.87921800  1
  Cu  Cu1  1  0.37959000  0.05945500  0.63245200  1
  Cu  Cu2  1  0.62041000  0.94054500  0.36754800  1
  Cu  Cu3  1  0.24940300  0.80687200  0.12078200  1
  Cu  Cu4  1  0.75059700  0.30687200  0.37921800  1
  Cu  Cu5  1  0.37959000  0.44054500  0.13245200  1
  Cu  Cu6  1  0.24940300  0.69312800  0.62078200  1
  Cu  Cu7  1  0.62041000  0.55945500  0.86754800  1
  O  O0  1  0.02380400  0.22597700  0.39944600  1
  O  O1  1  0.65416300  0.01454500  0.59880300  1
  O  O2  1  0.19060500  0.57873300  0.47921500  1
  O  O3  1  0.80939500  0.07873300  0.02078500  1
  O  O4  1  0.02380400  0.27402300  0.89944600  1
  O  O5  1  0.97619600  0.77402300  0.60055400  1
  O  O6  1  0.09514100  0.10807900  0.62639000  1
  O  O7  1  0.51136200  0.89394900  0.14098200  1
  O  O8  1  0.51136200  0.60605100  0.64098200  1
  O  O9  1  0.32604300  0.87025100  0.71593800  1
  O  O10  1  0.67395700  0.37025100  0.78406200  1
  O  O11  1  0.48863800  0.10605100  0.85901800  1
  O  O12  1  0.90485900  0.89192100  0.37361000  1
  O  O13  1  0.87551900  0.52642800  0.30210900  1
  O  O14  1  0.40678600  0.27030100  0.58123700  1
  O  O15  1  0.40678600  0.22969900  0.08123800  1
  O  O16  1  0.12448100  0.02642800  0.19789000  1
  O  O17  1  0.48863800  0.39394900  0.35901800  1
  O  O18  1  0.12448100  0.47357200  0.69789000  1
  O  O19  1  0.80939500  0.42126700  0.52078500  1
  O  O20  1  0.65416300  0.48545500  0.09880300  1
  O  O21  1  0.67395700  0.12974900  0.28406200  1
  O  O22  1  0.97619600  0.72597700  0.10055400  1
  O  O23  1  0.09514100  0.39192100  0.12639000  1
  O  O24  1  0.19060500  0.92126700  0.97921500  1
  O  O25  1  0.59321400  0.77030100  0.91876300  1
  O  O26  1  0.34583700  0.98545500  0.40119700  1
  O  O27  1  0.34583700  0.51454500  0.90119700  1
  O  O28  1  0.90485900  0.60807900  0.87361000  1
  O  O29  1  0.59321400  0.72969900  0.41876200  1
  O  O30  1  0.32604300  0.62974900  0.21593800  1
  O  O31  1  0.87551900  0.97357200  0.80211000  1
loop_
_geom_bond_atom_site_label_1
_geom_bond_atom_site_label_2
_geom_bond_distance
_geom_bond_site_symmetry_2
Co0 O18 1.708423 1_555
Co0 O27 1.746064 1_555
Co0 O4 1.791653 1_555
Co0 O28 1.798326 1_455
Co1 O16 1.708423 1_555
Co1 O26 1.746064 1_545
Co1 O0 1.791653 1_555
Co1 O12 1.798326 1_445
Co2 O7 1.755802 1_545
Co2 O15 1.810486 1_555
Co2 O21 1.862493 1_555
Co2 O3 1.879013 1_555
Co3 O31 1.708423 1_555
Co3 O1 1.746064 1_565
Co3 O5 1.791653 1_555
Co3 O6 1.798326 1_665
Co4 O11 1.755802 1_565
Co4 O25 1.810490 1_555
Co4 O9 1.862493 1_555
Co4 O24 1.879013 1_555
Co5 O17 1.755802 1_555
Co5 O29 1.810486 1_555
Co5 O30 1.862493 1_555
Co5 O2 1.879013 1_555
Co6 O8 1.755802 1_555
Co6 O14 1.810490 1_555
Co6 O10 1.862493 1_555
Co6 O19 1.879013 1_555
Co7 O13 1.708412 1_555
Co7 O20 1.746064 1_555
Co7 O22 1.791653 1_555
Co7 O23 1.798326 1_655
Cu0 O11 1.839274 1_555
Cu0 O4 1.886497 1_655
Cu0 O10 1.905547 1_555
Cu0 O3 1.951576 1_556
Cu0 O31 2.197393 1_545
Cu1 O1 1.856303 1_555
Cu1 O14 1.859189 1_555
Cu1 O6 1.869520 1_555
Cu1 O9 1.889918 1_545
Cu2 O26 1.856303 1_555
Cu2 O29 1.859186 1_555
Cu2 O12 1.869520 1_555
Cu2 O21 1.889918 1_565
Cu3 O7 1.839274 1_555
Cu3 O22 1.886497 1_455
Cu3 O30 1.905547 1_555
Cu3 O24 1.951576 1_554
Cu3 O16 2.197393 1_565
Cu4 O17 1.839274 1_555
Cu4 O0 1.886497 1_655
Cu4 O21 1.905547 1_555
Cu4 O19 1.951576 1_555
Cu4 O13 2.197398 1_555
Cu5 O20 1.856303 1_555
Cu5 O15 1.859186 1_555
Cu5 O23 1.869520 1_555
Cu5 O30 1.889918 1_555
Cu6 O8 1.839274 1_555
Cu6 O5 1.886497 1_455
Cu6 O9 1.905547 1_555
Cu6 O2 1.951576 1_555
Cu6 O18 2.197393 1_555
Cu7 O27 1.856303 1_555
Cu7 O25 1.859189 1_555
Cu7 O28 1.869520 1_555
Cu7 O10 1.889918 1_555
O0 Zn3 2.075583 1_555
O2 Zn2 2.063339 1_455
O2 Zn3 2.198195 1_555
O3 Zn0 2.063339 1_655
O3 Zn1 2.198195 1_544
O4 Zn0 2.075583 1_556
O5 Zn2 2.075583 1_555
O6 Zn3 2.143816 1_555
O12 Zn2 2.143816 1_555
O13 Zn2 2.071592 1_555
O14 Zn3 2.014932 1_555
O15 Zn0 2.014934 1_555
O16 Zn0 2.071582 1_555
O18 Zn3 2.071582 1_555
O19 Zn3 2.063339 1_655
O19 Zn2 2.198195 1_555
O22 Zn1 2.075583 1_554
O23 Zn0 2.143816 1_555
O24 Zn1 2.063339 1_455
O24 Zn0 2.198195 1_566
O25 Zn1 2.014932 1_555
O28 Zn1 2.143816 1_555
O29 Zn2 2.014934 1_555
O31 Zn1 2.071582 1_555
