# generated using pymatgen
data_ThNb4O12
_symmetry_space_group_name_H-M   'P 1'
_cell_length_a   5.57615400
_cell_length_b   5.60465800
_cell_length_c   7.90657800
_cell_angle_alpha   90.00000000
_cell_angle_beta   90.00000000
_cell_angle_gamma   90.00000000
_symmetry_Int_Tables_number   1
_chemical_formula_structural   ThNb4O12
_chemical_formula_sum   'Th1 Nb4 O12'
_cell_volume   247.09982391
_cell_formula_units_Z   1
loop_
 _symmetry_equiv_pos_site_id
 _symmetry_equiv_pos_as_xyz
  1  'x, y, z'
loop_
 _atom_site_type_symbol
 _atom_site_label
 _atom_site_symmetry_multiplicity
 _atom_site_fract_x
 _atom_site_fract_y
 _atom_site_fract_z
 _atom_site_occupancy
  Th  Th0  1  0.75670700  0.50000000  0.00000000  1
  Nb  Nb0  1  0.25540800  0.50000000  0.25900600  1
  Nb  Nb1  1  0.75488100  0.00000000  0.25883800  1
  Nb  Nb2  1  0.75488100  0.00000000  0.74116200  1
  Nb  Nb3  1  0.25540800  0.50000000  0.74099400  1
  O  O0  1  0.51322600  0.26705700  0.19759800  1
  O  O1  1  0.51322600  0.73294300  0.19759800  1
  O  O2  1  0.51322600  0.26705700  0.80240200  1
  O  O3  1  0.51322600  0.73294300  0.80240200  1
  O  O4  1  0.99156300  0.25748400  0.26376600  1
  O  O5  1  0.99156300  0.74251600  0.26376600  1
  O  O6  1  0.99156300  0.25748400  0.73623400  1
  O  O7  1  0.99156300  0.74251600  0.73623400  1
  O  O8  1  0.16770300  0.50000000  0.00000000  1
  O  O9  1  0.80262600  0.00000000  0.00000000  1
  O  O10  1  0.30995600  0.50000000  0.50000000  1
  O  O11  1  0.67957300  0.00000000  0.50000000  1
loop_
_geom_bond_atom_site_label_1
_geom_bond_atom_site_label_2
_geom_bond_distance
_geom_bond_site_symmetry_2
Nb0 O10 1.929563 1_555
Nb0 O0 2.001756 1_555
Nb0 O1 2.001756 1_555
Nb0 O5 2.003358 1_455
Nb0 O4 2.003358 1_455
Nb0 O8 2.105438 1_555
Nb1 O11 1.952459 1_555
Nb1 O4 1.955988 1_555
Nb1 O5 1.955988 1_545
Nb1 O9 2.063767 1_555
Nb1 O0 2.071357 1_555
Nb1 O1 2.071357 1_545
Nb2 O11 1.952459 1_555
Nb2 O6 1.955988 1_555
Nb2 O7 1.955988 1_545
Nb2 O9 2.063767 1_556
Nb2 O3 2.071357 1_545
Nb2 O2 2.071357 1_555
Nb3 O10 1.929563 1_555
Nb3 O2 2.001756 1_555
Nb3 O3 2.001756 1_555
Nb3 O7 2.003358 1_455
Nb3 O6 2.003358 1_455
Nb3 O8 2.105438 1_556
O0 Th0 2.447177 1_555
O1 Th0 2.447177 1_555
O2 Th0 2.447177 1_556
O3 Th0 2.447177 1_556
O8 Th0 2.291777 1_455
