# generated using pymatgen
data_BaTi6O11
_symmetry_space_group_name_H-M   'P 1'
_cell_length_a   7.73709193
_cell_length_b   7.73709193
_cell_length_c   14.29815100
_cell_angle_alpha   90.00000000
_cell_angle_beta   90.00000000
_cell_angle_gamma   98.48035462
_symmetry_Int_Tables_number   1
_chemical_formula_structural   BaTi6O11
_chemical_formula_sum   'Ba4 Ti24 O44'
_cell_volume   846.56611201
_cell_formula_units_Z   4
loop_
 _symmetry_equiv_pos_site_id
 _symmetry_equiv_pos_as_xyz
  1  'x, y, z'
loop_
 _atom_site_type_symbol
 _atom_site_label
 _atom_site_symmetry_multiplicity
 _atom_site_fract_x
 _atom_site_fract_y
 _atom_site_fract_z
 _atom_site_occupancy
  Ba  Ba0  1  0.58079700  0.58079700  0.42240000  1
  Ba  Ba1  1  0.90357000  0.90357000  0.59370700  1
  Ba  Ba2  1  0.41920300  0.41920300  0.92240000  1
  Ba  Ba3  1  0.09643000  0.09643000  0.09370700  1
  Ti  Ti0  1  0.30484100  0.05453800  0.32261400  1
  Ti  Ti1  1  0.45211300  0.20123900  0.68010500  1
  Ti  Ti2  1  0.94546200  0.69515900  0.82261400  1
  Ti  Ti3  1  0.79876100  0.54788700  0.18010500  1
  Ti  Ti4  1  0.20123900  0.45211300  0.68010500  1
  Ti  Ti5  1  0.05453800  0.30484100  0.32261400  1
  Ti  Ti6  1  0.54788700  0.79876100  0.18010500  1
  Ti  Ti7  1  0.69515900  0.94546200  0.82261400  1
  Ti  Ti8  1  0.50653400  0.00235900  0.49561900  1
  Ti  Ti9  1  0.99764100  0.49346600  0.99561900  1
  Ti  Ti10  1  0.00235900  0.50653400  0.49561900  1
  Ti  Ti11  1  0.49346600  0.99764100  0.99561900  1
  Ti  Ti12  1  0.17488300  0.67942300  0.34603300  1
  Ti  Ti13  1  0.81059500  0.34153500  0.64634500  1
  Ti  Ti14  1  0.32057700  0.82511700  0.84603300  1
  Ti  Ti15  1  0.65846500  0.18940500  0.14634500  1
  Ti  Ti16  1  0.34153500  0.81059500  0.64634500  1
  Ti  Ti17  1  0.67942300  0.17488300  0.34603300  1
  Ti  Ti18  1  0.18940500  0.65846500  0.14634500  1
  Ti  Ti19  1  0.82511700  0.32057700  0.84603300  1
  Ti  Ti20  1  0.24207400  0.24207400  0.49440300  1
  Ti  Ti21  1  0.75792600  0.75792600  0.99440300  1
  Ti  Ti22  1  0.92033900  0.92033900  0.33667800  1
  Ti  Ti23  1  0.07966100  0.07966100  0.83667800  1
  O  O0  1  0.12902000  0.87468000  0.25558500  1
  O  O1  1  0.62946600  0.34324200  0.74707600  1
  O  O2  1  0.12532000  0.87098000  0.75558500  1
  O  O3  1  0.65675800  0.37053400  0.24707600  1
  O  O4  1  0.34324200  0.62946600  0.74707600  1
  O  O5  1  0.87468000  0.12902000  0.25558500  1
  O  O6  1  0.37053400  0.65675800  0.24707600  1
  O  O7  1  0.87098000  0.12532000  0.75558500  1
  O  O8  1  0.34684800  0.85497700  0.40901200  1
  O  O9  1  0.64756600  0.15695000  0.59036400  1
  O  O10  1  0.14502300  0.65315200  0.90901200  1
  O  O11  1  0.84305000  0.35243400  0.09036400  1
  O  O12  1  0.15695000  0.64756600  0.59036400  1
  O  O13  1  0.85497700  0.34684800  0.40901200  1
  O  O14  1  0.35243400  0.84305000  0.09036400  1
  O  O15  1  0.65315200  0.14502300  0.90901200  1
  O  O16  1  0.46309100  0.21742600  0.41820100  1
  O  O17  1  0.29373600  0.02984700  0.58269000  1
  O  O18  1  0.78257400  0.53690900  0.91820100  1
  O  O19  1  0.97015300  0.70626400  0.08269000  1
  O  O20  1  0.02984700  0.29373600  0.58269000  1
  O  O21  1  0.21742600  0.46309100  0.41820100  1
  O  O22  1  0.70626400  0.97015300  0.08269000  1
  O  O23  1  0.53690900  0.78257400  0.91820100  1
  O  O24  1  0.75085300  0.75085300  0.25583700  1
  O  O25  1  0.76151700  0.76151700  0.75326900  1
  O  O26  1  0.24914700  0.24914700  0.75583700  1
  O  O27  1  0.23848300  0.23848300  0.25326900  1
  O  O28  1  0.53020400  0.79322100  0.57356100  1
  O  O29  1  0.71788400  0.96432700  0.42014000  1
  O  O30  1  0.20677900  0.46979600  0.07356100  1
  O  O31  1  0.03567300  0.28211600  0.92014000  1
  O  O32  1  0.96432700  0.71788400  0.42014000  1
  O  O33  1  0.79322100  0.53020400  0.57356100  1
  O  O34  1  0.28211600  0.03567300  0.92014000  1
  O  O35  1  0.46979600  0.20677900  0.07356100  1
  O  O36  1  0.08534500  0.08534500  0.40983100  1
  O  O37  1  0.37982500  0.37982500  0.59738100  1
  O  O38  1  0.91465500  0.91465500  0.90983100  1
  O  O39  1  0.62017500  0.62017500  0.09738100  1
  O  O40  1  0.52516400  0.02713500  0.24780300  1
  O  O41  1  0.47483600  0.97286500  0.74780300  1
  O  O42  1  0.97286500  0.47483600  0.74780300  1
  O  O43  1  0.02713500  0.52516400  0.24780300  1
loop_
_geom_bond_atom_site_label_1
_geom_bond_atom_site_label_2
_geom_bond_distance
_geom_bond_site_symmetry_2
Ba0 O28 2.777685 1_555
Ba0 O33 2.777685 1_555
Ba0 O16 2.825241 1_555
Ba0 O21 2.825241 1_555
Ba0 O24 2.936578 1_555
Ba0 O13 2.990940 1_555
Ba0 O8 2.990940 1_555
Ba0 O29 3.000540 1_555
Ba0 O32 3.000540 1_555
Ba0 O3 3.091611 1_555
Ba0 O6 3.091611 1_555
Ba0 O37 3.222123 1_555
Ba1 O25 2.695299 1_555
Ba1 O28 2.903353 1_555
Ba1 O33 2.903353 1_555
Ba1 O7 2.914099 1_565
Ba1 O2 2.914099 1_655
Ba1 O29 2.939891 1_555
Ba1 O32 2.939891 1_555
Ba1 O9 2.985649 1_565
Ba1 O12 2.985649 1_655
Ba1 O17 3.036830 1_665
Ba1 O20 3.036830 1_665
Ba1 O36 3.206975 1_665
Ba2 O30 2.777685 1_556
Ba2 O35 2.777685 1_556
Ba2 O23 2.825241 1_555
Ba2 O18 2.825241 1_555
Ba2 O26 2.936578 1_555
Ba2 O10 2.990940 1_555
Ba2 O15 2.990940 1_555
Ba2 O34 3.000540 1_555
Ba2 O31 3.000540 1_555
Ba2 O4 3.091611 1_555
Ba2 O1 3.091611 1_555
Ba2 O39 3.222123 1_556
Ba3 O27 2.695299 1_555
Ba3 O35 2.903353 1_555
Ba3 O30 2.903353 1_555
Ba3 O5 2.914099 1_455
Ba3 O0 2.914099 1_545
Ba3 O34 2.939891 1_554
Ba3 O31 2.939891 1_554
Ba3 O14 2.985649 1_545
Ba3 O11 2.985649 1_455
Ba3 O22 3.036830 1_445
Ba3 O19 3.036830 1_445
Ba3 O38 3.206975 1_444
O0 Ti0 2.036469 1_565
O0 Ti12 2.058828 1_555
O0 Ti22 2.060170 1_455
O0 Ti18 2.384730 1_555
O1 Ti1 1.887408 1_555
O1 Ti13 2.010959 1_555
O1 Ti19 2.098212 1_555
O2 Ti2 2.036469 1_455
O2 Ti14 2.058828 1_555
O2 Ti23 2.060170 1_565
O2 Ti16 2.384730 1_555
O3 Ti3 1.887408 1_555
O3 Ti15 2.010959 1_555
O3 Ti17 2.098212 1_555
O4 Ti4 1.887408 1_555
O4 Ti16 2.010959 1_555
O4 Ti14 2.098212 1_555
O5 Ti5 2.036469 1_655
O5 Ti17 2.058828 1_555
O5 Ti22 2.060170 1_545
O5 Ti15 2.384730 1_555
O6 Ti6 1.887408 1_555
O6 Ti18 2.010959 1_555
O6 Ti12 2.098212 1_555
O7 Ti7 2.036469 1_545
O7 Ti19 2.058828 1_555
O7 Ti23 2.060170 1_655
O7 Ti13 2.384730 1_555
O8 Ti12 1.973075 1_555
O8 Ti8 1.986123 1_565
O8 Ti0 2.040512 1_565
O9 Ti13 1.933917 1_555
O9 Ti8 2.017796 1_555
O9 Ti1 2.050255 1_555
O10 Ti14 1.973075 1_555
O10 Ti9 1.986123 1_455
O10 Ti2 2.040512 1_455
O11 Ti15 1.933917 1_555
O11 Ti9 2.017796 1_554
O11 Ti3 2.050255 1_555
O12 Ti16 1.933917 1_555
O12 Ti10 2.017796 1_555
O12 Ti4 2.050255 1_555
O13 Ti17 1.973075 1_555
O13 Ti10 1.986123 1_655
O13 Ti5 2.040512 1_655
O14 Ti18 1.933917 1_555
O14 Ti11 2.017796 1_554
O14 Ti6 2.050255 1_555
O15 Ti19 1.973075 1_555
O15 Ti11 1.986123 1_545
O15 Ti7 2.040512 1_545
O16 Ti17 2.033995 1_555
O16 Ti20 2.060064 1_555
O16 Ti8 2.066910 1_555
O16 Ti0 2.121378 1_555
O17 Ti16 2.006952 1_545
O17 Ti8 2.099804 1_555
O17 Ti20 2.154782 1_555
O17 Ti1 2.172742 1_555
O18 Ti19 2.033995 1_555
O18 Ti21 2.060064 1_555
O18 Ti9 2.066910 1_555
O18 Ti2 2.121378 1_555
O19 Ti18 2.006952 1_655
O19 Ti9 2.099804 1_554
O19 Ti21 2.154782 1_554
O19 Ti3 2.172742 1_555
O20 Ti13 2.006952 1_455
O20 Ti10 2.099804 1_555
O20 Ti20 2.154782 1_555
O20 Ti4 2.172742 1_555
O21 Ti12 2.033995 1_555
O21 Ti20 2.060064 1_555
O21 Ti10 2.066910 1_555
O21 Ti5 2.121378 1_555
O22 Ti15 2.006952 1_565
O22 Ti11 2.099804 1_554
O22 Ti21 2.154782 1_554
O22 Ti6 2.172742 1_555
O23 Ti14 2.033995 1_555
O23 Ti21 2.060064 1_555
O23 Ti11 2.066910 1_555
O23 Ti7 2.121378 1_555
O24 Ti3 1.986868 1_555
O24 Ti6 1.986868 1_555
O24 Ti22 2.065924 1_555
O25 Ti7 1.867536 1_555
O25 Ti2 1.867536 1_555
O26 Ti4 1.986868 1_555
O26 Ti1 1.986868 1_555
O26 Ti23 2.065924 1_555
O27 Ti5 1.867536 1_555
O27 Ti0 1.867536 1_555
O28 Ti16 1.813786 1_555
O28 Ti8 1.995294 1_565
O29 Ti17 2.002051 1_565
O29 Ti8 2.016728 1_565
O29 Ti22 2.037353 1_555
O30 Ti18 1.813786 1_555
O30 Ti9 1.995294 1_454
O31 Ti19 2.002051 1_455
O31 Ti9 2.016728 1_455
O31 Ti23 2.037353 1_555
O32 Ti12 2.002051 1_655
O32 Ti10 2.016728 1_655
O32 Ti22 2.037353 1_555
O33 Ti13 1.813786 1_555
O33 Ti10 1.995294 1_655
O34 Ti14 2.002051 1_545
O34 Ti11 2.016728 1_545
O34 Ti23 2.037353 1_555
O35 Ti15 1.813786 1_555
O35 Ti11 1.995294 1_544
O36 Ti22 1.968008 1_445
O36 Ti20 1.992347 1_555
O36 Ti0 2.148350 1_555
O36 Ti5 2.148350 1_555
O37 Ti4 1.961876 1_555
O37 Ti1 1.961876 1_555
O37 Ti20 2.026017 1_555
O38 Ti23 1.968008 1_665
O38 Ti21 1.992347 1_555
O38 Ti7 2.148350 1_555
O38 Ti2 2.148350 1_555
O39 Ti3 1.961876 1_555
O39 Ti6 1.961876 1_555
O39 Ti21 2.026017 1_554
O40 Ti6 2.044893 1_545
O40 Ti0 2.049776 1_555
O40 Ti17 2.074003 1_555
O40 Ti15 2.088658 1_555
O41 Ti1 2.044893 1_565
O41 Ti7 2.049776 1_555
O41 Ti14 2.074003 1_555
O41 Ti16 2.088658 1_555
O42 Ti4 2.044893 1_655
O42 Ti2 2.049776 1_555
O42 Ti19 2.074003 1_555
O42 Ti13 2.088658 1_555
O43 Ti3 2.044893 1_455
O43 Ti5 2.049776 1_555
O43 Ti12 2.074003 1_555
O43 Ti18 2.088658 1_555
