# generated using pymatgen
data_ZnCr2O4
_symmetry_space_group_name_H-M   'P 1'
_cell_length_a   6.00506899
_cell_length_b   6.00506899
_cell_length_c   14.82334400
_cell_angle_alpha   90.00000000
_cell_angle_beta   90.00000000
_cell_angle_gamma   119.99998882
_symmetry_Int_Tables_number   1
_chemical_formula_structural   ZnCr2O4
_chemical_formula_sum   'Zn6 Cr12 O24'
_cell_volume   462.92738169
_cell_formula_units_Z   6
loop_
 _symmetry_equiv_pos_site_id
 _symmetry_equiv_pos_as_xyz
  1  'x, y, z'
loop_
 _atom_site_type_symbol
 _atom_site_label
 _atom_site_symmetry_multiplicity
 _atom_site_fract_x
 _atom_site_fract_y
 _atom_site_fract_z
 _atom_site_occupancy
  Zn  Zn0  1  0.33333300  0.66666700  0.04543700  1
  Zn  Zn1  1  0.00000000  0.00000000  0.37991200  1
  Zn  Zn2  1  0.66666700  0.33333300  0.33627800  1
  Zn  Zn3  1  0.66666700  0.33333300  0.70723900  1
  Zn  Zn4  1  0.00000000  0.00000000  0.00184200  1
  Zn  Zn5  1  0.00000000  0.00000000  0.62279500  1
  Cr  Cr0  1  0.33025900  0.16512900  0.16643900  1
  Cr  Cr1  1  0.83487100  0.66974100  0.16643900  1
  Cr  Cr2  1  0.99855500  0.49927700  0.50043200  1
  Cr  Cr3  1  0.83487100  0.16512900  0.16643900  1
  Cr  Cr4  1  0.50072300  0.00144500  0.50043200  1
  Cr  Cr5  1  0.33333300  0.66666700  0.66567100  1
  Cr  Cr6  1  0.33333300  0.66666700  0.28822200  1
  Cr  Cr7  1  0.66493800  0.83246900  0.83183100  1
  Cr  Cr8  1  0.50072300  0.49927700  0.50043200  1
  Cr  Cr9  1  0.16753100  0.33506200  0.83183100  1
  Cr  Cr10  1  0.16753100  0.83246900  0.83183100  1
  Cr  Cr11  1  0.66666700  0.33333300  0.95538800  1
  O  O0  1  0.69082500  0.84541300  0.09077500  1
  O  O1  1  0.00000000  0.00000000  0.23939400  1
  O  O2  1  0.15458700  0.30917500  0.09077500  1
  O  O3  1  0.15458700  0.84541300  0.09077500  1
  O  O4  1  0.35672000  0.17836000  0.42519100  1
  O  O5  1  0.50750000  0.49250000  0.24241400  1
  O  O6  1  0.66666700  0.33333300  0.57269600  1
  O  O7  1  0.50750000  0.01500000  0.24241400  1
  O  O8  1  0.66666700  0.33333300  0.09361200  1
  O  O9  1  0.82164000  0.64328000  0.42519100  1
  O  O10  1  0.82164000  0.17836000  0.42519100  1
  O  O11  1  0.98500000  0.49250000  0.24241400  1
  O  O12  1  0.03113500  0.51556700  0.75370200  1
  O  O13  1  0.18263600  0.81736400  0.58039400  1
  O  O14  1  0.18263600  0.36527200  0.58039400  1
  O  O15  1  0.33333300  0.66666700  0.90512100  1
  O  O16  1  0.33333300  0.66666700  0.42671100  1
  O  O17  1  0.48443300  0.96886500  0.75370200  1
  O  O18  1  0.48443300  0.51556700  0.75370200  1
  O  O19  1  0.63472800  0.81736400  0.58039400  1
  O  O20  1  0.83997900  0.16002100  0.90812800  1
  O  O21  1  0.83997900  0.67995800  0.90812800  1
  O  O22  1  0.00000000  0.00000000  0.76173900  1
  O  O23  1  0.32004200  0.16002100  0.90812800  1
loop_
_geom_bond_atom_site_label_1
_geom_bond_atom_site_label_2
_geom_bond_distance
_geom_bond_site_symmetry_2
Cr0 O3 2.007872 1_545
Cr0 O2 2.007880 1_555
Cr0 O1 2.029631 1_555
Cr0 O7 2.042908 1_555
Cr0 O5 2.042912 1_555
Cr0 O8 2.055765 1_555
Cr1 O3 2.007872 1_655
Cr1 O0 2.007880 1_555
Cr1 O1 2.029631 1_665
Cr1 O11 2.042908 1_555
Cr1 O5 2.042912 1_555
Cr1 O8 2.055765 1_555
Cr2 O10 2.009747 1_555
Cr2 O9 2.009750 1_555
Cr2 O6 2.031385 1_555
Cr2 O14 2.040587 1_655
Cr2 O13 2.040591 1_655
Cr2 O16 2.055570 1_655
Cr3 O0 2.007872 1_545
Cr3 O2 2.007872 1_655
Cr3 O1 2.029626 1_655
Cr3 O7 2.042912 1_555
Cr3 O11 2.042912 1_555
Cr3 O8 2.055765 1_555
Cr4 O10 2.009747 1_555
Cr4 O4 2.009750 1_555
Cr4 O6 2.031385 1_555
Cr4 O19 2.040587 1_545
Cr4 O13 2.040591 1_545
Cr4 O16 2.055570 1_545
Cr5 O13 2.013630 1_555
Cr5 O19 2.013634 1_555
Cr5 O14 2.013634 1_555
Cr5 O17 2.042720 1_555
Cr5 O12 2.042720 1_555
Cr5 O18 2.042728 1_555
Cr6 O7 1.934602 1_565
Cr6 O11 1.934602 1_455
Cr6 O5 1.934607 1_555
Cr6 O16 2.052870 1_555
Cr7 O17 2.018639 1_555
Cr7 O18 2.018643 1_555
Cr7 O22 2.028753 1_665
Cr7 O15 2.038200 1_555
Cr7 O21 2.045830 1_555
Cr7 O20 2.045830 1_565
Cr8 O4 2.009746 1_555
Cr8 O9 2.009746 1_555
Cr8 O6 2.031385 1_555
Cr8 O14 2.040592 1_555
Cr8 O19 2.040592 1_555
Cr8 O16 2.055579 1_555
Cr9 O12 2.018639 1_555
Cr9 O18 2.018643 1_555
Cr9 O22 2.028753 1_555
Cr9 O15 2.038200 1_555
Cr9 O23 2.045830 1_555
Cr9 O20 2.045830 1_455
Cr10 O12 2.018644 1_555
Cr10 O17 2.018644 1_555
Cr10 O22 2.028752 1_565
Cr10 O15 2.038196 1_555
Cr10 O23 2.045830 1_565
Cr10 O21 2.045830 1_455
Cr11 O20 1.933974 1_555
Cr11 O21 1.933979 1_555
Cr11 O23 1.933979 1_555
Cr11 O8 2.048942 1_556
O0 Zn0 1.976895 1_555
O0 Zn4 2.079217 1_665
O1 Zn1 2.082947 1_555
O2 Zn0 1.976895 1_555
O2 Zn4 2.079217 1_555
O3 Zn0 1.976895 1_555
O3 Zn4 2.079213 1_565
O4 Zn1 1.972822 1_555
O4 Zn2 2.082136 1_555
O5 Zn2 2.162555 1_555
O6 Zn3 1.994377 1_555
O7 Zn2 2.162551 1_555
O9 Zn1 1.972822 1_665
O9 Zn2 2.082136 1_555
O10 Zn1 1.972822 1_655
O10 Zn2 2.082132 1_555
O11 Zn2 2.162551 1_555
O12 Zn3 2.016685 1_455
O13 Zn5 2.000892 1_565
O14 Zn5 2.000893 1_555
O15 Zn0 2.079952 1_556
O17 Zn3 2.016685 1_565
O18 Zn3 2.016685 1_555
O19 Zn5 2.000893 1_665
O20 Zn4 2.167937 1_656
O21 Zn4 2.167937 1_666
O22 Zn5 2.059615 1_555
O23 Zn4 2.167937 1_556
