# generated using pymatgen
data_LaH3CSO7
_symmetry_space_group_name_H-M   'P 1'
_cell_length_a   7.10762900
_cell_length_b   7.10762900
_cell_length_c   11.99669700
_cell_angle_alpha   90.00000000
_cell_angle_beta   90.00000000
_cell_angle_gamma   90.00000000
_symmetry_Int_Tables_number   1
_chemical_formula_structural   LaH3CSO7
_chemical_formula_sum   'La4 H12 C4 S4 O28'
_cell_volume   606.05381778
_cell_formula_units_Z   4
loop_
 _symmetry_equiv_pos_site_id
 _symmetry_equiv_pos_as_xyz
  1  'x, y, z'
loop_
 _atom_site_type_symbol
 _atom_site_label
 _atom_site_symmetry_multiplicity
 _atom_site_fract_x
 _atom_site_fract_y
 _atom_site_fract_z
 _atom_site_occupancy
  La  La0  1  0.39319400  0.86042100  0.50730600  1
  La  La1  1  0.60680600  0.13957900  0.00730600  1
  La  La2  1  0.86042100  0.60680600  0.75730600  1
  La  La3  1  0.13957900  0.39319400  0.25730600  1
  H  H0  1  0.46754800  0.33579600  0.55213600  1
  H  H1  1  0.53245200  0.66420400  0.05213600  1
  H  H2  1  0.33579600  0.53245200  0.80213600  1
  H  H3  1  0.66420400  0.46754800  0.30213600  1
  H  H4  1  0.12150600  0.03846700  0.68949600  1
  H  H5  1  0.87849400  0.96153400  0.18949600  1
  H  H6  1  0.03846700  0.87849400  0.93949600  1
  H  H7  1  0.96153400  0.12150600  0.43949600  1
  H  H8  1  0.32338500  0.09242100  0.73261400  1
  H  H9  1  0.67661500  0.90757900  0.23261400  1
  H  H10  1  0.09242100  0.67661500  0.98261400  1
  H  H11  1  0.90757900  0.32338500  0.48261400  1
  C  C0  1  0.39600900  0.34600500  0.47087500  1
  C  C1  1  0.60399100  0.65399500  0.97087500  1
  C  C2  1  0.34600500  0.60399100  0.72087500  1
  C  C3  1  0.65399500  0.39600900  0.22087500  1
  S  S0  1  0.25327800  0.88738400  0.20173300  1
  S  S1  1  0.74672200  0.11261600  0.70173300  1
  S  S2  1  0.88738400  0.74672200  0.45173300  1
  S  S3  1  0.11261600  0.25327800  0.95173300  1
  O  O0  1  0.37790000  0.95770600  0.11215400  1
  O  O1  1  0.62210000  0.04229400  0.61215400  1
  O  O2  1  0.95770600  0.62210000  0.36215400  1
  O  O3  1  0.04229400  0.37790000  0.86215400  1
  O  O4  1  0.11391800  0.03816500  0.23039700  1
  O  O5  1  0.88608200  0.96183500  0.73039700  1
  O  O6  1  0.03816500  0.88608200  0.48039700  1
  O  O7  1  0.96183500  0.11391800  0.98039700  1
  O  O8  1  0.35795300  0.19493500  0.41875200  1
  O  O9  1  0.64204700  0.80506500  0.91875200  1
  O  O10  1  0.19493500  0.64204700  0.66875200  1
  O  O11  1  0.80506500  0.35795300  0.16875200  1
  O  O12  1  0.71651000  0.84595200  0.41144800  1
  O  O13  1  0.28349000  0.15404800  0.91144800  1
  O  O14  1  0.84595200  0.28349000  0.66144800  1
  O  O15  1  0.15404800  0.71651000  0.16144800  1
  O  O16  1  0.36733000  0.83709000  0.30121900  1
  O  O17  1  0.63267000  0.16291000  0.80121900  1
  O  O18  1  0.83709000  0.63267000  0.55121900  1
  O  O19  1  0.16291000  0.36733000  0.05121900  1
  O  O20  1  0.35434600  0.50777300  0.43212000  1
  O  O21  1  0.64565400  0.49222700  0.93212000  1
  O  O22  1  0.50777300  0.64565400  0.68212000  1
  O  O23  1  0.49222700  0.35434600  0.18212000  1
  O  O24  1  0.25330600  0.05633200  0.66560100  1
  O  O25  1  0.74669400  0.94366800  0.16560100  1
  O  O26  1  0.05633200  0.74669400  0.91560100  1
  O  O27  1  0.94366800  0.25330600  0.41560100  1
loop_
_geom_bond_atom_site_label_1
_geom_bond_atom_site_label_2
_geom_bond_distance
_geom_bond_site_symmetry_2
La0 O1 2.429039 1_565
La0 O16 2.484728 1_555
La0 O6 2.550509 1_555
La0 O24 2.556129 1_565
La0 O12 2.571746 1_555
La0 O8 2.616167 1_565
La0 O20 2.678117 1_555
La0 O22 2.718747 1_555
La0 O10 2.854130 1_555
La1 O0 2.429039 1_545
La1 O17 2.484728 1_554
La1 O7 2.550509 1_554
La1 O25 2.556129 1_545
La1 O13 2.571746 1_554
La1 O9 2.616167 1_544
La1 O21 2.678117 1_554
La1 O23 2.718747 1_555
La1 O11 2.854130 1_555
La2 O3 2.429039 1_655
La2 O18 2.484728 1_555
La2 O5 2.550509 1_555
La2 O26 2.556129 1_655
La2 O14 2.571746 1_555
La2 O10 2.616167 1_655
La2 O22 2.678117 1_555
La2 O21 2.718747 1_555
La2 O9 2.854130 1_555
La3 O2 2.429039 1_455
La3 O19 2.484728 1_555
La3 O4 2.550509 1_555
La3 O27 2.556129 1_455
La3 O15 2.571746 1_555
La3 O11 2.616167 1_455
La3 O23 2.678117 1_555
La3 O20 2.718747 1_555
La3 O8 2.854130 1_555
H4 O24 0.987859 1_555
H5 O25 0.987860 1_555
H6 O26 0.987859 1_555
H7 O27 0.987860 1_555
H8 O24 0.979901 1_555
H9 O25 0.979901 1_555
H10 O26 0.979901 1_555
H11 O27 0.979901 1_555
C0 H0 1.101893 1_555
C0 O8 1.271655 1_555
C0 O20 1.275093 1_555
C1 H1 1.101893 1_556
C1 O9 1.271655 1_555
C1 O21 1.275093 1_555
C2 H2 1.101893 1_555
C2 O10 1.271655 1_555
C2 O22 1.275093 1_555
C3 H3 1.101893 1_555
C3 O11 1.271655 1_555
C3 O23 1.275093 1_555
O0 S0 1.479623 1_555
O1 S1 1.479623 1_555
O2 S2 1.479623 1_555
O3 S3 1.479623 1_555
O4 S0 1.499303 1_545
O5 S1 1.499303 1_565
O6 S2 1.499303 1_455
O7 S3 1.499303 1_655
O12 S2 1.485272 1_555
O13 S3 1.485272 1_555
O14 S1 1.485272 1_555
O15 S0 1.485272 1_555
O16 S0 1.486396 1_555
O17 S1 1.486396 1_555
O18 S2 1.486396 1_555
O19 S3 1.486396 1_554
