# generated using pymatgen
data_Tb7Rh3
_symmetry_space_group_name_H-M   'P 1'
_cell_length_a   6.19766051
_cell_length_b   9.79902498
_cell_length_c   9.79899665
_cell_angle_alpha   120.00022492
_cell_angle_beta   90.00107083
_cell_angle_gamma   90.00095888
_symmetry_Int_Tables_number   1
_chemical_formula_structural   Tb7Rh3
_chemical_formula_sum   'Tb14 Rh6'
_cell_volume   515.37328705
_cell_formula_units_Z   2
loop_
 _symmetry_equiv_pos_site_id
 _symmetry_equiv_pos_as_xyz
  1  'x, y, z'
loop_
 _atom_site_type_symbol
 _atom_site_label
 _atom_site_symmetry_multiplicity
 _atom_site_fract_x
 _atom_site_fract_y
 _atom_site_fract_z
 _atom_site_occupancy
  Tb  Tb0  1  0.46163455  0.33337882  0.66665826  1
  Tb  Tb1  1  0.96164499  0.66662618  0.33334821  1
  Tb  Tb2  1  0.25373777  0.12379201  0.87625385  1
  Tb  Tb3  1  0.25371549  0.75242535  0.87618774  1
  Tb  Tb4  1  0.25373475  0.12383078  0.24756667  1
  Tb  Tb5  1  0.75373048  0.87624599  0.12373541  1
  Tb  Tb6  1  0.75371160  0.24753210  0.12379482  1
  Tb  Tb7  1  0.75372346  0.87620335  0.75248224  1
  Tb  Tb8  1  0.44202320  0.54105695  0.45894789  1
  Tb  Tb9  1  0.44208787  0.91788210  0.45894741  1
  Tb  Tb10  1  0.44204673  0.54105856  0.08212660  1
  Tb  Tb11  1  0.94202544  0.45887209  0.54111076  1
  Tb  Tb12  1  0.94209674  0.08225265  0.54111926  1
  Tb  Tb13  1  0.94204320  0.45887031  0.91774244  1
  Rh  Rh0  1  0.18133765  0.81056257  0.18941578  1
  Rh  Rh1  1  0.18133392  0.37887777  0.18948629  1
  Rh  Rh2  1  0.18135103  0.81050908  0.62113121  1
  Rh  Rh3  1  0.68134121  0.18950332  0.81049277  1
  Rh  Rh4  1  0.68134027  0.62095936  0.81042438  1
  Rh  Rh5  1  0.68133964  0.18956266  0.37902798  1
loop_
_geom_bond_atom_site_label_1
_geom_bond_atom_site_label_2
_geom_bond_distance
_geom_bond_site_symmetry_2
Rh0 Tb1 2.796736 1_455
Rh0 Tb10 2.813191 1_555
Rh0 Tb9 2.813432 1_555
Rh0 Tb3 2.863212 1_554
Rh0 Tb4 2.863557 1_565
Rh0 Tb5 2.875082 1_455
Rh1 Tb1 2.795863 1_455
Rh1 Tb8 2.812727 1_555
Rh1 Tb10 2.813370 1_555
Rh1 Tb4 2.862469 1_555
Rh1 Tb2 2.863249 1_554
Rh1 Tb6 2.875078 1_455
Rh2 Tb1 2.796091 1_455
Rh2 Tb8 2.812700 1_555
Rh2 Tb9 2.813573 1_555
Rh2 Tb3 2.862528 1_555
Rh2 Tb2 2.863641 1_565
Rh2 Tb7 2.875188 1_455
Rh3 Tb0 2.795599 1_555
Rh3 Tb13 2.812120 1_555
Rh3 Tb12 2.812427 1_555
Rh3 Tb6 2.864248 1_556
Rh3 Tb7 2.864329 1_545
Rh3 Tb2 2.875421 1_555
Rh4 Tb0 2.794598 1_555
Rh4 Tb11 2.811762 1_555
Rh4 Tb13 2.812399 1_555
Rh4 Tb7 2.863459 1_555
Rh4 Tb5 2.864358 1_556
Rh4 Tb3 2.875550 1_555
Rh5 Tb0 2.795031 1_555
Rh5 Tb11 2.811652 1_555
Rh5 Tb12 2.812544 1_555
Rh5 Tb6 2.863519 1_555
Rh5 Tb5 2.864447 1_545
Rh5 Tb4 2.875357 1_555
