# generated using pymatgen
data_UH2C(OF)3
_symmetry_space_group_name_H-M   'P 1'
_cell_length_a   6.26588400
_cell_length_b   8.63341582
_cell_length_c   9.28440056
_cell_angle_alpha   96.60522903
_cell_angle_beta   109.72107252
_cell_angle_gamma   90.00000000
_symmetry_Int_Tables_number   1
_chemical_formula_structural   UH2C(OF)3
_chemical_formula_sum   'U4 H8 C4 O12 F12'
_cell_volume   469.24708509
_cell_formula_units_Z   4
loop_
 _symmetry_equiv_pos_site_id
 _symmetry_equiv_pos_as_xyz
  1  'x, y, z'
loop_
 _atom_site_type_symbol
 _atom_site_label
 _atom_site_symmetry_multiplicity
 _atom_site_fract_x
 _atom_site_fract_y
 _atom_site_fract_z
 _atom_site_occupancy
  U  U0  1  0.71224300  0.87196300  0.65277900  1
  U  U1  1  0.05946400  0.62803700  0.34722100  1
  U  U2  1  0.28775700  0.12803700  0.34722100  1
  U  U3  1  0.94053600  0.37196300  0.65277900  1
  H  H0  1  0.39554000  0.81362900  0.83795700  1
  H  H1  1  0.55758300  0.68637100  0.16204300  1
  H  H2  1  0.60446000  0.18637100  0.16204300  1
  H  H3  1  0.44241700  0.31362900  0.83795700  1
  H  H4  1  0.38676900  0.66035200  0.72502900  1
  H  H5  1  0.66174000  0.83964800  0.27497100  1
  H  H6  1  0.61323100  0.33964800  0.27497100  1
  H  H7  1  0.33826000  0.16035200  0.72502900  1
  C  C0  1  0.89448600  0.03997400  0.00887200  1
  C  C1  1  0.88561400  0.46002600  0.99112800  1
  C  C2  1  0.10551400  0.96002600  0.99112800  1
  C  C3  1  0.11438600  0.53997400  0.00887200  1
  O  O0  1  0.71166900  0.01513900  0.89644400  1
  O  O1  1  0.81522500  0.48486100  0.10355600  1
  O  O2  1  0.28833100  0.98486100  0.10355600  1
  O  O3  1  0.18477500  0.51513900  0.89644400  1
  O  O4  1  0.07914900  0.87458600  0.86439000  1
  O  O5  1  0.21475900  0.62541400  0.13561000  1
  O  O6  1  0.92085100  0.12541400  0.13561000  1
  O  O7  1  0.78524100  0.37458600  0.86439000  1
  O  O8  1  0.48406400  0.75256800  0.78350000  1
  O  O9  1  0.70056400  0.74743200  0.21650000  1
  O  O10  1  0.51593600  0.24743200  0.21650000  1
  O  O11  1  0.29943600  0.25256800  0.78350000  1
  F  F0  1  0.95904700  0.78986100  0.52874300  1
  F  F1  1  0.43030300  0.71013900  0.47125700  1
  F  F2  1  0.04095300  0.21013900  0.47125700  1
  F  F3  1  0.56969700  0.28986100  0.52874300  1
  F  F4  1  0.40047900  0.02377100  0.59897200  1
  F  F5  1  0.80150600  0.47622900  0.40102800  1
  F  F6  1  0.59952100  0.97622900  0.40102800  1
  F  F7  1  0.19849400  0.52377100  0.59897200  1
  F  F8  1  0.88573700  0.10907100  0.68545400  1
  F  F9  1  0.20028300  0.39092900  0.31454600  1
  F  F10  1  0.11426300  0.89092900  0.31454600  1
  F  F11  1  0.79971700  0.60907100  0.68545400  1
loop_
_geom_bond_atom_site_label_1
_geom_bond_atom_site_label_2
_geom_bond_distance
_geom_bond_site_symmetry_2
H0 O8 0.984458 1_555
H1 O9 0.984458 1_555
H2 O10 0.984458 1_555
H3 O11 0.984458 1_555
H4 O8 0.988645 1_555
H5 O9 0.988645 1_555
H6 O10 0.988645 1_555
H7 O11 0.988645 1_555
C0 O0 1.260668 1_554
C0 O6 1.274803 1_555
C1 O1 1.260668 1_556
C1 O7 1.274803 1_555
C2 O2 1.260668 1_556
C2 O4 1.274803 1_555
C3 O3 1.260668 1_554
C3 O5 1.274803 1_555
O0 U0 2.451130 1_545
O1 U1 2.451130 1_655
O2 U2 2.451130 1_565
O3 U3 2.451130 1_455
O4 U0 2.467247 1_455
O5 U1 2.467247 1_555
O6 U2 2.467247 1_655
O7 U3 2.467247 1_555
O8 U0 2.457347 1_555
O9 U1 2.457347 1_655
O10 U2 2.457347 1_555
O11 U3 2.457347 1_455
F0 U0 2.287838 1_555
F0 U1 2.315610 1_655
F1 U1 2.287833 1_555
F1 U0 2.315614 1_555
F2 U2 2.287838 1_555
F2 U3 2.315610 1_455
F3 U3 2.287833 1_555
F3 U2 2.315614 1_555
F4 H7 1.703703 1_555
F4 U0 2.296820 1_545
F4 U2 2.478367 1_555
F5 H6 1.703700 1_555
F5 U1 2.296825 1_655
F5 U3 2.478367 1_555
F6 H5 1.703703 1_555
F6 U2 2.296820 1_565
F6 U0 2.478367 1_555
F7 H4 1.703700 1_555
F7 U3 2.296825 1_455
F7 U1 2.478367 1_555
F8 U0 2.258050 1_545
F8 U3 2.364312 1_555
F9 U1 2.258050 1_555
F9 U2 2.364312 1_555
F10 U2 2.258050 1_565
F10 U1 2.364312 1_555
F11 U3 2.258050 1_555
F11 U0 2.364312 1_555
