# generated using pymatgen
data_Na2MnO2
_symmetry_space_group_name_H-M   'P 1'
_cell_length_a   5.83102550
_cell_length_b   10.10897249
_cell_length_c   6.01284120
_cell_angle_alpha   102.91720770
_cell_angle_beta   118.72947333
_cell_angle_gamma   73.09192762
_symmetry_Int_Tables_number   1
_chemical_formula_structural   Na2MnO2
_chemical_formula_sum   'Na8 Mn4 O8'
_cell_volume   295.88004360
_cell_formula_units_Z   4
loop_
 _symmetry_equiv_pos_site_id
 _symmetry_equiv_pos_as_xyz
  1  'x, y, z'
loop_
 _atom_site_type_symbol
 _atom_site_label
 _atom_site_symmetry_multiplicity
 _atom_site_fract_x
 _atom_site_fract_y
 _atom_site_fract_z
 _atom_site_occupancy
  Na  Na0  1  0.22392800  0.32645400  0.97945200  1
  Na  Na1  1  0.72393400  0.82647300  0.47944100  1
  Na  Na2  1  0.17845200  0.57708500  0.73131500  1
  Na  Na3  1  0.67842700  0.07710800  0.23131300  1
  Na  Na4  1  0.82157300  0.42289200  0.26868700  1
  Na  Na5  1  0.32154800  0.92291500  0.76868500  1
  Na  Na6  1  0.77606600  0.67352700  0.02055900  1
  Na  Na7  1  0.27607200  0.17354600  0.52054800  1
  Mn  Mn0  1  0.37740800  0.62255000  0.37722200  1
  Mn  Mn1  1  0.12259200  0.87745000  0.12277700  1
  Mn  Mn2  1  0.87740600  0.12256300  0.87722500  1
  Mn  Mn3  1  0.62259500  0.37743700  0.62277600  1
  O  O0  1  0.76727700  0.54918700  0.64772500  1
  O  O1  1  0.26725900  0.04922200  0.14771600  1
  O  O2  1  0.41542500  0.70145600  0.10444000  1
  O  O3  1  0.91543200  0.20145500  0.60443700  1
  O  O4  1  0.58456800  0.29854500  0.89556300  1
  O  O5  1  0.08457500  0.79854400  0.39556000  1
  O  O6  1  0.23274100  0.45077800  0.35228400  1
  O  O7  1  0.73272300  0.95081300  0.85227500  1
loop_
_geom_bond_atom_site_label_1
_geom_bond_atom_site_label_2
_geom_bond_distance
_geom_bond_site_symmetry_2
Na0 O6 2.296718 1_556
Na0 O4 2.316727 1_555
Na0 O3 2.462923 1_455
Na1 O7 2.296822 1_555
Na1 O5 2.316664 1_655
Na1 O2 2.463013 1_555
Na2 O0 2.291717 1_455
Na2 O2 2.300583 1_556
Na2 O6 2.466182 1_555
Na3 O1 2.291618 1_555
Na3 O3 2.300511 1_555
Na3 O7 2.466203 1_544
Na4 O6 2.291618 1_655
Na4 O4 2.300511 1_554
Na4 O0 2.466203 1_555
Na5 O7 2.291717 1_555
Na5 O5 2.300583 1_555
Na5 O1 2.466182 1_566
Na6 O0 2.296822 1_554
Na6 O2 2.316664 1_555
Na6 O5 2.463013 1_655
Na7 O1 2.296718 1_555
Na7 O3 2.316727 1_455
Na7 O4 2.462923 1_555
Mn0 O6 2.088853 1_555
Mn0 O0 2.089858 1_555
Mn0 O2 2.100706 1_555
Mn0 O5 2.102207 1_555
Mn1 O1 2.088851 1_565
Mn1 O7 2.089856 1_454
Mn1 O5 2.100711 1_555
Mn1 O2 2.102206 1_555
Mn2 O7 2.088680 1_545
Mn2 O1 2.089729 1_656
Mn2 O3 2.100687 1_555
Mn2 O4 2.102152 1_555
Mn3 O0 2.088679 1_555
Mn3 O6 2.089735 1_555
Mn3 O4 2.100685 1_555
Mn3 O3 2.102150 1_555
