# generated using pymatgen
data_Mg4Si3
_symmetry_space_group_name_H-M   'P 1'
_cell_length_a   5.32213500
_cell_length_b   5.73373575
_cell_length_c   9.07318349
_cell_angle_alpha   101.86232246
_cell_angle_beta   102.94150854
_cell_angle_gamma   96.12402820
_symmetry_Int_Tables_number   1
_chemical_formula_structural   Mg4Si3
_chemical_formula_sum   'Mg8 Si6'
_cell_volume   260.67205621
_cell_formula_units_Z   2
loop_
 _symmetry_equiv_pos_site_id
 _symmetry_equiv_pos_as_xyz
  1  'x, y, z'
loop_
 _atom_site_type_symbol
 _atom_site_label
 _atom_site_symmetry_multiplicity
 _atom_site_fract_x
 _atom_site_fract_y
 _atom_site_fract_z
 _atom_site_occupancy
  Mg  Mg0  1  0.85881700  0.34606900  0.71271500  1
  Mg  Mg1  1  0.01728200  0.80040200  0.59448600  1
  Mg  Mg2  1  0.39766400  0.15614700  0.21582100  1
  Mg  Mg3  1  0.72244800  0.34828100  0.01383200  1
  Mg  Mg4  1  0.98271800  0.19959800  0.40551400  1
  Mg  Mg5  1  0.27755200  0.65171900  0.98616800  1
  Mg  Mg6  1  0.14118300  0.65393100  0.28728500  1
  Mg  Mg7  1  0.60233600  0.84385300  0.78417900  1
  Si  Si0  1  0.14393500  0.09423100  0.90608600  1
  Si  Si1  1  0.35294400  0.31582300  0.71364600  1
  Si  Si2  1  0.50000000  0.50000000  0.50000000  1
  Si  Si3  1  0.85606500  0.90576900  0.09391400  1
  Si  Si4  1  0.50000000  0.00000000  0.50000000  1
  Si  Si5  1  0.64705600  0.68417700  0.28635400  1
loop_
_geom_bond_atom_site_label_1
_geom_bond_atom_site_label_2
_geom_bond_distance
_geom_bond_site_symmetry_2
Mg0 Si1 2.652171 1_655
Mg0 Si1 2.681404 1_555
Mg0 Si4 2.697272 1_555
Mg0 Si2 2.749511 1_555
Mg0 Si0 2.789708 1_655
Mg1 Si0 2.869091 1_565
Mg1 Si2 2.933427 1_455
Mg1 Si5 2.937543 1_455
Mg1 Si4 3.067158 1_565
Mg1 Si4 3.105222 1_465
Mg1 Si1 3.128716 1_565
Mg2 Si0 2.763148 1_554
Mg2 Si2 2.807816 1_555
Mg2 Si4 2.858406 1_555
Mg2 Si3 2.937548 1_445
Mg2 Si5 3.050101 1_555
Mg2 Si3 3.246462 1_545
Mg2 Si5 3.254599 1_545
Mg3 Si3 2.895294 1_545
Mg3 Si1 2.938470 1_554
Mg3 Si5 2.938647 1_555
Mg3 Si0 3.033731 1_654
Mg3 Si3 3.095141 1_555
Mg3 Si0 3.109142 1_554
Mg4 Si3 2.869091 1_545
Mg4 Si2 2.933427 1_655
Mg4 Si1 2.937543 1_655
Mg4 Si4 3.067158 1_555
Mg4 Si4 3.105222 1_655
Mg4 Si5 3.128716 1_545
Mg5 Si0 2.895294 1_565
Mg5 Si5 2.938470 1_556
Mg5 Si1 2.938647 1_555
Mg5 Si3 3.033731 1_456
Mg5 Si0 3.095141 1_555
Mg5 Si3 3.109142 1_556
Mg6 Si5 2.652171 1_455
Mg6 Si5 2.681404 1_555
Mg6 Si4 2.697272 1_565
Mg6 Si2 2.749511 1_555
Mg6 Si3 2.789708 1_455
Mg7 Si3 2.763148 1_556
Mg7 Si2 2.807816 1_555
Mg7 Si4 2.858406 1_565
Mg7 Si0 2.937548 1_665
Mg7 Si1 3.050101 1_555
Mg7 Si0 3.246462 1_565
Mg7 Si1 3.254599 1_565
Si0 Si1 2.716762 1_555
Si0 Si3 2.827118 1_446
Si1 Si2 2.613445 1_555
Si1 Si4 2.681062 1_555
Si2 Si5 2.613445 1_555
Si2 Si4 2.866868 1_555
Si2 Si4 2.866868 1_565
Si3 Si5 2.716762 1_555
Si4 Si5 2.681062 1_545
