# generated using pymatgen
data_Mg6AlMo
_symmetry_space_group_name_H-M   'P 1'
_cell_length_a   4.95844400
_cell_length_b   5.90356300
_cell_length_c   10.76531500
_cell_angle_alpha   90.00000000
_cell_angle_beta   90.00000000
_cell_angle_gamma   90.00000000
_symmetry_Int_Tables_number   1
_chemical_formula_structural   Mg6AlMo
_chemical_formula_sum   'Mg12 Al2 Mo2'
_cell_volume   315.12753839
_cell_formula_units_Z   2
loop_
 _symmetry_equiv_pos_site_id
 _symmetry_equiv_pos_as_xyz
  1  'x, y, z'
loop_
 _atom_site_type_symbol
 _atom_site_label
 _atom_site_symmetry_multiplicity
 _atom_site_fract_x
 _atom_site_fract_y
 _atom_site_fract_z
 _atom_site_occupancy
  Mg  Mg0  1  0.50000000  0.25118200  0.41951000  1
  Mg  Mg1  1  0.50000000  0.74881800  0.41951000  1
  Mg  Mg2  1  0.00000000  0.74041000  0.08567200  1
  Mg  Mg3  1  0.00000000  0.25959000  0.08567200  1
  Mg  Mg4  1  0.00000000  0.00000000  0.32856300  1
  Mg  Mg5  1  0.00000000  0.50000000  0.32229700  1
  Mg  Mg6  1  0.50000000  0.75118200  0.91951000  1
  Mg  Mg7  1  0.50000000  0.24881800  0.91951000  1
  Mg  Mg8  1  0.00000000  0.24041000  0.58567200  1
  Mg  Mg9  1  0.00000000  0.75959000  0.58567200  1
  Mg  Mg10  1  0.00000000  0.50000000  0.82856300  1
  Mg  Mg11  1  0.00000000  0.00000000  0.82229700  1
  Al  Al0  1  0.50000000  0.00000000  0.16754800  1
  Al  Al1  1  0.50000000  0.50000000  0.66754800  1
  Mo  Mo0  1  0.50000000  0.50000000  0.17122400  1
  Mo  Mo1  1  0.50000000  0.00000000  0.67122400  1
loop_
_geom_bond_atom_site_label_1
_geom_bond_atom_site_label_2
_geom_bond_distance
_geom_bond_site_symmetry_2
Mg0 Mg1 2.937825 1_555
Mg0 Mg1 2.965738 1_545
Mg0 Mo0 3.049914 1_555
Mg0 Mg4 3.050250 1_655
Mg0 Mg4 3.050250 1_555
Mg0 Mg8 3.057833 1_555
Mg0 Mg8 3.057833 1_655
Mg0 Mg5 3.065855 1_555
Mg0 Mg5 3.065855 1_655
Mg0 Mo1 3.088982 1_555
Mg1 Mo0 3.049914 1_555
Mg1 Mg4 3.050250 1_565
Mg1 Mg4 3.050250 1_665
Mg1 Mg9 3.057833 1_555
Mg1 Mg9 3.057833 1_655
Mg1 Mg5 3.065855 1_555
Mg1 Mg5 3.065855 1_655
Mg1 Mo1 3.088982 1_565
Mg2 Mg3 2.838551 1_555
Mg2 Mg5 2.916041 1_555
Mg2 Mo0 3.001519 1_555
Mg2 Mo0 3.001519 1_455
Mg2 Mg4 3.030799 1_565
Mg2 Mg6 3.057833 1_554
Mg2 Mg6 3.057833 1_454
Mg2 Mg3 3.065012 1_565
Mg3 Mg5 2.916041 1_555
Mg3 Mo0 3.001519 1_555
Mg3 Mo0 3.001519 1_455
Mg3 Mg4 3.030799 1_555
Mg3 Mg7 3.057833 1_554
Mg3 Mg7 3.057833 1_454
Mg4 Mg5 2.952552 1_545
Mg4 Mg5 2.952552 1_555
Mg4 Mg9 3.110529 1_545
Mg4 Mg8 3.110529 1_555
Mg5 Mo0 2.965055 1_455
Mg5 Mo0 2.965055 1_555
Mg5 Mg9 3.222978 1_555
Mg5 Mg8 3.222978 1_555
Mg6 Mg7 2.937825 1_565
Mg6 Mg7 2.965738 1_555
Mg6 Mo1 3.049914 1_565
Mg6 Mo0 3.088982 1_556
Mg7 Mo1 3.049914 1_555
Mg7 Mo0 3.088982 1_556
Mg8 Mg9 2.838551 1_545
Mg8 Mo1 3.001519 1_455
Mg8 Mo1 3.001519 1_555
Mg8 Mg9 3.065012 1_555
Mg9 Mo1 3.001519 1_565
Mg9 Mo1 3.001519 1_465
Mg10 Mg11 2.952552 1_565
Mg10 Mg11 2.952552 1_555
Mg10 Mg9 3.030799 1_555
Mg10 Mg8 3.030799 1_555
Mg10 Mg7 3.050250 1_555
Mg10 Mg6 3.050250 1_455
Mg10 Mg6 3.050250 1_555
Mg10 Mg7 3.050250 1_455
Mg10 Mg3 3.110529 1_556
Mg10 Mg2 3.110529 1_556
Mg11 Mg9 2.916041 1_545
Mg11 Mg8 2.916041 1_555
Mg11 Mo1 2.965055 1_455
Mg11 Mo1 2.965055 1_555
Mg11 Mg6 3.065855 1_445
Mg11 Mg7 3.065855 1_455
Mg11 Mg6 3.065855 1_545
Mg11 Mg7 3.065855 1_555
Mg11 Mg3 3.222978 1_556
Mg11 Mg2 3.222978 1_546
Al0 Mo0 2.952047 1_555
Al0 Mo0 2.952047 1_545
Al0 Mg4 3.025085 1_555
Al0 Mg4 3.025085 1_655
Al0 Mg3 3.044999 1_655
Al0 Mg2 3.044999 1_645
Al0 Mg2 3.044999 1_545
Al0 Mg3 3.044999 1_555
Al0 Mg6 3.047575 1_544
Al0 Mg7 3.047575 1_554
Al0 Mg1 3.091324 1_545
Al0 Mg0 3.091324 1_555
Al1 Mo1 2.952047 1_555
Al1 Mo1 2.952047 1_565
Al1 Mg10 3.025085 1_655
Al1 Mg10 3.025085 1_555
Al1 Mg9 3.044999 1_555
Al1 Mg8 3.044999 1_655
Al1 Mg9 3.044999 1_655
Al1 Mg8 3.044999 1_555
Al1 Mg1 3.047575 1_555
Al1 Mg0 3.047575 1_555
Al1 Mg7 3.091324 1_555
Al1 Mg6 3.091324 1_555
