# generated using pymatgen
data_LiThF5
_symmetry_space_group_name_H-M   'P 1'
_cell_length_a   11.16282743
_cell_length_b   11.16282743
_cell_length_c   11.16282743
_cell_angle_alpha   94.97247945
_cell_angle_beta   94.97247945
_cell_angle_gamma   145.75567886
_symmetry_Int_Tables_number   1
_chemical_formula_structural   LiThF5
_chemical_formula_sum   'Li8 Th8 F40'
_cell_volume   748.04795157
_cell_formula_units_Z   8
loop_
 _symmetry_equiv_pos_site_id
 _symmetry_equiv_pos_as_xyz
  1  'x, y, z'
loop_
 _atom_site_type_symbol
 _atom_site_label
 _atom_site_symmetry_multiplicity
 _atom_site_fract_x
 _atom_site_fract_y
 _atom_site_fract_z
 _atom_site_occupancy
  Li  Li0  1  0.29166305  0.43034077  0.01963945  1
  Li  Li1  1  0.41070132  0.27202360  0.98036055  1
  Li  Li2  1  0.83929868  0.47797640  0.51963945  1
  Li  Li3  1  0.95833695  0.31965923  0.48036055  1
  Li  Li4  1  0.72797640  0.70833695  0.13867772  1
  Li  Li5  1  0.56965923  0.58929868  0.86132228  1
  Li  Li6  1  0.68034077  0.16070132  0.63867772  1
  Li  Li7  1  0.52202360  0.04166305  0.36132228  1
  Th  Th0  1  0.43542453  0.68144576  0.36716919  1
  Th  Th1  1  0.31427657  0.06825534  0.63283081  1
  Th  Th2  1  0.93572343  0.68174466  0.86716919  1
  Th  Th3  1  0.81457547  0.06855424  0.13283081  1
  Th  Th4  1  0.93174466  0.56457547  0.24602123  1
  Th  Th5  1  0.31855424  0.68572343  0.75397877  1
  Th  Th6  1  0.93144576  0.06427657  0.74602123  1
  Th  Th7  1  0.31825534  0.18542453  0.25397877  1
  F  F0  1  0.70081755  0.83465322  0.27124952  1
  F  F1  1  0.56340371  0.42956703  0.72875048  1
  F  F2  1  0.68659629  0.32043297  0.77124952  1
  F  F3  1  0.54918245  0.91534678  0.22875048  1
  F  F4  1  0.57043297  0.29918245  0.13383667  1
  F  F5  1  0.16534678  0.43659629  0.86616333  1
  F  F6  1  0.08465322  0.31340371  0.63383667  1
  F  F7  1  0.67956703  0.45081755  0.36616333  1
  F  F8  1  0.39685610  0.44202293  0.36031387  1
  F  F9  1  0.08170906  0.03654223  0.63968613  1
  F  F10  1  0.16829094  0.71345777  0.86031387  1
  F  F11  1  0.85314390  0.30797707  0.13968613  1
  F  F12  1  0.96345777  0.60314390  0.04516683  1
  F  F13  1  0.55797707  0.91829094  0.95483317  1
  F  F14  1  0.69202293  0.83170906  0.54516683  1
  F  F15  1  0.28654223  0.14685610  0.45483317  1
  F  F16  1  0.65758031  0.03085785  0.47469918  1
  F  F17  1  0.55615867  0.18288114  0.52530082  1
  F  F18  1  0.69384133  0.56711886  0.97469918  1
  F  F19  1  0.59241969  0.71914215  0.02530082  1
  F  F20  1  0.81711886  0.34241969  0.37327754  1
  F  F21  1  0.96914215  0.44384133  0.62672246  1
  F  F22  1  0.28085785  0.30615867  0.87327754  1
  F  F23  1  0.43288114  0.40758031  0.12672246  1
  F  F24  1  0.21170090  0.44643294  0.15870202  1
  F  F25  1  0.28773092  0.05299888  0.84129798  1
  F  F26  1  0.96226908  0.69700112  0.65870202  1
  F  F27  1  0.03829910  0.30356706  0.34129798  1
  F  F28  1  0.94700112  0.78829910  0.23473204  1
  F  F29  1  0.55356706  0.71226908  0.76526796  1
  F  F30  1  0.69643294  0.03773092  0.73473204  1
  F  F31  1  0.30299888  0.96170090  0.26526796  1
  F  F32  1  0.30536110  0.63380936  0.54046810  1
  F  F33  1  0.09334126  0.76489401  0.45953190  1
  F  F34  1  0.15665874  0.98510599  0.04046810  1
  F  F35  1  0.94463890  0.11619064  0.95953190  1
  F  F36  1  0.23510599  0.69463890  0.32844826  1
  F  F37  1  0.36619064  0.90665874  0.67155174  1
  F  F38  1  0.88380936  0.84334126  0.82844826  1
  F  F39  1  0.01489401  0.05536110  0.17155174  1
loop_
_geom_bond_atom_site_label_1
_geom_bond_atom_site_label_2
_geom_bond_distance
_geom_bond_site_symmetry_2
F0 Li4 2.166326 1_555
F0 Th0 2.310570 1_555
F0 Th3 2.524913 1_565
F1 Li5 2.166335 1_555
F1 Th1 2.310562 1_555
F1 Th2 2.524909 1_555
F2 Li6 2.166335 1_555
F2 Th2 2.310562 1_555
F2 Th1 2.524909 1_555
F3 Li7 2.166326 1_565
F3 Th3 2.310570 1_565
F3 Th0 2.524913 1_555
F4 Li1 2.166341 1_554
F4 Th4 2.310559 1_555
F4 Th7 2.524913 1_555
F5 Li0 2.166334 1_556
F5 Th5 2.310562 1_555
F5 Th6 2.524909 1_455
F6 Li3 2.166334 1_455
F6 Th6 2.310562 1_455
F6 Th5 2.524909 1_555
F7 Li2 2.166341 1_555
F7 Th7 2.310559 1_555
F7 Th4 2.524913 1_555
F8 Th0 2.321779 1_555
F8 Th7 2.336315 1_555
F9 Th1 2.321779 1_555
F9 Th6 2.336315 1_455
F10 Th2 2.321779 1_455
F10 Th5 2.336315 1_555
F11 Th3 2.321779 1_555
F11 Th4 2.336315 1_555
F12 Th4 2.321779 1_555
F12 Th2 2.336315 1_554
F13 Th5 2.321779 1_555
F13 Th3 2.336315 1_566
F14 Th6 2.321779 1_565
F14 Th0 2.336315 1_555
F15 Th7 2.321779 1_555
F15 Th1 2.336315 1_555
F16 Li3 1.924128 1_555
F16 Li7 1.975423 1_555
F16 Li6 2.089638 1_555
F16 Th0 2.341941 1_545
F17 Li2 1.924128 1_555
F17 Li6 1.975423 1_555
F17 Li7 2.089638 1_555
F17 Th1 2.341941 1_555
F18 Li1 1.924128 1_555
F18 Li5 1.975423 1_555
F18 Li4 2.089638 1_556
F18 Th2 2.341941 1_555
F19 Li0 1.924128 1_555
F19 Li4 1.975423 1_555
F19 Li5 2.089638 1_554
F19 Th3 2.341941 1_565
F20 Li7 1.924128 1_555
F20 Li2 1.975423 1_555
F20 Li3 2.089638 1_555
F20 Th4 2.341941 1_555
F21 Li6 1.924128 1_555
F21 Li3 1.975423 1_555
F21 Li2 2.089638 1_555
F21 Th5 2.341941 1_655
F22 Li5 1.924128 1_555
F22 Li0 1.975423 1_556
F22 Li1 2.089638 1_555
F22 Th6 2.341941 1_455
F23 Li4 1.924128 1_555
F23 Li1 1.975423 1_554
F23 Li0 2.089638 1_555
F23 Th7 2.341941 1_555
F24 Li0 1.922420 1_555
F24 Th0 2.374223 1_555
F24 Th3 2.485902 1_455
F25 Li1 1.922420 1_555
F25 Th1 2.374223 1_555
F25 Th2 2.485902 1_445
F26 Li2 1.922420 1_555
F26 Th2 2.374223 1_555
F26 Th1 2.485902 1_665
F27 Li3 1.922420 1_455
F27 Th3 2.374223 1_455
F27 Th0 2.485902 1_555
F28 Li4 1.922420 1_555
F28 Th4 2.374223 1_555
F28 Th7 2.485902 1_665
F29 Li5 1.922420 1_555
F29 Th5 2.374223 1_555
F29 Th6 2.485902 1_565
F30 Li6 1.922420 1_555
F30 Th6 2.374223 1_555
F30 Th5 2.485902 1_545
F31 Li7 1.922420 1_565
F31 Th7 2.374223 1_565
F31 Th4 2.485902 1_455
F32 Li3 2.106247 1_455
F32 Th0 2.349857 1_555
F32 Th5 2.365723 1_555
F33 Li2 2.106252 1_455
F33 Th1 2.349851 1_565
F33 Th4 2.365726 1_455
F34 Li1 2.106252 1_564
F34 Th2 2.349851 1_454
F34 Th7 2.365726 1_565
F35 Li0 2.106247 1_656
F35 Th3 2.349857 1_556
F35 Th6 2.365723 1_555
F36 Li7 2.106247 1_565
F36 Th4 2.349847 1_455
F36 Th0 2.365734 1_555
F37 Li6 2.106247 1_565
F37 Th5 2.349857 1_555
F37 Th1 2.365723 1_565
F38 Li5 2.106247 1_555
F38 Th6 2.349857 1_565
F38 Th2 2.365723 1_555
F39 Li4 2.106247 1_445
F39 Th7 2.349847 1_555
F39 Th3 2.365734 1_455
