# generated using pymatgen
data_MgTl4V4(TeO5)4
_symmetry_space_group_name_H-M   'P 1'
_cell_length_a   7.12814891
_cell_length_b   8.05265155
_cell_length_c   9.35720501
_cell_angle_alpha   86.88549833
_cell_angle_beta   87.89648595
_cell_angle_gamma   88.82898211
_symmetry_Int_Tables_number   1
_chemical_formula_structural   MgTl4V4(TeO5)4
_chemical_formula_sum   'Mg1 Tl4 V4 Te4 O20'
_cell_volume   535.86195929
_cell_formula_units_Z   1
loop_
 _symmetry_equiv_pos_site_id
 _symmetry_equiv_pos_as_xyz
  1  'x, y, z'
loop_
 _atom_site_type_symbol
 _atom_site_label
 _atom_site_symmetry_multiplicity
 _atom_site_fract_x
 _atom_site_fract_y
 _atom_site_fract_z
 _atom_site_occupancy
  Mg  Mg0  1  0.86256100  0.16374500  0.99764100  1
  Tl  Tl0  1  0.05720300  0.81589600  0.87943300  1
  Tl  Tl1  1  0.48578800  0.90014100  0.60071600  1
  Tl  Tl2  1  0.51177400  0.41041200  0.40882000  1
  Tl  Tl3  1  0.04728500  0.44143900  0.14554600  1
  V  V0  1  0.30049100  0.79246100  0.26029200  1
  V  V1  1  0.18491200  0.30591200  0.75150500  1
  V  V2  1  0.80789700  0.79919800  0.23848800  1
  V  V3  1  0.68677900  0.28801800  0.73820100  1
  Te  Te0  1  0.97368900  0.08999900  0.47279200  1
  Te  Te1  1  0.99693400  0.60852500  0.53232700  1
  Te  Te2  1  0.54393800  0.58662900  0.98281900  1
  Te  Te3  1  0.44117100  0.09186200  0.03331800  1
  O  O0  1  0.93701500  0.24481000  0.80582600  1
  O  O1  1  0.12493100  0.01778000  0.62285300  1
  O  O2  1  0.07603400  0.74020600  0.18106500  1
  O  O3  1  0.86128000  0.55977700  0.36998600  1
  O  O4  1  0.25564800  0.98984600  0.30374800  1
  O  O5  1  0.55018300  0.77476500  0.30254100  1
  O  O6  1  0.87816400  0.86992200  0.43769900  1
  O  O7  1  0.20272300  0.49114400  0.82433800  1
  O  O8  1  0.41710300  0.25261100  0.69931200  1
  O  O9  1  0.63855300  0.35996300  0.95948900  1
  O  O10  1  0.21525800  0.14603400  0.93249300  1
  O  O11  1  0.38881900  0.53057100  0.14482100  1
  O  O12  1  0.76394100  0.65704800  0.07430000  1
  O  O13  1  0.38492600  0.85856600  0.05116900  1
  O  O14  1  0.73985500  0.14870900  0.57457200  1
  O  O15  1  0.70409400  0.48881000  0.67115700  1
  O  O16  1  0.63368300  0.06239400  0.88770200  1
  O  O17  1  0.81280000  0.00126100  0.16005600  1
  O  O18  1  0.23677300  0.66509400  0.43317000  1
  O  O19  1  0.09922700  0.37778200  0.56466300  1
loop_
_geom_bond_atom_site_label_1
_geom_bond_atom_site_label_2
_geom_bond_distance
_geom_bond_site_symmetry_2
Mg0 O0 1.935512 1_555
Mg0 O17 1.977564 1_556
Mg0 O16 2.157530 1_555
Mg0 O9 2.247479 1_555
Mg0 O10 2.568039 1_655
Mg0 Tl3 3.039751 1_656
O0 V1 1.888210 1_655
O0 V3 1.933053 1_555
O1 Te0 1.862488 1_455
O1 Tl1 2.727515 1_545
O2 V0 1.853382 1_555
O2 V2 2.020583 1_455
O2 Tl3 2.460222 1_555
O3 Te1 1.893354 1_555
O3 V2 2.263295 1_555
O3 Tl3 2.652920 1_655
O3 Tl2 2.791772 1_555
O4 V0 1.683409 1_555
O5 V0 1.838368 1_555
O5 V2 1.921907 1_555
O6 Te0 1.959886 1_565
O6 V2 2.060459 1_555
O6 Te1 2.389813 1_555
O7 V1 1.682269 1_555
O8 V1 1.759680 1_555
O8 V3 1.998484 1_555
O9 Te2 1.953527 1_555
O9 V3 2.193471 1_555
O9 Te3 2.647357 1_556
O10 Te3 1.926569 1_556
O10 V1 2.085897 1_555
O11 Te2 1.883423 1_554
O11 V0 2.480878 1_555
O11 Tl3 2.551804 1_555
O11 Tl2 2.769709 1_555
O12 Te2 1.923860 1_554
O12 V2 2.002477 1_555
O12 Tl3 2.714390 1_655
O13 Te3 1.926069 1_565
O13 V0 2.070785 1_555
O13 Te2 2.546877 1_554
O14 Te0 1.951654 1_555
O14 V3 1.967906 1_555
O14 Tl1 2.721880 1_545
O15 V3 1.707465 1_555
O15 Te1 2.592542 1_555
O16 Te3 1.918468 1_556
O16 V3 2.261476 1_555
O17 V2 1.748745 1_545
O18 V0 1.913075 1_555
O18 Te1 1.964841 1_455
O18 Tl2 2.820320 1_555
O19 V1 1.928368 1_555
O19 Te1 1.993856 1_455
