# generated using pymatgen
data_Ca2FeWO6
_symmetry_space_group_name_H-M   'P 1'
_cell_length_a   5.60093302
_cell_length_b   5.60093351
_cell_length_c   5.60093300
_cell_angle_alpha   59.99999714
_cell_angle_beta   59.99999423
_cell_angle_gamma   59.99999906
_symmetry_Int_Tables_number   1
_chemical_formula_structural   Ca2FeWO6
_chemical_formula_sum   'Ca2 Fe1 W1 O6'
_cell_volume   124.24134521
_cell_formula_units_Z   1
loop_
 _symmetry_equiv_pos_site_id
 _symmetry_equiv_pos_as_xyz
  1  'x, y, z'
loop_
 _atom_site_type_symbol
 _atom_site_label
 _atom_site_symmetry_multiplicity
 _atom_site_fract_x
 _atom_site_fract_y
 _atom_site_fract_z
 _atom_site_occupancy
  Ca  Ca0  1  0.25000000  0.25000000  0.25000100  1
  Ca  Ca1  1  0.74999900  0.75000100  0.75000100  1
  Fe  Fe0  1  0.50000100  0.50000000  0.49999900  1
  W  W0  1  0.00000000  0.00000000  0.00000000  1
  O  O0  1  0.24707700  0.75292500  0.75292400  1
  O  O1  1  0.24707700  0.75292500  0.24707400  1
  O  O2  1  0.75292500  0.24707600  0.75292400  1
  O  O3  1  0.24707700  0.24707600  0.75292300  1
  O  O4  1  0.75292500  0.24707600  0.24707500  1
  O  O5  1  0.75292300  0.75292500  0.24707600  1
loop_
_geom_bond_atom_site_label_1
_geom_bond_atom_site_label_2
_geom_bond_distance
_geom_bond_site_symmetry_2
Ca0 O3 2.800554 1_555
Ca0 O2 2.800556 1_455
Ca0 O0 2.800557 1_545
Ca0 O5 2.800557 1_545
Ca0 O4 2.800562 1_555
Ca0 O4 2.800562 1_455
Ca0 O1 2.800563 1_545
Ca0 O1 2.800563 1_555
Ca0 O2 2.800568 1_554
Ca0 O0 2.800568 1_554
Ca0 O5 2.800568 1_455
Ca0 O3 2.800571 1_554
Ca1 O1 2.800548 1_556
Ca1 O0 2.800554 1_555
Ca1 O3 2.800554 1_565
Ca1 O5 2.800557 1_556
Ca1 O4 2.800560 1_556
Ca1 O2 2.800560 1_565
Ca1 O4 2.800565 1_565
Ca1 O2 2.800565 1_555
Ca1 O5 2.800568 1_555
Ca1 O0 2.800571 1_655
Ca1 O3 2.800571 1_655
Ca1 O1 2.800576 1_655
Fe0 O5 2.003386 1_555
Fe0 O3 2.003390 1_555
Fe0 O4 2.003390 1_555
Fe0 O2 2.003394 1_555
Fe0 O1 2.003394 1_555
Fe0 O0 2.003398 1_555
O0 W0 1.957064 1_566
O1 W0 1.957064 1_565
O2 W0 1.957064 1_656
O3 W0 1.957072 1_556
O4 W0 1.957064 1_655
O5 W0 1.957068 1_665
