# generated using pymatgen
data_Mg2GeSe4
_symmetry_space_group_name_H-M   'P 1'
_cell_length_a   6.33803179
_cell_length_b   7.85449782
_cell_length_c   13.49953194
_cell_angle_alpha   90.00000000
_cell_angle_beta   90.00000000
_cell_angle_gamma   90.00000000
_symmetry_Int_Tables_number   1
_chemical_formula_structural   Mg2GeSe4
_chemical_formula_sum   'Mg8 Ge4 Se16'
_cell_volume   672.03446686
_cell_formula_units_Z   4
loop_
 _symmetry_equiv_pos_site_id
 _symmetry_equiv_pos_as_xyz
  1  'x, y, z'
loop_
 _atom_site_type_symbol
 _atom_site_label
 _atom_site_symmetry_multiplicity
 _atom_site_fract_x
 _atom_site_fract_y
 _atom_site_fract_z
 _atom_site_occupancy
  Mg  Mg0  1  0.49729994  0.25000000  0.76918772  1
  Mg  Mg1  1  0.00270006  0.25000000  0.26918772  1
  Mg  Mg2  1  0.50270006  0.75000000  0.23081228  1
  Mg  Mg3  1  0.99729994  0.75000000  0.73081228  1
  Mg  Mg4  1  -0.00000000  -0.00000000  0.00000000  1
  Mg  Mg5  1  0.50000000  0.50000000  0.50000000  1
  Mg  Mg6  1  -0.00000000  0.50000000  0.00000000  1
  Mg  Mg7  1  0.50000000  -0.00000000  0.50000000  1
  Ge  Ge0  1  0.58956522  0.25000000  0.08863134  1
  Ge  Ge1  1  0.91043478  0.25000000  0.58863134  1
  Ge  Ge2  1  0.41043478  0.75000000  0.91136866  1
  Ge  Ge3  1  0.08956522  0.75000000  0.41136866  1
  Se  Se0  1  0.22158227  0.25000000  0.09286373  1
  Se  Se1  1  0.27841773  0.25000000  0.59286373  1
  Se  Se2  1  0.77841773  0.75000000  0.90713627  1
  Se  Se3  1  0.72158227  0.75000000  0.40713627  1
  Se  Se4  1  0.75500177  0.01559384  0.16814791  1
  Se  Se5  1  0.74499823  0.48440616  0.66814791  1
  Se  Se6  1  0.24499823  0.51559384  0.83185209  1
  Se  Se7  1  0.25500177  0.98440616  0.33185209  1
  Se  Se8  1  0.24499823  0.98440616  0.83185209  1
  Se  Se9  1  0.25500177  0.51559384  0.33185209  1
  Se  Se10  1  0.75500177  0.48440616  0.16814791  1
  Se  Se11  1  0.74499823  0.01559384  0.66814791  1
  Se  Se12  1  0.74813579  0.25000000  0.92920491  1
  Se  Se13  1  0.75186421  0.25000000  0.42920491  1
  Se  Se14  1  0.25186421  0.75000000  0.07079509  1
  Se  Se15  1  0.24813579  0.75000000  0.57079509  1
loop_
_geom_bond_atom_site_label_1
_geom_bond_atom_site_label_2
_geom_bond_distance
_geom_bond_site_symmetry_2
Mg0 Se12 2.682119 1_555
Mg0 Se1 2.755057 1_555
Mg0 Se8 2.761261 1_545
Mg0 Se6 2.761261 1_555
Mg0 Se11 2.777575 1_555
Mg0 Se5 2.777575 1_555
Mg1 Se13 2.682119 1_455
Mg1 Se0 2.755057 1_555
Mg1 Se7 2.761261 1_545
Mg1 Se9 2.761261 1_555
Mg1 Se4 2.777575 1_455
Mg1 Se10 2.777575 1_455
Mg2 Se14 2.682119 1_555
Mg2 Se3 2.755057 1_555
Mg2 Se10 2.761261 1_555
Mg2 Se4 2.761261 1_565
Mg2 Se9 2.777575 1_555
Mg2 Se7 2.777575 1_555
Mg3 Se15 2.682119 1_655
Mg3 Se2 2.755057 1_555
Mg3 Se5 2.761261 1_555
Mg3 Se11 2.761261 1_565
Mg3 Se8 2.777575 1_655
Mg3 Se6 2.777575 1_655
Mg4 Se12 2.705075 1_454
Mg4 Se14 2.705075 1_545
Mg4 Se0 2.720240 1_555
Mg4 Se2 2.720240 1_444
Mg4 Se8 2.752951 1_544
Mg4 Se4 2.752951 1_455
Mg5 Se13 2.705075 1_555
Mg5 Se15 2.705075 1_555
Mg5 Se3 2.720240 1_555
Mg5 Se1 2.720240 1_555
Mg5 Se9 2.752951 1_555
Mg5 Se5 2.752951 1_555
Mg6 Se12 2.705075 1_454
Mg6 Se14 2.705075 1_555
Mg6 Se0 2.720240 1_555
Mg6 Se2 2.720240 1_454
Mg6 Se6 2.752951 1_554
Mg6 Se10 2.752951 1_455
Mg7 Se15 2.705075 1_545
Mg7 Se13 2.705075 1_555
Mg7 Se3 2.720240 1_545
Mg7 Se1 2.720240 1_555
Mg7 Se7 2.752951 1_545
Mg7 Se11 2.752951 1_555
Ge0 Se0 2.332987 1_555
Ge0 Se4 2.375187 1_555
Ge0 Se10 2.375187 1_555
Ge0 Se12 2.375282 1_554
Ge1 Se1 2.332987 1_655
Ge1 Se11 2.375187 1_555
Ge1 Se5 2.375187 1_555
Ge1 Se13 2.375282 1_555
Ge2 Se2 2.332987 1_555
Ge2 Se6 2.375187 1_555
Ge2 Se8 2.375187 1_555
Ge2 Se14 2.375282 1_556
Ge3 Se3 2.332987 1_455
Ge3 Se7 2.375187 1_555
Ge3 Se9 2.375187 1_555
Ge3 Se15 2.375282 1_555
