# generated using pymatgen
data_B3H4NO5
_symmetry_space_group_name_H-M   'P 1'
_cell_length_a   6.57429804
_cell_length_b   6.57429804
_cell_length_c   9.23530442
_cell_angle_alpha   80.00992931
_cell_angle_beta   80.00992931
_cell_angle_gamma   84.09910669
_symmetry_Int_Tables_number   1
_chemical_formula_structural   B3H4NO5
_chemical_formula_sum   'B12 H16 N4 O20'
_cell_volume   386.06064094
_cell_formula_units_Z   4
loop_
 _symmetry_equiv_pos_site_id
 _symmetry_equiv_pos_as_xyz
  1  'x, y, z'
loop_
 _atom_site_type_symbol
 _atom_site_label
 _atom_site_symmetry_multiplicity
 _atom_site_fract_x
 _atom_site_fract_y
 _atom_site_fract_z
 _atom_site_occupancy
  B  B0  1  0.79768722  0.79417948  0.73269998  1
  B  B1  1  0.20582052  0.20231278  0.76730002  1
  B  B2  1  0.20231278  0.20582052  0.26730002  1
  B  B3  1  0.79417948  0.79768722  0.23269998  1
  B  B4  1  0.92221312  0.43168389  0.68117964  1
  B  B5  1  0.56831611  0.07778688  0.81882036  1
  B  B6  1  0.07778688  0.56831611  0.31882036  1
  B  B7  1  0.43168389  0.92221312  0.18117964  1
  B  B8  1  0.03297232  0.11319681  0.56686347  1
  B  B9  1  0.88680319  0.96702768  0.93313653  1
  B  B10  1  0.96702768  0.88680319  0.43313653  1
  B  B11  1  0.11319681  0.03297232  0.06686347  1
  H  H0  1  0.14557643  0.63944900  0.89079692  1
  H  H1  1  0.36055100  0.85442357  0.60920308  1
  H  H2  1  0.85442357  0.36055100  0.10920308  1
  H  H3  1  0.63944900  0.14557643  0.39079692  1
  H  H4  1  0.30915992  0.67863863  0.00210564  1
  H  H5  1  0.32136137  0.69084008  0.49789436  1
  H  H6  1  0.69084008  0.32136137  -0.00210564  1
  H  H7  1  0.67863863  0.30915992  0.50210564  1
  H  H8  1  0.37632221  0.50401344  0.87738716  1
  H  H9  1  0.49598656  0.62367779  0.62261284  1
  H  H10  1  0.62367779  0.49598656  0.12261284  1
  H  H11  1  0.50401344  0.37632221  0.37738716  1
  H  H12  1  0.20095143  0.44714115  0.02508187  1
  H  H13  1  0.55285885  0.79904857  0.47491813  1
  H  H14  1  0.79904857  0.55285885  0.97491813  1
  H  H15  1  0.44714115  0.20095143  0.52508187  1
  N  N0  1  0.26223998  0.56927882  0.94891430  1
  N  N1  1  0.43072118  0.73776002  0.55108570  1
  N  N2  1  0.73776002  0.43072118  0.05108570  1
  N  N3  1  0.56927882  0.26223998  0.44891430  1
  O  O0  1  0.92657434  0.90913970  0.59625516  1
  O  O1  1  0.09086030  0.07342566  0.90374484  1
  O  O2  1  0.07342566  0.09086030  0.40374484  1
  O  O3  1  0.90913970  0.92657434  0.09625516  1
  O  O4  1  0.89879484  0.78867487  0.86280084  1
  O  O5  1  0.21132513  0.10120516  0.63719916  1
  O  O6  1  0.10120516  0.21132513  0.13719916  1
  O  O7  1  0.78867487  0.89879484  0.36280084  1
  O  O8  1  0.09392079  0.40654042  0.74769848  1
  O  O9  1  0.59345958  0.90607921  0.75230152  1
  O  O10  1  0.90607921  0.59345958  0.25230152  1
  O  O11  1  0.40654042  0.09392079  0.24769848  1
  O  O12  1  0.77423894  0.59103284  0.69927814  1
  O  O13  1  0.40896716  0.22576106  0.80072186  1
  O  O14  1  0.22576106  0.40896716  0.30072186  1
  O  O15  1  0.59103284  0.77423894  0.19927814  1
  O  O16  1  0.88924913  0.28944226  0.59469411  1
  O  O17  1  0.71055774  0.11075087  0.90530589  1
  O  O18  1  0.11075087  0.71055774  0.40530589  1
  O  O19  1  0.28944226  0.88924913  0.09469411  1
loop_
_geom_bond_atom_site_label_1
_geom_bond_atom_site_label_2
_geom_bond_distance
_geom_bond_site_symmetry_2
B0 O12 1.450720 1_555
B0 O9 1.461324 1_555
B0 O4 1.464197 1_555
B0 O0 1.519165 1_555
B1 O13 1.450720 1_555
B1 O8 1.461324 1_555
B1 O5 1.464197 1_555
B1 O1 1.519165 1_555
B2 O14 1.450720 1_555
B2 O11 1.461324 1_555
B2 O6 1.464197 1_555
B2 O2 1.519165 1_555
B3 O15 1.450720 1_555
B3 O10 1.461324 1_555
B3 O7 1.464197 1_555
B3 O3 1.519165 1_555
B4 O8 1.358691 1_655
B4 O12 1.366234 1_555
B4 O16 1.385740 1_555
B5 O9 1.358691 1_545
B5 O13 1.366234 1_555
B5 O17 1.385740 1_555
B6 O10 1.358691 1_455
B6 O14 1.366234 1_555
B6 O18 1.385740 1_555
B7 O11 1.358691 1_565
B7 O15 1.366234 1_555
B7 O19 1.385740 1_555
B8 O5 1.424957 1_555
B8 O16 1.447541 1_455
B8 O2 1.513738 1_555
B8 O0 1.537338 1_445
B9 O4 1.424957 1_555
B9 O17 1.447541 1_565
B9 O3 1.513738 1_556
B9 O1 1.537338 1_665
B10 O7 1.424957 1_555
B10 O18 1.447541 1_655
B10 O0 1.513738 1_555
B10 O2 1.537338 1_665
B11 O6 1.424957 1_555
B11 O19 1.447541 1_545
B11 O1 1.513738 1_554
B11 O3 1.537338 1_445
H0 N0 1.036014 1_555
H1 N1 1.036014 1_555
H2 N2 1.036014 1_555
H3 N3 1.036014 1_555
H4 N0 1.036382 1_554
H5 N1 1.036382 1_555
H6 N2 1.036382 1_555
H7 N3 1.036382 1_555
H8 N0 1.021399 1_555
H9 N1 1.021399 1_555
H10 N2 1.021399 1_555
H11 N3 1.021399 1_555
H12 N0 1.036408 1_554
H13 N1 1.036408 1_555
H14 N2 1.036408 1_556
H15 N3 1.036408 1_555
