# generated using pymatgen
data_TaTlO12
_symmetry_space_group_name_H-M   'P 1'
_cell_length_a   7.62887890
_cell_length_b   7.62887890
_cell_length_c   7.62887890
_cell_angle_alpha   60.00000000
_cell_angle_beta   60.00000000
_cell_angle_gamma   60.00000000
_symmetry_Int_Tables_number   1
_chemical_formula_structural   TaTlO12
_chemical_formula_sum   'Ta2 Tl2 O24'
_cell_volume   313.95482686
_cell_formula_units_Z   2
loop_
 _symmetry_equiv_pos_site_id
 _symmetry_equiv_pos_as_xyz
  1  'x, y, z'
loop_
 _atom_site_type_symbol
 _atom_site_label
 _atom_site_symmetry_multiplicity
 _atom_site_fract_x
 _atom_site_fract_y
 _atom_site_fract_z
 _atom_site_occupancy
  Ta  Ta0  1  0.00000000  0.00000000  0.00000000  1
  Ta  Ta1  1  0.25000000  0.25000000  0.25000000  1
  Tl  Tl0  1  0.50000000  0.50000000  0.50000000  1
  Tl  Tl1  1  0.75000000  0.75000000  0.75000000  1
  O  O0  1  0.93892000  0.26892100  0.26892100  1
  O  O1  1  0.26892100  0.93892000  0.52323700  1
  O  O2  1  0.26892100  0.52323700  0.93892000  1
  O  O3  1  0.26892100  0.93892000  0.26892100  1
  O  O4  1  0.31108000  0.98107900  0.72676300  1
  O  O5  1  0.31108000  0.98107900  0.98107900  1
  O  O6  1  0.52323700  0.26892100  0.26892100  1
  O  O7  1  0.52323700  0.26892100  0.93892000  1
  O  O8  1  0.98107900  0.31108000  0.98107900  1
  O  O9  1  0.98107900  0.31108000  0.72676300  1
  O  O10  1  0.93892000  0.26892100  0.52323700  1
  O  O11  1  0.98107900  0.72676300  0.98107900  1
  O  O12  1  0.98107900  0.72676300  0.31108000  1
  O  O13  1  0.26892100  0.52323700  0.26892100  1
  O  O14  1  0.72676300  0.98107900  0.31108000  1
  O  O15  1  0.72676300  0.98107900  0.98107900  1
  O  O16  1  0.26892100  0.26892100  0.93892000  1
  O  O17  1  0.52323700  0.93892000  0.26892100  1
  O  O18  1  0.26892100  0.26892100  0.52323700  1
  O  O19  1  0.93892000  0.52323700  0.26892100  1
  O  O20  1  0.72676300  0.31108000  0.98107900  1
  O  O21  1  0.98107900  0.98107900  0.31108000  1
  O  O22  1  0.31108000  0.72676300  0.98107900  1
  O  O23  1  0.98107900  0.98107900  0.72676300  1
loop_
_geom_bond_atom_site_label_1
_geom_bond_atom_site_label_2
_geom_bond_distance
_geom_bond_site_symmetry_2
O0 Ta1 2.238174 1_655
O1 Ta1 2.238171 1_565
O2 Ta1 2.238171 1_556
O3 Ta1 2.238174 1_565
O4 Ta0 2.238171 1_566
O5 Ta0 2.238174 1_566
O6 Ta1 2.238167 1_555
O7 Ta1 2.238171 1_556
O8 Ta0 2.238174 1_656
O9 Ta0 2.238171 1_656
O10 Ta1 2.238171 1_655
O11 Ta0 2.238167 1_666
O12 Ta0 2.238171 1_665
O13 Ta1 2.238167 1_555
O14 Ta0 2.238171 1_665
O15 Ta0 2.238167 1_666
O16 Ta1 2.238174 1_556
O17 Ta1 2.238171 1_565
O18 Ta1 2.238167 1_555
O19 Ta1 2.238171 1_655
O20 Ta0 2.238171 1_656
O21 Ta0 2.238174 1_665
O22 Ta0 2.238171 1_566
O23 Ta0 2.238167 1_666
