# generated using pymatgen
data_MnH7C3NO6
_symmetry_space_group_name_H-M   'P 1'
_cell_length_a   8.68789900
_cell_length_b   12.84709796
_cell_length_c   12.84623891
_cell_angle_alpha   120.00065633
_cell_angle_beta   90.00000000
_cell_angle_gamma   90.00000000
_symmetry_Int_Tables_number   1
_chemical_formula_structural   MnH7C3NO6
_chemical_formula_sum   'Mn6 H42 C18 N6 O36'
_cell_volume   1241.71964753
_cell_formula_units_Z   6
loop_
 _symmetry_equiv_pos_site_id
 _symmetry_equiv_pos_as_xyz
  1  'x, y, z'
loop_
 _atom_site_type_symbol
 _atom_site_label
 _atom_site_symmetry_multiplicity
 _atom_site_fract_x
 _atom_site_fract_y
 _atom_site_fract_z
 _atom_site_occupancy
  Mn  Mn0  1  0.08028000  0.99520300  0.66425600  1
  Mn  Mn1  1  0.08002600  0.33588400  0.33071500  1
  Mn  Mn2  1  0.08008500  0.66929900  0.00515700  1
  Mn  Mn3  1  0.58028000  0.00479700  0.33574400  1
  Mn  Mn4  1  0.58002600  0.66411600  0.66928500  1
  Mn  Mn5  1  0.58008500  0.33070100  0.99484300  1
  H  H0  1  0.85850700  0.15714900  0.87518100  1
  H  H1  1  0.85851100  0.12480000  0.28196600  1
  H  H2  1  0.85855100  0.71806700  0.84286300  1
  H  H3  1  0.35850700  0.84285000  0.12481900  1
  H  H4  1  0.35851100  0.87520000  0.71803400  1
  H  H5  1  0.35855100  0.28193300  0.15713700  1
  H  H6  1  0.87123800  0.04848000  0.49995200  1
  H  H7  1  0.87122900  0.50006300  0.54854100  1
  H  H8  1  0.87133100  0.45152200  0.95152200  1
  H  H9  1  0.37123800  0.95152000  0.50004800  1
  H  H10  1  0.37122900  0.49993700  0.45145900  1
  H  H11  1  0.37133100  0.54847800  0.04847800  1
  H  H12  1  0.78638600  0.83633300  0.61954900  1
  H  H13  1  0.78630000  0.38043500  0.21676400  1
  H  H14  1  0.78634600  0.78319400  0.16365700  1
  H  H15  1  0.28638600  0.16366700  0.38045100  1
  H  H16  1  0.28630000  0.61956500  0.78323600  1
  H  H17  1  0.28634600  0.21680600  0.83634300  1
  H  H18  1  0.17503800  0.36329100  0.60831500  1
  H  H19  1  0.17502000  0.39170700  0.75497400  1
  H  H20  1  0.17500900  0.24507600  0.63672400  1
  H  H21  1  0.67503800  0.63670900  0.39168500  1
  H  H22  1  0.67502000  0.60829300  0.24502600  1
  H  H23  1  0.67500900  0.75492400  0.36327600  1
  H  H24  1  0.01906100  0.33338200  0.66666300  1
  H  H25  1  0.51906100  0.66661800  0.33333700  1
  H  H26  1  0.17379700  0.57914300  0.30599300  1
  H  H27  1  0.17379200  0.69398000  0.27323000  1
  H  H28  1  0.17375000  0.72679000  0.42086900  1
  H  H29  1  0.67379700  0.42085700  0.69400700  1
  H  H30  1  0.67379200  0.30602000  0.72677000  1
  H  H31  1  0.67375000  0.27321000  0.57913100  1
  H  H32  1  0.01726100  0.66661600  0.33332700  1
  H  H33  1  0.51726100  0.33338400  0.66667300  1
  H  H34  1  0.48086400  0.02670200  0.08747300  1
  H  H35  1  0.48085300  0.91258600  0.93923400  1
  H  H36  1  0.48090000  0.06077000  0.97333100  1
  H  H37  1  0.98086400  0.97329800  0.91252700  1
  H  H38  1  0.98085300  0.08741400  0.06076600  1
  H  H39  1  0.98090000  0.93923000  0.02666900  1
  H  H40  1  0.63719400  0.99999300  0.99999300  1
  H  H41  1  0.13719400  0.00000700  0.00000700  1
  C  C0  1  0.84156800  0.19069100  0.81158700  1
  C  C1  1  0.84150900  0.18836700  0.37908100  1
  C  C2  1  0.84151700  0.62099300  0.80938600  1
  C  C3  1  0.34156800  0.80930900  0.18841300  1
  C  C4  1  0.34150900  0.81163300  0.62091900  1
  C  C5  1  0.34151700  0.37900700  0.19061400  1
  C  C6  1  0.84374700  0.95378100  0.47086100  1
  C  C7  1  0.84362600  0.52917800  0.48296100  1
  C  C8  1  0.84370100  0.51704700  0.04622100  1
  C  C9  1  0.34374700  0.04621900  0.52913900  1
  C  C10  1  0.34362600  0.47082200  0.51703900  1
  C  C11  1  0.34370100  0.48295300  0.95377900  1
  C  C12  1  0.81117900  0.86385500  0.71443500  1
  C  C13  1  0.81115000  0.28557100  0.14936800  1
  C  C14  1  0.81117700  0.85060000  0.13618500  1
  C  C15  1  0.31117900  0.13614500  0.28556500  1
  C  C16  1  0.31115000  0.71442900  0.85063200  1
  C  C17  1  0.31117700  0.14940000  0.86381500  1
  N  N0  1  0.13695100  0.33337500  0.66667800  1
  N  N1  1  0.63695100  0.66662500  0.33332200  1
  N  N2  1  0.13504500  0.66663100  0.33336400  1
  N  N3  1  0.63504500  0.33336900  0.66663600  1
  N  N4  1  0.51937800  0.00001700  0.00001600  1
  N  N5  1  0.01937800  0.99998300  0.99998400  1
  O  O0  1  0.93425800  0.15804500  0.72508800  1
  O  O1  1  0.93415900  0.27491600  0.43289900  1
  O  O2  1  0.93417400  0.56722700  0.84219900  1
  O  O3  1  0.43425800  0.84195500  0.27491200  1
  O  O4  1  0.43415900  0.72508400  0.56710100  1
  O  O5  1  0.43417400  0.43277300  0.15780100  1
  O  O6  1  0.72757900  0.26152700  0.83262000  1
  O  O7  1  0.72757600  0.16724800  0.42885400  1
  O  O8  1  0.72762500  0.57119400  0.73850300  1
  O  O9  1  0.22757900  0.73847300  0.16738000  1
  O  O10  1  0.22757600  0.83275200  0.57114600  1
  O  O11  1  0.22762500  0.42880600  0.26149700  1
  O  O12  1  0.93133500  0.89777100  0.50463600  1
  O  O13  1  0.93115200  0.49542100  0.39311700  1
  O  O14  1  0.93126500  0.60684800  0.10239300  1
  O  O15  1  0.43133500  0.10222900  0.49536400  1
  O  O16  1  0.43115200  0.50457900  0.60688300  1
  O  O17  1  0.43126500  0.39315200  0.89760700  1
  O  O18  1  0.72449700  0.90878800  0.40528000  1
  O  O19  1  0.72437600  0.59475000  0.50360700  1
  O  O20  1  0.72437600  0.49638700  0.09106200  1
  O  O21  1  0.22449700  0.09121200  0.59472000  1
  O  O22  1  0.22437600  0.40525000  0.49639300  1
  O  O23  1  0.22437600  0.50361300  0.90893800  1
  O  O24  1  0.92859300  0.93108600  0.76159000  1
  O  O25  1  0.92850900  0.23837700  0.16944500  1
  O  O26  1  0.92870300  0.83055600  0.06901500  1
  O  O27  1  0.42859300  0.06891400  0.23841000  1
  O  O28  1  0.42850900  0.76162300  0.83055500  1
  O  O29  1  0.42870300  0.16944400  0.93098500  1
  O  O30  1  0.72371800  0.82743100  0.76836500  1
  O  O31  1  0.72379100  0.23164400  0.05892700  1
  O  O32  1  0.72378600  0.94092900  0.17256400  1
  O  O33  1  0.22371800  0.17256900  0.23163500  1
  O  O34  1  0.22379100  0.76835600  0.94107300  1
  O  O35  1  0.22378600  0.05907100  0.82743600  1
loop_
_geom_bond_atom_site_label_1
_geom_bond_atom_site_label_2
_geom_bond_distance
_geom_bond_site_symmetry_2
Mn0 O12 2.208887 1_455
Mn0 O35 2.214021 1_565
Mn0 O10 2.219820 1_555
Mn0 O0 2.227524 1_465
Mn0 O21 2.234054 1_565
Mn0 O24 2.237997 1_455
Mn1 O13 2.207547 1_455
Mn1 O33 2.215865 1_555
Mn1 O11 2.218477 1_555
Mn1 O1 2.229532 1_455
Mn1 O25 2.235794 1_455
Mn1 O22 2.236075 1_555
Mn2 O14 2.208593 1_455
Mn2 O34 2.214419 1_554
Mn2 O9 2.218701 1_555
Mn2 O2 2.227930 1_454
Mn2 O26 2.234960 1_455
Mn2 O23 2.235862 1_554
Mn3 O15 2.208887 1_555
Mn3 O32 2.214021 1_545
Mn3 O7 2.219820 1_555
Mn3 O3 2.227524 1_545
Mn3 O18 2.234054 1_545
Mn3 O27 2.237997 1_555
Mn4 O16 2.207547 1_555
Mn4 O30 2.215865 1_555
Mn4 O8 2.218477 1_555
Mn4 O4 2.229532 1_555
Mn4 O28 2.235794 1_555
Mn4 O19 2.236075 1_555
Mn5 O17 2.208593 1_555
Mn5 O31 2.214419 1_556
Mn5 O6 2.218701 1_555
Mn5 O5 2.227930 1_556
Mn5 O29 2.234960 1_555
Mn5 O20 2.235862 1_556
H18 N0 1.052369 1_555
H19 N0 1.052388 1_555
H20 N0 1.052478 1_555
H21 N1 1.052369 1_555
H22 N1 1.052388 1_555
H23 N1 1.052478 1_555
H24 N0 1.024216 1_555
H25 N1 1.024216 1_555
H26 N2 1.051224 1_555
H27 N2 1.051164 1_555
H28 N2 1.051293 1_555
H29 N3 1.051224 1_555
H30 N3 1.051164 1_555
H31 N3 1.051293 1_555
H32 N2 1.023296 1_555
H33 N3 1.023296 1_555
H34 N4 1.051931 1_555
H35 N4 1.051808 1_566
H36 N4 1.051669 1_556
H37 N5 1.051931 1_655
H38 N5 1.051808 1_644
H39 N5 1.051669 1_654
H40 N4 1.023574 1_566
H41 N5 1.023574 1_544
C0 H0 1.107604 1_555
C0 O0 1.262168 1_555
C0 O6 1.279071 1_555
C1 H1 1.107387 1_555
C1 O1 1.262333 1_555
C1 O7 1.278946 1_555
C2 H2 1.107165 1_555
C2 O2 1.262531 1_555
C2 O8 1.278657 1_555
C3 H3 1.107594 1_555
C3 O3 1.262168 1_555
C3 O9 1.279071 1_555
C4 H4 1.107387 1_555
C4 O4 1.262333 1_555
C4 O10 1.278946 1_555
C5 H5 1.107165 1_555
C5 O5 1.262531 1_555
C5 O11 1.278657 1_555
C6 H6 1.105518 1_565
C6 O12 1.263841 1_555
C6 O18 1.276814 1_555
C7 H7 1.105564 1_555
C7 O13 1.264060 1_555
C7 O19 1.276687 1_555
C8 H8 1.105485 1_554
C8 O14 1.264085 1_555
C8 O20 1.276666 1_555
C9 H9 1.105518 1_545
C9 O15 1.263841 1_555
C9 O21 1.276814 1_555
C10 H10 1.105564 1_555
C10 O16 1.264060 1_555
C10 O22 1.276687 1_555
C11 H11 1.105485 1_556
C11 O17 1.264085 1_555
C11 O23 1.276666 1_555
C12 H12 1.107342 1_555
C12 O30 1.265113 1_555
C12 O24 1.276836 1_555
C13 H13 1.107390 1_555
C13 O31 1.265272 1_555
C13 O25 1.276752 1_555
C14 H14 1.107524 1_555
C14 O32 1.264594 1_555
C14 O26 1.277194 1_555
C15 H15 1.107342 1_555
C15 O33 1.265113 1_555
C15 O27 1.276836 1_555
C16 H16 1.107390 1_555
C16 O34 1.265272 1_555
C16 O28 1.276752 1_555
C17 H17 1.107524 1_555
C17 O35 1.264594 1_555
C17 O29 1.277194 1_555
