# generated using pymatgen
data_Mo2Pb3N4
_symmetry_space_group_name_H-M   'P 1'
_cell_length_a   5.98415023
_cell_length_b   10.74796456
_cell_length_c   10.81727894
_cell_angle_alpha   90.00000000
_cell_angle_beta   90.00000000
_cell_angle_gamma   90.00000000
_symmetry_Int_Tables_number   1
_chemical_formula_structural   Mo2Pb3N4
_chemical_formula_sum   'Mo8 Pb12 N16'
_cell_volume   695.73963071
_cell_formula_units_Z   4
loop_
 _symmetry_equiv_pos_site_id
 _symmetry_equiv_pos_as_xyz
  1  'x, y, z'
loop_
 _atom_site_type_symbol
 _atom_site_label
 _atom_site_symmetry_multiplicity
 _atom_site_fract_x
 _atom_site_fract_y
 _atom_site_fract_z
 _atom_site_occupancy
  Mo  Mo0  1  0.75000000  0.50000000  0.72331297  1
  Mo  Mo1  1  0.75000000  0.00000000  0.77668703  1
  Mo  Mo2  1  0.25000000  0.50000000  0.27668703  1
  Mo  Mo3  1  0.25000000  0.00000000  0.22331297  1
  Mo  Mo4  1  0.61958029  0.25000000  0.75000000  1
  Mo  Mo5  1  0.88041971  0.75000000  0.75000000  1
  Mo  Mo6  1  0.38041971  0.75000000  0.25000000  1
  Mo  Mo7  1  0.11958029  0.25000000  0.25000000  1
  Pb  Pb0  1  0.67801086  0.17108479  0.39048704  1
  Pb  Pb1  1  0.82198914  0.82891521  0.39048704  1
  Pb  Pb2  1  0.67801086  0.32891521  0.10951296  1
  Pb  Pb3  1  0.82198914  0.67108479  0.10951296  1
  Pb  Pb4  1  0.32198914  0.82891521  0.60951296  1
  Pb  Pb5  1  0.17801086  0.17108479  0.60951296  1
  Pb  Pb6  1  0.32198914  0.67108479  0.89048704  1
  Pb  Pb7  1  0.17801086  0.32891521  0.89048704  1
  Pb  Pb8  1  0.75000000  0.50000000  0.42901335  1
  Pb  Pb9  1  0.75000000  0.00000000  0.07098665  1
  Pb  Pb10  1  0.25000000  0.50000000  0.57098665  1
  Pb  Pb11  1  0.25000000  0.00000000  0.92901335  1
  N  N0  1  0.81555954  0.33732707  0.64088504  1
  N  N1  1  0.68444046  0.66267293  0.64088504  1
  N  N2  1  0.81555954  0.16267293  0.85911496  1
  N  N3  1  0.68444046  0.83732707  0.85911496  1
  N  N4  1  0.18444046  0.66267293  0.35911496  1
  N  N5  1  0.31555954  0.33732707  0.35911496  1
  N  N6  1  0.18444046  0.83732707  0.14088504  1
  N  N7  1  0.31555954  0.16267293  0.14088504  1
  N  N8  1  0.53178414  0.41708142  0.82459959  1
  N  N9  1  0.96821586  0.58291858  0.82459959  1
  N  N10  1  0.53178414  0.08291858  0.67540041  1
  N  N11  1  0.96821586  0.91708142  0.67540041  1
  N  N12  1  0.46821586  0.58291858  0.17540041  1
  N  N13  1  0.03178414  0.41708142  0.17540041  1
  N  N14  1  0.46821586  0.91708142  0.32459959  1
  N  N15  1  0.03178414  0.08291858  0.32459959  1
loop_
_geom_bond_atom_site_label_1
_geom_bond_atom_site_label_2
_geom_bond_distance
_geom_bond_site_symmetry_2
Mo0 N8 1.923511 1_555
Mo0 N9 1.923511 1_555
Mo0 N0 2.001464 1_555
Mo0 N1 2.001464 1_555
Mo1 N11 1.923511 1_545
Mo1 N10 1.923511 1_555
Mo1 N3 2.001464 1_545
Mo1 N2 2.001464 1_555
Mo2 N12 1.923511 1_555
Mo2 N13 1.923511 1_555
Mo2 N5 2.001464 1_555
Mo2 N4 2.001464 1_555
Mo3 N14 1.923511 1_545
Mo3 N15 1.923511 1_555
Mo3 N6 2.001464 1_545
Mo3 N7 2.001464 1_555
Mo4 N0 1.910368 1_555
Mo4 N2 1.910368 1_555
Mo4 N10 2.037662 1_555
Mo4 N8 2.037662 1_555
Mo5 N1 1.910368 1_555
Mo5 N3 1.910368 1_555
Mo5 N11 2.037662 1_555
Mo5 N9 2.037662 1_555
Mo6 N4 1.910368 1_555
Mo6 N6 1.910368 1_555
Mo6 N14 2.037662 1_555
Mo6 N12 2.037662 1_555
Mo7 N7 1.910368 1_555
Mo7 N5 1.910368 1_555
Mo7 N15 2.037662 1_555
Mo7 N13 2.037662 1_555
N0 Pb5 2.830565 1_655
N1 Pb4 2.830565 1_555
N2 Pb7 2.830565 1_655
N3 Pb6 2.830565 1_555
N4 Pb1 2.830565 1_455
N5 Pb0 2.830565 1_555
N6 Pb3 2.830565 1_455
N7 Pb2 2.830565 1_555
N8 Pb7 2.426471 1_555
N9 Pb6 2.426471 1_655
N10 Pb5 2.426471 1_555
N11 Pb4 2.426471 1_655
N12 Pb3 2.426471 1_555
N13 Pb2 2.426471 1_455
N14 Pb1 2.426471 1_555
N15 Pb0 2.426471 1_455
