# generated using pymatgen
data_ScPbAu2
_symmetry_space_group_name_H-M   'P 1'
_cell_length_a   13.59732883
_cell_length_b   13.59732883
_cell_length_c   13.59732883
_cell_angle_alpha   133.90493868
_cell_angle_beta   115.06434408
_cell_angle_gamma   83.27525101
_symmetry_Int_Tables_number   1
_chemical_formula_structural   ScPbAu2
_chemical_formula_sum   'Sc1 Pb1 Au2'
_cell_volume   1579.46883943
_cell_formula_units_Z   1
loop_
 _symmetry_equiv_pos_site_id
 _symmetry_equiv_pos_as_xyz
  1  'x, y, z'
loop_
 _atom_site_type_symbol
 _atom_site_label
 _atom_site_symmetry_multiplicity
 _atom_site_fract_x
 _atom_site_fract_y
 _atom_site_fract_z
 _atom_site_occupancy
  Sc  Sc0  1  0.00000000  0.00000000  0.00000000  1
  Pb  Pb0  1  0.00000000  0.50000000  0.50000000  1
  Au  Au0  1  0.00000000  0.23937500  0.23937500  1
  Au  Au1  1  0.00000000  0.76062500  0.76062500  1
loop_
_geom_bond_atom_site_label_1
_geom_bond_atom_site_label_2
_geom_bond_distance
_geom_bond_site_symmetry_2
Au0 Sc0 2.548521 1_555
Au0 Pb0 2.774760 1_555
Au1 Sc0 2.548521 1_566
Au1 Pb0 2.774760 1_555
