# generated using pymatgen
data_Eu(YSe2)2
_symmetry_space_group_name_H-M   'P 1'
_cell_length_a   4.12432425
_cell_length_b   12.49021995
_cell_length_c   14.89893828
_cell_angle_alpha   90.00000000
_cell_angle_beta   90.00000000
_cell_angle_gamma   90.00000000
_symmetry_Int_Tables_number   1
_chemical_formula_structural   Eu(YSe2)2
_chemical_formula_sum   'Eu4 Y8 Se16'
_cell_volume   767.49969057
_cell_formula_units_Z   4
loop_
 _symmetry_equiv_pos_site_id
 _symmetry_equiv_pos_as_xyz
  1  'x, y, z'
loop_
 _atom_site_type_symbol
 _atom_site_label
 _atom_site_symmetry_multiplicity
 _atom_site_fract_x
 _atom_site_fract_y
 _atom_site_fract_z
 _atom_site_occupancy
  Eu  Eu0  1  0.75000000  0.74231216  0.16393265  1
  Eu  Eu1  1  0.75000000  0.24231216  0.33606735  1
  Eu  Eu2  1  0.25000000  0.25768784  0.83606735  1
  Eu  Eu3  1  0.25000000  0.75768784  0.66393265  1
  Y  Y0  1  0.75000000  0.06584535  0.11112166  1
  Y  Y1  1  0.75000000  0.56584535  0.38887834  1
  Y  Y2  1  0.25000000  0.93415465  0.88887834  1
  Y  Y3  1  0.25000000  0.43415465  0.61112166  1
  Y  Y4  1  0.75000000  0.08226253  0.59833941  1
  Y  Y5  1  0.75000000  0.58226253  0.90166059  1
  Y  Y6  1  0.25000000  0.91773747  0.40166059  1
  Y  Y7  1  0.25000000  0.41773747  0.09833941  1
  Se  Se0  1  0.75000000  0.29272101  0.67712673  1
  Se  Se1  1  0.75000000  0.79272101  0.82287327  1
  Se  Se2  1  0.25000000  0.70727899  0.32287327  1
  Se  Se3  1  0.25000000  0.20727899  0.17712673  1
  Se  Se4  1  0.75000000  0.36743826  0.96990376  1
  Se  Se5  1  0.75000000  0.86743826  0.53009624  1
  Se  Se6  1  0.25000000  0.63256174  0.03009624  1
  Se  Se7  1  0.25000000  0.13256174  0.46990376  1
  Se  Se8  1  0.75000000  0.47576782  0.21531035  1
  Se  Se9  1  0.75000000  0.97576782  0.28468965  1
  Se  Se10  1  0.25000000  0.52423218  0.78468965  1
  Se  Se11  1  0.25000000  0.02423218  0.71531035  1
  Se  Se12  1  0.75000000  0.08975638  0.92140764  1
  Se  Se13  1  0.75000000  0.58975638  0.57859236  1
  Se  Se14  1  0.25000000  0.91024362  0.07859236  1
  Se  Se15  1  0.25000000  0.41024362  0.42140764  1
loop_
_geom_bond_atom_site_label_1
_geom_bond_atom_site_label_2
_geom_bond_distance
_geom_bond_site_symmetry_2
Eu0 Se2 3.170430 1_555
Eu0 Se2 3.170430 1_655
Eu0 Se6 3.179267 1_555
Eu0 Se6 3.179267 1_655
Eu0 Se14 3.204479 1_555
Eu0 Se14 3.204479 1_655
Eu0 Se8 3.416066 1_555
Eu0 Se9 3.426294 1_555
Eu1 Se3 3.170430 1_555
Eu1 Se3 3.170430 1_655
Eu1 Se7 3.179267 1_555
Eu1 Se7 3.179267 1_655
Eu1 Se15 3.204479 1_655
Eu1 Se15 3.204479 1_555
Eu1 Se9 3.416066 1_545
Eu1 Se8 3.426294 1_555
Eu2 Se0 3.170430 1_455
Eu2 Se0 3.170430 1_555
Eu2 Se4 3.179267 1_455
Eu2 Se4 3.179267 1_555
Eu2 Se12 3.204479 1_555
Eu2 Se12 3.204479 1_455
Eu2 Se10 3.416066 1_555
Eu2 Se11 3.426294 1_555
Eu3 Se1 3.170430 1_455
Eu3 Se1 3.170430 1_555
Eu3 Se5 3.179267 1_455
Eu3 Se5 3.179267 1_555
Eu3 Se13 3.204479 1_455
Eu3 Se13 3.204479 1_555
Eu3 Se11 3.416066 1_565
Eu3 Se10 3.426294 1_555
Se0 Y4 2.878861 1_555
Se0 Y3 2.887950 1_555
Se0 Y3 2.887950 1_655
Se1 Y5 2.878861 1_555
Se1 Y2 2.887950 1_655
Se1 Y2 2.887950 1_555
Se2 Y6 2.878861 1_555
Se2 Y1 2.887950 1_555
Se2 Y1 2.887950 1_455
Se3 Y7 2.878861 1_555
Se3 Y0 2.887950 1_455
Se3 Y0 2.887950 1_555
Se4 Y5 2.869383 1_555
Se4 Y7 2.882516 1_656
Se4 Y7 2.882516 1_556
Se5 Y4 2.869383 1_565
Se5 Y6 2.882516 1_655
Se5 Y6 2.882516 1_555
Se6 Y7 2.869383 1_555
Se6 Y5 2.882516 1_454
Se6 Y5 2.882516 1_554
Se7 Y6 2.869383 1_545
Se7 Y4 2.882516 1_455
Se7 Y4 2.882516 1_555
Se8 Y7 2.795535 1_555
Se8 Y7 2.795535 1_655
Se8 Y1 2.820126 1_555
Se9 Y6 2.795535 1_655
Se9 Y6 2.795535 1_555
Se9 Y0 2.820126 1_565
Se10 Y5 2.795535 1_555
Se10 Y5 2.795535 1_455
Se10 Y3 2.820126 1_555
Se11 Y4 2.795535 1_455
Se11 Y4 2.795535 1_555
Se11 Y2 2.820126 1_545
Se12 Y0 2.842272 1_556
Se12 Y2 2.874820 1_645
Se12 Y2 2.874820 1_545
Se13 Y1 2.842272 1_555
Se13 Y3 2.874820 1_555
Se13 Y3 2.874820 1_655
Se14 Y2 2.842272 1_554
Se14 Y0 2.874820 1_465
Se14 Y0 2.874820 1_565
Se15 Y3 2.842272 1_555
Se15 Y1 2.874820 1_455
Se15 Y1 2.874820 1_555
