# generated using pymatgen
data_Ta3Be2
_symmetry_space_group_name_H-M   'P 1'
_cell_length_a   6.65750980
_cell_length_b   13.02216078
_cell_length_c   13.02216078
_cell_angle_alpha   90.00000000
_cell_angle_beta   90.00000000
_cell_angle_gamma   90.00000000
_symmetry_Int_Tables_number   1
_chemical_formula_structural   Ta3Be2
_chemical_formula_sum   'Ta48 Be32'
_cell_volume   1128.95835156
_cell_formula_units_Z   16
loop_
 _symmetry_equiv_pos_site_id
 _symmetry_equiv_pos_as_xyz
  1  'x, y, z'
loop_
 _atom_site_type_symbol
 _atom_site_label
 _atom_site_symmetry_multiplicity
 _atom_site_fract_x
 _atom_site_fract_y
 _atom_site_fract_z
 _atom_site_occupancy
  Ta  Ta0_0  1  0.00000000  0.25000000  0.25000000  1
  Ta  Ta0_1  1  0.00000000  0.25000000  0.75000000  1
  Ta  Ta0_2  1  0.00000000  0.75000000  0.25000000  1
  Ta  Ta0_3  1  0.00000000  0.75000000  0.75000000  1
  Ta  Ta0_4  1  0.50000000  0.25000000  0.25000000  1
  Ta  Ta0_5  1  0.50000000  0.25000000  0.75000000  1
  Ta  Ta0_6  1  0.50000000  0.75000000  0.25000000  1
  Ta  Ta0_7  1  0.50000000  0.75000000  0.75000000  1
  Ta  Ta1_0  1  0.00000000  0.00000000  0.00000000  1
  Ta  Ta1_1  1  0.00000000  0.00000000  0.50000000  1
  Ta  Ta1_2  1  0.00000000  0.50000000  0.00000000  1
  Ta  Ta1_3  1  0.00000000  0.50000000  0.50000000  1
  Ta  Ta1_4  1  0.50000000  0.00000000  0.00000000  1
  Ta  Ta1_5  1  0.50000000  0.00000000  0.50000000  1
  Ta  Ta1_6  1  0.50000000  0.50000000  0.00000000  1
  Ta  Ta1_7  1  0.50000000  0.50000000  0.50000000  1
  Ta  Ta2_0  1  0.25000000  0.08943959  0.33943959  1
  Ta  Ta2_1  1  0.25000000  0.08943959  0.83943959  1
  Ta  Ta2_2  1  0.25000000  0.58943959  0.33943959  1
  Ta  Ta2_3  1  0.25000000  0.58943959  0.83943959  1
  Ta  Ta2_4  1  0.75000000  0.08943959  0.33943959  1
  Ta  Ta2_5  1  0.75000000  0.08943959  0.83943959  1
  Ta  Ta2_6  1  0.75000000  0.58943959  0.33943959  1
  Ta  Ta2_7  1  0.75000000  0.58943959  0.83943959  1
  Ta  Ta3_0  1  0.25000000  0.41056041  0.16056041  1
  Ta  Ta3_1  1  0.25000000  0.41056041  0.66056041  1
  Ta  Ta3_2  1  0.25000000  0.91056041  0.16056041  1
  Ta  Ta3_3  1  0.25000000  0.91056041  0.66056041  1
  Ta  Ta3_4  1  0.75000000  0.41056041  0.16056041  1
  Ta  Ta3_5  1  0.75000000  0.41056041  0.66056041  1
  Ta  Ta3_6  1  0.75000000  0.91056041  0.16056041  1
  Ta  Ta3_7  1  0.75000000  0.91056041  0.66056041  1
  Ta  Ta4_0  1  0.25000000  0.16056041  0.08943959  1
  Ta  Ta4_1  1  0.25000000  0.16056041  0.58943959  1
  Ta  Ta4_2  1  0.25000000  0.66056041  0.08943959  1
  Ta  Ta4_3  1  0.25000000  0.66056041  0.58943959  1
  Ta  Ta4_4  1  0.75000000  0.16056041  0.08943959  1
  Ta  Ta4_5  1  0.75000000  0.16056041  0.58943959  1
  Ta  Ta4_6  1  0.75000000  0.66056041  0.08943959  1
  Ta  Ta4_7  1  0.75000000  0.66056041  0.58943959  1
  Ta  Ta5_0  1  0.25000000  0.33943959  0.41056041  1
  Ta  Ta5_1  1  0.25000000  0.33943959  0.91056041  1
  Ta  Ta5_2  1  0.25000000  0.83943959  0.41056041  1
  Ta  Ta5_3  1  0.25000000  0.83943959  0.91056041  1
  Ta  Ta5_4  1  0.75000000  0.33943959  0.41056041  1
  Ta  Ta5_5  1  0.75000000  0.33943959  0.91056041  1
  Ta  Ta5_6  1  0.75000000  0.83943959  0.41056041  1
  Ta  Ta5_7  1  0.75000000  0.83943959  0.91056041  1
  Be  Be0_0  1  0.00000000  0.30671628  0.05671628  1
  Be  Be0_1  1  0.00000000  0.30671628  0.55671628  1
  Be  Be0_2  1  0.00000000  0.80671628  0.05671628  1
  Be  Be0_3  1  0.00000000  0.80671628  0.55671628  1
  Be  Be0_4  1  0.50000000  0.30671628  0.05671628  1
  Be  Be0_5  1  0.50000000  0.30671628  0.55671628  1
  Be  Be0_6  1  0.50000000  0.80671628  0.05671628  1
  Be  Be0_7  1  0.50000000  0.80671628  0.55671628  1
  Be  Be1_0  1  0.00000000  0.19328372  0.44328372  1
  Be  Be1_1  1  0.00000000  0.19328372  0.94328372  1
  Be  Be1_2  1  0.00000000  0.69328372  0.44328372  1
  Be  Be1_3  1  0.00000000  0.69328372  0.94328372  1
  Be  Be1_4  1  0.50000000  0.19328372  0.44328372  1
  Be  Be1_5  1  0.50000000  0.19328372  0.94328372  1
  Be  Be1_6  1  0.50000000  0.69328372  0.44328372  1
  Be  Be1_7  1  0.50000000  0.69328372  0.94328372  1
  Be  Be2_0  1  0.00000000  0.44328372  0.30671628  1
  Be  Be2_1  1  0.00000000  0.44328372  0.80671628  1
  Be  Be2_2  1  0.00000000  0.94328372  0.30671628  1
  Be  Be2_3  1  0.00000000  0.94328372  0.80671628  1
  Be  Be2_4  1  0.50000000  0.44328372  0.30671628  1
  Be  Be2_5  1  0.50000000  0.44328372  0.80671628  1
  Be  Be2_6  1  0.50000000  0.94328372  0.30671628  1
  Be  Be2_7  1  0.50000000  0.94328372  0.80671628  1
  Be  Be3_0  1  0.00000000  0.05671628  0.19328372  1
  Be  Be3_1  1  0.00000000  0.05671628  0.69328372  1
  Be  Be3_2  1  0.00000000  0.55671628  0.19328372  1
  Be  Be3_3  1  0.00000000  0.55671628  0.69328372  1
  Be  Be3_4  1  0.50000000  0.05671628  0.19328372  1
  Be  Be3_5  1  0.50000000  0.05671628  0.69328372  1
  Be  Be3_6  1  0.50000000  0.55671628  0.19328372  1
  Be  Be3_7  1  0.50000000  0.55671628  0.69328372  1
loop_
_geom_bond_atom_site_label_1
_geom_bond_atom_site_label_2
_geom_bond_distance
_geom_bond_site_symmetry_2
Ta0_0 Ta3_0 2.915184 1_555
Ta0_0 Ta3_4 2.915184 1_455
Ta0_0 Ta4_4 2.915184 1_455
Ta0_0 Ta4_0 2.915184 1_555
Ta0_0 Ta5_4 2.915184 1_455
Ta0_0 Ta5_0 2.915184 1_555
Ta0_0 Ta2_0 2.915184 1_555
Ta0_0 Ta2_4 2.915184 1_455
Ta0_0 Ta0_4 3.328755 1_455
Ta0_0 Ta0_4 3.328755 1_555
Ta0_1 Ta4_1 2.915184 1_555
Ta0_1 Ta4_5 2.915184 1_455
Ta0_1 Ta3_1 2.915184 1_555
Ta0_1 Ta3_5 2.915184 1_455
Ta0_1 Ta2_1 2.915184 1_555
Ta0_1 Ta2_5 2.915184 1_455
Ta0_1 Ta5_1 2.915184 1_555
Ta0_1 Ta5_5 2.915184 1_455
Ta0_1 Ta0_5 3.328755 1_455
Ta0_1 Ta0_5 3.328755 1_555
Ta0_2 Ta3_2 2.915184 1_555
Ta0_2 Ta4_2 2.915184 1_555
Ta0_2 Ta4_6 2.915184 1_455
Ta0_2 Ta3_6 2.915184 1_455
Ta0_2 Ta5_6 2.915184 1_455
Ta0_2 Ta5_2 2.915184 1_555
Ta0_2 Ta2_6 2.915184 1_455
Ta0_2 Ta2_2 2.915184 1_555
Ta0_2 Ta0_6 3.328755 1_555
Ta0_2 Ta0_6 3.328755 1_455
Ta0_3 Ta4_7 2.915184 1_455
Ta0_3 Ta3_7 2.915184 1_455
Ta0_3 Ta3_3 2.915184 1_555
Ta0_3 Ta4_3 2.915184 1_555
Ta0_3 Ta2_7 2.915184 1_455
Ta0_3 Ta2_3 2.915184 1_555
Ta0_3 Ta5_3 2.915184 1_555
Ta0_3 Ta5_7 2.915184 1_455
Ta0_3 Ta0_7 3.328755 1_455
Ta0_3 Ta0_7 3.328755 1_555
Ta0_4 Ta3_0 2.915184 1_555
Ta0_4 Ta4_4 2.915184 1_555
Ta0_4 Ta3_4 2.915184 1_555
Ta0_4 Ta4_0 2.915184 1_555
Ta0_4 Ta5_0 2.915184 1_555
Ta0_4 Ta5_4 2.915184 1_555
Ta0_4 Ta2_4 2.915184 1_555
Ta0_4 Ta2_0 2.915184 1_555
Ta0_5 Ta3_5 2.915184 1_555
Ta0_5 Ta4_1 2.915184 1_555
Ta0_5 Ta3_1 2.915184 1_555
Ta0_5 Ta4_5 2.915184 1_555
Ta0_5 Ta2_5 2.915184 1_555
Ta0_5 Ta2_1 2.915184 1_555
Ta0_5 Ta5_1 2.915184 1_555
Ta0_5 Ta5_5 2.915184 1_555
Ta0_6 Ta3_2 2.915184 1_555
Ta0_6 Ta3_6 2.915184 1_555
Ta0_6 Ta4_2 2.915184 1_555
Ta0_6 Ta4_6 2.915184 1_555
Ta0_6 Ta5_2 2.915184 1_555
Ta0_6 Ta5_6 2.915184 1_555
Ta0_6 Ta2_6 2.915184 1_555
Ta0_6 Ta2_2 2.915184 1_555
Ta0_7 Ta4_7 2.915184 1_555
Ta0_7 Ta3_3 2.915184 1_555
Ta0_7 Ta3_7 2.915184 1_555
Ta0_7 Ta4_3 2.915184 1_555
Ta0_7 Ta5_7 2.915184 1_555
Ta0_7 Ta2_3 2.915184 1_555
Ta0_7 Ta2_7 2.915184 1_555
Ta0_7 Ta5_3 2.915184 1_555
Ta1_0 Ta2_1 2.915184 1_554
Ta1_0 Ta2_5 2.915184 1_454
Ta1_0 Ta5_7 2.915184 1_444
Ta1_0 Ta5_3 2.915184 1_544
Ta1_0 Ta3_6 2.915184 1_445
Ta1_0 Ta3_2 2.915184 1_545
Ta1_0 Ta4_0 2.915184 1_555
Ta1_0 Ta4_4 2.915184 1_455
Ta1_0 Ta1_4 3.328755 1_455
Ta1_0 Ta1_4 3.328755 1_555
Ta1_1 Ta2_4 2.915184 1_455
Ta1_1 Ta2_0 2.915184 1_555
Ta1_1 Ta5_6 2.915184 1_445
Ta1_1 Ta5_2 2.915184 1_545
Ta1_1 Ta4_5 2.915184 1_455
Ta1_1 Ta4_1 2.915184 1_555
Ta1_1 Ta3_3 2.915184 1_545
Ta1_1 Ta3_7 2.915184 1_445
Ta1_1 Ta1_5 3.328755 1_455
Ta1_1 Ta1_5 3.328755 1_555
Ta1_2 Ta5_5 2.915184 1_454
Ta1_2 Ta5_1 2.915184 1_554
Ta1_2 Ta2_7 2.915184 1_454
Ta1_2 Ta2_3 2.915184 1_554
Ta1_2 Ta3_0 2.915184 1_555
Ta1_2 Ta3_4 2.915184 1_455
Ta1_2 Ta4_2 2.915184 1_555
Ta1_2 Ta4_6 2.915184 1_455
Ta1_2 Ta1_6 3.328755 1_555
Ta1_2 Ta1_6 3.328755 1_455
Ta1_3 Ta2_2 2.915184 1_555
Ta1_3 Ta5_4 2.915184 1_455
Ta1_3 Ta2_6 2.915184 1_455
Ta1_3 Ta5_0 2.915184 1_555
Ta1_3 Ta4_3 2.915184 1_555
Ta1_3 Ta4_7 2.915184 1_455
Ta1_3 Ta3_1 2.915184 1_555
Ta1_3 Ta3_5 2.915184 1_455
Ta1_3 Ta1_7 3.328755 1_555
Ta1_3 Ta1_7 3.328755 1_455
Ta1_4 Ta5_7 2.915184 1_544
Ta1_4 Ta2_5 2.915184 1_554
Ta1_4 Ta5_3 2.915184 1_544
Ta1_4 Ta2_1 2.915184 1_554
Ta1_4 Ta3_6 2.915184 1_545
Ta1_4 Ta4_0 2.915184 1_555
Ta1_4 Ta3_2 2.915184 1_545
Ta1_4 Ta4_4 2.915184 1_555
Ta1_5 Ta2_4 2.915184 1_555
Ta1_5 Ta2_0 2.915184 1_555
Ta1_5 Ta5_6 2.915184 1_545
Ta1_5 Ta5_2 2.915184 1_545
Ta1_5 Ta4_5 2.915184 1_555
Ta1_5 Ta4_1 2.915184 1_555
Ta1_5 Ta3_3 2.915184 1_545
Ta1_5 Ta3_7 2.915184 1_545
Ta1_6 Ta5_5 2.915184 1_554
Ta1_6 Ta5_1 2.915184 1_554
Ta1_6 Ta2_3 2.915184 1_554
Ta1_6 Ta2_7 2.915184 1_554
Ta1_6 Ta3_0 2.915184 1_555
Ta1_6 Ta3_4 2.915184 1_555
Ta1_6 Ta4_6 2.915184 1_555
Ta1_6 Ta4_2 2.915184 1_555
Ta1_7 Ta2_2 2.915184 1_555
Ta1_7 Ta2_6 2.915184 1_555
Ta1_7 Ta5_0 2.915184 1_555
Ta1_7 Ta5_4 2.915184 1_555
Ta1_7 Ta3_5 2.915184 1_555
Ta1_7 Ta4_3 2.915184 1_555
Ta1_7 Ta4_7 2.915184 1_555
Ta1_7 Ta3_1 2.915184 1_555
Be0_0 Be1_1 2.088987 1_554
Be0_0 Ta3_0 2.535241 1_555
Be0_0 Ta3_4 2.535241 1_455
Be0_0 Ta4_0 2.564012 1_555
Be0_0 Ta4_4 2.564012 1_455
Be0_0 Ta5_5 2.564012 1_454
Be0_0 Ta5_1 2.564012 1_554
Be0_0 Ta0_0 2.623095 1_555
Be0_0 Ta1_2 2.623095 1_555
Be0_1 Be1_0 2.088987 1_555
Be0_1 Ta3_1 2.535241 1_555
Be0_1 Ta3_5 2.535241 1_455
Be0_1 Ta4_1 2.564012 1_555
Be0_1 Ta4_5 2.564012 1_455
Be0_1 Ta5_4 2.564012 1_455
Be0_1 Ta5_0 2.564012 1_555
Be0_1 Ta0_1 2.623095 1_555
Be0_1 Ta1_3 2.623095 1_555
Be0_2 Be1_3 2.088987 1_554
Be0_2 Ta3_2 2.535241 1_555
Be0_2 Ta3_6 2.535241 1_455
Be0_2 Ta4_2 2.564012 1_555
Be0_2 Ta4_6 2.564012 1_455
Be0_2 Ta5_3 2.564012 1_554
Be0_2 Ta5_7 2.564012 1_454
Be0_2 Ta1_0 2.623095 1_565
Be0_2 Ta0_2 2.623095 1_555
Be0_3 Be1_2 2.088987 1_555
Be0_3 Ta3_3 2.535241 1_555
Be0_3 Ta3_7 2.535241 1_455
Be0_3 Ta4_3 2.564012 1_555
Be0_3 Ta4_7 2.564012 1_455
Be0_3 Ta5_6 2.564012 1_455
Be0_3 Ta5_2 2.564012 1_555
Be0_3 Ta0_3 2.623095 1_555
Be0_3 Ta1_1 2.623095 1_565
Be0_4 Be1_5 2.088987 1_554
Be0_4 Ta3_0 2.535241 1_555
Be0_4 Ta3_4 2.535241 1_555
Be0_4 Ta4_0 2.564012 1_555
Be0_4 Ta4_4 2.564012 1_555
Be0_4 Ta5_1 2.564012 1_554
Be0_4 Ta5_5 2.564012 1_554
Be0_4 Ta0_4 2.623095 1_555
Be0_4 Ta1_6 2.623095 1_555
Be0_5 Be1_4 2.088987 1_555
Be0_5 Ta3_1 2.535241 1_555
Be0_5 Ta3_5 2.535241 1_555
Be0_5 Ta4_1 2.564012 1_555
Be0_5 Ta4_5 2.564012 1_555
Be0_5 Ta5_0 2.564012 1_555
Be0_5 Ta5_4 2.564012 1_555
Be0_5 Ta0_5 2.623095 1_555
Be0_5 Ta1_7 2.623095 1_555
Be0_6 Be1_7 2.088987 1_554
Be0_6 Ta3_2 2.535241 1_555
Be0_6 Ta3_6 2.535241 1_555
Be0_6 Ta4_2 2.564012 1_555
Be0_6 Ta4_6 2.564012 1_555
Be0_6 Ta5_7 2.564012 1_554
Be0_6 Ta5_3 2.564012 1_554
Be0_6 Ta1_4 2.623095 1_565
Be0_6 Ta0_6 2.623095 1_555
Be0_7 Be1_6 2.088987 1_555
Be0_7 Ta3_3 2.535241 1_555
Be0_7 Ta3_7 2.535241 1_555
Be0_7 Ta4_3 2.564012 1_555
Be0_7 Ta4_7 2.564012 1_555
Be0_7 Ta5_2 2.564012 1_555
Be0_7 Ta5_6 2.564012 1_555
Be0_7 Ta0_7 2.623095 1_555
Be0_7 Ta1_5 2.623095 1_565
Be1_0 Ta2_4 2.535241 1_455
Be1_0 Ta2_0 2.535241 1_555
Be1_0 Ta4_1 2.564012 1_555
Be1_0 Ta4_5 2.564012 1_455
Be1_0 Ta5_4 2.564012 1_455
Be1_0 Ta5_0 2.564012 1_555
Be1_0 Ta1_1 2.623095 1_555
Be1_0 Ta0_0 2.623095 1_555
Be1_1 Ta2_5 2.535241 1_455
Be1_1 Ta2_1 2.535241 1_555
Be1_1 Ta4_4 2.564012 1_456
Be1_1 Ta4_0 2.564012 1_556
Be1_1 Ta5_5 2.564012 1_455
Be1_1 Ta5_1 2.564012 1_555
Be1_1 Ta1_0 2.623095 1_556
Be1_1 Ta0_1 2.623095 1_555
Be1_2 Ta2_2 2.535241 1_555
Be1_2 Ta2_6 2.535241 1_455
Be1_2 Ta5_6 2.564012 1_455
Be1_2 Ta5_2 2.564012 1_555
Be1_2 Ta4_3 2.564012 1_555
Be1_2 Ta4_7 2.564012 1_455
Be1_2 Ta0_2 2.623095 1_555
Be1_2 Ta1_3 2.623095 1_555
Be1_3 Ta2_3 2.535241 1_555
Be1_3 Ta2_7 2.535241 1_455
Be1_3 Ta4_6 2.564012 1_456
Be1_3 Ta4_2 2.564012 1_556
Be1_3 Ta5_3 2.564012 1_555
Be1_3 Ta5_7 2.564012 1_455
Be1_3 Ta0_3 2.623095 1_555
Be1_3 Ta1_2 2.623095 1_556
Be1_4 Ta2_0 2.535241 1_555
Be1_4 Ta2_4 2.535241 1_555
Be1_4 Ta4_5 2.564012 1_555
Be1_4 Ta4_1 2.564012 1_555
Be1_4 Ta5_4 2.564012 1_555
Be1_4 Ta5_0 2.564012 1_555
Be1_4 Ta1_5 2.623095 1_555
Be1_4 Ta0_4 2.623095 1_555
Be1_5 Ta2_1 2.535241 1_555
Be1_5 Ta2_5 2.535241 1_555
Be1_5 Ta4_4 2.564012 1_556
Be1_5 Ta4_0 2.564012 1_556
Be1_5 Ta5_5 2.564012 1_555
Be1_5 Ta5_1 2.564012 1_555
Be1_5 Ta1_4 2.623095 1_556
Be1_5 Ta0_5 2.623095 1_555
Be1_6 Ta2_2 2.535241 1_555
Be1_6 Ta2_6 2.535241 1_555
Be1_6 Ta5_2 2.564012 1_555
Be1_6 Ta5_6 2.564012 1_555
Be1_6 Ta4_3 2.564012 1_555
Be1_6 Ta4_7 2.564012 1_555
Be1_6 Ta0_6 2.623095 1_555
Be1_6 Ta1_7 2.623095 1_555
Be1_7 Ta2_3 2.535241 1_555
Be1_7 Ta2_7 2.535241 1_555
Be1_7 Ta4_2 2.564012 1_556
Be1_7 Ta4_6 2.564012 1_556
Be1_7 Ta5_3 2.564012 1_555
Be1_7 Ta5_7 2.564012 1_555
Be1_7 Ta0_7 2.623095 1_555
Be1_7 Ta1_6 2.623095 1_556
Be2_0 Be3_2 2.088987 1_555
Be2_0 Ta5_4 2.535241 1_455
Be2_0 Ta5_0 2.535241 1_555
Be2_0 Ta3_0 2.564012 1_555
Be2_0 Ta3_4 2.564012 1_455
Be2_0 Ta2_6 2.564012 1_455
Be2_0 Ta2_2 2.564012 1_555
Be2_0 Ta0_0 2.623095 1_555
Be2_0 Ta1_3 2.623095 1_555
Be2_1 Be3_3 2.088987 1_555
Be2_1 Ta5_1 2.535241 1_555
Be2_1 Ta5_5 2.535241 1_455
Be2_1 Ta3_1 2.564012 1_555
Be2_1 Ta3_5 2.564012 1_455
Be2_1 Ta2_3 2.564012 1_555
Be2_1 Ta2_7 2.564012 1_455
Be2_1 Ta1_2 2.623095 1_556
Be2_1 Ta0_1 2.623095 1_555
Be2_2 Be3_0 2.088987 1_565
Be2_2 Ta5_2 2.535241 1_555
Be2_2 Ta5_6 2.535241 1_455
Be2_2 Ta3_2 2.564012 1_555
Be2_2 Ta3_6 2.564012 1_455
Be2_2 Ta2_0 2.564012 1_565
Be2_2 Ta2_4 2.564012 1_465
Be2_2 Ta1_1 2.623095 1_565
Be2_2 Ta0_2 2.623095 1_555
Be2_3 Be3_1 2.088987 1_565
Be2_3 Ta5_3 2.535241 1_555
Be2_3 Ta5_7 2.535241 1_455
Be2_3 Ta2_1 2.564012 1_565
Be2_3 Ta2_5 2.564012 1_465
Be2_3 Ta3_3 2.564012 1_555
Be2_3 Ta3_7 2.564012 1_455
Be2_3 Ta1_0 2.623095 1_566
Be2_3 Ta0_3 2.623095 1_555
Be2_4 Be3_6 2.088987 1_555
Be2_4 Ta5_4 2.535241 1_555
Be2_4 Ta5_0 2.535241 1_555
Be2_4 Ta3_0 2.564012 1_555
Be2_4 Ta3_4 2.564012 1_555
Be2_4 Ta2_6 2.564012 1_555
Be2_4 Ta2_2 2.564012 1_555
Be2_4 Ta1_7 2.623095 1_555
Be2_4 Ta0_4 2.623095 1_555
Be2_5 Be3_7 2.088987 1_555
Be2_5 Ta5_5 2.535241 1_555
Be2_5 Ta5_1 2.535241 1_555
Be2_5 Ta3_5 2.564012 1_555
Be2_5 Ta3_1 2.564012 1_555
Be2_5 Ta2_3 2.564012 1_555
Be2_5 Ta2_7 2.564012 1_555
Be2_5 Ta1_6 2.623095 1_556
Be2_5 Ta0_5 2.623095 1_555
Be2_6 Be3_4 2.088987 1_565
Be2_6 Ta5_2 2.535241 1_555
Be2_6 Ta5_6 2.535241 1_555
Be2_6 Ta2_4 2.564012 1_565
Be2_6 Ta3_2 2.564012 1_555
Be2_6 Ta3_6 2.564012 1_555
Be2_6 Ta2_0 2.564012 1_565
Be2_6 Ta1_5 2.623095 1_565
Be2_6 Ta0_6 2.623095 1_555
Be2_7 Be3_5 2.088987 1_565
Be2_7 Ta5_7 2.535241 1_555
Be2_7 Ta5_3 2.535241 1_555
Be2_7 Ta2_1 2.564012 1_565
Be2_7 Ta2_5 2.564012 1_565
Be2_7 Ta3_3 2.564012 1_555
Be2_7 Ta3_7 2.564012 1_555
Be2_7 Ta1_4 2.623095 1_566
Be2_7 Ta0_7 2.623095 1_555
Be3_0 Ta4_0 2.535241 1_555
Be3_0 Ta4_4 2.535241 1_455
Be3_0 Ta3_6 2.564012 1_445
Be3_0 Ta3_2 2.564012 1_545
Be3_0 Ta2_0 2.564012 1_555
Be3_0 Ta2_4 2.564012 1_455
Be3_0 Ta0_0 2.623095 1_555
Be3_0 Ta1_0 2.623095 1_555
Be3_1 Ta4_1 2.535241 1_555
Be3_1 Ta4_5 2.535241 1_455
Be3_1 Ta2_1 2.564012 1_555
Be3_1 Ta2_5 2.564012 1_455
Be3_1 Ta3_3 2.564012 1_545
Be3_1 Ta3_7 2.564012 1_445
Be3_1 Ta0_1 2.623095 1_555
Be3_1 Ta1_1 2.623095 1_555
Be3_2 Ta4_2 2.535241 1_555
Be3_2 Ta4_6 2.535241 1_455
Be3_2 Ta3_0 2.564012 1_555
Be3_2 Ta2_2 2.564012 1_555
Be3_2 Ta3_4 2.564012 1_455
Be3_2 Ta2_6 2.564012 1_455
Be3_2 Ta0_2 2.623095 1_555
Be3_2 Ta1_2 2.623095 1_555
Be3_3 Ta4_3 2.535241 1_555
Be3_3 Ta4_7 2.535241 1_455
Be3_3 Ta2_7 2.564012 1_455
Be3_3 Ta2_3 2.564012 1_555
Be3_3 Ta3_1 2.564012 1_555
Be3_3 Ta3_5 2.564012 1_455
Be3_3 Ta0_3 2.623095 1_555
Be3_3 Ta1_3 2.623095 1_555
Be3_4 Ta4_0 2.535241 1_555
Be3_4 Ta4_4 2.535241 1_555
Be3_4 Ta3_2 2.564012 1_545
Be3_4 Ta3_6 2.564012 1_545
Be3_4 Ta2_0 2.564012 1_555
Be3_4 Ta2_4 2.564012 1_555
Be3_4 Ta1_4 2.623095 1_555
Be3_4 Ta0_4 2.623095 1_555
Be3_5 Ta4_1 2.535241 1_555
Be3_5 Ta4_5 2.535241 1_555
Be3_5 Ta2_1 2.564012 1_555
Be3_5 Ta2_5 2.564012 1_555
Be3_5 Ta3_3 2.564012 1_545
Be3_5 Ta3_7 2.564012 1_545
Be3_5 Ta0_5 2.623095 1_555
Be3_5 Ta1_5 2.623095 1_555
Be3_6 Ta4_2 2.535241 1_555
Be3_6 Ta4_6 2.535241 1_555
Be3_6 Ta3_0 2.564012 1_555
Be3_6 Ta2_2 2.564012 1_555
Be3_6 Ta2_6 2.564012 1_555
Be3_6 Ta3_4 2.564012 1_555
Be3_6 Ta0_6 2.623095 1_555
Be3_6 Ta1_6 2.623095 1_555
Be3_7 Ta4_7 2.535241 1_555
Be3_7 Ta4_3 2.535241 1_555
Be3_7 Ta2_7 2.564012 1_555
Be3_7 Ta2_3 2.564012 1_555
Be3_7 Ta3_1 2.564012 1_555
Be3_7 Ta3_5 2.564012 1_555
Be3_7 Ta0_7 2.623095 1_555
Be3_7 Ta1_7 2.623095 1_555
