# generated using pymatgen
data_Ca2Co3O8
_symmetry_space_group_name_H-M   'P 1'
_cell_length_a   5.99563233
_cell_length_b   5.99563233
_cell_length_c   10.51276800
_cell_angle_alpha   90.00000000
_cell_angle_beta   90.00000000
_cell_angle_gamma   120.00000360
_symmetry_Int_Tables_number   1
_chemical_formula_structural   Ca2Co3O8
_chemical_formula_sum   'Ca4 Co6 O16'
_cell_volume   327.27865464
_cell_formula_units_Z   2
loop_
 _symmetry_equiv_pos_site_id
 _symmetry_equiv_pos_as_xyz
  1  'x, y, z'
loop_
 _atom_site_type_symbol
 _atom_site_label
 _atom_site_symmetry_multiplicity
 _atom_site_fract_x
 _atom_site_fract_y
 _atom_site_fract_z
 _atom_site_occupancy
  Ca  Ca0  1  0.66666700  0.33333300  0.02456800  1
  Ca  Ca1  1  0.33333300  0.66666700  0.52456800  1
  Ca  Ca2  1  0.66666700  0.33333300  0.42598100  1
  Ca  Ca3  1  0.33333300  0.66666700  0.92598100  1
  Co  Co0  1  0.67213200  0.83606600  0.24640000  1
  Co  Co1  1  0.83606600  0.16393400  0.74640100  1
  Co  Co2  1  0.16393400  0.32786800  0.24640000  1
  Co  Co3  1  0.83606600  0.67213200  0.74640100  1
  Co  Co4  1  0.32786800  0.16393400  0.74640100  1
  Co  Co5  1  0.16393400  0.83606600  0.24640000  1
  O  O0  1  0.84856800  0.15143200  0.16135000  1
  O  O1  1  0.69713600  0.84856800  0.66135000  1
  O  O2  1  0.15143200  0.30286400  0.66135000  1
  O  O3  1  0.84856800  0.69713600  0.16135000  1
  O  O4  1  0.30286400  0.15143200  0.16135000  1
  O  O5  1  0.15143200  0.84856800  0.66135000  1
  O  O6  1  0.52445100  0.47554900  0.84231000  1
  O  O7  1  0.04890300  0.52445100  0.34231000  1
  O  O8  1  0.47554900  0.95109700  0.34231000  1
  O  O9  1  0.52445100  0.04890300  0.84231000  1
  O  O10  1  0.00000000  0.00000000  0.35860500  1
  O  O11  1  0.00000000  0.00000000  0.85860500  1
  O  O12  1  0.33333300  0.66666700  0.13416700  1
  O  O13  1  0.95109700  0.47554900  0.84231000  1
  O  O14  1  0.47554900  0.52445100  0.34231000  1
  O  O15  1  0.66666700  0.33333300  0.63416700  1
loop_
_geom_bond_atom_site_label_1
_geom_bond_atom_site_label_2
_geom_bond_distance
_geom_bond_site_symmetry_2
Ca0 O0 2.374031 1_555
Ca0 O3 2.374035 1_555
Ca0 O4 2.374035 1_555
Ca0 O13 2.419158 1_554
Ca0 O9 2.419158 1_554
Ca0 O6 2.419165 1_554
Ca1 O5 2.374031 1_555
Ca1 O1 2.374035 1_555
Ca1 O2 2.374035 1_555
Ca1 O8 2.419158 1_555
Ca1 O7 2.419158 1_555
Ca1 O14 2.419165 1_555
Ca2 O7 2.170898 1_655
Ca2 O8 2.170898 1_545
Ca2 O14 2.170898 1_555
Ca2 O15 2.188611 1_555
Ca3 O9 2.170898 1_565
Ca3 O13 2.170898 1_455
Ca3 O6 2.170898 1_555
Ca3 O12 2.188611 1_556
Co0 O0 1.869083 1_565
Co0 O3 1.869083 1_555
Co0 O8 1.922074 1_555
Co0 O14 1.922078 1_555
Co0 O10 2.071142 1_665
Co0 O12 2.118205 1_555
Co1 O2 1.869088 1_655
Co1 O1 1.869088 1_545
Co1 O9 1.922074 1_555
Co1 O13 1.922074 1_555
Co1 O11 2.071136 1_655
Co1 O15 2.118207 1_555
Co2 O0 1.869083 1_455
Co2 O4 1.869083 1_555
Co2 O7 1.922074 1_555
Co2 O14 1.922078 1_555
Co2 O10 2.071142 1_555
Co2 O12 2.118205 1_555
Co3 O5 1.869088 1_655
Co3 O1 1.869088 1_555
Co3 O13 1.922069 1_555
Co3 O6 1.922073 1_555
Co3 O11 2.071136 1_665
Co3 O15 2.118211 1_555
Co4 O5 1.869088 1_545
Co4 O2 1.869088 1_555
Co4 O9 1.922069 1_555
Co4 O6 1.922073 1_555
Co4 O11 2.071136 1_555
Co4 O15 2.118211 1_555
Co5 O4 1.869083 1_565
Co5 O3 1.869083 1_455
Co5 O7 1.922079 1_555
Co5 O8 1.922079 1_555
Co5 O10 2.071142 1_565
Co5 O12 2.118201 1_555
