# generated using pymatgen
data_Li6MnV3(PO4)6
_symmetry_space_group_name_H-M   'P 1'
_cell_length_a   9.83602500
_cell_length_b   9.87114100
_cell_length_c   9.87431297
_cell_angle_alpha   86.66431570
_cell_angle_beta   85.99129386
_cell_angle_gamma   87.14677279
_symmetry_Int_Tables_number   1
_chemical_formula_structural   Li6MnV3(PO4)6
_chemical_formula_sum   'Li12 Mn2 V6 P12 O48'
_cell_volume   953.75241871
_cell_formula_units_Z   2
loop_
 _symmetry_equiv_pos_site_id
 _symmetry_equiv_pos_as_xyz
  1  'x, y, z'
loop_
 _atom_site_type_symbol
 _atom_site_label
 _atom_site_symmetry_multiplicity
 _atom_site_fract_x
 _atom_site_fract_y
 _atom_site_fract_z
 _atom_site_occupancy
  Li  Li0  1  0.73410200  0.00764300  0.49095900  1
  Li  Li1  1  0.61589700  0.95361900  0.75831500  1
  Li  Li2  1  0.52927800  0.22956300  0.43561500  1
  Li  Li3  1  0.83774100  0.20365200  0.27968100  1
  Li  Li4  1  0.38120800  0.23829900  0.05537600  1
  Li  Li5  1  0.15995400  0.37217300  0.25381100  1
  Li  Li6  1  0.27945900  0.51172800  0.98090100  1
  Li  Li7  1  0.47171100  0.57234100  0.76086600  1
  Li  Li8  1  0.02102400  0.67121600  0.09206300  1
  Li  Li9  1  0.17813300  0.73445900  0.78117000  1
  Li  Li10  1  0.83529600  0.75513300  0.62085600  1
  Li  Li11  1  0.98106200  0.90457000  0.32356000  1
  Mn  Mn0  1  0.50653500  0.53078300  0.46653800  1
  Mn  Mn1  1  0.27114300  0.97314900  0.24277800  1
  V  V0  1  0.22346400  0.03094600  0.74568900  1
  V  V1  1  0.00460700  0.25323600  0.75067300  1
  V  V2  1  0.78190200  0.25497500  0.97117000  1
  V  V3  1  0.99869300  0.46979300  0.53276200  1
  V  V4  1  0.71830400  0.75393100  0.03701400  1
  V  V5  1  0.49220300  0.75212400  0.24958300  1
  P  P0  1  0.60245300  0.05193000  0.18272900  1
  P  P1  1  0.09294700  0.16750700  0.04880200  1
  P  P2  1  0.06729300  0.15418600  0.45020300  1
  P  P3  1  0.70046700  0.32576400  0.66097600  1
  P  P4  1  0.30334000  0.34872400  0.67332600  1
  P  P5  1  0.56779600  0.45127000  0.15334500  1
  P  P6  1  0.93050500  0.55605400  0.84725900  1
  P  P7  1  0.19529300  0.64439300  0.31396200  1
  P  P8  1  0.79555700  0.67720300  0.35099000  1
  P  P9  1  0.42812700  0.83848900  0.55144000  1
  P  P10  1  0.40890700  0.82271800  0.94495300  1
  P  P11  1  0.90376300  0.95190100  0.83086800  1
  O  O0  1  0.11194400  0.02523300  0.11391500  1
  O  O1  1  0.45028200  0.09032200  0.17476900  1
  O  O2  1  0.20489800  0.11087400  0.38367700  1
  O  O3  1  0.67934200  0.11098900  0.05035200  1
  O  O4  1  0.66210600  0.10223900  0.30963700  1
  O  O5  1  0.07335000  0.12485600  0.60964400  1
  O  O6  1  0.94432900  0.08194400  0.40333400  1
  O  O7  1  0.87903800  0.11280400  0.84182800  1
  O  O8  1  0.12691900  0.16862600  0.88918600  1
  O  O9  1  0.32610200  0.19202700  0.68675100  1
  O  O10  1  0.93635300  0.21407900  0.08146300  1
  O  O11  1  0.65078900  0.20803400  0.58895700  1
  O  O12  1  0.18520400  0.27203700  0.09760600  1
  O  O13  1  0.04240200  0.31110800  0.41281100  1
  O  O14  1  0.68054800  0.29967700  0.82297200  1
  O  O15  1  0.86046300  0.33254400  0.62835700  1
  O  O16  1  0.70560200  0.38270300  0.09709900  1
  O  O17  1  0.44533500  0.41026300  0.08328400  1
  O  O18  1  0.14296100  0.38221500  0.66579200  1
  O  O19  1  0.37823500  0.39014900  0.53309800  1
  O  O20  1  0.56047000  0.41205700  0.30996300  1
  O  O21  1  0.34897000  0.42270100  0.79175200  1
  O  O22  1  0.92449700  0.39610200  0.87749700  1
  O  O23  1  0.63026000  0.46496700  0.63065100  1
  O  O24  1  0.15326800  0.56378100  0.19548900  1
  O  O25  1  0.85578900  0.54239900  0.40730400  1
  O  O26  1  0.13915000  0.58286600  0.45358500  1
  O  O27  1  0.58085900  0.61018600  0.12383900  1
  O  O28  1  0.35510400  0.62282600  0.31855900  1
  O  O29  1  0.05852700  0.60653400  0.90444900  1
  O  O30  1  0.93233600  0.59064300  0.68970300  1
  O  O31  1  0.79740700  0.61746400  0.91361800  1
  O  O32  1  0.63310000  0.66835100  0.37490400  1
  O  O33  1  0.83736700  0.69787100  0.19530700  1
  O  O34  1  0.44057700  0.67983600  0.58493100  1
  O  O35  1  0.35155100  0.69727500  0.88769500  1
  O  O36  1  0.14806800  0.79487800  0.29769500  1
  O  O37  1  0.37291900  0.82224200  0.10171400  1
  O  O38  1  0.83436800  0.80104800  0.42531800  1
  O  O39  1  0.56843900  0.82448500  0.91449100  1
  O  O40  1  0.41783300  0.87176500  0.39389200  1
  O  O41  1  0.62972300  0.89207200  0.17776400  1
  O  O42  1  0.28924000  0.88186800  0.62487100  1
  O  O43  1  0.05822900  0.91698800  0.79608300  1
  O  O44  1  0.55080200  0.91005700  0.59353600  1
  O  O45  1  0.86297500  0.88216200  0.96947200  1
  O  O46  1  0.81446700  0.91490400  0.71829000  1
  O  O47  1  0.34933500  0.95827300  0.88206400  1
loop_
_geom_bond_atom_site_label_1
_geom_bond_atom_site_label_2
_geom_bond_distance
_geom_bond_site_symmetry_2
Li0 O4 2.120362 1_555
Li0 O44 2.237963 1_545
Li0 O6 2.321495 1_555
Li0 O38 2.327191 1_545
Li0 O11 2.339067 1_555
Li0 O46 2.537447 1_545
Li1 O44 1.869956 1_555
Li1 O39 1.987652 1_555
Li1 O46 1.988049 1_555
Li2 O11 1.989111 1_555
Li2 O20 2.149503 1_555
Li2 O4 2.150629 1_555
Li2 O19 2.321566 1_555
Li3 O6 1.978937 1_555
Li3 O4 2.034776 1_555
Li3 O10 2.122110 1_555
Li4 O17 1.881639 1_555
Li4 O1 1.948821 1_555
Li4 O12 1.959957 1_555
Li5 O12 1.875420 1_555
Li5 O24 1.944090 1_555
Li5 O13 1.967394 1_555
Li6 O35 2.132219 1_555
Li6 O17 2.153436 1_556
Li6 O21 2.163506 1_555
Li6 O24 2.447427 1_556
Li6 O29 2.472391 1_555
Li7 O21 1.950911 1_555
Li7 O34 2.016239 1_555
Li7 O35 2.076973 1_555
Li7 O23 2.218633 1_555
Li8 O24 1.944730 1_555
Li8 O29 1.998591 1_554
Li8 O33 2.024407 1_455
Li9 O29 2.056502 1_555
Li9 O35 2.072269 1_555
Li9 O43 2.110458 1_555
Li9 O42 2.314021 1_555
Li10 O46 1.889910 1_555
Li10 O30 1.953866 1_555
Li10 O38 1.957989 1_555
Li11 O36 1.931963 1_655
Li11 O6 1.968338 1_565
Li11 O38 1.990065 1_555
Mn0 O19 1.975835 1_555
Mn0 O34 1.987827 1_555
Mn0 O20 2.019789 1_555
Mn0 O32 2.019983 1_555
Mn0 O23 2.145603 1_555
Mn0 O28 2.279079 1_555
Mn1 O2 2.052718 1_565
Mn1 O0 2.111330 1_565
Mn1 O1 2.200120 1_565
Mn1 O36 2.205779 1_555
Mn1 O37 2.249303 1_555
Mn1 O40 2.300727 1_555
O0 P1 1.518633 1_555
O1 P0 1.531860 1_555
O2 P2 1.515583 1_555
O3 P0 1.561224 1_555
O3 V2 1.884732 1_554
O4 P0 1.538004 1_555
O5 P2 1.588826 1_555
O5 V1 1.997693 1_555
O5 V0 2.200043 1_555
O6 P2 1.545341 1_655
O7 P11 1.603561 1_545
O7 V1 2.031520 1_655
O7 V2 2.101900 1_555
O8 P1 1.587631 1_556
O8 V1 2.003166 1_555
O8 V0 2.159630 1_555
O9 P4 1.551139 1_555
O9 V0 1.963703 1_555
O10 P1 1.601582 1_655
O10 V2 1.943209 1_554
O11 P3 1.515360 1_555
O12 P1 1.527279 1_555
O13 P2 1.582400 1_555
O13 V3 2.029531 1_455
O14 P3 1.605205 1_555
O14 V2 1.847971 1_555
O15 P3 1.588061 1_555
O15 V1 2.025012 1_655
O15 V3 2.104812 1_555
O16 P5 1.565567 1_555
O16 V2 1.912294 1_554
O17 P5 1.513596 1_555
O18 P4 1.601541 1_555
O18 V1 2.015987 1_555
O18 V3 2.119625 1_455
O19 P4 1.564814 1_555
O20 P5 1.569778 1_555
O21 P4 1.519047 1_555
O22 P6 1.592971 1_555
O22 V1 2.033439 1_655
O22 V2 2.150956 1_555
O23 P3 1.530106 1_555
O24 P7 1.543134 1_555
O25 P8 1.520639 1_555
O25 V3 2.015911 1_555
O26 P7 1.550509 1_555
O26 V3 1.914850 1_455
O27 P5 1.588649 1_555
O27 V5 2.048063 1_555
O27 V4 2.112677 1_555
O28 P7 1.579178 1_555
O28 V5 1.962937 1_555
O29 P6 1.532152 1_455
O30 P6 1.572311 1_555
O30 V3 2.060776 1_555
O31 P6 1.535572 1_555
O31 V4 1.964370 1_556
O32 P8 1.604843 1_555
O32 V5 2.035277 1_555
O33 P8 1.567605 1_555
O33 V4 2.052206 1_555
O34 P9 1.582177 1_555
O35 P10 1.538455 1_555
O36 P7 1.536921 1_555
O37 P10 1.563346 1_554
O37 V5 2.007144 1_555
O38 P8 1.539132 1_555
O39 P10 1.577710 1_555
O39 V4 2.042233 1_556
O40 P9 1.580357 1_555
O40 V5 1.981016 1_555
O41 P0 1.590409 1_565
O41 V5 2.044230 1_555
O41 V4 2.117332 1_555
O42 P9 1.553936 1_555
O42 V0 2.002231 1_565
O43 P11 1.560064 1_455
O43 V0 2.039180 1_565
O44 P9 1.522167 1_555
O45 P11 1.532663 1_555
O45 V4 2.005067 1_556
O46 P11 1.535000 1_555
O47 P10 1.547756 1_555
O47 V0 1.973082 1_565
