# generated using pymatgen
data_Ca2Nb2O7
_symmetry_space_group_name_H-M   'P 1'
_cell_length_a   5.51077108
_cell_length_b   7.73106055
_cell_length_c   13.51203751
_cell_angle_alpha   81.67729673
_cell_angle_beta   90.00000000
_cell_angle_gamma   90.00000000
_symmetry_Int_Tables_number   1
_chemical_formula_structural   Ca2Nb2O7
_chemical_formula_sum   'Ca8 Nb8 O28'
_cell_volume   569.60561961
_cell_formula_units_Z   4
loop_
 _symmetry_equiv_pos_site_id
 _symmetry_equiv_pos_as_xyz
  1  'x, y, z'
loop_
 _atom_site_type_symbol
 _atom_site_label
 _atom_site_symmetry_multiplicity
 _atom_site_fract_x
 _atom_site_fract_y
 _atom_site_fract_z
 _atom_site_occupancy
  Ca  Ca0  1  0.76620860  0.76988278  0.91544464  1
  Ca  Ca1  1  0.26620860  0.23011722  0.08455536  1
  Ca  Ca2  1  0.34705236  0.86070003  0.56594902  1
  Ca  Ca3  1  0.84705236  0.13929997  0.43405098  1
  Ca  Ca4  1  0.74873823  0.28328128  0.87564719  1
  Ca  Ca5  1  0.24873823  0.71671872  0.12435281  1
  Ca  Ca6  1  0.27408350  0.35851675  0.60261344  1
  Ca  Ca7  1  0.77408350  0.64148325  0.39738656  1
  Nb  Nb0  1  0.26283408  0.52628794  0.88162577  1
  Nb  Nb1  1  0.76283408  0.47371206  0.11837423  1
  Nb  Nb2  1  0.78675193  0.58864011  0.67372248  1
  Nb  Nb3  1  0.28675193  0.41135989  0.32627752  1
  Nb  Nb4  1  0.26349751  0.03237948  0.88363879  1
  Nb  Nb5  1  0.76349751  0.96762052  0.11636121  1
  Nb  Nb6  1  0.78300478  0.07889404  0.67654137  1
  Nb  Nb7  1  0.28300478  0.92110596  0.32345863  1
  O  O0  1  0.55402561  0.92720976  0.40562569  1
  O  O1  1  0.05402561  0.07279024  0.59437431  1
  O  O2  1  0.44137042  0.98506356  0.18038108  1
  O  O3  1  0.94137042  0.01493644  0.81961892  1
  O  O4  1  0.35675821  0.67301232  0.30190700  1
  O  O5  1  0.85675821  0.32698768  0.69809300  1
  O  O6  1  0.65816881  0.72845196  0.08693585  1
  O  O7  1  0.15816881  0.27154804  0.91306415  1
  O  O8  1  0.06101737  0.86228655  0.42795452  1
  O  O9  1  0.56101737  0.13771345  0.57204548  1
  O  O10  1  0.95607545  0.87996757  0.22572820  1
  O  O11  1  0.45607545  0.12003243  0.77427180  1
  O  O12  1  0.03437774  0.94837652  0.02024674  1
  O  O13  1  0.53437774  0.05162348  0.97975326  1
  O  O14  1  0.58172696  0.36518674  0.38509291  1
  O  O15  1  0.08172696  0.63481326  0.61490709  1
  O  O16  1  0.53231886  0.45918085  0.97860208  1
  O  O17  1  0.03231886  0.54081915  0.02139792  1
  O  O18  1  0.45360634  0.49438397  0.77138129  1
  O  O19  1  0.95360634  0.50561603  0.22861871  1
  O  O20  1  0.58274989  0.58654126  0.56048165  1
  O  O21  1  0.08274989  0.41345874  0.43951835  1
  O  O22  1  0.33309626  0.77776199  0.88895642  1
  O  O23  1  0.83309626  0.22223801  0.11104358  1
  O  O24  1  0.67502091  0.82756181  0.69325306  1
  O  O25  1  0.17502091  0.17243819  0.30674694  1
  O  O26  1  0.93791817  0.57335043  0.82182144  1
  O  O27  1  0.43791817  0.42664957  0.17817856  1
loop_
_geom_bond_atom_site_label_1
_geom_bond_atom_site_label_2
_geom_bond_distance
_geom_bond_site_symmetry_2
Ca0 O26 2.315329 1_555
Ca0 O3 2.342509 1_565
Ca0 O6 2.368883 1_556
Ca0 O22 2.412930 1_555
Ca0 O17 2.569492 1_656
Ca0 O12 2.580547 1_656
Ca0 O16 2.750636 1_555
Ca0 O13 2.771194 1_565
Ca1 O27 2.315329 1_555
Ca1 O2 2.342509 1_545
Ca1 O7 2.368883 1_554
Ca1 O23 2.412930 1_455
Ca1 O16 2.569492 1_554
Ca1 O13 2.580547 1_554
Ca1 O17 2.750636 1_555
Ca1 O12 2.771194 1_545
Ca2 O15 2.300167 1_555
Ca2 O1 2.371916 1_565
Ca2 O0 2.436326 1_555
Ca2 O8 2.440256 1_555
Ca2 O9 2.456552 1_565
Ca2 O24 2.482635 1_555
Ca2 O20 2.496058 1_555
Ca3 O14 2.300167 1_555
Ca3 O0 2.371916 1_545
Ca3 O1 2.436326 1_655
Ca3 O9 2.440256 1_555
Ca3 O8 2.456552 1_645
Ca3 O25 2.482635 1_655
Ca3 O21 2.496058 1_655
Ca4 O7 2.311137 1_655
Ca4 O16 2.398874 1_555
Ca4 O13 2.419177 1_555
Ca4 O5 2.447369 1_555
Ca4 O26 2.484482 1_555
Ca4 O3 2.541383 1_555
Ca4 O11 2.563353 1_555
Ca4 O18 2.574485 1_555
Ca5 O6 2.311137 1_555
Ca5 O17 2.398874 1_555
Ca5 O12 2.419177 1_555
Ca5 O4 2.447369 1_555
Ca5 O27 2.484482 1_555
Ca5 O2 2.541383 1_555
Ca5 O10 2.563353 1_455
Ca5 O19 2.574485 1_455
Ca6 O9 2.406032 1_555
Ca6 O15 2.411796 1_555
Ca6 O21 2.424394 1_555
Ca6 O20 2.456550 1_555
Ca6 O1 2.536483 1_555
Ca6 O5 2.630932 1_455
Ca6 O18 2.824132 1_555
Ca6 O11 2.923534 1_555
Ca7 O8 2.406032 1_655
Ca7 O14 2.411796 1_555
Ca7 O20 2.424394 1_555
Ca7 O21 2.456550 1_655
Ca7 O0 2.536483 1_555
Ca7 O4 2.630932 1_555
Ca7 O19 2.824132 1_555
Ca7 O10 2.923534 1_555
Nb0 O18 1.868537 1_555
Nb0 O26 1.976431 1_455
Nb0 O16 1.998699 1_555
Nb0 O22 1.998811 1_555
Nb0 O7 2.037036 1_555
Nb0 O17 2.292287 1_556
Nb1 O19 1.868537 1_555
Nb1 O27 1.976431 1_555
Nb1 O17 1.998699 1_655
Nb1 O23 1.998811 1_555
Nb1 O6 2.037036 1_555
Nb1 O16 2.292287 1_554
Nb2 O15 1.821881 1_655
Nb2 O20 1.900670 1_555
Nb2 O24 2.000430 1_555
Nb2 O5 2.038714 1_555
Nb2 O26 2.154978 1_555
Nb2 O18 2.316114 1_555
Nb3 O14 1.821881 1_555
Nb3 O21 1.900670 1_555
Nb3 O25 2.000430 1_555
Nb3 O4 2.038714 1_555
Nb3 O27 2.154978 1_555
Nb3 O19 2.316114 1_455
Nb4 O11 1.865307 1_555
Nb4 O3 1.987831 1_455
Nb4 O22 1.996539 1_545
Nb4 O13 1.998256 1_555
Nb4 O7 2.031434 1_555
Nb4 O12 2.253025 1_546
Nb5 O10 1.865307 1_555
Nb5 O2 1.987831 1_555
Nb5 O23 1.996539 1_565
Nb5 O12 1.998256 1_655
Nb5 O6 2.031434 1_555
Nb5 O13 2.253025 1_564
Nb6 O1 1.865658 1_655
Nb6 O9 1.873776 1_555
Nb6 O24 2.013351 1_545
Nb6 O5 2.022503 1_555
Nb6 O3 2.113509 1_555
Nb6 O11 2.283076 1_555
Nb7 O0 1.865658 1_555
Nb7 O8 1.873776 1_555
Nb7 O25 2.013351 1_565
Nb7 O4 2.022503 1_555
Nb7 O2 2.113509 1_555
Nb7 O10 2.283076 1_455
