# generated using pymatgen
data_PuAl3
_symmetry_space_group_name_H-M   'P 1'
_cell_length_a   5.98872836
_cell_length_b   5.98872836
_cell_length_c   14.44057100
_cell_angle_alpha   90.00000000
_cell_angle_beta   90.00000000
_cell_angle_gamma   120.00000398
_symmetry_Int_Tables_number   1
_chemical_formula_structural   PuAl3
_chemical_formula_sum   'Pu6 Al18'
_cell_volume   448.52247460
_cell_formula_units_Z   6
loop_
 _symmetry_equiv_pos_site_id
 _symmetry_equiv_pos_as_xyz
  1  'x, y, z'
loop_
 _atom_site_type_symbol
 _atom_site_label
 _atom_site_symmetry_multiplicity
 _atom_site_fract_x
 _atom_site_fract_y
 _atom_site_fract_z
 _atom_site_occupancy
  Pu  Pu0  1  0.00000000  0.00000000  0.25000000  1
  Pu  Pu1  1  0.00000000  0.00000000  0.75000000  1
  Pu  Pu2  1  0.33333300  0.66666700  0.08529400  1
  Pu  Pu3  1  0.66666700  0.33333300  0.58529400  1
  Pu  Pu4  1  0.66666700  0.33333300  0.91470600  1
  Pu  Pu5  1  0.33333300  0.66666700  0.41470600  1
  Al  Al0  1  0.50754900  0.01509700  0.25000000  1
  Al  Al1  1  0.49245100  0.50754900  0.75000000  1
  Al  Al2  1  0.01509700  0.50754900  0.75000000  1
  Al  Al3  1  0.98490300  0.49245100  0.25000000  1
  Al  Al4  1  0.50754900  0.49245100  0.25000000  1
  Al  Al5  1  0.49245100  0.98490300  0.75000000  1
  Al  Al6  1  0.16861400  0.33722800  0.58255000  1
  Al  Al7  1  0.83138600  0.16861400  0.08255000  1
  Al  Al8  1  0.33722800  0.16861400  0.08255000  1
  Al  Al9  1  0.66277200  0.83138600  0.58255000  1
  Al  Al10  1  0.16861400  0.83138600  0.58255000  1
  Al  Al11  1  0.83138600  0.66277200  0.41745000  1
  Al  Al12  1  0.83138600  0.16861400  0.41745000  1
  Al  Al13  1  0.83138600  0.66277200  0.08255000  1
  Al  Al14  1  0.33722800  0.16861400  0.41745000  1
  Al  Al15  1  0.66277200  0.83138600  0.91745000  1
  Al  Al16  1  0.16861400  0.33722800  0.91745000  1
  Al  Al17  1  0.16861400  0.83138600  0.91745000  1
loop_
_geom_bond_atom_site_label_1
_geom_bond_atom_site_label_2
_geom_bond_distance
_geom_bond_site_symmetry_2
Al0 Al3 2.858743 1_555
Al0 Al4 2.858743 1_555
Al0 Al7 2.944568 1_555
Al0 Al12 2.944568 1_555
Al0 Al8 2.944572 1_555
Al0 Al14 2.944572 1_555
Al0 Pu5 2.987073 1_545
Al0 Pu2 2.987073 1_545
Al0 Pu0 2.995385 1_655
Al0 Pu0 2.995391 1_555
Al0 Al3 3.129985 1_445
Al0 Al4 3.129985 1_545
Al1 Al2 2.858743 1_555
Al1 Al5 2.858743 1_555
Al1 Al6 2.944569 1_555
Al1 Al9 2.944569 1_555
Al1 Al15 2.944569 1_555
Al1 Al16 2.944569 1_555
Al1 Pu4 2.987080 1_555
Al1 Pu3 2.987080 1_555
Al1 Pu1 2.995388 1_555
Al1 Pu1 2.995388 1_665
Al1 Al5 3.129985 1_545
Al1 Al2 3.129985 1_655
Al2 Al5 2.858743 1_555
Al2 Al6 2.944572 1_555
Al2 Pu4 2.987073 1_455
Al2 Pu3 2.987073 1_455
Al2 Pu1 2.995385 1_565
Al2 Pu1 2.995391 1_555
Al2 Al5 3.129985 1_445
Al3 Al4 2.858743 1_555
Al3 Al7 2.944568 1_555
Al3 Pu5 2.987073 1_655
Al3 Pu2 2.987073 1_655
Al3 Pu0 2.995385 1_655
Al3 Pu0 2.995391 1_665
Al3 Al4 3.129985 1_655
Al4 Al8 2.944569 1_555
Al4 Pu5 2.987080 1_555
Al4 Pu2 2.987080 1_555
Al4 Pu0 2.995388 1_555
Al4 Pu0 2.995388 1_665
Al5 Al9 2.944572 1_555
Al5 Pu4 2.987073 1_565
Al5 Pu3 2.987073 1_565
Al5 Pu1 2.995385 1_565
Al5 Pu1 2.995391 1_665
Al6 Al9 2.959378 1_555
Al6 Pu5 2.965458 1_555
Al6 Pu1 2.984304 1_555
Al6 Pu3 2.994691 1_455
Al6 Pu3 2.994697 1_555
Al6 Al9 3.029350 1_445
Al7 Al8 2.959378 1_555
Al7 Pu4 2.965455 1_554
Al7 Pu0 2.984304 1_655
Al7 Pu2 2.994694 1_545
Al7 Pu2 2.994694 1_655
Al7 Al8 3.029350 1_655
Al8 Pu4 2.965458 1_554
Al8 Pu0 2.984304 1_555
Al8 Pu2 2.994691 1_545
Al8 Pu2 2.994697 1_555
Al9 Pu5 2.965458 1_555
Al9 Pu1 2.984304 1_665
Al9 Pu3 2.994691 1_565
Al9 Pu3 2.994697 1_555
Al10 Al2 2.944568 1_555
Al10 Al5 2.944568 1_555
Al10 Al14 2.956874 1_565
Al10 Al11 2.956874 1_455
Al10 Al9 2.959378 1_555
Al10 Al6 2.959378 1_555
Al10 Pu5 2.965455 1_555
Al10 Pu1 2.984304 1_565
Al10 Pu3 2.994694 1_455
Al10 Pu3 2.994694 1_565
Al10 Al6 3.029350 1_565
Al10 Al9 3.029350 1_455
Al11 Al4 2.944569 1_555
Al11 Al3 2.944572 1_555
Al11 Al9 2.956874 1_555
Al11 Al14 2.959378 1_555
Al11 Al12 2.959378 1_555
Al11 Pu3 2.965458 1_555
Al11 Pu0 2.984304 1_665
Al11 Pu5 2.994691 1_655
Al11 Pu5 2.994697 1_555
Al11 Al14 3.029350 1_665
Al11 Al12 3.029350 1_565
Al12 Al3 2.944568 1_555
Al12 Al6 2.956874 1_655
Al12 Al9 2.956874 1_545
Al12 Al14 2.959378 1_555
Al12 Pu3 2.965455 1_555
Al12 Pu0 2.984304 1_655
Al12 Pu5 2.994694 1_545
Al12 Pu5 2.994694 1_655
Al12 Al14 3.029350 1_655
Al13 Al4 2.944569 1_555
Al13 Al3 2.944572 1_555
Al13 Al17 2.956874 1_654
Al13 Al15 2.956874 1_554
Al13 Al8 2.959378 1_555
Al13 Al7 2.959378 1_555
Al13 Pu4 2.965458 1_554
Al13 Pu0 2.984304 1_665
Al13 Pu2 2.994691 1_655
Al13 Pu2 2.994697 1_555
Al13 Al8 3.029350 1_665
Al13 Al7 3.029350 1_565
Al14 Al4 2.944569 1_555
Al14 Al6 2.956874 1_555
Al14 Pu3 2.965458 1_555
Al14 Pu0 2.984304 1_555
Al14 Pu5 2.994691 1_545
Al14 Pu5 2.994697 1_555
Al15 Al5 2.944572 1_555
Al15 Al7 2.956874 1_566
Al15 Al16 2.959378 1_555
Al15 Al17 2.959378 1_555
Al15 Pu2 2.965458 1_556
Al15 Pu1 2.984304 1_665
Al15 Pu4 2.994691 1_565
Al15 Pu4 2.994697 1_555
Al15 Al16 3.029350 1_665
Al15 Al17 3.029350 1_655
Al16 Al2 2.944572 1_555
Al16 Al7 2.956874 1_456
Al16 Al8 2.956874 1_556
Al16 Al17 2.959378 1_555
Al16 Pu2 2.965458 1_556
Al16 Pu1 2.984304 1_555
Al16 Pu4 2.994691 1_455
Al16 Pu4 2.994697 1_555
Al16 Al17 3.029350 1_545
Al17 Al2 2.944568 1_555
Al17 Al5 2.944568 1_555
Al17 Al8 2.956874 1_566
Al17 Pu2 2.965455 1_556
Al17 Pu1 2.984304 1_565
Al17 Pu4 2.994694 1_455
Al17 Pu4 2.994694 1_565
