# generated using pymatgen
data_Li5Cr(CO3)4
_symmetry_space_group_name_H-M   'P 1'
_cell_length_a   9.25913900
_cell_length_b   8.48216100
_cell_length_c   11.35884781
_cell_angle_alpha   87.97968009
_cell_angle_beta   90.00000000
_cell_angle_gamma   90.00000000
_symmetry_Int_Tables_number   1
_chemical_formula_structural   Li5Cr(CO3)4
_chemical_formula_sum   'Li20 Cr4 C16 O48'
_cell_volume   891.54105914
_cell_formula_units_Z   4
loop_
 _symmetry_equiv_pos_site_id
 _symmetry_equiv_pos_as_xyz
  1  'x, y, z'
loop_
 _atom_site_type_symbol
 _atom_site_label
 _atom_site_symmetry_multiplicity
 _atom_site_fract_x
 _atom_site_fract_y
 _atom_site_fract_z
 _atom_site_occupancy
  Li  Li0  1  0.36788100  0.43868500  0.06655700  1
  Li  Li1  1  0.13211900  0.93868500  0.06655700  1
  Li  Li2  1  0.86736200  0.43301300  0.11068800  1
  Li  Li3  1  0.63263800  0.93301300  0.11068800  1
  Li  Li4  1  0.10545500  0.29283200  0.21721500  1
  Li  Li5  1  0.39454500  0.79283200  0.21721500  1
  Li  Li6  1  0.32428700  0.48334000  0.35152300  1
  Li  Li7  1  0.17571300  0.98334000  0.35152300  1
  Li  Li8  1  0.91169200  0.44208800  0.39964600  1
  Li  Li9  1  0.58830800  0.94208800  0.39964600  1
  Li  Li10  1  0.41169200  0.05791200  0.60035400  1
  Li  Li11  1  0.08830800  0.55791200  0.60035400  1
  Li  Li12  1  0.82428700  0.01666000  0.64847700  1
  Li  Li13  1  0.67571300  0.51666000  0.64847700  1
  Li  Li14  1  0.60545500  0.20716800  0.78278500  1
  Li  Li15  1  0.89454500  0.70716800  0.78278500  1
  Li  Li16  1  0.36736200  0.06698700  0.88931200  1
  Li  Li17  1  0.13263800  0.56698700  0.88931200  1
  Li  Li18  1  0.86788100  0.06131500  0.93344300  1
  Li  Li19  1  0.63211900  0.56131500  0.93344300  1
  Cr  Cr0  1  0.62121900  0.28378300  0.26654000  1
  Cr  Cr1  1  0.87878100  0.78378300  0.26654000  1
  Cr  Cr2  1  0.12121900  0.21621700  0.73346000  1
  Cr  Cr3  1  0.37878100  0.71621700  0.73346000  1
  C  C0  1  0.61143900  0.24685200  0.01564600  1
  C  C1  1  0.88856100  0.74685200  0.01564600  1
  C  C2  1  0.36626200  0.12417500  0.20430900  1
  C  C3  1  0.13373800  0.62417500  0.20430900  1
  C  C4  1  0.84952400  0.11156100  0.28435500  1
  C  C5  1  0.65047600  0.61156100  0.28435500  1
  C  C6  1  0.15068600  0.25388100  0.48209200  1
  C  C7  1  0.34931400  0.75388100  0.48209200  1
  C  C8  1  0.65068600  0.24611900  0.51790800  1
  C  C9  1  0.84931400  0.74611900  0.51790800  1
  C  C10  1  0.34952400  0.38843900  0.71564500  1
  C  C11  1  0.15047600  0.88843900  0.71564500  1
  C  C12  1  0.86626200  0.37582500  0.79569100  1
  C  C13  1  0.63373800  0.87582500  0.79569100  1
  C  C14  1  0.11143900  0.25314800  0.98435400  1
  C  C15  1  0.38856100  0.75314800  0.98435400  1
  O  O0  1  0.17706400  0.38160300  0.00425900  1
  O  O1  1  0.32293600  0.88160300  0.00425900  1
  O  O2  1  0.99684600  0.20827800  0.04059900  1
  O  O3  1  0.50315400  0.70827800  0.04059900  1
  O  O4  1  0.66368600  0.34385000  0.09653500  1
  O  O5  1  0.83631400  0.84385000  0.09653500  1
  O  O6  1  0.22875700  0.10158000  0.19749600  1
  O  O7  1  0.27124300  0.60158000  0.19749600  1
  O  O8  1  0.45861900  0.01403000  0.19815900  1
  O  O9  1  0.04138100  0.51403000  0.19815900  1
  O  O10  1  0.41242800  0.27060300  0.22027200  1
  O  O11  1  0.08757200  0.77060300  0.22027200  1
  O  O12  1  0.86486200  0.26228600  0.29363600  1
  O  O13  1  0.72028300  0.06584500  0.25670900  1
  O  O14  1  0.63513800  0.76228600  0.29363600  1
  O  O15  1  0.77971700  0.56584500  0.25670900  1
  O  O16  1  0.95096600  0.00988600  0.30087100  1
  O  O17  1  0.54903400  0.50988600  0.30087100  1
  O  O18  1  0.14886000  0.34260800  0.38771600  1
  O  O19  1  0.35114000  0.84260800  0.38771600  1
  O  O20  1  0.57345800  0.19363200  0.42794200  1
  O  O21  1  0.92654200  0.69363200  0.42794200  1
  O  O22  1  0.71851000  0.37718800  0.50717800  1
  O  O23  1  0.78149000  0.87718800  0.50717800  1
  O  O24  1  0.21851000  0.12281200  0.49282200  1
  O  O25  1  0.28149000  0.62281200  0.49282200  1
  O  O26  1  0.07345800  0.30636800  0.57205800  1
  O  O27  1  0.42654200  0.80636800  0.57205800  1
  O  O28  1  0.64886000  0.15739200  0.61228400  1
  O  O29  1  0.85114000  0.65739200  0.61228400  1
  O  O30  1  0.45096600  0.49011400  0.69912900  1
  O  O31  1  0.04903400  0.99011400  0.69912900  1
  O  O32  1  0.22028300  0.43415500  0.74329100  1
  O  O33  1  0.36486200  0.23771400  0.70636400  1
  O  O34  1  0.27971700  0.93415500  0.74329100  1
  O  O35  1  0.13513800  0.73771400  0.70636400  1
  O  O36  1  0.91242800  0.22939700  0.77972800  1
  O  O37  1  0.58757200  0.72939700  0.77972800  1
  O  O38  1  0.95861900  0.48597000  0.80184100  1
  O  O39  1  0.54138100  0.98597000  0.80184100  1
  O  O40  1  0.72875700  0.39842000  0.80250400  1
  O  O41  1  0.77124300  0.89842000  0.80250400  1
  O  O42  1  0.16368600  0.15615000  0.90346500  1
  O  O43  1  0.33631400  0.65615000  0.90346500  1
  O  O44  1  0.49684600  0.29172200  0.95940100  1
  O  O45  1  0.00315400  0.79172200  0.95940100  1
  O  O46  1  0.67706400  0.11839700  0.99574100  1
  O  O47  1  0.82293600  0.61839700  0.99574100  1
loop_
_geom_bond_atom_site_label_1
_geom_bond_atom_site_label_2
_geom_bond_distance
_geom_bond_site_symmetry_2
Li0 O0 1.970005 1_555
Li0 O44 2.137355 1_554
Li0 O7 2.250943 1_555
Li0 O10 2.252961 1_555
Li1 O1 1.970005 1_555
Li1 O45 2.137355 1_554
Li1 O6 2.250943 1_565
Li1 O11 2.252961 1_555
Li2 O9 2.025770 1_655
Li2 O4 2.040315 1_555
Li2 O47 2.049836 1_554
Li2 O15 2.193362 1_555
Li2 O2 2.410800 1_555
Li2 O12 2.490754 1_555
Li3 O8 2.025770 1_565
Li3 O5 2.040315 1_555
Li3 O46 2.049836 1_564
Li3 O13 2.193362 1_565
Li3 O3 2.410800 1_555
Li3 O14 2.490754 1_555
Li4 O9 1.972423 1_555
Li4 O6 2.002706 1_555
Li4 O18 2.036717 1_555
Li4 O2 2.377344 1_455
Li4 O12 2.401534 1_455
Li5 O8 1.972423 1_565
Li5 O7 2.002706 1_555
Li5 O19 2.036717 1_555
Li5 O3 2.377344 1_555
Li5 O14 2.401534 1_555
Li6 O7 2.045572 1_555
Li6 O18 2.048833 1_555
Li6 O25 2.065539 1_555
Li6 O17 2.168641 1_555
Li6 O10 2.516841 1_555
Li7 O6 2.045572 1_565
Li7 O19 2.048833 1_555
Li7 O24 2.065539 1_565
Li7 O16 2.168641 1_465
Li7 O11 2.516841 1_555
Li8 O12 2.023225 1_555
Li8 O21 2.173239 1_555
Li8 O22 2.224183 1_555
Li8 O15 2.260764 1_555
Li8 O18 2.358119 1_655
Li9 O14 2.023225 1_555
Li9 O20 2.173239 1_565
Li9 O23 2.224183 1_555
Li9 O13 2.260764 1_565
Li9 O19 2.358119 1_555
Li10 O33 2.023225 1_555
Li10 O27 2.173239 1_545
Li10 O24 2.224183 1_555
Li10 O34 2.260764 1_545
Li10 O28 2.358119 1_555
Li11 O35 2.023225 1_555
Li11 O26 2.173239 1_555
Li11 O25 2.224183 1_555
Li11 O32 2.260764 1_555
Li11 O29 2.358119 1_455
Li12 O41 2.045572 1_545
Li12 O28 2.048833 1_555
Li12 O23 2.065539 1_545
Li12 O31 2.168641 1_645
Li12 O36 2.516841 1_555
Li13 O40 2.045572 1_555
Li13 O29 2.048833 1_555
Li13 O22 2.065539 1_555
Li13 O30 2.168641 1_555
Li13 O37 2.516841 1_555
Li14 O39 1.972423 1_545
Li14 O40 2.002706 1_555
Li14 O28 2.036717 1_555
Li14 O44 2.377344 1_555
Li14 O33 2.401534 1_555
Li15 O38 1.972423 1_555
Li15 O41 2.002706 1_555
Li15 O29 2.036717 1_555
Li15 O45 2.377344 1_655
Li15 O35 2.401534 1_655
Li16 O39 2.025770 1_545
Li16 O42 2.040315 1_555
Li16 O1 2.049836 1_546
Li16 O34 2.193362 1_545
Li16 O44 2.410800 1_555
Li16 O33 2.490754 1_555
Li17 O38 2.025770 1_455
Li17 O43 2.040315 1_555
Li17 O0 2.049836 1_556
Li17 O32 2.193362 1_555
Li17 O45 2.410800 1_555
Li17 O35 2.490754 1_555
Li18 O46 1.970005 1_555
Li18 O2 2.137355 1_556
Li18 O41 2.250943 1_545
Li18 O36 2.252961 1_555
Li19 O47 1.970005 1_555
Li19 O3 2.137355 1_556
Li19 O40 2.250943 1_555
Li19 O37 2.252961 1_555
Cr0 O10 2.007537 1_555
Cr0 O20 2.010618 1_555
Cr0 O4 2.018372 1_555
Cr0 O13 2.070177 1_555
Cr0 O17 2.080778 1_555
Cr0 O12 2.283246 1_555
Cr1 O11 2.007537 1_655
Cr1 O21 2.010618 1_555
Cr1 O5 2.018372 1_555
Cr1 O15 2.070177 1_555
Cr1 O16 2.080778 1_565
Cr1 O14 2.283246 1_555
Cr2 O36 2.007537 1_455
Cr2 O26 2.010618 1_555
Cr2 O42 2.018372 1_555
Cr2 O32 2.070177 1_555
Cr2 O31 2.080778 1_545
Cr2 O33 2.283246 1_555
Cr3 O37 2.007537 1_555
Cr3 O27 2.010618 1_555
Cr3 O43 2.018372 1_555
Cr3 O34 2.070177 1_555
Cr3 O30 2.080778 1_555
Cr3 O35 2.283246 1_555
C0 O46 1.274708 1_554
C0 O44 1.289055 1_554
C0 O4 1.344787 1_555
C1 O47 1.274708 1_554
C1 O45 1.289055 1_654
C1 O5 1.344787 1_555
C2 O8 1.270281 1_555
C2 O6 1.290251 1_555
C2 O10 1.331955 1_555
C3 O9 1.270281 1_555
C3 O7 1.290251 1_555
C3 O11 1.331955 1_555
C4 O16 1.284438 1_555
C4 O12 1.294326 1_555
C4 O13 1.299831 1_555
C5 O17 1.284438 1_555
C5 O14 1.294326 1_555
C5 O15 1.299831 1_555
C6 O24 1.278929 1_555
C6 O18 1.288019 1_555
C6 O26 1.336376 1_555
C7 O25 1.278929 1_555
C7 O19 1.288019 1_555
C7 O27 1.336376 1_555
C8 O22 1.278929 1_555
C8 O28 1.288019 1_555
C8 O20 1.336376 1_555
C9 O23 1.278929 1_555
C9 O29 1.288019 1_555
C9 O21 1.336376 1_555
C10 O30 1.284438 1_555
C10 O33 1.294326 1_555
C10 O32 1.299831 1_555
C11 O31 1.284438 1_555
C11 O35 1.294326 1_555
C11 O34 1.299831 1_555
C12 O38 1.270281 1_555
C12 O40 1.290251 1_555
C12 O36 1.331955 1_555
C13 O39 1.270281 1_555
C13 O41 1.290251 1_555
C13 O37 1.331955 1_555
C14 O0 1.274708 1_556
C14 O2 1.289055 1_456
C14 O42 1.344787 1_555
C15 O1 1.274708 1_556
C15 O3 1.289055 1_556
C15 O43 1.344787 1_555
