# generated using pymatgen
data_Ca2ScSbO6
_symmetry_space_group_name_H-M   'P 1'
_cell_length_a   5.69660100
_cell_length_b   5.55062900
_cell_length_c   9.68396017
_cell_angle_alpha   55.05596016
_cell_angle_beta   90.00000000
_cell_angle_gamma   90.00000000
_symmetry_Int_Tables_number   1
_chemical_formula_structural   Ca2ScSbO6
_chemical_formula_sum   'Ca4 Sc2 Sb2 O12'
_cell_volume   250.99912946
_cell_formula_units_Z   2
loop_
 _symmetry_equiv_pos_site_id
 _symmetry_equiv_pos_as_xyz
  1  'x, y, z'
loop_
 _atom_site_type_symbol
 _atom_site_label
 _atom_site_symmetry_multiplicity
 _atom_site_fract_x
 _atom_site_fract_y
 _atom_site_fract_z
 _atom_site_occupancy
  Ca  Ca0  1  0.54818600  0.76320100  0.75033400  1
  Ca  Ca1  1  0.95181400  0.76320100  0.25033400  1
  Ca  Ca2  1  0.45181400  0.23679900  0.24966600  1
  Ca  Ca3  1  0.04818600  0.23679900  0.74966600  1
  Sc  Sc0  1  0.50000000  0.50000000  0.50000000  1
  Sc  Sc1  1  0.00000000  0.50000000  0.00000000  1
  Sb  Sb0  1  0.00000000  0.00000000  0.50000000  1
  Sb  Sb1  1  0.50000000  0.00000000  0.00000000  1
  O  O0  1  0.79985300  0.23913900  0.55010900  1
  O  O1  1  0.70014700  0.23913900  0.05010900  1
  O  O2  1  0.20014700  0.76086100  0.44989100  1
  O  O3  1  0.29985300  0.76086100  0.94989100  1
  O  O4  1  0.78758300  0.85710100  0.94657700  1
  O  O5  1  0.71241700  0.85710100  0.44657700  1
  O  O6  1  0.21241700  0.14289900  0.05342300  1
  O  O7  1  0.28758300  0.14289900  0.55342300  1
  O  O8  1  0.96626400  0.65943800  0.74271100  1
  O  O9  1  0.53373600  0.65943800  0.24271100  1
  O  O10  1  0.03373600  0.34056200  0.25728900  1
  O  O11  1  0.46626400  0.34056200  0.75728900  1
loop_
_geom_bond_atom_site_label_1
_geom_bond_atom_site_label_2
_geom_bond_distance
_geom_bond_site_symmetry_2
Ca0 O11 2.354704 1_555
Ca0 O7 2.382872 1_565
Ca0 O3 2.388980 1_555
Ca0 O8 2.461301 1_555
Ca0 O4 2.622535 1_555
Ca0 O0 2.631725 1_565
Ca0 O1 2.822194 1_556
Ca0 O5 2.836097 1_555
Ca1 O10 2.354704 1_655
Ca1 O6 2.382872 1_665
Ca1 O2 2.388980 1_655
Ca1 O9 2.461301 1_555
Ca1 O5 2.622535 1_555
Ca1 O1 2.631725 1_565
Ca1 O0 2.822194 1_555
Ca1 O4 2.836097 1_554
Ca2 O9 2.354704 1_555
Ca2 O5 2.382872 1_545
Ca2 O1 2.388980 1_555
Ca2 O10 2.461301 1_555
Ca2 O6 2.622535 1_555
Ca2 O2 2.631725 1_545
Ca2 O3 2.822194 1_554
Ca2 O7 2.836097 1_555
Ca3 O8 2.354704 1_455
Ca3 O4 2.382872 1_445
Ca3 O0 2.388980 1_455
Ca3 O11 2.461301 1_555
Ca3 O7 2.622535 1_555
Ca3 O3 2.631725 1_545
Ca3 O2 2.822194 1_555
Ca3 O6 2.836097 1_556
O0 Sb0 2.008783 1_655
O0 Sc0 2.108287 1_555
O1 Sb1 2.008783 1_555
O1 Sc1 2.108287 1_655
O2 Sb0 2.008783 1_565
O2 Sc0 2.108287 1_555
O3 Sb1 2.008783 1_566
O3 Sc1 2.108287 1_556
O4 Sb1 2.012636 1_566
O4 Sc1 2.118026 1_656
O5 Sb0 2.012636 1_665
O5 Sc0 2.118026 1_555
O6 Sb1 2.012636 1_555
O6 Sc1 2.118026 1_555
O7 Sb0 2.012636 1_555
O7 Sc0 2.118026 1_555
O8 Sb0 2.011206 1_665
O8 Sc1 2.121824 1_656
O9 Sb1 2.011206 1_565
O9 Sc0 2.121824 1_555
O10 Sb0 2.011206 1_555
O10 Sc1 2.121824 1_555
O11 Sb1 2.011206 1_556
O11 Sc0 2.121824 1_555
