# generated using pymatgen
data_Zn3Ge3(MoO6)2
_symmetry_space_group_name_H-M   'P 1'
_cell_length_a   10.74945828
_cell_length_b   10.74945772
_cell_length_c   10.74945785
_cell_angle_alpha   109.47122091
_cell_angle_beta   109.47121984
_cell_angle_gamma   109.47121986
_symmetry_Int_Tables_number   1
_chemical_formula_structural   Zn3Ge3(MoO6)2
_chemical_formula_sum   'Zn12 Ge12 Mo8 O48'
_cell_volume   956.17594035
_cell_formula_units_Z   4
loop_
 _symmetry_equiv_pos_site_id
 _symmetry_equiv_pos_as_xyz
  1  'x, y, z'
loop_
 _atom_site_type_symbol
 _atom_site_label
 _atom_site_symmetry_multiplicity
 _atom_site_fract_x
 _atom_site_fract_y
 _atom_site_fract_z
 _atom_site_occupancy
  Zn  Zn0  1  0.62500000  0.25000000  0.87500000  1
  Zn  Zn1  1  0.87500000  0.75000000  0.62500000  1
  Zn  Zn2  1  0.75000000  0.62500000  0.87500000  1
  Zn  Zn3  1  0.25000000  0.87500000  0.62500000  1
  Zn  Zn4  1  0.87500000  0.62500000  0.25000000  1
  Zn  Zn5  1  0.62500000  0.87500000  0.75000000  1
  Zn  Zn6  1  0.37500000  0.75000000  0.12500000  1
  Zn  Zn7  1  0.12500000  0.25000000  0.37500000  1
  Zn  Zn8  1  0.25000000  0.37500000  0.12500000  1
  Zn  Zn9  1  0.75000000  0.12500000  0.37500000  1
  Zn  Zn10  1  0.12500000  0.37500000  0.75000000  1
  Zn  Zn11  1  0.37500000  0.12500000  0.25000000  1
  Ge  Ge0  1  0.87500000  0.12500000  0.75000000  1
  Ge  Ge1  1  0.12500000  0.87500000  0.25000000  1
  Ge  Ge2  1  0.25000000  0.62500000  0.37500000  1
  Ge  Ge3  1  0.12500000  0.75000000  0.87500000  1
  Ge  Ge4  1  0.75000000  0.87500000  0.12500000  1
  Ge  Ge5  1  0.37500000  0.25000000  0.62500000  1
  Ge  Ge6  1  0.62500000  0.75000000  0.37500000  1
  Ge  Ge7  1  0.87500000  0.25000000  0.12500000  1
  Ge  Ge8  1  0.25000000  0.12500000  0.87500000  1
  Ge  Ge9  1  0.75000000  0.37500000  0.62500000  1
  Ge  Ge10  1  0.37500000  0.62500000  0.75000000  1
  Ge  Ge11  1  0.62500000  0.37500000  0.25000000  1
  Mo  Mo0  1  0.50000000  0.50000000  0.50000000  1
  Mo  Mo1  1  0.50000000  0.50000000  0.00000000  1
  Mo  Mo2  1  0.50000000  0.00000000  0.50000000  1
  Mo  Mo3  1  0.00000000  0.50000000  0.50000000  1
  Mo  Mo4  1  0.50000000  0.00000000  0.00000000  1
  Mo  Mo5  1  0.00000000  0.00000000  0.50000000  1
  Mo  Mo6  1  0.00000000  0.50000000  0.00000000  1
  Mo  Mo7  1  0.00000000  0.00000000  0.00000000  1
  O  O0  1  0.78432674  0.41573061  0.81202606  1
  O  O1  1  0.08426939  0.86859613  0.39629544  1
  O  O2  1  0.68797394  0.10370456  0.97229969  1
  O  O3  1  0.71567326  0.52770031  0.63140387  1
  O  O4  1  0.71567326  0.68797394  0.08426939  1
  O  O5  1  0.52770031  0.63140387  0.71567326  1
  O  O6  1  0.10370456  0.63140387  0.41573061  1
  O  O7  1  0.63140387  0.71567326  0.52770031  1
  O  O8  1  0.39629544  0.81202606  0.52770031  1
  O  O9  1  0.86859613  0.97229969  0.78432674  1
  O  O10  1  0.97229969  0.78432674  0.86859613  1
  O  O11  1  0.08426939  0.71567326  0.68797394  1
  O  O12  1  0.63140387  0.41573061  0.10370456  1
  O  O13  1  0.52770031  0.39629544  0.81202606  1
  O  O14  1  0.68797394  0.08426939  0.71567326  1
  O  O15  1  0.41573061  0.10370456  0.63140387  1
  O  O16  1  0.81202606  0.52770031  0.39629544  1
  O  O17  1  0.39629544  0.08426939  0.86859613  1
  O  O18  1  0.10370456  0.97229969  0.68797394  1
  O  O19  1  0.60370456  0.18797394  0.47229969  1
  O  O20  1  0.97229969  0.68797394  0.10370456  1
  O  O21  1  0.81202606  0.78432674  0.41573061  1
  O  O22  1  0.86859613  0.39629544  0.08426939  1
  O  O23  1  0.78432674  0.86859613  0.97229969  1
  O  O24  1  0.21567326  0.58426939  0.18797394  1
  O  O25  1  0.91573061  0.13140387  0.60370456  1
  O  O26  1  0.31202606  0.89629544  0.02770031  1
  O  O27  1  0.28432674  0.47229969  0.36859613  1
  O  O28  1  0.28432674  0.31202606  0.91573061  1
  O  O29  1  0.47229969  0.36859613  0.28432674  1
  O  O30  1  0.89629544  0.36859613  0.58426939  1
  O  O31  1  0.36859613  0.28432674  0.47229969  1
  O  O32  1  0.21567326  0.13140387  0.02770031  1
  O  O33  1  0.13140387  0.60370456  0.91573061  1
  O  O34  1  0.18797394  0.21567326  0.58426939  1
  O  O35  1  0.58426939  0.18797394  0.21567326  1
  O  O36  1  0.02770031  0.31202606  0.89629544  1
  O  O37  1  0.89629544  0.02770031  0.31202606  1
  O  O38  1  0.60370456  0.91573061  0.13140387  1
  O  O39  1  0.18797394  0.47229969  0.60370456  1
  O  O40  1  0.58426939  0.89629544  0.36859613  1
  O  O41  1  0.31202606  0.91573061  0.28432674  1
  O  O42  1  0.47229969  0.60370456  0.18797394  1
  O  O43  1  0.36859613  0.58426939  0.89629544  1
  O  O44  1  0.91573061  0.28432674  0.31202606  1
  O  O45  1  0.02770031  0.21567326  0.13140387  1
  O  O46  1  0.13140387  0.02770031  0.21567326  1
  O  O47  1  0.41573061  0.81202606  0.78432674  1
loop_
_geom_bond_atom_site_label_1
_geom_bond_atom_site_label_2
_geom_bond_distance
_geom_bond_site_symmetry_2
Ge0 O25 1.783422 1_555
Ge0 O14 1.783422 1_555
Ge0 O36 1.783425 1_655
Ge0 O9 1.783433 1_545
Ge1 O1 1.783422 1_555
Ge1 O41 1.783422 1_555
Ge1 O20 1.783425 1_455
Ge1 O46 1.783433 1_565
Ge2 O6 1.783422 1_555
Ge2 O24 1.783422 1_555
Ge2 O8 1.783425 1_555
Ge2 O27 1.783433 1_555
Ge3 O33 1.783422 1_555
Ge3 O11 1.783422 1_555
Ge3 O26 1.783425 1_556
Ge3 O10 1.783433 1_455
Ge4 O38 1.783422 1_555
Ge4 O4 1.783422 1_555
Ge4 O37 1.783425 1_565
Ge4 O23 1.783433 1_554
Ge5 O15 1.783422 1_555
Ge5 O34 1.783422 1_555
Ge5 O13 1.783425 1_555
Ge5 O31 1.783433 1_555
Ge6 O40 1.783422 1_555
Ge6 O21 1.783422 1_555
Ge6 O42 1.783425 1_555
Ge6 O7 1.783433 1_555
Ge7 O22 1.783422 1_555
Ge7 O44 1.783422 1_555
Ge7 O2 1.783425 1_554
Ge7 O45 1.783433 1_655
Ge8 O17 1.783422 1_555
Ge8 O28 1.783422 1_555
Ge8 O18 1.783425 1_545
Ge8 O32 1.783433 1_556
Ge9 O30 1.783422 1_555
Ge9 O0 1.783422 1_555
Ge9 O19 1.783425 1_555
Ge9 O3 1.783433 1_555
Ge10 O43 1.783422 1_555
Ge10 O47 1.783422 1_555
Ge10 O39 1.783425 1_555
Ge10 O5 1.783433 1_555
Ge11 O12 1.783422 1_555
Ge11 O35 1.783422 1_555
Ge11 O16 1.783425 1_555
Ge11 O29 1.783433 1_555
Mo0 O29 2.129540 1_555
Mo0 O5 2.129540 1_555
Mo0 O7 2.129540 1_555
Mo0 O31 2.129540 1_555
Mo0 O27 2.129540 1_555
Mo0 O3 2.129540 1_555
Mo1 O12 2.129545 1_555
Mo1 O43 2.129545 1_554
Mo1 O28 2.129545 1_554
Mo1 O4 2.129545 1_555
Mo1 O13 2.129551 1_554
Mo1 O42 2.129551 1_555
Mo2 O40 2.129545 1_545
Mo2 O15 2.129545 1_555
Mo2 O14 2.129545 1_555
Mo2 O41 2.129545 1_545
Mo2 O19 2.129551 1_555
Mo2 O8 2.129551 1_545
Mo3 O44 2.129545 1_455
Mo3 O11 2.129545 1_555
Mo3 O30 2.129545 1_455
Mo3 O6 2.129545 1_555
Mo3 O39 2.129551 1_555
Mo3 O16 2.129551 1_455
Mo4 O47 2.129545 1_544
Mo4 O35 2.129545 1_555
Mo4 O17 2.129545 1_554
Mo4 O38 2.129545 1_545
Mo4 O2 2.129551 1_554
Mo4 O26 2.129551 1_545
Mo5 O1 2.129545 1_545
Mo5 O25 2.129545 1_455
Mo5 O21 2.129545 1_445
Mo5 O34 2.129545 1_555
Mo5 O18 2.129551 1_545
Mo5 O37 2.129551 1_455
Mo6 O33 2.129545 1_554
Mo6 O22 2.129545 1_455
Mo6 O0 2.129545 1_454
Mo6 O24 2.129545 1_555
Mo6 O20 2.129551 1_455
Mo6 O36 2.129551 1_554
Mo7 O10 2.129540 1_444
Mo7 O45 2.129540 1_555
Mo7 O9 2.129540 1_444
Mo7 O46 2.129540 1_555
Mo7 O23 2.129540 1_444
Mo7 O32 2.129540 1_555
O0 Zn2 2.315060 1_555
O0 Zn0 2.471454 1_555
O1 Zn4 2.315060 1_455
O1 Zn3 2.471454 1_555
O2 Zn0 2.315053 1_555
O2 Zn5 2.471448 1_545
O3 Zn2 2.315059 1_555
O3 Zn1 2.471446 1_555
O4 Zn2 2.315060 1_554
O4 Zn4 2.471454 1_555
O5 Zn5 2.315059 1_555
O5 Zn2 2.471446 1_555
O6 Zn3 2.315060 1_555
O6 Zn4 2.471454 1_455
O7 Zn1 2.315060 1_555
O7 Zn5 2.471446 1_555
O8 Zn3 2.315053 1_555
O8 Zn5 2.471448 1_555
O9 Zn5 2.315060 1_555
O9 Zn1 2.471446 1_555
O10 Zn1 2.315059 1_555
O10 Zn2 2.471446 1_555
O11 Zn1 2.315060 1_455
O11 Zn3 2.471454 1_555
O12 Zn4 2.315060 1_555
O12 Zn0 2.471454 1_554
O13 Zn0 2.315053 1_555
O13 Zn2 2.471448 1_555
O14 Zn5 2.315060 1_545
O14 Zn0 2.471454 1_555
O15 Zn0 2.315060 1_555
O15 Zn3 2.471454 1_545
O16 Zn4 2.315053 1_555
O16 Zn1 2.471448 1_555
O17 Zn3 2.315060 1_545
O17 Zn0 2.471454 1_555
O18 Zn3 2.315053 1_555
O18 Zn1 2.471448 1_455
O19 Zn9 2.315053 1_555
O19 Zn11 2.471448 1_555
O20 Zn4 2.315053 1_555
O20 Zn2 2.471448 1_554
O21 Zn1 2.315060 1_555
O21 Zn4 2.471454 1_555
O22 Zn0 2.315060 1_554
O22 Zn4 2.471454 1_555
O23 Zn2 2.315059 1_555
O23 Zn5 2.471446 1_555
O24 Zn8 2.315060 1_555
O24 Zn6 2.471454 1_555
O25 Zn10 2.315060 1_655
O25 Zn9 2.471454 1_555
O26 Zn6 2.315053 1_555
O26 Zn11 2.471448 1_565
O27 Zn8 2.315059 1_555
O27 Zn7 2.471446 1_555
O28 Zn8 2.315060 1_556
O28 Zn10 2.471454 1_555
O29 Zn11 2.315059 1_555
O29 Zn8 2.471446 1_555
O30 Zn9 2.315060 1_555
O30 Zn10 2.471454 1_655
O31 Zn7 2.315060 1_555
O31 Zn11 2.471446 1_555
O32 Zn8 2.315059 1_555
O32 Zn11 2.471446 1_555
O33 Zn6 2.315060 1_556
O33 Zn10 2.471454 1_555
O34 Zn7 2.315060 1_555
O34 Zn10 2.471454 1_555
O35 Zn11 2.315060 1_555
O35 Zn9 2.471454 1_555
O36 Zn10 2.315053 1_555
O36 Zn8 2.471448 1_556
O37 Zn9 2.315053 1_555
O37 Zn7 2.471448 1_655
O38 Zn9 2.315060 1_565
O38 Zn6 2.471454 1_555
O39 Zn10 2.315053 1_555
O39 Zn7 2.471448 1_555
O40 Zn6 2.315060 1_555
O40 Zn9 2.471454 1_565
O41 Zn11 2.315060 1_565
O41 Zn6 2.471454 1_555
O42 Zn6 2.315053 1_555
O42 Zn8 2.471448 1_555
O43 Zn10 2.315060 1_555
O43 Zn6 2.471454 1_556
O44 Zn7 2.315060 1_655
O44 Zn9 2.471454 1_555
O45 Zn7 2.315059 1_555
O45 Zn8 2.471446 1_555
O46 Zn11 2.315060 1_555
O46 Zn7 2.471446 1_555
O47 Zn5 2.315060 1_555
O47 Zn3 2.471454 1_555
