# generated using pymatgen
data_Li9Mn2Co5O16
_symmetry_space_group_name_H-M   'P 1'
_cell_length_a   5.87097500
_cell_length_b   6.52108843
_cell_length_c   8.24611303
_cell_angle_alpha   90.75458893
_cell_angle_beta   89.96462663
_cell_angle_gamma   115.55448737
_symmetry_Int_Tables_number   1
_chemical_formula_structural   Li9Mn2Co5O16
_chemical_formula_sum   'Li9 Mn2 Co5 O16'
_cell_volume   284.79090128
_cell_formula_units_Z   1
loop_
 _symmetry_equiv_pos_site_id
 _symmetry_equiv_pos_as_xyz
  1  'x, y, z'
loop_
 _atom_site_type_symbol
 _atom_site_label
 _atom_site_symmetry_multiplicity
 _atom_site_fract_x
 _atom_site_fract_y
 _atom_site_fract_z
 _atom_site_occupancy
  Li  Li0  1  0.24429000  0.49354100  0.00066600  1
  Li  Li1  1  0.89004800  0.25438600  0.74398000  1
  Li  Li2  1  0.61545200  0.74688100  0.25840900  1
  Li  Li3  1  0.99633700  0.99879800  0.49774200  1
  Li  Li4  1  0.36863900  0.25804500  0.74413000  1
  Li  Li5  1  0.74883300  0.49950700  0.00484800  1
  Li  Li6  1  0.13265600  0.74503600  0.25935300  1
  Li  Li7  1  0.50620900  0.00906100  0.49852800  1
  Li  Li8  1  0.25364600  0.50127300  0.49902100  1
  Mn  Mn0  1  0.00120800  0.00150500  0.99711500  1
  Mn  Mn1  1  0.12662400  0.74502500  0.74600800  1
  Co  Co0  1  0.61578800  0.73892200  0.74393000  1
  Co  Co1  1  0.87477900  0.25043800  0.25447600  1
  Co  Co2  1  0.49845500  0.00022000  0.00304300  1
  Co  Co3  1  0.75176900  0.50002800  0.50147200  1
  Co  Co4  1  0.37539100  0.25912400  0.25475100  1
  O  O0  1  0.87823400  0.23524600  0.00766800  1
  O  O1  1  0.47625100  0.96191700  0.74409000  1
  O  O2  1  0.24840500  0.48284600  0.24799600  1
  O  O3  1  0.63983100  0.73498600  0.51633200  1
  O  O4  1  0.01019000  0.99206200  0.76092100  1
  O  O5  1  0.34968700  0.23166700  0.00073100  1
  O  O6  1  0.74709400  0.49506300  0.26762700  1
  O  O7  1  0.09629100  0.73333200  0.51423900  1
  O  O8  1  0.65059800  0.76740600  0.98081700  1
  O  O9  1  0.24025400  0.51600900  0.75323300  1
  O  O10  1  0.00020800  0.00421800  0.23434000  1
  O  O11  1  0.41694800  0.27918500  0.49799200  1
  O  O12  1  0.76498700  0.52026500  0.73840100  1
  O  O13  1  0.11248700  0.76015000  0.98484100  1
  O  O14  1  0.49868500  0.01478700  0.25267500  1
  O  O15  1  0.86972500  0.26907200  0.49062600  1
loop_
_geom_bond_atom_site_label_1
_geom_bond_atom_site_label_2
_geom_bond_distance
_geom_bond_site_symmetry_2
Li0 O2 2.042135 1_555
Li0 O9 2.048421 1_554
Li0 O5 2.052029 1_555
Li0 O0 2.082900 1_455
Li0 O13 2.192088 1_554
Li0 O8 2.288736 1_554
Li1 O9 2.028378 1_655
Li1 O15 2.098462 1_555
Li1 O4 2.119130 1_645
Li1 O12 2.155869 1_555
Li1 O0 2.178968 1_556
Li1 O1 2.354160 1_545
Li2 O6 2.097137 1_555
Li2 O2 2.100222 1_555
Li2 O14 2.135374 1_565
Li2 O3 2.136433 1_555
Li2 O10 2.167006 1_665
Li2 O8 2.298679 1_554
Li3 O7 2.059711 1_655
Li3 O3 2.064930 1_555
Li3 O10 2.172741 1_665
Li3 O4 2.173509 1_655
Li3 O15 2.189839 1_565
Li3 O11 2.354914 1_665
Li4 O11 2.047433 1_555
Li4 O4 2.076820 1_545
Li4 O9 2.119929 1_555
Li4 O5 2.124157 1_556
Li4 O12 2.215864 1_555
Li4 O1 2.276129 1_545
Li5 O8 2.074220 1_554
Li5 O13 2.085807 1_654
Li5 O0 2.162850 1_555
Li5 O6 2.167440 1_555
Li5 O12 2.202566 1_554
Li5 O5 2.238434 1_555
Li6 O2 2.095704 1_555
Li6 O14 2.111033 1_565
Li6 O7 2.111554 1_555
Li6 O6 2.145964 1_455
Li6 O10 2.155701 1_565
Li6 O13 2.272478 1_554
Li7 O14 2.029026 1_555
Li7 O11 2.043074 1_555
Li7 O1 2.048196 1_545
Li7 O15 2.077193 1_555
Li7 O3 2.246776 1_545
Li7 O7 2.305228 1_545
Li8 O11 2.052872 1_555
Li8 O2 2.071363 1_555
Li8 O7 2.088105 1_555
Li8 O9 2.100175 1_555
Li8 O15 2.104990 1_455
Li8 O3 2.120662 1_555
Mn0 O5 1.946543 1_556
Mn0 O13 1.948603 1_545
Mn0 O0 1.948845 1_456
Mn0 O4 1.949245 1_545
Mn0 O10 1.956059 1_556
Mn0 O8 1.967111 1_445
Mn1 O9 1.881722 1_555
Mn1 O7 1.917043 1_555
Mn1 O1 1.926113 1_555
Mn1 O13 1.974100 1_555
Mn1 O12 1.993233 1_455
Mn1 O4 2.005568 1_555
Co0 O3 1.882681 1_555
Co0 O1 1.952804 1_555
Co0 O8 1.962196 1_555
Co0 O12 1.969336 1_555
Co0 O9 2.053680 1_555
Co0 O4 2.191546 1_655
Co1 O15 1.950514 1_555
Co1 O6 2.036045 1_555
Co1 O0 2.036827 1_555
Co1 O10 2.039795 1_655
Co1 O2 2.060408 1_655
Co1 O14 2.075859 1_555
Co2 O5 2.044316 1_555
Co2 O14 2.059409 1_555
Co2 O8 2.073357 1_544
Co2 O0 2.090982 1_555
Co2 O13 2.131163 1_544
Co2 O1 2.144139 1_544
Co3 O11 1.869636 1_555
Co3 O15 1.911039 1_555
Co3 O3 1.912632 1_555
Co3 O6 1.928171 1_555
Co3 O7 1.938583 1_655
Co3 O12 1.955789 1_555
Co4 O2 1.904705 1_555
Co4 O14 2.014276 1_555
Co4 O11 2.016433 1_555
Co4 O6 2.059132 1_555
Co4 O5 2.099930 1_555
Co4 O10 2.116012 1_555
