# generated using pymatgen
data_RbMg14Al
_symmetry_space_group_name_H-M   'P 1'
_cell_length_a   6.52194467
_cell_length_b   6.61605416
_cell_length_c   10.58905829
_cell_angle_alpha   90.00000000
_cell_angle_beta   90.00000000
_cell_angle_gamma   120.47849431
_symmetry_Int_Tables_number   1
_chemical_formula_structural   RbMg14Al
_chemical_formula_sum   'Rb1 Mg14 Al1'
_cell_volume   393.77656696
_cell_formula_units_Z   1
loop_
 _symmetry_equiv_pos_site_id
 _symmetry_equiv_pos_as_xyz
  1  'x, y, z'
loop_
 _atom_site_type_symbol
 _atom_site_label
 _atom_site_symmetry_multiplicity
 _atom_site_fract_x
 _atom_site_fract_y
 _atom_site_fract_z
 _atom_site_occupancy
  Rb  Rb0  1  0.16377387  0.83188644  0.12500000  1
  Mg  Mg0  1  0.16573060  0.33286480  0.62500000  1
  Mg  Mg1  1  0.16945408  0.83472654  0.62500000  1
  Mg  Mg2  1  0.65960382  0.33737887  0.12500000  1
  Mg  Mg3  1  0.66769577  0.33048048  0.62500000  1
  Mg  Mg4  1  0.65960382  0.82222395  0.12500000  1
  Mg  Mg5  1  0.66769577  0.83721429  0.62500000  1
  Mg  Mg6  1  0.33480052  0.17939746  0.38560909  1
  Mg  Mg7  1  0.33480052  0.17939746  0.86439091  1
  Mg  Mg8  1  0.33480052  0.65540406  0.38560909  1
  Mg  Mg9  1  0.33480052  0.65540406  0.86439091  1
  Mg  Mg10  1  0.83644205  0.16822152  0.36521830  1
  Mg  Mg11  1  0.83644205  0.16822152  0.88478170  1
  Mg  Mg12  1  0.81917318  0.65958709  0.39158646  1
  Mg  Mg13  1  0.81917318  0.65958709  0.85841354  1
  Al  Al0  1  0.19600971  0.34800435  0.12500000  1
loop_
_geom_bond_atom_site_label_1
_geom_bond_atom_site_label_2
_geom_bond_distance
_geom_bond_site_symmetry_2
Mg0 Mg6 3.131834 1_555
Mg0 Mg7 3.131834 1_555
Mg0 Mg8 3.131841 1_555
Mg0 Mg9 3.131841 1_555
Mg0 Mg5 3.240183 1_445
Mg0 Mg3 3.240183 1_455
Mg0 Mg5 3.281818 1_555
Mg0 Mg3 3.281818 1_555
Mg0 Mg1 3.308093 1_555
Mg0 Mg1 3.308093 1_545
Mg0 Mg11 3.315534 1_455
Mg0 Mg10 3.315534 1_455
Mg1 Mg12 3.159949 1_455
Mg1 Mg13 3.159949 1_455
Mg1 Mg8 3.208452 1_555
Mg1 Mg9 3.208452 1_555
Mg1 Mg6 3.208460 1_565
Mg1 Mg7 3.208460 1_565
Mg1 Mg3 3.241187 1_565
Mg1 Mg5 3.241187 1_555
Mg1 Mg3 3.280819 1_455
Mg1 Mg5 3.280819 1_455
Mg2 Rb0 3.256210 1_655
Mg2 Rb0 3.266665 1_545
Mg2 Mg7 3.308960 1_554
Mg2 Mg6 3.308960 1_555
Mg3 Mg7 3.152341 1_555
Mg3 Mg6 3.152341 1_555
Mg3 Mg5 3.263476 1_545
Mg3 Mg5 3.352578 1_555
Mg4 Rb0 3.256210 1_655
Mg4 Rb0 3.266665 1_555
Mg4 Mg8 3.308960 1_555
Mg4 Mg9 3.308960 1_554
Mg5 Mg8 3.152341 1_555
Mg5 Mg9 3.152341 1_555
Mg6 Mg8 3.149285 1_555
Mg6 Rb0 3.397669 1_545
Mg6 Mg8 3.466769 1_545
Mg7 Mg9 3.149285 1_555
Mg7 Rb0 3.397669 1_546
Mg7 Mg9 3.466769 1_545
Mg8 Rb0 3.397662 1_555
Mg9 Rb0 3.397662 1_556
Mg10 Mg2 3.219066 1_555
Mg10 Mg4 3.219073 1_545
Mg10 Mg8 3.220640 1_655
Mg10 Mg6 3.220640 1_655
Mg10 Mg8 3.316831 1_545
Mg10 Mg6 3.316831 1_555
Mg10 Mg12 3.321208 1_545
Mg10 Mg12 3.321208 1_555
Mg10 Mg3 3.336061 1_555
Mg10 Mg5 3.336067 1_545
Mg11 Mg2 3.219066 1_556
Mg11 Mg4 3.219073 1_546
Mg11 Mg9 3.220640 1_655
Mg11 Mg7 3.220640 1_655
Mg11 Mg9 3.316831 1_545
Mg11 Mg7 3.316831 1_555
Mg11 Mg13 3.321208 1_545
Mg11 Mg13 3.321208 1_555
Mg11 Mg3 3.336061 1_555
Mg11 Mg5 3.336067 1_545
Mg12 Mg5 3.105444 1_555
Mg12 Mg3 3.105451 1_555
Mg12 Mg6 3.145741 1_555
Mg12 Mg8 3.145742 1_555
Mg12 Mg4 3.368323 1_555
Mg12 Mg2 3.368329 1_555
Mg12 Mg6 3.377607 1_665
Mg12 Mg8 3.377608 1_655
Mg12 Rb0 3.423505 1_655
Mg13 Mg5 3.105444 1_555
Mg13 Mg3 3.105451 1_555
Mg13 Mg7 3.145741 1_555
Mg13 Mg9 3.145742 1_555
Mg13 Mg4 3.368323 1_556
Mg13 Mg2 3.368329 1_556
Mg13 Mg7 3.377607 1_665
Mg13 Mg9 3.377608 1_655
Mg13 Rb0 3.423505 1_656
Al0 Mg4 3.059791 1_555
Al0 Mg2 3.059792 1_555
Al0 Mg11 3.248834 1_454
Al0 Mg10 3.248834 1_455
Al0 Mg7 3.271615 1_554
Al0 Mg6 3.271615 1_555
Al0 Mg8 3.271621 1_555
Al0 Mg9 3.271621 1_554
Al0 Rb0 3.312985 1_545
Al0 Rb0 3.312986 1_555
