# generated using pymatgen
data_Y2Cu5Ni12
_symmetry_space_group_name_H-M   'P 1'
_cell_length_a   8.13269500
_cell_length_b   8.32422257
_cell_length_c   8.32422257
_cell_angle_alpha   119.88003556
_cell_angle_beta   90.00000000
_cell_angle_gamma   90.00000000
_symmetry_Int_Tables_number   1
_chemical_formula_structural   Y2Cu5Ni12
_chemical_formula_sum   'Y4 Cu10 Ni24'
_cell_volume   488.62559138
_cell_formula_units_Z   2
loop_
 _symmetry_equiv_pos_site_id
 _symmetry_equiv_pos_as_xyz
  1  'x, y, z'
loop_
 _atom_site_type_symbol
 _atom_site_label
 _atom_site_symmetry_multiplicity
 _atom_site_fract_x
 _atom_site_fract_y
 _atom_site_fract_z
 _atom_site_occupancy
  Y  Y0  1  0.75000000  0.99964200  0.00035800  1
  Y  Y1  1  0.25000000  0.00035800  0.99964200  1
  Y  Y2  1  0.25000000  0.66633900  0.33366100  1
  Y  Y3  1  0.75000000  0.33366100  0.66633900  1
  Cu  Cu0  1  0.60504300  0.66669100  0.33330900  1
  Cu  Cu1  1  0.39495700  0.33330900  0.66669100  1
  Cu  Cu2  1  0.10504300  0.33330900  0.66669100  1
  Cu  Cu3  1  0.89495700  0.66669100  0.33330900  1
  Cu  Cu4  1  0.50000000  0.50000000  0.00000000  1
  Cu  Cu5  1  0.50000000  0.50000000  0.50000000  1
  Cu  Cu6  1  0.50000000  0.00000000  0.50000000  1
  Cu  Cu7  1  0.00000000  0.50000000  0.00000000  1
  Cu  Cu8  1  0.00000000  0.50000000  0.50000000  1
  Cu  Cu9  1  0.00000000  0.00000000  0.50000000  1
  Ni  Ni0  1  0.75000000  0.67404800  0.03801400  1
  Ni  Ni1  1  0.75000000  0.36395600  0.32601400  1
  Ni  Ni2  1  0.75000000  0.96204900  0.63631700  1
  Ni  Ni3  1  0.75000000  0.36368300  0.03795100  1
  Ni  Ni4  1  0.75000000  0.96198600  0.32595200  1
  Ni  Ni5  1  0.75000000  0.67398600  0.63604400  1
  Ni  Ni6  1  0.25000000  0.32595200  0.96198600  1
  Ni  Ni7  1  0.25000000  0.63604400  0.67398600  1
  Ni  Ni8  1  0.25000000  0.03795100  0.36368300  1
  Ni  Ni9  1  0.25000000  0.63631700  0.96204900  1
  Ni  Ni10  1  0.25000000  0.03801400  0.67404800  1
  Ni  Ni11  1  0.25000000  0.32601400  0.36395600  1
  Ni  Ni12  1  0.48175700  0.83569900  0.67151900  1
  Ni  Ni13  1  0.48185500  0.83577600  0.16422400  1
  Ni  Ni14  1  0.48175700  0.32848100  0.16430100  1
  Ni  Ni15  1  0.51824300  0.16430100  0.32848100  1
  Ni  Ni16  1  0.51814500  0.16422400  0.83577600  1
  Ni  Ni17  1  0.51824300  0.67151900  0.83569900  1
  Ni  Ni18  1  0.98175700  0.16430100  0.32848100  1
  Ni  Ni19  1  0.98185500  0.16422400  0.83577600  1
  Ni  Ni20  1  0.98175700  0.67151900  0.83569900  1
  Ni  Ni21  1  0.01824300  0.83569900  0.67151900  1
  Ni  Ni22  1  0.01814500  0.83577600  0.16422400  1
  Ni  Ni23  1  0.01824300  0.32848100  0.16430100  1
loop_
_geom_bond_atom_site_label_1
_geom_bond_atom_site_label_2
_geom_bond_distance
_geom_bond_site_symmetry_2
Cu0 Cu3 2.357782 1_555
Cu0 Cu5 2.549292 1_555
Cu0 Cu4 2.552903 1_555
Cu0 Cu6 2.552903 1_565
Cu0 Ni13 2.634330 1_555
Cu0 Ni14 2.638988 1_555
Cu0 Ni12 2.638988 1_555
Cu0 Ni0 2.754231 1_555
Cu0 Ni4 2.754231 1_555
Cu0 Ni1 2.755280 1_555
Cu0 Ni5 2.755280 1_555
Cu0 Ni3 2.760027 1_555
Cu0 Ni2 2.760027 1_555
Cu0 Y2 2.887461 1_555
Cu1 Cu2 2.357782 1_555
Cu1 Cu5 2.549292 1_555
Cu1 Cu6 2.552903 1_555
Cu1 Cu4 2.552903 1_556
Cu1 Ni16 2.634330 1_555
Cu1 Ni15 2.638988 1_555
Cu1 Ni17 2.638988 1_555
Cu1 Ni10 2.754231 1_555
Cu1 Ni6 2.754231 1_555
Cu1 Ni11 2.755280 1_555
Cu1 Ni7 2.755280 1_555
Cu1 Ni8 2.760027 1_555
Cu1 Ni9 2.760027 1_555
Cu1 Y3 2.887461 1_555
Cu2 Cu8 2.549292 1_555
Cu2 Cu9 2.552903 1_555
Cu2 Cu7 2.552903 1_556
Cu2 Ni19 2.634330 1_455
Cu2 Ni18 2.638988 1_455
Cu2 Ni20 2.638988 1_455
Cu2 Ni10 2.754231 1_555
Cu2 Ni6 2.754231 1_555
Cu2 Ni11 2.755280 1_555
Cu2 Ni7 2.755280 1_555
Cu2 Ni8 2.760027 1_555
Cu2 Ni9 2.760027 1_555
Cu2 Y3 2.887461 1_455
Cu3 Cu8 2.549292 1_655
Cu3 Cu7 2.552903 1_655
Cu3 Cu9 2.552903 1_665
Cu3 Ni22 2.634330 1_655
Cu3 Ni23 2.638988 1_655
Cu3 Ni21 2.638988 1_655
Cu3 Ni0 2.754231 1_555
Cu3 Ni4 2.754231 1_555
Cu3 Ni1 2.755280 1_555
Cu3 Ni5 2.755280 1_555
Cu3 Ni3 2.760027 1_555
Cu3 Ni2 2.760027 1_555
Cu3 Y2 2.887461 1_655
Cu4 Ni0 2.424087 1_555
Cu4 Ni6 2.424087 1_554
Cu4 Ni17 2.424189 1_554
Cu4 Ni14 2.424189 1_555
Cu4 Ni3 2.424539 1_555
Cu4 Ni9 2.424539 1_554
Cu4 Ni13 2.428148 1_555
Cu4 Ni16 2.428148 1_554
Cu4 Y2 3.151748 1_555
Cu4 Y3 3.151748 1_554
Cu5 Ni7 2.424797 1_555
Cu5 Ni5 2.424797 1_555
Cu5 Ni1 2.424797 1_555
Cu5 Ni11 2.424797 1_555
Cu5 Ni17 2.427770 1_555
Cu5 Ni14 2.427770 1_555
Cu5 Ni15 2.427770 1_555
Cu5 Ni12 2.427770 1_555
Cu5 Y3 3.143015 1_555
Cu5 Y2 3.143015 1_555
Cu6 Ni10 2.424087 1_555
Cu6 Ni4 2.424087 1_545
Cu6 Ni12 2.424189 1_545
Cu6 Ni15 2.424189 1_555
Cu6 Ni8 2.424539 1_555
Cu6 Ni2 2.424539 1_545
Cu6 Ni16 2.428148 1_555
Cu6 Ni13 2.428148 1_545
Cu6 Y3 3.151748 1_555
Cu6 Y2 3.151748 1_545
Cu7 Ni0 2.424087 1_455
Cu7 Ni6 2.424087 1_554
Cu7 Ni20 2.424189 1_454
Cu7 Ni23 2.424189 1_555
Cu7 Ni3 2.424539 1_455
Cu7 Ni9 2.424539 1_554
Cu7 Ni22 2.428148 1_555
Cu7 Ni19 2.428148 1_454
Cu7 Y2 3.151748 1_555
Cu7 Y3 3.151748 1_454
Cu8 Ni5 2.424797 1_455
Cu8 Ni7 2.424797 1_555
Cu8 Ni11 2.424797 1_555
Cu8 Ni1 2.424797 1_455
Cu8 Ni23 2.427770 1_555
Cu8 Ni18 2.427770 1_455
Cu8 Ni21 2.427770 1_555
Cu8 Ni20 2.427770 1_455
Cu8 Y3 3.143015 1_455
Cu8 Y2 3.143015 1_555
Cu9 Ni10 2.424087 1_555
Cu9 Ni4 2.424087 1_445
Cu9 Ni21 2.424189 1_545
Cu9 Ni18 2.424189 1_455
Cu9 Ni8 2.424539 1_555
Cu9 Ni2 2.424539 1_445
Cu9 Ni19 2.428148 1_455
Cu9 Ni22 2.428148 1_545
Cu9 Y3 3.151748 1_455
Cu9 Y2 3.151748 1_545
Ni0 Ni4 2.401205 1_555
Ni0 Ni22 2.502511 1_655
Ni0 Ni13 2.502511 1_555
Ni0 Ni17 2.520688 1_554
Ni0 Ni20 2.520688 1_554
Ni0 Ni3 2.583286 1_555
Ni0 Y0 2.879333 1_555
Ni0 Y3 2.977598 1_554
Ni1 Ni3 2.396769 1_555
Ni1 Ni23 2.502463 1_655
Ni1 Ni14 2.502463 1_555
Ni1 Ni15 2.519739 1_555
Ni1 Ni18 2.519739 1_555
Ni1 Ni5 2.585437 1_555
Ni1 Y0 2.890388 1_545
Ni1 Y3 2.966644 1_555
Ni2 Ni5 2.396769 1_555
Ni2 Ni21 2.501653 1_655
Ni2 Ni4 2.583286 1_555
Ni2 Y0 2.887238 1_556
Ni2 Y3 2.976777 1_565
Ni3 Y0 2.887238 1_545
Ni3 Y3 2.976777 1_554
Ni4 Y0 2.879333 1_555
Ni4 Y3 2.977598 1_565
Ni5 Y0 2.890388 1_556
Ni5 Y3 2.966644 1_555
Ni6 Ni9 2.583286 1_555
Ni6 Y1 2.879333 1_555
Ni6 Y2 2.977598 1_556
Ni7 Ni9 2.396769 1_555
Ni7 Y1 2.890388 1_565
Ni7 Y2 2.966644 1_555
Ni8 Y1 2.887238 1_554
Ni8 Y2 2.976777 1_545
Ni9 Y1 2.887238 1_565
Ni9 Y2 2.976777 1_556
Ni10 Ni6 2.401205 1_555
Ni10 Ni16 2.502511 1_555
Ni10 Ni19 2.502511 1_455
Ni10 Ni12 2.520688 1_545
Ni10 Ni21 2.520688 1_545
Ni10 Ni8 2.583286 1_555
Ni10 Y1 2.879333 1_555
Ni10 Y2 2.977598 1_545
Ni11 Ni8 2.396769 1_555
Ni11 Ni15 2.502463 1_555
Ni11 Ni18 2.502463 1_455
Ni11 Ni23 2.519739 1_555
Ni11 Ni14 2.519739 1_555
Ni11 Ni7 2.585437 1_555
Ni11 Y1 2.890388 1_554
Ni11 Y2 2.966644 1_555
Ni12 Ni17 2.384248 1_555
Ni12 Ni16 2.389591 1_565
Ni12 Ni2 2.501653 1_555
Ni12 Ni5 2.502463 1_555
Ni12 Ni7 2.519739 1_555
Ni12 Y1 3.026780 1_565
Ni12 Y2 3.082065 1_555
Ni12 Y0 3.223726 1_556
Ni13 Ni17 2.389591 1_554
Ni13 Ni15 2.389591 1_565
Ni13 Ni4 2.502511 1_555
Ni13 Ni9 2.521990 1_554
Ni13 Ni8 2.521990 1_565
Ni13 Y1 3.029776 1_564
Ni13 Y2 3.084840 1_555
Ni13 Y0 3.214162 1_555
Ni14 Ni15 2.384248 1_555
Ni14 Ni16 2.389591 1_554
Ni14 Ni3 2.501653 1_555
Ni14 Ni6 2.520688 1_554
Ni14 Y1 3.026780 1_554
Ni14 Y2 3.082065 1_555
Ni14 Y0 3.223726 1_545
Ni15 Ni8 2.501653 1_555
Ni15 Ni4 2.520688 1_545
Ni15 Y0 3.026780 1_545
Ni15 Y3 3.082065 1_555
Ni15 Y1 3.223726 1_554
Ni16 Ni6 2.502511 1_555
Ni16 Ni2 2.521990 1_545
Ni16 Ni3 2.521990 1_556
Ni16 Y0 3.029776 1_546
Ni16 Y3 3.084840 1_555
Ni16 Y1 3.214162 1_555
Ni17 Ni9 2.501653 1_555
Ni17 Ni7 2.502463 1_555
Ni17 Ni5 2.519739 1_555
Ni17 Y0 3.026780 1_556
Ni17 Y3 3.082065 1_555
Ni17 Y1 3.223726 1_565
Ni18 Ni23 2.384248 1_655
Ni18 Ni22 2.389591 1_645
Ni18 Ni8 2.501653 1_655
Ni18 Ni4 2.520688 1_545
Ni18 Y0 3.026780 1_545
Ni18 Y3 3.082065 1_555
Ni18 Y1 3.223726 1_654
Ni19 Ni21 2.389591 1_645
Ni19 Ni23 2.389591 1_656
Ni19 Ni6 2.502511 1_655
Ni19 Ni2 2.521990 1_545
Ni19 Ni3 2.521990 1_556
Ni19 Y0 3.029776 1_546
Ni19 Y3 3.084840 1_555
Ni19 Y1 3.214162 1_655
Ni20 Ni21 2.384248 1_655
Ni20 Ni22 2.389591 1_656
Ni20 Ni9 2.501653 1_655
Ni20 Ni7 2.502463 1_655
Ni20 Ni5 2.519739 1_555
Ni20 Y0 3.026780 1_556
Ni20 Y3 3.082065 1_555
Ni20 Y1 3.223726 1_665
Ni21 Ni5 2.502463 1_455
Ni21 Ni7 2.519739 1_555
Ni21 Y1 3.026780 1_565
Ni21 Y2 3.082065 1_555
Ni21 Y0 3.223726 1_456
Ni22 Ni4 2.502511 1_455
Ni22 Ni9 2.521990 1_554
Ni22 Ni8 2.521990 1_565
Ni22 Y1 3.029776 1_564
Ni22 Y2 3.084840 1_555
Ni22 Y0 3.214162 1_455
Ni23 Ni3 2.501653 1_455
Ni23 Ni6 2.520688 1_554
Ni23 Y1 3.026780 1_554
Ni23 Y2 3.082065 1_555
Ni23 Y0 3.223726 1_445
