# generated using pymatgen
data_GaCu(WO4)2
_symmetry_space_group_name_H-M   'P 1'
_cell_length_a   7.40400596
_cell_length_b   7.40400596
_cell_length_c   5.03730204
_cell_angle_alpha   89.41265836
_cell_angle_beta   89.41265836
_cell_angle_gamma   101.77246431
_symmetry_Int_Tables_number   1
_chemical_formula_structural   GaCu(WO4)2
_chemical_formula_sum   'Ga2 Cu2 W4 O16'
_cell_volume   270.29722211
_cell_formula_units_Z   2
loop_
 _symmetry_equiv_pos_site_id
 _symmetry_equiv_pos_as_xyz
  1  'x, y, z'
loop_
 _atom_site_type_symbol
 _atom_site_label
 _atom_site_symmetry_multiplicity
 _atom_site_fract_x
 _atom_site_fract_y
 _atom_site_fract_z
 _atom_site_occupancy
  Ga  Ga0  1  0.83101400  0.16898600  0.75000000  1
  Ga  Ga1  1  0.16898600  0.83101400  0.25000000  1
  Cu  Cu0  1  0.33292800  0.66707200  0.75000000  1
  Cu  Cu1  1  0.66707200  0.33292800  0.25000000  1
  W  W0  1  0.33620700  0.16292100  0.75013700  1
  W  W1  1  0.66379300  0.83707900  0.24986300  1
  W  W2  1  0.83707900  0.66379300  0.74986300  1
  W  W3  1  0.16292100  0.33620700  0.25013700  1
  O  O0  1  0.70183900  0.06623700  0.07938300  1
  O  O1  1  0.29816100  0.93376300  0.92061700  1
  O  O2  1  0.93376300  0.29816100  0.42061700  1
  O  O3  1  0.06623700  0.70183900  0.57938300  1
  O  O4  1  0.80610800  0.92554000  0.57340300  1
  O  O5  1  0.19389200  0.07446000  0.42659700  1
  O  O6  1  0.07446000  0.19389200  0.92659700  1
  O  O7  1  0.92554000  0.80610800  0.07340300  1
  O  O8  1  0.57159400  0.18327000  0.61333100  1
  O  O9  1  0.42840600  0.81673000  0.38666900  1
  O  O10  1  0.81673000  0.42840600  0.88666900  1
  O  O11  1  0.18327000  0.57159400  0.11333100  1
  O  O12  1  0.59453700  0.69529600  0.93260600  1
  O  O13  1  0.40546300  0.30470400  0.06739400  1
  O  O14  1  0.30470400  0.40546300  0.56739400  1
  O  O15  1  0.69529600  0.59453700  0.43260600  1
loop_
_geom_bond_atom_site_label_1
_geom_bond_atom_site_label_2
_geom_bond_distance
_geom_bond_site_symmetry_2
Ga0 O0 1.972591 1_556
Ga0 O2 1.972591 1_555
Ga0 O4 1.993707 1_545
Ga0 O6 1.993707 1_655
Ga0 O10 2.069521 1_555
Ga0 O8 2.069521 1_555
Ga1 O3 1.972591 1_555
Ga1 O1 1.972591 1_554
Ga1 O7 1.993707 1_455
Ga1 O5 1.993707 1_565
Ga1 O9 2.069521 1_555
Ga1 O11 2.069521 1_555
Cu0 O12 2.125294 1_555
Cu0 O14 2.125294 1_555
Cu0 O9 2.165520 1_555
Cu0 O11 2.165520 1_556
Cu0 O1 2.222960 1_555
Cu0 O3 2.222960 1_555
Cu1 O15 2.125294 1_555
Cu1 O13 2.125294 1_555
Cu1 O8 2.165520 1_555
Cu1 O10 2.165520 1_554
Cu1 O2 2.222960 1_555
Cu1 O0 2.222960 1_555
O0 W1 1.861641 1_545
O1 W0 1.861641 1_565
O2 W3 1.861641 1_655
O3 W2 1.861641 1_455
O4 W1 1.992710 1_555
O4 W2 2.179139 1_555
O5 W0 1.992710 1_555
O5 W3 2.179139 1_555
O6 W3 1.992710 1_556
O6 W0 2.179139 1_555
O7 W2 1.992710 1_554
O7 W1 2.179139 1_555
O8 W0 1.844202 1_555
O9 W1 1.844202 1_555
O10 W2 1.844202 1_555
O11 W3 1.844202 1_555
O12 W1 1.936612 1_556
O12 W2 2.065925 1_555
O13 W0 1.936612 1_554
O13 W3 2.065925 1_555
O14 W3 1.936612 1_555
O14 W0 2.065925 1_555
O15 W2 1.936612 1_555
O15 W1 2.065925 1_555
