# generated using pymatgen
data_SnO2
_symmetry_space_group_name_H-M   'P 1'
_cell_length_a   7.76898512
_cell_length_b   7.76898512
_cell_length_c   7.76898512
_cell_angle_alpha   92.48049105
_cell_angle_beta   92.48049105
_cell_angle_gamma   155.98537026
_symmetry_Int_Tables_number   1
_chemical_formula_structural   SnO2
_chemical_formula_sum   'Sn4 O8'
_cell_volume   186.65849287
_cell_formula_units_Z   4
loop_
 _symmetry_equiv_pos_site_id
 _symmetry_equiv_pos_as_xyz
  1  'x, y, z'
loop_
 _atom_site_type_symbol
 _atom_site_label
 _atom_site_symmetry_multiplicity
 _atom_site_fract_x
 _atom_site_fract_y
 _atom_site_fract_z
 _atom_site_occupancy
  Sn  Sn0  1  0.64892300  0.16893300  0.81785600  1
  Sn  Sn1  1  0.16893300  0.35107700  0.52000900  1
  Sn  Sn2  1  0.83106700  0.64892300  0.47999100  1
  Sn  Sn3  1  0.35107700  0.83106700  0.18214400  1
  O  O0  1  0.83895500  0.45704000  0.29599500  1
  O  O1  1  0.45704000  0.16104500  0.61808500  1
  O  O2  1  0.54296000  0.83895500  0.38191500  1
  O  O3  1  0.16104500  0.54296000  0.70400500  1
  O  O4  1  0.15492800  0.79439900  0.94932700  1
  O  O5  1  0.79439900  0.84507200  0.63947100  1
  O  O6  1  0.84507200  0.20560100  0.05067300  1
  O  O7  1  0.20560100  0.15492800  0.36052900  1
loop_
_geom_bond_atom_site_label_1
_geom_bond_atom_site_label_2
_geom_bond_distance
_geom_bond_site_symmetry_2
O0 Sn2 2.063840 1_555
O0 Sn3 2.112323 1_655
O0 Sn3 2.112323 1_545
O1 Sn0 2.063835 1_555
O1 Sn2 2.112318 1_555
O1 Sn2 2.112321 1_445
O2 Sn3 2.063835 1_555
O2 Sn1 2.112318 1_555
O2 Sn1 2.112321 1_665
O3 Sn1 2.063840 1_555
O3 Sn0 2.112323 1_455
O3 Sn0 2.112323 1_565
O4 Sn0 2.105797 1_455
O4 Sn0 2.105797 1_565
O4 Sn3 2.144455 1_556
O5 Sn1 2.105799 1_555
O5 Sn1 2.105802 1_665
O5 Sn2 2.144451 1_555
O6 Sn3 2.105797 1_545
O6 Sn3 2.105797 1_655
O6 Sn0 2.144455 1_554
O7 Sn2 2.105799 1_555
O7 Sn2 2.105802 1_445
O7 Sn1 2.144451 1_555
