# generated using pymatgen
data_H2
_symmetry_space_group_name_H-M   'P 1'
_cell_length_a   6.64585581
_cell_length_b   5.48698124
_cell_length_c   5.71580905
_cell_angle_alpha   90.00000000
_cell_angle_beta   90.00000000
_cell_angle_gamma   90.00000000
_symmetry_Int_Tables_number   1
_chemical_formula_structural   H2
_chemical_formula_sum   H16
_cell_volume   208.43089893
_cell_formula_units_Z   8
loop_
 _symmetry_equiv_pos_site_id
 _symmetry_equiv_pos_as_xyz
  1  'x, y, z'
loop_
 _atom_site_type_symbol
 _atom_site_label
 _atom_site_symmetry_multiplicity
 _atom_site_fract_x
 _atom_site_fract_y
 _atom_site_fract_z
 _atom_site_occupancy
  H  H0  1  0.75000000  0.51229262  0.39805911  1
  H  H1  1  0.75000000  0.98770738  0.89805911  1
  H  H2  1  0.25000000  0.48770738  0.60194089  1
  H  H3  1  0.25000000  0.01229262  0.10194089  1
  H  H4  1  0.75000000  0.46706741  0.52031814  1
  H  H5  1  0.75000000  0.03293259  0.02031814  1
  H  H6  1  0.25000000  0.53293259  0.47968186  1
  H  H7  1  0.25000000  0.96706741  0.97968186  1
  H  H8  1  0.96929514  0.95017290  0.47452607  1
  H  H9  1  0.53070486  0.54982710  0.97452607  1
  H  H10  1  0.46929514  0.04982710  0.52547393  1
  H  H11  1  0.03070486  0.45017290  0.02547393  1
  H  H12  1  0.03070486  0.04982710  0.52547393  1
  H  H13  1  0.46929514  0.45017290  0.02547393  1
  H  H14  1  0.53070486  0.95017290  0.47452607  1
  H  H15  1  0.96929514  0.54982710  0.97452607  1
loop_
_geom_bond_atom_site_label_1
_geom_bond_atom_site_label_2
_geom_bond_distance
_geom_bond_site_symmetry_2
H0 H4 0.741561 1_555
H1 H5 0.741561 1_566
H2 H6 0.741561 1_555
H3 H7 0.741561 1_544
H10 H14 0.741859 1_545
H11 H15 0.741859 1_454
H12 H8 0.741859 1_445
H13 H9 0.741859 1_554
