# generated using pymatgen
data_Cs6ReN4
_symmetry_space_group_name_H-M   'P 1'
_cell_length_a   9.14699200
_cell_length_b   9.14699200
_cell_length_c   8.58806100
_cell_angle_alpha   90.00000000
_cell_angle_beta   90.00000000
_cell_angle_gamma   90.00000000
_symmetry_Int_Tables_number   1
_chemical_formula_structural   Cs6ReN4
_chemical_formula_sum   'Cs12 Re2 N8'
_cell_volume   718.54127294
_cell_formula_units_Z   2
loop_
 _symmetry_equiv_pos_site_id
 _symmetry_equiv_pos_as_xyz
  1  'x, y, z'
loop_
 _atom_site_type_symbol
 _atom_site_label
 _atom_site_symmetry_multiplicity
 _atom_site_fract_x
 _atom_site_fract_y
 _atom_site_fract_z
 _atom_site_occupancy
  Cs  Cs0  1  0.00000000  0.50000000  0.76539400  1
  Cs  Cs1  1  0.50000000  0.00000000  0.73460600  1
  Cs  Cs2  1  0.50000000  0.00000000  0.23460600  1
  Cs  Cs3  1  0.00000000  0.50000000  0.26539400  1
  Cs  Cs4  1  0.22251400  0.22251400  0.50000000  1
  Cs  Cs5  1  0.77748600  0.77748600  0.50000000  1
  Cs  Cs6  1  0.72251400  0.72251400  0.00000000  1
  Cs  Cs7  1  0.27748600  0.27748600  0.00000000  1
  Cs  Cs8  1  0.77748600  0.22251400  0.50000000  1
  Cs  Cs9  1  0.22251400  0.77748600  0.50000000  1
  Cs  Cs10  1  0.27748600  0.72251400  0.00000000  1
  Cs  Cs11  1  0.72251400  0.27748600  0.00000000  1
  Re  Re0  1  0.50000000  0.50000000  0.50000000  1
  Re  Re1  1  0.00000000  0.00000000  0.00000000  1
  N  N0  1  0.32899200  0.50000000  0.38203700  1
  N  N1  1  0.67100800  0.50000000  0.38203700  1
  N  N2  1  0.82899200  0.00000000  0.11796300  1
  N  N3  1  0.17100800  0.00000000  0.11796300  1
  N  N4  1  0.50000000  0.32899200  0.61796300  1
  N  N5  1  0.50000000  0.67100800  0.61796300  1
  N  N6  1  0.00000000  0.82899200  0.88203700  1
  N  N7  1  0.00000000  0.17100800  0.88203700  1
loop_
_geom_bond_atom_site_label_1
_geom_bond_atom_site_label_2
_geom_bond_distance
_geom_bond_site_symmetry_2
Cs0 N6 3.171638 1_555
Cs0 N7 3.171638 1_555
Cs1 N5 3.171638 1_545
Cs1 N4 3.171638 1_555
Cs2 N2 3.171638 1_555
Cs2 N3 3.171638 1_555
Cs3 N1 3.171638 1_455
Cs3 N0 3.171638 1_555
Cs4 N0 2.901236 1_555
Cs4 N4 2.901236 1_555
Cs5 N1 2.901236 1_555
Cs5 N5 2.901236 1_555
Cs6 N2 2.901236 1_565
Cs6 N6 2.901236 1_654
Cs7 N3 2.901236 1_555
Cs7 N7 2.901236 1_554
Cs8 N1 2.901236 1_555
Cs8 N4 2.901236 1_555
Cs9 N5 2.901236 1_555
Cs9 N0 2.901236 1_555
Cs10 N6 2.901236 1_554
Cs10 N3 2.901236 1_565
Cs11 N2 2.901236 1_555
Cs11 N7 2.901236 1_654
N0 Re0 1.863617 1_555
N1 Re0 1.863617 1_555
N2 Re1 1.863617 1_655
N3 Re1 1.863617 1_555
N4 Re0 1.863617 1_555
N5 Re0 1.863617 1_555
N6 Re1 1.863617 1_566
N7 Re1 1.863617 1_556
