# generated using pymatgen
data_RbMg30WO32
_symmetry_space_group_name_H-M   'P 1'
_cell_length_a   8.65169600
_cell_length_b   8.65169600
_cell_length_c   8.64333900
_cell_angle_alpha   90.00000000
_cell_angle_beta   90.00000000
_cell_angle_gamma   90.00000000
_symmetry_Int_Tables_number   1
_chemical_formula_structural   RbMg30WO32
_chemical_formula_sum   'Rb1 Mg30 W1 O32'
_cell_volume   646.96985967
_cell_formula_units_Z   1
loop_
 _symmetry_equiv_pos_site_id
 _symmetry_equiv_pos_as_xyz
  1  'x, y, z'
loop_
 _atom_site_type_symbol
 _atom_site_label
 _atom_site_symmetry_multiplicity
 _atom_site_fract_x
 _atom_site_fract_y
 _atom_site_fract_z
 _atom_site_occupancy
  Rb  Rb0  1  0.00000000  0.00000000  0.00000000  1
  Mg  Mg0  1  0.50000000  0.00000000  0.00000000  1
  Mg  Mg1  1  0.00000000  0.50000000  0.00000000  1
  Mg  Mg2  1  0.00000000  0.00000000  0.50000000  1
  Mg  Mg3  1  0.50000000  0.00000000  0.50000000  1
  Mg  Mg4  1  0.00000000  0.50000000  0.50000000  1
  Mg  Mg5  1  0.50000000  0.50000000  0.50000000  1
  Mg  Mg6  1  0.24762300  0.24762300  0.00000000  1
  Mg  Mg7  1  0.75237700  0.24762300  0.00000000  1
  Mg  Mg8  1  0.24762300  0.75237700  0.00000000  1
  Mg  Mg9  1  0.75237700  0.75237700  0.00000000  1
  Mg  Mg10  1  0.24911600  0.24911600  0.50000000  1
  Mg  Mg11  1  0.75088400  0.24911600  0.50000000  1
  Mg  Mg12  1  0.24911600  0.75088400  0.50000000  1
  Mg  Mg13  1  0.75088400  0.75088400  0.50000000  1
  Mg  Mg14  1  0.25182300  0.00000000  0.25333700  1
  Mg  Mg15  1  0.74817700  0.00000000  0.25333700  1
  Mg  Mg16  1  0.24489400  0.50000000  0.25410100  1
  Mg  Mg17  1  0.75510600  0.50000000  0.25410100  1
  Mg  Mg18  1  0.25182300  0.00000000  0.74666300  1
  Mg  Mg19  1  0.74817700  0.00000000  0.74666300  1
  Mg  Mg20  1  0.24489400  0.50000000  0.74589900  1
  Mg  Mg21  1  0.75510600  0.50000000  0.74589900  1
  Mg  Mg22  1  0.00000000  0.25182300  0.25333700  1
  Mg  Mg23  1  0.50000000  0.24489400  0.25410100  1
  Mg  Mg24  1  0.00000000  0.74817700  0.25333700  1
  Mg  Mg25  1  0.50000000  0.75510600  0.25410100  1
  Mg  Mg26  1  0.00000000  0.25182300  0.74666300  1
  Mg  Mg27  1  0.50000000  0.24489400  0.74589900  1
  Mg  Mg28  1  0.00000000  0.74817700  0.74666300  1
  Mg  Mg29  1  0.50000000  0.75510600  0.74589900  1
  W  W0  1  0.50000000  0.50000000  0.00000000  1
  O  O0  1  0.00000000  0.00000000  0.27899900  1
  O  O1  1  0.50000000  0.00000000  0.25598900  1
  O  O2  1  0.00000000  0.50000000  0.25598900  1
  O  O3  1  0.50000000  0.50000000  0.25361800  1
  O  O4  1  0.00000000  0.00000000  0.72100100  1
  O  O5  1  0.50000000  0.00000000  0.74401100  1
  O  O6  1  0.00000000  0.50000000  0.74401100  1
  O  O7  1  0.50000000  0.50000000  0.74638200  1
  O  O8  1  0.25077400  0.25077400  0.24908700  1
  O  O9  1  0.74922600  0.25077400  0.24908700  1
  O  O10  1  0.25077400  0.74922600  0.24908700  1
  O  O11  1  0.74922600  0.74922600  0.24908700  1
  O  O12  1  0.25077400  0.25077400  0.75091300  1
  O  O13  1  0.74922600  0.25077400  0.75091300  1
  O  O14  1  0.25077400  0.74922600  0.75091300  1
  O  O15  1  0.74922600  0.74922600  0.75091300  1
  O  O16  1  0.27887600  0.00000000  0.00000000  1
  O  O17  1  0.72112400  0.00000000  0.00000000  1
  O  O18  1  0.24997400  0.50000000  0.00000000  1
  O  O19  1  0.75002600  0.50000000  0.00000000  1
  O  O20  1  0.25621400  0.00000000  0.50000000  1
  O  O21  1  0.74378600  0.00000000  0.50000000  1
  O  O22  1  0.25244200  0.50000000  0.50000000  1
  O  O23  1  0.74755800  0.50000000  0.50000000  1
  O  O24  1  0.00000000  0.27887600  0.00000000  1
  O  O25  1  0.50000000  0.24997400  0.00000000  1
  O  O26  1  0.00000000  0.72112400  0.00000000  1
  O  O27  1  0.50000000  0.75002600  0.00000000  1
  O  O28  1  0.00000000  0.25621400  0.50000000  1
  O  O29  1  0.50000000  0.25244200  0.50000000  1
  O  O30  1  0.00000000  0.74378600  0.50000000  1
  O  O31  1  0.50000000  0.74755800  0.50000000  1
loop_
_geom_bond_atom_site_label_1
_geom_bond_atom_site_label_2
_geom_bond_distance
_geom_bond_site_symmetry_2
Mg0 O17 1.913098 1_555
Mg0 O16 1.913098 1_555
Mg0 O25 2.162699 1_555
Mg0 O27 2.162699 1_545
Mg0 O1 2.212600 1_555
Mg0 O5 2.212600 1_554
Mg1 O26 1.913098 1_555
Mg1 O24 1.913098 1_555
Mg1 O19 2.162699 1_455
Mg1 O18 2.162699 1_555
Mg1 O6 2.212600 1_554
Mg1 O2 2.212600 1_555
Mg2 O4 1.910187 1_555
Mg2 O0 1.910187 1_555
Mg2 O28 2.216686 1_555
Mg2 O20 2.216686 1_555
Mg2 O30 2.216686 1_545
Mg2 O21 2.216686 1_455
Mg3 O1 2.109070 1_555
Mg3 O5 2.109070 1_555
Mg3 O21 2.109162 1_555
Mg3 O20 2.109162 1_555
Mg3 O29 2.184051 1_555
Mg3 O31 2.184051 1_545
Mg4 O2 2.109070 1_555
Mg4 O6 2.109070 1_555
Mg4 O30 2.109162 1_555
Mg4 O28 2.109162 1_555
Mg4 O22 2.184051 1_555
Mg4 O23 2.184051 1_455
Mg5 O3 2.129563 1_555
Mg5 O7 2.129563 1_555
Mg5 O31 2.141797 1_555
Mg5 O23 2.141797 1_555
Mg5 O22 2.141797 1_555
Mg5 O29 2.141797 1_555
Mg6 O8 2.153289 1_555
Mg6 O12 2.153289 1_554
Mg6 O24 2.159355 1_555
Mg6 O16 2.159355 1_555
Mg6 O25 2.183584 1_555
Mg6 O18 2.183584 1_555
Mg7 O13 2.153289 1_554
Mg7 O9 2.153289 1_555
Mg7 O17 2.159355 1_555
Mg7 O24 2.159355 1_655
Mg7 O25 2.183584 1_555
Mg7 O19 2.183584 1_555
Mg8 O10 2.153289 1_555
Mg8 O14 2.153289 1_554
Mg8 O26 2.159355 1_555
Mg8 O16 2.159355 1_565
Mg8 O18 2.183584 1_555
Mg8 O27 2.183584 1_555
Mg9 O15 2.153289 1_554
Mg9 O11 2.153289 1_555
Mg9 O17 2.159355 1_565
Mg9 O26 2.159355 1_655
Mg9 O19 2.183584 1_555
Mg9 O27 2.183584 1_555
Mg10 O28 2.156151 1_555
Mg10 O20 2.156151 1_555
Mg10 O8 2.168821 1_555
Mg10 O12 2.168821 1_555
Mg10 O29 2.170763 1_555
Mg10 O22 2.170763 1_555
Mg11 O28 2.156151 1_655
Mg11 O21 2.156151 1_555
Mg11 O9 2.168821 1_555
Mg11 O13 2.168821 1_555
Mg11 O29 2.170763 1_555
Mg11 O23 2.170763 1_555
Mg12 O30 2.156151 1_555
Mg12 O20 2.156151 1_565
Mg12 O10 2.168821 1_555
Mg12 O14 2.168821 1_555
Mg12 O31 2.170763 1_555
Mg12 O22 2.170763 1_555
Mg13 O21 2.156151 1_565
Mg13 O30 2.156151 1_655
Mg13 O11 2.168821 1_555
Mg13 O15 2.168821 1_555
Mg13 O31 2.170763 1_555
Mg13 O23 2.170763 1_555
Mg14 O20 2.132330 1_555
Mg14 O1 2.147274 1_555
Mg14 O8 2.169950 1_555
Mg14 O10 2.169950 1_545
Mg14 O0 2.189958 1_555
Mg14 O16 2.202151 1_555
Mg15 O21 2.132330 1_555
Mg15 O1 2.147274 1_555
Mg15 O9 2.169950 1_555
Mg15 O11 2.169950 1_545
Mg15 O0 2.189958 1_655
Mg15 O17 2.202151 1_555
Mg16 O2 2.118811 1_555
Mg16 O22 2.126391 1_555
Mg16 O10 2.157263 1_555
Mg16 O8 2.157263 1_555
Mg16 O18 2.196721 1_555
Mg16 O3 2.207104 1_555
Mg17 O2 2.118811 1_655
Mg17 O23 2.126391 1_555
Mg17 O11 2.157263 1_555
Mg17 O9 2.157263 1_555
Mg17 O19 2.196721 1_555
Mg17 O3 2.207104 1_555
Mg18 O20 2.132330 1_555
Mg18 O5 2.147274 1_555
Mg18 O12 2.169950 1_555
Mg18 O14 2.169950 1_545
Mg18 O4 2.189958 1_555
Mg18 O16 2.202151 1_556
Mg19 O21 2.132330 1_555
Mg19 O5 2.147274 1_555
Mg19 O13 2.169950 1_555
Mg19 O15 2.169950 1_545
Mg19 O4 2.189958 1_655
Mg19 O17 2.202151 1_556
Mg20 O6 2.118811 1_555
Mg20 O22 2.126391 1_555
Mg20 O14 2.157263 1_555
Mg20 O12 2.157263 1_555
Mg20 O18 2.196721 1_556
Mg20 O7 2.207104 1_555
Mg21 O6 2.118811 1_655
Mg21 O23 2.126391 1_555
Mg21 O15 2.157263 1_555
Mg21 O13 2.157263 1_555
Mg21 O19 2.196721 1_556
Mg21 O7 2.207104 1_555
Mg22 O28 2.132330 1_555
Mg22 O2 2.147274 1_555
Mg22 O8 2.169950 1_555
Mg22 O9 2.169950 1_455
Mg22 O0 2.189958 1_555
Mg22 O24 2.202151 1_555
Mg23 O1 2.118811 1_555
Mg23 O29 2.126391 1_555
Mg23 O9 2.157263 1_555
Mg23 O8 2.157263 1_555
Mg23 O25 2.196721 1_555
Mg23 O3 2.207104 1_555
Mg24 O30 2.132330 1_555
Mg24 O2 2.147274 1_555
Mg24 O10 2.169950 1_555
Mg24 O11 2.169950 1_455
Mg24 O0 2.189958 1_565
Mg24 O26 2.202151 1_555
Mg25 O1 2.118811 1_565
Mg25 O31 2.126391 1_555
Mg25 O11 2.157263 1_555
Mg25 O10 2.157263 1_555
Mg25 O27 2.196721 1_555
Mg25 O3 2.207104 1_555
Mg26 O28 2.132330 1_555
Mg26 O6 2.147274 1_555
Mg26 O12 2.169950 1_555
Mg26 O13 2.169950 1_455
Mg26 O4 2.189958 1_555
Mg26 O24 2.202151 1_556
Mg27 O5 2.118811 1_555
Mg27 O29 2.126391 1_555
Mg27 O13 2.157263 1_555
Mg27 O12 2.157263 1_555
Mg27 O25 2.196721 1_556
Mg27 O7 2.207104 1_555
Mg28 O30 2.132330 1_555
Mg28 O6 2.147274 1_555
Mg28 O14 2.169950 1_555
Mg28 O15 2.169950 1_455
Mg28 O4 2.189958 1_565
Mg28 O26 2.202151 1_556
Mg29 O5 2.118811 1_565
Mg29 O31 2.126391 1_555
Mg29 O15 2.157263 1_555
Mg29 O14 2.157263 1_555
Mg29 O27 2.196721 1_556
Mg29 O7 2.207104 1_555
O0 Rb0 2.411483 1_555
O3 W0 2.192106 1_555
O4 Rb0 2.411483 1_556
O7 W0 2.192106 1_556
O16 Rb0 2.412750 1_555
O17 Rb0 2.412750 1_655
O18 W0 2.163149 1_555
O19 W0 2.163149 1_555
O24 Rb0 2.412750 1_555
O25 W0 2.163149 1_555
O26 Rb0 2.412750 1_565
O27 W0 2.163149 1_555
