# generated using pymatgen
data_ZrSc
_symmetry_space_group_name_H-M   'P 1'
_cell_length_a   6.56569135
_cell_length_b   6.56569135
_cell_length_c   10.31001072
_cell_angle_alpha   90.00000000
_cell_angle_beta   90.00000000
_cell_angle_gamma   120.00011594
_symmetry_Int_Tables_number   1
_chemical_formula_structural   ZrSc
_chemical_formula_sum   'Zr8 Sc8'
_cell_volume   384.90199879
_cell_formula_units_Z   8
loop_
 _symmetry_equiv_pos_site_id
 _symmetry_equiv_pos_as_xyz
  1  'x, y, z'
loop_
 _atom_site_type_symbol
 _atom_site_label
 _atom_site_symmetry_multiplicity
 _atom_site_fract_x
 _atom_site_fract_y
 _atom_site_fract_z
 _atom_site_occupancy
  Zr  Zr0_0  1  0.49999999  0.00000001  0.00000000  1
  Zr  Zr0_1  1  0.49999999  0.00000001  0.50000000  1
  Zr  Zr0_2  1  0.49999999  0.50000001  0.00000000  1
  Zr  Zr0_3  1  0.49999999  0.50000001  0.50000000  1
  Zr  Zr0_4  1  0.99999999  0.00000001  0.00000000  1
  Zr  Zr0_5  1  0.99999999  0.00000001  0.50000000  1
  Zr  Zr0_6  1  0.99999999  0.50000001  0.00000000  1
  Zr  Zr0_7  1  0.99999999  0.50000001  0.50000000  1
  Sc  Sc0_0  1  0.16666651  0.33333349  0.25000000  1
  Sc  Sc0_1  1  0.16666651  0.33333349  0.75000000  1
  Sc  Sc0_2  1  0.16666651  0.83333349  0.25000000  1
  Sc  Sc0_3  1  0.16666651  0.83333349  0.75000000  1
  Sc  Sc0_4  1  0.66666651  0.33333349  0.25000000  1
  Sc  Sc0_5  1  0.66666651  0.33333349  0.75000000  1
  Sc  Sc0_6  1  0.66666651  0.83333349  0.25000000  1
  Sc  Sc0_7  1  0.66666651  0.83333349  0.75000000  1
loop_
_geom_bond_atom_site_label_1
_geom_bond_atom_site_label_2
_geom_bond_distance
_geom_bond_site_symmetry_2
Zr0_0 Zr0_6 3.282840 1_555
Zr0_0 Zr0_6 3.282840 1_445
Zr0_0 Zr0_4 3.282846 1_455
Zr0_0 Zr0_2 3.282846 1_545
Zr0_0 Zr0_2 3.282846 1_555
Zr0_0 Zr0_4 3.282846 1_555
Zr0_1 Zr0_7 3.282840 1_555
Zr0_1 Zr0_7 3.282840 1_445
Zr0_1 Zr0_5 3.282846 1_455
Zr0_1 Zr0_3 3.282846 1_545
Zr0_1 Zr0_3 3.282846 1_555
Zr0_1 Zr0_5 3.282846 1_555
Zr0_2 Zr0_4 3.282840 1_565
Zr0_2 Zr0_4 3.282840 1_455
Zr0_2 Zr0_6 3.282846 1_555
Zr0_2 Zr0_6 3.282846 1_455
Zr0_3 Zr0_5 3.282840 1_565
Zr0_3 Zr0_5 3.282840 1_455
Zr0_3 Zr0_7 3.282846 1_555
Zr0_3 Zr0_7 3.282846 1_455
Zr0_4 Zr0_6 3.282846 1_555
Zr0_4 Zr0_6 3.282846 1_545
Zr0_5 Zr0_7 3.282846 1_555
Zr0_5 Zr0_7 3.282846 1_545
Sc0_0 Zr0_5 3.199355 1_455
Sc0_0 Zr0_4 3.199355 1_455
Sc0_0 Zr0_2 3.199355 1_555
Sc0_0 Zr0_3 3.199355 1_555
Sc0_0 Zr0_7 3.199356 1_455
Sc0_0 Zr0_6 3.199356 1_455
Sc0_0 Sc0_6 3.282840 1_555
Sc0_0 Sc0_6 3.282840 1_445
Sc0_0 Sc0_4 3.282846 1_455
Sc0_0 Sc0_2 3.282846 1_555
Sc0_0 Sc0_4 3.282846 1_555
Sc0_0 Sc0_2 3.282846 1_545
Sc0_1 Zr0_5 3.199355 1_455
Sc0_1 Zr0_4 3.199355 1_456
Sc0_1 Zr0_3 3.199355 1_555
Sc0_1 Zr0_2 3.199355 1_556
Sc0_1 Zr0_7 3.199356 1_455
Sc0_1 Zr0_6 3.199356 1_456
Sc0_1 Sc0_7 3.282840 1_555
Sc0_1 Sc0_7 3.282840 1_445
Sc0_1 Sc0_5 3.282846 1_455
Sc0_1 Sc0_3 3.282846 1_555
Sc0_1 Sc0_5 3.282846 1_555
Sc0_1 Sc0_3 3.282846 1_545
Sc0_2 Zr0_0 3.199355 1_565
Sc0_2 Zr0_1 3.199355 1_565
Sc0_2 Zr0_7 3.199355 1_455
Sc0_2 Zr0_6 3.199355 1_455
Sc0_2 Zr0_5 3.199356 1_465
Sc0_2 Zr0_4 3.199356 1_465
Sc0_2 Sc0_4 3.282840 1_565
Sc0_2 Sc0_4 3.282840 1_455
Sc0_2 Sc0_6 3.282846 1_555
Sc0_2 Sc0_6 3.282846 1_455
Sc0_3 Zr0_0 3.199355 1_566
Sc0_3 Zr0_1 3.199355 1_565
Sc0_3 Zr0_7 3.199355 1_455
Sc0_3 Zr0_6 3.199355 1_456
Sc0_3 Zr0_5 3.199356 1_465
Sc0_3 Zr0_4 3.199356 1_466
Sc0_3 Sc0_5 3.282840 1_565
Sc0_3 Sc0_5 3.282840 1_455
Sc0_3 Sc0_7 3.282846 1_555
Sc0_3 Sc0_7 3.282846 1_455
Sc0_4 Zr0_0 3.199355 1_555
Sc0_4 Zr0_1 3.199355 1_555
Sc0_4 Zr0_6 3.199355 1_555
Sc0_4 Zr0_7 3.199355 1_555
Sc0_4 Zr0_2 3.199356 1_555
Sc0_4 Zr0_3 3.199356 1_555
Sc0_4 Sc0_6 3.282846 1_555
Sc0_4 Sc0_6 3.282846 1_545
Sc0_5 Zr0_6 3.199355 1_556
Sc0_5 Zr0_0 3.199355 1_556
Sc0_5 Zr0_1 3.199355 1_555
Sc0_5 Zr0_7 3.199355 1_555
Sc0_5 Zr0_2 3.199356 1_556
Sc0_5 Zr0_3 3.199356 1_555
Sc0_5 Sc0_7 3.282846 1_555
Sc0_5 Sc0_7 3.282846 1_545
Sc0_6 Zr0_4 3.199355 1_565
Sc0_6 Zr0_3 3.199355 1_555
Sc0_6 Zr0_5 3.199355 1_565
Sc0_6 Zr0_2 3.199355 1_555
Sc0_6 Zr0_0 3.199356 1_565
Sc0_6 Zr0_1 3.199356 1_565
Sc0_7 Zr0_4 3.199355 1_566
Sc0_7 Zr0_2 3.199355 1_556
Sc0_7 Zr0_3 3.199355 1_555
Sc0_7 Zr0_5 3.199355 1_565
Sc0_7 Zr0_0 3.199356 1_566
Sc0_7 Zr0_1 3.199356 1_565
