# generated using pymatgen
data_RbNa2Bi
_symmetry_space_group_name_H-M   'P 1'
_cell_length_a   5.65901941
_cell_length_b   5.65901941
_cell_length_c   5.65901941
_cell_angle_alpha   60.00000000
_cell_angle_beta   60.00000000
_cell_angle_gamma   60.00000000
_symmetry_Int_Tables_number   1
_chemical_formula_structural   RbNa2Bi
_chemical_formula_sum   'Rb1 Na2 Bi1'
_cell_volume   128.14703226
_cell_formula_units_Z   1
loop_
 _symmetry_equiv_pos_site_id
 _symmetry_equiv_pos_as_xyz
  1  'x, y, z'
loop_
 _atom_site_type_symbol
 _atom_site_label
 _atom_site_symmetry_multiplicity
 _atom_site_fract_x
 _atom_site_fract_y
 _atom_site_fract_z
 _atom_site_occupancy
  Rb  Rb0  1  0.00000000  0.00000000  0.00000000  1
  Na  Na0  1  0.25000000  0.25000000  0.25000000  1
  Na  Na1  1  0.75000000  0.75000000  0.75000000  1
  Bi  Bi0  1  0.50000000  0.50000000  0.50000000  1
loop_
_geom_bond_atom_site_label_1
_geom_bond_atom_site_label_2
_geom_bond_distance
_geom_bond_site_symmetry_2
Na0 Rb0 3.465428 1_655
Na0 Rb0 3.465428 1_565
Na0 Rb0 3.465428 1_555
Na0 Rb0 3.465428 1_556
Na1 Rb0 3.465428 1_656
Na1 Rb0 3.465428 1_665
Na1 Rb0 3.465428 1_566
Na1 Rb0 3.465428 1_666
Bi0 Na1 3.465428 1_545
Bi0 Na0 3.465428 1_556
Bi0 Na1 3.465428 1_455
Bi0 Na0 3.465428 1_555
Bi0 Na0 3.465428 1_655
Bi0 Na0 3.465428 1_565
Bi0 Na1 3.465428 1_555
Bi0 Na1 3.465428 1_554
Bi0 Rb0 4.001531 1_656
Bi0 Rb0 4.001531 1_655
Bi0 Rb0 4.001531 1_665
Bi0 Rb0 4.001531 1_566
Bi0 Rb0 4.001531 1_556
Bi0 Rb0 4.001531 1_565
