# generated using pymatgen
data_Rb9Al(HO2)4
_symmetry_space_group_name_H-M   'P 1'
_cell_length_a   7.09500300
_cell_length_b   13.22176800
_cell_length_c   19.80013094
_cell_angle_alpha   89.95951993
_cell_angle_beta   90.00000000
_cell_angle_gamma   90.00000000
_symmetry_Int_Tables_number   1
_chemical_formula_structural   Rb9Al(HO2)4
_chemical_formula_sum   'Rb36 Al4 H16 O32'
_cell_volume   1857.41979565
_cell_formula_units_Z   4
loop_
 _symmetry_equiv_pos_site_id
 _symmetry_equiv_pos_as_xyz
  1  'x, y, z'
loop_
 _atom_site_type_symbol
 _atom_site_label
 _atom_site_symmetry_multiplicity
 _atom_site_fract_x
 _atom_site_fract_y
 _atom_site_fract_z
 _atom_site_occupancy
  Rb  Rb0  1  0.24913600  0.03905400  0.99898800  1
  Rb  Rb1  1  0.74913600  0.96094600  0.50101200  1
  Rb  Rb2  1  0.75086400  0.96094600  0.00101200  1
  Rb  Rb3  1  0.25086400  0.03905400  0.49898800  1
  Rb  Rb4  1  0.13172600  0.03948600  0.83423700  1
  Rb  Rb5  1  0.63172600  0.96051400  0.66576300  1
  Rb  Rb6  1  0.86827400  0.96051400  0.16576300  1
  Rb  Rb7  1  0.36827400  0.03948600  0.33423700  1
  Rb  Rb8  1  0.82844000  0.25543300  0.69541200  1
  Rb  Rb9  1  0.32844000  0.74456700  0.80458800  1
  Rb  Rb10  1  0.17156000  0.74456700  0.30458800  1
  Rb  Rb11  1  0.67156000  0.25543300  0.19541200  1
  Rb  Rb12  1  0.88489900  0.23330100  0.50170900  1
  Rb  Rb13  1  0.38489900  0.76669900  0.99829100  1
  Rb  Rb14  1  0.11510100  0.76669900  0.49829100  1
  Rb  Rb15  1  0.61510100  0.23330100  0.00170900  1
  Rb  Rb16  1  0.40725200  0.28007200  0.59012600  1
  Rb  Rb17  1  0.90725200  0.71992800  0.90987400  1
  Rb  Rb18  1  0.59274800  0.71992800  0.40987400  1
  Rb  Rb19  1  0.09274800  0.28007200  0.09012600  1
  Rb  Rb20  1  0.29631400  0.32958200  0.78780200  1
  Rb  Rb21  1  0.79631400  0.67041800  0.71219800  1
  Rb  Rb22  1  0.70368600  0.67041800  0.21219800  1
  Rb  Rb23  1  0.20368600  0.32958200  0.28780200  1
  Rb  Rb24  1  0.21935800  0.48070600  0.95214200  1
  Rb  Rb25  1  0.71935800  0.51929400  0.54785800  1
  Rb  Rb26  1  0.78064200  0.51929400  0.04785800  1
  Rb  Rb27  1  0.28064200  0.48070600  0.45214200  1
  Rb  Rb28  1  0.26764800  0.56450500  0.65257600  1
  Rb  Rb29  1  0.76764800  0.43549500  0.84742400  1
  Rb  Rb30  1  0.73235200  0.43549500  0.34742400  1
  Rb  Rb31  1  0.23235200  0.56450500  0.15257600  1
  Rb  Rb32  1  0.13424900  0.87536200  0.65282600  1
  Rb  Rb33  1  0.63424900  0.12463800  0.84717400  1
  Rb  Rb34  1  0.86575100  0.12463800  0.34717400  1
  Rb  Rb35  1  0.36575100  0.87536200  0.15282600  1
  Al  Al0  1  0.02683300  0.24368600  0.91508000  1
  Al  Al1  1  0.52683300  0.75631400  0.58492000  1
  Al  Al2  1  0.97316700  0.75631400  0.08492000  1
  Al  Al3  1  0.47316700  0.24368600  0.41508000  1
  H  H0  1  0.05977600  0.10053600  0.63346300  1
  H  H1  1  0.55977600  0.89946400  0.86653700  1
  H  H2  1  0.94022400  0.89946400  0.36653700  1
  H  H3  1  0.44022400  0.10053600  0.13346300  1
  H  H4  1  0.33308200  0.13906100  0.72804800  1
  H  H5  1  0.83308200  0.86093900  0.77195200  1
  H  H6  1  0.66691800  0.86093900  0.27195200  1
  H  H7  1  0.16691800  0.13906100  0.22804800  1
  H  H8  1  0.03609400  0.38605500  0.56313500  1
  H  H9  1  0.53609400  0.61394500  0.93686500  1
  H  H10  1  0.96390600  0.61394500  0.43686500  1
  H  H11  1  0.46390600  0.38605500  0.06313500  1
  H  H12  1  0.17133800  0.54087900  0.79936000  1
  H  H13  1  0.67133800  0.45912100  0.70064000  1
  H  H14  1  0.82866200  0.45912100  0.20064000  1
  H  H15  1  0.32866200  0.54087900  0.29936000  1
  O  O0  1  0.92909900  0.12608500  0.94680200  1
  O  O1  1  0.42909900  0.87391500  0.55319800  1
  O  O2  1  0.07090100  0.87391500  0.05319800  1
  O  O3  1  0.57090100  0.12608500  0.44680200  1
  O  O4  1  0.28362300  0.24307700  0.91928000  1
  O  O5  1  0.78362300  0.75692300  0.58072000  1
  O  O6  1  0.71637700  0.75692300  0.08072000  1
  O  O7  1  0.21637700  0.24307700  0.41928000  1
  O  O8  1  0.95656700  0.25039900  0.82603000  1
  O  O9  1  0.45656700  0.74960100  0.67397000  1
  O  O10  1  0.04343300  0.74960100  0.17397000  1
  O  O11  1  0.54343300  0.25039900  0.32603000  1
  O  O12  1  0.42731600  0.65118400  0.53677100  1
  O  O13  1  0.92731600  0.34881600  0.96322900  1
  O  O14  1  0.57268400  0.34881600  0.46322900  1
  O  O15  1  0.07268400  0.65118400  0.03677100  1
  O  O16  1  0.95473900  0.07428800  0.60704100  1
  O  O17  1  0.45473900  0.92571200  0.89295900  1
  O  O18  1  0.04526100  0.92571200  0.39295900  1
  O  O19  1  0.54526100  0.07428800  0.10704100  1
  O  O20  1  0.46470900  0.14128100  0.71419400  1
  O  O21  1  0.96470900  0.85871900  0.78580600  1
  O  O22  1  0.53529100  0.85871900  0.28580600  1
  O  O23  1  0.03529100  0.14128100  0.21419400  1
  O  O24  1  0.05802600  0.38831500  0.61156300  1
  O  O25  1  0.55802600  0.61168500  0.88843700  1
  O  O26  1  0.94197400  0.61168500  0.38843700  1
  O  O27  1  0.44197400  0.38831500  0.11156300  1
  O  O28  1  0.05542900  0.57434900  0.81222900  1
  O  O29  1  0.55542900  0.42565100  0.68777100  1
  O  O30  1  0.94457100  0.42565100  0.18777100  1
  O  O31  1  0.44457100  0.57434900  0.31222900  1
loop_
_geom_bond_atom_site_label_1
_geom_bond_atom_site_label_2
_geom_bond_distance
_geom_bond_site_symmetry_2
Al0 O0 1.814293 1_455
Al0 O4 1.823840 1_555
Al0 O13 1.827953 1_455
Al0 O8 1.834414 1_455
Al1 O1 1.814293 1_555
Al1 O5 1.823840 1_555
Al1 O12 1.827953 1_555
Al1 O9 1.834414 1_555
Al2 O2 1.814293 1_655
Al2 O6 1.823840 1_555
Al2 O15 1.827953 1_655
Al2 O10 1.834414 1_655
Al3 O3 1.814293 1_555
Al3 O7 1.823840 1_555
Al3 O14 1.827953 1_555
Al3 O11 1.834414 1_555
H0 O16 0.974562 1_455
H0 Rb8 2.897656 1_455
H0 Rb32 3.047667 1_545
H0 Rb3 3.097021 1_555
H1 O17 0.974562 1_555
H1 Rb9 2.897656 1_555
H1 Rb33 3.047667 1_565
H1 Rb2 3.097021 1_556
H2 O18 0.974562 1_655
H2 Rb10 2.897656 1_655
H2 Rb34 3.047667 1_565
H2 Rb1 3.097021 1_555
H3 O19 0.974562 1_555
H3 Rb11 2.897656 1_555
H3 Rb35 3.047667 1_545
H3 Rb0 3.097021 1_554
H4 O20 0.973784 1_555
H4 Rb20 2.795990 1_555
H4 Rb4 2.862012 1_555
H5 O21 0.973784 1_555
H5 Rb21 2.795990 1_555
H5 Rb5 2.862012 1_555
H6 O22 0.973784 1_555
H6 Rb22 2.795990 1_555
H6 Rb6 2.862012 1_555
H7 O23 0.973784 1_555
H7 Rb23 2.795990 1_555
H7 Rb7 2.862012 1_555
H8 O24 0.971905 1_555
H8 Rb12 2.590862 1_455
H8 Rb25 2.871284 1_455
H8 Rb16 3.030308 1_555
H8 Rb27 3.066348 1_555
H9 O25 0.971905 1_555
H9 Rb13 2.590862 1_555
H9 Rb24 2.871284 1_555
H9 Rb17 3.030308 1_555
H9 Rb26 3.066348 1_556
H10 O26 0.971905 1_555
H10 Rb14 2.590862 1_655
H10 Rb27 2.871284 1_655
H10 Rb18 3.030308 1_555
H10 Rb25 3.066348 1_555
H11 O27 0.971905 1_555
H11 Rb15 2.590862 1_555
H11 Rb26 2.871284 1_555
H11 Rb19 3.030308 1_555
H11 Rb24 3.066348 1_554
H12 O28 0.968102 1_555
H12 Rb9 2.916573 1_555
H12 Rb20 2.940135 1_555
H12 Rb28 3.001674 1_555
H13 O29 0.968102 1_555
H13 Rb8 2.916573 1_555
H13 Rb21 2.940135 1_555
H13 Rb29 3.001674 1_555
H14 O30 0.968102 1_555
H14 Rb11 2.916573 1_555
H14 Rb22 2.940135 1_555
H14 Rb30 3.001674 1_555
H15 O31 0.968102 1_555
H15 Rb10 2.916573 1_555
H15 Rb23 2.940135 1_555
H15 Rb31 3.001674 1_555
O0 Rb2 2.741409 1_546
O0 Rb0 2.747005 1_655
O0 Rb15 2.856015 1_556
O0 Rb33 2.875424 1_555
O0 Rb4 2.889459 1_655
O1 Rb3 2.741409 1_565
O1 Rb1 2.747005 1_555
O1 Rb14 2.856015 1_555
O1 Rb32 2.875424 1_555
O1 Rb5 2.889459 1_555
O2 Rb0 2.741409 1_564
O2 Rb2 2.747005 1_455
O2 Rb13 2.856015 1_554
O2 Rb35 2.875424 1_555
O2 Rb6 2.889459 1_455
O3 Rb1 2.741409 1_545
O3 Rb3 2.747005 1_555
O3 Rb12 2.856015 1_555
O3 Rb34 2.875424 1_555
O3 Rb7 2.889459 1_555
O4 Rb20 2.844141 1_555
O4 Rb15 2.865539 1_556
O4 Rb0 3.133913 1_555
O4 Rb24 3.241226 1_555
O4 Rb33 3.268393 1_555
O4 Rb4 3.353986 1_555
O5 Rb21 2.844141 1_555
O5 Rb14 2.865539 1_655
O5 Rb1 3.133913 1_555
O5 Rb25 3.241226 1_555
O5 Rb32 3.268393 1_655
O5 Rb5 3.353986 1_555
O6 Rb22 2.844141 1_555
O6 Rb13 2.865539 1_554
O6 Rb2 3.133913 1_555
O6 Rb26 3.241226 1_555
O6 Rb35 3.268393 1_555
O6 Rb6 3.353986 1_555
O7 Rb23 2.844141 1_555
O7 Rb12 2.865539 1_455
O7 Rb3 3.133913 1_555
O7 Rb27 3.241226 1_555
O7 Rb34 3.268393 1_455
O7 Rb7 3.353986 1_555
O8 Rb20 2.734671 1_655
O8 Rb8 2.742132 1_555
O8 Rb29 2.822549 1_555
O8 Rb33 2.858112 1_555
O8 Rb4 3.057242 1_655
O9 Rb21 2.734671 1_555
O9 Rb9 2.742132 1_555
O9 Rb28 2.822549 1_555
O9 Rb32 2.858112 1_555
O9 Rb5 3.057242 1_555
O10 Rb22 2.734671 1_455
O10 Rb10 2.742132 1_555
O10 Rb31 2.822549 1_555
O10 Rb35 2.858112 1_555
O10 Rb6 3.057242 1_455
O11 Rb23 2.734671 1_555
O11 Rb11 2.742132 1_555
O11 Rb30 2.822549 1_555
O11 Rb34 2.858112 1_555
O11 Rb7 3.057242 1_555
O12 Rb25 2.716965 1_555
O12 Rb14 2.796159 1_555
O12 Rb28 2.801909 1_555
O12 Rb18 2.917810 1_555
O12 Rb27 2.996124 1_555
O13 Rb24 2.716965 1_655
O13 Rb15 2.796159 1_556
O13 Rb29 2.801909 1_555
O13 Rb19 2.917810 1_656
O13 Rb26 2.996124 1_556
O14 Rb27 2.716965 1_555
O14 Rb12 2.796159 1_555
O14 Rb30 2.801909 1_555
O14 Rb16 2.917810 1_555
O14 Rb25 2.996124 1_555
O15 Rb26 2.716965 1_455
O15 Rb13 2.796159 1_554
O15 Rb31 2.801909 1_555
O15 Rb17 2.917810 1_454
O15 Rb24 2.996124 1_554
O16 Rb1 2.964049 1_545
O16 Rb5 2.977340 1_545
O16 Rb12 3.001539 1_555
O16 Rb3 3.034793 1_655
O16 Rb32 3.059132 1_645
O16 Rb8 3.099492 1_555
O17 Rb0 2.964049 1_565
O17 Rb4 2.977340 1_565
O17 Rb13 3.001539 1_555
O17 Rb2 3.034793 1_556
O17 Rb33 3.059132 1_565
O17 Rb9 3.099492 1_555
O18 Rb3 2.964049 1_565
O18 Rb7 2.977340 1_565
O18 Rb14 3.001539 1_555
O18 Rb1 3.034793 1_455
O18 Rb34 3.059132 1_465
O18 Rb10 3.099492 1_555
O19 Rb2 2.964049 1_545
O19 Rb6 2.977340 1_545
O19 Rb15 3.001539 1_555
O19 Rb0 3.034793 1_554
O19 Rb35 3.059132 1_545
O19 Rb11 3.099492 1_555
O20 Rb5 2.835380 1_545
O20 Rb33 2.902988 1_555
O20 Rb8 3.012530 1_555
O20 Rb16 3.092243 1_555
O21 Rb4 2.835380 1_665
O21 Rb32 2.902988 1_655
O21 Rb9 3.012530 1_655
O21 Rb17 3.092243 1_555
O22 Rb7 2.835380 1_565
O22 Rb35 2.902988 1_555
O22 Rb10 3.012530 1_555
O22 Rb18 3.092243 1_555
O23 Rb6 2.835380 1_445
O23 Rb34 2.902988 1_455
O23 Rb11 3.012530 1_455
O23 Rb19 3.092243 1_555
O24 Rb28 2.881121 1_555
O24 Rb16 2.892843 1_555
O24 Rb8 2.914171 1_455
O25 Rb29 2.881121 1_555
O25 Rb17 2.892843 1_555
O25 Rb9 2.914171 1_555
O26 Rb30 2.881121 1_555
O26 Rb18 2.892843 1_555
O26 Rb10 2.914171 1_655
O27 Rb31 2.881121 1_555
O27 Rb19 2.892843 1_555
O27 Rb11 2.914171 1_555
O28 Rb29 2.832543 1_455
O28 Rb17 2.924619 1_455
O28 Rb9 2.973139 1_555
O28 Rb21 2.985387 1_455
O29 Rb28 2.832543 1_555
O29 Rb16 2.924619 1_555
O29 Rb8 2.973139 1_555
O29 Rb20 2.985387 1_555
O30 Rb31 2.832543 1_655
O30 Rb19 2.924619 1_655
O30 Rb11 2.973139 1_555
O30 Rb23 2.985387 1_655
O31 Rb30 2.832543 1_555
O31 Rb18 2.924619 1_555
O31 Rb10 2.973139 1_555
O31 Rb22 2.985387 1_555
