# generated using pymatgen
data_Ga2CoN3
_symmetry_space_group_name_H-M   'P 1'
_cell_length_a   5.55487643
_cell_length_b   5.47593263
_cell_length_c   5.14818800
_cell_angle_alpha   90.00000000
_cell_angle_beta   90.00000000
_cell_angle_gamma   119.53098982
_symmetry_Int_Tables_number   1
_chemical_formula_structural   Ga2CoN3
_chemical_formula_sum   'Ga4 Co2 N6'
_cell_volume   136.25444831
_cell_formula_units_Z   2
loop_
 _symmetry_equiv_pos_site_id
 _symmetry_equiv_pos_as_xyz
  1  'x, y, z'
loop_
 _atom_site_type_symbol
 _atom_site_label
 _atom_site_symmetry_multiplicity
 _atom_site_fract_x
 _atom_site_fract_y
 _atom_site_fract_z
 _atom_site_occupancy
  Ga  Ga0  1  0.33337800  0.33236200  0.49373600  1
  Ga  Ga1  1  0.66662200  0.99898400  0.49373600  1
  Ga  Ga2  1  0.66662200  0.66763800  0.99373600  1
  Ga  Ga3  1  0.33337800  0.00101600  0.99373600  1
  Co  Co0  1  0.00000000  0.65396400  0.49370900  1
  Co  Co1  1  0.00000000  0.34603600  0.99370900  1
  N  N0  1  0.32967800  0.33821700  0.87479000  1
  N  N1  1  0.67032200  0.00853900  0.87479000  1
  N  N2  1  0.67032200  0.66178300  0.37479000  1
  N  N3  1  0.32967800  0.99146100  0.37479000  1
  N  N4  1  0.00000000  0.66522900  0.85724000  1
  N  N5  1  0.00000000  0.33477100  0.35724000  1
loop_
_geom_bond_atom_site_label_1
_geom_bond_atom_site_label_2
_geom_bond_distance
_geom_bond_site_symmetry_2
Ga0 N2 1.950349 1_555
Ga0 N3 1.955080 1_545
Ga0 N0 1.962273 1_555
Ga0 N5 1.986829 1_555
Ga1 N3 1.950349 1_555
Ga1 N2 1.955080 1_555
Ga1 N1 1.962273 1_565
Ga1 N5 1.986829 1_665
Ga2 N0 1.950349 1_555
Ga2 N1 1.955080 1_565
Ga2 N2 1.962273 1_556
Ga2 N4 1.986829 1_655
Ga3 N1 1.950349 1_555
Ga3 N0 1.955080 1_555
Ga3 N3 1.962273 1_546
Ga3 N4 1.986829 1_545
Co0 N4 1.872542 1_555
Co0 N5 1.883795 1_555
Co0 N3 1.951326 1_555
Co0 N2 1.951326 1_455
Co1 N5 1.872542 1_556
Co1 N4 1.883795 1_555
Co1 N1 1.951326 1_455
Co1 N0 1.951326 1_555
