# generated using pymatgen
data_Sr20P12Br3O48F
_symmetry_space_group_name_H-M   'P 1'
_cell_length_a   10.06844599
_cell_length_b   10.06844599
_cell_length_c   14.50282300
_cell_angle_alpha   90.00000000
_cell_angle_beta   90.00000000
_cell_angle_gamma   119.99999993
_symmetry_Int_Tables_number   1
_chemical_formula_structural   Sr20P12Br3O48F
_chemical_formula_sum   'Sr20 P12 Br3 O48 F1'
_cell_volume   1273.23353293
_cell_formula_units_Z   1
loop_
 _symmetry_equiv_pos_site_id
 _symmetry_equiv_pos_as_xyz
  1  'x, y, z'
loop_
 _atom_site_type_symbol
 _atom_site_label
 _atom_site_symmetry_multiplicity
 _atom_site_fract_x
 _atom_site_fract_y
 _atom_site_fract_z
 _atom_site_occupancy
  Sr  Sr0  1  0.66666700  0.33333300  0.00019500  1
  Sr  Sr1  1  0.66666700  0.33333300  0.50060900  1
  Sr  Sr2  1  0.33333300  0.66666700  0.74997600  1
  Sr  Sr3  1  0.33333300  0.66666700  0.25065500  1
  Sr  Sr4  1  0.33333300  0.66666700  0.99980500  1
  Sr  Sr5  1  0.33333300  0.66666700  0.49939100  1
  Sr  Sr6  1  0.66666700  0.33333300  0.25002400  1
  Sr  Sr7  1  0.66666700  0.33333300  0.74934500  1
  Sr  Sr8  1  0.74221900  0.73899300  0.12494300  1
  Sr  Sr9  1  0.74988300  0.74844100  0.62073500  1
  Sr  Sr10  1  0.26100700  0.00322600  0.12494300  1
  Sr  Sr11  1  0.25155900  0.00144100  0.62073500  1
  Sr  Sr12  1  0.99677400  0.25778100  0.12494300  1
  Sr  Sr13  1  0.99855900  0.25011700  0.62073500  1
  Sr  Sr14  1  0.25778100  0.26100700  0.87505700  1
  Sr  Sr15  1  0.25011700  0.25155900  0.37926500  1
  Sr  Sr16  1  0.73899300  0.99677400  0.87505700  1
  Sr  Sr17  1  0.74844100  0.99855900  0.37926500  1
  Sr  Sr18  1  0.00322600  0.74221900  0.87505700  1
  Sr  Sr19  1  0.00144100  0.74988300  0.37926500  1
  P  P0  1  0.03372700  0.62524000  0.12561400  1
  P  P1  1  0.03300500  0.62424900  0.62521300  1
  P  P2  1  0.37476000  0.40848700  0.12561400  1
  P  P3  1  0.37575100  0.40875600  0.62521300  1
  P  P4  1  0.59151300  0.96627300  0.12561400  1
  P  P5  1  0.59124400  0.96699500  0.62521300  1
  P  P6  1  0.96627300  0.37476000  0.87438600  1
  P  P7  1  0.96699500  0.37575100  0.37478700  1
  P  P8  1  0.62524000  0.59151300  0.87438600  1
  P  P9  1  0.62424900  0.59124400  0.37478700  1
  P  P10  1  0.40848700  0.03372700  0.87438600  1
  P  P11  1  0.40875600  0.03300500  0.37478700  1
  Br  Br0  1  0.00000000  0.00000000  0.74674500  1
  Br  Br1  1  0.00000000  0.00000000  0.25325500  1
  Br  Br2  1  0.00000000  0.00000000  0.00000000  1
  O  O0  1  0.85771600  0.51000700  0.12510700  1
  O  O1  1  0.85711300  0.51056800  0.62449400  1
  O  O2  1  0.48999300  0.34770900  0.12510700  1
  O  O3  1  0.48943200  0.34654500  0.62449400  1
  O  O4  1  0.65229100  0.14228400  0.12510700  1
  O  O5  1  0.65345500  0.14288700  0.62449400  1
  O  O6  1  0.14228400  0.48999300  0.87489300  1
  O  O7  1  0.14288700  0.48943200  0.37550600  1
  O  O8  1  0.51000700  0.65229100  0.87489300  1
  O  O9  1  0.51056800  0.65345500  0.37550600  1
  O  O10  1  0.34770900  0.85771600  0.87489300  1
  O  O11  1  0.34654500  0.85711300  0.37550600  1
  O  O12  1  0.08495500  0.72961400  0.03868800  1
  O  O13  1  0.08332100  0.73193400  0.53935100  1
  O  O14  1  0.27038600  0.35534200  0.03868800  1
  O  O15  1  0.26806600  0.35138800  0.53935100  1
  O  O16  1  0.64465800  0.91504500  0.03868800  1
  O  O17  1  0.64861200  0.91667900  0.53935100  1
  O  O18  1  0.91589200  0.27045700  0.78756600  1
  O  O19  1  0.91506000  0.27141800  0.28805900  1
  O  O20  1  0.72954300  0.64543500  0.78756600  1
  O  O21  1  0.72858200  0.64364200  0.28805900  1
  O  O22  1  0.35456500  0.08410800  0.78756600  1
  O  O23  1  0.35635800  0.08494000  0.28805900  1
  O  O24  1  0.91504500  0.27038600  0.96131200  1
  O  O25  1  0.91667900  0.26806600  0.46064900  1
  O  O26  1  0.72961400  0.64465800  0.96131200  1
  O  O27  1  0.73193400  0.64861200  0.46064900  1
  O  O28  1  0.35534200  0.08495500  0.96131200  1
  O  O29  1  0.35138800  0.08332100  0.46064900  1
  O  O30  1  0.08410800  0.72954300  0.21243400  1
  O  O31  1  0.08494000  0.72858200  0.71194100  1
  O  O32  1  0.27045700  0.35456500  0.21243400  1
  O  O33  1  0.27141800  0.35635800  0.71194100  1
  O  O34  1  0.64543500  0.91589200  0.21243400  1
  O  O35  1  0.64364200  0.91506000  0.71194100  1
  O  O36  1  0.12413800  0.53591100  0.12532400  1
  O  O37  1  0.12253600  0.53429600  0.62365500  1
  O  O38  1  0.46408900  0.58822700  0.12532400  1
  O  O39  1  0.46570400  0.58824000  0.62365500  1
  O  O40  1  0.41177300  0.87586200  0.12532400  1
  O  O41  1  0.41176000  0.87746400  0.62365500  1
  O  O42  1  0.87586200  0.46408900  0.87467600  1
  O  O43  1  0.87746400  0.46570400  0.37634500  1
  O  O44  1  0.53591100  0.41177300  0.87467600  1
  O  O45  1  0.53429600  0.41176000  0.37634500  1
  O  O46  1  0.58822700  0.12413800  0.87467600  1
  O  O47  1  0.58824000  0.12253600  0.37634500  1
  F  F0  1  0.00000000  0.00000000  0.50000000  1
loop_
_geom_bond_atom_site_label_1
_geom_bond_atom_site_label_2
_geom_bond_distance
_geom_bond_site_symmetry_2
Br0 Sr13 3.117417 1_455
Br0 Sr9 3.117421 1_445
Br0 Sr11 3.117425 1_555
Br0 Sr18 3.206967 1_545
Br0 Sr16 3.206967 1_445
Br0 Sr14 3.206967 1_555
Br1 Sr19 3.117417 1_545
Br1 Sr15 3.117421 1_555
Br1 Sr17 3.117425 1_445
Br1 Sr12 3.206967 1_455
Br1 Sr10 3.206967 1_555
Br1 Sr8 3.206967 1_445
Br2 Sr18 3.178864 1_544
Br2 Sr12 3.178864 1_455
Br2 Sr16 3.178864 1_444
Br2 Sr10 3.178864 1_555
Br2 Sr8 3.178864 1_445
Br2 Sr14 3.178864 1_554
O0 P0 1.559042 1_655
O0 Sr0 2.593157 1_555
O0 Sr6 2.593207 1_555
O0 Sr8 3.057583 1_555
O1 P1 1.555464 1_655
O1 Sr1 2.582149 1_555
O1 Sr7 2.591917 1_555
O1 Sr9 3.080653 1_555
O2 P2 1.559042 1_555
O2 Sr0 2.593161 1_555
O2 Sr6 2.593211 1_555
O2 Sr10 3.057583 1_555
O3 P3 1.555464 1_555
O3 Sr1 2.582153 1_555
O3 Sr7 2.591921 1_555
O3 Sr11 3.080660 1_555
O4 P4 1.559042 1_545
O4 Sr0 2.593153 1_555
O4 Sr6 2.593204 1_555
O4 Sr12 3.057583 1_555
O5 P5 1.555464 1_545
O5 Sr1 2.582146 1_555
O5 Sr7 2.591913 1_555
O5 Sr13 3.080662 1_555
O6 P6 1.559042 1_455
O6 Sr4 2.593157 1_555
O6 Sr2 2.593207 1_555
O6 Sr14 3.057583 1_555
O7 P7 1.555464 1_455
O7 Sr5 2.582149 1_555
O7 Sr3 2.591917 1_555
O7 Sr15 3.080653 1_555
O8 P8 1.559042 1_555
O8 Sr4 2.593161 1_555
O8 Sr2 2.593211 1_555
O8 Sr16 3.057583 1_555
O9 P9 1.555464 1_555
O9 Sr5 2.582153 1_555
O9 Sr3 2.591921 1_555
O9 Sr17 3.080660 1_555
O10 P10 1.559042 1_565
O10 Sr4 2.593153 1_555
O10 Sr2 2.593204 1_555
O10 Sr18 3.057583 1_555
O11 P11 1.555464 1_565
O11 Sr5 2.582146 1_555
O11 Sr3 2.591913 1_555
O11 Sr19 3.080662 1_555
O12 P0 1.554881 1_555
O12 Sr18 2.535614 1_554
O12 Sr10 2.722661 1_565
O12 Sr4 2.925494 1_554
O13 P1 1.559980 1_555
O13 Sr19 2.500315 1_555
O13 Sr11 2.651253 1_565
O13 Sr5 2.959445 1_555
O14 P2 1.554881 1_555
O14 Sr14 2.535617 1_554
O14 Sr12 2.722660 1_455
O14 Sr4 2.925494 1_554
O15 P3 1.559980 1_555
O15 Sr15 2.500315 1_555
O15 Sr13 2.651251 1_455
O15 Sr5 2.959445 1_555
O16 P4 1.554876 1_555
O16 Sr16 2.535616 1_554
O16 Sr8 2.722668 1_555
O16 Sr4 2.925494 1_554
O17 P5 1.559975 1_555
O17 Sr17 2.500315 1_555
O17 Sr9 2.651267 1_555
O17 Sr5 2.959445 1_555
O18 P6 1.553345 1_555
O18 Sr13 2.599855 1_555
O18 Sr16 2.732678 1_545
O18 Sr7 2.931418 1_555
O19 P7 1.552316 1_555
O19 Sr12 2.530804 1_555
O19 Sr17 2.739096 1_545
O19 Sr6 2.916608 1_555
O20 P8 1.553345 1_555
O20 Sr9 2.599851 1_555
O20 Sr18 2.732678 1_655
O20 Sr7 2.931428 1_555
O21 P9 1.552316 1_555
O21 Sr8 2.530804 1_555
O21 Sr19 2.739095 1_655
O21 Sr6 2.916617 1_555
O22 P10 1.553345 1_555
O22 Sr11 2.599852 1_555
O22 Sr14 2.732678 1_555
O22 Sr7 2.931425 1_555
O23 P11 1.552316 1_555
O23 Sr10 2.530804 1_555
O23 Sr15 2.739103 1_555
O23 Sr6 2.916614 1_555
O24 P6 1.554881 1_555
O24 Sr12 2.535614 1_556
O24 Sr16 2.722661 1_545
O24 Sr0 2.925494 1_556
O25 P7 1.559980 1_555
O25 Sr13 2.500315 1_555
O25 Sr17 2.651253 1_545
O25 Sr1 2.959445 1_555
O26 P8 1.554881 1_555
O26 Sr8 2.535617 1_556
O26 Sr18 2.722660 1_655
O26 Sr0 2.925494 1_556
O27 P9 1.559980 1_555
O27 Sr9 2.500315 1_555
O27 Sr19 2.651251 1_655
O27 Sr1 2.959445 1_555
O28 P10 1.554876 1_555
O28 Sr10 2.535616 1_556
O28 Sr14 2.722668 1_555
O28 Sr0 2.925494 1_556
O29 P11 1.559975 1_555
O29 Sr11 2.500315 1_555
O29 Sr15 2.651267 1_555
O29 Sr1 2.959445 1_555
O30 P0 1.553345 1_555
O30 Sr19 2.599855 1_555
O30 Sr10 2.732678 1_565
O30 Sr3 2.931418 1_555
O31 P1 1.552316 1_555
O31 Sr18 2.530804 1_555
O31 Sr11 2.739096 1_565
O31 Sr2 2.916608 1_555
O32 P2 1.553345 1_555
O32 Sr15 2.599851 1_555
O32 Sr12 2.732678 1_455
O32 Sr3 2.931428 1_555
O33 P3 1.552316 1_555
O33 Sr14 2.530804 1_555
O33 Sr13 2.739095 1_455
O33 Sr2 2.916617 1_555
O34 P4 1.553345 1_555
O34 Sr17 2.599852 1_555
O34 Sr8 2.732678 1_555
O34 Sr3 2.931425 1_555
O35 P5 1.552316 1_555
O35 Sr16 2.530804 1_555
O35 Sr9 2.739103 1_555
O35 Sr2 2.916614 1_555
O36 P0 1.567263 1_555
O36 Sr12 2.428029 1_455
O36 Sr3 2.588533 1_555
O36 Sr4 2.590449 1_554
O37 P1 1.565181 1_555
O37 Sr13 2.484970 1_455
O37 Sr5 2.588442 1_555
O37 Sr2 2.609300 1_555
O38 P2 1.567263 1_555
O38 Sr8 2.428029 1_555
O38 Sr3 2.588539 1_555
O38 Sr4 2.590454 1_554
O39 P3 1.565181 1_555
O39 Sr9 2.484969 1_555
O39 Sr5 2.588447 1_555
O39 Sr2 2.609306 1_555
O40 P4 1.567263 1_555
O40 Sr10 2.428029 1_565
O40 Sr3 2.588532 1_555
O40 Sr4 2.590448 1_554
O41 P5 1.565181 1_555
O41 Sr11 2.484961 1_565
O41 Sr5 2.588441 1_555
O41 Sr2 2.609299 1_555
O42 P6 1.567263 1_555
O42 Sr18 2.428029 1_655
O42 Sr7 2.588533 1_555
O42 Sr0 2.590449 1_556
O43 P7 1.565181 1_555
O43 Sr19 2.484970 1_655
O43 Sr1 2.588442 1_555
O43 Sr6 2.609300 1_555
O44 P8 1.567263 1_555
O44 Sr14 2.428029 1_555
O44 Sr7 2.588539 1_555
O44 Sr0 2.590454 1_556
O45 P9 1.565181 1_555
O45 Sr15 2.484969 1_555
O45 Sr1 2.588447 1_555
O45 Sr6 2.609306 1_555
O46 P10 1.567263 1_555
O46 Sr16 2.428029 1_545
O46 Sr7 2.588532 1_555
O46 Sr0 2.590448 1_556
O47 P11 1.565181 1_555
O47 Sr17 2.484961 1_545
O47 Sr1 2.588441 1_555
O47 Sr6 2.609299 1_555
F0 Sr13 3.073195 1_455
F0 Sr19 3.073195 1_545
F0 Sr9 3.073199 1_445
F0 Sr15 3.073199 1_555
F0 Sr11 3.073203 1_555
F0 Sr17 3.073203 1_445
