# generated using pymatgen
data_Pm3Dy
_symmetry_space_group_name_H-M   'P 1'
_cell_length_a   5.13106614
_cell_length_b   5.13106614
_cell_length_c   5.13106614
_cell_angle_alpha   90.00000000
_cell_angle_beta   90.00000000
_cell_angle_gamma   90.00000000
_symmetry_Int_Tables_number   1
_chemical_formula_structural   Pm3Dy
_chemical_formula_sum   'Pm3 Dy1'
_cell_volume   135.08988699
_cell_formula_units_Z   1
loop_
 _symmetry_equiv_pos_site_id
 _symmetry_equiv_pos_as_xyz
  1  'x, y, z'
loop_
 _atom_site_type_symbol
 _atom_site_label
 _atom_site_symmetry_multiplicity
 _atom_site_fract_x
 _atom_site_fract_y
 _atom_site_fract_z
 _atom_site_occupancy
  Pm  Pm0  1  0.00000000  0.50000000  0.50000000  1
  Pm  Pm1  1  0.50000000  0.00000000  0.50000000  1
  Pm  Pm2  1  0.50000000  0.50000000  0.00000000  1
  Dy  Dy0  1  -0.00000000  -0.00000000  -0.00000000  1
loop_
_geom_bond_atom_site_label_1
_geom_bond_atom_site_label_2
_geom_bond_distance
_geom_bond_site_symmetry_2
Pm0 Pm2 3.628212 1_456
Pm0 Pm2 3.628212 1_455
Pm0 Pm2 3.628212 1_556
Pm0 Pm2 3.628212 1_555
Pm0 Pm1 3.628212 1_555
Pm0 Pm1 3.628212 1_565
Pm0 Pm1 3.628212 1_465
Pm0 Pm1 3.628212 1_455
Pm1 Pm2 3.628212 1_545
Pm1 Pm2 3.628212 1_556
Pm1 Pm2 3.628212 1_555
Pm1 Pm2 3.628212 1_546
Dy0 Pm2 3.628212 1_545
Dy0 Pm2 3.628212 1_445
Dy0 Pm0 3.628212 1_544
Dy0 Pm1 3.628212 1_554
Dy0 Pm0 3.628212 1_545
Dy0 Pm2 3.628212 1_455
Dy0 Pm1 3.628212 1_454
Dy0 Pm2 3.628212 1_555
Dy0 Pm1 3.628212 1_555
Dy0 Pm0 3.628212 1_555
Dy0 Pm1 3.628212 1_455
Dy0 Pm0 3.628212 1_554
