# generated using pymatgen
data_Mg14NbBi
_symmetry_space_group_name_H-M   'P 1'
_cell_length_a   6.36479597
_cell_length_b   6.36479545
_cell_length_c   10.32744365
_cell_angle_alpha   90.00000000
_cell_angle_beta   90.00000000
_cell_angle_gamma   120.00000266
_symmetry_Int_Tables_number   1
_chemical_formula_structural   Mg14NbBi
_chemical_formula_sum   'Mg14 Nb1 Bi1'
_cell_volume   362.32006981
_cell_formula_units_Z   1
loop_
 _symmetry_equiv_pos_site_id
 _symmetry_equiv_pos_as_xyz
  1  'x, y, z'
loop_
 _atom_site_type_symbol
 _atom_site_label
 _atom_site_symmetry_multiplicity
 _atom_site_fract_x
 _atom_site_fract_y
 _atom_site_fract_z
 _atom_site_occupancy
  Mg  Mg0  1  0.16781860  0.83390880  0.12500000  1
  Mg  Mg1  1  0.16518932  0.83259416  0.62500000  1
  Mg  Mg2  1  0.66609120  0.33218140  0.12500000  1
  Mg  Mg3  1  0.66740584  0.33481068  0.62500000  1
  Mg  Mg4  1  0.66609120  0.83390880  0.12500000  1
  Mg  Mg5  1  0.66740584  0.83259416  0.62500000  1
  Mg  Mg6  1  0.33023275  0.16976725  0.36475671  1
  Mg  Mg7  1  0.33023275  0.16976725  0.88524329  1
  Mg  Mg8  1  0.33023275  0.66046651  0.36475671  1
  Mg  Mg9  1  0.33023275  0.66046651  0.88524329  1
  Mg  Mg10  1  0.83953349  0.16976725  0.36475671  1
  Mg  Mg11  1  0.83953349  0.16976725  0.88524329  1
  Mg  Mg12  1  0.83333300  0.66666700  0.37132959  1
  Mg  Mg13  1  0.83333300  0.66666700  0.87867041  1
  Nb  Nb0  1  0.16666700  0.33333300  0.12500000  1
  Bi  Bi0  1  0.16666700  0.33333300  0.62500000  1
loop_
_geom_bond_atom_site_label_1
_geom_bond_atom_site_label_2
_geom_bond_distance
_geom_bond_site_symmetry_2
Mg0 Mg8 3.091821 1_555
Mg0 Mg9 3.091821 1_554
Mg0 Mg7 3.091828 1_564
Mg0 Mg6 3.091828 1_565
Mg0 Mg12 3.141810 1_455
Mg0 Mg13 3.141810 1_454
Mg0 Mg2 3.171403 1_565
Mg0 Mg4 3.171403 1_555
Mg0 Nb0 3.182404 1_555
Mg0 Nb0 3.182404 1_565
Mg0 Mg2 3.193392 1_455
Mg0 Mg4 3.193393 1_455
Mg1 Mg12 3.195186 1_455
Mg1 Mg13 3.195186 1_455
Mg1 Mg8 3.267725 1_555
Mg1 Mg9 3.267725 1_555
Mg1 Mg6 3.267731 1_565
Mg1 Mg7 3.267731 1_565
Mg2 Mg7 3.091828 1_554
Mg2 Mg6 3.091828 1_555
Mg2 Mg4 3.171403 1_545
Mg2 Nb0 3.182404 1_555
Mg2 Nb0 3.182404 1_655
Mg2 Mg4 3.193392 1_555
Mg3 Mg6 3.267731 1_555
Mg3 Mg7 3.267731 1_555
Mg4 Mg9 3.091828 1_554
Mg4 Mg8 3.091828 1_555
Mg4 Nb0 3.182404 1_555
Mg4 Nb0 3.182404 1_665
Mg5 Mg9 3.267731 1_555
Mg5 Mg8 3.267731 1_555
Mg6 Nb0 3.063066 1_555
Mg6 Mg8 3.123200 1_555
Mg6 Mg8 3.241595 1_545
Mg7 Nb0 3.063066 1_556
Mg7 Mg9 3.123200 1_555
Mg7 Mg9 3.241595 1_545
Mg8 Nb0 3.063073 1_555
Mg9 Nb0 3.063073 1_556
Mg10 Nb0 3.063073 1_655
Mg10 Mg2 3.091821 1_555
Mg10 Mg4 3.091828 1_545
Mg10 Mg8 3.123200 1_655
Mg10 Mg6 3.123201 1_655
Mg10 Mg12 3.183305 1_555
Mg10 Mg12 3.183305 1_545
Mg10 Mg8 3.241595 1_545
Mg10 Mg6 3.241595 1_555
Mg10 Mg3 3.267725 1_555
Mg10 Mg5 3.267731 1_545
Mg11 Nb0 3.063073 1_656
Mg11 Mg2 3.091821 1_556
Mg11 Mg4 3.091828 1_546
Mg11 Mg9 3.123200 1_655
Mg11 Mg7 3.123201 1_655
Mg11 Mg13 3.183305 1_555
Mg11 Mg13 3.183305 1_545
Mg11 Mg9 3.241595 1_545
Mg11 Mg7 3.241595 1_555
Mg11 Mg3 3.267725 1_555
Mg11 Mg5 3.267731 1_545
Mg12 Mg4 3.141804 1_555
Mg12 Mg2 3.141810 1_555
Mg12 Mg6 3.183305 1_665
Mg12 Mg6 3.183305 1_555
Mg12 Mg8 3.183305 1_655
Mg12 Mg8 3.183305 1_555
Mg12 Mg5 3.195180 1_555
Mg12 Mg3 3.195186 1_555
Mg13 Mg4 3.141804 1_556
Mg13 Mg2 3.141810 1_556
Mg13 Mg7 3.183305 1_665
Mg13 Mg7 3.183305 1_555
Mg13 Mg9 3.183305 1_655
Mg13 Mg9 3.183305 1_555
Mg13 Mg5 3.195180 1_555
Mg13 Mg3 3.195186 1_555
Bi0 Mg1 3.182408 1_545
Bi0 Mg1 3.182408 1_555
Bi0 Mg5 3.182408 1_445
Bi0 Mg5 3.182408 1_555
Bi0 Mg3 3.182408 1_455
Bi0 Mg3 3.182408 1_555
Bi0 Mg6 3.236493 1_555
Bi0 Mg7 3.236493 1_555
Bi0 Mg9 3.236499 1_555
Bi0 Mg8 3.236499 1_555
Bi0 Mg10 3.236499 1_455
Bi0 Mg11 3.236499 1_455
