# generated using pymatgen
data_Ho2MoO6
_symmetry_space_group_name_H-M   'P 1'
_cell_length_a   9.82081783
_cell_length_b   9.82081783
_cell_length_c   5.31611533
_cell_angle_alpha   74.81329251
_cell_angle_beta   74.81329251
_cell_angle_gamma   67.88044095
_symmetry_Int_Tables_number   1
_chemical_formula_structural   Ho2MoO6
_chemical_formula_sum   'Ho8 Mo4 O24'
_cell_volume   450.69225880
_cell_formula_units_Z   4
loop_
 _symmetry_equiv_pos_site_id
 _symmetry_equiv_pos_as_xyz
  1  'x, y, z'
loop_
 _atom_site_type_symbol
 _atom_site_label
 _atom_site_symmetry_multiplicity
 _atom_site_fract_x
 _atom_site_fract_y
 _atom_site_fract_z
 _atom_site_occupancy
  Ho  Ho0  1  0.44925949  0.21647361  0.37824716  1
  Ho  Ho1  1  0.78352639  0.55074051  0.12175284  1
  Ho  Ho2  1  0.55074051  0.78352639  0.62175284  1
  Ho  Ho3  1  0.21647361  0.44925949  0.87824716  1
  Ho  Ho4  1  0.86329517  0.13670483  0.25000000  1
  Ho  Ho5  1  0.13670483  0.86329517  0.75000000  1
  Ho  Ho6  1  0.39266671  0.60733329  0.25000000  1
  Ho  Ho7  1  0.60733329  0.39266671  0.75000000  1
  Mo  Mo0  1  0.29506988  0.01470562  0.06229887  1
  Mo  Mo1  1  0.98529438  0.70493012  0.43770113  1
  Mo  Mo2  1  0.70493012  0.98529438  0.93770113  1
  Mo  Mo3  1  0.01470562  0.29506988  0.56229887  1
  O  O0  1  0.61063054  0.57251373  0.92031849  1
  O  O1  1  0.42748627  0.38936946  0.57968151  1
  O  O2  1  0.38936946  0.42748627  0.07968151  1
  O  O3  1  0.57251373  0.61063054  0.42031849  1
  O  O4  1  0.33703171  0.80673324  0.91704117  1
  O  O5  1  0.19326676  0.66296829  0.58295883  1
  O  O6  1  0.66296829  0.19326676  0.08295883  1
  O  O7  1  0.80673324  0.33703171  0.41704117  1
  O  O8  1  0.32598789  0.88564724  0.37015502  1
  O  O9  1  0.11435276  0.67401211  0.12984498  1
  O  O10  1  0.67401211  0.11435276  0.62984498  1
  O  O11  1  0.88564724  0.32598789  0.87015502  1
  O  O12  1  0.18475723  0.28758813  0.63940960  1
  O  O13  1  0.71241187  0.81524277  0.86059040  1
  O  O14  1  0.81524277  0.71241187  0.36059040  1
  O  O15  1  0.28758813  0.18475723  0.13940960  1
  O  O16  1  0.04867739  0.11111082  0.51493456  1
  O  O17  1  0.88888918  0.95132261  0.98506544  1
  O  O18  1  0.95132261  0.88888918  0.48506544  1
  O  O19  1  0.11111082  0.04867739  0.01493456  1
  O  O20  1  0.02453750  0.43220258  0.25852589  1
  O  O21  1  0.56779742  0.97546250  0.24147411  1
  O  O22  1  0.97546250  0.56779742  0.74147411  1
  O  O23  1  0.43220258  0.02453750  0.75852589  1
loop_
_geom_bond_atom_site_label_1
_geom_bond_atom_site_label_2
_geom_bond_distance
_geom_bond_site_symmetry_2
Ho0 O1 2.152864 1_555
Ho0 O2 2.237759 1_555
Ho0 O6 2.241018 1_555
Ho0 O23 2.394139 1_555
Ho0 O15 2.421966 1_555
Ho0 O21 2.422679 1_545
Ho0 O12 2.532837 1_555
Ho0 O10 2.616039 1_555
Ho1 O0 2.152864 1_554
Ho1 O3 2.237759 1_555
Ho1 O7 2.241018 1_555
Ho1 O22 2.394139 1_554
Ho1 O14 2.421966 1_555
Ho1 O20 2.422679 1_655
Ho1 O13 2.532837 1_554
Ho1 O11 2.616039 1_554
Ho2 O3 2.152864 1_555
Ho2 O0 2.237759 1_555
Ho2 O4 2.241018 1_555
Ho2 O21 2.394139 1_555
Ho2 O13 2.421966 1_555
Ho2 O23 2.422679 1_565
Ho2 O14 2.532837 1_555
Ho2 O8 2.616039 1_555
Ho3 O2 2.152864 1_556
Ho3 O1 2.237759 1_555
Ho3 O5 2.241018 1_555
Ho3 O20 2.394139 1_556
Ho3 O12 2.421966 1_555
Ho3 O22 2.422679 1_455
Ho3 O15 2.532837 1_556
Ho3 O9 2.616039 1_556
Ho4 O7 2.191249 1_555
Ho4 O6 2.191249 1_555
Ho4 O19 2.370698 1_655
Ho4 O18 2.370698 1_545
Ho4 O10 2.385310 1_555
Ho4 O11 2.385310 1_554
Ho4 O16 2.484912 1_655
Ho4 O17 2.484912 1_544
Ho5 O4 2.191249 1_555
Ho5 O5 2.191249 1_555
Ho5 O16 2.370698 1_565
Ho5 O17 2.370698 1_455
Ho5 O8 2.385310 1_555
Ho5 O9 2.385310 1_556
Ho5 O19 2.484912 1_566
Ho5 O18 2.484912 1_455
Ho6 O2 2.199270 1_555
Ho6 O3 2.199270 1_555
Ho6 O5 2.269647 1_555
Ho6 O4 2.269647 1_554
Ho6 O1 2.359636 1_555
Ho6 O0 2.359636 1_554
Ho6 O8 2.766815 1_555
Ho6 O9 2.766815 1_555
Ho7 O1 2.199270 1_555
Ho7 O0 2.199270 1_555
Ho7 O6 2.269647 1_556
Ho7 O7 2.269647 1_555
Ho7 O2 2.359636 1_556
Ho7 O3 2.359636 1_555
Ho7 O11 2.766815 1_555
Ho7 O10 2.766815 1_555
Mo0 O19 1.782981 1_555
Mo0 O15 1.792481 1_555
Mo0 O8 1.805780 1_545
Mo0 O23 1.818710 1_554
Mo0 O4 2.227895 1_544
Mo1 O18 1.782981 1_555
Mo1 O14 1.792481 1_555
Mo1 O9 1.805780 1_655
Mo1 O22 1.818710 1_555
Mo1 O5 2.227895 1_655
Mo2 O17 1.782981 1_555
Mo2 O13 1.792481 1_555
Mo2 O10 1.805780 1_565
Mo2 O21 1.818710 1_556
Mo2 O6 2.227895 1_566
Mo3 O16 1.782981 1_555
Mo3 O12 1.792481 1_555
Mo3 O11 1.805780 1_455
Mo3 O20 1.818710 1_555
Mo3 O7 2.227895 1_455
