# generated using pymatgen
data_Eu2TeO2
_symmetry_space_group_name_H-M   'P 1'
_cell_length_a   7.33196736
_cell_length_b   7.33196736
_cell_length_c   7.33196736
_cell_angle_alpha   148.46234425
_cell_angle_beta   148.46234425
_cell_angle_gamma   45.20331370
_symmetry_Int_Tables_number   1
_chemical_formula_structural   Eu2TeO2
_chemical_formula_sum   'Eu2 Te1 O2'
_cell_volume   107.49232954
_cell_formula_units_Z   1
loop_
 _symmetry_equiv_pos_site_id
 _symmetry_equiv_pos_as_xyz
  1  'x, y, z'
loop_
 _atom_site_type_symbol
 _atom_site_label
 _atom_site_symmetry_multiplicity
 _atom_site_fract_x
 _atom_site_fract_y
 _atom_site_fract_z
 _atom_site_occupancy
  Eu  Eu0  1  0.66596703  0.66596703  -0.00000000  1
  Eu  Eu1  1  0.33403297  0.33403297  0.00000000  1
  Te  Te0  1  0.00000000  -0.00000000  0.00000000  1
  O  O0  1  0.75000000  0.25000000  0.50000000  1
  O  O1  1  0.25000000  0.75000000  0.50000000  1
loop_
_geom_bond_atom_site_label_1
_geom_bond_atom_site_label_2
_geom_bond_distance
_geom_bond_site_symmetry_2
Eu0 O0 2.294400 1_554
Eu0 O1 2.294400 1_554
Eu0 O0 2.294400 1_565
Eu0 O1 2.294400 1_655
Eu0 Te0 3.603941 1_565
Eu0 Te0 3.603941 1_655
Eu0 Te0 3.603941 1_554
Eu0 Te0 3.603941 1_666
Eu1 O1 2.294400 1_555
Eu1 O0 2.294400 1_555
Eu1 O1 2.294400 1_544
Eu1 O0 2.294400 1_454
Eu1 Te0 3.603941 1_565
Eu1 Te0 3.603941 1_655
Eu1 Te0 3.603941 1_554
Eu1 Te0 3.603941 1_666
