# generated using pymatgen
data_Cs(FeSb)2
_symmetry_space_group_name_H-M   'P 1'
_cell_length_a   19.59868131
_cell_length_b   19.59868131
_cell_length_c   19.59868131
_cell_angle_alpha   158.29668637
_cell_angle_beta   158.29668637
_cell_angle_gamma   30.88242696
_symmetry_Int_Tables_number   1
_chemical_formula_structural   Cs(FeSb)2
_chemical_formula_sum   'Cs8 Fe16 Sb16'
_cell_volume   1028.77902810
_cell_formula_units_Z   8
loop_
 _symmetry_equiv_pos_site_id
 _symmetry_equiv_pos_as_xyz
  1  'x, y, z'
loop_
 _atom_site_type_symbol
 _atom_site_label
 _atom_site_symmetry_multiplicity
 _atom_site_fract_x
 _atom_site_fract_y
 _atom_site_fract_z
 _atom_site_occupancy
  Cs  Cs0_0  1  0.00000000  0.00000000  0.00000000  1
  Cs  Cs0_1  1  0.00000000  0.00000000  0.50000000  1
  Cs  Cs0_2  1  0.00000000  0.50000000  0.00000000  1
  Cs  Cs0_3  1  0.00000000  0.50000000  0.50000000  1
  Cs  Cs0_4  1  0.50000000  0.00000000  0.00000000  1
  Cs  Cs0_5  1  0.50000000  0.00000000  0.50000000  1
  Cs  Cs0_6  1  0.50000000  0.50000000  0.00000000  1
  Cs  Cs0_7  1  0.50000000  0.50000000  0.50000000  1
  Fe  Fe0_0  1  0.37500000  0.12500000  0.25000000  1
  Fe  Fe0_1  1  0.37500000  0.12500000  0.75000000  1
  Fe  Fe0_2  1  0.37500000  0.62500000  0.25000000  1
  Fe  Fe0_3  1  0.37500000  0.62500000  0.75000000  1
  Fe  Fe0_4  1  0.87500000  0.12500000  0.25000000  1
  Fe  Fe0_5  1  0.87500000  0.12500000  0.75000000  1
  Fe  Fe0_6  1  0.87500000  0.62500000  0.25000000  1
  Fe  Fe0_7  1  0.87500000  0.62500000  0.75000000  1
  Fe  Fe1_0  1  0.12500000  0.37500000  0.25000000  1
  Fe  Fe1_1  1  0.12500000  0.37500000  0.75000000  1
  Fe  Fe1_2  1  0.12500000  0.87500000  0.25000000  1
  Fe  Fe1_3  1  0.12500000  0.87500000  0.75000000  1
  Fe  Fe1_4  1  0.62500000  0.37500000  0.25000000  1
  Fe  Fe1_5  1  0.62500000  0.37500000  0.75000000  1
  Fe  Fe1_6  1  0.62500000  0.87500000  0.25000000  1
  Fe  Fe1_7  1  0.62500000  0.87500000  0.75000000  1
  Sb  Sb0_0  1  0.32574550  0.32574550  0.00000000  1
  Sb  Sb0_1  1  0.32574550  0.32574550  0.50000000  1
  Sb  Sb0_2  1  0.32574550  0.82574550  0.00000000  1
  Sb  Sb0_3  1  0.32574550  0.82574550  0.50000000  1
  Sb  Sb0_4  1  0.82574550  0.32574550  0.00000000  1
  Sb  Sb0_5  1  0.82574550  0.32574550  0.50000000  1
  Sb  Sb0_6  1  0.82574550  0.82574550  0.00000000  1
  Sb  Sb0_7  1  0.82574550  0.82574550  0.50000000  1
  Sb  Sb1_0  1  0.17425450  0.17425450  0.00000000  1
  Sb  Sb1_1  1  0.17425450  0.17425450  0.50000000  1
  Sb  Sb1_2  1  0.17425450  0.67425450  0.00000000  1
  Sb  Sb1_3  1  0.17425450  0.67425450  0.50000000  1
  Sb  Sb1_4  1  0.67425450  0.17425450  0.00000000  1
  Sb  Sb1_5  1  0.67425450  0.17425450  0.50000000  1
  Sb  Sb1_6  1  0.67425450  0.67425450  0.00000000  1
  Sb  Sb1_7  1  0.67425450  0.67425450  0.50000000  1
loop_
_geom_bond_atom_site_label_1
_geom_bond_atom_site_label_2
_geom_bond_distance
_geom_bond_site_symmetry_2
Cs0_0 Cs0_5 3.689782 1_555
Cs0_0 Cs0_5 3.689782 1_454
Cs0_0 Cs0_3 3.689782 1_544
Cs0_0 Cs0_3 3.689782 1_555
Cs0_0 Sb0_1 3.872655 1_555
Cs0_0 Sb0_2 3.872655 1_545
Cs0_0 Sb0_4 3.872655 1_455
Cs0_0 Sb0_7 3.872655 1_444
Cs0_0 Sb1_7 3.872655 1_444
Cs0_0 Sb1_4 3.872655 1_455
Cs0_0 Sb1_2 3.872655 1_545
Cs0_0 Sb1_1 3.872655 1_555
Cs0_1 Cs0_4 3.689782 1_556
Cs0_1 Cs0_2 3.689782 1_545
Cs0_1 Cs0_4 3.689782 1_455
Cs0_1 Cs0_2 3.689782 1_556
Cs0_1 Sb0_0 3.872655 1_556
Cs0_1 Sb0_3 3.872655 1_545
Cs0_1 Sb0_5 3.872655 1_455
Cs0_1 Sb0_6 3.872655 1_445
Cs0_1 Sb1_6 3.872655 1_445
Cs0_1 Sb1_5 3.872655 1_455
Cs0_1 Sb1_3 3.872655 1_545
Cs0_1 Sb1_0 3.872655 1_556
Cs0_2 Cs0_7 3.689782 1_555
Cs0_2 Cs0_7 3.689782 1_454
Cs0_2 Sb0_5 3.872655 1_454
Cs0_2 Sb0_3 3.872655 1_555
Cs0_2 Sb0_0 3.872655 1_555
Cs0_2 Sb0_6 3.872655 1_455
Cs0_2 Sb1_6 3.872655 1_455
Cs0_2 Sb1_5 3.872655 1_454
Cs0_2 Sb1_0 3.872655 1_555
Cs0_2 Sb1_3 3.872655 1_555
Cs0_3 Cs0_6 3.689782 1_556
Cs0_3 Cs0_6 3.689782 1_455
Cs0_3 Sb0_1 3.872655 1_555
Cs0_3 Sb0_2 3.872655 1_556
Cs0_3 Sb0_4 3.872655 1_455
Cs0_3 Sb0_7 3.872655 1_455
Cs0_3 Sb1_4 3.872655 1_455
Cs0_3 Sb1_7 3.872655 1_455
Cs0_3 Sb1_2 3.872655 1_556
Cs0_3 Sb1_1 3.872655 1_555
Cs0_4 Cs0_7 3.689782 1_544
Cs0_4 Cs0_7 3.689782 1_555
Cs0_4 Sb0_3 3.872655 1_544
Cs0_4 Sb0_0 3.872655 1_555
Cs0_4 Sb0_5 3.872655 1_555
Cs0_4 Sb0_6 3.872655 1_545
Cs0_4 Sb1_5 3.872655 1_555
Cs0_4 Sb1_6 3.872655 1_545
Cs0_4 Sb1_0 3.872655 1_555
Cs0_4 Sb1_3 3.872655 1_544
Cs0_5 Cs0_6 3.689782 1_556
Cs0_5 Cs0_6 3.689782 1_545
Cs0_5 Sb0_1 3.872655 1_555
Cs0_5 Sb0_4 3.872655 1_556
Cs0_5 Sb0_7 3.872655 1_545
Cs0_5 Sb0_2 3.872655 1_545
Cs0_5 Sb1_2 3.872655 1_545
Cs0_5 Sb1_7 3.872655 1_545
Cs0_5 Sb1_4 3.872655 1_556
Cs0_5 Sb1_1 3.872655 1_555
Cs0_6 Sb0_1 3.872655 1_554
Cs0_6 Sb0_7 3.872655 1_555
Cs0_6 Sb0_4 3.872655 1_555
Cs0_6 Sb0_2 3.872655 1_555
Cs0_6 Sb1_2 3.872655 1_555
Cs0_6 Sb1_7 3.872655 1_555
Cs0_6 Sb1_4 3.872655 1_555
Cs0_6 Sb1_1 3.872655 1_554
Cs0_7 Sb0_5 3.872655 1_555
Cs0_7 Sb0_3 3.872655 1_555
Cs0_7 Sb0_0 3.872655 1_555
Cs0_7 Sb0_6 3.872655 1_556
Cs0_7 Sb1_0 3.872655 1_555
Cs0_7 Sb1_5 3.872655 1_555
Cs0_7 Sb1_6 3.872655 1_556
Cs0_7 Sb1_3 3.872655 1_555
Fe0_0 Fe1_6 2.609070 1_545
Fe0_0 Fe1_5 2.609070 1_555
Fe0_0 Fe1_0 2.609070 1_555
Fe0_0 Fe1_3 2.609070 1_544
Fe0_0 Sb1_0 2.620456 1_555
Fe0_0 Sb1_5 2.620456 1_555
Fe0_0 Sb0_2 2.620456 1_545
Fe0_0 Sb0_1 2.620456 1_555
Fe0_1 Fe1_4 2.609070 1_556
Fe0_1 Fe1_1 2.609070 1_555
Fe0_1 Fe1_7 2.609070 1_545
Fe0_1 Fe1_2 2.609070 1_545
Fe0_1 Sb1_1 2.620456 1_555
Fe0_1 Sb1_4 2.620456 1_556
Fe0_1 Sb0_0 2.620456 1_556
Fe0_1 Sb0_3 2.620456 1_545
Fe0_2 Fe1_4 2.609070 1_555
Fe0_2 Fe1_2 2.609070 1_555
Fe0_2 Fe1_7 2.609070 1_555
Fe0_2 Fe1_1 2.609070 1_554
Fe0_2 Sb1_2 2.620456 1_555
Fe0_2 Sb1_7 2.620456 1_555
Fe0_2 Sb0_3 2.620456 1_555
Fe0_2 Sb0_0 2.620456 1_555
Fe0_3 Fe1_3 2.609070 1_555
Fe0_3 Fe1_5 2.609070 1_555
Fe0_3 Fe1_0 2.609070 1_555
Fe0_3 Fe1_6 2.609070 1_556
Fe0_3 Sb1_3 2.620456 1_555
Fe0_3 Sb1_6 2.620456 1_556
Fe0_3 Sb0_2 2.620456 1_556
Fe0_3 Sb0_1 2.620456 1_555
Fe0_4 Fe1_4 2.609070 1_555
Fe0_4 Fe1_7 2.609070 1_544
Fe0_4 Fe1_2 2.609070 1_645
Fe0_4 Fe1_1 2.609070 1_655
Fe0_4 Sb1_4 2.620456 1_555
Fe0_4 Sb1_1 2.620456 1_655
Fe0_4 Sb0_6 2.620456 1_545
Fe0_4 Sb0_5 2.620456 1_555
Fe0_5 Fe1_6 2.609070 1_545
Fe0_5 Fe1_5 2.609070 1_555
Fe0_5 Fe1_0 2.609070 1_656
Fe0_5 Fe1_3 2.609070 1_645
Fe0_5 Sb1_5 2.620456 1_555
Fe0_5 Sb1_0 2.620456 1_656
Fe0_5 Sb0_7 2.620456 1_545
Fe0_5 Sb0_4 2.620456 1_556
Fe0_6 Fe1_3 2.609070 1_655
Fe0_6 Fe1_0 2.609070 1_655
Fe0_6 Fe1_5 2.609070 1_554
Fe0_6 Fe1_6 2.609070 1_555
Fe0_6 Sb1_6 2.620456 1_555
Fe0_6 Sb1_3 2.620456 1_655
Fe0_6 Sb0_4 2.620456 1_555
Fe0_6 Sb0_7 2.620456 1_555
Fe0_7 Fe1_4 2.609070 1_555
Fe0_7 Fe1_2 2.609070 1_656
Fe0_7 Fe1_1 2.609070 1_655
Fe0_7 Fe1_7 2.609070 1_555
Fe0_7 Sb1_7 2.620456 1_555
Fe0_7 Sb1_2 2.620456 1_656
Fe0_7 Sb0_6 2.620456 1_556
Fe0_7 Sb0_5 2.620456 1_555
Fe1_0 Sb1_3 2.620456 1_555
Fe1_0 Sb1_0 2.620456 1_555
Fe1_0 Sb0_4 2.620456 1_455
Fe1_0 Sb0_1 2.620456 1_555
Fe1_1 Sb1_1 2.620456 1_555
Fe1_1 Sb1_2 2.620456 1_556
Fe1_1 Sb0_0 2.620456 1_556
Fe1_1 Sb0_5 2.620456 1_455
Fe1_2 Sb1_1 2.620456 1_565
Fe1_2 Sb1_2 2.620456 1_555
Fe1_2 Sb0_6 2.620456 1_455
Fe1_2 Sb0_3 2.620456 1_555
Fe1_3 Sb1_3 2.620456 1_555
Fe1_3 Sb1_0 2.620456 1_566
Fe1_3 Sb0_2 2.620456 1_556
Fe1_3 Sb0_7 2.620456 1_455
Fe1_4 Sb1_7 2.620456 1_555
Fe1_4 Sb1_4 2.620456 1_555
Fe1_4 Sb0_0 2.620456 1_555
Fe1_4 Sb0_5 2.620456 1_555
Fe1_5 Sb1_5 2.620456 1_555
Fe1_5 Sb1_6 2.620456 1_556
Fe1_5 Sb0_4 2.620456 1_556
Fe1_5 Sb0_1 2.620456 1_555
Fe1_6 Sb1_6 2.620456 1_555
Fe1_6 Sb1_5 2.620456 1_565
Fe1_6 Sb0_7 2.620456 1_555
Fe1_6 Sb0_2 2.620456 1_555
Fe1_7 Sb1_7 2.620456 1_555
Fe1_7 Sb1_4 2.620456 1_566
Fe1_7 Sb0_6 2.620456 1_556
Fe1_7 Sb0_3 2.620456 1_555
