# generated using pymatgen
data_Ni(RhO2)2
_symmetry_space_group_name_H-M   'P 1'
_cell_length_a   6.14352096
_cell_length_b   6.14352104
_cell_length_c   6.06438403
_cell_angle_alpha   120.43262136
_cell_angle_beta   120.43261309
_cell_angle_gamma   90.00000217
_symmetry_Int_Tables_number   1
_chemical_formula_structural   Ni(RhO2)2
_chemical_formula_sum   'Ni2 Rh4 O8'
_cell_volume   159.70770499
_cell_formula_units_Z   2
loop_
 _symmetry_equiv_pos_site_id
 _symmetry_equiv_pos_as_xyz
  1  'x, y, z'
loop_
 _atom_site_type_symbol
 _atom_site_label
 _atom_site_symmetry_multiplicity
 _atom_site_fract_x
 _atom_site_fract_y
 _atom_site_fract_z
 _atom_site_occupancy
  Ni  Ni0  1  0.12500000  0.87499900  0.25000000  1
  Ni  Ni1  1  0.87500000  0.12500100  0.75000100  1
  Rh  Rh0  1  0.50000000  0.50000100  0.00000000  1
  Rh  Rh1  1  0.00000000  0.50000000  0.50000100  1
  Rh  Rh2  1  0.50000000  0.50000000  0.49999900  1
  Rh  Rh3  1  0.50000000  0.00000000  0.00000000  1
  O  O0  1  0.25656900  0.73214400  0.51314000  1
  O  O1  1  0.71900300  0.74343000  0.98686100  1
  O  O2  1  0.26785800  0.74343000  0.98686100  1
  O  O3  1  0.74343100  0.26785800  0.48686200  1
  O  O4  1  0.74342900  0.71900200  0.48686000  1
  O  O5  1  0.28099700  0.25657000  0.01314000  1
  O  O6  1  0.25657100  0.28099800  0.51314000  1
  O  O7  1  0.73214200  0.25657000  0.01314000  1
loop_
_geom_bond_atom_site_label_1
_geom_bond_atom_site_label_2
_geom_bond_distance
_geom_bond_site_symmetry_2
Ni0 O0 2.020444 1_555
Ni0 O2 2.020454 1_554
Ni0 O1 2.020454 1_454
Ni0 O6 2.020464 1_565
Ni1 O3 2.020449 1_555
Ni1 O7 2.020454 1_556
Ni1 O5 2.020454 1_656
Ni1 O4 2.020464 1_545
O0 Rh3 2.065591 1_566
O0 Rh1 2.069423 1_555
O0 Rh2 2.069428 1_555
O1 Rh2 2.065600 1_555
O1 Rh0 2.069410 1_556
O1 Rh3 2.069419 1_566
O2 Rh1 2.065592 1_555
O2 Rh0 2.069410 1_556
O2 Rh3 2.069419 1_566
O3 Rh3 2.065600 1_555
O3 Rh1 2.069415 1_655
O3 Rh2 2.069419 1_555
O4 Rh0 2.065592 1_555
O4 Rh2 2.069406 1_555
O4 Rh1 2.069420 1_655
O5 Rh2 2.065587 1_555
O5 Rh3 2.069419 1_555
O5 Rh0 2.069424 1_555
O6 Rh0 2.065592 1_556
O6 Rh2 2.069415 1_555
O6 Rh1 2.069420 1_555
O7 Rh1 2.065596 1_655
O7 Rh3 2.069415 1_555
O7 Rh0 2.069420 1_555
