# generated using pymatgen
data_La3FeSiS7
_symmetry_space_group_name_H-M   'P 1'
_cell_length_a   10.38102357
_cell_length_b   10.38102357
_cell_length_c   5.68901200
_cell_angle_alpha   90.00000000
_cell_angle_beta   90.00000000
_cell_angle_gamma   119.99999723
_symmetry_Int_Tables_number   1
_chemical_formula_structural   La3FeSiS7
_chemical_formula_sum   'La6 Fe2 Si2 S14'
_cell_volume   530.94293656
_cell_formula_units_Z   2
loop_
 _symmetry_equiv_pos_site_id
 _symmetry_equiv_pos_as_xyz
  1  'x, y, z'
loop_
 _atom_site_type_symbol
 _atom_site_label
 _atom_site_symmetry_multiplicity
 _atom_site_fract_x
 _atom_site_fract_y
 _atom_site_fract_z
 _atom_site_occupancy
  La  La0  1  0.64395700  0.76635700  0.76633500  1
  La  La1  1  0.12240000  0.35604300  0.76633500  1
  La  La2  1  0.35604300  0.23364300  0.26633500  1
  La  La3  1  0.23364300  0.87760000  0.76633500  1
  La  La4  1  0.87760000  0.64395700  0.26633500  1
  La  La5  1  0.76635700  0.12240000  0.26633500  1
  Fe  Fe0  1  0.00000000  0.00000000  0.00191500  1
  Fe  Fe1  1  0.00000000  0.00000000  0.50191500  1
  Si  Si0  1  0.66666700  0.33333300  0.85168900  1
  Si  Si1  1  0.33333300  0.66666700  0.35168900  1
  S  S0  1  0.66666700  0.33333300  0.48310800  1
  S  S1  1  0.33333300  0.66666700  0.98310800  1
  S  S2  1  0.88478100  0.40859300  0.99066400  1
  S  S3  1  0.52381200  0.11521900  0.99066400  1
  S  S4  1  0.11521900  0.59140700  0.49066400  1
  S  S5  1  0.59140700  0.47618800  0.99066400  1
  S  S6  1  0.47618800  0.88478100  0.49066400  1
  S  S7  1  0.40859300  0.52381200  0.49066400  1
  S  S8  1  0.84285000  0.08074600  0.75376400  1
  S  S9  1  0.23789600  0.15715000  0.75376400  1
  S  S10  1  0.15715000  0.91925400  0.25376400  1
  S  S11  1  0.91925400  0.76210400  0.75376400  1
  S  S12  1  0.76210400  0.84285000  0.25376400  1
  S  S13  1  0.08074600  0.23789600  0.25376400  1
loop_
_geom_bond_atom_site_label_1
_geom_bond_atom_site_label_2
_geom_bond_distance
_geom_bond_site_symmetry_2
La0 S8 2.860279 1_565
La0 S11 2.881081 1_555
La0 S7 2.935483 1_555
La0 S12 2.974958 1_556
La0 S6 3.024099 1_555
La0 S5 3.058875 1_555
La0 S1 3.106889 1_555
La0 S12 3.108712 1_555
La1 S9 2.860279 1_555
La1 S8 2.881082 1_455
La1 S4 2.935482 1_555
La1 S13 2.974958 1_556
La1 S7 3.024099 1_555
La1 S2 3.058875 1_455
La1 S1 3.106887 1_555
La1 S13 3.108712 1_555
La2 S10 2.860279 1_545
La2 S13 2.881081 1_555
La2 S5 2.935483 1_554
La2 S9 2.974958 1_555
La2 S3 3.024099 1_554
La2 S7 3.058875 1_555
La2 S0 3.106889 1_555
La2 S9 3.108712 1_554
La3 S11 2.860279 1_455
La3 S9 2.881081 1_565
La3 S6 2.935482 1_555
La3 S10 2.974958 1_556
La3 S4 3.024099 1_555
La3 S3 3.058875 1_565
La3 S1 3.106880 1_555
La3 S10 3.108712 1_555
La4 S12 2.860279 1_555
La4 S10 2.881082 1_655
La4 S2 2.935482 1_554
La4 S11 2.974958 1_555
La4 S5 3.024099 1_554
La4 S4 3.058875 1_655
La4 S0 3.106887 1_555
La4 S11 3.108712 1_554
La5 S13 2.860279 1_655
La5 S12 2.881081 1_545
La5 S3 2.935482 1_554
La5 S8 2.974958 1_555
La5 S2 3.024099 1_554
La5 S6 3.058875 1_545
La5 S0 3.106880 1_555
La5 S8 3.108712 1_554
Fe0 S8 2.593159 1_454
Fe0 S11 2.593159 1_444
Fe0 S9 2.593159 1_554
Fe0 S10 2.604672 1_545
Fe0 S13 2.604672 1_555
Fe0 S12 2.604672 1_445
Fe1 S10 2.593159 1_545
Fe1 S13 2.593159 1_555
Fe1 S12 2.593159 1_445
Fe1 S8 2.604672 1_455
Fe1 S11 2.604672 1_445
Fe1 S9 2.604672 1_555
S0 Si0 2.096862 1_555
S1 Si1 2.096862 1_556
S2 Si0 2.143199 1_555
S3 Si0 2.143200 1_555
S4 Si1 2.143199 1_555
S5 Si0 2.143208 1_555
S6 Si1 2.143200 1_555
S7 Si1 2.143208 1_555
