# generated using pymatgen
data_PIrS
_symmetry_space_group_name_H-M   'P 1'
_cell_length_a   5.67042694
_cell_length_b   5.67042694
_cell_length_c   5.67042694
_cell_angle_alpha   90.00000000
_cell_angle_beta   90.00000000
_cell_angle_gamma   90.00000000
_symmetry_Int_Tables_number   1
_chemical_formula_structural   PIrS
_chemical_formula_sum   'P4 Ir4 S4'
_cell_volume   182.32544305
_cell_formula_units_Z   4
loop_
 _symmetry_equiv_pos_site_id
 _symmetry_equiv_pos_as_xyz
  1  'x, y, z'
loop_
 _atom_site_type_symbol
 _atom_site_label
 _atom_site_symmetry_multiplicity
 _atom_site_fract_x
 _atom_site_fract_y
 _atom_site_fract_z
 _atom_site_occupancy
  P  P0  1  0.88876340  0.11123660  0.61123660  1
  P  P1  1  0.11123660  0.61123660  0.88876340  1
  P  P2  1  0.61123660  0.88876340  0.11123660  1
  P  P3  1  0.38876340  0.38876340  0.38876340  1
  Ir  Ir0  1  0.49386869  0.50613131  0.00613131  1
  Ir  Ir1  1  0.50613131  0.00613131  0.49386869  1
  Ir  Ir2  1  0.00613131  0.49386869  0.50613131  1
  Ir  Ir3  1  0.99386869  0.99386869  0.99386869  1
  S  S0  1  0.10965259  0.89034741  0.39034741  1
  S  S1  1  0.89034741  0.39034741  0.10965259  1
  S  S2  1  0.39034741  0.10965259  0.89034741  1
  S  S3  1  0.60965259  0.60965259  0.60965259  1
loop_
_geom_bond_atom_site_label_1
_geom_bond_atom_site_label_2
_geom_bond_distance
_geom_bond_site_symmetry_2
P0 S0 2.169456 1_645
P1 S1 2.169456 1_456
P2 S2 2.169456 1_564
P3 S3 2.169456 1_555
Ir0 P3 2.346417 1_555
Ir0 P1 2.346417 1_554
Ir0 P2 2.346417 1_555
Ir0 S1 2.414550 1_555
Ir0 S3 2.414550 1_554
Ir0 S2 2.414550 1_554
Ir1 P3 2.346417 1_555
Ir1 P0 2.346417 1_555
Ir1 P2 2.346417 1_545
Ir1 S2 2.414550 1_555
Ir1 S3 2.414550 1_545
Ir1 S0 2.414550 1_545
Ir2 P3 2.346417 1_555
Ir2 P0 2.346417 1_455
Ir2 P1 2.346417 1_555
Ir2 S0 2.414550 1_555
Ir2 S3 2.414550 1_455
Ir2 S1 2.414550 1_455
Ir3 P2 2.346417 1_556
Ir3 P0 2.346417 1_565
Ir3 P1 2.346417 1_655
Ir3 S2 2.414550 1_665
Ir3 S0 2.414550 1_656
Ir3 S1 2.414550 1_566
