# generated using pymatgen
data_Al2SiAg7
_symmetry_space_group_name_H-M   'P 1'
_cell_length_a   7.04513000
_cell_length_b   6.97040300
_cell_length_c   7.01462823
_cell_angle_alpha   88.81538612
_cell_angle_beta   90.00000000
_cell_angle_gamma   90.00000000
_symmetry_Int_Tables_number   1
_chemical_formula_structural   Al2SiAg7
_chemical_formula_sum   'Al4 Si2 Ag14'
_cell_volume   344.39649800
_cell_formula_units_Z   2
loop_
 _symmetry_equiv_pos_site_id
 _symmetry_equiv_pos_as_xyz
  1  'x, y, z'
loop_
 _atom_site_type_symbol
 _atom_site_label
 _atom_site_symmetry_multiplicity
 _atom_site_fract_x
 _atom_site_fract_y
 _atom_site_fract_z
 _atom_site_occupancy
  Al  Al0  1  0.19215700  0.18935900  0.44230200  1
  Al  Al1  1  0.69215700  0.81064100  0.55769800  1
  Al  Al2  1  0.81481600  0.30962500  0.93536400  1
  Al  Al3  1  0.31481600  0.69037500  0.06463600  1
  Si  Si0  1  0.43713700  0.93657300  0.31215400  1
  Si  Si1  1  0.93713700  0.06342700  0.68784600  1
  Ag  Ag0  1  0.95771000  0.70488700  0.87412100  1
  Ag  Ag1  1  0.69976600  0.62619200  0.20729900  1
  Ag  Ag2  1  0.62102000  0.95670800  0.95441200  1
  Ag  Ag3  1  0.45771000  0.29511300  0.12587900  1
  Ag  Ag4  1  0.19976600  0.37380800  0.79270100  1
  Ag  Ag5  1  0.12102000  0.04329200  0.04558800  1
  Ag  Ag6  1  0.04473000  0.79839300  0.37621900  1
  Ag  Ag7  1  0.29624000  0.87685300  0.70382800  1
  Ag  Ag8  1  0.37139700  0.54452800  0.45043400  1
  Ag  Ag9  1  0.54473000  0.20160700  0.62378100  1
  Ag  Ag10  1  0.79624000  0.12314700  0.29617200  1
  Ag  Ag11  1  0.87139700  0.45547200  0.54956600  1
  Ag  Ag12  1  0.56502700  0.56704700  0.81627000  1
  Ag  Ag13  1  0.06502700  0.43295300  0.18373000  1
loop_
_geom_bond_atom_site_label_1
_geom_bond_atom_site_label_2
_geom_bond_distance
_geom_bond_site_symmetry_2
Al0 Si1 2.627284 1_455
Al0 Si0 2.642626 1_545
Al1 Si0 2.627284 1_555
Al1 Si1 2.642626 1_565
Al2 Si1 2.612545 1_555
Al3 Si0 2.612545 1_555
Ag0 Si1 2.799850 1_565
Ag0 Al3 2.849584 1_656
Ag0 Ag5 2.907190 1_666
Ag0 Ag7 2.914225 1_655
Ag0 Ag4 2.935050 1_655
Ag0 Ag13 2.951437 1_656
Ag0 Ag11 2.956170 1_555
Ag0 Al2 2.956323 1_555
Ag0 Ag12 2.959303 1_555
Ag0 Al1 2.983691 1_555
Ag0 Ag1 3.002067 1_556
Ag0 Ag2 3.010920 1_555
Ag1 Al1 2.797836 1_555
Ag1 Ag13 2.910800 1_655
Ag1 Ag11 2.919626 1_555
Ag1 Al3 2.922013 1_555
Ag1 Ag8 2.923089 1_555
Ag1 Ag2 2.931412 1_554
Ag1 Ag3 2.935050 1_555
Ag1 Ag12 2.939631 1_554
Ag1 Si0 2.951420 1_555
Ag1 Ag6 2.968165 1_655
Ag1 Al2 3.055936 1_554
Ag2 Al2 2.814219 1_565
Ag2 Si0 2.825000 1_556
Ag2 Ag9 2.901399 1_565
Ag2 Ag3 2.907190 1_566
Ag2 Al3 2.939145 1_556
Ag2 Ag7 2.945414 1_555
Ag2 Si1 2.992011 1_565
Ag2 Al1 3.024719 1_555
Ag3 Si0 2.799850 1_545
Ag3 Al2 2.849584 1_554
Ag3 Ag8 2.956170 1_555
Ag3 Al3 2.956323 1_555
Ag3 Al0 2.983691 1_555
Ag3 Ag4 3.002067 1_554
Ag3 Ag5 3.010920 1_555
Ag4 Al0 2.797836 1_555
Ag4 Ag8 2.919626 1_555
Ag4 Al2 2.922013 1_455
Ag4 Ag5 2.931412 1_556
Ag4 Si1 2.951420 1_455
Ag4 Ag9 2.968165 1_555
Ag4 Al3 3.055936 1_556
Ag5 Al3 2.814219 1_545
Ag5 Si1 2.825000 1_454
Ag5 Ag6 2.901399 1_545
Ag5 Al2 2.939145 1_454
Ag5 Ag7 2.954986 1_544
Ag5 Si0 2.992011 1_545
Ag5 Al0 3.024719 1_555
Ag6 Al1 2.793242 1_455
Ag6 Ag8 2.942906 1_555
Ag6 Si0 2.958807 1_555
Ag6 Ag7 2.961727 1_555
Ag6 Al0 2.961849 1_565
Ag6 Si1 2.988776 1_465
Ag6 Al3 3.005424 1_555
Ag7 Al3 2.824231 1_556
Ag7 Si1 2.845762 1_465
Ag7 Ag9 2.907175 1_565
Ag7 Al0 2.912532 1_565
Ag7 Si0 2.942752 1_555
Ag7 Ag8 2.995977 1_555
Ag7 Al1 3.010550 1_555
Ag8 Al0 2.780760 1_555
Ag8 Al3 2.898676 1_555
Ag8 Si0 2.917788 1_555
Ag8 Ag9 2.926283 1_555
Ag8 Al1 3.028403 1_555
Ag9 Al0 2.793242 1_555
Ag9 Si1 2.958807 1_555
Ag9 Al1 2.961849 1_545
Ag9 Si0 2.988776 1_545
Ag9 Al2 3.005424 1_555
Ag10 Al2 2.824231 1_554
Ag10 Si0 2.845762 1_545
Ag10 Ag6 2.907175 1_645
Ag10 Al1 2.912532 1_545
Ag10 Ag3 2.914225 1_555
Ag10 Si1 2.942752 1_555
Ag10 Ag5 2.945414 1_655
Ag10 Ag2 2.954986 1_544
Ag10 Ag9 2.961727 1_555
Ag10 Ag13 2.966627 1_655
Ag10 Ag11 2.995977 1_555
Ag10 Al0 3.010550 1_655
Ag11 Al1 2.780760 1_555
Ag11 Al2 2.898676 1_555
Ag11 Ag13 2.913348 1_655
Ag11 Si1 2.917788 1_555
Ag11 Ag4 2.923089 1_655
Ag11 Ag6 2.926283 1_655
Ag11 Ag9 2.942906 1_555
Ag11 Ag12 2.970484 1_555
Ag11 Al0 3.028403 1_655
Ag12 Al1 2.616810 1_555
Ag12 Al3 2.635055 1_556
Ag12 Al2 2.636747 1_555
Ag12 Ag4 2.910800 1_555
Ag12 Ag9 2.911075 1_555
Ag12 Ag8 2.913348 1_555
Ag12 Ag2 2.929265 1_555
Ag12 Ag3 2.951437 1_556
Ag12 Ag7 2.966627 1_555
Ag13 Al0 2.616810 1_555
Ag13 Al2 2.635055 1_454
Ag13 Al3 2.636747 1_555
Ag13 Ag6 2.911075 1_555
Ag13 Ag5 2.929265 1_555
Ag13 Ag4 2.939631 1_554
Ag13 Ag3 2.959303 1_555
Ag13 Ag8 2.970484 1_555
