# generated using pymatgen
data_NaSbO6
_symmetry_space_group_name_H-M   'P 1'
_cell_length_a   8.70288000
_cell_length_b   8.70288000
_cell_length_c   6.88190600
_cell_angle_alpha   90.00000000
_cell_angle_beta   90.00000000
_cell_angle_gamma   90.00000000
_symmetry_Int_Tables_number   1
_chemical_formula_structural   NaSbO6
_chemical_formula_sum   'Na4 Sb4 O24'
_cell_volume   521.23638829
_cell_formula_units_Z   4
loop_
 _symmetry_equiv_pos_site_id
 _symmetry_equiv_pos_as_xyz
  1  'x, y, z'
loop_
 _atom_site_type_symbol
 _atom_site_label
 _atom_site_symmetry_multiplicity
 _atom_site_fract_x
 _atom_site_fract_y
 _atom_site_fract_z
 _atom_site_occupancy
  Na  Na0  1  0.25000000  0.75000000  0.75000000  1
  Na  Na1  1  0.75000000  0.25000000  0.75000000  1
  Na  Na2  1  0.75000000  0.75000000  0.25000000  1
  Na  Na3  1  0.25000000  0.25000000  0.25000000  1
  Sb  Sb0  1  0.25000000  0.25000000  0.75000000  1
  Sb  Sb1  1  0.75000000  0.75000000  0.75000000  1
  Sb  Sb2  1  0.25000000  0.75000000  0.25000000  1
  Sb  Sb3  1  0.75000000  0.25000000  0.25000000  1
  O  O0  1  0.00079200  0.25398900  0.90882000  1
  O  O1  1  0.99920800  0.74601100  0.90882000  1
  O  O2  1  0.24601100  0.50079200  0.40882000  1
  O  O3  1  0.75398900  0.49920800  0.40882000  1
  O  O4  1  0.49920800  0.24601100  0.59118000  1
  O  O5  1  0.50079200  0.75398900  0.59118000  1
  O  O6  1  0.25398900  0.99920800  0.09118000  1
  O  O7  1  0.74601100  0.00079200  0.09118000  1
  O  O8  1  0.28819000  0.00356400  0.90199600  1
  O  O9  1  0.71181000  0.99643600  0.90199600  1
  O  O10  1  0.49643600  0.78819000  0.40199600  1
  O  O11  1  0.50356400  0.21181000  0.40199600  1
  O  O12  1  0.21181000  0.49643600  0.59800400  1
  O  O13  1  0.78819000  0.50356400  0.59800400  1
  O  O14  1  0.00356400  0.71181000  0.09800400  1
  O  O15  1  0.99643600  0.28819000  0.09800400  1
  O  O16  1  0.16484000  0.15080600  0.54119600  1
  O  O17  1  0.83516000  0.84919400  0.54119600  1
  O  O18  1  0.34919400  0.66484000  0.04119600  1
  O  O19  1  0.65080600  0.33516000  0.04119600  1
  O  O20  1  0.33516000  0.34919400  0.95880400  1
  O  O21  1  0.66484000  0.65080600  0.95880400  1
  O  O22  1  0.15080600  0.83516000  0.45880400  1
  O  O23  1  0.84919400  0.16484000  0.45880400  1
loop_
_geom_bond_atom_site_label_1
_geom_bond_atom_site_label_2
_geom_bond_distance
_geom_bond_site_symmetry_2
Na0 O18 2.304447 1_556
Na0 O22 2.304447 1_555
Na0 O5 2.441233 1_555
Na0 O1 2.441233 1_455
Na0 O8 2.464613 1_565
Na0 O12 2.464613 1_555
Na1 O19 2.304447 1_556
Na1 O23 2.304447 1_555
Na1 O0 2.441233 1_655
Na1 O4 2.441233 1_555
Na1 O13 2.464613 1_555
Na1 O9 2.464613 1_545
Na2 O17 2.304447 1_555
Na2 O21 2.304447 1_554
Na2 O7 2.441233 1_565
Na2 O3 2.441233 1_555
Na2 O14 2.464613 1_655
Na2 O10 2.464613 1_555
Na3 O16 2.304447 1_555
Na3 O20 2.304447 1_554
Na3 O6 2.441233 1_545
Na3 O2 2.441233 1_555
Na3 O11 2.464613 1_555
Na3 O15 2.464613 1_455
O0 O15 1.336075 1_456
O0 Sb0 2.428916 1_555
O1 O14 1.336075 1_656
O1 Sb1 2.428916 1_555
O2 Sb2 2.428916 1_555
O3 Sb3 2.428916 1_555
O4 Sb0 2.428916 1_555
O5 Sb1 2.428916 1_555
O6 O8 1.336075 1_564
O6 Sb2 2.428916 1_555
O7 O9 1.336075 1_544
O7 Sb3 2.428916 1_555
O8 Sb0 2.409228 1_555
O9 Sb1 2.409228 1_555
O10 O5 1.336075 1_555
O10 Sb2 2.409228 1_555
O11 O4 1.336075 1_555
O11 Sb3 2.409228 1_555
O12 O2 1.336075 1_555
O12 Sb0 2.409228 1_555
O13 O3 1.336075 1_555
O13 Sb1 2.409228 1_555
O14 Sb2 2.409228 1_555
O15 Sb3 2.409228 1_555
O16 Sb0 1.832868 1_555
O17 Sb1 1.832868 1_555
O18 Sb2 1.832868 1_555
O19 Sb3 1.832868 1_555
O20 Sb0 1.832868 1_555
O21 Sb1 1.832868 1_555
O22 Sb2 1.832868 1_555
O23 Sb3 1.832868 1_555
