# generated using pymatgen
data_CaVF6
_symmetry_space_group_name_H-M   'P 1'
_cell_length_a   5.70435428
_cell_length_b   5.70435440
_cell_length_c   5.70435585
_cell_angle_alpha   54.78348025
_cell_angle_beta   54.78350625
_cell_angle_gamma   54.78349711
_symmetry_Int_Tables_number   1
_chemical_formula_structural   CaVF6
_chemical_formula_sum   'Ca1 V1 F6'
_cell_volume   115.30731339
_cell_formula_units_Z   1
loop_
 _symmetry_equiv_pos_site_id
 _symmetry_equiv_pos_as_xyz
  1  'x, y, z'
loop_
 _atom_site_type_symbol
 _atom_site_label
 _atom_site_symmetry_multiplicity
 _atom_site_fract_x
 _atom_site_fract_y
 _atom_site_fract_z
 _atom_site_occupancy
  Ca  Ca0  1  0.50000000  0.50000000  0.50000000  1
  V  V0  1  0.00000000  0.00000000  -0.00000000  1
  F  F0  1  0.64738978  0.90931487  0.21981250  1
  F  F1  1  0.90931387  0.21981349  0.64738978  1
  F  F2  1  0.78018651  0.35261122  0.09068513  1
  F  F3  1  0.09068613  0.78018651  0.35261022  1
  F  F4  1  0.35261022  0.09068513  0.78018750  1
  F  F5  1  0.21981349  0.64738878  0.90931487  1
loop_
_geom_bond_atom_site_label_1
_geom_bond_atom_site_label_2
_geom_bond_distance
_geom_bond_site_symmetry_2
Ca0 F1 2.263465 1_555
Ca0 F3 2.263465 1_555
Ca0 F5 2.263467 1_555
Ca0 F2 2.263467 1_555
Ca0 F0 2.263469 1_555
Ca0 F4 2.263469 1_555
F0 V0 1.851692 1_665
F1 V0 1.851694 1_656
F2 V0 1.851696 1_655
F3 V0 1.851694 1_565
F4 V0 1.851692 1_556
F5 V0 1.851696 1_566
