# generated using pymatgen
data_GdAs2Au
_symmetry_space_group_name_H-M   'P 1'
_cell_length_a   4.04655659
_cell_length_b   4.04655659
_cell_length_c   20.50421900
_cell_angle_alpha   90.00000000
_cell_angle_beta   90.00000000
_cell_angle_gamma   90.13890690
_symmetry_Int_Tables_number   1
_chemical_formula_structural   GdAs2Au
_chemical_formula_sum   'Gd4 As8 Au4'
_cell_volume   335.74781195
_cell_formula_units_Z   4
loop_
 _symmetry_equiv_pos_site_id
 _symmetry_equiv_pos_as_xyz
  1  'x, y, z'
loop_
 _atom_site_type_symbol
 _atom_site_label
 _atom_site_symmetry_multiplicity
 _atom_site_fract_x
 _atom_site_fract_y
 _atom_site_fract_z
 _atom_site_occupancy
  Gd  Gd0  1  0.26279300  0.26279300  0.38276900  1
  Gd  Gd1  1  0.73720700  0.73720700  0.61723100  1
  Gd  Gd2  1  0.76279300  0.76279300  0.11723100  1
  Gd  Gd3  1  0.23720700  0.23720700  0.88276900  1
  As  As0  1  0.76303200  0.76303200  0.34532100  1
  As  As1  1  0.23696800  0.23696800  0.65467900  1
  As  As2  1  0.26303200  0.26303200  0.15467900  1
  As  As3  1  0.73696800  0.73696800  0.84532100  1
  As  As4  1  0.22725100  0.77274900  0.50000000  1
  As  As5  1  0.27274900  0.72725100  0.00000000  1
  As  As6  1  0.77274900  0.22725100  0.50000000  1
  As  As7  1  0.72725100  0.27274900  0.00000000  1
  Au  Au0  1  0.26590000  0.76590000  0.25000000  1
  Au  Au1  1  0.23410000  0.73410000  0.75000000  1
  Au  Au2  1  0.73410000  0.23410000  0.75000000  1
  Au  Au3  1  0.76590000  0.26590000  0.25000000  1
loop_
_geom_bond_atom_site_label_1
_geom_bond_atom_site_label_2
_geom_bond_distance
_geom_bond_site_symmetry_2
As0 Au3 2.804831 1_555
As0 Au0 2.804831 1_555
As0 Au3 2.821485 1_565
As0 Au0 2.821485 1_655
As0 Gd0 2.957911 1_665
As0 Gd0 2.960549 1_555
As0 Gd0 2.965930 1_655
As0 Gd0 2.965930 1_565
As1 Au1 2.804831 1_555
As1 Au2 2.804831 1_555
As1 Au1 2.821485 1_545
As1 Au2 2.821485 1_455
As1 Gd1 2.957911 1_445
As1 Gd1 2.960549 1_555
As1 Gd1 2.965930 1_545
As1 Gd1 2.965930 1_455
As2 Au3 2.804831 1_455
As2 Au0 2.804831 1_545
As2 Au0 2.821485 1_555
As2 Au3 2.821485 1_555
As2 Gd2 2.957911 1_555
As2 Gd2 2.960549 1_445
As2 Gd2 2.965930 1_455
As2 Gd2 2.965930 1_545
As3 Au1 2.804831 1_655
As3 Au2 2.804831 1_565
As3 Au1 2.821485 1_555
As3 Au2 2.821485 1_555
As3 Gd3 2.957911 1_555
As3 Gd3 2.960549 1_665
As3 Gd3 2.965930 1_565
As3 Gd3 2.965930 1_655
As4 As6 2.604127 1_465
As4 As6 2.869742 1_455
As4 As6 2.869742 1_565
As4 Gd0 3.119210 1_565
As4 Gd1 3.119210 1_455
As4 Gd1 3.171490 1_555
As4 Gd0 3.171490 1_555
As5 As7 2.604127 1_555
As5 As7 2.869742 1_455
As5 As7 2.869742 1_565
As5 Gd3 3.119210 1_554
As5 Gd2 3.119210 1_555
As5 Gd3 3.171490 1_564
As5 Gd2 3.171490 1_455
As6 Gd1 3.119210 1_545
As6 Gd0 3.119210 1_655
As6 Gd1 3.171490 1_555
As6 Gd0 3.171490 1_555
As7 Gd3 3.119210 1_554
As7 Gd2 3.119210 1_555
As7 Gd3 3.171490 1_654
As7 Gd2 3.171490 1_545
Au0 Au3 2.857877 1_455
Au0 Au3 2.857877 1_565
Au0 Au3 2.864814 1_465
Au0 Au3 2.864814 1_555
Au0 Gd2 3.384416 1_555
Au0 Gd0 3.384416 1_565
Au0 Gd2 3.399379 1_455
Au0 Gd0 3.399379 1_555
Au1 Au2 2.857877 1_565
Au1 Au2 2.857877 1_455
Au1 Au2 2.864814 1_555
Au1 Au2 2.864814 1_465
Au1 Gd1 3.384416 1_455
Au1 Gd3 3.384416 1_555
Au1 Gd3 3.399379 1_565
Au1 Gd1 3.399379 1_555
Au2 Gd1 3.384416 1_545
Au2 Gd3 3.384416 1_555
Au2 Gd3 3.399379 1_655
Au2 Gd1 3.399379 1_555
Au3 Gd0 3.384416 1_655
Au3 Gd2 3.384416 1_555
Au3 Gd2 3.399379 1_545
Au3 Gd0 3.399379 1_555
