# generated using pymatgen
data_H30Ru2Pt(NCl)10
_symmetry_space_group_name_H-M   'P 1'
_cell_length_a   7.32796101
_cell_length_b   7.32796101
_cell_length_c   13.40568137
_cell_angle_alpha   82.62130266
_cell_angle_beta   82.62130266
_cell_angle_gamma   70.11970416
_symmetry_Int_Tables_number   1
_chemical_formula_structural   H30Ru2Pt(NCl)10
_chemical_formula_sum   'H30 Ru2 Pt1 N10 Cl10'
_cell_volume   668.58707689
_cell_formula_units_Z   1
loop_
 _symmetry_equiv_pos_site_id
 _symmetry_equiv_pos_as_xyz
  1  'x, y, z'
loop_
 _atom_site_type_symbol
 _atom_site_label
 _atom_site_symmetry_multiplicity
 _atom_site_fract_x
 _atom_site_fract_y
 _atom_site_fract_z
 _atom_site_occupancy
  H  H0  1  0.45266600  0.02981500  0.75560500  1
  H  H1  1  0.54733400  0.97018500  0.24439500  1
  H  H2  1  0.97018500  0.54733400  0.24439500  1
  H  H3  1  0.02981500  0.45266600  0.75560500  1
  H  H4  1  0.38543600  0.95097900  0.60738000  1
  H  H5  1  0.61456400  0.04902100  0.39262000  1
  H  H6  1  0.04902100  0.61456400  0.39262000  1
  H  H7  1  0.95097900  0.38543600  0.60738000  1
  H  H8  1  0.59521100  0.40077400  0.83609200  1
  H  H9  1  0.40478900  0.59922600  0.16390800  1
  H  H10  1  0.59922600  0.40478900  0.16390800  1
  H  H11  1  0.40077400  0.59521100  0.83609200  1
  H  H12  1  0.47799300  0.88223100  0.86041500  1
  H  H13  1  0.52200700  0.11776900  0.13958500  1
  H  H14  1  0.11776900  0.52200700  0.13958500  1
  H  H15  1  0.88223100  0.47799300  0.86041500  1
  H  H16  1  0.65742600  0.95947000  0.81014600  1
  H  H17  1  0.34257400  0.04053000  0.18985400  1
  H  H18  1  0.04053000  0.34257400  0.18985400  1
  H  H19  1  0.95947000  0.65742600  0.81014600  1
  H  H20  1  0.32180200  0.75299800  0.62774700  1
  H  H21  1  0.67819800  0.24700200  0.37225300  1
  H  H22  1  0.24700200  0.67819800  0.37225300  1
  H  H23  1  0.75299800  0.32180200  0.62774700  1
  H  H24  1  0.45015200  0.45015200  0.74308500  1
  H  H25  1  0.54984800  0.54984800  0.25691500  1
  H  H26  1  0.48329700  0.77294600  0.53309700  1
  H  H27  1  0.51670300  0.22705400  0.46690300  1
  H  H28  1  0.22705400  0.51670300  0.46690300  1
  H  H29  1  0.77294600  0.48329700  0.53309700  1
  Ru  Ru0  1  0.67486200  0.67486200  0.70035700  1
  Ru  Ru1  1  0.32513800  0.32513800  0.29964400  1
  Pt  Pt0  1  0.00000000  0.00000000  0.00000000  1
  N  N0  1  0.54962100  0.91197300  0.79249000  1
  N  N1  1  0.45037900  0.08802700  0.20751000  1
  N  N2  1  0.08802700  0.45037900  0.20751000  1
  N  N3  1  0.91197300  0.54962100  0.79249000  1
  N  N4  1  0.51221200  0.51221200  0.78931700  1
  N  N5  1  0.48778800  0.48778800  0.21068300  1
  N  N6  1  0.43810700  0.80189600  0.60736900  1
  N  N7  1  0.56189300  0.19810400  0.39263100  1
  N  N8  1  0.19810400  0.56189300  0.39263100  1
  N  N9  1  0.80189600  0.43810700  0.60736900  1
  Cl  Cl0  1  0.99878200  0.99878200  0.82436100  1
  Cl  Cl1  1  0.00121800  0.00121800  0.17563900  1
  Cl  Cl2  1  0.14837300  0.14837300  0.39974800  1
  Cl  Cl3  1  0.85162700  0.85162700  0.60025200  1
  Cl  Cl4  1  0.19847000  0.19847000  0.97466400  1
  Cl  Cl5  1  0.80153000  0.80153000  0.02533600  1
  Cl  Cl6  1  0.27747900  0.72252100  0.00000000  1
  Cl  Cl7  1  0.72252100  0.27747900  0.00000000  1
  Cl  Cl8  1  0.33052500  0.33052500  0.62904100  1
  Cl  Cl9  1  0.66947500  0.66947500  0.37095900  1
loop_
_geom_bond_atom_site_label_1
_geom_bond_atom_site_label_2
_geom_bond_distance
_geom_bond_site_symmetry_2
H0 N0 1.028727 1_545
H1 N1 1.028727 1_565
H2 N2 1.028727 1_655
H3 N3 1.028727 1_455
H4 N6 1.027483 1_555
H5 N7 1.027483 1_555
H6 N8 1.027483 1_555
H7 N9 1.027483 1_555
H8 N4 1.028890 1_555
H9 N5 1.028890 1_555
H10 N5 1.028890 1_555
H11 N4 1.028890 1_555
H12 N0 1.027731 1_555
H13 N1 1.027731 1_555
H14 N2 1.027731 1_555
H15 N3 1.027731 1_555
H16 N0 1.028320 1_555
H17 N1 1.028320 1_555
H18 N2 1.028320 1_555
H19 N3 1.028320 1_555
H20 N6 1.025747 1_555
H21 N7 1.025747 1_555
H22 N8 1.025747 1_555
H23 N9 1.025747 1_555
H24 N4 1.040772 1_555
H25 N5 1.040772 1_555
H26 N6 1.033346 1_555
H27 N7 1.033346 1_555
H28 N8 1.033346 1_555
H29 N9 1.033346 1_555
N0 Ru0 2.135965 1_555
N1 Ru1 2.135973 1_555
N2 Ru1 2.135973 1_555
N3 Ru0 2.135965 1_555
N4 Ru0 2.121184 1_555
N5 Ru1 2.121189 1_555
N6 Ru0 2.142316 1_555
N7 Ru1 2.142308 1_555
N8 Ru1 2.142308 1_555
N9 Ru0 2.142316 1_555
Cl0 Pt0 2.356897 1_666
Cl1 Pt0 2.356897 1_555
Cl2 Ru1 2.324818 1_555
Cl3 Ru0 2.324824 1_555
Cl4 Pt0 2.351730 1_556
Cl5 Pt0 2.351730 1_665
Cl6 Pt0 2.336048 1_565
Cl7 Pt0 2.336048 1_655
