# generated using pymatgen
data_Rb2MnP2H3(O4F)2
_symmetry_space_group_name_H-M   'P 1'
_cell_length_a   8.10560500
_cell_length_b   7.52465200
_cell_length_c   8.64414198
_cell_angle_alpha   65.09763488
_cell_angle_beta   90.00000000
_cell_angle_gamma   90.00000000
_symmetry_Int_Tables_number   1
_chemical_formula_structural   Rb2MnP2H3(O4F)2
_chemical_formula_sum   'Rb4 Mn2 P4 H6 O16 F4'
_cell_volume   478.20464109
_cell_formula_units_Z   2
loop_
 _symmetry_equiv_pos_site_id
 _symmetry_equiv_pos_as_xyz
  1  'x, y, z'
loop_
 _atom_site_type_symbol
 _atom_site_label
 _atom_site_symmetry_multiplicity
 _atom_site_fract_x
 _atom_site_fract_y
 _atom_site_fract_z
 _atom_site_occupancy
  Rb  Rb0  1  0.66624600  0.86307700  0.43984600  1
  Rb  Rb1  1  0.16624600  0.13692300  0.56015400  1
  Rb  Rb2  1  0.33832100  0.13095600  0.05456000  1
  Rb  Rb3  1  0.83832100  0.86904400  0.94544000  1
  Mn  Mn0  1  0.49766800  0.49940200  0.25294300  1
  Mn  Mn1  1  0.99766800  0.50059800  0.74705700  1
  P  P0  1  0.86130600  0.32526500  0.13301800  1
  P  P1  1  0.36130600  0.67473500  0.86698200  1
  P  P2  1  0.13269500  0.68817700  0.36039600  1
  P  P3  1  0.63269500  0.31182300  0.63960400  1
  H  H0  1  0.71510000  0.28652000  0.93794400  1
  H  H1  1  0.21510000  0.71348000  0.06205600  1
  H  H2  1  0.28810100  0.71090900  0.55627000  1
  H  H3  1  0.78810100  0.28909100  0.44373000  1
  H  H4  1  0.99781400  0.02593800  0.24869500  1
  H  H5  1  0.49781400  0.97406200  0.75130500  1
  O  O0  1  0.73549900  0.20897300  0.06765600  1
  O  O1  1  0.23549900  0.79102700  0.93234400  1
  O  O2  1  0.26486100  0.79498700  0.43143900  1
  O  O3  1  0.76486100  0.20501300  0.56856100  1
  O  O4  1  0.54774400  0.47495800  0.48310600  1
  O  O5  1  0.04774400  0.52504200  0.51689400  1
  O  O6  1  0.45066500  0.51939900  0.02286500  1
  O  O7  1  0.95066500  0.48060100  0.97713500  1
  O  O8  1  0.98229300  0.16665200  0.25665300  1
  O  O9  1  0.48229300  0.83334800  0.74334700  1
  O  O10  1  0.01561600  0.84919700  0.24457100  1
  O  O11  1  0.51561600  0.15080300  0.75542900  1
  O  O12  1  0.77482000  0.42162300  0.23510400  1
  O  O13  1  0.27482000  0.57837700  0.76489600  1
  O  O14  1  0.22270800  0.59289700  0.25715100  1
  O  O15  1  0.72270800  0.40710300  0.74284900  1
  F  F0  1  0.55320400  0.76718800  0.16563200  1
  F  F1  1  0.05320400  0.23281200  0.83436800  1
  F  F2  1  0.44433800  0.23179100  0.33709300  1
  F  F3  1  0.94433800  0.76820900  0.66290700  1
loop_
_geom_bond_atom_site_label_1
_geom_bond_atom_site_label_2
_geom_bond_distance
_geom_bond_site_symmetry_2
Mn0 O4 1.961825 1_555
Mn0 O6 1.967538 1_555
Mn0 O14 2.342006 1_555
Mn0 O12 2.342862 1_555
Mn1 O5 1.961825 1_655
Mn1 O7 1.967538 1_555
Mn1 O15 2.342006 1_555
Mn1 O13 2.342862 1_655
H0 O0 1.036359 1_556
H0 O15 1.543532 1_555
H1 O1 1.036359 1_554
H1 O14 1.543532 1_555
H2 O2 1.012518 1_555
H2 O13 1.656436 1_555
H3 O3 1.012518 1_555
H3 O12 1.656436 1_555
H4 O8 1.096817 1_555
H4 O10 1.353030 1_645
H5 O9 1.096817 1_555
H5 O11 1.353030 1_565
O0 P0 1.594109 1_555
O1 P1 1.594109 1_555
O2 P2 1.608221 1_555
O3 P3 1.608221 1_555
O4 P3 1.553241 1_555
O4 Rb0 2.944799 1_555
O5 P2 1.553241 1_555
O5 Rb1 2.944799 1_555
O6 P1 1.542771 1_554
O6 Rb2 2.961963 1_555
O7 P0 1.542771 1_556
O7 Rb3 2.961963 1_555
O8 P0 1.566576 1_555
O8 Rb1 2.943097 1_655
O9 P1 1.566576 1_555
O9 Rb0 2.943097 1_555
O10 P2 1.532788 1_555
O10 Rb3 2.906598 1_454
O11 P3 1.532788 1_555
O11 Rb2 2.906598 1_556
O12 P0 1.527967 1_555
O13 P1 1.527967 1_555
O14 P2 1.543272 1_555
O15 P3 1.543272 1_555
F0 Mn0 1.884608 1_555
F0 Rb3 2.884899 1_554
F0 Rb0 2.901552 1_555
F0 Rb2 3.038872 1_565
F1 Mn1 1.884608 1_455
F1 Rb2 2.884899 1_556
F1 Rb1 2.901552 1_555
F1 Rb3 3.038872 1_445
F2 Mn0 1.880782 1_555
F2 Rb1 2.854691 1_555
F2 Rb2 2.973097 1_555
F2 Rb0 3.105879 1_545
F3 Mn1 1.880782 1_555
F3 Rb0 2.854691 1_555
F3 Rb3 2.973097 1_555
F3 Rb1 3.105879 1_665
