# generated using pymatgen
data_ReH12C3S3(NCl)6
_symmetry_space_group_name_H-M   'P 1'
_cell_length_a   11.36246300
_cell_length_b   16.10165609
_cell_length_c   20.51387606
_cell_angle_alpha   90.00000000
_cell_angle_beta   90.00000000
_cell_angle_gamma   90.00000000
_symmetry_Int_Tables_number   1
_chemical_formula_structural   ReH12C3S3(NCl)6
_chemical_formula_sum   'Re8 H96 C24 S24 N48 Cl48'
_cell_volume   3753.10535423
_cell_formula_units_Z   8
loop_
 _symmetry_equiv_pos_site_id
 _symmetry_equiv_pos_as_xyz
  1  'x, y, z'
loop_
 _atom_site_type_symbol
 _atom_site_label
 _atom_site_symmetry_multiplicity
 _atom_site_fract_x
 _atom_site_fract_y
 _atom_site_fract_z
 _atom_site_occupancy
  Re  Re0  1  0.69734063  0.15841237  0.38619482  1
  Re  Re1  1  0.19734063  0.34158763  0.61380518  1
  Re  Re2  1  0.30265937  0.65841237  0.11380518  1
  Re  Re3  1  0.80265937  0.84158763  0.88619482  1
  Re  Re4  1  0.30265937  0.84158763  0.61380518  1
  Re  Re5  1  0.80265937  0.65841237  0.38619482  1
  Re  Re6  1  0.69734063  0.34158763  0.88619482  1
  Re  Re7  1  0.19734063  0.15841237  0.11380518  1
  H  H0  1  0.56073862  0.38932106  0.29635157  1
  H  H1  1  0.06073862  0.11067894  0.70364843  1
  H  H2  1  0.43926138  0.88932106  0.20364843  1
  H  H3  1  0.93926138  0.61067894  0.79635157  1
  H  H4  1  0.43926138  0.61067894  0.70364843  1
  H  H5  1  0.93926138  0.88932106  0.29635157  1
  H  H6  1  0.56073862  0.11067894  0.79635157  1
  H  H7  1  0.06073862  0.38932106  0.20364843  1
  H  H8  1  0.66386475  0.32242171  0.25900955  1
  H  H9  1  0.16386475  0.17757829  0.74099045  1
  H  H10  1  0.33613525  0.82242171  0.24099045  1
  H  H11  1  0.83613525  0.67757829  0.75900955  1
  H  H12  1  0.33613525  0.67757829  0.74099045  1
  H  H13  1  0.83613525  0.82242171  0.25900955  1
  H  H14  1  0.66386475  0.17757829  0.75900955  1
  H  H15  1  0.16386475  0.32242171  0.24099045  1
  H  H16  1  0.44089212  0.47246653  0.23661482  1
  H  H17  1  0.94089212  0.02753347  0.76338518  1
  H  H18  1  0.55910788  0.97246653  0.26338518  1
  H  H19  1  0.05910788  0.52753347  0.73661482  1
  H  H20  1  0.55910788  0.52753347  0.76338518  1
  H  H21  1  0.05910788  0.97246653  0.23661482  1
  H  H22  1  0.44089212  0.02753347  0.73661482  1
  H  H23  1  0.94089212  0.47246653  0.26338518  1
  H  H24  1  0.45008732  0.47453050  0.15060004  1
  H  H25  1  0.95008732  0.02546950  0.84939996  1
  H  H26  1  0.54991268  0.97453050  0.34939996  1
  H  H27  1  0.04991268  0.52546950  0.65060004  1
  H  H28  1  0.54991268  0.52546950  0.84939996  1
  H  H29  1  0.04991268  0.97453050  0.15060004  1
  H  H30  1  0.45008732  0.02546950  0.65060004  1
  H  H31  1  0.95008732  0.47453050  0.34939996  1
  H  H32  1  0.55215059  0.10480346  0.13359770  1
  H  H33  1  0.05215059  0.39519654  0.86640230  1
  H  H34  1  0.44784941  0.60480346  0.36640230  1
  H  H35  1  0.94784941  0.89519654  0.63359770  1
  H  H36  1  0.44784941  0.89519654  0.86640230  1
  H  H37  1  0.94784941  0.60480346  0.13359770  1
  H  H38  1  0.55215059  0.39519654  0.63359770  1
  H  H39  1  0.05215059  0.10480346  0.36640230  1
  H  H40  1  0.52418371  0.21133070  0.12000191  1
  H  H41  1  0.02418371  0.28866930  0.87999809  1
  H  H42  1  0.47581629  0.71133070  0.37999809  1
  H  H43  1  0.97581629  0.78866930  0.62000191  1
  H  H44  1  0.47581629  0.78866930  0.87999809  1
  H  H45  1  0.97581629  0.71133070  0.12000191  1
  H  H46  1  0.52418371  0.28866930  0.62000191  1
  H  H47  1  0.02418371  0.21133070  0.37999809  1
  H  H48  1  0.73765948  0.06168117  0.16230743  1
  H  H49  1  0.23765948  0.43831883  0.83769257  1
  H  H50  1  0.26234052  0.56168117  0.33769257  1
  H  H51  1  0.76234052  0.93831883  0.66230743  1
  H  H52  1  0.26234052  0.93831883  0.83769257  1
  H  H53  1  0.76234052  0.56168117  0.16230743  1
  H  H54  1  0.73765948  0.43831883  0.66230743  1
  H  H55  1  0.23765948  0.06168117  0.33769257  1
  H  H56  1  0.85444622  0.13510899  0.17155312  1
  H  H57  1  0.35444622  0.36489101  0.82844688  1
  H  H58  1  0.14555378  0.63510899  0.32844688  1
  H  H59  1  0.64555378  0.86489101  0.67155312  1
  H  H60  1  0.14555378  0.86489101  0.82844688  1
  H  H61  1  0.64555378  0.63510899  0.17155312  1
  H  H62  1  0.85444622  0.36489101  0.67155312  1
  H  H63  1  0.35444622  0.13510899  0.32844688  1
  H  H64  1  0.84274268  0.39826212  0.49303461  1
  H  H65  1  0.34274268  0.10173788  0.50696539  1
  H  H66  1  0.15725732  0.89826212  0.00696539  1
  H  H67  1  0.65725732  0.60173788  0.99303461  1
  H  H68  1  0.15725732  0.60173788  0.50696539  1
  H  H69  1  0.65725732  0.89826212  0.49303461  1
  H  H70  1  0.84274268  0.10173788  0.99303461  1
  H  H71  1  0.34274268  0.39826212  0.00696539  1
  H  H72  1  0.83070318  0.28974988  0.48761709  1
  H  H73  1  0.33070318  0.21025012  0.51238291  1
  H  H74  1  0.16929682  0.78974988  0.01238291  1
  H  H75  1  0.66929682  0.71025012  0.98761709  1
  H  H76  1  0.16929682  0.71025012  0.51238291  1
  H  H77  1  0.66929682  0.78974988  0.48761709  1
  H  H78  1  0.83070318  0.21025012  0.98761709  1
  H  H79  1  0.33070318  0.28974988  0.01238291  1
  H  H80  1  0.67279623  0.48095023  0.47072803  1
  H  H81  1  0.17279623  0.01904977  0.52927197  1
  H  H82  1  0.32720377  0.98095023  0.02927197  1
  H  H83  1  0.82720377  0.51904977  0.97072803  1
  H  H84  1  0.32720377  0.51904977  0.52927197  1
  H  H85  1  0.82720377  0.98095023  0.47072803  1
  H  H86  1  0.67279623  0.01904977  0.97072803  1
  H  H87  1  0.17279623  0.48095023  0.02927197  1
  H  H88  1  0.54578369  0.43178384  0.44281903  1
  H  H89  1  0.04578369  0.06821616  0.55718097  1
  H  H90  1  0.45421631  0.93178384  0.05718097  1
  H  H91  1  0.95421631  0.56821616  0.94281903  1
  H  H92  1  0.45421631  0.56821616  0.55718097  1
  H  H93  1  0.95421631  0.93178384  0.44281903  1
  H  H94  1  0.54578369  0.06821616  0.94281903  1
  H  H95  1  0.04578369  0.43178384  0.05718097  1
  C  C0  1  0.56108360  0.39330023  0.19813007  1
  C  C1  1  0.06108360  0.10669977  0.80186993  1
  C  C2  1  0.43891640  0.89330023  0.30186993  1
  C  C3  1  0.93891640  0.60669977  0.69813007  1
  C  C4  1  0.43891640  0.60669977  0.80186993  1
  C  C5  1  0.93891640  0.89330023  0.19813007  1
  C  C6  1  0.56108360  0.10669977  0.69813007  1
  C  C7  1  0.06108360  0.39330023  0.30186993  1
  C  C8  1  0.69261638  0.18123987  0.14525685  1
  C  C9  1  0.19261638  0.31876013  0.85474315  1
  C  C10  1  0.30738362  0.68123987  0.35474315  1
  C  C11  1  0.80738362  0.81876013  0.64525685  1
  C  C12  1  0.30738362  0.81876013  0.85474315  1
  C  C13  1  0.80738362  0.68123987  0.14525685  1
  C  C14  1  0.69261638  0.31876013  0.64525685  1
  C  C15  1  0.19261638  0.18123987  0.35474315  1
  C  C16  1  0.68112461  0.35314147  0.46447395  1
  C  C17  1  0.18112461  0.14685853  0.53552605  1
  C  C18  1  0.31887539  0.85314147  0.03552605  1
  C  C19  1  0.81887539  0.64685853  0.96447395  1
  C  C20  1  0.31887539  0.64685853  0.53552605  1
  C  C21  1  0.81887539  0.85314147  0.46447395  1
  C  C22  1  0.68112461  0.14685853  0.96447395  1
  C  C23  1  0.18112461  0.35314147  0.03552605  1
  S  S0  1  0.61530163  0.35712856  0.12149440  1
  S  S1  1  0.11530163  0.14287144  0.87850560  1
  S  S2  1  0.38469837  0.85712856  0.37850560  1
  S  S3  1  0.88469837  0.64287144  0.62149440  1
  S  S4  1  0.38469837  0.64287144  0.87850560  1
  S  S5  1  0.88469837  0.85712856  0.12149440  1
  S  S6  1  0.61530163  0.14287144  0.62149440  1
  S  S7  1  0.11530163  0.35712856  0.37850560  1
  S  S8  1  0.75415681  0.28360389  0.14486208  1
  S  S9  1  0.25415681  0.21639611  0.85513792  1
  S  S10  1  0.24584319  0.78360389  0.35513792  1
  S  S11  1  0.74584319  0.71639611  0.64486208  1
  S  S12  1  0.24584319  0.71639611  0.85513792  1
  S  S13  1  0.74584319  0.78360389  0.14486208  1
  S  S14  1  0.75415681  0.21639611  0.64486208  1
  S  S15  1  0.25415681  0.28360389  0.35513792  1
  S  S16  1  0.59389782  0.26728705  0.44592222  1
  S  S17  1  0.09389782  0.23271295  0.55407778  1
  S  S18  1  0.40610218  0.76728705  0.05407778  1
  S  S19  1  0.90610218  0.73271295  0.94592222  1
  S  S20  1  0.40610218  0.73271295  0.55407778  1
  S  S21  1  0.90610218  0.76728705  0.44592222  1
  S  S22  1  0.59389782  0.23271295  0.94592222  1
  S  S23  1  0.09389782  0.26728705  0.05407778  1
  N  N0  1  0.59960831  0.36633559  0.25477495  1
  N  N1  1  0.09960831  0.13366441  0.74522505  1
  N  N2  1  0.40039169  0.86633559  0.24522505  1
  N  N3  1  0.90039169  0.63366441  0.75477495  1
  N  N4  1  0.40039169  0.63366441  0.74522505  1
  N  N5  1  0.90039169  0.86633559  0.25477495  1
  N  N6  1  0.59960831  0.13366441  0.75477495  1
  N  N7  1  0.09960831  0.36633559  0.24522505  1
  N  N8  1  0.47802445  0.45053769  0.19411179  1
  N  N9  1  0.97802445  0.04946231  0.80588821  1
  N  N10  1  0.52197555  0.95053769  0.30588821  1
  N  N11  1  0.02197555  0.54946231  0.69411179  1
  N  N12  1  0.52197555  0.54946231  0.80588821  1
  N  N13  1  0.02197555  0.95053769  0.19411179  1
  N  N14  1  0.47802445  0.04946231  0.69411179  1
  N  N15  1  0.97802445  0.45053769  0.30588821  1
  N  N16  1  0.58223522  0.16514228  0.13074662  1
  N  N17  1  0.08223522  0.33485772  0.86925338  1
  N  N18  1  0.41776478  0.66514228  0.36925338  1
  N  N19  1  0.91776478  0.83485772  0.63074662  1
  N  N20  1  0.41776478  0.83485772  0.86925338  1
  N  N21  1  0.91776478  0.66514228  0.13074662  1
  N  N22  1  0.58223522  0.33485772  0.63074662  1
  N  N23  1  0.08223522  0.16514228  0.36925338  1
  N  N24  1  0.76882526  0.12191290  0.15971720  1
  N  N25  1  0.26882526  0.37808710  0.84028280  1
  N  N26  1  0.23117474  0.62191290  0.34028280  1
  N  N27  1  0.73117474  0.87808710  0.65971720  1
  N  N28  1  0.23117474  0.87808710  0.84028280  1
  N  N29  1  0.73117474  0.62191290  0.15971720  1
  N  N30  1  0.76882526  0.37808710  0.65971720  1
  N  N31  1  0.26882526  0.12191290  0.34028280  1
  N  N32  1  0.79272261  0.34696610  0.48346348  1
  N  N33  1  0.29272261  0.15303390  0.51653652  1
  N  N34  1  0.20727739  0.84696610  0.01653652  1
  N  N35  1  0.70727739  0.65303390  0.98346348  1
  N  N36  1  0.20727739  0.65303390  0.51653652  1
  N  N37  1  0.70727739  0.84696610  0.48346348  1
  N  N38  1  0.79272261  0.15303390  0.98346348  1
  N  N39  1  0.29272261  0.34696610  0.01653652  1
  N  N40  1  0.62836448  0.42688630  0.46218595  1
  N  N41  1  0.12836448  0.07311370  0.53781405  1
  N  N42  1  0.37163552  0.92688630  0.03781405  1
  N  N43  1  0.87163552  0.57311370  0.96218595  1
  N  N44  1  0.37163552  0.57311370  0.53781405  1
  N  N45  1  0.87163552  0.92688630  0.46218595  1
  N  N46  1  0.62836448  0.07311370  0.96218595  1
  N  N47  1  0.12836448  0.42688630  0.03781405  1
  Cl  Cl0  1  0.54946604  0.16864123  0.30406928  1
  Cl  Cl1  1  0.04946604  0.33135877  0.69593072  1
  Cl  Cl2  1  0.45053396  0.66864123  0.19593072  1
  Cl  Cl3  1  0.95053396  0.83135877  0.80406928  1
  Cl  Cl4  1  0.45053396  0.83135877  0.69593072  1
  Cl  Cl5  1  0.95053396  0.66864123  0.30406928  1
  Cl  Cl6  1  0.54946604  0.33135877  0.80406928  1
  Cl  Cl7  1  0.04946604  0.16864123  0.19593072  1
  Cl  Cl8  1  0.81486003  0.25690804  0.33096604  1
  Cl  Cl9  1  0.31486003  0.24309196  0.66903396  1
  Cl  Cl10  1  0.18513997  0.75690804  0.16903396  1
  Cl  Cl11  1  0.68513997  0.74309196  0.83096604  1
  Cl  Cl12  1  0.18513997  0.74309196  0.66903396  1
  Cl  Cl13  1  0.68513997  0.75690804  0.33096604  1
  Cl  Cl14  1  0.81486003  0.24309196  0.83096604  1
  Cl  Cl15  1  0.31486003  0.25690804  0.16903396  1
  Cl  Cl16  1  0.84062210  0.14415256  0.46989382  1
  Cl  Cl17  1  0.34062210  0.35584744  0.53010618  1
  Cl  Cl18  1  0.15937790  0.64415256  0.03010618  1
  Cl  Cl19  1  0.65937790  0.85584744  0.96989382  1
  Cl  Cl20  1  0.15937790  0.85584744  0.53010618  1
  Cl  Cl21  1  0.65937790  0.64415256  0.46989382  1
  Cl  Cl22  1  0.84062210  0.35584744  0.96989382  1
  Cl  Cl23  1  0.34062210  0.14415256  0.03010618  1
  Cl  Cl24  1  0.78659757  0.04979451  0.32678868  1
  Cl  Cl25  1  0.28659757  0.45020549  0.67321132  1
  Cl  Cl26  1  0.21340243  0.54979451  0.17321132  1
  Cl  Cl27  1  0.71340243  0.95020549  0.82678868  1
  Cl  Cl28  1  0.21340243  0.95020549  0.67321132  1
  Cl  Cl29  1  0.71340243  0.54979451  0.32678868  1
  Cl  Cl30  1  0.78659757  0.45020549  0.82678868  1
  Cl  Cl31  1  0.28659757  0.04979451  0.17321132  1
  Cl  Cl32  1  0.57464307  0.06064052  0.44277594  1
  Cl  Cl33  1  0.07464307  0.43935948  0.55722406  1
  Cl  Cl34  1  0.42535693  0.56064052  0.05722406  1
  Cl  Cl35  1  0.92535693  0.93935948  0.94277594  1
  Cl  Cl36  1  0.42535693  0.93935948  0.55722406  1
  Cl  Cl37  1  0.92535693  0.56064052  0.44277594  1
  Cl  Cl38  1  0.57464307  0.43935948  0.94277594  1
  Cl  Cl39  1  0.07464307  0.06064052  0.05722406  1
  Cl  Cl40  1  0.90407646  0.46369766  0.14984091  1
  Cl  Cl41  1  0.40407646  0.03630234  0.85015909  1
  Cl  Cl42  1  0.09592354  0.96369766  0.35015909  1
  Cl  Cl43  1  0.59592354  0.53630234  0.64984091  1
  Cl  Cl44  1  0.09592354  0.53630234  0.85015909  1
  Cl  Cl45  1  0.59592354  0.96369766  0.14984091  1
  Cl  Cl46  1  0.90407646  0.03630234  0.64984091  1
  Cl  Cl47  1  0.40407646  0.46369766  0.35015909  1
loop_
_geom_bond_atom_site_label_1
_geom_bond_atom_site_label_2
_geom_bond_distance
_geom_bond_site_symmetry_2
Re0 S16 2.440477 1_555
Re1 S17 2.440477 1_555
Re2 S18 2.440477 1_555
Re3 S19 2.440477 1_555
Re4 S20 2.440477 1_555
Re5 S21 2.440477 1_555
Re6 S22 2.440477 1_555
Re7 S23 2.440477 1_555
H0 N0 1.029306 1_555
H1 N1 1.029306 1_555
H2 N2 1.029306 1_555
H3 N3 1.029306 1_555
H4 N4 1.029306 1_555
H5 N5 1.029306 1_555
H6 N6 1.029306 1_555
H7 N7 1.029306 1_555
H8 N0 1.020088 1_555
H9 N1 1.020088 1_555
H10 N2 1.020088 1_555
H11 N3 1.020088 1_555
H12 N4 1.020088 1_555
H13 N5 1.020088 1_555
H14 N6 1.020088 1_555
H15 N7 1.020088 1_555
H16 N8 1.030969 1_555
H17 N9 1.030969 1_555
H18 N10 1.030969 1_555
H19 N11 1.030969 1_555
H20 N12 1.030969 1_555
H21 N13 1.030969 1_555
H22 N14 1.030969 1_555
H23 N15 1.030969 1_555
H24 N8 1.023101 1_555
H25 N9 1.023101 1_555
H26 N10 1.023101 1_555
H27 N11 1.023101 1_555
H28 N12 1.023101 1_555
H29 N13 1.023101 1_555
H30 N14 1.023101 1_555
H31 N15 1.023101 1_555
H32 N16 1.031596 1_555
H33 N17 1.031596 1_555
H34 N18 1.031596 1_555
H35 N19 1.031596 1_555
H36 N20 1.031596 1_555
H37 N21 1.031596 1_555
H38 N22 1.031596 1_555
H39 N23 1.031596 1_555
H40 N16 1.018219 1_555
H41 N17 1.018219 1_555
H42 N18 1.018219 1_555
H43 N19 1.018219 1_555
H44 N20 1.018219 1_555
H45 N21 1.018219 1_555
H46 N22 1.018219 1_555
H47 N23 1.018219 1_555
H48 N24 1.033826 1_555
H49 N25 1.033826 1_555
H50 N26 1.033826 1_555
H51 N27 1.033826 1_555
H52 N28 1.033826 1_555
H53 N29 1.033826 1_555
H54 N30 1.033826 1_555
H55 N31 1.033826 1_555
H56 N24 1.024971 1_555
H57 N25 1.024971 1_555
H58 N26 1.024971 1_555
H59 N27 1.024971 1_555
H60 N28 1.024971 1_555
H61 N29 1.024971 1_555
H62 N30 1.024971 1_555
H63 N31 1.024971 1_555
H64 N32 1.021650 1_555
H65 N33 1.021650 1_555
H66 N34 1.021650 1_555
H67 N35 1.021650 1_555
H68 N36 1.021650 1_555
H69 N37 1.021650 1_555
H70 N38 1.021650 1_555
H71 N39 1.021650 1_555
H72 N32 1.020905 1_555
H73 N33 1.020905 1_555
H74 N34 1.020905 1_555
H75 N35 1.020905 1_555
H76 N36 1.020905 1_555
H77 N37 1.020905 1_555
H78 N38 1.020905 1_555
H79 N39 1.020905 1_555
H80 N40 1.021463 1_555
H81 N41 1.021463 1_555
H82 N42 1.021463 1_555
H83 N43 1.021463 1_555
H84 N44 1.021463 1_555
H85 N45 1.021463 1_555
H86 N46 1.021463 1_555
H87 N47 1.021463 1_555
H88 N40 1.022010 1_555
H89 N41 1.022010 1_555
H90 N42 1.022010 1_555
H91 N43 1.022010 1_555
H92 N44 1.022010 1_555
H93 N45 1.022010 1_555
H94 N46 1.022010 1_555
H95 N47 1.022010 1_555
C0 N0 1.315439 1_555
C0 N8 1.321685 1_555
C0 S0 1.786118 1_555
C1 N1 1.315439 1_555
C1 N9 1.321685 1_455
C1 S1 1.786118 1_555
C2 N2 1.315439 1_555
C2 N10 1.321685 1_555
C2 S2 1.786118 1_555
C3 N3 1.315439 1_555
C3 N11 1.321685 1_655
C3 S3 1.786118 1_555
C4 N4 1.315439 1_555
C4 N12 1.321685 1_555
C4 S4 1.786118 1_555
C5 N5 1.315439 1_555
C5 N13 1.321685 1_655
C5 S5 1.786118 1_555
C6 N6 1.315439 1_555
C6 N14 1.321685 1_555
C6 S6 1.786118 1_555
C7 N7 1.315439 1_555
C7 N15 1.321685 1_455
C7 S7 1.786118 1_555
C8 N16 1.314841 1_555
C8 N24 1.323004 1_555
C8 S8 1.790441 1_555
C9 N17 1.314841 1_555
C9 N25 1.323004 1_555
C9 S9 1.790441 1_555
C10 N18 1.314841 1_555
C10 N26 1.323004 1_555
C10 S10 1.790441 1_555
C11 N19 1.314841 1_555
C11 N27 1.323004 1_555
C11 S11 1.790441 1_555
C12 N20 1.314841 1_555
C12 N28 1.323004 1_555
C12 S12 1.790441 1_555
C13 N21 1.314841 1_555
C13 N29 1.323004 1_555
C13 S13 1.790441 1_555
C14 N22 1.314841 1_555
C14 N30 1.323004 1_555
C14 S14 1.790441 1_555
C15 N23 1.314841 1_555
C15 N31 1.323004 1_555
C15 S15 1.790441 1_555
C16 N32 1.330237 1_555
C16 N40 1.330991 1_555
C16 S16 1.743031 1_555
C17 N33 1.330237 1_555
C17 N41 1.330991 1_555
C17 S17 1.743031 1_555
C18 N34 1.330237 1_555
C18 N42 1.330991 1_555
C18 S18 1.743031 1_555
C19 N35 1.330237 1_555
C19 N43 1.330991 1_555
C19 S19 1.743031 1_555
C20 N36 1.330237 1_555
C20 N44 1.330991 1_555
C20 S20 1.743031 1_555
C21 N37 1.330237 1_555
C21 N45 1.330991 1_555
C21 S21 1.743031 1_555
C22 N38 1.330237 1_555
C22 N46 1.330991 1_555
C22 S22 1.743031 1_555
C23 N39 1.330237 1_555
C23 N47 1.330991 1_555
C23 S23 1.743031 1_555
S0 S8 2.029923 1_555
S1 S9 2.029923 1_555
S10 S2 2.029923 1_555
S11 S3 2.029923 1_555
S12 S4 2.029923 1_555
S13 S5 2.029923 1_555
S14 S6 2.029923 1_555
S15 S7 2.029923 1_555
Cl0 Re0 2.385062 1_555
Cl1 Re1 2.385062 1_555
Cl2 Re2 2.385062 1_555
Cl3 Re3 2.385062 1_555
Cl4 Re4 2.385062 1_555
Cl5 Re5 2.385062 1_555
Cl6 Re6 2.385062 1_555
Cl7 Re7 2.385062 1_555
Cl8 Re0 2.362596 1_555
Cl9 Re1 2.362596 1_555
Cl10 Re2 2.362596 1_555
Cl11 Re3 2.362596 1_555
Cl12 Re4 2.362596 1_555
Cl13 Re5 2.362596 1_555
Cl14 Re6 2.362596 1_555
Cl15 Re7 2.362596 1_555
Cl16 Re0 2.377238 1_555
Cl17 Re1 2.377238 1_555
Cl18 Re2 2.377238 1_555
Cl19 Re3 2.377238 1_555
Cl20 Re4 2.377238 1_555
Cl21 Re5 2.377238 1_555
Cl22 Re6 2.377238 1_555
Cl23 Re7 2.377238 1_555
Cl24 Re0 2.360596 1_555
Cl25 Re1 2.360596 1_555
Cl26 Re2 2.360596 1_555
Cl27 Re3 2.360596 1_555
Cl28 Re4 2.360596 1_555
Cl29 Re5 2.360596 1_555
Cl30 Re6 2.360596 1_555
Cl31 Re7 2.360596 1_555
Cl32 Re0 2.401926 1_555
Cl33 Re1 2.401926 1_555
Cl34 Re2 2.401926 1_555
Cl35 Re3 2.401926 1_555
Cl36 Re4 2.401926 1_555
Cl37 Re5 2.401926 1_555
Cl38 Re6 2.401926 1_555
Cl39 Re7 2.401926 1_555
