# generated using pymatgen
data_Mg5Si6
_symmetry_space_group_name_H-M   'P 1'
_cell_length_a   5.85189000
_cell_length_b   5.90376313
_cell_length_c   12.20423593
_cell_angle_alpha   89.20254651
_cell_angle_beta   88.23733336
_cell_angle_gamma   89.15559917
_symmetry_Int_Tables_number   1
_chemical_formula_structural   Mg5Si6
_chemical_formula_sum   'Mg10 Si12'
_cell_volume   421.35052679
_cell_formula_units_Z   2
loop_
 _symmetry_equiv_pos_site_id
 _symmetry_equiv_pos_as_xyz
  1  'x, y, z'
loop_
 _atom_site_type_symbol
 _atom_site_label
 _atom_site_symmetry_multiplicity
 _atom_site_fract_x
 _atom_site_fract_y
 _atom_site_fract_z
 _atom_site_occupancy
  Mg  Mg0  1  0.85933200  0.18138600  0.03957100  1
  Mg  Mg1  1  0.32763200  0.21962700  0.46606200  1
  Mg  Mg2  1  0.04644200  0.44633200  0.65502800  1
  Mg  Mg3  1  0.06711800  0.66465700  0.39401400  1
  Mg  Mg4  1  0.09254000  0.62344100  0.11159900  1
  Mg  Mg5  1  0.77736600  0.66938000  0.86791300  1
  Mg  Mg6  1  0.81545600  0.93045100  0.62146000  1
  Mg  Mg7  1  0.57299400  0.79395500  0.38455300  1
  Mg  Mg8  1  0.59844800  0.71696200  0.11054300  1
  Mg  Mg9  1  0.25910600  0.41617000  0.89424000  1
  Si  Si0  1  0.33522500  0.84638100  0.93176200  1
  Si  Si1  1  0.38155800  0.15344600  0.06018600  1
  Si  Si2  1  0.81279700  0.27142500  0.46352300  1
  Si  Si3  1  0.60250300  0.52409100  0.58892500  1
  Si  Si4  1  0.92115300  0.12859600  0.82094500  1
  Si  Si5  1  0.89011500  0.97169000  0.24459500  1
  Si  Si6  1  0.38332100  0.44183600  0.26280300  1
  Si  Si7  1  0.57881400  0.28907000  0.74477500  1
  Si  Si8  1  0.29040400  0.00280000  0.74547100  1
  Si  Si9  1  0.29696700  0.04045300  0.24620600  1
  Si  Si10  1  0.79626700  0.36800500  0.26638800  1
  Si  Si11  1  0.29444200  0.79984700  0.57580800  1
loop_
_geom_bond_atom_site_label_1
_geom_bond_atom_site_label_2
_geom_bond_distance
_geom_bond_site_symmetry_2
Mg0 Si4 2.703247 1_554
Mg0 Si5 2.785826 1_545
Mg0 Si1 2.806532 1_555
Mg0 Si10 3.003774 1_555
Mg0 Si1 3.075871 1_655
Mg1 Si6 2.802315 1_555
Mg1 Si11 2.807008 1_545
Mg1 Si2 2.859206 1_555
Mg1 Si3 2.893999 1_555
Mg1 Si9 2.909431 1_555
Mg1 Si2 3.024816 1_455
Mg2 Si11 2.709901 1_555
Mg2 Si3 2.773812 1_455
Mg2 Si4 2.828422 1_455
Mg2 Si2 2.950160 1_455
Mg2 Si7 3.067952 1_455
Mg2 Si8 3.165342 1_555
Mg3 Si6 2.742860 1_555
Mg3 Si11 2.755219 1_555
Mg3 Si5 2.766361 1_455
Mg3 Si2 2.879839 1_455
Mg3 Si10 2.883598 1_455
Mg3 Si9 3.132520 1_565
Mg4 Si6 2.744920 1_555
Mg4 Si5 2.857898 1_455
Mg4 Si0 2.889494 1_554
Mg4 Si10 2.940235 1_455
Mg4 Si9 3.242104 1_565
Mg5 Si0 2.865753 1_555
Mg5 Si4 2.894987 1_565
Mg5 Si7 2.987954 1_555
Mg6 Si3 2.758831 1_555
Mg6 Si2 2.767798 1_565
Mg6 Si4 2.805591 1_565
Mg6 Si7 2.922193 1_565
Mg6 Si11 2.934925 1_655
Mg7 Si5 2.697206 1_555
Mg7 Si9 2.758222 1_565
Mg7 Si11 2.805876 1_555
Mg7 Si6 2.831386 1_555
Mg7 Si3 2.949064 1_555
Mg7 Si10 3.162081 1_555
Mg8 Si6 2.740150 1_555
Mg8 Si0 2.800493 1_554
Mg8 Si5 2.857827 1_555
Mg8 Si1 2.921731 1_565
Mg8 Si10 3.026203 1_555
Mg8 Si9 3.051253 1_565
Mg9 Si0 2.633874 1_555
Mg9 Si1 2.643854 1_556
Mg9 Si7 2.679075 1_555
Mg9 Si4 2.800676 1_455
Mg9 Si8 3.061933 1_555
Si0 Si1 2.436411 1_566
Si0 Si8 2.462044 1_565
Si1 Si9 2.396339 1_555
Si2 Si3 2.444451 1_555
Si3 Si7 2.340535 1_555
Si4 Si7 2.410220 1_555
Si4 Si8 2.432779 1_655
Si5 Si9 2.421826 1_665
Si6 Si9 2.442679 1_555
Si7 Si8 2.405759 1_555
Si10 Si5 2.411895 1_545
Si10 Si6 2.450791 1_555
Si10 Si2 2.469260 1_555
Si11 Si8 2.406000 1_565
Si11 Si3 2.418650 1_555
