# generated using pymatgen
data_MgMnB2O5
_symmetry_space_group_name_H-M   'P 1'
_cell_length_a   6.25472793
_cell_length_b   6.46464089
_cell_length_c   10.02072034
_cell_angle_alpha   108.42655034
_cell_angle_beta   104.30057426
_cell_angle_gamma   88.19804302
_symmetry_Int_Tables_number   1
_chemical_formula_structural   MgMnB2O5
_chemical_formula_sum   'Mg4 Mn4 B8 O20'
_cell_volume   372.01850565
_cell_formula_units_Z   4
loop_
 _symmetry_equiv_pos_site_id
 _symmetry_equiv_pos_as_xyz
  1  'x, y, z'
loop_
 _atom_site_type_symbol
 _atom_site_label
 _atom_site_symmetry_multiplicity
 _atom_site_fract_x
 _atom_site_fract_y
 _atom_site_fract_z
 _atom_site_occupancy
  Mg  Mg0  1  0.63107500  0.56697900  0.90105300  1
  Mg  Mg1  1  0.63105900  0.06685900  0.90107400  1
  Mg  Mg2  1  0.36893600  0.43317200  0.09891200  1
  Mg  Mg3  1  0.36899100  0.93314400  0.09889200  1
  Mn  Mn0  1  0.78417200  0.69042200  0.63765100  1
  Mn  Mn1  1  0.21597600  0.30929700  0.36250600  1
  Mn  Mn2  1  0.78380100  0.19066800  0.63749600  1
  Mn  Mn3  1  0.21588400  0.80905800  0.36228900  1
  B  B0  1  0.32088900  0.67009300  0.65358400  1
  B  B1  1  0.32088800  0.17010100  0.65356000  1
  B  B2  1  0.67912000  0.32993700  0.34645200  1
  B  B3  1  0.67911200  0.82989700  0.34642600  1
  B  B4  1  0.12162000  0.58200400  0.83466300  1
  B  B5  1  0.12162500  0.08201300  0.83467100  1
  B  B6  1  0.87837000  0.41800900  0.16534000  1
  B  B7  1  0.87837100  0.91799200  0.16533300  1
  O  O0  1  0.28233200  0.63326200  0.50854900  1
  O  O1  1  0.28233300  0.13329000  0.50853200  1
  O  O2  1  0.71769800  0.36677300  0.49146500  1
  O  O3  1  0.71767300  0.86675400  0.49147700  1
  O  O4  1  0.30449700  0.60559000  0.94795500  1
  O  O5  1  0.30449700  0.10559200  0.94795100  1
  O  O6  1  0.69552700  0.39445400  0.05205100  1
  O  O7  1  0.69552400  0.89444900  0.05205700  1
  O  O8  1  0.90981100  0.52272700  0.82464700  1
  O  O9  1  0.90982600  0.02273200  0.82465000  1
  O  O10  1  0.09017400  0.47730600  0.17536300  1
  O  O11  1  0.09018100  0.97728100  0.17536100  1
  O  O12  1  0.52161400  0.74399100  0.75089700  1
  O  O13  1  0.52157600  0.24399400  0.75089900  1
  O  O14  1  0.47839900  0.25607100  0.24912900  1
  O  O15  1  0.47843900  0.75604000  0.24909900  1
  O  O16  1  0.14242100  0.62237600  0.70516300  1
  O  O17  1  0.14239700  0.12239500  0.70514700  1
  O  O18  1  0.85756500  0.37764900  0.29484700  1
  O  O19  1  0.85762900  0.87762900  0.29486000  1
loop_
_geom_bond_atom_site_label_1
_geom_bond_atom_site_label_2
_geom_bond_distance
_geom_bond_site_symmetry_2
Mg0 O8 2.048696 1_555
Mg0 O6 2.105510 1_556
Mg0 O12 2.138352 1_555
Mg0 O7 2.158939 1_556
Mg0 O13 2.165053 1_555
Mg0 O4 2.196289 1_555
Mg1 O9 2.048979 1_555
Mg1 O7 2.104825 1_546
Mg1 O13 2.139115 1_555
Mg1 O6 2.159469 1_556
Mg1 O12 2.164495 1_545
Mg1 O5 2.196102 1_555
Mg2 O10 2.049096 1_555
Mg2 O4 2.104646 1_554
Mg2 O14 2.139269 1_555
Mg2 O5 2.159331 1_554
Mg2 O15 2.164590 1_555
Mg2 O6 2.196213 1_555
Mg3 O11 2.049475 1_555
Mg3 O5 2.104656 1_564
Mg3 O15 2.139192 1_555
Mg3 O4 2.159135 1_554
Mg3 O14 2.164930 1_565
Mg3 O7 2.195749 1_555
Mn0 O3 2.083924 1_555
Mn0 O2 2.124291 1_555
Mn0 O12 2.177402 1_555
Mn0 O16 2.247087 1_655
Mn0 O9 2.361750 1_565
Mn0 O8 2.409817 1_555
Mn1 O1 2.081087 1_555
Mn1 O0 2.125357 1_555
Mn1 O14 2.177591 1_555
Mn1 O18 2.248703 1_455
Mn1 O11 2.361245 1_545
Mn1 O10 2.412567 1_555
Mn2 O2 2.081599 1_555
Mn2 O3 2.124943 1_545
Mn2 O13 2.176656 1_555
Mn2 O17 2.249621 1_655
Mn2 O8 2.361679 1_555
Mn2 O9 2.412504 1_555
Mn3 O0 2.081991 1_555
Mn3 O1 2.127385 1_565
Mn3 O15 2.177124 1_555
Mn3 O19 2.247908 1_455
Mn3 O10 2.359084 1_555
Mn3 O11 2.411634 1_555
B0 O0 1.356021 1_555
B0 O12 1.376142 1_555
B0 O16 1.419798 1_555
B1 O1 1.355974 1_555
B1 O13 1.376061 1_555
B1 O17 1.419950 1_555
B2 O2 1.355790 1_555
B2 O14 1.376129 1_555
B2 O18 1.419823 1_555
B3 O3 1.356148 1_555
B3 O15 1.375911 1_555
B3 O19 1.420022 1_555
B4 O8 1.361602 1_455
B4 O4 1.371308 1_555
B4 O16 1.438289 1_555
B5 O9 1.361536 1_455
B5 O5 1.371223 1_555
B5 O17 1.438498 1_555
B6 O10 1.361591 1_655
B6 O6 1.371181 1_555
B6 O18 1.438330 1_555
B7 O11 1.361599 1_655
B7 O7 1.371130 1_555
B7 O19 1.438410 1_555
