# generated using pymatgen
data_NaEuHfTiO6
_symmetry_space_group_name_H-M   'P 1'
_cell_length_a   5.65217535
_cell_length_b   5.65217535
_cell_length_c   5.65217535
_cell_angle_alpha   60.00000000
_cell_angle_beta   60.00000000
_cell_angle_gamma   60.00000000
_symmetry_Int_Tables_number   1
_chemical_formula_structural   NaEuHfTiO6
_chemical_formula_sum   'Na1 Eu1 Hf1 Ti1 O6'
_cell_volume   127.68264855
_cell_formula_units_Z   1
loop_
 _symmetry_equiv_pos_site_id
 _symmetry_equiv_pos_as_xyz
  1  'x, y, z'
loop_
 _atom_site_type_symbol
 _atom_site_label
 _atom_site_symmetry_multiplicity
 _atom_site_fract_x
 _atom_site_fract_y
 _atom_site_fract_z
 _atom_site_occupancy
  Na  Na0  1  0.25000000  0.25000000  0.25000000  1
  Eu  Eu0  1  0.75000000  0.75000000  0.75000000  1
  Hf  Hf0  1  0.00000000  0.00000000  0.00000000  1
  Ti  Ti0  1  0.50000000  0.50000000  0.50000000  1
  O  O0  1  0.74369177  0.25630823  0.25630823  1
  O  O1  1  0.25630823  0.74369177  0.74369177  1
  O  O2  1  0.74369177  0.25630823  0.74369177  1
  O  O3  1  0.25630823  0.74369177  0.25630823  1
  O  O4  1  0.74369177  0.74369177  0.25630823  1
  O  O5  1  0.25630823  0.25630823  0.74369177  1
loop_
_geom_bond_atom_site_label_1
_geom_bond_atom_site_label_2
_geom_bond_distance
_geom_bond_site_symmetry_2
Na0 O1 2.826537 1_545
Na0 O0 2.826537 1_555
Na0 O1 2.826537 1_554
Na0 O3 2.826537 1_545
Na0 O2 2.826537 1_455
Na0 O2 2.826537 1_554
Na0 O5 2.826537 1_555
Na0 O5 2.826537 1_554
Na0 O0 2.826537 1_455
Na0 O4 2.826537 1_545
Na0 O3 2.826537 1_555
Na0 O4 2.826537 1_455
Eu0 O1 2.826537 1_555
Eu0 O0 2.826537 1_565
Eu0 O2 2.826537 1_555
Eu0 O3 2.826537 1_556
Eu0 O0 2.826537 1_556
Eu0 O4 2.826537 1_555
Eu0 O5 2.826537 1_565
Eu0 O2 2.826537 1_565
Eu0 O4 2.826537 1_556
Eu0 O3 2.826537 1_655
Eu0 O1 2.826537 1_655
Eu0 O5 2.826537 1_655
Hf0 O4 2.048770 1_445
Hf0 O1 2.048770 1_544
Hf0 O5 2.048770 1_554
Hf0 O0 2.048770 1_455
Hf0 O3 2.048770 1_545
Hf0 O2 2.048770 1_454
O0 Ti0 1.947922 1_555
O1 Ti0 1.947922 1_555
O2 Ti0 1.947922 1_555
O3 Ti0 1.947922 1_555
O4 Ti0 1.947922 1_555
O5 Ti0 1.947922 1_555
