# generated using pymatgen
data_Na11B21(BrO18)2
_symmetry_space_group_name_H-M   'P 1'
_cell_length_a   9.04583086
_cell_length_b   9.14925268
_cell_length_c   24.40478295
_cell_angle_alpha   99.50364808
_cell_angle_beta   90.00000000
_cell_angle_gamma   119.62677070
_symmetry_Int_Tables_number   1
_chemical_formula_structural   Na11B21(BrO18)2
_chemical_formula_sum   'Na22 B42 Br4 O72'
_cell_volume   1723.77922480
_cell_formula_units_Z   2
loop_
 _symmetry_equiv_pos_site_id
 _symmetry_equiv_pos_as_xyz
  1  'x, y, z'
loop_
 _atom_site_type_symbol
 _atom_site_label
 _atom_site_symmetry_multiplicity
 _atom_site_fract_x
 _atom_site_fract_y
 _atom_site_fract_z
 _atom_site_occupancy
  Na  Na0  1  0.27713365  0.30490346  0.84246061  1
  Na  Na1  1  0.97223019  0.69509654  0.65753939  1
  Na  Na2  1  0.72286635  0.69509654  0.15753939  1
  Na  Na3  1  0.02776981  0.30490346  0.34246061  1
  Na  Na4  1  0.01024525  0.78308463  0.84305077  1
  Na  Na5  1  0.22716062  0.21691537  0.65694923  1
  Na  Na6  1  0.98975475  0.21691537  0.15694923  1
  Na  Na7  1  0.77283938  0.78308463  0.34305077  1
  Na  Na8  1  0.32708343  0.84725796  0.00409708  1
  Na  Na9  1  0.47982548  0.15274204  0.49590292  1
  Na  Na10  1  0.67291657  0.15274204  0.99590292  1
  Na  Na11  1  0.52017452  0.84725796  0.50409708  1
  Na  Na12  1  0.90791243  0.79746326  0.00983540  1
  Na  Na13  1  0.11044917  0.20253674  0.49016460  1
  Na  Na14  1  0.09208757  0.20253674  0.99016460  1
  Na  Na15  1  0.88955083  0.79746326  0.50983540  1
  Na  Na16  1  0.52471301  0.04677880  0.84207272  1
  Na  Na17  1  0.47793421  0.95322120  0.65792728  1
  Na  Na18  1  0.47528699  0.95322120  0.15792728  1
  Na  Na19  1  0.52206579  0.04677880  0.34207272  1
  Na  Na20  1  0.50000000  0.50000000  0.00000000  1
  Na  Na21  1  0.00000000  0.50000000  0.50000000  1
  B  B0  1  0.88564713  0.22087681  0.89902312  1
  B  B1  1  0.66477032  0.77912319  0.60097688  1
  B  B2  1  0.11435287  0.77912319  0.10097688  1
  B  B3  1  0.33522968  0.22087681  0.39902312  1
  B  B4  1  0.68638237  0.60936368  0.90693449  1
  B  B5  1  0.07701870  0.39063632  0.59306551  1
  B  B6  1  0.31361763  0.39063632  0.09306551  1
  B  B7  1  0.92298130  0.60936368  0.40693449  1
  B  B8  1  0.13176943  0.52561573  0.92253986  1
  B  B9  1  0.60615370  0.47438427  0.57746014  1
  B  B10  1  0.86823057  0.47438427  0.07746014  1
  B  B11  1  0.39384630  0.52561573  0.42253986  1
  B  B12  1  0.44139679  0.66462952  0.89334471  1
  B  B13  1  0.77676728  0.33537048  0.60665529  1
  B  B14  1  0.55860321  0.33537048  0.10665529  1
  B  B15  1  0.22323272  0.66462952  0.39334471  1
  B  B16  1  0.84127654  0.46996519  0.93520157  1
  B  B17  1  0.37131136  0.53003481  0.56479843  1
  B  B18  1  0.15872346  0.53003481  0.06479843  1
  B  B19  1  0.62868864  0.46996519  0.43520157  1
  B  B20  1  0.08464307  0.00000000  0.75000000  1
  B  B21  1  0.91535693  0.00000000  0.25000000  1
  B  B22  1  0.25894222  0.09062435  0.08320466  1
  B  B23  1  0.16831787  0.90937565  0.41679534  1
  B  B24  1  0.74105778  0.90937565  0.91679534  1
  B  B25  1  0.83168213  0.09062435  0.58320466  1
  B  B26  1  0.24969597  0.83987076  0.75160434  1
  B  B27  1  0.40982521  0.16012924  0.74839566  1
  B  B28  1  0.75030403  0.16012924  0.24839566  1
  B  B29  1  0.59017479  0.83987076  0.25160434  1
  B  B30  1  0.65554591  0.43279267  0.80581804  1
  B  B31  1  0.22275325  0.56720733  0.69418196  1
  B  B32  1  0.34445409  0.56720733  0.19418196  1
  B  B33  1  0.77724675  0.43279267  0.30581804  1
  B  B34  1  0.87124302  0.07077813  0.79799739  1
  B  B35  1  0.80046489  0.92922187  0.70200261  1
  B  B36  1  0.12875698  0.92922187  0.20200261  1
  B  B37  1  0.19953511  0.07077813  0.29799739  1
  B  B38  1  0.67580583  0.36424089  0.70707449  1
  B  B39  1  0.31156494  0.63575911  0.79292551  1
  B  B40  1  0.32419417  0.63575911  0.29292551  1
  B  B41  1  0.68843506  0.36424089  0.20707449  1
  Br  Br0  1  0.31281238  0.08509584  0.93938843  1
  Br  Br1  1  0.22771654  0.91490416  0.56061157  1
  Br  Br2  1  0.68718762  0.91490416  0.06061157  1
  Br  Br3  1  0.77228346  0.08509584  0.43938843  1
  O  O0  1  0.75853479  0.00000000  0.75000000  1
  O  O1  1  0.24146521  0.00000000  0.25000000  1
  O  O2  1  0.29861923  0.64967360  0.92767296  1
  O  O3  1  0.64894563  0.35032640  0.57232704  1
  O  O4  1  0.70138077  0.35032640  0.07232704  1
  O  O5  1  0.35105437  0.64967360  0.42767296  1
  O  O6  1  0.73608102  0.53568847  0.95053071  1
  O  O7  1  0.20039255  0.46431153  0.54946929  1
  O  O8  1  0.26391898  0.46431153  0.04946929  1
  O  O9  1  0.79960745  0.53568847  0.45053071  1
  O  O10  1  0.73467663  0.55499512  0.85323420  1
  O  O11  1  0.17968151  0.44500488  0.64676580  1
  O  O12  1  0.26532337  0.44500488  0.14676580  1
  O  O13  1  0.82031849  0.55499512  0.35323420  1
  O  O14  1  0.82324126  0.15063289  0.84097025  1
  O  O15  1  0.67260837  0.84936711  0.65902975  1
  O  O16  1  0.17675874  0.84936711  0.15902975  1
  O  O17  1  0.32739163  0.15063289  0.34097025  1
  O  O18  1  0.40376713  0.00000000  0.75000000  1
  O  O19  1  0.59623287  0.00000000  0.25000000  1
  O  O20  1  0.51125082  0.56458767  0.91160968  1
  O  O21  1  0.94666316  0.43541233  0.58839032  1
  O  O22  1  0.48874918  0.43541233  0.08839032  1
  O  O23  1  0.05333684  0.56458767  0.41160968  1
  O  O24  1  0.50366356  0.28397180  0.80325677  1
  O  O25  1  0.21969176  0.71602820  0.69674323  1
  O  O26  1  0.49633644  0.71602820  0.19674323  1
  O  O27  1  0.78030824  0.28397180  0.30325677  1
  O  O28  1  0.09838398  0.85469117  0.75901744  1
  O  O29  1  0.24369281  0.14530883  0.74098256  1
  O  O30  1  0.90161602  0.14530883  0.24098256  1
  O  O31  1  0.75630719  0.85469117  0.25901744  1
  O  O32  1  0.21910217  0.70204686  0.07751628  1
  O  O33  1  0.51705531  0.29795314  0.42248372  1
  O  O34  1  0.78089783  0.29795314  0.92248372  1
  O  O35  1  0.48294469  0.70204686  0.57751628  1
  O  O36  1  0.01720858  0.58538664  0.93745658  1
  O  O37  1  0.43182195  0.41461336  0.56254342  1
  O  O38  1  0.98279142  0.41461336  0.06254342  1
  O  O39  1  0.56817805  0.58538664  0.43745658  1
  O  O40  1  0.80401359  0.80175628  0.92122217  1
  O  O41  1  0.00225731  0.19824372  0.57877783  1
  O  O42  1  0.19598641  0.19824372  0.07877783  1
  O  O43  1  0.99774269  0.80175628  0.42122217  1
  O  O44  1  0.42797037  0.14808702  0.09775106  1
  O  O45  1  0.27988335  0.85191298  0.40224894  1
  O  O46  1  0.57202963  0.85191298  0.90224894  1
  O  O47  1  0.72011665  0.14808702  0.59775106  1
  O  O48  1  0.01444204  0.05698443  0.80117768  1
  O  O49  1  0.95745761  0.94301557  0.69882232  1
  O  O50  1  0.98555796  0.94301557  0.19882232  1
  O  O51  1  0.04254239  0.05698443  0.30117768  1
  O  O52  1  0.07186086  0.35249479  0.90762334  1
  O  O53  1  0.71936608  0.64750521  0.59237666  1
  O  O54  1  0.92813914  0.64750521  0.09237666  1
  O  O55  1  0.28063392  0.35249479  0.40762334  1
  O  O56  1  0.27852789  0.76871621  0.80008412  1
  O  O57  1  0.50981169  0.23128379  0.69991588  1
  O  O58  1  0.72147211  0.23128379  0.19991588  1
  O  O59  1  0.49018831  0.76871621  0.30008412  1
  O  O60  1  0.74699687  0.46913769  0.75934538  1
  O  O61  1  0.27785918  0.53086231  0.74065462  1
  O  O62  1  0.25300313  0.53086231  0.24065462  1
  O  O63  1  0.72214082  0.46913769  0.25934538  1
  O  O64  1  0.14277498  0.91480729  0.06928477  1
  O  O65  1  0.22796768  0.08519271  0.43071523  1
  O  O66  1  0.85722502  0.08519271  0.93071523  1
  O  O67  1  0.77203232  0.91480729  0.56928477  1
  O  O68  1  0.37331524  0.59235011  0.83463355  1
  O  O69  1  0.78096514  0.40764989  0.66536645  1
  O  O70  1  0.62668476  0.40764989  0.16536645  1
  O  O71  1  0.21903486  0.59235011  0.33463355  1
loop_
_geom_bond_atom_site_label_1
_geom_bond_atom_site_label_2
_geom_bond_distance
_geom_bond_site_symmetry_2
Na0 O24 2.340636 1_555
Na0 O68 2.369296 1_555
Na0 O48 2.392282 1_555
Na0 O20 2.584385 1_555
Na0 O29 2.593464 1_555
Na0 O52 2.595623 1_555
Na1 O25 2.340636 1_655
Na1 O69 2.369296 1_555
Na1 O49 2.392282 1_555
Na1 O21 2.584385 1_555
Na1 O28 2.593464 1_655
Na1 O53 2.595623 1_555
Na2 O26 2.340636 1_555
Na2 O70 2.369296 1_555
Na2 O50 2.392282 1_555
Na2 O22 2.584385 1_555
Na2 O31 2.593464 1_555
Na2 O54 2.595623 1_555
Na3 O27 2.340636 1_455
Na3 O71 2.369296 1_555
Na3 O51 2.392282 1_555
Na3 O23 2.584385 1_555
Na3 O30 2.593464 1_455
Na3 O55 2.595623 1_555
Na4 O28 2.279906 1_555
Na4 O10 2.378775 1_455
Na4 O56 2.697458 1_555
Na4 O40 2.712271 1_455
Na4 O48 2.842050 1_565
Na5 O29 2.279906 1_555
Na5 O11 2.378775 1_555
Na5 O57 2.697459 1_555
Na5 O41 2.712271 1_555
Na5 O49 2.842050 1_445
Na6 O30 2.279906 1_555
Na6 O12 2.378775 1_655
Na6 O58 2.697458 1_555
Na6 O42 2.712271 1_655
Na6 O50 2.842050 1_545
Na7 O31 2.279906 1_555
Na7 O13 2.378775 1_555
Na7 O59 2.697459 1_555
Na7 O43 2.712271 1_555
Na7 O51 2.842050 1_665
Na8 O2 2.288954 1_554
Na8 O32 2.330820 1_555
Na8 O64 2.527170 1_555
Na9 O3 2.288954 1_555
Na9 O33 2.330820 1_555
Na9 O65 2.527170 1_555
Na10 O4 2.288954 1_556
Na10 O34 2.330820 1_555
Na10 O66 2.527170 1_555
Na11 O5 2.288954 1_555
Na11 O35 2.330820 1_555
Na11 O67 2.527170 1_555
Na12 O64 2.236452 1_655
Na12 O6 2.328443 1_554
Na12 O40 2.371960 1_554
Na12 O54 2.671055 1_555
Na12 O36 2.937247 1_654
Na13 O65 2.236452 1_555
Na13 O7 2.328443 1_555
Na13 O41 2.371960 1_555
Na13 O55 2.671055 1_555
Na13 O37 2.937247 1_555
Na14 O66 2.236452 1_455
Na14 O8 2.328443 1_556
Na14 O42 2.371960 1_556
Na14 O52 2.671055 1_555
Na14 O38 2.937247 1_456
Na15 O67 2.236452 1_555
Na15 O9 2.328443 1_555
Na15 O43 2.371960 1_555
Na15 O53 2.671055 1_555
Na15 O39 2.937247 1_555
Na16 O18 2.376696 1_555
Na16 O14 2.380643 1_555
Na16 O56 2.453424 1_545
Na16 O24 2.594326 1_555
Na16 O46 2.671647 1_545
Na16 O34 2.783515 1_555
Na17 O18 2.376696 1_565
Na17 O15 2.380643 1_555
Na17 O57 2.453424 1_565
Na17 O25 2.594326 1_555
Na17 O47 2.671647 1_565
Na17 O35 2.783515 1_555
Na18 O19 2.376696 1_565
Na18 O16 2.380643 1_555
Na18 O58 2.453424 1_565
Na18 O26 2.594326 1_555
Na18 O44 2.671647 1_565
Na18 O32 2.783515 1_555
Na19 O19 2.376696 1_555
Na19 O17 2.380643 1_555
Na19 O59 2.453424 1_545
Na19 O27 2.594326 1_555
Na19 O45 2.671647 1_545
Na19 O33 2.783515 1_555
Na20 O22 2.318257 1_555
Na20 O20 2.318257 1_554
Na20 O6 2.359127 1_554
Na20 O8 2.359127 1_555
Na21 O21 2.318257 1_455
Na21 O23 2.318257 1_555
Na21 O9 2.359127 1_455
Na21 O7 2.359127 1_555
B0 O14 1.442071 1_555
B0 O66 1.485566 1_555
B0 O52 1.497530 1_655
B0 O34 1.500089 1_555
B1 O15 1.442071 1_555
B1 O67 1.485566 1_555
B1 O53 1.497530 1_555
B1 O35 1.500089 1_555
B2 O16 1.442071 1_555
B2 O64 1.485566 1_555
B2 O54 1.497530 1_455
B2 O32 1.500089 1_555
B3 O17 1.442071 1_555
B3 O65 1.485566 1_555
B3 O55 1.497530 1_555
B3 O33 1.500089 1_555
B4 O20 1.436781 1_555
B4 O10 1.468125 1_555
B4 O40 1.515839 1_555
B4 O6 1.524772 1_555
B5 O21 1.436781 1_455
B5 O11 1.468125 1_555
B5 O41 1.515839 1_555
B5 O7 1.524772 1_555
B6 O22 1.436781 1_555
B6 O12 1.468125 1_555
B6 O42 1.515839 1_555
B6 O8 1.524772 1_555
B7 O23 1.436781 1_655
B7 O13 1.468125 1_555
B7 O43 1.515839 1_555
B7 O9 1.524772 1_555
B8 O2 1.356937 1_555
B8 O52 1.376937 1_555
B8 O36 1.414234 1_555
B9 O3 1.356937 1_555
B9 O53 1.376937 1_555
B9 O37 1.414233 1_555
B10 O4 1.356937 1_555
B10 O54 1.376937 1_555
B10 O38 1.414234 1_555
B11 O5 1.356937 1_555
B11 O55 1.376937 1_555
B11 O39 1.414233 1_555
B12 O20 1.463670 1_555
B12 O68 1.467668 1_555
B12 O2 1.500597 1_555
B12 O46 1.501600 1_555
B13 O21 1.463670 1_555
B13 O69 1.467668 1_555
B13 O3 1.500598 1_555
B13 O47 1.501600 1_555
B14 O22 1.463670 1_555
B14 O70 1.467668 1_555
B14 O4 1.500597 1_555
B14 O44 1.501600 1_555
B15 O23 1.463670 1_555
B15 O71 1.467668 1_555
B15 O5 1.500598 1_555
B15 O45 1.501600 1_555
B16 O34 1.363922 1_555
B16 O6 1.377859 1_555
B16 O36 1.403612 1_655
B17 O35 1.363922 1_555
B17 O7 1.377859 1_555
B17 O37 1.403612 1_555
B18 O32 1.363922 1_555
B18 O8 1.377859 1_555
B18 O38 1.403612 1_455
B19 O33 1.363922 1_555
B19 O9 1.377859 1_555
B19 O39 1.403612 1_555
B20 O29 1.446153 1_555
B20 O28 1.446153 1_545
B20 O48 1.532103 1_555
B20 O49 1.532103 1_445
B21 O31 1.446153 1_545
B21 O30 1.446153 1_555
B21 O51 1.532103 1_655
B21 O50 1.532103 1_545
B22 O44 1.372541 1_555
B22 O42 1.376599 1_555
B22 O64 1.398399 1_545
B23 O45 1.372541 1_555
B23 O43 1.376599 1_455
B23 O65 1.398399 1_565
B24 O46 1.372541 1_555
B24 O40 1.376599 1_555
B24 O66 1.398399 1_565
B25 O47 1.372541 1_555
B25 O41 1.376599 1_655
B25 O67 1.398399 1_545
B26 O18 1.445859 1_565
B26 O28 1.449127 1_555
B26 O56 1.521141 1_555
B26 O25 1.531365 1_555
B27 O18 1.445859 1_555
B27 O29 1.449127 1_555
B27 O57 1.521141 1_555
B27 O24 1.531365 1_555
B28 O19 1.445859 1_555
B28 O30 1.449127 1_555
B28 O58 1.521141 1_555
B28 O27 1.531365 1_555
B29 O19 1.445859 1_565
B29 O31 1.449127 1_555
B29 O59 1.521141 1_555
B29 O26 1.531365 1_555
B30 O24 1.366676 1_555
B30 O10 1.372224 1_555
B30 O60 1.390608 1_555
B31 O25 1.366676 1_555
B31 O11 1.372224 1_555
B31 O61 1.390608 1_555
B32 O26 1.366676 1_555
B32 O12 1.372224 1_555
B32 O62 1.390608 1_555
B33 O27 1.366676 1_555
B33 O13 1.372224 1_555
B33 O63 1.390608 1_555
B34 O48 1.365561 1_655
B34 O14 1.372164 1_555
B34 O0 1.388402 1_555
B35 O49 1.365561 1_555
B35 O15 1.372164 1_555
B35 O0 1.388402 1_565
B36 O50 1.365561 1_455
B36 O16 1.372164 1_555
B36 O1 1.388402 1_565
B37 O51 1.365561 1_555
B37 O17 1.372164 1_555
B37 O1 1.388402 1_555
B38 O69 1.363325 1_555
B38 O57 1.374354 1_555
B38 O60 1.395619 1_555
B39 O68 1.363325 1_555
B39 O56 1.374354 1_555
B39 O61 1.395619 1_555
B40 O71 1.363325 1_555
B40 O59 1.374354 1_555
B40 O62 1.395619 1_555
B41 O70 1.363325 1_555
B41 O58 1.374354 1_555
B41 O63 1.395619 1_555
Br0 Na14 2.891042 1_555
Br0 Na8 2.942481 1_546
Br0 Na16 3.134806 1_555
Br0 Na10 3.258999 1_555
Br0 Na4 3.321340 1_545
Br0 Na20 3.354993 1_556
Br0 Na0 3.457867 1_555
Br1 Na15 2.891042 1_455
Br1 Na9 2.942481 1_565
Br1 Na17 3.134806 1_555
Br1 Na11 3.258999 1_555
Br1 Na5 3.321340 1_565
Br1 Na21 3.354993 1_555
Br1 Na1 3.457867 1_455
Br2 Na12 2.891042 1_555
Br2 Na10 2.942481 1_564
Br2 Na18 3.134806 1_555
Br2 Na8 3.258999 1_555
Br2 Na6 3.321340 1_565
Br2 Na20 3.354993 1_555
Br2 Na2 3.457867 1_555
Br3 Na13 2.891042 1_655
Br3 Na11 2.942481 1_545
Br3 Na19 3.134806 1_555
Br3 Na9 3.258999 1_555
Br3 Na7 3.321340 1_545
Br3 Na21 3.354993 1_655
Br3 Na3 3.457867 1_655
