# generated using pymatgen
data_Li9Si2NiO10
_symmetry_space_group_name_H-M   'P 1'
_cell_length_a   5.95970735
_cell_length_b   15.76173264
_cell_length_c   5.30633350
_cell_angle_alpha   79.46895621
_cell_angle_beta   88.54548978
_cell_angle_gamma   103.31909462
_symmetry_Int_Tables_number   1
_chemical_formula_structural   Li9Si2NiO10
_chemical_formula_sum   'Li18 Si4 Ni2 O20'
_cell_volume   475.68674550
_cell_formula_units_Z   2
loop_
 _symmetry_equiv_pos_site_id
 _symmetry_equiv_pos_as_xyz
  1  'x, y, z'
loop_
 _atom_site_type_symbol
 _atom_site_label
 _atom_site_symmetry_multiplicity
 _atom_site_fract_x
 _atom_site_fract_y
 _atom_site_fract_z
 _atom_site_occupancy
  Li  Li0  1  0.89467200  0.26359400  0.78928000  1
  Li  Li1  1  0.92259000  0.38121100  0.37262500  1
  Li  Li2  1  0.75073300  0.12792300  0.11012400  1
  Li  Li3  1  0.89945800  0.75607300  0.75198800  1
  Li  Li4  1  0.72446800  0.45225400  0.70814500  1
  Li  Li5  1  0.54476900  0.01158700  0.71707300  1
  Li  Li6  1  0.35977800  0.16442400  0.15034900  1
  Li  Li7  1  0.65727700  0.73719400  0.22282700  1
  Li  Li8  1  0.58296000  0.61210800  0.59483200  1
  Li  Li9  1  0.45334000  0.38222500  0.35620200  1
  Li  Li10  1  0.33784000  0.26522700  0.75883300  1
  Li  Li11  1  0.45796100  0.97877600  0.27621000  1
  Li  Li12  1  0.27437700  0.53538400  0.31067900  1
  Li  Li13  1  0.11897800  0.26221700  0.24345400  1
  Li  Li14  1  0.32955800  0.64956200  0.90500900  1
  Li  Li15  1  0.26306600  0.87351400  0.92914800  1
  Li  Li16  1  0.05644300  0.61125200  0.58567500  1
  Li  Li17  1  0.10763100  0.73871200  0.24524800  1
  Si  Si0  1  0.58682000  0.19354800  0.51935300  1
  Si  Si1  1  0.79579500  0.56723000  0.12757800  1
  Si  Si2  1  0.43908100  0.80580900  0.52027100  1
  Si  Si3  1  0.21423200  0.43824700  0.84346400  1
  Ni  Ni0  1  0.83508700  0.90627200  0.06554800  1
  Ni  Ni1  1  0.06209300  0.07965400  0.89657900  1
  O  O0  1  0.96192600  0.38841700  0.75892900  1
  O  O1  1  0.73906700  0.00998900  0.00846600  1
  O  O2  1  0.84838800  0.25208800  0.43055900  1
  O  O3  1  0.79275200  0.56785600  0.81813600  1
  O  O4  1  0.93692700  0.80858300  0.05187700  1
  O  O5  1  0.55785400  0.17910900  0.83744200  1
  O  O6  1  0.74149700  0.46683700  0.30407100  1
  O  O7  1  0.53207300  0.09917900  0.41105900  1
  O  O8  1  0.39598400  0.24876900  0.40133600  1
  O  O9  1  0.59106200  0.61538500  0.20973700  1
  O  O10  1  0.14716300  0.97307000  0.99613000  1
  O  O11  1  0.40512100  0.38962100  0.73896300  1
  O  O12  1  0.60932400  0.73949700  0.61789800  1
  O  O13  1  0.27606100  0.54465000  0.70573400  1
  O  O14  1  0.46285200  0.89936200  0.61602200  1
  O  O15  1  0.07853100  0.18908600  0.98305200  1
  O  O16  1  0.21223000  0.42307700  0.15997700  1
  O  O17  1  0.48950700  0.83272500  0.19421800  1
  O  O18  1  0.17621000  0.74069700  0.59481300  1
  O  O19  1  0.05816100  0.61962700  0.19605700  1
loop_
_geom_bond_atom_site_label_1
_geom_bond_atom_site_label_2
_geom_bond_distance
_geom_bond_site_symmetry_2
Li0 O0 1.890747 1_555
Li0 O15 1.961060 1_655
Li0 O2 1.965211 1_555
Li0 O5 2.117998 1_555
Li1 O6 1.905304 1_555
Li1 O2 1.944694 1_555
Li1 O16 1.947426 1_655
Li1 O0 2.089739 1_555
Li2 O7 1.952256 1_555
Li2 O15 2.007058 1_654
Li2 O1 2.014947 1_555
Li2 O5 2.037378 1_554
Li3 O12 1.867251 1_555
Li3 O18 1.913882 1_655
Li3 O4 1.918711 1_556
Li4 O0 1.914177 1_555
Li4 O11 1.919127 1_555
Li4 O3 1.971143 1_555
Li4 O6 2.111533 1_555
Li5 O14 1.901799 1_545
Li5 O7 1.945109 1_555
Li5 O1 1.955102 1_556
Li6 O5 1.959109 1_554
Li6 O15 1.999562 1_554
Li6 O7 2.016030 1_555
Li6 O8 2.029112 1_555
Li7 O9 1.883535 1_555
Li7 O4 1.884868 1_555
Li7 O17 1.976820 1_555
Li7 O12 2.116595 1_555
Li8 O3 1.904913 1_555
Li8 O13 1.908606 1_555
Li8 O12 2.004162 1_555
Li8 O9 2.033696 1_555
Li9 O6 1.894758 1_555
Li9 O16 1.954680 1_555
Li9 O8 2.019730 1_555
Li9 O11 2.072129 1_555
Li10 O11 1.891075 1_555
Li10 O15 1.942760 1_555
Li10 O8 1.993463 1_555
Li10 O5 2.092029 1_555
Li11 O14 2.003356 1_555
Li11 O1 2.076323 1_565
Li11 O7 2.105900 1_565
Li11 O10 2.399920 1_554
Li11 O17 2.466836 1_555
Li12 O9 2.011038 1_555
Li12 O16 2.034820 1_555
Li12 O19 2.079999 1_555
Li12 O13 2.127953 1_555
Li13 O2 1.831386 1_455
Li13 O8 1.907541 1_555
Li13 O15 1.940919 1_554
Li13 O16 2.420999 1_555
Li14 O13 2.089862 1_555
Li14 O19 2.116393 1_556
Li14 O12 2.259002 1_555
Li14 O18 2.329139 1_555
Li14 O9 2.351610 1_556
Li15 O10 1.938192 1_555
Li15 O14 1.942431 1_555
Li15 O4 2.006249 1_456
Li15 O17 2.092484 1_556
Li16 O3 1.886002 1_455
Li16 O13 1.910997 1_555
Li16 O18 2.010346 1_555
Li16 O19 2.047045 1_555
Li17 O4 1.859258 1_455
Li17 O19 1.898989 1_555
Li17 O18 1.913771 1_555
Li17 O17 2.390999 1_555
Ni0 O4 1.792661 1_555
Ni0 O1 1.830432 1_565
Ni0 O10 1.903831 1_654
Ni0 O17 2.142665 1_555
Ni1 O15 1.846332 1_555
Ni1 O10 1.854711 1_545
Ni1 O1 1.998514 1_456
O0 Si3 1.642555 1_655
O2 Si0 1.626195 1_555
O3 Si1 1.640814 1_556
O5 Si0 1.660496 1_555
O6 Si1 1.640938 1_555
O7 Si0 1.657540 1_555
O8 Si0 1.654164 1_555
O9 Si1 1.666003 1_555
O11 Si3 1.647483 1_555
O12 Si2 1.645468 1_555
O13 Si3 1.654122 1_555
O14 Si2 1.622901 1_555
O16 Si3 1.651965 1_554
O17 Si2 1.705948 1_555
O18 Si2 1.656324 1_555
O19 Si1 1.674089 1_455
