# generated using pymatgen
data_FeSb(P2O7)2
_symmetry_space_group_name_H-M   'P 1'
_cell_length_a   8.02947900
_cell_length_b   8.03858700
_cell_length_c   16.15646400
_cell_angle_alpha   90.00000000
_cell_angle_beta   90.00000000
_cell_angle_gamma   90.00000000
_symmetry_Int_Tables_number   1
_chemical_formula_structural   FeSb(P2O7)2
_chemical_formula_sum   'Fe4 Sb4 P16 O56'
_cell_volume   1042.82972111
_cell_formula_units_Z   4
loop_
 _symmetry_equiv_pos_site_id
 _symmetry_equiv_pos_as_xyz
  1  'x, y, z'
loop_
 _atom_site_type_symbol
 _atom_site_label
 _atom_site_symmetry_multiplicity
 _atom_site_fract_x
 _atom_site_fract_y
 _atom_site_fract_z
 _atom_site_occupancy
  Fe  Fe0  1  0.99182200  0.39822800  0.12665200  1
  Fe  Fe1  1  0.00817800  0.89822800  0.87334800  1
  Fe  Fe2  1  0.49182200  0.39822800  0.37334800  1
  Fe  Fe3  1  0.50817800  0.89822800  0.62665200  1
  Sb  Sb0  1  0.98762500  0.89400300  0.37727100  1
  Sb  Sb1  1  0.01237500  0.39400300  0.62272900  1
  Sb  Sb2  1  0.48762500  0.89400300  0.12272900  1
  Sb  Sb3  1  0.51237500  0.39400300  0.87727100  1
  P  P0  1  0.89259500  0.50656400  0.32501300  1
  P  P1  1  0.10740500  0.00656400  0.67498700  1
  P  P2  1  0.39259500  0.50656400  0.17498700  1
  P  P3  1  0.60740500  0.00656400  0.82501300  1
  P  P4  1  0.60144800  0.00914400  0.31487600  1
  P  P5  1  0.39855200  0.50914400  0.68512400  1
  P  P6  1  0.10144800  0.00914400  0.18512400  1
  P  P7  1  0.89855200  0.50914400  0.81487600  1
  P  P8  1  0.89781700  0.77652100  0.56827100  1
  P  P9  1  0.10218300  0.27652100  0.43172900  1
  P  P10  1  0.39781700  0.77652100  0.93172900  1
  P  P11  1  0.60218300  0.27652100  0.06827100  1
  P  P12  1  0.88618500  0.79487100  0.07278900  1
  P  P13  1  0.11381500  0.29487100  0.92721100  1
  P  P14  1  0.38618500  0.79487100  0.42721100  1
  P  P15  1  0.61381500  0.29487100  0.57278900  1
  O  O0  1  0.93225200  0.40963100  0.24774400  1
  O  O1  1  0.06774800  0.90963100  0.75225600  1
  O  O2  1  0.43225200  0.40963100  0.25225600  1
  O  O3  1  0.56774800  0.90963100  0.74774400  1
  O  O4  1  0.70123700  0.85557700  0.06677400  1
  O  O5  1  0.29876300  0.35557700  0.93322600  1
  O  O6  1  0.20123700  0.85557700  0.43322600  1
  O  O7  1  0.79876300  0.35557700  0.56677400  1
  O  O8  1  0.86473500  0.81144400  0.47504100  1
  O  O9  1  0.13526500  0.31144400  0.52495900  1
  O  O10  1  0.36473500  0.81144400  0.02495900  1
  O  O11  1  0.63526500  0.31144400  0.97504100  1
  O  O12  1  0.71204300  0.52141100  0.34992500  1
  O  O13  1  0.28795700  0.02141100  0.65007500  1
  O  O14  1  0.21204300  0.52141100  0.15007500  1
  O  O15  1  0.78795700  0.02141100  0.84992500  1
  O  O16  1  0.98859300  0.67784400  0.31872100  1
  O  O17  1  0.01140700  0.17784400  0.68127900  1
  O  O18  1  0.48859300  0.67784400  0.18127900  1
  O  O19  1  0.51140700  0.17784400  0.81872100  1
  O  O20  1  0.97569800  0.85232400  0.99652200  1
  O  O21  1  0.02430200  0.35232400  0.00347800  1
  O  O22  1  0.47569800  0.85232400  0.50347800  1
  O  O23  1  0.52430200  0.35232400  0.49652200  1
  O  O24  1  0.89857200  0.67873500  0.85270600  1
  O  O25  1  0.10142800  0.17873500  0.14729400  1
  O  O26  1  0.39857200  0.67873500  0.64729400  1
  O  O27  1  0.60142800  0.17873500  0.35270600  1
  O  O28  1  0.98387700  0.42360300  0.40403600  1
  O  O29  1  0.01612300  0.92360300  0.59596400  1
  O  O30  1  0.48387700  0.42360300  0.09596400  1
  O  O31  1  0.51612300  0.92360300  0.90403600  1
  O  O32  1  0.73726000  0.77090300  0.61497600  1
  O  O33  1  0.26274000  0.27090300  0.38502400  1
  O  O34  1  0.23726000  0.77090300  0.88502400  1
  O  O35  1  0.76274000  0.27090300  0.11497600  1
  O  O36  1  0.95410000  0.89540300  0.15283900  1
  O  O37  1  0.04590000  0.39540300  0.84716100  1
  O  O38  1  0.45410000  0.89540300  0.34716100  1
  O  O39  1  0.54590000  0.39540300  0.65283900  1
  O  O40  1  0.89073500  0.61301700  0.09574500  1
  O  O41  1  0.10926500  0.11301700  0.90425500  1
  O  O42  1  0.39073500  0.61301700  0.40425500  1
  O  O43  1  0.60926500  0.11301700  0.59574500  1
  O  O44  1  0.57776600  0.01478600  0.21995700  1
  O  O45  1  0.42223400  0.51478600  0.78004300  1
  O  O46  1  0.07776600  0.01478600  0.28004300  1
  O  O47  1  0.92223400  0.51478600  0.71995700  1
  O  O48  1  0.98828500  0.11977800  0.42767800  1
  O  O49  1  0.01171500  0.61977800  0.57232200  1
  O  O50  1  0.48828500  0.11977800  0.07232200  1
  O  O51  1  0.51171500  0.61977800  0.92767800  1
  O  O52  1  0.76337100  0.91391300  0.32980300  1
  O  O53  1  0.23662900  0.41391300  0.67019700  1
  O  O54  1  0.26337100  0.91391300  0.17019700  1
  O  O55  1  0.73662900  0.41391300  0.82980300  1
loop_
_geom_bond_atom_site_label_1
_geom_bond_atom_site_label_2
_geom_bond_distance
_geom_bond_site_symmetry_2
Fe0 O40 1.972134 1_555
Fe0 O25 1.999729 1_655
Fe0 O0 2.016126 1_555
Fe0 O21 2.040711 1_655
Fe0 O14 2.061670 1_655
Fe0 O35 2.113431 1_555
Fe1 O41 1.972134 1_565
Fe1 O24 1.999729 1_455
Fe1 O1 2.016126 1_555
Fe1 O20 2.040711 1_455
Fe1 O15 2.061670 1_465
Fe1 O34 2.113431 1_555
Fe2 O42 1.972134 1_555
Fe2 O27 1.999729 1_555
Fe2 O2 2.016126 1_555
Fe2 O23 2.040711 1_555
Fe2 O12 2.061670 1_555
Fe2 O33 2.113431 1_555
Fe3 O43 1.972134 1_565
Fe3 O26 1.999729 1_555
Fe3 O3 2.016126 1_555
Fe3 O22 2.040711 1_555
Fe3 O13 2.061670 1_565
Fe3 O32 2.113431 1_555
O0 P0 1.505670 1_555
O1 P1 1.505670 1_565
O2 P2 1.505670 1_555
O3 P3 1.505670 1_565
O4 P12 1.566177 1_555
O4 Sb2 1.963308 1_555
O5 P13 1.566177 1_555
O5 Sb3 1.963308 1_555
O6 P14 1.566177 1_555
O6 Sb0 1.963308 1_455
O7 P15 1.566177 1_555
O7 Sb1 1.963308 1_655
O8 P8 1.555060 1_555
O8 Sb0 1.977193 1_555
O9 P9 1.555060 1_555
O9 Sb1 1.977193 1_555
O10 P10 1.555060 1_554
O10 Sb2 1.977193 1_555
O11 P11 1.555060 1_556
O11 Sb3 1.977193 1_555
O12 P0 1.509299 1_555
O13 P1 1.509299 1_555
O14 P2 1.509299 1_555
O15 P3 1.509299 1_555
O16 P0 1.581203 1_555
O16 Sb0 1.978434 1_555
O17 P1 1.581203 1_555
O17 Sb1 1.978434 1_555
O18 P2 1.581203 1_555
O18 Sb2 1.978434 1_555
O19 P3 1.581203 1_555
O19 Sb3 1.978434 1_555
O20 P12 1.499406 1_556
O21 P13 1.499406 1_554
O22 P14 1.499406 1_555
O23 P15 1.499406 1_555
O24 P7 1.494013 1_555
O25 P6 1.494013 1_555
O26 P5 1.494013 1_555
O27 P4 1.494013 1_555
O28 P9 1.581288 1_655
O28 P0 1.616168 1_555
O29 P8 1.581288 1_455
O29 P1 1.616168 1_565
O30 P11 1.581288 1_555
O30 P2 1.616168 1_555
O31 P10 1.581288 1_555
O31 P3 1.616168 1_565
O32 P8 1.494473 1_555
O33 P9 1.494473 1_555
O34 P10 1.494473 1_555
O35 P11 1.494473 1_555
O36 P6 1.583618 1_665
O36 P12 1.619614 1_555
O37 P7 1.583618 1_455
O37 P13 1.619614 1_555
O38 P4 1.583618 1_565
O38 P14 1.619614 1_555
O39 P5 1.583618 1_555
O39 P15 1.619614 1_555
O40 P12 1.508607 1_555
O41 P13 1.508607 1_555
O42 P14 1.508607 1_555
O43 P15 1.508607 1_555
O44 P4 1.545965 1_555
O44 Sb2 1.983472 1_545
O45 P5 1.545965 1_555
O45 Sb3 1.983472 1_555
O46 P6 1.545965 1_555
O46 Sb0 1.983472 1_445
O47 P7 1.545965 1_555
O47 Sb1 1.983472 1_655
O48 P9 1.558284 1_655
O48 Sb0 1.989266 1_545
O49 P8 1.558284 1_455
O49 Sb1 1.989266 1_555
O50 P11 1.558284 1_555
O50 Sb2 1.989266 1_545
O51 P10 1.558284 1_555
O51 Sb3 1.989266 1_555
O52 P4 1.527938 1_565
O52 Sb0 1.963693 1_555
O53 P5 1.527938 1_555
O53 Sb1 1.963693 1_555
O54 P6 1.527938 1_565
O54 Sb2 1.963693 1_555
O55 P7 1.527938 1_555
O55 Sb3 1.963693 1_555
