# generated using pymatgen
data_Y5IrBr9
_symmetry_space_group_name_H-M   'P 1'
_cell_length_a   12.95892295
_cell_length_b   12.95892295
_cell_length_c   24.77531289
_cell_angle_alpha   105.16080378
_cell_angle_beta   105.16080378
_cell_angle_gamma   90.00000000
_symmetry_Int_Tables_number   1
_chemical_formula_structural   Y5IrBr9
_chemical_formula_sum   'Y40 Ir8 Br72'
_cell_volume   3865.57400747
_cell_formula_units_Z   8
loop_
 _symmetry_equiv_pos_site_id
 _symmetry_equiv_pos_as_xyz
  1  'x, y, z'
loop_
 _atom_site_type_symbol
 _atom_site_label
 _atom_site_symmetry_multiplicity
 _atom_site_fract_x
 _atom_site_fract_y
 _atom_site_fract_z
 _atom_site_occupancy
  Y  Y0  1  0.08413421  0.43079920  0.07831083  1
  Y  Y1  1  0.99417662  0.14751163  0.07831083  1
  Y  Y2  1  0.93079920  0.49417662  0.57831083  1
  Y  Y3  1  0.64751163  0.58413421  0.57831083  1
  Y  Y4  1  0.91586579  0.56920080  0.92168917  1
  Y  Y5  1  0.00582338  0.85248837  0.92168917  1
  Y  Y6  1  0.06920080  0.50582338  0.42168917  1
  Y  Y7  1  0.35248837  0.41586579  0.42168917  1
  Y  Y8  1  0.21095057  0.57399661  0.31857399  1
  Y  Y9  1  0.10762342  0.24457738  0.31857399  1
  Y  Y10  1  0.07399661  0.60762342  0.81857399  1
  Y  Y11  1  0.74457738  0.71095057  0.81857399  1
  Y  Y12  1  0.78904943  0.42600339  0.68142601  1
  Y  Y13  1  0.89237658  0.75542262  0.68142601  1
  Y  Y14  1  0.92600339  0.39237658  0.18142601  1
  Y  Y15  1  0.25542262  0.28904943  0.18142601  1
  Y  Y16  1  0.32072314  0.58233811  0.19221509  1
  Y  Y17  1  0.87149195  0.10987698  0.19221509  1
  Y  Y18  1  0.08233811  0.37149195  0.69221509  1
  Y  Y19  1  0.60987698  0.82072314  0.69221509  1
  Y  Y20  1  0.67927686  0.41766189  0.80778491  1
  Y  Y21  1  0.12850805  0.89012302  0.80778491  1
  Y  Y22  1  0.91766189  0.62850805  0.30778491  1
  Y  Y23  1  0.39012302  0.17927686  0.30778491  1
  Y  Y24  1  0.95192404  0.33349287  0.81064556  1
  Y  Y25  1  0.85872152  0.97715269  0.81064556  1
  Y  Y26  1  0.83349287  0.35872152  0.31064556  1
  Y  Y27  1  0.47715269  0.45192404  0.31064556  1
  Y  Y28  1  0.04807596  0.66650713  0.18935444  1
  Y  Y29  1  0.14127848  0.02284731  0.18935444  1
  Y  Y30  1  0.16650713  0.64127848  0.68935444  1
  Y  Y31  1  0.52284731  0.54807596  0.68935444  1
  Y  Y32  1  0.58293279  0.93568160  0.06731429  1
  Y  Y33  1  0.48438150  0.63163269  0.06731429  1
  Y  Y34  1  0.43568160  0.98438150  0.56731429  1
  Y  Y35  1  0.13163269  0.08293279  0.56731429  1
  Y  Y36  1  0.41706721  0.06431840  0.93268571  1
  Y  Y37  1  0.51561850  0.36836731  0.93268571  1
  Y  Y38  1  0.56431840  0.01561850  0.43268571  1
  Y  Y39  1  0.86836731  0.91706721  0.43268571  1
  Ir  Ir0  1  0.13870897  0.47724969  0.19642368  1
  Ir  Ir1  1  0.05771471  0.21917400  0.19642368  1
  Ir  Ir2  1  0.97724969  0.55771471  0.69642368  1
  Ir  Ir3  1  0.71917400  0.63870897  0.69642368  1
  Ir  Ir4  1  0.86129103  0.52275031  0.80357632  1
  Ir  Ir5  1  0.94228529  0.78082600  0.80357632  1
  Ir  Ir6  1  0.02275031  0.44228529  0.30357632  1
  Ir  Ir7  1  0.28082600  0.36129103  0.30357632  1
  Br  Br0  1  0.28211871  0.52898692  0.06581553  1
  Br  Br1  1  0.78369681  0.03682861  0.06581553  1
  Br  Br2  1  0.02898692  0.28369681  0.56581553  1
  Br  Br3  1  0.53682861  0.78211871  0.56581553  1
  Br  Br4  1  0.71788129  0.47101308  0.93418447  1
  Br  Br5  1  0.21630319  0.96317139  0.93418447  1
  Br  Br6  1  0.97101308  0.71630319  0.43418447  1
  Br  Br7  1  0.46317139  0.21788129  0.43418447  1
  Br  Br8  1  0.39705235  0.72908081  0.68432858  1
  Br  Br9  1  0.28727623  0.45524777  0.68432858  1
  Br  Br10  1  0.22908081  0.78727623  0.18432858  1
  Br  Br11  1  0.95524777  0.89705235  0.18432858  1
  Br  Br12  1  0.60294765  0.27091919  0.31567142  1
  Br  Br13  1  0.71272377  0.54475223  0.31567142  1
  Br  Br14  1  0.77091919  0.21272377  0.81567142  1
  Br  Br15  1  0.04475223  0.10294765  0.81567142  1
  Br  Br16  1  0.02336695  0.38242095  0.93812600  1
  Br  Br17  1  0.91475905  0.05570506  0.93812600  1
  Br  Br18  1  0.88242095  0.41475905  0.43812600  1
  Br  Br19  1  0.55570506  0.52336695  0.43812600  1
  Br  Br20  1  0.97663305  0.61757905  0.06187400  1
  Br  Br21  1  0.08524095  0.94429494  0.06187400  1
  Br  Br22  1  0.11757905  0.58524095  0.56187400  1
  Br  Br23  1  0.44429494  0.47663305  0.56187400  1
  Br  Br24  1  0.27272876  0.62786634  0.45178360  1
  Br  Br25  1  0.17905484  0.32391726  0.45178360  1
  Br  Br26  1  0.12786634  0.67905484  0.95178360  1
  Br  Br27  1  0.82391726  0.77272876  0.95178360  1
  Br  Br28  1  0.72727124  0.37213366  0.54821640  1
  Br  Br29  1  0.82094516  0.67608274  0.54821640  1
  Br  Br30  1  0.87213366  0.32094516  0.04821640  1
  Br  Br31  1  0.17608274  0.22727124  0.04821640  1
  Br  Br32  1  0.89134861  0.14352983  0.31502828  1
  Br  Br33  1  0.42367967  0.67149845  0.31502828  1
  Br  Br34  1  0.64352983  0.92367967  0.81502828  1
  Br  Br35  1  0.17149845  0.39134861  0.81502828  1
  Br  Br36  1  0.10865139  0.85647017  0.68497172  1
  Br  Br37  1  0.57632033  0.32850155  0.68497172  1
  Br  Br38  1  0.35647017  0.07632033  0.18497172  1
  Br  Br39  1  0.82850155  0.60865139  0.18497172  1
  Br  Br40  1  0.90531379  0.22583168  0.68690300  1
  Br  Br41  1  0.78158921  0.96107132  0.68690300  1
  Br  Br42  1  0.72583168  0.28158921  0.18690300  1
  Br  Br43  1  0.46107132  0.40531379  0.18690300  1
  Br  Br44  1  0.09468621  0.77416832  0.31309700  1
  Br  Br45  1  0.21841079  0.03892868  0.31309700  1
  Br  Br46  1  0.27416832  0.71841079  0.81309700  1
  Br  Br47  1  0.53892868  0.59468621  0.81309700  1
  Br  Br48  1  0.66292549  0.99539557  0.18474923  1
  Br  Br49  1  0.52182374  0.68935366  0.18474923  1
  Br  Br50  1  0.49539557  0.02182374  0.68474923  1
  Br  Br51  1  0.18935366  0.16292549  0.68474923  1
  Br  Br52  1  0.33707451  0.00460443  0.81525077  1
  Br  Br53  1  0.47817626  0.31064634  0.81525077  1
  Br  Br54  1  0.50460443  0.97817626  0.31525077  1
  Br  Br55  1  0.81064634  0.83707451  0.31525077  1
  Br  Br56  1  0.52712701  0.88143240  0.94328795  1
  Br  Br57  1  0.41616094  0.56185555  0.94328795  1
  Br  Br58  1  0.38143240  0.91616094  0.44328795  1
  Br  Br59  1  0.06185555  0.02712701  0.44328795  1
  Br  Br60  1  0.47287299  0.11856760  0.05671205  1
  Br  Br61  1  0.58383906  0.43814445  0.05671205  1
  Br  Br62  1  0.61856760  0.08383906  0.55671205  1
  Br  Br63  1  0.93814445  0.97287299  0.55671205  1
  Br  Br64  1  0.76535847  0.10797228  0.43796330  1
  Br  Br65  1  0.67260483  0.82999102  0.43796330  1
  Br  Br66  1  0.60797228  0.17260483  0.93796330  1
  Br  Br67  1  0.32999102  0.26535847  0.93796330  1
  Br  Br68  1  0.23464153  0.89202772  0.56203670  1
  Br  Br69  1  0.32739517  0.17000898  0.56203670  1
  Br  Br70  1  0.39202772  0.82739517  0.06203670  1
  Br  Br71  1  0.67000898  0.73464153  0.06203670  1
loop_
_geom_bond_atom_site_label_1
_geom_bond_atom_site_label_2
_geom_bond_distance
_geom_bond_site_symmetry_2
Ir0 Y0 2.724298 1_555
Ir0 Y28 2.746331 1_555
Ir0 Y16 2.762585 1_555
Ir0 Y8 2.853130 1_555
Ir0 Y15 2.862468 1_555
Ir0 Y14 2.862903 1_455
Ir1 Y1 2.724298 1_455
Ir1 Y29 2.746331 1_555
Ir1 Y17 2.762585 1_455
Ir1 Y9 2.853130 1_555
Ir1 Y14 2.862468 1_455
Ir1 Y15 2.862903 1_555
Ir2 Y2 2.724298 1_555
Ir2 Y30 2.746331 1_655
Ir2 Y18 2.762585 1_655
Ir2 Y10 2.853130 1_655
Ir2 Y12 2.862468 1_555
Ir2 Y13 2.862903 1_555
Ir3 Y3 2.724298 1_555
Ir3 Y31 2.746331 1_555
Ir3 Y19 2.762585 1_555
Ir3 Y11 2.853130 1_555
Ir3 Y13 2.862468 1_555
Ir3 Y12 2.862903 1_555
Ir4 Y4 2.724298 1_555
Ir4 Y24 2.746331 1_555
Ir4 Y20 2.762585 1_555
Ir4 Y12 2.853130 1_555
Ir4 Y11 2.862468 1_555
Ir4 Y10 2.862903 1_655
Ir5 Y5 2.724298 1_655
Ir5 Y25 2.746331 1_555
Ir5 Y21 2.762585 1_655
Ir5 Y13 2.853130 1_555
Ir5 Y10 2.862468 1_655
Ir5 Y11 2.862903 1_555
Ir6 Y6 2.724298 1_555
Ir6 Y26 2.746331 1_455
Ir6 Y22 2.762585 1_455
Ir6 Y14 2.853130 1_455
Ir6 Y8 2.862468 1_555
Ir6 Y9 2.862903 1_555
Ir7 Y7 2.724298 1_555
Ir7 Y27 2.746331 1_555
Ir7 Y23 2.762585 1_555
Ir7 Y15 2.853130 1_555
Ir7 Y9 2.862468 1_555
Ir7 Y8 2.862903 1_555
Br0 Y33 2.926468 1_555
Br0 Y16 2.929710 1_555
Br0 Y0 2.986466 1_555
Br1 Y32 2.926468 1_545
Br1 Y17 2.929710 1_555
Br1 Y1 2.986466 1_555
Br2 Y35 2.926468 1_555
Br2 Y18 2.929710 1_555
Br2 Y2 2.986466 1_455
Br3 Y34 2.926468 1_555
Br3 Y19 2.929710 1_555
Br3 Y3 2.986466 1_555
Br4 Y37 2.926468 1_555
Br4 Y20 2.929710 1_555
Br4 Y4 2.986466 1_555
Br5 Y36 2.926468 1_565
Br5 Y21 2.929710 1_555
Br5 Y5 2.986466 1_555
Br6 Y39 2.926468 1_555
Br6 Y22 2.929710 1_555
Br6 Y6 2.986466 1_655
Br7 Y38 2.926468 1_555
Br7 Y23 2.929710 1_555
Br7 Y7 2.986466 1_555
Br8 Y31 2.867319 1_555
Br8 Y19 2.941384 1_555
Br8 Y30 3.241095 1_555
Br9 Y30 2.867319 1_555
Br9 Y18 2.941384 1_555
Br9 Y31 3.241095 1_555
Br10 Y28 2.867319 1_555
Br10 Y16 2.941384 1_555
Br10 Y29 3.241095 1_565
Br11 Y29 2.867319 1_665
Br11 Y17 2.941384 1_565
Br11 Y28 3.241095 1_655
Br12 Y27 2.867319 1_555
Br12 Y23 2.941384 1_555
Br12 Y26 3.241095 1_555
Br13 Y26 2.867319 1_555
Br13 Y22 2.941384 1_555
Br13 Y27 3.241095 1_555
Br14 Y24 2.867319 1_555
Br14 Y20 2.941384 1_555
Br14 Y25 3.241095 1_545
Br15 Y25 2.867319 1_445
Br15 Y21 2.941384 1_545
Br15 Y24 3.241095 1_455
Br16 Y4 2.860777 1_455
Br16 Y24 2.942368 1_455
Br16 Y0 3.241338 1_556
Br17 Y5 2.860777 1_645
Br17 Y25 2.942368 1_545
Br17 Y1 3.241338 1_556
Br18 Y6 2.860777 1_655
Br18 Y26 2.942368 1_555
Br18 Y2 3.241338 1_555
Br19 Y7 2.860777 1_555
Br19 Y27 2.942368 1_555
Br19 Y3 3.241338 1_555
Br20 Y0 2.860777 1_655
Br20 Y28 2.942368 1_655
Br20 Y4 3.241338 1_554
Br21 Y1 2.860777 1_465
Br21 Y29 2.942368 1_565
Br21 Y5 3.241338 1_554
Br22 Y2 2.860777 1_455
Br22 Y30 2.942368 1_555
Br22 Y6 3.241338 1_555
Br23 Y3 2.860777 1_555
Br23 Y31 2.942368 1_555
Br23 Y7 3.241338 1_555
Br24 Y6 2.892790 1_555
Br24 Y7 2.916087 1_555
Br24 Y8 3.071354 1_555
Br25 Y7 2.892790 1_555
Br25 Y6 2.916087 1_555
Br25 Y9 3.071354 1_555
Br26 Y5 2.892790 1_555
Br26 Y4 2.916087 1_455
Br26 Y10 3.071354 1_555
Br27 Y4 2.892790 1_555
Br27 Y5 2.916087 1_655
Br27 Y11 3.071354 1_555
Br28 Y2 2.892790 1_555
Br28 Y3 2.916087 1_555
Br28 Y12 3.071354 1_555
Br29 Y3 2.892790 1_555
Br29 Y2 2.916087 1_555
Br29 Y13 3.071354 1_555
Br30 Y1 2.892790 1_555
Br30 Y0 2.916087 1_655
Br30 Y14 3.071354 1_555
Br31 Y0 2.892790 1_555
Br31 Y1 2.916087 1_455
Br31 Y15 3.071354 1_555
Br32 Y17 2.900178 1_555
Br32 Y26 2.909690 1_555
Br32 Y9 3.064072 1_655
Br33 Y16 2.900178 1_555
Br33 Y27 2.909690 1_555
Br33 Y8 3.064072 1_555
Br34 Y19 2.900178 1_555
Br34 Y25 2.909690 1_555
Br34 Y11 3.064072 1_555
Br35 Y18 2.900178 1_555
Br35 Y24 2.909690 1_455
Br35 Y10 3.064072 1_555
Br36 Y21 2.900178 1_555
Br36 Y30 2.909690 1_555
Br36 Y13 3.064072 1_455
Br37 Y20 2.900178 1_555
Br37 Y31 2.909690 1_555
Br37 Y12 3.064072 1_555
Br38 Y23 2.900178 1_555
Br38 Y29 2.909690 1_555
Br38 Y15 3.064072 1_555
Br39 Y22 2.900178 1_555
Br39 Y28 2.909690 1_655
Br39 Y14 3.064072 1_555
Br40 Y24 2.916229 1_555
Br40 Y18 2.924916 1_655
Br40 Y12 3.015709 1_555
Br41 Y25 2.916229 1_555
Br41 Y19 2.924916 1_555
Br41 Y13 3.015709 1_555
Br42 Y26 2.916229 1_555
Br42 Y17 2.924916 1_555
Br42 Y14 3.015709 1_555
Br43 Y27 2.916229 1_555
Br43 Y16 2.924916 1_555
Br43 Y15 3.015709 1_555
Br44 Y28 2.916229 1_555
Br44 Y22 2.924916 1_455
Br44 Y8 3.015709 1_555
Br45 Y29 2.916229 1_555
Br45 Y23 2.924916 1_555
Br45 Y9 3.015709 1_555
Br46 Y30 2.916229 1_555
Br46 Y21 2.924916 1_555
Br46 Y10 3.015709 1_555
Br47 Y31 2.916229 1_555
Br47 Y20 2.924916 1_555
Br47 Y11 3.015709 1_555
Br48 Y32 2.717225 1_555
Br48 Y17 3.022455 1_565
Br49 Y33 2.717225 1_555
Br49 Y16 3.022455 1_555
Br50 Y34 2.717225 1_545
Br50 Y19 3.022455 1_545
Br51 Y35 2.717225 1_555
Br51 Y18 3.022455 1_555
Br52 Y36 2.717225 1_555
Br52 Y21 3.022455 1_545
Br53 Y37 2.717225 1_555
Br53 Y20 3.022455 1_555
Br54 Y38 2.717225 1_565
Br54 Y23 3.022455 1_565
Br55 Y39 2.717225 1_555
Br55 Y22 3.022455 1_555
Br56 Y36 2.801749 1_565
Br56 Y32 2.857799 1_556
Br57 Y37 2.801749 1_555
Br57 Y33 2.857799 1_556
Br58 Y38 2.801749 1_565
Br58 Y34 2.857799 1_555
Br59 Y39 2.801749 1_445
Br59 Y35 2.857799 1_555
Br60 Y32 2.801749 1_545
Br60 Y36 2.857799 1_554
Br61 Y33 2.801749 1_555
Br61 Y37 2.857799 1_554
Br62 Y34 2.801749 1_545
Br62 Y38 2.857799 1_555
Br63 Y35 2.801749 1_665
Br63 Y39 2.857799 1_555
Br64 Y39 2.800252 1_545
Br64 Y38 2.824324 1_555
Br65 Y38 2.800252 1_565
Br65 Y39 2.824324 1_555
Br66 Y36 2.800252 1_555
Br66 Y37 2.824324 1_555
Br67 Y37 2.800252 1_555
Br67 Y36 2.824324 1_555
Br68 Y35 2.800252 1_565
Br68 Y34 2.824324 1_555
Br69 Y34 2.800252 1_545
Br69 Y35 2.824324 1_555
Br70 Y32 2.800252 1_555
Br70 Y33 2.824324 1_555
Br71 Y33 2.800252 1_555
Br71 Y32 2.824324 1_555
