# generated using pymatgen
data_K2SrTi10O22
_symmetry_space_group_name_H-M   'P 1'
_cell_length_a   8.00560677
_cell_length_b   8.00560677
_cell_length_c   15.70051809
_cell_angle_alpha   77.33396954
_cell_angle_beta   77.33396954
_cell_angle_gamma   27.56374163
_symmetry_Int_Tables_number   1
_chemical_formula_structural   K2SrTi10O22
_chemical_formula_sum   'K2 Sr1 Ti10 O22'
_cell_volume   453.60171675
_cell_formula_units_Z   1
loop_
 _symmetry_equiv_pos_site_id
 _symmetry_equiv_pos_as_xyz
  1  'x, y, z'
loop_
 _atom_site_type_symbol
 _atom_site_label
 _atom_site_symmetry_multiplicity
 _atom_site_fract_x
 _atom_site_fract_y
 _atom_site_fract_z
 _atom_site_occupancy
  K  K0  1  0.51594800  0.51594800  0.45386300  1
  K  K1  1  0.44252000  0.44252000  0.15867300  1
  Sr  Sr0  1  0.55729100  0.55729100  0.83655700  1
  Ti  Ti0  1  0.86076800  0.86076800  0.35786200  1
  Ti  Ti1  1  0.13781100  0.13781100  0.63506500  1
  Ti  Ti2  1  0.79921100  0.79921100  0.56474200  1
  Ti  Ti3  1  0.20377400  0.20377400  0.43259900  1
  Ti  Ti4  1  0.83536400  0.83536400  0.96243200  1
  Ti  Ti5  1  0.16571100  0.16571100  0.03720800  1
  Ti  Ti6  1  0.90154100  0.90154100  0.75190000  1
  Ti  Ti7  1  0.09827200  0.09827200  0.24231800  1
  Ti  Ti8  1  0.75630900  0.75630900  0.16374500  1
  Ti  Ti9  1  0.24499100  0.24499100  0.83655100  1
  O  O0  1  0.69928700  0.69928700  0.04010400  1
  O  O1  1  0.30075300  0.30075300  0.95659700  1
  O  O2  1  0.73236300  0.73236300  0.44214000  1
  O  O3  1  0.26609200  0.26609200  0.55853000  1
  O  O4  1  0.93943400  0.93943400  0.88057700  1
  O  O5  1  0.06741500  0.06741500  0.12289700  1
  O  O6  1  0.66481700  0.66481700  0.63661100  1
  O  O7  1  0.33459100  0.33459100  0.36596500  1
  O  O8  1  0.85780300  0.85780300  0.65143100  1
  O  O9  1  0.14193100  0.14193100  0.34994000  1
  O  O10  1  0.86189200  0.86189200  0.06979200  1
  O  O11  1  0.13391900  0.13391900  0.92882500  1
  O  O12  1  0.81380400  0.81380400  0.24880500  1
  O  O13  1  0.18004600  0.18004600  0.75740900  1
  O  O14  1  0.97952900  0.97952900  0.29639600  1
  O  O15  1  0.02252700  0.02252700  0.71150700  1
  O  O16  1  0.89287100  0.89287100  0.47024200  1
  O  O17  1  0.10494400  0.10494400  0.52904100  1
  O  O18  1  0.77264400  0.77264400  0.84486600  1
  O  O19  1  0.22821700  0.22821700  0.15320200  1
  O  O20  1  0.62523000  0.62523000  0.22988700  1
  O  O21  1  0.37708000  0.37708000  0.77242000  1
loop_
_geom_bond_atom_site_label_1
_geom_bond_atom_site_label_2
_geom_bond_distance
_geom_bond_site_symmetry_2
K0 O16 2.672831 1_455
K0 O16 2.672831 1_545
K0 O17 2.771853 1_565
K0 O17 2.771853 1_655
K0 O9 2.948572 1_565
K0 O9 2.948572 1_655
K1 O5 2.689250 1_565
K1 O5 2.689250 1_655
K1 O10 2.818964 1_545
K1 O10 2.818964 1_455
K1 O12 2.892590 1_545
K1 O12 2.892590 1_455
K1 O14 3.034129 1_455
K1 O14 3.034129 1_545
O0 Ti5 1.980554 1_655
O0 Ti5 1.980554 1_565
O0 Ti4 2.190791 1_554
O0 Ti8 2.309078 1_555
O1 Ti4 1.989354 1_455
O1 Ti4 1.989354 1_545
O1 Ti5 2.193512 1_556
O1 Ti9 2.245496 1_555
O2 Ti3 1.971637 1_565
O2 Ti3 1.971637 1_655
O2 Ti0 2.131856 1_555
O2 Ti2 2.385239 1_555
O3 Ti2 1.983590 1_545
O3 Ti2 1.983590 1_455
O3 Ti1 2.083464 1_555
O3 Ti3 2.390287 1_555
O4 Ti4 1.825236 1_555
O4 Ti6 2.228527 1_555
O4 Sr0 2.627117 1_655
O4 Sr0 2.627117 1_565
O5 Ti5 1.793835 1_555
O5 Ti7 2.037644 1_555
O6 Ti1 1.954163 1_655
O6 Ti1 1.954163 1_565
O6 Ti2 2.139151 1_555
O7 Ti0 1.948256 1_545
O7 Ti0 1.948256 1_455
O7 Ti3 2.066803 1_555
O8 Ti2 1.800715 1_555
O8 Ti6 1.853445 1_555
O9 Ti3 1.781183 1_555
O9 Ti7 1.958076 1_555
O10 Ti4 1.823572 1_554
O10 Ti8 1.943714 1_555
O11 Ti5 1.876151 1_556
O11 Ti9 1.988019 1_555
O11 Sr0 2.816934 1_455
O11 Sr0 2.816934 1_545
O12 Ti8 1.766920 1_555
O12 Ti0 2.007429 1_555
O13 Ti9 1.769329 1_555
O13 Ti1 2.165801 1_555
O13 Sr0 2.784623 1_455
O13 Sr0 2.784623 1_545
O14 Ti7 1.849997 1_665
O14 Ti0 1.880723 1_555
O15 Ti6 1.844715 1_445
O15 Ti1 1.919031 1_555
O15 Sr0 2.874617 1_455
O15 Sr0 2.874617 1_545
O16 Ti2 1.829437 1_555
O16 Ti0 1.939104 1_555
O17 Ti1 1.848342 1_555
O17 Ti3 1.898387 1_555
O18 Ti9 1.965834 1_565
O18 Ti9 1.965834 1_655
O18 Ti6 2.197042 1_555
O18 Ti4 2.274043 1_555
O19 Ti8 1.971821 1_545
O19 Ti8 1.971821 1_455
O19 Ti7 2.182703 1_555
O19 Ti5 2.249596 1_555
O20 Ti7 1.952968 1_565
O20 Ti7 1.952968 1_655
O20 Ti8 2.068175 1_555
O21 Ti6 1.957128 1_545
O21 Ti6 1.957128 1_455
O21 Ti9 2.073393 1_555
