# generated using pymatgen
data_Te2MoW2(SeS)2
_symmetry_space_group_name_H-M   'P 1'
_cell_length_a   3.35017865
_cell_length_b   3.35017865
_cell_length_c   32.04871000
_cell_angle_alpha   90.00000000
_cell_angle_beta   90.00000000
_cell_angle_gamma   120.00001274
_symmetry_Int_Tables_number   1
_chemical_formula_structural   Te2MoW2(SeS)2
_chemical_formula_sum   'Te2 Mo1 W2 Se2 S2'
_cell_volume   311.51363550
_cell_formula_units_Z   1
loop_
 _symmetry_equiv_pos_site_id
 _symmetry_equiv_pos_as_xyz
  1  'x, y, z'
loop_
 _atom_site_type_symbol
 _atom_site_label
 _atom_site_symmetry_multiplicity
 _atom_site_fract_x
 _atom_site_fract_y
 _atom_site_fract_z
 _atom_site_occupancy
  Te  Te0  1  0.33333300  0.66666700  0.51999300  1
  Te  Te1  1  0.33333300  0.66666700  0.63887400  1
  Mo  Mo0  1  0.00000000  0.00000000  0.11317000  1
  W  W0  1  0.00000000  0.00000000  0.57939800  1
  W  W1  1  0.33333300  0.66666700  0.34830100  1
  Se  Se0  1  0.33333300  0.66666700  0.06123800  1
  Se  Se1  1  0.33333300  0.66666700  0.16519900  1
  S  S0  1  0.00000000  0.00000000  0.39583100  1
  S  S1  1  0.00000000  0.00000000  0.30083800  1
loop_
_geom_bond_atom_site_label_1
_geom_bond_atom_site_label_2
_geom_bond_distance
_geom_bond_site_symmetry_2
Te0 W0 2.714016 1_565
Te0 W0 2.714018 1_665
Te0 W0 2.714018 1_555
Te1 W0 2.715613 1_565
Te1 W0 2.715615 1_555
Te1 W0 2.715615 1_665
Mo0 Se0 2.551725 1_545
Mo0 Se0 2.551726 1_555
Mo0 Se0 2.551726 1_445
Mo0 Se1 2.553753 1_545
Mo0 Se1 2.553755 1_445
Mo0 Se1 2.553755 1_555
S0 W1 2.462030 1_545
S0 W1 2.462032 1_445
S0 W1 2.462032 1_555
S1 W1 2.460702 1_545
S1 W1 2.460704 1_445
S1 W1 2.460704 1_555
