# generated using pymatgen
data_RbTlS2
_symmetry_space_group_name_H-M   'P 1'
_cell_length_a   8.04554256
_cell_length_b   8.04545731
_cell_length_c   15.84484845
_cell_angle_alpha   82.61262593
_cell_angle_beta   82.61242937
_cell_angle_gamma   90.00417789
_symmetry_Int_Tables_number   1
_chemical_formula_structural   RbTlS2
_chemical_formula_sum   'Rb8 Tl8 S16'
_cell_volume   1008.53798353
_cell_formula_units_Z   8
loop_
 _symmetry_equiv_pos_site_id
 _symmetry_equiv_pos_as_xyz
  1  'x, y, z'
loop_
 _atom_site_type_symbol
 _atom_site_label
 _atom_site_symmetry_multiplicity
 _atom_site_fract_x
 _atom_site_fract_y
 _atom_site_fract_z
 _atom_site_occupancy
  Rb  Rb0  1  0.34581474  0.22267970  0.61547195  1
  Rb  Rb1  1  0.65418572  0.77731966  0.38453121  1
  Rb  Rb2  1  0.77731869  0.65418247  0.88453120  1
  Rb  Rb3  1  0.22268113  0.34581822  0.11546579  1
  Rb  Rb4  1  0.77541327  0.15330024  0.88836142  1
  Rb  Rb5  1  0.22458556  0.84669903  0.11163721  1
  Rb  Rb6  1  0.84670050  0.22458402  0.61164125  1
  Rb  Rb7  1  0.15329784  0.77541441  0.38836077  1
  Tl  Tl0  1  0.28886978  0.91464116  0.84086646  1
  Tl  Tl1  1  0.71113911  0.08536854  0.15913196  1
  Tl  Tl2  1  0.08537407  0.71113489  0.65914321  1
  Tl  Tl3  1  0.91462168  0.28886704  0.34085562  1
  Tl  Tl4  1  0.58381219  0.71102122  0.65913833  1
  Tl  Tl5  1  0.41618076  0.28897896  0.34086164  1
  Tl  Tl6  1  0.28898489  0.41617819  0.84086624  1
  Tl  Tl7  1  0.71100780  0.58381574  0.15913376  1
  S  S0  1  0.57399578  0.95058735  0.74960605  1
  S  S1  1  0.42601394  0.04940792  0.25039429  1
  S  S2  1  0.04941105  0.42600999  0.75040224  1
  S  S3  1  0.95059113  0.57398945  0.24959545  1
  S  S4  1  0.36000642  0.73489990  0.55952285  1
  S  S5  1  0.63999225  0.26510392  0.44047458  1
  S  S6  1  0.26510463  0.63999844  0.94047811  1
  S  S7  1  0.73489419  0.36000347  0.05952122  1
  S  S8  1  0.57423401  0.42577377  0.74999931  1
  S  S9  1  0.42576290  0.57423498  0.25000248  1
  S  S10  1  0.26600319  0.14031933  0.94034038  1
  S  S11  1  0.73399627  0.85967845  0.05966140  1
  S  S12  1  0.85968992  0.73399967  0.55967044  1
  S  S13  1  0.14031282  0.26599372  0.44033367  1
  S  S14  1  0.04962274  0.95040467  0.74999754  1
  S  S15  1  0.95038102  0.04959146  0.25000397  1
loop_
_geom_bond_atom_site_label_1
_geom_bond_atom_site_label_2
_geom_bond_distance
_geom_bond_site_symmetry_2
Rb0 S5 3.387567 1_555
Rb0 S13 3.389282 1_555
Rb0 S0 3.533707 1_545
Rb0 S8 3.534603 1_555
Rb0 S14 3.537393 1_545
Rb0 S2 3.538745 1_555
Rb1 S4 3.387511 1_555
Rb1 S12 3.389306 1_555
Rb1 S1 3.533671 1_565
Rb1 S9 3.534595 1_555
Rb1 S15 3.537406 1_565
Rb1 S3 3.538803 1_555
Rb2 S7 3.387482 1_556
Rb2 S11 3.389127 1_556
Rb2 S2 3.533611 1_655
Rb2 S8 3.534561 1_555
Rb2 S14 3.537718 1_655
Rb2 S0 3.538674 1_555
Rb3 S6 3.387461 1_554
Rb3 S10 3.389075 1_554
Rb3 S3 3.533601 1_455
Rb3 S9 3.534643 1_555
Rb3 S15 3.537754 1_455
Rb3 S1 3.538773 1_555
Rb4 S7 3.340566 1_556
Rb4 S11 3.343212 1_546
Rb4 S8 3.450935 1_555
Rb4 S0 3.457963 1_545
Rb4 S2 3.461025 1_655
Rb4 S14 3.466306 1_645
Rb5 S6 3.340544 1_554
Rb5 S10 3.343169 1_564
Rb5 S9 3.450915 1_555
Rb5 S1 3.458014 1_565
Rb5 S3 3.461002 1_455
Rb5 S15 3.466298 1_465
Rb6 S5 3.340701 1_555
Rb6 S13 3.343261 1_655
Rb6 S8 3.450906 1_555
Rb6 S2 3.458057 1_655
Rb6 S0 3.461039 1_545
Rb6 S14 3.466222 1_645
Rb7 S4 3.340640 1_555
Rb7 S12 3.343263 1_455
Rb7 S9 3.450857 1_555
Rb7 S3 3.458088 1_455
Rb7 S1 3.461088 1_565
Rb7 S15 3.466192 1_465
S0 Tl4 2.541130 1_555
S0 Tl0 2.544859 1_555
S1 Tl5 2.541153 1_555
S1 Tl1 2.544872 1_555
S2 Tl6 2.541158 1_555
S2 Tl2 2.544832 1_555
S3 Tl7 2.541200 1_555
S3 Tl3 2.544825 1_555
S4 Tl4 2.534459 1_555
S4 Tl2 2.536873 1_555
S5 Tl5 2.534467 1_555
S5 Tl3 2.536844 1_555
S6 Tl6 2.534492 1_555
S6 Tl0 2.536856 1_555
S7 Tl7 2.534448 1_555
S7 Tl1 2.536800 1_555
S8 Tl4 2.543069 1_555
S8 Tl6 2.543132 1_555
S9 Tl5 2.543112 1_555
S9 Tl7 2.543122 1_555
S10 Tl6 2.543554 1_555
S10 Tl0 2.544838 1_545
S11 Tl7 2.543564 1_555
S11 Tl1 2.544878 1_565
S12 Tl4 2.543639 1_555
S12 Tl2 2.544883 1_655
S13 Tl5 2.543609 1_555
S13 Tl3 2.544986 1_455
S14 Tl2 2.543048 1_555
S14 Tl0 2.543072 1_555
S15 Tl3 2.543062 1_555
S15 Tl1 2.543074 1_555
