# generated using pymatgen
data_BaDyTi4O12
_symmetry_space_group_name_H-M   'P 1'
_cell_length_a   5.53194107
_cell_length_b   5.53194107
_cell_length_c   7.78621930
_cell_angle_alpha   90.00000000
_cell_angle_beta   90.00000000
_cell_angle_gamma   90.00000000
_symmetry_Int_Tables_number   1
_chemical_formula_structural   BaDyTi4O12
_chemical_formula_sum   'Ba1 Dy1 Ti4 O12'
_cell_volume   238.27677951
_cell_formula_units_Z   1
loop_
 _symmetry_equiv_pos_site_id
 _symmetry_equiv_pos_as_xyz
  1  'x, y, z'
loop_
 _atom_site_type_symbol
 _atom_site_label
 _atom_site_symmetry_multiplicity
 _atom_site_fract_x
 _atom_site_fract_y
 _atom_site_fract_z
 _atom_site_occupancy
  Ba  Ba0  1  0.50000000  0.50000000  0.00000000  1
  Dy  Dy0  1  -0.00000000  -0.00000000  0.50000000  1
  Ti  Ti0  1  -0.00000000  0.50000000  0.74805011  1
  Ti  Ti1  1  0.00000000  0.50000000  0.25194989  1
  Ti  Ti2  1  0.50000000  0.00000000  0.74805011  1
  Ti  Ti3  1  0.50000000  -0.00000000  0.25194989  1
  O  O0  1  0.24146509  0.24146509  0.73131351  1
  O  O1  1  0.24146509  0.24146509  0.26868649  1
  O  O2  1  0.75853491  0.75853491  0.73131351  1
  O  O3  1  0.75853491  0.75853491  0.26868649  1
  O  O4  1  0.75853491  0.24146509  0.73131351  1
  O  O5  1  0.75853491  0.24146509  0.26868649  1
  O  O6  1  0.24146509  0.75853491  0.73131351  1
  O  O7  1  0.24146509  0.75853491  0.26868649  1
  O  O8  1  0.00000000  0.50000000  0.50000000  1
  O  O9  1  -0.00000000  0.50000000  0.00000000  1
  O  O10  1  0.50000000  -0.00000000  0.50000000  1
  O  O11  1  0.50000000  0.00000000  -0.00000000  1
loop_
_geom_bond_atom_site_label_1
_geom_bond_atom_site_label_2
_geom_bond_distance
_geom_bond_site_symmetry_2
Ba0 O9 2.765971 1_555
Ba0 O9 2.765971 1_655
Ba0 O11 2.765971 1_555
Ba0 O11 2.765971 1_565
Ba0 O4 2.909918 1_554
Ba0 O6 2.909918 1_554
Ba0 O0 2.909918 1_554
Ba0 O1 2.909918 1_555
Ba0 O7 2.909918 1_555
Ba0 O5 2.909918 1_555
Ba0 O2 2.909918 1_554
Ba0 O3 2.909918 1_555
Dy0 O3 2.610053 1_445
Dy0 O2 2.610053 1_445
Dy0 O7 2.610053 1_545
Dy0 O4 2.610053 1_455
Dy0 O1 2.610053 1_555
Dy0 O5 2.610053 1_455
Dy0 O0 2.610053 1_555
Dy0 O6 2.610053 1_545
Dy0 O8 2.765971 1_555
Dy0 O8 2.765971 1_545
Dy0 O10 2.765971 1_455
Dy0 O10 2.765971 1_555
O0 Ti2 1.961310 1_555
O0 Ti0 1.961310 1_555
O1 Ti1 1.961310 1_555
O1 Ti3 1.961310 1_555
O2 Ti2 1.961310 1_565
O2 Ti0 1.961310 1_655
O3 Ti1 1.961310 1_655
O3 Ti3 1.961310 1_565
O4 Ti0 1.961310 1_655
O4 Ti2 1.961310 1_555
O5 Ti1 1.961310 1_655
O5 Ti3 1.961310 1_555
O6 Ti2 1.961310 1_565
O6 Ti0 1.961310 1_555
O7 Ti3 1.961310 1_565
O7 Ti1 1.961310 1_555
O8 Ti1 1.931373 1_555
O8 Ti0 1.931373 1_555
O9 Ti1 1.961737 1_555
O9 Ti0 1.961737 1_554
O10 Ti3 1.931373 1_555
O10 Ti2 1.931373 1_555
O11 Ti3 1.961737 1_555
O11 Ti2 1.961737 1_554
