# generated using pymatgen
data_LiMn2Cu(RuO4)2
_symmetry_space_group_name_H-M   'P 1'
_cell_length_a   6.11842219
_cell_length_b   6.02195894
_cell_length_c   5.69517519
_cell_angle_alpha   90.00000000
_cell_angle_beta   62.26310557
_cell_angle_gamma   119.47982756
_symmetry_Int_Tables_number   1
_chemical_formula_structural   LiMn2Cu(RuO4)2
_chemical_formula_sum   'Li1 Mn2 Cu1 Ru2 O8'
_cell_volume   154.37187214
_cell_formula_units_Z   1
loop_
 _symmetry_equiv_pos_site_id
 _symmetry_equiv_pos_as_xyz
  1  'x, y, z'
loop_
 _atom_site_type_symbol
 _atom_site_label
 _atom_site_symmetry_multiplicity
 _atom_site_fract_x
 _atom_site_fract_y
 _atom_site_fract_z
 _atom_site_occupancy
  Li  Li0  1  0.27906100  0.13953000  0.11047000  1
  Mn  Mn0  1  0.49097100  0.99354900  0.50451500  1
  Mn  Mn1  1  0.49097100  0.49742200  0.50451500  1
  Cu  Cu0  1  0.75590200  0.87795100  0.87204900  1
  Ru  Ru0  1  0.99879500  0.49939800  0.02701900  1
  Ru  Ru1  1  0.99879500  0.49939800  0.47418600  1
  O  O0  1  0.99760200  0.28131600  0.75119900  1
  O  O1  1  0.99760200  0.71628600  0.75119900  1
  O  O2  1  0.45861800  0.72930900  0.28428200  1
  O  O3  1  0.45861800  0.72930900  0.75710100  1
  O  O4  1  0.99274200  0.75022300  0.25362900  1
  O  O5  1  0.99274200  0.24251900  0.25362900  1
  O  O6  1  0.54379100  0.27189500  0.70083300  1
  O  O7  1  0.54379100  0.27189500  0.25537600  1
loop_
_geom_bond_atom_site_label_1
_geom_bond_atom_site_label_2
_geom_bond_distance
_geom_bond_site_symmetry_2
Li0 O4 1.964204 1_445
Li0 O5 1.964209 1_455
Li0 O7 1.978247 1_555
Li0 O6 1.978252 1_554
Mn0 O6 1.991806 1_565
Mn0 O7 1.991810 1_565
Mn0 O2 2.016310 1_555
Mn0 O3 2.016310 1_555
Mn0 O1 2.228348 1_455
Mn0 O5 2.258575 1_565
Mn1 O6 1.991811 1_555
Mn1 O7 1.991815 1_555
Mn1 O3 2.016310 1_555
Mn1 O2 2.016310 1_555
Mn1 O0 2.228348 1_455
Mn1 O4 2.258575 1_555
Cu0 O3 2.011004 1_555
Cu0 O2 2.011009 1_556
Cu0 O0 2.019402 1_565
Cu0 O1 2.019403 1_555
O0 Ru1 2.047815 1_555
O0 Ru0 2.047815 1_556
O1 Ru1 2.047811 1_555
O1 Ru0 2.047811 1_556
O2 Ru1 2.082235 1_455
O3 Ru0 2.082235 1_456
O4 Ru1 1.989731 1_555
O4 Ru0 1.989731 1_555
O5 Ru0 1.989735 1_555
O5 Ru1 1.989735 1_555
O6 Ru1 2.048046 1_555
O7 Ru0 2.048046 1_555
