# generated using pymatgen
data_Cu7H9(SN)4
_symmetry_space_group_name_H-M   'P 1'
_cell_length_a   6.83369807
_cell_length_b   8.19214001
_cell_length_c   10.49348941
_cell_angle_alpha   90.00931019
_cell_angle_beta   101.00966668
_cell_angle_gamma   89.99971139
_symmetry_Int_Tables_number   1
_chemical_formula_structural   Cu7H9(SN)4
_chemical_formula_sum   'Cu14 H18 S8 N8'
_cell_volume   576.64084722
_cell_formula_units_Z   2
loop_
 _symmetry_equiv_pos_site_id
 _symmetry_equiv_pos_as_xyz
  1  'x, y, z'
loop_
 _atom_site_type_symbol
 _atom_site_label
 _atom_site_symmetry_multiplicity
 _atom_site_fract_x
 _atom_site_fract_y
 _atom_site_fract_z
 _atom_site_occupancy
  Cu  Cu0  1  0.08470500  0.39873400  0.63113700  1
  Cu  Cu1  1  0.91521600  0.89874600  0.36883800  1
  Cu  Cu2  1  0.56020400  0.61589900  0.64128200  1
  Cu  Cu3  1  0.43961300  0.11578900  0.35869900  1
  Cu  Cu4  1  0.57072300  0.13878000  0.64404000  1
  Cu  Cu5  1  0.42926300  0.63872300  0.35584100  1
  Cu  Cu6  1  0.78458400  0.54726700  0.47253000  1
  Cu  Cu7  1  0.21519800  0.04745900  0.52751800  1
  Cu  Cu8  1  0.95017500  0.89616700  0.62658200  1
  Cu  Cu9  1  0.04979800  0.39622100  0.37343800  1
  Cu  Cu10  1  0.79948000  0.21850700  0.48041400  1
  Cu  Cu11  1  0.20056900  0.71868300  0.51946900  1
  Cu  Cu12  1  0.42519300  0.37642000  0.49559900  1
  Cu  Cu13  1  0.57477700  0.87640800  0.50435400  1
  H  H0  1  0.66351000  0.87751100  0.02844000  1
  H  H1  1  0.33670400  0.37752900  0.97163200  1
  H  H2  1  0.79315400  0.29266200  0.98879000  1
  H  H3  1  0.20683100  0.79259300  0.01124300  1
  H  H4  1  0.79485500  0.64420200  0.97388600  1
  H  H5  1  0.20499200  0.14416000  0.02602900  1
  H  H6  1  0.70614900  0.97465800  0.89736600  1
  H  H7  1  0.29387400  0.47469000  0.10267100  1
  H  H8  1  0.76943700  0.41302000  0.85367700  1
  H  H9  1  0.23053400  0.91297800  0.14637600  1
  H  H10  1  0.76486100  0.11289100  0.14972600  1
  H  H11  1  0.23517500  0.61280000  0.85030600  1
  H  H12  1  0.83678000  0.54269300  0.11192200  1
  H  H13  1  0.16369300  0.04240100  0.88809000  1
  H  H14  1  0.55309800  0.12433700  0.04311700  1
  H  H15  1  0.44686600  0.62445800  0.95697400  1
  H  H16  1  0.99622900  0.41876700  0.96233200  1
  H  H17  1  0.00379500  0.91879400  0.03766100  1
  S  S0  1  0.91312200  0.15134500  0.69093300  1
  S  S1  1  0.08686800  0.65132800  0.30900800  1
  S  S2  1  0.59797300  0.37658500  0.33011700  1
  S  S3  1  0.40196400  0.87675700  0.66982900  1
  S  S4  1  0.41583400  0.37762200  0.70841300  1
  S  S5  1  0.58411000  0.87753300  0.29153600  1
  S  S6  1  0.90384500  0.63512800  0.67360600  1
  S  S7  1  0.09602000  0.13513600  0.32638500  1
  N  N0  1  0.83675000  0.40745200  0.95107600  1
  N  N1  1  0.16327500  0.90741300  0.04896100  1
  N  N2  1  0.75112300  0.96514000  0.99662100  1
  N  N3  1  0.24896300  0.46510700  0.00341000  1
  N  N4  1  0.75616000  0.54002600  0.01756000  1
  N  N5  1  0.24399700  0.03993700  0.98253000  1
  N  N6  1  0.70619600  0.12006400  0.05160600  1
  N  N7  1  0.29376900  0.62004100  0.94843200  1
loop_
_geom_bond_atom_site_label_1
_geom_bond_atom_site_label_2
_geom_bond_distance
_geom_bond_site_symmetry_2
Cu0 S4 2.259886 1_555
Cu0 S6 2.384647 1_455
Cu0 S0 2.481396 1_455
Cu1 S5 2.259830 1_555
Cu1 S7 2.384488 1_665
Cu1 S1 2.481781 1_655
Cu2 S6 2.313074 1_555
Cu2 S4 2.354950 1_555
Cu2 S3 2.439115 1_555
Cu3 S7 2.312827 1_555
Cu3 S5 2.355150 1_545
Cu3 S2 2.439224 1_555
Cu4 S0 2.299533 1_555
Cu4 S4 2.382787 1_555
Cu4 S3 2.475928 1_545
Cu5 S1 2.299515 1_555
Cu5 S5 2.382355 1_555
Cu5 S2 2.476360 1_555
Cu6 S6 2.230928 1_555
Cu6 S2 2.255228 1_555
Cu7 S7 2.231080 1_555
Cu7 S3 2.255495 1_545
Cu8 S0 2.225969 1_565
Cu8 S6 2.230873 1_555
Cu9 S1 2.225922 1_555
Cu9 S7 2.231017 1_555
Cu10 S0 2.265168 1_555
Cu10 S2 2.287303 1_555
Cu11 S1 2.264889 1_555
Cu11 S3 2.287023 1_555
Cu12 S4 2.246273 1_555
Cu12 S2 2.278729 1_555
Cu13 S5 2.246277 1_555
Cu13 S3 2.278817 1_555
H0 N2 1.030400 1_554
H1 N3 1.030405 1_556
H2 N0 1.083900 1_555
H3 N1 1.083923 1_555
H4 N4 1.026988 1_556
H5 N5 1.027002 1_554
H6 N2 1.031061 1_555
H7 N3 1.031091 1_555
H8 N0 1.038614 1_555
H9 N1 1.038656 1_555
H10 N6 1.032789 1_555
H11 N7 1.032764 1_555
H12 N4 1.037354 1_555
H13 N5 1.037275 1_555
H14 N6 1.033515 1_555
H15 N7 1.033488 1_555
H16 N0 1.077547 1_555
H17 N1 1.077564 1_555
