# generated using pymatgen
data_V4Cu3O10
_symmetry_space_group_name_H-M   'P 1'
_cell_length_a   11.80038852
_cell_length_b   4.18863755
_cell_length_c   8.81896039
_cell_angle_alpha   90.00000000
_cell_angle_beta   111.81341689
_cell_angle_gamma   90.00000000
_symmetry_Int_Tables_number   1
_chemical_formula_structural   V4Cu3O10
_chemical_formula_sum   'V8 Cu6 O20'
_cell_volume   404.68869126
_cell_formula_units_Z   2
loop_
 _symmetry_equiv_pos_site_id
 _symmetry_equiv_pos_as_xyz
  1  'x, y, z'
loop_
 _atom_site_type_symbol
 _atom_site_label
 _atom_site_symmetry_multiplicity
 _atom_site_fract_x
 _atom_site_fract_y
 _atom_site_fract_z
 _atom_site_occupancy
  V  V0  1  0.22605007  0.50000000  0.85877030  1
  V  V1  1  0.72605007  0.00000000  0.85877030  1
  V  V2  1  0.03141512  0.00000000  0.83640906  1
  V  V3  1  0.53141512  0.50000000  0.83640906  1
  V  V4  1  0.27558890  -0.00000000  0.14071853  1
  V  V5  1  0.77558890  0.50000000  0.14071853  1
  V  V6  1  0.47011699  0.50000000  0.16314180  1
  V  V7  1  0.97011699  0.00000000  0.16314180  1
  Cu  Cu0  1  0.50203972  0.00000000  0.49894392  1
  Cu  Cu1  1  0.00203972  0.50000000  0.49894392  1
  Cu  Cu2  1  0.25243421  0.75001159  0.50060050  1
  Cu  Cu3  1  0.25243421  0.24998841  0.50060050  1
  Cu  Cu4  1  0.75243421  0.25001159  0.50060050  1
  Cu  Cu5  1  0.75243421  0.74998841  0.50060050  1
  O  O0  1  0.06560311  0.50000000  0.84753027  1
  O  O1  1  0.56560311  -0.00000000  0.84753027  1
  O  O2  1  0.17787737  0.50000000  0.61366930  1
  O  O3  1  0.67787737  0.00000000  0.61366930  1
  O  O4  1  0.38897345  0.50000000  0.89757451  1
  O  O5  1  0.88897345  -0.00000000  0.89757451  1
  O  O6  1  0.96099097  0.00000000  0.63016634  1
  O  O7  1  0.46099097  0.50000000  0.63016634  1
  O  O8  1  0.21190054  -0.00000000  0.88523864  1
  O  O9  1  0.71190054  0.50000000  0.88523864  1
  O  O10  1  0.43581540  -0.00000000  0.15146580  1
  O  O11  1  0.93581540  0.50000000  0.15146580  1
  O  O12  1  0.32580929  0.00000000  0.38614737  1
  O  O13  1  0.82580929  0.50000000  0.38614737  1
  O  O14  1  0.11279577  -0.00000000  0.10221664  1
  O  O15  1  0.61279577  0.50000000  0.10221664  1
  O  O16  1  0.04060239  0.00000000  0.36945255  1
  O  O17  1  0.54060239  0.50000000  0.36945255  1
  O  O18  1  0.28955349  0.50000000  0.11424997  1
  O  O19  1  0.78955349  -0.00000000  0.11424997  1
loop_
_geom_bond_atom_site_label_1
_geom_bond_atom_site_label_2
_geom_bond_distance
_geom_bond_site_symmetry_2
Cu0 O3 1.941368 1_555
Cu0 O12 1.943409 1_555
Cu0 O17 2.506703 1_545
Cu0 O17 2.506703 1_555
Cu0 O7 2.525196 1_555
Cu0 O7 2.525196 1_545
Cu1 O2 1.941368 1_555
Cu1 O13 1.943409 1_455
Cu1 O16 2.506703 1_565
Cu1 O16 2.506703 1_555
Cu1 O6 2.525196 1_465
Cu1 O6 2.525196 1_455
Cu2 O12 1.874686 1_565
Cu2 O2 1.875360 1_555
Cu3 O12 1.874686 1_555
Cu3 O2 1.875360 1_555
Cu4 O13 1.874686 1_555
Cu4 O3 1.875360 1_555
Cu5 O13 1.874686 1_555
Cu5 O3 1.875360 1_565
O0 V0 1.858782 1_555
O0 V2 2.128178 1_565
O0 V2 2.128178 1_555
O1 V1 1.858782 1_555
O1 V3 2.128178 1_545
O1 V3 2.128178 1_555
O2 V0 2.020450 1_555
O3 V1 2.020450 1_555
O4 V0 1.823292 1_555
O4 V3 1.946819 1_555
O4 V6 2.176086 1_556
O5 V1 1.823292 1_555
O5 V2 1.946819 1_655
O5 V7 2.176086 1_556
O6 V2 1.695730 1_655
O7 V3 1.695730 1_555
O8 V2 2.009946 1_555
O8 V4 2.093498 1_556
O8 V0 2.120731 1_545
O8 V0 2.120731 1_555
O9 V3 2.009946 1_555
O9 V5 2.093498 1_556
O9 V1 2.120731 1_565
O9 V1 2.120731 1_555
O10 V4 1.857601 1_555
O10 V6 2.128295 1_545
O10 V6 2.128295 1_555
O11 V5 1.857601 1_555
O11 V7 2.128295 1_565
O11 V7 2.128295 1_555
O12 V4 2.020567 1_555
O13 V5 2.020567 1_555
O14 V4 1.822324 1_555
O14 V7 1.948258 1_455
O14 V2 2.178133 1_554
O15 V5 1.822324 1_555
O15 V6 1.948258 1_555
O15 V3 2.178133 1_554
O16 V7 1.696330 1_455
O17 V6 1.696330 1_555
O18 V6 2.010750 1_555
O18 V0 2.093587 1_554
O18 V4 2.120472 1_565
O18 V4 2.120472 1_555
O19 V7 2.010750 1_555
O19 V1 2.093587 1_554
O19 V5 2.120472 1_555
O19 V5 2.120472 1_545
