# generated using pymatgen
data_MgZn4(SnO2)4
_symmetry_space_group_name_H-M   'P 1'
_cell_length_a   3.27143413
_cell_length_b   10.32464175
_cell_length_c   9.13541395
_cell_angle_alpha   83.35877699
_cell_angle_beta   80.65736959
_cell_angle_gamma   86.74256514
_symmetry_Int_Tables_number   1
_chemical_formula_structural   MgZn4(SnO2)4
_chemical_formula_sum   'Mg1 Zn4 Sn4 O8'
_cell_volume   302.19726364
_cell_formula_units_Z   1
loop_
 _symmetry_equiv_pos_site_id
 _symmetry_equiv_pos_as_xyz
  1  'x, y, z'
loop_
 _atom_site_type_symbol
 _atom_site_label
 _atom_site_symmetry_multiplicity
 _atom_site_fract_x
 _atom_site_fract_y
 _atom_site_fract_z
 _atom_site_occupancy
  Mg  Mg0  1  0.13802500  0.97216300  0.10308800  1
  Zn  Zn0  1  0.52037400  0.03194800  0.34571500  1
  Zn  Zn1  1  0.32347500  0.99609200  0.74936600  1
  Zn  Zn2  1  0.69988800  0.74363000  0.95104800  1
  Zn  Zn3  1  0.67634900  0.21328400  0.94653400  1
  Sn  Sn0  1  0.86742000  0.26577900  0.56386200  1
  Sn  Sn1  1  0.02512900  0.43447200  0.16219700  1
  Sn  Sn2  1  0.19559000  0.50022500  0.78267300  1
  Sn  Sn3  1  0.99895900  0.77088100  0.50628700  1
  O  O0  1  0.44115500  0.87464100  0.59258000  1
  O  O1  1  0.15017200  0.32894200  0.95827100  1
  O  O2  1  0.07992600  0.59799600  0.99028400  1
  O  O3  1  0.42601800  0.17030000  0.47258700  1
  O  O4  1  0.79867800  0.11455100  0.75788500  1
  O  O5  1  0.61657500  0.07370100  0.11118900  1
  O  O6  1  0.05027600  0.91930700  0.32360900  1
  O  O7  1  0.22812200  0.86267600  0.93701000  1
loop_
_geom_bond_atom_site_label_1
_geom_bond_atom_site_label_2
_geom_bond_distance
_geom_bond_site_symmetry_2
Mg0 O5 1.946350 1_465
Mg0 O5 1.948720 1_565
Mg0 O7 1.969828 1_554
Mg0 O6 2.003592 1_555
O0 Zn1 1.988367 1_555
O0 Sn3 2.145581 1_455
O0 Sn3 2.145969 1_555
O1 Zn3 2.033254 1_455
O1 Zn3 2.033860 1_555
O1 Sn1 2.235279 1_556
O1 Sn2 2.240328 1_555
O2 Zn2 1.934591 1_455
O2 Sn1 2.163036 1_556
O2 Sn2 2.219399 1_555
O2 Zn2 2.547288 1_555
O3 Zn0 1.922429 1_555
O3 Sn0 2.120159 1_555
O3 Sn0 2.120656 1_455
O4 Zn1 2.046813 1_645
O4 Zn1 2.048424 1_545
O4 Zn3 2.074951 1_555
O4 Sn0 2.213708 1_555
O5 Zn3 1.952651 1_554
O5 Zn0 2.111402 1_555
O6 Zn0 2.027315 1_465
O6 Zn0 2.028999 1_565
O6 Sn3 2.123284 1_455
O7 Zn2 1.929069 1_555
O7 Zn1 2.064530 1_555
O7 Zn2 2.155549 1_455
