# generated using pymatgen
data_Mg4Si3
_symmetry_space_group_name_H-M   'P 1'
_cell_length_a   4.74802200
_cell_length_b   7.53427406
_cell_length_c   8.00762860
_cell_angle_alpha   88.99618472
_cell_angle_beta   87.99719496
_cell_angle_gamma   87.81019224
_symmetry_Int_Tables_number   1
_chemical_formula_structural   Mg4Si3
_chemical_formula_sum   'Mg8 Si6'
_cell_volume   286.03446977
_cell_formula_units_Z   2
loop_
 _symmetry_equiv_pos_site_id
 _symmetry_equiv_pos_as_xyz
  1  'x, y, z'
loop_
 _atom_site_type_symbol
 _atom_site_label
 _atom_site_symmetry_multiplicity
 _atom_site_fract_x
 _atom_site_fract_y
 _atom_site_fract_z
 _atom_site_occupancy
  Mg  Mg0  1  0.52559700  0.81838600  0.57523500  1
  Mg  Mg1  1  0.67996300  0.93370500  0.19808100  1
  Mg  Mg2  1  0.57413900  0.28306200  0.96182000  1
  Mg  Mg3  1  0.05608500  0.50933100  0.05763900  1
  Mg  Mg4  1  0.69818500  0.29111500  0.38123500  1
  Mg  Mg5  1  0.10008900  0.57687100  0.44076500  1
  Mg  Mg6  1  0.12204900  0.25204400  0.68468000  1
  Mg  Mg7  1  0.00818600  0.85742400  0.83316200  1
  Si  Si0  1  0.51046900  0.67793100  0.89920500  1
  Si  Si1  1  0.01776000  0.94391100  0.50240600  1
  Si  Si2  1  0.07213900  0.13884300  0.03006700  1
  Si  Si3  1  0.55886600  0.59383200  0.20136100  1
  Si  Si4  1  0.21936000  0.15877600  0.31476000  1
  Si  Si5  1  0.60696200  0.46480600  0.66968400  1
loop_
_geom_bond_atom_site_label_1
_geom_bond_atom_site_label_2
_geom_bond_distance
_geom_bond_site_symmetry_2
Mg0 Si1 2.597976 1_655
Mg0 Si1 2.636895 1_555
Mg0 Si5 2.772934 1_555
Mg0 Si0 2.784176 1_555
Mg1 Si3 2.645288 1_555
Mg1 Si2 2.763710 1_665
Mg1 Si4 2.856670 1_565
Mg1 Si1 2.967503 1_655
Mg1 Si0 3.240958 1_554
Mg2 Si2 2.635039 1_656
Mg2 Si2 2.691932 1_556
Mg2 Si5 2.692636 1_555
Mg2 Si0 3.013854 1_555
Mg2 Si3 3.049840 1_556
Mg3 Si3 2.650311 1_455
Mg3 Si3 2.786123 1_555
Mg3 Si0 2.799874 1_554
Mg3 Si2 2.801856 1_555
Mg3 Si0 3.139447 1_454
Mg4 Si4 2.592799 1_555
Mg4 Si4 2.671870 1_655
Mg4 Si5 2.688482 1_555
Mg4 Si3 2.747772 1_555
Mg4 Si1 3.130103 1_645
Mg5 Si1 2.827631 1_555
Mg5 Si3 2.856076 1_555
Mg5 Si5 3.058110 1_455
Mg5 Si5 3.156568 1_555
Mg6 Si1 2.832366 1_545
Mg6 Si5 2.853239 1_555
Mg6 Si5 2.877397 1_455
Mg6 Si2 2.884411 1_556
Mg6 Si4 3.071523 1_555
Mg7 Si2 2.696988 1_566
Mg7 Si1 2.715691 1_555
Mg7 Si0 2.759107 1_555
Mg7 Si0 2.797306 1_455
Si0 Si5 2.480844 1_555
Si0 Si3 2.506499 1_556
Si1 Si4 2.393194 1_565
Si2 Si4 2.416542 1_555
