# generated using pymatgen
data_Tm3B3O7
_symmetry_space_group_name_H-M   'P 1'
_cell_length_a   3.94289725
_cell_length_b   3.94289710
_cell_length_c   24.90690700
_cell_angle_alpha   90.00000000
_cell_angle_beta   90.00000000
_cell_angle_gamma   124.27092604
_symmetry_Int_Tables_number   1
_chemical_formula_structural   Tm3B3O7
_chemical_formula_sum   'Tm6 B6 O14'
_cell_volume   319.98725204
_cell_formula_units_Z   2
loop_
 _symmetry_equiv_pos_site_id
 _symmetry_equiv_pos_as_xyz
  1  'x, y, z'
loop_
 _atom_site_type_symbol
 _atom_site_label
 _atom_site_symmetry_multiplicity
 _atom_site_fract_x
 _atom_site_fract_y
 _atom_site_fract_z
 _atom_site_occupancy
  Tm  Tm0  1  0.00536400  0.99463600  0.00430400  1
  Tm  Tm1  1  0.00006300  0.99993700  0.16796800  1
  Tm  Tm2  1  0.00006300  0.99993700  0.33203200  1
  Tm  Tm3  1  0.00536400  0.99463600  0.49569600  1
  Tm  Tm4  1  0.01124100  0.98875900  0.66827700  1
  Tm  Tm5  1  0.01124100  0.98875900  0.83172300  1
  B  B0  1  0.24344800  0.75655200  0.08574500  1
  B  B1  1  0.24344800  0.75655200  0.41425500  1
  B  B2  1  0.25335600  0.74664400  0.75000000  1
  B  B3  1  0.75974400  0.24025600  0.25000000  1
  B  B4  1  0.64084900  0.35915100  0.91813400  1
  B  B5  1  0.64084900  0.35915100  0.58186600  1
  O  O0  1  0.02720700  0.97279300  0.91800500  1
  O  O1  1  0.34888300  0.65111700  0.03804600  1
  O  O2  1  0.33984200  0.66015800  0.36536400  1
  O  O3  1  0.35493600  0.64506400  0.70169700  1
  O  O4  1  0.33984200  0.66015800  0.13463600  1
  O  O5  1  0.34888300  0.65111700  0.46195400  1
  O  O6  1  0.35493600  0.64506400  0.79830300  1
  O  O7  1  0.02720700  0.97279300  0.58199500  1
  O  O8  1  0.65953600  0.34046400  0.29831100  1
  O  O9  1  0.65953600  0.34046400  0.20168900  1
  O  O10  1  0.67960200  0.32039800  0.52901800  1
  O  O11  1  0.68248000  0.31752000  0.86531300  1
  O  O12  1  0.68248000  0.31752000  0.63468700  1
  O  O13  1  0.67960200  0.32039800  0.97098200  1
loop_
_geom_bond_atom_site_label_1
_geom_bond_atom_site_label_2
_geom_bond_distance
_geom_bond_site_symmetry_2
B0 O4 1.390844 1_555
B0 O1 1.397035 1_555
B0 Tm0 2.620975 1_555
B0 Tm1 2.659502 1_555
B1 O2 1.390844 1_555
B1 O5 1.397035 1_555
B1 Tm3 2.620975 1_555
B1 Tm2 2.659502 1_555
B2 O6 1.396027 1_555
B2 O3 1.396027 1_555
B2 Tm5 2.644264 1_555
B2 Tm4 2.644264 1_555
B3 O8 1.391372 1_555
B3 O9 1.391372 1_555
B3 Tm1 2.642236 1_645
B3 Tm2 2.642236 1_645
B4 O13 1.343720 1_555
B4 O11 1.347240 1_555
B4 O0 2.005926 1_655
B4 O0 2.005927 1_545
B5 O10 1.343720 1_555
B5 O12 1.347240 1_555
B5 O7 2.005926 1_655
B5 O7 2.005927 1_545
O0 Tm5 2.151898 1_555
O0 Tm0 2.154829 1_556
O1 Tm0 2.300527 1_545
O1 Tm0 2.300527 1_655
O1 Tm0 2.538015 1_555
O2 Tm2 2.309314 1_545
O2 Tm2 2.309314 1_655
O2 Tm2 2.510031 1_555
O3 Tm4 2.297027 1_545
O3 Tm4 2.297027 1_655
O3 Tm4 2.536530 1_555
O4 Tm1 2.309314 1_545
O4 Tm1 2.309314 1_655
O4 Tm1 2.510031 1_555
O5 Tm3 2.300527 1_545
O5 Tm3 2.300527 1_655
O5 Tm3 2.538015 1_555
O6 Tm5 2.297027 1_545
O6 Tm5 2.297027 1_655
O6 Tm5 2.536530 1_555
O7 Tm4 2.151898 1_555
O7 Tm3 2.154829 1_555
O8 Tm2 2.310301 1_655
O8 Tm2 2.310301 1_545
O8 Tm2 2.518168 1_645
O9 Tm1 2.310301 1_655
O9 Tm1 2.310301 1_545
O9 Tm1 2.518168 1_645
O10 Tm3 2.358043 1_655
O10 Tm3 2.358043 1_545
O10 Tm3 2.417943 1_645
O11 Tm5 2.349710 1_655
O11 Tm5 2.349710 1_545
O11 Tm5 2.439871 1_645
O12 Tm4 2.349710 1_655
O12 Tm4 2.349710 1_545
O12 Tm4 2.439871 1_645
O13 Tm0 2.358043 1_656
O13 Tm0 2.358043 1_546
O13 Tm0 2.417943 1_646
