# generated using pymatgen
data_LiPr2Ta2Cl2O7
_symmetry_space_group_name_H-M   'P 1'
_cell_length_a   4.03252214
_cell_length_b   6.87645662
_cell_length_c   8.25719745
_cell_angle_alpha   110.51823096
_cell_angle_beta   104.13014064
_cell_angle_gamma   90.00120668
_symmetry_Int_Tables_number   1
_chemical_formula_structural   LiPr2Ta2Cl2O7
_chemical_formula_sum   'Li1 Pr2 Ta2 Cl2 O7'
_cell_volume   207.02845364
_cell_formula_units_Z   1
loop_
 _symmetry_equiv_pos_site_id
 _symmetry_equiv_pos_as_xyz
  1  'x, y, z'
loop_
 _atom_site_type_symbol
 _atom_site_label
 _atom_site_symmetry_multiplicity
 _atom_site_fract_x
 _atom_site_fract_y
 _atom_site_fract_z
 _atom_site_occupancy
  Li  Li0  1  0.87031400  0.54966900  0.74140600  1
  Pr  Pr0  1  0.30765900  0.88179800  0.61599400  1
  Pr  Pr1  1  0.67443600  0.16072900  0.34931100  1
  Ta  Ta0  1  0.95773500  0.21599100  0.91613900  1
  Ta  Ta1  1  0.03760000  0.82685400  0.07571000  1
  Cl  Cl0  1  0.68492000  0.59572100  0.37055900  1
  Cl  Cl1  1  0.30670700  0.44207600  0.61411100  1
  O  O0  1  0.44881400  0.18920500  0.89824500  1
  O  O1  1  0.54412000  0.84032300  0.08868900  1
  O  O2  1  0.91640500  0.85186000  0.83351000  1
  O  O3  1  0.98584800  0.51546700  0.97241300  1
  O  O4  1  0.82110200  0.09854200  0.64280200  1
  O  O5  1  0.07109900  0.16554700  0.14268200  1
  O  O6  1  0.17324100  0.95325400  0.34676200  1
loop_
_geom_bond_atom_site_label_1
_geom_bond_atom_site_label_2
_geom_bond_distance
_geom_bond_site_symmetry_2
Li0 O2 1.937563 1_555
Li0 O3 1.947153 1_555
Cl0 Pr1 2.933999 1_555
Cl0 Pr0 3.000349 1_555
Cl0 Pr0 3.000565 1_655
Cl1 Li0 2.259652 1_555
Cl1 Li0 2.259864 1_455
Cl1 Pr0 3.018312 1_555
Cl1 Pr1 3.055642 1_455
Cl1 Pr1 3.056218 1_555
O0 Ta0 2.024916 1_555
O0 Ta0 2.025115 1_455
O0 Pr0 2.474429 1_545
O1 Ta1 2.019212 1_655
O1 Ta1 2.019466 1_555
O1 Pr1 2.426033 1_565
O2 Ta1 2.007947 1_656
O2 Ta0 2.347301 1_565
O2 Pr0 2.720346 1_655
O2 Pr0 2.720433 1_555
O3 Ta0 1.942445 1_555
O3 Ta1 1.997185 1_656
O4 Ta0 2.040804 1_555
O4 Pr0 2.470007 1_645
O4 Pr0 2.470233 1_545
O4 Pr1 2.536191 1_555
O5 Ta0 1.966173 1_454
O5 Ta1 2.192940 1_545
O5 Pr1 2.615878 1_455
O5 Pr1 2.616170 1_555
O6 Ta1 2.025449 1_555
O6 Pr0 2.377991 1_555
O6 Pr1 2.465506 1_565
O6 Pr1 2.466077 1_465
