# generated using pymatgen
data_Li11V6O5F19
_symmetry_space_group_name_H-M   'P 1'
_cell_length_a   5.10903000
_cell_length_b   5.48015024
_cell_length_c   16.24290566
_cell_angle_alpha   99.44621212
_cell_angle_beta   89.96736418
_cell_angle_gamma   90.46081560
_symmetry_Int_Tables_number   1
_chemical_formula_structural   Li11V6O5F19
_chemical_formula_sum   'Li11 V6 O5 F19'
_cell_volume   448.59165520
_cell_formula_units_Z   1
loop_
 _symmetry_equiv_pos_site_id
 _symmetry_equiv_pos_as_xyz
  1  'x, y, z'
loop_
 _atom_site_type_symbol
 _atom_site_label
 _atom_site_symmetry_multiplicity
 _atom_site_fract_x
 _atom_site_fract_y
 _atom_site_fract_z
 _atom_site_occupancy
  Li  Li0  1  0.96843100  0.10714500  0.46007200  1
  Li  Li1  1  0.97333600  0.07627900  0.22446000  1
  Li  Li2  1  0.49351200  0.21576900  0.56398700  1
  Li  Li3  1  0.51713300  0.23560400  0.81043900  1
  Li  Li4  1  0.99757200  0.41940400  0.90050000  1
  Li  Li5  1  0.48040100  0.12834800  0.11066900  1
  Li  Li6  1  0.53659200  0.60593100  0.45902600  1
  Li  Li7  1  0.01424300  0.68637200  0.55937700  1
  Li  Li8  1  0.51735100  0.58159300  0.22686800  1
  Li  Li9  1  0.52586300  0.83131100  0.88990600  1
  Li  Li10  1  0.01561900  0.58497500  0.10456400  1
  V  V0  1  0.52131700  0.16869900  0.32808400  1
  V  V1  1  0.98682000  0.34078500  0.67051800  1
  V  V2  1  0.00568000  0.00046000  0.99772800  1
  V  V3  1  0.50390100  0.49839800  0.00187400  1
  V  V4  1  0.97784600  0.66980300  0.32715100  1
  V  V5  1  0.52206500  0.80612100  0.66614000  1
  O  O0  1  0.79129700  0.37371500  0.29447400  1
  O  O1  1  0.70193700  0.50992700  0.62923700  1
  O  O2  1  0.79467900  0.69512400  0.96688700  1
  O  O3  1  0.20503700  0.31019300  0.03277000  1
  O  O4  1  0.70633400  0.87350900  0.29380800  1
  F  F0  1  0.82621700  0.00411800  0.62439800  1
  F  F1  1  0.70318200  0.18463400  0.94577700  1
  F  F2  1  0.33293000  0.16341900  0.69089000  1
  F  F3  1  0.86214800  0.35186200  0.78404400  1
  F  F4  1  0.84253700  0.01735900  0.11229500  1
  F  F5  1  0.63465300  0.24604700  0.45593000  1
  F  F6  1  0.35936600  0.49377100  0.88345800  1
  F  F7  1  0.33587300  0.17900700  0.21865700  1
  F  F8  1  0.13948200  0.32229600  0.55155100  1
  F  F9  1  0.18042700  0.66128600  0.69519700  1
  F  F10  1  0.30453000  0.49914500  0.37036600  1
  F  F11  1  0.65419200  0.48837600  0.11550800  1
  F  F12  1  0.18203000  0.98394300  0.88954200  1
  F  F13  1  0.87035700  0.74676400  0.45580300  1
  F  F14  1  0.61327600  0.89162800  0.78077900  1
  F  F15  1  0.37198800  0.82246400  0.55227300  1
  F  F16  1  0.15502900  0.67680500  0.21576300  1
  F  F17  1  0.30566300  0.81918600  0.04887700  1
  F  F18  1  0.19517500  0.99795800  0.37043400  1
loop_
_geom_bond_atom_site_label_1
_geom_bond_atom_site_label_2
_geom_bond_distance
_geom_bond_site_symmetry_2
Li1 O0 2.056666 1_555
Li1 O4 2.179253 1_545
Li2 O1 2.066082 1_555
Li4 O2 2.002366 1_555
Li4 O3 2.555851 1_656
Li5 O3 2.238697 1_555
Li7 O1 2.258705 1_455
Li8 O4 2.019662 1_555
Li8 O0 2.213717 1_555
Li9 O2 2.081213 1_555
Li10 O3 2.002433 1_555
O0 V4 1.875086 1_555
O0 V0 1.907469 1_555
O1 V5 1.882164 1_555
O1 V1 1.911550 1_555
O2 V3 1.966366 1_556
O2 V2 1.977221 1_665
O3 V3 1.946983 1_555
O3 V2 1.974384 1_554
O4 V0 1.883813 1_565
O4 V4 1.920409 1_555
F0 V1 2.039877 1_555
F0 V5 2.065157 1_545
F0 Li7 2.119536 1_645
F0 Li2 2.367422 1_555
F1 V3 2.082369 1_556
F1 V2 2.103655 1_655
F1 Li4 2.176346 1_555
F1 Li9 2.188454 1_545
F1 Li3 2.454012 1_555
F2 V1 2.077255 1_455
F2 Li3 2.134662 1_555
F2 V5 2.168156 1_545
F2 Li2 2.278735 1_555
F3 Li3 1.941015 1_555
F3 V1 1.942226 1_555
F3 Li4 1.990314 1_555
F4 Li1 1.917006 1_555
F4 Li5 1.953762 1_555
F4 V2 2.027107 1_654
F5 Li0 1.878767 1_555
F5 Li2 1.928813 1_555
F5 Li6 2.031374 1_555
F5 V0 2.129714 1_555
F6 Li3 1.877363 1_555
F6 Li4 1.919294 1_455
F6 Li9 2.016780 1_555
F6 V3 2.056886 1_556
F7 Li5 1.881738 1_555
F7 Li1 1.938286 1_455
F7 V0 2.023799 1_555
F7 Li8 2.369716 1_555
F8 Li2 1.925952 1_555
F8 Li0 1.942057 1_455
F8 V1 2.070733 1_455
F8 Li7 2.084118 1_555
F9 V1 1.991335 1_455
F9 V5 1.999760 1_555
F9 Li7 2.389614 1_555
F10 Li6 1.880471 1_555
F10 V4 2.096423 1_455
F10 V0 2.144967 1_555
F11 Li8 1.929386 1_555
F11 Li10 1.932963 1_655
F11 V3 2.008717 1_555
F11 Li5 2.146697 1_555
F12 Li9 1.952121 1_555
F12 V2 1.963465 1_565
F13 Li6 1.870333 1_555
F13 Li7 1.915278 1_655
F13 Li0 2.023719 1_565
F13 V4 2.135265 1_555
F14 V5 1.901344 1_555
F14 Li9 1.907786 1_555
F14 Li3 1.934756 1_565
F15 Li6 1.958060 1_555
F15 Li7 1.978943 1_555
F15 V5 2.018361 1_555
F15 Li2 2.216145 1_565
F16 Li10 1.928791 1_555
F16 Li8 1.943764 1_555
F16 V4 2.028478 1_455
F16 Li1 2.367525 1_465
F17 Li5 2.023210 1_565
F17 V3 2.070339 1_555
F17 V2 2.079155 1_564
F17 Li10 2.238386 1_555
F18 Li0 1.882330 1_465
F18 V0 2.076063 1_565
F18 V4 2.124833 1_455
