# generated using pymatgen
data_HfCrSi
_symmetry_space_group_name_H-M   'P 1'
_cell_length_a   3.45723900
_cell_length_b   6.73006900
_cell_length_c   7.85571300
_cell_angle_alpha   90.00000000
_cell_angle_beta   90.00000000
_cell_angle_gamma   90.00000000
_symmetry_Int_Tables_number   1
_chemical_formula_structural   HfCrSi
_chemical_formula_sum   'Hf4 Cr4 Si4'
_cell_volume   182.78246458
_cell_formula_units_Z   4
loop_
 _symmetry_equiv_pos_site_id
 _symmetry_equiv_pos_as_xyz
  1  'x, y, z'
loop_
 _atom_site_type_symbol
 _atom_site_label
 _atom_site_symmetry_multiplicity
 _atom_site_fract_x
 _atom_site_fract_y
 _atom_site_fract_z
 _atom_site_occupancy
  Hf  Hf0  1  0.75000000  0.45852500  0.17022000  1
  Hf  Hf1  1  0.75000000  0.95852500  0.32978000  1
  Hf  Hf2  1  0.25000000  0.54147500  0.82978000  1
  Hf  Hf3  1  0.25000000  0.04147500  0.67022000  1
  Cr  Cr0  1  0.75000000  0.37368800  0.56150100  1
  Cr  Cr1  1  0.75000000  0.87368700  0.93849900  1
  Cr  Cr2  1  0.25000000  0.62631300  0.43849900  1
  Cr  Cr3  1  0.25000000  0.12631200  0.06150100  1
  Si  Si0  1  0.75000000  0.23880300  0.86834100  1
  Si  Si1  1  0.75000000  0.73880300  0.63165900  1
  Si  Si2  1  0.25000000  0.76119700  0.13165900  1
  Si  Si3  1  0.25000000  0.26119700  0.36834100  1
loop_
_geom_bond_atom_site_label_1
_geom_bond_atom_site_label_2
_geom_bond_distance
_geom_bond_site_symmetry_2
Hf0 Si3 2.678454 1_555
Hf0 Si3 2.678454 1_655
Hf0 Si2 2.688730 1_655
Hf0 Si2 2.688730 1_555
Hf0 Si0 2.794741 1_554
Hf1 Si2 2.678454 1_555
Hf1 Si2 2.678454 1_655
Hf1 Si3 2.688730 1_665
Hf1 Si3 2.688730 1_565
Hf1 Si1 2.794741 1_555
Hf2 Si1 2.678454 1_555
Hf2 Si1 2.678454 1_455
Hf2 Si0 2.688730 1_555
Hf2 Si0 2.688730 1_455
Hf2 Si2 2.794741 1_556
Hf3 Si0 2.678454 1_455
Hf3 Si0 2.678454 1_555
Hf3 Si1 2.688730 1_545
Hf3 Si1 2.688730 1_445
Hf3 Si3 2.794741 1_555
Cr0 Si3 2.421532 1_655
Cr0 Si3 2.421532 1_555
Cr0 Si1 2.518299 1_555
Cr0 Si0 2.575719 1_555
Cr0 Hf2 2.950409 1_655
Cr0 Hf2 2.950409 1_555
Cr0 Hf3 2.952360 1_555
Cr0 Hf3 2.952360 1_655
Cr1 Si2 2.421530 1_556
Cr1 Si2 2.421530 1_656
Cr1 Si0 2.518306 1_565
Cr1 Si1 2.575717 1_555
Cr1 Hf3 2.950411 1_665
Cr1 Hf3 2.950411 1_565
Cr1 Hf2 2.952355 1_555
Cr1 Hf2 2.952355 1_655
Cr2 Si1 2.421530 1_555
Cr2 Si1 2.421530 1_455
Cr2 Si3 2.518306 1_555
Cr2 Si2 2.575717 1_555
Cr2 Hf0 2.950411 1_555
Cr2 Hf0 2.950411 1_455
Cr2 Hf1 2.952355 1_555
Cr2 Hf1 2.952355 1_455
Cr3 Si0 2.421532 1_454
Cr3 Si0 2.421532 1_554
Cr3 Si2 2.518299 1_545
Cr3 Si3 2.575719 1_555
Cr3 Hf1 2.950409 1_445
Cr3 Hf1 2.950409 1_545
Cr3 Hf0 2.952360 1_455
Cr3 Hf0 2.952360 1_555
