# generated using pymatgen
data_KHfPdF7
_symmetry_space_group_name_H-M   'P 1'
_cell_length_a   6.27702392
_cell_length_b   7.90132685
_cell_length_c   11.40966625
_cell_angle_alpha   90.00000000
_cell_angle_beta   90.00000000
_cell_angle_gamma   90.00000000
_symmetry_Int_Tables_number   1
_chemical_formula_structural   KHfPdF7
_chemical_formula_sum   'K4 Hf4 Pd4 F28'
_cell_volume   565.88313630
_cell_formula_units_Z   4
loop_
 _symmetry_equiv_pos_site_id
 _symmetry_equiv_pos_as_xyz
  1  'x, y, z'
loop_
 _atom_site_type_symbol
 _atom_site_label
 _atom_site_symmetry_multiplicity
 _atom_site_fract_x
 _atom_site_fract_y
 _atom_site_fract_z
 _atom_site_occupancy
  K  K0  1  0.27416644  -0.00000000  0.25000000  1
  K  K1  1  0.22583356  0.50000000  0.25000000  1
  K  K2  1  0.72583356  -0.00000000  0.75000000  1
  K  K3  1  0.77416644  0.50000000  0.75000000  1
  Hf  Hf0  1  0.75000000  0.75000000  0.40666811  1
  Hf  Hf1  1  0.75000000  0.25000000  0.09333189  1
  Hf  Hf2  1  0.25000000  0.25000000  0.59333189  1
  Hf  Hf3  1  0.25000000  0.75000000  0.90666811  1
  Pd  Pd0  1  0.25000000  0.75000000  0.59809467  1
  Pd  Pd1  1  0.25000000  0.25000000  0.90190533  1
  Pd  Pd2  1  0.75000000  0.25000000  0.40190533  1
  Pd  Pd3  1  0.75000000  0.75000000  0.09809467  1
  F  F0  1  0.94815079  0.17150228  0.54728444  1
  F  F1  1  0.94815079  0.82849772  0.95271556  1
  F  F2  1  0.55184921  0.67150228  0.95271556  1
  F  F3  1  0.55184921  0.32849772  0.54728444  1
  F  F4  1  0.05184921  0.82849772  0.45271556  1
  F  F5  1  0.05184921  0.17150228  0.04728444  1
  F  F6  1  0.44815079  0.32849772  0.04728444  1
  F  F7  1  0.44815079  0.67150228  0.45271556  1
  F  F8  1  0.25000000  0.75000000  0.08066287  1
  F  F9  1  0.25000000  0.25000000  0.41933713  1
  F  F10  1  0.75000000  0.25000000  0.91933713  1
  F  F11  1  0.75000000  0.75000000  0.58066287  1
  F  F12  1  0.93490422  0.79563632  0.25526714  1
  F  F13  1  0.93490422  0.20436368  0.24473286  1
  F  F14  1  0.56509578  0.29563632  0.24473286  1
  F  F15  1  0.56509578  0.70436368  0.25526714  1
  F  F16  1  0.06509578  0.20436368  0.74473286  1
  F  F17  1  0.06509578  0.79563632  0.75526714  1
  F  F18  1  0.43490422  0.70436368  0.75526714  1
  F  F19  1  0.43490422  0.29563632  0.74473286  1
  F  F20  1  0.63816948  0.01285429  0.10626755  1
  F  F21  1  0.63816948  0.98714571  0.39373245  1
  F  F22  1  0.86183052  0.51285429  0.39373245  1
  F  F23  1  0.86183052  0.48714571  0.10626755  1
  F  F24  1  0.36183052  0.98714571  0.89373245  1
  F  F25  1  0.36183052  0.01285429  0.60626755  1
  F  F26  1  0.13816948  0.48714571  0.60626755  1
  F  F27  1  0.13816948  0.51285429  0.89373245  1
loop_
_geom_bond_atom_site_label_1
_geom_bond_atom_site_label_2
_geom_bond_distance
_geom_bond_site_symmetry_2
F0 Hf2 2.061715 1_655
F0 Pd2 2.164047 1_555
F0 K2 3.022129 1_555
F1 Hf3 2.061715 1_655
F1 Pd3 2.164047 1_556
F1 K2 3.022129 1_565
F2 Hf3 2.061715 1_555
F2 Pd3 2.164047 1_556
F2 K3 3.022129 1_555
F3 Hf2 2.061715 1_555
F3 Pd2 2.164047 1_555
F3 K3 3.022129 1_555
F4 Hf0 2.061715 1_455
F4 Pd0 2.164047 1_555
F4 K0 3.022129 1_565
F5 Hf1 2.061715 1_455
F5 Pd1 2.164047 1_554
F5 K0 3.022129 1_555
F6 Hf1 2.061715 1_555
F6 Pd1 2.164047 1_554
F6 K1 3.022129 1_555
F7 Hf0 2.061715 1_555
F7 Pd0 2.164047 1_555
F7 K1 3.022129 1_555
F8 Hf3 1.985222 1_554
F8 K1 2.767287 1_555
F8 K0 2.767287 1_565
F9 Hf2 1.985222 1_555
F9 K1 2.767287 1_555
F9 K0 2.767287 1_555
F10 Hf1 1.985222 1_556
F10 K2 2.767287 1_555
F10 K3 2.767287 1_555
F11 Hf0 1.985222 1_555
F11 K2 2.767287 1_565
F11 K3 2.767287 1_555
F12 Hf0 2.112145 1_555
F12 Pd3 2.166333 1_555
F12 K0 2.673205 1_665
F12 K1 2.965641 1_655
F13 Hf1 2.112145 1_555
F13 Pd2 2.166333 1_555
F13 K0 2.673205 1_655
F13 K1 2.965641 1_655
F14 Hf1 2.112145 1_555
F14 Pd2 2.166333 1_555
F14 K1 2.673205 1_555
F14 K0 2.965641 1_555
F15 Hf0 2.112145 1_555
F15 Pd3 2.166333 1_555
F15 K1 2.673205 1_555
F15 K0 2.965641 1_565
F16 Hf2 2.112145 1_555
F16 Pd1 2.166333 1_555
F16 K2 2.673205 1_455
F16 K3 2.965641 1_455
F17 Hf3 2.112145 1_555
F17 Pd0 2.166333 1_555
F17 K2 2.673205 1_465
F17 K3 2.965641 1_455
F18 Hf3 2.112145 1_555
F18 Pd0 2.166333 1_555
F18 K3 2.673205 1_555
F18 K2 2.965641 1_565
F19 Hf2 2.112145 1_555
F19 Pd1 2.166333 1_555
F19 K3 2.673205 1_555
F19 K2 2.965641 1_555
F20 Hf1 2.006373 1_555
F20 Pd3 2.194300 1_545
F20 K0 2.814300 1_555
F21 Hf0 2.006373 1_555
F21 Pd2 2.194300 1_565
F21 K0 2.814300 1_565
F22 Hf0 2.006373 1_555
F22 Pd2 2.194300 1_555
F22 K1 2.814300 1_655
F23 Hf1 2.006373 1_555
F23 Pd3 2.194300 1_555
F23 K1 2.814300 1_655
F24 Hf3 2.006373 1_555
F24 Pd1 2.194300 1_565
F24 K2 2.814300 1_565
F25 Hf2 2.006373 1_555
F25 Pd0 2.194300 1_545
F25 K2 2.814300 1_555
F26 Hf2 2.006373 1_555
F26 Pd0 2.194300 1_555
F26 K3 2.814300 1_455
F27 Hf3 2.006373 1_555
F27 Pd1 2.194300 1_555
F27 K3 2.814300 1_455
