# generated using pymatgen
data_TbZn3
_symmetry_space_group_name_H-M   'P 1'
_cell_length_a   4.35693764
_cell_length_b   6.64541697
_cell_length_c   9.99181697
_cell_angle_alpha   90.00279395
_cell_angle_beta   90.00000000
_cell_angle_gamma   90.00000000
_symmetry_Int_Tables_number   1
_chemical_formula_structural   TbZn3
_chemical_formula_sum   'Tb4 Zn12'
_cell_volume   289.29974440
_cell_formula_units_Z   4
loop_
 _symmetry_equiv_pos_site_id
 _symmetry_equiv_pos_as_xyz
  1  'x, y, z'
loop_
 _atom_site_type_symbol
 _atom_site_label
 _atom_site_symmetry_multiplicity
 _atom_site_fract_x
 _atom_site_fract_y
 _atom_site_fract_z
 _atom_site_occupancy
  Tb  Tb0  1  0.25000000  0.28118688  0.66034216  1
  Tb  Tb1  1  0.25000000  0.78118246  0.83970600  1
  Tb  Tb2  1  0.75000000  0.71881558  0.33963173  1
  Tb  Tb3  1  0.75000000  0.21881995  0.16032284  1
  Zn  Zn0  1  0.25000000  0.53562844  0.10408768  1
  Zn  Zn1  1  0.25000000  0.03562855  0.39598117  1
  Zn  Zn2  1  0.75000000  0.46433922  0.89600406  1
  Zn  Zn3  1  0.75000000  0.96434371  0.60392263  1
  Zn  Zn4  1  0.25000000  0.91529703  0.14745232  1
  Zn  Zn5  1  0.25000000  0.41530084  0.35264529  1
  Zn  Zn6  1  0.75000000  0.08471406  0.85263503  1
  Zn  Zn7  1  0.75000000  0.58470909  0.64726266  1
  Zn  Zn8  1  0.25000000  0.21940483  0.95544585  1
  Zn  Zn9  1  0.25000000  0.71936755  0.54453616  1
  Zn  Zn10  1  0.75000000  0.78061198  0.04468779  1
  Zn  Zn11  1  0.75000000  0.28065183  0.45533467  1
loop_
_geom_bond_atom_site_label_1
_geom_bond_atom_site_label_2
_geom_bond_distance
_geom_bond_site_symmetry_2
Tb0 Zn7 2.971742 1_455
Tb0 Zn7 2.971742 1_555
Tb0 Zn8 2.977088 1_555
Tb0 Zn11 2.990263 1_455
Tb0 Zn11 2.990263 1_555
Tb0 Zn3 3.081683 1_445
Tb0 Zn3 3.081683 1_545
Tb0 Zn1 3.104789 1_555
Tb0 Zn9 3.133426 1_555
Tb0 Zn6 3.184695 1_555
Tb0 Zn6 3.184695 1_455
Tb0 Zn5 3.201067 1_555
Tb0 Zn2 3.430948 1_555
Tb0 Zn2 3.430948 1_455
Tb1 Zn6 2.971710 1_465
Tb1 Zn6 2.971710 1_565
Tb1 Zn9 2.977734 1_555
Tb1 Zn10 2.990087 1_456
Tb1 Zn10 2.990087 1_556
Tb1 Zn2 3.081499 1_455
Tb1 Zn2 3.081499 1_555
Tb1 Zn0 3.105085 1_556
Tb1 Zn8 3.133335 1_565
Tb1 Zn7 3.185527 1_455
Tb1 Zn7 3.185527 1_555
Tb1 Zn4 3.201459 1_556
Tb1 Zn3 3.431884 1_555
Tb1 Zn3 3.431884 1_455
Tb2 Zn5 2.971679 1_655
Tb2 Zn5 2.971679 1_555
Tb2 Zn10 2.975521 1_555
Tb2 Zn9 2.989557 1_555
Tb2 Zn9 2.989557 1_655
Tb2 Zn1 3.081418 1_565
Tb2 Zn1 3.081418 1_665
Tb2 Zn3 3.104088 1_555
Tb2 Zn11 3.132942 1_555
Tb2 Zn4 3.184035 1_655
Tb2 Zn4 3.184035 1_555
Tb2 Zn7 3.200420 1_555
Tb2 Zn0 3.430222 1_655
Tb2 Zn0 3.430222 1_555
Tb3 Zn4 2.971645 1_645
Tb3 Zn4 2.971645 1_545
Tb3 Zn11 2.976185 1_555
Tb3 Zn8 2.989370 1_654
Tb3 Zn8 2.989370 1_554
Tb3 Zn0 3.081226 1_555
Tb3 Zn0 3.081226 1_655
Tb3 Zn2 3.104429 1_554
Tb3 Zn10 3.132860 1_545
Tb3 Zn5 3.184819 1_655
Tb3 Zn5 3.184819 1_555
Tb3 Zn6 3.200882 1_554
Tb3 Zn1 3.431097 1_555
Tb3 Zn1 3.431097 1_655
Zn0 Zn4 2.559970 1_555
Zn0 Zn8 2.573239 1_554
Zn0 Zn5 2.609134 1_555
Zn0 Zn10 2.783616 1_455
Zn0 Zn10 2.783616 1_555
Zn0 Zn2 3.048420 1_554
Zn0 Zn2 3.048420 1_454
Zn1 Zn5 2.559987 1_555
Zn1 Zn9 2.573060 1_545
Zn1 Zn4 2.608794 1_545
Zn1 Zn11 2.783638 1_455
Zn1 Zn11 2.783638 1_555
Zn1 Zn3 3.047478 1_445
Zn1 Zn3 3.047478 1_545
Zn2 Zn6 2.559693 1_555
Zn2 Zn7 2.610968 1_555
Zn2 Zn8 2.783515 1_655
Zn2 Zn8 2.783515 1_555
Zn3 Zn7 2.559748 1_555
Zn3 Zn6 2.610619 1_565
Zn3 Zn9 2.783525 1_655
Zn3 Zn9 2.783525 1_555
Zn4 Zn8 2.786598 1_564
Zn5 Zn9 2.785469 1_555
Zn6 Zn8 2.569450 1_555
Zn6 Zn8 2.569450 1_655
Zn7 Zn9 2.569074 1_655
Zn7 Zn9 2.569074 1_555
Zn10 Zn4 2.569252 1_555
Zn10 Zn4 2.569252 1_655
Zn10 Zn2 2.573748 1_554
Zn10 Zn6 2.786888 1_564
Zn11 Zn5 2.568904 1_655
Zn11 Zn5 2.568904 1_555
Zn11 Zn3 2.573506 1_545
Zn11 Zn7 2.785678 1_555
