# generated using pymatgen
data_Li3Eu3(TeO6)2
_symmetry_space_group_name_H-M   'P 1'
_cell_length_a   11.01947731
_cell_length_b   11.01947731
_cell_length_c   11.01947731
_cell_angle_alpha   109.47122063
_cell_angle_beta   109.47122063
_cell_angle_gamma   109.47122063
_symmetry_Int_Tables_number   1
_chemical_formula_structural   Li3Eu3(TeO6)2
_chemical_formula_sum   'Li12 Eu12 Te8 O48'
_cell_volume   1030.05661138
_cell_formula_units_Z   4
loop_
 _symmetry_equiv_pos_site_id
 _symmetry_equiv_pos_as_xyz
  1  'x, y, z'
loop_
 _atom_site_type_symbol
 _atom_site_label
 _atom_site_symmetry_multiplicity
 _atom_site_fract_x
 _atom_site_fract_y
 _atom_site_fract_z
 _atom_site_occupancy
  Li  Li0  1  0.62500000  0.37500000  0.75000000  1
  Li  Li1  1  0.37500000  0.62500000  0.25000000  1
  Li  Li2  1  0.87500000  0.12500000  0.25000000  1
  Li  Li3  1  0.37500000  0.75000000  0.62500000  1
  Li  Li4  1  0.62500000  0.25000000  0.37500000  1
  Li  Li5  1  0.12500000  0.87500000  0.75000000  1
  Li  Li6  1  0.12500000  0.25000000  0.87500000  1
  Li  Li7  1  0.87500000  0.75000000  0.12500000  1
  Li  Li8  1  0.75000000  0.62500000  0.37500000  1
  Li  Li9  1  0.25000000  0.37500000  0.62500000  1
  Li  Li10  1  0.25000000  0.87500000  0.12500000  1
  Li  Li11  1  0.75000000  0.12500000  0.87500000  1
  Eu  Eu0  1  0.87500000  0.62500000  0.75000000  1
  Eu  Eu1  1  0.12500000  0.37500000  0.25000000  1
  Eu  Eu2  1  0.62500000  0.87500000  0.25000000  1
  Eu  Eu3  1  0.62500000  0.75000000  0.87500000  1
  Eu  Eu4  1  0.87500000  0.25000000  0.62500000  1
  Eu  Eu5  1  0.37500000  0.12500000  0.75000000  1
  Eu  Eu6  1  0.37500000  0.25000000  0.12500000  1
  Eu  Eu7  1  0.12500000  0.75000000  0.37500000  1
  Eu  Eu8  1  0.75000000  0.87500000  0.62500000  1
  Eu  Eu9  1  0.25000000  0.12500000  0.37500000  1
  Eu  Eu10  1  0.25000000  0.62500000  0.87500000  1
  Eu  Eu11  1  0.75000000  0.37500000  0.12500000  1
  Te  Te0  1  -0.00000000  0.00000000  -0.00000000  1
  Te  Te1  1  0.50000000  0.00000000  0.50000000  1
  Te  Te2  1  0.50000000  0.50000000  -0.00000000  1
  Te  Te3  1  -0.00000000  0.00000000  0.50000000  1
  Te  Te4  1  0.00000000  0.50000000  0.50000000  1
  Te  Te5  1  0.50000000  0.50000000  0.50000000  1
  Te  Te6  1  0.50000000  0.00000000  -0.00000000  1
  Te  Te7  1  -0.00000000  0.50000000  -0.00000000  1
  O  O0  1  0.69484723  0.61582331  0.52387037  1
  O  O1  1  0.30515277  0.38417669  0.47612963  1
  O  O2  1  0.80515277  0.82902314  0.42097608  1
  O  O3  1  0.40804706  0.88417669  0.07902392  1
  O  O4  1  0.61582331  0.52387037  0.69484723  1
  O  O5  1  0.69484723  0.07902392  0.67097686  1
  O  O6  1  0.19484723  0.17097686  0.57902392  1
  O  O7  1  0.59195294  0.11582331  0.92097608  1
  O  O8  1  0.38417669  0.47612963  0.30515277  1
  O  O9  1  0.30515277  0.92097608  0.32902314  1
  O  O10  1  0.09195294  0.67097686  0.97612963  1
  O  O11  1  0.82902314  0.42097608  0.80515277  1
  O  O12  1  0.80515277  0.97612963  0.88417669  1
  O  O13  1  0.90804706  0.32902314  0.02387037  1
  O  O14  1  0.17097686  0.57902392  0.19484723  1
  O  O15  1  0.19484723  0.02387037  0.11582331  1
  O  O16  1  0.88417669  0.07902392  0.40804706  1
  O  O17  1  0.40804706  0.52387037  0.82902314  1
  O  O18  1  0.11582331  0.92097608  0.59195294  1
  O  O19  1  0.59195294  0.47612963  0.17097686  1
  O  O20  1  0.67097686  0.97612963  0.09195294  1
  O  O21  1  0.09195294  0.42097608  0.61582331  1
  O  O22  1  0.32902314  0.02387037  0.90804706  1
  O  O23  1  0.90804706  0.57902392  0.38417669  1
  O  O24  1  0.52387037  0.69484723  0.61582331  1
  O  O25  1  0.61582331  0.09195294  0.42097608  1
  O  O26  1  0.47612963  0.30515277  0.38417669  1
  O  O27  1  0.38417669  0.90804706  0.57902392  1
  O  O28  1  0.07902392  0.40804706  0.88417669  1
  O  O29  1  0.88417669  0.80515277  0.97612963  1
  O  O30  1  0.92097608  0.59195294  0.11582331  1
  O  O31  1  0.11582331  0.19484723  0.02387037  1
  O  O32  1  0.97612963  0.09195294  0.67097686  1
  O  O33  1  0.67097686  0.69484723  0.07902392  1
  O  O34  1  0.02387037  0.90804706  0.32902314  1
  O  O35  1  0.32902314  0.30515277  0.92097608  1
  O  O36  1  0.42097608  0.80515277  0.82902314  1
  O  O37  1  0.82902314  0.40804706  0.52387037  1
  O  O38  1  0.57902392  0.19484723  0.17097686  1
  O  O39  1  0.17097686  0.59195294  0.47612963  1
  O  O40  1  0.07902392  0.67097686  0.69484723  1
  O  O41  1  0.92097608  0.32902314  0.30515277  1
  O  O42  1  0.97612963  0.88417669  0.80515277  1
  O  O43  1  0.02387037  0.11582331  0.19484723  1
  O  O44  1  0.42097608  0.61582331  0.09195294  1
  O  O45  1  0.57902392  0.38417669  0.90804706  1
  O  O46  1  0.52387037  0.82902314  0.40804706  1
  O  O47  1  0.47612963  0.17097686  0.59195294  1
loop_
_geom_bond_atom_site_label_1
_geom_bond_atom_site_label_2
_geom_bond_distance
_geom_bond_site_symmetry_2
Li0 O45 1.950650 1_555
Li0 O11 1.950650 1_555
Li0 O4 1.950650 1_555
Li0 O47 1.950650 1_555
Li1 O8 1.950650 1_555
Li1 O14 1.950650 1_555
Li1 O46 1.950650 1_555
Li1 O44 1.950650 1_555
Li2 O16 1.950650 1_555
Li2 O41 1.950650 1_555
Li2 O20 1.950650 1_545
Li2 O43 1.950650 1_655
Li3 O39 1.950650 1_555
Li3 O27 1.950650 1_555
Li3 O36 1.950650 1_555
Li3 O24 1.950650 1_555
Li4 O26 1.950650 1_555
Li4 O37 1.950650 1_555
Li4 O38 1.950650 1_555
Li4 O25 1.950650 1_555
Li5 O40 1.950650 1_555
Li5 O18 1.950650 1_555
Li5 O42 1.950650 1_455
Li5 O22 1.950650 1_565
Li6 O28 1.950650 1_555
Li6 O32 1.950650 1_455
Li6 O35 1.950650 1_555
Li6 O31 1.950650 1_556
Li7 O33 1.950650 1_555
Li7 O29 1.950650 1_554
Li7 O34 1.950650 1_655
Li7 O30 1.950650 1_555
Li8 O2 1.950650 1_555
Li8 O19 1.950650 1_555
Li8 O0 1.950650 1_555
Li8 O23 1.950650 1_555
Li9 O1 1.950650 1_555
Li9 O6 1.950650 1_555
Li9 O17 1.950650 1_555
Li9 O21 1.950650 1_555
Li10 O10 1.950650 1_554
Li10 O9 1.950650 1_555
Li10 O15 1.950650 1_565
Li10 O3 1.950650 1_555
Li11 O13 1.950650 1_556
Li11 O5 1.950650 1_555
Li11 O7 1.950650 1_555
Li11 O12 1.950650 1_545
Eu0 O11 2.457122 1_555
Eu0 O4 2.457122 1_555
Eu0 O42 2.457122 1_555
Eu0 O40 2.457122 1_655
Eu0 O37 2.561399 1_555
Eu0 O0 2.561399 1_555
Eu0 O29 2.561399 1_555
Eu0 O10 2.561399 1_655
Eu1 O14 2.457122 1_555
Eu1 O8 2.457122 1_555
Eu1 O43 2.457122 1_555
Eu1 O41 2.457122 1_455
Eu1 O31 2.561399 1_555
Eu1 O13 2.561399 1_455
Eu1 O39 2.561399 1_555
Eu1 O1 2.561399 1_555
Eu2 O44 2.457122 1_555
Eu2 O16 2.457122 1_565
Eu2 O46 2.457122 1_555
Eu2 O20 2.457122 1_555
Eu2 O33 2.561399 1_555
Eu2 O3 2.561399 1_555
Eu2 O2 2.561399 1_555
Eu2 O25 2.561399 1_565
Eu3 O36 2.457122 1_555
Eu3 O29 2.457122 1_555
Eu3 O33 2.457122 1_556
Eu3 O24 2.457122 1_555
Eu3 O4 2.561399 1_555
Eu3 O12 2.561399 1_555
Eu3 O17 2.561399 1_555
Eu3 O20 2.561399 1_556
Eu4 O28 2.457122 1_655
Eu4 O32 2.457122 1_555
Eu4 O25 2.457122 1_555
Eu4 O37 2.457122 1_555
Eu4 O16 2.561399 1_555
Eu4 O5 2.561399 1_555
Eu4 O11 2.561399 1_555
Eu4 O21 2.561399 1_655
Eu5 O22 2.457122 1_555
Eu5 O45 2.457122 1_555
Eu5 O18 2.457122 1_545
Eu5 O47 2.457122 1_555
Eu5 O6 2.561399 1_555
Eu5 O27 2.561399 1_545
Eu5 O7 2.561399 1_555
Eu5 O35 2.561399 1_555
Eu6 O31 2.457122 1_555
Eu6 O38 2.457122 1_555
Eu6 O26 2.457122 1_555
Eu6 O35 2.457122 1_554
Eu6 O22 2.561399 1_554
Eu6 O15 2.561399 1_555
Eu6 O19 2.561399 1_555
Eu6 O8 2.561399 1_555
Eu7 O30 2.457122 1_455
Eu7 O39 2.457122 1_555
Eu7 O27 2.457122 1_555
Eu7 O34 2.457122 1_555
Eu7 O14 2.561399 1_555
Eu7 O18 2.561399 1_555
Eu7 O23 2.561399 1_455
Eu7 O9 2.561399 1_555
Eu8 O2 2.457122 1_555
Eu8 O0 2.457122 1_555
Eu8 O5 2.457122 1_565
Eu8 O12 2.457122 1_555
Eu8 O24 2.561399 1_555
Eu8 O46 2.561399 1_555
Eu8 O42 2.561399 1_555
Eu8 O32 2.561399 1_565
Eu9 O15 2.457122 1_555
Eu9 O1 2.457122 1_555
Eu9 O6 2.457122 1_555
Eu9 O9 2.457122 1_545
Eu9 O43 2.561399 1_555
Eu9 O34 2.561399 1_545
Eu9 O26 2.561399 1_555
Eu9 O47 2.561399 1_555
Eu10 O3 2.457122 1_556
Eu10 O10 2.457122 1_555
Eu10 O17 2.457122 1_555
Eu10 O21 2.457122 1_555
Eu10 O40 2.561399 1_555
Eu10 O28 2.561399 1_555
Eu10 O36 2.561399 1_555
Eu10 O44 2.561399 1_556
Eu11 O7 2.457122 1_554
Eu11 O23 2.457122 1_555
Eu11 O13 2.457122 1_555
Eu11 O19 2.457122 1_555
Eu11 O45 2.561399 1_554
Eu11 O38 2.561399 1_555
Eu11 O41 2.561399 1_555
Eu11 O30 2.561399 1_555
O0 Te5 1.970027 1_555
O1 Te5 1.970027 1_555
O2 Te3 1.970027 1_665
O3 Te6 1.970027 1_565
O4 Te5 1.970027 1_555
O5 Te1 1.970027 1_555
O6 Te3 1.970027 1_555
O7 Te6 1.970027 1_556
O8 Te5 1.970027 1_555
O9 Te1 1.970027 1_565
O10 Te7 1.970027 1_556
O11 Te7 1.970027 1_656
O12 Te0 1.970027 1_666
O13 Te7 1.970027 1_655
O14 Te7 1.970027 1_555
O15 Te0 1.970027 1_555
O16 Te3 1.970027 1_655
O17 Te2 1.970027 1_556
O18 Te3 1.970027 1_565
O19 Te2 1.970027 1_555
O20 Te6 1.970027 1_565
O21 Te4 1.970027 1_555
O22 Te6 1.970027 1_556
O23 Te4 1.970027 1_655
O24 Te5 1.970027 1_555
O25 Te1 1.970027 1_555
O26 Te5 1.970027 1_555
O27 Te1 1.970027 1_565
O28 Te7 1.970027 1_556
O29 Te0 1.970027 1_666
O30 Te7 1.970027 1_655
O31 Te0 1.970027 1_555
O32 Te3 1.970027 1_655
O33 Te2 1.970027 1_555
O34 Te3 1.970027 1_565
O35 Te2 1.970027 1_556
O36 Te6 1.970027 1_566
O37 Te4 1.970027 1_655
O38 Te6 1.970027 1_555
O39 Te4 1.970027 1_555
O40 Te4 1.970027 1_555
O41 Te4 1.970027 1_655
O42 Te0 1.970027 1_666
O43 Te0 1.970027 1_555
O44 Te2 1.970027 1_555
O45 Te2 1.970027 1_556
O46 Te1 1.970027 1_565
O47 Te1 1.970027 1_555
