# generated using pymatgen
data_Na6Ge2Se7
_symmetry_space_group_name_H-M   'P 1'
_cell_length_a   7.22024793
_cell_length_b   7.22024793
_cell_length_c   15.83790284
_cell_angle_alpha   80.54478149
_cell_angle_beta   80.54478149
_cell_angle_gamma   98.40375751
_symmetry_Int_Tables_number   1
_chemical_formula_structural   Na6Ge2Se7
_chemical_formula_sum   'Na12 Ge4 Se14'
_cell_volume   790.55888038
_cell_formula_units_Z   2
loop_
 _symmetry_equiv_pos_site_id
 _symmetry_equiv_pos_as_xyz
  1  'x, y, z'
loop_
 _atom_site_type_symbol
 _atom_site_label
 _atom_site_symmetry_multiplicity
 _atom_site_fract_x
 _atom_site_fract_y
 _atom_site_fract_z
 _atom_site_occupancy
  Na  Na0  1  0.50000000  0.50000000  0.00000000  1
  Na  Na1  1  0.50000000  0.50000000  0.50000000  1
  Na  Na2  1  0.97081790  0.26284242  0.92768224  1
  Na  Na3  1  0.73715758  0.02918210  0.57231776  1
  Na  Na4  1  0.02918210  0.73715758  0.07231776  1
  Na  Na5  1  0.26284242  0.97081790  0.42768224  1
  Na  Na6  1  0.42019490  0.57980510  0.75000000  1
  Na  Na7  1  0.57980510  0.42019490  0.25000000  1
  Na  Na8  1  0.95186746  0.50815390  0.64073559  1
  Na  Na9  1  0.49184610  0.04813254  0.85926441  1
  Na  Na10  1  0.04813254  0.49184610  0.35926441  1
  Na  Na11  1  0.50815390  0.95186746  0.14073559  1
  Ge  Ge0  1  0.92363263  0.75916038  0.86144209  1
  Ge  Ge1  1  0.24083962  0.07636737  0.63855791  1
  Ge  Ge2  1  0.07636737  0.24083962  0.13855791  1
  Ge  Ge3  1  0.75916038  0.92363263  0.36144209  1
  Se  Se0  1  0.75121341  0.49716733  0.82110355  1
  Se  Se1  1  0.50283267  0.24878659  0.67889645  1
  Se  Se2  1  0.24878659  0.50283267  0.17889645  1
  Se  Se3  1  0.49716733  0.75121341  0.32110355  1
  Se  Se4  1  0.73629855  0.87089900  0.97233511  1
  Se  Se5  1  0.12910100  0.26370145  0.52766489  1
  Se  Se6  1  0.26370145  0.12910100  0.02766489  1
  Se  Se7  1  0.87089900  0.73629855  0.47233511  1
  Se  Se8  1  0.21013409  0.68632067  0.89599941  1
  Se  Se9  1  0.31367933  0.78986591  0.60400059  1
  Se  Se10  1  0.78986591  0.31367933  0.10400059  1
  Se  Se11  1  0.68632067  0.21013409  0.39599941  1
  Se  Se12  1  0.96083723  0.03916277  0.75000000  1
  Se  Se13  1  0.03916277  0.96083723  0.25000000  1
loop_
_geom_bond_atom_site_label_1
_geom_bond_atom_site_label_2
_geom_bond_distance
_geom_bond_site_symmetry_2
Na0 Se6 2.882333 1_555
Na0 Se4 2.882333 1_554
Na0 Se0 3.107990 1_554
Na0 Se2 3.107990 1_555
Na0 Se8 3.182877 1_554
Na0 Se10 3.182877 1_555
Na1 Se7 2.882333 1_555
Na1 Se5 2.882333 1_555
Na1 Se1 3.107990 1_555
Na1 Se3 3.107990 1_555
Na1 Se9 3.182877 1_555
Na1 Se11 3.182877 1_555
Na2 Se10 2.986315 1_556
Na2 Se4 2.987343 1_545
Na2 Se0 2.991833 1_555
Na2 Se6 3.017716 1_656
Na2 Se8 3.202074 1_655
Na2 Se12 3.472545 1_555
Na3 Se11 2.986315 1_555
Na3 Se5 2.987343 1_655
Na3 Se1 2.991833 1_555
Na3 Se7 3.017716 1_545
Na3 Se9 3.202074 1_545
Na3 Se12 3.472545 1_555
Na4 Se8 2.986315 1_554
Na4 Se6 2.987343 1_565
Na4 Se2 2.991833 1_555
Na4 Se4 3.017716 1_454
Na4 Se10 3.202074 1_455
Na4 Se13 3.472545 1_555
Na5 Se9 2.986315 1_555
Na5 Se7 2.987343 1_455
Na5 Se3 2.991833 1_555
Na5 Se5 3.017716 1_565
Na5 Se11 3.202074 1_565
Na5 Se13 3.472545 1_555
Na6 Se8 2.830481 1_555
Na6 Se9 2.830481 1_555
Na6 Se0 2.901175 1_555
Na6 Se1 2.901175 1_555
Na7 Se11 2.830481 1_555
Na7 Se10 2.830481 1_555
Na7 Se2 2.901175 1_555
Na7 Se3 2.901175 1_555
Na8 Se0 2.966121 1_555
Na8 Se9 2.976395 1_655
Na8 Se5 2.984213 1_655
Na8 Se7 3.085290 1_555
Na8 Se1 3.404909 1_555
Na8 Se12 3.555430 1_555
Na9 Se1 2.966121 1_555
Na9 Se8 2.976395 1_545
Na9 Se4 2.984213 1_545
Na9 Se6 3.085290 1_556
Na9 Se0 3.404909 1_555
Na9 Se12 3.555430 1_555
Na10 Se2 2.966121 1_555
Na10 Se11 2.976395 1_455
Na10 Se7 2.984213 1_455
Na10 Se5 3.085290 1_555
Na10 Se3 3.404909 1_555
Na10 Se13 3.555430 1_555
Na11 Se3 2.966121 1_555
Na11 Se10 2.976395 1_565
Na11 Se6 2.984213 1_565
Na11 Se4 3.085290 1_554
Na11 Se2 3.404909 1_555
Na11 Se13 3.555430 1_555
Ge0 Se8 2.334675 1_655
Ge0 Se0 2.346565 1_555
Ge0 Se4 2.359886 1_555
Ge0 Se12 2.405773 1_565
Ge1 Se9 2.334675 1_545
Ge1 Se1 2.346565 1_555
Ge1 Se5 2.359886 1_555
Ge1 Se12 2.405773 1_455
Ge2 Se10 2.334675 1_455
Ge2 Se2 2.346565 1_555
Ge2 Se6 2.359886 1_555
Ge2 Se13 2.405773 1_545
Ge3 Se11 2.334675 1_565
Ge3 Se3 2.346565 1_555
Ge3 Se7 2.359886 1_555
Ge3 Se13 2.405773 1_655
