# generated using pymatgen
data_VNiH14(O2F)4
_symmetry_space_group_name_H-M   'P 1'
_cell_length_a   6.50839600
_cell_length_b   11.17037056
_cell_length_c   14.08695927
_cell_angle_alpha   89.26369546
_cell_angle_beta   89.04079008
_cell_angle_gamma   79.15341163
_symmetry_Int_Tables_number   1
_chemical_formula_structural   VNiH14(O2F)4
_chemical_formula_sum   'V4 Ni4 H56 O32 F16'
_cell_volume   1005.65206538
_cell_formula_units_Z   4
loop_
 _symmetry_equiv_pos_site_id
 _symmetry_equiv_pos_as_xyz
  1  'x, y, z'
loop_
 _atom_site_type_symbol
 _atom_site_label
 _atom_site_symmetry_multiplicity
 _atom_site_fract_x
 _atom_site_fract_y
 _atom_site_fract_z
 _atom_site_occupancy
  V  V0  1  0.49377600  0.23695300  0.26581400  1
  V  V1  1  0.50622400  0.76304700  0.73418600  1
  V  V2  1  0.48681500  0.73382300  0.24141300  1
  V  V3  1  0.51318500  0.26617700  0.75858700  1
  Ni  Ni0  1  0.00000000  0.00000000  0.00000000  1
  Ni  Ni1  1  0.00000000  0.50000000  0.00000000  1
  Ni  Ni2  1  0.00000000  0.50000000  0.50000000  1
  Ni  Ni3  1  0.00000000  0.00000000  0.50000000  1
  H  H0  1  0.60381400  0.09685000  0.06416100  1
  H  H1  1  0.39618600  0.90315000  0.93583900  1
  H  H2  1  0.60023200  0.11064400  0.95215700  1
  H  H3  1  0.39976800  0.88935600  0.04784300  1
  H  H4  1  0.04421100  0.84521300  0.85310400  1
  H  H5  1  0.95578900  0.15478700  0.14689600  1
  H  H6  1  0.80547200  0.86077500  0.88606000  1
  H  H7  1  0.19452800  0.13922500  0.11394000  1
  H  H8  1  0.82114900  0.86614700  0.12959400  1
  H  H9  1  0.17885100  0.13385300  0.87040600  1
  H  H10  1  0.05268300  0.87525300  0.16502900  1
  H  H11  1  0.94731700  0.12474700  0.83497100  1
  H  H12  1  0.66982600  0.68751300  0.04239300  1
  H  H13  1  0.33017400  0.31248700  0.95760700  1
  H  H14  1  0.61616100  0.62436900  0.94588900  1
  H  H15  1  0.38383900  0.37563100  0.05411100  1
  H  H16  1  0.77288900  0.35975700  0.91142300  1
  H  H17  1  0.22711100  0.64024300  0.08857700  1
  H  H18  1  0.92707200  0.27655000  0.98186000  1
  H  H19  1  0.07292800  0.72345000  0.01814000  1
  H  H20  1  0.05411900  0.41169900  0.18026100  1
  H  H21  1  0.94588100  0.58830100  0.81973900  1
  H  H22  1  0.88590000  0.53499900  0.18405200  1
  H  H23  1  0.11410000  0.46500100  0.81594800  1
  H  H24  1  0.80388900  0.37073500  0.38167200  1
  H  H25  1  0.19611100  0.62926500  0.61832800  1
  H  H26  1  0.04331900  0.35499700  0.34762700  1
  H  H27  1  0.95668100  0.64500300  0.65237300  1
  H  H28  1  0.60285000  0.61103400  0.45076600  1
  H  H29  1  0.39715000  0.38896600  0.54923400  1
  H  H30  1  0.59814800  0.59140800  0.56260800  1
  H  H31  1  0.40185200  0.40859200  0.43739200  1
  H  H32  1  0.81968100  0.35973500  0.62216700  1
  H  H33  1  0.18031900  0.64026500  0.37783300  1
  H  H34  1  0.05021700  0.36495200  0.66035700  1
  H  H35  1  0.94978300  0.63504800  0.33964300  1
  H  H36  1  0.89739100  0.03581600  0.68533900  1
  H  H37  1  0.10260900  0.96418400  0.31466100  1
  H  H38  1  0.07456600  0.91466100  0.68371100  1
  H  H39  1  0.92543400  0.08533900  0.31628900  1
  H  H40  1  0.73831700  0.86175700  0.54479000  1
  H  H41  1  0.26168300  0.13824300  0.45521000  1
  H  H42  1  0.91714900  0.77474400  0.48854000  1
  H  H43  1  0.08285100  0.22525600  0.51146000  1
  H  H44  1  0.62501700  0.12787800  0.45031100  1
  H  H45  1  0.37498300  0.87212200  0.54968900  1
  H  H46  1  0.66765000  0.18282500  0.55153100  1
  H  H47  1  0.33235000  0.81717500  0.44846900  1
  H  H48  1  0.54834200  0.96416800  0.30675600  1
  H  H49  1  0.45165800  0.03583200  0.69324400  1
  H  H50  1  0.70202200  0.86882300  0.36665600  1
  H  H51  1  0.29797800  0.13117700  0.63334400  1
  H  H52  1  0.68014300  0.39059400  0.13397200  1
  H  H53  1  0.31985700  0.60940600  0.86602800  1
  H  H54  1  0.47759800  0.47057900  0.17769400  1
  H  H55  1  0.52240200  0.52942100  0.82230600  1
  O  O0  1  0.68460300  0.07106100  0.00528100  1
  O  O1  1  0.31539700  0.92893900  0.99471900  1
  O  O2  1  0.94815500  0.86284400  0.90861600  1
  O  O3  1  0.05184500  0.13715600  0.09138400  1
  O  O4  1  0.96005500  0.88042000  0.10936800  1
  O  O5  1  0.03994500  0.11958000  0.89063200  1
  O  O6  1  0.71860400  0.62060800  0.99776700  1
  O  O7  1  0.28139600  0.37939200  0.00223300  1
  O  O8  1  0.84307400  0.35876500  0.97345000  1
  O  O9  1  0.15692600  0.64123500  0.02655000  1
  O  O10  1  0.94289300  0.46431600  0.14309300  1
  O  O11  1  0.05710700  0.53568400  0.85690700  1
  O  O12  1  0.94797900  0.37081300  0.40360800  1
  O  O13  1  0.05202100  0.62918700  0.59639200  1
  O  O14  1  0.68543000  0.57133900  0.50431200  1
  O  O15  1  0.31457000  0.42866100  0.49568800  1
  O  O16  1  0.96202900  0.36922800  0.60306500  1
  O  O17  1  0.03797100  0.63077200  0.39693500  1
  O  O18  1  0.98998400  0.97805600  0.64375600  1
  O  O19  1  0.01001600  0.02194400  0.35624400  1
  O  O20  1  0.82781400  0.85648600  0.48691400  1
  O  O21  1  0.17218600  0.14351400  0.51308600  1
  O  O22  1  0.71237000  0.11422400  0.50773500  1
  O  O23  1  0.28763000  0.88577600  0.49226500  1
  O  O24  1  0.63050200  0.88064900  0.30480300  1
  O  O25  1  0.36949800  0.11935100  0.69519700  1
  O  O26  1  0.53538500  0.38680300  0.15409000  1
  O  O27  1  0.46461500  0.61319700  0.84591000  1
  O  O28  1  0.37772700  0.62512400  0.19366600  1
  O  O29  1  0.62227300  0.37487600  0.80633400  1
  O  O30  1  0.46206800  0.13565100  0.35123200  1
  O  O31  1  0.53793200  0.86434900  0.64876800  1
  F  F0  1  0.43900600  0.15072700  0.15330200  1
  F  F1  1  0.56099400  0.84927300  0.84669800  1
  F  F2  1  0.79221000  0.18518800  0.23982900  1
  F  F3  1  0.20779000  0.81481200  0.76017100  1
  F  F4  1  0.56127600  0.36186500  0.34942800  1
  F  F5  1  0.43872400  0.63813500  0.65057200  1
  F  F6  1  0.21045900  0.33154300  0.25807600  1
  F  F7  1  0.78954100  0.66845700  0.74192400  1
  F  F8  1  0.77307200  0.64319900  0.25720300  1
  F  F9  1  0.22692800  0.35680100  0.74279700  1
  F  F10  1  0.42258700  0.69848300  0.37537900  1
  F  F11  1  0.57741300  0.30151700  0.62462100  1
  F  F12  1  0.24286900  0.86632700  0.24151900  1
  F  F13  1  0.75713100  0.13367300  0.75848100  1
  F  F14  1  0.58175100  0.80217200  0.12291900  1
  F  F15  1  0.41824900  0.19782800  0.87708100  1
loop_
_geom_bond_atom_site_label_1
_geom_bond_atom_site_label_2
_geom_bond_distance
_geom_bond_site_symmetry_2
Ni0 O0 2.057297 1_455
Ni0 O1 2.057297 1_544
Ni0 O4 2.071198 1_445
Ni0 O5 2.071198 1_554
Ni0 O3 2.092400 1_555
Ni0 O2 2.092400 1_444
Ni1 O6 2.059712 1_454
Ni1 O7 2.059712 1_555
Ni1 O9 2.075179 1_555
Ni1 O8 2.075179 1_454
Ni1 O11 2.090521 1_554
Ni1 O10 2.090521 1_455
Ni2 O14 2.052654 1_455
Ni2 O15 2.052654 1_555
Ni2 O13 2.071358 1_555
Ni2 O12 2.071358 1_455
Ni2 O17 2.090982 1_555
Ni2 O16 2.090982 1_455
Ni3 O19 2.038171 1_555
Ni3 O18 2.038171 1_445
Ni3 O22 2.059628 1_455
Ni3 O23 2.059628 1_545
Ni3 O21 2.133177 1_555
Ni3 O20 2.133177 1_445
H0 O0 0.990940 1_555
H1 O1 0.990940 1_555
H2 O0 0.985366 1_556
H3 O1 0.985366 1_554
H4 O2 0.991157 1_455
H5 O3 0.991157 1_655
H6 O2 0.990964 1_555
H7 O3 0.990964 1_555
H8 O4 0.984059 1_555
H9 O5 0.984059 1_555
H10 O4 0.991536 1_455
H11 O5 0.991536 1_655
H12 O6 0.985198 1_554
H13 O7 0.985198 1_556
H14 O6 0.992654 1_555
H15 O7 0.992654 1_555
H16 O8 0.991700 1_555
H17 O9 0.991700 1_555
H18 O8 0.983224 1_555
H19 O9 0.983224 1_555
H20 O10 0.994121 1_455
H21 O11 0.994121 1_655
H22 O10 0.994093 1_555
H23 O11 0.994093 1_555
H24 O12 0.992454 1_555
H25 O13 0.992454 1_555
H26 O12 0.992007 1_455
H27 O13 0.992007 1_655
H28 O14 0.984749 1_555
H29 O15 0.984749 1_555
H30 O14 0.994248 1_555
H31 O15 0.994248 1_555
H32 O16 0.984820 1_555
H33 O17 0.984820 1_555
H34 O16 0.993618 1_455
H35 O17 0.993618 1_655
H36 O18 0.986987 1_545
H37 O19 0.986987 1_565
H38 O18 0.987279 1_455
H39 O19 0.987279 1_655
H40 O20 0.989892 1_555
H41 O21 0.989892 1_555
H42 O20 0.986111 1_555
H43 O21 0.986111 1_555
H44 O22 0.990174 1_555
H45 O23 0.990174 1_555
H46 O22 0.987296 1_555
H47 O23 0.987296 1_555
H48 O24 0.984621 1_555
H49 O25 0.984621 1_555
H50 O24 0.990354 1_555
H51 O25 0.990354 1_555
H52 O26 0.987679 1_555
H53 O27 0.987679 1_555
H54 O26 0.999550 1_555
H55 O27 0.999550 1_555
O24 V2 2.237125 1_555
O25 V3 2.237125 1_555
O26 V0 2.332562 1_555
O27 V1 2.332562 1_555
O28 V2 1.670993 1_555
O29 V3 1.670993 1_555
O30 V0 1.677953 1_555
O31 V1 1.677953 1_555
F0 V0 1.937581 1_555
F1 V1 1.937581 1_555
F2 V0 1.949338 1_555
F3 V1 1.949338 1_555
F4 H31 1.629193 1_555
F4 H24 1.671375 1_555
F4 V0 1.953852 1_555
F5 H30 1.629193 1_555
F5 H25 1.671375 1_555
F5 V1 1.953852 1_555
F6 H26 1.642757 1_555
F6 H20 1.645563 1_555
F6 V0 1.949079 1_555
F7 H27 1.642757 1_555
F7 H21 1.645563 1_555
F7 V1 1.949079 1_555
F8 H35 1.637775 1_555
F8 H22 1.653649 1_555
F8 V2 1.960498 1_555
F9 H34 1.637775 1_555
F9 H23 1.653649 1_555
F9 V3 1.960498 1_555
F10 V2 1.977005 1_555
F11 V3 1.977005 1_555
F12 H10 1.642736 1_555
F12 H37 1.646728 1_555
F12 V2 1.956291 1_555
F13 H11 1.642736 1_555
F13 H36 1.646728 1_555
F13 V3 1.956291 1_555
F14 V2 1.965004 1_555
F15 V3 1.965004 1_555
