# generated using pymatgen
data_TbPm3
_symmetry_space_group_name_H-M   'P 1'
_cell_length_a   7.40790341
_cell_length_b   7.40790545
_cell_length_c   5.79602327
_cell_angle_alpha   90.00000000
_cell_angle_beta   90.00000000
_cell_angle_gamma   119.99999886
_symmetry_Int_Tables_number   1
_chemical_formula_structural   TbPm3
_chemical_formula_sum   'Tb2 Pm6'
_cell_volume   275.45553216
_cell_formula_units_Z   2
loop_
 _symmetry_equiv_pos_site_id
 _symmetry_equiv_pos_as_xyz
  1  'x, y, z'
loop_
 _atom_site_type_symbol
 _atom_site_label
 _atom_site_symmetry_multiplicity
 _atom_site_fract_x
 _atom_site_fract_y
 _atom_site_fract_z
 _atom_site_occupancy
  Tb  Tb0  1  0.33333300  0.66666700  0.75000000  1
  Tb  Tb1  1  0.66666700  0.33333300  0.25000000  1
  Pm  Pm0  1  0.16699037  0.33398075  0.25000000  1
  Pm  Pm1  1  0.66601825  0.83300963  0.25000000  1
  Pm  Pm2  1  0.16699037  0.83300963  0.25000000  1
  Pm  Pm3  1  0.83300963  0.66601925  0.75000000  1
  Pm  Pm4  1  0.33398175  0.16699037  0.75000000  1
  Pm  Pm5  1  0.83300963  0.16699037  0.75000000  1
loop_
_geom_bond_atom_site_label_1
_geom_bond_atom_site_label_2
_geom_bond_distance
_geom_bond_site_symmetry_2
Pm0 Tb0 3.599142 1_555
Pm0 Tb0 3.599142 1_554
Pm0 Pm5 3.604073 1_455
Pm0 Pm5 3.604073 1_454
Pm0 Pm4 3.604077 1_555
Pm0 Pm4 3.604077 1_554
Pm0 Pm1 3.696755 1_555
Pm0 Pm2 3.696759 1_555
Pm0 Tb1 3.703950 1_455
Pm0 Tb1 3.703958 1_555
Pm0 Pm2 3.711147 1_545
Pm0 Pm1 3.711150 1_445
Pm1 Tb0 3.599138 1_555
Pm1 Tb0 3.599138 1_554
Pm1 Pm5 3.604073 1_565
Pm1 Pm5 3.604073 1_564
Pm1 Pm3 3.604077 1_555
Pm1 Pm3 3.604077 1_554
Pm1 Pm2 3.696750 1_555
Pm1 Tb1 3.703948 1_565
Pm1 Tb1 3.703963 1_555
Pm1 Pm2 3.711153 1_655
Pm2 Tb0 3.599138 1_555
Pm2 Tb0 3.599138 1_554
Pm2 Pm3 3.604073 1_455
Pm2 Pm3 3.604073 1_454
Pm2 Pm4 3.604073 1_564
Pm2 Pm4 3.604073 1_565
Pm2 Tb1 3.703955 1_455
Pm2 Tb1 3.703955 1_565
Pm3 Tb1 3.599142 1_555
Pm3 Tb1 3.599142 1_556
Pm3 Pm4 3.696755 1_555
Pm3 Pm5 3.696759 1_555
Pm3 Tb0 3.703950 1_655
Pm3 Tb0 3.703958 1_555
Pm3 Pm5 3.711147 1_565
Pm3 Pm4 3.711150 1_665
Pm4 Tb1 3.599138 1_555
Pm4 Tb1 3.599138 1_556
Pm4 Pm5 3.696750 1_555
Pm4 Tb0 3.703948 1_545
Pm4 Tb0 3.703963 1_555
Pm4 Pm5 3.711153 1_455
Pm5 Tb1 3.599138 1_555
Pm5 Tb1 3.599138 1_556
Pm5 Tb0 3.703955 1_655
Pm5 Tb0 3.703955 1_545
