# generated using pymatgen
data_LiAc2Tl
_symmetry_space_group_name_H-M   'P 1'
_cell_length_a   5.79275013
_cell_length_b   5.79275013
_cell_length_c   5.79275013
_cell_angle_alpha   60.00000000
_cell_angle_beta   60.00000000
_cell_angle_gamma   60.00000000
_symmetry_Int_Tables_number   1
_chemical_formula_structural   LiAc2Tl
_chemical_formula_sum   'Li1 Ac2 Tl1'
_cell_volume   137.44830530
_cell_formula_units_Z   1
loop_
 _symmetry_equiv_pos_site_id
 _symmetry_equiv_pos_as_xyz
  1  'x, y, z'
loop_
 _atom_site_type_symbol
 _atom_site_label
 _atom_site_symmetry_multiplicity
 _atom_site_fract_x
 _atom_site_fract_y
 _atom_site_fract_z
 _atom_site_occupancy
  Li  Li0  1  0.50000000  0.50000000  0.50000000  1
  Ac  Ac0  1  0.75000000  0.75000000  0.75000000  1
  Ac  Ac1  1  0.25000000  0.25000000  0.25000000  1
  Tl  Tl0  1  -0.00000000  -0.00000000  0.00000000  1
loop_
_geom_bond_atom_site_label_1
_geom_bond_atom_site_label_2
_geom_bond_distance
_geom_bond_site_symmetry_2
Ac0 Tl0 3.547321 1_665
Ac0 Tl0 3.547321 1_656
Ac0 Li0 3.547321 1_556
Ac0 Li0 3.547321 1_555
Ac0 Tl0 3.547321 1_566
Ac0 Li0 3.547321 1_565
Ac0 Tl0 3.547321 1_666
Ac0 Li0 3.547321 1_655
Ac1 Li0 3.547321 1_555
Ac1 Li0 3.547321 1_554
Ac1 Tl0 3.547321 1_555
Ac1 Tl0 3.547321 1_556
Ac1 Li0 3.547321 1_545
Ac1 Li0 3.547321 1_455
Ac1 Tl0 3.547321 1_565
Ac1 Tl0 3.547321 1_655
