# generated using pymatgen
data_K3S3O5
_symmetry_space_group_name_H-M   'P 1'
_cell_length_a   9.49645700
_cell_length_b   6.10093800
_cell_length_c   31.65001876
_cell_angle_alpha   90.00000000
_cell_angle_beta   95.83600444
_cell_angle_gamma   90.00000000
_symmetry_Int_Tables_number   1
_chemical_formula_structural   K3S3O5
_chemical_formula_sum   'K24 S24 O40'
_cell_volume   1824.21234967
_cell_formula_units_Z   8
loop_
 _symmetry_equiv_pos_site_id
 _symmetry_equiv_pos_as_xyz
  1  'x, y, z'
loop_
 _atom_site_type_symbol
 _atom_site_label
 _atom_site_symmetry_multiplicity
 _atom_site_fract_x
 _atom_site_fract_y
 _atom_site_fract_z
 _atom_site_occupancy
  K  K0  1  0.54344600  0.74366100  0.15719500  1
  K  K1  1  0.45655400  0.24366100  0.34280500  1
  K  K2  1  0.45655400  0.25633900  0.84280500  1
  K  K3  1  0.54344600  0.75633900  0.65719500  1
  K  K4  1  0.91715900  0.13511600  0.09176100  1
  K  K5  1  0.08284100  0.63511600  0.40823900  1
  K  K6  1  0.08284100  0.86488400  0.90823900  1
  K  K7  1  0.91715900  0.36488400  0.59176100  1
  K  K8  1  0.27042600  0.07188300  0.22597000  1
  K  K9  1  0.72957400  0.57188300  0.27403000  1
  K  K10  1  0.72957400  0.92811700  0.77403000  1
  K  K11  1  0.27042600  0.42811700  0.72597000  1
  K  K12  1  0.48651100  0.18928500  0.04965400  1
  K  K13  1  0.51348900  0.68928500  0.45034600  1
  K  K14  1  0.51348900  0.81071500  0.95034600  1
  K  K15  1  0.48651100  0.31071500  0.54965400  1
  K  K16  1  0.18908600  0.67802100  0.03653300  1
  K  K17  1  0.81091400  0.17802100  0.46346700  1
  K  K18  1  0.81091400  0.32197900  0.96346700  1
  K  K19  1  0.18908600  0.82197900  0.53653300  1
  K  K20  1  0.99633100  0.60872700  0.17317700  1
  K  K21  1  0.00366900  0.10872700  0.32682300  1
  K  K22  1  0.00366900  0.39127300  0.82682300  1
  K  K23  1  0.99633100  0.89127300  0.67317700  1
  S  S0  1  0.83951500  0.81755900  0.00962700  1
  S  S1  1  0.16048500  0.31755900  0.49037300  1
  S  S2  1  0.16048500  0.18244100  0.99037300  1
  S  S3  1  0.83951500  0.68244100  0.50962700  1
  S  S4  1  0.66034600  0.24562000  0.17973600  1
  S  S5  1  0.33965400  0.74562000  0.32026400  1
  S  S6  1  0.33965400  0.75438000  0.82026400  1
  S  S7  1  0.66034600  0.25438000  0.67973600  1
  S  S8  1  0.25779800  0.36212500  0.12501600  1
  S  S9  1  0.74220200  0.86212500  0.37498400  1
  S  S10  1  0.74220200  0.63787500  0.87498400  1
  S  S11  1  0.25779800  0.13787500  0.62501600  1
  S  S12  1  0.26308000  0.02909800  0.11885800  1
  S  S13  1  0.73692000  0.52909800  0.38114200  1
  S  S14  1  0.73692000  0.97090200  0.88114200  1
  S  S15  1  0.26308000  0.47090200  0.61885800  1
  S  S16  1  0.71991100  0.67123400  0.05191900  1
  S  S17  1  0.28008900  0.17123400  0.44808100  1
  S  S18  1  0.28008900  0.32876600  0.94808100  1
  S  S19  1  0.71991100  0.82876600  0.55191900  1
  S  S20  1  0.83863500  0.08945400  0.20766400  1
  S  S21  1  0.16136500  0.58945400  0.29233600  1
  S  S22  1  0.16136500  0.91054600  0.79233600  1
  S  S23  1  0.83863500  0.41054600  0.70766400  1
  O  O0  1  0.57115800  0.74669300  0.04171500  1
  O  O1  1  0.42884200  0.24669300  0.45828500  1
  O  O2  1  0.42884200  0.25330700  0.95828500  1
  O  O3  1  0.57115800  0.75330700  0.54171500  1
  O  O4  1  0.73040100  0.42895400  0.04577000  1
  O  O5  1  0.26959900  0.92895400  0.45423000  1
  O  O6  1  0.26959900  0.57104600  0.95423000  1
  O  O7  1  0.73040100  0.07104600  0.54577000  1
  O  O8  1  0.77485200  0.73437900  0.09590700  1
  O  O9  1  0.22514800  0.23437900  0.40409300  1
  O  O10  1  0.22514800  0.26562100  0.90409300  1
  O  O11  1  0.77485200  0.76562100  0.59590700  1
  O  O12  1  0.11771200  0.44115400  0.10472900  1
  O  O13  1  0.88228800  0.94115400  0.39527100  1
  O  O14  1  0.88228800  0.55884600  0.89527100  1
  O  O15  1  0.11771200  0.05884600  0.60472900  1
  O  O16  1  0.27544100  0.42059300  0.17057300  1
  O  O17  1  0.72455900  0.92059300  0.32942700  1
  O  O18  1  0.72455900  0.57940700  0.82942700  1
  O  O19  1  0.27544100  0.07940700  0.67057300  1
  O  O20  1  0.37286400  0.46002100  0.10229700  1
  O  O21  1  0.62713600  0.96002100  0.39770300  1
  O  O22  1  0.62713600  0.53997900  0.89770300  1
  O  O23  1  0.37286400  0.03997900  0.60229700  1
  O  O24  1  0.88083800  0.19619700  0.24864600  1
  O  O25  1  0.11916200  0.69619700  0.25135400  1
  O  O26  1  0.11916200  0.80380300  0.75135400  1
  O  O27  1  0.88083800  0.30380300  0.74864600  1
  O  O28  1  0.95009400  0.11350100  0.17813900  1
  O  O29  1  0.04990600  0.61350100  0.32186100  1
  O  O30  1  0.04990600  0.88649900  0.82186100  1
  O  O31  1  0.95009400  0.38649900  0.67813900  1
  O  O32  1  0.79881700  0.85627000  0.21162700  1
  O  O33  1  0.20118300  0.35627000  0.28837300  1
  O  O34  1  0.20118300  0.14373000  0.78837300  1
  O  O35  1  0.79881700  0.64373000  0.71162700  1
  O  O36  1  0.44751800  0.72134000  0.25275700  1
  O  O37  1  0.55248200  0.22134000  0.24724300  1
  O  O38  1  0.55248200  0.27866000  0.74724300  1
  O  O39  1  0.44751800  0.77866000  0.75275700  1
loop_
_geom_bond_atom_site_label_1
_geom_bond_atom_site_label_2
_geom_bond_distance
_geom_bond_site_symmetry_2
K0 O20 2.839942 1_555
K0 O32 2.910587 1_555
K0 O8 3.076028 1_555
K0 O36 3.249089 1_555
K0 O16 3.280376 1_555
K0 S4 3.288297 1_555
K0 S12 3.307067 1_565
K0 S4 3.310398 1_565
K1 O21 2.839942 1_545
K1 O33 2.910587 1_555
K1 O9 3.076028 1_555
K1 O37 3.249089 1_555
K1 O17 3.280376 1_545
K1 S5 3.288297 1_545
K1 S13 3.307067 1_555
K1 S5 3.310398 1_555
K2 O22 2.839942 1_555
K2 O34 2.910587 1_555
K2 O10 3.076028 1_555
K2 O38 3.249089 1_555
K2 O18 3.280376 1_555
K2 S6 3.288297 1_555
K2 S14 3.307067 1_545
K2 S6 3.310398 1_545
K3 O23 2.839942 1_565
K3 O35 2.910587 1_555
K3 O11 3.076028 1_555
K3 O39 3.249089 1_555
K3 O19 3.280376 1_565
K3 S7 3.288297 1_565
K3 S15 3.307067 1_555
K3 S7 3.310398 1_555
K4 O12 2.668878 1_655
K4 O28 2.723113 1_555
K4 O8 2.803033 1_545
K4 O4 2.820104 1_555
K4 S0 3.265731 1_545
K4 S12 3.372287 1_655
K5 O13 2.668878 1_455
K5 O29 2.723113 1_555
K5 O9 2.803033 1_555
K5 O5 2.820104 1_555
K5 S1 3.265731 1_555
K5 S13 3.372287 1_455
K6 O14 2.668878 1_455
K6 O30 2.723113 1_555
K6 O10 2.803033 1_565
K6 O6 2.820104 1_555
K6 S2 3.265731 1_565
K6 S14 3.372287 1_455
K7 O15 2.668878 1_655
K7 O31 2.723113 1_555
K7 O11 2.803033 1_555
K7 O7 2.820104 1_555
K7 S3 3.265731 1_555
K7 S15 3.372287 1_655
K8 O33 2.758200 1_555
K8 O16 2.760334 1_555
K8 O36 2.798371 1_545
K8 O37 2.844738 1_555
K8 O25 2.863047 1_545
K8 S12 3.393768 1_555
K9 O32 2.758200 1_555
K9 O17 2.760334 1_555
K9 O37 2.798371 1_555
K9 O36 2.844738 1_555
K9 O24 2.863047 1_555
K9 S13 3.393768 1_555
K10 O35 2.758200 1_555
K10 O18 2.760334 1_555
K10 O38 2.798371 1_565
K10 O39 2.844738 1_555
K10 O27 2.863047 1_565
K10 S14 3.393768 1_555
K11 O34 2.758200 1_555
K11 O19 2.760334 1_555
K11 O39 2.798371 1_555
K11 O38 2.844738 1_555
K11 O26 2.863047 1_555
K11 S15 3.393768 1_555
K12 O20 2.652314 1_555
K12 O4 2.752333 1_555
K12 O0 2.835772 1_545
K12 O2 2.914293 1_554
K12 S12 3.346596 1_555
K12 S2 3.453474 1_554
K13 O21 2.652314 1_555
K13 O5 2.752333 1_555
K13 O1 2.835772 1_555
K13 O3 2.914293 1_555
K13 S13 3.346596 1_555
K13 S3 3.453474 1_555
K14 O22 2.652314 1_555
K14 O6 2.752333 1_555
K14 O2 2.835772 1_565
K14 O0 2.914293 1_556
K14 S14 3.346596 1_555
K14 S0 3.453474 1_556
K15 O23 2.652314 1_555
K15 O7 2.752333 1_555
K15 O3 2.835772 1_555
K15 O1 2.914293 1_555
K15 S15 3.346596 1_555
K15 S1 3.453474 1_555
K16 O12 2.739340 1_555
K16 O6 2.863745 1_554
K16 O20 2.899724 1_555
K16 S2 3.356942 1_554
K16 S12 3.390906 1_565
K16 S2 3.405598 1_564
K16 S0 3.448961 1_455
K17 O13 2.739340 1_545
K17 O7 2.863745 1_555
K17 O21 2.899724 1_545
K17 S3 3.356942 1_545
K17 S13 3.390906 1_555
K17 S3 3.405598 1_555
K17 S1 3.448961 1_655
K18 O14 2.739340 1_555
K18 O4 2.863745 1_556
K18 O22 2.899724 1_555
K18 S0 3.356942 1_556
K18 S14 3.390906 1_545
K18 S0 3.405598 1_546
K18 S2 3.448961 1_655
K19 O15 2.739340 1_565
K19 O5 2.863745 1_555
K19 O23 2.899724 1_565
K19 S1 3.356942 1_565
K19 S15 3.390906 1_555
K19 S1 3.405598 1_555
K19 S3 3.448961 1_455
K20 O25 2.679673 1_655
K20 O12 2.752260 1_655
K20 O32 2.782835 1_555
K20 O16 2.897257 1_655
K20 O28 3.059412 1_555
K20 O28 3.116952 1_565
K20 O8 3.153774 1_555
K21 O24 2.679673 1_455
K21 O13 2.752260 1_445
K21 O33 2.782835 1_555
K21 O17 2.897257 1_445
K21 O29 3.059412 1_545
K21 O29 3.116952 1_555
K21 O9 3.153774 1_555
K22 O27 2.679673 1_455
K22 O14 2.752260 1_455
K22 O34 2.782835 1_555
K22 O18 2.897257 1_455
K22 O30 3.059412 1_555
K22 O30 3.116952 1_545
K22 O10 3.153774 1_555
K23 O26 2.679673 1_655
K23 O15 2.752260 1_665
K23 O35 2.782835 1_555
K23 O19 2.897257 1_665
K23 O31 3.059412 1_565
K23 O31 3.116952 1_555
K23 O11 3.153774 1_555
S0 S16 2.046436 1_555
S1 S17 2.046436 1_555
S10 S14 2.042207 1_555
S11 S15 2.042207 1_555
S12 S8 2.042207 1_555
S13 S9 2.042207 1_555
S18 S2 2.046436 1_555
S19 S3 2.046436 1_555
S20 S4 2.061881 1_555
S21 S5 2.061881 1_555
S22 S6 2.061881 1_555
S23 S7 2.061881 1_555
O0 S16 1.489623 1_555
O1 S17 1.489623 1_555
O2 S18 1.489623 1_555
O3 S19 1.489623 1_555
O4 S16 1.495535 1_555
O5 S17 1.495535 1_565
O6 S18 1.495535 1_555
O7 S19 1.495535 1_545
O8 S16 1.487007 1_555
O9 S17 1.487007 1_555
O10 S18 1.487007 1_555
O11 S19 1.487007 1_555
O12 S8 1.496926 1_555
O13 S9 1.496926 1_555
O14 S10 1.496926 1_555
O15 S11 1.496926 1_555
O16 S8 1.478243 1_555
O17 S9 1.478243 1_555
O18 S10 1.478243 1_555
O19 S11 1.478243 1_555
O20 S8 1.492509 1_555
O21 S9 1.492509 1_555
O22 S10 1.492509 1_555
O23 S11 1.492509 1_555
O24 S20 1.470180 1_555
O25 S21 1.470180 1_555
O26 S22 1.470180 1_555
O27 S23 1.470180 1_555
O28 S20 1.488707 1_555
O29 S21 1.488707 1_555
O30 S22 1.488707 1_555
O31 S23 1.488707 1_555
O32 S20 1.480631 1_565
O33 S21 1.480631 1_555
O34 S22 1.480631 1_545
O35 S23 1.480631 1_555
O36 S5 2.466031 1_555
O37 S4 2.466031 1_555
O38 S7 2.466031 1_555
O39 S6 2.466031 1_555
