# generated using pymatgen
data_Tm2MgSe4
_symmetry_space_group_name_H-M   'P 1'
_cell_length_a   14.02921100
_cell_length_b   8.15612900
_cell_length_c   6.79383100
_cell_angle_alpha   90.00000000
_cell_angle_beta   90.00000000
_cell_angle_gamma   90.00000000
_symmetry_Int_Tables_number   1
_chemical_formula_structural   Tm2MgSe4
_chemical_formula_sum   'Tm8 Mg4 Se16'
_cell_volume   777.37768986
_cell_formula_units_Z   4
loop_
 _symmetry_equiv_pos_site_id
 _symmetry_equiv_pos_as_xyz
  1  'x, y, z'
loop_
 _atom_site_type_symbol
 _atom_site_label
 _atom_site_symmetry_multiplicity
 _atom_site_fract_x
 _atom_site_fract_y
 _atom_site_fract_z
 _atom_site_occupancy
  Tm  Tm0  1  0.00000000  0.00000000  0.50000000  1
  Tm  Tm1  1  0.50000000  0.00000000  0.00000000  1
  Tm  Tm2  1  0.50000000  0.50000000  0.00000000  1
  Tm  Tm3  1  0.00000000  0.50000000  0.50000000  1
  Tm  Tm4  1  0.23513100  0.75000000  0.00399500  1
  Tm  Tm5  1  0.76486900  0.25000000  0.99600500  1
  Tm  Tm6  1  0.26486900  0.25000000  0.50399500  1
  Tm  Tm7  1  0.73513100  0.75000000  0.49600500  1
  Mg  Mg0  1  0.09229100  0.25000000  0.91908300  1
  Mg  Mg1  1  0.90770900  0.75000000  0.08091700  1
  Mg  Mg2  1  0.40770900  0.75000000  0.41908300  1
  Mg  Mg3  1  0.59229100  0.25000000  0.58091700  1
  Se  Se0  1  0.16939300  0.00318300  0.73890900  1
  Se  Se1  1  0.83060700  0.99681700  0.26109100  1
  Se  Se2  1  0.33060700  0.99681700  0.23890900  1
  Se  Se3  1  0.66939300  0.00318300  0.76109100  1
  Se  Se4  1  0.66939300  0.49681700  0.76109100  1
  Se  Se5  1  0.33060700  0.50318300  0.23890900  1
  Se  Se6  1  0.83060700  0.50318300  0.26109100  1
  Se  Se7  1  0.16939300  0.49681700  0.73890900  1
  Se  Se8  1  0.07434500  0.75000000  0.25140300  1
  Se  Se9  1  0.92565500  0.25000000  0.74859700  1
  Se  Se10  1  0.42565500  0.25000000  0.75140300  1
  Se  Se11  1  0.57434500  0.75000000  0.24859700  1
  Se  Se12  1  0.09159200  0.25000000  0.29124200  1
  Se  Se13  1  0.90840800  0.75000000  0.70875800  1
  Se  Se14  1  0.40840800  0.75000000  0.79124200  1
  Se  Se15  1  0.59159200  0.25000000  0.20875800  1
loop_
_geom_bond_atom_site_label_1
_geom_bond_atom_site_label_2
_geom_bond_distance
_geom_bond_site_symmetry_2
Mg0 Se12 2.528404 1_556
Mg0 Se7 2.592458 1_555
Mg0 Se0 2.592458 1_555
Mg0 Se9 2.608970 1_455
Mg1 Se13 2.528404 1_554
Mg1 Se6 2.592458 1_555
Mg1 Se1 2.592458 1_555
Mg1 Se8 2.608970 1_655
Mg2 Se14 2.528404 1_555
Mg2 Se2 2.592458 1_555
Mg2 Se5 2.592458 1_555
Mg2 Se11 2.608970 1_555
Mg3 Se15 2.528404 1_555
Mg3 Se3 2.592458 1_555
Mg3 Se4 2.592458 1_555
Mg3 Se10 2.608970 1_555
Se0 Tm0 2.877962 1_555
Se0 Tm4 2.891049 1_546
Se0 Tm6 2.897188 1_555
Se1 Tm0 2.877962 1_665
Se1 Tm5 2.891049 1_564
Se1 Tm7 2.897188 1_555
Se2 Tm1 2.877962 1_565
Se2 Tm6 2.891049 1_565
Se2 Tm4 2.897188 1_555
Se3 Tm1 2.877962 1_556
Se3 Tm7 2.891049 1_545
Se3 Tm5 2.897188 1_555
Se4 Tm2 2.877962 1_556
Se4 Tm7 2.891049 1_555
Se4 Tm5 2.897188 1_555
Se5 Tm2 2.877962 1_555
Se5 Tm6 2.891049 1_555
Se5 Tm4 2.897188 1_555
Se6 Tm3 2.877962 1_655
Se6 Tm5 2.891049 1_554
Se6 Tm7 2.897188 1_555
Se7 Tm3 2.877962 1_555
Se7 Tm4 2.891049 1_556
Se7 Tm6 2.897188 1_555
Se8 Tm4 2.813083 1_555
Se8 Tm0 2.845694 1_565
Se8 Tm3 2.845694 1_555
Se9 Tm5 2.813083 1_555
Se9 Tm3 2.845694 1_655
Se9 Tm0 2.845694 1_655
Se10 Tm6 2.813083 1_555
Se10 Tm1 2.845694 1_556
Se10 Tm2 2.845694 1_556
Se11 Tm7 2.813083 1_555
Se11 Tm2 2.845694 1_555
Se11 Tm1 2.845694 1_565
Se12 Tm0 2.796473 1_555
Se12 Tm3 2.796473 1_555
Se12 Tm6 2.828192 1_555
Se13 Tm0 2.796473 1_665
Se13 Tm3 2.796473 1_655
Se13 Tm7 2.828192 1_555
Se14 Tm2 2.796473 1_556
Se14 Tm1 2.796473 1_566
Se14 Tm4 2.828192 1_556
Se15 Tm2 2.796473 1_555
Se15 Tm1 2.796473 1_555
Se15 Tm5 2.828192 1_554
