# generated using pymatgen
data_Ba8Ca3Nb5O24
_symmetry_space_group_name_H-M   'P 1'
_cell_length_a   10.50611163
_cell_length_b   10.50611163
_cell_length_c   10.50611163
_cell_angle_alpha   132.31683765
_cell_angle_beta   132.31683765
_cell_angle_gamma   69.72907424
_symmetry_Int_Tables_number   1
_chemical_formula_structural   Ba8Ca3Nb5O24
_chemical_formula_sum   'Ba8 Ca3 Nb5 O24'
_cell_volume   621.84206397
_cell_formula_units_Z   1
loop_
 _symmetry_equiv_pos_site_id
 _symmetry_equiv_pos_as_xyz
  1  'x, y, z'
loop_
 _atom_site_type_symbol
 _atom_site_label
 _atom_site_symmetry_multiplicity
 _atom_site_fract_x
 _atom_site_fract_y
 _atom_site_fract_z
 _atom_site_occupancy
  Ba  Ba0  1  0.62860000  0.62860000  0.50719800  1
  Ba  Ba1  1  0.37140000  0.87859800  0.00000000  1
  Ba  Ba2  1  0.12140200  0.12140200  0.49280200  1
  Ba  Ba3  1  0.87859800  0.37140000  0.00000000  1
  Ba  Ba4  1  0.87859800  0.87859800  0.50719800  1
  Ba  Ba5  1  0.62860000  0.12140200  0.00000000  1
  Ba  Ba6  1  0.37140000  0.37140000  0.49280200  1
  Ba  Ba7  1  0.12140200  0.62860000  0.00000000  1
  Ca  Ca0  1  0.75000000  0.25000000  0.50000000  1
  Ca  Ca1  1  0.50000000  0.50000000  0.00000000  1
  Ca  Ca2  1  0.25000000  0.75000000  0.50000000  1
  Nb  Nb0  1  0.25524500  0.25524500  0.00000000  1
  Nb  Nb1  1  0.00000000  0.50000000  0.50000000  1
  Nb  Nb2  1  0.74475500  0.74475500  0.00000000  1
  Nb  Nb3  1  0.50000000  0.00000000  0.50000000  1
  Nb  Nb4  1  0.00000000  0.00000000  0.00000000  1
  O  O0  1  0.47399300  0.24155200  0.23244200  1
  O  O1  1  0.23200000  0.50000000  0.73200000  1
  O  O2  1  0.99089000  0.75844800  0.23244200  1
  O  O3  1  0.75516200  0.00000000  0.75516200  1
  O  O4  1  0.36580200  0.36580200  0.00000000  1
  O  O5  1  0.11543900  0.61543900  0.50000000  1
  O  O6  1  0.88484500  0.88484500  0.00000000  1
  O  O7  1  0.61543900  0.11543900  0.50000000  1
  O  O8  1  0.24155200  0.47399300  0.23244200  1
  O  O9  1  0.00000000  0.75516200  0.75516200  1
  O  O10  1  0.75844800  0.99089000  0.23244200  1
  O  O11  1  0.50000000  0.23200000  0.73200000  1
  O  O12  1  0.00911000  0.24155200  0.76755800  1
  O  O13  1  0.76800000  0.50000000  0.26800000  1
  O  O14  1  0.52600700  0.75844800  0.76755800  1
  O  O15  1  0.24483800  0.00000000  0.24483800  1
  O  O16  1  0.11515500  0.11515500  0.00000000  1
  O  O17  1  0.88456100  0.38456100  0.50000000  1
  O  O18  1  0.63419800  0.63419800  0.00000000  1
  O  O19  1  0.38456100  0.88456100  0.50000000  1
  O  O20  1  0.24155200  0.00911000  0.76755800  1
  O  O21  1  0.00000000  0.24483800  0.24483800  1
  O  O22  1  0.75844800  0.52600700  0.76755800  1
  O  O23  1  0.50000000  0.76800000  0.26800000  1
loop_
_geom_bond_atom_site_label_1
_geom_bond_atom_site_label_2
_geom_bond_distance
_geom_bond_site_symmetry_2
Ba0 O14 2.903715 1_555
Ba0 O22 2.903715 1_555
Ba0 O6 2.964480 1_556
Ba0 O3 3.004022 1_565
Ba0 O9 3.004022 1_655
Ba0 O19 3.007678 1_555
Ba0 O17 3.007678 1_555
Ba0 O13 3.049353 1_555
Ba0 O23 3.049353 1_555
Ba0 O4 3.050202 1_555
Ba0 O0 3.156746 1_555
Ba0 O8 3.156746 1_555
Ba1 O0 2.903721 1_565
Ba1 O20 2.903724 1_564
Ba1 O16 2.964480 1_565
Ba1 O15 3.004022 1_565
Ba1 O9 3.004022 1_554
Ba1 O5 3.007678 1_554
Ba1 O7 3.007678 1_565
Ba1 O23 3.049353 1_555
Ba1 O1 3.049353 1_554
Ba1 O18 3.050202 1_555
Ba1 O10 3.156742 1_555
Ba1 O14 3.156751 1_554
Ba2 O2 2.903724 1_445
Ba2 O10 2.903724 1_445
Ba2 O6 2.964480 1_445
Ba2 O15 3.004022 1_555
Ba2 O21 3.004022 1_555
Ba2 O19 3.007678 1_545
Ba2 O17 3.007678 1_455
Ba2 O11 3.049353 1_555
Ba2 O1 3.049353 1_555
Ba2 O4 3.050202 1_556
Ba2 O20 3.156742 1_555
Ba2 O12 3.156742 1_555
Ba3 O8 2.903721 1_655
Ba3 O12 2.903724 1_654
Ba3 O16 2.964480 1_655
Ba3 O21 3.004022 1_655
Ba3 O3 3.004022 1_554
Ba3 O5 3.007678 1_655
Ba3 O7 3.007678 1_554
Ba3 O11 3.049353 1_554
Ba3 O13 3.049353 1_555
Ba3 O18 3.050202 1_555
Ba3 O2 3.156742 1_555
Ba3 O22 3.156751 1_554
Ba4 O20 2.903724 1_665
Ba4 O12 2.903724 1_665
Ba4 O16 2.964480 1_666
Ba4 O3 3.004022 1_565
Ba4 O9 3.004022 1_655
Ba4 O7 3.007678 1_565
Ba4 O5 3.007678 1_655
Ba4 O23 3.049353 1_555
Ba4 O13 3.049353 1_555
Ba4 O18 3.050202 1_555
Ba4 O10 3.156742 1_555
Ba4 O2 3.156742 1_555
Ba5 O14 2.903721 1_544
Ba5 O10 2.903724 1_545
Ba5 O6 2.964480 1_545
Ba5 O3 3.004022 1_554
Ba5 O21 3.004022 1_655
Ba5 O17 3.007678 1_555
Ba5 O19 3.007678 1_544
Ba5 O11 3.049353 1_554
Ba5 O13 3.049353 1_555
Ba5 O4 3.050202 1_555
Ba5 O20 3.156742 1_554
Ba5 O0 3.156751 1_555
Ba6 O8 2.903715 1_555
Ba6 O0 2.903715 1_555
Ba6 O16 2.964480 1_555
Ba6 O21 3.004022 1_555
Ba6 O15 3.004022 1_555
Ba6 O7 3.007678 1_555
Ba6 O5 3.007678 1_555
Ba6 O11 3.049353 1_555
Ba6 O1 3.049353 1_555
Ba6 O18 3.050202 1_556
Ba6 O14 3.156746 1_555
Ba6 O22 3.156746 1_555
Ba7 O22 2.903721 1_454
Ba7 O2 2.903724 1_455
Ba7 O6 2.964480 1_455
Ba7 O15 3.004022 1_565
Ba7 O9 3.004022 1_554
Ba7 O19 3.007678 1_555
Ba7 O17 3.007678 1_454
Ba7 O23 3.049353 1_555
Ba7 O1 3.049353 1_554
Ba7 O4 3.050202 1_555
Ba7 O12 3.156742 1_554
Ba7 O8 3.156751 1_555
Ca0 O12 2.277122 1_655
Ca0 O10 2.277122 1_545
Ca0 O22 2.277127 1_555
Ca0 O0 2.277127 1_555
Ca0 O17 2.319919 1_555
Ca0 O7 2.319919 1_555
Ca1 O13 2.276214 1_555
Ca1 O1 2.276214 1_554
Ca1 O11 2.276214 1_554
Ca1 O23 2.276214 1_555
Ca1 O18 2.313661 1_555
Ca1 O4 2.313661 1_555
Ca2 O20 2.277122 1_565
Ca2 O2 2.277122 1_455
Ca2 O14 2.277127 1_555
Ca2 O8 2.277127 1_555
Ca2 O19 2.319919 1_555
Ca2 O5 2.319919 1_555
Nb0 O4 1.906075 1_555
Nb0 O8 1.988269 1_555
Nb0 O0 1.988269 1_555
Nb0 O20 1.988272 1_554
Nb0 O12 1.988272 1_554
Nb0 O16 2.415243 1_555
Nb1 O13 1.970453 1_455
Nb1 O1 1.970453 1_555
Nb1 O5 1.990244 1_555
Nb1 O17 1.990244 1_455
Nb1 O21 2.167176 1_555
Nb1 O9 2.167176 1_555
Nb2 O18 1.906075 1_555
Nb2 O22 1.988269 1_554
Nb2 O14 1.988269 1_554
Nb2 O10 1.988272 1_555
Nb2 O2 1.988272 1_555
Nb2 O6 2.415243 1_555
Nb3 O23 1.970453 1_545
Nb3 O11 1.970453 1_555
Nb3 O7 1.990244 1_555
Nb3 O19 1.990244 1_545
Nb3 O3 2.167176 1_555
Nb3 O15 2.167176 1_555
Nb4 O16 1.985347 1_555
Nb4 O6 1.985347 1_445
Nb4 O9 2.079491 1_544
Nb4 O21 2.079491 1_555
Nb4 O15 2.079491 1_555
Nb4 O3 2.079491 1_454
