# generated using pymatgen
data_Yb3C4
_symmetry_space_group_name_H-M   'P 1'
_cell_length_a   8.21493100
_cell_length_b   8.21493100
_cell_length_c   16.28081600
_cell_angle_alpha   90.00000000
_cell_angle_beta   90.00000000
_cell_angle_gamma   90.00000000
_symmetry_Int_Tables_number   1
_chemical_formula_structural   Yb3C4
_chemical_formula_sum   'Yb30 C40'
_cell_volume   1098.71235476
_cell_formula_units_Z   10
loop_
 _symmetry_equiv_pos_site_id
 _symmetry_equiv_pos_as_xyz
  1  'x, y, z'
loop_
 _atom_site_type_symbol
 _atom_site_label
 _atom_site_symmetry_multiplicity
 _atom_site_fract_x
 _atom_site_fract_y
 _atom_site_fract_z
 _atom_site_occupancy
  Yb  Yb0  1  0.50000000  0.50000000  0.50000000  1
  Yb  Yb1  1  0.00000000  0.00000000  0.00000000  1
  Yb  Yb2  1  0.50000000  0.50000000  0.18802000  1
  Yb  Yb3  1  0.00000000  0.00000000  0.68802000  1
  Yb  Yb4  1  0.50000000  0.50000000  0.81198000  1
  Yb  Yb5  1  0.00000000  0.00000000  0.31198000  1
  Yb  Yb6  1  0.69484600  0.90255500  0.50000000  1
  Yb  Yb7  1  0.30515400  0.09744500  0.50000000  1
  Yb  Yb8  1  0.80515400  0.40255500  0.00000000  1
  Yb  Yb9  1  0.19484600  0.59744500  0.00000000  1
  Yb  Yb10  1  0.90255500  0.30515400  0.50000000  1
  Yb  Yb11  1  0.09744500  0.69484600  0.50000000  1
  Yb  Yb12  1  0.40255500  0.19484600  0.00000000  1
  Yb  Yb13  1  0.59744500  0.80515400  0.00000000  1
  Yb  Yb14  1  0.79529200  0.60414800  0.34649900  1
  Yb  Yb15  1  0.20470800  0.39585200  0.34649900  1
  Yb  Yb16  1  0.70470800  0.10414800  0.84649900  1
  Yb  Yb17  1  0.29529200  0.89585200  0.84649900  1
  Yb  Yb18  1  0.60414800  0.20470800  0.34649900  1
  Yb  Yb19  1  0.39585200  0.79529200  0.34649900  1
  Yb  Yb20  1  0.10414800  0.29529200  0.84649900  1
  Yb  Yb21  1  0.89585200  0.70470800  0.84649900  1
  Yb  Yb22  1  0.20470800  0.39585200  0.65350100  1
  Yb  Yb23  1  0.79529200  0.60414800  0.65350100  1
  Yb  Yb24  1  0.29529200  0.89585200  0.15350100  1
  Yb  Yb25  1  0.70470800  0.10414800  0.15350100  1
  Yb  Yb26  1  0.39585200  0.79529200  0.65350100  1
  Yb  Yb27  1  0.60414800  0.20470800  0.65350100  1
  Yb  Yb28  1  0.89585200  0.70470800  0.15350100  1
  Yb  Yb29  1  0.10414800  0.29529200  0.15350100  1
  C  C0  1  0.50000000  0.50000000  0.96145900  1
  C  C1  1  0.00000000  0.00000000  0.46145900  1
  C  C2  1  0.50000000  0.50000000  0.03854100  1
  C  C3  1  0.00000000  0.00000000  0.53854100  1
  C  C4  1  0.50000000  0.50000000  0.34693500  1
  C  C5  1  0.00000000  0.00000000  0.84693500  1
  C  C6  1  0.50000000  0.50000000  0.65306500  1
  C  C7  1  0.00000000  0.00000000  0.15306500  1
  C  C8  1  0.60292400  0.20093700  0.50000000  1
  C  C9  1  0.39707600  0.79906300  0.50000000  1
  C  C10  1  0.89707600  0.70093700  0.00000000  1
  C  C11  1  0.10292400  0.29906300  0.00000000  1
  C  C12  1  0.20093700  0.39707600  0.50000000  1
  C  C13  1  0.79906300  0.60292400  0.50000000  1
  C  C14  1  0.70093700  0.10292400  0.00000000  1
  C  C15  1  0.29906300  0.89707600  0.00000000  1
  C  C16  1  0.69733300  0.90536000  0.32349700  1
  C  C17  1  0.30266700  0.09464000  0.32349700  1
  C  C18  1  0.80266700  0.40536000  0.82349700  1
  C  C19  1  0.19733300  0.59464000  0.82349700  1
  C  C20  1  0.90536000  0.30266700  0.32349700  1
  C  C21  1  0.09464000  0.69733300  0.32349700  1
  C  C22  1  0.40536000  0.19733300  0.82349700  1
  C  C23  1  0.59464000  0.80266700  0.82349700  1
  C  C24  1  0.30266700  0.09464000  0.67650300  1
  C  C25  1  0.69733300  0.90536000  0.67650300  1
  C  C26  1  0.19733300  0.59464000  0.17650300  1
  C  C27  1  0.80266700  0.40536000  0.17650300  1
  C  C28  1  0.09464000  0.69733300  0.67650300  1
  C  C29  1  0.90536000  0.30266700  0.67650300  1
  C  C30  1  0.59464000  0.80266700  0.17650300  1
  C  C31  1  0.40536000  0.19733300  0.17650300  1
  C  C32  1  0.64852600  0.85147400  0.25000000  1
  C  C33  1  0.35147400  0.14852600  0.25000000  1
  C  C34  1  0.85147400  0.35147400  0.75000000  1
  C  C35  1  0.14852600  0.64852600  0.75000000  1
  C  C36  1  0.85147400  0.35147400  0.25000000  1
  C  C37  1  0.14852600  0.64852600  0.25000000  1
  C  C38  1  0.35147400  0.14852600  0.75000000  1
  C  C39  1  0.64852600  0.85147400  0.75000000  1
loop_
_geom_bond_atom_site_label_1
_geom_bond_atom_site_label_2
_geom_bond_distance
_geom_bond_site_symmetry_2
C0 C2 1.254958 1_556
C0 Yb4 2.433640 1_555
C0 Yb8 2.705306 1_556
C0 Yb12 2.705306 1_556
C0 Yb9 2.705306 1_556
C0 Yb13 2.705306 1_556
C1 C3 1.254958 1_555
C1 Yb5 2.433640 1_555
C1 Yb7 2.705306 1_555
C1 Yb10 2.705306 1_455
C1 Yb6 2.705306 1_445
C1 Yb11 2.705306 1_545
C2 Yb2 2.433640 1_555
C2 Yb12 2.705306 1_555
C2 Yb9 2.705306 1_555
C2 Yb13 2.705306 1_555
C2 Yb8 2.705306 1_555
C3 Yb3 2.433640 1_555
C3 Yb7 2.705306 1_555
C3 Yb10 2.705306 1_455
C3 Yb6 2.705306 1_445
C3 Yb11 2.705306 1_545
C4 Yb0 2.492023 1_555
C4 Yb14 2.572269 1_555
C4 Yb18 2.572269 1_555
C4 Yb15 2.572269 1_555
C4 Yb19 2.572269 1_555
C4 Yb2 2.587266 1_555
C5 Yb1 2.492023 1_556
C5 Yb17 2.572269 1_545
C5 Yb16 2.572269 1_455
C5 Yb21 2.572269 1_445
C5 Yb20 2.572269 1_555
C5 Yb3 2.587266 1_555
C6 Yb0 2.492023 1_555
C6 Yb27 2.572269 1_555
C6 Yb22 2.572269 1_555
C6 Yb26 2.572269 1_555
C6 Yb23 2.572269 1_555
C6 Yb4 2.587266 1_555
C7 Yb1 2.492023 1_555
C7 Yb24 2.572269 1_545
C7 Yb25 2.572269 1_455
C7 Yb28 2.572269 1_445
C7 Yb29 2.572269 1_555
C7 Yb5 2.587266 1_555
C8 Yb18 2.499334 1_555
C8 Yb27 2.499334 1_555
C8 Yb6 2.564868 1_545
C8 Yb7 2.589692 1_555
C8 Yb0 2.598205 1_555
C8 Yb10 2.606088 1_555
C9 Yb19 2.499334 1_555
C9 Yb26 2.499334 1_555
C9 Yb7 2.564868 1_565
C9 Yb6 2.589692 1_555
C9 Yb0 2.598205 1_555
C9 Yb11 2.606088 1_555
C10 Yb21 2.499334 1_554
C10 Yb28 2.499334 1_555
C10 Yb8 2.564868 1_555
C10 Yb9 2.589692 1_655
C10 Yb1 2.598205 1_665
C10 Yb13 2.606088 1_555
C11 Yb20 2.499334 1_554
C11 Yb29 2.499334 1_555
C11 Yb9 2.564868 1_555
C11 Yb8 2.589692 1_455
C11 Yb1 2.598205 1_555
C11 Yb12 2.606088 1_555
C12 Yb22 2.499334 1_555
C12 Yb15 2.499334 1_555
C12 Yb10 2.564868 1_455
C12 Yb11 2.589692 1_555
C12 Yb0 2.598205 1_555
C12 Yb7 2.606088 1_555
C13 Yb23 2.499334 1_555
C13 Yb14 2.499334 1_555
C13 Yb11 2.564868 1_655
C13 Yb10 2.589692 1_555
C13 Yb0 2.598205 1_555
C13 Yb6 2.606088 1_555
C14 Yb25 2.499334 1_555
C14 Yb16 2.499334 1_554
C14 Yb12 2.564868 1_555
C14 Yb13 2.589692 1_545
C14 Yb1 2.598205 1_655
C14 Yb8 2.606088 1_555
C15 Yb17 2.499334 1_554
C15 Yb24 2.499334 1_555
C15 Yb13 2.564868 1_555
C15 Yb12 2.589692 1_565
C15 Yb1 2.598205 1_565
C15 Yb9 2.606088 1_555
C16 C32 1.337365 1_555
C16 Yb18 2.602601 1_565
C16 Yb5 2.611845 1_665
C16 Yb14 2.628814 1_555
C16 Yb19 2.663005 1_555
C16 Yb6 2.873778 1_555
C17 C33 1.337365 1_555
C17 Yb19 2.602601 1_545
C17 Yb5 2.611845 1_555
C17 Yb15 2.628814 1_555
C17 Yb18 2.663005 1_555
C17 Yb7 2.873778 1_555
C18 C34 1.337365 1_555
C18 Yb21 2.602601 1_555
C18 Yb4 2.611845 1_555
C18 Yb16 2.628814 1_555
C18 Yb20 2.663005 1_655
C18 Yb8 2.873778 1_556
C19 C35 1.337365 1_555
C19 Yb20 2.602601 1_555
C19 Yb4 2.611845 1_555
C19 Yb17 2.628814 1_555
C19 Yb21 2.663005 1_455
C19 Yb9 2.873778 1_556
C20 C36 1.337365 1_555
C20 Yb15 2.602601 1_655
C20 Yb5 2.611845 1_655
C20 Yb18 2.628814 1_555
C20 Yb14 2.663005 1_555
C20 Yb10 2.873778 1_555
C21 C37 1.337365 1_555
C21 Yb14 2.602601 1_455
C21 Yb5 2.611845 1_565
C21 Yb19 2.628814 1_555
C21 Yb15 2.663005 1_555
C21 Yb11 2.873778 1_555
C22 C38 1.337365 1_555
C22 Yb16 2.602601 1_555
C22 Yb4 2.611845 1_555
C22 Yb20 2.628814 1_555
C22 Yb17 2.663005 1_545
C22 Yb12 2.873778 1_556
C23 C39 1.337365 1_555
C23 Yb17 2.602601 1_555
C23 Yb4 2.611845 1_555
C23 Yb21 2.628814 1_555
C23 Yb16 2.663005 1_565
C23 Yb13 2.873778 1_556
C24 C38 1.337365 1_555
C24 Yb26 2.602601 1_545
C24 Yb3 2.611845 1_555
C24 Yb22 2.628814 1_555
C24 Yb27 2.663005 1_555
C24 Yb7 2.873778 1_555
C25 C39 1.337365 1_555
C25 Yb27 2.602601 1_565
C25 Yb3 2.611845 1_665
C25 Yb23 2.628814 1_555
C25 Yb26 2.663005 1_555
C25 Yb6 2.873778 1_555
C26 C37 1.337365 1_555
C26 Yb29 2.602601 1_555
C26 Yb2 2.611845 1_555
C26 Yb24 2.628814 1_555
C26 Yb28 2.663005 1_455
C26 Yb9 2.873778 1_555
C27 C36 1.337365 1_555
C27 Yb28 2.602601 1_555
C27 Yb2 2.611845 1_555
C27 Yb25 2.628814 1_555
C27 Yb29 2.663005 1_655
C27 Yb8 2.873778 1_555
C28 C35 1.337365 1_555
C28 Yb23 2.602601 1_455
C28 Yb3 2.611845 1_565
C28 Yb26 2.628814 1_555
C28 Yb22 2.663005 1_555
C28 Yb11 2.873778 1_555
C29 C34 1.337365 1_555
C29 Yb22 2.602601 1_655
C29 Yb3 2.611845 1_655
C29 Yb27 2.628814 1_555
C29 Yb23 2.663005 1_555
C29 Yb10 2.873778 1_555
C30 C32 1.337365 1_555
C30 Yb24 2.602601 1_555
C30 Yb2 2.611845 1_555
C30 Yb28 2.628814 1_555
C30 Yb25 2.663005 1_565
C30 Yb13 2.873778 1_555
C31 C33 1.337365 1_555
C31 Yb25 2.602601 1_555
C31 Yb2 2.611845 1_555
C31 Yb29 2.628814 1_555
C31 Yb24 2.663005 1_545
C31 Yb12 2.873778 1_555
C32 Yb25 2.643830 1_565
C32 Yb19 2.643830 1_555
C32 Yb14 2.837256 1_555
C32 Yb28 2.837256 1_555
C33 Yb24 2.643830 1_545
C33 Yb18 2.643830 1_555
C33 Yb15 2.837256 1_555
C33 Yb29 2.837256 1_555
C34 Yb20 2.643830 1_655
C34 Yb23 2.643830 1_555
C34 Yb27 2.837256 1_555
C34 Yb16 2.837256 1_555
C35 Yb21 2.643830 1_455
C35 Yb22 2.643830 1_555
C35 Yb17 2.837256 1_555
C35 Yb26 2.837256 1_555
C36 Yb29 2.643830 1_655
C36 Yb14 2.643830 1_555
C36 Yb18 2.837256 1_555
C36 Yb25 2.837256 1_555
C37 Yb28 2.643830 1_455
C37 Yb15 2.643830 1_555
C37 Yb24 2.837256 1_555
C37 Yb19 2.837256 1_555
C38 Yb27 2.643830 1_555
C38 Yb17 2.643830 1_545
C38 Yb22 2.837256 1_555
C38 Yb20 2.837256 1_555
C39 Yb16 2.643830 1_565
C39 Yb26 2.643830 1_555
C39 Yb23 2.837256 1_555
C39 Yb21 2.837256 1_555
