# generated using pymatgen
data_Li2V4CrCuO12
_symmetry_space_group_name_H-M   'P 1'
_cell_length_a   6.92377547
_cell_length_b   6.92401092
_cell_length_c   5.65040428
_cell_angle_alpha   72.22556126
_cell_angle_beta   107.77423689
_cell_angle_gamma   103.45791492
_symmetry_Int_Tables_number   1
_chemical_formula_structural   Li2V4CrCuO12
_chemical_formula_sum   'Li2 V4 Cr1 Cu1 O12'
_cell_volume   242.71306319
_cell_formula_units_Z   1
loop_
 _symmetry_equiv_pos_site_id
 _symmetry_equiv_pos_as_xyz
  1  'x, y, z'
loop_
 _atom_site_type_symbol
 _atom_site_label
 _atom_site_symmetry_multiplicity
 _atom_site_fract_x
 _atom_site_fract_y
 _atom_site_fract_z
 _atom_site_occupancy
  Li  Li0  1  0.26512900  0.26514700  0.24999600  1
  Li  Li1  1  0.71806100  0.71809100  0.74999900  1
  V  V0  1  0.16547100  0.61401600  0.70808300  1
  V  V1  1  0.37774100  0.81695000  0.23295600  1
  V  V2  1  0.61392600  0.16541100  0.79198600  1
  V  V3  1  0.81692000  0.37776900  0.26700800  1
  Cr  Cr0  1  0.07315700  0.07320400  0.74987800  1
  Cu  Cu0  1  0.89255300  0.89236200  0.25025100  1
  O  O0  1  0.99994000  0.79794600  0.66909100  1
  O  O1  1  0.11621100  0.34809300  0.81503300  1
  O  O2  1  0.19427900  0.98153000  0.13178800  1
  O  O3  1  0.40867400  0.70950700  0.56973900  1
  O  O4  1  0.34800600  0.11611400  0.68482000  1
  O  O5  1  0.31600000  0.62931200  0.06407500  1
  O  O6  1  0.70942300  0.40864200  0.93023200  1
  O  O7  1  0.60335400  0.97232200  0.17105700  1
  O  O8  1  0.62935300  0.31604200  0.43598100  1
  O  O9  1  0.79792800  0.99998600  0.83096000  1
  O  O10  1  0.97240700  0.60331100  0.32893400  1
  O  O11  1  0.98147100  0.19424700  0.36813200  1
loop_
_geom_bond_atom_site_label_1
_geom_bond_atom_site_label_2
_geom_bond_distance
_geom_bond_site_symmetry_2
Li0 O11 2.166880 1_455
Li0 O2 2.166915 1_545
Li0 O4 2.301641 1_555
Li0 O1 2.302178 1_554
Li0 O5 2.404332 1_555
Li0 O8 2.404685 1_555
Li1 O0 2.052277 1_555
Li1 O9 2.052576 1_555
Li1 O3 2.067673 1_555
Li1 O6 2.068060 1_555
Cr0 O4 1.985455 1_555
Cr0 O1 1.985900 1_555
Cr0 O0 2.009464 1_445
Cr0 O9 2.009940 1_445
Cr0 O11 2.016441 1_455
Cr0 O2 2.017305 1_546
Cu0 O10 2.081020 1_555
Cu0 O7 2.081794 1_555
Cu0 O0 2.188242 1_555
Cu0 O9 2.190701 1_554
Cu0 O11 2.278714 1_565
Cu0 O2 2.279161 1_655
O0 V0 1.826988 1_655
O1 V0 1.739518 1_555
O2 V1 1.752602 1_555
O3 V1 1.783695 1_555
O3 V0 1.963043 1_555
O4 V2 1.739563 1_555
O5 V1 1.740871 1_555
O5 V0 1.985529 1_554
O6 V3 1.783747 1_556
O6 V2 1.962964 1_555
O7 V1 1.743972 1_555
O7 V2 2.163877 1_564
O8 V3 1.740781 1_555
O8 V2 1.985957 1_555
O9 V2 1.826861 1_565
O10 V3 1.743924 1_555
O10 V0 2.164349 1_655
O11 V3 1.752809 1_555
