# generated using pymatgen
data_K2DyF5
_symmetry_space_group_name_H-M   'P 1'
_cell_length_a   6.53699596
_cell_length_b   7.23316145
_cell_length_c   10.70030899
_cell_angle_alpha   90.00000000
_cell_angle_beta   90.00000000
_cell_angle_gamma   90.00000000
_symmetry_Int_Tables_number   1
_chemical_formula_structural   K2DyF5
_chemical_formula_sum   'K8 Dy4 F20'
_cell_volume   505.94428481
_cell_formula_units_Z   4
loop_
 _symmetry_equiv_pos_site_id
 _symmetry_equiv_pos_as_xyz
  1  'x, y, z'
loop_
 _atom_site_type_symbol
 _atom_site_label
 _atom_site_symmetry_multiplicity
 _atom_site_fract_x
 _atom_site_fract_y
 _atom_site_fract_z
 _atom_site_occupancy
  K  K0  1  0.53693646  0.49618868  0.82936514  1
  K  K1  1  0.46306354  0.50381132  0.17063486  1
  K  K2  1  0.03693646  0.50381132  0.67063486  1
  K  K3  1  0.46306354  0.99618868  0.17063486  1
  K  K4  1  0.96306354  0.49618868  0.32936514  1
  K  K5  1  0.53693646  0.00381132  0.82936514  1
  K  K6  1  0.96306354  0.00381132  0.32936514  1
  K  K7  1  0.03693646  0.99618868  0.67063486  1
  Dy  Dy0  1  0.56542414  0.75000000  0.50278181  1
  Dy  Dy1  1  0.43457586  0.25000000  0.49721819  1
  Dy  Dy2  1  0.06542414  0.25000000  0.99721819  1
  Dy  Dy3  1  0.93457586  0.75000000  0.00278181  1
  F  F0  1  0.83843421  0.75000000  0.80542845  1
  F  F1  1  0.16156579  0.25000000  0.19457155  1
  F  F2  1  0.33843421  0.25000000  0.69457155  1
  F  F3  1  0.66156579  0.75000000  0.30542845  1
  F  F4  1  0.36896097  0.75000000  0.66808602  1
  F  F5  1  0.63103903  0.25000000  0.33191398  1
  F  F6  1  0.86896097  0.25000000  0.83191398  1
  F  F7  1  0.13103903  0.75000000  0.16808602  1
  F  F8  1  0.89884223  0.75000000  0.51154675  1
  F  F9  1  0.10115777  0.25000000  0.48845325  1
  F  F10  1  0.39884223  0.25000000  0.98845325  1
  F  F11  1  0.60115777  0.75000000  0.01154675  1
  F  F12  1  0.64909932  0.03480809  0.57624422  1
  F  F13  1  0.35090068  0.96519191  0.42375578  1
  F  F14  1  0.14909932  0.96519191  0.92375578  1
  F  F15  1  0.35090068  0.53480809  0.42375578  1
  F  F16  1  0.85090068  0.03480809  0.07624422  1
  F  F17  1  0.64909932  0.46519191  0.57624422  1
  F  F18  1  0.85090068  0.46519191  0.07624422  1
  F  F19  1  0.14909932  0.53480809  0.92375578  1
loop_
_geom_bond_atom_site_label_1
_geom_bond_atom_site_label_2
_geom_bond_distance
_geom_bond_site_symmetry_2
Dy0 F8 2.181570 1_555
Dy0 F4 2.185875 1_555
Dy0 F3 2.203279 1_555
Dy0 F15 2.259280 1_555
Dy0 F13 2.259280 1_555
Dy0 F17 2.271774 1_555
Dy0 F12 2.271774 1_565
Dy1 F9 2.181570 1_555
Dy1 F5 2.185875 1_555
Dy1 F2 2.203279 1_555
Dy1 F17 2.259280 1_555
Dy1 F12 2.259280 1_555
Dy1 F15 2.271774 1_555
Dy1 F13 2.271774 1_545
Dy2 F10 2.181570 1_555
Dy2 F6 2.185875 1_455
Dy2 F1 2.203279 1_556
Dy2 F16 2.259280 1_456
Dy2 F18 2.259280 1_456
Dy2 F14 2.271774 1_545
Dy2 F19 2.271774 1_555
Dy3 F11 2.181570 1_555
Dy3 F7 2.185875 1_655
Dy3 F0 2.203279 1_554
Dy3 F14 2.259280 1_654
Dy3 F19 2.259280 1_654
Dy3 F18 2.271774 1_555
Dy3 F16 2.271774 1_565
F0 K7 2.633455 1_655
F0 K2 2.633455 1_655
F0 K0 2.705621 1_555
F0 K5 2.705621 1_565
F1 K6 2.633455 1_455
F1 K4 2.633455 1_455
F1 K1 2.705621 1_555
F1 K3 2.705621 1_545
F2 K5 2.633455 1_555
F2 K0 2.633455 1_555
F2 K7 2.705621 1_545
F2 K2 2.705621 1_555
F3 K1 2.633455 1_555
F3 K3 2.633455 1_555
F3 K4 2.705621 1_555
F3 K6 2.705621 1_565
F4 K5 2.748503 1_565
F4 K0 2.748503 1_555
F4 K7 2.807586 1_555
F4 K2 2.807586 1_555
F5 K3 2.748503 1_545
F5 K1 2.748503 1_555
F5 K6 2.807586 1_555
F5 K4 2.807586 1_555
F6 K7 2.748503 1_645
F6 K2 2.748503 1_655
F6 K5 2.807586 1_555
F6 K0 2.807586 1_555
F7 K6 2.748503 1_465
F7 K4 2.748503 1_455
F7 K3 2.807586 1_555
F7 K1 2.807586 1_555
F8 K7 2.623676 1_655
F8 K2 2.623676 1_655
F8 K4 2.710494 1_555
F8 K6 2.710494 1_565
F9 K4 2.623676 1_455
F9 K6 2.623676 1_455
F9 K2 2.710494 1_555
F9 K7 2.710494 1_545
F10 K0 2.623676 1_555
F10 K5 2.623676 1_555
F10 K3 2.710494 1_546
F10 K1 2.710494 1_556
F11 K1 2.623676 1_555
F11 K3 2.623676 1_555
F11 K0 2.710494 1_554
F11 K5 2.710494 1_564
F12 K7 2.743327 1_645
F12 K5 2.814904 1_555
F13 K6 2.743327 1_465
F13 K3 2.814904 1_555
F14 K5 2.743327 1_565
F14 K7 2.814904 1_555
F15 K4 2.743327 1_455
F15 K1 2.814904 1_555
F16 K3 2.743327 1_545
F16 K6 2.814904 1_555
F17 K2 2.743327 1_655
F17 K0 2.814904 1_555
F18 K1 2.743327 1_555
F18 K4 2.814904 1_555
F19 K0 2.743327 1_555
F19 K2 2.814904 1_555
