# generated using pymatgen
data_VFe3
_symmetry_space_group_name_H-M   'P 1'
_cell_length_a   4.97283532
_cell_length_b   4.97283532
_cell_length_c   16.06281866
_cell_angle_alpha   90.00000000
_cell_angle_beta   90.00000000
_cell_angle_gamma   108.02766235
_symmetry_Int_Tables_number   1
_chemical_formula_structural   VFe3
_chemical_formula_sum   'V8 Fe24'
_cell_volume   377.71832248
_cell_formula_units_Z   8
loop_
 _symmetry_equiv_pos_site_id
 _symmetry_equiv_pos_as_xyz
  1  'x, y, z'
loop_
 _atom_site_type_symbol
 _atom_site_label
 _atom_site_symmetry_multiplicity
 _atom_site_fract_x
 _atom_site_fract_y
 _atom_site_fract_z
 _atom_site_occupancy
  V  V0_0  1  0.00000000  0.00000000  0.00000000  1
  V  V0_1  1  0.00000000  0.00000000  0.50000000  1
  V  V0_2  1  0.00000000  0.50000000  0.00000000  1
  V  V0_3  1  0.00000000  0.50000000  0.50000000  1
  V  V0_4  1  0.50000000  0.00000000  0.00000000  1
  V  V0_5  1  0.50000000  0.00000000  0.50000000  1
  V  V0_6  1  0.50000000  0.50000000  0.00000000  1
  V  V0_7  1  0.50000000  0.50000000  0.50000000  1
  Fe  Fe0_0  1  0.25000000  0.25000000  0.12649350  1
  Fe  Fe0_1  1  0.25000000  0.25000000  0.62649350  1
  Fe  Fe0_2  1  0.25000000  0.75000000  0.12649350  1
  Fe  Fe0_3  1  0.25000000  0.75000000  0.62649350  1
  Fe  Fe0_4  1  0.75000000  0.25000000  0.12649350  1
  Fe  Fe0_5  1  0.75000000  0.25000000  0.62649350  1
  Fe  Fe0_6  1  0.75000000  0.75000000  0.12649350  1
  Fe  Fe0_7  1  0.75000000  0.75000000  0.62649350  1
  Fe  Fe1_0  1  0.00000000  0.00000000  0.25000000  1
  Fe  Fe1_1  1  0.00000000  0.00000000  0.75000000  1
  Fe  Fe1_2  1  0.00000000  0.50000000  0.25000000  1
  Fe  Fe1_3  1  0.00000000  0.50000000  0.75000000  1
  Fe  Fe1_4  1  0.50000000  0.00000000  0.25000000  1
  Fe  Fe1_5  1  0.50000000  0.00000000  0.75000000  1
  Fe  Fe1_6  1  0.50000000  0.50000000  0.25000000  1
  Fe  Fe1_7  1  0.50000000  0.50000000  0.75000000  1
  Fe  Fe2_0  1  0.25000000  0.25000000  0.37350650  1
  Fe  Fe2_1  1  0.25000000  0.25000000  0.87350650  1
  Fe  Fe2_2  1  0.25000000  0.75000000  0.37350650  1
  Fe  Fe2_3  1  0.25000000  0.75000000  0.87350650  1
  Fe  Fe2_4  1  0.75000000  0.25000000  0.37350650  1
  Fe  Fe2_5  1  0.75000000  0.25000000  0.87350650  1
  Fe  Fe2_6  1  0.75000000  0.75000000  0.37350650  1
  Fe  Fe2_7  1  0.75000000  0.75000000  0.87350650  1
loop_
_geom_bond_atom_site_label_1
_geom_bond_atom_site_label_2
_geom_bond_distance
_geom_bond_site_symmetry_2
V0_0 V0_2 2.486418 1_545
V0_0 V0_4 2.486418 1_455
V0_0 V0_2 2.486418 1_555
V0_0 V0_4 2.486418 1_555
V0_1 V0_3 2.486418 1_555
V0_1 V0_5 2.486418 1_455
V0_1 V0_3 2.486418 1_545
V0_1 V0_5 2.486418 1_555
V0_2 V0_6 2.486418 1_555
V0_2 V0_6 2.486418 1_455
V0_3 V0_7 2.486418 1_555
V0_3 V0_7 2.486418 1_455
V0_4 V0_6 2.486418 1_555
V0_4 V0_6 2.486418 1_545
V0_5 V0_7 2.486418 1_555
V0_5 V0_7 2.486418 1_545
Fe0_0 Fe1_6 2.463780 1_555
Fe0_0 Fe1_0 2.463780 1_555
Fe0_0 Fe0_4 2.486418 1_555
Fe0_0 Fe0_2 2.486418 1_545
Fe0_0 Fe0_2 2.486418 1_555
Fe0_0 Fe0_4 2.486418 1_455
Fe0_0 V0_6 2.502576 1_555
Fe0_0 V0_0 2.502576 1_555
Fe0_1 Fe1_7 2.463780 1_555
Fe0_1 Fe1_1 2.463780 1_555
Fe0_1 Fe0_3 2.486418 1_555
Fe0_1 Fe0_5 2.486418 1_455
Fe0_1 Fe0_3 2.486418 1_545
Fe0_1 Fe0_5 2.486418 1_555
Fe0_1 V0_1 2.502576 1_555
Fe0_1 V0_7 2.502576 1_555
Fe0_2 Fe1_2 2.463780 1_555
Fe0_2 Fe1_4 2.463780 1_565
Fe0_2 Fe0_6 2.486418 1_455
Fe0_2 Fe0_6 2.486418 1_555
Fe0_2 V0_4 2.502576 1_565
Fe0_2 V0_2 2.502576 1_555
Fe0_3 Fe1_3 2.463780 1_555
Fe0_3 Fe1_5 2.463780 1_565
Fe0_3 Fe0_7 2.486418 1_455
Fe0_3 Fe0_7 2.486418 1_555
Fe0_3 V0_5 2.502576 1_565
Fe0_3 V0_3 2.502576 1_555
Fe0_4 Fe1_2 2.463780 1_655
Fe0_4 Fe1_4 2.463780 1_555
Fe0_4 Fe0_6 2.486418 1_555
Fe0_4 Fe0_6 2.486418 1_545
Fe0_4 V0_4 2.502576 1_555
Fe0_4 V0_2 2.502576 1_655
Fe0_5 Fe1_5 2.463780 1_555
Fe0_5 Fe1_3 2.463780 1_655
Fe0_5 Fe0_7 2.486418 1_545
Fe0_5 Fe0_7 2.486418 1_555
Fe0_5 V0_5 2.502576 1_555
Fe0_5 V0_3 2.502576 1_655
Fe0_6 Fe1_0 2.463780 1_665
Fe0_6 Fe1_6 2.463780 1_555
Fe0_6 V0_0 2.502576 1_665
Fe0_6 V0_6 2.502576 1_555
Fe0_7 Fe1_7 2.463780 1_555
Fe0_7 Fe1_1 2.463780 1_665
Fe0_7 V0_1 2.502576 1_665
Fe0_7 V0_7 2.502576 1_555
Fe1_0 Fe2_6 2.463780 1_445
Fe1_0 Fe2_0 2.463780 1_555
Fe1_0 Fe1_2 2.486418 1_555
Fe1_0 Fe1_2 2.486418 1_545
Fe1_0 Fe1_4 2.486418 1_555
Fe1_0 Fe1_4 2.486418 1_455
Fe1_1 Fe2_7 2.463780 1_445
Fe1_1 Fe2_1 2.463780 1_555
Fe1_1 Fe1_5 2.486418 1_555
Fe1_1 Fe1_3 2.486418 1_555
Fe1_1 Fe1_3 2.486418 1_545
Fe1_1 Fe1_5 2.486418 1_455
Fe1_2 Fe2_2 2.463780 1_555
Fe1_2 Fe2_4 2.463780 1_455
Fe1_2 Fe1_6 2.486418 1_455
Fe1_2 Fe1_6 2.486418 1_555
Fe1_3 Fe2_3 2.463780 1_555
Fe1_3 Fe2_5 2.463780 1_455
Fe1_3 Fe1_7 2.486418 1_555
Fe1_3 Fe1_7 2.486418 1_455
Fe1_4 Fe2_2 2.463780 1_545
Fe1_4 Fe2_4 2.463780 1_555
Fe1_4 Fe1_6 2.486418 1_555
Fe1_4 Fe1_6 2.486418 1_545
Fe1_5 Fe2_3 2.463780 1_545
Fe1_5 Fe2_5 2.463780 1_555
Fe1_5 Fe1_7 2.486418 1_555
Fe1_5 Fe1_7 2.486418 1_545
Fe1_6 Fe2_0 2.463780 1_555
Fe1_6 Fe2_6 2.463780 1_555
Fe1_7 Fe2_7 2.463780 1_555
Fe1_7 Fe2_1 2.463780 1_555
Fe2_0 Fe2_2 2.486418 1_555
Fe2_0 Fe2_4 2.486418 1_555
Fe2_0 Fe2_4 2.486418 1_455
Fe2_0 Fe2_2 2.486418 1_545
Fe2_0 V0_7 2.502576 1_555
Fe2_0 V0_1 2.502576 1_555
Fe2_1 Fe2_3 2.486418 1_545
Fe2_1 Fe2_5 2.486418 1_455
Fe2_1 Fe2_5 2.486418 1_555
Fe2_1 Fe2_3 2.486418 1_555
Fe2_1 V0_0 2.502576 1_556
Fe2_1 V0_6 2.502576 1_556
Fe2_2 Fe2_6 2.486418 1_455
Fe2_2 Fe2_6 2.486418 1_555
Fe2_2 V0_3 2.502576 1_555
Fe2_2 V0_5 2.502576 1_565
Fe2_3 Fe2_7 2.486418 1_455
Fe2_3 Fe2_7 2.486418 1_555
Fe2_3 V0_4 2.502576 1_566
Fe2_3 V0_2 2.502576 1_556
Fe2_4 Fe2_6 2.486418 1_545
Fe2_4 Fe2_6 2.486418 1_555
Fe2_4 V0_3 2.502576 1_655
Fe2_4 V0_5 2.502576 1_555
Fe2_5 Fe2_7 2.486418 1_545
Fe2_5 Fe2_7 2.486418 1_555
Fe2_5 V0_4 2.502576 1_556
Fe2_5 V0_2 2.502576 1_656
Fe2_6 V0_1 2.502576 1_665
Fe2_6 V0_7 2.502576 1_555
Fe2_7 V0_0 2.502576 1_666
Fe2_7 V0_6 2.502576 1_556
