# generated using pymatgen
data_Li6Mn3CoO10
_symmetry_space_group_name_H-M   'P 1'
_cell_length_a   3.02427610
_cell_length_b   3.02427610
_cell_length_c   24.99563037
_cell_angle_alpha   89.31836334
_cell_angle_beta   89.31836334
_cell_angle_gamma   56.58478199
_symmetry_Int_Tables_number   1
_chemical_formula_structural   Li6Mn3CoO10
_chemical_formula_sum   'Li6 Mn3 Co1 O10'
_cell_volume   190.80888168
_cell_formula_units_Z   1
loop_
 _symmetry_equiv_pos_site_id
 _symmetry_equiv_pos_as_xyz
  1  'x, y, z'
loop_
 _atom_site_type_symbol
 _atom_site_label
 _atom_site_symmetry_multiplicity
 _atom_site_fract_x
 _atom_site_fract_y
 _atom_site_fract_z
 _atom_site_occupancy
  Li  Li0  1  0.29971100  0.29971100  0.09928500  1
  Li  Li1  1  0.89958900  0.89958900  0.29915100  1
  Li  Li2  1  0.48518400  0.48518400  0.50482100  1
  Li  Li3  1  0.10965500  0.10965500  0.69954500  1
  Li  Li4  1  0.70733700  0.70733700  0.89720100  1
  Li  Li5  1  0.80212400  0.80212400  0.59964500  1
  Mn  Mn0  1  0.00231100  0.00231100  0.99990900  1
  Mn  Mn1  1  0.19705400  0.19705400  0.39805900  1
  Mn  Mn2  1  0.60057800  0.60057800  0.20003800  1
  Co  Co0  1  0.40161300  0.40161300  0.80130100  1
  O  O0  1  0.62672600  0.62672600  0.04637400  1
  O  O1  1  0.22474100  0.22474100  0.24604500  1
  O  O2  1  0.84161600  0.84161600  0.44038500  1
  O  O3  1  0.44416400  0.44416400  0.65299900  1
  O  O4  1  0.05495400  0.05495400  0.84754000  1
  O  O5  1  0.97443800  0.97443800  0.15396100  1
  O  O6  1  0.56330400  0.56330400  0.35278000  1
  O  O7  1  0.15481900  0.15481900  0.54711200  1
  O  O8  1  0.73694100  0.73694100  0.75897000  1
  O  O9  1  0.37314200  0.37314200  0.95487900  1
loop_
_geom_bond_atom_site_label_1
_geom_bond_atom_site_label_2
_geom_bond_distance
_geom_bond_site_symmetry_2
Li0 O0 2.164617 1_545
Li0 O0 2.164617 1_455
Li0 O0 2.172632 1_555
Li0 O5 2.192032 1_445
Li0 O5 2.196094 1_545
Li0 O5 2.196094 1_455
Li1 O6 2.154873 1_655
Li1 O6 2.154873 1_565
Li1 O1 2.167696 1_665
Li1 O1 2.171944 1_565
Li1 O1 2.171944 1_655
Li1 O6 2.222590 1_555
Li2 O7 2.003548 1_655
Li2 O7 2.003548 1_565
Li2 O7 2.040367 1_555
Li2 O2 2.294938 1_455
Li2 O2 2.294938 1_545
Li2 O2 2.472898 1_555
Li3 O3 2.052531 1_455
Li3 O3 2.052531 1_545
Li3 O3 2.114633 1_555
Li3 O8 2.178943 1_455
Li3 O8 2.178943 1_545
Li3 O8 2.463159 1_445
Li4 O4 2.069164 1_565
Li4 O4 2.069164 1_655
Li4 O4 2.215051 1_665
Li4 O9 2.224278 1_565
Li4 O9 2.224278 1_655
Li4 O9 2.275362 1_555
Li5 O7 2.102917 1_655
Li5 O7 2.102917 1_565
Li5 O3 2.105418 1_655
Li5 O3 2.105418 1_565
Li5 O7 2.277312 1_665
Li5 O3 2.311828 1_555
Mn0 O9 1.953399 1_455
Mn0 O9 1.953399 1_545
Mn0 O0 1.965572 1_546
Mn0 O0 1.965572 1_456
Mn0 O9 2.260000 1_555
Mn0 O0 2.299473 1_446
Mn1 O2 1.946483 1_545
Mn1 O2 1.946483 1_455
Mn1 O6 1.965920 1_455
Mn1 O6 1.965920 1_545
Mn1 O2 2.156120 1_445
Mn1 O6 2.241937 1_555
Mn2 O1 1.958313 1_565
Mn2 O1 1.958313 1_655
Mn2 O5 1.963011 1_545
Mn2 O5 1.963011 1_455
Mn2 O5 2.286763 1_555
Mn2 O1 2.295009 1_555
Co0 O8 1.992116 1_545
Co0 O8 1.992116 1_455
Co0 O4 2.020643 1_565
Co0 O4 2.020643 1_655
Co0 O8 2.063523 1_555
Co0 O4 2.164945 1_555
