# generated using pymatgen
data_Pr8Sb14Rh17
_symmetry_space_group_name_H-M   'P 1'
_cell_length_a   14.00718561
_cell_length_b   14.00718561
_cell_length_c   14.00718561
_cell_angle_alpha   127.85992257
_cell_angle_beta   127.85992257
_cell_angle_gamma   76.85205803
_symmetry_Int_Tables_number   1
_chemical_formula_structural   Pr8Sb14Rh17
_chemical_formula_sum   'Pr16 Sb28 Rh34'
_cell_volume   1663.25912257
_cell_formula_units_Z   2
loop_
 _symmetry_equiv_pos_site_id
 _symmetry_equiv_pos_as_xyz
  1  'x, y, z'
loop_
 _atom_site_type_symbol
 _atom_site_label
 _atom_site_symmetry_multiplicity
 _atom_site_fract_x
 _atom_site_fract_y
 _atom_site_fract_z
 _atom_site_occupancy
  Pr  Pr0  1  0.91339400  0.41339400  0.97245500  1
  Pr  Pr1  1  0.44094000  0.94094000  0.02754500  1
  Pr  Pr2  1  0.41339400  0.44094000  0.50000000  1
  Pr  Pr3  1  0.94094000  0.91339400  0.50000000  1
  Pr  Pr4  1  0.16976200  0.16976200  0.00000000  1
  Pr  Pr5  1  0.66976200  0.66976200  0.00000000  1
  Pr  Pr6  1  0.17091100  0.67091100  0.50000000  1
  Pr  Pr7  1  0.67091100  0.17091100  0.50000000  1
  Pr  Pr8  1  0.67679000  0.43828700  0.25829000  1
  Pr  Pr9  1  0.17999700  0.41850100  0.74171000  1
  Pr  Pr10  1  0.43828700  0.17999700  0.76149600  1
  Pr  Pr11  1  0.67999700  0.93828700  0.76149600  1
  Pr  Pr12  1  0.41850100  0.67679000  0.23850400  1
  Pr  Pr13  1  0.17679000  0.91850100  0.23850400  1
  Pr  Pr14  1  0.91850100  0.67999700  0.74171000  1
  Pr  Pr15  1  0.93828700  0.17679000  0.25829000  1
  Sb  Sb0  1  0.22387000  0.48338300  0.23904700  1
  Sb  Sb1  1  0.24433600  0.98482300  0.76095300  1
  Sb  Sb2  1  0.48338300  0.24433600  0.25951300  1
  Sb  Sb3  1  0.74433600  0.98338300  0.25951300  1
  Sb  Sb4  1  0.98482300  0.22387000  0.74048700  1
  Sb  Sb5  1  0.72387000  0.48482300  0.74048700  1
  Sb  Sb6  1  0.48482300  0.74433600  0.76095300  1
  Sb  Sb7  1  0.98338300  0.72387000  0.23904700  1
  Sb  Sb8  1  0.17457700  0.21128500  0.27444600  1
  Sb  Sb9  1  0.93683900  0.90013100  0.72555400  1
  Sb  Sb10  1  0.21128500  0.93683900  0.03670900  1
  Sb  Sb11  1  0.43683900  0.71128500  0.03670900  1
  Sb  Sb12  1  0.90013100  0.17457700  0.96329100  1
  Sb  Sb13  1  0.67457700  0.40013100  0.96329100  1
  Sb  Sb14  1  0.40013100  0.43683900  0.72555400  1
  Sb  Sb15  1  0.71128500  0.67457700  0.27444600  1
  Sb  Sb16  1  0.37666300  0.37666300  0.00000000  1
  Sb  Sb17  1  0.87666300  0.87666300  0.00000000  1
  Sb  Sb18  1  0.12245300  0.62245300  0.67877000  1
  Sb  Sb19  1  0.94368300  0.44368300  0.32123000  1
  Sb  Sb20  1  0.62245300  0.94368300  0.50000000  1
  Sb  Sb21  1  0.44368300  0.12245300  0.50000000  1
  Sb  Sb22  1  0.37586200  0.87586200  0.50000000  1
  Sb  Sb23  1  0.87586200  0.37586200  0.50000000  1
  Sb  Sb24  1  0.10817700  0.60817700  0.98508600  1
  Sb  Sb25  1  0.62309100  0.12309100  0.01491400  1
  Sb  Sb26  1  0.60817700  0.62309100  0.50000000  1
  Sb  Sb27  1  0.12309100  0.10817700  0.50000000  1
  Rh  Rh0  1  0.38017900  0.15401400  0.29935900  1
  Rh  Rh1  1  0.85465500  0.08082000  0.70064100  1
  Rh  Rh2  1  0.15401400  0.85465500  0.77383500  1
  Rh  Rh3  1  0.35465500  0.65401400  0.77383500  1
  Rh  Rh4  1  0.08082000  0.38017900  0.22616500  1
  Rh  Rh5  1  0.88017900  0.58082000  0.22616500  1
  Rh  Rh6  1  0.58082000  0.35465500  0.70064100  1
  Rh  Rh7  1  0.65401400  0.88017900  0.29935900  1
  Rh  Rh8  1  0.91712900  0.41712900  0.73778700  1
  Rh  Rh9  1  0.67934100  0.17934100  0.26221300  1
  Rh  Rh10  1  0.41712900  0.67934100  0.50000000  1
  Rh  Rh11  1  0.17934100  0.91712900  0.50000000  1
  Rh  Rh12  1  0.66939000  0.16939000  0.75001900  1
  Rh  Rh13  1  0.41937100  0.91937100  0.24998100  1
  Rh  Rh14  1  0.16939000  0.41937100  0.50000000  1
  Rh  Rh15  1  0.91937100  0.66939000  0.50000000  1
  Rh  Rh16  1  0.20955800  0.70955800  0.95658800  1
  Rh  Rh17  1  0.75296900  0.25296900  0.04341200  1
  Rh  Rh18  1  0.70955800  0.75296900  0.50000000  1
  Rh  Rh19  1  0.25296900  0.20955800  0.50000000  1
  Rh  Rh20  1  0.41899000  0.42852900  0.24434500  1
  Rh  Rh21  1  0.18418400  0.17464500  0.75565500  1
  Rh  Rh22  1  0.42852900  0.18418400  0.00953900  1
  Rh  Rh23  1  0.68418400  0.92852900  0.00953900  1
  Rh  Rh24  1  0.17464500  0.41899000  0.99046100  1
  Rh  Rh25  1  0.91899000  0.67464500  0.99046100  1
  Rh  Rh26  1  0.67464500  0.68418400  0.75565500  1
  Rh  Rh27  1  0.92852900  0.91899000  0.24434500  1
  Rh  Rh28  1  0.43195100  0.93195100  0.75088800  1
  Rh  Rh29  1  0.18106300  0.68106300  0.24911200  1
  Rh  Rh30  1  0.93195100  0.18106300  0.50000000  1
  Rh  Rh31  1  0.68106300  0.43195100  0.50000000  1
  Rh  Rh32  1  0.00275700  0.00275700  0.00000000  1
  Rh  Rh33  1  0.50275700  0.50275700  0.00000000  1
loop_
_geom_bond_atom_site_label_1
_geom_bond_atom_site_label_2
_geom_bond_distance
_geom_bond_site_symmetry_2
Pr0 Rh5 3.106234 1_556
Pr0 Rh4 3.106234 1_656
Pr0 Sb4 3.286362 1_555
Pr0 Sb5 3.286362 1_555
Pr0 Sb12 3.311711 1_555
Pr0 Sb13 3.311711 1_555
Pr0 Rh8 3.351643 1_555
Pr0 Sb0 3.366104 1_656
Pr0 Sb7 3.366104 1_556
Pr0 Rh12 3.498918 1_555
Pr0 Rh24 3.526222 1_655
Pr0 Rh25 3.526222 1_555
Pr0 Rh1 3.605785 1_555
Pr0 Rh6 3.605785 1_555
Pr0 Rh29 3.722671 1_656
Pr1 Rh2 3.106243 1_554
Pr1 Rh3 3.106243 1_554
Pr1 Sb3 3.286354 1_555
Pr1 Sb2 3.286354 1_565
Pr1 Sb10 3.311747 1_555
Pr1 Sb11 3.311747 1_555
Pr1 Rh9 3.351608 1_565
Pr1 Sb6 3.366096 1_554
Pr1 Sb1 3.366096 1_554
Pr1 Rh13 3.498936 1_555
Pr1 Rh22 3.526205 1_565
Pr1 Rh23 3.526205 1_555
Pr1 Rh7 3.605793 1_555
Pr1 Rh0 3.605793 1_565
Pr1 Rh28 3.722655 1_554
Pr2 Rh6 3.106245 1_555
Pr2 Rh0 3.106245 1_555
Pr2 Sb6 3.286353 1_555
Pr2 Sb0 3.286353 1_555
Pr2 Sb8 3.311729 1_555
Pr2 Sb14 3.311729 1_555
Pr2 Rh10 3.351615 1_555
Pr2 Sb5 3.366106 1_555
Pr2 Sb2 3.366106 1_555
Pr2 Rh14 3.498922 1_555
Pr2 Rh20 3.526214 1_555
Pr2 Rh26 3.526214 1_555
Pr2 Rh4 3.605783 1_555
Pr2 Rh3 3.605783 1_555
Pr2 Rh31 3.722669 1_555
Pr3 Rh1 3.106245 1_565
Pr3 Rh7 3.106245 1_555
Pr3 Sb7 3.286353 1_555
Pr3 Sb1 3.286353 1_655
Pr3 Sb15 3.311729 1_555
Pr3 Sb9 3.311729 1_555
Pr3 Rh11 3.351615 1_655
Pr3 Sb4 3.366106 1_565
Pr3 Sb3 3.366106 1_555
Pr3 Rh15 3.498922 1_555
Pr3 Rh21 3.526214 1_665
Pr3 Rh27 3.526214 1_555
Pr3 Rh5 3.605783 1_555
Pr3 Rh2 3.605783 1_655
Pr3 Rh30 3.722669 1_565
Pr4 Sb4 3.380622 1_454
Pr4 Sb1 3.380622 1_544
Pr4 Sb2 3.380622 1_555
Pr4 Sb0 3.380622 1_555
Pr4 Rh2 3.462352 1_544
Pr4 Rh1 3.462352 1_454
Pr4 Rh0 3.462352 1_555
Pr4 Rh4 3.462352 1_555
Pr4 Sb12 3.475042 1_454
Pr4 Sb8 3.475049 1_555
Pr4 Sb9 3.475049 1_444
Pr4 Sb10 3.475058 1_545
Pr4 Rh20 3.591919 1_555
Pr4 Rh22 3.591919 1_555
Pr4 Rh24 3.591919 1_554
Pr4 Rh21 3.591919 1_554
Pr4 Rh32 3.665221 1_555
Pr5 Sb3 3.380622 1_555
Pr5 Sb7 3.380622 1_555
Pr5 Sb5 3.380622 1_554
Pr5 Sb6 3.380622 1_554
Pr5 Rh7 3.462352 1_555
Pr5 Rh5 3.462352 1_555
Pr5 Rh6 3.462352 1_554
Pr5 Rh3 3.462352 1_554
Pr5 Sb13 3.475042 1_554
Pr5 Sb14 3.475049 1_554
Pr5 Sb15 3.475049 1_555
Pr5 Sb11 3.475058 1_555
Pr5 Rh25 3.591919 1_554
Pr5 Rh27 3.591919 1_555
Pr5 Rh26 3.591919 1_554
Pr5 Rh23 3.591919 1_555
Pr5 Rh33 3.665221 1_555
Pr6 Rh5 3.179952 1_455
Pr6 Rh2 3.179952 1_555
Pr6 Rh4 3.179952 1_555
Pr6 Rh3 3.179952 1_555
Pr6 Sb1 3.386319 1_555
Pr6 Sb6 3.386319 1_555
Pr6 Sb7 3.386319 1_455
Pr6 Sb0 3.386319 1_555
Pr6 Sb18 3.402045 1_555
Pr6 Sb19 3.402045 1_455
Pr6 Rh11 3.477582 1_555
Pr6 Rh10 3.477582 1_555
Pr6 Rh15 3.528275 1_455
Pr6 Rh14 3.528275 1_555
Pr6 Rh28 3.691380 1_555
Pr6 Rh29 3.691380 1_555
Pr7 Rh1 3.179952 1_555
Pr7 Rh7 3.179952 1_545
Pr7 Rh6 3.179952 1_555
Pr7 Rh0 3.179952 1_555
Pr7 Sb4 3.386319 1_555
Pr7 Sb3 3.386319 1_545
Pr7 Sb5 3.386319 1_555
Pr7 Sb2 3.386319 1_555
Pr7 Sb20 3.402045 1_545
Pr7 Sb21 3.402045 1_555
Pr7 Rh9 3.477568 1_555
Pr7 Rh8 3.477586 1_555
Pr7 Rh13 3.528275 1_545
Pr7 Rh12 3.528275 1_555
Pr7 Rh30 3.691380 1_555
Pr7 Rh31 3.691380 1_555
Pr8 Rh17 3.166681 1_555
Pr8 Sb16 3.264338 1_555
Pr8 Sb19 3.280238 1_555
Pr8 Sb15 3.303500 1_555
Pr8 Rh15 3.304158 1_555
Pr8 Sb23 3.307443 1_555
Pr8 Sb26 3.345421 1_555
Pr8 Sb25 3.401234 1_555
Pr8 Rh31 3.404694 1_555
Pr8 Rh18 3.434704 1_555
Pr8 Rh33 3.468502 1_555
Pr8 Rh20 3.524559 1_555
Pr8 Rh22 3.526621 1_555
Pr8 Rh9 3.652870 1_555
Pr8 Sb13 3.807944 1_554
Pr9 Rh16 3.166679 1_555
Pr9 Sb16 3.264348 1_556
Pr9 Sb18 3.280224 1_555
Pr9 Sb14 3.303495 1_555
Pr9 Rh14 3.304150 1_555
Pr9 Sb23 3.307440 1_455
Pr9 Sb27 3.345431 1_555
Pr9 Sb24 3.401233 1_555
Pr9 Rh30 3.404702 1_455
Pr9 Rh19 3.434707 1_555
Pr9 Rh33 3.468503 1_556
Pr9 Rh21 3.524573 1_555
Pr9 Rh24 3.526630 1_555
Pr9 Rh8 3.652856 1_455
Pr9 Sb11 3.807919 1_556
Pr10 Rh19 3.166680 1_555
Pr10 Sb16 3.264348 1_556
Pr10 Sb21 3.280224 1_555
Pr10 Sb13 3.303500 1_555
Pr10 Rh12 3.304150 1_555
Pr10 Sb22 3.307440 1_545
Pr10 Sb25 3.345431 1_556
Pr10 Sb27 3.401233 1_555
Pr10 Rh28 3.404702 1_545
Pr10 Rh17 3.434709 1_556
Pr10 Rh33 3.468503 1_556
Pr10 Rh22 3.524573 1_556
Pr10 Rh21 3.526630 1_555
Pr10 Rh11 3.652865 1_545
Pr10 Sb14 3.807921 1_555
Pr11 Rh18 3.166680 1_555
Pr11 Sb17 3.264348 1_556
Pr11 Sb20 3.280224 1_555
Pr11 Sb12 3.303500 1_565
Pr11 Rh12 3.304150 1_565
Pr11 Sb22 3.307440 1_555
Pr11 Sb25 3.345431 1_566
Pr11 Sb26 3.401233 1_555
Pr11 Rh28 3.404702 1_555
Pr11 Rh17 3.434709 1_566
Pr11 Rh32 3.468503 1_666
Pr11 Rh23 3.524573 1_556
Pr11 Rh26 3.526630 1_555
Pr11 Rh10 3.652865 1_555
Pr11 Sb9 3.807921 1_555
Pr12 Rh18 3.166679 1_555
Pr12 Sb16 3.264338 1_555
Pr12 Sb20 3.280233 1_555
Pr12 Sb11 3.303491 1_555
Pr12 Rh13 3.304164 1_555
Pr12 Sb22 3.307442 1_555
Pr12 Sb24 3.345432 1_554
Pr12 Sb26 3.401223 1_555
Pr12 Rh29 3.404699 1_555
Pr12 Rh16 3.434726 1_554
Pr12 Rh33 3.468502 1_555
Pr12 Rh24 3.524564 1_554
Pr12 Rh20 3.526616 1_555
Pr12 Rh10 3.652856 1_555
Pr12 Sb15 3.807923 1_555
Pr13 Rh19 3.166679 1_565
Pr13 Sb17 3.264338 1_455
Pr13 Sb21 3.280233 1_565
Pr13 Sb10 3.303491 1_555
Pr13 Rh13 3.304164 1_555
Pr13 Sb22 3.307442 1_555
Pr13 Sb24 3.345432 1_554
Pr13 Sb27 3.401223 1_565
Pr13 Rh29 3.404699 1_555
Pr13 Rh16 3.434726 1_554
Pr13 Rh32 3.468502 1_565
Pr13 Rh25 3.524564 1_454
Pr13 Rh27 3.526616 1_455
Pr13 Rh11 3.652856 1_555
Pr13 Sb8 3.807923 1_565
Pr14 Rh16 3.166679 1_655
Pr14 Sb17 3.264348 1_556
Pr14 Sb18 3.280224 1_655
Pr14 Sb9 3.303495 1_555
Pr14 Rh15 3.304150 1_555
Pr14 Sb23 3.307440 1_555
Pr14 Sb26 3.345431 1_555
Pr14 Sb24 3.401233 1_655
Pr14 Rh31 3.404702 1_555
Pr14 Rh18 3.434707 1_555
Pr14 Rh32 3.468503 1_666
Pr14 Rh26 3.524573 1_555
Pr14 Rh25 3.526630 1_555
Pr14 Rh8 3.652856 1_555
Pr14 Sb10 3.807919 1_656
Pr15 Rh17 3.166681 1_555
Pr15 Sb17 3.264338 1_545
Pr15 Sb19 3.280238 1_555
Pr15 Sb8 3.303500 1_655
Pr15 Rh14 3.304158 1_655
Pr15 Sb23 3.307443 1_555
Pr15 Sb27 3.345421 1_655
Pr15 Sb25 3.401234 1_555
Pr15 Rh30 3.404694 1_555
Pr15 Rh19 3.434704 1_655
Pr15 Rh32 3.468502 1_655
Pr15 Rh27 3.524559 1_545
Pr15 Rh23 3.526621 1_545
Pr15 Rh9 3.652870 1_555
Pr15 Sb12 3.807944 1_554
Sb18 Sb19 3.112571 1_455
Sb20 Sb21 3.112571 1_565
Rh0 Sb2 2.586699 1_555
Rh0 Sb8 2.667993 1_555
Rh0 Sb21 2.676324 1_555
Rh0 Sb10 2.690531 1_545
Rh0 Rh13 2.904648 1_545
Rh1 Sb4 2.586699 1_555
Rh1 Sb9 2.667993 1_545
Rh1 Sb20 2.676324 1_545
Rh1 Sb12 2.690520 1_555
Rh1 Rh12 2.904648 1_555
Rh2 Sb1 2.586699 1_555
Rh2 Sb10 2.668006 1_556
Rh2 Sb18 2.676324 1_555
Rh2 Sb9 2.690533 1_455
Rh3 Sb6 2.586699 1_555
Rh3 Sb11 2.668006 1_556
Rh3 Sb18 2.676324 1_555
Rh3 Sb14 2.690533 1_555
Rh4 Sb0 2.586699 1_555
Rh4 Sb12 2.667995 1_454
Rh4 Sb19 2.676324 1_455
Rh4 Sb8 2.690533 1_555
Rh5 Sb7 2.586699 1_555
Rh5 Sb13 2.667995 1_554
Rh5 Sb19 2.676324 1_555
Rh5 Sb15 2.690533 1_555
Rh6 Sb5 2.586699 1_555
Rh6 Sb14 2.667993 1_555
Rh6 Sb21 2.676324 1_555
Rh6 Sb13 2.690520 1_555
Rh7 Sb3 2.586699 1_555
Rh7 Sb15 2.667993 1_555
Rh7 Sb20 2.676324 1_555
Rh7 Sb11 2.690531 1_555
Rh8 Sb24 2.612050 1_655
Rh8 Sb5 2.672522 1_555
Rh8 Sb4 2.672522 1_555
Rh8 Sb23 2.680965 1_555
Rh9 Sb25 2.612062 1_555
Rh9 Sb2 2.672511 1_555
Rh9 Sb3 2.672511 1_545
Rh9 Sb23 2.680979 1_555
Rh10 Sb26 2.612049 1_555
Rh10 Sb6 2.672516 1_555
Rh10 Sb0 2.672516 1_555
Rh10 Sb22 2.680978 1_555
Rh11 Sb27 2.612049 1_565
Rh11 Sb1 2.672516 1_555
Rh11 Sb7 2.672516 1_455
Rh11 Sb22 2.680978 1_555
Rh12 Sb20 2.687194 1_545
Rh12 Sb21 2.687194 1_555
Rh12 Sb12 2.713765 1_555
Rh12 Sb13 2.713765 1_555
Rh12 Rh6 2.904648 1_555
Rh12 Rh17 2.905593 1_556
Rh13 Sb21 2.687194 1_565
Rh13 Sb20 2.687194 1_555
Rh13 Sb10 2.713763 1_555
Rh13 Sb11 2.713763 1_555
Rh13 Rh7 2.904648 1_555
Rh13 Rh16 2.905583 1_554
Rh14 Sb19 2.687194 1_455
Rh14 Sb18 2.687194 1_555
Rh14 Sb14 2.713770 1_555
Rh14 Sb8 2.713770 1_555
Rh14 Rh3 2.904648 1_555
Rh14 Rh4 2.904648 1_555
Rh14 Rh19 2.905580 1_555
Rh15 Sb18 2.687194 1_655
Rh15 Sb19 2.687194 1_555
Rh15 Sb9 2.713770 1_555
Rh15 Sb15 2.713770 1_555
Rh15 Rh5 2.904648 1_555
Rh15 Rh2 2.904648 1_655
Rh15 Rh18 2.905580 1_555
Rh16 Sb24 2.549803 1_555
Rh16 Sb10 2.647899 1_556
Rh16 Sb11 2.647899 1_556
Rh16 Sb18 2.672451 1_555
Rh17 Sb25 2.549781 1_555
Rh17 Sb12 2.647926 1_554
Rh17 Sb13 2.647926 1_554
Rh17 Sb19 2.672460 1_555
Rh18 Sb26 2.549791 1_555
Rh18 Sb15 2.647908 1_555
Rh18 Sb9 2.647908 1_555
Rh18 Sb20 2.672463 1_555
Rh19 Sb27 2.549791 1_555
Rh19 Sb14 2.647908 1_555
Rh19 Sb8 2.647908 1_555
Rh19 Sb21 2.672463 1_555
Rh20 Sb2 2.625674 1_555
Rh20 Sb0 2.632736 1_555
Rh20 Sb26 2.632738 1_555
Rh20 Sb16 2.691932 1_555
Rh21 Sb4 2.625674 1_455
Rh21 Sb1 2.632736 1_545
Rh21 Sb27 2.632738 1_555
Rh21 Sb16 2.691932 1_556
Rh22 Sb1 2.625674 1_544
Rh22 Sb2 2.632736 1_555
Rh22 Sb25 2.632738 1_555
Rh22 Sb16 2.691932 1_555
Rh23 Sb6 2.625674 1_554
Rh23 Sb3 2.632736 1_555
Rh23 Sb25 2.632738 1_565
Rh23 Sb17 2.691932 1_555
Rh24 Sb0 2.625674 1_556
Rh24 Sb4 2.632736 1_455
Rh24 Sb24 2.632738 1_555
Rh24 Sb16 2.691932 1_556
Rh25 Sb7 2.625674 1_556
Rh25 Sb5 2.632736 1_555
Rh25 Sb24 2.632738 1_655
Rh25 Sb17 2.691932 1_556
Rh26 Sb5 2.625674 1_555
Rh26 Sb6 2.632736 1_555
Rh26 Sb26 2.632738 1_555
Rh26 Sb17 2.691932 1_556
Rh27 Sb3 2.625674 1_555
Rh27 Sb7 2.632736 1_555
Rh27 Sb27 2.632738 1_665
Rh27 Sb17 2.691932 1_555
Rh28 Sb6 2.629775 1_555
Rh28 Sb1 2.629775 1_555
Rh28 Sb25 2.639491 1_566
Rh28 Sb22 2.662176 1_555
Rh29 Sb0 2.629775 1_555
Rh29 Sb7 2.629775 1_455
Rh29 Sb24 2.639491 1_554
Rh29 Sb22 2.662176 1_555
Rh30 Sb3 2.629775 1_545
Rh30 Sb4 2.629775 1_555
Rh30 Sb27 2.639491 1_655
Rh30 Sb23 2.662176 1_555
Rh31 Sb2 2.629775 1_555
Rh31 Sb5 2.629775 1_555
Rh31 Sb26 2.639491 1_555
Rh31 Sb23 2.662176 1_555
Rh32 Sb10 2.675974 1_545
Rh32 Sb9 2.675978 1_444
Rh32 Sb8 2.675978 1_555
Rh32 Sb12 2.675983 1_454
Rh32 Sb17 2.767356 1_445
Rh33 Sb11 2.675974 1_555
Rh33 Sb14 2.675978 1_554
Rh33 Sb15 2.675978 1_555
Rh33 Sb13 2.675983 1_554
Rh33 Sb16 2.767356 1_555
