# generated using pymatgen
data_Ca4Si3H2O11
_symmetry_space_group_name_H-M   'P 1'
_cell_length_a   6.96692346
_cell_length_b   6.96692346
_cell_length_c   20.78053800
_cell_angle_alpha   90.00000000
_cell_angle_beta   90.00000000
_cell_angle_gamma   97.39347787
_symmetry_Int_Tables_number   1
_chemical_formula_structural   Ca4Si3H2O11
_chemical_formula_sum   'Ca16 Si12 H8 O44'
_cell_volume   1000.26015321
_cell_formula_units_Z   4
loop_
 _symmetry_equiv_pos_site_id
 _symmetry_equiv_pos_as_xyz
  1  'x, y, z'
loop_
 _atom_site_type_symbol
 _atom_site_label
 _atom_site_symmetry_multiplicity
 _atom_site_fract_x
 _atom_site_fract_y
 _atom_site_fract_z
 _atom_site_occupancy
  Ca  Ca0  1  0.15563300  0.96510800  0.85419100  1
  Ca  Ca1  1  0.96510800  0.15563300  0.14580900  1
  Ca  Ca2  1  0.15563300  0.96510800  0.64580900  1
  Ca  Ca3  1  0.96510800  0.15563300  0.35419100  1
  Ca  Ca4  1  0.53352300  0.34525900  0.86313200  1
  Ca  Ca5  1  0.34525900  0.53352300  0.13686800  1
  Ca  Ca6  1  0.53352300  0.34525900  0.63686800  1
  Ca  Ca7  1  0.34525900  0.53352300  0.36313200  1
  Ca  Ca8  1  0.84959800  0.62044400  0.75000000  1
  Ca  Ca9  1  0.62044400  0.84959800  0.25000000  1
  Ca  Ca10  1  0.62178400  0.62178400  0.00000000  1
  Ca  Ca11  1  0.62178400  0.62178400  0.50000000  1
  Ca  Ca12  1  0.78539500  0.11505900  0.75000000  1
  Ca  Ca13  1  0.11505900  0.78539500  0.25000000  1
  Ca  Ca14  1  0.21481800  0.21481800  0.00000000  1
  Ca  Ca15  1  0.21481800  0.21481800  0.50000000  1
  Si  Si0  1  0.63881200  0.87653200  0.87324800  1
  Si  Si1  1  0.87653200  0.63881200  0.12675200  1
  Si  Si2  1  0.63881200  0.87653200  0.62675200  1
  Si  Si3  1  0.87653200  0.63881200  0.37324800  1
  Si  Si4  1  0.12006200  0.69258500  0.99646100  1
  Si  Si5  1  0.69258500  0.12006200  0.00353900  1
  Si  Si6  1  0.12006200  0.69258500  0.50353900  1
  Si  Si7  1  0.69258500  0.12006200  0.49646100  1
  Si  Si8  1  0.04896100  0.44923700  0.87388500  1
  Si  Si9  1  0.44923700  0.04896100  0.12611500  1
  Si  Si10  1  0.04896100  0.44923700  0.62611500  1
  Si  Si11  1  0.44923700  0.04896100  0.37388500  1
  H  H0  1  0.31802900  0.64593100  0.84847800  1
  H  H1  1  0.64593100  0.31802900  0.15152200  1
  H  H2  1  0.31802900  0.64593100  0.65152200  1
  H  H3  1  0.64593100  0.31802900  0.34847800  1
  H  H4  1  0.22824000  0.19393200  0.75000000  1
  H  H5  1  0.19393200  0.22824000  0.25000000  1
  H  H6  1  0.42140300  0.50302500  0.75000000  1
  H  H7  1  0.50302500  0.42140300  0.25000000  1
  O  O0  1  0.57179800  0.28711400  0.97465200  1
  O  O1  1  0.28711400  0.57179800  0.02534800  1
  O  O2  1  0.57179800  0.28711400  0.52534800  1
  O  O3  1  0.28711400  0.57179800  0.47465200  1
  O  O4  1  0.19059600  0.89910300  0.96375000  1
  O  O5  1  0.89910300  0.19059600  0.03625000  1
  O  O6  1  0.19059600  0.89910300  0.53625000  1
  O  O7  1  0.89910300  0.19059600  0.46375000  1
  O  O8  1  0.98611900  0.55111800  0.94198100  1
  O  O9  1  0.55111800  0.98611900  0.05801900  1
  O  O10  1  0.98611900  0.55111800  0.55801900  1
  O  O11  1  0.55111800  0.98611900  0.44198100  1
  O  O12  1  0.71731500  0.95323300  0.94677000  1
  O  O13  1  0.95323300  0.71731500  0.05323000  1
  O  O14  1  0.71731500  0.95323300  0.55323000  1
  O  O15  1  0.95323300  0.71731500  0.44677000  1
  O  O16  1  0.19144000  0.28748100  0.88965400  1
  O  O17  1  0.28748100  0.19144000  0.11034600  1
  O  O18  1  0.19144000  0.28748100  0.61034600  1
  O  O19  1  0.28748100  0.19144000  0.38965400  1
  O  O20  1  0.50600900  0.02336000  0.83855900  1
  O  O21  1  0.02336000  0.50600900  0.16144100  1
  O  O22  1  0.50600900  0.02336000  0.66144100  1
  O  O23  1  0.02336000  0.50600900  0.33855900  1
  O  O24  1  0.86098800  0.37635900  0.83020900  1
  O  O25  1  0.37635900  0.86098800  0.16979100  1
  O  O26  1  0.86098800  0.37635900  0.66979100  1
  O  O27  1  0.37635900  0.86098800  0.33020900  1
  O  O28  1  0.82743000  0.86564100  0.82635500  1
  O  O29  1  0.86564100  0.82743000  0.17364500  1
  O  O30  1  0.82743000  0.86564100  0.67364500  1
  O  O31  1  0.86564100  0.82743000  0.32635500  1
  O  O32  1  0.52131400  0.66216900  0.88814900  1
  O  O33  1  0.66216900  0.52131400  0.11185100  1
  O  O34  1  0.52131400  0.66216900  0.61185100  1
  O  O35  1  0.66216900  0.52131400  0.38814900  1
  O  O36  1  0.17926600  0.62715400  0.83053700  1
  O  O37  1  0.62715400  0.17926600  0.16946300  1
  O  O38  1  0.17926600  0.62715400  0.66946300  1
  O  O39  1  0.62715400  0.17926600  0.33053700  1
  O  O40  1  0.12218100  0.08791100  0.75000000  1
  O  O41  1  0.08791100  0.12218100  0.25000000  1
  O  O42  1  0.53345100  0.43177700  0.75000000  1
  O  O43  1  0.43177700  0.53345100  0.25000000  1
loop_
_geom_bond_atom_site_label_1
_geom_bond_atom_site_label_2
_geom_bond_distance
_geom_bond_site_symmetry_2
Ca0 O4 2.341573 1_555
Ca0 O16 2.346358 1_565
Ca0 O40 2.350631 1_565
Ca0 O28 2.373899 1_455
Ca0 O36 2.431494 1_555
Ca0 O20 2.444167 1_565
Ca1 O5 2.341573 1_555
Ca1 O17 2.346358 1_655
Ca1 O41 2.350631 1_655
Ca1 O29 2.373899 1_545
Ca1 O37 2.431494 1_555
Ca1 O21 2.444167 1_655
Ca2 O6 2.341573 1_555
Ca2 O18 2.346358 1_565
Ca2 O40 2.350631 1_565
Ca2 O30 2.373899 1_455
Ca2 O38 2.431494 1_555
Ca2 O22 2.444167 1_565
Ca3 O7 2.341573 1_555
Ca3 O19 2.346358 1_655
Ca3 O41 2.350631 1_655
Ca3 O31 2.373899 1_545
Ca3 O39 2.431494 1_555
Ca3 O23 2.444167 1_655
Ca4 O32 2.280482 1_555
Ca4 O20 2.283926 1_555
Ca4 O24 2.364887 1_555
Ca4 O0 2.373512 1_555
Ca4 O42 2.427002 1_555
Ca4 O16 2.428754 1_555
Ca5 O33 2.280482 1_555
Ca5 O21 2.283926 1_555
Ca5 O25 2.364887 1_555
Ca5 O1 2.373512 1_555
Ca5 O43 2.427002 1_555
Ca5 O17 2.428754 1_555
Ca6 O34 2.280482 1_555
Ca6 O22 2.283926 1_555
Ca6 O26 2.364887 1_555
Ca6 O2 2.373512 1_555
Ca6 O42 2.427002 1_555
Ca6 O18 2.428754 1_555
Ca7 O35 2.280482 1_555
Ca7 O23 2.283926 1_555
Ca7 O27 2.364887 1_555
Ca7 O3 2.373512 1_555
Ca7 O43 2.427002 1_555
Ca7 O19 2.428754 1_555
Ca8 O30 2.351073 1_555
Ca8 O28 2.351073 1_555
Ca8 O26 2.389765 1_555
Ca8 O24 2.389765 1_555
Ca8 O42 2.415355 1_555
Ca8 O36 2.837368 1_655
Ca8 O38 2.837368 1_655
Ca9 O29 2.351073 1_555
Ca9 O31 2.351073 1_555
Ca9 O27 2.389765 1_555
Ca9 O25 2.389765 1_555
Ca9 O43 2.415355 1_555
Ca9 O37 2.837368 1_565
Ca9 O39 2.837368 1_565
Ca10 O1 2.371964 1_555
Ca10 O0 2.371964 1_554
Ca10 O33 2.454034 1_555
Ca10 O32 2.454034 1_554
Ca10 O12 2.569688 1_554
Ca10 O13 2.569688 1_555
Ca10 O9 2.908706 1_555
Ca10 O8 2.908706 1_554
Ca11 O3 2.371964 1_555
Ca11 O2 2.371964 1_555
Ca11 O35 2.454034 1_555
Ca11 O34 2.454034 1_555
Ca11 O15 2.569688 1_555
Ca11 O14 2.569688 1_555
Ca11 O11 2.908706 1_555
Ca11 O10 2.908706 1_555
Ca12 O40 2.378109 1_655
Ca12 O30 2.398721 1_545
Ca12 O28 2.398721 1_545
Ca12 O24 2.474440 1_555
Ca12 O26 2.474440 1_555
Ca12 O20 2.695094 1_555
Ca12 O22 2.695094 1_555
Ca12 O42 2.991096 1_555
Ca13 O41 2.378109 1_565
Ca13 O29 2.398721 1_455
Ca13 O31 2.398721 1_455
Ca13 O27 2.474440 1_555
Ca13 O25 2.474440 1_555
Ca13 O21 2.695094 1_555
Ca13 O23 2.695094 1_555
Ca13 O43 2.991096 1_555
Ca14 O5 2.310514 1_455
Ca14 O4 2.310514 1_544
Ca14 O17 2.358410 1_555
Ca14 O16 2.358410 1_554
Ca14 O0 2.528673 1_554
Ca14 O1 2.528673 1_555
Ca15 O6 2.310514 1_545
Ca15 O7 2.310514 1_455
Ca15 O19 2.358410 1_555
Ca15 O18 2.358410 1_555
Ca15 O3 2.528673 1_555
Ca15 O2 2.528673 1_555
H0 O36 1.028674 1_555
H0 O32 1.630030 1_555
H1 O37 1.028674 1_555
H1 O33 1.630030 1_555
H2 O38 1.028674 1_555
H2 O34 1.630030 1_555
H3 O39 1.028674 1_555
H3 O35 1.630030 1_555
H4 O40 0.975245 1_555
H5 O41 0.975245 1_555
H6 O42 0.977498 1_555
H7 O43 0.977498 1_555
O0 Si5 1.635564 1_556
O1 Si4 1.635564 1_554
O2 Si7 1.635564 1_555
O3 Si6 1.635564 1_555
O4 Si4 1.609878 1_555
O5 Si5 1.609878 1_555
O6 Si6 1.609878 1_555
O7 Si7 1.609878 1_555
O8 Si8 1.666704 1_655
O8 Si4 1.699174 1_655
O9 Si9 1.666704 1_565
O9 Si5 1.699174 1_565
O10 Si10 1.666704 1_655
O10 Si6 1.699174 1_655
O11 Si11 1.666704 1_565
O11 Si7 1.699174 1_565
O12 Si5 1.680416 1_566
O12 Si0 1.686332 1_555
O13 Si4 1.680416 1_654
O13 Si1 1.686332 1_555
O14 Si7 1.680416 1_565
O14 Si2 1.686332 1_555
O15 Si6 1.680416 1_655
O15 Si3 1.686332 1_555
O16 Si8 1.628070 1_555
O17 Si9 1.628070 1_555
O18 Si10 1.628070 1_555
O19 Si11 1.628070 1_555
O20 Si0 1.632688 1_545
O21 Si1 1.632688 1_455
O22 Si2 1.632688 1_545
O23 Si3 1.632688 1_455
O24 Si8 1.620327 1_655
O25 Si9 1.620327 1_565
O26 Si10 1.620327 1_655
O27 Si11 1.620327 1_565
O28 Si0 1.645545 1_555
O29 Si1 1.645545 1_555
O30 Si2 1.645545 1_555
O31 Si3 1.645545 1_555
O32 Si0 1.637603 1_555
O33 Si1 1.637603 1_555
O34 Si2 1.637603 1_555
O35 Si3 1.637603 1_555
O36 Si8 1.697767 1_555
O37 Si9 1.697767 1_555
O38 Si10 1.697767 1_555
O39 Si11 1.697767 1_555
