# generated using pymatgen
data_ZrAl3N4
_symmetry_space_group_name_H-M   'P 1'
_cell_length_a   2.94645800
_cell_length_b   4.32092800
_cell_length_c   6.10339700
_cell_angle_alpha   90.00000000
_cell_angle_beta   90.00000000
_cell_angle_gamma   90.00000000
_symmetry_Int_Tables_number   1
_chemical_formula_structural   ZrAl3N4
_chemical_formula_sum   'Zr1 Al3 N4'
_cell_volume   77.70498920
_cell_formula_units_Z   1
loop_
 _symmetry_equiv_pos_site_id
 _symmetry_equiv_pos_as_xyz
  1  'x, y, z'
loop_
 _atom_site_type_symbol
 _atom_site_label
 _atom_site_symmetry_multiplicity
 _atom_site_fract_x
 _atom_site_fract_y
 _atom_site_fract_z
 _atom_site_occupancy
  Zr  Zr0  1  0.00000000  0.00000000  0.00000000  1
  Al  Al0  1  0.50000000  0.50000000  0.26458300  1
  Al  Al1  1  0.00000000  0.00000000  0.50000000  1
  Al  Al2  1  0.50000000  0.50000000  0.73541700  1
  N  N0  1  0.00000000  0.50000000  0.50000000  1
  N  N1  1  0.50000000  0.00000000  0.71819700  1
  N  N2  1  0.00000000  0.50000000  0.00000000  1
  N  N3  1  0.50000000  0.00000000  0.28180300  1
loop_
_geom_bond_atom_site_label_1
_geom_bond_atom_site_label_2
_geom_bond_distance
_geom_bond_site_symmetry_2
Al0 N0 2.057893 1_555
Al0 N0 2.057893 1_655
Al0 N3 2.163019 1_555
Al0 N3 2.163019 1_565
Al0 N2 2.185900 1_555
Al0 N2 2.185900 1_655
Al1 N3 1.985936 1_555
Al1 N3 1.985936 1_455
Al1 N1 1.985936 1_555
Al1 N1 1.985936 1_455
Al1 N0 2.160464 1_555
Al1 N0 2.160464 1_545
Al2 N0 2.057893 1_555
Al2 N0 2.057893 1_655
Al2 N1 2.163019 1_565
Al2 N1 2.163019 1_555
Al2 N2 2.185900 1_656
Al2 N2 2.185900 1_556
N1 Zr0 2.264652 1_556
N1 Zr0 2.264652 1_656
N2 Zr0 2.160464 1_555
N2 Zr0 2.160464 1_565
N3 Zr0 2.264652 1_655
N3 Zr0 2.264652 1_555
