# generated using pymatgen
data_TlIn3
_symmetry_space_group_name_H-M   'P 1'
_cell_length_a   5.77967555
_cell_length_b   5.77967555
_cell_length_c   5.77967555
_cell_angle_alpha   130.36081521
_cell_angle_beta   130.36081521
_cell_angle_gamma   72.83059762
_symmetry_Int_Tables_number   1
_chemical_formula_structural   TlIn3
_chemical_formula_sum   'Tl1 In3'
_cell_volume   109.50416900
_cell_formula_units_Z   1
loop_
 _symmetry_equiv_pos_site_id
 _symmetry_equiv_pos_as_xyz
  1  'x, y, z'
loop_
 _atom_site_type_symbol
 _atom_site_label
 _atom_site_symmetry_multiplicity
 _atom_site_fract_x
 _atom_site_fract_y
 _atom_site_fract_z
 _atom_site_occupancy
  Tl  Tl0  1  -0.00000000  0.00000000  -0.00000000  1
  In  In0  1  0.75000000  0.25000000  0.50000000  1
  In  In1  1  0.25000000  0.75000000  0.50000000  1
  In  In2  1  0.50000000  0.50000000  -0.00000000  1
loop_
_geom_bond_atom_site_label_1
_geom_bond_atom_site_label_2
_geom_bond_distance
_geom_bond_site_symmetry_2
In0 In2 3.360673 1_656
In0 Tl0 3.360673 1_656
In0 Tl0 3.360673 1_666
In0 In2 3.360673 1_555
In0 In2 3.360673 1_556
In0 Tl0 3.360673 1_555
In0 In2 3.360673 1_545
In0 Tl0 3.360673 1_655
In0 In1 3.431011 1_544
In0 In1 3.431011 1_645
In0 In1 3.431011 1_656
In0 In1 3.431011 1_555
In1 Tl0 3.360673 1_566
In1 In2 3.360673 1_455
In1 Tl0 3.360673 1_666
In1 In2 3.360673 1_555
In1 Tl0 3.360673 1_555
In1 In2 3.360673 1_556
In1 Tl0 3.360673 1_565
In1 In2 3.360673 1_566
In2 Tl0 3.431011 1_565
In2 Tl0 3.431011 1_655
In2 Tl0 3.431011 1_554
In2 Tl0 3.431011 1_666
