# generated using pymatgen
data_Tm3(Al3Ru)4
_symmetry_space_group_name_H-M   'P 1'
_cell_length_a   8.72774972
_cell_length_b   8.72774981
_cell_length_c   9.44217430
_cell_angle_alpha   90.00000036
_cell_angle_beta   89.99999674
_cell_angle_gamma   120.00001492
_symmetry_Int_Tables_number   1
_chemical_formula_structural   Tm3(Al3Ru)4
_chemical_formula_sum   'Tm6 Al24 Ru8'
_cell_volume   622.88396638
_cell_formula_units_Z   2
loop_
 _symmetry_equiv_pos_site_id
 _symmetry_equiv_pos_as_xyz
  1  'x, y, z'
loop_
 _atom_site_type_symbol
 _atom_site_label
 _atom_site_symmetry_multiplicity
 _atom_site_fract_x
 _atom_site_fract_y
 _atom_site_fract_z
 _atom_site_occupancy
  Tm  Tm0  1  0.80644260  0.19355736  0.74999318  1
  Tm  Tm1  1  0.19355713  0.80644251  0.25000672  1
  Tm  Tm2  1  0.38711489  0.19355787  0.74999346  1
  Tm  Tm3  1  0.61288537  0.80644266  0.25000659  1
  Tm  Tm4  1  0.80644251  0.61288506  0.74999317  1
  Tm  Tm5  1  0.19355761  0.38711451  0.25000664  1
  Al  Al0  1  0.66666668  0.33333324  0.98935708  1
  Al  Al1  1  0.33333325  0.66666656  0.01064256  1
  Al  Al2  1  0.33333340  0.66666666  0.48935770  1
  Al  Al3  1  0.66666667  0.33333327  0.51064273  1
  Al  Al4  1  0.83776667  0.16223329  0.42261484  1
  Al  Al5  1  0.16223342  0.83776673  0.57738533  1
  Al  Al6  1  0.32446673  0.16223319  0.42261470  1
  Al  Al7  1  0.16223419  0.83776584  0.92262419  1
  Al  Al8  1  0.67553318  0.83776666  0.57738548  1
  Al  Al9  1  0.83776575  0.16223425  0.07737568  1
  Al  Al10  1  0.83776672  0.67553327  0.42261465  1
  Al  Al11  1  0.67553140  0.83776577  0.92262396  1
  Al  Al12  1  0.16223336  0.32446691  0.57738552  1
  Al  Al13  1  0.32446844  0.16223407  0.07737591  1
  Al  Al14  1  0.16223415  0.32446864  0.92262401  1
  Al  Al15  1  0.83776582  0.67553158  0.07737581  1
  Al  Al16  1  0.43940460  0.56059557  0.75000237  1
  Al  Al17  1  0.56059544  0.43940459  0.24999752  1
  Al  Al18  1  0.12119016  0.56059523  0.75000247  1
  Al  Al19  1  0.87880999  0.43940481  0.24999754  1
  Al  Al20  1  0.43940489  0.87881001  0.75000243  1
  Al  Al21  1  0.56059504  0.12118985  0.24999757  1
  Al  Al22  1  -0.00000005  -0.00000001  0.74999810  1
  Al  Al23  1  0.00000000  -0.00000017  0.25000186  1
  Ru  Ru0  1  0.50000033  0.49999960  -0.00000073  1
  Ru  Ru1  1  -0.00000075  0.49999962  -0.00000069  1
  Ru  Ru2  1  0.50000025  0.49999962  0.50000076  1
  Ru  Ru3  1  0.50000042  0.00000074  -0.00000066  1
  Ru  Ru4  1  -0.00000070  0.49999957  0.50000069  1
  Ru  Ru5  1  0.50000035  0.00000083  0.50000082  1
  Ru  Ru6  1  0.00000004  0.00000009  -0.00000015  1
  Ru  Ru7  1  0.00000005  0.00000018  0.50000018  1
loop_
_geom_bond_atom_site_label_1
_geom_bond_atom_site_label_2
_geom_bond_distance
_geom_bond_site_symmetry_2
Tm0 Tm4 3.659788 1_555
Tm0 Tm2 3.659790 1_555
Tm1 Tm3 3.659791 1_555
Tm1 Tm5 3.659792 1_555
Tm2 Tm4 3.659784 1_555
Tm3 Tm5 3.659789 1_555
Al0 Ru3 2.521481 1_556
Al0 Ru1 2.521481 1_656
Al0 Ru0 2.521483 1_556
Al0 Al9 2.716731 1_556
Al0 Al13 2.716732 1_556
Al0 Al15 2.716733 1_556
Al0 Al17 2.937294 1_556
Al0 Al19 2.937297 1_556
Al0 Al21 2.937298 1_556
Al0 Tm2 3.093993 1_555
Al0 Tm4 3.093995 1_555
Al0 Tm0 3.093995 1_555
Al1 Ru1 2.521492 1_555
Al1 Ru0 2.521493 1_555
Al1 Ru3 2.521494 1_565
Al1 Al14 2.716729 1_554
Al1 Al11 2.716731 1_554
Al1 Al7 2.716732 1_554
Al1 Al16 2.937291 1_554
Al1 Al18 2.937294 1_554
Al1 Al20 2.937295 1_554
Al1 Tm5 3.093997 1_555
Al1 Tm3 3.093997 1_555
Al1 Tm1 3.093998 1_555
Al2 Ru2 2.521492 1_555
Al2 Ru4 2.521493 1_555
Al2 Ru5 2.521494 1_565
Al2 Al8 2.716769 1_555
Al2 Al5 2.716771 1_555
Al2 Al20 2.937331 1_555
Al2 Tm3 3.093907 1_555
Al2 Tm1 3.093907 1_555
Al2 Tm5 3.093908 1_555
Al3 Ru5 2.521480 1_555
Al3 Ru4 2.521482 1_655
Al3 Ru2 2.521483 1_555
Al3 Al6 2.716771 1_555
Al3 Al4 2.716771 1_555
Al3 Tm4 3.093902 1_555
Al3 Tm0 3.093902 1_555
Al3 Tm2 3.093904 1_555
Al4 Ru7 2.559001 1_655
Al4 Ru4 2.656132 1_655
Al4 Ru5 2.656133 1_555
Al4 Al8 2.854854 1_545
Al4 Tm0 3.127222 1_555
Al4 Tm3 3.171174 1_545
Al4 Tm5 3.171175 1_655
Al5 Ru7 2.559003 1_565
Al5 Ru5 2.656133 1_565
Al5 Ru4 2.656135 1_555
Al5 Al6 2.854853 1_565
Al5 Tm1 3.127224 1_555
Al5 Tm4 3.171174 1_455
Al5 Tm2 3.171177 1_565
Al6 Ru7 2.559002 1_555
Al6 Ru5 2.656131 1_555
Al6 Ru2 2.656134 1_555
Al6 Tm2 3.127226 1_555
Al6 Tm5 3.171173 1_555
Al6 Tm1 3.171173 1_545
Al7 Ru6 2.558989 1_566
Al7 Ru1 2.656103 1_556
Al7 Ru3 2.656103 1_566
Al7 Tm1 3.127259 1_556
Al7 Tm4 3.171290 1_455
Al7 Tm2 3.171290 1_565
Al8 Ru7 2.559003 1_665
Al8 Ru2 2.656134 1_555
Al8 Ru5 2.656134 1_565
Al8 Tm3 3.127226 1_555
Al8 Tm0 3.171172 1_565
Al8 Tm4 3.171174 1_555
Al9 Ru6 2.558990 1_655
Al9 Ru3 2.656100 1_555
Al9 Ru1 2.656100 1_655
Al9 Tm0 3.127258 1_554
Al9 Tm3 3.171288 1_545
Al9 Tm5 3.171290 1_655
Al10 Ru7 2.559004 1_665
Al10 Ru4 2.656133 1_655
Al10 Ru2 2.656134 1_555
Al10 Al3 2.716772 1_555
Al10 Al17 2.787515 1_555
Al10 Al19 2.787517 1_555
Al10 Al5 2.854855 1_655
Al10 Al8 2.854858 1_555
Al10 Al23 2.944650 1_665
Al10 Tm4 3.127223 1_555
Al10 Tm1 3.171171 1_655
Al10 Tm3 3.171174 1_555
Al11 Ru6 2.558991 1_666
Al11 Ru3 2.656102 1_566
Al11 Ru0 2.656103 1_556
Al11 Al16 2.787530 1_555
Al11 Al20 2.787532 1_555
Al11 Al9 2.854775 1_566
Al11 Al15 2.854777 1_556
Al11 Al22 2.944731 1_665
Al11 Tm3 3.127259 1_556
Al11 Tm0 3.171288 1_565
Al11 Tm4 3.171290 1_555
Al12 Ru7 2.559002 1_555
Al12 Ru4 2.656133 1_555
Al12 Ru2 2.656133 1_555
Al12 Al2 2.716769 1_555
Al12 Al16 2.787514 1_555
Al12 Al18 2.787515 1_555
Al12 Al4 2.854855 1_455
Al12 Al6 2.854859 1_555
Al12 Al22 2.944651 1_555
Al12 Tm5 3.127226 1_555
Al12 Tm0 3.171172 1_455
Al12 Tm2 3.171173 1_555
Al13 Ru6 2.558989 1_555
Al13 Ru3 2.656101 1_555
Al13 Ru0 2.656102 1_555
Al13 Al17 2.787532 1_555
Al13 Al21 2.787533 1_555
Al13 Al7 2.854773 1_544
Al13 Al14 2.854779 1_554
Al13 Al23 2.944730 1_555
Al13 Tm2 3.127258 1_554
Al13 Tm5 3.171286 1_555
Al13 Tm1 3.171288 1_545
Al14 Ru6 2.558990 1_556
Al14 Ru1 2.656102 1_556
Al14 Ru0 2.656103 1_556
Al14 Al18 2.787532 1_555
Al14 Al16 2.787532 1_555
Al14 Al9 2.854774 1_456
Al14 Al22 2.944732 1_555
Al14 Tm5 3.127259 1_556
Al14 Tm2 3.171287 1_555
Al14 Tm0 3.171288 1_455
Al15 Ru6 2.558990 1_665
Al15 Ru1 2.656101 1_655
Al15 Ru0 2.656102 1_555
Al15 Al17 2.787532 1_555
Al15 Al19 2.787535 1_555
Al15 Al7 2.854774 1_654
Al15 Al23 2.944730 1_665
Al15 Tm4 3.127260 1_554
Al15 Tm1 3.171287 1_655
Al15 Tm3 3.171288 1_555
Al16 Ru0 2.532020 1_556
Al16 Ru2 2.532061 1_555
Al16 Al18 2.777295 1_555
Al16 Al20 2.777295 1_555
Al16 Al8 2.787513 1_555
Al16 Al2 2.937327 1_555
Al16 Tm2 3.001364 1_555
Al16 Tm4 3.001366 1_555
Al17 Ru0 2.532027 1_555
Al17 Ru2 2.532071 1_555
Al17 Al19 2.777296 1_555
Al17 Al21 2.777297 1_555
Al17 Al6 2.787516 1_555
Al17 Al3 2.937332 1_555
Al17 Tm5 3.001364 1_555
Al17 Tm3 3.001366 1_555
Al18 Ru1 2.532017 1_556
Al18 Ru4 2.532060 1_555
Al18 Al20 2.777298 1_555
Al18 Al5 2.787515 1_555
Al18 Al7 2.787532 1_555
Al18 Al2 2.937331 1_555
Al18 Tm4 3.001362 1_455
Al18 Tm0 3.001363 1_455
Al19 Ru1 2.532025 1_655
Al19 Ru4 2.532068 1_655
Al19 Al21 2.777300 1_555
Al19 Al4 2.787516 1_555
Al19 Al9 2.787532 1_555
Al19 Al3 2.937335 1_555
Al19 Tm1 3.001360 1_655
Al19 Tm5 3.001364 1_655
Al20 Ru3 2.532017 1_566
Al20 Ru5 2.532059 1_565
Al20 Al5 2.787515 1_555
Al20 Al8 2.787515 1_555
Al20 Al7 2.787533 1_555
Al20 Tm0 3.001361 1_565
Al20 Tm2 3.001364 1_565
Al21 Ru3 2.532024 1_555
Al21 Ru5 2.532068 1_555
Al21 Al6 2.787516 1_555
Al21 Al4 2.787517 1_555
Al21 Al9 2.787533 1_555
Al21 Al3 2.937335 1_555
Al21 Tm3 3.001360 1_545
Al21 Tm1 3.001362 1_545
Al22 Ru7 2.360524 1_555
Al22 Ru6 2.360560 1_556
Al22 Tm0 2.925989 1_455
Al22 Tm4 2.925990 1_445
Al22 Tm2 2.925990 1_555
Al22 Al8 2.944650 1_445
Al22 Al5 2.944651 1_545
Al22 Al7 2.944731 1_545
Al23 Ru7 2.360528 1_555
Al23 Ru6 2.360563 1_555
Al23 Tm1 2.925987 1_545
Al23 Tm3 2.925987 1_445
Al23 Tm5 2.925988 1_555
Al23 Al6 2.944651 1_555
Al23 Al4 2.944653 1_455
Al23 Al9 2.944734 1_455
Ru0 Tm2 3.325846 1_554
Ru0 Tm4 3.325851 1_554
Ru0 Tm5 3.325863 1_555
Ru0 Tm3 3.325865 1_555
Ru1 Tm0 3.325851 1_454
Ru1 Tm4 3.325852 1_454
Ru1 Tm1 3.325864 1_555
Ru1 Tm5 3.325867 1_555
Ru2 Tm2 3.325759 1_555
Ru2 Tm4 3.325760 1_555
Ru2 Tm5 3.325774 1_555
Ru2 Tm3 3.325776 1_555
Ru3 Tm0 3.325851 1_554
Ru3 Tm2 3.325852 1_554
Ru3 Tm3 3.325864 1_545
Ru3 Tm1 3.325866 1_545
Ru4 Tm0 3.325760 1_455
Ru4 Tm4 3.325760 1_455
Ru4 Tm1 3.325774 1_555
Ru4 Tm5 3.325778 1_555
Ru5 Tm0 3.325759 1_555
Ru5 Tm2 3.325763 1_555
Ru5 Tm1 3.325777 1_545
Ru5 Tm3 3.325778 1_545
