# generated using pymatgen
data_Mg5Si6
_symmetry_space_group_name_H-M   'P 1'
_cell_length_a   4.09143900
_cell_length_b   7.88489300
_cell_length_c   13.39038223
_cell_angle_alpha   84.43755971
_cell_angle_beta   90.00000000
_cell_angle_gamma   90.00000000
_symmetry_Int_Tables_number   1
_chemical_formula_structural   Mg5Si6
_chemical_formula_sum   'Mg10 Si12'
_cell_volume   429.94707993
_cell_formula_units_Z   2
loop_
 _symmetry_equiv_pos_site_id
 _symmetry_equiv_pos_as_xyz
  1  'x, y, z'
loop_
 _atom_site_type_symbol
 _atom_site_label
 _atom_site_symmetry_multiplicity
 _atom_site_fract_x
 _atom_site_fract_y
 _atom_site_fract_z
 _atom_site_occupancy
  Mg  Mg0  1  0.50000000  0.00504800  0.99903400  1
  Mg  Mg1  1  0.50000000  0.44955600  0.47954800  1
  Mg  Mg2  1  0.00000000  0.26274000  0.31646700  1
  Mg  Mg3  1  0.00000000  0.73446500  0.68552000  1
  Mg  Mg4  1  0.00000000  0.65340800  0.91788000  1
  Mg  Mg5  1  0.00000000  0.35712500  0.08427900  1
  Mg  Mg6  1  0.00000000  0.81764800  0.43924700  1
  Mg  Mg7  1  0.00000000  0.16413900  0.57217000  1
  Mg  Mg8  1  0.00000000  0.30283200  0.81172600  1
  Mg  Mg9  1  0.00000000  0.70552500  0.18992200  1
  Si  Si0  1  0.50000000  0.38863900  0.94488700  1
  Si  Si1  1  0.50000000  0.61892300  0.05661000  1
  Si  Si2  1  0.50000000  0.89169700  0.57374600  1
  Si  Si3  1  0.50000000  0.10363400  0.43091800  1
  Si  Si4  1  0.00000000  0.04175300  0.16266900  1
  Si  Si5  1  0.00000000  0.96689700  0.83592000  1
  Si  Si6  1  0.50000000  0.32603700  0.66799200  1
  Si  Si7  1  0.50000000  0.68971800  0.33202900  1
  Si  Si8  1  0.50000000  0.46563000  0.22427900  1
  Si  Si9  1  0.50000000  0.54399600  0.77888800  1
  Si  Si10  1  0.50000000  0.03275200  0.73411500  1
  Si  Si11  1  0.50000000  0.98146600  0.26578300  1
loop_
_geom_bond_atom_site_label_1
_geom_bond_atom_site_label_2
_geom_bond_distance
_geom_bond_site_symmetry_2
Mg0 Si5 3.028759 1_545
Mg0 Si5 3.028759 1_645
Mg0 Si4 3.031953 1_656
Mg0 Si4 3.031953 1_556
Mg0 Si0 3.041153 1_555
Mg0 Si1 3.067354 1_546
Mg1 Si7 2.600522 1_555
Mg1 Si6 2.615216 1_555
Mg1 Si3 2.864947 1_555
Mg2 Si3 2.781149 1_455
Mg2 Si3 2.781149 1_555
Mg2 Si8 2.808061 1_555
Mg2 Si8 2.808061 1_455
Mg2 Si4 2.823652 1_555
Mg2 Si11 3.139438 1_445
Mg2 Si11 3.139438 1_545
Mg3 Si2 2.757236 1_455
Mg3 Si2 2.757236 1_555
Mg3 Si9 2.763971 1_555
Mg3 Si9 2.763971 1_455
Mg3 Si5 2.851344 1_555
Mg3 Si10 3.230603 1_565
Mg3 Si10 3.230603 1_465
Mg4 Si5 2.605472 1_555
Mg4 Si1 2.758956 1_556
Mg4 Si1 2.758956 1_456
Mg4 Si0 2.920235 1_555
Mg4 Si0 2.920235 1_455
Mg4 Si9 2.950321 1_555
Mg4 Si9 2.950321 1_455
Mg5 Si4 2.603718 1_555
Mg5 Si0 2.764176 1_554
Mg5 Si0 2.764176 1_454
Mg5 Si1 2.904324 1_455
Mg5 Si1 2.904324 1_555
Mg5 Si8 2.956719 1_555
Mg5 Si8 2.956719 1_455
Mg6 Si7 2.746712 1_555
Mg6 Si7 2.746712 1_455
Mg6 Si2 2.823703 1_455
Mg6 Si2 2.823703 1_555
Mg6 Si3 3.038674 1_565
Mg6 Si3 3.038674 1_465
Mg6 Si11 3.266030 1_455
Mg6 Si11 3.266030 1_555
Mg7 Si6 2.788979 1_555
Mg7 Si6 2.788979 1_455
Mg7 Si3 2.857440 1_455
Mg7 Si3 2.857440 1_555
Mg7 Si2 2.965010 1_445
Mg7 Si2 2.965010 1_545
Mg7 Si10 3.086278 1_455
Mg7 Si10 3.086278 1_555
Mg8 Si5 2.637195 1_545
Mg8 Si9 2.798593 1_555
Mg8 Si9 2.798593 1_455
Mg8 Si6 2.802582 1_455
Mg8 Si6 2.802582 1_555
Mg8 Si0 2.838303 1_455
Mg8 Si0 2.838303 1_555
Mg8 Si10 3.198284 1_555
Mg8 Si10 3.198284 1_455
Mg9 Si4 2.640845 1_565
Mg9 Si7 2.788445 1_455
Mg9 Si7 2.788445 1_555
Mg9 Si8 2.793898 1_455
Mg9 Si8 2.793898 1_555
Mg9 Si1 2.841502 1_555
Mg9 Si1 2.841502 1_455
Mg9 Si11 3.221685 1_455
Mg9 Si11 3.221685 1_555
Si0 Si9 2.431769 1_555
Si0 Si1 2.462045 1_556
Si1 Si8 2.444499 1_555
Si2 Si3 2.414691 1_565
Si6 Si9 2.377668 1_555
Si7 Si8 2.387027 1_555
Si10 Si6 2.394738 1_555
Si10 Si5 2.485097 1_545
Si10 Si5 2.485097 1_645
Si10 Si2 2.512238 1_545
Si11 Si7 2.383932 1_555
Si11 Si4 2.487996 1_665
Si11 Si4 2.487996 1_565
Si11 Si3 2.496065 1_565
