# generated using pymatgen
data_Mg6MnNiO8
_symmetry_space_group_name_H-M   'P 1'
_cell_length_a   8.56013272
_cell_length_b   4.29380533
_cell_length_c   4.29380533
_cell_angle_alpha   90.00000000
_cell_angle_beta   90.00000000
_cell_angle_gamma   90.00000000
_symmetry_Int_Tables_number   1
_chemical_formula_structural   Mg6MnNiO8
_chemical_formula_sum   'Mg6 Mn1 Ni1 O8'
_cell_volume   157.82114858
_cell_formula_units_Z   1
loop_
 _symmetry_equiv_pos_site_id
 _symmetry_equiv_pos_as_xyz
  1  'x, y, z'
loop_
 _atom_site_type_symbol
 _atom_site_label
 _atom_site_symmetry_multiplicity
 _atom_site_fract_x
 _atom_site_fract_y
 _atom_site_fract_z
 _atom_site_occupancy
  Mg  Mg0  1  0.50000000  0.00000000  0.00000000  1
  Mg  Mg1  1  0.50000000  0.50000000  0.50000000  1
  Mg  Mg2  1  0.25073981  0.00000000  0.50000000  1
  Mg  Mg3  1  0.74926019  0.00000000  0.50000000  1
  Mg  Mg4  1  0.25073981  0.50000000  0.00000000  1
  Mg  Mg5  1  0.74926019  0.50000000  0.00000000  1
  Mn  Mn0  1  0.00000000  0.00000000  0.00000000  1
  Ni  Ni0  1  0.00000000  0.50000000  0.50000000  1
  O  O0  1  0.25790295  0.00000000  0.00000000  1
  O  O1  1  0.74209705  0.00000000  0.00000000  1
  O  O2  1  0.24903850  0.50000000  0.50000000  1
  O  O3  1  0.75096150  0.50000000  0.50000000  1
  O  O4  1  0.00000000  0.00000000  0.50000000  1
  O  O5  1  0.50000000  0.00000000  0.50000000  1
  O  O6  1  0.00000000  0.50000000  0.00000000  1
  O  O7  1  0.50000000  0.50000000  0.00000000  1
loop_
_geom_bond_atom_site_label_1
_geom_bond_atom_site_label_2
_geom_bond_distance
_geom_bond_site_symmetry_2
Mg0 O0 2.072383 1_555
Mg0 O1 2.072383 1_555
Mg0 O5 2.146903 1_554
Mg0 O5 2.146903 1_555
Mg0 O7 2.146903 1_545
Mg0 O7 2.146903 1_555
Mg1 O5 2.146903 1_555
Mg1 O5 2.146903 1_565
Mg1 O7 2.146903 1_555
Mg1 O7 2.146903 1_556
Mg1 O3 2.148264 1_555
Mg1 O2 2.148264 1_555
Mg2 O5 2.133700 1_555
Mg2 O4 2.146366 1_555
Mg2 O2 2.146952 1_555
Mg2 O2 2.146952 1_545
Mg2 O0 2.147778 1_555
Mg2 O0 2.147778 1_556
Mg3 O5 2.133700 1_555
Mg3 O4 2.146366 1_655
Mg3 O3 2.146952 1_555
Mg3 O3 2.146952 1_545
Mg3 O1 2.147778 1_556
Mg3 O1 2.147778 1_555
Mg4 O7 2.133700 1_555
Mg4 O6 2.146366 1_555
Mg4 O2 2.146952 1_555
Mg4 O2 2.146952 1_554
Mg4 O0 2.147778 1_565
Mg4 O0 2.147778 1_555
Mg5 O7 2.133700 1_555
Mg5 O6 2.146366 1_655
Mg5 O3 2.146952 1_555
Mg5 O3 2.146952 1_554
Mg5 O1 2.147778 1_565
Mg5 O1 2.147778 1_555
Mn0 O6 2.146903 1_545
Mn0 O6 2.146903 1_555
Mn0 O4 2.146903 1_555
Mn0 O4 2.146903 1_554
Mn0 O1 2.207683 1_455
Mn0 O0 2.207683 1_555
Ni0 O2 2.131803 1_555
Ni0 O3 2.131803 1_455
Ni0 O4 2.146903 1_565
Ni0 O6 2.146903 1_556
Ni0 O6 2.146903 1_555
Ni0 O4 2.146903 1_555
