# generated using pymatgen
data_MgTi3
_symmetry_space_group_name_H-M   'P 1'
_cell_length_a   4.70918408
_cell_length_b   4.70918408
_cell_length_c   4.70918408
_cell_angle_alpha   60.00000000
_cell_angle_beta   60.00000000
_cell_angle_gamma   60.00000000
_symmetry_Int_Tables_number   1
_chemical_formula_structural   MgTi3
_chemical_formula_sum   'Mg1 Ti3'
_cell_volume   73.84515474
_cell_formula_units_Z   1
loop_
 _symmetry_equiv_pos_site_id
 _symmetry_equiv_pos_as_xyz
  1  'x, y, z'
loop_
 _atom_site_type_symbol
 _atom_site_label
 _atom_site_symmetry_multiplicity
 _atom_site_fract_x
 _atom_site_fract_y
 _atom_site_fract_z
 _atom_site_occupancy
  Mg  Mg0  1  0.50000000  0.50000000  0.50000000  1
  Ti  Ti0  1  0.00000000  0.00000000  0.00000000  1
  Ti  Ti1  1  0.25000000  0.25000000  0.25000000  1
  Ti  Ti2  1  0.75000000  0.75000000  0.75000000  1
loop_
_geom_bond_atom_site_label_1
_geom_bond_atom_site_label_2
_geom_bond_distance
_geom_bond_site_symmetry_2
Mg0 Ti1 2.883775 1_556
Mg0 Ti2 2.883775 1_554
Mg0 Ti1 2.883775 1_565
Mg0 Ti2 2.883775 1_455
Mg0 Ti1 2.883775 1_655
Mg0 Ti2 2.883775 1_555
Mg0 Ti2 2.883775 1_545
Mg0 Ti1 2.883775 1_555
Mg0 Ti0 3.329896 1_656
Mg0 Ti0 3.329896 1_556
Mg0 Ti0 3.329896 1_566
Mg0 Ti0 3.329896 1_565
Mg0 Ti0 3.329896 1_655
Mg0 Ti0 3.329896 1_665
Ti0 Ti2 2.883775 1_544
Ti0 Ti1 2.883775 1_455
Ti0 Ti2 2.883775 1_454
Ti0 Ti2 2.883775 1_444
Ti0 Ti1 2.883775 1_545
Ti0 Ti1 2.883775 1_554
Ti0 Ti1 2.883775 1_555
Ti0 Ti2 2.883775 1_445
