# generated using pymatgen
data_Nb3Si
_symmetry_space_group_name_H-M   'P 1'
_cell_length_a   5.16617600
_cell_length_b   7.76297485
_cell_length_c   7.76297485
_cell_angle_alpha   83.64323718
_cell_angle_beta   70.56455323
_cell_angle_gamma   70.56455323
_symmetry_Int_Tables_number   1
_chemical_formula_structural   Nb3Si
_chemical_formula_sum   'Nb12 Si4'
_cell_volume   276.86278454
_cell_formula_units_Z   4
loop_
 _symmetry_equiv_pos_site_id
 _symmetry_equiv_pos_as_xyz
  1  'x, y, z'
loop_
 _atom_site_type_symbol
 _atom_site_label
 _atom_site_symmetry_multiplicity
 _atom_site_fract_x
 _atom_site_fract_y
 _atom_site_fract_z
 _atom_site_occupancy
  Nb  Nb0  1  0.66117500  0.18101100  0.01764900  1
  Nb  Nb1  1  0.85983400  0.81898900  0.98235100  1
  Nb  Nb2  1  0.15781400  0.98235100  0.18101100  1
  Nb  Nb3  1  0.32117700  0.01764900  0.81898900  1
  Nb  Nb4  1  0.99657500  0.37583200  0.66087900  1
  Nb  Nb5  1  0.03328600  0.62416800  0.33912100  1
  Nb  Nb6  1  0.62759300  0.33912100  0.37583200  1
  Nb  Nb7  1  0.34254600  0.66087900  0.62416800  1
  Nb  Nb8  1  0.03078200  0.40497900  0.02895500  1
  Nb  Nb9  1  0.46471600  0.59502100  0.97104500  1
  Nb  Nb10  1  0.56423900  0.97104500  0.40497900  1
  Nb  Nb11  1  0.94026300  0.02895500  0.59502100  1
  Si  Si0  1  0.48815700  0.32375700  0.73924100  1
  Si  Si1  1  0.55115500  0.67624300  0.26075900  1
  Si  Si2  1  0.18808600  0.26075900  0.32375700  1
  Si  Si3  1  0.77260100  0.73924100  0.67624300  1
loop_
_geom_bond_atom_site_label_1
_geom_bond_atom_site_label_2
_geom_bond_distance
_geom_bond_site_symmetry_2
Nb0 Si0 2.606556 1_554
Nb0 Si2 2.730808 1_555
Nb1 Si1 2.606553 1_556
Nb1 Si3 2.730808 1_555
Nb2 Si2 2.606556 1_565
Nb2 Si1 2.730808 1_555
Nb3 Si3 2.606551 1_545
Nb3 Si0 2.730805 1_555
Nb4 Si2 2.613868 1_655
Nb4 Si0 2.649761 1_555
Nb4 Si3 2.668743 1_555
Nb4 Si0 2.696938 1_655
Nb5 Si3 2.613868 1_455
Nb5 Si1 2.649761 1_455
Nb5 Si2 2.668743 1_555
Nb5 Si1 2.696938 1_555
Nb6 Si1 2.613868 1_555
Nb6 Si2 2.649761 1_655
Nb6 Si0 2.668743 1_555
Nb6 Si2 2.696938 1_555
Nb7 Si0 2.613868 1_555
Nb7 Si3 2.649756 1_555
Nb7 Si1 2.668743 1_555
Nb7 Si3 2.696943 1_455
Nb8 Si0 2.612458 1_554
Nb8 Si2 2.686282 1_555
Nb8 Si1 2.865601 1_455
Nb9 Si1 2.612458 1_556
Nb9 Si3 2.686280 1_555
Nb9 Si0 2.865601 1_555
Nb10 Si2 2.612458 1_565
Nb10 Si1 2.686282 1_555
Nb10 Si3 2.865598 1_555
Nb11 Si3 2.612460 1_545
Nb11 Si0 2.686282 1_555
Nb11 Si2 2.865601 1_655
