# generated using pymatgen
data_CeSe2
_symmetry_space_group_name_H-M   'P 1'
_cell_length_a   4.10258849
_cell_length_b   4.10258849
_cell_length_c   12.88514000
_cell_angle_alpha   90.00000000
_cell_angle_beta   90.00000000
_cell_angle_gamma   120.00000797
_symmetry_Int_Tables_number   1
_chemical_formula_structural   CeSe2
_chemical_formula_sum   'Ce2 Se4'
_cell_volume   187.81732633
_cell_formula_units_Z   2
loop_
 _symmetry_equiv_pos_site_id
 _symmetry_equiv_pos_as_xyz
  1  'x, y, z'
loop_
 _atom_site_type_symbol
 _atom_site_label
 _atom_site_symmetry_multiplicity
 _atom_site_fract_x
 _atom_site_fract_y
 _atom_site_fract_z
 _atom_site_occupancy
  Ce  Ce0  1  0.00000000  0.00000000  0.25000000  1
  Ce  Ce1  1  0.00000000  0.00000000  0.75000000  1
  Se  Se0  1  0.33333300  0.66666700  0.38077800  1
  Se  Se1  1  0.66666700  0.33333300  0.61922200  1
  Se  Se2  1  0.66666700  0.33333300  0.88077800  1
  Se  Se3  1  0.33333300  0.66666700  0.11922200  1
loop_
_geom_bond_atom_site_label_1
_geom_bond_atom_site_label_2
_geom_bond_distance
_geom_bond_site_symmetry_2
Ce0 Se0 2.906878 1_545
Ce0 Se3 2.906878 1_545
Ce0 Se0 2.906880 1_445
Ce0 Se3 2.906880 1_445
Ce0 Se3 2.906880 1_555
Ce0 Se0 2.906880 1_555
Ce1 Se2 2.906878 1_455
Ce1 Se1 2.906878 1_455
Ce1 Se2 2.906880 1_445
Ce1 Se2 2.906880 1_555
Ce1 Se1 2.906880 1_445
Ce1 Se1 2.906880 1_555
