# generated using pymatgen
data_Al(BiO3)3
_symmetry_space_group_name_H-M   'P 1'
_cell_length_a   5.79390337
_cell_length_b   5.79390337
_cell_length_c   13.28456692
_cell_angle_alpha   86.05903113
_cell_angle_beta   86.05903113
_cell_angle_gamma   54.34890032
_symmetry_Int_Tables_number   1
_chemical_formula_structural   Al(BiO3)3
_chemical_formula_sum   'Al2 Bi6 O18'
_cell_volume   361.29069138
_cell_formula_units_Z   2
loop_
 _symmetry_equiv_pos_site_id
 _symmetry_equiv_pos_as_xyz
  1  'x, y, z'
loop_
 _atom_site_type_symbol
 _atom_site_label
 _atom_site_symmetry_multiplicity
 _atom_site_fract_x
 _atom_site_fract_y
 _atom_site_fract_z
 _atom_site_occupancy
  Al  Al0  1  0.71780300  0.70553400  0.42969700  1
  Al  Al1  1  0.70553400  0.71780300  0.92969700  1
  Bi  Bi0  1  0.63876400  0.61919400  0.66585400  1
  Bi  Bi1  1  0.30794700  0.30332000  0.31422300  1
  Bi  Bi2  1  0.96567300  0.99389900  0.99593200  1
  Bi  Bi3  1  0.30332000  0.30794700  0.81422300  1
  Bi  Bi4  1  0.99389900  0.96567300  0.49593200  1
  Bi  Bi5  1  0.61919400  0.63876400  0.16585400  1
  O  O0  1  0.64135300  0.27824300  0.73281800  1
  O  O1  1  0.32530600  0.94208000  0.40258700  1
  O  O2  1  0.89558700  0.66584600  0.05480000  1
  O  O3  1  0.50534000  0.84656000  0.80685900  1
  O  O4  1  0.11632300  0.54322600  0.44849200  1
  O  O5  1  0.83103900  0.20143200  0.13229400  1
  O  O6  1  0.02037300  0.72896400  0.86967200  1
  O  O7  1  0.72791800  0.41944400  0.51384400  1
  O  O8  1  0.38585800  0.08047200  0.18405400  1
  O  O9  1  0.94208000  0.32530600  0.90258700  1
  O  O10  1  0.66584600  0.89558700  0.55480000  1
  O  O11  1  0.27824300  0.64135300  0.23281800  1
  O  O12  1  0.08047200  0.38585800  0.68405400  1
  O  O13  1  0.72896400  0.02037300  0.36967200  1
  O  O14  1  0.41944400  0.72791800  0.01384400  1
  O  O15  1  0.20143200  0.83103900  0.63229400  1
  O  O16  1  0.84656000  0.50534000  0.30685900  1
  O  O17  1  0.54322600  0.11632300  0.94849200  1
loop_
_geom_bond_atom_site_label_1
_geom_bond_atom_site_label_2
_geom_bond_distance
_geom_bond_site_symmetry_2
Al0 O1 1.895030 1_555
Al0 O7 1.908316 1_555
Al0 O16 1.910237 1_555
Al0 O4 1.947801 1_655
Al0 O10 1.965087 1_555
Al0 O13 1.974341 1_565
Al1 O9 1.895030 1_555
Al1 O14 1.908316 1_556
Al1 O3 1.910237 1_555
Al1 O17 1.947801 1_565
Al1 O2 1.965087 1_556
Al1 O6 1.974341 1_655
Bi0 O0 2.102303 1_555
Bi0 O12 2.107773 1_655
Bi0 O15 2.140185 1_555
Bi0 O10 2.168398 1_555
Bi0 O3 2.189718 1_555
Bi0 O7 2.272698 1_555
Bi1 O11 2.092004 1_555
Bi1 O8 2.093161 1_555
Bi1 O13 2.144737 1_555
Bi1 O4 2.148483 1_555
Bi1 O16 2.213266 1_455
Bi1 O1 2.280753 1_545
Bi2 O5 2.085109 1_566
Bi2 O9 2.152529 1_565
Bi2 O14 2.157852 1_656
Bi2 O6 2.232444 1_655
Bi2 O17 2.240072 1_565
Bi2 O2 2.245196 1_556
Bi3 O0 2.092004 1_555
Bi3 O12 2.093161 1_555
Bi3 O6 2.144737 1_555
Bi3 O17 2.148483 1_555
Bi3 O3 2.213266 1_545
Bi3 O9 2.280753 1_455
Bi4 O15 2.085109 1_655
Bi4 O1 2.152529 1_655
Bi4 O7 2.157852 1_565
Bi4 O13 2.232444 1_565
Bi4 O4 2.240072 1_655
Bi4 O10 2.245196 1_555
Bi5 O11 2.102303 1_555
Bi5 O8 2.107773 1_565
Bi5 O5 2.140185 1_555
Bi5 O2 2.168398 1_555
Bi5 O16 2.189718 1_555
Bi5 O14 2.272698 1_555
