# generated using pymatgen
data_Mn5VO8
_symmetry_space_group_name_H-M   'P 1'
_cell_length_a   5.40578575
_cell_length_b   6.18542373
_cell_length_c   10.17843350
_cell_angle_alpha   106.87563104
_cell_angle_beta   99.31534244
_cell_angle_gamma   90.48528124
_symmetry_Int_Tables_number   1
_chemical_formula_structural   Mn5VO8
_chemical_formula_sum   'Mn10 V2 O16'
_cell_volume   320.83147965
_cell_formula_units_Z   2
loop_
 _symmetry_equiv_pos_site_id
 _symmetry_equiv_pos_as_xyz
  1  'x, y, z'
loop_
 _atom_site_type_symbol
 _atom_site_label
 _atom_site_symmetry_multiplicity
 _atom_site_fract_x
 _atom_site_fract_y
 _atom_site_fract_z
 _atom_site_occupancy
  Mn  Mn0  1  0.24178157  0.36273496  0.73147461  1
  Mn  Mn1  1  0.75821843  0.63726504  0.26852539  1
  Mn  Mn2  1  0.50515687  0.24979849  0.00378987  1
  Mn  Mn3  1  0.49484313  0.75020151  0.99621013  1
  Mn  Mn4  1  0.74155237  0.10693611  0.73372697  1
  Mn  Mn5  1  0.25844763  0.89306389  0.26627303  1
  Mn  Mn6  1  0.25345884  0.38087418  0.26671334  1
  Mn  Mn7  1  0.74654116  0.61912582  0.73328666  1
  Mn  Mn8  1  -0.00000000  -0.00000000  -0.00000000  1
  Mn  Mn9  1  -0.00000000  0.50000000  -0.00000000  1
  V  V0  1  0.19724385  0.78710875  0.57309905  1
  V  V1  1  0.80275615  0.21289125  0.42690095  1
  O  O0  1  0.36988868  0.58863906  0.63239734  1
  O  O1  1  0.63011132  0.41136094  0.36760266  1
  O  O2  1  0.63346570  0.95323213  0.36634813  1
  O  O3  1  0.36653430  0.04676787  0.63365187  1
  O  O4  1  0.11024037  0.64775794  0.87727017  1
  O  O5  1  0.88975963  0.35224206  0.12272983  1
  O  O6  1  0.90035729  0.79043215  0.10836738  1
  O  O7  1  0.09964271  0.20956785  0.89163262  1
  O  O8  1  0.39296696  0.57342693  0.13987438  1
  O  O9  1  0.60703304  0.42657307  0.86012562  1
  O  O10  1  0.32706018  0.05669942  0.11178886  1
  O  O11  1  0.67293982  0.94330058  0.88821114  1
  O  O12  1  0.91219221  0.81542610  0.63318061  1
  O  O13  1  0.08780779  0.18457390  0.36681939  1
  O  O14  1  0.86827459  0.30244316  0.61349292  1
  O  O15  1  0.13172541  0.69755684  0.38650708  1
loop_
_geom_bond_atom_site_label_1
_geom_bond_atom_site_label_2
_geom_bond_distance
_geom_bond_site_symmetry_2
Mn0 O3 2.091824 1_555
Mn0 O0 2.115859 1_555
Mn0 O14 2.144808 1_455
Mn0 O9 2.149122 1_555
Mn0 O4 2.158664 1_555
Mn0 O7 2.331357 1_555
Mn1 O2 2.091824 1_555
Mn1 O1 2.115859 1_555
Mn1 O15 2.144808 1_655
Mn1 O8 2.149122 1_555
Mn1 O5 2.158664 1_555
Mn1 O6 2.331357 1_555
Mn2 O10 2.155756 1_555
Mn2 O9 2.194524 1_554
Mn2 O11 2.209164 1_544
Mn2 O5 2.215212 1_555
Mn2 O8 2.230742 1_555
Mn2 O7 2.277328 1_554
Mn3 O11 2.155756 1_555
Mn3 O8 2.194524 1_556
Mn3 O10 2.209164 1_566
Mn3 O4 2.215212 1_555
Mn3 O9 2.230742 1_555
Mn3 O6 2.277328 1_556
Mn4 O3 2.093918 1_555
Mn4 O12 2.100451 1_545
Mn4 O14 2.132120 1_555
Mn4 O11 2.177375 1_545
Mn4 O9 2.223353 1_555
Mn4 O7 2.261183 1_655
Mn5 O2 2.093918 1_555
Mn5 O13 2.100451 1_565
Mn5 O15 2.132120 1_555
Mn5 O10 2.177375 1_565
Mn5 O8 2.223353 1_555
Mn5 O6 2.261183 1_455
Mn6 O13 2.075962 1_555
Mn6 O1 2.107123 1_555
Mn6 O15 2.156767 1_555
Mn6 O8 2.201529 1_555
Mn6 O5 2.226032 1_455
Mn6 O10 2.246417 1_555
Mn7 O12 2.075962 1_555
Mn7 O0 2.107123 1_555
Mn7 O14 2.156767 1_555
Mn7 O9 2.201529 1_555
Mn7 O4 2.226032 1_655
Mn7 O11 2.246417 1_555
Mn8 O11 1.910523 1_444
Mn8 O10 1.910523 1_555
Mn8 O7 2.048833 1_554
Mn8 O6 2.048833 1_445
Mn8 O5 2.312024 1_455
Mn8 O4 2.312024 1_544
Mn9 O4 1.909336 1_554
Mn9 O5 1.909336 1_455
Mn9 O7 1.947379 1_554
Mn9 O6 1.947379 1_455
Mn9 O9 2.318400 1_454
Mn9 O8 2.318400 1_555
O0 V0 1.734816 1_555
O1 V1 1.734816 1_555
O2 V1 1.736291 1_565
O3 V0 1.736291 1_545
O12 V0 1.739703 1_655
O13 V1 1.739703 1_455
O14 V1 1.790924 1_555
O15 V0 1.790924 1_555
