# generated using pymatgen
data_NdGa2Pt3
_symmetry_space_group_name_H-M   'P 1'
_cell_length_a   5.58443333
_cell_length_b   5.58443333
_cell_length_c   3.99424907
_cell_angle_alpha   90.00000000
_cell_angle_beta   90.00000000
_cell_angle_gamma   120.00000488
_symmetry_Int_Tables_number   1
_chemical_formula_structural   NdGa2Pt3
_chemical_formula_sum   'Nd1 Ga2 Pt3'
_cell_volume   107.87578630
_cell_formula_units_Z   1
loop_
 _symmetry_equiv_pos_site_id
 _symmetry_equiv_pos_as_xyz
  1  'x, y, z'
loop_
 _atom_site_type_symbol
 _atom_site_label
 _atom_site_symmetry_multiplicity
 _atom_site_fract_x
 _atom_site_fract_y
 _atom_site_fract_z
 _atom_site_occupancy
  Nd  Nd0  1  -0.00000000  -0.00000000  -0.00000000  1
  Ga  Ga0  1  0.66666700  0.33333300  -0.00000000  1
  Ga  Ga1  1  0.33333300  0.66666700  0.00000000  1
  Pt  Pt0  1  0.50000000  0.50000000  0.50000000  1
  Pt  Pt1  1  0.50000000  -0.00000000  0.50000000  1
  Pt  Pt2  1  -0.00000000  0.50000000  0.50000000  1
loop_
_geom_bond_atom_site_label_1
_geom_bond_atom_site_label_2
_geom_bond_distance
_geom_bond_site_symmetry_2
Nd0 Pt0 3.432926 1_555
Nd0 Pt0 3.432926 1_444
Nd0 Pt0 3.432926 1_445
Nd0 Pt0 3.432926 1_554
Nd0 Pt1 3.432926 1_554
Nd0 Pt1 3.432926 1_555
Nd0 Pt2 3.432926 1_554
Nd0 Pt2 3.432926 1_555
Nd0 Pt2 3.432926 1_545
Nd0 Pt1 3.432926 1_454
Nd0 Pt1 3.432926 1_455
Nd0 Pt2 3.432926 1_544
Ga0 Pt1 2.566579 1_555
Ga0 Pt1 2.566579 1_554
Ga0 Pt2 2.566579 1_655
Ga0 Pt2 2.566579 1_654
Ga0 Pt0 2.566582 1_554
Ga0 Pt0 2.566582 1_555
Ga0 Nd0 3.224171 1_655
Ga0 Nd0 3.224176 1_665
Ga0 Nd0 3.224176 1_555
Ga1 Pt1 2.566579 1_565
Ga1 Pt2 2.566579 1_554
Ga1 Pt2 2.566579 1_555
Ga1 Pt1 2.566579 1_564
Ga1 Pt0 2.566582 1_554
Ga1 Pt0 2.566582 1_555
Ga1 Nd0 3.224171 1_565
Ga1 Nd0 3.224176 1_665
Ga1 Nd0 3.224176 1_555
