# generated using pymatgen
data_Ba2CaY2(Fe2O5)2
_symmetry_space_group_name_H-M   'P 1'
_cell_length_a   3.77753400
_cell_length_b   9.59016613
_cell_length_c   8.06344063
_cell_angle_alpha   89.12544644
_cell_angle_beta   90.00000000
_cell_angle_gamma   90.00000000
_symmetry_Int_Tables_number   1
_chemical_formula_structural   Ba2CaY2(Fe2O5)2
_chemical_formula_sum   'Ba2 Ca1 Y2 Fe4 O10'
_cell_volume   292.08167553
_cell_formula_units_Z   1
loop_
 _symmetry_equiv_pos_site_id
 _symmetry_equiv_pos_as_xyz
  1  'x, y, z'
loop_
 _atom_site_type_symbol
 _atom_site_label
 _atom_site_symmetry_multiplicity
 _atom_site_fract_x
 _atom_site_fract_y
 _atom_site_fract_z
 _atom_site_occupancy
  Ba  Ba0  1  0.00000000  0.02316200  0.50362000  1
  Ba  Ba1  1  0.00000000  0.88210500  0.01848400  1
  Ca  Ca0  1  0.00000000  0.21119000  0.95508500  1
  Y  Y0  1  0.00000000  0.52799100  0.01177600  1
  Y  Y1  1  0.00000000  0.46301900  0.47841900  1
  Fe  Fe0  1  0.49999900  0.72066400  0.32562600  1
  Fe  Fe1  1  0.49999900  0.30831800  0.73222300  1
  Fe  Fe2  1  0.49999900  0.30054600  0.24413300  1
  Fe  Fe3  1  0.49999900  0.72563300  0.70371300  1
  O  O0  1  0.49999900  0.57765200  0.52111500  1
  O  O1  1  0.49999900  0.26378300  0.48748400  1
  O  O2  1  0.49999900  0.67565100  0.95514100  1
  O  O3  1  0.49999900  0.37391400  0.00459700  1
  O  O4  1  0.00000000  0.80113700  0.69330600  1
  O  O5  1  0.00000000  0.33728600  0.23086600  1
  O  O6  1  0.00000000  0.64508100  0.25679800  1
  O  O7  1  0.00000000  0.39348000  0.75187900  1
  O  O8  1  0.49999900  0.92424800  0.27945400  1
  O  O9  1  0.49999900  0.10347100  0.84628200  1
loop_
_geom_bond_atom_site_label_1
_geom_bond_atom_site_label_2
_geom_bond_distance
_geom_bond_site_symmetry_2
Ba0 O4 2.602644 1_545
Ba0 O8 2.790492 1_545
Ba0 O8 2.790498 1_445
Ba0 O1 2.983318 1_555
Ba0 O1 2.983323 1_455
Ba1 O4 2.745954 1_554
Ba1 O2 2.789138 1_554
Ba1 O2 2.789143 1_454
Ba1 O8 2.860923 1_555
Ba1 O8 2.860928 1_455
Ba1 O6 2.954032 1_555
Ba1 O9 3.148388 1_564
Ba1 O9 3.148392 1_464
Ca0 O9 2.330659 1_555
Ca0 O9 2.330665 1_455
Ca0 O7 2.377718 1_555
Ca0 O3 2.486192 1_556
Ca0 O3 2.486198 1_456
Ca0 O5 2.547447 1_556
Fe0 O8 1.981995 1_555
Fe0 O0 2.073597 1_555
Fe0 O6 2.100746 1_555
Fe0 O6 2.100753 1_655
Fe1 O1 2.025488 1_555
Fe1 O7 2.064831 1_555
Fe1 O7 2.064838 1_655
Fe1 O9 2.156394 1_555
Fe1 O3 2.293801 1_556
Fe2 O5 1.924023 1_555
Fe2 O5 1.924031 1_655
Fe2 O1 1.988364 1_555
Fe2 O3 2.045535 1_555
Fe3 O4 2.024087 1_555
Fe3 O4 2.024094 1_655
Fe3 O0 2.060504 1_555
Fe3 O2 2.076137 1_555
O0 Y1 2.214966 1_555
O0 Y1 2.214973 1_655
O1 Y1 2.686876 1_555
O1 Y1 2.686882 1_655
O2 Y0 2.400319 1_556
O2 Y0 2.400325 1_656
O3 Y0 2.399325 1_555
O3 Y0 2.399331 1_655
O5 Y1 2.347756 1_555
O5 Y0 2.523324 1_555
O6 Y0 2.287385 1_555
O6 Y1 2.479265 1_555
O7 Y1 2.293906 1_555
O7 Y0 2.477577 1_556
