# generated using pymatgen
data_Sr3Be2B5HO13
_symmetry_space_group_name_H-M   'P 1'
_cell_length_a   6.70616101
_cell_length_b   6.70616101
_cell_length_c   6.61948353
_cell_angle_alpha   76.86572333
_cell_angle_beta   76.86572333
_cell_angle_gamma   101.57963023
_symmetry_Int_Tables_number   1
_chemical_formula_structural   Sr3Be2B5HO13
_chemical_formula_sum   'Sr3 Be2 B5 H1 O13'
_cell_volume   272.14429913
_cell_formula_units_Z   1
loop_
 _symmetry_equiv_pos_site_id
 _symmetry_equiv_pos_as_xyz
  1  'x, y, z'
loop_
 _atom_site_type_symbol
 _atom_site_label
 _atom_site_symmetry_multiplicity
 _atom_site_fract_x
 _atom_site_fract_y
 _atom_site_fract_z
 _atom_site_occupancy
  Sr  Sr0  1  0.01720900  0.59214600  0.98209400  1
  Sr  Sr1  1  0.00759700  0.00759700  0.41043700  1
  Sr  Sr2  1  0.59214600  0.01720900  0.98209400  1
  Be  Be0  1  0.70825500  0.42734500  0.56959500  1
  Be  Be1  1  0.42734500  0.70825500  0.56959500  1
  B  B0  1  0.55806100  0.55806100  0.90744400  1
  B  B1  1  0.10392700  0.56679300  0.43313200  1
  B  B2  1  0.56679300  0.10392700  0.43313200  1
  B  B3  1  0.04675500  0.04675500  0.95433300  1
  B  B4  1  0.42616200  0.42616200  0.30669100  1
  H  H0  1  0.37390500  0.37390500  0.62667200  1
  O  O0  1  0.96394500  0.19660900  0.03649900  1
  O  O1  1  0.95874400  0.95874400  0.81099900  1
  O  O2  1  0.19660900  0.96394500  0.03649900  1
  O  O3  1  0.48285000  0.48285000  0.50640800  1
  O  O4  1  0.57561200  0.57561200  0.11412300  1
  O  O5  1  0.91330800  0.58612000  0.39713600  1
  O  O6  1  0.58612000  0.91330800  0.39713600  1
  O  O7  1  0.43866400  0.67210500  0.81465100  1
  O  O8  1  0.20520400  0.43642800  0.32926000  1
  O  O9  1  0.67272500  0.18642100  0.56078300  1
  O  O10  1  0.67210500  0.43866400  0.81465100  1
  O  O11  1  0.18642100  0.67272500  0.56078300  1
  O  O12  1  0.43642800  0.20520400  0.32926000  1
loop_
_geom_bond_atom_site_label_1
_geom_bond_atom_site_label_2
_geom_bond_distance
_geom_bond_site_symmetry_2
Be0 O5 1.572975 1_555
Be0 O9 1.601618 1_555
Be0 O10 1.606397 1_555
Be0 O3 1.743819 1_555
Be1 O6 1.572975 1_555
Be1 O11 1.601618 1_555
Be1 O7 1.606397 1_555
Be1 O3 1.743819 1_555
B0 O10 1.363519 1_555
B0 O7 1.363519 1_555
B0 O4 1.428365 1_556
B1 O11 1.360951 1_555
B1 O5 1.377892 1_455
B1 O8 1.413397 1_555
B2 O9 1.360951 1_555
B2 O6 1.377892 1_545
B2 O12 1.413397 1_555
B3 O2 1.396181 1_546
B3 O0 1.396181 1_456
B3 O1 1.402168 1_445
B4 O4 1.438523 1_555
B4 O8 1.472329 1_555
B4 O12 1.472329 1_555
B4 O3 1.560635 1_555
H0 O3 0.978961 1_555
O0 Sr0 2.533822 1_654
O0 Sr1 2.621398 1_655
O0 Sr2 2.682276 1_554
O1 Sr1 2.532297 1_665
O1 Sr2 2.608417 1_565
O1 Sr0 2.608417 1_655
O2 Sr2 2.533822 1_564
O2 Sr1 2.621398 1_565
O2 Sr0 2.682276 1_554
O4 Sr2 2.862519 1_564
O4 Sr0 2.862519 1_654
O5 Sr0 2.665218 1_654
O5 Sr1 2.795985 1_665
O6 Sr2 2.665218 1_564
O6 Sr1 2.795985 1_665
O7 Sr0 2.683662 1_555
O7 Sr2 2.893435 1_565
O8 Sr1 2.785547 1_555
O8 Sr0 2.952220 1_554
O9 Sr2 2.643504 1_555
O9 Sr1 2.842469 1_655
O10 Sr2 2.683662 1_555
O10 Sr0 2.893435 1_655
O11 Sr0 2.643504 1_555
O11 Sr1 2.842469 1_565
O12 Sr1 2.785547 1_555
O12 Sr2 2.952220 1_554
