# generated using pymatgen
data_NdZr3F15
_symmetry_space_group_name_H-M   'P 1'
_cell_length_a   7.39863622
_cell_length_b   7.39863592
_cell_length_c   7.39863694
_cell_angle_alpha   112.62214285
_cell_angle_beta   112.62215133
_cell_angle_gamma   112.62214072
_symmetry_Int_Tables_number   1
_chemical_formula_structural   NdZr3F15
_chemical_formula_sum   'Nd1 Zr3 F15'
_cell_volume   269.34910247
_cell_formula_units_Z   1
loop_
 _symmetry_equiv_pos_site_id
 _symmetry_equiv_pos_as_xyz
  1  'x, y, z'
loop_
 _atom_site_type_symbol
 _atom_site_label
 _atom_site_symmetry_multiplicity
 _atom_site_fract_x
 _atom_site_fract_y
 _atom_site_fract_z
 _atom_site_occupancy
  Nd  Nd0  1  0.99799585  0.99799587  0.99799572  1
  Zr  Zr0  1  0.35965948  0.79043181  0.35965941  1
  Zr  Zr1  1  0.35965923  0.35965932  0.79043167  1
  Zr  Zr2  1  0.79043185  0.35965936  0.35965929  1
  F  F0  1  0.64815794  0.43386688  0.10388453  1
  F  F1  1  0.10388453  0.64815793  0.43386678  1
  F  F2  1  0.10388461  0.43386704  0.64815804  1
  F  F3  1  0.43386672  0.10388440  0.64815808  1
  F  F4  1  0.43386677  0.64815787  0.10388441  1
  F  F5  1  0.64815825  0.10388435  0.43386680  1
  F  F6  1  0.10095145  0.76215173  0.10095156  1
  F  F7  1  0.10095162  0.10095167  0.76215178  1
  F  F8  1  0.76215153  0.10095138  0.10095138  1
  F  F9  1  0.64283164  0.86536131  0.64283168  1
  F  F10  1  0.64283182  0.64283181  0.86536134  1
  F  F11  1  0.86536130  0.64283158  0.64283163  1
  F  F12  1  0.18419036  0.41990338  0.18419036  1
  F  F13  1  0.18418972  0.18419000  0.41990306  1
  F  F14  1  0.41990332  0.18419033  0.18419048  1
loop_
_geom_bond_atom_site_label_1
_geom_bond_atom_site_label_2
_geom_bond_distance
_geom_bond_site_symmetry_2
F0 Zr1 2.132269 1_554
F0 Zr2 2.168421 1_555
F1 Zr2 2.132269 1_455
F1 Zr0 2.168422 1_555
F2 Zr2 2.132269 1_455
F2 Zr1 2.168421 1_555
F3 Zr0 2.132270 1_545
F3 Zr1 2.168421 1_555
F4 Zr1 2.132269 1_554
F4 Zr0 2.168422 1_555
F5 Zr0 2.132269 1_545
F5 Zr2 2.168422 1_555
F6 Zr0 1.984064 1_555
F6 Nd0 2.409133 1_454
F7 Zr1 1.984062 1_555
F7 Nd0 2.409132 1_445
F8 Zr2 1.984063 1_555
F8 Nd0 2.409133 1_544
F9 Zr0 1.980480 1_555
F9 Nd0 2.343798 1_555
F10 Zr1 1.980482 1_555
F10 Nd0 2.343798 1_555
F11 Zr2 1.980480 1_555
F11 Nd0 2.343798 1_555
F12 Zr0 2.028213 1_555
F12 Nd0 2.337359 1_444
F13 Zr1 2.028214 1_555
F13 Nd0 2.337360 1_444
F14 Zr2 2.028214 1_555
F14 Nd0 2.337359 1_444
