# generated using pymatgen
data_Li4MnCo2O7
_symmetry_space_group_name_H-M   'P 1'
_cell_length_a   3.02070100
_cell_length_b   9.69370379
_cell_length_c   9.79053030
_cell_angle_alpha   116.40551284
_cell_angle_beta   95.15878451
_cell_angle_gamma   95.67835370
_symmetry_Int_Tables_number   1
_chemical_formula_structural   Li4MnCo2O7
_chemical_formula_sum   'Li8 Mn2 Co4 O14'
_cell_volume   252.61333242
_cell_formula_units_Z   2
loop_
 _symmetry_equiv_pos_site_id
 _symmetry_equiv_pos_as_xyz
  1  'x, y, z'
loop_
 _atom_site_type_symbol
 _atom_site_label
 _atom_site_symmetry_multiplicity
 _atom_site_fract_x
 _atom_site_fract_y
 _atom_site_fract_z
 _atom_site_occupancy
  Li  Li0  1  0.63733100  0.77659400  0.07067500  1
  Li  Li1  1  0.93668800  0.36115400  0.21666500  1
  Li  Li2  1  0.21487400  0.92706600  0.35725400  1
  Li  Li3  1  0.50000000  0.50000000  0.50000000  1
  Li  Li4  1  0.78512600  0.07293400  0.64274600  1
  Li  Li5  1  0.06331200  0.63884600  0.78333500  1
  Li  Li6  1  0.36266900  0.22340600  0.92932500  1
  Li  Li7  1  0.00000000  0.50000000  0.00000000  1
  Mn  Mn0  1  0.71576500  0.92676900  0.85329400  1
  Mn  Mn1  1  0.28423500  0.07323100  0.14670600  1
  Co  Co0  1  0.57021200  0.63883600  0.27478000  1
  Co  Co1  1  0.85960300  0.21733000  0.43386100  1
  Co  Co2  1  0.14039700  0.78267000  0.56613900  1
  Co  Co3  1  0.42978800  0.36116400  0.72522000  1
  O  O0  1  0.15207400  0.86546500  0.96826900  1
  O  O1  1  0.47099300  0.44802200  0.12757700  1
  O  O2  1  0.73377900  0.01548100  0.26157800  1
  O  O3  1  0.02753700  0.58570700  0.39501800  1
  O  O4  1  0.30148900  0.16283700  0.54486000  1
  O  O5  1  0.57688000  0.72266000  0.67561900  1
  O  O6  1  0.86910000  0.29059800  0.81313200  1
  O  O7  1  0.13090000  0.70940200  0.18686800  1
  O  O8  1  0.42312000  0.27734000  0.32438100  1
  O  O9  1  0.69851100  0.83716300  0.45514000  1
  O  O10  1  0.97246300  0.41429300  0.60498200  1
  O  O11  1  0.26622100  0.98451900  0.73842200  1
  O  O12  1  0.52900700  0.55197800  0.87242300  1
  O  O13  1  0.84792600  0.13453500  0.03173100  1
loop_
_geom_bond_atom_site_label_1
_geom_bond_atom_site_label_2
_geom_bond_distance
_geom_bond_site_symmetry_2
Li0 O7 2.118351 1_655
Li0 O12 2.145045 1_554
Li0 O0 2.156351 1_554
Li0 O7 2.198498 1_555
Li0 O2 2.204450 1_565
Li0 O0 2.224539 1_654
Li1 O1 2.028734 1_555
Li1 O3 2.068218 1_655
Li1 O13 2.105800 1_555
Li1 O8 2.156615 1_655
Li1 O1 2.170772 1_655
Li1 O8 2.232893 1_555
Li2 O7 1.996609 1_555
Li2 O2 2.107053 1_465
Li2 O9 2.134308 1_555
Li2 O4 2.174185 1_565
Li2 O2 2.186595 1_565
Li2 O9 2.203075 1_455
Li3 O8 2.048684 1_555
Li3 O5 2.048684 1_555
Li3 O3 2.124590 1_555
Li3 O10 2.124590 1_555
Li3 O3 2.253468 1_655
Li3 O10 2.253468 1_455
Li4 O6 1.996609 1_555
Li4 O11 2.107053 1_645
Li4 O4 2.134308 1_555
Li4 O9 2.174185 1_545
Li4 O11 2.186595 1_545
Li4 O4 2.203075 1_655
Li5 O12 2.028734 1_555
Li5 O10 2.068218 1_455
Li5 O0 2.105800 1_555
Li5 O5 2.156615 1_455
Li5 O12 2.170772 1_455
Li5 O5 2.232893 1_555
Li6 O6 2.118351 1_455
Li6 O1 2.145045 1_556
Li6 O13 2.156351 1_556
Li6 O6 2.198498 1_555
Li6 O11 2.204450 1_545
Li6 O13 2.224539 1_456
Li7 O7 2.007955 1_555
Li7 O6 2.007955 1_454
Li7 O12 2.054312 1_454
Li7 O1 2.054312 1_555
Li7 O1 2.264261 1_455
Li7 O12 2.264261 1_554
Mn0 O5 1.939059 1_555
Mn0 O0 1.959711 1_655
Mn0 O13 1.963066 1_566
Mn0 O11 1.964184 1_555
Mn0 O11 2.248357 1_655
Mn0 O0 2.293259 1_555
Mn1 O8 1.939059 1_555
Mn1 O13 1.959711 1_455
Mn1 O0 1.963066 1_544
Mn1 O2 1.964184 1_555
Mn1 O2 2.248357 1_455
Mn1 O13 2.293259 1_555
Co0 O1 1.740635 1_555
Co0 O7 1.862161 1_555
Co0 O9 1.916871 1_555
Co0 O3 1.986705 1_655
Co0 O7 2.152629 1_655
Co0 O3 2.248867 1_555
Co1 O10 1.868650 1_555
Co1 O2 1.902664 1_555
Co1 O4 1.905519 1_655
Co1 O8 1.917790 1_555
Co1 O4 2.228479 1_555
Co1 O8 2.252019 1_655
Co2 O3 1.868650 1_555
Co2 O11 1.902664 1_555
Co2 O9 1.905519 1_455
Co2 O5 1.917790 1_555
Co2 O9 2.228479 1_555
Co2 O5 2.252019 1_455
Co3 O12 1.740635 1_555
Co3 O6 1.862161 1_555
Co3 O4 1.916871 1_555
Co3 O10 1.986705 1_455
Co3 O6 2.152629 1_455
Co3 O10 2.248867 1_555
