# generated using pymatgen
data_Pr(CoP3)4
_symmetry_space_group_name_H-M   'P 1'
_cell_length_a   6.77661241
_cell_length_b   6.77661241
_cell_length_c   6.77661241
_cell_angle_alpha   109.47122063
_cell_angle_beta   109.47122063
_cell_angle_gamma   109.47122063
_symmetry_Int_Tables_number   1
_chemical_formula_structural   Pr(CoP3)4
_chemical_formula_sum   'Pr1 Co4 P12'
_cell_volume   239.56096280
_cell_formula_units_Z   1
loop_
 _symmetry_equiv_pos_site_id
 _symmetry_equiv_pos_as_xyz
  1  'x, y, z'
loop_
 _atom_site_type_symbol
 _atom_site_label
 _atom_site_symmetry_multiplicity
 _atom_site_fract_x
 _atom_site_fract_y
 _atom_site_fract_z
 _atom_site_occupancy
  Pr  Pr0  1  0.00000000  0.00000000  0.00000000  1
  Co  Co0  1  0.00000000  0.00000000  0.50000000  1
  Co  Co1  1  0.50000000  0.00000000  0.00000000  1
  Co  Co2  1  0.00000000  0.50000000  0.00000000  1
  Co  Co3  1  0.50000000  0.50000000  0.50000000  1
  P  P0  1  0.35339900  0.20609900  0.85270000  1
  P  P1  1  0.64660100  0.79390100  0.14730000  1
  P  P2  1  0.64660100  0.49930100  0.85270000  1
  P  P3  1  0.35339900  0.50069900  0.14730000  1
  P  P4  1  0.20609900  0.85270000  0.35339900  1
  P  P5  1  0.79390100  0.14730000  0.64660100  1
  P  P6  1  0.49930100  0.85270000  0.64660100  1
  P  P7  1  0.50069900  0.14730000  0.35339900  1
  P  P8  1  0.85270000  0.35339900  0.20609900  1
  P  P9  1  0.14730000  0.64660100  0.79390100  1
  P  P10  1  0.85270000  0.64660100  0.49930100  1
  P  P11  1  0.14730000  0.35339900  0.50069900  1
loop_
_geom_bond_atom_site_label_1
_geom_bond_atom_site_label_2
_geom_bond_distance
_geom_bond_site_symmetry_2
Co0 P11 2.264357 1_555
Co0 P0 2.264357 1_555
Co0 P1 2.264357 1_445
Co0 P5 2.264357 1_455
Co0 P10 2.264357 1_445
Co0 P4 2.264357 1_545
Co1 P7 2.264357 1_555
Co1 P8 2.264357 1_555
Co1 P1 2.264357 1_545
Co1 P9 2.264357 1_544
Co1 P6 2.264357 1_544
Co1 P0 2.264357 1_554
Co2 P3 2.264357 1_555
Co2 P4 2.264357 1_555
Co2 P5 2.264357 1_454
Co2 P9 2.264357 1_554
Co2 P2 2.264357 1_454
Co2 P8 2.264357 1_455
Co3 P2 2.264357 1_555
Co3 P6 2.264357 1_555
Co3 P10 2.264357 1_555
Co3 P3 2.264357 1_555
Co3 P7 2.264357 1_555
Co3 P11 2.264357 1_555
P0 P2 2.294293 1_555
P0 P3 2.305233 1_556
P0 Pr0 2.995928 1_556
P1 P3 2.294293 1_555
P1 P2 2.305233 1_554
P1 Pr0 2.995928 1_665
P2 Pr0 2.995928 1_666
P3 Pr0 2.995928 1_555
P4 P6 2.294293 1_555
P4 P7 2.305233 1_565
P4 Pr0 2.995928 1_565
P5 P7 2.294293 1_555
P5 P6 2.305233 1_545
P5 Pr0 2.995928 1_656
P6 Pr0 2.995928 1_666
P7 Pr0 2.995928 1_555
P8 Pr0 2.995928 1_655
P9 Pr0 2.995928 1_566
P10 P8 2.294293 1_555
P10 P9 2.305233 1_655
P10 Pr0 2.995928 1_666
P11 P9 2.294293 1_555
P11 P8 2.305233 1_455
P11 Pr0 2.995928 1_555
