# generated using pymatgen
data_Pr2Cl3O16
_symmetry_space_group_name_H-M   'P 1'
_cell_length_a   8.87265545
_cell_length_b   8.87265545
_cell_length_c   10.58366031
_cell_angle_alpha   72.34058240
_cell_angle_beta   72.34058240
_cell_angle_gamma   63.31117528
_symmetry_Int_Tables_number   1
_chemical_formula_structural   Pr2Cl3O16
_chemical_formula_sum   'Pr4 Cl6 O32'
_cell_volume   695.54140266
_cell_formula_units_Z   2
loop_
 _symmetry_equiv_pos_site_id
 _symmetry_equiv_pos_as_xyz
  1  'x, y, z'
loop_
 _atom_site_type_symbol
 _atom_site_label
 _atom_site_symmetry_multiplicity
 _atom_site_fract_x
 _atom_site_fract_y
 _atom_site_fract_z
 _atom_site_occupancy
  Pr  Pr0  1  0.32394900  0.97449900  0.95713800  1
  Pr  Pr1  1  0.67605100  0.02550100  0.04286200  1
  Pr  Pr2  1  0.02550100  0.67605100  0.54286200  1
  Pr  Pr3  1  0.97449900  0.32394900  0.45713800  1
  Cl  Cl0  1  0.65345900  0.08741100  0.68474800  1
  Cl  Cl1  1  0.34654100  0.91258900  0.31525200  1
  Cl  Cl2  1  0.91258900  0.34654100  0.81525200  1
  Cl  Cl3  1  0.08741100  0.65345900  0.18474800  1
  Cl  Cl4  1  0.12954600  0.87045400  0.75000000  1
  Cl  Cl5  1  0.87045400  0.12954600  0.25000000  1
  O  O0  1  0.48421000  0.08083400  0.71578300  1
  O  O1  1  0.51579000  0.91916600  0.28421700  1
  O  O2  1  0.91916600  0.51579000  0.78421700  1
  O  O3  1  0.08083400  0.48421000  0.21578300  1
  O  O4  1  0.67326200  0.13651500  0.79695400  1
  O  O5  1  0.32673800  0.86348500  0.20304600  1
  O  O6  1  0.86348500  0.32673800  0.70304600  1
  O  O7  1  0.13651500  0.67326200  0.29695400  1
  O  O8  1  0.16770900  0.38297300  0.52363100  1
  O  O9  1  0.83229100  0.61702700  0.47636900  1
  O  O10  1  0.61702700  0.83229100  0.97636900  1
  O  O11  1  0.38297300  0.16770900  0.02363100  1
  O  O12  1  0.78702400  0.32694100  0.93607800  1
  O  O13  1  0.21297600  0.67305900  0.06392200  1
  O  O14  1  0.67305900  0.21297600  0.56392200  1
  O  O15  1  0.32694100  0.78702400  0.43607800  1
  O  O16  1  0.56507000  0.72482500  0.94310100  1
  O  O17  1  0.43493000  0.27517500  0.05689900  1
  O  O18  1  0.27517500  0.43493000  0.55689900  1
  O  O19  1  0.72482500  0.56507000  0.44310100  1
  O  O20  1  0.78482200  0.91571700  0.66879900  1
  O  O21  1  0.21517800  0.08428300  0.33120100  1
  O  O22  1  0.08428300  0.21517800  0.83120100  1
  O  O23  1  0.91571700  0.78482200  0.16879900  1
  O  O24  1  0.29090800  0.84931800  0.77653600  1
  O  O25  1  0.70909200  0.15068200  0.22346400  1
  O  O26  1  0.15068200  0.70909200  0.72346400  1
  O  O27  1  0.84931800  0.29090800  0.27653600  1
  O  O28  1  0.08723700  0.00517200  0.63092200  1
  O  O29  1  0.91276300  0.99482800  0.36907800  1
  O  O30  1  0.99482800  0.91276300  0.86907800  1
  O  O31  1  0.00517200  0.08723700  0.13092200  1
loop_
_geom_bond_atom_site_label_1
_geom_bond_atom_site_label_2
_geom_bond_distance
_geom_bond_site_symmetry_2
Cl0 O14 1.442729 1_555
Cl0 O0 1.460886 1_555
Cl0 O4 1.462957 1_555
Cl0 O20 1.466065 1_545
Cl1 O15 1.442729 1_555
Cl1 O1 1.460886 1_555
Cl1 O5 1.462957 1_555
Cl1 O21 1.466065 1_565
Cl2 O12 1.442729 1_555
Cl2 O2 1.460886 1_555
Cl2 O6 1.462957 1_555
Cl2 O22 1.466065 1_655
Cl3 O13 1.442729 1_555
Cl3 O3 1.460886 1_555
Cl3 O7 1.462957 1_555
Cl3 O23 1.466065 1_455
Cl4 O30 1.458760 1_455
Cl4 O28 1.458760 1_565
Cl4 O24 1.461046 1_555
Cl4 O26 1.461046 1_555
Cl5 O29 1.458760 1_545
Cl5 O31 1.458760 1_655
Cl5 O27 1.461046 1_555
Cl5 O25 1.461046 1_555
O0 Pr0 2.641267 1_545
O1 Pr1 2.641267 1_565
O2 Pr2 2.641267 1_655
O3 Pr3 2.641267 1_455
O4 Pr1 2.491228 1_556
O5 Pr0 2.491228 1_554
O6 Pr3 2.491228 1_555
O7 Pr2 2.491228 1_555
O8 Pr3 2.338867 1_455
O8 Pr2 2.369263 1_555
O9 Pr2 2.338867 1_655
O9 Pr3 2.369263 1_555
O10 O16 1.393806 1_555
O10 Pr1 2.338867 1_566
O10 Pr0 2.369263 1_555
O11 O17 1.393806 1_555
O11 Pr0 2.338867 1_544
O11 Pr1 2.369263 1_555
O12 Pr1 3.042471 1_556
O13 Pr0 3.042471 1_554
O14 Pr3 3.042471 1_555
O15 Pr2 3.042471 1_555
O16 Pr0 2.292602 1_555
O17 Pr1 2.292602 1_555
O18 O8 1.393806 1_555
O18 Pr2 2.292602 1_555
O19 O9 1.393806 1_555
O19 Pr3 2.292602 1_555
O20 Pr2 2.602352 1_655
O21 Pr3 2.602352 1_455
O22 Pr0 2.602352 1_545
O23 Pr1 2.602352 1_565
O24 Pr0 2.625580 1_555
O25 Pr1 2.625580 1_555
O26 Pr2 2.625580 1_555
O27 Pr3 2.625580 1_555
O28 Pr3 2.793181 1_455
O29 Pr2 2.793181 1_655
O30 Pr1 2.793181 1_566
O31 Pr0 2.793181 1_544
