# generated using pymatgen
data_U3Sb4
_symmetry_space_group_name_H-M   'P 1'
_cell_length_a   8.03809009
_cell_length_b   8.03857413
_cell_length_c   7.89177585
_cell_angle_alpha   109.09842327
_cell_angle_beta   109.10451659
_cell_angle_gamma   109.84152420
_symmetry_Int_Tables_number   1
_chemical_formula_structural   U3Sb4
_chemical_formula_sum   'U6 Sb8'
_cell_volume   394.30266814
_cell_formula_units_Z   2
loop_
 _symmetry_equiv_pos_site_id
 _symmetry_equiv_pos_as_xyz
  1  'x, y, z'
loop_
 _atom_site_type_symbol
 _atom_site_label
 _atom_site_symmetry_multiplicity
 _atom_site_fract_x
 _atom_site_fract_y
 _atom_site_fract_z
 _atom_site_occupancy
  U  U0  1  0.74798808  0.87315872  0.12384719  1
  U  U1  1  0.62687167  0.37486870  0.25074444  1
  U  U2  1  0.87489596  0.12686939  0.75073712  1
  U  U3  1  0.12510399  0.75198208  0.87584684  1
  U  U4  1  0.37314127  0.24802480  0.62387902  1
  U  U5  1  0.25197600  0.62513973  0.37582843  1
  Sb  Sb0  1  0.65974615  0.65762626  0.65750359  1
  Sb  Sb1  1  0.34024172  0.49785023  0.99775210  1
  Sb  Sb2  1  0.49998951  -0.00001304  0.34437848  1
  Sb  Sb3  1  0.00215412  0.34239569  0.49992298  1
  Sb  Sb4  1  0.50000978  -0.00002350  0.84444226  1
  Sb  Sb5  1  0.99786485  0.84027573  0.49780028  1
  Sb  Sb6  1  0.15758365  0.15970770  0.15744356  1
  Sb  Sb7  1  0.84243125  0.50213450  -0.00012729  1
loop_
_geom_bond_atom_site_label_1
_geom_bond_atom_site_label_2
_geom_bond_distance
_geom_bond_site_symmetry_2
Sb0 U1 3.130983 1_555
Sb0 U5 3.165844 1_555
Sb0 U4 3.177710 1_555
Sb0 U0 3.214626 1_556
Sb0 U3 3.245933 1_655
Sb0 U2 3.268501 1_565
Sb1 U4 3.130871 1_555
Sb1 U0 3.165805 1_556
Sb1 U1 3.177815 1_556
Sb1 U5 3.214571 1_556
Sb1 U2 3.245794 1_455
Sb1 U3 3.268712 1_555
Sb2 U5 3.138617 1_545
Sb2 U2 3.138940 1_555
Sb2 U4 3.139231 1_555
Sb2 U3 3.245212 1_544
Sb2 U1 3.245242 1_555
Sb2 U0 3.245249 1_545
Sb3 U5 3.130969 1_555
Sb3 U1 3.165786 1_455
Sb3 U3 3.177819 1_555
Sb3 U2 3.214385 1_455
Sb3 U4 3.246027 1_555
Sb3 U0 3.268668 1_445
Sb4 U0 3.138115 1_546
Sb4 U3 3.138621 1_545
Sb4 U1 3.138987 1_556
Sb4 U2 3.245524 1_555
Sb4 U5 3.245659 1_545
Sb4 U4 3.245803 1_555
Sb5 U0 3.131170 1_555
Sb5 U4 3.165771 1_665
Sb5 U2 3.177588 1_565
Sb5 U3 3.214326 1_655
Sb5 U1 3.246251 1_555
Sb5 U5 3.268793 1_655
Sb6 U2 3.130344 1_454
Sb6 U3 3.165760 1_544
Sb6 U0 3.177516 1_445
Sb6 U4 3.214949 1_555
Sb6 U5 3.246774 1_555
Sb6 U1 3.268414 1_555
Sb7 U3 3.130294 1_654
Sb7 U2 3.165859 1_554
Sb7 U5 3.177219 1_655
Sb7 U1 3.214981 1_555
Sb7 U0 3.246926 1_555
Sb7 U4 3.268449 1_554
