# generated using pymatgen
data_Sm2In3Ni
_symmetry_space_group_name_H-M   'P 1'
_cell_length_a   7.53133400
_cell_length_b   9.54585491
_cell_length_c   16.48476246
_cell_angle_alpha   90.02128249
_cell_angle_beta   90.00000000
_cell_angle_gamma   90.00000000
_symmetry_Int_Tables_number   1
_chemical_formula_structural   Sm2In3Ni
_chemical_formula_sum   'Sm16 In24 Ni8'
_cell_volume   1185.13930186
_cell_formula_units_Z   8
loop_
 _symmetry_equiv_pos_site_id
 _symmetry_equiv_pos_as_xyz
  1  'x, y, z'
loop_
 _atom_site_type_symbol
 _atom_site_label
 _atom_site_symmetry_multiplicity
 _atom_site_fract_x
 _atom_site_fract_y
 _atom_site_fract_z
 _atom_site_occupancy
  Sm  Sm0_0  1  0.00000000  0.00003000  0.01445050  1
  Sm  Sm0_1  1  0.00000000  0.00003000  0.51445050  1
  Sm  Sm0_2  1  0.00000000  0.50003000  0.01445050  1
  Sm  Sm0_3  1  0.00000000  0.50003000  0.51445050  1
  Sm  Sm0_4  1  0.50000000  0.00003000  0.01445050  1
  Sm  Sm0_5  1  0.50000000  0.00003000  0.51445050  1
  Sm  Sm0_6  1  0.50000000  0.50003000  0.01445050  1
  Sm  Sm0_7  1  0.50000000  0.50003000  0.51445050  1
  Sm  Sm1_0  1  0.00000000  0.24988450  0.24269950  1
  Sm  Sm1_1  1  0.00000000  0.24988450  0.74269950  1
  Sm  Sm1_2  1  0.00000000  0.74988450  0.24269950  1
  Sm  Sm1_3  1  0.00000000  0.74988450  0.74269950  1
  Sm  Sm1_4  1  0.50000000  0.24988450  0.24269950  1
  Sm  Sm1_5  1  0.50000000  0.24988450  0.74269950  1
  Sm  Sm1_6  1  0.50000000  0.74988450  0.24269950  1
  Sm  Sm1_7  1  0.50000000  0.74988450  0.74269950  1
  In  In0_0  1  0.25000000  0.25002350  0.41752400  1
  In  In0_1  1  0.25000000  0.25002350  0.91752400  1
  In  In0_2  1  0.25000000  0.75002350  0.41752400  1
  In  In0_3  1  0.25000000  0.75002350  0.91752400  1
  In  In0_4  1  0.75000000  0.25002350  0.41752400  1
  In  In0_5  1  0.75000000  0.25002350  0.91752400  1
  In  In0_6  1  0.75000000  0.75002350  0.41752400  1
  In  In0_7  1  0.75000000  0.75002350  0.91752400  1
  In  In1_0  1  0.25000000  0.24997600  0.09135150  1
  In  In1_1  1  0.25000000  0.24997600  0.59135150  1
  In  In1_2  1  0.25000000  0.74997600  0.09135150  1
  In  In1_3  1  0.25000000  0.74997600  0.59135150  1
  In  In1_4  1  0.75000000  0.24997600  0.09135150  1
  In  In1_5  1  0.75000000  0.24997600  0.59135150  1
  In  In1_6  1  0.75000000  0.74997600  0.09135150  1
  In  In1_7  1  0.75000000  0.74997600  0.59135150  1
  In  In2_0  1  0.25000000  0.49993200  0.32190300  1
  In  In2_1  1  0.25000000  0.49993200  0.82190300  1
  In  In2_2  1  0.25000000  0.99993200  0.32190300  1
  In  In2_3  1  0.25000000  0.99993200  0.82190300  1
  In  In2_4  1  0.75000000  0.49993200  0.32190300  1
  In  In2_5  1  0.75000000  0.49993200  0.82190300  1
  In  In2_6  1  0.75000000  0.99993200  0.32190300  1
  In  In2_7  1  0.75000000  0.99993200  0.82190300  1
  Ni  Ni0_0  1  0.25000000  0.00005450  0.16207200  1
  Ni  Ni0_1  1  0.25000000  0.00005450  0.66207200  1
  Ni  Ni0_2  1  0.25000000  0.50005450  0.16207200  1
  Ni  Ni0_3  1  0.25000000  0.50005450  0.66207200  1
  Ni  Ni0_4  1  0.75000000  0.00005450  0.16207200  1
  Ni  Ni0_5  1  0.75000000  0.00005450  0.66207200  1
  Ni  Ni0_6  1  0.75000000  0.50005450  0.16207200  1
  Ni  Ni0_7  1  0.75000000  0.50005450  0.66207200  1
loop_
_geom_bond_atom_site_label_1
_geom_bond_atom_site_label_2
_geom_bond_distance
_geom_bond_site_symmetry_2
Sm0_0 Sm0_4 3.765667 1_555
Sm0_0 Sm0_4 3.765667 1_455
Sm0_1 Sm0_5 3.765667 1_455
Sm0_1 Sm0_5 3.765667 1_555
Sm0_2 Sm0_6 3.765667 1_455
Sm0_2 Sm0_6 3.765667 1_555
Sm0_3 Sm0_7 3.765667 1_555
Sm0_3 Sm0_7 3.765667 1_455
Sm1_0 Sm1_4 3.765667 1_455
Sm1_0 Sm1_4 3.765667 1_555
Sm1_1 Sm1_5 3.765667 1_555
Sm1_1 Sm1_5 3.765667 1_455
Sm1_2 Sm1_6 3.765667 1_455
Sm1_2 Sm1_6 3.765667 1_555
Sm1_3 Sm1_7 3.765667 1_455
Sm1_3 Sm1_7 3.765667 1_555
In0_0 In2_0 2.859812 1_555
In0_0 In2_2 2.860292 1_545
In0_0 In1_1 2.865505 1_555
In0_0 Sm0_7 3.433764 1_555
In0_0 Sm0_3 3.433764 1_555
In0_0 Sm0_1 3.434502 1_555
In0_0 Sm0_5 3.434502 1_555
In0_0 Sm1_0 3.442476 1_555
In0_0 Sm1_4 3.442476 1_555
In0_1 In2_1 2.859812 1_555
In0_1 In2_3 2.860292 1_545
In0_1 In1_0 2.865505 1_556
In0_1 Sm0_2 3.433764 1_556
In0_1 Sm0_6 3.433764 1_556
In0_1 Sm0_0 3.434502 1_556
In0_1 Sm0_4 3.434502 1_556
In0_1 Sm1_1 3.442476 1_555
In0_1 Sm1_5 3.442476 1_555
In0_2 In2_2 2.859812 1_555
In0_2 In2_0 2.860292 1_555
In0_2 In1_3 2.865505 1_555
In0_2 Sm0_5 3.433764 1_565
In0_2 Sm0_1 3.433764 1_565
In0_2 Sm0_7 3.434502 1_555
In0_2 Sm0_3 3.434502 1_555
In0_2 Sm1_2 3.442476 1_555
In0_2 Sm1_6 3.442476 1_555
In0_3 In2_3 2.859812 1_555
In0_3 In2_1 2.860292 1_555
In0_3 In1_2 2.865505 1_556
In0_3 Sm0_0 3.433764 1_566
In0_3 Sm0_4 3.433764 1_566
In0_3 Sm0_6 3.434502 1_556
In0_3 Sm0_2 3.434502 1_556
In0_3 Sm1_3 3.442476 1_555
In0_3 Sm1_7 3.442476 1_555
In0_4 In2_4 2.859812 1_555
In0_4 In2_6 2.860292 1_545
In0_4 In1_5 2.865505 1_555
In0_4 Sm0_3 3.433764 1_655
In0_4 Sm0_7 3.433764 1_555
In0_4 Sm0_5 3.434502 1_555
In0_4 Sm0_1 3.434502 1_655
In0_4 Sm1_0 3.442476 1_655
In0_4 Sm1_4 3.442476 1_555
In0_5 In2_5 2.859812 1_555
In0_5 In2_7 2.860292 1_545
In0_5 In1_4 2.865505 1_556
In0_5 Sm0_2 3.433764 1_656
In0_5 Sm0_6 3.433764 1_556
In0_5 Sm0_0 3.434502 1_656
In0_5 Sm0_4 3.434502 1_556
In0_5 Sm1_1 3.442476 1_655
In0_5 Sm1_5 3.442476 1_555
In0_6 In2_6 2.859812 1_555
In0_6 In2_4 2.860292 1_555
In0_6 In1_7 2.865505 1_555
In0_6 Sm0_1 3.433764 1_665
In0_6 Sm0_5 3.433764 1_565
In0_6 Sm0_7 3.434502 1_555
In0_6 Sm0_3 3.434502 1_655
In0_6 Sm1_2 3.442476 1_655
In0_6 Sm1_6 3.442476 1_555
In0_7 In2_7 2.859812 1_555
In0_7 In2_5 2.860292 1_555
In0_7 In1_6 2.865505 1_556
In0_7 Sm0_4 3.433764 1_566
In0_7 Sm0_0 3.433764 1_666
In0_7 Sm0_6 3.434502 1_556
In0_7 Sm0_2 3.434502 1_656
In0_7 Sm1_7 3.442476 1_555
In0_7 Sm1_3 3.442476 1_655
In1_0 Ni0_0 2.655713 1_555
In1_0 Ni0_2 2.656282 1_555
In1_0 Sm1_0 3.125663 1_555
In1_0 Sm1_4 3.125663 1_555
In1_0 Sm0_0 3.292812 1_555
In1_0 Sm0_4 3.292812 1_555
In1_0 Sm0_2 3.294242 1_555
In1_0 Sm0_6 3.294242 1_555
In1_1 Ni0_1 2.655713 1_555
In1_1 Ni0_3 2.656282 1_555
In1_1 Sm1_1 3.125663 1_555
In1_1 Sm1_5 3.125663 1_555
In1_1 Sm0_1 3.292812 1_555
In1_1 Sm0_5 3.292812 1_555
In1_1 Sm0_3 3.294242 1_555
In1_1 Sm0_7 3.294242 1_555
In1_2 Ni0_2 2.655713 1_555
In1_2 Ni0_0 2.656282 1_565
In1_2 Sm1_6 3.125663 1_555
In1_2 Sm1_2 3.125663 1_555
In1_2 Sm0_6 3.292812 1_555
In1_2 Sm0_2 3.292812 1_555
In1_2 Sm0_4 3.294242 1_565
In1_2 Sm0_0 3.294242 1_565
In1_3 Ni0_3 2.655713 1_555
In1_3 Ni0_1 2.656282 1_565
In1_3 Sm1_3 3.125663 1_555
In1_3 Sm1_7 3.125663 1_555
In1_3 Sm0_3 3.292812 1_555
In1_3 Sm0_7 3.292812 1_555
In1_3 Sm0_1 3.294242 1_565
In1_3 Sm0_5 3.294242 1_565
In1_4 Ni0_4 2.655713 1_555
In1_4 Ni0_6 2.656282 1_555
In1_4 Sm1_4 3.125663 1_555
In1_4 Sm1_0 3.125663 1_655
In1_4 Sm0_4 3.292812 1_555
In1_4 Sm0_0 3.292812 1_655
In1_4 Sm0_2 3.294242 1_655
In1_4 Sm0_6 3.294242 1_555
In1_5 Ni0_5 2.655713 1_555
In1_5 Ni0_7 2.656282 1_555
In1_5 Sm1_1 3.125663 1_655
In1_5 Sm1_5 3.125663 1_555
In1_5 Sm0_1 3.292812 1_655
In1_5 Sm0_5 3.292812 1_555
In1_5 Sm0_3 3.294242 1_655
In1_5 Sm0_7 3.294242 1_555
In1_6 Ni0_6 2.655713 1_555
In1_6 Ni0_4 2.656282 1_565
In1_6 Sm1_2 3.125663 1_655
In1_6 Sm1_6 3.125663 1_555
In1_6 Sm0_6 3.292812 1_555
In1_6 Sm0_2 3.292812 1_655
In1_6 Sm0_0 3.294242 1_665
In1_6 Sm0_4 3.294242 1_565
In1_7 Ni0_7 2.655713 1_555
In1_7 Ni0_5 2.656282 1_565
In1_7 Sm1_7 3.125663 1_555
In1_7 Sm1_3 3.125663 1_655
In1_7 Sm0_7 3.292812 1_555
In1_7 Sm0_3 3.292812 1_655
In1_7 Sm0_1 3.294242 1_665
In1_7 Sm0_5 3.294242 1_565
In2_0 Ni0_2 2.634777 1_555
In2_0 Sm1_0 3.308299 1_555
In2_0 Sm1_4 3.308299 1_555
In2_0 Sm1_2 3.308345 1_555
In2_0 Sm1_6 3.308345 1_555
In2_0 Sm0_3 3.690524 1_555
In2_0 Sm0_7 3.690524 1_555
In2_1 Ni0_3 2.634777 1_555
In2_1 Sm1_1 3.308299 1_555
In2_1 Sm1_5 3.308299 1_555
In2_1 Sm1_3 3.308345 1_555
In2_1 Sm1_7 3.308345 1_555
In2_1 Sm0_2 3.690524 1_556
In2_1 Sm0_6 3.690524 1_556
In2_2 Ni0_0 2.634777 1_565
In2_2 Sm1_2 3.308299 1_555
In2_2 Sm1_6 3.308299 1_555
In2_2 Sm1_0 3.308345 1_565
In2_2 Sm1_4 3.308345 1_565
In2_2 Sm0_1 3.690524 1_565
In2_2 Sm0_5 3.690524 1_565
In2_3 Ni0_1 2.634777 1_565
In2_3 Sm1_3 3.308299 1_555
In2_3 Sm1_7 3.308299 1_555
In2_3 Sm1_5 3.308345 1_565
In2_3 Sm1_1 3.308345 1_565
In2_3 Sm0_0 3.690524 1_566
In2_3 Sm0_4 3.690524 1_566
In2_4 Ni0_6 2.634777 1_555
In2_4 Sm1_4 3.308299 1_555
In2_4 Sm1_0 3.308299 1_655
In2_4 Sm1_6 3.308345 1_555
In2_4 Sm1_2 3.308345 1_655
In2_4 Sm0_3 3.690524 1_655
In2_4 Sm0_7 3.690524 1_555
In2_5 Ni0_7 2.634777 1_555
In2_5 Sm1_1 3.308299 1_655
In2_5 Sm1_5 3.308299 1_555
In2_5 Sm1_7 3.308345 1_555
In2_5 Sm1_3 3.308345 1_655
In2_5 Sm0_2 3.690524 1_656
In2_5 Sm0_6 3.690524 1_556
In2_6 Ni0_4 2.634777 1_565
In2_6 Sm1_6 3.308299 1_555
In2_6 Sm1_2 3.308299 1_655
In2_6 Sm1_0 3.308345 1_665
In2_6 Sm1_4 3.308345 1_565
In2_6 Sm0_1 3.690524 1_665
In2_6 Sm0_5 3.690524 1_565
In2_7 Ni0_5 2.634777 1_565
In2_7 Sm1_7 3.308299 1_555
In2_7 Sm1_3 3.308299 1_655
In2_7 Sm1_1 3.308345 1_665
In2_7 Sm1_5 3.308345 1_565
In2_7 Sm0_4 3.690524 1_566
In2_7 Sm0_0 3.690524 1_666
Ni0_0 Sm0_0 3.076851 1_555
Ni0_0 Sm0_4 3.076851 1_555
Ni0_0 Sm1_0 3.316134 1_555
Ni0_0 Sm1_4 3.316134 1_555
Ni0_0 Sm1_6 3.319179 1_545
Ni0_0 Sm1_2 3.319179 1_545
Ni0_1 Sm0_5 3.076851 1_555
Ni0_1 Sm0_1 3.076851 1_555
Ni0_1 Sm1_1 3.316134 1_555
Ni0_1 Sm1_5 3.316134 1_555
Ni0_1 Sm1_3 3.319179 1_545
Ni0_1 Sm1_7 3.319179 1_545
Ni0_2 Sm0_6 3.076851 1_555
Ni0_2 Sm0_2 3.076851 1_555
Ni0_2 Sm1_2 3.316134 1_555
Ni0_2 Sm1_6 3.316134 1_555
Ni0_2 Sm1_0 3.319179 1_555
Ni0_2 Sm1_4 3.319179 1_555
Ni0_3 Sm0_3 3.076851 1_555
Ni0_3 Sm0_7 3.076851 1_555
Ni0_3 Sm1_7 3.316134 1_555
Ni0_3 Sm1_3 3.316134 1_555
Ni0_3 Sm1_5 3.319179 1_555
Ni0_3 Sm1_1 3.319179 1_555
Ni0_4 Sm0_4 3.076851 1_555
Ni0_4 Sm0_0 3.076851 1_655
Ni0_4 Sm1_4 3.316134 1_555
Ni0_4 Sm1_0 3.316134 1_655
Ni0_4 Sm1_6 3.319179 1_545
Ni0_4 Sm1_2 3.319179 1_645
Ni0_5 Sm0_1 3.076851 1_655
Ni0_5 Sm0_5 3.076851 1_555
Ni0_5 Sm1_1 3.316134 1_655
Ni0_5 Sm1_5 3.316134 1_555
Ni0_5 Sm1_7 3.319179 1_545
Ni0_5 Sm1_3 3.319179 1_645
Ni0_6 Sm0_2 3.076851 1_655
Ni0_6 Sm0_6 3.076851 1_555
Ni0_6 Sm1_2 3.316134 1_655
Ni0_6 Sm1_6 3.316134 1_555
Ni0_6 Sm1_0 3.319179 1_655
Ni0_6 Sm1_4 3.319179 1_555
Ni0_7 Sm0_3 3.076851 1_655
Ni0_7 Sm0_7 3.076851 1_555
Ni0_7 Sm1_7 3.316134 1_555
Ni0_7 Sm1_3 3.316134 1_655
Ni0_7 Sm1_5 3.319179 1_555
Ni0_7 Sm1_1 3.319179 1_655
