# generated using pymatgen
data_Er4CdPt
_symmetry_space_group_name_H-M   'P 1'
_cell_length_a   9.53410734
_cell_length_b   9.53438773
_cell_length_c   9.53434503
_cell_angle_alpha   59.99971419
_cell_angle_beta   59.99873452
_cell_angle_gamma   59.99877829
_symmetry_Int_Tables_number   1
_chemical_formula_structural   Er4CdPt
_chemical_formula_sum   'Er16 Cd4 Pt4'
_cell_volume   612.82942628
_cell_formula_units_Z   4
loop_
 _symmetry_equiv_pos_site_id
 _symmetry_equiv_pos_as_xyz
  1  'x, y, z'
loop_
 _atom_site_type_symbol
 _atom_site_label
 _atom_site_symmetry_multiplicity
 _atom_site_fract_x
 _atom_site_fract_y
 _atom_site_fract_z
 _atom_site_occupancy
  Er  Er0  1  0.35270462  0.35273462  0.35273043  1
  Er  Er1  1  0.35270460  0.35272100  0.94183519  1
  Er  Er2  1  0.35269588  0.94184288  0.35271997  1
  Er  Er3  1  0.94184599  0.35271544  0.35271501  1
  Er  Er4  1  0.81006090  0.18998018  0.18997652  1
  Er  Er5  1  0.18996218  0.81001810  0.81002722  1
  Er  Er6  1  0.18996969  0.81003688  0.18998322  1
  Er  Er7  1  0.81004434  0.18997673  0.80999783  1
  Er  Er8  1  0.18997684  0.18998103  0.81003817  1
  Er  Er9  1  0.81004908  0.80999264  0.18997306  1
  Er  Er10  1  0.93596557  0.56402585  0.56402138  1
  Er  Er11  1  0.56400742  0.93597883  0.93598017  1
  Er  Er12  1  0.56400613  0.93598179  0.56402652  1
  Er  Er13  1  0.93597893  0.56400703  0.93598658  1
  Er  Er14  1  0.56400739  0.56403395  0.93597529  1
  Er  Er15  1  0.93596743  0.93599074  0.56401266  1
  Cd  Cd0  1  0.58160886  0.58160100  0.58159993  1
  Cd  Cd1  1  0.58161708  0.58159824  0.25518348  1
  Cd  Cd2  1  0.58161021  0.25518363  0.58160454  1
  Cd  Cd3  1  0.25517348  0.58160648  0.58161200  1
  Pt  Pt0  1  0.14335290  0.14334273  0.14334560  1
  Pt  Pt1  1  0.14335821  0.14334330  0.56996442  1
  Pt  Pt2  1  0.14335650  0.56996608  0.14334655  1
  Pt  Pt3  1  0.56997678  0.14334186  0.14334327  1
loop_
_geom_bond_atom_site_label_1
_geom_bond_atom_site_label_2
_geom_bond_distance
_geom_bond_site_symmetry_2
Er0 Pt2 2.823963 1_555
Er0 Pt1 2.824005 1_555
Er0 Pt3 2.824286 1_555
Er1 Pt0 2.823952 1_556
Er1 Pt2 2.824128 1_556
Er1 Pt3 2.824290 1_556
Er2 Pt0 2.823863 1_565
Er2 Pt1 2.824051 1_565
Er2 Pt3 2.824293 1_565
Er3 Pt0 2.824034 1_655
Er3 Pt1 2.824166 1_655
Er3 Pt2 2.824168 1_655
Er4 Pt0 2.804398 1_655
Er4 Pt3 2.805036 1_555
Er5 Pt2 2.804741 1_556
Er5 Pt1 2.804818 1_565
Er6 Pt0 2.804675 1_565
Er6 Pt2 2.804832 1_555
Er7 Pt1 2.804552 1_655
Er7 Pt3 2.804898 1_556
Er8 Pt0 2.804650 1_556
Er8 Pt1 2.804890 1_555
Er9 Pt2 2.804495 1_655
Er9 Pt3 2.804947 1_565
Er10 Pt2 3.457422 1_655
Er10 Pt1 3.457495 1_655
Er11 Pt0 3.457200 1_566
Er11 Pt3 3.457572 1_566
Er12 Pt1 3.457120 1_565
Er12 Pt3 3.457444 1_565
Er13 Pt0 3.457368 1_656
Er13 Pt2 3.457575 1_656
Er14 Pt2 3.457158 1_556
Er14 Pt3 3.457536 1_556
Er15 Pt0 3.457385 1_665
Er15 Pt1 3.457589 1_665
Cd0 Cd1 3.112141 1_555
Cd0 Cd2 3.112161 1_555
Cd0 Cd3 3.112186 1_555
Cd0 Er10 3.219619 1_555
Cd0 Er14 3.219822 1_555
Cd0 Er12 3.219856 1_555
Cd0 Er3 3.330510 1_555
Cd0 Er1 3.330624 1_555
Cd0 Er2 3.330690 1_555
Cd0 Er9 3.450614 1_555
Cd0 Er7 3.450615 1_555
Cd0 Er5 3.450675 1_555
Cd1 Cd2 3.112174 1_555
Cd1 Cd3 3.112256 1_555
Cd1 Er13 3.219601 1_554
Cd1 Er11 3.219831 1_554
Cd1 Er14 3.219868 1_554
Cd1 Er3 3.330444 1_555
Cd1 Er0 3.330587 1_555
Cd1 Er2 3.330654 1_555
Cd1 Er4 3.450564 1_555
Cd1 Er9 3.450572 1_555
Cd1 Er6 3.450699 1_555
Cd2 Cd3 3.112205 1_555
Cd2 Er15 3.219567 1_545
Cd2 Er11 3.219809 1_545
Cd2 Er12 3.219863 1_545
Cd2 Er3 3.330500 1_555
Cd2 Er1 3.330534 1_555
Cd2 Er0 3.330593 1_555
Cd2 Er7 3.450587 1_555
Cd2 Er8 3.450593 1_555
Cd2 Er4 3.450617 1_555
Cd3 Er13 3.219675 1_455
Cd3 Er10 3.219779 1_455
Cd3 Er15 3.219785 1_455
Cd3 Er1 3.330481 1_555
Cd3 Er0 3.330487 1_555
Cd3 Er2 3.330560 1_555
Cd3 Er5 3.450601 1_555
Cd3 Er8 3.450621 1_555
Cd3 Er6 3.450662 1_555
