# generated using pymatgen
data_Ba3MgTiWO9
_symmetry_space_group_name_H-M   'P 1'
_cell_length_a   5.87090399
_cell_length_b   5.87090399
_cell_length_c   14.41616100
_cell_angle_alpha   90.00000000
_cell_angle_beta   90.00000000
_cell_angle_gamma   119.99999993
_symmetry_Int_Tables_number   1
_chemical_formula_structural   Ba3MgTiWO9
_chemical_formula_sum   'Ba6 Mg2 Ti2 W2 O18'
_cell_volume   430.31869361
_cell_formula_units_Z   2
loop_
 _symmetry_equiv_pos_site_id
 _symmetry_equiv_pos_as_xyz
  1  'x, y, z'
loop_
 _atom_site_type_symbol
 _atom_site_label
 _atom_site_symmetry_multiplicity
 _atom_site_fract_x
 _atom_site_fract_y
 _atom_site_fract_z
 _atom_site_occupancy
  Ba  Ba0  1  0.66666700  0.33333300  0.59324500  1
  Ba  Ba1  1  0.33333300  0.66666700  0.40235800  1
  Ba  Ba2  1  0.33333300  0.66666700  0.09324500  1
  Ba  Ba3  1  0.66666700  0.33333300  0.90235800  1
  Ba  Ba4  1  0.00000000  0.00000000  0.75394900  1
  Ba  Ba5  1  0.00000000  0.00000000  0.25394900  1
  Mg  Mg0  1  0.00000000  0.00000000  0.49763800  1
  Mg  Mg1  1  0.00000000  0.00000000  0.99763800  1
  Ti  Ti0  1  0.66666700  0.33333300  0.35785500  1
  Ti  Ti1  1  0.33333300  0.66666700  0.85785500  1
  W  W0  1  0.33333300  0.66666700  0.65676400  1
  W  W1  1  0.66666700  0.33333300  0.15676400  1
  O  O0  1  0.48340100  0.96680100  0.74566400  1
  O  O1  1  0.48340100  0.51659900  0.74566400  1
  O  O2  1  0.03319900  0.51659900  0.74566400  1
  O  O3  1  0.51659900  0.03319900  0.24566400  1
  O  O4  1  0.51659900  0.48340100  0.24566400  1
  O  O5  1  0.96680100  0.48340100  0.24566400  1
  O  O6  1  0.17277100  0.34554200  0.58551300  1
  O  O7  1  0.17277100  0.82722900  0.58551300  1
  O  O8  1  0.65445800  0.82722900  0.58551300  1
  O  O9  1  0.82872100  0.65744300  0.41488600  1
  O  O10  1  0.82872100  0.17127900  0.41488600  1
  O  O11  1  0.34255700  0.17127900  0.41488600  1
  O  O12  1  0.82722900  0.65445800  0.08551300  1
  O  O13  1  0.82722900  0.17277100  0.08551300  1
  O  O14  1  0.34554200  0.17277100  0.08551300  1
  O  O15  1  0.17127900  0.34255700  0.91488600  1
  O  O16  1  0.17127900  0.82872100  0.91488600  1
  O  O17  1  0.65744300  0.82872100  0.91488600  1
loop_
_geom_bond_atom_site_label_1
_geom_bond_atom_site_label_2
_geom_bond_distance
_geom_bond_site_symmetry_2
Ba0 O1 2.881152 1_555
Ba0 O2 2.881152 1_655
Ba0 O0 2.881152 1_545
Ba0 O6 2.938220 1_655
Ba0 O8 2.938220 1_545
Ba0 O7 2.938223 1_655
Ba0 O7 2.938223 1_545
Ba0 O8 2.938226 1_555
Ba0 O6 2.938226 1_555
Ba0 O10 3.053988 1_555
Ba0 O11 3.053994 1_555
Ba0 O9 3.053994 1_555
Ba1 O4 2.928424 1_555
Ba1 O3 2.928424 1_565
Ba1 O5 2.928424 1_455
Ba1 O9 2.941377 1_555
Ba1 O11 2.941377 1_555
Ba1 O11 2.941377 1_565
Ba1 O9 2.941377 1_455
Ba1 O10 2.941377 1_565
Ba1 O10 2.941377 1_455
Ba1 O7 3.104417 1_555
Ba1 O8 3.104419 1_555
Ba1 O6 3.104419 1_555
Ba2 O4 2.881152 1_555
Ba2 O3 2.881152 1_565
Ba2 O5 2.881152 1_455
Ba2 O14 2.938220 1_565
Ba2 O12 2.938220 1_455
Ba2 O13 2.938223 1_565
Ba2 O13 2.938223 1_455
Ba2 O12 2.938226 1_555
Ba2 O14 2.938226 1_555
Ba2 O16 3.053988 1_554
Ba2 O17 3.053994 1_554
Ba2 O15 3.053994 1_554
Ba3 O1 2.928424 1_555
Ba3 O2 2.928424 1_655
Ba3 O0 2.928424 1_545
Ba3 O17 2.941377 1_555
Ba3 O15 2.941377 1_555
Ba3 O15 2.941377 1_655
Ba3 O17 2.941377 1_545
Ba3 O16 2.941377 1_655
Ba3 O16 2.941377 1_545
Ba3 O13 3.104417 1_556
Ba3 O12 3.104419 1_556
Ba3 O14 3.104419 1_556
Ba4 O15 2.901083 1_555
Ba4 O17 2.901083 1_445
Ba4 O16 2.901087 1_545
Ba4 O2 2.942723 1_555
Ba4 O0 2.942723 1_445
Ba4 O1 2.942726 1_555
Ba4 O1 2.942726 1_445
Ba4 O0 2.942729 1_545
Ba4 O2 2.942729 1_545
Ba4 O7 2.997116 1_545
Ba4 O6 2.997116 1_555
Ba4 O8 2.997116 1_445
Ba5 O11 2.901083 1_555
Ba5 O9 2.901083 1_445
Ba5 O10 2.901087 1_455
Ba5 O3 2.942723 1_555
Ba5 O5 2.942723 1_445
Ba5 O4 2.942726 1_555
Ba5 O4 2.942726 1_445
Ba5 O5 2.942729 1_455
Ba5 O3 2.942729 1_455
Ba5 O13 2.997116 1_455
Ba5 O14 2.997116 1_555
Ba5 O12 2.997116 1_445
Mg0 O11 2.111071 1_555
Mg0 O9 2.111071 1_445
Mg0 O10 2.111075 1_455
Mg0 O7 2.165959 1_545
Mg0 O6 2.165959 1_555
Mg0 O8 2.165959 1_445
Mg1 O15 2.111071 1_555
Mg1 O17 2.111071 1_445
Mg1 O16 2.111075 1_545
Mg1 O13 2.165959 1_456
Mg1 O14 2.165959 1_556
Mg1 O12 2.165959 1_446
O0 W0 1.992768 1_555
O0 Ti1 2.223623 1_555
O1 W0 1.992776 1_555
O1 Ti1 2.223630 1_555
O2 W0 1.992768 1_555
O2 Ti1 2.223623 1_555
O3 W1 1.992768 1_555
O3 Ti0 2.223623 1_555
O4 W1 1.992776 1_555
O4 Ti0 2.223630 1_555
O5 W1 1.992768 1_555
O5 Ti0 2.223623 1_555
O6 W0 1.928943 1_555
O7 W0 1.928938 1_555
O8 W0 1.928943 1_555
O9 Ti0 1.841602 1_555
O10 Ti0 1.841593 1_555
O11 Ti0 1.841602 1_555
O12 W1 1.928943 1_555
O13 W1 1.928938 1_555
O14 W1 1.928943 1_555
O15 Ti1 1.841602 1_555
O16 Ti1 1.841593 1_555
O17 Ti1 1.841602 1_555
