# generated using pymatgen
data_KMg6Al
_symmetry_space_group_name_H-M   'P 1'
_cell_length_a   5.19110600
_cell_length_b   6.79689400
_cell_length_c   11.52512800
_cell_angle_alpha   90.00000000
_cell_angle_beta   90.00000000
_cell_angle_gamma   90.00000000
_symmetry_Int_Tables_number   1
_chemical_formula_structural   KMg6Al
_chemical_formula_sum   'K2 Mg12 Al2'
_cell_volume   406.64566929
_cell_formula_units_Z   2
loop_
 _symmetry_equiv_pos_site_id
 _symmetry_equiv_pos_as_xyz
  1  'x, y, z'
loop_
 _atom_site_type_symbol
 _atom_site_label
 _atom_site_symmetry_multiplicity
 _atom_site_fract_x
 _atom_site_fract_y
 _atom_site_fract_z
 _atom_site_occupancy
  K  K0  1  0.50000000  0.50000000  0.83567000  1
  K  K1  1  0.50000000  0.00000000  0.33567000  1
  Mg  Mg0  1  0.50000000  0.24286400  0.08247000  1
  Mg  Mg1  1  0.50000000  0.75713600  0.08247000  1
  Mg  Mg2  1  0.00000000  0.22704500  0.91649800  1
  Mg  Mg3  1  0.00000000  0.77295500  0.91649800  1
  Mg  Mg4  1  0.00000000  0.50000000  0.16944900  1
  Mg  Mg5  1  0.00000000  0.50000000  0.65463800  1
  Mg  Mg6  1  0.50000000  0.74286400  0.58247000  1
  Mg  Mg7  1  0.50000000  0.25713600  0.58247000  1
  Mg  Mg8  1  0.00000000  0.72704500  0.41649800  1
  Mg  Mg9  1  0.00000000  0.27295500  0.41649800  1
  Mg  Mg10  1  0.00000000  0.00000000  0.66944900  1
  Mg  Mg11  1  0.00000000  0.00000000  0.15463800  1
  Al  Al0  1  0.50000000  0.50000000  0.34231100  1
  Al  Al1  1  0.50000000  0.00000000  0.84231100  1
loop_
_geom_bond_atom_site_label_1
_geom_bond_atom_site_label_2
_geom_bond_distance
_geom_bond_site_symmetry_2
K0 Mg3 3.323646 1_655
K0 Mg3 3.323646 1_555
K0 Mg2 3.323646 1_555
K0 Mg2 3.323646 1_655
K0 Mg5 3.330170 1_555
K0 Mg5 3.330170 1_655
K0 Mg1 3.338438 1_556
K0 Mg0 3.338438 1_556
K0 Mg6 3.352693 1_555
K0 Mg7 3.352693 1_555
K1 Mg9 3.323646 1_555
K1 Mg9 3.323646 1_655
K1 Mg8 3.323646 1_645
K1 Mg8 3.323646 1_545
K1 Mg11 3.330170 1_655
K1 Mg11 3.330170 1_555
K1 Mg6 3.338438 1_545
K1 Mg7 3.338438 1_555
K1 Mg0 3.352693 1_555
K1 Mg1 3.352693 1_545
Mg0 Mg11 3.186468 1_655
Mg0 Mg11 3.186468 1_555
Mg0 Mg2 3.226057 1_554
Mg0 Mg2 3.226057 1_654
Mg0 Mg4 3.285778 1_655
Mg0 Mg4 3.285778 1_555
Mg0 Mg1 3.301442 1_545
Mg0 Mg1 3.495452 1_555
Mg1 Mg11 3.186468 1_665
Mg1 Mg11 3.186468 1_565
Mg1 Mg3 3.226057 1_554
Mg1 Mg3 3.226057 1_654
Mg1 Mg4 3.285778 1_555
Mg1 Mg4 3.285778 1_655
Mg2 Mg3 3.086402 1_545
Mg2 Mg4 3.455556 1_556
Mg2 Mg5 3.542609 1_555
Mg3 Mg4 3.455556 1_556
Mg3 Mg5 3.542609 1_555
Mg4 Mg8 3.238583 1_555
Mg4 Mg9 3.238583 1_555
Mg5 Mg8 3.148693 1_555
Mg5 Mg9 3.148693 1_555
Mg5 Mg6 3.186468 1_555
Mg5 Mg6 3.186468 1_455
Mg5 Mg7 3.186468 1_455
Mg5 Mg7 3.186468 1_555
Mg6 Mg8 3.226057 1_555
Mg6 Mg8 3.226057 1_655
Mg6 Mg7 3.301442 1_555
Mg6 Mg7 3.495452 1_565
Mg7 Mg9 3.226057 1_555
Mg7 Mg9 3.226057 1_655
Mg8 Mg9 3.086402 1_555
Mg10 Mg3 3.238583 1_545
Mg10 Mg2 3.238583 1_555
Mg10 Mg7 3.285778 1_555
Mg10 Mg7 3.285778 1_455
Mg10 Mg6 3.285778 1_445
Mg10 Mg6 3.285778 1_545
Mg10 Mg5 3.402731 1_545
Mg10 Mg5 3.402731 1_555
Mg10 Mg9 3.455556 1_555
Mg10 Mg8 3.455556 1_545
Mg11 Mg2 3.148693 1_554
Mg11 Mg3 3.148693 1_544
Mg11 Mg4 3.402731 1_555
Mg11 Mg4 3.402731 1_545
Mg11 Mg9 3.542609 1_555
Mg11 Mg8 3.542609 1_545
Al0 Mg8 3.138378 1_555
Al0 Mg8 3.138378 1_655
Al0 Mg9 3.138378 1_655
Al0 Mg9 3.138378 1_555
Al0 Mg6 3.222723 1_555
Al0 Mg7 3.222723 1_555
Al0 Mg4 3.272000 1_555
Al0 Mg4 3.272000 1_655
Al0 K1 3.399309 1_555
Al0 K1 3.399309 1_565
Al1 Mg2 3.138378 1_655
Al1 Mg2 3.138378 1_555
Al1 Mg3 3.138378 1_645
Al1 Mg3 3.138378 1_545
Al1 Mg0 3.222723 1_556
Al1 Mg1 3.222723 1_546
Al1 Mg10 3.272000 1_555
Al1 Mg10 3.272000 1_655
Al1 K0 3.399309 1_555
Al1 K0 3.399309 1_545
