# generated using pymatgen
data_TmScGe
_symmetry_space_group_name_H-M   'P 1'
_cell_length_a   6.11750201
_cell_length_b   8.67726062
_cell_length_c   9.09550533
_cell_angle_alpha   58.39963408
_cell_angle_beta   90.00032653
_cell_angle_gamma   90.00560102
_symmetry_Int_Tables_number   1
_chemical_formula_structural   TmScGe
_chemical_formula_sum   'Tm6 Sc6 Ge6'
_cell_volume   411.22761149
_cell_formula_units_Z   6
loop_
 _symmetry_equiv_pos_site_id
 _symmetry_equiv_pos_as_xyz
  1  'x, y, z'
loop_
 _atom_site_type_symbol
 _atom_site_label
 _atom_site_symmetry_multiplicity
 _atom_site_fract_x
 _atom_site_fract_y
 _atom_site_fract_z
 _atom_site_occupancy
  Tm  Tm0  1  0.75001200  0.26193300  0.71195400  1
  Tm  Tm1  1  0.74995400  0.73789100  0.97418800  1
  Tm  Tm2  1  0.74998800  0.99988700  0.30031300  1
  Tm  Tm3  1  0.24993800  0.74145600  0.26314200  1
  Tm  Tm4  1  0.25003000  0.25851400  0.00444300  1
  Tm  Tm5  1  0.24999900  0.00000800  0.74628800  1
  Sc  Sc0  1  0.50104100  0.31291600  0.34517300  1
  Sc  Sc1  1  0.50087400  0.68719600  0.65783200  1
  Sc  Sc2  1  0.99915000  0.68721400  0.65781200  1
  Sc  Sc3  1  0.99904100  0.31294100  0.34516900  1
  Sc  Sc4  1  0.74994000  0.62332500  0.37059700  1
  Sc  Sc5  1  0.75010400  0.37649200  0.99406000  1
  Ge  Ge0  1  0.53953500  0.00011600  0.01935400  1
  Ge  Ge1  1  0.96047800  0.00013200  0.01932500  1
  Ge  Ge2  1  0.74998000  0.99990500  0.61238200  1
  Ge  Ge3  1  0.25002200  0.40147200  0.58806300  1
  Ge  Ge4  1  0.24992600  0.59851400  0.98934600  1
  Ge  Ge5  1  0.24998700  0.00008800  0.40056000  1
loop_
_geom_bond_atom_site_label_1
_geom_bond_atom_site_label_2
_geom_bond_distance
_geom_bond_site_symmetry_2
Sc0 Sc4 3.206054 1_555
Sc0 Sc5 3.313332 1_554
Sc0 Tm2 3.320546 1_545
Sc1 Sc5 3.210272 1_555
Sc1 Sc4 3.312362 1_555
Sc1 Tm2 3.318356 1_555
Sc2 Sc5 3.209650 1_555
Sc2 Sc4 3.312635 1_555
Sc2 Tm2 3.318569 1_555
Sc3 Sc4 3.206721 1_555
Sc3 Sc5 3.313052 1_554
Sc3 Tm2 3.320769 1_545
Sc4 Tm2 2.982673 1_555
Sc4 Tm0 3.044693 1_555
Sc4 Tm1 3.198729 1_554
Sc4 Tm3 3.211129 1_655
Sc4 Tm3 3.211333 1_555
Sc5 Tm2 2.983073 1_546
Sc5 Tm1 3.045138 1_555
Sc5 Tm0 3.200784 1_555
Sc5 Tm4 3.210827 1_656
Sc5 Tm4 3.211500 1_556
Ge0 Ge1 2.575120 1_555
Ge0 Tm4 2.804371 1_555
Ge0 Tm3 2.806530 1_545
Ge0 Tm0 2.824761 1_554
Ge0 Tm1 2.825482 1_544
Ge0 Tm2 2.860518 1_545
Ge0 Tm5 3.050951 1_554
Ge0 Sc5 3.404442 1_554
Ge0 Sc4 3.406929 1_545
Ge1 Tm4 2.804267 1_655
Ge1 Tm3 2.806414 1_645
Ge1 Tm0 2.824729 1_554
Ge1 Tm1 2.825542 1_544
Ge1 Tm2 2.860803 1_545
Ge1 Tm5 3.050759 1_654
Ge1 Sc5 3.404218 1_554
Ge1 Sc4 3.407188 1_545
Ge2 Tm2 2.838507 1_555
Ge2 Tm0 2.854443 1_565
Ge2 Tm1 2.856160 1_555
Ge2 Sc1 2.946132 1_555
Ge2 Sc2 2.946536 1_555
Ge2 Sc0 2.947198 1_565
Ge2 Sc3 2.947442 1_565
Ge2 Tm5 3.292388 1_565
Ge2 Tm5 3.292590 1_665
Ge3 Tm3 2.881018 1_555
Ge3 Tm5 2.992105 1_555
Ge3 Sc3 3.099452 1_455
Ge3 Sc0 3.099758 1_555
Ge3 Sc1 3.248485 1_555
Ge3 Sc2 3.248802 1_455
Ge3 Tm0 3.265217 1_455
Ge3 Tm0 3.265312 1_555
Ge3 Tm4 3.310320 1_556
Ge3 Sc4 3.602725 1_555
Ge3 Sc4 3.603877 1_455
Ge4 Tm4 2.880692 1_556
Ge4 Tm5 2.992193 1_565
Ge4 Sc2 3.099496 1_455
Ge4 Sc1 3.099847 1_555
Ge4 Sc3 3.250384 1_456
Ge4 Sc0 3.251334 1_556
Ge4 Tm1 3.265359 1_455
Ge4 Tm1 3.265460 1_555
Ge4 Tm3 3.313182 1_556
Ge4 Sc5 3.602081 1_455
Ge4 Sc5 3.604249 1_555
Ge5 Sc2 2.922698 1_445
Ge5 Sc1 2.923260 1_545
Ge5 Sc0 2.923540 1_555
Ge5 Sc3 2.923640 1_455
Ge5 Tm3 3.088419 1_545
Ge5 Tm4 3.089076 1_555
Ge5 Tm5 3.144207 1_555
Ge5 Tm2 3.192011 1_445
Ge5 Tm2 3.192033 1_545
