# generated using pymatgen
data_Zr2Ga3Co
_symmetry_space_group_name_H-M   'P 1'
_cell_length_a   6.38642409
_cell_length_b   7.76735215
_cell_length_c   7.86472320
_cell_angle_alpha   83.11788739
_cell_angle_beta   114.84302087
_cell_angle_gamma   66.65842388
_symmetry_Int_Tables_number   1
_chemical_formula_structural   Zr2Ga3Co
_chemical_formula_sum   'Zr6 Ga9 Co3'
_cell_volume   305.26666314
_cell_formula_units_Z   3
loop_
 _symmetry_equiv_pos_site_id
 _symmetry_equiv_pos_as_xyz
  1  'x, y, z'
loop_
 _atom_site_type_symbol
 _atom_site_label
 _atom_site_symmetry_multiplicity
 _atom_site_fract_x
 _atom_site_fract_y
 _atom_site_fract_z
 _atom_site_occupancy
  Zr  Zr0  1  0.47421000  0.47015000  0.98396800  1
  Zr  Zr1  1  0.97428400  0.52403700  0.03269400  1
  Zr  Zr2  1  0.44676000  0.04662300  0.52915800  1
  Zr  Zr3  1  0.94797400  0.96935100  0.45730400  1
  Zr  Zr4  1  0.80663200  0.25761200  0.74821800  1
  Zr  Zr5  1  0.30189700  0.75125100  0.25449800  1
  Ga  Ga0  1  0.27993800  0.26194900  0.74396500  1
  Ga  Ga1  1  0.78888400  0.71957700  0.24543600  1
  Ga  Ga2  1  0.50892900  0.34344700  0.34576400  1
  Ga  Ga3  1  0.48638200  0.66342400  0.66163100  1
  Ga  Ga4  1  0.98564400  0.84617600  0.83987100  1
  Ga  Ga5  1  0.98556400  0.16462600  0.16449100  1
  Ga  Ga6  1  0.40317200  0.11671500  0.12783900  1
  Ga  Ga7  1  0.38967300  0.88407800  0.86738200  1
  Ga  Ga8  1  0.88636100  0.62159800  0.60759300  1
  Co  Co0  1  0.90289500  0.36284700  0.38749500  1
  Co  Co1  1  0.25440300  0.50041100  0.49839700  1
  Co  Co2  1  0.73639800  0.99612900  0.00429400  1
loop_
_geom_bond_atom_site_label_1
_geom_bond_atom_site_label_2
_geom_bond_distance
_geom_bond_site_symmetry_2
Ga0 Ga8 2.593185 1_455
Ga0 Ga7 2.676482 1_545
Ga0 Ga6 2.736867 1_556
Ga0 Zr2 2.750264 1_555
Ga0 Zr0 2.840972 1_555
Ga0 Zr4 3.050335 1_455
Ga0 Zr4 3.336476 1_555
Ga1 Ga8 2.587378 1_555
Ga1 Ga7 2.666767 1_554
Ga1 Zr1 2.712352 1_555
Ga1 Ga6 2.796315 1_565
Ga1 Zr3 2.913226 1_555
Ga1 Zr5 3.053275 1_555
Ga2 Ga6 2.681127 1_555
Ga2 Zr4 2.740604 1_555
Ga2 Zr5 2.763281 1_555
Ga2 Zr0 2.782084 1_554
Ga2 Zr3 2.817963 1_545
Ga2 Zr2 2.821899 1_555
Ga2 Zr1 2.828675 1_455
Ga3 Ga7 2.569633 1_555
Ga3 Ga8 2.664393 1_555
Ga3 Zr5 2.788528 1_555
Ga3 Zr4 2.790896 1_555
Ga3 Zr3 2.831859 1_455
Ga3 Zr0 2.834152 1_555
Ga3 Zr1 2.885577 1_556
Ga3 Zr2 2.906404 1_565
Ga4 Ga7 2.634301 1_655
Ga4 Ga8 2.729276 1_555
Ga4 Zr1 2.809412 1_556
Ga4 Zr4 2.810670 1_565
Ga4 Zr5 2.822438 1_656
Ga4 Zr2 2.831137 1_565
Ga4 Zr3 2.923273 1_555
Ga4 Zr0 2.926523 1_655
Ga5 Ga6 2.686968 1_655
Ga5 Zr0 2.732712 1_554
Ga5 Zr3 2.752729 1_545
Ga5 Zr2 2.805987 1_655
Ga5 Zr1 2.820897 1_555
Ga5 Zr5 2.829373 1_645
Ga5 Zr4 2.860323 1_554
Ga6 Ga7 2.886302 1_544
Ga6 Zr3 2.947533 1_545
Ga6 Zr1 2.985879 1_455
Ga6 Zr2 3.010932 1_555
Ga6 Zr0 3.113904 1_554
Ga6 Zr5 3.284414 1_545
Ga6 Zr4 3.313802 1_454
Ga7 Zr0 2.995210 1_555
Ga7 Zr3 3.026648 1_455
Ga7 Zr2 3.029444 1_565
Ga7 Zr1 3.197924 1_556
Ga7 Zr4 3.319082 1_465
Ga7 Zr5 3.433312 1_556
Ga8 Zr3 3.052189 1_555
Ga8 Zr1 3.089566 1_556
Ga8 Zr2 3.142200 1_565
Ga8 Zr5 3.209316 1_555
Ga8 Zr4 3.215608 1_555
Ga8 Zr0 3.250910 1_655
Co0 Ga2 2.465617 1_555
Co0 Ga1 2.536105 1_555
Co0 Ga5 2.550761 1_555
Co0 Ga0 2.564729 1_655
Co0 Co1 2.724116 1_655
Co0 Ga8 2.804649 1_555
Co0 Zr3 2.914411 1_545
Co0 Zr0 2.918744 1_554
Co0 Zr2 2.944587 1_655
Co0 Zr1 3.200917 1_555
Co0 Zr4 3.225300 1_555
Co0 Zr5 3.409116 1_555
Co1 Ga3 2.392510 1_555
Co1 Ga0 2.413715 1_555
Co1 Ga1 2.429529 1_455
Co1 Ga2 2.447373 1_555
Co1 Ga8 2.699062 1_455
Co1 Zr5 2.762086 1_555
Co1 Zr4 2.806077 1_555
Co2 Ga0 2.480976 1_564
Co2 Ga4 2.486771 1_554
Co2 Ga5 2.488635 1_565
Co2 Ga1 2.498462 1_555
Co2 Ga7 2.562907 1_554
Co2 Ga6 2.593524 1_565
Co2 Zr5 2.867253 1_655
Co2 Zr4 2.980439 1_564
