# generated using pymatgen
data_CoSb(PO4)2
_symmetry_space_group_name_H-M   'P 1'
_cell_length_a   4.93630898
_cell_length_b   10.05225249
_cell_length_c   12.88010791
_cell_angle_alpha   90.81872104
_cell_angle_beta   90.56066235
_cell_angle_gamma   84.30981520
_symmetry_Int_Tables_number   1
_chemical_formula_structural   CoSb(PO4)2
_chemical_formula_sum   'Co4 Sb4 P8 O32'
_cell_volume   635.88748578
_cell_formula_units_Z   4
loop_
 _symmetry_equiv_pos_site_id
 _symmetry_equiv_pos_as_xyz
  1  'x, y, z'
loop_
 _atom_site_type_symbol
 _atom_site_label
 _atom_site_symmetry_multiplicity
 _atom_site_fract_x
 _atom_site_fract_y
 _atom_site_fract_z
 _atom_site_occupancy
  Co  Co0  1  0.40724500  0.21614100  0.85721100  1
  Co  Co1  1  0.58784800  0.77747200  0.65110900  1
  Co  Co2  1  0.40586800  0.21972300  0.40487500  1
  Co  Co3  1  0.60279500  0.78522600  0.10680700  1
  Sb  Sb0  1  0.96326500  0.29381700  0.12332800  1
  Sb  Sb1  1  0.90239800  0.29806100  0.63111500  1
  Sb  Sb2  1  0.03767800  0.70863400  0.37493600  1
  Sb  Sb3  1  0.09689700  0.69917600  0.87387700  1
  P  P0  1  0.41699100  0.10945300  0.12429000  1
  P  P1  1  0.37402300  0.09456200  0.62414300  1
  P  P2  1  0.58237600  0.89437200  0.37013500  1
  P  P3  1  0.62569300  0.90180000  0.87988800  1
  P  P4  1  0.86626100  0.40671900  0.35832000  1
  P  P5  1  0.85377800  0.40927200  0.88981400  1
  P  P6  1  0.14114900  0.59299200  0.14087800  1
  P  P7  1  0.13915900  0.59118900  0.60809800  1
  O  O0  1  0.58887700  0.04325700  0.36731000  1
  O  O1  1  0.64572400  0.05110900  0.88245200  1
  O  O2  1  0.40593500  0.96088800  0.12619700  1
  O  O3  1  0.35775600  0.94513200  0.62114200  1
  O  O4  1  0.71803500  0.14293200  0.12649000  1
  O  O5  1  0.67180300  0.12688000  0.62263600  1
  O  O6  1  0.28211000  0.85946500  0.37014900  1
  O  O7  1  0.32695700  0.87131900  0.87962100  1
  O  O8  1  0.17200100  0.37861500  0.36581500  1
  O  O9  1  0.16322500  0.38416000  0.88237900  1
  O  O10  1  0.83569100  0.61862400  0.13166200  1
  O  O11  1  0.82902200  0.61675400  0.61308800  1
  O  O12  1  0.21853100  0.43760700  0.12608500  1
  O  O13  1  0.23434000  0.44171900  0.61618200  1
  O  O14  1  0.78941500  0.56219700  0.37300900  1
  O  O15  1  0.75781900  0.55851300  0.87994800  1
  O  O16  1  0.24524100  0.18026700  0.03074600  1
  O  O17  1  0.20197000  0.16864600  0.53278500  1
  O  O18  1  0.23983200  0.18223700  0.21521100  1
  O  O19  1  0.21073700  0.16950600  0.71836900  1
  O  O20  1  0.75611500  0.81897500  0.27841500  1
  O  O21  1  0.78806500  0.82733900  0.78537100  1
  O  O22  1  0.75879100  0.82520200  0.46280900  1
  O  O23  1  0.79801300  0.82726400  0.97086200  1
  O  O24  1  0.71203300  0.33180300  0.43825800  1
  O  O25  1  0.75110900  0.35932900  0.00069100  1
  O  O26  1  0.75431100  0.36705200  0.24659900  1
  O  O27  1  0.71195400  0.32249800  0.80868000  1
  O  O28  1  0.29949900  0.66947300  0.06352900  1
  O  O29  1  0.24667900  0.64391300  0.49889300  1
  O  O30  1  0.24942600  0.63303600  0.25354400  1
  O  O31  1  0.27555900  0.67567700  0.69225200  1
loop_
_geom_bond_atom_site_label_1
_geom_bond_atom_site_label_2
_geom_bond_distance
_geom_bond_site_symmetry_2
Co0 O1 1.965773 1_555
Co0 O9 1.999306 1_555
Co0 O27 2.037788 1_555
Co0 O19 2.095469 1_555
Co0 O16 2.425007 1_556
Co1 O11 1.968407 1_555
Co1 O3 1.977345 1_555
Co1 O31 2.012108 1_555
Co1 O21 2.063640 1_555
Co2 O8 1.944971 1_555
Co2 O0 1.965482 1_555
Co2 O24 2.012319 1_555
Co2 O17 2.037157 1_555
Co2 O18 2.603310 1_555
Co3 O2 1.943352 1_555
Co3 O10 1.963468 1_555
Co3 O28 2.053464 1_555
Co3 O23 2.075591 1_554
Co3 O20 2.360126 1_555
O0 P2 1.501119 1_545
O1 P3 1.513768 1_545
O2 P0 1.500367 1_565
O3 P1 1.512107 1_565
O4 P0 1.555786 1_555
O4 Sb0 2.033309 1_555
O5 P1 1.536898 1_555
O5 Sb1 2.156207 1_555
O6 P2 1.556664 1_555
O6 Sb2 2.031108 1_555
O7 P3 1.535567 1_555
O7 Sb3 2.161926 1_555
O8 P4 1.510058 1_455
O9 P5 1.527068 1_455
O10 P6 1.508103 1_655
O11 P7 1.528844 1_655
O12 P6 1.580053 1_555
O12 Sb0 2.009250 1_455
O13 P7 1.533837 1_555
O13 Sb1 2.300133 1_455
O14 P4 1.580427 1_555
O14 Sb2 2.006341 1_655
O15 P5 1.534439 1_555
O15 Sb3 2.298277 1_655
O16 P0 1.600633 1_555
O16 Sb0 2.083464 1_455
O17 P1 1.593927 1_555
O17 Sb1 2.256386 1_455
O18 P0 1.593789 1_555
O18 Sb0 2.055512 1_455
O19 P1 1.600862 1_555
O19 Sb1 2.206269 1_455
O20 P2 1.603409 1_555
O20 Sb2 2.099400 1_655
O21 P3 1.599628 1_555
O21 Sb3 2.214018 1_655
O22 P2 1.596850 1_555
O22 Sb2 2.054747 1_655
O23 P3 1.592845 1_555
O23 Sb3 2.237956 1_655
O24 P4 1.535582 1_555
O24 Sb1 2.661508 1_555
O25 P5 1.622805 1_554
O25 Sb0 1.971321 1_555
O26 P4 1.595863 1_555
O26 Sb0 1.993708 1_555
O27 P5 1.556845 1_555
O27 Sb1 2.480921 1_555
O28 P6 1.533264 1_555
O28 Sb3 2.640104 1_554
O29 P7 1.622570 1_555
O29 Sb2 1.975114 1_555
O30 P6 1.601355 1_555
O30 Sb2 1.988776 1_555
O31 P7 1.556381 1_555
O31 Sb3 2.507874 1_555
