# generated using pymatgen
data_Li9Mn2Co5O16
_symmetry_space_group_name_H-M   'P 1'
_cell_length_a   10.83004586
_cell_length_b   10.83004586
_cell_length_c   10.08936778
_cell_angle_alpha   66.20838367
_cell_angle_beta   66.20838367
_cell_angle_gamma   15.68293336
_symmetry_Int_Tables_number   1
_chemical_formula_structural   Li9Mn2Co5O16
_chemical_formula_sum   'Li9 Mn2 Co5 O16'
_cell_volume   292.15983625
_cell_formula_units_Z   1
loop_
 _symmetry_equiv_pos_site_id
 _symmetry_equiv_pos_as_xyz
  1  'x, y, z'
loop_
 _atom_site_type_symbol
 _atom_site_label
 _atom_site_symmetry_multiplicity
 _atom_site_fract_x
 _atom_site_fract_y
 _atom_site_fract_z
 _atom_site_occupancy
  Li  Li0  1  0.13883200  0.13883200  0.05207100  1
  Li  Li1  1  0.86909200  0.86909200  0.93325000  1
  Li  Li2  1  0.63066000  0.63066000  0.81058500  1
  Li  Li3  1  0.62644600  0.62644600  0.30780600  1
  Li  Li4  1  0.37134300  0.37134300  0.18612100  1
  Li  Li5  1  0.12931800  0.12931800  0.56546900  1
  Li  Li6  1  0.87273400  0.87273400  0.44451600  1
  Li  Li7  1  0.36532200  0.36532200  0.69827300  1
  Li  Li8  1  0.75049600  0.75049600  0.87475200  1
  Mn  Mn0  1  0.00085300  0.00085300  0.99976600  1
  Mn  Mn1  1  0.75046800  0.75046800  0.37495100  1
  Co  Co0  1  0.50239100  0.50239100  0.73989900  1
  Co  Co1  1  0.24775100  0.24775100  0.64642600  1
  Co  Co2  1  0.99906900  0.99906900  0.50180700  1
  Co  Co3  1  0.49906800  0.49906800  0.25870100  1
  Co  Co4  1  0.25274000  0.25274000  0.10485600  1
  O  O0  1  0.55269200  0.55269200  0.03439000  1
  O  O1  1  0.31230400  0.31230400  0.91759200  1
  O  O2  1  0.05548400  0.05548400  0.79412300  1
  O  O3  1  0.05682700  0.05682700  0.29135700  1
  O  O4  1  0.80578700  0.80578700  0.16889400  1
  O  O5  1  0.55897600  0.55897600  0.53910500  1
  O  O6  1  0.30427000  0.30427000  0.40359400  1
  O  O7  1  0.80874600  0.80874600  0.65000400  1
  O  O8  1  0.69097400  0.69097400  0.10085700  1
  O  O9  1  0.44846100  0.44846100  0.96579200  1
  O  O10  1  0.18847400  0.18847400  0.83361000  1
  O  O11  1  0.19684100  0.19684100  0.34631400  1
  O  O12  1  0.94518100  0.94518100  0.20457900  1
  O  O13  1  0.69537700  0.69537700  0.58106500  1
  O  O14  1  0.44144900  0.44144900  0.45860000  1
  O  O15  1  0.94372000  0.94372000  0.71088000  1
loop_
_geom_bond_atom_site_label_1
_geom_bond_atom_site_label_2
_geom_bond_distance
_geom_bond_site_symmetry_2
Li0 O10 2.020069 1_554
Li0 O8 2.031212 1_545
Li0 O8 2.031212 1_455
Li0 O3 2.337732 1_555
Li0 O0 2.428990 1_545
Li0 O0 2.428990 1_455
Li1 O1 1.962084 1_655
Li1 O1 1.962084 1_565
Li1 O15 2.161446 1_555
Li1 O4 2.206224 1_556
Li1 O9 2.376310 1_655
Li1 O9 2.376310 1_565
Li2 O10 2.002711 1_565
Li2 O10 2.002711 1_655
Li2 O13 2.161455 1_555
Li2 O0 2.195679 1_556
Li2 O2 2.243006 1_565
Li2 O2 2.243006 1_655
Li3 O8 1.980467 1_555
Li3 O3 2.155058 1_565
Li3 O3 2.155058 1_655
Li3 O5 2.188679 1_555
Li3 O11 2.256934 1_565
Li3 O11 2.256934 1_655
Li4 O6 2.076972 1_555
Li4 O4 2.095537 1_455
Li4 O4 2.095537 1_545
Li4 O9 2.164248 1_554
Li4 O12 2.229007 1_545
Li4 O12 2.229007 1_455
Li5 O11 2.092649 1_555
Li5 O13 2.097341 1_545
Li5 O13 2.097341 1_455
Li5 O2 2.203500 1_555
Li5 O5 2.204347 1_455
Li5 O5 2.204347 1_545
Li6 O7 1.965998 1_555
Li6 O14 2.132620 1_565
Li6 O14 2.132620 1_655
Li6 O6 2.237374 1_565
Li6 O6 2.237374 1_655
Li6 O12 2.282978 1_555
Li7 O1 2.034805 1_555
Li7 O7 2.091805 1_455
Li7 O7 2.091805 1_545
Li7 O15 2.281131 1_545
Li7 O15 2.281131 1_455
Li7 O14 2.301890 1_555
Li8 O7 2.096616 1_555
Li8 O8 2.112440 1_556
Li8 O10 2.139293 1_655
Li8 O10 2.139293 1_565
Li8 O1 2.143792 1_655
Li8 O1 2.143792 1_565
Mn0 O12 1.920082 1_446
Mn0 O2 1.923051 1_555
Mn0 O0 1.964439 1_546
Mn0 O0 1.964439 1_456
Mn0 O9 1.969363 1_455
Mn0 O9 1.969363 1_545
Mn1 O13 1.928692 1_555
Mn1 O4 1.929072 1_555
Mn1 O11 1.965094 1_655
Mn1 O11 1.965094 1_565
Mn1 O6 1.967543 1_565
Mn1 O6 1.967543 1_655
Co0 O5 1.890791 1_555
Co0 O15 2.038150 1_545
Co0 O15 2.038150 1_455
Co0 O2 2.070751 1_655
Co0 O2 2.070751 1_565
Co0 O9 2.094158 1_555
Co1 O10 1.796697 1_555
Co1 O7 1.983927 1_545
Co1 O7 1.983927 1_455
Co1 O13 2.117697 1_545
Co1 O13 2.117697 1_455
Co1 O6 2.247990 1_555
Co2 O15 1.954425 1_555
Co2 O3 1.975148 1_665
Co2 O14 2.083474 1_565
Co2 O14 2.083474 1_655
Co2 O5 2.090742 1_655
Co2 O5 2.090742 1_565
Co3 O14 1.888238 1_555
Co3 O3 2.039700 1_565
Co3 O3 2.039700 1_655
Co3 O0 2.079660 1_555
Co3 O12 2.081494 1_545
Co3 O12 2.081494 1_455
Co4 O1 1.799045 1_554
Co4 O8 1.996232 1_455
Co4 O8 1.996232 1_545
Co4 O4 2.120204 1_545
Co4 O4 2.120204 1_455
Co4 O11 2.234664 1_555
