# generated using pymatgen
data_Dy6Mg(Sb5O12)2
_symmetry_space_group_name_H-M   'P 1'
_cell_length_a   9.51212412
_cell_length_b   9.51212412
_cell_length_c   9.51212412
_cell_angle_alpha   109.47122063
_cell_angle_beta   109.47122063
_cell_angle_gamma   109.47122063
_symmetry_Int_Tables_number   1
_chemical_formula_structural   Dy6Mg(Sb5O12)2
_chemical_formula_sum   'Dy6 Mg1 Sb10 O24'
_cell_volume   662.53775949
_cell_formula_units_Z   1
loop_
 _symmetry_equiv_pos_site_id
 _symmetry_equiv_pos_as_xyz
  1  'x, y, z'
loop_
 _atom_site_type_symbol
 _atom_site_label
 _atom_site_symmetry_multiplicity
 _atom_site_fract_x
 _atom_site_fract_y
 _atom_site_fract_z
 _atom_site_occupancy
  Dy  Dy0  1  0.75000000  0.25000000  0.50000000  1
  Dy  Dy1  1  0.75000000  0.50000000  0.25000000  1
  Dy  Dy2  1  0.50000000  0.25000000  0.75000000  1
  Dy  Dy3  1  0.50000000  0.75000000  0.25000000  1
  Dy  Dy4  1  0.25000000  0.75000000  0.50000000  1
  Dy  Dy5  1  0.25000000  0.50000000  0.75000000  1
  Mg  Mg0  1  0.00000000  0.00000000  0.00000000  1
  Sb  Sb0  1  0.51228920  0.00000000  0.00000000  1
  Sb  Sb1  1  0.29014808  0.00000000  0.29014808  1
  Sb  Sb2  1  0.29014808  0.29014808  0.00000000  1
  Sb  Sb3  1  0.70985192  0.00000000  0.70985192  1
  Sb  Sb4  1  0.70985192  0.70985192  0.00000000  1
  Sb  Sb5  1  0.00000000  0.51228920  0.00000000  1
  Sb  Sb6  1  0.00000000  0.00000000  0.51228920  1
  Sb  Sb7  1  0.48771080  0.48771080  0.48771080  1
  Sb  Sb8  1  0.00000000  0.29014808  0.29014808  1
  Sb  Sb9  1  0.00000000  0.70985192  0.70985192  1
  O  O0  1  0.47790274  0.00000000  0.20085689  1
  O  O1  1  0.47790274  0.20085689  0.00000000  1
  O  O2  1  0.70283869  0.49695518  0.00000000  1
  O  O3  1  0.70283869  0.00000000  0.49695518  1
  O  O4  1  0.79411549  0.29716131  0.29716131  1
  O  O5  1  0.50304482  0.50304482  0.20588451  1
  O  O6  1  0.50304482  0.20588451  0.50304482  1
  O  O7  1  0.49695518  0.70283869  0.00000000  1
  O  O8  1  0.49695518  0.00000000  0.70283869  1
  O  O9  1  0.72295515  0.52209726  0.52209726  1
  O  O10  1  0.79914311  0.27704485  0.79914311  1
  O  O11  1  0.79914311  0.79914311  0.27704485  1
  O  O12  1  0.20085689  0.47790274  0.00000000  1
  O  O13  1  0.20085689  0.00000000  0.47790274  1
  O  O14  1  0.52209726  0.72295515  0.52209726  1
  O  O15  1  0.52209726  0.52209726  0.72295515  1
  O  O16  1  0.00000000  0.47790274  0.20085689  1
  O  O17  1  0.00000000  0.20085689  0.47790274  1
  O  O18  1  0.29716131  0.79411549  0.29716131  1
  O  O19  1  0.29716131  0.29716131  0.79411549  1
  O  O20  1  0.20588451  0.50304482  0.50304482  1
  O  O21  1  0.00000000  0.70283869  0.49695518  1
  O  O22  1  0.00000000  0.49695518  0.70283869  1
  O  O23  1  0.27704485  0.79914311  0.79914311  1
loop_
_geom_bond_atom_site_label_1
_geom_bond_atom_site_label_2
_geom_bond_distance
_geom_bond_site_symmetry_2
Dy0 O4 2.256396 1_555
Dy0 O3 2.256400 1_555
Dy0 O22 2.256400 1_655
Dy0 O6 2.256402 1_555
Dy0 O9 2.631827 1_555
Dy0 O0 2.631831 1_555
Dy0 O17 2.631831 1_655
Dy0 O10 2.631834 1_555
Dy1 O4 2.256396 1_555
Dy1 O2 2.256400 1_555
Dy1 O21 2.256400 1_655
Dy1 O5 2.256402 1_555
Dy1 O9 2.631827 1_555
Dy1 O16 2.631831 1_655
Dy1 O1 2.631831 1_555
Dy1 O11 2.631834 1_555
Dy2 O19 2.256396 1_555
Dy2 O2 2.256400 1_556
Dy2 O8 2.256400 1_555
Dy2 O6 2.256402 1_555
Dy2 O15 2.631827 1_555
Dy2 O1 2.631831 1_556
Dy2 O13 2.631831 1_555
Dy2 O10 2.631834 1_555
Dy3 O18 2.256396 1_555
Dy3 O3 2.256400 1_565
Dy3 O7 2.256400 1_555
Dy3 O5 2.256402 1_555
Dy3 O14 2.631827 1_555
Dy3 O0 2.631831 1_565
Dy3 O12 2.631831 1_555
Dy3 O11 2.631834 1_555
Dy4 O18 2.256396 1_555
Dy4 O8 2.256400 1_565
Dy4 O21 2.256400 1_555
Dy4 O20 2.256402 1_555
Dy4 O14 2.631827 1_555
Dy4 O13 2.631831 1_565
Dy4 O16 2.631831 1_555
Dy4 O23 2.631834 1_555
Dy5 O19 2.256396 1_555
Dy5 O22 2.256400 1_555
Dy5 O7 2.256400 1_556
Dy5 O20 2.256402 1_555
Dy5 O15 2.631827 1_555
Dy5 O17 2.631831 1_555
Dy5 O12 2.631831 1_556
Dy5 O23 2.631834 1_555
Mg0 Sb1 3.186886 1_555
Mg0 Sb8 3.186886 1_555
Mg0 Sb2 3.186886 1_555
Mg0 Sb4 3.186886 1_445
Mg0 Sb3 3.186886 1_454
Mg0 Sb9 3.186886 1_544
O0 Sb0 2.043013 1_555
O0 Sb1 2.218616 1_555
O1 Sb0 2.043013 1_555
O1 Sb2 2.218616 1_555
O2 Sb4 2.003851 1_555
O3 Sb3 2.003851 1_555
O4 Sb8 2.003860 1_655
O5 Sb2 2.003854 1_555
O6 Sb1 2.003854 1_555
O7 Sb4 2.003851 1_555
O8 Sb3 2.003851 1_555
O9 Sb7 2.043023 1_555
O9 Sb9 2.218610 1_655
O10 Sb5 2.043018 1_656
O10 Sb3 2.218607 1_555
O11 Sb6 2.043018 1_665
O11 Sb4 2.218607 1_555
O12 Sb5 2.043013 1_555
O12 Sb2 2.218616 1_555
O13 Sb6 2.043013 1_555
O13 Sb1 2.218616 1_555
O14 Sb7 2.043023 1_555
O14 Sb3 2.218610 1_565
O15 Sb7 2.043023 1_555
O15 Sb4 2.218610 1_556
O16 Sb5 2.043013 1_555
O16 Sb8 2.218616 1_555
O17 Sb6 2.043013 1_555
O17 Sb8 2.218616 1_555
O18 Sb1 2.003860 1_565
O19 Sb2 2.003860 1_556
O20 Sb8 2.003854 1_555
O21 Sb9 2.003851 1_555
O22 Sb9 2.003851 1_555
O23 Sb0 2.043018 1_566
O23 Sb9 2.218607 1_555
