# generated using pymatgen
data_Li7Mn2(CoO4)3
_symmetry_space_group_name_H-M   'P 1'
_cell_length_a   2.97419400
_cell_length_b   7.60238717
_cell_length_c   9.88637274
_cell_angle_alpha   101.04424434
_cell_angle_beta   92.40645993
_cell_angle_gamma   99.03654910
_symmetry_Int_Tables_number   1
_chemical_formula_structural   Li7Mn2(CoO4)3
_chemical_formula_sum   'Li7 Mn2 Co3 O12'
_cell_volume   216.07745267
_cell_formula_units_Z   1
loop_
 _symmetry_equiv_pos_site_id
 _symmetry_equiv_pos_as_xyz
  1  'x, y, z'
loop_
 _atom_site_type_symbol
 _atom_site_label
 _atom_site_symmetry_multiplicity
 _atom_site_fract_x
 _atom_site_fract_y
 _atom_site_fract_z
 _atom_site_occupancy
  Li  Li0  1  0.08170100  0.15634000  0.73887100  1
  Li  Li1  1  0.58321000  0.17249200  0.25346300  1
  Li  Li2  1  0.73787700  0.49858700  0.75458200  1
  Li  Li3  1  0.24166100  0.49487300  0.24930400  1
  Li  Li4  1  0.42976800  0.84106600  0.74301300  1
  Li  Li5  1  0.92528300  0.83839200  0.25303500  1
  Li  Li6  1  0.48837300  0.99894100  0.50939000  1
  Mn  Mn0  1  0.00804700  0.99924100  0.00108300  1
  Mn  Mn1  1  0.83912000  0.67299100  0.49985900  1
  Co  Co0  1  0.66818300  0.33641600  0.99774400  1
  Co  Co1  1  0.16189100  0.31853800  0.49593600  1
  Co  Co2  1  0.32503500  0.66562300  0.00162400  1
  O  O0  1  0.58993000  0.09287800  0.88187200  1
  O  O1  1  0.05912000  0.10805700  0.38389500  1
  O  O2  1  0.20154800  0.42795700  0.88565300  1
  O  O3  1  0.74024200  0.42104600  0.38849800  1
  O  O4  1  0.90704800  0.75340000  0.88807300  1
  O  O5  1  0.35155500  0.73757300  0.39007500  1
  O  O6  1  0.60394100  0.26396300  0.61437900  1
  O  O7  1  0.13512400  0.24481900  0.11404400  1
  O  O8  1  0.30665900  0.57842900  0.60170500  1
  O  O9  1  0.74561200  0.57677200  0.11589300  1
  O  O10  1  0.94302400  0.89537700  0.61861400  1
  O  O11  1  0.42605000  0.90622900  0.11939200  1
loop_
_geom_bond_atom_site_label_1
_geom_bond_atom_site_label_2
_geom_bond_distance
_geom_bond_site_symmetry_2
Li0 O10 2.077909 1_445
Li0 O0 2.141043 1_455
Li0 O6 2.178062 1_555
Li0 O6 2.192603 1_455
Li0 O0 2.197112 1_555
Li0 O2 2.252580 1_555
Li1 O1 2.052514 1_655
Li1 O3 2.067578 1_555
Li1 O7 2.084364 1_555
Li1 O1 2.122124 1_555
Li1 O11 2.166950 1_545
Li1 O7 2.256891 1_655
Li2 O6 2.011150 1_555
Li2 O2 2.053865 1_655
Li2 O4 2.099074 1_555
Li2 O2 2.164038 1_555
Li2 O8 2.175060 1_555
Li2 O8 2.399614 1_655
Li3 O5 2.058305 1_555
Li3 O7 2.074526 1_555
Li3 O9 2.135729 1_555
Li3 O3 2.153622 1_455
Li3 O9 2.178009 1_455
Li3 O3 2.189441 1_555
Li4 O10 2.002893 1_455
Li4 O10 2.041450 1_555
Li4 O0 2.104297 1_565
Li4 O8 2.175110 1_555
Li4 O4 2.237935 1_555
Li4 O4 2.268441 1_455
Li5 O11 2.101175 1_655
Li5 O11 2.133823 1_555
Li5 O5 2.142253 1_655
Li5 O9 2.156808 1_555
Li5 O1 2.172400 1_665
Li5 O5 2.348598 1_555
Li6 O10 2.037640 1_555
Li6 O6 2.050897 1_565
Li6 O5 2.076766 1_555
Li6 O1 2.109824 1_565
Li6 O10 2.118581 1_455
Li6 O1 2.288633 1_665
Mn0 O7 1.954407 1_565
Mn0 O4 1.956273 1_454
Mn0 O11 1.970939 1_555
Mn0 O0 1.979559 1_464
Mn0 O11 2.228622 1_455
Mn0 O0 2.235303 1_564
Mn1 O10 1.837707 1_555
Mn1 O5 1.953856 1_555
Mn1 O5 1.962122 1_655
Mn1 O8 1.984451 1_655
Mn1 O3 1.988772 1_555
Mn1 O8 2.022910 1_555
Co0 O9 1.945207 1_556
Co0 O0 1.955515 1_555
Co0 O2 2.026883 1_555
Co0 O7 2.052331 1_656
Co0 O2 2.079693 1_655
Co0 O7 2.105591 1_556
Co1 O1 1.737735 1_555
Co1 O6 1.870848 1_555
Co1 O3 1.954607 1_455
Co1 O8 2.021377 1_555
Co1 O6 2.104789 1_455
Co1 O3 2.178038 1_555
Co2 O2 1.917432 1_554
Co2 O4 1.918712 1_454
Co2 O9 1.932957 1_555
Co2 O11 1.942623 1_555
Co2 O4 2.188454 1_554
Co2 O9 2.189182 1_455
