# generated using pymatgen
data_VCo3
_symmetry_space_group_name_H-M   'P 1'
_cell_length_a   3.97818733
_cell_length_b   4.94024200
_cell_length_c   4.94027524
_cell_angle_alpha   120.00080043
_cell_angle_beta   90.00000000
_cell_angle_gamma   90.00000000
_symmetry_Int_Tables_number   1
_chemical_formula_structural   VCo3
_chemical_formula_sum   'V2 Co6'
_cell_volume   84.08368331
_cell_formula_units_Z   2
loop_
 _symmetry_equiv_pos_site_id
 _symmetry_equiv_pos_as_xyz
  1  'x, y, z'
loop_
 _atom_site_type_symbol
 _atom_site_label
 _atom_site_symmetry_multiplicity
 _atom_site_fract_x
 _atom_site_fract_y
 _atom_site_fract_z
 _atom_site_occupancy
  V  V0  1  0.75000000  0.66668611  0.33332895  1
  V  V1  1  0.25000000  0.33331289  0.66667005  1
  Co  Co0  1  0.75000000  0.16303192  0.32600235  1
  Co  Co1  1  0.75000000  0.16297750  0.83698000  1
  Co  Co2  1  0.75000000  0.67399250  0.83700691  1
  Co  Co3  1  0.25000000  0.83697008  0.67399865  1
  Co  Co4  1  0.25000000  0.83702150  0.16301800  1
  Co  Co5  1  0.25000000  0.32600650  0.16299409  1
loop_
_geom_bond_atom_site_label_1
_geom_bond_atom_site_label_2
_geom_bond_distance
_geom_bond_site_symmetry_2
Co0 Co1 2.415771 1_554
Co0 Co2 2.415843 1_544
Co0 Co5 2.429330 1_555
Co0 Co5 2.429330 1_655
Co0 Co4 2.429386 1_545
Co0 Co4 2.429386 1_645
Co0 V1 2.465929 1_655
Co0 V1 2.465929 1_555
Co0 V0 2.470274 1_555
Co0 V0 2.470365 1_545
Co0 Co2 2.524356 1_555
Co0 Co1 2.524505 1_555
Co1 Co2 2.415771 1_545
Co1 Co3 2.429378 1_545
Co1 Co3 2.429378 1_645
Co1 Co5 2.429400 1_656
Co1 Co5 2.429400 1_556
Co1 V1 2.465880 1_555
Co1 V1 2.465880 1_655
Co1 V0 2.470158 1_545
Co1 V0 2.470442 1_556
Co1 Co2 2.524471 1_555
Co2 Co3 2.429338 1_555
Co2 Co3 2.429338 1_655
Co2 Co4 2.429393 1_656
Co2 Co4 2.429393 1_556
Co2 V1 2.465953 1_655
Co2 V1 2.465953 1_555
Co2 V0 2.470213 1_556
Co2 V0 2.470457 1_555
Co3 Co4 2.415763 1_556
Co3 Co5 2.415836 1_566
Co3 V0 2.465934 1_455
Co3 V0 2.465934 1_555
Co3 V1 2.470284 1_555
Co3 V1 2.470356 1_565
Co3 Co5 2.524363 1_555
Co3 Co4 2.524512 1_555
Co4 Co5 2.415763 1_565
Co4 V0 2.465883 1_555
Co4 V0 2.465883 1_455
Co4 V1 2.470161 1_565
Co4 V1 2.470440 1_554
Co4 Co5 2.524479 1_555
Co5 V0 2.465953 1_555
Co5 V0 2.465953 1_455
Co5 V1 2.470223 1_554
Co5 V1 2.470448 1_555
