# generated using pymatgen
data_Tb6Nb4Al43
_symmetry_space_group_name_H-M   'P 1'
_cell_length_a   11.04252825
_cell_length_b   11.04251012
_cell_length_c   17.79252991
_cell_angle_alpha   90.00000385
_cell_angle_beta   90.00003642
_cell_angle_gamma   119.99998319
_symmetry_Int_Tables_number   1
_chemical_formula_structural   Tb6Nb4Al43
_chemical_formula_sum   'Tb12 Nb8 Al86'
_cell_volume   1878.90462164
_cell_formula_units_Z   2
loop_
 _symmetry_equiv_pos_site_id
 _symmetry_equiv_pos_as_xyz
  1  'x, y, z'
loop_
 _atom_site_type_symbol
 _atom_site_label
 _atom_site_symmetry_multiplicity
 _atom_site_fract_x
 _atom_site_fract_y
 _atom_site_fract_z
 _atom_site_occupancy
  Tb  Tb0  1  0.53062873  -0.00000012  0.59601881  1
  Tb  Tb1  1  0.46936895  -0.00000047  0.40395783  1
  Tb  Tb2  1  0.99999987  0.53062967  0.59601895  1
  Tb  Tb3  1  0.46937162  0.99999966  0.09602232  1
  Tb  Tb4  1  -0.00000068  0.53062740  0.90399912  1
  Tb  Tb5  1  -0.00000086  0.46936823  0.40395797  1
  Tb  Tb6  1  0.53062584  -0.00000025  0.90399951  1
  Tb  Tb7  1  -0.00000051  0.46937081  0.09602219  1
  Tb  Tb8  1  0.46937029  0.46937070  0.59601819  1
  Tb  Tb9  1  0.53063136  0.53063137  0.40395731  1
  Tb  Tb10  1  0.53062870  0.53062867  0.09602262  1
  Tb  Tb11  1  0.46937294  0.46937316  0.90400009  1
  Nb  Nb0  1  0.00000079  0.00000095  0.49998608  1
  Nb  Nb1  1  0.00000048  0.00000045  0.00001282  1
  Nb  Nb2  1  0.72658524  -0.00000158  0.75001043  1
  Nb  Nb3  1  0.27341670  -0.00000123  0.24998806  1
  Nb  Nb4  1  -0.00000051  0.72658203  0.75000981  1
  Nb  Nb5  1  -0.00000031  0.27341608  0.24998786  1
  Nb  Nb6  1  0.27341717  0.27341715  0.75000995  1
  Nb  Nb7  1  0.72658348  0.72658340  0.24998759  1
  Al  Al0  1  0.15325429  0.59708602  0.75001316  1
  Al  Al1  1  0.84674393  0.40291341  0.24998674  1
  Al  Al2  1  0.40290749  0.55616524  0.75001402  1
  Al  Al3  1  0.59709263  0.15325979  0.75001447  1
  Al  Al4  1  0.59708737  0.44383037  0.24998644  1
  Al  Al5  1  0.40291257  0.84674098  0.24998668  1
  Al  Al6  1  0.44383434  0.84674093  0.75001373  1
  Al  Al7  1  0.55616795  0.40291453  0.75001342  1
  Al  Al8  1  0.55616672  0.15326066  0.24998608  1
  Al  Al9  1  0.44382890  0.59708636  0.24998636  1
  Al  Al10  1  0.84674368  0.44383182  0.75001349  1
  Al  Al11  1  0.15325647  0.55616849  0.24998630  1
  Al  Al12  1  0.15894472  -0.00000045  0.11525564  1
  Al  Al13  1  0.84105830  0.00000114  0.88475442  1
  Al  Al14  1  0.00000007  0.15894419  0.11525533  1
  Al  Al15  1  0.84105236  -0.00000063  0.61526703  1
  Al  Al16  1  -0.00000141  0.15895357  0.38472547  1
  Al  Al17  1  0.00000062  0.84105920  0.88475430  1
  Al  Al18  1  0.15895534  -0.00000011  0.38472554  1
  Al  Al19  1  -0.00000114  0.84105328  0.61526729  1
  Al  Al20  1  0.84105561  0.84105627  0.11525537  1
  Al  Al21  1  0.15894065  0.15894095  0.88475428  1
  Al  Al22  1  0.15894687  0.15894731  0.61526718  1
  Al  Al23  1  0.84104728  0.84104826  0.38472419  1
  Al  Al24  1  0.24751114  0.49502487  0.49998918  1
  Al  Al25  1  0.75248742  0.50497394  0.49998863  1
  Al  Al26  1  0.50497368  0.75248739  0.49998721  1
  Al  Al27  1  0.75248929  0.50497777  0.00001309  1
  Al  Al28  1  0.49502292  0.24751119  0.00001303  1
  Al  Al29  1  0.49502630  0.24751247  0.49998773  1
  Al  Al30  1  0.24750947  0.49502206  0.00000993  1
  Al  Al31  1  0.50497740  0.75248861  0.00001099  1
  Al  Al32  1  0.24751385  0.75249003  0.49999127  1
  Al  Al33  1  0.75249048  0.24751436  0.49999161  1
  Al  Al34  1  0.75249207  0.24751293  0.00000781  1
  Al  Al35  1  0.24751246  0.75249163  0.00000733  1
  Al  Al36  1  0.14780980  0.00000042  0.75000462  1
  Al  Al37  1  0.85218765  0.00000033  0.24999446  1
  Al  Al38  1  -0.00000050  0.14781073  0.75000499  1
  Al  Al39  1  0.00000140  0.85218761  0.24999410  1
  Al  Al40  1  0.85218999  0.85219098  0.75000484  1
  Al  Al41  1  0.14781267  0.14781156  0.24999443  1
  Al  Al42  1  0.33333388  0.66666571  0.62505428  1
  Al  Al43  1  0.66666455  0.33333081  0.37494583  1
  Al  Al44  1  0.66666816  0.33333093  0.12503087  1
  Al  Al45  1  0.66666418  0.33333507  0.87498399  1
  Al  Al46  1  0.33333291  0.66666541  0.87498278  1
  Al  Al47  1  0.33333134  0.66666555  0.12502941  1
  Al  Al48  1  0.33333102  0.66666449  0.37495262  1
  Al  Al49  1  0.66666473  0.33333360  0.62505451  1
  Al  Al50  1  0.25501628  -0.00000066  0.52966314  1
  Al  Al51  1  0.74498182  -0.00000083  0.47031919  1
  Al  Al52  1  -0.00000089  0.25501594  0.52966297  1
  Al  Al53  1  0.74498055  -0.00000067  0.02967428  1
  Al  Al54  1  -0.00000151  0.25501726  0.97034148  1
  Al  Al55  1  -0.00000062  0.74498253  0.47031960  1
  Al  Al56  1  0.25501779  -0.00000061  0.97034204  1
  Al  Al57  1  -0.00000056  0.74498085  0.02967439  1
  Al  Al58  1  0.74498516  0.74498611  0.52966254  1
  Al  Al59  1  0.25502319  0.25501941  0.47032012  1
  Al  Al60  1  0.25501879  0.25501940  0.02967430  1
  Al  Al61  1  0.74498482  0.74498473  0.97034013  1
  Al  Al62  1  0.15813696  0.39464698  0.66280707  1
  Al  Al63  1  0.84186612  0.60535236  0.33718193  1
  Al  Al64  1  0.60535349  0.76348901  0.66280663  1
  Al  Al65  1  0.84186461  0.60533885  0.16279098  1
  Al  Al66  1  0.39466084  0.15813829  0.83721536  1
  Al  Al67  1  0.39464952  0.23651225  0.33718248  1
  Al  Al68  1  0.15813814  0.39466146  0.83721561  1
  Al  Al69  1  0.60533879  0.84186434  0.16279136  1
  Al  Al70  1  0.23651010  0.84186335  0.66280749  1
  Al  Al71  1  0.39466111  0.23652498  0.16279115  1
  Al  Al72  1  0.76347605  0.60534041  0.83721513  1
  Al  Al73  1  0.76348717  0.15813689  0.33718256  1
  Al  Al74  1  0.60533854  0.76347677  0.83721528  1
  Al  Al75  1  0.23652532  0.39465916  0.16279130  1
  Al  Al76  1  0.60534986  0.84186327  0.33718218  1
  Al  Al77  1  0.39464720  0.15813739  0.66280731  1
  Al  Al78  1  0.76347455  0.15813389  0.16279159  1
  Al  Al79  1  0.23651333  0.39464643  0.33718131  1
  Al  Al80  1  0.23652386  0.84186277  0.83721425  1
  Al  Al81  1  0.76348867  0.60535416  0.66280684  1
  Al  Al82  1  0.84186022  0.23652393  0.83721542  1
  Al  Al83  1  0.15813741  0.76347510  0.16279044  1
  Al  Al84  1  0.15813804  0.76348708  0.33718297  1
  Al  Al85  1  0.84186311  0.23651031  0.66280724  1
loop_
_geom_bond_atom_site_label_1
_geom_bond_atom_site_label_2
_geom_bond_distance
_geom_bond_site_symmetry_2
Tb0 Tb1 3.483561 1_555
Tb2 Tb5 3.483565 1_655
Tb3 Tb6 3.482884 1_564
Tb4 Tb7 3.482894 1_556
Tb8 Tb9 3.483563 1_555
Tb10 Tb11 3.482882 1_554
Nb2 Tb6 3.491311 1_555
Nb2 Tb0 3.491325 1_555
Nb3 Tb3 3.490947 1_545
Nb3 Tb1 3.490983 1_555
Nb4 Tb4 3.491274 1_555
Nb4 Tb2 3.491281 1_455
Nb5 Tb7 3.490945 1_555
Nb5 Tb5 3.490991 1_555
Nb6 Tb11 3.491294 1_555
Nb6 Tb8 3.491302 1_555
Nb7 Tb10 3.490935 1_555
Nb7 Tb9 3.490986 1_555
Al0 Nb4 2.707155 1_555
Al0 Al68 2.743579 1_555
Al0 Al62 2.743742 1_555
Al0 Al42 2.821342 1_555
Al0 Al46 2.821484 1_555
Al0 Al80 2.841353 1_555
Al0 Al70 2.841427 1_555
Al0 Al10 2.931195 1_455
Al0 Al2 3.008298 1_555
Al0 Al6 3.008345 1_555
Al0 Tb4 3.109194 1_555
Al0 Tb2 3.109319 1_455
Al1 Nb5 2.707177 1_655
Al1 Al65 2.743499 1_555
Al1 Al63 2.743609 1_555
Al1 Al44 2.821271 1_555
Al1 Al43 2.821341 1_555
Al1 Al78 2.841320 1_555
Al1 Al73 2.841322 1_555
Al1 Al11 2.931214 1_655
Al1 Al4 3.008309 1_555
Al1 Al8 3.008317 1_555
Al1 Tb7 3.108861 1_655
Al1 Tb5 3.108963 1_655
Al2 Nb6 2.707129 1_555
Al2 Al74 2.743611 1_555
Al2 Al64 2.743798 1_555
Al2 Al42 2.821322 1_555
Al2 Al46 2.821452 1_555
Al2 Al68 2.841305 1_555
Al2 Al62 2.841388 1_555
Al2 Al7 2.931197 1_555
Al2 Al6 3.008286 1_555
Al2 Tb11 3.109202 1_555
Al2 Tb8 3.109356 1_555
Al3 Nb2 2.707187 1_555
Al3 Al66 2.743608 1_555
Al3 Al77 2.743789 1_555
Al3 Al49 2.821325 1_555
Al3 Al45 2.821468 1_555
Al3 Al82 2.841284 1_555
Al3 Al85 2.841395 1_555
Al3 Al6 2.931269 1_545
Al3 Al7 3.008337 1_555
Al3 Tb6 3.109198 1_555
Al3 Tb0 3.109364 1_555
Al4 Nb7 2.707175 1_555
Al4 Al71 2.743501 1_555
Al4 Al67 2.743622 1_555
Al4 Al44 2.821296 1_555
Al4 Al43 2.821330 1_555
Al4 Al65 2.841309 1_555
Al4 Al63 2.841340 1_555
Al4 Al9 2.931229 1_555
Al4 Al8 3.008247 1_555
Al4 Tb10 3.108854 1_555
Al4 Tb9 3.108966 1_555
Al5 Nb3 2.707183 1_565
Al5 Al69 2.743492 1_555
Al5 Al76 2.743598 1_555
Al5 Al83 2.841302 1_555
Al5 Al84 2.841319 1_555
Al5 Al8 2.931277 1_565
Al5 Al9 3.008279 1_555
Al5 Tb3 3.108871 1_555
Al5 Tb1 3.108976 1_565
Al6 Nb2 2.707160 1_565
Al6 Al80 2.743607 1_555
Al6 Al70 2.743791 1_555
Al6 Al74 2.841296 1_555
Al6 Al64 2.841395 1_555
Al6 Tb6 3.109203 1_565
Al6 Tb0 3.109349 1_565
Al7 Nb6 2.707157 1_555
Al7 Al72 2.743577 1_555
Al7 Al81 2.743748 1_555
Al7 Al77 2.841428 1_555
Al7 Tb11 3.109197 1_555
Al7 Tb8 3.109332 1_555
Al8 Nb3 2.707154 1_555
Al8 Tb3 3.108868 1_545
Al8 Tb1 3.108997 1_555
Al9 Nb7 2.707194 1_555
Al9 Tb10 3.108856 1_555
Al9 Tb9 3.108969 1_555
Al10 Nb4 2.707148 1_655
Al10 Al82 2.743571 1_555
Al10 Al85 2.743751 1_555
Al10 Al49 2.821336 1_555
Al10 Al45 2.821501 1_555
Al10 Al72 2.841359 1_555
Al10 Al81 2.841438 1_555
Al10 Al3 3.008274 1_555
Al10 Al7 3.008333 1_555
Al10 Tb4 3.109189 1_655
Al10 Tb2 3.109334 1_555
Al11 Nb5 2.707169 1_555
Al11 Al83 2.743509 1_555
Al11 Al84 2.743624 1_555
Al11 Al47 2.821286 1_555
Al11 Al48 2.821413 1_555
Al11 Al75 2.841309 1_555
Al11 Al79 2.841335 1_555
Al11 Al9 3.008294 1_555
Al11 Al5 3.008298 1_555
Al11 Tb7 3.108858 1_555
Al11 Tb5 3.108981 1_555
Al12 Nb1 2.699063 1_555
Al12 Nb3 2.710087 1_555
Al12 Al83 2.741119 1_545
Al12 Al71 2.741127 1_555
Al12 Al56 2.788106 1_554
Al12 Al57 2.895984 1_545
Al12 Al60 2.895995 1_555
Al12 Al39 2.937194 1_545
Al12 Al41 2.937199 1_555
Al12 Al14 3.040007 1_555
Al12 Al20 3.040009 1_445
Al12 Tb3 3.444937 1_545
Al13 Nb1 2.699258 1_656
Al13 Nb2 2.710265 1_555
Al13 Al82 2.741153 1_555
Al13 Al74 2.741159 1_545
Al13 Al53 2.788224 1_556
Al13 Al61 2.896007 1_545
Al13 Al54 2.896013 1_655
Al13 Al38 2.937339 1_655
Al13 Al40 2.937343 1_545
Al13 Al21 3.039944 1_655
Al13 Al17 3.039959 1_645
Al13 Tb6 3.445011 1_555
Al14 Nb1 2.699053 1_555
Al14 Nb5 2.710087 1_555
Al14 Al75 2.741121 1_555
Al14 Al78 2.741128 1_455
Al14 Al54 2.788112 1_554
Al14 Al60 2.895985 1_555
Al14 Al53 2.895991 1_455
Al14 Al37 2.937206 1_455
Al14 Al41 2.937210 1_555
Al14 Al20 3.039993 1_445
Al14 Tb7 3.444931 1_555
Al15 Nb0 2.699602 1_655
Al15 Nb2 2.710231 1_555
Al15 Al64 2.740979 1_545
Al15 Al85 2.740989 1_555
Al15 Al51 2.788656 1_555
Al15 Al58 2.896162 1_545
Al15 Al52 2.896185 1_655
Al15 Al40 2.937181 1_545
Al15 Al38 2.937196 1_655
Al15 Al19 3.040039 1_645
Al15 Al22 3.040061 1_655
Al15 Tb0 3.444930 1_555
Al16 Nb0 2.699368 1_555
Al16 Nb5 2.710115 1_555
Al16 Al73 2.740982 1_455
Al16 Al79 2.740996 1_555
Al16 Al52 2.788451 1_555
Al16 Al51 2.896103 1_455
Al16 Al59 2.896174 1_555
Al16 Al37 2.937115 1_455
Al16 Al41 2.937137 1_555
Al16 Al23 3.040159 1_445
Al16 Al18 3.040210 1_555
Al16 Tb5 3.444792 1_555
Al17 Nb1 2.699250 1_566
Al17 Nb4 2.710298 1_555
Al17 Al72 2.741155 1_455
Al17 Al80 2.741160 1_555
Al17 Al57 2.788231 1_556
Al17 Al61 2.896005 1_455
Al17 Al56 2.896030 1_565
Al17 Al36 2.937341 1_565
Al17 Al40 2.937345 1_455
Al17 Al21 3.039934 1_565
Al17 Tb4 3.444998 1_555
Al18 Nb0 2.699379 1_555
Al18 Nb3 2.710114 1_555
Al18 Al67 2.740984 1_555
Al18 Al84 2.740988 1_545
Al18 Al50 2.788449 1_555
Al18 Al55 2.896110 1_545
Al18 Al59 2.896123 1_555
Al18 Al41 2.937123 1_555
Al18 Al39 2.937128 1_545
Al18 Al23 3.040190 1_445
Al18 Tb1 3.444791 1_555
Al19 Nb0 2.699596 1_565
Al19 Nb4 2.710241 1_555
Al19 Al81 2.740979 1_455
Al19 Al70 2.740999 1_555
Al19 Al55 2.788656 1_555
Al19 Al58 2.896172 1_455
Al19 Al50 2.896195 1_565
Al19 Al40 2.937183 1_455
Al19 Al36 2.937186 1_565
Al19 Al22 3.040051 1_565
Al19 Tb2 3.444927 1_455
Al20 Nb1 2.699060 1_665
Al20 Nb7 2.710085 1_555
Al20 Al69 2.741131 1_555
Al20 Al65 2.741136 1_555
Al20 Al61 2.788123 1_554
Al20 Al53 2.895976 1_565
Al20 Al57 2.895987 1_655
Al20 Al37 2.937203 1_565
Al20 Al39 2.937212 1_655
Al20 Tb10 3.444938 1_555
Al21 Nb1 2.699246 1_556
Al21 Nb6 2.710296 1_555
Al21 Al68 2.741151 1_555
Al21 Al66 2.741154 1_555
Al21 Al60 2.788231 1_556
Al21 Al54 2.896037 1_555
Al21 Al56 2.896041 1_555
Al21 Al36 2.937338 1_555
Al21 Al38 2.937339 1_555
Al21 Tb11 3.445016 1_555
Al22 Nb0 2.699591 1_555
Al22 Nb6 2.710237 1_555
Al22 Al62 2.740978 1_555
Al22 Al77 2.740989 1_555
Al22 Al59 2.788661 1_555
Al22 Al52 2.896187 1_555
Al22 Al50 2.896193 1_555
Al22 Al36 2.937183 1_555
Al22 Al38 2.937196 1_555
Al22 Tb8 3.444925 1_555
Al23 Nb0 2.699381 1_665
Al23 Nb7 2.710111 1_555
Al23 Al76 2.740996 1_555
Al23 Al63 2.740998 1_555
Al23 Al58 2.788466 1_555
Al23 Al51 2.896105 1_565
Al23 Al55 2.896121 1_655
Al23 Al37 2.937095 1_565
Al23 Al39 2.937119 1_655
Al23 Tb9 3.444820 1_555
Al24 Al59 2.743954 1_555
Al24 Al52 2.743960 1_555
Al24 Al48 2.764703 1_555
Al24 Al42 2.765117 1_555
Al24 Al26 2.843036 1_555
Al24 Al32 2.843047 1_555
Al24 Al79 3.082206 1_555
Al24 Al62 3.082364 1_555
Al24 Tb8 3.113762 1_555
Al24 Tb5 3.113763 1_555
Al24 Tb2 3.408612 1_455
Al24 Tb9 3.408664 1_555
Al25 Al55 2.743942 1_655
Al25 Al58 2.743988 1_555
Al25 Al43 2.764811 1_555
Al25 Al49 2.765127 1_555
Al25 Al33 2.843017 1_555
Al25 Al29 2.843022 1_555
Al25 Al63 3.082185 1_555
Al25 Al81 3.082380 1_555
Al25 Tb2 3.113762 1_555
Al25 Tb9 3.113774 1_555
Al25 Tb8 3.408627 1_555
Al25 Tb5 3.408629 1_655
Al26 Al51 2.743935 1_565
Al26 Al58 2.743984 1_555
Al26 Al48 2.764692 1_555
Al26 Al42 2.765143 1_555
Al26 Al32 2.843022 1_555
Al26 Al76 3.082148 1_555
Al26 Al64 3.082399 1_555
Al26 Tb9 3.113759 1_555
Al26 Tb0 3.113774 1_565
Al26 Tb1 3.408612 1_565
Al26 Tb8 3.408629 1_555
Al27 Al57 2.743876 1_655
Al27 Al61 2.743941 1_554
Al27 Al44 2.764475 1_555
Al27 Al45 2.764612 1_554
Al27 Al34 2.843073 1_555
Al27 Al28 2.843079 1_555
Al27 Al65 3.081658 1_555
Al27 Al72 3.081998 1_554
Al27 Tb10 3.113570 1_555
Al27 Tb4 3.113605 1_654
Al27 Tb7 3.408428 1_655
Al27 Tb11 3.408465 1_554
Al28 Al60 2.743896 1_555
Al28 Al56 2.743929 1_554
Al28 Al44 2.764467 1_555
Al28 Al45 2.764607 1_554
Al28 Al34 2.843101 1_555
Al28 Al71 3.081666 1_555
Al28 Al66 3.081987 1_554
Al28 Tb3 3.113562 1_545
Al28 Tb11 3.113607 1_554
Al28 Tb10 3.408437 1_555
Al28 Tb6 3.408453 1_554
Al29 Al59 2.743898 1_555
Al29 Al50 2.743977 1_555
Al29 Al43 2.764774 1_555
Al29 Al49 2.765129 1_555
Al29 Al33 2.843045 1_555
Al29 Al67 3.082152 1_555
Al29 Al77 3.082396 1_555
Al29 Tb1 3.113753 1_555
Al29 Tb8 3.113776 1_555
Al29 Tb0 3.408618 1_555
Al29 Tb9 3.408639 1_555
Al30 Al60 2.743892 1_555
Al30 Al54 2.743914 1_554
Al30 Al47 2.764479 1_555
Al30 Al46 2.764589 1_554
Al30 Al31 2.843088 1_555
Al30 Al35 2.843094 1_555
Al30 Al75 3.081726 1_555
Al30 Al68 3.081926 1_554
Al30 Tb7 3.113582 1_555
Al30 Tb11 3.113589 1_554
Al30 Tb4 3.408433 1_554
Al30 Tb10 3.408482 1_555
Al31 Al53 2.743886 1_565
Al31 Al61 2.743940 1_554
Al31 Al47 2.764482 1_555
Al31 Al46 2.764611 1_554
Al31 Al35 2.843081 1_555
Al31 Al69 3.081701 1_555
Al31 Al74 3.081954 1_554
Al31 Tb10 3.113582 1_555
Al31 Tb6 3.113591 1_564
Al31 Tb11 3.408434 1_554
Al31 Tb3 3.408447 1_555
Al32 Al50 2.743924 1_565
Al32 Al55 2.743958 1_555
Al32 Al48 2.764751 1_555
Al32 Al42 2.765108 1_555
Al32 Al84 3.082194 1_555
Al32 Al70 3.082332 1_555
Al32 Tb2 3.113759 1_455
Al32 Tb1 3.113770 1_565
Al32 Tb0 3.408577 1_565
Al32 Tb5 3.408686 1_555
Al33 Al52 2.743924 1_655
Al33 Al51 2.743958 1_555
Al33 Al43 2.764850 1_555
Al33 Al49 2.765111 1_555
Al33 Al73 3.082212 1_555
Al33 Al85 3.082320 1_555
Al33 Tb0 3.113761 1_555
Al33 Tb5 3.113764 1_655
Al33 Tb2 3.408575 1_555
Al33 Tb1 3.408690 1_555
Al34 Al54 2.743869 1_654
Al34 Al53 2.743905 1_555
Al34 Al44 2.764523 1_555
Al34 Al45 2.764579 1_554
Al34 Al78 3.081764 1_555
Al34 Al82 3.081882 1_554
Al34 Tb7 3.113582 1_655
Al34 Tb6 3.113585 1_554
Al34 Tb4 3.408398 1_654
Al34 Tb3 3.408508 1_545
Al35 Al56 2.743870 1_564
Al35 Al57 2.743910 1_555
Al35 Al47 2.764525 1_555
Al35 Al46 2.764571 1_554
Al35 Al83 3.081741 1_555
Al35 Al80 3.081903 1_554
Al35 Tb4 3.113577 1_554
Al35 Tb3 3.113596 1_555
Al35 Tb6 3.408389 1_564
Al35 Tb7 3.408511 1_555
Al36 Nb6 2.617582 1_555
Al36 Nb4 2.617598 1_545
Al36 Al40 2.827045 1_445
Al36 Al38 2.827050 1_555
Al36 Al70 2.850632 1_545
Al36 Al77 2.850637 1_555
Al36 Al80 2.850856 1_545
Al36 Al66 2.850864 1_555
Al37 Nb5 2.617575 1_655
Al37 Nb7 2.617586 1_545
Al37 Al41 2.827095 1_655
Al37 Al39 2.827106 1_645
Al37 Al73 2.850542 1_555
Al37 Al76 2.850547 1_545
Al37 Al78 2.850749 1_555
Al37 Al69 2.850772 1_545
Al38 Nb2 2.617565 1_455
Al38 Nb6 2.617596 1_555
Al38 Al40 2.827040 1_445
Al38 Al85 2.850627 1_455
Al38 Al62 2.850633 1_555
Al38 Al68 2.850860 1_555
Al38 Al82 2.850874 1_455
Al39 Nb3 2.617574 1_565
Al39 Nb7 2.617600 1_455
Al39 Al41 2.827080 1_565
Al39 Al63 2.850525 1_455
Al39 Al84 2.850550 1_555
Al39 Al65 2.850770 1_455
Al39 Al83 2.850775 1_555
Al40 Nb2 2.617540 1_565
Al40 Nb4 2.617600 1_655
Al40 Al81 2.850633 1_555
Al40 Al64 2.850634 1_555
Al40 Al72 2.850853 1_555
Al40 Al74 2.850866 1_555
Al41 Nb3 2.617586 1_555
Al41 Nb5 2.617593 1_555
Al41 Al79 2.850509 1_555
Al41 Al67 2.850541 1_555
Al41 Al75 2.850760 1_555
Al41 Al71 2.850772 1_555
Al42 Al62 2.721294 1_555
Al42 Al64 2.721301 1_555
Al42 Al70 2.721319 1_555
Al42 Al6 2.821323 1_555
Al42 Tb8 3.246939 1_555
Al42 Tb0 3.246961 1_565
Al42 Tb2 3.246967 1_455
Al43 Al67 2.721312 1_555
Al43 Al73 2.721316 1_555
Al43 Al63 2.721374 1_555
Al43 Al8 2.821298 1_555
Al43 Tb1 3.246870 1_555
Al43 Tb9 3.246896 1_555
Al43 Tb5 3.246905 1_655
Al44 Al78 2.721202 1_555
Al44 Al65 2.721235 1_555
Al44 Al71 2.721241 1_555
Al44 Al8 2.821239 1_555
Al44 Tb3 3.246860 1_545
Al44 Tb7 3.246861 1_655
Al44 Tb10 3.246914 1_555
Al45 Al66 2.721238 1_555
Al45 Al72 2.721247 1_555
Al45 Al82 2.721268 1_555
Al45 Al7 2.821479 1_555
Al45 Tb11 3.246861 1_555
Al45 Tb4 3.246912 1_655
Al45 Tb6 3.246916 1_555
Al46 Al68 2.721230 1_555
Al46 Al74 2.721249 1_555
Al46 Al80 2.721262 1_555
Al46 Al6 2.821462 1_555
Al46 Tb11 3.246890 1_555
Al46 Tb6 3.246906 1_565
Al46 Tb4 3.246907 1_555
Al47 Al83 2.721200 1_555
Al47 Al75 2.721237 1_555
Al47 Al69 2.721247 1_555
Al47 Al5 2.821288 1_555
Al47 Al9 2.821295 1_555
Al47 Tb7 3.246864 1_555
Al47 Tb3 3.246878 1_555
Al47 Tb10 3.246885 1_555
Al48 Al84 2.721336 1_555
Al48 Al79 2.721374 1_555
Al48 Al76 2.721379 1_555
Al48 Al5 2.821417 1_555
Al48 Al9 2.821423 1_555
Al48 Tb5 3.246861 1_555
Al48 Tb9 3.246875 1_555
Al48 Tb1 3.246884 1_565
Al49 Al77 2.721286 1_555
Al49 Al81 2.721305 1_555
Al49 Al85 2.721321 1_555
Al49 Al7 2.821328 1_555
Al49 Tb8 3.246941 1_555
Al49 Tb0 3.246959 1_555
Al49 Tb2 3.246975 1_555
Al50 Nb0 2.865102 1_555
Al50 Al70 2.888985 1_545
Al50 Al77 2.888993 1_555
Al50 Al59 3.007463 1_555
Al50 Al55 3.007471 1_545
Al50 Tb1 3.256550 1_555
Al50 Tb0 3.264432 1_555
Al51 Nb0 2.865088 1_655
Al51 Al76 2.888883 1_545
Al51 Al73 2.888885 1_555
Al51 Al58 3.007446 1_545
Al51 Al52 3.007474 1_655
Al51 Tb0 3.256487 1_555
Al51 Tb1 3.264477 1_555
Al52 Nb0 2.865092 1_555
Al52 Al85 2.888988 1_455
Al52 Al62 2.888991 1_555
Al52 Al59 3.007526 1_555
Al52 Tb5 3.256540 1_555
Al52 Tb2 3.264442 1_455
Al53 Nb1 2.865085 1_655
Al53 Al78 2.888612 1_555
Al53 Al69 2.888615 1_545
Al53 Al61 3.007409 1_544
Al53 Al54 3.007416 1_654
Al53 Tb6 3.256194 1_554
Al53 Tb3 3.264352 1_545
Al54 Nb1 2.865095 1_556
Al54 Al82 2.888766 1_455
Al54 Al68 2.888768 1_555
Al54 Al60 3.007430 1_556
Al54 Tb7 3.256249 1_556
Al54 Tb4 3.264317 1_555
Al55 Nb0 2.865078 1_565
Al55 Al63 2.888878 1_455
Al55 Al84 2.888896 1_555
Al55 Al58 3.007461 1_455
Al55 Tb2 3.256478 1_455
Al55 Tb5 3.264487 1_555
Al56 Nb1 2.865099 1_556
Al56 Al66 2.888773 1_555
Al56 Al80 2.888778 1_545
Al56 Al57 3.007419 1_546
Al56 Al60 3.007426 1_556
Al56 Tb3 3.256251 1_546
Al56 Tb6 3.264304 1_555
Al57 Nb1 2.865077 1_565
Al57 Al65 2.888609 1_455
Al57 Al83 2.888616 1_555
Al57 Al61 3.007411 1_454
Al57 Tb4 3.256186 1_554
Al57 Tb7 3.264356 1_555
Al58 Nb0 2.865087 1_665
Al58 Al64 2.888983 1_555
Al58 Al81 2.888988 1_555
Al58 Tb9 3.256559 1_555
Al58 Tb8 3.264462 1_555
Al59 Nb0 2.865109 1_555
Al59 Al67 2.888871 1_555
Al59 Al79 2.888900 1_555
Al59 Tb8 3.256431 1_555
Al59 Tb9 3.264456 1_555
Al60 Nb1 2.865075 1_555
Al60 Al75 2.888601 1_555
Al60 Al71 2.888619 1_555
Al60 Tb11 3.256180 1_554
Al60 Tb10 3.264356 1_555
Al61 Nb1 2.865079 1_666
Al61 Al72 2.888738 1_555
Al61 Al74 2.888752 1_555
Al61 Tb10 3.256298 1_556
Al61 Tb11 3.264325 1_555
Al62 Nb6 2.742994 1_555
Al62 Al85 3.024562 1_455
Al62 Tb2 3.055872 1_455
Al62 Al68 3.103169 1_555
Al62 Tb8 3.326980 1_555
Al63 Nb7 2.742937 1_555
Al63 Al84 3.024544 1_655
Al63 Tb5 3.055764 1_655
Al63 Al65 3.102856 1_555
Al63 Tb9 3.326917 1_555
Al64 Nb2 2.742997 1_565
Al64 Al81 3.024522 1_555
Al64 Tb8 3.055859 1_555
Al64 Al74 3.103171 1_555
Al64 Tb0 3.326988 1_565
Al65 Nb7 2.743056 1_555
Al65 Al83 3.024552 1_655
Al65 Tb7 3.055594 1_655
Al65 Tb10 3.326914 1_555
Al66 Nb6 2.743119 1_555
Al66 Al7 2.841360 1_555
Al66 Al80 3.024573 1_545
Al66 Tb6 3.055706 1_555
Al66 Al77 3.103160 1_555
Al66 Tb11 3.326997 1_555
Al67 Nb3 2.742935 1_555
Al67 Al8 2.841272 1_555
Al67 Al79 3.024526 1_555
Al67 Tb9 3.055773 1_555
Al67 Al71 3.102863 1_555
Al67 Tb1 3.326889 1_555
Al68 Nb6 2.743129 1_555
Al68 Al82 3.024601 1_455
Al68 Tb4 3.055713 1_555
Al68 Tb11 3.327001 1_555
Al69 Nb7 2.743051 1_555
Al69 Al9 2.841309 1_555
Al69 Al78 3.024516 1_565
Al69 Tb3 3.055591 1_555
Al69 Al76 3.102854 1_555
Al69 Tb10 3.326910 1_555
Al70 Nb4 2.742996 1_555
Al70 Al77 3.024559 1_565
Al70 Tb0 3.055870 1_565
Al70 Al80 3.103137 1_555
Al70 Tb2 3.326977 1_455
Al71 Nb3 2.743062 1_555
Al71 Al8 2.841245 1_555
Al71 Al75 3.024522 1_555
Al71 Tb10 3.055597 1_555
Al71 Tb3 3.326912 1_545
Al72 Nb4 2.743128 1_655
Al72 Al74 3.024559 1_555
Al72 Tb11 3.055711 1_555
Al72 Al81 3.103165 1_555
Al72 Tb4 3.327007 1_655
Al73 Nb5 2.742935 1_655
Al73 Al8 2.743664 1_555
Al73 Al76 3.024555 1_545
Al73 Tb1 3.055774 1_555
Al73 Al78 3.102857 1_555
Al73 Tb5 3.326883 1_655
Al74 Nb2 2.743107 1_565
Al74 Tb11 3.055710 1_555
Al74 Tb6 3.327002 1_565
Al75 Nb5 2.743057 1_555
Al75 Al9 2.743495 1_555
Al75 Tb10 3.055599 1_555
Al75 Al79 3.102839 1_555
Al75 Tb7 3.326929 1_555
Al76 Nb7 2.742939 1_555
Al76 Al9 2.841327 1_555
Al76 Tb1 3.055763 1_565
Al76 Tb9 3.326888 1_555
Al77 Nb6 2.742991 1_555
Al77 Tb0 3.055869 1_555
Al77 Tb8 3.326977 1_555
Al78 Nb5 2.743049 1_655
Al78 Al8 2.743544 1_555
Al78 Tb3 3.055598 1_545
Al78 Tb7 3.326924 1_655
Al79 Nb5 2.742929 1_555
Al79 Al9 2.743608 1_555
Al79 Tb9 3.055774 1_555
Al79 Tb5 3.326933 1_555
Al80 Nb4 2.743125 1_555
Al80 Tb6 3.055702 1_565
Al80 Tb4 3.327010 1_555
Al81 Nb4 2.743002 1_655
Al81 Tb8 3.055865 1_555
Al81 Tb2 3.326993 1_555
Al82 Nb2 2.743138 1_555
Al82 Tb4 3.055701 1_655
Al82 Al85 3.103163 1_555
Al82 Tb6 3.326999 1_555
Al83 Nb3 2.743048 1_565
Al83 Tb7 3.055600 1_555
Al83 Al84 3.102884 1_555
Al83 Tb3 3.326898 1_555
Al84 Nb3 2.742927 1_565
Al84 Tb5 3.055774 1_555
Al84 Tb1 3.326880 1_565
Al85 Nb2 2.743012 1_555
Al85 Tb2 3.055869 1_555
Al85 Tb0 3.326984 1_555
