# generated using pymatgen
data_VCoB3
_symmetry_space_group_name_H-M   'P 1'
_cell_length_a   2.96576088
_cell_length_b   2.99265272
_cell_length_c   8.82309028
_cell_angle_alpha   99.76409259
_cell_angle_beta   90.00000000
_cell_angle_gamma   90.00000000
_symmetry_Int_Tables_number   1
_chemical_formula_structural   VCoB3
_chemical_formula_sum   'V2 Co2 B6'
_cell_volume   77.17491168
_cell_formula_units_Z   2
loop_
 _symmetry_equiv_pos_site_id
 _symmetry_equiv_pos_as_xyz
  1  'x, y, z'
loop_
 _atom_site_type_symbol
 _atom_site_label
 _atom_site_symmetry_multiplicity
 _atom_site_fract_x
 _atom_site_fract_y
 _atom_site_fract_z
 _atom_site_occupancy
  V  V0  1  0.25000000  0.07464660  0.14929519  1
  V  V1  1  0.75000000  0.92535340  0.85070481  1
  Co  Co0  1  0.25000000  0.79589518  0.59179235  1
  Co  Co1  1  0.75000000  0.20410482  0.40820765  1
  B  B0  1  0.25000000  0.37514550  0.75029200  1
  B  B1  1  0.75000000  0.62485450  0.24970800  1
  B  B2  1  0.25000000  0.47492631  0.94985163  1
  B  B3  1  0.75000000  0.52507369  0.05014837  1
  B  B4  1  0.75000000  0.32034167  0.64068435  1
  B  B5  1  0.25000000  0.67965833  0.35931565  1
loop_
_geom_bond_atom_site_label_1
_geom_bond_atom_site_label_2
_geom_bond_distance
_geom_bond_site_symmetry_2
B0 B2 1.735227 1_555
B0 B4 1.762747 1_455
B0 B4 1.762747 1_555
B0 Co0 2.034311 1_555
B0 Co0 2.034313 1_545
B0 V1 2.280405 1_445
B0 V1 2.280405 1_545
B0 V1 2.280411 1_455
B0 V1 2.280411 1_555
B1 B3 1.735227 1_555
B1 B5 1.762747 1_655
B1 B5 1.762747 1_555
B1 Co1 2.034311 1_555
B1 Co1 2.034313 1_565
B1 V0 2.280405 1_565
B1 V0 2.280405 1_665
B1 V0 2.280411 1_655
B1 V0 2.280411 1_555
B2 B3 1.720322 1_456
B2 B3 1.720322 1_556
B2 V1 2.276215 1_445
B2 V1 2.276215 1_545
B2 V1 2.276217 1_555
B2 V1 2.276217 1_455
B2 V0 2.290522 1_566
B2 V0 2.290528 1_556
B3 V0 2.276215 1_565
B3 V0 2.276215 1_665
B3 V0 2.276217 1_555
B3 V0 2.276217 1_655
B3 V1 2.290522 1_544
B3 V1 2.290528 1_554
B4 Co1 2.021451 1_555
B4 Co0 2.149106 1_555
B4 Co0 2.149106 1_655
B4 Co0 2.149108 1_545
B4 Co0 2.149108 1_645
B4 V1 2.360919 1_545
B4 V1 2.360925 1_555
B5 Co0 2.021451 1_555
B5 Co1 2.149106 1_555
B5 Co1 2.149106 1_455
B5 Co1 2.149108 1_565
B5 Co1 2.149108 1_465
B5 V0 2.360919 1_565
B5 V0 2.360925 1_555
