# generated using pymatgen
data_Mg14CdSn
_symmetry_space_group_name_H-M   'P 1'
_cell_length_a   6.33164655
_cell_length_b   6.37725621
_cell_length_c   10.48479288
_cell_angle_alpha   90.00000000
_cell_angle_beta   90.00000000
_cell_angle_gamma   120.23858081
_symmetry_Int_Tables_number   1
_chemical_formula_structural   Mg14CdSn
_chemical_formula_sum   'Mg14 Cd1 Sn1'
_cell_volume   365.75637244
_cell_formula_units_Z   1
loop_
 _symmetry_equiv_pos_site_id
 _symmetry_equiv_pos_as_xyz
  1  'x, y, z'
loop_
 _atom_site_type_symbol
 _atom_site_label
 _atom_site_symmetry_multiplicity
 _atom_site_fract_x
 _atom_site_fract_y
 _atom_site_fract_z
 _atom_site_occupancy
  Mg  Mg0  1  0.16687425  0.33343662  0.62500000  1
  Mg  Mg1  1  0.16744161  0.83372030  0.62500000  1
  Mg  Mg2  1  0.66719085  0.33371522  0.12500000  1
  Mg  Mg3  1  0.66625831  0.33266748  0.62500000  1
  Mg  Mg4  1  0.66719085  0.83347463  0.12500000  1
  Mg  Mg5  1  0.66625831  0.83358983  0.62500000  1
  Mg  Mg6  1  0.33344708  0.16631392  0.37602072  1
  Mg  Mg7  1  0.33344708  0.16631392  0.87397928  1
  Mg  Mg8  1  0.33344708  0.66713416  0.37602072  1
  Mg  Mg9  1  0.33344708  0.66713416  0.87397928  1
  Mg  Mg10  1  0.83301828  0.16650964  0.37703138  1
  Mg  Mg11  1  0.83301828  0.16650964  0.87296862  1
  Mg  Mg12  1  0.83349971  0.66675035  0.37610664  1
  Mg  Mg13  1  0.83349971  0.66675035  0.87389336  1
  Cd  Cd0  1  0.16626893  0.83313397  0.12500000  1
  Sn  Sn0  1  0.16569260  0.33284580  0.12500000  1
loop_
_geom_bond_atom_site_label_1
_geom_bond_atom_site_label_2
_geom_bond_distance
_geom_bond_site_symmetry_2
Mg0 Mg5 3.164396 1_555
Mg0 Mg3 3.164396 1_555
Mg0 Mg5 3.167256 1_445
Mg0 Mg3 3.167256 1_455
Mg0 Mg11 3.177204 1_455
Mg0 Mg10 3.177204 1_455
Mg0 Mg1 3.188630 1_555
Mg0 Mg1 3.188630 1_545
Mg0 Mg7 3.192976 1_555
Mg0 Mg6 3.192976 1_555
Mg0 Mg9 3.192982 1_555
Mg0 Mg8 3.192982 1_555
Mg1 Mg3 3.158750 1_565
Mg1 Mg5 3.158750 1_555
Mg1 Mg3 3.172896 1_455
Mg1 Mg5 3.172897 1_455
Mg1 Mg12 3.185412 1_455
Mg1 Mg13 3.185412 1_455
Mg1 Mg9 3.189478 1_555
Mg1 Mg8 3.189478 1_555
Mg1 Mg7 3.189484 1_565
Mg1 Mg6 3.189484 1_565
Mg2 Sn0 3.159133 1_655
Mg2 Sn0 3.172521 1_555
Mg2 Mg4 3.187094 1_555
Mg2 Mg4 3.190162 1_545
Mg2 Mg7 3.203094 1_554
Mg2 Mg6 3.203094 1_555
Mg3 Mg6 3.182608 1_555
Mg3 Mg7 3.182608 1_555
Mg3 Mg5 3.182746 1_545
Mg3 Mg5 3.194510 1_555
Mg4 Sn0 3.159132 1_665
Mg4 Sn0 3.172521 1_555
Mg4 Mg9 3.203094 1_554
Mg4 Mg8 3.203094 1_555
Mg5 Mg9 3.182608 1_555
Mg5 Mg8 3.182608 1_555
Mg6 Mg8 3.183397 1_545
Mg6 Mg8 3.193859 1_555
Mg6 Sn0 3.212340 1_555
Mg7 Mg9 3.183397 1_545
Mg7 Mg9 3.193859 1_555
Mg7 Sn0 3.212340 1_556
Mg8 Sn0 3.212346 1_555
Mg9 Sn0 3.212346 1_556
Mg10 Mg8 3.162497 1_545
Mg10 Mg6 3.162498 1_555
Mg10 Mg8 3.169185 1_655
Mg10 Mg6 3.169185 1_655
Mg10 Mg3 3.181829 1_555
Mg10 Mg5 3.181835 1_545
Mg10 Mg12 3.188644 1_555
Mg10 Mg12 3.188644 1_545
Mg10 Sn0 3.208484 1_655
Mg10 Mg2 3.217123 1_555
Mg10 Mg4 3.217129 1_545
Mg11 Mg9 3.162497 1_545
Mg11 Mg7 3.162498 1_555
Mg11 Mg9 3.169185 1_655
Mg11 Mg7 3.169185 1_655
Mg11 Mg3 3.181829 1_555
Mg11 Mg5 3.181835 1_545
Mg11 Mg13 3.188644 1_555
Mg11 Mg13 3.188644 1_545
Mg11 Sn0 3.208484 1_656
Mg11 Mg2 3.217123 1_556
Mg11 Mg4 3.217129 1_546
Mg12 Mg6 3.164258 1_665
Mg12 Mg8 3.164258 1_655
Mg12 Mg6 3.167390 1_555
Mg12 Mg8 3.167390 1_555
Mg12 Mg5 3.193448 1_555
Mg12 Mg3 3.193454 1_555
Mg12 Mg4 3.209147 1_555
Mg12 Mg2 3.209153 1_555
Mg13 Mg7 3.164258 1_665
Mg13 Mg9 3.164258 1_655
Mg13 Mg7 3.167390 1_555
Mg13 Mg9 3.167390 1_555
Mg13 Mg5 3.193448 1_555
Mg13 Mg3 3.193454 1_555
Mg13 Mg4 3.209147 1_556
Mg13 Mg2 3.209153 1_556
Cd0 Mg2 3.161080 1_455
Cd0 Mg4 3.161081 1_455
Cd0 Mg2 3.170567 1_565
Cd0 Mg4 3.170567 1_555
Cd0 Sn0 3.188630 1_565
Cd0 Sn0 3.188630 1_555
Cd0 Mg12 3.200798 1_455
Cd0 Mg13 3.200798 1_454
Cd0 Mg8 3.208843 1_555
Cd0 Mg9 3.208843 1_554
Cd0 Mg6 3.208849 1_565
Cd0 Mg7 3.208849 1_564
