# generated using pymatgen
data_CeMg6Zr
_symmetry_space_group_name_H-M   'P 1'
_cell_length_a   5.04312200
_cell_length_b   6.52895200
_cell_length_c   11.64303600
_cell_angle_alpha   90.00000000
_cell_angle_beta   90.00000000
_cell_angle_gamma   90.00000000
_symmetry_Int_Tables_number   1
_chemical_formula_structural   CeMg6Zr
_chemical_formula_sum   'Ce2 Mg12 Zr2'
_cell_volume   383.36211334
_cell_formula_units_Z   2
loop_
 _symmetry_equiv_pos_site_id
 _symmetry_equiv_pos_as_xyz
  1  'x, y, z'
loop_
 _atom_site_type_symbol
 _atom_site_label
 _atom_site_symmetry_multiplicity
 _atom_site_fract_x
 _atom_site_fract_y
 _atom_site_fract_z
 _atom_site_occupancy
  Ce  Ce0  1  0.50000000  0.50000000  0.19107700  1
  Ce  Ce1  1  0.50000000  0.00000000  0.69107700  1
  Mg  Mg0  1  0.00000000  0.75676700  0.07375300  1
  Mg  Mg1  1  0.00000000  0.24323300  0.07375300  1
  Mg  Mg2  1  0.00000000  0.00000000  0.32930000  1
  Mg  Mg3  1  0.50000000  0.25978900  0.42623500  1
  Mg  Mg4  1  0.50000000  0.74021100  0.42623500  1
  Mg  Mg5  1  0.50000000  0.00000000  0.16917900  1
  Mg  Mg6  1  0.00000000  0.25676700  0.57375300  1
  Mg  Mg7  1  0.00000000  0.74323300  0.57375300  1
  Mg  Mg8  1  0.00000000  0.50000000  0.82930000  1
  Mg  Mg9  1  0.50000000  0.75978900  0.92623500  1
  Mg  Mg10  1  0.50000000  0.24021100  0.92623500  1
  Mg  Mg11  1  0.50000000  0.50000000  0.66917900  1
  Zr  Zr0  1  0.00000000  0.50000000  0.31046500  1
  Zr  Zr1  1  0.00000000  0.00000000  0.81046500  1
loop_
_geom_bond_atom_site_label_1
_geom_bond_atom_site_label_2
_geom_bond_distance
_geom_bond_site_symmetry_2
Ce0 Zr0 2.879319 1_555
Ce0 Zr0 2.879319 1_655
Ce0 Mg4 3.155318 1_555
Ce0 Mg3 3.155318 1_555
Ce0 Mg5 3.274417 1_565
Ce0 Mg5 3.274417 1_555
Ce0 Mg1 3.321841 1_555
Ce0 Mg0 3.321841 1_655
Ce0 Mg1 3.321841 1_655
Ce0 Mg0 3.321841 1_555
Ce0 Mg9 3.519275 1_554
Ce0 Mg10 3.519275 1_554
Ce1 Zr1 2.879319 1_555
Ce1 Zr1 2.879319 1_655
Ce1 Mg9 3.155318 1_545
Ce1 Mg10 3.155318 1_555
Ce1 Mg11 3.274417 1_555
Ce1 Mg11 3.274417 1_545
Ce1 Mg7 3.321841 1_545
Ce1 Mg7 3.321841 1_645
Ce1 Mg6 3.321841 1_655
Ce1 Mg6 3.321841 1_555
Ce1 Mg3 3.519275 1_555
Ce1 Mg4 3.519275 1_545
Mg0 Mg9 3.051010 1_454
Mg0 Mg9 3.051010 1_554
Mg0 Mg1 3.176113 1_565
Mg0 Mg5 3.180349 1_565
Mg0 Mg5 3.180349 1_465
Mg0 Zr0 3.225860 1_555
Mg0 Mg8 3.303195 1_554
Mg0 Mg1 3.352839 1_555
Mg0 Mg2 3.372623 1_565
Mg0 Zr1 3.452396 1_564
Mg1 Mg10 3.051010 1_554
Mg1 Mg10 3.051010 1_454
Mg1 Mg5 3.180349 1_455
Mg1 Mg5 3.180349 1_555
Mg1 Zr0 3.225860 1_555
Mg1 Mg8 3.303195 1_554
Mg1 Mg2 3.372623 1_555
Mg1 Zr1 3.452396 1_554
Mg2 Mg5 3.135899 1_455
Mg2 Mg5 3.135899 1_555
Mg2 Mg4 3.241755 1_445
Mg2 Mg3 3.241755 1_555
Mg2 Mg4 3.241755 1_545
Mg2 Mg3 3.241755 1_455
Mg2 Zr0 3.271834 1_555
Mg2 Zr0 3.271834 1_545
Mg2 Mg7 3.303195 1_545
Mg2 Mg6 3.303195 1_555
Mg3 Mg6 3.051010 1_555
Mg3 Mg6 3.051010 1_655
Mg3 Mg4 3.136652 1_555
Mg3 Zr0 3.261102 1_555
Mg3 Zr0 3.261102 1_655
Mg3 Mg4 3.392300 1_545
Mg3 Mg5 3.440123 1_555
Mg4 Mg7 3.051010 1_555
Mg4 Mg7 3.051010 1_655
Mg4 Zr0 3.261102 1_555
Mg4 Zr0 3.261102 1_655
Mg4 Mg5 3.440123 1_565
Mg5 Mg9 3.234294 1_544
Mg6 Mg7 3.176113 1_555
Mg6 Zr1 3.225860 1_555
Mg6 Mg7 3.352839 1_545
Mg6 Mg8 3.372623 1_555
Mg6 Zr0 3.452396 1_555
Mg7 Zr1 3.225860 1_565
Mg7 Mg8 3.372623 1_555
Mg7 Zr0 3.452396 1_555
Mg8 Mg9 3.241755 1_555
Mg8 Mg9 3.241755 1_455
Mg8 Zr1 3.271834 1_565
Mg8 Zr1 3.271834 1_555
Mg9 Zr1 3.261102 1_565
Mg9 Zr1 3.261102 1_665
Mg10 Mg9 3.136652 1_545
Mg10 Mg5 3.234294 1_556
Mg10 Mg8 3.241755 1_555
Mg10 Mg8 3.241755 1_655
Mg10 Zr1 3.261102 1_555
Mg10 Zr1 3.261102 1_655
Mg10 Mg9 3.392300 1_555
Mg10 Mg11 3.440123 1_555
Mg11 Mg8 3.135899 1_655
Mg11 Mg8 3.135899 1_555
Mg11 Mg7 3.180349 1_555
Mg11 Mg6 3.180349 1_655
Mg11 Mg7 3.180349 1_655
Mg11 Mg6 3.180349 1_555
Mg11 Mg4 3.234294 1_555
Mg11 Mg3 3.234294 1_555
Mg11 Mg9 3.440123 1_555
