# generated using pymatgen
data_K2P2PdO7
_symmetry_space_group_name_H-M   'P 1'
_cell_length_a   7.08647700
_cell_length_b   9.55548300
_cell_length_c   11.16537800
_cell_angle_alpha   90.00000000
_cell_angle_beta   90.00000000
_cell_angle_gamma   90.00000000
_symmetry_Int_Tables_number   1
_chemical_formula_structural   K2P2PdO7
_chemical_formula_sum   'K8 P8 Pd4 O28'
_cell_volume   756.06033893
_cell_formula_units_Z   4
loop_
 _symmetry_equiv_pos_site_id
 _symmetry_equiv_pos_as_xyz
  1  'x, y, z'
loop_
 _atom_site_type_symbol
 _atom_site_label
 _atom_site_symmetry_multiplicity
 _atom_site_fract_x
 _atom_site_fract_y
 _atom_site_fract_z
 _atom_site_occupancy
  K  K0  1  0.75000000  0.40919600  0.46738800  1
  K  K1  1  0.75000000  0.90919600  0.03261200  1
  K  K2  1  0.25000000  0.59080400  0.53261200  1
  K  K3  1  0.25000000  0.09080400  0.96738800  1
  K  K4  1  0.25000000  0.64964700  0.96807900  1
  K  K5  1  0.25000000  0.14964700  0.53192100  1
  K  K6  1  0.75000000  0.35035300  0.03192100  1
  K  K7  1  0.75000000  0.85035300  0.46807900  1
  P  P0  1  0.46583400  0.36552500  0.76921300  1
  P  P1  1  0.03416600  0.86552500  0.73078700  1
  P  P2  1  0.96583400  0.63447500  0.23078700  1
  P  P3  1  0.53416600  0.13447500  0.26921300  1
  P  P4  1  0.53416600  0.63447500  0.23078700  1
  P  P5  1  0.96583400  0.13447500  0.26921300  1
  P  P6  1  0.03416600  0.36552500  0.76921300  1
  P  P7  1  0.46583400  0.86552500  0.73078700  1
  Pd  Pd0  1  0.75000000  0.61319200  0.75607600  1
  Pd  Pd1  1  0.75000000  0.11319200  0.74392400  1
  Pd  Pd2  1  0.25000000  0.38680800  0.24392400  1
  Pd  Pd3  1  0.25000000  0.88680800  0.25607600  1
  O  O0  1  0.55111700  0.23170200  0.82792700  1
  O  O1  1  0.94888300  0.73170200  0.67207300  1
  O  O2  1  0.05111700  0.76829800  0.17207300  1
  O  O3  1  0.44888300  0.26829800  0.32792700  1
  O  O4  1  0.44888300  0.76829800  0.17207300  1
  O  O5  1  0.05111700  0.26829800  0.32792700  1
  O  O6  1  0.94888300  0.23170200  0.82792700  1
  O  O7  1  0.55111700  0.73170200  0.67207300  1
  O  O8  1  0.53930600  0.49845700  0.83595400  1
  O  O9  1  0.96069400  0.99845700  0.66404600  1
  O  O10  1  0.03930600  0.50154300  0.16404600  1
  O  O11  1  0.46069400  0.00154300  0.33595400  1
  O  O12  1  0.46069400  0.50154300  0.16404600  1
  O  O13  1  0.03930600  0.00154300  0.33595400  1
  O  O14  1  0.96069400  0.49845700  0.83595400  1
  O  O15  1  0.53930600  0.99845700  0.66404600  1
  O  O16  1  0.46943700  0.37080100  0.63479700  1
  O  O17  1  0.03056300  0.87080100  0.86520300  1
  O  O18  1  0.96943700  0.62919900  0.36520300  1
  O  O19  1  0.53056300  0.12919900  0.13479700  1
  O  O20  1  0.53056300  0.62919900  0.36520300  1
  O  O21  1  0.96943700  0.12919900  0.13479700  1
  O  O22  1  0.03056300  0.37080100  0.63479700  1
  O  O23  1  0.46943700  0.87080100  0.86520300  1
  O  O24  1  0.25000000  0.35563000  0.82096300  1
  O  O25  1  0.25000000  0.85563000  0.67903700  1
  O  O26  1  0.75000000  0.64437000  0.17903700  1
  O  O27  1  0.75000000  0.14437000  0.32096300  1
loop_
_geom_bond_atom_site_label_1
_geom_bond_atom_site_label_2
_geom_bond_distance
_geom_bond_site_symmetry_2
K0 O22 2.753435 1_655
K0 O16 2.753435 1_555
K0 O20 2.852938 1_555
K0 O18 2.852938 1_555
K0 O3 2.964907 1_555
K0 O5 2.964907 1_655
K0 O27 3.012723 1_555
K1 O17 2.753435 1_654
K1 O23 2.753435 1_554
K1 O21 2.852938 1_565
K1 O19 2.852938 1_565
K1 O4 2.964907 1_555
K1 O2 2.964907 1_655
K1 O26 3.012723 1_555
K2 O20 2.753435 1_555
K2 O18 2.753435 1_455
K2 O22 2.852938 1_555
K2 O16 2.852938 1_555
K2 O7 2.964907 1_555
K2 O1 2.964907 1_455
K2 O25 3.012723 1_555
K3 O19 2.753435 1_556
K3 O21 2.753435 1_456
K3 O17 2.852938 1_545
K3 O23 2.852938 1_545
K3 O0 2.964907 1_555
K3 O6 2.964907 1_455
K3 O24 3.012723 1_555
K4 O17 2.864138 1_555
K4 O23 2.864138 1_555
K4 O2 2.908533 1_556
K4 O4 2.908533 1_556
K4 O8 2.909740 1_555
K4 O14 2.909740 1_455
K4 O12 3.003270 1_556
K4 O10 3.003270 1_556
K4 O24 3.254428 1_555
K5 O16 2.864138 1_555
K5 O22 2.864138 1_555
K5 O3 2.908533 1_555
K5 O5 2.908533 1_555
K5 O9 2.909740 1_445
K5 O15 2.909740 1_545
K5 O13 3.003270 1_555
K5 O11 3.003270 1_555
K5 O25 3.254428 1_545
K6 O21 2.864138 1_555
K6 O19 2.864138 1_555
K6 O6 2.908533 1_554
K6 O0 2.908533 1_554
K6 O12 2.909740 1_555
K6 O10 2.909740 1_655
K6 O8 3.003270 1_554
K6 O14 3.003270 1_554
K6 O26 3.254428 1_555
K7 O20 2.864138 1_555
K7 O18 2.864138 1_555
K7 O1 2.908533 1_555
K7 O7 2.908533 1_555
K7 O13 2.909740 1_665
K7 O11 2.909740 1_565
K7 O15 3.003270 1_555
K7 O9 3.003270 1_555
K7 O27 3.254428 1_565
O0 P0 1.558908 1_555
O0 Pd1 2.036770 1_555
O1 P1 1.558908 1_655
O1 Pd0 2.036770 1_555
O2 P2 1.558908 1_455
O2 Pd3 2.036770 1_555
O3 P3 1.558908 1_555
O3 Pd2 2.036770 1_555
O4 P4 1.558908 1_555
O4 Pd3 2.036770 1_555
O5 P5 1.558908 1_455
O5 Pd2 2.036770 1_555
O6 P6 1.558908 1_655
O6 Pd1 2.036770 1_555
O7 P7 1.558908 1_555
O7 Pd0 2.036770 1_555
O8 P0 1.562009 1_555
O8 Pd0 2.055892 1_555
O9 P1 1.562009 1_655
O9 Pd1 2.055892 1_565
O10 P2 1.562009 1_455
O10 Pd2 2.055892 1_555
O11 P3 1.562009 1_555
O11 Pd3 2.055892 1_545
O12 P4 1.562009 1_555
O12 Pd2 2.055892 1_555
O13 P5 1.562009 1_455
O13 Pd3 2.055892 1_545
O14 P6 1.562009 1_655
O14 Pd0 2.055892 1_555
O15 P7 1.562009 1_555
O15 Pd1 2.055892 1_565
O16 P0 1.501869 1_555
O17 P1 1.501869 1_555
O18 P2 1.501869 1_555
O19 P3 1.501869 1_555
O20 P4 1.501869 1_555
O21 P5 1.501869 1_555
O22 P6 1.501869 1_555
O23 P7 1.501869 1_555
O24 P6 1.637737 1_555
O24 P0 1.637737 1_555
O25 P1 1.637737 1_555
O25 P7 1.637737 1_555
O26 P4 1.637737 1_555
O26 P2 1.637737 1_555
O27 P5 1.637737 1_555
O27 P3 1.637737 1_555
