# generated using pymatgen
data_Tb5(Sn3Rh)6
_symmetry_space_group_name_H-M   'P 1'
_cell_length_a   9.91784294
_cell_length_b   9.91784294
_cell_length_c   9.91784294
_cell_angle_alpha   60.00000000
_cell_angle_beta   60.00000000
_cell_angle_gamma   60.00000000
_symmetry_Int_Tables_number   1
_chemical_formula_structural   Tb5(Sn3Rh)6
_chemical_formula_sum   'Tb5 Sn18 Rh6'
_cell_volume   689.82143000
_cell_formula_units_Z   1
loop_
 _symmetry_equiv_pos_site_id
 _symmetry_equiv_pos_as_xyz
  1  'x, y, z'
loop_
 _atom_site_type_symbol
 _atom_site_label
 _atom_site_symmetry_multiplicity
 _atom_site_fract_x
 _atom_site_fract_y
 _atom_site_fract_z
 _atom_site_occupancy
  Tb  Tb0  1  0.86971800  0.86971800  0.39084700  1
  Tb  Tb1  1  0.86971800  0.39084700  0.86971800  1
  Tb  Tb2  1  0.39084700  0.86971800  0.86971800  1
  Tb  Tb3  1  0.86971800  0.86971800  0.86971800  1
  Tb  Tb4  1  0.50000000  0.50000000  0.50000000  1
  Sn  Sn0  1  0.08801800  0.08801800  0.73594700  1
  Sn  Sn1  1  0.08801800  0.73594700  0.08801800  1
  Sn  Sn2  1  0.73594700  0.08801800  0.08801800  1
  Sn  Sn3  1  0.08801800  0.08801800  0.08801800  1
  Sn  Sn4  1  0.25000000  0.25000000  0.25000000  1
  Sn  Sn5  1  0.49175900  0.85791400  0.15856700  1
  Sn  Sn6  1  0.49175900  0.49175900  0.15856700  1
  Sn  Sn7  1  0.85791400  0.49175900  0.15856700  1
  Sn  Sn8  1  0.49175900  0.15856700  0.85791400  1
  Sn  Sn9  1  0.85791400  0.15856700  0.49175900  1
  Sn  Sn10  1  0.49175900  0.15856700  0.49175900  1
  Sn  Sn11  1  0.15856700  0.49175900  0.49175900  1
  Sn  Sn12  1  0.15856700  0.85791400  0.49175900  1
  Sn  Sn13  1  0.15856700  0.49175900  0.85791400  1
  Sn  Sn14  1  0.85791400  0.49175900  0.49175900  1
  Sn  Sn15  1  0.49175900  0.49175900  0.85791400  1
  Sn  Sn16  1  0.49175900  0.85791400  0.49175900  1
  Sn  Sn17  1  0.75000000  0.75000000  0.75000000  1
  Rh  Rh0  1  0.75358400  0.75358400  0.24641600  1
  Rh  Rh1  1  0.24641600  0.75358400  0.24641600  1
  Rh  Rh2  1  0.75358400  0.24641600  0.24641600  1
  Rh  Rh3  1  0.24641600  0.24641600  0.75358400  1
  Rh  Rh4  1  0.75358400  0.24641600  0.75358400  1
  Rh  Rh5  1  0.24641600  0.75358400  0.75358400  1
loop_
_geom_bond_atom_site_label_1
_geom_bond_atom_site_label_2
_geom_bond_distance
_geom_bond_site_symmetry_2
Sn0 Tb2 3.174561 1_545
Sn0 Tb3 3.174561 1_445
Sn0 Tb1 3.174561 1_455
Sn1 Tb0 3.174561 1_455
Sn1 Tb2 3.174561 1_554
Sn1 Tb3 3.174561 1_454
Sn2 Tb1 3.174561 1_554
Sn2 Tb3 3.174561 1_544
Sn2 Tb0 3.174561 1_545
Sn3 Tb0 3.174561 1_445
Sn3 Tb1 3.174561 1_454
Sn3 Tb2 3.174561 1_544
Sn5 Sn8 2.981829 1_564
Sn5 Tb2 3.411275 1_554
Sn5 Tb3 3.411289 1_554
Sn5 Tb4 3.469932 1_555
Sn6 Tb2 3.411286 1_554
Sn6 Tb1 3.411286 1_554
Sn6 Tb4 3.469938 1_555
Sn7 Sn9 3.304546 1_555
Sn7 Tb1 3.411275 1_554
Sn7 Tb3 3.411289 1_554
Sn7 Tb4 3.469932 1_555
Sn8 Tb2 3.411275 1_545
Sn8 Tb3 3.411289 1_545
Sn8 Tb4 3.469932 1_555
Sn9 Tb0 3.411275 1_545
Sn9 Tb3 3.411289 1_545
Sn9 Tb4 3.469932 1_555
Sn10 Sn16 2.981829 1_545
Sn10 Sn6 3.304546 1_555
Sn10 Sn11 3.304546 1_555
Sn10 Tb0 3.411286 1_545
Sn10 Tb2 3.411286 1_545
Sn10 Tb4 3.469938 1_555
Sn11 Sn14 2.981829 1_455
Sn11 Sn6 3.304546 1_555
Sn11 Tb0 3.411286 1_455
Sn11 Tb1 3.411286 1_455
Sn11 Tb4 3.469938 1_555
Sn12 Sn9 2.981829 1_465
Sn12 Sn16 3.304546 1_555
Sn12 Sn5 3.304546 1_555
Sn12 Tb0 3.411275 1_455
Sn12 Tb3 3.411289 1_455
Sn12 Tb4 3.469932 1_555
Sn13 Sn7 2.981829 1_456
Sn13 Sn15 3.304546 1_555
Sn13 Sn8 3.304546 1_555
Sn13 Tb1 3.411275 1_455
Sn13 Tb3 3.411289 1_455
Sn13 Tb4 3.469932 1_555
Sn14 Sn7 3.304546 1_555
Sn14 Sn9 3.304546 1_555
Sn14 Tb1 3.411294 1_555
Sn14 Tb0 3.411294 1_555
Sn14 Tb4 3.469928 1_555
Sn15 Sn6 2.981829 1_556
Sn15 Sn8 3.304546 1_555
Sn15 Tb1 3.411294 1_555
Sn15 Tb2 3.411294 1_555
Sn15 Tb4 3.469928 1_555
Sn16 Sn5 3.304546 1_555
Sn16 Tb2 3.411294 1_555
Sn16 Tb0 3.411294 1_555
Sn16 Tb4 3.469928 1_555
Sn17 Tb1 2.908380 1_555
Sn17 Tb2 2.908380 1_555
Sn17 Tb0 2.908380 1_555
Sn17 Tb3 2.908388 1_555
Rh0 Sn16 2.691991 1_555
Rh0 Sn14 2.691991 1_555
Rh0 Sn5 2.691998 1_555
Rh0 Sn7 2.691998 1_555
Rh0 Sn1 2.825605 1_655
Rh0 Sn2 2.825605 1_565
Rh0 Tb3 3.054757 1_554
Rh0 Tb0 3.054765 1_555
Rh0 Tb4 3.556756 1_555
Rh1 Sn5 2.691988 1_555
Rh1 Sn12 2.691988 1_555
Rh1 Sn6 2.691995 1_555
Rh1 Sn11 2.691995 1_555
Rh1 Sn1 2.825596 1_555
Rh1 Sn3 2.825602 1_565
Rh1 Tb2 3.054757 1_554
Rh1 Tb0 3.054757 1_455
Rh1 Tb4 3.556756 1_555
Rh2 Sn9 2.691988 1_555
Rh2 Sn7 2.691988 1_555
Rh2 Sn10 2.691995 1_555
Rh2 Sn6 2.691995 1_555
Rh2 Sn2 2.825596 1_555
Rh2 Sn3 2.825602 1_655
Rh2 Tb1 3.054757 1_554
Rh2 Tb0 3.054757 1_545
Rh2 Tb4 3.556756 1_555
Rh3 Sn8 2.691988 1_555
Rh3 Sn13 2.691988 1_555
Rh3 Sn10 2.691995 1_555
Rh3 Sn11 2.691995 1_555
Rh3 Sn0 2.825596 1_555
Rh3 Sn3 2.825602 1_556
Rh3 Tb2 3.054757 1_545
Rh3 Tb1 3.054757 1_455
Rh3 Tb4 3.556756 1_555
Rh4 Sn14 2.691991 1_555
Rh4 Sn15 2.691991 1_555
Rh4 Sn9 2.691998 1_555
Rh4 Sn8 2.691998 1_555
Rh4 Sn2 2.825605 1_556
Rh4 Sn0 2.825605 1_655
Rh4 Tb3 3.054757 1_545
Rh4 Tb1 3.054765 1_555
Rh4 Tb4 3.556756 1_555
Rh5 Sn16 2.691991 1_555
Rh5 Sn15 2.691991 1_555
Rh5 Sn13 2.691998 1_555
Rh5 Sn12 2.691998 1_555
Rh5 Sn0 2.825605 1_565
Rh5 Sn1 2.825605 1_556
Rh5 Tb3 3.054757 1_455
Rh5 Tb2 3.054765 1_555
Rh5 Tb4 3.556756 1_555
