# generated using pymatgen
data_V12CoH24C8(NO16)2
_symmetry_space_group_name_H-M   'P 1'
_cell_length_a   6.78602900
_cell_length_b   11.15450903
_cell_length_c   13.89520445
_cell_angle_alpha   81.62904537
_cell_angle_beta   85.48804709
_cell_angle_gamma   84.49679188
_symmetry_Int_Tables_number   1
_chemical_formula_structural   V12CoH24C8(NO16)2
_chemical_formula_sum   'V12 Co1 H24 C8 N2 O32'
_cell_volume   1033.55495146
_cell_formula_units_Z   1
loop_
 _symmetry_equiv_pos_site_id
 _symmetry_equiv_pos_as_xyz
  1  'x, y, z'
loop_
 _atom_site_type_symbol
 _atom_site_label
 _atom_site_symmetry_multiplicity
 _atom_site_fract_x
 _atom_site_fract_y
 _atom_site_fract_z
 _atom_site_occupancy
  V  V0  1  0.72178000  0.93991700  0.10468100  1
  V  V1  1  0.27822000  0.06008300  0.89531900  1
  V  V2  1  0.52599300  0.70041200  0.24215800  1
  V  V3  1  0.47400700  0.29958800  0.75784200  1
  V  V4  1  0.72457500  0.69925900  0.43574300  1
  V  V5  1  0.27542500  0.30074100  0.56425700  1
  V  V6  1  0.24490700  0.61000100  0.46203300  1
  V  V7  1  0.75509300  0.38999900  0.53796700  1
  V  V8  1  0.24989400  0.82516300  0.08632200  1
  V  V9  1  0.75010600  0.17483700  0.91367800  1
  V  V10  1  0.00633700  0.80475200  0.28036700  1
  V  V11  1  0.99366300  0.19524800  0.71963300  1
  Co  Co0  1  0.50000000  0.00000000  0.50000000  1
  H  H0  1  0.19328500  0.14891800  0.15432000  1
  H  H1  1  0.80671500  0.85108200  0.84568000  1
  H  H2  1  0.04427200  0.19016800  0.25855600  1
  H  H3  1  0.95572800  0.80983200  0.74144400  1
  H  H4  1  0.95838800  0.23533800  0.13786900  1
  H  H5  1  0.04161200  0.76466200  0.86213100  1
  H  H6  1  0.47310200  0.24503100  0.20633500  1
  H  H7  1  0.52689800  0.75496900  0.79366500  1
  H  H8  1  0.42890600  0.39758200  0.23579800  1
  H  H9  1  0.57109400  0.60241800  0.76420200  1
  H  H10  1  0.31336600  0.27426000  0.31082900  1
  H  H11  1  0.68663400  0.72574000  0.68917100  1
  H  H12  1  0.13166200  0.51593200  0.19699300  1
  H  H13  1  0.86833800  0.48406800  0.80300700  1
  H  H14  1  0.92405800  0.44865000  0.16062700  1
  H  H15  1  0.07594200  0.55135000  0.83937300  1
  H  H16  1  0.00076300  0.40886400  0.28217800  1
  H  H17  1  0.99923700  0.59113600  0.71782200  1
  H  H18  1  0.18374800  0.45113300  0.03705000  1
  H  H19  1  0.81625200  0.54886700  0.96295000  1
  H  H20  1  0.42540400  0.38647300  0.06850000  1
  H  H21  1  0.57459600  0.61352700  0.93150000  1
  H  H22  1  0.25775600  0.29493000  0.02690700  1
  H  H23  1  0.74224400  0.70507000  0.97309300  1
  C  C0  1  0.08803000  0.21865700  0.18176900  1
  C  C1  1  0.91197000  0.78134300  0.81823100  1
  C  C2  1  0.36470100  0.31092700  0.23680000  1
  C  C3  1  0.63529900  0.68907300  0.76320000  1
  C  C4  1  0.05158500  0.43392300  0.20575000  1
  C  C5  1  0.94841500  0.56607700  0.79425000  1
  C  C6  1  0.26962800  0.36919700  0.06886800  1
  C  C7  1  0.73037200  0.63080300  0.93113200  1
  N  N0  1  0.19188600  0.33317000  0.17324700  1
  N  N1  1  0.80811400  0.66683000  0.82675300  1
  O  O0  1  0.75701800  0.54742800  0.52387900  1
  O  O1  1  0.24298200  0.45257200  0.47612100  1
  O  O2  1  0.02336800  0.68538900  0.39857200  1
  O  O3  1  0.97663200  0.31461100  0.60142800  1
  O  O4  1  0.46902300  0.65651600  0.38895500  1
  O  O5  1  0.53097700  0.34348400  0.61104500  1
  O  O6  1  0.24151400  0.73850000  0.22476600  1
  O  O7  1  0.75848600  0.26150000  0.77523400  1
  O  O8  1  0.96710600  0.86408000  0.14013800  1
  O  O9  1  0.03289400  0.13592000  0.85986200  1
  O  O10  1  0.24465700  0.65180600  0.56915300  1
  O  O11  1  0.75534300  0.34819400  0.43084700  1
  O  O12  1  0.66842200  0.81081400  0.50064600  1
  O  O13  1  0.33157800  0.18918600  0.49935400  1
  O  O14  1  0.74429300  0.01080200  0.98513900  1
  O  O15  1  0.25570700  0.98919800  0.01486100  1
  O  O16  1  0.53578400  0.82668000  0.12032600  1
  O  O17  1  0.46421600  0.17332000  0.87967400  1
  O  O18  1  0.65288300  0.04175200  0.17596000  1
  O  O19  1  0.34711700  0.95824800  0.82404000  1
  O  O20  1  0.03666100  0.92978800  0.32004700  1
  O  O21  1  0.96333900  0.07021200  0.67995300  1
  O  O22  1  0.60188800  0.57313100  0.20021200  1
  O  O23  1  0.39811200  0.42686900  0.79978800  1
  O  O24  1  0.74266500  0.76981800  0.29412600  1
  O  O25  1  0.25733500  0.23018200  0.70587400  1
  O  O26  1  0.24360900  0.72639600  0.01063900  1
  O  O27  1  0.75639100  0.27360400  0.98936100  1
  O  O28  1  0.56861200  0.00522000  0.61796600  1
  O  O29  1  0.43138800  0.99478000  0.38203400  1
  O  O30  1  0.71499100  0.06741200  0.45243400  1
  O  O31  1  0.28500900  0.93258800  0.54756600  1
loop_
_geom_bond_atom_site_label_1
_geom_bond_atom_site_label_2
_geom_bond_distance
_geom_bond_site_symmetry_2
Co0 O30 1.744923 1_555
Co0 O31 1.744923 1_545
Co0 O28 1.749312 1_555
Co0 O29 1.749312 1_545
Co0 O12 2.300674 1_545
Co0 O13 2.300674 1_555
C0 H2 1.094128 1_555
C0 H0 1.094411 1_555
C0 H4 1.095754 1_455
C0 N0 1.502600 1_555
C1 H3 1.094128 1_555
C1 H1 1.094411 1_555
C1 H5 1.095754 1_655
C1 N1 1.502600 1_555
C2 H10 1.093255 1_555
C2 H6 1.094759 1_555
C2 H8 1.095551 1_555
C2 N0 1.503335 1_555
C3 H11 1.093255 1_555
C3 H7 1.094759 1_555
C3 H9 1.095551 1_555
C3 N1 1.503335 1_555
C4 H14 1.094139 1_455
C4 H16 1.095133 1_555
C4 H12 1.095185 1_555
C4 N0 1.499462 1_555
C5 H15 1.094139 1_655
C5 H17 1.095133 1_555
C5 H13 1.095185 1_555
C5 N1 1.499462 1_555
C6 H18 1.091396 1_555
C6 H20 1.092043 1_555
C6 H22 1.092492 1_555
C6 N0 1.514580 1_555
C7 H19 1.091396 1_555
C7 H21 1.092043 1_555
C7 H23 1.092492 1_555
C7 N1 1.514580 1_555
O0 V7 1.739565 1_555
O0 V4 1.945139 1_555
O1 V6 1.739565 1_555
O1 V5 1.945139 1_555
O2 V6 1.869500 1_555
O2 V10 1.961491 1_555
O2 V4 2.049456 1_455
O3 V7 1.869500 1_555
O3 V11 1.961491 1_555
O3 V5 2.049456 1_655
O4 V6 1.835292 1_555
O4 V4 2.020791 1_555
O4 V2 2.042381 1_555
O5 V7 1.835292 1_555
O5 V5 2.020791 1_555
O5 V3 2.042381 1_555
O6 V10 1.853649 1_555
O6 V2 1.962616 1_555
O6 V8 2.022435 1_555
O7 V11 1.853649 1_555
O7 V3 1.962616 1_555
O7 V9 2.022435 1_555
O8 V0 1.862104 1_555
O8 V10 1.994465 1_655
O8 V8 2.034496 1_655
O9 V1 1.862104 1_555
O9 V11 1.994465 1_455
O9 V9 2.034496 1_455
O10 V6 1.623112 1_555
O11 V7 1.623112 1_555
O12 V4 1.639705 1_555
O13 V5 1.639705 1_555
O14 V0 1.734498 1_546
O14 V9 1.952979 1_555
O15 V1 1.734498 1_564
O15 V8 1.952979 1_555
O16 V0 1.848901 1_555
O16 V8 2.034750 1_555
O16 V2 2.039615 1_555
O17 V1 1.848901 1_555
O17 V9 2.034750 1_555
O17 V3 2.039615 1_555
O18 V0 1.625645 1_545
O19 V1 1.625645 1_565
O20 V10 1.608843 1_555
O21 V11 1.608843 1_555
O22 V2 1.635278 1_555
O23 V3 1.635278 1_555
O24 V10 1.856922 1_655
O24 V2 1.957261 1_555
O24 V4 2.009062 1_555
O25 V11 1.856922 1_455
O25 V3 1.957261 1_555
O25 V5 2.009062 1_555
O26 V8 1.635508 1_555
O27 V9 1.635508 1_555
