# generated using pymatgen
data_RbMg14Cr
_symmetry_space_group_name_H-M   'P 1'
_cell_length_a   6.49458638
_cell_length_b   6.54815710
_cell_length_c   10.66270687
_cell_angle_alpha   90.00000000
_cell_angle_beta   90.00000000
_cell_angle_gamma   120.27324149
_symmetry_Int_Tables_number   1
_chemical_formula_structural   RbMg14Cr
_chemical_formula_sum   'Rb1 Mg14 Cr1'
_cell_volume   391.62131601
_cell_formula_units_Z   1
loop_
 _symmetry_equiv_pos_site_id
 _symmetry_equiv_pos_as_xyz
  1  'x, y, z'
loop_
 _atom_site_type_symbol
 _atom_site_label
 _atom_site_symmetry_multiplicity
 _atom_site_fract_x
 _atom_site_fract_y
 _atom_site_fract_z
 _atom_site_occupancy
  Rb  Rb0  1  0.16630383  0.33315142  0.12500000  1
  Mg  Mg0  1  0.16834987  0.33417444  0.62500000  1
  Mg  Mg1  1  0.16485172  0.83242536  0.62500000  1
  Mg  Mg2  1  0.66378348  0.32827738  0.12500000  1
  Mg  Mg3  1  0.66694619  0.33616640  0.62500000  1
  Mg  Mg4  1  0.66378348  0.83550510  0.12500000  1
  Mg  Mg5  1  0.66694619  0.83077879  0.62500000  1
  Mg  Mg6  1  0.33690623  0.15776440  0.38649248  1
  Mg  Mg7  1  0.33690623  0.15776440  0.86350752  1
  Mg  Mg8  1  0.33690623  0.67914284  0.38649248  1
  Mg  Mg9  1  0.33690623  0.67914284  0.86350752  1
  Mg  Mg10  1  0.82290447  0.16145274  0.39228539  1
  Mg  Mg11  1  0.82290447  0.16145274  0.85771461  1
  Mg  Mg12  1  0.83704709  0.66852404  0.36706064  1
  Mg  Mg13  1  0.83704709  0.66852404  0.88293936  1
  Cr  Cr0  1  0.17150718  0.83575309  0.12500000  1
loop_
_geom_bond_atom_site_label_1
_geom_bond_atom_site_label_2
_geom_bond_distance
_geom_bond_site_symmetry_2
Mg0 Mg10 3.148237 1_455
Mg0 Mg11 3.148237 1_455
Mg0 Mg6 3.205511 1_555
Mg0 Mg7 3.205511 1_555
Mg0 Mg8 3.205518 1_555
Mg0 Mg9 3.205518 1_555
Mg0 Mg5 3.231621 1_555
Mg0 Mg3 3.231621 1_555
Mg0 Mg5 3.263004 1_445
Mg0 Mg3 3.263005 1_455
Mg0 Mg1 3.274137 1_555
Mg0 Mg1 3.274137 1_545
Mg1 Mg8 3.139180 1_555
Mg1 Mg9 3.139180 1_555
Mg1 Mg6 3.139187 1_565
Mg1 Mg7 3.139187 1_565
Mg1 Mg3 3.228268 1_455
Mg1 Mg5 3.228268 1_455
Mg1 Mg3 3.266344 1_565
Mg1 Mg5 3.266345 1_555
Mg1 Mg12 3.308307 1_455
Mg1 Mg13 3.308307 1_455
Mg2 Mg4 3.226750 1_545
Mg2 Rb0 3.247131 1_555
Mg2 Rb0 3.247689 1_655
Mg2 Mg4 3.321407 1_555
Mg2 Mg6 3.337330 1_555
Mg2 Mg7 3.337330 1_554
Mg3 Mg6 3.146752 1_555
Mg3 Mg7 3.146752 1_555
Mg3 Mg5 3.238800 1_555
Mg3 Mg5 3.309357 1_545
Mg4 Rb0 3.247131 1_555
Mg4 Rb0 3.247689 1_665
Mg4 Mg9 3.337330 1_554
Mg4 Mg8 3.337330 1_555
Mg5 Mg8 3.146752 1_555
Mg5 Mg9 3.146752 1_555
Mg6 Mg8 3.134089 1_545
Mg6 Rb0 3.406428 1_555
Mg6 Mg8 3.414068 1_555
Mg7 Mg9 3.134089 1_545
Mg7 Rb0 3.406428 1_556
Mg7 Mg9 3.414068 1_555
Mg8 Rb0 3.406434 1_555
Mg9 Rb0 3.406434 1_556
Mg10 Mg3 3.108107 1_555
Mg10 Mg5 3.108114 1_545
Mg10 Mg8 3.144858 1_545
Mg10 Mg6 3.144858 1_555
Mg10 Mg12 3.286065 1_555
Mg10 Mg12 3.286065 1_545
Mg10 Mg8 3.351038 1_655
Mg10 Mg6 3.351039 1_655
Mg10 Mg2 3.394397 1_555
Mg10 Mg4 3.394403 1_545
Mg10 Rb0 3.439809 1_655
Mg11 Mg3 3.108107 1_555
Mg11 Mg5 3.108114 1_545
Mg11 Mg9 3.144858 1_545
Mg11 Mg7 3.144858 1_555
Mg11 Mg13 3.286065 1_555
Mg11 Mg13 3.286065 1_545
Mg11 Mg9 3.351038 1_655
Mg11 Mg7 3.351039 1_655
Mg11 Mg2 3.394397 1_556
Mg11 Mg4 3.394403 1_546
Mg11 Rb0 3.439809 1_656
Mg12 Mg6 3.218562 1_665
Mg12 Mg8 3.218562 1_655
Mg12 Mg4 3.219321 1_555
Mg12 Mg2 3.219328 1_555
Mg12 Mg6 3.290341 1_555
Mg12 Mg8 3.290341 1_555
Mg12 Mg5 3.331221 1_555
Mg12 Mg3 3.331228 1_555
Mg13 Mg7 3.218562 1_665
Mg13 Mg9 3.218562 1_655
Mg13 Mg4 3.219321 1_556
Mg13 Mg2 3.219328 1_556
Mg13 Mg7 3.290341 1_555
Mg13 Mg9 3.290341 1_555
Mg13 Mg5 3.331221 1_555
Mg13 Mg3 3.331228 1_555
Cr0 Mg13 3.190753 1_454
Cr0 Mg12 3.190753 1_455
Cr0 Mg2 3.197950 1_565
Cr0 Mg4 3.197950 1_555
Cr0 Rb0 3.274209 1_555
Cr0 Rb0 3.274209 1_565
Cr0 Mg2 3.296637 1_455
Cr0 Mg4 3.296637 1_455
Cr0 Mg9 3.330227 1_554
Cr0 Mg8 3.330227 1_555
Cr0 Mg6 3.330233 1_565
Cr0 Mg7 3.330233 1_564
