# generated using pymatgen
data_FeTeAs
_symmetry_space_group_name_H-M   'P 1'
_cell_length_a   6.09569328
_cell_length_b   6.19396907
_cell_length_c   6.22593960
_cell_angle_alpha   114.08063088
_cell_angle_beta   90.00000000
_cell_angle_gamma   90.00000000
_symmetry_Int_Tables_number   1
_chemical_formula_structural   FeTeAs
_chemical_formula_sum   'Fe4 Te4 As4'
_cell_volume   214.61228479
_cell_formula_units_Z   4
loop_
 _symmetry_equiv_pos_site_id
 _symmetry_equiv_pos_as_xyz
  1  'x, y, z'
loop_
 _atom_site_type_symbol
 _atom_site_label
 _atom_site_symmetry_multiplicity
 _atom_site_fract_x
 _atom_site_fract_y
 _atom_site_fract_z
 _atom_site_occupancy
  Fe  Fe0  1  0.50927553  0.71471371  0.20755301  1
  Fe  Fe1  1  0.00927553  0.28528629  0.29244699  1
  Fe  Fe2  1  0.49072447  0.28528629  0.79244699  1
  Fe  Fe3  1  0.99072447  0.71471371  0.70755301  1
  Te  Te0  1  0.12869178  0.84623742  0.13336223  1
  Te  Te1  1  0.62869178  0.15376258  0.36663777  1
  Te  Te2  1  0.87130822  0.15376258  0.86663777  1
  Te  Te3  1  0.37130822  0.84623742  0.63336223  1
  As  As0  1  0.85206036  0.64307802  0.33755655  1
  As  As1  1  0.35206036  0.35692198  0.16244345  1
  As  As2  1  0.14793964  0.35692198  0.66244345  1
  As  As3  1  0.64793964  0.64307802  0.83755655  1
loop_
_geom_bond_atom_site_label_1
_geom_bond_atom_site_label_2
_geom_bond_distance
_geom_bond_site_symmetry_2
Fe0 Te0 2.562446 1_555
Fe0 Te3 2.576175 1_555
Fe0 Te1 2.590039 1_565
Fe1 Te1 2.562446 1_455
Fe1 Te2 2.576175 1_454
Fe1 Te0 2.590039 1_545
Fe2 Te2 2.562446 1_555
Fe2 Te1 2.576175 1_555
Fe2 Te3 2.590039 1_545
Fe3 Te3 2.562446 1_655
Fe3 Te0 2.576175 1_656
Fe3 Te2 2.590039 1_565
As0 Fe3 2.320280 1_555
As0 Fe1 2.323940 1_655
As0 Fe0 2.347578 1_555
As0 Te0 2.710836 1_655
As1 Fe2 2.320280 1_554
As1 Fe0 2.323940 1_555
As1 Fe1 2.347578 1_555
As1 Te1 2.710836 1_555
As2 Fe1 2.320280 1_555
As2 Fe3 2.323940 1_455
As2 Fe2 2.347578 1_555
As2 Te2 2.710836 1_455
As3 Fe0 2.320280 1_556
As3 Fe2 2.323940 1_555
As3 Fe3 2.347578 1_555
As3 Te3 2.710836 1_555
