# generated using pymatgen
data_Cs3NiF7
_symmetry_space_group_name_H-M   'P 1'
_cell_length_a   8.26900280
_cell_length_b   8.26900280
_cell_length_c   6.17113338
_cell_angle_alpha   90.00000000
_cell_angle_beta   90.00000000
_cell_angle_gamma   90.00000000
_symmetry_Int_Tables_number   1
_chemical_formula_structural   Cs3NiF7
_chemical_formula_sum   'Cs6 Ni2 F14'
_cell_volume   421.95992953
_cell_formula_units_Z   2
loop_
 _symmetry_equiv_pos_site_id
 _symmetry_equiv_pos_as_xyz
  1  'x, y, z'
loop_
 _atom_site_type_symbol
 _atom_site_label
 _atom_site_symmetry_multiplicity
 _atom_site_fract_x
 _atom_site_fract_y
 _atom_site_fract_z
 _atom_site_occupancy
  Cs  Cs0  1  0.19223737  0.69223737  0.50000000  1
  Cs  Cs1  1  0.69223737  0.80776263  0.50000000  1
  Cs  Cs2  1  0.30776263  0.19223737  0.50000000  1
  Cs  Cs3  1  0.80776263  0.30776263  0.50000000  1
  Cs  Cs4  1  0.50000000  0.50000000  -0.00000000  1
  Cs  Cs5  1  0.00000000  -0.00000000  -0.00000000  1
  Ni  Ni0  1  0.00000000  0.50000000  -0.00000000  1
  Ni  Ni1  1  0.50000000  -0.00000000  -0.00000000  1
  F  F0  1  0.39239033  0.89239033  0.79444120  1
  F  F1  1  0.60760967  0.10760967  0.79444120  1
  F  F2  1  0.10760967  0.39239033  0.79444120  1
  F  F3  1  0.89239033  0.60760967  0.79444120  1
  F  F4  1  0.39239033  0.89239033  0.20555880  1
  F  F5  1  0.89239033  0.60760967  0.20555880  1
  F  F6  1  0.10760967  0.39239033  0.20555880  1
  F  F7  1  0.60760967  0.10760967  0.20555880  1
  F  F8  1  0.00000000  -0.00000000  0.50000000  1
  F  F9  1  0.50000000  0.50000000  0.50000000  1
  F  F10  1  0.84740761  0.34740761  -0.00000000  1
  F  F11  1  0.34740761  0.15259239  -0.00000000  1
  F  F12  1  0.65259239  0.84740761  -0.00000000  1
  F  F13  1  0.15259239  0.65259239  -0.00000000  1
loop_
_geom_bond_atom_site_label_1
_geom_bond_atom_site_label_2
_geom_bond_distance
_geom_bond_site_symmetry_2
Cs0 F0 2.963124 1_555
Cs0 F4 2.963124 1_555
Cs0 F9 3.000555 1_555
Cs0 F8 3.000555 1_565
Cs0 F13 3.120202 1_556
Cs0 F13 3.120202 1_555
Cs0 F3 3.152606 1_455
Cs0 F2 3.152606 1_555
Cs0 F5 3.152606 1_455
Cs0 F6 3.152606 1_555
Cs1 F3 2.963124 1_555
Cs1 F5 2.963124 1_555
Cs1 F8 3.000555 1_665
Cs1 F9 3.000555 1_555
Cs1 F12 3.120202 1_556
Cs1 F12 3.120202 1_555
Cs1 F0 3.152606 1_555
Cs1 F1 3.152606 1_565
Cs1 F7 3.152606 1_565
Cs1 F4 3.152606 1_555
Cs2 F2 2.963124 1_555
Cs2 F6 2.963124 1_555
Cs2 F8 3.000555 1_555
Cs2 F9 3.000555 1_555
Cs2 F11 3.120202 1_555
Cs2 F11 3.120202 1_556
Cs2 F1 3.152606 1_555
Cs2 F0 3.152606 1_545
Cs2 F4 3.152606 1_545
Cs2 F7 3.152606 1_555
Cs3 F1 2.963124 1_555
Cs3 F7 2.963124 1_555
Cs3 F8 3.000555 1_655
Cs3 F9 3.000555 1_555
Cs3 F10 3.120202 1_556
Cs3 F10 3.120202 1_555
Cs3 F2 3.152606 1_655
Cs3 F3 3.152606 1_555
Cs3 F6 3.152606 1_655
Cs3 F5 3.152606 1_555
Cs4 F9 3.085567 1_555
Cs4 F9 3.085567 1_554
Cs4 F11 3.137610 1_555
Cs4 F12 3.137610 1_555
Cs4 F10 3.137610 1_555
Cs4 F13 3.137610 1_555
Cs5 F8 3.085567 1_555
Cs5 F8 3.085567 1_554
Cs5 F13 3.137610 1_545
Cs5 F12 3.137610 1_445
Cs5 F11 3.137610 1_555
Cs5 F10 3.137610 1_455
F0 Ni1 1.786826 1_566
F1 Ni1 1.786826 1_556
F2 Ni0 1.786826 1_556
F3 Ni0 1.786826 1_656
F4 Ni1 1.786826 1_565
F5 Ni0 1.786826 1_655
F6 Ni0 1.786826 1_555
F7 Ni1 1.786826 1_555
F10 Ni0 1.784436 1_655
F11 Ni1 1.784436 1_555
F12 Ni1 1.784436 1_565
F13 Ni0 1.784436 1_555
