# generated using pymatgen
data_Tm(MnAl2)4
_symmetry_space_group_name_H-M   'P 1'
_cell_length_a   5.14401200
_cell_length_b   6.69678568
_cell_length_c   6.69678568
_cell_angle_alpha   81.51754795
_cell_angle_beta   67.41424700
_cell_angle_gamma   67.41424700
_symmetry_Int_Tables_number   1
_chemical_formula_structural   Tm(MnAl2)4
_chemical_formula_sum   'Tm1 Mn4 Al8'
_cell_volume   196.66444461
_cell_formula_units_Z   1
loop_
 _symmetry_equiv_pos_site_id
 _symmetry_equiv_pos_as_xyz
  1  'x, y, z'
loop_
 _atom_site_type_symbol
 _atom_site_label
 _atom_site_symmetry_multiplicity
 _atom_site_fract_x
 _atom_site_fract_y
 _atom_site_fract_z
 _atom_site_occupancy
  Tm  Tm0  1  0.00000000  0.00000000  0.00000000  1
  Mn  Mn0  1  0.50000000  0.50000000  0.00000000  1
  Mn  Mn1  1  0.00000000  0.50000000  0.00000000  1
  Mn  Mn2  1  0.00000000  0.00000000  0.50000000  1
  Mn  Mn3  1  0.50000000  0.00000000  0.50000000  1
  Al  Al0  1  0.00000000  0.66434000  0.33566000  1
  Al  Al1  1  0.00000000  0.33566000  0.66434000  1
  Al  Al2  1  0.66434000  0.33566000  0.33566000  1
  Al  Al3  1  0.33566000  0.66434000  0.66434000  1
  Al  Al4  1  0.50000000  0.22347900  0.77652100  1
  Al  Al5  1  0.50000000  0.77652100  0.22347900  1
  Al  Al6  1  0.72347900  0.77652100  0.77652100  1
  Al  Al7  1  0.27652100  0.22347900  0.22347900  1
loop_
_geom_bond_atom_site_label_1
_geom_bond_atom_site_label_2
_geom_bond_distance
_geom_bond_site_symmetry_2
Mn0 Mn1 2.572006 1_655
Mn0 Mn1 2.572006 1_555
Mn0 Tm0 3.348393 1_655
Mn0 Tm0 3.348393 1_565
Mn1 Tm0 3.348393 1_555
Mn1 Tm0 3.348393 1_565
Mn2 Mn3 2.572006 1_455
Mn2 Mn3 2.572006 1_555
Mn2 Tm0 3.348393 1_555
Mn2 Tm0 3.348393 1_556
Mn3 Tm0 3.348393 1_655
Mn3 Tm0 3.348393 1_556
Al0 Mn3 2.644585 1_465
Al0 Mn1 2.644585 1_555
Al0 Mn2 2.644585 1_565
Al0 Mn0 2.644585 1_555
Al0 Al5 2.752721 1_555
Al0 Al5 2.752721 1_455
Al0 Al6 2.812790 1_455
Al0 Al7 2.812790 1_555
Al0 Al1 2.874089 1_555
Al0 Tm0 2.935124 1_565
Al1 Mn1 2.644585 1_556
Al1 Mn0 2.644585 1_456
Al1 Mn3 2.644585 1_555
Al1 Mn2 2.644585 1_555
Al1 Al4 2.752721 1_455
Al1 Al4 2.752721 1_555
Al1 Al6 2.812790 1_455
Al1 Al7 2.812790 1_555
Al1 Tm0 2.935124 1_556
Al2 Mn1 2.644585 1_655
Al2 Mn3 2.644585 1_555
Al2 Mn2 2.644585 1_655
Al2 Mn0 2.644585 1_555
Al2 Al7 2.752721 1_655
Al2 Al7 2.752721 1_555
Al2 Al4 2.812790 1_555
Al2 Al5 2.812790 1_555
Al2 Al3 2.874089 1_555
Al2 Tm0 2.935124 1_655
Al3 Mn3 2.644585 1_565
Al3 Mn0 2.644585 1_556
Al3 Mn2 2.644585 1_565
Al3 Mn1 2.644585 1_556
Al3 Al6 2.752721 1_555
Al3 Al6 2.752721 1_455
Al3 Al5 2.812790 1_555
Al3 Al4 2.812790 1_555
Al3 Tm0 2.935124 1_566
Al4 Mn0 2.546871 1_556
Al4 Mn2 2.546871 1_655
Al4 Mn1 2.546871 1_556
Al4 Mn3 2.546871 1_555
Al4 Al7 2.763622 1_556
Al4 Al6 2.763622 1_545
Al4 Tm0 3.230173 1_556
Al4 Tm0 3.230173 1_656
Al5 Mn2 2.546871 1_565
Al5 Mn0 2.546871 1_555
Al5 Mn3 2.546871 1_565
Al5 Mn1 2.546871 1_655
Al5 Al7 2.763622 1_565
Al5 Al6 2.763622 1_554
Al5 Tm0 3.230173 1_565
Al5 Tm0 3.230173 1_665
Al6 Mn0 2.546871 1_556
Al6 Mn2 2.546871 1_665
Al6 Mn1 2.546871 1_656
Al6 Mn3 2.546871 1_565
Al6 Tm0 3.230173 1_566
Al6 Tm0 3.230173 1_666
Al7 Mn3 2.546871 1_555
Al7 Mn0 2.546871 1_555
Al7 Mn1 2.546871 1_555
Al7 Mn2 2.546871 1_555
Al7 Tm0 3.230173 1_655
Al7 Tm0 3.230173 1_555
