# generated using pymatgen
data_BaSrEuBiO6
_symmetry_space_group_name_H-M   'P 1'
_cell_length_a   6.10794000
_cell_length_b   6.22574754
_cell_length_c   8.70914008
_cell_angle_alpha   90.14926096
_cell_angle_beta   89.81327248
_cell_angle_gamma   89.87595902
_symmetry_Int_Tables_number   1
_chemical_formula_structural   BaSrEuBiO6
_chemical_formula_sum   'Ba2 Sr2 Eu2 Bi2 O12'
_cell_volume   331.17438453
_cell_formula_units_Z   2
loop_
 _symmetry_equiv_pos_site_id
 _symmetry_equiv_pos_as_xyz
  1  'x, y, z'
loop_
 _atom_site_type_symbol
 _atom_site_label
 _atom_site_symmetry_multiplicity
 _atom_site_fract_x
 _atom_site_fract_y
 _atom_site_fract_z
 _atom_site_occupancy
  Ba  Ba0  1  0.99054631  0.04010623  0.24971236  1
  Ba  Ba1  1  0.00945369  0.95989377  0.75028764  1
  Sr  Sr0  1  0.51166386  0.54734536  0.25094196  1
  Sr  Sr1  1  0.48833614  0.45265464  0.74905804  1
  Eu  Eu0  1  0.50000000  0.00000000  0.00000000  1
  Eu  Eu1  1  -0.00000000  0.50000000  0.50000000  1
  Bi  Bi0  1  -0.00000000  0.50000000  0.00000000  1
  Bi  Bi1  1  0.50000000  0.00000000  0.50000000  1
  O  O0  1  0.20163265  0.22143417  0.95606517  1
  O  O1  1  0.30688796  0.71422798  0.54700379  1
  O  O2  1  0.79836735  0.77856583  0.04393483  1
  O  O3  1  0.69311204  0.28577202  0.45299621  1
  O  O4  1  0.28451790  0.69607900  0.95098938  1
  O  O5  1  0.22033093  0.20433019  0.54065649  1
  O  O6  1  0.71548210  0.30392100  0.04901062  1
  O  O7  1  0.77966907  0.79566981  0.45934351  1
  O  O8  1  0.42605311  0.96328685  0.25930535  1
  O  O9  1  0.09407863  0.48507135  0.23988265  1
  O  O10  1  0.57394689  0.03671315  0.74069465  1
  O  O11  1  0.90592137  0.51492865  0.76011735  1
loop_
_geom_bond_atom_site_label_1
_geom_bond_atom_site_label_2
_geom_bond_distance
_geom_bond_site_symmetry_2
Ba0 O2 2.692160 1_545
Ba0 O8 2.703280 1_645
Ba0 O7 2.704760 1_545
Ba0 O9 2.844278 1_655
Ba0 O6 2.932187 1_555
Ba0 O3 2.954145 1_555
Ba0 O5 3.074343 1_655
Ba0 O0 3.078464 1_654
Ba1 O0 2.692160 1_565
Ba1 O10 2.703280 1_465
Ba1 O5 2.704760 1_565
Ba1 O11 2.844278 1_455
Ba1 O4 2.932187 1_555
Ba1 O1 2.954145 1_555
Ba1 O7 3.074343 1_455
Ba1 O2 3.078464 1_456
Eu0 O8 2.313605 1_545
Eu0 O10 2.313605 1_554
Eu0 O0 2.316144 1_554
Eu0 O2 2.316144 1_545
Eu0 O4 2.346244 1_544
Eu0 O6 2.346244 1_555
Eu1 O7 2.306656 1_455
Eu1 O5 2.306656 1_555
Eu1 O11 2.336889 1_455
Eu1 O9 2.336889 1_555
Eu1 O3 2.339438 1_455
Eu1 O1 2.339438 1_555
Bi0 O2 2.157568 1_455
Bi0 O0 2.157568 1_554
Bi0 O4 2.167827 1_554
Bi0 O6 2.167827 1_455
Bi0 O11 2.170732 1_454
Bi0 O9 2.170732 1_555
Bi1 O7 2.155433 1_545
Bi1 O5 2.155433 1_555
Bi1 O8 2.157452 1_545
Bi1 O10 2.157452 1_555
Bi1 O1 2.175759 1_545
Bi1 O3 2.175759 1_555
O0 Sr1 2.897059 1_555
O1 Sr1 2.645126 1_555
O1 Sr0 3.041648 1_555
O2 Sr0 2.897059 1_555
O3 Sr0 2.645126 1_555
O3 Sr1 3.041648 1_555
O4 Sr1 2.627366 1_555
O4 Sr0 3.104388 1_556
O5 Sr1 2.894770 1_555
O6 Sr0 2.627366 1_555
O6 Sr1 3.104388 1_554
O7 Sr0 2.894770 1_555
O8 Sr0 2.641476 1_555
O9 Sr0 2.582782 1_555
O10 Sr1 2.641476 1_555
O11 Sr1 2.582782 1_555
