# generated using pymatgen
data_Dy2(MoO4)3
_symmetry_space_group_name_H-M   'P 1'
_cell_length_a   6.92076674
_cell_length_b   6.92076674
_cell_length_c   11.42452167
_cell_angle_alpha   79.35814690
_cell_angle_beta   79.35814690
_cell_angle_gamma   112.45982913
_symmetry_Int_Tables_number   1
_chemical_formula_structural   Dy2(MoO4)3
_chemical_formula_sum   'Dy4 Mo6 O24'
_cell_volume   476.97124423
_cell_formula_units_Z   2
loop_
 _symmetry_equiv_pos_site_id
 _symmetry_equiv_pos_as_xyz
  1  'x, y, z'
loop_
 _atom_site_type_symbol
 _atom_site_label
 _atom_site_symmetry_multiplicity
 _atom_site_fract_x
 _atom_site_fract_y
 _atom_site_fract_z
 _atom_site_occupancy
  Dy  Dy0  1  0.54407200  0.78832600  0.90881400  1
  Dy  Dy1  1  0.45592800  0.21167400  0.09118600  1
  Dy  Dy2  1  0.21167400  0.45592800  0.59118600  1
  Dy  Dy3  1  0.78832600  0.54407200  0.40881400  1
  Mo  Mo0  1  0.74560600  0.96184000  0.55085800  1
  Mo  Mo1  1  0.25439400  0.03816000  0.44914200  1
  Mo  Mo2  1  0.03816000  0.25439400  0.94914200  1
  Mo  Mo3  1  0.96184000  0.74560600  0.05085800  1
  Mo  Mo4  1  0.63127600  0.36872400  0.75000000  1
  Mo  Mo5  1  0.36872400  0.63127600  0.25000000  1
  O  O0  1  0.57602400  0.15818000  0.89233800  1
  O  O1  1  0.42397600  0.84182000  0.10766200  1
  O  O2  1  0.84182000  0.42397600  0.60766200  1
  O  O3  1  0.15818000  0.57602400  0.39233800  1
  O  O4  1  0.37608200  0.29349900  0.71742400  1
  O  O5  1  0.62391800  0.70650100  0.28257600  1
  O  O6  1  0.70650100  0.62391800  0.78257600  1
  O  O7  1  0.29349900  0.37608200  0.21742400  1
  O  O8  1  0.58360300  0.68350800  0.53791800  1
  O  O9  1  0.41639700  0.31649200  0.46208200  1
  O  O10  1  0.31649200  0.41639700  0.96208200  1
  O  O11  1  0.68350800  0.58360300  0.03791800  1
  O  O12  1  0.89775400  0.97506400  0.92326500  1
  O  O13  1  0.10224600  0.02493600  0.07673500  1
  O  O14  1  0.02493600  0.10224600  0.57673500  1
  O  O15  1  0.97506400  0.89775400  0.42326500  1
  O  O16  1  0.59468800  0.94991000  0.70100900  1
  O  O17  1  0.40531200  0.05009000  0.29899100  1
  O  O18  1  0.05009000  0.40531200  0.79899100  1
  O  O19  1  0.94991000  0.59468800  0.20100900  1
  O  O20  1  0.26787800  0.83167600  0.55883900  1
  O  O21  1  0.73212200  0.16832400  0.44116100  1
  O  O22  1  0.16832400  0.73212200  0.94116100  1
  O  O23  1  0.83167600  0.26787800  0.05883900  1
loop_
_geom_bond_atom_site_label_1
_geom_bond_atom_site_label_2
_geom_bond_distance
_geom_bond_site_symmetry_2
Dy0 O16 2.328619 1_555
Dy0 O10 2.333767 1_555
Dy0 O12 2.345199 1_555
Dy0 O6 2.371264 1_555
Dy0 O1 2.416002 1_556
Dy0 O22 2.422682 1_555
Dy0 O11 2.431603 1_556
Dy0 O0 2.451622 1_565
Dy1 O17 2.328619 1_555
Dy1 O11 2.333767 1_555
Dy1 O13 2.345199 1_555
Dy1 O7 2.371264 1_555
Dy1 O0 2.416002 1_554
Dy1 O23 2.422682 1_555
Dy1 O10 2.431603 1_554
Dy1 O1 2.451622 1_545
Dy2 O18 2.328619 1_555
Dy2 O8 2.333767 1_555
Dy2 O14 2.345199 1_555
Dy2 O4 2.371264 1_555
Dy2 O3 2.416002 1_555
Dy2 O20 2.422682 1_555
Dy2 O9 2.431603 1_555
Dy2 O2 2.451622 1_455
Dy3 O19 2.328619 1_555
Dy3 O9 2.333767 1_555
Dy3 O15 2.345199 1_555
Dy3 O5 2.371264 1_555
Dy3 O2 2.416002 1_555
Dy3 O21 2.422682 1_555
Dy3 O8 2.431603 1_555
Dy3 O3 2.451622 1_655
Mo0 O21 1.762119 1_565
Mo0 O16 1.805658 1_555
Mo0 O8 1.872339 1_555
Mo0 O14 1.910675 1_665
Mo0 O15 2.182974 1_555
Mo1 O20 1.762119 1_545
Mo1 O17 1.805658 1_555
Mo1 O9 1.872339 1_555
Mo1 O15 1.910675 1_445
Mo1 O14 2.182974 1_555
Mo2 O23 1.762119 1_456
Mo2 O18 1.805658 1_555
Mo2 O10 1.872339 1_555
Mo2 O12 1.910675 1_445
Mo2 O13 2.182974 1_556
Mo3 O22 1.762119 1_654
Mo3 O19 1.805658 1_555
Mo3 O11 1.872339 1_555
Mo3 O13 1.910675 1_665
Mo3 O12 2.182974 1_554
Mo4 O4 1.772165 1_555
Mo4 O6 1.772165 1_555
Mo4 O0 1.839359 1_555
Mo4 O2 1.839359 1_555
Mo5 O7 1.772165 1_555
Mo5 O5 1.772165 1_555
Mo5 O3 1.839359 1_555
Mo5 O1 1.839359 1_555
