# generated using pymatgen
data_ErMn2O4
_symmetry_space_group_name_H-M   'P 1'
_cell_length_a   6.44521320
_cell_length_b   6.44521320
_cell_length_c   6.24460514
_cell_angle_alpha   61.42198281
_cell_angle_beta   61.42198281
_cell_angle_gamma   57.40381431
_symmetry_Int_Tables_number   1
_chemical_formula_structural   ErMn2O4
_chemical_formula_sum   'Er2 Mn4 O8'
_cell_volume   183.18538493
_cell_formula_units_Z   2
loop_
 _symmetry_equiv_pos_site_id
 _symmetry_equiv_pos_as_xyz
  1  'x, y, z'
loop_
 _atom_site_type_symbol
 _atom_site_label
 _atom_site_symmetry_multiplicity
 _atom_site_fract_x
 _atom_site_fract_y
 _atom_site_fract_z
 _atom_site_occupancy
  Er  Er0  1  0.12525500  0.12525500  0.11187900  1
  Er  Er1  1  0.87474500  0.87474500  0.88812100  1
  Mn  Mn0  1  0.50000000  0.50000000  0.00000000  1
  Mn  Mn1  1  0.50000000  0.50000000  0.50000000  1
  Mn  Mn2  1  0.50000000  0.00000000  0.50000000  1
  Mn  Mn3  1  0.00000000  0.50000000  0.50000000  1
  O  O0  1  0.73346100  0.73346100  0.29437100  1
  O  O1  1  0.75171400  0.75171400  0.72128500  1
  O  O2  1  0.73072300  0.28529500  0.76613600  1
  O  O3  1  0.28529500  0.73072300  0.76613600  1
  O  O4  1  0.26653900  0.26653900  0.70562900  1
  O  O5  1  0.24828600  0.24828600  0.27871500  1
  O  O6  1  0.26927700  0.71470500  0.23386400  1
  O  O7  1  0.71470500  0.26927700  0.23386400  1
loop_
_geom_bond_atom_site_label_1
_geom_bond_atom_site_label_2
_geom_bond_distance
_geom_bond_site_symmetry_2
Er0 O6 2.131981 1_545
Er0 O7 2.131981 1_455
Er0 O4 2.137137 1_554
Er0 O5 2.145035 1_555
Er1 O3 2.131981 1_655
Er1 O2 2.131981 1_565
Er1 O0 2.137137 1_556
Er1 O1 2.145035 1_555
Mn0 O3 1.974243 1_554
Mn0 O2 1.974243 1_554
Mn0 O6 1.974243 1_555
Mn0 O7 1.974243 1_555
Mn0 O1 2.392961 1_554
Mn0 O5 2.392961 1_555
Mn1 O7 2.198920 1_555
Mn1 O6 2.198920 1_555
Mn1 O3 2.198920 1_555
Mn1 O2 2.198920 1_555
Mn1 O4 2.218007 1_555
Mn1 O0 2.218007 1_555
Mn2 O1 2.081905 1_545
Mn2 O5 2.081905 1_555
Mn2 O0 2.083503 1_545
Mn2 O4 2.083503 1_555
Mn2 O3 2.305859 1_545
Mn2 O7 2.305859 1_555
Mn3 O1 2.081905 1_455
Mn3 O5 2.081905 1_555
Mn3 O0 2.083503 1_455
Mn3 O4 2.083503 1_555
Mn3 O6 2.305859 1_555
Mn3 O2 2.305859 1_455
