# generated using pymatgen
data_PrThUS5
_symmetry_space_group_name_H-M   'P 1'
_cell_length_a   7.48865300
_cell_length_b   8.07899700
_cell_length_c   12.04446600
_cell_angle_alpha   90.00000000
_cell_angle_beta   90.00000000
_cell_angle_gamma   90.00000000
_symmetry_Int_Tables_number   1
_chemical_formula_structural   PrThUS5
_chemical_formula_sum   'Pr4 Th4 U4 S20'
_cell_volume   728.69989025
_cell_formula_units_Z   4
loop_
 _symmetry_equiv_pos_site_id
 _symmetry_equiv_pos_as_xyz
  1  'x, y, z'
loop_
 _atom_site_type_symbol
 _atom_site_label
 _atom_site_symmetry_multiplicity
 _atom_site_fract_x
 _atom_site_fract_y
 _atom_site_fract_z
 _atom_site_occupancy
  Pr  Pr0  1  0.97656700  0.75086200  0.92982600  1
  Pr  Pr1  1  0.52343300  0.24913800  0.42982600  1
  Pr  Pr2  1  0.02343300  0.25086200  0.57017400  1
  Pr  Pr3  1  0.47656700  0.74913800  0.07017400  1
  Th  Th0  1  0.02281200  0.75063500  0.57375900  1
  Th  Th1  1  0.47718800  0.24936500  0.07375900  1
  Th  Th2  1  0.97718800  0.25063500  0.92624100  1
  Th  Th3  1  0.52281200  0.74936500  0.42624100  1
  U  U0  1  0.42917700  0.49881500  0.75596500  1
  U  U1  1  0.07082300  0.50118500  0.25596500  1
  U  U2  1  0.57082300  0.99881500  0.74403500  1
  U  U3  1  0.92917700  0.00118500  0.24403500  1
  S  S0  1  0.66212700  0.29057800  0.65437100  1
  S  S1  1  0.83787300  0.70942200  0.15437100  1
  S  S2  1  0.33787300  0.79057800  0.84562900  1
  S  S3  1  0.16212700  0.20942200  0.34562900  1
  S  S4  1  0.33577900  0.20825100  0.85068600  1
  S  S5  1  0.16422100  0.79174900  0.35068600  1
  S  S6  1  0.66422100  0.70825100  0.64931400  1
  S  S7  1  0.83577900  0.29174900  0.14931400  1
  S  S8  1  0.30234400  0.50765800  0.53546100  1
  S  S9  1  0.19765600  0.49234200  0.03546100  1
  S  S10  1  0.69765600  0.00765800  0.96453900  1
  S  S11  1  0.80234400  0.99234200  0.46453900  1
  S  S12  1  0.67062400  0.49134200  0.93650800  1
  S  S13  1  0.82937600  0.50865800  0.43650800  1
  S  S14  1  0.32937600  0.99134200  0.56349200  1
  S  S15  1  0.17062400  0.00865800  0.06349200  1
  S  S16  1  0.04106600  0.50042900  0.75052400  1
  S  S17  1  0.45893400  0.49957100  0.25052400  1
  S  S18  1  0.95893400  0.00042900  0.74947600  1
  S  S19  1  0.54106600  0.99957100  0.24947600  1
loop_
_geom_bond_atom_site_label_1
_geom_bond_atom_site_label_2
_geom_bond_distance
_geom_bond_site_symmetry_2
Pr0 S2 2.907259 1_655
Pr0 S1 2.916384 1_556
Pr0 S9 2.953333 1_656
Pr0 S18 2.966689 1_565
Pr0 S10 2.973471 1_565
Pr0 S16 2.998448 1_655
Pr0 S15 3.006914 1_666
Pr0 S12 3.106704 1_555
Pr1 S3 2.907259 1_555
Pr1 S0 2.916384 1_555
Pr1 S8 2.953333 1_555
Pr1 S19 2.966689 1_545
Pr1 S11 2.973471 1_545
Pr1 S17 2.998448 1_555
Pr1 S14 3.006914 1_545
Pr1 S13 3.106704 1_555
Pr2 S0 2.907259 1_455
Pr2 S3 2.916384 1_555
Pr2 S11 2.953333 1_445
Pr2 S16 2.966689 1_555
Pr2 S8 2.973471 1_555
Pr2 S18 2.998448 1_455
Pr2 S13 3.006914 1_455
Pr2 S14 3.106704 1_545
Pr3 S1 2.907259 1_555
Pr3 S2 2.916384 1_554
Pr3 S10 2.953333 1_564
Pr3 S17 2.966689 1_555
Pr3 S9 2.973471 1_555
Pr3 S19 2.998448 1_555
Pr3 S12 3.006914 1_554
Pr3 S15 3.106704 1_565
S0 U2 2.681413 1_545
S0 U0 2.714924 1_555
S1 U3 2.681413 1_565
S1 U1 2.714924 1_655
S2 U0 2.681413 1_555
S2 U2 2.714924 1_555
S3 U1 2.681413 1_555
S3 U3 2.714924 1_455
S4 U0 2.702103 1_555
S4 U2 2.758846 1_545
S4 Th2 2.855970 1_455
S4 Th1 2.906992 1_556
S5 U1 2.702103 1_555
S5 U3 2.758846 1_465
S5 Th3 2.855970 1_555
S5 Th0 2.906992 1_555
S6 U2 2.702103 1_555
S6 U0 2.758846 1_555
S6 Th0 2.855970 1_655
S6 Th3 2.906992 1_555
S7 U3 2.702103 1_555
S7 U1 2.758846 1_655
S7 Th1 2.855970 1_555
S7 Th2 2.906992 1_554
S8 U0 2.821488 1_555
S8 Th3 2.875690 1_555
S8 Th0 2.906573 1_555
S9 U1 2.821488 1_555
S9 Th2 2.875690 1_454
S9 Th1 2.906573 1_555
S10 U2 2.821488 1_545
S10 Th1 2.875690 1_556
S10 Th2 2.906573 1_555
S11 U3 2.821488 1_565
S11 Th0 2.875690 1_655
S11 Th3 2.906573 1_555
S12 U0 2.828703 1_555
S12 Th1 2.941584 1_556
S12 Th2 3.011231 1_555
S13 U1 2.828703 1_655
S13 Th0 2.941584 1_655
S13 Th3 3.011231 1_555
S14 U2 2.828703 1_555
S14 Th3 2.941584 1_555
S14 Th0 3.011231 1_555
S15 U3 2.828703 1_455
S15 Th2 2.941584 1_454
S15 Th1 3.011231 1_555
S16 U0 2.907197 1_555
S16 Th0 2.938981 1_555
S16 Th2 2.963228 1_455
S17 U1 2.907197 1_555
S17 Th1 2.938981 1_555
S17 Th3 2.963228 1_555
S18 U2 2.907197 1_545
S18 Th2 2.938981 1_555
S18 Th0 2.963228 1_645
S19 U3 2.907197 1_565
S19 Th3 2.938981 1_555
S19 Th1 2.963228 1_565
