# generated using pymatgen
data_Ti2In3FeO10
_symmetry_space_group_name_H-M   'P 1'
_cell_length_a   10.22595000
_cell_length_b   5.97506800
_cell_length_c   6.50610550
_cell_angle_alpha   72.26061753
_cell_angle_beta   90.00000000
_cell_angle_gamma   90.00000000
_symmetry_Int_Tables_number   1
_chemical_formula_structural   Ti2In3FeO10
_chemical_formula_sum   'Ti4 In6 Fe2 O20'
_cell_volume   378.62635709
_cell_formula_units_Z   2
loop_
 _symmetry_equiv_pos_site_id
 _symmetry_equiv_pos_as_xyz
  1  'x, y, z'
loop_
 _atom_site_type_symbol
 _atom_site_label
 _atom_site_symmetry_multiplicity
 _atom_site_fract_x
 _atom_site_fract_y
 _atom_site_fract_z
 _atom_site_occupancy
  Ti  Ti0  1  0.15521000  0.30289800  0.49088900  1
  Ti  Ti1  1  0.65521000  0.69710200  0.50911100  1
  Ti  Ti2  1  0.50136700  0.25592700  0.50022900  1
  Ti  Ti3  1  0.00136700  0.74407300  0.49977100  1
  In  In0  1  0.99835600  0.24998500  0.99783600  1
  In  In1  1  0.49835600  0.75001500  0.00216400  1
  In  In2  1  0.66773000  0.22872700  0.00219600  1
  In  In3  1  0.16773000  0.77127300  0.99780400  1
  In  In4  1  0.33339600  0.26963400  0.99684200  1
  In  In5  1  0.83339600  0.73036600  0.00315800  1
  Fe  Fe0  1  0.84435000  0.19276600  0.50562000  1
  Fe  Fe1  1  0.34435000  0.80723400  0.49438000  1
  O  O0  1  0.54133700  0.94362900  0.49836100  1
  O  O1  1  0.04133700  0.05637100  0.50163900  1
  O  O2  1  0.46235500  0.55471400  0.50090800  1
  O  O3  1  0.96235500  0.44528600  0.49909200  1
  O  O4  1  0.33314900  0.89062200  0.16667500  1
  O  O5  1  0.83314900  0.10937800  0.83332500  1
  O  O6  1  0.66570100  0.61207900  0.82869300  1
  O  O7  1  0.16570100  0.38792100  0.17130700  1
  O  O8  1  0.81577000  0.85783000  0.50142800  1
  O  O9  1  0.31577000  0.14217000  0.49857200  1
  O  O10  1  0.18049900  0.62703200  0.49722100  1
  O  O11  1  0.68049900  0.37296800  0.50277900  1
  O  O12  1  0.00103800  0.86324800  0.16954700  1
  O  O13  1  0.50103800  0.13675200  0.83045300  1
  O  O14  1  0.00086000  0.63977900  0.83175200  1
  O  O15  1  0.50086000  0.36022100  0.16824800  1
  O  O16  1  0.66593400  0.82994500  0.17217600  1
  O  O17  1  0.16593400  0.17005500  0.82782400  1
  O  O18  1  0.33294900  0.66512300  0.83111900  1
  O  O19  1  0.83294900  0.33487700  0.16888100  1
loop_
_geom_bond_atom_site_label_1
_geom_bond_atom_site_label_2
_geom_bond_distance
_geom_bond_site_symmetry_2
In0 O19 2.168098 1_556
In0 O17 2.170270 1_655
In0 O12 2.239509 1_646
In0 O14 2.249249 1_655
In0 O5 2.292042 1_555
In0 O7 2.334159 1_656
In1 O18 2.168098 1_554
In1 O16 2.170270 1_555
In1 O13 2.239509 1_564
In1 O15 2.249249 1_555
In1 O4 2.292042 1_555
In1 O6 2.334159 1_554
In2 O13 2.197805 1_554
In2 O19 2.202721 1_555
In2 O6 2.223892 1_554
In2 O5 2.248223 1_554
In2 O15 2.283315 1_555
In2 O16 2.301108 1_545
In3 O12 2.197805 1_556
In3 O18 2.202721 1_555
In3 O7 2.223892 1_556
In3 O4 2.248223 1_556
In3 O14 2.283315 1_555
In3 O17 2.301108 1_565
In4 O4 2.196497 1_546
In4 O15 2.199321 1_556
In4 O17 2.212342 1_555
In4 O18 2.279047 1_555
In4 O7 2.284185 1_556
In4 O13 2.294536 1_555
In5 O5 2.196497 1_564
In5 O14 2.199321 1_654
In5 O16 2.212342 1_555
In5 O19 2.279047 1_555
In5 O6 2.284185 1_554
In5 O12 2.294536 1_655
Fe0 O3 1.922358 1_555
Fe0 O11 1.988705 1_555
Fe0 O8 2.030882 1_545
Fe0 O5 2.039560 1_555
Fe0 O19 2.097818 1_555
Fe0 O1 2.176105 1_655
Fe1 O2 1.922358 1_555
Fe1 O10 1.988705 1_555
Fe1 O9 2.030882 1_565
Fe1 O4 2.039560 1_555
Fe1 O18 2.097818 1_555
Fe1 O0 2.176105 1_555
O0 Ti1 1.862217 1_555
O0 Ti2 1.913894 1_565
O1 Ti0 1.862217 1_555
O1 Ti3 1.913894 1_545
O2 Ti2 1.830621 1_555
O2 Ti1 2.154906 1_555
O3 Ti3 1.830621 1_655
O3 Ti0 2.154906 1_655
O6 Ti1 1.987242 1_555
O7 Ti0 1.987242 1_555
O8 Ti1 1.895073 1_555
O8 Ti3 2.017084 1_655
O9 Ti0 1.895073 1_555
O9 Ti2 2.017084 1_555
O10 Ti3 1.962620 1_555
O10 Ti0 1.966746 1_555
O11 Ti2 1.962620 1_555
O11 Ti1 1.966746 1_555
O12 Ti3 2.047127 1_555
O13 Ti2 2.047127 1_555
O14 Ti3 2.057508 1_555
O15 Ti2 2.057508 1_555
O16 Ti1 2.094565 1_555
O17 Ti0 2.094565 1_555
