# generated using pymatgen
data_V2OF6
_symmetry_space_group_name_H-M   'P 1'
_cell_length_a   5.27408000
_cell_length_b   6.84933371
_cell_length_c   8.42676979
_cell_angle_alpha   110.09029536
_cell_angle_beta   100.58914914
_cell_angle_gamma   88.02866202
_symmetry_Int_Tables_number   1
_chemical_formula_structural   V2OF6
_chemical_formula_sum   'V4 O2 F12'
_cell_volume   280.88094150
_cell_formula_units_Z   2
loop_
 _symmetry_equiv_pos_site_id
 _symmetry_equiv_pos_as_xyz
  1  'x, y, z'
loop_
 _atom_site_type_symbol
 _atom_site_label
 _atom_site_symmetry_multiplicity
 _atom_site_fract_x
 _atom_site_fract_y
 _atom_site_fract_z
 _atom_site_occupancy
  V  V0  1  0.71841800  0.73104000  0.82464300  1
  V  V1  1  0.18309800  0.47509800  0.67622900  1
  V  V2  1  0.29520200  0.27815100  0.19405200  1
  V  V3  1  0.84406700  0.52063500  0.33411700  1
  O  O0  1  0.03263400  0.59391100  0.85277000  1
  O  O1  1  0.15466500  0.42943900  0.41841500  1
  F  F0  1  0.35787200  0.21228200  0.98275000  1
  F  F1  1  0.53836800  0.44568900  0.76677300  1
  F  F2  1  0.09260200  0.20585800  0.61382800  1
  F  F3  1  0.36728500  0.74386900  0.70430000  1
  F  F4  1  0.81760400  0.97282300  0.82491000  1
  F  F5  1  0.79053900  0.58020400  0.57052500  1
  F  F6  1  0.18595400  0.04372600  0.20237300  1
  F  F7  1  0.65519700  0.24898000  0.29105700  1
  F  F8  1  0.89809800  0.77746200  0.35601400  1
  F  F9  1  0.46562600  0.55099000  0.24351900  1
  F  F10  1  0.95025000  0.38083300  0.11604700  1
  F  F11  1  0.66024700  0.81991400  0.03769500  1
loop_
_geom_bond_atom_site_label_1
_geom_bond_atom_site_label_2
_geom_bond_distance
_geom_bond_site_symmetry_2
O0 V1 1.750113 1_555
O0 V0 1.893715 1_455
O1 V3 1.839828 1_455
O1 V1 2.063235 1_555
O1 V2 2.077014 1_555
F0 V2 1.771288 1_556
F1 V1 1.920352 1_555
F1 V0 2.064505 1_555
F2 V1 1.790862 1_555
F3 V0 1.955880 1_555
F3 V1 2.031734 1_555
F4 V0 1.752933 1_555
F5 V3 1.963473 1_555
F5 V0 2.133085 1_555
F5 V1 2.293119 1_655
F6 V2 1.752392 1_555
F7 V2 1.956696 1_555
F7 V3 2.028988 1_555
F8 V3 1.732580 1_555
F9 V2 1.979048 1_555
F9 V3 2.032306 1_555
F10 V3 1.933873 1_555
F10 V2 2.006648 1_655
F11 V0 1.768249 1_554
