# generated using pymatgen
data_Ce3UAl8
_symmetry_space_group_name_H-M   'P 1'
_cell_length_a   9.65998466
_cell_length_b   9.65998466
_cell_length_c   9.65998422
_cell_angle_alpha   33.49496441
_cell_angle_beta   33.49496441
_cell_angle_gamma   33.49496390
_symmetry_Int_Tables_number   1
_chemical_formula_structural   Ce3UAl8
_chemical_formula_sum   'Ce3 U1 Al8'
_cell_volume   244.50704547
_cell_formula_units_Z   1
loop_
 _symmetry_equiv_pos_site_id
 _symmetry_equiv_pos_as_xyz
  1  'x, y, z'
loop_
 _atom_site_type_symbol
 _atom_site_label
 _atom_site_symmetry_multiplicity
 _atom_site_fract_x
 _atom_site_fract_y
 _atom_site_fract_z
 _atom_site_occupancy
  Ce  Ce0  1  0.62508100  0.62508100  0.62508100  1
  Ce  Ce1  1  0.00354400  0.00354400  0.00354400  1
  Ce  Ce2  1  0.49701500  0.49701500  0.49701500  1
  U  U0  1  0.12484100  0.12484100  0.12484100  1
  Al  Al0  1  0.56333100  0.06234400  0.56333100  1
  Al  Al1  1  0.06237200  0.56098000  0.06237200  1
  Al  Al2  1  0.06234400  0.56333100  0.56333100  1
  Al  Al3  1  0.56098000  0.06237200  0.06237200  1
  Al  Al4  1  0.81226700  0.81226700  0.81226700  1
  Al  Al5  1  0.31252100  0.31252100  0.31252100  1
  Al  Al6  1  0.56333100  0.56333100  0.06234400  1
  Al  Al7  1  0.06237200  0.06237200  0.56098000  1
loop_
_geom_bond_atom_site_label_1
_geom_bond_atom_site_label_2
_geom_bond_distance
_geom_bond_site_symmetry_2
Ce0 Ce1 3.442687 1_566
Ce0 Ce1 3.442687 1_656
Ce0 Ce1 3.442687 1_665
Ce1 U0 3.314892 1_555
Ce2 U0 3.384921 1_655
Ce2 U0 3.384921 1_565
Ce2 U0 3.384921 1_556
Al0 Al4 2.769114 1_545
Al0 Al6 2.778070 1_546
Al0 Al2 2.778070 1_645
Al0 Al6 2.789060 1_555
Al0 Al2 2.789060 1_555
Al0 Al5 2.799914 1_555
Al0 Ce2 3.188010 1_555
Al0 Ce1 3.223132 1_655
Al0 Ce1 3.223132 1_556
Al0 U0 3.256421 1_556
Al0 U0 3.256421 1_655
Al0 Ce0 3.277520 1_545
Al1 Al7 2.775816 1_555
Al1 Al3 2.775816 1_555
Al1 Al4 2.781919 1_454
Al1 Al7 2.791314 1_564
Al1 Al3 2.791314 1_465
Al1 Al5 2.798480 1_555
Al1 U0 3.256546 1_555
Al1 Ce0 3.275491 1_455
Al1 Ce0 3.275491 1_554
Al1 Ce2 3.300508 1_554
Al1 Ce2 3.300508 1_455
Al1 Ce1 3.370075 1_565
Al2 Al4 2.769114 1_455
Al2 Al6 2.778070 1_456
Al2 Al6 2.789060 1_555
Al2 Al5 2.799914 1_555
Al2 Ce2 3.188010 1_555
Al2 Ce1 3.223132 1_565
Al2 Ce1 3.223132 1_556
Al2 U0 3.256421 1_556
Al2 U0 3.256421 1_565
Al2 Ce0 3.277520 1_455
Al3 Al7 2.775816 1_555
Al3 Al4 2.781919 1_544
Al3 Al7 2.791314 1_654
Al3 Al5 2.798480 1_555
Al3 U0 3.256546 1_555
Al3 Ce0 3.275491 1_545
Al3 Ce0 3.275491 1_554
Al3 Ce2 3.300508 1_554
Al3 Ce2 3.300508 1_545
Al3 Ce1 3.370075 1_655
Al4 Al6 2.769114 1_556
Al4 Al7 2.781919 1_665
Al4 Ce2 3.251946 1_556
Al4 Ce2 3.251946 1_655
Al4 Ce2 3.251946 1_565
Al4 U0 3.263868 1_665
Al4 U0 3.263869 1_566
Al4 U0 3.263869 1_656
Al5 Al7 2.798480 1_555
Al5 Al6 2.799914 1_555
Al5 Ce0 3.263935 1_554
Al5 Ce0 3.263935 1_455
Al5 Ce0 3.263935 1_545
Al5 Ce1 3.282383 1_556
Al5 Ce1 3.282383 1_565
Al5 Ce1 3.282383 1_655
Al6 Ce2 3.188010 1_555
Al6 Ce1 3.223132 1_655
Al6 Ce1 3.223132 1_565
Al6 U0 3.256421 1_565
Al6 U0 3.256421 1_655
Al6 Ce0 3.277519 1_554
Al7 U0 3.256545 1_555
Al7 Ce0 3.275491 1_545
Al7 Ce0 3.275491 1_455
Al7 Ce2 3.300508 1_455
Al7 Ce2 3.300508 1_545
Al7 Ce1 3.370074 1_556
