# generated using pymatgen
data_Re3Ni2P5
_symmetry_space_group_name_H-M   'P 1'
_cell_length_a   3.13161800
_cell_length_b   5.79847100
_cell_length_c   15.46279373
_cell_angle_alpha   79.19322358
_cell_angle_beta   84.18809157
_cell_angle_gamma   90.00000000
_symmetry_Int_Tables_number   1
_chemical_formula_structural   Re3Ni2P5
_chemical_formula_sum   'Re6 Ni4 P10'
_cell_volume   274.33346100
_cell_formula_units_Z   2
loop_
 _symmetry_equiv_pos_site_id
 _symmetry_equiv_pos_as_xyz
  1  'x, y, z'
loop_
 _atom_site_type_symbol
 _atom_site_label
 _atom_site_symmetry_multiplicity
 _atom_site_fract_x
 _atom_site_fract_y
 _atom_site_fract_z
 _atom_site_occupancy
  Re  Re0  1  0.20165400  0.20165400  0.59669200  1
  Re  Re1  1  0.60012700  0.60012700  0.79974600  1
  Re  Re2  1  0.99759300  0.99759300  0.00481500  1
  Re  Re3  1  0.39937100  0.39937100  0.20125700  1
  Re  Re4  1  0.79960300  0.79960300  0.40079400  1
  Re  Re5  1  0.61787100  0.11787100  0.76425800  1
  Ni  Ni0  1  0.01963600  0.51963600  0.96072900  1
  Ni  Ni1  1  0.41865800  0.91865800  0.16268400  1
  Ni  Ni2  1  0.82011900  0.32011900  0.35976100  1
  Ni  Ni3  1  0.21968900  0.71968900  0.56062100  1
  P  P0  1  0.94518100  0.24183400  0.10963800  1
  P  P1  1  0.34570500  0.64063300  0.30859000  1
  P  P2  1  0.74674800  0.04194100  0.50650400  1
  P  P3  1  0.14550600  0.43404000  0.70898800  1
  P  P4  1  0.54469900  0.83716600  0.91060200  1
  P  P5  1  0.94518100  0.64852700  0.10963800  1
  P  P6  1  0.34570500  0.05077800  0.30859000  1
  P  P7  1  0.74674800  0.45155500  0.50650400  1
  P  P8  1  0.14550600  0.85697200  0.70898800  1
  P  P9  1  0.54469900  0.25223200  0.91060200  1
loop_
_geom_bond_atom_site_label_1
_geom_bond_atom_site_label_2
_geom_bond_distance
_geom_bond_site_symmetry_2
Ni0 P4 2.429237 1_555
Ni0 P4 2.429239 1_455
Ni0 P9 2.429241 1_555
Ni0 P9 2.429243 1_455
Ni0 P5 2.539930 1_456
Ni0 P0 2.539935 1_456
Ni1 P0 2.460256 1_565
Ni1 P0 2.460256 1_465
Ni1 P5 2.460260 1_555
Ni1 P5 2.460260 1_455
Ni1 P1 2.504573 1_555
Ni1 P6 2.504575 1_565
Ni2 P6 2.444159 1_555
Ni2 P6 2.444161 1_655
Ni2 P1 2.444167 1_555
Ni2 P1 2.444169 1_655
Ni2 P2 2.514981 1_555
Ni2 P7 2.514984 1_555
Ni3 P7 2.459672 1_455
Ni3 P7 2.459674 1_555
Ni3 P2 2.459676 1_465
Ni3 P2 2.459678 1_565
Ni3 P3 2.554940 1_555
Ni3 P8 2.554943 1_555
P0 Re2 2.338103 1_545
P0 P5 2.358198 1_555
P0 Re3 2.399560 1_655
P0 Re3 2.399562 1_555
P1 Re3 2.356688 1_555
P1 P6 2.378214 1_565
P1 Re4 2.409592 1_455
P1 Re4 2.409592 1_555
P2 Re4 2.341005 1_545
P2 P7 2.375135 1_555
P2 Re0 2.391350 1_555
P2 Re0 2.391350 1_655
P3 Re0 2.382713 1_555
P3 Re1 2.415636 1_455
P3 Re1 2.415636 1_555
P3 Re5 2.438872 1_455
P3 Re5 2.438872 1_555
P3 P8 2.452359 1_555
P4 Re1 2.383444 1_555
P4 P9 2.406748 1_565
P4 Re2 2.434287 1_456
P4 Re2 2.434289 1_556
P4 Re5 2.517189 1_565
P5 Re2 2.338112 1_555
P5 Re3 2.399560 1_655
P5 Re3 2.399562 1_555
P6 Re3 2.356679 1_555
P6 Re4 2.409594 1_445
P6 Re4 2.409595 1_545
P7 Re4 2.341006 1_555
P7 Re0 2.391350 1_555
P7 Re0 2.391350 1_655
P8 Re0 2.382713 1_565
P8 Re1 2.415636 1_455
P8 Re1 2.415636 1_555
P8 Re5 2.438872 1_465
P8 Re5 2.438872 1_565
P9 Re1 2.383445 1_555
P9 Re2 2.434284 1_446
P9 Re2 2.434286 1_546
P9 Re5 2.517189 1_555
