# generated using pymatgen
data_Tm2S3
_symmetry_space_group_name_H-M   'P 1'
_cell_length_a   10.81298827
_cell_length_b   10.81298896
_cell_length_c   10.81298977
_cell_angle_alpha   109.47122017
_cell_angle_beta   109.47122152
_cell_angle_gamma   109.47121848
_symmetry_Int_Tables_number   1
_chemical_formula_structural   Tm2S3
_chemical_formula_sum   'Tm16 S24'
_cell_volume   973.22980832
_cell_formula_units_Z   8
loop_
 _symmetry_equiv_pos_site_id
 _symmetry_equiv_pos_as_xyz
  1  'x, y, z'
loop_
 _atom_site_type_symbol
 _atom_site_label
 _atom_site_symmetry_multiplicity
 _atom_site_fract_x
 _atom_site_fract_y
 _atom_site_fract_z
 _atom_site_occupancy
  Tm  Tm0  1  0.95173236  0.25000000  0.20173236  1
  Tm  Tm1  1  0.75000000  0.29826764  0.54826764  1
  Tm  Tm2  1  0.20173236  0.95173236  0.25000000  1
  Tm  Tm3  1  0.29826764  0.54826764  0.75000000  1
  Tm  Tm4  1  0.25000000  0.20173236  0.95173236  1
  Tm  Tm5  1  0.54826764  0.75000000  0.29826764  1
  Tm  Tm6  1  0.04826764  0.75000000  0.79826764  1
  Tm  Tm7  1  0.25000000  0.70173236  0.45173236  1
  Tm  Tm8  1  0.79826764  0.04826764  0.75000000  1
  Tm  Tm9  1  0.70173236  0.45173236  0.25000000  1
  Tm  Tm10  1  0.75000000  0.79826764  0.04826764  1
  Tm  Tm11  1  0.45173236  0.25000000  0.70173236  1
  Tm  Tm12  1  0.00000000  0.50000000  0.00000000  1
  Tm  Tm13  1  0.50000000  0.00000000  0.00000000  1
  Tm  Tm14  1  0.00000000  0.00000000  0.50000000  1
  Tm  Tm15  1  0.50000000  0.50000000  0.50000000  1
  S  S0  1  0.05417074  0.27724099  0.00974148  1
  S  S1  1  0.76749851  0.04442926  0.49025852  1
  S  S2  1  0.73250149  0.22275901  0.27692875  1
  S  S3  1  0.45557074  0.22307125  0.44582926  1
  S  S4  1  0.22307125  0.44582926  0.45557074  1
  S  S5  1  0.00974148  0.05417074  0.27724099  1
  S  S6  1  0.04442926  0.49025852  0.76749851  1
  S  S7  1  0.27692875  0.73250149  0.22275901  1
  S  S8  1  0.27724099  0.00974148  0.05417074  1
  S  S9  1  0.49025852  0.76749851  0.04442926  1
  S  S10  1  0.22275901  0.27692875  0.73250149  1
  S  S11  1  0.44582926  0.45557074  0.22307125  1
  S  S12  1  0.94582926  0.72275901  0.99025852  1
  S  S13  1  0.23250149  0.95557074  0.50974148  1
  S  S14  1  0.26749851  0.77724099  0.72307125  1
  S  S15  1  0.54442926  0.77692875  0.55417074  1
  S  S16  1  0.55417074  0.54442926  0.77692875  1
  S  S17  1  0.77724099  0.72307125  0.26749851  1
  S  S18  1  0.50974148  0.23250149  0.95557074  1
  S  S19  1  0.72275901  0.99025852  0.94582926  1
  S  S20  1  0.72307125  0.26749851  0.77724099  1
  S  S21  1  0.95557074  0.50974148  0.23250149  1
  S  S22  1  0.99025852  0.94582926  0.72275901  1
  S  S23  1  0.77692875  0.55417074  0.54442926  1
loop_
_geom_bond_atom_site_label_1
_geom_bond_atom_site_label_2
_geom_bond_distance
_geom_bond_site_symmetry_2
S0 Tm12 2.687860 1_555
S0 Tm4 2.690820 1_554
S0 Tm8 2.700127 1_454
S0 Tm0 2.710461 1_455
S1 Tm14 2.687870 1_655
S1 Tm1 2.690815 1_555
S1 Tm8 2.700125 1_555
S1 Tm5 2.710459 1_545
S2 Tm13 2.687857 1_555
S2 Tm1 2.690836 1_555
S2 Tm9 2.700128 1_555
S2 Tm0 2.710444 1_555
S3 Tm15 2.687849 1_555
S3 Tm2 2.690826 1_545
S3 Tm11 2.700130 1_555
S3 Tm1 2.710463 1_555
S4 Tm15 2.687849 1_555
S4 Tm0 2.690826 1_455
S4 Tm7 2.700130 1_555
S4 Tm3 2.710464 1_555
S5 Tm14 2.687860 1_555
S5 Tm0 2.690821 1_455
S5 Tm10 2.700127 1_445
S5 Tm2 2.710461 1_545
S6 Tm12 2.687870 1_556
S6 Tm3 2.690815 1_555
S6 Tm6 2.700125 1_555
S6 Tm1 2.710458 1_455
S7 Tm12 2.687857 1_555
S7 Tm5 2.690835 1_555
S7 Tm7 2.700128 1_555
S7 Tm2 2.710444 1_555
S8 Tm13 2.687859 1_555
S8 Tm2 2.690821 1_545
S8 Tm6 2.700127 1_544
S8 Tm4 2.710461 1_554
S9 Tm13 2.687870 1_565
S9 Tm5 2.690816 1_555
S9 Tm10 2.700125 1_555
S9 Tm3 2.710459 1_554
S10 Tm14 2.687857 1_555
S10 Tm3 2.690835 1_555
S10 Tm11 2.700127 1_555
S10 Tm4 2.710444 1_555
S11 Tm15 2.687849 1_555
S11 Tm4 2.690826 1_554
S11 Tm9 2.700130 1_555
S11 Tm5 2.710463 1_555
S12 Tm12 2.687860 1_656
S12 Tm10 2.690820 1_556
S12 Tm2 2.700127 1_656
S12 Tm6 2.710461 1_655
S13 Tm14 2.687870 1_565
S13 Tm7 2.690815 1_555
S13 Tm2 2.700125 1_555
S13 Tm11 2.710459 1_565
S14 Tm13 2.687857 1_566
S14 Tm7 2.690836 1_555
S14 Tm3 2.700128 1_555
S14 Tm6 2.710444 1_555
S15 Tm15 2.687849 1_555
S15 Tm8 2.690826 1_565
S15 Tm5 2.700130 1_555
S15 Tm7 2.710463 1_555
S16 Tm15 2.687849 1_555
S16 Tm10 2.690826 1_556
S16 Tm3 2.700130 1_555
S16 Tm11 2.710463 1_555
S17 Tm14 2.687857 1_665
S17 Tm9 2.690835 1_555
S17 Tm5 2.700127 1_555
S17 Tm10 2.710444 1_555
S18 Tm13 2.687870 1_556
S18 Tm11 2.690816 1_555
S18 Tm4 2.700125 1_555
S18 Tm9 2.710459 1_556
S19 Tm13 2.687859 1_566
S19 Tm8 2.690821 1_565
S19 Tm0 2.700127 1_566
S19 Tm10 2.710461 1_556
S20 Tm12 2.687857 1_656
S20 Tm11 2.690835 1_555
S20 Tm1 2.700128 1_555
S20 Tm8 2.710444 1_555
S21 Tm12 2.687870 1_655
S21 Tm9 2.690815 1_555
S21 Tm0 2.700125 1_555
S21 Tm7 2.710458 1_655
S22 Tm14 2.687860 1_665
S22 Tm6 2.690821 1_655
S22 Tm4 2.700127 1_665
S22 Tm8 2.710461 1_565
S23 Tm15 2.687849 1_555
S23 Tm6 2.690826 1_655
S23 Tm1 2.700130 1_555
S23 Tm9 2.710464 1_555
