# generated using pymatgen
data_LiAlSiH2O5
_symmetry_space_group_name_H-M   'P 1'
_cell_length_a   5.07051800
_cell_length_b   8.18256100
_cell_length_c   10.11310600
_cell_angle_alpha   90.00000000
_cell_angle_beta   90.00000000
_cell_angle_gamma   90.00000000
_symmetry_Int_Tables_number   1
_chemical_formula_structural   LiAlSiH2O5
_chemical_formula_sum   'Li4 Al4 Si4 H8 O20'
_cell_volume   419.59097627
_cell_formula_units_Z   4
loop_
 _symmetry_equiv_pos_site_id
 _symmetry_equiv_pos_as_xyz
  1  'x, y, z'
loop_
 _atom_site_type_symbol
 _atom_site_label
 _atom_site_symmetry_multiplicity
 _atom_site_fract_x
 _atom_site_fract_y
 _atom_site_fract_z
 _atom_site_occupancy
  Li  Li0  1  0.75391200  0.13353000  0.65021800  1
  Li  Li1  1  0.25391200  0.86647000  0.34978200  1
  Li  Li2  1  0.25391200  0.63353000  0.84978200  1
  Li  Li3  1  0.75391200  0.36647000  0.15021800  1
  Al  Al0  1  0.75094200  0.54890900  0.67448800  1
  Al  Al1  1  0.25094200  0.45109100  0.32551200  1
  Al  Al2  1  0.25094200  0.04890900  0.82551200  1
  Al  Al3  1  0.75094200  0.95109100  0.17448800  1
  Si  Si0  1  0.75220000  0.84680400  0.86671300  1
  Si  Si1  1  0.25220000  0.15319600  0.13328700  1
  Si  Si2  1  0.25220000  0.34680400  0.63328700  1
  Si  Si3  1  0.75220000  0.65319600  0.36671300  1
  H  H0  1  0.05483600  0.69744100  0.05526000  1
  H  H1  1  0.55483600  0.30255900  0.94474000  1
  H  H2  1  0.55483600  0.19744100  0.44474000  1
  H  H3  1  0.05483600  0.80255900  0.55526000  1
  H  H4  1  0.34497000  0.66618300  0.10221100  1
  H  H5  1  0.84497000  0.33381700  0.89778900  1
  H  H6  1  0.84497000  0.16618300  0.39778900  1
  H  H7  1  0.34497000  0.83381700  0.60221100  1
  O  O0  1  0.79726200  0.66033100  0.52687200  1
  O  O1  1  0.29726200  0.33966900  0.47312800  1
  O  O2  1  0.29726200  0.16033100  0.97312800  1
  O  O3  1  0.79726200  0.83966900  0.02687200  1
  O  O4  1  0.86910500  0.67795800  0.80153500  1
  O  O5  1  0.36910500  0.32204200  0.19846500  1
  O  O6  1  0.36910500  0.17795800  0.69846500  1
  O  O7  1  0.86910500  0.82204200  0.30153500  1
  O  O8  1  0.41133800  0.50474700  0.69587000  1
  O  O9  1  0.91133800  0.49525300  0.30413000  1
  O  O10  1  0.91133800  0.00474700  0.80413000  1
  O  O11  1  0.41133800  0.99525300  0.19587000  1
  O  O12  1  0.93769200  0.36390200  0.67271700  1
  O  O13  1  0.43769200  0.63609800  0.32728300  1
  O  O14  1  0.43769200  0.86390200  0.82728300  1
  O  O15  1  0.93769200  0.13609800  0.17271700  1
  O  O16  1  0.20864400  0.62257100  0.04376100  1
  O  O17  1  0.70864400  0.37742900  0.95623900  1
  O  O18  1  0.70864400  0.12257100  0.45623900  1
  O  O19  1  0.20864400  0.87742900  0.54376100  1
loop_
_geom_bond_atom_site_label_1
_geom_bond_atom_site_label_2
_geom_bond_distance
_geom_bond_site_symmetry_2
Li0 O18 1.977147 1_555
Li0 O10 2.042155 1_555
Li0 O6 2.043844 1_555
Li0 O12 2.115061 1_555
Li1 O19 1.977147 1_555
Li1 O11 2.042155 1_555
Li1 O7 2.043844 1_455
Li1 O13 2.115061 1_555
Li2 O16 1.977147 1_556
Li2 O8 2.042155 1_555
Li2 O4 2.043844 1_455
Li2 O14 2.115061 1_555
Li3 O17 1.977147 1_554
Li3 O9 2.042155 1_555
Li3 O5 2.043844 1_555
Li3 O15 2.115061 1_555
Al0 O0 1.764939 1_555
Al0 O4 1.767717 1_555
Al0 O8 1.772714 1_555
Al0 O12 1.785682 1_555
Al1 O1 1.764939 1_555
Al1 O5 1.767717 1_555
Al1 O9 1.772714 1_455
Al1 O13 1.785682 1_555
Al2 O2 1.764939 1_555
Al2 O6 1.767717 1_555
Al2 O10 1.772714 1_455
Al2 O14 1.785682 1_545
Al3 O3 1.764939 1_555
Al3 O7 1.767717 1_555
Al3 O11 1.772714 1_555
Al3 O15 1.785682 1_565
H0 O16 0.998529 1_555
H1 O17 0.998529 1_555
H2 O18 0.998529 1_555
H3 O19 0.998529 1_555
H4 O16 0.977025 1_555
H5 O17 0.977025 1_555
H6 O18 0.977025 1_555
H7 O19 0.977025 1_555
O0 Si3 1.636783 1_555
O1 Si2 1.636783 1_555
O2 Si1 1.636783 1_556
O3 Si0 1.636783 1_554
O4 Si0 1.641540 1_555
O5 Si1 1.641540 1_555
O6 Si2 1.641540 1_555
O7 Si3 1.641540 1_555
O8 Si2 1.649825 1_555
O9 Si3 1.649825 1_555
O10 Si0 1.649825 1_545
O11 Si1 1.649825 1_565
O12 Si2 1.649761 1_655
O13 Si3 1.649761 1_555
O14 Si0 1.649761 1_555
O15 Si1 1.649761 1_655
