# generated using pymatgen
data_Si2NiO6
_symmetry_space_group_name_H-M   'P 1'
_cell_length_a   5.10571600
_cell_length_b   10.73539500
_cell_length_c   18.44902300
_cell_angle_alpha   90.00000000
_cell_angle_beta   90.00000000
_cell_angle_gamma   90.00000000
_symmetry_Int_Tables_number   1
_chemical_formula_structural   Si2NiO6
_chemical_formula_sum   'Si16 Ni8 O48'
_cell_volume   1011.22559822
_cell_formula_units_Z   8
loop_
 _symmetry_equiv_pos_site_id
 _symmetry_equiv_pos_as_xyz
  1  'x, y, z'
loop_
 _atom_site_type_symbol
 _atom_site_label
 _atom_site_symmetry_multiplicity
 _atom_site_fract_x
 _atom_site_fract_y
 _atom_site_fract_z
 _atom_site_occupancy
  Si  Si0  1  0.62053900  0.66917700  0.27736500  1
  Si  Si1  1  0.76142800  0.82941100  0.97348200  1
  Si  Si2  1  0.73857200  0.82941100  0.47348200  1
  Si  Si3  1  0.87946100  0.16917700  0.72263500  1
  Si  Si4  1  0.12053900  0.33082300  0.22263500  1
  Si  Si5  1  0.37946100  0.83082300  0.77736500  1
  Si  Si6  1  0.26142800  0.67058900  0.97348200  1
  Si  Si7  1  0.76142800  0.32941100  0.52651800  1
  Si  Si8  1  0.73857200  0.32941100  0.02651800  1
  Si  Si9  1  0.87946100  0.66917700  0.77736500  1
  Si  Si10  1  0.37946100  0.33082300  0.72263500  1
  Si  Si11  1  0.62053900  0.16917700  0.22263500  1
  Si  Si12  1  0.23857200  0.17058900  0.02651800  1
  Si  Si13  1  0.12053900  0.83082300  0.27736500  1
  Si  Si14  1  0.23857200  0.67058900  0.47348200  1
  Si  Si15  1  0.26142800  0.17058900  0.52651800  1
  Ni  Ni0  1  0.43793200  0.04413100  0.37436000  1
  Ni  Ni1  1  0.56206800  0.95586900  0.62564000  1
  Ni  Ni2  1  0.93793200  0.95586900  0.12564000  1
  Ni  Ni3  1  0.06206800  0.04413100  0.87436000  1
  Ni  Ni4  1  0.43793200  0.54413100  0.12564000  1
  Ni  Ni5  1  0.56206800  0.45586900  0.87436000  1
  Ni  Ni6  1  0.93793200  0.45586900  0.37436000  1
  Ni  Ni7  1  0.06206800  0.54413100  0.62564000  1
  O  O0  1  0.81161000  0.54130600  0.82171200  1
  O  O1  1  0.32387300  0.04547700  0.57444700  1
  O  O2  1  0.18839000  0.45869400  0.17828800  1
  O  O3  1  0.76473800  0.35985100  0.43976400  1
  O  O4  1  0.26473800  0.14014900  0.43976400  1
  O  O5  1  0.96545900  0.21688900  0.54693300  1
  O  O6  1  0.85694300  0.63309000  0.69094200  1
  O  O7  1  0.14305700  0.86691000  0.19094200  1
  O  O8  1  0.76473800  0.85985100  0.06023600  1
  O  O9  1  0.85694300  0.13309000  0.80905800  1
  O  O10  1  0.31161000  0.45869400  0.67828800  1
  O  O11  1  0.73526200  0.35985100  0.93976400  1
  O  O12  1  0.67612700  0.95452300  0.42555300  1
  O  O13  1  0.35694300  0.86691000  0.69094200  1
  O  O14  1  0.68839000  0.04130600  0.17828800  1
  O  O15  1  0.32387300  0.54547700  0.92555300  1
  O  O16  1  0.31161000  0.95869400  0.82171200  1
  O  O17  1  0.17297800  0.71806300  0.79662900  1
  O  O18  1  0.32702200  0.71806300  0.29662900  1
  O  O19  1  0.53454100  0.71688900  0.45306700  1
  O  O20  1  0.73526200  0.85985100  0.56023600  1
  O  O21  1  0.64305700  0.63309000  0.19094200  1
  O  O22  1  0.82387300  0.45452300  0.57444700  1
  O  O23  1  0.17297800  0.21806300  0.70337100  1
  O  O24  1  0.23526200  0.14014900  0.93976400  1
  O  O25  1  0.64305700  0.13309000  0.30905800  1
  O  O26  1  0.67612700  0.45452300  0.07444700  1
  O  O27  1  0.26473800  0.64014900  0.06023600  1
  O  O28  1  0.17612700  0.54547700  0.42555300  1
  O  O29  1  0.67297800  0.78193700  0.79662900  1
  O  O30  1  0.18839000  0.95869400  0.32171200  1
  O  O31  1  0.82702200  0.78193700  0.29662900  1
  O  O32  1  0.82702200  0.28193700  0.20337100  1
  O  O33  1  0.82387300  0.95452300  0.92555300  1
  O  O34  1  0.23526200  0.64014900  0.56023600  1
  O  O35  1  0.17612700  0.04547700  0.07444700  1
  O  O36  1  0.32702200  0.21806300  0.20337100  1
  O  O37  1  0.03454100  0.78311100  0.45306700  1
  O  O38  1  0.46545900  0.78311100  0.95306700  1
  O  O39  1  0.67297800  0.28193700  0.70337100  1
  O  O40  1  0.46545900  0.28311100  0.54693300  1
  O  O41  1  0.53454100  0.21688900  0.04693300  1
  O  O42  1  0.03454100  0.28311100  0.04693300  1
  O  O43  1  0.35694300  0.36691000  0.80905800  1
  O  O44  1  0.68839000  0.54130600  0.32171200  1
  O  O45  1  0.96545900  0.71688900  0.95306700  1
  O  O46  1  0.14305700  0.36691000  0.30905800  1
  O  O47  1  0.81161000  0.04130600  0.67828800  1
loop_
_geom_bond_atom_site_label_1
_geom_bond_atom_site_label_2
_geom_bond_distance
_geom_bond_site_symmetry_2
Ni0 O12 1.815611 1_545
Ni0 O4 1.816717 1_555
Ni0 O30 1.846075 1_545
Ni0 O25 1.860200 1_555
Ni1 O1 1.815611 1_565
Ni1 O20 1.816717 1_555
Ni1 O47 1.846075 1_565
Ni1 O13 1.860200 1_555
Ni2 O35 1.815611 1_665
Ni2 O8 1.816717 1_555
Ni2 O14 1.846075 1_565
Ni2 O7 1.860200 1_655
Ni3 O33 1.815611 1_445
Ni3 O24 1.816717 1_555
Ni3 O16 1.846075 1_545
Ni3 O9 1.860200 1_455
Ni4 O26 1.815611 1_555
Ni4 O27 1.816717 1_555
Ni4 O2 1.846075 1_555
Ni4 O21 1.860200 1_555
Ni5 O15 1.815611 1_555
Ni5 O11 1.816717 1_555
Ni5 O0 1.846075 1_555
Ni5 O43 1.860200 1_555
Ni6 O28 1.815611 1_655
Ni6 O3 1.816717 1_555
Ni6 O44 1.846075 1_555
Ni6 O46 1.860200 1_655
Ni7 O22 1.815611 1_455
Ni7 O34 1.816717 1_555
Ni7 O10 1.846075 1_555
Ni7 O6 1.860200 1_455
O0 Si9 1.635184 1_555
O1 Si15 1.639368 1_555
O2 Si4 1.635184 1_555
O3 Si7 1.633634 1_555
O4 Si15 1.633634 1_555
O5 Si15 1.634759 1_655
O5 Si7 1.638973 1_555
O6 Si9 1.644834 1_555
O7 Si13 1.644834 1_555
O8 Si1 1.633634 1_554
O9 Si3 1.644834 1_555
O10 Si10 1.635184 1_555
O11 Si8 1.633634 1_556
O12 Si2 1.639368 1_555
O13 Si5 1.644834 1_555
O14 Si11 1.635184 1_555
O15 Si6 1.639368 1_555
O16 Si5 1.635184 1_555
O17 Si9 1.627139 1_455
O17 Si5 1.644113 1_555
O18 Si0 1.627139 1_555
O18 Si13 1.644113 1_555
O19 Si14 1.634759 1_555
O19 Si2 1.638973 1_555
O20 Si2 1.633634 1_555
O21 Si0 1.644834 1_555
O22 Si7 1.639368 1_555
O23 Si3 1.627139 1_455
O23 Si10 1.644113 1_555
O24 Si12 1.633634 1_556
O25 Si11 1.644834 1_555
O26 Si8 1.639368 1_555
O27 Si6 1.633634 1_554
O28 Si14 1.639368 1_555
O29 Si5 1.627139 1_555
O29 Si9 1.644113 1_555
O30 Si13 1.635184 1_555
O31 Si13 1.627139 1_655
O31 Si0 1.644113 1_555
O32 Si4 1.627139 1_655
O32 Si11 1.644113 1_555
O33 Si1 1.639368 1_555
O34 Si14 1.633634 1_555
O35 Si12 1.639368 1_555
O36 Si11 1.627139 1_555
O36 Si4 1.644113 1_555
O37 Si2 1.634759 1_455
O37 Si14 1.638973 1_555
O38 Si1 1.634759 1_555
O38 Si6 1.638973 1_555
O39 Si10 1.627139 1_555
O39 Si3 1.644113 1_555
O40 Si7 1.634759 1_555
O40 Si15 1.638973 1_555
O41 Si12 1.634759 1_555
O41 Si8 1.638973 1_555
O42 Si8 1.634759 1_455
O42 Si12 1.638973 1_555
O43 Si10 1.644834 1_555
O44 Si0 1.635184 1_555
O45 Si6 1.634759 1_655
O45 Si1 1.638973 1_555
O46 Si4 1.644834 1_555
O47 Si3 1.635184 1_555
