# generated using pymatgen
data_ZnS
_symmetry_space_group_name_H-M   'P 1'
_cell_length_a   11.86812090
_cell_length_b   13.70922486
_cell_length_c   14.09381654
_cell_angle_alpha   91.09204207
_cell_angle_beta   94.04940472
_cell_angle_gamma   90.60372084
_symmetry_Int_Tables_number   1
_chemical_formula_structural   ZnS
_chemical_formula_sum   'Zn50 S50'
_cell_volume   2286.80009311
_cell_formula_units_Z   50
loop_
 _symmetry_equiv_pos_site_id
 _symmetry_equiv_pos_as_xyz
  1  'x, y, z'
loop_
 _atom_site_type_symbol
 _atom_site_label
 _atom_site_symmetry_multiplicity
 _atom_site_fract_x
 _atom_site_fract_y
 _atom_site_fract_z
 _atom_site_occupancy
  Zn  Zn0  1  0.30659673  0.80144393  0.14241919  1
  Zn  Zn1  1  0.05435215  0.94267720  0.94944109  1
  Zn  Zn2  1  0.53782349  0.01176597  0.81278019  1
  Zn  Zn3  1  0.18048367  0.25539801  0.27466216  1
  Zn  Zn4  1  0.02221270  0.72932269  0.25430846  1
  Zn  Zn5  1  0.38125124  0.41352819  0.42870696  1
  Zn  Zn6  1  0.13604923  0.21369810  0.70785999  1
  Zn  Zn7  1  0.87493443  0.83546008  0.93889955  1
  Zn  Zn8  1  0.91096326  0.56064898  0.78358708  1
  Zn  Zn9  1  0.11186292  0.29667857  0.53635196  1
  Zn  Zn10  1  0.58167464  0.14121157  0.58406722  1
  Zn  Zn11  1  0.97889872  0.97759409  0.59319766  1
  Zn  Zn12  1  0.25877031  0.33346890  0.81114827  1
  Zn  Zn13  1  0.19942778  0.53890647  0.55412308  1
  Zn  Zn14  1  0.89336406  0.50326272  0.47949391  1
  Zn  Zn15  1  0.59981898  0.22341315  0.41053797  1
  Zn  Zn16  1  0.22316217  0.15098516  0.08438257  1
  Zn  Zn17  1  0.84773229  0.09084682  0.67798521  1
  Zn  Zn18  1  0.34325737  0.90652923  0.89674442  1
  Zn  Zn19  1  0.18601697  0.36471288  0.12208892  1
  Zn  Zn20  1  0.12428252  0.71519207  0.86951681  1
  Zn  Zn21  1  0.61224098  0.90395830  0.40103133  1
  Zn  Zn22  1  0.85889943  0.33410582  0.64669229  1
  Zn  Zn23  1  0.76615556  0.02830142  0.35892598  1
  Zn  Zn24  1  0.16672559  0.12391443  0.55426850  1
  Zn  Zn25  1  0.72997416  0.02300182  0.53324017  1
  Zn  Zn26  1  0.74956443  0.84531590  0.20445349  1
  Zn  Zn27  1  0.60176490  0.74269248  0.82315430  1
  Zn  Zn28  1  0.31690301  0.96392864  0.63618697  1
  Zn  Zn29  1  0.51415540  0.08668531  0.17975548  1
  Zn  Zn30  1  0.66141742  0.47882397  0.95353871  1
  Zn  Zn31  1  0.73434013  0.58039755  0.64842552  1
  Zn  Zn32  1  0.38721451  0.21006056  0.98240938  1
  Zn  Zn33  1  0.86474171  0.01959123  0.96219130  1
  Zn  Zn34  1  0.39019630  0.05749766  0.41396189  1
  Zn  Zn35  1  0.17735952  0.20778474  0.91223870  1
  Zn  Zn36  1  0.90273896  0.42705644  0.18720789  1
  Zn  Zn37  1  0.36092563  0.60287741  0.94506726  1
  Zn  Zn38  1  0.11635440  0.50899535  0.70902869  1
  Zn  Zn39  1  0.75744002  0.73441272  0.42897156  1
  Zn  Zn40  1  0.01544698  0.39443962  0.82219234  1
  Zn  Zn41  1  0.60987795  0.45754167  0.39047781  1
  Zn  Zn42  1  0.37755194  0.30787390  0.19659187  1
  Zn  Zn43  1  0.85359312  0.65236008  0.05790924  1
  Zn  Zn44  1  0.98838940  0.12699252  0.21588777  1
  Zn  Zn45  1  0.59971666  0.39713947  0.17112056  1
  Zn  Zn46  1  0.52090954  0.78518087  0.60851080  1
  Zn  Zn47  1  0.52549589  0.86071073  0.04219951  1
  Zn  Zn48  1  0.26422739  0.62103410  0.32206625  1
  Zn  Zn49  1  0.93959564  0.66182512  0.64214018  1
  S  S0  1  0.37023908  0.10995690  0.56442103  1
  S  S1  1  0.35680414  0.83768250  0.52355160  1
  S  S2  1  0.71387515  0.01583888  0.18724496  1
  S  S3  1  0.95183216  0.75029045  0.40838213  1
  S  S4  1  0.25194112  0.60729516  0.81122410  1
  S  S5  1  0.19953748  0.35487019  0.40501427  1
  S  S6  1  0.82904644  0.09102727  0.10960342  1
  S  S7  1  0.43112491  0.70566926  0.06029543  1
  S  S8  1  0.68138077  0.78987861  0.96257472  1
  S  S9  1  0.94469519  0.23114100  0.75388752  1
  S  S10  1  0.78072226  0.43946366  0.83957145  1
  S  S11  1  0.75305653  0.38076151  0.28979940  1
  S  S12  1  0.47364698  0.01781284  0.96180961  1
  S  S13  1  0.18817662  0.53000099  0.18211528  1
  S  S14  1  0.09011500  0.76861840  0.71055244  1
  S  S15  1  0.74514496  0.23171429  0.30917319  1
  S  S16  1  0.54859939  0.35186553  0.50515198  1
  S  S17  1  0.01082159  0.29551134  0.16554922  1
  S  S18  1  0.68588196  0.84839758  0.55403406  1
  S  S19  1  0.05944530  0.01642058  0.44690233  1
  S  S20  1  0.94079615  0.11381506  0.37825029  1
  S  S21  1  0.67771708  0.19306523  0.83305618  1
  S  S22  1  0.20880397  0.77376794  0.27438828  1
  S  S23  1  0.04778469  0.10657540  0.97325398  1
  S  S24  1  0.70316210  0.41281325  0.70138254  1
  S  S25  1  0.41032841  0.89443259  0.39607188  1
  S  S26  1  0.44603219  0.16845238  0.31193590  1
  S  S27  1  0.92304445  0.34581216  0.50274610  1
  S  S28  1  0.56535982  0.64718882  0.69793448  1
  S  S29  1  0.46407826  0.46349330  0.26593277  1
  S  S30  1  0.53057649  0.24334095  0.10251882  1
  S  S31  1  0.93207706  0.83312469  0.67487425  1
  S  S32  1  0.74697876  0.05241939  0.82383535  1
  S  S33  1  0.63940665  0.76838943  0.29925067  1
  S  S34  1  0.34806448  0.57885455  0.46573445  1
  S  S35  1  0.44674784  0.34176494  0.86892194  1
  S  S36  1  0.75008270  0.51503222  0.09800082  1
  S  S37  1  0.14937852  0.37870570  0.95072918  1
  S  S38  1  0.17932934  0.09044823  0.22754034  1
  S  S39  1  0.90515488  0.80036123  0.13447386  1
  S  S40  1  0.02018667  0.63314054  0.49269132  1
  S  S41  1  0.20009699  0.84044579  0.97371570  1
  S  S42  1  0.43519258  0.87536680  0.75647734  1
  S  S43  1  0.45195729  0.92515899  0.17853638  1
  S  S44  1  0.71896861  0.57611343  0.47808746  1
  S  S45  1  0.14830011  0.02608750  0.69795393  1
  S  S46  1  0.01805352  0.56709873  0.18425707  1
  S  S47  1  0.94102536  0.67250033  0.91374115  1
  S  S48  1  0.47235579  0.45758750  0.96865496  1
  S  S49  1  0.53306104  0.16825940  0.74330010  1
loop_
_geom_bond_atom_site_label_1
_geom_bond_atom_site_label_2
_geom_bond_distance
_geom_bond_site_symmetry_2
S0 Zn34 2.255308 1_555
S0 Zn28 2.360588 1_545
S0 Zn24 2.419265 1_555
S0 Zn10 2.536090 1_555
S1 S25 2.107345 1_555
S1 Zn46 2.340528 1_555
S1 Zn28 2.399678 1_555
S2 S6 2.086333 1_555
S2 Zn26 2.393996 1_545
S2 Zn23 2.457399 1_555
S2 Zn29 2.567074 1_555
S3 S40 2.147888 1_655
S3 Zn39 2.353834 1_555
S3 Zn4 2.394393 1_655
S4 Zn37 2.212787 1_555
S4 Zn20 2.309781 1_555
S4 Zn38 2.456210 1_555
S5 Zn3 2.263904 1_555
S5 Zn5 2.293602 1_555
S5 Zn9 2.335880 1_555
S6 Zn33 2.347440 1_554
S6 Zn44 2.369672 1_555
S7 Zn37 2.239257 1_554
S7 Zn0 2.339319 1_555
S7 Zn47 2.418272 1_555
S8 Zn27 2.202002 1_555
S8 Zn7 2.421678 1_555
S8 Zn47 2.431992 1_556
S9 Zn22 2.281693 1_555
S9 Zn6 2.418491 1_655
S9 Zn17 2.422578 1_555
S9 Zn40 2.531336 1_655
S10 S24 2.118152 1_555
S10 Zn30 2.276020 1_555
S10 Zn8 2.437215 1_555
S10 Zn40 2.885859 1_655
S11 S15 2.068667 1_555
S11 Zn45 2.398546 1_555
S11 Zn36 2.454222 1_555
S11 Zn41 2.515977 1_555
S12 Zn2 2.284574 1_555
S12 Zn18 2.293384 1_545
S12 Zn47 2.514647 1_546
S12 Zn32 2.855279 1_555
S13 S46 2.089439 1_555
S13 Zn19 2.402841 1_555
S13 Zn48 2.427688 1_555
S14 S31 2.114597 1_455
S14 Zn20 2.379254 1_555
S14 Zn49 2.431479 1_455
S15 Zn15 2.319204 1_555
S15 Zn23 2.897384 1_555
S16 Zn15 2.301361 1_555
S16 Zn41 2.339422 1_555
S16 Zn5 2.363877 1_555
S17 Zn36 2.252520 1_455
S17 Zn19 2.399772 1_555
S17 Zn44 2.446981 1_455
S17 Zn3 2.517936 1_555
S18 Zn46 2.318602 1_555
S18 Zn21 2.409255 1_555
S18 Zn25 2.472139 1_565
S18 Zn39 2.530668 1_555
S19 S20 2.144355 1_455
S19 Zn24 2.384507 1_555
S19 Zn11 2.399559 1_445
S20 Zn23 2.366712 1_555
S20 Zn44 2.405034 1_555
S21 S49 2.080348 1_555
S21 S32 2.109328 1_555
S22 Zn4 2.287310 1_555
S22 Zn0 2.296278 1_555
S22 Zn48 2.299715 1_555
S23 Zn1 2.268478 1_545
S23 Zn35 2.284031 1_555
S23 Zn33 2.460901 1_455
S23 Zn16 2.575363 1_556
S24 Zn22 2.320816 1_555
S24 Zn31 2.461445 1_555
S25 Zn34 2.261942 1_565
S25 Zn21 2.394515 1_555
S26 Zn34 2.239922 1_555
S26 Zn15 2.324440 1_555
S26 Zn29 2.352220 1_555
S26 Zn42 2.630799 1_555
S27 Zn14 2.217519 1_555
S27 Zn22 2.224657 1_555
S27 Zn9 2.365129 1_655
S28 Zn27 2.192672 1_555
S28 Zn46 2.337411 1_555
S28 Zn31 2.357803 1_555
S29 Zn45 2.343669 1_555
S29 Zn41 2.379375 1_555
S29 Zn42 2.508728 1_555
S29 Zn5 2.657562 1_555
S30 Zn32 2.348627 1_554
S30 Zn45 2.414027 1_555
S30 Zn29 2.438339 1_555
S30 Zn42 2.483557 1_555
S31 Zn49 2.388440 1_555
S31 Zn11 2.389682 1_555
S32 Zn33 2.370666 1_555
S32 Zn17 2.511561 1_555
S32 Zn2 2.531702 1_555
S33 Zn26 2.208569 1_555
S33 Zn39 2.281741 1_555
S33 Zn21 2.364779 1_555
S34 Zn48 2.279592 1_555
S34 Zn13 2.297742 1_555
S34 Zn5 2.359497 1_555
S35 S48 2.105655 1_555
S35 Zn12 2.321121 1_555
S35 Zn32 2.561326 1_555
S36 Zn30 2.268696 1_554
S36 Zn43 2.337236 1_555
S36 Zn36 2.469798 1_555
S36 Zn45 2.668571 1_555
S37 Zn40 2.338872 1_555
S37 Zn35 2.426625 1_555
S37 Zn19 2.435107 1_556
S37 Zn12 2.504252 1_555
S38 Zn16 2.287622 1_555
S38 Zn44 2.321135 1_455
S38 Zn3 2.344291 1_555
S39 Zn26 2.240626 1_555
S39 Zn43 2.335120 1_555
S39 Zn4 2.343241 1_655
S39 Zn7 2.805782 1_554
S40 Zn14 2.315532 1_455
S40 Zn49 2.401430 1_455
S40 Zn13 2.604651 1_555
S41 Zn1 2.249221 1_555
S41 Zn18 2.269289 1_555
S41 Zn20 2.366327 1_555
S41 Zn0 2.678631 1_556
S42 Zn2 2.317078 1_565
S42 Zn18 2.358687 1_555
S42 Zn28 2.469288 1_555
S42 Zn46 2.672140 1_555
S42 Zn27 2.824543 1_555
S43 Zn29 2.326173 1_565
S43 Zn47 2.328719 1_555
S43 Zn0 2.427597 1_555
S44 Zn14 2.306560 1_555
S44 Zn39 2.340570 1_555
S44 Zn41 2.344476 1_555
S44 Zn31 2.394306 1_555
S45 Zn28 2.396176 1_545
S45 Zn24 2.471289 1_555
S45 Zn11 2.485756 1_445
S45 Zn6 2.579313 1_555
S46 Zn36 2.348685 1_455
S46 Zn4 2.414603 1_555
S46 Zn43 2.825495 1_455
S47 Zn43 2.365295 1_556
S47 Zn8 2.373251 1_555
S47 Zn20 2.374834 1_655
S47 Zn7 2.403741 1_555
S48 Zn30 2.284935 1_555
S48 Zn37 2.417728 1_555
S49 Zn2 2.374801 1_555
S49 Zn10 2.379592 1_555
