# generated using pymatgen
data_HoFe4(CuO4)3
_symmetry_space_group_name_H-M   'P 1'
_cell_length_a   6.46071406
_cell_length_b   6.46071406
_cell_length_c   6.46071406
_cell_angle_alpha   109.47122063
_cell_angle_beta   109.47122063
_cell_angle_gamma   109.47122063
_symmetry_Int_Tables_number   1
_chemical_formula_structural   HoFe4(CuO4)3
_chemical_formula_sum   'Ho1 Fe4 Cu3 O12'
_cell_volume   207.59632911
_cell_formula_units_Z   1
loop_
 _symmetry_equiv_pos_site_id
 _symmetry_equiv_pos_as_xyz
  1  'x, y, z'
loop_
 _atom_site_type_symbol
 _atom_site_label
 _atom_site_symmetry_multiplicity
 _atom_site_fract_x
 _atom_site_fract_y
 _atom_site_fract_z
 _atom_site_occupancy
  Ho  Ho0  1  0.00000000  0.00000000  0.00000000  1
  Fe  Fe0  1  0.00000000  0.00000000  0.50000000  1
  Fe  Fe1  1  0.50000000  0.00000000  0.00000000  1
  Fe  Fe2  1  0.00000000  0.50000000  0.00000000  1
  Fe  Fe3  1  0.50000000  0.50000000  0.50000000  1
  Cu  Cu0  1  0.50000000  0.00000000  0.50000000  1
  Cu  Cu1  1  0.00000000  0.50000000  0.50000000  1
  Cu  Cu2  1  0.50000000  0.50000000  0.00000000  1
  O  O0  1  0.16421100  0.85700900  0.69279700  1
  O  O1  1  0.83578900  0.14299100  0.30720300  1
  O  O2  1  0.83578900  0.52858600  0.69279700  1
  O  O3  1  0.16421100  0.47141400  0.30720300  1
  O  O4  1  0.85700900  0.69279700  0.16421100  1
  O  O5  1  0.14299100  0.30720300  0.83578900  1
  O  O6  1  0.52858600  0.69279700  0.83578900  1
  O  O7  1  0.47141400  0.30720300  0.16421100  1
  O  O8  1  0.69279700  0.16421100  0.85700900  1
  O  O9  1  0.30720300  0.83578900  0.14299100  1
  O  O10  1  0.69279700  0.83578900  0.52858600  1
  O  O11  1  0.30720300  0.16421100  0.47141400  1
loop_
_geom_bond_atom_site_label_1
_geom_bond_atom_site_label_2
_geom_bond_distance
_geom_bond_site_symmetry_2
Ho0 O1 2.598662 1_455
Ho0 O9 2.598662 1_545
Ho0 O5 2.598662 1_554
Ho0 O8 2.598662 1_454
Ho0 O0 2.598662 1_544
Ho0 O4 2.598662 1_445
Ho0 O11 2.598663 1_555
Ho0 O3 2.598663 1_555
Ho0 O2 2.598663 1_444
Ho0 O7 2.598663 1_555
Ho0 O10 2.598663 1_444
Ho0 O6 2.598663 1_444
Fe0 O1 2.017448 1_455
Fe0 O0 2.017448 1_545
Fe0 O10 2.017453 1_445
Fe0 O11 2.017453 1_555
Fe0 O4 2.017454 1_445
Fe0 O5 2.017454 1_555
Fe1 O9 2.017448 1_545
Fe1 O8 2.017448 1_554
Fe1 O6 2.017453 1_544
Fe1 O7 2.017453 1_555
Fe1 O0 2.017454 1_544
Fe1 O1 2.017454 1_555
Fe2 O5 2.017448 1_554
Fe2 O4 2.017448 1_455
Fe2 O2 2.017453 1_454
Fe2 O3 2.017453 1_555
Fe2 O8 2.017454 1_454
Fe2 O9 2.017454 1_555
Fe3 O7 2.017453 1_555
Fe3 O11 2.017453 1_555
Fe3 O10 2.017453 1_555
Fe3 O2 2.017453 1_555
Fe3 O3 2.017453 1_555
Fe3 O6 2.017453 1_555
Cu0 O10 1.889299 1_545
Cu0 O11 1.889299 1_555
Cu0 O8 1.889304 1_555
Cu0 O9 1.889304 1_545
Cu1 O3 1.889299 1_555
Cu1 O2 1.889299 1_455
Cu1 O0 1.889304 1_555
Cu1 O1 1.889304 1_455
Cu2 O6 1.889299 1_554
Cu2 O7 1.889299 1_555
Cu2 O4 1.889304 1_555
Cu2 O5 1.889304 1_554
