# generated using pymatgen
data_Sr2LiYbUO6
_symmetry_space_group_name_H-M   'P 1'
_cell_length_a   5.94965826
_cell_length_b   5.94965826
_cell_length_c   6.60118415
_cell_angle_alpha   63.21455166
_cell_angle_beta   63.21455166
_cell_angle_gamma   60.00000000
_symmetry_Int_Tables_number   1
_chemical_formula_structural   Sr2LiYbUO6
_chemical_formula_sum   'Sr2 Li1 Yb1 U1 O6'
_cell_volume   172.80859644
_cell_formula_units_Z   1
loop_
 _symmetry_equiv_pos_site_id
 _symmetry_equiv_pos_as_xyz
  1  'x, y, z'
loop_
 _atom_site_type_symbol
 _atom_site_label
 _atom_site_symmetry_multiplicity
 _atom_site_fract_x
 _atom_site_fract_y
 _atom_site_fract_z
 _atom_site_occupancy
  Sr  Sr0  1  0.69399201  0.69399201  0.91802396  1
  Sr  Sr1  1  0.21962018  0.21962018  0.34114047  1
  Li  Li0  1  0.86924305  0.86924305  0.39226984  1
  Yb  Yb0  1  0.50123177  0.50123177  0.49630668  1
  U  U0  1  0.01804906  0.01804906  0.94585181  1
  O  O0  1  0.75782392  0.75782392  0.23225532  1
  O  O1  1  0.25835006  0.25835006  0.70529776  1
  O  O2  1  0.77800313  0.25835006  0.70529776  1
  O  O3  1  0.25209684  0.75782392  0.23225532  1
  O  O4  1  0.25835006  0.77800313  0.70529776  1
  O  O5  1  0.75782392  0.25209684  0.23225532  1
loop_
_geom_bond_atom_site_label_1
_geom_bond_atom_site_label_2
_geom_bond_distance
_geom_bond_site_symmetry_2
Li0 O0 1.922573 1_555
Li0 O5 1.922577 1_565
Li0 O3 1.922577 1_655
O0 Yb0 2.287650 1_555
O0 U0 2.342898 1_664
O0 Sr0 2.481019 1_554
O0 Sr1 3.037554 1_655
O0 Sr1 3.037554 1_565
O1 U0 2.135725 1_555
O1 Yb0 2.138745 1_555
O1 Sr1 2.633702 1_555
O2 U0 2.135717 1_655
O2 Yb0 2.138741 1_555
O2 Sr1 2.633702 1_655
O3 Yb0 2.287658 1_555
O3 U0 2.342902 1_564
O3 Sr0 2.481019 1_554
O3 Sr1 3.037551 1_555
O3 Sr1 3.037557 1_565
O4 U0 2.135717 1_565
O4 Yb0 2.138741 1_555
O4 Sr1 2.633702 1_565
O5 Yb0 2.287658 1_555
O5 U0 2.342902 1_654
O5 Sr0 2.481019 1_554
O5 Sr1 3.037551 1_555
O5 Sr1 3.037557 1_655
