# generated using pymatgen
data_LiMg14W
_symmetry_space_group_name_H-M   'P 1'
_cell_length_a   6.27430729
_cell_length_b   6.36580908
_cell_length_c   9.98253473
_cell_angle_alpha   90.00000000
_cell_angle_beta   90.00000000
_cell_angle_gamma   120.48360991
_symmetry_Int_Tables_number   1
_chemical_formula_structural   LiMg14W
_chemical_formula_sum   'Li1 Mg14 W1'
_cell_volume   343.60048490
_cell_formula_units_Z   1
loop_
 _symmetry_equiv_pos_site_id
 _symmetry_equiv_pos_as_xyz
  1  'x, y, z'
loop_
 _atom_site_type_symbol
 _atom_site_label
 _atom_site_symmetry_multiplicity
 _atom_site_fract_x
 _atom_site_fract_y
 _atom_site_fract_z
 _atom_site_occupancy
  Li  Li0  1  0.16900111  0.33450005  0.12500000  1
  Mg  Mg0  1  0.16917073  0.33458487  0.62500000  1
  Mg  Mg1  1  0.16817893  0.83408897  0.62500000  1
  Mg  Mg2  1  0.66663815  0.33567612  0.12500000  1
  Mg  Mg3  1  0.66595994  0.33396177  0.62500000  1
  Mg  Mg4  1  0.66663815  0.83096103  0.12500000  1
  Mg  Mg5  1  0.66595994  0.83199717  0.62500000  1
  Mg  Mg6  1  0.32433530  0.15514138  0.36316261  1
  Mg  Mg7  1  0.32433530  0.15514138  0.88683739  1
  Mg  Mg8  1  0.32433530  0.66919492  0.36316261  1
  Mg  Mg9  1  0.32433530  0.66919492  0.88683739  1
  Mg  Mg10  1  0.83450447  0.16725273  0.37291506  1
  Mg  Mg11  1  0.83450447  0.16725273  0.87708494  1
  Mg  Mg12  1  0.84520445  0.67260272  0.36641199  1
  Mg  Mg13  1  0.84520445  0.67260272  0.88358801  1
  W  W0  1  0.17169400  0.83584650  0.12500000  1
loop_
_geom_bond_atom_site_label_1
_geom_bond_atom_site_label_2
_geom_bond_distance
_geom_bond_site_symmetry_2
Li0 Mg7 3.005803 1_554
Li0 Mg6 3.005803 1_555
Li0 Mg9 3.005810 1_554
Li0 Mg8 3.005810 1_555
Li0 Mg10 3.065273 1_455
Li0 Mg11 3.065273 1_454
Li0 Mg4 3.118536 1_555
Li0 Mg2 3.118536 1_555
Li0 Mg4 3.155784 1_445
Li0 Mg2 3.155784 1_455
Li0 W0 3.182938 1_545
Li0 W0 3.182938 1_555
Mg0 Mg10 3.099514 1_455
Mg0 Mg11 3.099514 1_455
Mg0 Mg5 3.119022 1_555
Mg0 Mg3 3.119022 1_555
Mg0 Mg5 3.155289 1_445
Mg0 Mg3 3.155289 1_455
Mg0 Mg1 3.182909 1_545
Mg0 Mg1 3.182909 1_555
Mg0 Mg6 3.195766 1_555
Mg0 Mg7 3.195766 1_555
Mg0 Mg8 3.195772 1_555
Mg0 Mg9 3.195772 1_555
Mg1 Mg13 3.116589 1_455
Mg1 Mg12 3.116589 1_455
Mg1 Mg3 3.130007 1_565
Mg1 Mg5 3.130007 1_555
Mg1 Mg3 3.144342 1_455
Mg1 Mg5 3.144342 1_455
Mg1 Mg9 3.152332 1_555
Mg1 Mg8 3.152332 1_555
Mg1 Mg6 3.152338 1_565
Mg1 Mg7 3.152338 1_565
Mg2 Mg7 3.013559 1_554
Mg2 Mg6 3.013559 1_555
Mg2 W0 3.121323 1_545
Mg2 Mg4 3.152889 1_555
Mg2 W0 3.153212 1_655
Mg2 Mg4 3.212920 1_545
Mg3 Mg5 3.170398 1_555
Mg3 Mg5 3.195411 1_545
Mg3 Mg6 3.201034 1_555
Mg3 Mg7 3.201034 1_555
Mg4 Mg9 3.013559 1_554
Mg4 Mg8 3.013559 1_555
Mg4 W0 3.121324 1_555
Mg4 W0 3.153213 1_655
Mg5 Mg8 3.201034 1_555
Mg5 Mg9 3.201034 1_555
Mg6 W0 2.953962 1_545
Mg6 Mg8 3.093442 1_545
Mg6 Mg8 3.272367 1_555
Mg7 W0 2.953962 1_546
Mg7 Mg9 3.093442 1_545
Mg7 Mg9 3.272367 1_555
Mg8 W0 2.953956 1_555
Mg9 W0 2.953956 1_556
Mg10 Mg2 3.086953 1_555
Mg10 Mg4 3.086959 1_545
Mg10 Mg8 3.114691 1_655
Mg10 Mg6 3.114692 1_655
Mg10 Mg3 3.116996 1_555
Mg10 Mg5 3.117002 1_545
Mg10 Mg8 3.164043 1_545
Mg10 Mg6 3.164043 1_555
Mg10 Mg12 3.184092 1_555
Mg10 Mg12 3.184092 1_545
Mg11 Mg2 3.086953 1_556
Mg11 Mg4 3.086959 1_546
Mg11 Mg9 3.114691 1_655
Mg11 Mg7 3.114692 1_655
Mg11 Mg3 3.116996 1_555
Mg11 Mg5 3.117002 1_545
Mg11 Mg9 3.164043 1_545
Mg11 Mg7 3.164043 1_555
Mg11 Mg13 3.184092 1_555
Mg11 Mg13 3.184092 1_545
Mg12 W0 2.987317 1_655
Mg12 Mg6 3.017451 1_665
Mg12 Mg8 3.017451 1_655
Mg12 Mg4 3.037270 1_555
Mg12 Mg2 3.037277 1_555
Mg12 Mg5 3.180501 1_555
Mg12 Mg3 3.180508 1_555
Mg12 Mg6 3.257303 1_555
Mg12 Mg8 3.257303 1_555
Mg13 W0 2.987317 1_656
Mg13 Mg7 3.017451 1_665
Mg13 Mg9 3.017451 1_655
Mg13 Mg4 3.037270 1_556
Mg13 Mg2 3.037277 1_556
Mg13 Mg5 3.180501 1_555
Mg13 Mg3 3.180508 1_555
Mg13 Mg7 3.257303 1_555
Mg13 Mg9 3.257303 1_555
