# generated using pymatgen
data_Zr2Mn12GaSn11
_symmetry_space_group_name_H-M   'P 1'
_cell_length_a   5.37239190
_cell_length_b   5.37446599
_cell_length_c   17.85823400
_cell_angle_alpha   90.00000000
_cell_angle_beta   90.00000000
_cell_angle_gamma   60.15839127
_symmetry_Int_Tables_number   1
_chemical_formula_structural   Zr2Mn12GaSn11
_chemical_formula_sum   'Zr2 Mn12 Ga1 Sn11'
_cell_volume   447.26312438
_cell_formula_units_Z   1
loop_
 _symmetry_equiv_pos_site_id
 _symmetry_equiv_pos_as_xyz
  1  'x, y, z'
loop_
 _atom_site_type_symbol
 _atom_site_label
 _atom_site_symmetry_multiplicity
 _atom_site_fract_x
 _atom_site_fract_y
 _atom_site_fract_z
 _atom_site_occupancy
  Zr  Zr0  1  0.99982900  0.00018900  0.25000000  1
  Zr  Zr1  1  0.99989800  0.00005500  0.75000000  1
  Mn  Mn0  1  0.50394400  0.99207400  0.12976000  1
  Mn  Mn1  1  0.49988200  0.00000800  0.62549100  1
  Mn  Mn2  1  0.99203000  0.50382300  0.12975600  1
  Mn  Mn3  1  0.00001900  0.50007100  0.62547400  1
  Mn  Mn4  1  0.50401000  0.50383100  0.12976800  1
  Mn  Mn5  1  0.49990000  0.50022600  0.62548900  1
  Mn  Mn6  1  0.50394400  0.99207400  0.37024000  1
  Mn  Mn7  1  0.49988200  0.00000800  0.87450900  1
  Mn  Mn8  1  0.99203000  0.50382300  0.37024400  1
  Mn  Mn9  1  0.00001900  0.50007100  0.87452600  1
  Mn  Mn10  1  0.50401000  0.50383100  0.37023200  1
  Mn  Mn11  1  0.49990000  0.50022600  0.87451100  1
  Ga  Ga0  1  0.66650300  0.66639200  0.25000000  1
  Sn  Sn0  1  0.00008900  0.99993100  0.08631400  1
  Sn  Sn1  1  0.00019000  0.99984300  0.58478300  1
  Sn  Sn2  1  0.00008900  0.99993100  0.41368600  1
  Sn  Sn3  1  0.00019000  0.99984300  0.91521700  1
  Sn  Sn4  1  0.66644900  0.66669300  0.00145500  1
  Sn  Sn5  1  0.66644900  0.66669300  0.49854500  1
  Sn  Sn6  1  0.33347500  0.33334000  0.00294800  1
  Sn  Sn7  1  0.33347500  0.33334000  0.49705200  1
  Sn  Sn8  1  0.66624400  0.66705900  0.75000000  1
  Sn  Sn9  1  0.33341900  0.33366200  0.25000000  1
  Sn  Sn10  1  0.33373500  0.33296400  0.75000000  1
loop_
_geom_bond_atom_site_label_1
_geom_bond_atom_site_label_2
_geom_bond_distance
_geom_bond_site_symmetry_2
Mn0 Sn9 2.673316 1_565
Mn0 Sn4 2.747903 1_555
Mn0 Sn6 2.767606 1_565
Mn0 Sn0 2.795951 1_555
Mn0 Sn0 2.796531 1_655
Mn1 Sn8 2.711677 1_545
Mn1 Sn10 2.711694 1_555
Mn1 Sn5 2.748440 1_545
Mn1 Sn7 2.770517 1_555
Mn1 Sn1 2.781658 1_545
Mn1 Sn1 2.784001 1_645
Mn2 Sn9 2.672454 1_655
Mn2 Sn4 2.748038 1_555
Mn2 Sn6 2.767674 1_655
Mn2 Sn0 2.796627 1_645
Mn2 Sn0 2.797832 1_655
Mn3 Sn10 2.713634 1_555
Mn3 Sn8 2.713790 1_455
Mn3 Sn5 2.748523 1_455
Mn3 Sn7 2.770256 1_555
Mn3 Sn1 2.783010 1_555
Mn3 Sn1 2.784493 1_545
Mn4 Sn9 2.668466 1_555
Mn4 Sn4 2.745658 1_555
Mn4 Sn6 2.764723 1_555
Mn4 Sn0 2.802914 1_645
Mn4 Sn0 2.802991 1_555
Mn5 Sn8 2.710021 1_555
Mn5 Sn10 2.710687 1_555
Mn5 Sn5 2.745359 1_555
Mn5 Sn7 2.768185 1_555
Mn5 Sn1 2.787778 1_555
Mn5 Sn1 2.791278 1_645
Mn6 Sn9 2.673316 1_565
Mn6 Sn5 2.747903 1_555
Mn6 Sn7 2.767606 1_565
Mn6 Sn2 2.795951 1_555
Mn6 Sn2 2.796531 1_655
Mn7 Sn8 2.711677 1_545
Mn7 Sn10 2.711694 1_555
Mn7 Sn4 2.748440 1_546
Mn7 Sn6 2.770517 1_556
Mn7 Sn3 2.781658 1_545
Mn7 Sn3 2.784001 1_645
Mn8 Sn9 2.672454 1_655
Mn8 Sn5 2.748038 1_555
Mn8 Sn7 2.767674 1_655
Mn8 Sn2 2.796627 1_645
Mn8 Sn2 2.797832 1_655
Mn9 Sn10 2.713634 1_555
Mn9 Sn8 2.713790 1_455
Mn9 Sn4 2.748523 1_456
Mn9 Sn6 2.770256 1_556
Mn9 Sn3 2.783010 1_555
Mn9 Sn3 2.784493 1_545
Mn10 Sn9 2.668466 1_555
Mn10 Sn5 2.745658 1_555
Mn10 Sn7 2.764723 1_555
Mn10 Sn2 2.802914 1_645
Mn10 Sn2 2.802991 1_555
Mn11 Sn8 2.710021 1_555
Mn11 Sn10 2.710687 1_555
Mn11 Sn4 2.745359 1_556
Mn11 Sn6 2.768185 1_556
Mn11 Sn3 2.787778 1_555
Mn11 Sn3 2.791278 1_645
Ga0 Mn4 2.625761 1_555
Ga0 Mn10 2.625761 1_555
Ga0 Mn8 2.629124 1_555
Ga0 Mn2 2.629124 1_555
Ga0 Mn0 2.629820 1_555
Ga0 Mn6 2.629820 1_555
Ga0 Sn9 3.095907 1_555
Ga0 Zr0 3.101995 1_565
Ga0 Zr0 3.105742 1_555
Ga0 Zr0 3.106747 1_465
Ga0 Sn9 3.107857 1_655
Ga0 Sn9 3.110707 1_565
Sn0 Zr0 2.923143 1_465
Sn1 Zr1 2.950484 1_465
Sn2 Zr0 2.923143 1_465
Sn3 Zr1 2.950484 1_465
Sn8 Zr1 3.099794 1_565
Sn8 Zr1 3.105207 1_465
Sn8 Zr1 3.109475 1_555
Sn9 Zr0 3.101715 1_455
Sn9 Zr0 3.105513 1_555
Sn9 Zr0 3.107254 1_465
Sn10 Zr1 3.100241 1_455
Sn10 Zr1 3.104355 1_555
Sn10 Zr1 3.109883 1_465
