# generated using pymatgen
data_U(BOs)4
_symmetry_space_group_name_H-M   'P 1'
_cell_length_a   9.25523313
_cell_length_b   9.25523313
_cell_length_c   9.25523313
_cell_angle_alpha   131.87355280
_cell_angle_beta   131.87355280
_cell_angle_gamma   70.42880995
_symmetry_Int_Tables_number   1
_chemical_formula_structural   U(BOs)4
_chemical_formula_sum   'U4 B16 Os16'
_cell_volume   430.74499416
_cell_formula_units_Z   4
loop_
 _symmetry_equiv_pos_site_id
 _symmetry_equiv_pos_as_xyz
  1  'x, y, z'
loop_
 _atom_site_type_symbol
 _atom_site_label
 _atom_site_symmetry_multiplicity
 _atom_site_fract_x
 _atom_site_fract_y
 _atom_site_fract_z
 _atom_site_occupancy
  U  U0  1  0.25000000  0.25000000  0.00000000  1
  U  U1  1  0.75000000  0.75000000  0.00000000  1
  U  U2  1  0.50000000  0.00000000  0.50000000  1
  U  U3  1  0.00000000  0.50000000  0.50000000  1
  B  B0  1  0.22547900  0.91284100  0.97351900  1
  B  B1  1  0.72547900  0.75195900  0.31263800  1
  B  B2  1  0.16284100  0.97547900  0.47351900  1
  B  B3  1  0.66284100  0.18932100  0.18736200  1
  B  B4  1  0.52452100  0.33715900  0.52648100  1
  B  B5  1  0.02452100  0.49804100  0.18736200  1
  B  B6  1  0.58715900  0.27452100  0.02648100  1
  B  B7  1  0.08715900  0.06067900  0.31263800  1
  B  B8  1  0.43932100  0.41284100  0.68736200  1
  B  B9  1  0.93932100  0.25195900  0.02648100  1
  B  B10  1  0.00195900  0.47547900  0.81263800  1
  B  B11  1  0.50195900  0.68932100  0.52648100  1
  B  B12  1  0.31067900  0.83715900  0.81263800  1
  B  B13  1  0.81067900  0.99804100  0.47351900  1
  B  B14  1  0.74804100  0.77452100  0.68736200  1
  B  B15  1  0.24804100  0.56067900  0.97351900  1
  Os  Os0  1  0.53688300  0.07451600  0.23623300  1
  Os  Os1  1  0.03688300  0.80065000  0.46236800  1
  Os  Os2  1  0.32451600  0.28688300  0.73623300  1
  Os  Os3  1  0.82451600  0.08828200  0.03763200  1
  Os  Os4  1  0.21311700  0.17548400  0.26376700  1
  Os  Os5  1  0.71311700  0.44935000  0.03763200  1
  Os  Os6  1  0.42548400  0.96311700  0.76376700  1
  Os  Os7  1  0.92548400  0.16171800  0.46236800  1
  Os  Os8  1  0.33828200  0.57451600  0.53763200  1
  Os  Os9  1  0.83828200  0.30065000  0.76376700  1
  Os  Os10  1  0.05065000  0.78688300  0.96236800  1
  Os  Os11  1  0.55065000  0.58828200  0.26376700  1
  Os  Os12  1  0.41171800  0.67548400  0.96236800  1
  Os  Os13  1  0.91171800  0.94935000  0.73623300  1
  Os  Os14  1  0.69935000  0.46311700  0.53763200  1
  Os  Os15  1  0.19935000  0.66171800  0.23623300  1
loop_
_geom_bond_atom_site_label_1
_geom_bond_atom_site_label_2
_geom_bond_distance
_geom_bond_site_symmetry_2
B0 B12 1.770479 1_555
B0 Os4 2.155204 1_566
B0 Os10 2.206369 1_555
B0 Os0 2.265976 1_566
B0 Os13 2.278058 1_455
B0 Os12 2.281583 1_555
B0 U3 2.989841 1_555
B0 U0 3.037798 1_566
B0 U2 3.232282 1_566
B1 B13 1.770490 1_555
B1 Os5 2.155202 1_555
B1 Os11 2.206361 1_555
B1 Os1 2.265974 1_655
B1 Os12 2.278058 1_554
B1 Os13 2.281576 1_555
B1 U2 2.989842 1_565
B1 U1 3.037804 1_555
B1 U3 3.232274 1_655
B2 B7 1.770479 1_565
B2 Os6 2.155204 1_555
B2 Os1 2.206369 1_555
B2 Os2 2.265976 1_565
B2 Os15 2.278058 1_555
B2 Os7 2.281583 1_465
B2 U1 2.989841 1_455
B2 U2 3.037798 1_565
B2 U0 3.232282 1_566
B3 B6 1.770479 1_555
B3 Os7 2.155199 1_555
B3 Os0 2.206354 1_555
B3 Os3 2.265983 1_555
B3 Os14 2.278060 1_555
B3 Os6 2.281577 1_544
B3 U0 2.989842 1_555
B3 U3 3.037804 1_655
B3 U1 3.232274 1_545
B4 B8 1.770479 1_555
B4 Os0 2.155204 1_555
B4 Os14 2.206369 1_555
B4 Os4 2.265976 1_555
B4 Os9 2.278058 1_555
B4 Os8 2.281583 1_555
B4 U1 2.989841 1_556
B4 U2 3.037798 1_555
B4 U0 3.232282 1_555
B5 B9 1.770490 1_455
B5 Os1 2.155202 1_555
B5 Os15 2.206361 1_555
B5 Os5 2.265974 1_455
B5 Os8 2.278058 1_555
B5 Os9 2.281576 1_454
B5 U0 2.989842 1_555
B5 U3 3.037804 1_555
B5 U1 3.232274 1_455
B6 Os2 2.155204 1_554
B6 Os5 2.206369 1_555
B6 Os6 2.265976 1_544
B6 Os11 2.278058 1_555
B6 Os3 2.281583 1_555
B6 U3 2.989841 1_655
B6 U0 3.037798 1_555
B6 U2 3.232282 1_554
B7 Os3 2.155199 1_455
B7 Os4 2.206354 1_555
B7 Os7 2.265983 1_455
B7 Os10 2.278060 1_544
B7 Os2 2.281577 1_555
B7 U2 2.989842 1_555
B7 U1 3.037804 1_445
B7 U3 3.232274 1_555
B8 Os12 2.155199 1_555
B8 Os2 2.206354 1_555
B8 Os8 2.265983 1_555
B8 Os5 2.278060 1_556
B8 Os4 2.281577 1_555
B8 U2 2.989842 1_555
B8 U1 3.037804 1_556
B8 U3 3.232274 1_555
B9 Os13 2.155205 1_544
B9 Os3 2.206347 1_555
B9 Os9 2.265983 1_554
B9 Os4 2.278061 1_655
B9 Os5 2.281575 1_555
B9 U3 2.989834 1_655
B9 U0 3.037811 1_655
B9 U2 3.232276 1_554
B10 B15 1.770490 1_555
B10 Os14 2.155202 1_455
B10 Os9 2.206361 1_455
B10 Os10 2.265974 1_555
B10 Os7 2.278058 1_455
B10 Os15 2.281576 1_556
B10 U0 2.989842 1_556
B10 U3 3.037804 1_555
B10 U1 3.232274 1_456
B11 B14 1.770490 1_555
B11 Os15 2.155205 1_555
B11 Os8 2.206347 1_555
B11 Os11 2.265983 1_555
B11 Os6 2.278061 1_555
B11 Os14 2.281575 1_555
B11 U1 2.989834 1_556
B11 U2 3.037811 1_565
B11 U0 3.232276 1_555
B12 Os8 2.155199 1_555
B12 Os6 2.206354 1_555
B12 Os12 2.265983 1_555
B12 Os1 2.278060 1_555
B12 Os0 2.281577 1_566
B12 U0 2.989842 1_566
B12 U3 3.037804 1_555
B12 U1 3.232274 1_556
B13 Os9 2.155205 1_565
B13 Os7 2.206347 1_565
B13 Os13 2.265983 1_555
B13 Os0 2.278061 1_565
B13 Os1 2.281575 1_655
B13 U1 2.989834 1_555
B13 U2 3.037811 1_565
B13 U0 3.232276 1_666
B14 Os10 2.155202 1_655
B14 Os13 2.206361 1_555
B14 Os14 2.265974 1_555
B14 Os3 2.278058 1_566
B14 Os11 2.281576 1_555
B14 U2 2.989842 1_565
B14 U1 3.037804 1_556
B14 U3 3.232274 1_655
B15 Os11 2.155205 1_556
B15 Os12 2.206347 1_555
B15 Os15 2.265983 1_556
B15 Os2 2.278061 1_555
B15 Os10 2.281575 1_555
B15 U3 2.989834 1_555
B15 U0 3.037811 1_556
B15 U2 3.232276 1_566
Os0 U0 2.927395 1_555
Os0 U2 3.173256 1_555
Os0 U1 3.273136 1_545
Os1 U1 2.927402 1_455
Os1 U3 3.173249 1_555
Os1 U0 3.273133 1_566
Os2 U2 2.927395 1_555
Os2 U0 3.173256 1_556
Os2 U3 3.273136 1_555
Os3 U3 2.927401 1_655
Os3 U1 3.173253 1_545
Os3 U2 3.273133 1_554
Os4 U2 2.927395 1_555
Os4 U0 3.173256 1_555
Os4 U3 3.273136 1_555
Os5 U3 2.927402 1_655
Os5 U1 3.173249 1_555
Os5 U2 3.273133 1_554
Os6 U0 2.927395 1_566
Os6 U2 3.173256 1_565
Os6 U1 3.273136 1_556
Os7 U1 2.927401 1_545
Os7 U3 3.173253 1_655
Os7 U0 3.273133 1_656
Os8 U1 2.927401 1_556
Os8 U3 3.173253 1_555
Os8 U0 3.273133 1_555
Os9 U0 2.927402 1_656
Os9 U2 3.173249 1_555
Os9 U1 3.273133 1_556
Os10 U3 2.927402 1_555
Os10 U1 3.173249 1_456
Os10 U2 3.273133 1_566
Os11 U2 2.927402 1_565
Os11 U0 3.173249 1_555
Os11 U3 3.273133 1_655
Os12 U3 2.927401 1_555
Os12 U1 3.173253 1_556
Os12 U2 3.273133 1_566
Os13 U2 2.927402 1_565
Os13 U0 3.173249 1_666
Os13 U3 3.273133 1_655
Os14 U1 2.927402 1_556
Os14 U3 3.173249 1_655
Os14 U0 3.273133 1_555
Os15 U0 2.927402 1_555
Os15 U2 3.173249 1_565
Os15 U1 3.273133 1_455
