# generated using pymatgen
data_Mn3P4H2(PbO8)2
_symmetry_space_group_name_H-M   'P 1'
_cell_length_a   8.07851617
_cell_length_b   9.00288500
_cell_length_c   9.71874379
_cell_angle_alpha   90.00000000
_cell_angle_beta   100.98798115
_cell_angle_gamma   90.00000000
_symmetry_Int_Tables_number   1
_chemical_formula_structural   Mn3P4H2(PbO8)2
_chemical_formula_sum   'Mn6 P8 H4 Pb4 O32'
_cell_volume   693.88533537
_cell_formula_units_Z   2
loop_
 _symmetry_equiv_pos_site_id
 _symmetry_equiv_pos_as_xyz
  1  'x, y, z'
loop_
 _atom_site_type_symbol
 _atom_site_label
 _atom_site_symmetry_multiplicity
 _atom_site_fract_x
 _atom_site_fract_y
 _atom_site_fract_z
 _atom_site_occupancy
  Mn  Mn0  1  0.00000000  0.00000000  0.00000000  1
  Mn  Mn1  1  0.00000000  0.50000000  0.50000000  1
  Mn  Mn2  1  0.10753900  0.36201700  0.09176900  1
  Mn  Mn3  1  0.89246100  0.86201700  0.40823100  1
  Mn  Mn4  1  0.89246100  0.63798300  0.90823100  1
  Mn  Mn5  1  0.10753900  0.13798300  0.59176900  1
  P  P0  1  0.14094400  0.79547400  0.73221200  1
  P  P1  1  0.85905600  0.29547400  0.76778800  1
  P  P2  1  0.85905600  0.20452600  0.26778800  1
  P  P3  1  0.14094400  0.70452600  0.23221200  1
  P  P4  1  0.65979300  0.79377100  0.06753100  1
  P  P5  1  0.34020700  0.29377100  0.43246900  1
  P  P6  1  0.34020700  0.20622900  0.93246900  1
  P  P7  1  0.65979300  0.70622900  0.56753100  1
  H  H0  1  0.39767600  0.82968600  0.93152600  1
  H  H1  1  0.60232400  0.32968600  0.56847400  1
  H  H2  1  0.60232400  0.17031400  0.06847400  1
  H  H3  1  0.39767600  0.67031400  0.43152600  1
  Pb  Pb0  1  0.40685600  0.97215700  0.25276700  1
  Pb  Pb1  1  0.59314400  0.47215700  0.24723300  1
  Pb  Pb2  1  0.59314400  0.02784300  0.74723300  1
  Pb  Pb3  1  0.40685600  0.52784300  0.75276700  1
  O  O0  1  0.04702600  0.81781400  0.85579100  1
  O  O1  1  0.95297400  0.31781400  0.64420900  1
  O  O2  1  0.95297400  0.18218600  0.14420900  1
  O  O3  1  0.04702600  0.68218600  0.35579100  1
  O  O4  1  0.07473500  0.90312700  0.60942400  1
  O  O5  1  0.92526500  0.40312700  0.89057600  1
  O  O6  1  0.92526500  0.09687300  0.39057600  1
  O  O7  1  0.07473500  0.59687300  0.10942400  1
  O  O8  1  0.11705400  0.63114300  0.68083400  1
  O  O9  1  0.88294600  0.13114300  0.81916600  1
  O  O10  1  0.88294600  0.36885700  0.31916600  1
  O  O11  1  0.11705400  0.86885700  0.18083400  1
  O  O12  1  0.33580500  0.81527200  0.78647600  1
  O  O13  1  0.66419500  0.31527200  0.71352400  1
  O  O14  1  0.66419500  0.18472800  0.21352400  1
  O  O15  1  0.33580500  0.68472800  0.28647600  1
  O  O16  1  0.70894100  0.82568900  0.22442500  1
  O  O17  1  0.29105900  0.32568900  0.27557500  1
  O  O18  1  0.29105900  0.17431100  0.77557500  1
  O  O19  1  0.70894100  0.67431100  0.72442500  1
  O  O20  1  0.75328600  0.89087400  0.97477200  1
  O  O21  1  0.24671400  0.39087400  0.52522800  1
  O  O22  1  0.24671400  0.10912600  0.02522800  1
  O  O23  1  0.75328600  0.60912600  0.47477200  1
  O  O24  1  0.67968600  0.62907400  0.02826500  1
  O  O25  1  0.32031400  0.12907400  0.47173500  1
  O  O26  1  0.32031400  0.37092600  0.97173500  1
  O  O27  1  0.67968600  0.87092600  0.52826500  1
  O  O28  1  0.46394100  0.83677500  0.03694000  1
  O  O29  1  0.53605900  0.33677500  0.46306000  1
  O  O30  1  0.53605900  0.16322500  0.96306000  1
  O  O31  1  0.46394100  0.66322500  0.53694000  1
loop_
_geom_bond_atom_site_label_1
_geom_bond_atom_site_label_2
_geom_bond_distance
_geom_bond_site_symmetry_2
Mn0 O9 2.177929 1_454
Mn0 O11 2.177929 1_545
Mn0 O22 2.193494 1_555
Mn0 O20 2.193494 1_444
Mn0 O2 2.236479 1_455
Mn0 O0 2.236479 1_544
Mn1 O8 2.177929 1_555
Mn1 O10 2.177929 1_455
Mn1 O23 2.193494 1_455
Mn1 O21 2.193494 1_555
Mn1 O1 2.236479 1_455
Mn1 O3 2.236479 1_555
Mn2 O17 2.118132 1_555
Mn2 O7 2.141872 1_555
Mn2 O2 2.163939 1_455
Mn2 O5 2.242995 1_454
Mn2 O26 2.255303 1_554
Mn2 O22 2.672655 1_555
Mn3 O16 2.118132 1_555
Mn3 O6 2.141872 1_565
Mn3 O3 2.163939 1_655
Mn3 O4 2.242995 1_655
Mn3 O27 2.255303 1_555
Mn3 O23 2.672655 1_555
Mn4 O19 2.118132 1_555
Mn4 O5 2.141872 1_555
Mn4 O0 2.163939 1_655
Mn4 O7 2.242995 1_656
Mn4 O24 2.255303 1_556
Mn4 O20 2.672655 1_555
Mn5 O18 2.118132 1_555
Mn5 O4 2.141872 1_545
Mn5 O1 2.163939 1_455
Mn5 O6 2.242995 1_455
Mn5 O25 2.255303 1_555
Mn5 O21 2.672655 1_555
H0 O28 1.063560 1_556
H0 O12 1.409017 1_555
H1 O29 1.063560 1_555
H1 O13 1.409017 1_555
H2 O30 1.063560 1_554
H2 O14 1.409017 1_555
H3 O31 1.063560 1_555
H3 O15 1.409017 1_555
O0 P0 1.551114 1_555
O1 P1 1.551114 1_555
O2 P2 1.551114 1_555
O3 P3 1.551114 1_555
O4 P0 1.551182 1_555
O5 P1 1.551182 1_555
O6 P2 1.551182 1_555
O7 P3 1.551182 1_555
O8 P0 1.561609 1_555
O8 Pb3 2.492146 1_555
O9 P1 1.561609 1_555
O9 Pb2 2.492146 1_555
O10 P2 1.561609 1_555
O10 Pb1 2.492146 1_555
O11 P3 1.561609 1_555
O11 Pb0 2.492146 1_555
O12 P0 1.572097 1_555
O12 Pb3 2.684141 1_555
O13 P1 1.572097 1_555
O13 Pb2 2.684141 1_555
O14 P2 1.572097 1_555
O14 Pb1 2.684141 1_555
O15 P3 1.572097 1_555
O15 Pb0 2.684141 1_555
O16 P4 1.527901 1_555
O17 P5 1.527901 1_555
O18 P6 1.527901 1_555
O19 P7 1.527901 1_555
O20 P4 1.551437 1_556
O20 Pb2 2.644603 1_565
O21 P5 1.551437 1_555
O21 Pb3 2.644603 1_555
O22 P6 1.551437 1_554
O22 Pb0 2.644603 1_545
O23 P7 1.551437 1_555
O23 Pb1 2.644603 1_555
O24 P4 1.547055 1_555
O24 Pb1 2.753265 1_555
O25 P5 1.547055 1_555
O25 Pb0 2.753265 1_545
O26 P6 1.547055 1_555
O26 Pb3 2.753265 1_555
O27 P7 1.547055 1_555
O27 Pb2 2.753265 1_565
O28 P4 1.600719 1_555
O28 Pb0 2.542981 1_555
O29 P5 1.600719 1_555
O29 Pb1 2.542981 1_555
O30 P6 1.600719 1_555
O30 Pb2 2.542981 1_555
O31 P7 1.600719 1_555
O31 Pb3 2.542981 1_555
