# generated using pymatgen
data_LiTi3V5O16
_symmetry_space_group_name_H-M   'P 1'
_cell_length_a   5.88375957
_cell_length_b   5.98501603
_cell_length_c   9.20290609
_cell_angle_alpha   89.86421687
_cell_angle_beta   90.13104548
_cell_angle_gamma   120.31953919
_symmetry_Int_Tables_number   1
_chemical_formula_structural   LiTi3V5O16
_chemical_formula_sum   'Li1 Ti3 V5 O16'
_cell_volume   279.74793327
_cell_formula_units_Z   1
loop_
 _symmetry_equiv_pos_site_id
 _symmetry_equiv_pos_as_xyz
  1  'x, y, z'
loop_
 _atom_site_type_symbol
 _atom_site_label
 _atom_site_symmetry_multiplicity
 _atom_site_fract_x
 _atom_site_fract_y
 _atom_site_fract_z
 _atom_site_occupancy
  Li  Li0  1  0.33396200  0.66710500  0.88266200  1
  Ti  Ti0  1  0.15286400  0.82751500  0.20895000  1
  Ti  Ti1  1  0.19402000  0.33788400  0.20584600  1
  Ti  Ti2  1  0.32236100  0.15050900  0.69300000  1
  V  V0  1  0.33135400  0.65808200  0.47759600  1
  V  V1  1  0.67497700  0.85700700  0.21068700  1
  V  V2  1  0.67584800  0.33514600  0.98461400  1
  V  V3  1  0.82536800  0.16172000  0.70398400  1
  V  V4  1  0.81752200  0.65722700  0.70760800  1
  O  O0  1  0.15436000  0.81963000  0.59986100  1
  O  O1  1  0.05575300  0.53499800  0.34121000  1
  O  O2  1  0.33593700  0.67231900  0.09582700  1
  O  O3  1  0.01578400  0.01108800  0.31354300  1
  O  O4  1  0.99507000  0.99548700  0.80472100  1
  O  O5  1  0.15523200  0.33056700  0.59922400  1
  O  O6  1  0.49244600  0.95261000  0.33548000  1
  O  O7  1  0.48183700  0.52692500  0.33806900  1
  O  O8  1  0.34293900  0.16776200  0.10211900  1
  O  O9  1  0.63911500  0.81990600  0.59996800  1
  O  O10  1  0.52257800  0.48051800  0.82966100  1
  O  O11  1  0.52245000  0.03916100  0.82704000  1
  O  O12  1  0.65696700  0.32856200  0.59553100  1
  O  O13  1  0.83039900  0.67474800  0.10707400  1
  O  O14  1  0.95685300  0.47615400  0.83052200  1
  O  O15  1  0.84733900  0.18423300  0.10663800  1
loop_
_geom_bond_atom_site_label_1
_geom_bond_atom_site_label_2
_geom_bond_distance
_geom_bond_site_symmetry_2
Li0 O2 1.961974 1_556
Li0 O14 1.974083 1_455
Li0 O11 1.988535 1_565
Li0 O10 1.993214 1_555
O0 Ti2 1.913436 1_565
O0 V4 1.978715 1_455
O0 V0 2.076656 1_555
O1 V0 1.880574 1_555
O1 Ti0 1.963701 1_555
O1 Ti1 2.141511 1_555
O2 Ti1 2.008874 1_555
O2 V1 2.021914 1_555
O2 Ti0 2.031433 1_555
O3 Ti0 1.920261 1_545
O3 Ti1 1.957606 1_555
O3 V1 1.973776 1_445
O4 Ti2 1.956243 1_665
O4 V3 1.959759 1_565
O4 V4 1.964083 1_555
O5 V3 1.934235 1_455
O5 Ti2 1.983614 1_555
O5 V0 2.028080 1_555
O6 V1 1.851743 1_555
O6 V0 2.006010 1_555
O6 Ti0 2.095640 1_555
O7 Ti1 1.921244 1_555
O7 V0 1.939234 1_555
O7 V1 2.072894 1_555
O8 Ti1 1.903902 1_555
O8 V2 2.008252 1_554
O8 Ti0 2.015031 1_545
O9 V0 1.926244 1_555
O9 V3 2.010814 1_565
O9 V4 2.013379 1_555
O10 V4 1.882016 1_555
O10 V2 2.093846 1_555
O10 Ti2 2.127530 1_555
O11 V3 1.918975 1_555
O11 Ti2 2.033063 1_555
O11 V2 2.108921 1_555
O12 Ti2 1.923924 1_555
O12 V4 1.988621 1_555
O12 V3 1.991158 1_555
O13 Ti0 1.886588 1_655
O13 V1 1.987823 1_555
O13 V2 2.090034 1_554
O14 V4 2.003246 1_555
O14 V3 2.008099 1_555
O14 V2 2.013231 1_555
O15 V1 1.941952 1_545
O15 Ti1 1.985334 1_655
O15 V2 2.001283 1_554
