# generated using pymatgen
data_Sr2P7Br
_symmetry_space_group_name_H-M   'P 1'
_cell_length_a   9.88982955
_cell_length_b   9.88982955
_cell_length_c   9.88982955
_cell_angle_alpha   90.00000000
_cell_angle_beta   90.00000000
_cell_angle_gamma   90.00000000
_symmetry_Int_Tables_number   1
_chemical_formula_structural   Sr2P7Br
_chemical_formula_sum   'Sr8 P28 Br4'
_cell_volume   967.31165364
_cell_formula_units_Z   4
loop_
 _symmetry_equiv_pos_site_id
 _symmetry_equiv_pos_as_xyz
  1  'x, y, z'
loop_
 _atom_site_type_symbol
 _atom_site_label
 _atom_site_symmetry_multiplicity
 _atom_site_fract_x
 _atom_site_fract_y
 _atom_site_fract_z
 _atom_site_occupancy
  Sr  Sr0  1  0.64754370  0.14754370  0.35245630  1
  Sr  Sr1  1  0.14754370  0.35245630  0.64754370  1
  Sr  Sr2  1  0.35245630  0.64754370  0.14754370  1
  Sr  Sr3  1  0.85245630  0.85245630  0.85245630  1
  Sr  Sr4  1  0.91337941  0.41337941  0.08662059  1
  Sr  Sr5  1  0.41337941  0.08662059  0.91337941  1
  Sr  Sr6  1  0.08662059  0.91337941  0.41337941  1
  Sr  Sr7  1  0.58662059  0.58662059  0.58662059  1
  P  P0  1  0.46323817  0.96323817  0.53676183  1
  P  P1  1  0.96323817  0.53676183  0.46323817  1
  P  P2  1  0.53676183  0.46323817  0.96323817  1
  P  P3  1  0.03676183  0.03676183  0.03676183  1
  P  P4  1  0.21802227  0.94411719  0.11940878  1
  P  P5  1  0.88059122  0.71802227  0.55588281  1
  P  P6  1  0.44411719  0.38059122  0.78197773  1
  P  P7  1  0.71802227  0.55588281  0.88059122  1
  P  P8  1  0.38059122  0.78197773  0.44411719  1
  P  P9  1  0.94411719  0.11940878  0.21802227  1
  P  P10  1  0.78197773  0.44411719  0.38059122  1
  P  P11  1  0.11940878  0.21802227  0.94411719  1
  P  P12  1  0.55588281  0.88059122  0.71802227  1
  P  P13  1  0.28197773  0.05588281  0.61940878  1
  P  P14  1  0.61940878  0.28197773  0.05588281  1
  P  P15  1  0.05588281  0.61940878  0.28197773  1
  P  P16  1  0.20172897  0.88717030  0.73075448  1
  P  P17  1  0.26924552  0.70172897  0.61282970  1
  P  P18  1  0.38717030  0.76924552  0.79827103  1
  P  P19  1  0.70172897  0.61282970  0.26924552  1
  P  P20  1  0.76924552  0.79827103  0.38717030  1
  P  P21  1  0.88717030  0.73075448  0.20172897  1
  P  P22  1  0.79827103  0.38717030  0.76924552  1
  P  P23  1  0.73075448  0.20172897  0.88717030  1
  P  P24  1  0.61282970  0.26924552  0.70172897  1
  P  P25  1  0.29827103  0.11282970  0.23075448  1
  P  P26  1  0.23075448  0.29827103  0.11282970  1
  P  P27  1  0.11282970  0.23075448  0.29827103  1
  Br  Br0  1  0.09671173  0.59671173  0.90328827  1
  Br  Br1  1  0.59671173  0.90328827  0.09671173  1
  Br  Br2  1  0.90328827  0.09671173  0.59671173  1
  Br  Br3  1  0.40328827  0.40328827  0.40328827  1
loop_
_geom_bond_atom_site_label_1
_geom_bond_atom_site_label_2
_geom_bond_distance
_geom_bond_site_symmetry_2
P0 P12 2.172814 1_555
P0 P8 2.172814 1_555
P0 P13 2.172814 1_565
P0 Sr0 3.157096 1_565
P1 P5 2.172814 1_555
P1 P10 2.172814 1_555
P1 P15 2.172814 1_655
P1 Sr1 3.157096 1_655
P2 P7 2.172814 1_555
P2 P6 2.172814 1_555
P2 Sr2 3.157096 1_556
P3 P9 2.172814 1_455
P3 P4 2.172814 1_545
P3 Sr3 3.157096 1_444
P4 Sr5 3.141788 1_564
P4 Sr6 3.199019 1_555
P4 Sr2 3.232324 1_555
P5 Sr6 3.141788 1_655
P5 Sr7 3.199019 1_555
P5 Sr3 3.232324 1_555
P6 Sr7 3.141788 1_555
P6 Sr5 3.199019 1_555
P6 Sr1 3.232324 1_555
P7 Sr4 3.141788 1_556
P7 Sr7 3.199019 1_555
P7 Sr3 3.232324 1_555
P8 Sr7 3.141788 1_555
P8 Sr6 3.199019 1_555
P8 Sr2 3.232324 1_555
P9 Sr6 3.141788 1_645
P9 Sr4 3.199019 1_555
P9 Sr0 3.232324 1_555
P10 P19 2.150933 1_555
P10 Sr7 3.141788 1_555
P10 Sr4 3.199019 1_555
P10 Sr0 3.232324 1_555
P11 P26 2.150933 1_556
P11 P3 2.172814 1_556
P11 Sr4 3.141788 1_456
P11 Sr5 3.199019 1_555
P11 Sr1 3.232324 1_555
P12 P18 2.150933 1_555
P12 Sr5 3.141788 1_565
P12 Sr7 3.199019 1_555
P12 Sr3 3.232324 1_555
P13 P16 2.150933 1_545
P13 Sr6 3.141788 1_545
P13 Sr5 3.199019 1_555
P13 Sr1 3.232324 1_555
P14 P23 2.150933 1_554
P14 P2 2.172814 1_554
P14 Sr5 3.141788 1_554
P14 Sr4 3.199019 1_555
P14 Sr0 3.232324 1_555
P15 P21 2.150933 1_455
P15 Sr4 3.141788 1_455
P15 Sr6 3.199019 1_555
P15 Sr2 3.232324 1_555
P16 P17 2.273655 1_555
P16 P18 2.273655 1_555
P16 Sr6 3.348898 1_555
P16 Sr5 3.396234 1_565
P16 Sr3 3.674012 1_455
P17 P8 2.150933 1_555
P17 P18 2.273655 1_555
P17 Sr7 3.348898 1_555
P17 Sr6 3.396234 1_555
P17 Sr1 3.674012 1_555
P18 Sr5 3.348898 1_565
P18 Sr7 3.396234 1_555
P18 Sr2 3.674012 1_556
P19 P21 2.273655 1_555
P19 P20 2.273655 1_555
P19 Sr7 3.348898 1_555
P19 Sr4 3.396234 1_555
P19 Sr2 3.674012 1_555
P20 P5 2.150933 1_555
P20 P21 2.273655 1_555
P20 Sr6 3.348898 1_655
P20 Sr7 3.396234 1_555
P20 Sr0 3.674012 1_565
P21 Sr4 3.348898 1_555
P21 Sr6 3.396234 1_655
P21 Sr3 3.674012 1_554
P22 P7 2.150933 1_555
P22 P24 2.273655 1_555
P22 P23 2.273655 1_555
P22 Sr4 3.348898 1_556
P22 Sr7 3.396234 1_555
P22 Sr1 3.674012 1_655
P23 P24 2.273655 1_555
P23 Sr5 3.348898 1_555
P23 Sr4 3.396234 1_556
P23 Sr3 3.674012 1_545
P24 P6 2.150933 1_555
P24 Sr7 3.348898 1_555
P24 Sr5 3.396234 1_555
P24 Sr0 3.674012 1_555
P25 P4 2.150933 1_545
P25 P27 2.273655 1_555
P25 P26 2.273655 1_555
P25 Sr5 3.348898 1_554
P25 Sr6 3.396234 1_545
P25 Sr0 3.674012 1_555
P26 P27 2.273655 1_555
P26 Sr4 3.348898 1_455
P26 Sr5 3.396234 1_554
P26 Sr2 3.674012 1_555
P27 P9 2.150933 1_455
P27 Sr6 3.348898 1_545
P27 Sr4 3.396234 1_455
P27 Sr1 3.674012 1_555
Br0 Sr4 3.140425 1_456
Br0 Sr2 3.533451 1_556
Br0 Sr1 3.533451 1_555
Br0 Sr3 3.533451 1_455
Br1 Sr5 3.140425 1_564
Br1 Sr0 3.533451 1_565
Br1 Sr2 3.533451 1_555
Br1 Sr3 3.533451 1_554
Br2 Sr6 3.140425 1_645
Br2 Sr1 3.533451 1_655
Br2 Sr0 3.533451 1_555
Br2 Sr3 3.533451 1_545
Br3 Sr7 3.140425 1_555
Br3 Sr0 3.533451 1_555
Br3 Sr2 3.533451 1_555
Br3 Sr1 3.533451 1_555
