# generated using pymatgen
data_K2U2Cr2H2O17
_symmetry_space_group_name_H-M   'P 1'
_cell_length_a   13.70363542
_cell_length_b   9.64343083
_cell_length_c   13.26388884
_cell_angle_alpha   90.00000000
_cell_angle_beta   101.63188870
_cell_angle_gamma   90.00000000
_symmetry_Int_Tables_number   1
_chemical_formula_structural   K2U2Cr2H2O17
_chemical_formula_sum   'K8 U8 Cr8 H8 O68'
_cell_volume   1716.82629384
_cell_formula_units_Z   4
loop_
 _symmetry_equiv_pos_site_id
 _symmetry_equiv_pos_as_xyz
  1  'x, y, z'
loop_
 _atom_site_type_symbol
 _atom_site_label
 _atom_site_symmetry_multiplicity
 _atom_site_fract_x
 _atom_site_fract_y
 _atom_site_fract_z
 _atom_site_occupancy
  K  K0  1  0.42114440  0.85152529  0.07896019  1
  K  K1  1  0.57885560  0.35152529  0.42103981  1
  K  K2  1  0.57885560  0.14847471  0.92103981  1
  K  K3  1  0.42114440  0.64847471  0.57896019  1
  K  K4  1  0.01654121  0.11009462  0.67613380  1
  K  K5  1  0.98345879  0.61009462  0.82386620  1
  K  K6  1  0.98345879  0.88990538  0.32386620  1
  K  K7  1  0.01654121  0.38990538  0.17613380  1
  U  U0  1  0.25313917  0.17429223  0.93133196  1
  U  U1  1  0.74686083  0.67429223  0.56866804  1
  U  U2  1  0.74686083  0.82570777  0.06866804  1
  U  U3  1  0.25313917  0.32570777  0.43133196  1
  U  U4  1  0.25171366  0.81318571  0.79375909  1
  U  U5  1  0.74828634  0.31318571  0.70624091  1
  U  U6  1  0.74828634  0.18681429  0.20624091  1
  U  U7  1  0.25171366  0.68681429  0.29375909  1
  Cr  Cr0  1  0.22708632  0.95062436  0.52115984  1
  Cr  Cr1  1  0.77291368  0.45062436  0.97884016  1
  Cr  Cr2  1  0.77291368  0.04937564  0.47884016  1
  Cr  Cr3  1  0.22708632  0.54937564  0.02115984  1
  Cr  Cr4  1  0.22099910  0.06284784  0.20870880  1
  Cr  Cr5  1  0.77900090  0.56284784  0.29129120  1
  Cr  Cr6  1  0.77900090  0.93715216  0.79129120  1
  Cr  Cr7  1  0.22099910  0.43715216  0.70870880  1
  H  H0  1  0.51508591  0.79510444  0.31745526  1
  H  H1  1  0.48491409  0.29510444  0.18254474  1
  H  H2  1  0.48491409  0.20489556  0.68254474  1
  H  H3  1  0.51508591  0.70489556  0.81745526  1
  H  H4  1  0.55594716  0.94239312  0.30571357  1
  H  H5  1  0.44405284  0.44239312  0.19428643  1
  H  H6  1  0.44405284  0.05760688  0.69428643  1
  H  H7  1  0.55594716  0.55760688  0.80571357  1
  O  O0  1  0.38700248  0.13773323  0.97600767  1
  O  O1  1  0.61299752  0.63773323  0.52399233  1
  O  O2  1  0.61299752  0.86226677  0.02399233  1
  O  O3  1  0.38700248  0.36226677  0.47600767  1
  O  O4  1  0.12092984  0.21465072  0.89105014  1
  O  O5  1  0.87907016  0.71465072  0.60894986  1
  O  O6  1  0.87907016  0.78534928  0.10894986  1
  O  O7  1  0.12092984  0.28534928  0.39105014  1
  O  O8  1  0.38662364  0.81736166  0.84739508  1
  O  O9  1  0.61337636  0.31736166  0.65260492  1
  O  O10  1  0.61337636  0.18263834  0.15260492  1
  O  O11  1  0.38662364  0.68263834  0.34739508  1
  O  O12  1  0.11827623  0.80055041  0.73940644  1
  O  O13  1  0.88172377  0.30055041  0.76059356  1
  O  O14  1  0.88172377  0.19944959  0.26059356  1
  O  O15  1  0.11827623  0.69944959  0.23940644  1
  O  O16  1  0.28555136  0.86711288  0.62920689  1
  O  O17  1  0.71444864  0.36711288  0.87079311  1
  O  O18  1  0.71444864  0.13288712  0.37079311  1
  O  O19  1  0.28555136  0.63288712  0.12920689  1
  O  O20  1  0.28379811  0.10156568  0.51168583  1
  O  O21  1  0.71620189  0.60156568  0.98831417  1
  O  O22  1  0.71620189  0.89843432  0.48831417  1
  O  O23  1  0.28379811  0.39843432  0.01168583  1
  O  O24  1  0.23247271  0.85154321  0.41762526  1
  O  O25  1  0.76752729  0.35154321  0.08237474  1
  O  O26  1  0.76752729  0.14845679  0.58237474  1
  O  O27  1  0.23247271  0.64845679  0.91762526  1
  O  O28  1  0.11190433  0.97922789  0.52526975  1
  O  O29  1  0.88809567  0.47922789  0.97473025  1
  O  O30  1  0.88809567  0.02077211  0.47473025  1
  O  O31  1  0.11190433  0.52077211  0.02526975  1
  O  O32  1  0.27811028  0.16421876  0.30574197  1
  O  O33  1  0.72188972  0.66421876  0.19425803  1
  O  O34  1  0.72188972  0.83578124  0.69425803  1
  O  O35  1  0.27811028  0.33578124  0.80574197  1
  O  O36  1  0.27470080  0.90500043  0.21641294  1
  O  O37  1  0.72529920  0.40500043  0.28358706  1
  O  O38  1  0.72529920  0.09499957  0.78358706  1
  O  O39  1  0.27470080  0.59499957  0.71641294  1
  O  O40  1  0.23042394  0.13632944  0.09579849  1
  O  O41  1  0.76957606  0.63632944  0.40420151  1
  O  O42  1  0.76957606  0.86367056  0.90420151  1
  O  O43  1  0.23042394  0.36367056  0.59579849  1
  O  O44  1  0.10475305  0.04920618  0.21521848  1
  O  O45  1  0.89524695  0.54920618  0.28478152  1
  O  O46  1  0.89524695  0.95079382  0.78478152  1
  O  O47  1  0.10475305  0.45079382  0.71521848  1
  O  O48  1  0.24331604  0.04551606  0.78729533  1
  O  O49  1  0.75668396  0.54551606  0.71270467  1
  O  O50  1  0.75668396  0.95448394  0.21270467  1
  O  O51  1  0.24331604  0.45448394  0.28729533  1
  O  O52  1  0.22510309  0.94138123  0.92988437  1
  O  O53  1  0.77489691  0.44138123  0.57011563  1
  O  O54  1  0.77489691  0.05861877  0.07011563  1
  O  O55  1  0.22510309  0.55861877  0.42988437  1
  O  O56  1  0.95787194  0.34194838  0.52159252  1
  O  O57  1  0.04212806  0.84194838  0.97840748  1
  O  O58  1  0.04212806  0.65805162  0.47840748  1
  O  O59  1  0.95787194  0.15805162  0.02159252  1
  O  O60  1  0.49943287  0.53035981  0.04053721  1
  O  O61  1  0.50056713  0.03035981  0.45946279  1
  O  O62  1  0.50056713  0.46964019  0.95946279  1
  O  O63  1  0.49943287  0.96964019  0.54053721  1
  O  O64  1  0.53681380  0.85706545  0.26789410  1
  O  O65  1  0.46318620  0.35706545  0.23210590  1
  O  O66  1  0.46318620  0.14293455  0.73210590  1
  O  O67  1  0.53681380  0.64293455  0.76789410  1
loop_
_geom_bond_atom_site_label_1
_geom_bond_atom_site_label_2
_geom_bond_distance
_geom_bond_site_symmetry_2
K0 O64 2.682090 1_555
K0 O2 2.868335 1_555
K0 O19 2.973481 1_555
K0 O36 3.015375 1_555
K0 O8 3.029892 1_554
K0 O0 3.073067 1_564
K0 O52 3.120221 1_554
K0 O60 3.350141 1_555
K1 O65 2.682090 1_555
K1 O3 2.868335 1_555
K1 O18 2.973481 1_555
K1 O37 3.015375 1_555
K1 O9 3.029892 1_555
K1 O1 3.073067 1_555
K1 O53 3.120221 1_555
K1 O61 3.350141 1_555
K2 O66 2.682090 1_555
K2 O0 2.868335 1_555
K2 O17 2.973481 1_555
K2 O38 3.015375 1_555
K2 O10 3.029892 1_556
K2 O2 3.073067 1_546
K2 O54 3.120221 1_556
K2 O62 3.350141 1_555
K3 O67 2.682090 1_555
K3 O1 2.868335 1_555
K3 O16 2.973481 1_555
K3 O39 3.015375 1_555
K3 O11 3.029892 1_555
K3 O3 3.073067 1_555
K3 O55 3.120221 1_555
K3 O63 3.350141 1_555
K4 O46 2.857517 1_445
K4 O28 2.891212 1_545
K4 O13 2.979274 1_455
K4 O30 3.013372 1_455
K4 O56 3.030294 1_455
K4 O4 3.089445 1_555
K4 O48 3.220486 1_555
K4 O12 3.329681 1_545
K5 O47 2.857517 1_655
K5 O29 2.891212 1_555
K5 O12 2.979274 1_655
K5 O31 3.013372 1_656
K5 O57 3.030294 1_655
K5 O5 3.089445 1_555
K5 O49 3.220486 1_555
K5 O13 3.329681 1_555
K6 O44 2.857517 1_665
K6 O30 2.891212 1_565
K6 O15 2.979274 1_655
K6 O28 3.013372 1_655
K6 O58 3.030294 1_655
K6 O6 3.089445 1_555
K6 O50 3.220486 1_555
K6 O14 3.329681 1_565
K7 O45 2.857517 1_455
K7 O31 2.891212 1_555
K7 O14 2.979274 1_455
K7 O29 3.013372 1_454
K7 O59 3.030294 1_455
K7 O7 3.089445 1_555
K7 O51 3.220486 1_555
K7 O15 3.329681 1_555
Cr0 O28 1.614044 1_555
Cr0 O20 1.666702 1_565
Cr0 O24 1.686755 1_555
Cr0 O16 1.697440 1_555
Cr1 O29 1.614044 1_555
Cr1 O21 1.666702 1_555
Cr1 O25 1.686755 1_556
Cr1 O17 1.697440 1_555
Cr2 O30 1.614044 1_555
Cr2 O22 1.666702 1_545
Cr2 O26 1.686755 1_555
Cr2 O18 1.697440 1_555
Cr3 O31 1.614044 1_555
Cr3 O23 1.666702 1_555
Cr3 O27 1.686755 1_554
Cr3 O19 1.697440 1_555
Cr4 O44 1.617978 1_555
Cr4 O32 1.678817 1_555
Cr4 O36 1.684857 1_545
Cr4 O40 1.685144 1_555
Cr5 O45 1.617978 1_555
Cr5 O33 1.678817 1_555
Cr5 O37 1.684857 1_555
Cr5 O41 1.685144 1_555
Cr6 O46 1.617978 1_555
Cr6 O34 1.678817 1_555
Cr6 O38 1.684857 1_565
Cr6 O42 1.685144 1_555
Cr7 O47 1.617978 1_555
Cr7 O35 1.678817 1_555
Cr7 O39 1.684857 1_555
Cr7 O43 1.685144 1_555
H0 O64 0.978137 1_555
H1 O65 0.978137 1_555
H2 O66 0.978137 1_555
H3 O67 0.978137 1_555
H4 O64 0.971818 1_555
H5 O65 0.971818 1_555
H6 O66 0.971818 1_555
H7 O67 0.971818 1_555
O0 U0 1.844498 1_555
O1 U1 1.844498 1_555
O2 U2 1.844498 1_555
O3 U3 1.844498 1_555
O4 U0 1.824563 1_555
O5 U1 1.824563 1_555
O6 U2 1.824563 1_555
O7 U3 1.824563 1_555
O8 U4 1.842628 1_555
O9 U5 1.842628 1_555
O10 U6 1.842628 1_555
O11 U7 1.842628 1_555
O12 U4 1.829397 1_555
O13 U5 1.829397 1_555
O14 U6 1.829397 1_555
O15 U7 1.829397 1_555
O16 U4 2.378514 1_555
O17 U5 2.378514 1_555
O18 U6 2.378514 1_555
O19 U7 2.378514 1_555
O20 U3 2.409142 1_555
O21 U2 2.409142 1_556
O22 U1 2.409142 1_555
O23 U0 2.409142 1_554
O24 U7 2.338157 1_555
O25 U6 2.338157 1_555
O26 U5 2.338157 1_555
O27 U4 2.338157 1_555
O32 U3 2.355228 1_555
O33 U2 2.355228 1_555
O34 U1 2.355228 1_555
O35 U0 2.355228 1_555
O36 U7 2.389377 1_555
O37 U6 2.389377 1_555
O38 U5 2.389377 1_555
O39 U4 2.389377 1_555
O40 U0 2.294240 1_554
O41 U1 2.294240 1_555
O42 U2 2.294240 1_556
O43 U3 2.294240 1_555
O48 U4 2.244167 1_545
O48 U0 2.259767 1_555
O49 U5 2.244167 1_555
O49 U1 2.259767 1_555
O50 U6 2.244167 1_565
O50 U2 2.259767 1_555
O51 U7 2.244167 1_555
O51 U3 2.259767 1_555
O52 U4 2.277454 1_555
O52 U0 2.278111 1_565
O53 U5 2.277454 1_555
O53 U1 2.278111 1_555
O54 U6 2.277454 1_555
O54 U2 2.278111 1_545
O55 U7 2.277454 1_555
O55 U3 2.278111 1_555
O60 O62 1.227293 1_554
O61 O63 1.227293 1_545
