# generated using pymatgen
data_La3Sn5
_symmetry_space_group_name_H-M   'P 1'
_cell_length_a   6.71122918
_cell_length_b   6.71122918
_cell_length_c   10.68569847
_cell_angle_alpha   90.00000000
_cell_angle_beta   90.00000000
_cell_angle_gamma   102.50829316
_symmetry_Int_Tables_number   1
_chemical_formula_structural   La3Sn5
_chemical_formula_sum   'La6 Sn10'
_cell_volume   469.86665663
_cell_formula_units_Z   2
loop_
 _symmetry_equiv_pos_site_id
 _symmetry_equiv_pos_as_xyz
  1  'x, y, z'
loop_
 _atom_site_type_symbol
 _atom_site_label
 _atom_site_symmetry_multiplicity
 _atom_site_fract_x
 _atom_site_fract_y
 _atom_site_fract_z
 _atom_site_occupancy
  La  La0  1  0.63945840  0.63945840  0.25000000  1
  La  La1  1  0.36054160  0.36054160  0.75000000  1
  La  La2  1  0.20195081  0.79804919  0.50000000  1
  La  La3  1  0.20195081  0.79804919  -0.00000000  1
  La  La4  1  0.79804919  0.20195081  0.50000000  1
  La  La5  1  0.79804919  0.20195081  -0.00000000  1
  Sn  Sn0  1  0.03089203  0.03089203  0.25000000  1
  Sn  Sn1  1  0.96910797  0.96910797  0.75000000  1
  Sn  Sn2  1  0.32061946  0.32061946  0.04991842  1
  Sn  Sn3  1  0.67938054  0.67938054  0.95008158  1
  Sn  Sn4  1  0.32061946  0.32061946  0.45008158  1
  Sn  Sn5  1  0.67938054  0.67938054  0.54991842  1
  Sn  Sn6  1  0.49106426  0.07544223  0.25000000  1
  Sn  Sn7  1  0.92455777  0.50893574  0.75000000  1
  Sn  Sn8  1  0.50893574  0.92455777  0.75000000  1
  Sn  Sn9  1  0.07544223  0.49106426  0.25000000  1
loop_
_geom_bond_atom_site_label_1
_geom_bond_atom_site_label_2
_geom_bond_distance
_geom_bond_site_symmetry_2
La0 Sn3 3.222338 1_554
La0 Sn5 3.222338 1_555
La0 Sn0 3.288306 1_665
La0 Sn6 3.288688 1_565
La0 Sn9 3.288688 1_655
La0 Sn4 3.427135 1_555
La0 Sn2 3.427135 1_555
La0 Sn9 3.699591 1_555
La0 Sn6 3.699591 1_555
La1 Sn2 3.222338 1_556
La1 Sn4 3.222338 1_555
La1 Sn1 3.288306 1_445
La1 Sn7 3.288688 1_455
La1 Sn8 3.288688 1_545
La1 Sn5 3.427135 1_555
La1 Sn3 3.427135 1_555
La1 Sn7 3.699591 1_555
La1 Sn8 3.699591 1_555
La2 Sn8 3.368128 1_555
La2 Sn9 3.368128 1_555
La2 Sn0 3.416641 1_565
La2 Sn1 3.416641 1_455
La2 Sn5 3.465345 1_455
La2 Sn4 3.465345 1_565
La2 Sn4 3.505805 1_555
La2 Sn5 3.505805 1_555
La2 Sn6 3.578041 1_565
La2 Sn7 3.578041 1_455
La3 Sn8 3.368128 1_554
La3 Sn9 3.368128 1_555
La3 Sn0 3.416641 1_565
La3 Sn1 3.416641 1_454
La3 Sn3 3.465345 1_454
La3 Sn2 3.465345 1_565
La3 Sn2 3.505805 1_555
La3 Sn3 3.505805 1_554
La3 Sn6 3.578041 1_565
La3 Sn7 3.578041 1_454
La4 Sn7 3.368128 1_555
La4 Sn6 3.368128 1_555
La4 Sn0 3.416641 1_655
La4 Sn1 3.416641 1_545
La4 Sn5 3.465345 1_545
La4 Sn4 3.465345 1_655
La4 Sn4 3.505805 1_555
La4 Sn5 3.505805 1_555
La4 Sn9 3.578041 1_655
La4 Sn8 3.578041 1_545
La5 Sn7 3.368128 1_554
La5 Sn6 3.368128 1_555
La5 Sn0 3.416641 1_655
La5 Sn1 3.416641 1_544
La5 Sn3 3.465345 1_544
La5 Sn2 3.465345 1_655
La5 Sn2 3.505805 1_555
La5 Sn3 3.505805 1_554
La5 Sn9 3.578041 1_655
La5 Sn8 3.578041 1_544
Sn0 Sn9 3.037623 1_555
Sn0 Sn6 3.037623 1_555
Sn0 Sn4 3.239597 1_555
Sn0 Sn2 3.239597 1_555
Sn1 Sn7 3.037623 1_555
Sn1 Sn8 3.037623 1_555
Sn1 Sn3 3.239597 1_555
Sn1 Sn5 3.239597 1_555
Sn2 Sn9 3.066327 1_555
Sn2 Sn6 3.066327 1_555
Sn2 Sn3 3.197080 1_554
Sn3 Sn8 3.066327 1_555
Sn3 Sn7 3.066327 1_555
Sn4 Sn9 3.066327 1_555
Sn4 Sn6 3.066327 1_555
Sn4 Sn5 3.197080 1_555
Sn5 Sn8 3.066327 1_555
Sn5 Sn7 3.066327 1_555
