# generated using pymatgen
data_KMnIO6
_symmetry_space_group_name_H-M   'P 1'
_cell_length_a   5.12804591
_cell_length_b   5.12804591
_cell_length_c   12.25657500
_cell_angle_alpha   90.00000000
_cell_angle_beta   90.00000000
_cell_angle_gamma   119.99999880
_symmetry_Int_Tables_number   1
_chemical_formula_structural   KMnIO6
_chemical_formula_sum   'K2 Mn2 I2 O12'
_cell_volume   279.12810861
_cell_formula_units_Z   2
loop_
 _symmetry_equiv_pos_site_id
 _symmetry_equiv_pos_as_xyz
  1  'x, y, z'
loop_
 _atom_site_type_symbol
 _atom_site_label
 _atom_site_symmetry_multiplicity
 _atom_site_fract_x
 _atom_site_fract_y
 _atom_site_fract_z
 _atom_site_occupancy
  K  K0  1  0.66666700  0.33333300  0.25000000  1
  K  K1  1  0.66666700  0.33333300  0.75000000  1
  Mn  Mn0  1  0.33333300  0.66666700  0.50000000  1
  Mn  Mn1  1  0.33333300  0.66666700  0.00000000  1
  I  I0  1  0.00000000  0.00000000  0.00000000  1
  I  I1  1  0.00000000  0.00000000  0.50000000  1
  O  O0  1  0.04615700  0.32878100  0.41177100  1
  O  O1  1  0.04615700  0.32878100  0.91177100  1
  O  O2  1  0.28262400  0.95384300  0.41177100  1
  O  O3  1  0.28262400  0.95384300  0.91177100  1
  O  O4  1  0.28262400  0.32878100  0.08822900  1
  O  O5  1  0.28262400  0.32878100  0.58822900  1
  O  O6  1  0.67121900  0.71737600  0.41177100  1
  O  O7  1  0.67121900  0.71737600  0.91177100  1
  O  O8  1  0.67121900  0.95384300  0.08822900  1
  O  O9  1  0.67121900  0.95384300  0.58822900  1
  O  O10  1  0.04615700  0.71737600  0.08822900  1
  O  O11  1  0.04615700  0.71737600  0.58822900  1
loop_
_geom_bond_atom_site_label_1
_geom_bond_atom_site_label_2
_geom_bond_distance
_geom_bond_site_symmetry_2
K0 O0 2.786464 1_655
K0 O8 2.786464 1_545
K0 O10 2.786466 1_655
K0 O2 2.786466 1_545
K0 O4 2.786468 1_555
K0 O6 2.786468 1_555
K1 O1 2.786464 1_655
K1 O9 2.786464 1_545
K1 O11 2.786466 1_655
K1 O3 2.786466 1_545
K1 O5 2.786468 1_555
K1 O7 2.786468 1_555
Mn0 O2 1.946449 1_555
Mn0 O11 1.946449 1_555
Mn0 O9 1.946451 1_555
Mn0 O0 1.946451 1_555
Mn0 O5 1.946453 1_555
Mn0 O6 1.946453 1_555
Mn1 O3 1.946449 1_554
Mn1 O10 1.946449 1_555
Mn1 O8 1.946451 1_555
Mn1 O1 1.946451 1_554
Mn1 O4 1.946453 1_555
Mn1 O7 1.946453 1_554
I0 O3 1.915453 1_544
I0 O10 1.915453 1_545
I0 O1 1.915453 1_554
I0 O8 1.915453 1_445
I0 O4 1.915453 1_555
I0 O7 1.915453 1_444
I1 O2 1.915453 1_545
I1 O11 1.915453 1_545
I1 O9 1.915453 1_445
I1 O0 1.915453 1_555
I1 O5 1.915453 1_555
I1 O6 1.915453 1_445
