# generated using pymatgen
data_MnSiP2
_symmetry_space_group_name_H-M   'P 1'
_cell_length_a   6.52058052
_cell_length_b   6.52058052
_cell_length_c   6.52058052
_cell_angle_alpha   129.53228744
_cell_angle_beta   129.53228744
_cell_angle_gamma   74.15559521
_symmetry_Int_Tables_number   1
_chemical_formula_structural   MnSiP2
_chemical_formula_sum   'Mn2 Si2 P4'
_cell_volume   160.79826193
_cell_formula_units_Z   2
loop_
 _symmetry_equiv_pos_site_id
 _symmetry_equiv_pos_as_xyz
  1  'x, y, z'
loop_
 _atom_site_type_symbol
 _atom_site_label
 _atom_site_symmetry_multiplicity
 _atom_site_fract_x
 _atom_site_fract_y
 _atom_site_fract_z
 _atom_site_occupancy
  Mn  Mn0  1  0.25000000  0.75000000  0.50000000  1
  Mn  Mn1  1  0.50000000  0.50000000  0.00000000  1
  Si  Si0  1  0.75000000  0.25000000  0.50000000  1
  Si  Si1  1  0.00000000  0.00000000  0.00000000  1
  P  P0  1  0.65201100  0.62500000  0.52701100  1
  P  P1  1  0.09798900  0.12500000  0.47298900  1
  P  P2  1  0.37500000  0.90201100  0.02701100  1
  P  P3  1  0.87500000  0.34798900  0.97298900  1
loop_
_geom_bond_atom_site_label_1
_geom_bond_atom_site_label_2
_geom_bond_distance
_geom_bond_site_symmetry_2
Mn0 P2 2.448496 1_556
Mn0 P3 2.448496 1_454
Mn0 P0 2.448496 1_555
Mn0 P1 2.448496 1_565
Mn1 P3 2.448496 1_554
Mn1 P1 2.448496 1_554
Mn1 P0 2.448496 1_555
Mn1 P2 2.448496 1_555
P0 Si1 2.271616 1_666
P0 Si0 2.271616 1_555
P1 Si1 2.271616 1_555
P1 Si0 2.271616 1_455
P2 Si0 2.271616 1_565
P2 Si1 2.271616 1_565
P3 Si1 2.271616 1_656
P3 Si0 2.271616 1_555
