# generated using pymatgen
data_SrCaZr8(PO4)12
_symmetry_space_group_name_H-M   'P 1'
_cell_length_a   8.89232300
_cell_length_b   9.33625893
_cell_length_c   15.40173000
_cell_angle_alpha   105.95913074
_cell_angle_beta   89.99993430
_cell_angle_gamma   118.43973199
_symmetry_Int_Tables_number   1
_chemical_formula_structural   SrCaZr8(PO4)12
_chemical_formula_sum   'Sr1 Ca1 Zr8 P12 O48'
_cell_volume   1067.97673799
_cell_formula_units_Z   1
loop_
 _symmetry_equiv_pos_site_id
 _symmetry_equiv_pos_as_xyz
  1  'x, y, z'
loop_
 _atom_site_type_symbol
 _atom_site_label
 _atom_site_symmetry_multiplicity
 _atom_site_fract_x
 _atom_site_fract_y
 _atom_site_fract_z
 _atom_site_occupancy
  Sr  Sr0  1  0.75000000  0.50000000  0.25000000  1
  Ca  Ca0  1  0.25000000  0.50000000  0.75000000  1
  Zr  Zr0  1  0.28554600  0.57113300  0.42857000  1
  Zr  Zr1  1  0.78562900  0.57124000  0.92847400  1
  Zr  Zr2  1  0.21445400  0.42886700  0.07143000  1
  Zr  Zr3  1  0.71437100  0.42876000  0.57152600  1
  Zr  Zr4  1  0.02672000  0.05315000  0.67569100  1
  Zr  Zr5  1  0.52572700  0.05171000  0.17511700  1
  Zr  Zr6  1  0.47328000  0.94685000  0.82430900  1
  Zr  Zr7  1  0.97427300  0.94829000  0.32488300  1
  P  P0  1  0.77765600  0.25597200  0.73382100  1
  P  P1  1  0.27631800  0.25503300  0.23359000  1
  P  P2  1  0.26659900  0.25620100  0.52203100  1
  P  P3  1  0.76630600  0.25481400  0.02124600  1
  P  P4  1  0.33995400  0.25602100  0.87229400  1
  P  P5  1  0.83968700  0.25497600  0.37252900  1
  P  P6  1  0.72234400  0.74402800  0.76617900  1
  P  P7  1  0.22368200  0.74496700  0.26641000  1
  P  P8  1  0.23340100  0.74379900  0.97796900  1
  P  P9  1  0.73369400  0.74518600  0.47875400  1
  P  P10  1  0.16004600  0.74397900  0.62770600  1
  P  P11  1  0.66031300  0.74502400  0.12747100  1
  O  O0  1  0.83590700  0.40983600  0.82092700  1
  O  O1  1  0.33651400  0.40967200  0.32060800  1
  O  O2  1  0.26056600  0.40997800  0.50751200  1
  O  O3  1  0.76041300  0.40953200  0.00793000  1
  O  O4  1  0.51836900  0.40982600  0.87651600  1
  O  O5  1  0.01749300  0.40963600  0.37624200  1
  O  O6  1  0.66409300  0.59016400  0.67907300  1
  O  O7  1  0.16348600  0.59032800  0.17939200  1
  O  O8  1  0.23943400  0.59002200  0.99248800  1
  O  O9  1  0.73958700  0.59046800  0.49207000  1
  O  O10  1  0.98163100  0.59017400  0.62348400  1
  O  O11  1  0.48250700  0.59036400  0.12375800  1
  O  O12  1  0.64955700  0.91122300  0.14937600  1
  O  O13  1  0.15033600  0.91124800  0.65006800  1
  O  O14  1  0.36231000  0.91118000  0.25003000  1
  O  O15  1  0.86103000  0.91125600  0.75017100  1
  O  O16  1  0.35509100  0.91081100  0.05516100  1
  O  O17  1  0.85535200  0.91164800  0.55642200  1
  O  O18  1  0.85044300  0.08877700  0.35062400  1
  O  O19  1  0.34966400  0.08875200  0.84993200  1
  O  O20  1  0.13769000  0.08882000  0.24997000  1
  O  O21  1  0.63897000  0.08874400  0.74982900  1
  O  O22  1  0.14490900  0.08918900  0.44483900  1
  O  O23  1  0.64464800  0.08835200  0.94357800  1
  O  O24  1  0.79853700  0.71852200  0.84643800  1
  O  O25  1  0.29895500  0.71831000  0.34647300  1
  O  O26  1  0.04941800  0.71829300  0.97598300  1
  O  O27  1  0.54927000  0.71846700  0.47629400  1
  O  O28  1  0.22956600  0.71847700  0.53671900  1
  O  O29  1  0.72938300  0.71829100  0.03646000  1
  O  O30  1  0.70146300  0.28147800  0.65356200  1
  O  O31  1  0.20104500  0.28169000  0.15352700  1
  O  O32  1  0.45058200  0.28170700  0.52401700  1
  O  O33  1  0.95073000  0.28153300  0.02370600  1
  O  O34  1  0.27043400  0.28152300  0.96328100  1
  O  O35  1  0.77061700  0.28170900  0.46354000  1
  O  O36  1  0.21588500  0.24367200  0.79509000  1
  O  O37  1  0.71370000  0.23807400  0.29506600  1
  O  O38  1  0.94317600  0.24363000  0.71042400  1
  O  O39  1  0.43858000  0.23814700  0.20928300  1
  O  O40  1  0.20650000  0.24373200  0.61646100  1
  O  O41  1  0.70478700  0.23801200  0.11454200  1
  O  O42  1  0.28411500  0.75632800  0.70491000  1
  O  O43  1  0.78630000  0.76192600  0.20493400  1
  O  O44  1  0.55682400  0.75637000  0.78957600  1
  O  O45  1  0.06142000  0.76185300  0.29071700  1
  O  O46  1  0.29350000  0.75626800  0.88353900  1
  O  O47  1  0.79521300  0.76198800  0.38545800  1
loop_
_geom_bond_atom_site_label_1
_geom_bond_atom_site_label_2
_geom_bond_distance
_geom_bond_site_symmetry_2
Ca0 O46 2.552785 1_555
Ca0 O40 2.552785 1_555
Ca0 O38 2.553871 1_455
Ca0 O44 2.553871 1_555
Ca0 O42 2.554189 1_555
Ca0 O36 2.554189 1_555
O0 P0 1.537279 1_555
O0 Zr1 2.117419 1_555
O1 P1 1.538517 1_555
O1 Zr0 2.124867 1_555
O2 P2 1.537540 1_555
O2 Zr0 2.116370 1_555
O3 P3 1.538297 1_555
O3 Zr1 2.126206 1_554
O4 P4 1.536889 1_555
O4 Zr1 2.117801 1_555
O5 P5 1.538905 1_455
O5 Zr0 2.124427 1_555
O6 P6 1.537279 1_555
O6 Zr3 2.117419 1_555
O7 P7 1.538517 1_555
O7 Zr2 2.124867 1_555
O8 P8 1.537540 1_555
O8 Zr2 2.116370 1_556
O9 P9 1.538297 1_555
O9 Zr3 2.126206 1_555
O10 P10 1.536889 1_655
O10 Zr3 2.117801 1_555
O11 P11 1.538905 1_555
O11 Zr2 2.124427 1_555
O12 P11 1.544071 1_555
O12 Zr5 2.044434 1_565
O13 P10 1.548399 1_555
O13 Zr4 2.053975 1_565
O14 P7 1.544221 1_555
O14 Zr5 2.044698 1_565
O15 P6 1.548236 1_555
O15 Zr4 2.053842 1_665
O16 P8 1.545713 1_554
O16 Zr5 2.051479 1_565
O17 P9 1.546906 1_555
O17 Zr4 2.046914 1_665
O18 P5 1.544071 1_555
O18 Zr7 2.044434 1_545
O19 P4 1.548399 1_555
O19 Zr6 2.053975 1_545
O20 P1 1.544221 1_555
O20 Zr7 2.044698 1_445
O21 P0 1.548236 1_555
O21 Zr6 2.053842 1_545
O22 P2 1.545713 1_555
O22 Zr7 2.051479 1_445
O23 P3 1.546906 1_556
O23 Zr6 2.046914 1_545
O24 P6 1.536005 1_555
O24 Zr1 2.074960 1_555
O25 P7 1.535565 1_555
O25 Zr0 2.073762 1_555
O26 P8 1.535962 1_555
O26 Zr1 2.074322 1_455
O27 P9 1.535668 1_555
O27 Zr0 2.074489 1_555
O28 P10 1.536023 1_555
O28 Zr0 2.075302 1_555
O29 P11 1.535573 1_555
O29 Zr1 2.073538 1_554
O30 P0 1.536005 1_555
O30 Zr3 2.074960 1_555
O31 P1 1.535565 1_555
O31 Zr2 2.073762 1_555
O32 P2 1.535962 1_555
O32 Zr3 2.074322 1_555
O33 P3 1.535668 1_555
O33 Zr2 2.074489 1_655
O34 P4 1.536023 1_555
O34 Zr2 2.075302 1_556
O35 P5 1.535573 1_555
O35 Zr3 2.073538 1_555
O36 P4 1.564558 1_555
O36 Zr4 2.174081 1_555
O37 P5 1.559328 1_555
O37 Zr5 2.167170 1_555
O37 Sr0 2.597600 1_555
O38 P0 1.564672 1_555
O38 Zr4 2.176209 1_655
O39 P1 1.559209 1_555
O39 Zr5 2.165246 1_555
O39 Sr0 2.597570 1_555
O40 P2 1.564685 1_555
O40 Zr4 2.176501 1_555
O41 P3 1.559109 1_555
O41 Zr5 2.164617 1_555
O41 Sr0 2.598896 1_555
O42 P10 1.564558 1_555
O42 Zr6 2.174081 1_555
O43 P11 1.559328 1_555
O43 Zr7 2.167170 1_555
O43 Sr0 2.597600 1_555
O44 P6 1.564672 1_555
O44 Zr6 2.176209 1_555
O45 P7 1.559209 1_555
O45 Zr7 2.165246 1_455
O45 Sr0 2.597570 1_455
O46 P8 1.564685 1_555
O46 Zr6 2.176501 1_555
O47 P9 1.559109 1_555
O47 Zr7 2.164617 1_555
O47 Sr0 2.598896 1_555
