# generated using pymatgen
data_PH4BrN4
_symmetry_space_group_name_H-M   'P 1'
_cell_length_a   8.85156400
_cell_length_b   8.85156400
_cell_length_c   7.33997000
_cell_angle_alpha   90.00000000
_cell_angle_beta   90.00000000
_cell_angle_gamma   90.00000000
_symmetry_Int_Tables_number   1
_chemical_formula_structural   PH4BrN4
_chemical_formula_sum   'P4 H16 Br4 N16'
_cell_volume   575.08800920
_cell_formula_units_Z   4
loop_
 _symmetry_equiv_pos_site_id
 _symmetry_equiv_pos_as_xyz
  1  'x, y, z'
loop_
 _atom_site_type_symbol
 _atom_site_label
 _atom_site_symmetry_multiplicity
 _atom_site_fract_x
 _atom_site_fract_y
 _atom_site_fract_z
 _atom_site_occupancy
  P  P0  1  0.25000000  0.75000000  0.50000000  1
  P  P1  1  0.75000000  0.25000000  0.50000000  1
  P  P2  1  0.75000000  0.75000000  0.50000000  1
  P  P3  1  0.25000000  0.25000000  0.50000000  1
  H  H0  1  0.55745300  0.11754900  0.30867900  1
  H  H1  1  0.44254700  0.88245100  0.30867900  1
  H  H2  1  0.11754900  0.44254700  0.30867900  1
  H  H3  1  0.55745300  0.88245100  0.69132100  1
  H  H4  1  0.94254700  0.38245100  0.69132100  1
  H  H5  1  0.88245100  0.55745300  0.30867900  1
  H  H6  1  0.44254700  0.11754900  0.69132100  1
  H  H7  1  0.05745300  0.61754900  0.69132100  1
  H  H8  1  0.11754900  0.55745300  0.69132100  1
  H  H9  1  0.38245100  0.05745300  0.69132100  1
  H  H10  1  0.88245100  0.44254700  0.69132100  1
  H  H11  1  0.61754900  0.94254700  0.69132100  1
  H  H12  1  0.94254700  0.61754900  0.30867900  1
  H  H13  1  0.05745300  0.38245100  0.30867900  1
  H  H14  1  0.61754900  0.05745300  0.30867900  1
  H  H15  1  0.38245100  0.94254700  0.30867900  1
  Br  Br0  1  0.25000000  0.25000000  0.00000000  1
  Br  Br1  1  0.75000000  0.75000000  0.00000000  1
  Br  Br2  1  0.25000000  0.75000000  0.00000000  1
  Br  Br3  1  0.75000000  0.25000000  0.00000000  1
  N  N0  1  0.36759300  0.62757200  0.40039000  1
  N  N1  1  0.63240700  0.37242800  0.40039000  1
  N  N2  1  0.62757200  0.63240700  0.40039000  1
  N  N3  1  0.36759300  0.37242800  0.59961000  1
  N  N4  1  0.13240700  0.87242800  0.59961000  1
  N  N5  1  0.37242800  0.36759300  0.40039000  1
  N  N6  1  0.63240700  0.62757200  0.59961000  1
  N  N7  1  0.86759300  0.12757200  0.59961000  1
  N  N8  1  0.62757200  0.36759300  0.59961000  1
  N  N9  1  0.87242800  0.86759300  0.59961000  1
  N  N10  1  0.37242800  0.63240700  0.59961000  1
  N  N11  1  0.12757200  0.13240700  0.59961000  1
  N  N12  1  0.13240700  0.12757200  0.40039000  1
  N  N13  1  0.86759300  0.87242800  0.40039000  1
  N  N14  1  0.12757200  0.86759300  0.40039000  1
  N  N15  1  0.87242800  0.13240700  0.40039000  1
loop_
_geom_bond_atom_site_label_1
_geom_bond_atom_site_label_2
_geom_bond_distance
_geom_bond_site_symmetry_2
H0 H14 0.752282 1_555
H1 H15 0.752282 1_555
H6 H9 0.752282 1_555
H7 H8 0.752282 1_555
H10 H4 0.752282 1_555
H11 H3 0.752282 1_555
H12 H5 0.752282 1_555
H13 H2 0.752282 1_555
N0 N10 1.463521 1_555
N0 P0 1.671034 1_555
N1 N8 1.463521 1_555
N1 P1 1.671034 1_555
N2 N6 1.463521 1_555
N2 P2 1.671034 1_555
N3 N5 1.463521 1_555
N3 P3 1.671034 1_555
N4 P0 1.671034 1_555
N5 P3 1.671034 1_555
N6 P2 1.671034 1_555
N7 P1 1.671034 1_555
N8 P1 1.671034 1_555
N9 P2 1.671034 1_555
N10 P0 1.671034 1_555
N11 N12 1.463521 1_555
N11 P3 1.671034 1_555
N12 P3 1.671034 1_555
N13 N9 1.463521 1_555
N13 P2 1.671034 1_555
N14 N4 1.463521 1_555
N14 P0 1.671034 1_555
N15 N7 1.463521 1_555
N15 P1 1.671034 1_555
