# generated using pymatgen
data_CsK2SbF6
_symmetry_space_group_name_H-M   'P 1'
_cell_length_a   7.06288659
_cell_length_b   7.06288659
_cell_length_c   7.06288659
_cell_angle_alpha   60.00000000
_cell_angle_beta   60.00000000
_cell_angle_gamma   60.00000000
_symmetry_Int_Tables_number   1
_chemical_formula_structural   CsK2SbF6
_chemical_formula_sum   'Cs1 K2 Sb1 F6'
_cell_volume   249.13325360
_cell_formula_units_Z   1
loop_
 _symmetry_equiv_pos_site_id
 _symmetry_equiv_pos_as_xyz
  1  'x, y, z'
loop_
 _atom_site_type_symbol
 _atom_site_label
 _atom_site_symmetry_multiplicity
 _atom_site_fract_x
 _atom_site_fract_y
 _atom_site_fract_z
 _atom_site_occupancy
  Cs  Cs0  1  0.50000000  0.50000000  0.50000000  1
  K  K0  1  0.75000000  0.75000000  0.75000000  1
  K  K1  1  0.25000000  0.25000000  0.25000000  1
  Sb  Sb0  1  0.00000000  0.00000000  0.00000000  1
  F  F0  1  0.77989000  0.22011000  0.22011000  1
  F  F1  1  0.22011000  0.22011000  0.77989000  1
  F  F2  1  0.22011000  0.77989000  0.77989000  1
  F  F3  1  0.22011000  0.77989000  0.22011000  1
  F  F4  1  0.77989000  0.22011000  0.77989000  1
  F  F5  1  0.77989000  0.77989000  0.22011000  1
loop_
_geom_bond_atom_site_label_1
_geom_bond_atom_site_label_2
_geom_bond_distance
_geom_bond_site_symmetry_2
Cs0 F5 2.795662 1_555
Cs0 F3 2.795662 1_555
Cs0 F0 2.795662 1_555
Cs0 F1 2.795662 1_555
Cs0 F4 2.795662 1_555
Cs0 F2 2.795662 1_555
F0 Sb0 2.198553 1_655
F1 Sb0 2.198553 1_556
F2 Sb0 2.198553 1_566
F3 Sb0 2.198553 1_565
F4 Sb0 2.198553 1_656
F5 Sb0 2.198553 1_665
