# generated using pymatgen
data_PrVSb3
_symmetry_space_group_name_H-M   'P 1'
_cell_length_a   6.58929600
_cell_length_b   7.93181800
_cell_length_c   10.51456800
_cell_angle_alpha   90.00000000
_cell_angle_beta   90.00000000
_cell_angle_gamma   90.00000000
_symmetry_Int_Tables_number   1
_chemical_formula_structural   PrVSb3
_chemical_formula_sum   'Pr4 V4 Sb12'
_cell_volume   549.54491244
_cell_formula_units_Z   4
loop_
 _symmetry_equiv_pos_site_id
 _symmetry_equiv_pos_as_xyz
  1  'x, y, z'
loop_
 _atom_site_type_symbol
 _atom_site_label
 _atom_site_symmetry_multiplicity
 _atom_site_fract_x
 _atom_site_fract_y
 _atom_site_fract_z
 _atom_site_occupancy
  Pr  Pr0  1  0.25000000  0.57289400  0.68819300  1
  Pr  Pr1  1  0.25000000  0.07289400  0.31180700  1
  Pr  Pr2  1  0.75000000  0.42710600  0.31180700  1
  Pr  Pr3  1  0.75000000  0.92710600  0.68819300  1
  V  V0  1  0.00000000  0.75000000  0.19107300  1
  V  V1  1  0.00000000  0.25000000  0.80892700  1
  V  V2  1  0.50000000  0.25000000  0.80892700  1
  V  V3  1  0.50000000  0.75000000  0.19107300  1
  Sb  Sb0  1  0.50000000  0.75000000  0.45237500  1
  Sb  Sb1  1  0.75000000  0.52626600  0.76373300  1
  Sb  Sb2  1  0.75000000  0.77232500  0.98775400  1
  Sb  Sb3  1  0.00000000  0.75000000  0.45237500  1
  Sb  Sb4  1  0.00000000  0.25000000  0.54762500  1
  Sb  Sb5  1  0.25000000  0.22767500  0.01224600  1
  Sb  Sb6  1  0.25000000  0.47373400  0.23626700  1
  Sb  Sb7  1  0.25000000  0.72767500  0.98775400  1
  Sb  Sb8  1  0.25000000  0.97373400  0.76373300  1
  Sb  Sb9  1  0.50000000  0.25000000  0.54762500  1
  Sb  Sb10  1  0.75000000  0.02626600  0.23626700  1
  Sb  Sb11  1  0.75000000  0.27232500  0.01224600  1
loop_
_geom_bond_atom_site_label_1
_geom_bond_atom_site_label_2
_geom_bond_distance
_geom_bond_site_symmetry_2
Pr0 Sb8 3.277100 1_555
Pr0 Sb0 3.291672 1_555
Pr0 Sb3 3.291672 1_555
Pr0 V2 3.299188 1_555
Pr0 V1 3.299188 1_555
Pr0 Sb7 3.380560 1_555
Pr0 Sb9 3.384910 1_555
Pr0 Sb4 3.384910 1_555
Pr0 Sb1 3.409158 1_455
Pr0 Sb1 3.409158 1_555
Pr1 Sb6 3.277100 1_555
Pr1 Sb9 3.291672 1_555
Pr1 Sb4 3.291672 1_555
Pr1 V3 3.299188 1_545
Pr1 V0 3.299188 1_545
Pr1 Sb5 3.380560 1_555
Pr1 Sb3 3.384910 1_545
Pr1 Sb0 3.384910 1_545
Pr1 Sb10 3.409158 1_455
Pr1 Sb10 3.409158 1_555
Pr2 Sb10 3.277100 1_555
Pr2 Sb9 3.291672 1_555
Pr2 Sb4 3.291672 1_655
Pr2 V0 3.299188 1_655
Pr2 V3 3.299188 1_555
Pr2 Sb11 3.380560 1_555
Pr2 Sb3 3.384910 1_655
Pr2 Sb0 3.384910 1_555
Pr2 Sb6 3.409158 1_655
Pr2 Sb6 3.409158 1_555
Pr3 Sb1 3.277100 1_555
Pr3 Sb0 3.291672 1_555
Pr3 Sb3 3.291672 1_655
Pr3 V2 3.299188 1_565
Pr3 V1 3.299188 1_665
Pr3 Sb2 3.380560 1_555
Pr3 Sb9 3.384910 1_565
Pr3 Sb4 3.384910 1_665
Pr3 Sb8 3.409158 1_555
Pr3 Sb8 3.409158 1_655
Sb0 V3 2.747478 1_555
Sb1 V2 2.782309 1_555
Sb1 V1 2.782309 1_655
Sb2 V3 2.704676 1_556
Sb2 V0 2.704676 1_656
Sb3 V0 2.747478 1_555
Sb4 V1 2.747478 1_555
Sb5 V1 2.704676 1_554
Sb5 V2 2.704676 1_554
Sb6 V3 2.782309 1_555
Sb6 V0 2.782309 1_555
Sb7 V0 2.704676 1_556
Sb7 V3 2.704676 1_556
Sb8 V2 2.782309 1_565
Sb8 V1 2.782309 1_565
Sb9 V2 2.747478 1_555
Sb10 V0 2.782309 1_645
Sb10 V3 2.782309 1_545
Sb11 V2 2.704676 1_554
Sb11 V1 2.704676 1_654
