# generated using pymatgen
data_CaPr3(CoO3)4
_symmetry_space_group_name_H-M   'P 1'
_cell_length_a   7.68021900
_cell_length_b   5.44390600
_cell_length_c   5.46117613
_cell_angle_alpha   89.83322732
_cell_angle_beta   90.00000000
_cell_angle_gamma   90.00000000
_symmetry_Int_Tables_number   1
_chemical_formula_structural   CaPr3(CoO3)4
_chemical_formula_sum   'Ca1 Pr3 Co4 O12'
_cell_volume   228.33293839
_cell_formula_units_Z   1
loop_
 _symmetry_equiv_pos_site_id
 _symmetry_equiv_pos_as_xyz
  1  'x, y, z'
loop_
 _atom_site_type_symbol
 _atom_site_label
 _atom_site_symmetry_multiplicity
 _atom_site_fract_x
 _atom_site_fract_y
 _atom_site_fract_z
 _atom_site_occupancy
  Ca  Ca0  1  0.50000000  0.49181000  0.45945400  1
  Pr  Pr0  1  0.50000000  0.00856800  0.96093000  1
  Pr  Pr1  1  0.00000000  0.50860100  0.53886700  1
  Pr  Pr2  1  0.00000000  0.99335100  0.03938900  1
  Co  Co0  1  0.25368000  0.00068600  0.49966700  1
  Co  Co1  1  0.74601300  0.50008200  0.00099300  1
  Co  Co2  1  0.74632000  0.00068600  0.49966700  1
  Co  Co3  1  0.25398700  0.50008200  0.00099300  1
  O  O0  1  0.50000000  0.57073500  0.01690400  1
  O  O1  1  0.50000000  0.91923300  0.50888000  1
  O  O2  1  0.00000000  0.43465800  0.99306600  1
  O  O3  1  0.00000000  0.07037000  0.49860800  1
  O  O4  1  0.28910600  0.28251900  0.71529200  1
  O  O5  1  0.71803600  0.21094000  0.21340400  1
  O  O6  1  0.79003300  0.72360900  0.28030800  1
  O  O7  1  0.21301300  0.78350200  0.78228800  1
  O  O8  1  0.20996700  0.72360900  0.28030800  1
  O  O9  1  0.78698700  0.78350200  0.78228800  1
  O  O10  1  0.71089400  0.28251900  0.71529200  1
  O  O11  1  0.28196400  0.21094000  0.21340400  1
loop_
_geom_bond_atom_site_label_1
_geom_bond_atom_site_label_2
_geom_bond_distance
_geom_bond_site_symmetry_2
Ca0 O1 2.343235 1_555
Ca0 O10 2.421662 1_555
Ca0 O4 2.421662 1_555
Ca0 O0 2.453507 1_555
Ca0 O11 2.638115 1_555
Ca0 O5 2.638115 1_555
Ca0 O8 2.739376 1_555
Ca0 O6 2.739376 1_555
Co0 O1 1.943682 1_545
Co0 O11 1.947022 1_555
Co0 O4 1.955811 1_555
Co0 O8 1.957945 1_545
Co0 O7 1.966481 1_545
Co0 O3 1.984911 1_555
Co1 O0 1.930193 1_555
Co1 O5 1.964394 1_555
Co1 O9 1.973686 1_554
Co1 O10 1.980080 1_554
Co1 O6 1.983095 1_555
Co1 O2 1.983419 1_654
Co2 O1 1.943682 1_545
Co2 O5 1.947022 1_555
Co2 O10 1.955811 1_555
Co2 O6 1.957945 1_545
Co2 O9 1.966481 1_545
Co2 O3 1.984911 1_655
Co3 O0 1.930193 1_555
Co3 O11 1.964394 1_555
Co3 O7 1.973686 1_554
Co3 O4 1.980080 1_554
Co3 O8 1.983095 1_555
Co3 O2 1.983419 1_554
O0 Pr0 2.402161 1_564
O1 Pr0 2.517560 1_565
O2 Pr2 2.414984 1_546
O2 Pr1 2.511754 1_555
O3 Pr1 2.396435 1_555
O3 Pr2 2.543887 1_545
O4 Pr0 2.575953 1_555
O4 Pr1 2.714104 1_555
O5 Pr0 2.434716 1_554
O5 Pr2 2.646201 1_645
O6 Pr1 2.440228 1_655
O6 Pr2 2.544921 1_655
O7 Pr2 2.441779 1_556
O7 Pr1 2.587443 1_555
O7 Pr0 2.705201 1_565
O8 Pr1 2.440228 1_555
O8 Pr2 2.544921 1_555
O9 Pr2 2.441779 1_656
O9 Pr1 2.587443 1_655
O9 Pr0 2.705201 1_565
O10 Pr0 2.575953 1_555
O10 Pr1 2.714104 1_655
O11 Pr0 2.434716 1_554
O11 Pr2 2.646201 1_545
