# generated using pymatgen
data_Mg14CuSn
_symmetry_space_group_name_H-M   'P 1'
_cell_length_a   6.25403740
_cell_length_b   6.29311355
_cell_length_c   10.33754295
_cell_angle_alpha   90.00000000
_cell_angle_beta   90.00000000
_cell_angle_gamma   120.20690836
_symmetry_Int_Tables_number   1
_chemical_formula_structural   Mg14CuSn
_chemical_formula_sum   'Mg14 Cu1 Sn1'
_cell_volume   351.61285052
_cell_formula_units_Z   1
loop_
 _symmetry_equiv_pos_site_id
 _symmetry_equiv_pos_as_xyz
  1  'x, y, z'
loop_
 _atom_site_type_symbol
 _atom_site_label
 _atom_site_symmetry_multiplicity
 _atom_site_fract_x
 _atom_site_fract_y
 _atom_site_fract_z
 _atom_site_occupancy
  Mg  Mg0  1  0.16784032  0.33391966  0.62500000  1
  Mg  Mg1  1  0.16781617  0.83390759  0.62500000  1
  Mg  Mg2  1  0.66811279  0.33461511  0.12500000  1
  Mg  Mg3  1  0.66582377  0.33268535  0.62500000  1
  Mg  Mg4  1  0.66811279  0.83349668  0.12500000  1
  Mg  Mg5  1  0.66582377  0.83313742  0.62500000  1
  Mg  Mg6  1  0.33072278  0.16955167  0.37007841  1
  Mg  Mg7  1  0.33072278  0.16955167  0.87992159  1
  Mg  Mg8  1  0.33072278  0.66117212  0.37007841  1
  Mg  Mg9  1  0.33072278  0.66117212  0.87992159  1
  Mg  Mg10  1  0.83816802  0.16908451  0.37083208  1
  Mg  Mg11  1  0.83816802  0.16908451  0.87916792  1
  Mg  Mg12  1  0.83288666  0.66644383  0.37740107  1
  Mg  Mg13  1  0.83288666  0.66644383  0.87259893  1
  Cu  Cu0  1  0.16691970  0.33345935  0.12500000  1
  Sn  Sn0  1  0.16455020  0.83227460  0.12500000  1
loop_
_geom_bond_atom_site_label_1
_geom_bond_atom_site_label_2
_geom_bond_distance
_geom_bond_site_symmetry_2
Mg0 Mg5 3.118322 1_555
Mg0 Mg3 3.118322 1_555
Mg0 Mg5 3.135729 1_445
Mg0 Mg3 3.135729 1_455
Mg0 Mg1 3.146557 1_545
Mg0 Mg1 3.146557 1_555
Mg0 Mg11 3.174665 1_455
Mg0 Mg10 3.174665 1_455
Mg0 Mg6 3.180023 1_555
Mg0 Mg7 3.180023 1_555
Mg0 Mg8 3.180029 1_555
Mg0 Mg9 3.180029 1_555
Mg1 Mg3 3.116999 1_565
Mg1 Mg5 3.116999 1_555
Mg1 Mg13 3.135016 1_455
Mg1 Mg12 3.135016 1_455
Mg1 Mg3 3.137043 1_455
Mg1 Mg5 3.137044 1_455
Mg1 Mg8 3.206042 1_555
Mg1 Mg9 3.206042 1_555
Mg1 Mg6 3.206048 1_565
Mg1 Mg7 3.206048 1_565
Mg2 Sn0 3.108614 1_655
Mg2 Mg7 3.121613 1_554
Mg2 Mg6 3.121613 1_555
Mg2 Mg4 3.139518 1_555
Mg2 Sn0 3.145437 1_545
Mg2 Mg4 3.153595 1_545
Mg3 Mg5 3.143712 1_545
Mg3 Mg5 3.149402 1_555
Mg3 Mg6 3.197764 1_555
Mg3 Mg7 3.197764 1_555
Mg4 Sn0 3.108615 1_655
Mg4 Mg9 3.121613 1_554
Mg4 Mg8 3.121613 1_555
Mg4 Sn0 3.145437 1_555
Mg5 Mg8 3.197764 1_555
Mg5 Mg9 3.197764 1_555
Mg6 Mg8 3.093823 1_555
Mg6 Sn0 3.127970 1_545
Mg6 Mg8 3.199290 1_545
Mg7 Mg9 3.093823 1_555
Mg7 Sn0 3.127970 1_546
Mg7 Mg9 3.199290 1_545
Mg8 Sn0 3.127963 1_555
Mg9 Sn0 3.127963 1_556
Mg10 Mg8 3.078987 1_655
Mg10 Mg6 3.078988 1_655
Mg10 Mg2 3.128779 1_555
Mg10 Mg4 3.128785 1_545
Mg10 Mg12 3.147419 1_545
Mg10 Mg12 3.147419 1_555
Mg10 Mg8 3.175071 1_545
Mg10 Mg6 3.175071 1_555
Mg10 Mg3 3.200312 1_555
Mg10 Mg5 3.200318 1_545
Mg11 Mg9 3.078987 1_655
Mg11 Mg7 3.078988 1_655
Mg11 Mg2 3.128779 1_556
Mg11 Mg4 3.128785 1_546
Mg11 Mg13 3.147419 1_545
Mg11 Mg13 3.147419 1_555
Mg11 Mg9 3.175071 1_545
Mg11 Mg7 3.175071 1_555
Mg11 Mg3 3.200312 1_555
Mg11 Mg5 3.200318 1_545
Mg12 Mg6 3.124909 1_555
Mg12 Mg8 3.124909 1_555
Mg12 Mg6 3.131223 1_665
Mg12 Mg8 3.131224 1_655
Mg12 Mg5 3.137889 1_555
Mg12 Mg3 3.137895 1_555
Mg12 Sn0 3.165647 1_655
Mg12 Mg4 3.172571 1_555
Mg12 Mg2 3.172577 1_555
Mg13 Mg7 3.124909 1_555
Mg13 Mg9 3.124909 1_555
Mg13 Mg7 3.131223 1_665
Mg13 Mg9 3.131224 1_655
Mg13 Mg5 3.137889 1_555
Mg13 Mg3 3.137895 1_555
Mg13 Sn0 3.165647 1_656
Mg13 Mg4 3.172571 1_556
Mg13 Mg2 3.172577 1_556
Cu0 Mg7 3.097642 1_554
Cu0 Mg6 3.097642 1_555
Cu0 Mg9 3.097648 1_554
Cu0 Mg8 3.097648 1_555
Cu0 Mg10 3.100869 1_455
Cu0 Mg11 3.100869 1_454
Cu0 Mg4 3.123223 1_445
Cu0 Mg2 3.123223 1_455
Cu0 Mg4 3.130827 1_555
Cu0 Mg2 3.130827 1_555
Cu0 Sn0 3.146583 1_545
Cu0 Sn0 3.146583 1_555
