# generated using pymatgen
data_LiSm4(HO2)4
_symmetry_space_group_name_H-M   'P 1'
_cell_length_a   5.32611082
_cell_length_b   11.18949045
_cell_length_c   3.62132200
_cell_angle_alpha   90.00000000
_cell_angle_beta   90.00000000
_cell_angle_gamma   86.80310025
_symmetry_Int_Tables_number   1
_chemical_formula_structural   LiSm4(HO2)4
_chemical_formula_sum   'Li1 Sm4 H4 O8'
_cell_volume   215.48213421
_cell_formula_units_Z   1
loop_
 _symmetry_equiv_pos_site_id
 _symmetry_equiv_pos_as_xyz
  1  'x, y, z'
loop_
 _atom_site_type_symbol
 _atom_site_label
 _atom_site_symmetry_multiplicity
 _atom_site_fract_x
 _atom_site_fract_y
 _atom_site_fract_z
 _atom_site_occupancy
  Li  Li0  1  0.58090800  0.99493500  0.25000000  1
  Sm  Sm0  1  0.09020500  0.84299900  0.25000000  1
  Sm  Sm1  1  0.39711700  0.35635800  0.25000000  1
  Sm  Sm2  1  0.61346700  0.64029400  0.75000000  1
  Sm  Sm3  1  0.90281500  0.15527900  0.75000000  1
  H  H0  1  0.15526800  0.59748400  0.25000000  1
  H  H1  1  0.31755500  0.11343300  0.25000000  1
  H  H2  1  0.62759300  0.89129300  0.75000000  1
  H  H3  1  0.86405700  0.39510300  0.75000000  1
  O  O0  1  0.17372400  0.05945400  0.25000000  1
  O  O1  1  0.15423700  0.31048200  0.75000000  1
  O  O2  1  0.38408800  0.81687500  0.75000000  1
  O  O3  1  0.33800300  0.56924900  0.25000000  1
  O  O4  1  0.67819100  0.41425400  0.75000000  1
  O  O5  1  0.62644800  0.17157400  0.25000000  1
  O  O6  1  0.86511200  0.67830900  0.25000000  1
  O  O7  1  0.78121200  0.94500600  0.75000000  1
loop_
_geom_bond_atom_site_label_1
_geom_bond_atom_site_label_2
_geom_bond_distance
_geom_bond_site_symmetry_2
Li0 O5 2.004708 1_565
Li0 O7 2.159234 1_555
Li0 O7 2.159234 1_554
Li0 O0 2.247188 1_565
H0 O3 1.006364 1_555
H0 O6 1.746513 1_455
H1 O0 1.001633 1_555
H1 Li0 1.875655 1_545
H2 O7 1.041879 1_555
H2 O2 1.579836 1_555
H2 Li0 2.157096 1_555
H2 Li0 2.157096 1_556
H3 O4 1.001123 1_555
H3 O1 1.766918 1_655
O0 Sm0 2.486811 1_545
O0 Sm3 2.517450 1_455
O0 Sm3 2.517450 1_454
O1 Sm3 2.251333 1_455
O1 Sm1 2.299887 1_556
O1 Sm1 2.299887 1_555
O2 Sm2 2.264354 1_555
O2 Sm0 2.400610 1_555
O2 Sm0 2.400610 1_556
O3 Sm1 2.385388 1_555
O3 Sm2 2.488588 1_554
O3 Sm2 2.488588 1_555
O4 Sm1 2.459155 1_556
O4 Sm1 2.459155 1_555
O4 Sm2 2.533537 1_555
O5 Sm3 2.334197 1_555
O5 Sm3 2.334197 1_554
O5 Sm1 2.342087 1_555
O6 Sm0 2.253797 1_655
O6 Sm2 2.306381 1_555
O6 Sm2 2.306381 1_554
O7 Sm3 2.474941 1_565
O7 Sm0 2.660868 1_655
O7 Sm0 2.660868 1_656
