# generated using pymatgen
data_Na3PO12
_symmetry_space_group_name_H-M   'P 1'
_cell_length_a   6.32938500
_cell_length_b   11.39968727
_cell_length_c   15.80537916
_cell_angle_alpha   77.54520802
_cell_angle_beta   82.17756311
_cell_angle_gamma   83.08202382
_symmetry_Int_Tables_number   1
_chemical_formula_structural   Na3PO12
_chemical_formula_sum   'Na12 P4 O48'
_cell_volume   1098.30358737
_cell_formula_units_Z   4
loop_
 _symmetry_equiv_pos_site_id
 _symmetry_equiv_pos_as_xyz
  1  'x, y, z'
loop_
 _atom_site_type_symbol
 _atom_site_label
 _atom_site_symmetry_multiplicity
 _atom_site_fract_x
 _atom_site_fract_y
 _atom_site_fract_z
 _atom_site_occupancy
  Na  Na0  1  0.21946700  0.51798700  0.98712000  1
  Na  Na1  1  0.78053300  0.48201300  0.01288000  1
  Na  Na2  1  0.10543600  0.38912600  0.21066300  1
  Na  Na3  1  0.89456400  0.61087400  0.78933700  1
  Na  Na4  1  0.92547600  0.67910700  0.35999300  1
  Na  Na5  1  0.07452400  0.32089300  0.64000700  1
  Na  Na6  1  0.27871500  0.06034900  0.79958800  1
  Na  Na7  1  0.72128500  0.93965100  0.20041200  1
  Na  Na8  1  0.35120900  0.90617000  0.42916800  1
  Na  Na9  1  0.64879100  0.09383000  0.57083200  1
  Na  Na10  1  0.28926800  0.12875300  0.04065500  1
  Na  Na11  1  0.71073200  0.87124700  0.95934500  1
  P  P0  1  0.14352600  0.81697700  0.84128700  1
  P  P1  1  0.85647400  0.18302300  0.15871300  1
  P  P2  1  0.47416900  0.71093700  0.33962500  1
  P  P3  1  0.52583100  0.28906300  0.66037500  1
  O  O0  1  0.19850500  0.69762900  0.90584000  1
  O  O1  1  0.80149500  0.30237100  0.09416000  1
  O  O2  1  0.95531100  0.79875200  0.79148800  1
  O  O3  1  0.04468900  0.20124800  0.20851200  1
  O  O4  1  0.05154000  0.92259100  0.88984000  1
  O  O5  1  0.94846000  0.07740900  0.11016000  1
  O  O6  1  0.33561900  0.85751800  0.77617800  1
  O  O7  1  0.66438100  0.14248200  0.22382200  1
  O  O8  1  0.60448200  0.59073200  0.35614100  1
  O  O9  1  0.39551800  0.40926800  0.64385900  1
  O  O10  1  0.60175600  0.81910600  0.33483300  1
  O  O11  1  0.39824400  0.18089400  0.66516700  1
  O  O12  1  0.41033800  0.72043100  0.23065300  1
  O  O13  1  0.58966200  0.27956900  0.76934700  1
  O  O14  1  0.24868200  0.72614600  0.38620900  1
  O  O15  1  0.75131800  0.27385400  0.61379100  1
  O  O16  1  0.12619900  0.72653600  0.61245800  1
  O  O17  1  0.87380100  0.27346400  0.38754200  1
  O  O18  1  0.34940600  0.97464800  0.95018200  1
  O  O19  1  0.65059400  0.02535200  0.04981800  1
  O  O20  1  0.39694200  0.53763200  0.15543100  1
  O  O21  1  0.60305800  0.46236800  0.84456900  1
  O  O22  1  0.56509200  0.88111500  0.56114600  1
  O  O23  1  0.43490800  0.11888500  0.43885400  1
  O  O24  1  0.77799700  0.57661000  0.54530200  1
  O  O25  1  0.22200300  0.42339000  0.45469800  1
  O  O26  1  0.95694100  0.00801400  0.65030000  1
  O  O27  1  0.04305900  0.99198600  0.34970000  1
  O  O28  1  0.06367900  0.31508500  0.88879200  1
  O  O29  1  0.93632100  0.68491500  0.11120800  1
  O  O30  1  0.07143100  0.80949900  0.55198800  1
  O  O31  1  0.92856900  0.19050100  0.44801200  1
  O  O32  1  0.56466000  0.79069600  0.62269900  1
  O  O33  1  0.43534000  0.20930400  0.37730100  1
  O  O34  1  0.54276400  0.40286100  0.91829200  1
  O  O35  1  0.45723600  0.59713900  0.08170800  1
  O  O36  1  0.05981200  0.28116500  0.81480800  1
  O  O37  1  0.94018800  0.71883500  0.18519200  1
  O  O38  1  0.52721100  0.18896900  0.83226400  1
  O  O39  1  0.47278900  0.81103100  0.16773600  1
  O  O40  1  0.18168200  0.32286200  0.07693100  1
  O  O41  1  0.81831800  0.67713800  0.92306900  1
  O  O42  1  0.14079800  0.02047100  0.61299900  1
  O  O43  1  0.85920200  0.97952900  0.38700100  1
  O  O44  1  0.14608500  0.46355300  0.38499600  1
  O  O45  1  0.85391500  0.53644700  0.61500400  1
  O  O46  1  0.95858400  0.56282200  0.11596000  1
  O  O47  1  0.04141600  0.43717800  0.88404000  1
loop_
_geom_bond_atom_site_label_1
_geom_bond_atom_site_label_2
_geom_bond_distance
_geom_bond_site_symmetry_2
Na0 O0 2.169763 1_555
Na0 O40 2.386160 1_556
Na0 O47 2.483993 1_555
Na0 O34 2.540863 1_555
Na0 O46 2.542617 1_456
Na0 O35 2.614460 1_556
Na1 O1 2.169763 1_555
Na1 O41 2.386160 1_554
Na1 O46 2.483993 1_555
Na1 O35 2.540863 1_555
Na1 O47 2.542617 1_654
Na1 O34 2.614460 1_554
Na2 O3 2.229221 1_555
Na2 O40 2.365246 1_555
Na2 O46 2.383708 1_455
Na2 O20 2.590141 1_555
Na3 O2 2.229221 1_555
Na3 O41 2.365246 1_555
Na3 O47 2.383708 1_655
Na3 O21 2.590141 1_555
Na4 O14 2.287996 1_655
Na4 O8 2.387392 1_555
Na4 O10 2.462453 1_555
Na4 O44 2.654949 1_655
Na4 O37 2.692071 1_555
Na4 O24 2.976123 1_555
Na5 O15 2.287996 1_455
Na5 O9 2.387392 1_555
Na5 O11 2.462453 1_555
Na5 O45 2.654949 1_455
Na5 O36 2.692071 1_555
Na5 O25 2.976123 1_555
Na6 O11 2.351200 1_555
Na6 O4 2.363860 1_545
Na6 O6 2.396888 1_545
Na6 O38 2.448186 1_555
Na6 O18 2.449807 1_545
Na6 O36 2.764832 1_555
Na7 O10 2.351200 1_555
Na7 O5 2.363860 1_565
Na7 O7 2.396888 1_565
Na7 O39 2.448186 1_555
Na7 O19 2.449807 1_565
Na7 O37 2.764832 1_555
Na8 O10 2.310512 1_555
Na8 O27 2.452728 1_555
Na8 O14 2.476998 1_555
Na8 O23 2.583759 1_565
Na8 O22 2.585342 1_555
Na8 O30 2.594266 1_555
Na9 O11 2.310512 1_555
Na9 O26 2.452728 1_555
Na9 O15 2.476998 1_555
Na9 O22 2.583759 1_545
Na9 O23 2.585342 1_555
Na9 O31 2.594266 1_555
Na10 O5 2.363103 1_455
Na10 O40 2.401421 1_555
Na10 O19 2.451075 1_555
Na10 O18 2.459705 1_544
Na11 O4 2.363103 1_655
Na11 O41 2.401421 1_555
Na11 O18 2.451075 1_555
Na11 O19 2.459705 1_566
O0 P0 1.548211 1_555
O1 P1 1.548211 1_555
O2 P0 1.570742 1_655
O3 P1 1.570742 1_455
O4 P0 1.576532 1_555
O5 P1 1.576532 1_555
O6 P0 1.529857 1_555
O7 P1 1.529857 1_555
O8 P2 1.502734 1_555
O9 P3 1.502734 1_555
O10 P2 1.536663 1_555
O11 P3 1.536663 1_555
O12 O39 1.326713 1_555
O12 P2 1.799967 1_555
O13 O38 1.326713 1_555
O13 P3 1.799967 1_555
O14 P2 1.522650 1_555
O15 P3 1.522650 1_555
O16 O30 1.244746 1_555
O17 O31 1.244746 1_555
O20 O35 1.250568 1_555
O21 O34 1.250568 1_555
O22 O32 1.255523 1_555
O23 O33 1.255523 1_555
O24 O45 1.236010 1_555
O25 O44 1.236010 1_555
O26 O42 1.240519 1_655
O27 O43 1.240519 1_455
O28 O36 1.312475 1_555
O28 O47 1.368653 1_555
O29 O37 1.312475 1_555
O29 O46 1.368653 1_555
