# generated using pymatgen
data_Rb2MgNb2(TeO6)2
_symmetry_space_group_name_H-M   'P 1'
_cell_length_a   7.57665113
_cell_length_b   7.64933042
_cell_length_c   7.44442047
_cell_angle_alpha   89.94767752
_cell_angle_beta   61.24879140
_cell_angle_gamma   120.74269145
_symmetry_Int_Tables_number   1
_chemical_formula_structural   Rb2MgNb2(TeO6)2
_chemical_formula_sum   'Rb2 Mg1 Nb2 Te2 O12'
_cell_volume   307.17186169
_cell_formula_units_Z   1
loop_
 _symmetry_equiv_pos_site_id
 _symmetry_equiv_pos_as_xyz
  1  'x, y, z'
loop_
 _atom_site_type_symbol
 _atom_site_label
 _atom_site_symmetry_multiplicity
 _atom_site_fract_x
 _atom_site_fract_y
 _atom_site_fract_z
 _atom_site_occupancy
  Rb  Rb0  1  0.80228900  0.39841400  0.38593200  1
  Rb  Rb1  1  0.34193900  0.78941500  0.56070600  1
  Mg  Mg0  1  0.05609500  0.25370600  0.80170500  1
  Nb  Nb0  1  0.47263700  0.48507700  0.96963400  1
  Nb  Nb1  1  0.50029800  0.00203600  0.01525100  1
  Te  Te0  1  0.00956900  0.00550800  0.49304600  1
  Te  Te1  1  0.92275800  0.85660100  0.07057200  1
  O  O0  1  0.79943000  0.83477300  0.38026800  1
  O  O1  1  0.53996000  0.27251100  0.89742200  1
  O  O2  1  0.18250500  0.82667100  0.97326200  1
  O  O3  1  0.16738600  0.26148800  0.26306200  1
  O  O4  1  0.31141500  0.46098300  0.83723000  1
  O  O5  1  0.22940000  0.93137000  0.30843200  1
  O  O6  1  0.21554400  0.14416000  0.59559300  1
  O  O7  1  0.43920900  0.72586100  0.07478600  1
  O  O8  1  0.74345600  0.14678900  0.07501100  1
  O  O9  1  0.82128000  0.72977200  0.71230600  1
  O  O10  1  0.67441300  0.56943200  0.14174800  1
  O  O11  1  0.79720100  0.09114700  0.68477600  1
loop_
_geom_bond_atom_site_label_1
_geom_bond_atom_site_label_2
_geom_bond_distance
_geom_bond_site_symmetry_2
Mg0 O4 1.919163 1_555
Mg0 O6 1.941658 1_555
Mg0 O8 1.949215 1_456
Mg0 O11 2.302718 1_455
Nb0 O4 1.850968 1_555
Nb0 O1 1.943901 1_555
Nb0 O3 2.033399 1_556
Nb0 O9 2.054612 1_555
Nb0 O7 2.087607 1_556
Nb0 O10 2.296223 1_556
Nb1 O8 1.876677 1_555
Nb1 O7 1.916983 1_545
Nb1 O5 1.955131 1_545
Nb1 O1 2.061010 1_554
Nb1 O11 2.163975 1_554
Nb1 O2 2.262155 1_544
O0 Te1 1.995920 1_555
O0 Te0 2.026708 1_665
O0 Rb1 2.868800 1_555
O0 Rb0 3.349337 1_555
O1 Rb0 3.183160 1_555
O2 Te1 1.881411 1_456
O2 Rb1 2.785217 1_555
O2 Rb0 3.207434 1_456
O3 Te0 1.955979 1_555
O3 Rb0 3.180466 1_455
O5 Te0 1.936383 1_565
O5 Rb1 2.813632 1_555
O5 Rb0 3.483792 1_455
O6 Te0 1.896978 1_555
O6 Rb0 3.234439 1_555
O7 Rb0 3.435870 1_455
O8 Rb0 3.063404 1_555
O9 Te0 1.955882 1_665
O9 Rb0 3.510444 1_555
O10 Te1 1.859989 1_555
O10 Rb0 2.990023 1_555
O11 Te0 1.981246 1_655
O11 Rb0 3.207880 1_555
