# generated using pymatgen
data_Mg30CdCuO32
_symmetry_space_group_name_H-M   'P 1'
_cell_length_a   8.57627700
_cell_length_b   8.57627700
_cell_length_c   8.51982400
_cell_angle_alpha   90.00000000
_cell_angle_beta   90.00000000
_cell_angle_gamma   90.00000000
_symmetry_Int_Tables_number   1
_chemical_formula_structural   Mg30CdCuO32
_chemical_formula_sum   'Mg30 Cd1 Cu1 O32'
_cell_volume   626.65458634
_cell_formula_units_Z   1
loop_
 _symmetry_equiv_pos_site_id
 _symmetry_equiv_pos_as_xyz
  1  'x, y, z'
loop_
 _atom_site_type_symbol
 _atom_site_label
 _atom_site_symmetry_multiplicity
 _atom_site_fract_x
 _atom_site_fract_y
 _atom_site_fract_z
 _atom_site_occupancy
  Mg  Mg0  1  0.50000000  0.00000000  0.00000000  1
  Mg  Mg1  1  0.50000000  0.00000000  0.50000000  1
  Mg  Mg2  1  0.00000000  0.50000000  0.00000000  1
  Mg  Mg3  1  0.00000000  0.50000000  0.50000000  1
  Mg  Mg4  1  0.50000000  0.50000000  0.00000000  1
  Mg  Mg5  1  0.50000000  0.50000000  0.50000000  1
  Mg  Mg6  1  0.25289900  0.00000000  0.24591600  1
  Mg  Mg7  1  0.25289900  0.00000000  0.75408400  1
  Mg  Mg8  1  0.74710100  0.00000000  0.24591600  1
  Mg  Mg9  1  0.74710100  0.00000000  0.75408400  1
  Mg  Mg10  1  0.25027900  0.50000000  0.24920100  1
  Mg  Mg11  1  0.25027900  0.50000000  0.75079900  1
  Mg  Mg12  1  0.74972100  0.50000000  0.24920100  1
  Mg  Mg13  1  0.74972100  0.50000000  0.75079900  1
  Mg  Mg14  1  0.00000000  0.25289900  0.24591600  1
  Mg  Mg15  1  0.00000000  0.25289900  0.75408400  1
  Mg  Mg16  1  0.50000000  0.25027900  0.24920100  1
  Mg  Mg17  1  0.50000000  0.25027900  0.75079900  1
  Mg  Mg18  1  0.00000000  0.74710100  0.24591600  1
  Mg  Mg19  1  0.00000000  0.74710100  0.75408400  1
  Mg  Mg20  1  0.50000000  0.74972100  0.24920100  1
  Mg  Mg21  1  0.50000000  0.74972100  0.75079900  1
  Mg  Mg22  1  0.24934000  0.24934000  0.00000000  1
  Mg  Mg23  1  0.25226700  0.25226700  0.50000000  1
  Mg  Mg24  1  0.75066000  0.24934000  0.00000000  1
  Mg  Mg25  1  0.74773300  0.25226700  0.50000000  1
  Mg  Mg26  1  0.24934000  0.75066000  0.00000000  1
  Mg  Mg27  1  0.25226700  0.74773300  0.50000000  1
  Mg  Mg28  1  0.75066000  0.75066000  0.00000000  1
  Mg  Mg29  1  0.74773300  0.74773300  0.50000000  1
  Cd  Cd0  1  0.00000000  0.00000000  0.50000000  1
  Cu  Cu0  1  0.00000000  0.00000000  0.00000000  1
  O  O0  1  0.00000000  0.25965500  0.00000000  1
  O  O1  1  0.00000000  0.26172000  0.50000000  1
  O  O2  1  0.50000000  0.25127800  0.00000000  1
  O  O3  1  0.50000000  0.25173000  0.50000000  1
  O  O4  1  0.00000000  0.74034500  0.00000000  1
  O  O5  1  0.00000000  0.73828000  0.50000000  1
  O  O6  1  0.50000000  0.74872200  0.00000000  1
  O  O7  1  0.50000000  0.74827000  0.50000000  1
  O  O8  1  0.24922800  0.24922800  0.25032500  1
  O  O9  1  0.24922800  0.24922800  0.74967500  1
  O  O10  1  0.75077200  0.24922800  0.25032500  1
  O  O11  1  0.75077200  0.24922800  0.74967500  1
  O  O12  1  0.24922800  0.75077200  0.25032500  1
  O  O13  1  0.24922800  0.75077200  0.74967500  1
  O  O14  1  0.75077200  0.75077200  0.25032500  1
  O  O15  1  0.75077200  0.75077200  0.74967500  1
  O  O16  1  0.00000000  0.00000000  0.23131900  1
  O  O17  1  0.00000000  0.00000000  0.76868100  1
  O  O18  1  0.50000000  0.00000000  0.24962100  1
  O  O19  1  0.50000000  0.00000000  0.75037900  1
  O  O20  1  0.00000000  0.50000000  0.24962100  1
  O  O21  1  0.00000000  0.50000000  0.75037900  1
  O  O22  1  0.50000000  0.50000000  0.24990600  1
  O  O23  1  0.50000000  0.50000000  0.75009400  1
  O  O24  1  0.25965500  0.00000000  0.00000000  1
  O  O25  1  0.26172000  0.00000000  0.50000000  1
  O  O26  1  0.74034500  0.00000000  0.00000000  1
  O  O27  1  0.73828000  0.00000000  0.50000000  1
  O  O28  1  0.25127800  0.50000000  0.00000000  1
  O  O29  1  0.25173000  0.50000000  0.50000000  1
  O  O30  1  0.74872200  0.50000000  0.00000000  1
  O  O31  1  0.74827000  0.50000000  0.50000000  1
loop_
_geom_bond_atom_site_label_1
_geom_bond_atom_site_label_2
_geom_bond_distance
_geom_bond_site_symmetry_2
Mg0 O26 2.061265 1_555
Mg0 O24 2.061265 1_555
Mg0 O18 2.126727 1_555
Mg0 O19 2.126727 1_554
Mg0 O6 2.155030 1_545
Mg0 O2 2.155030 1_555
Mg1 O25 2.043555 1_555
Mg1 O27 2.043555 1_555
Mg1 O19 2.133185 1_555
Mg1 O18 2.133185 1_555
Mg1 O7 2.158906 1_545
Mg1 O3 2.158906 1_555
Mg2 O4 2.061265 1_555
Mg2 O0 2.061265 1_555
Mg2 O20 2.126727 1_555
Mg2 O21 2.126727 1_554
Mg2 O28 2.155030 1_555
Mg2 O30 2.155030 1_455
Mg3 O1 2.043555 1_555
Mg3 O5 2.043555 1_555
Mg3 O21 2.133185 1_555
Mg3 O20 2.133185 1_555
Mg3 O31 2.158906 1_455
Mg3 O29 2.158906 1_555
Mg4 O22 2.129155 1_555
Mg4 O23 2.129155 1_554
Mg4 O28 2.133109 1_555
Mg4 O6 2.133109 1_555
Mg4 O30 2.133109 1_555
Mg4 O2 2.133109 1_555
Mg5 O29 2.129232 1_555
Mg5 O3 2.129232 1_555
Mg5 O7 2.129232 1_555
Mg5 O31 2.129232 1_555
Mg5 O23 2.130757 1_555
Mg5 O22 2.130757 1_555
Mg6 O24 2.095962 1_555
Mg6 O18 2.119442 1_555
Mg6 O8 2.138010 1_555
Mg6 O12 2.138010 1_545
Mg6 O25 2.166072 1_555
Mg6 O16 2.172494 1_555
Mg7 O24 2.095962 1_556
Mg7 O19 2.119442 1_555
Mg7 O9 2.138010 1_555
Mg7 O13 2.138010 1_545
Mg7 O25 2.166072 1_555
Mg7 O17 2.172494 1_555
Mg8 O26 2.095962 1_555
Mg8 O18 2.119442 1_555
Mg8 O10 2.138010 1_555
Mg8 O14 2.138010 1_545
Mg8 O27 2.166072 1_555
Mg8 O16 2.172494 1_655
Mg9 O26 2.095962 1_556
Mg9 O19 2.119442 1_555
Mg9 O11 2.138010 1_555
Mg9 O15 2.138010 1_545
Mg9 O27 2.166072 1_555
Mg9 O17 2.172494 1_655
Mg10 O28 2.123166 1_555
Mg10 O29 2.136800 1_555
Mg10 O22 2.141685 1_555
Mg10 O20 2.146465 1_555
Mg10 O12 2.150730 1_555
Mg10 O8 2.150730 1_555
Mg11 O28 2.123166 1_556
Mg11 O29 2.136800 1_555
Mg11 O23 2.141685 1_555
Mg11 O21 2.146465 1_555
Mg11 O13 2.150730 1_555
Mg11 O9 2.150730 1_555
Mg12 O30 2.123166 1_555
Mg12 O31 2.136800 1_555
Mg12 O22 2.141685 1_555
Mg12 O20 2.146465 1_655
Mg12 O14 2.150730 1_555
Mg12 O10 2.150730 1_555
Mg13 O30 2.123166 1_556
Mg13 O31 2.136800 1_555
Mg13 O23 2.141685 1_555
Mg13 O21 2.146465 1_655
Mg13 O15 2.150730 1_555
Mg13 O11 2.150730 1_555
Mg14 O0 2.095962 1_555
Mg14 O20 2.119442 1_555
Mg14 O8 2.138010 1_555
Mg14 O10 2.138010 1_455
Mg14 O1 2.166072 1_555
Mg14 O16 2.172494 1_555
Mg15 O0 2.095962 1_556
Mg15 O21 2.119442 1_555
Mg15 O9 2.138010 1_555
Mg15 O11 2.138010 1_455
Mg15 O1 2.166072 1_555
Mg15 O17 2.172494 1_555
Mg16 O2 2.123166 1_555
Mg16 O3 2.136800 1_555
Mg16 O22 2.141685 1_555
Mg16 O18 2.146465 1_555
Mg16 O10 2.150730 1_555
Mg16 O8 2.150730 1_555
Mg17 O2 2.123166 1_556
Mg17 O3 2.136800 1_555
Mg17 O23 2.141685 1_555
Mg17 O19 2.146465 1_555
Mg17 O11 2.150730 1_555
Mg17 O9 2.150730 1_555
Mg18 O4 2.095962 1_555
Mg18 O20 2.119442 1_555
Mg18 O12 2.138010 1_555
Mg18 O14 2.138010 1_455
Mg18 O5 2.166072 1_555
Mg18 O16 2.172494 1_565
Mg19 O4 2.095962 1_556
Mg19 O21 2.119442 1_555
Mg19 O13 2.138010 1_555
Mg19 O15 2.138010 1_455
Mg19 O5 2.166072 1_555
Mg19 O17 2.172494 1_565
Mg20 O6 2.123166 1_555
Mg20 O7 2.136800 1_555
Mg20 O22 2.141685 1_555
Mg20 O18 2.146465 1_565
Mg20 O14 2.150730 1_555
Mg20 O12 2.150730 1_555
Mg21 O6 2.123166 1_556
Mg21 O7 2.136800 1_555
Mg21 O23 2.141685 1_555
Mg21 O19 2.146465 1_565
Mg21 O15 2.150730 1_555
Mg21 O13 2.150730 1_555
Mg22 O8 2.132725 1_555
Mg22 O9 2.132725 1_554
Mg22 O0 2.140238 1_555
Mg22 O24 2.140238 1_555
Mg22 O2 2.149794 1_555
Mg22 O28 2.149794 1_555
Mg23 O29 2.124632 1_555
Mg23 O3 2.124632 1_555
Mg23 O9 2.127506 1_555
Mg23 O8 2.127506 1_555
Mg23 O25 2.165030 1_555
Mg23 O1 2.165030 1_555
Mg24 O10 2.132725 1_555
Mg24 O11 2.132725 1_554
Mg24 O0 2.140238 1_655
Mg24 O26 2.140238 1_555
Mg24 O30 2.149794 1_555
Mg24 O2 2.149794 1_555
Mg25 O3 2.124632 1_555
Mg25 O31 2.124632 1_555
Mg25 O11 2.127506 1_555
Mg25 O10 2.127506 1_555
Mg25 O27 2.165030 1_555
Mg25 O1 2.165030 1_655
Mg26 O12 2.132725 1_555
Mg26 O13 2.132725 1_554
Mg26 O24 2.140238 1_565
Mg26 O4 2.140238 1_555
Mg26 O6 2.149794 1_555
Mg26 O28 2.149794 1_555
Mg27 O29 2.124632 1_555
Mg27 O7 2.124632 1_555
Mg27 O13 2.127506 1_555
Mg27 O12 2.127506 1_555
Mg27 O5 2.165030 1_555
Mg27 O25 2.165030 1_565
Mg28 O14 2.132725 1_555
Mg28 O15 2.132725 1_554
Mg28 O26 2.140238 1_565
Mg28 O4 2.140238 1_655
Mg28 O6 2.149794 1_555
Mg28 O30 2.149794 1_555
Mg29 O7 2.124632 1_555
Mg29 O31 2.124632 1_555
Mg29 O15 2.127506 1_555
Mg29 O14 2.127506 1_555
Mg29 O27 2.165030 1_565
Mg29 O5 2.165030 1_655
Cd0 O5 2.244583 1_545
Cd0 O27 2.244583 1_455
Cd0 O25 2.244583 1_555
Cd0 O1 2.244583 1_555
Cd0 O17 2.289115 1_555
Cd0 O16 2.289115 1_555
Cu0 O16 1.970797 1_555
Cu0 O17 1.970797 1_554
Cu0 O0 2.226873 1_555
Cu0 O24 2.226873 1_555
Cu0 O26 2.226873 1_455
Cu0 O4 2.226873 1_545
