# generated using pymatgen
data_Ti3NiBi2(PbO6)2
_symmetry_space_group_name_H-M   'P 1'
_cell_length_a   5.70481219
_cell_length_b   19.10909657
_cell_length_c   9.84849477
_cell_angle_alpha   91.19119710
_cell_angle_beta   90.36270470
_cell_angle_gamma   81.69515882
_symmetry_Int_Tables_number   1
_chemical_formula_structural   Ti3NiBi2(PbO6)2
_chemical_formula_sum   'Ti12 Ni4 Bi8 Pb8 O48'
_cell_volume   1062.12787021
_cell_formula_units_Z   4
loop_
 _symmetry_equiv_pos_site_id
 _symmetry_equiv_pos_as_xyz
  1  'x, y, z'
loop_
 _atom_site_type_symbol
 _atom_site_label
 _atom_site_symmetry_multiplicity
 _atom_site_fract_x
 _atom_site_fract_y
 _atom_site_fract_z
 _atom_site_occupancy
  Ti  Ti0  1  0.45710600  0.06058000  0.84417800  1
  Ti  Ti1  1  0.95706800  0.06060200  0.34422300  1
  Ti  Ti2  1  0.70709100  0.56058600  0.09428200  1
  Ti  Ti3  1  0.20699900  0.56061100  0.59428800  1
  Ti  Ti4  1  0.39203400  0.18505500  0.52051400  1
  Ti  Ti5  1  0.89200100  0.18505000  0.02052600  1
  Ti  Ti6  1  0.64208700  0.68505700  0.77060200  1
  Ti  Ti7  1  0.14203500  0.68506800  0.27061100  1
  Ti  Ti8  1  0.33087000  0.30820400  0.20211900  1
  Ti  Ti9  1  0.83085500  0.30819400  0.70213700  1
  Ti  Ti10  1  0.58080600  0.80817200  0.45211100  1
  Ti  Ti11  1  0.08080700  0.80816800  0.95212100  1
  Ni  Ni0  1  0.77599800  0.42391800  0.38791000  1
  Ni  Ni1  1  0.52583000  0.92391200  0.13794300  1
  Ni  Ni2  1  0.27594700  0.42394500  0.88789700  1
  Ni  Ni3  1  0.02591400  0.92389600  0.63790200  1
  Bi  Bi0  1  0.48247100  0.00280300  0.53857100  1
  Bi  Bi1  1  0.98247800  0.00283400  0.03861400  1
  Bi  Bi2  1  0.73235300  0.50285100  0.78872000  1
  Bi  Bi3  1  0.23237900  0.50287400  0.28872500  1
  Bi  Bi4  1  0.29834500  0.39254400  0.56894200  1
  Bi  Bi5  1  0.79833800  0.39252400  0.06897700  1
  Bi  Bi6  1  0.54833700  0.89253300  0.81890100  1
  Bi  Bi7  1  0.04830900  0.89256000  0.31889300  1
  Pb  Pb0  1  0.41992200  0.12842000  0.19341300  1
  Pb  Pb1  1  0.91990900  0.12841600  0.69344500  1
  Pb  Pb2  1  0.66989100  0.62838700  0.44369100  1
  Pb  Pb3  1  0.16997300  0.62838500  0.94373800  1
  Pb  Pb4  1  0.35322900  0.25579700  0.87301600  1
  Pb  Pb5  1  0.85335300  0.25580400  0.37303600  1
  Pb  Pb6  1  0.60322500  0.75573500  0.12303200  1
  Pb  Pb7  1  0.10324900  0.75572100  0.62305400  1
  O  O0  1  0.30116400  0.35000100  0.03211600  1
  O  O1  1  0.80115000  0.34998800  0.53214200  1
  O  O2  1  0.55088300  0.84993800  0.28208000  1
  O  O3  1  0.05089900  0.84994100  0.78207100  1
  O  O4  1  0.37586600  0.23124400  0.34861500  1
  O  O5  1  0.87588000  0.23124700  0.84864800  1
  O  O6  1  0.62576000  0.73122900  0.59867700  1
  O  O7  1  0.12575500  0.73123100  0.09869600  1
  O  O8  1  0.25638000  0.48128000  0.71423600  1
  O  O9  1  0.75641100  0.48127100  0.21426900  1
  O  O10  1  0.50638000  0.98125900  0.96419800  1
  O  O11  1  0.00639500  0.98127100  0.46422700  1
  O  O12  1  0.43646900  0.10249900  0.65797900  1
  O  O13  1  0.93642900  0.10252800  0.15804100  1
  O  O14  1  0.68656200  0.60252300  0.90816600  1
  O  O15  1  0.18656700  0.60254400  0.40818500  1
  O  O16  1  0.55653400  0.35789300  0.77543400  1
  O  O17  1  0.05656800  0.35788300  0.27545400  1
  O  O18  1  0.80657500  0.85786000  0.02541600  1
  O  O19  1  0.30655900  0.85785700  0.52541700  1
  O  O20  1  0.62182900  0.22961400  0.10027700  1
  O  O21  1  0.12184100  0.22960600  0.60024900  1
  O  O22  1  0.87199000  0.72963100  0.35035200  1
  O  O23  1  0.37202500  0.72962100  0.85035100  1
  O  O24  1  0.97592500  0.47927000  0.96765400  1
  O  O25  1  0.47594300  0.47926800  0.46767300  1
  O  O26  1  0.22592700  0.97929200  0.21761700  1
  O  O27  1  0.72592100  0.97927200  0.71757400  1
  O  O28  1  0.18403500  0.10630800  0.91669900  1
  O  O29  1  0.68403500  0.10633500  0.41674900  1
  O  O30  1  0.43395200  0.60633800  0.16672100  1
  O  O31  1  0.93388900  0.60635900  0.66676000  1
  O  O32  1  0.52438600  0.47903400  0.97041900  1
  O  O33  1  0.02438000  0.47903700  0.47042200  1
  O  O34  1  0.77440300  0.97902100  0.22031500  1
  O  O35  1  0.27443400  0.97900800  0.72027600  1
  O  O36  1  0.69071600  0.10705900  0.91528100  1
  O  O37  1  0.19067500  0.10706600  0.41531100  1
  O  O38  1  0.94067500  0.60705800  0.16544300  1
  O  O39  1  0.44062300  0.60706000  0.66543700  1
  O  O40  1  0.12328900  0.22855500  0.10313900  1
  O  O41  1  0.62331700  0.22854600  0.60312400  1
  O  O42  1  0.37347500  0.72851900  0.35314900  1
  O  O43  1  0.87349900  0.72851800  0.85315000  1
  O  O44  1  0.05937000  0.35849000  0.77169400  1
  O  O45  1  0.55937500  0.35849300  0.27167700  1
  O  O46  1  0.30933500  0.85847200  0.02164500  1
  O  O47  1  0.80933900  0.85846800  0.52164400  1
loop_
_geom_bond_atom_site_label_1
_geom_bond_atom_site_label_2
_geom_bond_distance
_geom_bond_site_symmetry_2
Ni0 O1 2.014060 1_555
Ni0 O25 2.031098 1_555
Ni0 O33 2.039246 1_655
Ni0 O9 2.044065 1_555
Ni0 O17 2.182134 1_655
Ni0 O45 2.183920 1_555
Ni1 O2 2.014000 1_555
Ni1 O26 2.030321 1_555
Ni1 O34 2.039438 1_555
Ni1 O10 2.044893 1_554
Ni1 O18 2.183286 1_555
Ni1 O46 2.183959 1_555
Ni2 O0 2.014144 1_556
Ni2 O24 2.030744 1_455
Ni2 O32 2.039184 1_555
Ni2 O8 2.044048 1_555
Ni2 O16 2.182382 1_555
Ni2 O44 2.183970 1_555
Ni3 O3 2.013984 1_555
Ni3 O27 2.030679 1_455
Ni3 O35 2.039248 1_555
Ni3 O11 2.044589 1_555
Ni3 O19 2.182592 1_555
Ni3 O47 2.183906 1_455
Bi0 O12 2.201717 1_555
Bi0 O35 2.243719 1_545
Bi0 O27 2.249548 1_545
Bi0 O37 2.707595 1_555
Bi0 O29 2.729301 1_555
Bi1 O13 2.201781 1_555
Bi1 O34 2.243911 1_545
Bi1 O26 2.249571 1_645
Bi1 O36 2.707351 1_554
Bi1 O28 2.728818 1_654
Bi2 O14 2.201530 1_555
Bi2 O32 2.243570 1_555
Bi2 O24 2.249543 1_555
Bi2 O39 2.706832 1_555
Bi2 O31 2.729474 1_555
Bi3 O15 2.201569 1_555
Bi3 O33 2.243770 1_555
Bi3 O25 2.249685 1_555
Bi3 O38 2.706439 1_455
Bi3 O30 2.729116 1_555
Bi4 O8 2.183193 1_555
Bi4 O25 2.309572 1_555
Bi4 O33 2.327477 1_555
Bi4 O16 2.545570 1_555
Bi4 O44 2.571782 1_555
Bi5 O9 2.183337 1_555
Bi5 O24 2.310109 1_554
Bi5 O32 2.327797 1_554
Bi5 O17 2.545541 1_655
Bi5 O45 2.571189 1_555
Bi6 O10 2.183069 1_555
Bi6 O27 2.310012 1_555
Bi6 O35 2.327505 1_555
Bi6 O18 2.545983 1_556
Bi6 O46 2.571855 1_556
Bi7 O11 2.183087 1_555
Bi7 O26 2.309786 1_555
Bi7 O34 2.327150 1_455
Bi7 O19 2.546201 1_555
Bi7 O47 2.572009 1_455
O0 Ti8 1.866211 1_555
O0 Pb4 2.349062 1_554
O1 Ti9 1.866115 1_555
O1 Pb5 2.348836 1_555
O2 Ti10 1.866233 1_555
O2 Pb6 2.348746 1_555
O3 Ti11 1.866459 1_555
O3 Pb7 2.348787 1_555
O4 Ti4 1.921001 1_555
O4 Ti8 2.069954 1_555
O4 Pb0 2.448992 1_555
O4 Pb5 2.838038 1_555
O5 Ti5 1.920895 1_556
O5 Ti9 2.069886 1_555
O5 Pb1 2.449103 1_555
O5 Pb4 2.837167 1_655
O6 Ti6 1.921054 1_555
O6 Ti10 2.070211 1_555
O6 Pb2 2.447961 1_555
O6 Pb7 2.837624 1_655
O7 Ti7 1.920892 1_555
O7 Ti11 2.070192 1_554
O7 Pb3 2.447849 1_554
O7 Pb6 2.837556 1_555
O8 Ti3 1.928681 1_555
O9 Ti2 1.928674 1_555
O10 Ti0 1.928960 1_565
O11 Ti1 1.929018 1_465
O12 Ti0 2.012303 1_555
O12 Ti4 2.086805 1_555
O13 Ti1 2.012204 1_555
O13 Ti5 2.086643 1_555
O14 Ti2 2.011695 1_556
O14 Ti6 2.087138 1_555
O15 Ti3 2.011549 1_555
O15 Ti7 2.087063 1_555
O16 Ti9 1.851634 1_555
O16 Pb4 2.611657 1_555
O17 Ti8 1.851548 1_555
O17 Pb5 2.611106 1_455
O18 Ti11 1.851182 1_654
O18 Pb6 2.612382 1_555
O19 Ti10 1.851239 1_555
O19 Pb7 2.612508 1_555
O20 Ti5 1.823728 1_555
O20 Ti8 2.292345 1_555
O20 Pb0 2.576420 1_555
O20 Pb4 2.718350 1_554
O21 Ti4 1.823671 1_555
O21 Ti9 2.292616 1_455
O21 Pb1 2.576658 1_455
O21 Pb5 2.717655 1_455
O22 Ti7 1.823114 1_655
O22 Ti10 2.292300 1_555
O22 Pb2 2.578566 1_555
O22 Pb6 2.719149 1_555
O23 Ti6 1.823230 1_555
O23 Ti11 2.292531 1_555
O23 Pb3 2.578468 1_555
O23 Pb7 2.718986 1_555
O24 Ti2 2.361581 1_556
O25 Ti3 2.362150 1_555
O26 Ti1 2.361485 1_465
O27 Ti0 2.361314 1_565
O28 Ti0 1.815317 1_555
O28 Ti5 2.306222 1_456
O28 Pb1 2.663837 1_455
O29 Ti1 1.815198 1_555
O29 Ti4 2.305611 1_555
O29 Pb0 2.664422 1_555
O30 Ti2 1.815470 1_555
O30 Ti7 2.305947 1_555
O30 Pb3 2.661074 1_554
O31 Ti3 1.815439 1_655
O31 Ti6 2.304998 1_555
O31 Pb2 2.661797 1_555
O32 Ti2 2.318859 1_556
O33 Ti3 2.318913 1_555
O34 Ti1 2.319363 1_565
O35 Ti0 2.319230 1_565
O36 Ti0 1.832912 1_555
O36 Ti5 2.242566 1_556
O36 Pb1 2.622335 1_555
O37 Ti1 1.832677 1_455
O37 Ti4 2.242610 1_555
O37 Pb0 2.622996 1_555
O38 Ti2 1.832926 1_555
O38 Ti7 2.242752 1_655
O38 Pb3 2.621427 1_654
O39 Ti3 1.832808 1_555
O39 Ti6 2.242917 1_555
O39 Pb2 2.621676 1_555
O40 Ti5 1.835543 1_455
O40 Ti8 2.261308 1_555
O40 Pb0 2.536101 1_555
O40 Pb4 2.722515 1_554
O41 Ti4 1.835362 1_555
O41 Ti9 2.261277 1_555
O41 Pb1 2.536075 1_555
O41 Pb5 2.722593 1_555
O42 Ti7 1.835339 1_555
O42 Ti10 2.260410 1_555
O42 Pb2 2.536331 1_555
O42 Pb6 2.721770 1_555
O43 Ti6 1.835361 1_555
O43 Ti11 2.260323 1_655
O43 Pb3 2.536692 1_655
O43 Pb7 2.721527 1_655
O44 Ti9 1.848171 1_455
O44 Pb4 2.601325 1_555
O45 Ti8 1.848048 1_555
O45 Pb5 2.601780 1_555
O46 Ti11 1.848207 1_554
O46 Pb6 2.602235 1_555
O47 Ti10 1.848167 1_555
O47 Pb7 2.602513 1_655
