# generated using pymatgen
data_SrCaNb4O12
_symmetry_space_group_name_H-M   'P 1'
_cell_length_a   5.62948585
_cell_length_b   5.62948585
_cell_length_c   7.97076374
_cell_angle_alpha   90.00000000
_cell_angle_beta   90.00000000
_cell_angle_gamma   91.79625360
_symmetry_Int_Tables_number   1
_chemical_formula_structural   SrCaNb4O12
_chemical_formula_sum   'Sr1 Ca1 Nb4 O12'
_cell_volume   252.47823236
_cell_formula_units_Z   1
loop_
 _symmetry_equiv_pos_site_id
 _symmetry_equiv_pos_as_xyz
  1  'x, y, z'
loop_
 _atom_site_type_symbol
 _atom_site_label
 _atom_site_symmetry_multiplicity
 _atom_site_fract_x
 _atom_site_fract_y
 _atom_site_fract_z
 _atom_site_occupancy
  Sr  Sr0  1  0.02636670  0.97363330  0.50000000  1
  Ca  Ca0  1  0.48565099  0.51434901  -0.00000000  1
  Nb  Nb0  1  0.51845083  0.99186152  0.24869539  1
  Nb  Nb1  1  0.51845083  0.99186152  0.75130461  1
  Nb  Nb2  1  0.00813848  0.48154917  0.75130461  1
  Nb  Nb3  1  0.00813848  0.48154917  0.24869539  1
  O  O0  1  0.21343752  0.22273048  0.25379240  1
  O  O1  1  0.77726952  0.78656248  0.25379240  1
  O  O2  1  0.77726952  0.78656248  0.74620760  1
  O  O3  1  0.21343752  0.22273048  0.74620760  1
  O  O4  1  0.26779918  0.73220082  0.27686745  1
  O  O5  1  0.70126817  0.29873183  0.20430856  1
  O  O6  1  0.70126817  0.29873183  0.79569144  1
  O  O7  1  0.26779918  0.73220082  0.72313255  1
  O  O8  1  0.47632326  0.95095121  -0.00000000  1
  O  O9  1  0.53410413  0.03662128  0.50000000  1
  O  O10  1  0.04904879  0.52367674  -0.00000000  1
  O  O11  1  0.96337872  0.46589587  0.50000000  1
loop_
_geom_bond_atom_site_label_1
_geom_bond_atom_site_label_2
_geom_bond_distance
_geom_bond_site_symmetry_2
Ca0 O5 2.385592 1_555
Ca0 O6 2.385592 1_554
Ca0 O8 2.460052 1_555
Ca0 O10 2.460052 1_555
Ca0 O4 2.823568 1_555
Ca0 O7 2.823568 1_554
Nb0 O1 1.888338 1_555
Nb0 O8 2.008816 1_555
Nb0 O4 2.012184 1_555
Nb0 O5 2.014257 1_565
Nb0 O9 2.020454 1_565
Nb0 O0 2.186099 1_565
Nb1 O2 1.888338 1_555
Nb1 O8 2.008816 1_556
Nb1 O7 2.012184 1_555
Nb1 O6 2.014257 1_565
Nb1 O9 2.020454 1_565
Nb1 O3 2.186099 1_565
Nb2 O3 1.888338 1_555
Nb2 O10 2.008816 1_556
Nb2 O7 2.012184 1_555
Nb2 O6 2.014257 1_455
Nb2 O11 2.020454 1_455
Nb2 O2 2.186099 1_455
Nb3 O0 1.888338 1_555
Nb3 O10 2.008816 1_555
Nb3 O4 2.012184 1_555
Nb3 O5 2.014257 1_455
Nb3 O11 2.020454 1_455
Nb3 O1 2.186099 1_455
O0 Sr0 2.614219 1_545
O1 Sr0 2.614219 1_655
O2 Sr0 2.614219 1_655
O3 Sr0 2.614219 1_545
O4 Sr0 2.640744 1_555
O7 Sr0 2.640744 1_555
O9 Sr0 2.804782 1_645
O9 Sr0 2.869160 1_545
O11 Sr0 2.804782 1_645
O11 Sr0 2.869160 1_655
