# generated using pymatgen
data_MnFe3P2
_symmetry_space_group_name_H-M   'P 1'
_cell_length_a   3.38554800
_cell_length_b   5.90004500
_cell_length_c   10.25322619
_cell_angle_alpha   89.84988183
_cell_angle_beta   90.00000000
_cell_angle_gamma   90.00000000
_symmetry_Int_Tables_number   1
_chemical_formula_structural   MnFe3P2
_chemical_formula_sum   'Mn3 Fe9 P6'
_cell_volume   204.80631674
_cell_formula_units_Z   3
loop_
 _symmetry_equiv_pos_site_id
 _symmetry_equiv_pos_as_xyz
  1  'x, y, z'
loop_
 _atom_site_type_symbol
 _atom_site_label
 _atom_site_symmetry_multiplicity
 _atom_site_fract_x
 _atom_site_fract_y
 _atom_site_fract_z
 _atom_site_occupancy
  Mn  Mn0  1  0.50000000  0.40809100  0.99934800  1
  Mn  Mn1  1  0.50000000  0.90945600  0.50190400  1
  Mn  Mn2  1  0.50000000  0.79694900  0.20508900  1
  Fe  Fe0  1  0.50000000  0.29684300  0.70413100  1
  Fe  Fe1  1  0.50000000  0.29530400  0.29662300  1
  Fe  Fe2  1  0.50000000  0.79566800  0.79497100  1
  Fe  Fe3  1  0.00000000  0.74627600  0.99865000  1
  Fe  Fe4  1  0.00000000  0.24635400  0.50112400  1
  Fe  Fe5  1  0.00000000  0.62617900  0.37393900  1
  Fe  Fe6  1  0.00000000  0.12804400  0.87183600  1
  Fe  Fe7  1  0.00000000  0.12698000  0.12654600  1
  Fe  Fe8  1  0.00000000  0.62737000  0.62754700  1
  P  P0  1  0.00000000  0.00213900  0.33570800  1
  P  P1  1  0.00000000  0.50137600  0.83261500  1
  P  P2  1  0.00000000  0.50194400  0.16728400  1
  P  P3  1  0.00000000  0.00206500  0.66766700  1
  P  P4  1  0.50000000  0.99495700  0.99358200  1
  P  P5  1  0.50000000  0.49420600  0.50143700  1
loop_
_geom_bond_atom_site_label_1
_geom_bond_atom_site_label_2
_geom_bond_distance
_geom_bond_site_symmetry_2
Mn0 P4 2.438381 1_545
Mn0 P1 2.466991 1_555
Mn0 P1 2.466991 1_655
Mn0 P2 2.478305 1_556
Mn0 P2 2.478305 1_656
Mn1 P5 2.450011 1_555
Mn1 P3 2.461211 1_565
Mn1 P3 2.461211 1_665
Mn1 P0 2.462397 1_565
Mn1 P0 2.462397 1_665
Mn2 P2 2.459423 1_655
Mn2 P2 2.459423 1_555
Mn2 P4 2.460589 1_554
Mn2 P0 2.476538 1_665
Mn2 P0 2.476538 1_565
Fe0 P5 2.379592 1_555
Fe0 P3 2.456319 1_555
Fe0 P3 2.456319 1_655
Fe0 P1 2.462833 1_555
Fe0 P1 2.462833 1_655
Fe1 P5 2.408341 1_555
Fe1 P0 2.452400 1_555
Fe1 P0 2.452400 1_655
Fe1 P2 2.470238 1_555
Fe1 P2 2.470238 1_655
Fe2 P4 2.354151 1_555
Fe2 P1 2.454752 1_555
Fe2 P1 2.454752 1_655
Fe2 P3 2.458418 1_565
Fe2 P3 2.458418 1_665
Fe3 P1 2.235807 1_555
Fe3 P4 2.240657 1_555
Fe3 P4 2.240657 1_455
Fe3 P2 2.248255 1_556
Fe3 Mn0 2.616622 1_455
Fe3 Mn0 2.616622 1_555
Fe3 Mn2 2.727354 1_556
Fe3 Mn2 2.727354 1_456
Fe4 P0 2.228344 1_555
Fe4 P3 2.231682 1_555
Fe4 P5 2.236951 1_455
Fe4 P5 2.236951 1_555
Fe4 Mn1 2.610837 1_445
Fe4 Mn1 2.610837 1_545
Fe5 P2 2.243896 1_555
Fe5 P0 2.251539 1_565
Fe5 P5 2.274947 1_555
Fe5 P5 2.274947 1_455
Fe5 Mn2 2.620831 1_455
Fe5 Mn2 2.620831 1_555
Fe5 Mn1 2.718798 1_455
Fe5 Mn1 2.718798 1_555
Fe6 P3 2.223265 1_555
Fe6 P1 2.238047 1_555
Fe6 P4 2.243912 1_445
Fe6 P4 2.243912 1_545
Fe6 Mn0 2.704845 1_455
Fe6 Mn0 2.704845 1_555
Fe7 P2 2.252466 1_555
Fe7 P0 2.265723 1_555
Fe7 P4 2.310068 1_444
Fe7 P4 2.310068 1_544
Fe7 Mn2 2.701367 1_445
Fe7 Mn2 2.701367 1_545
Fe7 Mn0 2.702944 1_554
Fe7 Mn0 2.702944 1_454
Fe8 P1 2.228311 1_555
Fe8 P3 2.249723 1_565
Fe8 P5 2.271570 1_555
Fe8 P5 2.271570 1_455
Fe8 Mn1 2.698849 1_455
Fe8 Mn1 2.698849 1_555
