# generated using pymatgen
data_MgCd2
_symmetry_space_group_name_H-M   'P 1'
_cell_length_a   12.10606331
_cell_length_b   12.10606331
_cell_length_c   14.98609040
_cell_angle_alpha   72.03975012
_cell_angle_beta   72.03975012
_cell_angle_gamma   29.39230809
_symmetry_Int_Tables_number   1
_chemical_formula_structural   MgCd2
_chemical_formula_sum   'Mg16 Cd32'
_cell_volume   1021.68260494
_cell_formula_units_Z   16
loop_
 _symmetry_equiv_pos_site_id
 _symmetry_equiv_pos_as_xyz
  1  'x, y, z'
loop_
 _atom_site_type_symbol
 _atom_site_label
 _atom_site_symmetry_multiplicity
 _atom_site_fract_x
 _atom_site_fract_y
 _atom_site_fract_z
 _atom_site_occupancy
  Mg  Mg0_0  1  0.40375276  0.40375276  0.32096367  1
  Mg  Mg0_1  1  0.40375276  0.40375276  0.82096366  1
  Mg  Mg0_2  1  0.40375276  0.90375276  0.32096367  1
  Mg  Mg0_3  1  0.40375276  0.90375276  0.82096367  1
  Mg  Mg0_4  1  0.90375276  0.40375276  0.32096367  1
  Mg  Mg0_5  1  0.90375276  0.40375276  0.82096367  1
  Mg  Mg0_6  1  0.90375276  0.90375276  0.32096367  1
  Mg  Mg0_7  1  0.90375276  0.90375276  0.82096367  1
  Mg  Mg1_0  1  0.09624724  0.09624724  0.17903633  1
  Mg  Mg1_1  1  0.09624724  0.09624724  0.67903634  1
  Mg  Mg1_2  1  0.09624724  0.59624724  0.17903634  1
  Mg  Mg1_3  1  0.09624724  0.59624724  0.67903634  1
  Mg  Mg1_4  1  0.59624724  0.09624724  0.17903634  1
  Mg  Mg1_5  1  0.59624724  0.09624724  0.67903634  1
  Mg  Mg1_6  1  0.59624724  0.59624724  0.17903633  1
  Mg  Mg1_7  1  0.59624724  0.59624724  0.67903634  1
  Cd  Cd0_0  1  0.06907873  0.06907873  0.48909893  1
  Cd  Cd0_1  1  0.06907873  0.06907873  0.98909893  1
  Cd  Cd0_2  1  0.06907873  0.56907873  0.48909893  1
  Cd  Cd0_3  1  0.06907873  0.56907873  0.98909893  1
  Cd  Cd0_4  1  0.56907873  0.06907873  0.48909893  1
  Cd  Cd0_5  1  0.56907873  0.06907873  0.98909893  1
  Cd  Cd0_6  1  0.56907873  0.56907873  0.48909893  1
  Cd  Cd0_7  1  0.56907873  0.56907873  0.98909893  1
  Cd  Cd1_0  1  0.26696452  0.26696452  0.34507512  1
  Cd  Cd1_1  1  0.26696452  0.26696452  0.84507512  1
  Cd  Cd1_2  1  0.26696452  0.76696452  0.34507512  1
  Cd  Cd1_3  1  0.26696452  0.76696452  0.84507513  1
  Cd  Cd1_4  1  0.76696452  0.26696452  0.34507512  1
  Cd  Cd1_5  1  0.76696452  0.26696452  0.84507513  1
  Cd  Cd1_6  1  0.76696452  0.76696452  0.34507513  1
  Cd  Cd1_7  1  0.76696452  0.76696452  0.84507513  1
  Cd  Cd2_0  1  0.23303548  0.23303548  0.15492487  1
  Cd  Cd2_1  1  0.23303548  0.23303548  0.65492488  1
  Cd  Cd2_2  1  0.23303548  0.73303548  0.15492488  1
  Cd  Cd2_3  1  0.23303548  0.73303548  0.65492487  1
  Cd  Cd2_4  1  0.73303548  0.23303548  0.15492488  1
  Cd  Cd2_5  1  0.73303548  0.23303548  0.65492487  1
  Cd  Cd2_6  1  0.73303548  0.73303548  0.15492487  1
  Cd  Cd2_7  1  0.73303548  0.73303548  0.65492487  1
  Cd  Cd3_0  1  0.43092127  0.43092127  0.01090107  1
  Cd  Cd3_1  1  0.43092127  0.43092127  0.51090107  1
  Cd  Cd3_2  1  0.43092127  0.93092127  0.01090107  1
  Cd  Cd3_3  1  0.43092127  0.93092127  0.51090107  1
  Cd  Cd3_4  1  0.93092127  0.43092127  0.01090107  1
  Cd  Cd3_5  1  0.93092127  0.43092127  0.51090107  1
  Cd  Cd3_6  1  0.93092127  0.93092127  0.01090107  1
  Cd  Cd3_7  1  0.93092127  0.93092127  0.51090107  1
loop_
_geom_bond_atom_site_label_1
_geom_bond_atom_site_label_2
_geom_bond_distance
_geom_bond_site_symmetry_2
Mg0_0 Mg0_6 3.071224 1_455
Mg0_0 Mg0_6 3.071224 1_545
Mg0_0 Mg1_2 3.243781 1_555
Mg0_0 Mg1_4 3.243781 1_555
Mg0_1 Mg0_7 3.071224 1_455
Mg0_1 Mg0_7 3.071224 1_545
Mg0_1 Mg1_3 3.243781 1_555
Mg0_1 Mg1_5 3.243781 1_555
Mg0_2 Mg0_4 3.071224 1_465
Mg0_2 Mg0_4 3.071224 1_555
Mg0_2 Mg1_0 3.243781 1_565
Mg0_2 Mg1_6 3.243781 1_555
Mg0_3 Mg0_5 3.071224 1_465
Mg0_3 Mg0_5 3.071224 1_555
Mg0_3 Mg1_1 3.243781 1_565
Mg0_3 Mg1_7 3.243781 1_555
Mg0_4 Mg1_6 3.243781 1_555
Mg0_4 Mg1_0 3.243781 1_655
Mg0_5 Mg1_1 3.243781 1_655
Mg0_5 Mg1_7 3.243781 1_555
Mg0_6 Mg1_2 3.243781 1_655
Mg0_6 Mg1_4 3.243781 1_565
Mg0_7 Mg1_3 3.243781 1_655
Mg0_7 Mg1_5 3.243781 1_565
Mg1_0 Mg1_6 3.071224 1_455
Mg1_0 Mg1_6 3.071224 1_545
Mg1_1 Mg1_7 3.071224 1_545
Mg1_1 Mg1_7 3.071224 1_455
Mg1_2 Mg1_4 3.071224 1_465
Mg1_2 Mg1_4 3.071224 1_555
Mg1_3 Mg1_5 3.071224 1_465
Mg1_3 Mg1_5 3.071224 1_555
Cd0_0 Cd2_3 3.066217 1_545
Cd0_0 Cd2_5 3.066217 1_455
Cd0_0 Cd0_6 3.071224 1_455
Cd0_0 Cd0_6 3.071224 1_545
Cd0_0 Mg0_4 3.074692 1_455
Cd0_0 Mg0_2 3.074692 1_545
Cd0_0 Mg1_1 3.108327 1_555
Cd0_0 Cd3_5 3.141898 1_455
Cd0_0 Cd3_3 3.141898 1_545
Cd0_0 Cd3_7 3.146769 1_445
Cd0_0 Cd1_2 3.191522 1_545
Cd0_0 Cd1_4 3.191522 1_455
Cd0_1 Cd2_2 3.066217 1_546
Cd0_1 Cd2_4 3.066217 1_456
Cd0_1 Cd0_7 3.071224 1_455
Cd0_1 Cd0_7 3.071224 1_545
Cd0_1 Mg0_5 3.074692 1_455
Cd0_1 Mg0_3 3.074692 1_545
Cd0_1 Mg1_0 3.108327 1_556
Cd0_1 Cd3_4 3.141898 1_456
Cd0_1 Cd3_2 3.141898 1_546
Cd0_1 Cd3_6 3.146769 1_446
Cd0_1 Cd1_3 3.191522 1_545
Cd0_1 Cd1_5 3.191522 1_455
Cd0_2 Cd2_7 3.066217 1_455
Cd0_2 Cd2_1 3.066217 1_555
Cd0_2 Cd0_4 3.071224 1_465
Cd0_2 Cd0_4 3.071224 1_555
Cd0_2 Mg0_6 3.074692 1_455
Cd0_2 Mg0_0 3.074692 1_555
Cd0_2 Mg1_3 3.108327 1_555
Cd0_2 Cd3_1 3.141898 1_555
Cd0_2 Cd3_7 3.141898 1_455
Cd0_2 Cd3_5 3.146769 1_455
Cd0_2 Cd1_6 3.191522 1_455
Cd0_2 Cd1_0 3.191522 1_555
Cd0_3 Cd2_6 3.066217 1_456
Cd0_3 Cd2_0 3.066217 1_556
Cd0_3 Cd0_5 3.071224 1_555
Cd0_3 Cd0_5 3.071224 1_465
Cd0_3 Mg0_1 3.074692 1_555
Cd0_3 Mg0_7 3.074692 1_455
Cd0_3 Mg1_2 3.108327 1_556
Cd0_3 Cd3_0 3.141898 1_556
Cd0_3 Cd3_6 3.141898 1_456
Cd0_3 Cd3_4 3.146769 1_456
Cd0_3 Cd1_7 3.191522 1_455
Cd0_3 Cd1_1 3.191522 1_555
Cd0_4 Cd2_7 3.066217 1_545
Cd0_4 Cd2_1 3.066217 1_555
Cd0_4 Mg0_6 3.074692 1_545
Cd0_4 Mg0_0 3.074692 1_555
Cd0_4 Mg1_5 3.108327 1_555
Cd0_4 Cd3_1 3.141898 1_555
Cd0_4 Cd3_7 3.141898 1_545
Cd0_4 Cd3_3 3.146769 1_545
Cd0_4 Cd1_6 3.191522 1_545
Cd0_4 Cd1_0 3.191522 1_555
Cd0_5 Cd2_6 3.066217 1_546
Cd0_5 Cd2_0 3.066217 1_556
Cd0_5 Mg0_7 3.074692 1_545
Cd0_5 Mg0_1 3.074692 1_555
Cd0_5 Mg1_4 3.108327 1_556
Cd0_5 Cd3_0 3.141898 1_556
Cd0_5 Cd3_6 3.141898 1_546
Cd0_5 Cd3_2 3.146769 1_546
Cd0_5 Cd1_7 3.191522 1_545
Cd0_5 Cd1_1 3.191522 1_555
Cd0_6 Cd2_3 3.066217 1_555
Cd0_6 Cd2_5 3.066217 1_555
Cd0_6 Mg0_4 3.074692 1_555
Cd0_6 Mg0_2 3.074692 1_555
Cd0_6 Mg1_7 3.108327 1_555
Cd0_6 Cd3_5 3.141898 1_555
Cd0_6 Cd3_3 3.141898 1_555
Cd0_6 Cd3_1 3.146769 1_555
Cd0_6 Cd1_2 3.191522 1_555
Cd0_6 Cd1_4 3.191522 1_555
Cd0_7 Cd2_2 3.066217 1_556
Cd0_7 Cd2_4 3.066217 1_556
Cd0_7 Mg0_5 3.074692 1_555
Cd0_7 Mg0_3 3.074692 1_555
Cd0_7 Mg1_6 3.108327 1_556
Cd0_7 Cd3_4 3.141898 1_556
Cd0_7 Cd3_2 3.141898 1_556
Cd0_7 Cd3_0 3.146769 1_556
Cd0_7 Cd1_3 3.191522 1_555
Cd0_7 Cd1_5 3.191522 1_555
Cd1_0 Mg1_4 3.008586 1_555
Cd1_0 Mg1_2 3.008586 1_555
Cd1_0 Cd3_3 3.066217 1_545
Cd1_0 Cd3_5 3.066217 1_455
Cd1_0 Cd1_6 3.071224 1_545
Cd1_0 Cd1_6 3.071224 1_455
Cd1_0 Mg0_0 3.107326 1_555
Cd1_0 Mg0_2 3.182693 1_545
Cd1_0 Mg0_4 3.182693 1_455
Cd1_0 Cd2_0 3.193020 1_555
Cd1_1 Mg1_5 3.008586 1_555
Cd1_1 Mg1_3 3.008586 1_555
Cd1_1 Cd3_2 3.066217 1_546
Cd1_1 Cd3_4 3.066217 1_456
Cd1_1 Cd1_7 3.071224 1_545
Cd1_1 Cd1_7 3.071224 1_455
Cd1_1 Mg0_1 3.107326 1_555
Cd1_1 Mg0_3 3.182693 1_545
Cd1_1 Mg0_5 3.182693 1_455
Cd1_1 Cd2_1 3.193020 1_555
Cd1_2 Mg1_0 3.008586 1_565
Cd1_2 Mg1_6 3.008586 1_555
Cd1_2 Cd3_7 3.066217 1_455
Cd1_2 Cd3_1 3.066217 1_555
Cd1_2 Cd1_4 3.071224 1_465
Cd1_2 Cd1_4 3.071224 1_555
Cd1_2 Mg0_2 3.107326 1_555
Cd1_2 Mg0_0 3.182693 1_555
Cd1_2 Mg0_6 3.182693 1_455
Cd1_2 Cd2_2 3.193020 1_555
Cd1_3 Mg1_7 3.008586 1_555
Cd1_3 Mg1_1 3.008586 1_565
Cd1_3 Cd3_6 3.066217 1_456
Cd1_3 Cd3_0 3.066217 1_556
Cd1_3 Cd1_5 3.071224 1_555
Cd1_3 Cd1_5 3.071224 1_465
Cd1_3 Mg0_3 3.107326 1_555
Cd1_3 Mg0_7 3.182693 1_455
Cd1_3 Mg0_1 3.182693 1_555
Cd1_3 Cd2_3 3.193020 1_555
Cd1_4 Mg1_0 3.008586 1_655
Cd1_4 Mg1_6 3.008586 1_555
Cd1_4 Cd3_7 3.066217 1_545
Cd1_4 Cd3_1 3.066217 1_555
Cd1_4 Mg0_4 3.107326 1_555
Cd1_4 Mg0_0 3.182693 1_555
Cd1_4 Mg0_6 3.182693 1_545
Cd1_4 Cd2_4 3.193020 1_555
Cd1_5 Mg1_7 3.008586 1_555
Cd1_5 Mg1_1 3.008586 1_655
Cd1_5 Cd3_6 3.066217 1_546
Cd1_5 Cd3_0 3.066217 1_556
Cd1_5 Mg0_5 3.107326 1_555
Cd1_5 Mg0_7 3.182693 1_545
Cd1_5 Mg0_1 3.182693 1_555
Cd1_5 Cd2_5 3.193020 1_555
Cd1_6 Mg1_4 3.008586 1_565
Cd1_6 Mg1_2 3.008586 1_655
Cd1_6 Cd3_3 3.066217 1_555
Cd1_6 Cd3_5 3.066217 1_555
Cd1_6 Mg0_6 3.107326 1_555
Cd1_6 Mg0_2 3.182693 1_555
Cd1_6 Mg0_4 3.182693 1_555
Cd1_6 Cd2_6 3.193020 1_555
Cd1_7 Mg1_5 3.008586 1_565
Cd1_7 Mg1_3 3.008586 1_655
Cd1_7 Cd3_2 3.066217 1_556
Cd1_7 Cd3_4 3.066217 1_556
Cd1_7 Mg0_7 3.107326 1_555
Cd1_7 Mg0_3 3.182693 1_555
Cd1_7 Mg0_5 3.182693 1_555
Cd1_7 Cd2_7 3.193020 1_555
Cd2_0 Mg0_2 3.008586 1_545
Cd2_0 Mg0_4 3.008586 1_455
Cd2_0 Cd2_6 3.071224 1_455
Cd2_0 Cd2_6 3.071224 1_545
Cd2_0 Mg1_0 3.107326 1_555
Cd2_0 Mg1_4 3.182693 1_555
Cd2_0 Mg1_2 3.182693 1_555
Cd2_0 Cd3_2 3.191522 1_545
Cd2_0 Cd3_4 3.191522 1_455
Cd2_1 Mg0_3 3.008586 1_545
Cd2_1 Mg0_5 3.008586 1_455
Cd2_1 Cd2_7 3.071224 1_455
Cd2_1 Cd2_7 3.071224 1_545
Cd2_1 Mg1_1 3.107326 1_555
Cd2_1 Mg1_5 3.182693 1_555
Cd2_1 Mg1_3 3.182693 1_555
Cd2_1 Cd3_3 3.191522 1_545
Cd2_1 Cd3_5 3.191522 1_455
Cd2_2 Mg0_0 3.008586 1_555
Cd2_2 Mg0_6 3.008586 1_455
Cd2_2 Cd2_4 3.071224 1_555
Cd2_2 Cd2_4 3.071224 1_465
Cd2_2 Mg1_2 3.107326 1_555
Cd2_2 Mg1_0 3.182693 1_565
Cd2_2 Mg1_6 3.182693 1_555
Cd2_2 Cd3_6 3.191522 1_455
Cd2_2 Cd3_0 3.191522 1_555
Cd2_3 Mg0_1 3.008586 1_555
Cd2_3 Mg0_7 3.008586 1_455
Cd2_3 Cd2_5 3.071224 1_465
Cd2_3 Cd2_5 3.071224 1_555
Cd2_3 Mg1_3 3.107326 1_555
Cd2_3 Mg1_7 3.182693 1_555
Cd2_3 Mg1_1 3.182693 1_565
Cd2_3 Cd3_7 3.191522 1_455
Cd2_3 Cd3_1 3.191522 1_555
Cd2_4 Mg0_0 3.008586 1_555
Cd2_4 Mg0_6 3.008586 1_545
Cd2_4 Mg1_4 3.107326 1_555
Cd2_4 Mg1_0 3.182693 1_655
Cd2_4 Mg1_6 3.182693 1_555
Cd2_4 Cd3_6 3.191522 1_545
Cd2_4 Cd3_0 3.191522 1_555
Cd2_5 Mg0_1 3.008586 1_555
Cd2_5 Mg0_7 3.008586 1_545
Cd2_5 Mg1_5 3.107326 1_555
Cd2_5 Mg1_7 3.182693 1_555
Cd2_5 Mg1_1 3.182693 1_655
Cd2_5 Cd3_7 3.191522 1_545
Cd2_5 Cd3_1 3.191522 1_555
Cd2_6 Mg0_2 3.008586 1_555
Cd2_6 Mg0_4 3.008586 1_555
Cd2_6 Mg1_6 3.107326 1_555
Cd2_6 Mg1_4 3.182693 1_565
Cd2_6 Mg1_2 3.182693 1_655
Cd2_6 Cd3_2 3.191522 1_555
Cd2_6 Cd3_4 3.191522 1_555
Cd2_7 Mg0_3 3.008586 1_555
Cd2_7 Mg0_5 3.008586 1_555
Cd2_7 Mg1_7 3.107326 1_555
Cd2_7 Mg1_5 3.182693 1_565
Cd2_7 Mg1_3 3.182693 1_655
Cd2_7 Cd3_3 3.191522 1_555
Cd2_7 Cd3_5 3.191522 1_555
Cd3_0 Cd3_6 3.071224 1_455
Cd3_0 Cd3_6 3.071224 1_545
Cd3_0 Mg1_2 3.074692 1_555
Cd3_0 Mg1_4 3.074692 1_555
Cd3_0 Mg0_1 3.108327 1_554
Cd3_1 Cd3_7 3.071224 1_545
Cd3_1 Cd3_7 3.071224 1_455
Cd3_1 Mg1_3 3.074692 1_555
Cd3_1 Mg1_5 3.074692 1_555
Cd3_1 Mg0_0 3.108327 1_555
Cd3_2 Cd3_4 3.071224 1_555
Cd3_2 Cd3_4 3.071224 1_465
Cd3_2 Mg1_6 3.074692 1_555
Cd3_2 Mg1_0 3.074692 1_565
Cd3_2 Mg0_3 3.108327 1_554
Cd3_3 Cd3_5 3.071224 1_465
Cd3_3 Cd3_5 3.071224 1_555
Cd3_3 Mg1_1 3.074692 1_565
Cd3_3 Mg1_7 3.074692 1_555
Cd3_3 Mg0_2 3.108327 1_555
Cd3_4 Mg1_6 3.074692 1_555
Cd3_4 Mg1_0 3.074692 1_655
Cd3_4 Mg0_5 3.108327 1_554
Cd3_5 Mg1_1 3.074692 1_655
Cd3_5 Mg1_7 3.074692 1_555
Cd3_5 Mg0_4 3.108327 1_555
Cd3_6 Mg1_2 3.074692 1_655
Cd3_6 Mg1_4 3.074692 1_565
Cd3_6 Mg0_7 3.108327 1_554
Cd3_7 Mg1_3 3.074692 1_655
Cd3_7 Mg1_5 3.074692 1_565
Cd3_7 Mg0_6 3.108327 1_555
