# generated using pymatgen
data_Li9Mn2Co5O16
_symmetry_space_group_name_H-M   'P 1'
_cell_length_a   5.90181400
_cell_length_b   5.92757843
_cell_length_c   8.19516848
_cell_angle_alpha   90.66542982
_cell_angle_beta   90.44893699
_cell_angle_gamma   93.19531100
_symmetry_Int_Tables_number   1
_chemical_formula_structural   Li9Mn2Co5O16
_chemical_formula_sum   'Li9 Mn2 Co5 O16'
_cell_volume   286.22003925
_cell_formula_units_Z   1
loop_
 _symmetry_equiv_pos_site_id
 _symmetry_equiv_pos_as_xyz
  1  'x, y, z'
loop_
 _atom_site_type_symbol
 _atom_site_label
 _atom_site_symmetry_multiplicity
 _atom_site_fract_x
 _atom_site_fract_y
 _atom_site_fract_z
 _atom_site_occupancy
  Li  Li0  1  0.00019200  0.50033300  0.99738700  1
  Li  Li1  1  0.24456400  0.74465500  0.26401700  1
  Li  Li2  1  0.24377500  0.26027600  0.74219300  1
  Li  Li3  1  0.50161800  0.50257500  0.99791900  1
  Li  Li4  1  0.50054100  0.99952700  0.50317700  1
  Li  Li5  1  0.75688000  0.25509900  0.73719000  1
  Li  Li6  1  0.75510200  0.74177500  0.25603200  1
  Li  Li7  1  0.99843000  0.99763200  0.50183800  1
  Li  Li8  1  0.00171600  0.49984800  0.50212500  1
  Mn  Mn0  1  0.99709300  0.99895300  0.00052600  1
  Mn  Mn1  1  0.24590300  0.25677800  0.25108300  1
  Co  Co0  1  0.50565300  0.50650400  0.49980800  1
  Co  Co1  1  0.75440400  0.73865100  0.74773600  1
  Co  Co2  1  0.49829600  0.99977000  0.99880900  1
  Co  Co3  1  0.75099700  0.25216500  0.25430000  1
  Co  Co4  1  0.24705900  0.74698800  0.74598800  1
  O  O0  1  0.76295700  0.76176700  0.00358000  1
  O  O1  1  0.01917400  0.00244500  0.23802200  1
  O  O2  1  0.01060500  0.52284600  0.75133600  1
  O  O3  1  0.23799600  0.78514000  0.98727500  1
  O  O4  1  0.26303600  0.25689400  0.48258000  1
  O  O5  1  0.52141900  0.49907100  0.75118300  1
  O  O6  1  0.48913700  0.03467000  0.23299900  1
  O  O7  1  0.74041800  0.25651000  0.47847200  1
  O  O8  1  0.23399000  0.24109100  0.00982000  1
  O  O9  1  0.47783100  0.49543700  0.24596400  1
  O  O10  1  0.49562600  0.97731300  0.76801100  1
  O  O11  1  0.75907400  0.21665000  0.01502400  1
  O  O12  1  0.73861000  0.74123800  0.50136800  1
  O  O13  1  0.97964600  0.00118800  0.76548300  1
  O  O14  1  0.00689400  0.46367800  0.24867400  1
  O  O15  1  0.26136400  0.74253500  0.52008000  1
loop_
_geom_bond_atom_site_label_1
_geom_bond_atom_site_label_2
_geom_bond_distance
_geom_bond_site_symmetry_2
Li0 O2 2.023574 1_555
Li0 O14 2.073578 1_556
Li0 O8 2.124501 1_556
Li0 O3 2.137199 1_555
Li0 O0 2.146054 1_456
Li0 O11 2.148405 1_456
Li1 O9 2.079499 1_555
Li1 O1 2.092740 1_565
Li1 O15 2.100261 1_555
Li1 O14 2.118774 1_555
Li1 O6 2.200597 1_565
Li1 O3 2.283633 1_554
Li2 O5 2.105028 1_555
Li2 O4 2.131418 1_555
Li2 O2 2.135277 1_555
Li2 O13 2.137656 1_455
Li2 O8 2.198557 1_556
Li2 O10 2.312707 1_545
Li3 O5 2.026264 1_555
Li3 O9 2.039476 1_556
Li3 O0 2.115323 1_556
Li3 O8 2.153998 1_556
Li3 O11 2.343109 1_556
Li3 O3 2.350622 1_555
Li4 O15 2.024983 1_555
Li4 O7 2.033930 1_565
Li4 O12 2.134950 1_555
Li4 O4 2.135717 1_565
Li4 O10 2.176198 1_555
Li4 O6 2.227183 1_565
Li5 O5 2.063574 1_555
Li5 O13 2.066746 1_555
Li5 O7 2.121837 1_555
Li5 O2 2.121953 1_655
Li5 O10 2.210246 1_545
Li5 O11 2.290914 1_556
Li6 O12 2.013717 1_555
Li6 O0 2.074384 1_555
Li6 O9 2.132013 1_555
Li6 O1 2.139773 1_665
Li6 O14 2.280671 1_655
Li6 O6 2.412578 1_565
Li7 O12 2.097882 1_555
Li7 O4 2.137140 1_665
Li7 O13 2.164243 1_565
Li7 O1 2.166866 1_665
Li7 O7 2.230000 1_565
Li7 O15 2.231605 1_655
Li8 O2 2.045358 1_555
Li8 O15 2.045752 1_555
Li8 O7 2.058428 1_455
Li8 O14 2.086269 1_555
Li8 O12 2.169409 1_455
Li8 O4 2.173549 1_555
Mn0 O0 1.916120 1_555
Mn0 O13 1.928400 1_564
Mn0 O8 1.947484 1_665
Mn0 O1 1.949451 1_665
Mn0 O3 1.959488 1_654
Mn0 O11 1.963092 1_565
Mn1 O4 1.899048 1_555
Mn1 O9 1.913913 1_555
Mn1 O14 1.920214 1_555
Mn1 O1 1.960590 1_555
Mn1 O8 1.978812 1_555
Mn1 O6 2.006369 1_555
Co0 O12 1.900654 1_555
Co0 O4 2.003792 1_555
Co0 O5 2.062525 1_555
Co0 O15 2.070488 1_555
Co0 O9 2.085465 1_555
Co0 O7 2.091139 1_555
Co1 O5 1.921493 1_555
Co1 O13 1.992778 1_565
Co1 O12 2.020724 1_555
Co1 O2 2.034533 1_655
Co1 O0 2.099597 1_556
Co1 O10 2.144959 1_555
Co2 O10 1.894445 1_555
Co2 O6 1.929456 1_566
Co2 O3 1.940260 1_555
Co2 O11 1.952262 1_566
Co2 O0 2.162775 1_556
Co2 O8 2.176126 1_566
Co3 O7 1.838607 1_555
Co3 O14 1.909519 1_655
Co3 O6 1.961989 1_555
Co3 O11 1.970975 1_555
Co3 O9 2.223265 1_555
Co3 O1 2.230208 1_655
Co4 O15 1.853888 1_555
Co4 O2 1.873555 1_555
Co4 O10 1.953321 1_555
Co4 O3 1.989142 1_555
Co4 O5 2.246976 1_555
Co4 O13 2.247263 1_465
