# generated using pymatgen
data_MnGeAs2
_symmetry_space_group_name_H-M   'P 1'
_cell_length_a   7.02996456
_cell_length_b   7.02996456
_cell_length_c   7.02996456
_cell_angle_alpha   130.96110353
_cell_angle_beta   130.96110353
_cell_angle_gamma   71.87488465
_symmetry_Int_Tables_number   1
_chemical_formula_structural   MnGeAs2
_chemical_formula_sum   'Mn2 Ge2 As4'
_cell_volume   193.78570216
_cell_formula_units_Z   2
loop_
 _symmetry_equiv_pos_site_id
 _symmetry_equiv_pos_as_xyz
  1  'x, y, z'
loop_
 _atom_site_type_symbol
 _atom_site_label
 _atom_site_symmetry_multiplicity
 _atom_site_fract_x
 _atom_site_fract_y
 _atom_site_fract_z
 _atom_site_occupancy
  Mn  Mn0  1  0.25000000  0.75000000  0.50000000  1
  Mn  Mn1  1  0.50000000  0.50000000  0.00000000  1
  Ge  Ge0  1  0.75000000  0.25000000  0.50000000  1
  Ge  Ge1  1  0.00000000  0.00000000  0.00000000  1
  As  As0  1  0.11973100  0.12500000  0.49473100  1
  As  As1  1  0.63026900  0.62500000  0.50526900  1
  As  As2  1  0.87500000  0.36973100  0.99473100  1
  As  As3  1  0.37500000  0.88026900  0.00526900  1
loop_
_geom_bond_atom_site_label_1
_geom_bond_atom_site_label_2
_geom_bond_distance
_geom_bond_site_symmetry_2
As0 Ge1 2.488342 1_555
As0 Ge0 2.488342 1_455
As0 Mn0 2.524130 1_545
As0 Mn1 2.524130 1_556
As1 Ge1 2.488342 1_666
As1 Ge0 2.488342 1_555
As1 Mn1 2.524130 1_555
As1 Mn0 2.524130 1_555
As2 Ge1 2.488342 1_656
As2 Ge0 2.488342 1_555
As2 Mn1 2.524130 1_556
As2 Mn0 2.524130 1_656
As3 Ge0 2.488342 1_565
As3 Ge1 2.488342 1_565
As3 Mn1 2.524130 1_555
As3 Mn0 2.524130 1_554
