# generated using pymatgen
data_FeH10S2(NO2)4
_symmetry_space_group_name_H-M   'P 1'
_cell_length_a   8.54112550
_cell_length_b   11.91998181
_cell_length_c   9.34771794
_cell_angle_alpha   88.99244917
_cell_angle_beta   102.55881094
_cell_angle_gamma   92.47249371
_symmetry_Int_Tables_number   1
_chemical_formula_structural   FeH10S2(NO2)4
_chemical_formula_sum   'Fe4 H40 S8 N16 O32'
_cell_volume   928.02329244
_cell_formula_units_Z   4
loop_
 _symmetry_equiv_pos_site_id
 _symmetry_equiv_pos_as_xyz
  1  'x, y, z'
loop_
 _atom_site_type_symbol
 _atom_site_label
 _atom_site_symmetry_multiplicity
 _atom_site_fract_x
 _atom_site_fract_y
 _atom_site_fract_z
 _atom_site_occupancy
  Fe  Fe0  1  0.50020300  0.75003700  0.25000900  1
  Fe  Fe1  1  0.99992100  0.49990800  0.49995700  1
  Fe  Fe2  1  0.00007000  0.00000900  0.99962600  1
  Fe  Fe3  1  0.49989700  0.24986400  0.75031500  1
  H  H0  1  0.87256600  0.35289700  0.27342600  1
  H  H1  1  0.37249700  0.60304400  0.02340700  1
  H  H2  1  0.37292500  0.10248700  0.52350400  1
  H  H3  1  0.87281300  0.85241900  0.77321600  1
  H  H4  1  0.62749000  0.89735200  0.47660600  1
  H  H5  1  0.12697200  0.14753600  0.22644700  1
  H  H6  1  0.12745300  0.64723700  0.72666800  1
  H  H7  1  0.62716900  0.39762000  0.97674300  1
  H  H8  1  0.14548900  0.12638200  0.62627600  1
  H  H9  1  0.64535800  0.37627200  0.37648100  1
  H  H10  1  0.64548800  0.87618300  0.87629000  1
  H  H11  1  0.14543400  0.62608600  0.12661800  1
  H  H12  1  0.35445000  0.12364900  0.12368300  1
  H  H13  1  0.85444600  0.37383600  0.87363400  1
  H  H14  1  0.85468000  0.87377500  0.37341900  1
  H  H15  1  0.35463300  0.62404200  0.62335100  1
  H  H16  1  0.67698800  0.24400600  0.32936300  1
  H  H17  1  0.17723200  0.49388500  0.07948200  1
  H  H18  1  0.17683500  0.99409200  0.57907100  1
  H  H19  1  0.67713900  0.74392300  0.82919300  1
  H  H20  1  0.82299500  0.00603600  0.42044800  1
  H  H21  1  0.32308700  0.25593700  0.17093300  1
  H  H22  1  0.32277600  0.75620100  0.67060400  1
  H  H23  1  0.82281200  0.50607900  0.92067500  1
  H  H24  1  0.95710600  0.28341900  0.42207600  1
  H  H25  1  0.45736800  0.53355000  0.17188100  1
  H  H26  1  0.45706800  0.03330000  0.67248900  1
  H  H27  1  0.95738000  0.78352800  0.92232200  1
  H  H28  1  0.54282600  0.96643300  0.32770600  1
  H  H29  1  0.04287000  0.21672600  0.07742900  1
  H  H30  1  0.04255000  0.71636700  0.57787900  1
  H  H31  1  0.54255200  0.46645100  0.82763600  1
  H  H32  1  0.72681800  0.28406300  0.50940000  1
  H  H33  1  0.22714400  0.53394500  0.25951400  1
  H  H34  1  0.22661800  0.03400900  0.75916800  1
  H  H35  1  0.72699900  0.78399400  0.00920000  1
  H  H36  1  0.77307700  0.96593600  0.24045900  1
  H  H37  1  0.27335900  0.21605800  0.99082200  1
  H  H38  1  0.27284400  0.71620600  0.49055500  1
  H  H39  1  0.77294100  0.46603700  0.74069100  1
  S  S0  1  0.80994400  0.10473200  0.67587400  1
  S  S1  1  0.31002700  0.35458400  0.42643200  1
  S  S2  1  0.31006300  0.85482700  0.92614000  1
  S  S3  1  0.81004700  0.60463600  0.17606500  1
  S  S4  1  0.69001700  0.14520900  0.07391100  1
  S  S5  1  0.18996900  0.39517200  0.82415800  1
  S  S6  1  0.19001800  0.89548400  0.32370500  1
  S  S7  1  0.69000700  0.64518700  0.57394600  1
  N  N0  1  0.88153300  0.34776400  0.38482800  1
  N  N1  1  0.38164300  0.59785100  0.13482600  1
  N  N2  1  0.38162400  0.09762100  0.63489800  1
  N  N3  1  0.88169900  0.84771200  0.88464700  1
  N  N4  1  0.61849700  0.90219000  0.36517400  1
  N  N5  1  0.11831500  0.15240900  0.11506100  1
  N  N6  1  0.11840000  0.65219200  0.61524200  1
  N  N7  1  0.61825300  0.40227900  0.86530400  1
  N  N8  1  0.72265700  0.31113700  0.40117000  1
  N  N9  1  0.22287500  0.56103200  0.15128700  1
  N  N10  1  0.22260300  0.06113300  0.65097500  1
  N  N11  1  0.72282300  0.81107300  0.90099000  1
  N  N12  1  0.77731700  0.93887400  0.34871800  1
  N  N13  1  0.27734500  0.18889900  0.09901200  1
  N  N14  1  0.27714900  0.68907400  0.59876900  1
  N  N15  1  0.77710800  0.43894100  0.84892200  1
  O  O0  1  0.72189200  0.21199300  0.67625300  1
  O  O1  1  0.22216500  0.46191100  0.42678600  1
  O  O2  1  0.22222700  0.96226100  0.92610700  1
  O  O3  1  0.72218300  0.71197300  0.17646300  1
  O  O4  1  0.77807200  0.03790800  0.07375000  1
  O  O5  1  0.27796500  0.28779400  0.82413400  1
  O  O6  1  0.27800800  0.78822200  0.32332800  1
  O  O7  1  0.77806700  0.53787400  0.57392600  1
  O  O8  1  0.94057100  0.10079100  0.81136300  1
  O  O9  1  0.44051100  0.35055500  0.56201500  1
  O  O10  1  0.44034900  0.85100200  0.06185300  1
  O  O11  1  0.94026800  0.60054800  0.31178700  1
  O  O12  1  0.55931100  0.14894300  0.93846700  1
  O  O13  1  0.05965100  0.39899900  0.68847200  1
  O  O14  1  0.05963700  0.89955200  0.18806900  1
  O  O15  1  0.55964400  0.64893800  0.43828500  1
  O  O16  1  0.69807600  0.00568400  0.66814300  1
  O  O17  1  0.19795000  0.25559900  0.41865200  1
  O  O18  1  0.19788500  0.75594900  0.91839300  1
  O  O19  1  0.69786400  0.50568500  0.16787600  1
  O  O20  1  0.80186300  0.24423500  0.08128200  1
  O  O21  1  0.30204000  0.49411100  0.83199900  1
  O  O22  1  0.30200400  0.99453700  0.33174300  1
  O  O23  1  0.80204000  0.74417300  0.58161400  1
  O  O24  1  0.88611800  0.11003700  0.54594600  1
  O  O25  1  0.38624600  0.35977300  0.29652900  1
  O  O26  1  0.38646900  0.85979300  0.79634900  1
  O  O27  1  0.88657100  0.60994400  0.04637500  1
  O  O28  1  0.61402000  0.14011000  0.20395000  1
  O  O29  1  0.11363600  0.39005500  0.95400700  1
  O  O30  1  0.11362200  0.89013500  0.45350900  1
  O  O31  1  0.61380200  0.64008500  0.70385100  1
loop_
_geom_bond_atom_site_label_1
_geom_bond_atom_site_label_2
_geom_bond_distance
_geom_bond_site_symmetry_2
Fe0 O10 2.095437 1_555
Fe0 O15 2.096918 1_555
Fe0 N4 2.215099 1_555
Fe0 N1 2.216201 1_555
Fe0 O3 2.219280 1_555
Fe0 O6 2.220287 1_555
Fe1 O11 2.093185 1_555
Fe1 O13 2.097573 1_655
Fe1 N0 2.215130 1_555
Fe1 N6 2.217308 1_655
Fe1 O1 2.219434 1_655
Fe1 O7 2.219967 1_555
Fe2 O14 2.093869 1_546
Fe2 O8 2.094712 1_455
Fe2 N3 2.215996 1_445
Fe2 N5 2.218359 1_556
Fe2 O2 2.219634 1_545
Fe2 O4 2.221640 1_456
Fe3 O9 2.094283 1_555
Fe3 O12 2.094789 1_555
Fe3 N2 2.216855 1_555
Fe3 N7 2.217130 1_555
Fe3 O5 2.219780 1_555
Fe3 O0 2.221244 1_555
H0 N0 1.028352 1_555
H1 N1 1.028325 1_555
H2 N2 1.028470 1_555
H3 N3 1.028506 1_555
H4 N4 1.028447 1_555
H5 N5 1.028451 1_555
H6 N6 1.028377 1_555
H7 N7 1.028521 1_555
H8 N10 1.031400 1_555
H9 N8 1.031322 1_555
H10 N11 1.031290 1_555
H11 N9 1.031317 1_555
H12 N13 1.031343 1_555
H13 N15 1.031268 1_555
H14 N12 1.031338 1_555
H15 N14 1.031286 1_555
H16 N8 1.058829 1_555
H16 O28 1.707842 1_555
H17 N9 1.058918 1_555
H17 O29 1.708367 1_554
H18 N10 1.058706 1_565
H18 O30 1.709528 1_555
H19 N11 1.058972 1_555
H19 O31 1.707350 1_555
H20 N12 1.058714 1_545
H20 O24 1.709427 1_555
H21 N13 1.058726 1_555
H21 O25 1.708624 1_555
H22 N14 1.058871 1_555
H22 O26 1.708025 1_555
H23 N15 1.058665 1_555
H23 O27 1.710186 1_556
H24 N0 1.030405 1_555
H25 N1 1.030426 1_555
H26 N2 1.030153 1_555
H27 N3 1.030238 1_555
H28 N4 1.030355 1_555
H29 N5 1.030195 1_555
H30 N6 1.030446 1_555
H31 N7 1.030216 1_555
H32 N8 1.050156 1_555
H33 N9 1.050025 1_555
H34 N10 1.050204 1_555
H35 N11 1.049975 1_554
H36 N12 1.050262 1_555
H37 N13 1.050340 1_556
H38 N14 1.050017 1_555
H39 N15 1.050233 1_555
O0 S0 1.511483 1_555
O1 S1 1.511269 1_555
O2 S2 1.511810 1_555
O3 S3 1.511433 1_555
O4 S4 1.511656 1_555
O5 S5 1.512025 1_555
O6 S6 1.511208 1_555
O7 S7 1.511640 1_555
O8 S0 1.496319 1_555
O9 S1 1.496284 1_555
O10 S2 1.496049 1_554
O11 S3 1.495949 1_555
O12 S4 1.496293 1_556
O13 S5 1.496031 1_555
O14 S6 1.496152 1_555
O15 S7 1.496043 1_555
O16 S0 1.479101 1_555
O17 S1 1.479560 1_555
O18 S2 1.479121 1_555
O19 S3 1.479501 1_555
O20 S4 1.479050 1_555
O21 S5 1.479062 1_555
O22 S6 1.479532 1_555
O23 S7 1.479424 1_555
O24 S0 1.496585 1_555
O25 S1 1.496596 1_555
O26 S2 1.496603 1_555
O27 S3 1.496397 1_555
O28 S4 1.496583 1_555
O29 S5 1.496726 1_555
O30 S6 1.496697 1_555
O31 S7 1.496531 1_555
