# generated using pymatgen
data_Al2Cr4O19
_symmetry_space_group_name_H-M   'P 1'
_cell_length_a   10.73547400
_cell_length_b   5.42518600
_cell_length_c   14.77040558
_cell_angle_alpha   68.71456736
_cell_angle_beta   90.00000000
_cell_angle_gamma   90.00000000
_symmetry_Int_Tables_number   1
_chemical_formula_structural   Al2Cr4O19
_chemical_formula_sum   'Al4 Cr8 O38'
_cell_volume   801.57343962
_cell_formula_units_Z   2
loop_
 _symmetry_equiv_pos_site_id
 _symmetry_equiv_pos_as_xyz
  1  'x, y, z'
loop_
 _atom_site_type_symbol
 _atom_site_label
 _atom_site_symmetry_multiplicity
 _atom_site_fract_x
 _atom_site_fract_y
 _atom_site_fract_z
 _atom_site_occupancy
  Al  Al0  1  0.00000000  0.00000000  0.00000000  1
  Al  Al1  1  0.00000000  0.00000000  0.50000000  1
  Al  Al2  1  0.34514400  0.50000000  0.25000000  1
  Al  Al3  1  0.65485600  0.50000000  0.75000000  1
  Cr  Cr0  1  0.09504900  0.35826000  0.12927100  1
  Cr  Cr1  1  0.90495100  0.64174000  0.87072900  1
  Cr  Cr2  1  0.09504900  0.64174000  0.37072900  1
  Cr  Cr3  1  0.90495100  0.35826000  0.62927100  1
  Cr  Cr4  1  0.60140600  0.26831200  0.15280200  1
  Cr  Cr5  1  0.39859400  0.73168800  0.84719800  1
  Cr  Cr6  1  0.60140600  0.73168800  0.34719800  1
  Cr  Cr7  1  0.39859400  0.26831200  0.65280200  1
  O  O0  1  0.10552900  0.13230800  0.07363500  1
  O  O1  1  0.89447100  0.86769200  0.92636500  1
  O  O2  1  0.10552900  0.86769200  0.42636500  1
  O  O3  1  0.89447100  0.13230800  0.57363500  1
  O  O4  1  0.08284500  0.66981600  0.04713300  1
  O  O5  1  0.91715500  0.33018400  0.95286700  1
  O  O6  1  0.08284500  0.33018400  0.45286700  1
  O  O7  1  0.91715500  0.66981600  0.54713300  1
  O  O8  1  0.97307300  0.29305300  0.19520200  1
  O  O9  1  0.02692700  0.70694700  0.80479800  1
  O  O10  1  0.97307300  0.70694700  0.30479800  1
  O  O11  1  0.02692700  0.29305300  0.69520200  1
  O  O12  1  0.22106200  0.33714000  0.20032700  1
  O  O13  1  0.77893800  0.66286000  0.79967300  1
  O  O14  1  0.22106200  0.66286000  0.29967300  1
  O  O15  1  0.77893800  0.33714000  0.70032700  1
  O  O16  1  0.66626900  0.00000000  0.25000000  1
  O  O17  1  0.33373100  0.00000000  0.75000000  1
  O  O18  1  0.69888100  0.50848300  0.12069000  1
  O  O19  1  0.30111900  0.49151700  0.87931000  1
  O  O20  1  0.69888100  0.49151700  0.37931000  1
  O  O21  1  0.30111900  0.50848300  0.62069000  1
  O  O22  1  0.46529100  0.35673600  0.19234600  1
  O  O23  1  0.53470900  0.64326400  0.80765400  1
  O  O24  1  0.46529100  0.64326400  0.30765400  1
  O  O25  1  0.53470900  0.35673600  0.69234600  1
  O  O26  1  0.57446100  0.17984600  0.06140000  1
  O  O27  1  0.42553900  0.82015400  0.93860000  1
  O  O28  1  0.57446100  0.82015400  0.43860000  1
  O  O29  1  0.42553900  0.17984600  0.56140000  1
  O  O30  1  0.88540900  0.88408300  0.10530600  1
  O  O31  1  0.11459100  0.11591700  0.89469400  1
  O  O32  1  0.88540900  0.11591700  0.39469400  1
  O  O33  1  0.11459100  0.88408300  0.60530600  1
  O  O34  1  0.34514100  0.80532300  0.13325900  1
  O  O35  1  0.65485900  0.19467700  0.86674100  1
  O  O36  1  0.34514100  0.19467700  0.36674100  1
  O  O37  1  0.65485900  0.80532300  0.63325900  1
loop_
_geom_bond_atom_site_label_1
_geom_bond_atom_site_label_2
_geom_bond_distance
_geom_bond_site_symmetry_2
Al0 O0 1.883724 1_555
Al0 O1 1.883724 1_444
Al0 O4 1.891836 1_545
Al0 O5 1.891836 1_454
Al0 O30 1.902100 1_445
Al0 O31 1.902100 1_554
Al1 O2 1.883724 1_545
Al1 O3 1.883724 1_455
Al1 O6 1.891836 1_555
Al1 O7 1.891836 1_445
Al1 O32 1.902100 1_455
Al1 O33 1.902100 1_545
Al2 O24 1.863728 1_555
Al2 O22 1.863728 1_555
Al2 O14 1.887866 1_555
Al2 O12 1.887866 1_555
Al2 O36 1.908752 1_555
Al2 O34 1.908752 1_555
Al3 O23 1.863728 1_555
Al3 O25 1.863728 1_555
Al3 O13 1.887866 1_555
Al3 O15 1.887866 1_555
Al3 O37 1.908752 1_555
Al3 O35 1.908752 1_555
Cr0 O8 1.593135 1_455
Cr0 O4 1.690318 1_555
Cr0 O12 1.690390 1_555
Cr0 O0 1.709381 1_555
Cr1 O9 1.593135 1_655
Cr1 O5 1.690318 1_555
Cr1 O13 1.690390 1_555
Cr1 O1 1.709381 1_555
Cr2 O10 1.593135 1_455
Cr2 O6 1.690318 1_555
Cr2 O14 1.690390 1_555
Cr2 O2 1.709381 1_555
Cr3 O11 1.593135 1_655
Cr3 O7 1.690318 1_555
Cr3 O15 1.690390 1_555
Cr3 O3 1.709381 1_555
Cr4 O18 1.602825 1_555
Cr4 O26 1.614643 1_555
Cr4 O22 1.705868 1_555
Cr4 O16 1.774155 1_555
Cr5 O19 1.602825 1_555
Cr5 O27 1.614643 1_555
Cr5 O23 1.705868 1_555
Cr5 O17 1.774155 1_565
Cr6 O20 1.602825 1_555
Cr6 O28 1.614643 1_555
Cr6 O24 1.705868 1_555
Cr6 O16 1.774155 1_565
Cr7 O21 1.602825 1_555
Cr7 O29 1.614643 1_555
Cr7 O25 1.705868 1_555
Cr7 O17 1.774155 1_555
