# generated using pymatgen
data_NdMnO3
_symmetry_space_group_name_H-M   'P 1'
_cell_length_a   5.49970400
_cell_length_b   5.65781100
_cell_length_c   7.90017097
_cell_angle_alpha   89.42924992
_cell_angle_beta   90.00000000
_cell_angle_gamma   90.00000000
_symmetry_Int_Tables_number   1
_chemical_formula_structural   NdMnO3
_chemical_formula_sum   'Nd4 Mn4 O12'
_cell_volume   245.81178103
_cell_formula_units_Z   4
loop_
 _symmetry_equiv_pos_site_id
 _symmetry_equiv_pos_as_xyz
  1  'x, y, z'
loop_
 _atom_site_type_symbol
 _atom_site_label
 _atom_site_symmetry_multiplicity
 _atom_site_fract_x
 _atom_site_fract_y
 _atom_site_fract_z
 _atom_site_occupancy
  Nd  Nd0  1  0.48436000  0.55262400  0.24849500  1
  Nd  Nd1  1  0.98436000  0.94737600  0.75150500  1
  Nd  Nd2  1  0.51564000  0.44737600  0.75150500  1
  Nd  Nd3  1  0.01564000  0.05262400  0.24849500  1
  Mn  Mn0  1  0.00000000  0.50000000  0.00000000  1
  Mn  Mn1  1  0.50000000  0.00000000  0.00000000  1
  Mn  Mn2  1  0.00000000  0.50000000  0.50000000  1
  Mn  Mn3  1  0.50000000  0.00000000  0.50000000  1
  O  O0  1  0.59448600  0.97299800  0.24001500  1
  O  O1  1  0.09448600  0.52700200  0.75998500  1
  O  O2  1  0.40551400  0.02700200  0.75998500  1
  O  O3  1  0.90551400  0.47299800  0.24001500  1
  O  O4  1  0.21315900  0.79520900  0.05341300  1
  O  O5  1  0.71315900  0.70479100  0.94658700  1
  O  O6  1  0.78684100  0.20479100  0.94658700  1
  O  O7  1  0.28684100  0.29520900  0.05341300  1
  O  O8  1  0.28765400  0.28968100  0.45092900  1
  O  O9  1  0.78765400  0.21031900  0.54907100  1
  O  O10  1  0.71234600  0.71031900  0.54907100  1
  O  O11  1  0.21234600  0.78968100  0.45092900  1
loop_
_geom_bond_atom_site_label_1
_geom_bond_atom_site_label_2
_geom_bond_distance
_geom_bond_site_symmetry_2
Nd0 O3 2.360706 1_555
Nd0 O7 2.391885 1_555
Nd0 O8 2.427712 1_555
Nd0 O0 2.454569 1_555
Nd0 O4 2.538011 1_555
Nd0 O11 2.576289 1_555
Nd0 O5 2.823562 1_554
Nd0 O10 2.837099 1_555
Nd1 O2 2.360706 1_665
Nd1 O6 2.391885 1_565
Nd1 O9 2.427712 1_565
Nd1 O1 2.454569 1_655
Nd1 O5 2.538011 1_555
Nd1 O10 2.576289 1_555
Nd1 O4 2.823562 1_656
Nd1 O11 2.837099 1_655
Nd2 O1 2.360706 1_555
Nd2 O5 2.391885 1_555
Nd2 O10 2.427712 1_555
Nd2 O2 2.454569 1_555
Nd2 O6 2.538011 1_555
Nd2 O9 2.576289 1_555
Nd2 O7 2.823562 1_556
Nd2 O8 2.837099 1_555
Nd3 O0 2.360706 1_445
Nd3 O4 2.391885 1_545
Nd3 O11 2.427712 1_545
Nd3 O3 2.454569 1_455
Nd3 O7 2.538011 1_555
Nd3 O8 2.576289 1_555
Nd3 O6 2.823562 1_454
Nd3 O9 2.837099 1_455
Mn0 O1 1.970538 1_554
Mn0 O3 1.970538 1_455
Mn0 O5 1.999867 1_454
Mn0 O7 1.999867 1_555
Mn0 O4 2.087129 1_555
Mn0 O6 2.087129 1_454
Mn1 O0 1.970538 1_545
Mn1 O2 1.970538 1_554
Mn1 O4 1.999867 1_545
Mn1 O6 1.999867 1_554
Mn1 O5 2.087129 1_544
Mn1 O7 2.087129 1_555
Mn2 O8 2.019458 1_555
Mn2 O10 2.019458 1_455
Mn2 O9 2.046380 1_455
Mn2 O11 2.046380 1_555
Mn2 O1 2.125614 1_555
Mn2 O3 2.125614 1_455
Mn3 O9 2.019458 1_555
Mn3 O11 2.019458 1_545
Mn3 O10 2.046380 1_545
Mn3 O8 2.046380 1_555
Mn3 O2 2.125614 1_555
Mn3 O0 2.125614 1_545
