# generated using pymatgen
data_Mn4FeS5
_symmetry_space_group_name_H-M   'P 1'
_cell_length_a   14.77040727
_cell_length_b   14.77040727
_cell_length_c   14.77040717
_cell_angle_alpha   13.94807489
_cell_angle_beta   13.94807489
_cell_angle_gamma   13.94807807
_symmetry_Int_Tables_number   1
_chemical_formula_structural   Mn4FeS5
_chemical_formula_sum   'Mn4 Fe1 S5'
_cell_volume   162.94256930
_cell_formula_units_Z   1
loop_
 _symmetry_equiv_pos_site_id
 _symmetry_equiv_pos_as_xyz
  1  'x, y, z'
loop_
 _atom_site_type_symbol
 _atom_site_label
 _atom_site_symmetry_multiplicity
 _atom_site_fract_x
 _atom_site_fract_y
 _atom_site_fract_z
 _atom_site_occupancy
  Mn  Mn0  1  0.60152100  0.60152100  0.60152100  1
  Mn  Mn1  1  0.19986500  0.19986500  0.19986500  1
  Mn  Mn2  1  0.80013500  0.80013500  0.80013500  1
  Mn  Mn3  1  0.39847900  0.39847900  0.39847900  1
  Fe  Fe0  1  0.00000000  0.00000000  0.00000000  1
  S  S0  1  0.69889200  0.69889200  0.69889200  1
  S  S1  1  0.50000000  0.50000000  0.50000000  1
  S  S2  1  0.09989700  0.09989700  0.09989700  1
  S  S3  1  0.30110800  0.30110800  0.30110800  1
  S  S4  1  0.90010300  0.90010300  0.90010300  1
loop_
_geom_bond_atom_site_label_1
_geom_bond_atom_site_label_2
_geom_bond_distance
_geom_bond_site_symmetry_2
Mn0 S3 2.524787 1_556
Mn0 S3 2.524788 1_565
Mn0 S3 2.524788 1_655
Mn0 S4 2.571587 1_554
Mn0 S4 2.571587 1_545
Mn0 S4 2.571587 1_455
Mn1 S1 2.531784 1_554
Mn1 S1 2.531785 1_455
Mn1 S1 2.531785 1_545
Mn1 S4 2.541234 1_445
Mn1 S4 2.541235 1_454
Mn1 S4 2.541235 1_544
Mn2 S1 2.531784 1_556
Mn2 S1 2.531785 1_565
Mn2 S1 2.531785 1_655
Mn2 S2 2.541234 1_665
Mn2 S2 2.541235 1_566
Mn2 S2 2.541235 1_656
Mn3 S0 2.524787 1_554
Mn3 S0 2.524788 1_545
Mn3 S0 2.524788 1_455
Mn3 S2 2.571587 1_556
Mn3 S2 2.571587 1_655
Mn3 S2 2.571587 1_565
Fe0 S0 2.507469 1_445
Fe0 S3 2.507469 1_554
Fe0 S0 2.507469 1_544
Fe0 S0 2.507469 1_454
Fe0 S3 2.507469 1_455
Fe0 S3 2.507469 1_545
