# generated using pymatgen
data_KNa2P3H7N3O8
_symmetry_space_group_name_H-M   'P 1'
_cell_length_a   8.08767175
_cell_length_b   8.18121799
_cell_length_c   8.65875015
_cell_angle_alpha   75.22170072
_cell_angle_beta   82.26117237
_cell_angle_gamma   76.03037585
_symmetry_Int_Tables_number   1
_chemical_formula_structural   KNa2P3H7N3O8
_chemical_formula_sum   'K2 Na4 P6 H14 N6 O16'
_cell_volume   535.95402960
_cell_formula_units_Z   2
loop_
 _symmetry_equiv_pos_site_id
 _symmetry_equiv_pos_as_xyz
  1  'x, y, z'
loop_
 _atom_site_type_symbol
 _atom_site_label
 _atom_site_symmetry_multiplicity
 _atom_site_fract_x
 _atom_site_fract_y
 _atom_site_fract_z
 _atom_site_occupancy
  K  K0  1  0.63643000  0.70278000  0.44267600  1
  K  K1  1  0.36357000  0.29722000  0.55732400  1
  Na  Na0  1  0.93092700  0.98651300  0.33983200  1
  Na  Na1  1  0.06907300  0.01348700  0.66016800  1
  Na  Na2  1  0.14640100  0.15600900  0.99068300  1
  Na  Na3  1  0.85359900  0.84399100  0.00931700  1
  P  P0  1  0.25293300  0.71281200  0.15422300  1
  P  P1  1  0.74706700  0.28718800  0.84577700  1
  P  P2  1  0.55817100  0.16071000  0.15455300  1
  P  P3  1  0.44182900  0.83929000  0.84544700  1
  P  P4  1  0.78773700  0.40759500  0.13273800  1
  P  P5  1  0.21226300  0.59240500  0.86726200  1
  H  H0  1  0.54090000  0.71551400  0.09318500  1
  H  H1  1  0.45910000  0.28448600  0.90681500  1
  H  H2  1  0.25264000  0.43447800  0.12711600  1
  H  H3  1  0.74736000  0.56552200  0.87288400  1
  H  H4  1  0.51163500  0.41714000  0.22950400  1
  H  H5  1  0.48836500  0.58286000  0.77049600  1
  H  H6  1  0.97755200  0.70173400  0.63079000  1
  H  H7  1  0.02244800  0.29826600  0.36921000  1
  H  H8  1  0.06341100  0.63784900  0.47670000  1
  H  H9  1  0.93658900  0.36215100  0.52330000  1
  H  H10  1  0.25815200  0.83484800  0.40049900  1
  H  H11  1  0.74184800  0.16515200  0.59950100  1
  H  H12  1  0.28123300  0.02927300  0.34344200  1
  H  H13  1  0.71876700  0.97072700  0.65655800  1
  N  N0  1  0.42483900  0.78281200  0.04813600  1
  N  N1  1  0.57516100  0.21718800  0.95186400  1
  N  N2  1  0.21677600  0.56231200  0.06787600  1
  N  N3  1  0.78322400  0.43768800  0.93212400  1
  N  N4  1  0.61606300  0.31986300  0.21731800  1
  N  N5  1  0.38393700  0.68013700  0.78268200  1
  O  O0  1  0.10107000  0.86419600  0.13273200  1
  O  O1  1  0.89893000  0.13580400  0.86726800  1
  O  O2  1  0.68428300  0.99224000  0.21037700  1
  O  O3  1  0.31571700  0.00776000  0.78962300  1
  O  O4  1  0.30469800  0.62492300  0.32378700  1
  O  O5  1  0.69530200  0.37507700  0.67621300  1
  O  O6  1  0.94686100  0.27332100  0.18780800  1
  O  O7  1  0.05313900  0.72667900  0.81219200  1
  O  O8  1  0.75499900  0.58449600  0.16924600  1
  O  O9  1  0.24500100  0.41550400  0.83075400  1
  O  O10  1  0.36909000  0.17634600  0.20631400  1
  O  O11  1  0.63091000  0.82365400  0.79368600  1
  O  O12  1  0.95420800  0.69476600  0.52323500  1
  O  O13  1  0.04579200  0.30523400  0.47676500  1
  O  O14  1  0.22604500  0.94766900  0.42962300  1
  O  O15  1  0.77395500  0.05233100  0.57037700  1
loop_
_geom_bond_atom_site_label_1
_geom_bond_atom_site_label_2
_geom_bond_distance
_geom_bond_site_symmetry_2
K0 O12 2.733920 1_555
K0 O8 2.751496 1_555
K0 O2 2.757982 1_555
K0 O5 2.894957 1_555
K1 O13 2.733920 1_555
K1 O9 2.751496 1_555
K1 O3 2.757982 1_555
K1 O4 2.894957 1_555
Na0 O15 2.328608 1_565
Na0 O0 2.386771 1_655
Na0 O2 2.401676 1_555
Na0 O6 2.404102 1_565
Na0 O12 2.486803 1_555
Na0 O14 2.531770 1_655
Na1 O14 2.328608 1_545
Na1 O1 2.386771 1_455
Na1 O3 2.401676 1_555
Na1 O7 2.404102 1_545
Na1 O13 2.486803 1_555
Na1 O15 2.531770 1_455
Na2 O6 2.405192 1_456
Na2 O1 2.449693 1_455
Na2 O3 2.451593 1_555
Na2 O9 2.465926 1_555
Na2 O0 2.479911 1_546
Na2 O10 2.822454 1_556
Na3 O7 2.405192 1_654
Na3 O0 2.449693 1_655
Na3 O2 2.451593 1_555
Na3 O8 2.465926 1_555
Na3 O1 2.479911 1_564
Na3 O11 2.822454 1_554
H0 N0 1.037256 1_555
H1 N1 1.037256 1_555
H2 N2 1.030024 1_555
H3 N3 1.030024 1_555
H4 N4 1.025734 1_555
H5 N5 1.025734 1_555
H6 O12 0.992891 1_555
H7 O13 0.992891 1_555
H8 O12 0.980072 1_455
H9 O13 0.980072 1_655
H10 O14 0.984056 1_555
H11 O15 0.984056 1_555
H12 O14 1.000898 1_545
H13 O15 1.000898 1_565
N0 P3 1.692491 1_554
N0 P0 1.696128 1_555
N1 P2 1.692491 1_556
N1 P1 1.696128 1_555
N2 P0 1.692010 1_555
N2 P5 1.695260 1_554
N3 P1 1.692010 1_555
N3 P4 1.695260 1_556
N4 P4 1.708342 1_555
N4 P2 1.712842 1_555
N5 P5 1.708342 1_555
N5 P3 1.712842 1_555
O0 P0 1.512146 1_555
O1 P1 1.512146 1_555
O2 P2 1.512544 1_565
O3 P3 1.512544 1_545
O4 P0 1.526291 1_555
O5 P1 1.526291 1_555
O6 P4 1.518492 1_555
O7 P5 1.518492 1_555
O8 P4 1.513424 1_555
O9 P5 1.513424 1_555
O10 P2 1.518546 1_555
O11 P3 1.518546 1_555
