# generated using pymatgen
data_Eu2Mo(WO6)2
_symmetry_space_group_name_H-M   'P 1'
_cell_length_a   7.09440693
_cell_length_b   7.09440693
_cell_length_c   11.62932436
_cell_angle_alpha   79.27045623
_cell_angle_beta   79.27045623
_cell_angle_gamma   111.80991218
_symmetry_Int_Tables_number   1
_chemical_formula_structural   Eu2Mo(WO6)2
_chemical_formula_sum   'Eu4 Mo2 W4 O24'
_cell_volume   512.57034350
_cell_formula_units_Z   2
loop_
 _symmetry_equiv_pos_site_id
 _symmetry_equiv_pos_as_xyz
  1  'x, y, z'
loop_
 _atom_site_type_symbol
 _atom_site_label
 _atom_site_symmetry_multiplicity
 _atom_site_fract_x
 _atom_site_fract_y
 _atom_site_fract_z
 _atom_site_occupancy
  Eu  Eu0  1  0.19311900  0.44435900  0.09487600  1
  Eu  Eu1  1  0.55564100  0.80688100  0.40512400  1
  Eu  Eu2  1  0.80688100  0.55564100  0.90512400  1
  Eu  Eu3  1  0.44435900  0.19311900  0.59487600  1
  Mo  Mo0  1  0.62023100  0.37976900  0.25000000  1
  Mo  Mo1  1  0.37976900  0.62023100  0.75000000  1
  W  W0  1  0.00662600  0.29867900  0.45389900  1
  W  W1  1  0.70132100  0.99337400  0.04610100  1
  W  W2  1  0.99337400  0.70132100  0.54610100  1
  W  W3  1  0.29867900  0.00662600  0.95389900  1
  O  O0  1  0.51487200  0.09956800  0.27874600  1
  O  O1  1  0.90043200  0.48512800  0.22125400  1
  O  O2  1  0.48512800  0.90043200  0.72125400  1
  O  O3  1  0.09956800  0.51487200  0.77874600  1
  O  O4  1  0.89576300  0.82749100  0.43933900  1
  O  O5  1  0.17250900  0.10423700  0.06066100  1
  O  O6  1  0.10423700  0.17250900  0.56066100  1
  O  O7  1  0.82749100  0.89576300  0.93933900  1
  O  O8  1  0.72495500  0.12688200  0.46182800  1
  O  O9  1  0.87311800  0.27504500  0.03817200  1
  O  O10  1  0.27504500  0.87311800  0.53817200  1
  O  O11  1  0.12688200  0.72495500  0.96182800  1
  O  O12  1  0.40090000  0.82651400  0.07455300  1
  O  O13  1  0.17348600  0.59910000  0.42544700  1
  O  O14  1  0.59910000  0.17348600  0.92544700  1
  O  O15  1  0.82651400  0.40090000  0.57455300  1
  O  O16  1  0.55511200  0.47617800  0.11271300  1
  O  O17  1  0.52382200  0.44488800  0.38728700  1
  O  O18  1  0.44488800  0.52382200  0.88728700  1
  O  O19  1  0.47617800  0.55511200  0.61271300  1
  O  O20  1  0.14043900  0.29265100  0.30516800  1
  O  O21  1  0.70734900  0.85956100  0.19483200  1
  O  O22  1  0.85956100  0.70734900  0.69483200  1
  O  O23  1  0.29265100  0.14043900  0.80516800  1
loop_
_geom_bond_atom_site_label_1
_geom_bond_atom_site_label_2
_geom_bond_distance
_geom_bond_site_symmetry_2
Eu0 O20 2.378976 1_555
Eu0 O9 2.420259 1_455
Eu0 O1 2.454280 1_455
Eu0 O5 2.473680 1_555
Eu0 O12 2.498252 1_555
Eu0 O11 2.529133 1_554
Eu0 O16 2.544460 1_555
Eu0 O18 2.544723 1_554
Eu1 O21 2.378976 1_555
Eu1 O8 2.420259 1_565
Eu1 O0 2.454280 1_565
Eu1 O4 2.473680 1_555
Eu1 O13 2.498252 1_555
Eu1 O10 2.529133 1_555
Eu1 O17 2.544460 1_555
Eu1 O19 2.544723 1_555
Eu2 O22 2.378976 1_555
Eu2 O11 2.420259 1_655
Eu2 O3 2.454280 1_655
Eu2 O7 2.473680 1_555
Eu2 O14 2.498252 1_555
Eu2 O9 2.529133 1_556
Eu2 O18 2.544460 1_555
Eu2 O16 2.544723 1_556
Eu3 O23 2.378976 1_555
Eu3 O10 2.420259 1_545
Eu3 O2 2.454280 1_545
Eu3 O6 2.473680 1_555
Eu3 O15 2.498252 1_555
Eu3 O8 2.529133 1_555
Eu3 O19 2.544460 1_555
Eu3 O17 2.544723 1_555
Mo0 O1 1.782552 1_555
Mo0 O0 1.782552 1_555
Mo0 O17 1.825664 1_555
Mo0 O16 1.825664 1_555
Mo1 O2 1.782552 1_555
Mo1 O3 1.782552 1_555
Mo1 O18 1.825664 1_555
Mo1 O19 1.825664 1_555
O4 W2 1.785824 1_555
O5 W3 1.785824 1_554
O6 W0 1.785824 1_555
O7 W1 1.785824 1_556
O8 W0 1.888637 1_655
O9 W1 1.888637 1_545
O10 W2 1.888637 1_455
O11 W3 1.888637 1_565
O12 W1 1.941683 1_555
O12 W3 2.127737 1_564
O13 W0 1.941683 1_555
O13 W2 2.127737 1_455
O14 W3 1.941683 1_555
O14 W1 2.127737 1_546
O15 W2 1.941683 1_555
O15 W0 2.127737 1_655
O20 W0 1.827846 1_555
O21 W1 1.827846 1_555
O22 W2 1.827846 1_555
O23 W3 1.827846 1_555
