# generated using pymatgen
data_Sm2Ni17
_symmetry_space_group_name_H-M   'P 1'
_cell_length_a   8.30806358
_cell_length_b   8.30806358
_cell_length_c   8.04198100
_cell_angle_alpha   90.00000000
_cell_angle_beta   90.00000000
_cell_angle_gamma   119.99999669
_symmetry_Int_Tables_number   1
_chemical_formula_structural   Sm2Ni17
_chemical_formula_sum   'Sm4 Ni34'
_cell_volume   480.72124107
_cell_formula_units_Z   2
loop_
 _symmetry_equiv_pos_site_id
 _symmetry_equiv_pos_as_xyz
  1  'x, y, z'
loop_
 _atom_site_type_symbol
 _atom_site_label
 _atom_site_symmetry_multiplicity
 _atom_site_fract_x
 _atom_site_fract_y
 _atom_site_fract_z
 _atom_site_occupancy
  Sm  Sm0  1  0.00000000  0.00000000  0.25000000  1
  Sm  Sm1  1  0.00000000  0.00000000  0.75000000  1
  Sm  Sm2  1  0.33333300  0.66666700  0.75000000  1
  Sm  Sm3  1  0.66666700  0.33333300  0.25000000  1
  Ni  Ni0  1  0.33333300  0.66666700  0.39589500  1
  Ni  Ni1  1  0.66666700  0.33333300  0.60410500  1
  Ni  Ni2  1  0.66666700  0.33333300  0.89589500  1
  Ni  Ni3  1  0.33333300  0.66666700  0.10410500  1
  Ni  Ni4  1  0.50000000  0.50000000  0.50000000  1
  Ni  Ni5  1  0.50000000  0.00000000  0.50000000  1
  Ni  Ni6  1  0.00000000  0.50000000  0.50000000  1
  Ni  Ni7  1  0.50000000  0.50000000  0.00000000  1
  Ni  Ni8  1  0.50000000  0.00000000  0.00000000  1
  Ni  Ni9  1  0.00000000  0.50000000  0.00000000  1
  Ni  Ni10  1  0.32842300  0.36990200  0.25000000  1
  Ni  Ni11  1  0.63009800  0.95852100  0.25000000  1
  Ni  Ni12  1  0.04147900  0.67157700  0.25000000  1
  Ni  Ni13  1  0.63009800  0.67157700  0.25000000  1
  Ni  Ni14  1  0.04147900  0.36990200  0.25000000  1
  Ni  Ni15  1  0.32842300  0.95852100  0.25000000  1
  Ni  Ni16  1  0.67157700  0.63009800  0.75000000  1
  Ni  Ni17  1  0.36990200  0.04147900  0.75000000  1
  Ni  Ni18  1  0.95852100  0.32842300  0.75000000  1
  Ni  Ni19  1  0.36990200  0.32842300  0.75000000  1
  Ni  Ni20  1  0.95852100  0.63009800  0.75000000  1
  Ni  Ni21  1  0.67157700  0.04147900  0.75000000  1
  Ni  Ni22  1  0.16610000  0.83390000  0.51664800  1
  Ni  Ni23  1  0.16610000  0.33220000  0.51664800  1
  Ni  Ni24  1  0.66780000  0.83390000  0.51664800  1
  Ni  Ni25  1  0.83390000  0.16610000  0.48335200  1
  Ni  Ni26  1  0.83390000  0.66780000  0.48335200  1
  Ni  Ni27  1  0.33220000  0.16610000  0.48335200  1
  Ni  Ni28  1  0.83390000  0.16610000  0.01664800  1
  Ni  Ni29  1  0.83390000  0.66780000  0.01664800  1
  Ni  Ni30  1  0.33220000  0.16610000  0.01664800  1
  Ni  Ni31  1  0.16610000  0.83390000  0.98335200  1
  Ni  Ni32  1  0.16610000  0.33220000  0.98335200  1
  Ni  Ni33  1  0.66780000  0.83390000  0.98335200  1
loop_
_geom_bond_atom_site_label_1
_geom_bond_atom_site_label_2
_geom_bond_distance
_geom_bond_site_symmetry_2
Ni0 Ni3 2.346570 1_555
Ni0 Ni5 2.540257 1_565
Ni0 Ni6 2.540257 1_555
Ni0 Ni4 2.540263 1_555
Ni0 Ni22 2.595028 1_555
Ni0 Ni23 2.595035 1_555
Ni0 Ni24 2.595035 1_555
Ni0 Ni15 2.712295 1_555
Ni0 Ni12 2.712295 1_555
Ni0 Ni11 2.712299 1_555
Ni0 Ni14 2.712299 1_555
Ni0 Ni13 2.712303 1_555
Ni0 Ni10 2.712303 1_555
Ni0 Sm2 2.847706 1_555
Ni1 Ni2 2.346570 1_555
Ni1 Ni6 2.540257 1_655
Ni1 Ni5 2.540257 1_555
Ni1 Ni4 2.540263 1_555
Ni1 Ni25 2.595028 1_555
Ni1 Ni27 2.595035 1_555
Ni1 Ni26 2.595035 1_555
Ni1 Ni18 2.712295 1_555
Ni1 Ni21 2.712295 1_555
Ni1 Ni20 2.712299 1_555
Ni1 Ni17 2.712299 1_555
Ni1 Ni16 2.712303 1_555
Ni1 Ni19 2.712303 1_555
Ni1 Sm3 2.847706 1_555
Ni2 Ni9 2.540257 1_656
Ni2 Ni8 2.540257 1_556
Ni2 Ni7 2.540263 1_556
Ni2 Ni28 2.595028 1_556
Ni2 Ni30 2.595035 1_556
Ni2 Ni29 2.595035 1_556
Ni2 Ni21 2.712295 1_555
Ni2 Ni20 2.712299 1_555
Ni2 Sm3 2.847706 1_556
Ni3 Ni8 2.540257 1_565
Ni3 Ni9 2.540257 1_555
Ni3 Ni7 2.540263 1_555
Ni3 Ni31 2.595028 1_554
Ni3 Ni32 2.595035 1_554
Ni3 Ni33 2.595035 1_554
Ni3 Sm2 2.847706 1_554
Ni4 Sm2 3.129554 1_555
Ni4 Sm3 3.129554 1_555
Ni5 Sm3 3.129548 1_555
Ni5 Sm2 3.129548 1_545
Ni6 Sm3 3.129548 1_455
Ni6 Sm2 3.129548 1_555
Ni7 Sm2 3.129554 1_554
Ni7 Sm3 3.129554 1_555
Ni8 Sm3 3.129548 1_555
Ni8 Sm2 3.129548 1_544
Ni9 Sm3 3.129548 1_455
Ni9 Sm2 3.129548 1_554
Ni10 Ni14 2.383949 1_555
Ni10 Ni7 2.387800 1_555
Ni10 Ni4 2.387800 1_555
Ni10 Ni23 2.468349 1_555
Ni10 Ni32 2.468349 1_554
Ni10 Ni13 2.506335 1_555
Ni10 Ni30 2.538251 1_555
Ni10 Ni27 2.538251 1_555
Ni10 Ni3 2.712303 1_555
Ni10 Sm0 2.916176 1_555
Ni10 Sm3 2.973724 1_555
Ni11 Ni13 2.383949 1_555
Ni11 Ni5 2.387800 1_565
Ni11 Ni8 2.387800 1_565
Ni11 Ni24 2.468349 1_555
Ni11 Ni33 2.468349 1_554
Ni11 Ni15 2.506335 1_555
Ni11 Ni28 2.538251 1_565
Ni11 Ni25 2.538251 1_565
Ni11 Ni3 2.712299 1_555
Ni11 Sm0 2.916176 1_665
Ni11 Sm3 2.973716 1_565
Ni12 Ni15 2.383949 1_555
Ni12 Ni6 2.387800 1_555
Ni12 Ni9 2.387800 1_555
Ni12 Ni31 2.468349 1_554
Ni12 Ni22 2.468349 1_555
Ni12 Ni14 2.506335 1_555
Ni12 Ni29 2.538251 1_455
Ni12 Ni26 2.538251 1_455
Ni12 Ni3 2.712295 1_555
Ni12 Sm0 2.916176 1_565
Ni12 Sm3 2.973720 1_455
Ni13 Ni7 2.387800 1_555
Ni13 Ni4 2.387800 1_555
Ni13 Ni24 2.468349 1_555
Ni13 Ni33 2.468349 1_554
Ni13 Ni29 2.538251 1_555
Ni13 Ni26 2.538251 1_555
Ni13 Ni3 2.712303 1_555
Ni13 Sm0 2.916176 1_665
Ni13 Sm3 2.973724 1_555
Ni14 Ni6 2.387800 1_555
Ni14 Ni9 2.387800 1_555
Ni14 Ni32 2.468349 1_554
Ni14 Ni23 2.468349 1_555
Ni14 Ni28 2.538251 1_455
Ni14 Ni25 2.538251 1_455
Ni14 Ni3 2.712299 1_555
Ni14 Sm0 2.916176 1_555
Ni14 Sm3 2.973716 1_455
Ni15 Ni8 2.387800 1_565
Ni15 Ni5 2.387800 1_565
Ni15 Ni31 2.468349 1_554
Ni15 Ni22 2.468349 1_555
Ni15 Ni27 2.538251 1_565
Ni15 Ni30 2.538251 1_565
Ni15 Ni3 2.712295 1_555
Ni15 Sm0 2.916176 1_565
Ni15 Sm3 2.973720 1_565
Ni16 Ni20 2.383949 1_555
Ni16 Ni7 2.387800 1_556
Ni16 Ni4 2.387800 1_555
Ni16 Ni26 2.468349 1_555
Ni16 Ni29 2.468349 1_556
Ni16 Ni19 2.506335 1_555
Ni16 Ni24 2.538251 1_555
Ni16 Ni33 2.538251 1_555
Ni16 Ni2 2.712303 1_555
Ni16 Sm1 2.916176 1_665
Ni16 Sm2 2.973724 1_555
Ni17 Ni19 2.383949 1_555
Ni17 Ni8 2.387800 1_556
Ni17 Ni5 2.387800 1_555
Ni17 Ni30 2.468349 1_556
Ni17 Ni27 2.468349 1_555
Ni17 Ni21 2.506335 1_555
Ni17 Ni31 2.538251 1_545
Ni17 Ni22 2.538251 1_545
Ni17 Ni2 2.712299 1_555
Ni17 Sm1 2.916176 1_555
Ni17 Sm2 2.973716 1_545
Ni18 Ni21 2.383949 1_555
Ni18 Ni6 2.387800 1_655
Ni18 Ni9 2.387800 1_656
Ni18 Ni28 2.468349 1_556
Ni18 Ni25 2.468349 1_555
Ni18 Ni20 2.506335 1_555
Ni18 Ni23 2.538251 1_655
Ni18 Ni32 2.538251 1_655
Ni18 Ni2 2.712295 1_555
Ni18 Sm1 2.916176 1_655
Ni18 Sm2 2.973720 1_655
Ni19 Ni7 2.387800 1_556
Ni19 Ni4 2.387800 1_555
Ni19 Ni30 2.468349 1_556
Ni19 Ni27 2.468349 1_555
Ni19 Ni23 2.538251 1_555
Ni19 Ni32 2.538251 1_555
Ni19 Ni2 2.712303 1_555
Ni19 Sm1 2.916176 1_555
Ni19 Sm2 2.973724 1_555
Ni20 Ni6 2.387800 1_655
Ni20 Ni9 2.387800 1_656
Ni20 Ni29 2.468349 1_556
Ni20 Ni26 2.468349 1_555
Ni20 Ni22 2.538251 1_655
Ni20 Ni31 2.538251 1_655
Ni20 Sm1 2.916176 1_665
Ni20 Sm2 2.973716 1_655
Ni21 Ni8 2.387800 1_556
Ni21 Ni5 2.387800 1_555
Ni21 Ni28 2.468349 1_556
Ni21 Ni25 2.468349 1_555
Ni21 Ni33 2.538251 1_545
Ni21 Ni24 2.538251 1_545
Ni21 Sm1 2.916176 1_655
Ni21 Sm2 2.973720 1_545
Ni22 Ni27 2.405129 1_565
Ni22 Ni26 2.405129 1_455
Ni22 Ni5 2.406147 1_565
Ni22 Ni6 2.406147 1_555
Ni22 Sm1 3.038852 1_565
Ni22 Sm2 3.051692 1_555
Ni22 Sm0 3.211122 1_565
Ni23 Ni27 2.405129 1_555
Ni23 Ni25 2.405129 1_455
Ni23 Ni6 2.406147 1_555
Ni23 Ni4 2.406147 1_555
Ni23 Sm1 3.038852 1_555
Ni23 Sm2 3.051698 1_555
Ni23 Sm0 3.211122 1_555
Ni24 Ni26 2.405129 1_555
Ni24 Ni25 2.405129 1_565
Ni24 Ni5 2.406147 1_565
Ni24 Ni4 2.406147 1_555
Ni24 Sm1 3.038852 1_665
Ni24 Sm2 3.051698 1_555
Ni24 Sm0 3.211122 1_665
Ni25 Ni6 2.406147 1_655
Ni25 Ni5 2.406147 1_555
Ni25 Sm0 3.038852 1_655
Ni25 Sm3 3.051692 1_555
Ni25 Sm1 3.211122 1_655
Ni26 Ni6 2.406147 1_655
Ni26 Ni4 2.406147 1_555
Ni26 Sm0 3.038852 1_665
Ni26 Sm3 3.051698 1_555
Ni26 Sm1 3.211122 1_665
Ni27 Ni5 2.406147 1_555
Ni27 Ni4 2.406147 1_555
Ni27 Sm0 3.038852 1_555
Ni27 Sm3 3.051698 1_555
Ni27 Sm1 3.211122 1_555
Ni28 Ni32 2.405129 1_654
Ni28 Ni33 2.405129 1_544
Ni28 Ni9 2.406147 1_655
Ni28 Ni8 2.406147 1_555
Ni28 Sm0 3.038852 1_655
Ni28 Sm3 3.051692 1_555
Ni28 Sm1 3.211122 1_654
Ni29 Ni33 2.405129 1_554
Ni29 Ni31 2.405129 1_654
Ni29 Ni9 2.406147 1_655
Ni29 Ni7 2.406147 1_555
Ni29 Sm0 3.038852 1_665
Ni29 Sm3 3.051698 1_555
Ni29 Sm1 3.211122 1_664
Ni30 Ni32 2.405129 1_554
Ni30 Ni31 2.405129 1_544
Ni30 Ni8 2.406147 1_555
Ni30 Ni7 2.406147 1_555
Ni30 Sm0 3.038852 1_555
Ni30 Sm3 3.051698 1_555
Ni30 Sm1 3.211122 1_554
Ni31 Ni8 2.406147 1_566
Ni31 Ni9 2.406147 1_556
Ni31 Sm1 3.038852 1_565
Ni31 Sm2 3.051692 1_555
Ni31 Sm0 3.211122 1_566
Ni32 Ni9 2.406147 1_556
Ni32 Ni7 2.406147 1_556
Ni32 Sm1 3.038852 1_555
Ni32 Sm2 3.051698 1_555
Ni32 Sm0 3.211122 1_556
Ni33 Ni8 2.406147 1_566
Ni33 Ni7 2.406147 1_556
Ni33 Sm1 3.038852 1_665
Ni33 Sm2 3.051698 1_555
Ni33 Sm0 3.211122 1_666
