# generated using pymatgen
data_CoH2PbN3O8
_symmetry_space_group_name_H-M   'P 1'
_cell_length_a   8.74864743
_cell_length_b   8.74864743
_cell_length_c   14.03074699
_cell_angle_alpha   64.30896660
_cell_angle_beta   64.30896660
_cell_angle_gamma   49.83008313
_symmetry_Int_Tables_number   1
_chemical_formula_structural   CoH2PbN3O8
_chemical_formula_sum   'Co4 H8 Pb4 N12 O32'
_cell_volume   720.78199964
_cell_formula_units_Z   4
loop_
 _symmetry_equiv_pos_site_id
 _symmetry_equiv_pos_as_xyz
  1  'x, y, z'
loop_
 _atom_site_type_symbol
 _atom_site_label
 _atom_site_symmetry_multiplicity
 _atom_site_fract_x
 _atom_site_fract_y
 _atom_site_fract_z
 _atom_site_occupancy
  Co  Co0  1  0.59335400  0.59849700  0.25166300  1
  Co  Co1  1  0.40150300  0.40664600  0.24833700  1
  Co  Co2  1  0.40664600  0.40150300  0.74833700  1
  Co  Co3  1  0.59849700  0.59335400  0.75166300  1
  H  H0  1  0.47960200  0.65423500  0.09005200  1
  H  H1  1  0.34576500  0.52039800  0.40994800  1
  H  H2  1  0.52039800  0.34576500  0.90994800  1
  H  H3  1  0.65423500  0.47960200  0.59005200  1
  H  H4  1  0.97207400  0.32052700  0.23754000  1
  H  H5  1  0.67947300  0.02792600  0.26246000  1
  H  H6  1  0.02792600  0.67947300  0.76246000  1
  H  H7  1  0.32052700  0.97207400  0.73754000  1
  Pb  Pb0  1  0.88903200  0.24748100  0.08815500  1
  Pb  Pb1  1  0.75251900  0.11096800  0.41184500  1
  Pb  Pb2  1  0.11096800  0.75251900  0.91184500  1
  Pb  Pb3  1  0.24748100  0.88903200  0.58815500  1
  N  N0  1  0.73416900  0.71854900  0.14056600  1
  N  N1  1  0.28145100  0.26583100  0.35943400  1
  N  N2  1  0.26583100  0.28145100  0.85943400  1
  N  N3  1  0.71854900  0.73416900  0.64056600  1
  N  N4  1  0.63698800  0.60854100  0.37091400  1
  N  N5  1  0.39145900  0.36301200  0.12908600  1
  N  N6  1  0.36301200  0.39145900  0.62908600  1
  N  N7  1  0.60854100  0.63698800  0.87091400  1
  N  N8  1  0.33262100  0.85846400  0.25379500  1
  N  N9  1  0.14153600  0.66737900  0.24620500  1
  N  N10  1  0.66737900  0.14153600  0.74620500  1
  N  N11  1  0.85846400  0.33262100  0.75379500  1
  O  O0  1  0.54727500  0.54006000  0.14857200  1
  O  O1  1  0.45994000  0.45272500  0.35142800  1
  O  O2  1  0.45272500  0.45994000  0.85142800  1
  O  O3  1  0.54006000  0.54727500  0.64857200  1
  O  O4  1  0.85273500  0.32649700  0.24338900  1
  O  O5  1  0.67350300  0.14726500  0.25661100  1
  O  O6  1  0.14726500  0.67350300  0.75661100  1
  O  O7  1  0.32649700  0.85273500  0.74338900  1
  O  O8  1  0.82898500  0.64821900  0.05663900  1
  O  O9  1  0.35178100  0.17101500  0.44336100  1
  O  O10  1  0.17101500  0.35178100  0.94336100  1
  O  O11  1  0.64821900  0.82898500  0.55663900  1
  O  O12  1  0.73463800  0.85368300  0.14761300  1
  O  O13  1  0.14631700  0.26536200  0.35238700  1
  O  O14  1  0.26536200  0.14631700  0.85238700  1
  O  O15  1  0.85368300  0.73463800  0.64761300  1
  O  O16  1  0.57815300  0.77072000  0.38524400  1
  O  O17  1  0.22928000  0.42184700  0.11475600  1
  O  O18  1  0.42184700  0.22928000  0.61475600  1
  O  O19  1  0.77072000  0.57815300  0.88524400  1
  O  O20  1  0.71335000  0.44355700  0.44021100  1
  O  O21  1  0.55644300  0.28665000  0.05978900  1
  O  O22  1  0.28665000  0.55644300  0.55978900  1
  O  O23  1  0.44355700  0.71335000  0.94021100  1
  O  O24  1  0.20446200  0.89181700  0.34189700  1
  O  O25  1  0.10818300  0.79553800  0.15810300  1
  O  O26  1  0.79553800  0.10818300  0.65810300  1
  O  O27  1  0.89181700  0.20446200  0.84189700  1
  O  O28  1  0.29166100  0.98242300  0.16601500  1
  O  O29  1  0.01757700  0.70833900  0.33398500  1
  O  O30  1  0.70833900  0.01757700  0.83398500  1
  O  O31  1  0.98242300  0.29166100  0.66601500  1
loop_
_geom_bond_atom_site_label_1
_geom_bond_atom_site_label_2
_geom_bond_distance
_geom_bond_site_symmetry_2
Co0 N0 1.906666 1_555
Co0 N4 1.917686 1_555
Co0 N8 1.919277 1_555
Co0 O4 1.967263 1_555
Co0 O1 1.975889 1_555
Co0 O0 1.982096 1_555
Co1 N1 1.906666 1_555
Co1 N5 1.917686 1_555
Co1 N9 1.919277 1_555
Co1 O5 1.967263 1_555
Co1 O0 1.975889 1_555
Co1 O1 1.982096 1_555
Co2 N2 1.906666 1_555
Co2 N6 1.917686 1_555
Co2 N10 1.919277 1_555
Co2 O6 1.967263 1_555
Co2 O3 1.975889 1_555
Co2 O2 1.982096 1_555
Co3 N3 1.906666 1_555
Co3 N7 1.917686 1_555
Co3 N11 1.919277 1_555
Co3 O7 1.967263 1_555
Co3 O2 1.975889 1_555
Co3 O3 1.982096 1_555
H0 O0 0.984821 1_555
H1 O1 0.984821 1_555
H2 O2 0.984821 1_555
H3 O3 0.984821 1_555
H4 O4 0.979076 1_555
H5 O5 0.979076 1_555
H6 O6 0.979076 1_555
H7 O7 0.979076 1_555
N0 O12 1.231034 1_555
N0 O8 1.255444 1_555
N1 O13 1.231034 1_555
N1 O9 1.255444 1_555
N2 O14 1.231034 1_555
N2 O10 1.255444 1_555
N3 O15 1.231034 1_555
N3 O11 1.255444 1_555
N4 O16 1.238513 1_555
N4 O20 1.255943 1_555
N5 O17 1.238513 1_555
N5 O21 1.255943 1_555
N6 O18 1.238513 1_555
N6 O22 1.255943 1_555
N7 O19 1.238513 1_555
N7 O23 1.255943 1_555
N8 O28 1.242827 1_555
N8 O24 1.248708 1_555
N9 O29 1.242827 1_555
N9 O25 1.248708 1_555
N10 O30 1.242827 1_555
N10 O26 1.248708 1_555
N11 O31 1.242827 1_555
N11 O27 1.248708 1_555
O0 Pb0 2.453645 1_555
O1 Pb1 2.453645 1_555
O2 Pb2 2.453645 1_555
O3 Pb3 2.453645 1_555
O4 Pb0 2.396911 1_555
O4 Pb1 2.526367 1_555
O5 Pb1 2.396911 1_555
O5 Pb0 2.526367 1_555
O6 Pb2 2.396911 1_555
O6 Pb3 2.526367 1_555
O7 Pb3 2.396911 1_555
O7 Pb2 2.526367 1_555
