# generated using pymatgen
data_K2NaAl3F12
_symmetry_space_group_name_H-M   'P 1'
_cell_length_a   6.93491208
_cell_length_b   11.06089575
_cell_length_c   11.78755574
_cell_angle_alpha   90.00000000
_cell_angle_beta   90.00000000
_cell_angle_gamma   90.00000000
_symmetry_Int_Tables_number   1
_chemical_formula_structural   K2NaAl3F12
_chemical_formula_sum   'K8 Na4 Al12 F48'
_cell_volume   904.18025308
_cell_formula_units_Z   4
loop_
 _symmetry_equiv_pos_site_id
 _symmetry_equiv_pos_as_xyz
  1  'x, y, z'
loop_
 _atom_site_type_symbol
 _atom_site_label
 _atom_site_symmetry_multiplicity
 _atom_site_fract_x
 _atom_site_fract_y
 _atom_site_fract_z
 _atom_site_occupancy
  K  K0  1  0.75000000  0.55824366  0.39374727  1
  K  K1  1  0.75000000  0.05824366  0.10625273  1
  K  K2  1  0.25000000  0.44175634  0.60625273  1
  K  K3  1  0.25000000  0.94175634  0.89374727  1
  K  K4  1  0.75000000  0.45741656  0.07551470  1
  K  K5  1  0.75000000  0.95741656  0.42448530  1
  K  K6  1  0.25000000  0.54258344  0.92448530  1
  K  K7  1  0.25000000  0.04258344  0.57551470  1
  Na  Na0  1  0.25000000  0.98676556  0.27519090  1
  Na  Na1  1  0.25000000  0.48676556  0.22480910  1
  Na  Na2  1  0.75000000  0.01323444  0.72480910  1
  Na  Na3  1  0.75000000  0.51323444  0.77519090  1
  Al  Al0  1  0.50020354  0.25378542  0.33036236  1
  Al  Al1  1  0.99979646  0.75378542  0.16963764  1
  Al  Al2  1  0.00020354  0.74621458  0.66963764  1
  Al  Al3  1  0.49979646  0.24621458  0.83036236  1
  Al  Al4  1  0.49979646  0.74621458  0.66963764  1
  Al  Al5  1  0.00020354  0.24621458  0.83036236  1
  Al  Al6  1  0.99979646  0.25378542  0.33036236  1
  Al  Al7  1  0.50020354  0.75378542  0.16963764  1
  Al  Al8  1  0.25000000  0.20106552  0.07968556  1
  Al  Al9  1  0.25000000  0.70106552  0.42031444  1
  Al  Al10  1  0.75000000  0.79893448  0.92031444  1
  Al  Al11  1  0.75000000  0.29893448  0.57968556  1
  F  F0  1  0.56169389  0.30831654  0.47142276  1
  F  F1  1  0.93830611  0.80831654  0.02857724  1
  F  F2  1  0.06169389  0.69168346  0.52857724  1
  F  F3  1  0.43830611  0.19168346  0.97142276  1
  F  F4  1  0.43830611  0.69168346  0.52857724  1
  F  F5  1  0.06169389  0.19168346  0.97142276  1
  F  F6  1  0.93830611  0.30831654  0.47142276  1
  F  F7  1  0.56169389  0.80831654  0.02857724  1
  F  F8  1  0.75000000  0.20828380  0.30327130  1
  F  F9  1  0.75000000  0.70828380  0.19672870  1
  F  F10  1  0.25000000  0.79171620  0.69672870  1
  F  F11  1  0.25000000  0.29171620  0.80327130  1
  F  F12  1  0.54351010  0.39808547  0.27326849  1
  F  F13  1  0.95648990  0.89808547  0.22673151  1
  F  F14  1  0.04351010  0.60191453  0.72673151  1
  F  F15  1  0.45648990  0.10191453  0.77326849  1
  F  F16  1  0.45648990  0.60191453  0.72673151  1
  F  F17  1  0.04351010  0.10191453  0.77326849  1
  F  F18  1  0.95648990  0.39808547  0.27326849  1
  F  F19  1  0.54351010  0.89808547  0.22673151  1
  F  F20  1  0.25000000  0.29636619  0.35388501  1
  F  F21  1  0.25000000  0.79636619  0.14611499  1
  F  F22  1  0.75000000  0.70363381  0.64611499  1
  F  F23  1  0.75000000  0.20363381  0.85388501  1
  F  F24  1  0.45414756  0.10810407  0.38356068  1
  F  F25  1  0.04585244  0.60810407  0.11643932  1
  F  F26  1  0.95414756  0.89189593  0.61643932  1
  F  F27  1  0.54585244  0.39189593  0.88356068  1
  F  F28  1  0.54585244  0.89189593  0.61643932  1
  F  F29  1  0.95414756  0.39189593  0.88356068  1
  F  F30  1  0.04585244  0.10810407  0.38356068  1
  F  F31  1  0.45414756  0.60810407  0.11643932  1
  F  F32  1  0.44042371  0.19912901  0.18779492  1
  F  F33  1  0.05957629  0.69912901  0.31220508  1
  F  F34  1  0.94042371  0.80087099  0.81220508  1
  F  F35  1  0.55957629  0.30087099  0.68779492  1
  F  F36  1  0.55957629  0.80087099  0.81220508  1
  F  F37  1  0.94042371  0.30087099  0.68779492  1
  F  F38  1  0.05957629  0.19912901  0.18779492  1
  F  F39  1  0.44042371  0.69912901  0.31220508  1
  F  F40  1  0.25000000  0.35826066  0.07691827  1
  F  F41  1  0.25000000  0.85826066  0.42308173  1
  F  F42  1  0.75000000  0.64173934  0.92308173  1
  F  F43  1  0.75000000  0.14173934  0.57691827  1
  F  F44  1  0.25000000  0.04286653  0.08787042  1
  F  F45  1  0.25000000  0.54286653  0.41212958  1
  F  F46  1  0.75000000  0.95713347  0.91212958  1
  F  F47  1  0.75000000  0.45713347  0.58787042  1
loop_
_geom_bond_atom_site_label_1
_geom_bond_atom_site_label_2
_geom_bond_distance
_geom_bond_site_symmetry_2
Al0 F12 1.758015 1_555
Al0 F24 1.758335 1_555
Al0 F20 1.819179 1_555
Al0 F0 1.819453 1_555
Al0 F8 1.831992 1_555
Al0 F32 1.833439 1_555
Al1 F13 1.758015 1_555
Al1 F25 1.758335 1_655
Al1 F21 1.819179 1_655
Al1 F1 1.819453 1_555
Al1 F9 1.831992 1_555
Al1 F33 1.833439 1_655
Al2 F14 1.758015 1_555
Al2 F26 1.758335 1_455
Al2 F22 1.819179 1_455
Al2 F2 1.819453 1_555
Al2 F10 1.831992 1_555
Al2 F34 1.833439 1_455
Al3 F15 1.758015 1_555
Al3 F27 1.758335 1_555
Al3 F23 1.819179 1_555
Al3 F3 1.819453 1_555
Al3 F11 1.831992 1_555
Al3 F35 1.833439 1_555
Al4 F16 1.758015 1_555
Al4 F28 1.758335 1_555
Al4 F22 1.819179 1_555
Al4 F4 1.819453 1_555
Al4 F10 1.831992 1_555
Al4 F36 1.833439 1_555
Al5 F17 1.758015 1_555
Al5 F29 1.758335 1_455
Al5 F23 1.819179 1_455
Al5 F5 1.819453 1_555
Al5 F11 1.831992 1_555
Al5 F37 1.833439 1_455
Al6 F18 1.758015 1_555
Al6 F30 1.758335 1_655
Al6 F20 1.819179 1_655
Al6 F6 1.819453 1_555
Al6 F8 1.831992 1_555
Al6 F38 1.833439 1_655
Al7 F19 1.758015 1_555
Al7 F31 1.758335 1_555
Al7 F21 1.819179 1_555
Al7 F7 1.819453 1_555
Al7 F9 1.831992 1_555
Al7 F39 1.833439 1_555
Al8 F40 1.739025 1_555
Al8 F44 1.752480 1_555
Al8 F3 1.828846 1_554
Al8 F5 1.828846 1_554
Al8 F38 1.835299 1_555
Al8 F32 1.835299 1_555
Al9 F41 1.739025 1_555
Al9 F45 1.752480 1_555
Al9 F4 1.828846 1_555
Al9 F2 1.828846 1_555
Al9 F33 1.835299 1_555
Al9 F39 1.835299 1_555
Al10 F42 1.739025 1_555
Al10 F46 1.752480 1_555
Al10 F7 1.828846 1_556
Al10 F1 1.828846 1_556
Al10 F36 1.835299 1_555
Al10 F34 1.835299 1_555
Al11 F43 1.739025 1_555
Al11 F47 1.752480 1_555
Al11 F6 1.828846 1_555
Al11 F0 1.828846 1_555
Al11 F35 1.835299 1_555
Al11 F37 1.835299 1_555
F0 K2 3.062152 1_555
F1 K3 3.062152 1_654
F2 K0 3.062152 1_455
F3 K1 3.062152 1_556
F4 K0 3.062152 1_555
F5 K1 3.062152 1_456
F6 K2 3.062152 1_655
F7 K3 3.062152 1_554
F8 K1 2.854398 1_555
F9 K0 2.854398 1_555
F10 K3 2.854398 1_555
F11 K2 2.854398 1_555
F12 Na1 2.330567 1_555
F12 K0 2.684326 1_555
F12 K4 2.813358 1_555
F13 Na0 2.330567 1_655
F13 K1 2.684326 1_565
F13 K5 2.813358 1_555
F14 Na3 2.330567 1_455
F14 K2 2.684326 1_555
F14 K6 2.813358 1_555
F15 Na2 2.330567 1_555
F15 K3 2.684326 1_545
F15 K7 2.813358 1_555
F16 Na3 2.330567 1_555
F16 K2 2.684326 1_555
F16 K6 2.813358 1_555
F17 Na2 2.330567 1_455
F17 K3 2.684326 1_545
F17 K7 2.813358 1_555
F18 Na1 2.330567 1_655
F18 K0 2.684326 1_555
F18 K4 2.813358 1_555
F19 Na0 2.330567 1_555
F19 K1 2.684326 1_565
F19 K5 2.813358 1_555
F24 Na0 2.331821 1_545
F24 K5 2.687052 1_545
F24 K7 2.765722 1_555
F25 Na1 2.331821 1_555
F25 K4 2.687052 1_455
F25 K6 2.765722 1_554
F26 Na2 2.331821 1_565
F26 K7 2.687052 1_665
F26 K5 2.765722 1_555
F27 Na3 2.331821 1_555
F27 K6 2.687052 1_555
F27 K4 2.765722 1_556
F28 Na2 2.331821 1_565
F28 K7 2.687052 1_565
F28 K5 2.765722 1_555
F29 Na3 2.331821 1_555
F29 K6 2.687052 1_655
F29 K4 2.765722 1_556
F30 Na0 2.331821 1_545
F30 K5 2.687052 1_445
F30 K7 2.765722 1_555
F31 Na1 2.331821 1_555
F31 K4 2.687052 1_555
F31 K6 2.765722 1_554
F32 K1 2.821585 1_555
F33 K0 2.821585 1_455
F34 K3 2.821585 1_655
F35 K2 2.821585 1_555
F36 K3 2.821585 1_555
F37 K2 2.821585 1_655
F38 K1 2.821585 1_455
F39 K0 2.821585 1_555
F40 Na1 2.249292 1_555
F40 K6 2.717561 1_554
F41 Na0 2.249292 1_555
F41 K7 2.717561 1_565
F42 Na3 2.249292 1_555
F42 K4 2.717561 1_556
F43 Na2 2.249292 1_555
F43 K5 2.717561 1_545
F44 Na0 2.293587 1_545
F44 K3 2.546916 1_544
F45 Na1 2.293587 1_555
F45 K2 2.546916 1_555
F46 Na2 2.293587 1_565
F46 K1 2.546916 1_566
F47 Na3 2.293587 1_555
F47 K0 2.546916 1_555
