# generated using pymatgen
data_CsMoN3O11
_symmetry_space_group_name_H-M   'P 1'
_cell_length_a   7.68315736
_cell_length_b   7.68315736
_cell_length_c   9.97661932
_cell_angle_alpha   69.60367550
_cell_angle_beta   69.60367550
_cell_angle_gamma   65.25461986
_symmetry_Int_Tables_number   1
_chemical_formula_structural   CsMoN3O11
_chemical_formula_sum   'Cs2 Mo2 N6 O22'
_cell_volume   486.90841066
_cell_formula_units_Z   2
loop_
 _symmetry_equiv_pos_site_id
 _symmetry_equiv_pos_as_xyz
  1  'x, y, z'
loop_
 _atom_site_type_symbol
 _atom_site_label
 _atom_site_symmetry_multiplicity
 _atom_site_fract_x
 _atom_site_fract_y
 _atom_site_fract_z
 _atom_site_occupancy
  Cs  Cs0  1  -0.00086420  0.00086420  0.00000000  1
  Cs  Cs1  1  0.60811528  0.39188472  0.50000000  1
  Mo  Mo0  1  0.69269957  0.70057016  0.78593935  1
  Mo  Mo1  1  0.29942984  0.30730043  0.21406065  1
  N  N0  1  0.07685433  0.68184074  0.71556442  1
  N  N1  1  0.31815926  0.92314567  0.28443558  1
  N  N2  1  0.79126212  0.86156822  0.45371811  1
  N  N3  1  0.13843178  0.20873788  0.54628189  1
  N  N4  1  0.78547672  0.52341791  0.08317126  1
  N  N5  1  0.47658209  0.21452328  0.91682874  1
  O  O0  1  0.47384579  0.83492208  0.87543936  1
  O  O1  1  0.16507792  0.52615421  0.12456064  1
  O  O2  1  0.64646068  0.54066682  0.73526572  1
  O  O3  1  0.45933318  0.35353932  0.26473428  1
  O  O4  1  0.92672718  0.78526495  0.80023106  1
  O  O5  1  0.21473505  0.07327282  0.19976894  1
  O  O6  1  0.03644032  0.57055493  0.67066774  1
  O  O7  1  0.42944507  0.96355968  0.32933226  1
  O  O8  1  0.23901503  0.69621127  0.68356095  1
  O  O9  1  0.30378873  0.76098497  0.31643905  1
  O  O10  1  0.72072184  0.89882181  0.59155808  1
  O  O11  1  0.10117819  0.27927816  0.40844192  1
  O  O12  1  0.82193143  0.69817811  0.44206258  1
  O  O13  1  0.30182189  0.17806857  0.55793742  1
  O  O14  1  0.81557090  0.00354889  0.35471299  1
  O  O15  1  0.99645111  0.18442910  0.64528701  1
  O  O16  1  0.78805953  0.48452450  0.95989776  1
  O  O17  1  0.51547550  0.21194047  0.04010224  1
  O  O18  1  0.71406950  0.69472606  0.09414894  1
  O  O19  1  0.30527394  0.28593050  0.90585106  1
  O  O20  1  0.85538069  0.37722627  0.17380982  1
  O  O21  1  0.62277373  0.14461931  0.82619018  1
loop_
_geom_bond_atom_site_label_1
_geom_bond_atom_site_label_2
_geom_bond_distance
_geom_bond_site_symmetry_2
Cs0 O0 3.244160 1_544
Cs0 O1 3.244160 1_545
Cs0 O5 3.297127 1_555
Cs0 O4 3.297127 1_444
Cs0 O16 3.312074 1_454
Cs0 O17 3.312074 1_455
Cs0 O14 3.325742 1_455
Cs0 O15 3.325742 1_454
Cs0 O21 3.474869 1_454
Cs0 O20 3.474869 1_455
Cs0 O18 3.542682 1_445
Cs0 O19 3.542682 1_554
Cs1 O2 3.088164 1_555
Cs1 O3 3.088164 1_555
Cs1 O21 3.158989 1_555
Cs1 O20 3.158989 1_555
Cs1 O12 3.193329 1_555
Cs1 O13 3.193329 1_555
Cs1 O8 3.267502 1_555
Cs1 O9 3.267502 1_555
Cs1 O14 3.311559 1_555
Cs1 O15 3.311559 1_555
Cs1 O10 3.365858 1_545
Cs1 O11 3.365858 1_655
Mo0 O2 1.677695 1_555
Mo0 O0 1.683168 1_555
Mo0 O10 2.012918 1_555
Mo0 O16 2.040662 1_555
Mo0 O4 2.213534 1_555
Mo0 O6 2.402179 1_655
Mo1 O3 1.677695 1_555
Mo1 O1 1.683168 1_555
Mo1 O11 2.012918 1_555
Mo1 O17 2.040662 1_555
Mo1 O5 2.213534 1_555
Mo1 O7 2.402179 1_545
N0 O8 1.216442 1_555
N0 O6 1.270538 1_555
N0 O4 1.302608 1_455
N1 O9 1.216442 1_555
N1 O7 1.270538 1_555
N1 O5 1.302608 1_565
N2 O12 1.216537 1_555
N2 O14 1.221241 1_565
N2 O10 1.375413 1_555
N3 O13 1.216537 1_555
N3 O15 1.221241 1_455
N3 O11 1.375413 1_555
N4 O20 1.222005 1_555
N4 O18 1.224504 1_555
N4 O16 1.355144 1_554
N5 O21 1.222005 1_555
N5 O19 1.224504 1_555
N5 O17 1.355144 1_556
