# generated using pymatgen
data_KNi3P3O11
_symmetry_space_group_name_H-M   'P 1'
_cell_length_a   9.49495400
_cell_length_b   9.98810600
_cell_length_c   10.19788543
_cell_angle_alpha   60.00208063
_cell_angle_beta   90.00000000
_cell_angle_gamma   90.00000000
_symmetry_Int_Tables_number   1
_chemical_formula_structural   KNi3P3O11
_chemical_formula_sum   'K4 Ni12 P12 O44'
_cell_volume   837.57917873
_cell_formula_units_Z   4
loop_
 _symmetry_equiv_pos_site_id
 _symmetry_equiv_pos_as_xyz
  1  'x, y, z'
loop_
 _atom_site_type_symbol
 _atom_site_label
 _atom_site_symmetry_multiplicity
 _atom_site_fract_x
 _atom_site_fract_y
 _atom_site_fract_z
 _atom_site_occupancy
  K  K0  1  0.23543200  0.41712200  0.58099500  1
  K  K1  1  0.26456800  0.41712200  0.08099500  1
  K  K2  1  0.76456800  0.58287800  0.41900500  1
  K  K3  1  0.73543200  0.58287800  0.91900500  1
  Ni  Ni0  1  0.62821400  0.26289600  0.37492100  1
  Ni  Ni1  1  0.87178600  0.26289600  0.87492100  1
  Ni  Ni2  1  0.37178600  0.73710400  0.62507900  1
  Ni  Ni3  1  0.12821400  0.73710400  0.12507900  1
  Ni  Ni4  1  0.13205400  0.09546600  0.39649100  1
  Ni  Ni5  1  0.36794600  0.09546600  0.89649100  1
  Ni  Ni6  1  0.86794600  0.90453400  0.60350900  1
  Ni  Ni7  1  0.63205400  0.90453400  0.10350900  1
  Ni  Ni8  1  0.63144600  0.08502200  0.73589800  1
  Ni  Ni9  1  0.86855400  0.08502200  0.23589800  1
  Ni  Ni10  1  0.36855400  0.91497800  0.26410200  1
  Ni  Ni11  1  0.13144600  0.91497800  0.76410200  1
  P  P0  1  0.33764200  0.10302300  0.56887900  1
  P  P1  1  0.16235800  0.10302300  0.06887900  1
  P  P2  1  0.66235800  0.89697700  0.43112100  1
  P  P3  1  0.83764200  0.89697700  0.93112100  1
  P  P4  1  0.92551100  0.22886200  0.57682700  1
  P  P5  1  0.57448900  0.22886200  0.07682700  1
  P  P6  1  0.07448900  0.77113800  0.42317300  1
  P  P7  1  0.42551100  0.77113800  0.92317300  1
  P  P8  1  0.94060500  0.40044900  0.24827900  1
  P  P9  1  0.55939500  0.40044900  0.74827900  1
  P  P10  1  0.05939500  0.59955100  0.75172100  1
  P  P11  1  0.44060500  0.59955100  0.25172100  1
  O  O0  1  0.27084300  0.94797700  0.58409000  1
  O  O1  1  0.22915700  0.94797700  0.08409000  1
  O  O2  1  0.72915700  0.05202300  0.41591000  1
  O  O3  1  0.77084300  0.05202300  0.91591000  1
  O  O4  1  0.50000500  0.10976600  0.56519000  1
  O  O5  1  0.99999500  0.10976600  0.06519000  1
  O  O6  1  0.49999500  0.89023400  0.43481000  1
  O  O7  1  0.00000500  0.89023400  0.93481000  1
  O  O8  1  0.27152400  0.23267100  0.42390400  1
  O  O9  1  0.22847600  0.23267100  0.92390400  1
  O  O10  1  0.72847600  0.76732900  0.57609600  1
  O  O11  1  0.77152400  0.76732900  0.07609600  1
  O  O12  1  0.27552700  0.09782900  0.71439200  1
  O  O13  1  0.22447300  0.09782900  0.21439200  1
  O  O14  1  0.72447300  0.90217100  0.28560800  1
  O  O15  1  0.77552700  0.90217100  0.78560800  1
  O  O16  1  0.97810600  0.25948300  0.69889900  1
  O  O17  1  0.52189400  0.25948300  0.19889900  1
  O  O18  1  0.02189400  0.74051700  0.30110100  1
  O  O19  1  0.47810600  0.74051700  0.80110100  1
  O  O20  1  0.99597200  0.08153900  0.58458200  1
  O  O21  1  0.50402800  0.08153900  0.08458200  1
  O  O22  1  0.00402800  0.91846100  0.41541800  1
  O  O23  1  0.49597200  0.91846100  0.91541800  1
  O  O24  1  0.76370300  0.22798500  0.56323900  1
  O  O25  1  0.73629700  0.22798500  0.06323900  1
  O  O26  1  0.23629700  0.77201500  0.43676100  1
  O  O27  1  0.26370300  0.77201500  0.93676100  1
  O  O28  1  0.97962500  0.37224400  0.41900400  1
  O  O29  1  0.52037500  0.37224400  0.91900400  1
  O  O30  1  0.02037500  0.62775600  0.58099600  1
  O  O31  1  0.47962500  0.62775600  0.08099600  1
  O  O32  1  0.02443800  0.54180300  0.14102700  1
  O  O33  1  0.47556200  0.54180300  0.64102700  1
  O  O34  1  0.97556200  0.45819700  0.85897300  1
  O  O35  1  0.52443800  0.45819700  0.35897300  1
  O  O36  1  0.78125400  0.41329200  0.23376200  1
  O  O37  1  0.71874600  0.41329200  0.73376200  1
  O  O38  1  0.21874600  0.58670800  0.76623800  1
  O  O39  1  0.28125400  0.58670800  0.26623800  1
  O  O40  1  0.99150400  0.25083600  0.25075900  1
  O  O41  1  0.50849600  0.25083600  0.75075900  1
  O  O42  1  0.00849600  0.74916400  0.74924100  1
  O  O43  1  0.49150400  0.74916400  0.24924100  1
loop_
_geom_bond_atom_site_label_1
_geom_bond_atom_site_label_2
_geom_bond_distance
_geom_bond_site_symmetry_2
K0 O12 2.797852 1_555
K0 O33 2.808287 1_555
K0 O39 2.815124 1_555
K0 O16 2.828687 1_455
K0 O30 2.931847 1_555
K0 O8 3.004855 1_555
K0 O9 3.030685 1_555
K0 O26 3.084640 1_555
K0 O28 3.093508 1_455
K0 O41 3.098831 1_555
K0 O38 3.108451 1_555
K1 O13 2.797852 1_555
K1 O32 2.808287 1_555
K1 O38 2.815124 1_554
K1 O17 2.828687 1_555
K1 O31 2.931847 1_555
K1 O9 3.004855 1_554
K1 O8 3.030685 1_555
K1 O27 3.084640 1_554
K1 O29 3.093508 1_554
K1 O40 3.098831 1_455
K1 O39 3.108451 1_555
K2 O14 2.797852 1_555
K2 O35 2.808287 1_555
K2 O37 2.815124 1_555
K2 O18 2.828687 1_655
K2 O28 2.931847 1_555
K2 O10 3.004855 1_555
K2 O11 3.030685 1_555
K2 O24 3.084640 1_555
K2 O30 3.093508 1_655
K2 O43 3.098831 1_555
K2 O36 3.108451 1_555
K3 O15 2.797852 1_555
K3 O34 2.808287 1_555
K3 O36 2.815124 1_556
K3 O19 2.828687 1_555
K3 O29 2.931847 1_555
K3 O11 3.004855 1_556
K3 O10 3.030685 1_555
K3 O25 3.084640 1_556
K3 O31 3.093508 1_556
K3 O42 3.098831 1_655
K3 O37 3.108451 1_555
Ni0 O36 2.068331 1_555
Ni0 O17 2.074526 1_555
Ni0 O35 2.117855 1_555
Ni0 O4 2.149097 1_555
Ni0 O2 2.156194 1_555
Ni0 O24 2.189766 1_555
Ni1 O37 2.068331 1_555
Ni1 O16 2.074526 1_555
Ni1 O34 2.117855 1_555
Ni1 O5 2.149097 1_556
Ni1 O3 2.156194 1_555
Ni1 O25 2.189766 1_556
Ni2 O38 2.068331 1_555
Ni2 O19 2.074526 1_555
Ni2 O33 2.117855 1_555
Ni2 O6 2.149097 1_555
Ni2 O0 2.156194 1_555
Ni2 O26 2.189766 1_555
Ni3 O39 2.068331 1_555
Ni3 O18 2.074526 1_555
Ni3 O32 2.117855 1_555
Ni3 O7 2.149097 1_554
Ni3 O1 2.156194 1_555
Ni3 O27 2.189766 1_554
Ni4 O40 2.022793 1_455
Ni4 O8 2.023103 1_555
Ni4 O13 2.043356 1_555
Ni4 O22 2.073487 1_545
Ni4 O0 2.179132 1_545
Ni4 O20 2.258600 1_455
Ni5 O41 2.022793 1_555
Ni5 O9 2.023103 1_555
Ni5 O12 2.043356 1_555
Ni5 O23 2.073487 1_545
Ni5 O1 2.179132 1_546
Ni5 O21 2.258600 1_556
Ni6 O42 2.022793 1_655
Ni6 O10 2.023103 1_555
Ni6 O15 2.043356 1_555
Ni6 O20 2.073487 1_565
Ni6 O2 2.179132 1_565
Ni6 O22 2.258600 1_655
Ni7 O43 2.022793 1_555
Ni7 O11 2.023103 1_555
Ni7 O14 2.043356 1_555
Ni7 O21 2.073487 1_565
Ni7 O3 2.179132 1_564
Ni7 O23 2.258600 1_554
Ni8 O24 2.049912 1_555
Ni8 O4 2.054027 1_555
Ni8 O41 2.092766 1_555
Ni8 O15 2.130316 1_545
Ni8 O3 2.150674 1_555
Ni8 O23 2.174483 1_545
Ni9 O25 2.049912 1_555
Ni9 O5 2.054027 1_555
Ni9 O40 2.092766 1_555
Ni9 O14 2.130316 1_545
Ni9 O2 2.150674 1_555
Ni9 O22 2.174483 1_645
Ni10 O26 2.049912 1_555
Ni10 O6 2.054027 1_555
Ni10 O43 2.092766 1_555
Ni10 O13 2.130316 1_565
Ni10 O1 2.150674 1_555
Ni10 O21 2.174483 1_565
Ni11 O27 2.049912 1_555
Ni11 O7 2.054027 1_555
Ni11 O42 2.092766 1_555
Ni11 O12 2.130316 1_565
Ni11 O0 2.150674 1_555
Ni11 O20 2.174483 1_465
O0 P0 1.607590 1_565
O1 P1 1.607590 1_565
O2 P2 1.607590 1_545
O3 P3 1.607590 1_545
O4 P0 1.542737 1_555
O5 P1 1.542737 1_655
O6 P2 1.542737 1_555
O7 P3 1.542737 1_455
O8 P0 1.530489 1_555
O9 P1 1.530489 1_556
O10 P2 1.530489 1_555
O11 P3 1.530489 1_554
O12 P0 1.573399 1_555
O13 P1 1.573399 1_555
O14 P2 1.573399 1_555
O15 P3 1.573399 1_555
O16 P4 1.507767 1_555
O17 P5 1.507767 1_555
O18 P6 1.507767 1_555
O19 P7 1.507767 1_555
O20 P4 1.582002 1_555
O21 P5 1.582002 1_555
O22 P6 1.582002 1_555
O23 P7 1.582002 1_555
O24 P4 1.543014 1_555
O25 P5 1.543014 1_555
O26 P6 1.543014 1_555
O27 P7 1.543014 1_555
O28 P4 1.612616 1_555
O28 P8 1.660537 1_555
O29 P5 1.612616 1_556
O29 P9 1.660537 1_555
O30 P6 1.612616 1_555
O30 P10 1.660537 1_555
O31 P7 1.612616 1_554
O31 P11 1.660537 1_555
O32 P8 1.509671 1_455
O33 P9 1.509671 1_555
O34 P10 1.509671 1_655
O35 P11 1.509671 1_555
O36 P8 1.519422 1_555
O37 P9 1.519422 1_555
O38 P10 1.519422 1_555
O39 P11 1.519422 1_555
O40 P8 1.558684 1_555
O41 P9 1.558684 1_555
O42 P10 1.558684 1_555
O43 P11 1.558684 1_555
