# generated using pymatgen
data_PdPb2F6
_symmetry_space_group_name_H-M   'P 1'
_cell_length_a   8.88001393
_cell_length_b   8.88001393
_cell_length_c   5.89966231
_cell_angle_alpha   90.00000000
_cell_angle_beta   90.00000000
_cell_angle_gamma   141.13097981
_symmetry_Int_Tables_number   1
_chemical_formula_structural   PdPb2F6
_chemical_formula_sum   'Pd2 Pb4 F12'
_cell_volume   291.94252732
_cell_formula_units_Z   2
loop_
 _symmetry_equiv_pos_site_id
 _symmetry_equiv_pos_as_xyz
  1  'x, y, z'
loop_
 _atom_site_type_symbol
 _atom_site_label
 _atom_site_symmetry_multiplicity
 _atom_site_fract_x
 _atom_site_fract_y
 _atom_site_fract_z
 _atom_site_occupancy
  Pd  Pd0  1  0.50000000  0.50000000  0.50000000  1
  Pd  Pd1  1  -0.00000000  -0.00000000  0.00000000  1
  Pb  Pb0  1  0.16226756  0.83773244  0.50000000  1
  Pb  Pb1  1  0.83773244  0.16226756  0.50000000  1
  Pb  Pb2  1  0.33773244  0.66226756  0.00000000  1
  Pb  Pb3  1  0.66226756  0.33773244  0.00000000  1
  F  F0  1  0.50780470  0.00780470  0.75000000  1
  F  F1  1  0.49219530  0.99219530  0.25000000  1
  F  F2  1  0.99219530  0.49219530  0.25000000  1
  F  F3  1  0.00780470  0.50780470  0.75000000  1
  F  F4  1  0.58059598  0.75039497  0.66632455  1
  F  F5  1  0.41940402  0.24960503  0.33367545  1
  F  F6  1  0.91940402  0.74960503  0.16632455  1
  F  F7  1  0.25039497  0.08059598  0.83367545  1
  F  F8  1  0.08059598  0.25039497  0.83367545  1
  F  F9  1  0.74960503  0.91940402  0.16632455  1
  F  F10  1  0.24960503  0.41940402  0.33367545  1
  F  F11  1  0.75039497  0.58059598  0.66632455  1
loop_
_geom_bond_atom_site_label_1
_geom_bond_atom_site_label_2
_geom_bond_distance
_geom_bond_site_symmetry_2
F0 Pb1 2.526401 1_555
F0 Pb3 2.526401 1_556
F0 Pb2 2.579775 1_546
F0 Pb0 2.579775 1_545
F1 Pb2 2.526401 1_555
F1 Pb0 2.526401 1_555
F1 Pb3 2.579775 1_565
F1 Pb1 2.579775 1_565
F2 Pb3 2.526401 1_555
F2 Pb1 2.526401 1_555
F2 Pb2 2.579775 1_655
F2 Pb0 2.579775 1_655
F3 Pb2 2.526401 1_556
F3 Pb0 2.526401 1_555
F3 Pb3 2.579775 1_456
F3 Pb1 2.579775 1_455
F4 Pd0 1.985217 1_555
F4 Pb2 2.551607 1_556
F4 Pb1 2.559131 1_565
F5 Pd0 1.985217 1_555
F5 Pb3 2.551607 1_555
F5 Pb0 2.559131 1_545
F6 Pd1 1.985217 1_665
F6 Pb0 2.551607 1_655
F6 Pb3 2.559131 1_555
F7 Pd1 1.985217 1_556
F7 Pb0 2.551607 1_545
F7 Pb3 2.559131 1_556
F8 Pd1 1.985217 1_556
F8 Pb1 2.551607 1_455
F8 Pb2 2.559131 1_556
F9 Pd1 1.985217 1_665
F9 Pb1 2.551607 1_565
F9 Pb2 2.559131 1_555
F10 Pd0 1.985217 1_555
F10 Pb2 2.551607 1_555
F10 Pb1 2.559131 1_455
F11 Pd0 1.985217 1_555
F11 Pb3 2.551607 1_556
F11 Pb0 2.559131 1_655
