# generated using pymatgen
data_Cd4Te3Se
_symmetry_space_group_name_H-M   'P 1'
_cell_length_a   15.27671050
_cell_length_b   15.27671050
_cell_length_c   15.27671069
_cell_angle_alpha   17.40450944
_cell_angle_beta   17.40450944
_cell_angle_gamma   17.40450932
_symmetry_Int_Tables_number   1
_chemical_formula_structural   Cd4Te3Se
_chemical_formula_sum   'Cd4 Te3 Se1'
_cell_volume   278.37188284
_cell_formula_units_Z   1
loop_
 _symmetry_equiv_pos_site_id
 _symmetry_equiv_pos_as_xyz
  1  'x, y, z'
loop_
 _atom_site_type_symbol
 _atom_site_label
 _atom_site_symmetry_multiplicity
 _atom_site_fract_x
 _atom_site_fract_y
 _atom_site_fract_z
 _atom_site_occupancy
  Cd  Cd0  1  0.00338100  0.00338100  0.00338100  1
  Cd  Cd1  1  0.74647500  0.74647500  0.74647500  1
  Cd  Cd2  1  0.49899600  0.49899600  0.49899600  1
  Cd  Cd3  1  0.25108400  0.25108400  0.25108400  1
  Te  Te0  1  0.81008000  0.81008000  0.81008000  1
  Te  Te1  1  0.56236300  0.56236300  0.56236300  1
  Te  Te2  1  0.31447000  0.31447000  0.31447000  1
  Se  Se0  1  0.06315100  0.06315100  0.06315100  1
loop_
_geom_bond_atom_site_label_1
_geom_bond_atom_site_label_2
_geom_bond_distance
_geom_bond_site_symmetry_2
Cd0 Se0 2.697139 1_555
Cd0 Te2 2.851451 1_545
Cd0 Te2 2.851451 1_455
Cd0 Te2 2.851451 1_554
Cd1 Se0 2.772760 1_566
Cd1 Se0 2.772760 1_656
Cd1 Se0 2.772760 1_665
Cd1 Te0 2.870194 1_555
Cd2 Te0 2.851530 1_545
Cd2 Te0 2.851530 1_455
Cd2 Te0 2.851530 1_554
Cd2 Te1 2.859455 1_555
Cd3 Te1 2.848444 1_455
Cd3 Te1 2.848444 1_545
Cd3 Te1 2.848444 1_554
Cd3 Te2 2.860312 1_555
