# generated using pymatgen
data_YbEuGa2
_symmetry_space_group_name_H-M   'P 1'
_cell_length_a   5.16549140
_cell_length_b   5.16549140
_cell_length_c   5.16549140
_cell_angle_alpha   60.00000000
_cell_angle_beta   60.00000000
_cell_angle_gamma   60.00000000
_symmetry_Int_Tables_number   1
_chemical_formula_structural   YbEuGa2
_chemical_formula_sum   'Yb1 Eu1 Ga2'
_cell_volume   97.45854688
_cell_formula_units_Z   1
loop_
 _symmetry_equiv_pos_site_id
 _symmetry_equiv_pos_as_xyz
  1  'x, y, z'
loop_
 _atom_site_type_symbol
 _atom_site_label
 _atom_site_symmetry_multiplicity
 _atom_site_fract_x
 _atom_site_fract_y
 _atom_site_fract_z
 _atom_site_occupancy
  Yb  Yb0  1  0.00000000  0.00000000  0.00000000  1
  Eu  Eu0  1  0.50000000  0.50000000  0.50000000  1
  Ga  Ga0  1  0.75000000  0.75000000  0.75000000  1
  Ga  Ga1  1  0.25000000  0.25000000  0.25000000  1
loop_
_geom_bond_atom_site_label_1
_geom_bond_atom_site_label_2
_geom_bond_distance
_geom_bond_site_symmetry_2
Eu0 Ga1 3.163205 1_655
Eu0 Ga0 3.163205 1_455
Eu0 Ga0 3.163205 1_545
Eu0 Ga1 3.163205 1_565
Eu0 Ga0 3.163205 1_555
Eu0 Ga0 3.163205 1_554
Eu0 Ga1 3.163205 1_555
Eu0 Ga1 3.163205 1_556
Ga0 Yb0 3.163205 1_566
Ga0 Yb0 3.163205 1_656
Ga0 Yb0 3.163205 1_666
Ga0 Yb0 3.163205 1_665
Ga1 Yb0 3.163205 1_655
Ga1 Yb0 3.163205 1_565
Ga1 Yb0 3.163205 1_555
Ga1 Yb0 3.163205 1_556
