# generated using pymatgen
data_CaMg14Co
_symmetry_space_group_name_H-M   'P 1'
_cell_length_a   6.40216585
_cell_length_b   6.40216533
_cell_length_c   10.15801342
_cell_angle_alpha   90.00000000
_cell_angle_beta   90.00000000
_cell_angle_gamma   120.00000275
_symmetry_Int_Tables_number   1
_chemical_formula_structural   CaMg14Co
_chemical_formula_sum   'Ca1 Mg14 Co1'
_cell_volume   360.57300350
_cell_formula_units_Z   1
loop_
 _symmetry_equiv_pos_site_id
 _symmetry_equiv_pos_as_xyz
  1  'x, y, z'
loop_
 _atom_site_type_symbol
 _atom_site_label
 _atom_site_symmetry_multiplicity
 _atom_site_fract_x
 _atom_site_fract_y
 _atom_site_fract_z
 _atom_site_occupancy
  Ca  Ca0  1  0.16666700  0.33333300  0.12500000  1
  Mg  Mg0  1  0.17649763  0.83824831  0.12500000  1
  Mg  Mg1  1  0.15960720  0.82980310  0.62500000  1
  Mg  Mg2  1  0.66175169  0.32350237  0.12500000  1
  Mg  Mg3  1  0.67019690  0.34039280  0.62500000  1
  Mg  Mg4  1  0.66175169  0.83824831  0.12500000  1
  Mg  Mg5  1  0.67019690  0.82980310  0.62500000  1
  Mg  Mg6  1  0.32814713  0.17185287  0.39699692  1
  Mg  Mg7  1  0.32814713  0.17185287  0.85300308  1
  Mg  Mg8  1  0.32814713  0.65629527  0.39699692  1
  Mg  Mg9  1  0.32814713  0.65629527  0.85300308  1
  Mg  Mg10  1  0.84370473  0.17185287  0.39699692  1
  Mg  Mg11  1  0.84370473  0.17185287  0.85300308  1
  Mg  Mg12  1  0.83333300  0.66666700  0.36533089  1
  Mg  Mg13  1  0.83333300  0.66666700  0.88466911  1
  Co  Co0  1  0.16666700  0.33333300  0.62500000  1
loop_
_geom_bond_atom_site_label_1
_geom_bond_atom_site_label_2
_geom_bond_distance
_geom_bond_site_symmetry_2
Ca0 Mg0 3.201547 1_555
Ca0 Mg4 3.201547 1_555
Ca0 Mg4 3.201547 1_445
Ca0 Mg0 3.201547 1_545
Ca0 Mg2 3.201547 1_455
Ca0 Mg2 3.201547 1_555
Ca0 Mg6 3.292454 1_555
Ca0 Mg7 3.292454 1_554
Ca0 Mg9 3.292460 1_554
Ca0 Mg8 3.292460 1_555
Ca0 Mg10 3.292460 1_455
Ca0 Mg11 3.292460 1_454
Mg0 Mg13 3.095152 1_454
Mg0 Mg12 3.095152 1_455
Mg0 Mg2 3.106677 1_565
Mg0 Mg4 3.106677 1_555
Mg0 Mg2 3.295489 1_455
Mg0 Mg4 3.295489 1_455
Mg0 Mg8 3.326328 1_555
Mg0 Mg9 3.326328 1_554
Mg0 Mg7 3.326334 1_564
Mg0 Mg6 3.326334 1_565
Mg1 Mg8 2.993485 1_555
Mg1 Mg9 2.993485 1_555
Mg1 Mg6 2.993492 1_565
Mg1 Mg7 2.993492 1_565
Mg1 Mg3 3.133286 1_455
Mg1 Mg5 3.133286 1_455
Mg1 Mg12 3.198451 1_455
Mg1 Mg13 3.198451 1_455
Mg1 Mg3 3.268880 1_565
Mg1 Mg5 3.268880 1_555
Mg2 Mg4 3.106677 1_545
Mg2 Mg4 3.295489 1_555
Mg2 Mg7 3.326334 1_554
Mg2 Mg6 3.326334 1_555
Mg3 Mg7 2.993492 1_555
Mg3 Mg6 2.993492 1_555
Mg3 Mg5 3.133286 1_555
Mg3 Mg5 3.268880 1_545
Mg4 Mg8 3.326334 1_555
Mg4 Mg9 3.326334 1_554
Mg5 Mg8 2.993492 1_555
Mg5 Mg9 2.993492 1_555
Mg6 Mg8 3.101480 1_555
Mg6 Mg8 3.300685 1_545
Mg7 Mg9 3.101480 1_555
Mg7 Mg9 3.300685 1_545
Mg10 Mg3 2.993485 1_555
Mg10 Mg5 2.993491 1_545
Mg10 Mg8 3.101480 1_655
Mg10 Mg6 3.101481 1_655
Mg10 Mg12 3.217717 1_555
Mg10 Mg12 3.217717 1_545
Mg10 Mg8 3.300685 1_545
Mg10 Mg6 3.300685 1_555
Mg10 Mg2 3.326328 1_555
Mg10 Mg4 3.326334 1_545
Mg11 Mg3 2.993485 1_555
Mg11 Mg5 2.993491 1_545
Mg11 Mg9 3.101480 1_655
Mg11 Mg7 3.101481 1_655
Mg11 Mg13 3.217717 1_555
Mg11 Mg13 3.217717 1_545
Mg11 Mg9 3.300685 1_545
Mg11 Mg7 3.300685 1_555
Mg11 Mg2 3.326328 1_556
Mg11 Mg4 3.326334 1_546
Mg12 Mg4 3.095145 1_555
Mg12 Mg2 3.095152 1_555
Mg12 Mg5 3.198444 1_555
Mg12 Mg3 3.198450 1_555
Mg12 Mg6 3.217717 1_665
Mg12 Mg6 3.217717 1_555
Mg12 Mg8 3.217718 1_655
Mg12 Mg8 3.217718 1_555
Mg13 Mg4 3.095145 1_556
Mg13 Mg2 3.095152 1_556
Mg13 Mg5 3.198444 1_555
Mg13 Mg3 3.198450 1_555
Mg13 Mg7 3.217717 1_665
Mg13 Mg7 3.217717 1_555
Mg13 Mg9 3.217718 1_655
Mg13 Mg9 3.217718 1_555
Co0 Mg6 2.927541 1_555
Co0 Mg7 2.927541 1_555
Co0 Mg8 2.927547 1_555
Co0 Mg9 2.927547 1_555
Co0 Mg10 2.927547 1_455
Co0 Mg11 2.927547 1_455
Co0 Mg5 3.201322 1_445
Co0 Mg1 3.201322 1_545
Co0 Mg5 3.201322 1_555
Co0 Mg1 3.201322 1_555
Co0 Mg3 3.201322 1_555
Co0 Mg3 3.201322 1_455
