# generated using pymatgen
data_Lu3Pt4
_symmetry_space_group_name_H-M   'P 1'
_cell_length_a   5.63638477
_cell_length_b   7.65180962
_cell_length_c   7.65093306
_cell_angle_alpha   114.22996801
_cell_angle_beta   104.24920639
_cell_angle_gamma   104.21914424
_symmetry_Int_Tables_number   1
_chemical_formula_structural   Lu3Pt4
_chemical_formula_sum   'Lu6 Pt8'
_cell_volume   268.28029209
_cell_formula_units_Z   2
loop_
 _symmetry_equiv_pos_site_id
 _symmetry_equiv_pos_as_xyz
  1  'x, y, z'
loop_
 _atom_site_type_symbol
 _atom_site_label
 _atom_site_symmetry_multiplicity
 _atom_site_fract_x
 _atom_site_fract_y
 _atom_site_fract_z
 _atom_site_occupancy
  Lu  Lu0  1  0.40498106  0.12763087  0.38029537  1
  Lu  Lu1  1  0.02460728  0.61954555  0.74750972  1
  Lu  Lu2  1  0.27723325  0.25259849  0.87219546  1
  Lu  Lu3  1  0.59501894  0.87236913  0.61970463  1
  Lu  Lu4  1  0.97539272  0.38045445  0.25249028  1
  Lu  Lu5  1  0.72276675  0.74740151  0.12780454  1
  Pt  Pt0  1  -0.00000000  -0.00000000  -0.00000000  1
  Pt  Pt1  1  0.50000000  -0.00000000  -0.00000000  1
  Pt  Pt2  1  0.23028014  0.67999523  0.16612588  1
  Pt  Pt3  1  0.06419199  0.83399858  0.51430754  1
  Pt  Pt4  1  0.54999123  0.48576942  0.32008473  1
  Pt  Pt5  1  0.76971986  0.32000477  0.83387412  1
  Pt  Pt6  1  0.93580801  0.16600142  0.48569246  1
  Pt  Pt7  1  0.45000877  0.51423058  0.67991527  1
loop_
_geom_bond_atom_site_label_1
_geom_bond_atom_site_label_2
_geom_bond_distance
_geom_bond_site_symmetry_2
Lu0 Pt7 2.801600 1_555
Lu0 Pt6 2.806174 1_555
Lu0 Pt0 2.816562 1_555
Lu0 Pt2 2.885959 1_545
Lu0 Pt1 2.897958 1_555
Lu0 Pt4 2.917411 1_555
Lu0 Pt6 2.994391 1_455
Lu0 Pt5 3.040483 1_555
Lu0 Pt3 3.244882 1_545
Lu1 Pt5 2.801202 1_455
Lu1 Pt7 2.807761 1_555
Lu1 Pt0 2.817835 1_566
Lu1 Pt3 2.888804 1_555
Lu1 Pt1 2.896582 1_566
Lu1 Pt2 2.916952 1_556
Lu1 Pt7 2.992830 1_455
Lu1 Pt6 3.042058 1_455
Lu1 Pt4 3.240199 1_455
Lu2 Pt6 2.801916 1_455
Lu2 Pt5 2.806906 1_555
Lu2 Pt0 2.820182 1_556
Lu2 Pt4 2.886221 1_556
Lu2 Pt1 2.899593 1_556
Lu2 Pt3 2.914120 1_545
Lu2 Pt5 2.995121 1_455
Lu2 Pt7 3.047171 1_555
Lu2 Pt2 3.241009 1_556
Lu3 Pt4 2.801600 1_555
Lu3 Pt3 2.806174 1_555
Lu3 Pt0 2.816562 1_666
Lu3 Pt5 2.885959 1_565
Lu3 Pt1 2.897958 1_566
Lu3 Pt7 2.917411 1_555
Lu3 Pt3 2.994391 1_655
Lu3 Pt2 3.040483 1_555
Lu3 Pt6 3.244882 1_565
Lu4 Pt2 2.801202 1_655
Lu4 Pt4 2.807761 1_555
Lu4 Pt0 2.817835 1_655
Lu4 Pt6 2.888804 1_555
Lu4 Pt1 2.896582 1_555
Lu4 Pt5 2.916952 1_554
Lu4 Pt4 2.992830 1_655
Lu4 Pt3 3.042058 1_655
Lu4 Pt7 3.240199 1_655
Lu5 Pt3 2.801916 1_655
Lu5 Pt2 2.806906 1_555
Lu5 Pt0 2.820182 1_665
Lu5 Pt7 2.886221 1_554
Lu5 Pt1 2.899593 1_565
Lu5 Pt6 2.914120 1_565
Lu5 Pt2 2.995121 1_655
Lu5 Pt4 3.047171 1_555
Lu5 Pt5 3.241009 1_554
Pt2 Pt5 2.877426 1_454
Pt2 Pt4 2.924231 1_555
Pt2 Pt3 2.924787 1_555
Pt3 Pt6 2.882173 1_465
Pt3 Pt4 2.923011 1_455
Pt4 Pt7 2.876830 1_555
Pt5 Pt7 2.924231 1_555
Pt5 Pt6 2.924787 1_555
Pt6 Pt7 2.923011 1_655
