# generated using pymatgen
data_Mg14ZnCuO16
_symmetry_space_group_name_H-M   'P 1'
_cell_length_a   4.25057700
_cell_length_b   8.52927500
_cell_length_c   8.53950500
_cell_angle_alpha   90.00000000
_cell_angle_beta   90.00000000
_cell_angle_gamma   90.00000000
_symmetry_Int_Tables_number   1
_chemical_formula_structural   Mg14ZnCuO16
_chemical_formula_sum   'Mg14 Zn1 Cu1 O16'
_cell_volume   309.59411891
_cell_formula_units_Z   1
loop_
 _symmetry_equiv_pos_site_id
 _symmetry_equiv_pos_as_xyz
  1  'x, y, z'
loop_
 _atom_site_type_symbol
 _atom_site_label
 _atom_site_symmetry_multiplicity
 _atom_site_fract_x
 _atom_site_fract_y
 _atom_site_fract_z
 _atom_site_occupancy
  Mg  Mg0  1  0.00000000  0.00000000  0.50000000  1
  Mg  Mg1  1  0.00000000  0.50000000  0.50000000  1
  Mg  Mg2  1  0.50000000  0.74927900  0.00000000  1
  Mg  Mg3  1  0.50000000  0.25072100  0.00000000  1
  Mg  Mg4  1  0.50000000  0.74995400  0.50000000  1
  Mg  Mg5  1  0.50000000  0.25004600  0.50000000  1
  Mg  Mg6  1  0.50000000  0.00000000  0.75017200  1
  Mg  Mg7  1  0.50000000  0.50000000  0.75090400  1
  Mg  Mg8  1  0.50000000  0.00000000  0.24982800  1
  Mg  Mg9  1  0.50000000  0.50000000  0.24909600  1
  Mg  Mg10  1  0.00000000  0.74935200  0.75084900  1
  Mg  Mg11  1  0.00000000  0.25064800  0.75084900  1
  Mg  Mg12  1  0.00000000  0.74935200  0.24915100  1
  Mg  Mg13  1  0.00000000  0.25064800  0.24915100  1
  Zn  Zn0  1  0.00000000  0.00000000  0.00000000  1
  Cu  Cu0  1  0.00000000  0.50000000  0.00000000  1
  O  O0  1  0.00000000  0.00000000  0.74658100  1
  O  O1  1  0.00000000  0.50000000  0.74636200  1
  O  O2  1  0.00000000  0.00000000  0.25341900  1
  O  O3  1  0.00000000  0.50000000  0.25363800  1
  O  O4  1  0.50000000  0.74991600  0.75094700  1
  O  O5  1  0.50000000  0.25008400  0.75094700  1
  O  O6  1  0.50000000  0.74991600  0.24905300  1
  O  O7  1  0.50000000  0.25008400  0.24905300  1
  O  O8  1  0.50000000  0.00000000  0.00000000  1
  O  O9  1  0.50000000  0.50000000  0.00000000  1
  O  O10  1  0.50000000  0.00000000  0.50000000  1
  O  O11  1  0.50000000  0.50000000  0.50000000  1
  O  O12  1  0.00000000  0.75114200  0.00000000  1
  O  O13  1  0.00000000  0.24885800  0.00000000  1
  O  O14  1  0.00000000  0.74994100  0.50000000  1
  O  O15  1  0.00000000  0.25005900  0.50000000  1
loop_
_geom_bond_atom_site_label_1
_geom_bond_atom_site_label_2
_geom_bond_distance
_geom_bond_site_symmetry_2
Mg0 O0 2.105680 1_555
Mg0 O2 2.105680 1_555
Mg0 O10 2.125288 1_455
Mg0 O10 2.125288 1_555
Mg0 O15 2.132822 1_555
Mg0 O14 2.132822 1_545
Mg1 O1 2.103810 1_555
Mg1 O3 2.103810 1_555
Mg1 O11 2.125288 1_455
Mg1 O11 2.125288 1_555
Mg1 O14 2.131816 1_555
Mg1 O15 2.131816 1_555
Mg2 O12 2.125348 1_655
Mg2 O12 2.125348 1_555
Mg2 O9 2.126169 1_555
Mg2 O6 2.126796 1_555
Mg2 O4 2.126796 1_554
Mg2 O8 2.138468 1_565
Mg3 O13 2.125348 1_555
Mg3 O13 2.125348 1_655
Mg3 O9 2.126169 1_555
Mg3 O7 2.126796 1_555
Mg3 O5 2.126796 1_554
Mg3 O8 2.138468 1_555
Mg4 O14 2.125289 1_555
Mg4 O14 2.125289 1_655
Mg4 O11 2.131926 1_555
Mg4 O10 2.132711 1_565
Mg4 O4 2.142963 1_555
Mg4 O6 2.142963 1_555
Mg5 O15 2.125289 1_555
Mg5 O15 2.125289 1_655
Mg5 O11 2.131926 1_555
Mg5 O10 2.132711 1_555
Mg5 O5 2.142963 1_555
Mg5 O7 2.142963 1_555
Mg6 O0 2.125510 1_555
Mg6 O0 2.125510 1_655
Mg6 O5 2.133045 1_555
Mg6 O4 2.133045 1_545
Mg6 O8 2.133407 1_556
Mg6 O10 2.136345 1_555
Mg7 O1 2.125642 1_555
Mg7 O1 2.125642 1_655
Mg7 O9 2.127157 1_556
Mg7 O4 2.131602 1_555
Mg7 O5 2.131602 1_555
Mg7 O11 2.142596 1_555
Mg8 O2 2.125510 1_655
Mg8 O2 2.125510 1_555
Mg8 O7 2.133045 1_555
Mg8 O6 2.133045 1_545
Mg8 O8 2.133407 1_555
Mg8 O10 2.136345 1_555
Mg9 O3 2.125642 1_655
Mg9 O3 2.125642 1_555
Mg9 O9 2.127157 1_555
Mg9 O6 2.131602 1_555
Mg9 O7 2.131602 1_555
Mg9 O11 2.142596 1_555
Mg10 O4 2.125294 1_455
Mg10 O4 2.125294 1_555
Mg10 O1 2.127137 1_555
Mg10 O12 2.127681 1_556
Mg10 O0 2.138156 1_565
Mg10 O14 2.142132 1_555
Mg11 O5 2.125294 1_455
Mg11 O5 2.125294 1_555
Mg11 O1 2.127137 1_555
Mg11 O13 2.127681 1_556
Mg11 O0 2.138156 1_555
Mg11 O15 2.142132 1_555
Mg12 O6 2.125294 1_555
Mg12 O6 2.125294 1_455
Mg12 O3 2.127137 1_555
Mg12 O12 2.127681 1_555
Mg12 O2 2.138156 1_565
Mg12 O14 2.142132 1_555
Mg13 O7 2.125294 1_555
Mg13 O7 2.125294 1_455
Mg13 O3 2.127137 1_555
Mg13 O13 2.127681 1_555
Mg13 O2 2.138156 1_555
Mg13 O15 2.142132 1_555
Cu0 O9 2.125288 1_455
Cu0 O9 2.125288 1_555
Cu0 O12 2.142059 1_555
Cu0 O13 2.142059 1_555
Cu0 O3 2.165943 1_555
Cu0 O1 2.165943 1_554
O0 Zn0 2.164073 1_556
O2 Zn0 2.164073 1_555
O8 Zn0 2.125288 1_655
O8 Zn0 2.125288 1_555
O12 Zn0 2.122578 1_565
O13 Zn0 2.122578 1_555
