# generated using pymatgen
data_Sr3Ca5Mn3Fe5O24
_symmetry_space_group_name_H-M   'P 1'
_cell_length_a   7.71103200
_cell_length_b   7.71548725
_cell_length_c   7.75268640
_cell_angle_alpha   90.03004104
_cell_angle_beta   90.03355261
_cell_angle_gamma   90.01451055
_symmetry_Int_Tables_number   1
_chemical_formula_structural   Sr3Ca5Mn3Fe5O24
_chemical_formula_sum   'Sr3 Ca5 Mn3 Fe5 O24'
_cell_volume   461.24102831
_cell_formula_units_Z   1
loop_
 _symmetry_equiv_pos_site_id
 _symmetry_equiv_pos_as_xyz
  1  'x, y, z'
loop_
 _atom_site_type_symbol
 _atom_site_label
 _atom_site_symmetry_multiplicity
 _atom_site_fract_x
 _atom_site_fract_y
 _atom_site_fract_z
 _atom_site_occupancy
  Sr  Sr0  1  0.25004000  0.74988400  0.25126300  1
  Sr  Sr1  1  0.25001600  0.74997600  0.74874200  1
  Sr  Sr2  1  0.25006100  0.25005500  0.74858900  1
  Ca  Ca0  1  0.74969200  0.74956900  0.25202200  1
  Ca  Ca1  1  0.74966700  0.74952500  0.74797100  1
  Ca  Ca2  1  0.25035900  0.25036200  0.25191200  1
  Ca  Ca3  1  0.74962500  0.25043700  0.25197300  1
  Ca  Ca4  1  0.74968600  0.25044200  0.74808100  1
  Mn  Mn0  1  0.50214400  0.00111500  0.49914800  1
  Mn  Mn1  1  0.99703000  0.49927700  0.49917900  1
  Mn  Mn2  1  0.50228100  0.49916500  0.49927700  1
  Fe  Fe0  1  0.99738300  0.00090400  0.00090400  1
  Fe  Fe1  1  0.99743300  0.00088000  0.49919800  1
  Fe  Fe2  1  0.50241300  0.00081100  0.00089400  1
  Fe  Fe3  1  0.99772700  0.49921800  0.00086600  1
  Fe  Fe4  1  0.50241800  0.49916900  0.00101700  1
  O  O0  1  0.99259100  0.75163800  0.00099800  1
  O  O1  1  0.99234800  0.74615100  0.49907600  1
  O  O2  1  0.50746200  0.74949900  0.00091400  1
  O  O3  1  0.50854000  0.74905600  0.49922600  1
  O  O4  1  0.99488200  0.24842400  0.00312800  1
  O  O5  1  0.99482200  0.25377000  0.49673600  1
  O  O6  1  0.50508900  0.25044400  0.00311800  1
  O  O7  1  0.50518000  0.25085500  0.49629200  1
  O  O8  1  0.24825200  0.00333000  0.00333800  1
  O  O9  1  0.25389500  0.00343600  0.49653400  1
  O  O10  1  0.75149200  0.00103000  0.00104200  1
  O  O11  1  0.74633900  0.00098600  0.49898300  1
  O  O12  1  0.25051400  0.49661500  0.00334600  1
  O  O13  1  0.25100800  0.49600200  0.49612400  1
  O  O14  1  0.74959200  0.49900400  0.00097700  1
  O  O15  1  0.74916500  0.49928900  0.49913700  1
  O  O16  1  0.99473600  0.00322600  0.24762900  1
  O  O17  1  0.99236100  0.00095000  0.75250100  1
  O  O18  1  0.50546900  0.00336700  0.25278800  1
  O  O19  1  0.50797800  0.00090400  0.74713700  1
  O  O20  1  0.99471800  0.49658100  0.25274900  1
  O  O21  1  0.99217800  0.49904200  0.74720100  1
  O  O22  1  0.50538900  0.49655300  0.25280800  1
  O  O23  1  0.50802600  0.49905700  0.74718300  1
loop_
_geom_bond_atom_site_label_1
_geom_bond_atom_site_label_2
_geom_bond_distance
_geom_bond_site_symmetry_2
Ca0 O3 2.671142 1_555
Ca0 O1 2.676975 1_555
Ca0 O2 2.697121 1_555
Ca0 O0 2.701856 1_555
Ca0 O22 2.712539 1_555
Ca0 O20 2.716939 1_555
Ca0 O18 2.717138 1_565
Ca0 O16 2.720293 1_565
Ca0 O15 2.720863 1_555
Ca0 O11 2.724965 1_565
Ca0 O14 2.742520 1_555
Ca0 O10 2.748517 1_565
Ca1 O3 2.678027 1_555
Ca1 O23 2.684133 1_555
Ca1 O1 2.688884 1_555
Ca1 O21 2.689562 1_555
Ca1 O19 2.690139 1_565
Ca1 O17 2.695282 1_565
Ca1 O2 2.708852 1_556
Ca1 O0 2.711605 1_556
Ca1 O15 2.728593 1_555
Ca1 O11 2.737676 1_565
Ca1 O14 2.754530 1_556
Ca1 O10 2.758804 1_566
Ca2 O13 2.678196 1_555
Ca2 O9 2.689003 1_555
Ca2 O12 2.706887 1_555
Ca2 O8 2.709773 1_555
Ca2 O7 2.728758 1_555
Ca2 O22 2.733763 1_555
Ca2 O5 2.736842 1_455
Ca2 O20 2.738001 1_455
Ca2 O18 2.739217 1_555
Ca2 O16 2.742289 1_455
Ca2 O6 2.753724 1_555
Ca2 O4 2.756202 1_455
Ca3 O7 2.672985 1_555
Ca3 O22 2.674800 1_555
Ca3 O5 2.678057 1_555
Ca3 O18 2.678924 1_555
Ca3 O20 2.678927 1_555
Ca3 O16 2.685756 1_555
Ca3 O6 2.696943 1_555
Ca3 O4 2.702398 1_555
Ca3 O15 2.711897 1_555
Ca3 O11 2.715871 1_555
Ca3 O14 2.732843 1_555
Ca3 O10 2.735651 1_555
Ca4 O23 2.674646 1_555
Ca4 O21 2.678365 1_555
Ca4 O19 2.679334 1_555
Ca4 O17 2.685164 1_555
Ca4 O7 2.713095 1_555
Ca4 O5 2.715712 1_555
Ca4 O15 2.723058 1_555
Ca4 O11 2.725896 1_555
Ca4 O6 2.733337 1_556
Ca4 O4 2.735036 1_556
Ca4 O14 2.741892 1_556
Ca4 O10 2.748312 1_556
Mn0 O11 1.882997 1_555
Mn0 O18 1.910227 1_555
Mn0 O9 1.914440 1_555
Mn0 O19 1.923082 1_555
Mn0 O7 1.927141 1_555
Mn0 O3 1.945396 1_545
Mn1 O5 1.894363 1_555
Mn1 O1 1.905105 1_555
Mn1 O20 1.910670 1_555
Mn1 O15 1.911295 1_555
Mn1 O21 1.923224 1_555
Mn1 O13 1.958759 1_655
Mn2 O15 1.903731 1_555
Mn2 O22 1.911057 1_555
Mn2 O7 1.916096 1_555
Mn2 O23 1.922423 1_555
Mn2 O3 1.928623 1_555
Mn2 O13 1.937861 1_555
Fe0 O10 1.896075 1_555
Fe0 O4 1.909909 1_555
Fe0 O16 1.912977 1_555
Fe0 O0 1.923555 1_545
Fe0 O17 1.926157 1_554
Fe0 O8 1.934626 1_655
Fe1 O11 1.936194 1_555
Fe1 O16 1.950528 1_555
Fe1 O5 1.951382 1_555
Fe1 O17 1.964191 1_555
Fe1 O1 1.965739 1_545
Fe1 O9 1.977800 1_655
Fe2 O10 1.920656 1_555
Fe2 O6 1.926214 1_555
Fe2 O2 1.939395 1_545
Fe2 O18 1.953073 1_555
Fe2 O8 1.960047 1_555
Fe2 O19 1.967792 1_554
Fe3 O14 1.913378 1_555
Fe3 O4 1.935205 1_555
Fe3 O0 1.947956 1_555
Fe3 O12 1.949441 1_655
Fe3 O20 1.953038 1_555
Fe3 O21 1.967025 1_554
Fe4 O14 1.905968 1_555
Fe4 O6 1.919228 1_555
Fe4 O2 1.931800 1_555
Fe4 O12 1.942629 1_555
Fe4 O22 1.952293 1_555
Fe4 O23 1.968396 1_554
O0 Sr0 2.775103 1_655
O0 Sr1 2.787397 1_654
O1 Sr0 2.764933 1_655
O1 Sr1 2.773170 1_655
O2 Sr0 2.776996 1_555
O2 Sr1 2.785402 1_554
O3 Sr0 2.768459 1_555
O3 Sr1 2.778584 1_555
O4 Sr2 2.787596 1_654
O5 Sr2 2.771723 1_655
O6 Sr2 2.785056 1_554
O7 Sr2 2.774960 1_555
O8 Sr0 2.742689 1_545
O8 Sr2 2.743801 1_554
O8 Sr1 2.777252 1_544
O9 Sr2 2.726937 1_555
O9 Sr0 2.727571 1_545
O9 Sr1 2.766287 1_545
O12 Sr0 2.740208 1_555
O12 Sr2 2.741487 1_554
O12 Sr1 2.778751 1_554
O13 Sr2 2.726866 1_555
O13 Sr0 2.728478 1_555
O13 Sr1 2.769734 1_555
O16 Sr0 2.774713 1_645
O17 Sr2 2.764375 1_655
O17 Sr1 2.774837 1_645
O18 Sr0 2.775335 1_545
O19 Sr2 2.766358 1_555
O19 Sr1 2.775465 1_545
O20 Sr0 2.773788 1_655
O21 Sr2 2.765287 1_655
O21 Sr1 2.774791 1_655
O22 Sr0 2.774783 1_555
O23 Sr2 2.765132 1_555
O23 Sr1 2.776374 1_555
