# generated using pymatgen
data_Ga2FeNi9
_symmetry_space_group_name_H-M   'P 1'
_cell_length_a   3.54895400
_cell_length_b   3.54895400
_cell_length_c   10.61687400
_cell_angle_alpha   90.00000000
_cell_angle_beta   90.00000000
_cell_angle_gamma   90.00000000
_symmetry_Int_Tables_number   1
_chemical_formula_structural   Ga2FeNi9
_chemical_formula_sum   'Ga2 Fe1 Ni9'
_cell_volume   133.72031892
_cell_formula_units_Z   1
loop_
 _symmetry_equiv_pos_site_id
 _symmetry_equiv_pos_as_xyz
  1  'x, y, z'
loop_
 _atom_site_type_symbol
 _atom_site_label
 _atom_site_symmetry_multiplicity
 _atom_site_fract_x
 _atom_site_fract_y
 _atom_site_fract_z
 _atom_site_occupancy
  Ga  Ga0  1  0.00000000  0.00000000  0.33285000  1
  Ga  Ga1  1  0.00000000  0.00000000  0.66715000  1
  Fe  Fe0  1  0.00000000  0.00000000  0.00000000  1
  Ni  Ni0  1  0.50000000  0.50000000  0.00000000  1
  Ni  Ni1  1  0.50000000  0.50000000  0.33024700  1
  Ni  Ni2  1  0.50000000  0.50000000  0.66975300  1
  Ni  Ni3  1  0.50000000  0.00000000  0.15921800  1
  Ni  Ni4  1  0.50000000  0.00000000  0.50000000  1
  Ni  Ni5  1  0.50000000  0.00000000  0.84078200  1
  Ni  Ni6  1  0.00000000  0.50000000  0.15921800  1
  Ni  Ni7  1  0.00000000  0.50000000  0.50000000  1
  Ni  Ni8  1  0.00000000  0.50000000  0.84078200  1
loop_
_geom_bond_atom_site_label_1
_geom_bond_atom_site_label_2
_geom_bond_distance
_geom_bond_site_symmetry_2
Ga0 Ni4 2.509584 1_555
Ga0 Ni4 2.509584 1_455
Ga0 Ni7 2.509584 1_555
Ga0 Ni7 2.509584 1_545
Ga0 Ni1 2.509642 1_445
Ga0 Ni1 2.509642 1_455
Ga0 Ni1 2.509642 1_555
Ga0 Ni1 2.509642 1_545
Ga0 Ni3 2.558710 1_455
Ga0 Ni6 2.558710 1_555
Ga0 Ni3 2.558710 1_555
Ga0 Ni6 2.558710 1_545
Ga1 Ni4 2.509584 1_455
Ga1 Ni7 2.509584 1_545
Ga1 Ni4 2.509584 1_555
Ga1 Ni7 2.509584 1_555
Ga1 Ni2 2.509642 1_445
Ga1 Ni2 2.509642 1_555
Ga1 Ni2 2.509642 1_545
Ga1 Ni2 2.509642 1_455
Ga1 Ni5 2.558710 1_555
Ga1 Ni5 2.558710 1_455
Ga1 Ni8 2.558710 1_555
Ga1 Ni8 2.558710 1_545
Fe0 Ni3 2.450757 1_455
Fe0 Ni6 2.450757 1_555
Fe0 Ni3 2.450757 1_555
Fe0 Ni6 2.450757 1_545
Fe0 Ni5 2.450757 1_554
Fe0 Ni8 2.450757 1_554
Fe0 Ni8 2.450757 1_544
Fe0 Ni5 2.450757 1_454
Fe0 Ni0 2.509489 1_455
Fe0 Ni0 2.509489 1_545
Fe0 Ni0 2.509489 1_555
Fe0 Ni0 2.509489 1_445
Ni0 Ni6 2.450757 1_555
Ni0 Ni3 2.450757 1_555
Ni0 Ni3 2.450757 1_565
Ni0 Ni6 2.450757 1_655
Ni0 Ni8 2.450757 1_654
Ni0 Ni5 2.450757 1_564
Ni0 Ni5 2.450757 1_554
Ni0 Ni8 2.450757 1_554
Ni1 Ni4 2.529201 1_565
Ni1 Ni7 2.529201 1_655
Ni1 Ni4 2.529201 1_555
Ni1 Ni7 2.529201 1_555
Ni1 Ni6 2.538873 1_555
Ni1 Ni3 2.538873 1_565
Ni1 Ni3 2.538873 1_555
Ni1 Ni6 2.538873 1_655
Ni2 Ni4 2.529201 1_555
Ni2 Ni7 2.529201 1_555
Ni2 Ni4 2.529201 1_565
Ni2 Ni7 2.529201 1_655
Ni2 Ni8 2.538873 1_555
Ni2 Ni5 2.538873 1_565
Ni2 Ni8 2.538873 1_655
Ni2 Ni5 2.538873 1_555
Ni3 Ni6 2.509489 1_645
Ni3 Ni6 2.509489 1_555
Ni3 Ni6 2.509489 1_545
Ni3 Ni6 2.509489 1_655
Ni4 Ni7 2.509489 1_655
Ni4 Ni7 2.509489 1_645
Ni4 Ni7 2.509489 1_545
Ni4 Ni7 2.509489 1_555
Ni5 Ni8 2.509489 1_555
Ni5 Ni8 2.509489 1_545
Ni5 Ni8 2.509489 1_645
Ni5 Ni8 2.509489 1_655
