# generated using pymatgen
data_Rb(SnAs)3
_symmetry_space_group_name_H-M   'P 1'
_cell_length_a   4.18649300
_cell_length_b   10.53158300
_cell_length_c   20.00436000
_cell_angle_alpha   90.00000000
_cell_angle_beta   90.00000000
_cell_angle_gamma   90.00000000
_symmetry_Int_Tables_number   1
_chemical_formula_structural   Rb(SnAs)3
_chemical_formula_sum   'Rb4 Sn12 As12'
_cell_volume   882.00020431
_cell_formula_units_Z   4
loop_
 _symmetry_equiv_pos_site_id
 _symmetry_equiv_pos_as_xyz
  1  'x, y, z'
loop_
 _atom_site_type_symbol
 _atom_site_label
 _atom_site_symmetry_multiplicity
 _atom_site_fract_x
 _atom_site_fract_y
 _atom_site_fract_z
 _atom_site_occupancy
  Rb  Rb0  1  0.75000000  0.28812500  0.95992800  1
  Rb  Rb1  1  0.75000000  0.78812600  0.54007200  1
  Rb  Rb2  1  0.25000000  0.71187400  0.04007200  1
  Rb  Rb3  1  0.25000000  0.21187400  0.45992800  1
  Sn  Sn0  1  0.75000000  0.18093400  0.65172500  1
  Sn  Sn1  1  0.75000000  0.68093400  0.84827500  1
  Sn  Sn2  1  0.25000000  0.81906600  0.34827500  1
  Sn  Sn3  1  0.25000000  0.31906600  0.15172500  1
  Sn  Sn4  1  0.75000000  0.10192300  0.25863300  1
  Sn  Sn5  1  0.75000000  0.60192300  0.24136700  1
  Sn  Sn6  1  0.25000000  0.89807700  0.74136700  1
  Sn  Sn7  1  0.25000000  0.39807700  0.75863300  1
  Sn  Sn8  1  0.75000000  0.97850300  0.12432100  1
  Sn  Sn9  1  0.75000000  0.47850300  0.37567900  1
  Sn  Sn10  1  0.25000000  0.02149700  0.87567900  1
  Sn  Sn11  1  0.25000000  0.52149700  0.62432100  1
  As  As0  1  0.75000000  0.47271300  0.12398600  1
  As  As1  1  0.75000000  0.97271300  0.37601400  1
  As  As2  1  0.25000000  0.52728700  0.87601400  1
  As  As3  1  0.25000000  0.02728700  0.62398600  1
  As  As4  1  0.75000000  0.38073500  0.57209300  1
  As  As5  1  0.75000000  0.88073500  0.92790700  1
  As  As6  1  0.25000000  0.61926500  0.42790700  1
  As  As7  1  0.25000000  0.11926500  0.07209300  1
  As  As8  1  0.75000000  0.23708900  0.78145900  1
  As  As9  1  0.75000000  0.73708900  0.71854100  1
  As  As10  1  0.25000000  0.76291100  0.21854100  1
  As  As11  1  0.25000000  0.26291100  0.28145900  1
loop_
_geom_bond_atom_site_label_1
_geom_bond_atom_site_label_2
_geom_bond_distance
_geom_bond_site_symmetry_2
Rb0 Sn10 3.886776 1_555
Rb0 Sn10 3.886776 1_655
Rb1 Sn11 3.886783 1_555
Rb1 Sn11 3.886783 1_655
Rb2 Sn8 3.886783 1_455
Rb2 Sn8 3.886783 1_555
Rb3 Sn9 3.886783 1_555
Rb3 Sn9 3.886783 1_455
Sn4 Sn8 2.984716 1_545
Sn5 Sn9 2.984716 1_555
Sn10 Sn6 2.984716 1_545
Sn11 Sn7 2.984716 1_555
As0 Sn3 2.703330 1_555
As0 Sn3 2.703330 1_655
As0 Sn5 2.713938 1_555
As0 Rb2 3.680164 1_555
As0 Rb2 3.680164 1_655
As0 Rb0 3.814427 1_554
As1 Sn2 2.703330 1_555
As1 Sn2 2.703330 1_655
As1 Sn4 2.713938 1_565
As1 Rb3 3.680164 1_565
As1 Rb3 3.680164 1_665
As1 Rb1 3.814422 1_555
As2 Sn1 2.703330 1_555
As2 Sn1 2.703330 1_455
As2 Sn7 2.713938 1_555
As2 Rb0 3.680171 1_555
As2 Rb0 3.680171 1_455
As2 Rb2 3.814422 1_556
As3 Sn0 2.703330 1_555
As3 Sn0 2.703330 1_455
As3 Sn6 2.713938 1_545
As3 Rb1 3.680164 1_445
As3 Rb1 3.680164 1_545
As3 Rb3 3.814422 1_555
As4 Sn0 2.639196 1_555
As4 Sn11 2.769641 1_655
As4 Sn11 2.769641 1_555
As4 Rb3 3.546672 1_555
As4 Rb3 3.546672 1_655
As5 Sn1 2.639196 1_555
As5 Sn10 2.769641 1_665
As5 Sn10 2.769641 1_565
As5 Rb2 3.546672 1_556
As5 Rb2 3.546672 1_656
As6 Sn2 2.639196 1_555
As6 Sn9 2.769641 1_555
As6 Sn9 2.769641 1_455
As6 Rb1 3.546672 1_455
As6 Rb1 3.546672 1_555
As7 Sn3 2.639196 1_555
As7 Sn8 2.769641 1_445
As7 Sn8 2.769641 1_545
As7 Rb0 3.546667 1_554
As7 Rb0 3.546667 1_454
As8 Sn0 2.661777 1_555
As8 Sn7 2.732172 1_555
As8 Sn7 2.732172 1_655
As8 Rb0 3.610391 1_555
As9 Sn1 2.661777 1_555
As9 Sn6 2.732172 1_655
As9 Sn6 2.732172 1_555
As9 Rb1 3.610393 1_555
As10 Sn2 2.661777 1_555
As10 Sn5 2.732172 1_555
As10 Sn5 2.732172 1_455
As10 Rb2 3.610393 1_555
As11 Sn3 2.661777 1_555
As11 Sn4 2.732172 1_555
As11 Sn4 2.732172 1_455
As11 Rb3 3.610393 1_555
