# generated using pymatgen
data_Sr2V2OF10
_symmetry_space_group_name_H-M   'P 1'
_cell_length_a   10.80665313
_cell_length_b   10.80665313
_cell_length_c   10.78762600
_cell_angle_alpha   90.00000000
_cell_angle_beta   90.00000000
_cell_angle_gamma   137.26534103
_symmetry_Int_Tables_number   1
_chemical_formula_structural   Sr2V2OF10
_chemical_formula_sum   'Sr8 V8 O4 F40'
_cell_volume   854.91864308
_cell_formula_units_Z   4
loop_
 _symmetry_equiv_pos_site_id
 _symmetry_equiv_pos_as_xyz
  1  'x, y, z'
loop_
 _atom_site_type_symbol
 _atom_site_label
 _atom_site_symmetry_multiplicity
 _atom_site_fract_x
 _atom_site_fract_y
 _atom_site_fract_z
 _atom_site_occupancy
  Sr  Sr0  1  0.38156900  0.61843100  0.95567900  1
  Sr  Sr1  1  0.61843100  0.38156900  0.04432100  1
  Sr  Sr2  1  0.11843100  0.88156900  0.45567900  1
  Sr  Sr3  1  0.88156900  0.11843100  0.54432100  1
  Sr  Sr4  1  0.46849800  0.03150200  0.75000000  1
  Sr  Sr5  1  0.53150200  0.96849800  0.25000000  1
  Sr  Sr6  1  0.03150200  0.46849800  0.25000000  1
  Sr  Sr7  1  0.96849800  0.53150200  0.75000000  1
  V  V0  1  0.32855600  0.67144400  0.56569200  1
  V  V1  1  0.67144400  0.32855600  0.43430800  1
  V  V2  1  0.17144400  0.82855600  0.06569200  1
  V  V3  1  0.82855600  0.17144400  0.93430800  1
  V  V4  1  0.28073000  0.21927000  0.75000000  1
  V  V5  1  0.71927000  0.78073000  0.25000000  1
  V  V6  1  0.21927000  0.28073000  0.25000000  1
  V  V7  1  0.78073000  0.71927000  0.75000000  1
  O  O0  1  0.40718200  0.59281800  0.54821800  1
  O  O1  1  0.59281800  0.40718200  0.45178200  1
  O  O2  1  0.09281800  0.90718200  0.04821800  1
  O  O3  1  0.90718200  0.09281800  0.95178200  1
  F  F0  1  0.21844200  0.78155800  0.60400400  1
  F  F1  1  0.78155800  0.21844200  0.39599600  1
  F  F2  1  0.28155800  0.71844200  0.10400400  1
  F  F3  1  0.71844200  0.28155800  0.89599600  1
  F  F4  1  0.19899100  0.80100900  0.89215900  1
  F  F5  1  0.80100900  0.19899100  0.10784100  1
  F  F6  1  0.30100900  0.69899100  0.39215900  1
  F  F7  1  0.69899100  0.30100900  0.60784100  1
  F  F8  1  0.03168500  0.96831500  0.79014900  1
  F  F9  1  0.96831500  0.03168500  0.20985100  1
  F  F10  1  0.46831500  0.53168500  0.29014900  1
  F  F11  1  0.53168500  0.46831500  0.70985100  1
  F  F12  1  0.32112200  0.67887800  0.74613000  1
  F  F13  1  0.67887800  0.32112200  0.25387000  1
  F  F14  1  0.17887800  0.82112200  0.24613000  1
  F  F15  1  0.82112200  0.17887800  0.75387000  1
  F  F16  1  0.76841000  0.83440800  0.62932800  1
  F  F17  1  0.23159000  0.16559200  0.37067200  1
  F  F18  1  0.73159000  0.66559200  0.12932800  1
  F  F19  1  0.66559200  0.73159000  0.87067200  1
  F  F20  1  0.26841000  0.33440800  0.87067200  1
  F  F21  1  0.33440800  0.26841000  0.12932800  1
  F  F22  1  0.83440800  0.76841000  0.37067200  1
  F  F23  1  0.16559200  0.23159000  0.62932800  1
  F  F24  1  0.30515800  0.09811000  0.63784700  1
  F  F25  1  0.69484200  0.90189000  0.36215300  1
  F  F26  1  0.19484200  0.40189000  0.13784700  1
  F  F27  1  0.40189000  0.19484200  0.86215300  1
  F  F28  1  0.80515800  0.59811000  0.86215300  1
  F  F29  1  0.59811000  0.80515800  0.13784700  1
  F  F30  1  0.09811000  0.30515800  0.36215300  1
  F  F31  1  0.90189000  0.69484200  0.63784700  1
  F  F32  1  0.54932300  0.92787800  0.57810100  1
  F  F33  1  0.45067700  0.07212200  0.42189900  1
  F  F34  1  0.95067700  0.57212200  0.07810100  1
  F  F35  1  0.57212200  0.95067700  0.92189900  1
  F  F36  1  0.04932300  0.42787800  0.92189900  1
  F  F37  1  0.42787800  0.04932300  0.07810100  1
  F  F38  1  0.92787800  0.54932300  0.42189900  1
  F  F39  1  0.07212200  0.45067700  0.57810100  1
loop_
_geom_bond_atom_site_label_1
_geom_bond_atom_site_label_2
_geom_bond_distance
_geom_bond_site_symmetry_2
O0 V0 1.593747 1_555
O1 V1 1.593747 1_555
O2 V2 1.593747 1_555
O3 V3 1.593747 1_555
F0 V0 2.254546 1_555
F0 Sr7 2.521144 1_455
F0 Sr4 2.521144 1_565
F0 Sr2 2.571453 1_555
F1 V1 2.254546 1_555
F1 Sr5 2.521144 1_545
F1 Sr6 2.521144 1_655
F1 Sr3 2.571453 1_555
F2 V2 2.254546 1_555
F2 Sr5 2.521144 1_555
F2 Sr6 2.521144 1_555
F2 Sr0 2.571453 1_554
F3 V3 2.254546 1_555
F3 Sr4 2.521144 1_555
F3 Sr7 2.521144 1_555
F3 Sr1 2.571453 1_556
F4 V2 1.952394 1_556
F4 Sr7 2.526194 1_455
F4 Sr4 2.526194 1_565
F5 V3 1.952394 1_554
F5 Sr5 2.526194 1_545
F5 Sr6 2.526194 1_655
F6 V0 1.952394 1_555
F6 Sr5 2.526194 1_555
F6 Sr6 2.526194 1_555
F7 V1 1.952394 1_555
F7 Sr7 2.526194 1_555
F7 Sr4 2.526194 1_555
F8 V4 2.015851 1_565
F8 V7 2.015851 1_455
F9 V6 2.015851 1_655
F9 V5 2.015851 1_545
F10 V5 2.015851 1_555
F10 V6 2.015851 1_555
F11 V7 2.015851 1_555
F11 V4 2.015851 1_555
F12 V0 1.952240 1_555
F12 Sr0 2.567154 1_555
F12 Sr4 2.853783 1_565
F12 Sr7 2.853783 1_455
F13 V1 1.952240 1_555
F13 Sr1 2.567154 1_555
F13 Sr6 2.853783 1_655
F13 Sr5 2.853783 1_545
F14 V2 1.952240 1_555
F14 Sr2 2.567154 1_555
F14 Sr6 2.853783 1_555
F14 Sr5 2.853783 1_555
F15 V3 1.952240 1_555
F15 Sr3 2.567154 1_555
F15 Sr4 2.853783 1_555
F15 Sr7 2.853783 1_555
F16 V7 1.871855 1_555
F16 Sr3 2.498680 1_565
F17 V6 1.871855 1_555
F17 Sr2 2.498680 1_545
F18 V5 1.871855 1_555
F18 Sr1 2.498680 1_555
F19 V7 1.871855 1_555
F19 Sr0 2.498680 1_555
F20 V4 1.871855 1_555
F20 Sr0 2.498680 1_555
F21 V6 1.871855 1_555
F21 Sr1 2.498680 1_555
F22 V5 1.871855 1_555
F22 Sr2 2.498680 1_655
F23 V4 1.871855 1_555
F23 Sr3 2.498680 1_455
F24 V4 1.937930 1_555
F24 Sr2 2.544214 1_545
F24 Sr4 2.638972 1_555
F25 V5 1.937930 1_555
F25 Sr3 2.544214 1_565
F25 Sr5 2.638972 1_555
F26 V6 1.937930 1_555
F26 Sr0 2.544214 1_554
F26 Sr6 2.638972 1_555
F27 V4 1.937930 1_555
F27 Sr1 2.544214 1_556
F27 Sr4 2.638972 1_555
F28 V7 1.937930 1_555
F28 Sr1 2.544214 1_556
F28 Sr7 2.638972 1_555
F29 V5 1.937930 1_555
F29 Sr0 2.544214 1_554
F29 Sr5 2.638972 1_555
F30 V6 1.937930 1_555
F30 Sr3 2.544214 1_455
F30 Sr6 2.638972 1_555
F31 V7 1.937930 1_555
F31 Sr2 2.544214 1_655
F31 Sr7 2.638972 1_555
F32 V0 1.917569 1_555
F32 Sr3 2.530495 1_565
F32 Sr4 2.625360 1_565
F33 V1 1.917569 1_555
F33 Sr2 2.530495 1_545
F33 Sr5 2.625360 1_545
F34 V2 1.917569 1_655
F34 Sr1 2.530495 1_555
F34 Sr6 2.625360 1_655
F35 V3 1.917569 1_565
F35 Sr0 2.530495 1_555
F35 Sr4 2.625360 1_565
F36 V3 1.917569 1_455
F36 Sr0 2.530495 1_555
F36 Sr7 2.625360 1_455
F37 V2 1.917569 1_545
F37 Sr1 2.530495 1_555
F37 Sr5 2.625360 1_545
F38 V1 1.917569 1_555
F38 Sr2 2.530495 1_655
F38 Sr6 2.625360 1_655
F39 V0 1.917569 1_555
F39 Sr3 2.530495 1_455
F39 Sr7 2.625360 1_455
