# generated using pymatgen
data_Ga2Hg3Cl8
_symmetry_space_group_name_H-M   'P 1'
_cell_length_a   15.72874100
_cell_length_b   7.40957200
_cell_length_c   14.87925040
_cell_angle_alpha   82.34443905
_cell_angle_beta   90.00000000
_cell_angle_gamma   90.00000000
_symmetry_Int_Tables_number   1
_chemical_formula_structural   Ga2Hg3Cl8
_chemical_formula_sum   'Ga8 Hg12 Cl32'
_cell_volume   1718.61990665
_cell_formula_units_Z   4
loop_
 _symmetry_equiv_pos_site_id
 _symmetry_equiv_pos_as_xyz
  1  'x, y, z'
loop_
 _atom_site_type_symbol
 _atom_site_label
 _atom_site_symmetry_multiplicity
 _atom_site_fract_x
 _atom_site_fract_y
 _atom_site_fract_z
 _atom_site_occupancy
  Ga  Ga0  1  0.31676100  0.60011400  0.90510900  1
  Ga  Ga1  1  0.81676100  0.39988600  0.59489100  1
  Ga  Ga2  1  0.68323900  0.39988600  0.09489100  1
  Ga  Ga3  1  0.18323900  0.60011400  0.40510900  1
  Ga  Ga4  1  0.89763900  0.80489300  0.22170900  1
  Ga  Ga5  1  0.39763900  0.19510700  0.27829100  1
  Ga  Ga6  1  0.10236100  0.19510700  0.77829100  1
  Ga  Ga7  1  0.60236100  0.80489300  0.72170900  1
  Hg  Hg0  1  0.13689700  0.18455100  0.10890400  1
  Hg  Hg1  1  0.63689700  0.81544900  0.39109600  1
  Hg  Hg2  1  0.86310300  0.81544900  0.89109600  1
  Hg  Hg3  1  0.36310300  0.18455100  0.60890400  1
  Hg  Hg4  1  0.25936600  0.00747000  0.03477500  1
  Hg  Hg5  1  0.75936600  0.99253000  0.46522500  1
  Hg  Hg6  1  0.74063400  0.99253000  0.96522500  1
  Hg  Hg7  1  0.24063400  0.00747000  0.53477500  1
  Hg  Hg8  1  0.02405000  0.36720500  0.19547000  1
  Hg  Hg9  1  0.52405000  0.63279500  0.30453000  1
  Hg  Hg10  1  0.97595000  0.63279500  0.80453000  1
  Hg  Hg11  1  0.47595000  0.36720500  0.69547000  1
  Cl  Cl0  1  0.32961400  0.67592400  0.75913200  1
  Cl  Cl1  1  0.82961400  0.32407600  0.74086800  1
  Cl  Cl2  1  0.67038600  0.32407600  0.24086800  1
  Cl  Cl3  1  0.17038600  0.67592400  0.25913200  1
  Cl  Cl4  1  0.18479100  0.59474300  0.95409200  1
  Cl  Cl5  1  0.68479100  0.40525700  0.54590800  1
  Cl  Cl6  1  0.81520900  0.40525700  0.04590800  1
  Cl  Cl7  1  0.31520900  0.59474300  0.45409200  1
  Cl  Cl8  1  0.37962500  0.82513600  0.97424300  1
  Cl  Cl9  1  0.87962500  0.17486400  0.52575700  1
  Cl  Cl10  1  0.62037500  0.17486400  0.02575700  1
  Cl  Cl11  1  0.12037500  0.82513600  0.47424300  1
  Cl  Cl12  1  0.38906000  0.35601000  0.95403100  1
  Cl  Cl13  1  0.88906000  0.64399000  0.54596900  1
  Cl  Cl14  1  0.61094000  0.64399000  0.04596900  1
  Cl  Cl15  1  0.11094000  0.35601000  0.45403100  1
  Cl  Cl16  1  0.76291000  0.84504100  0.18970000  1
  Cl  Cl17  1  0.26291000  0.15495900  0.31030000  1
  Cl  Cl18  1  0.23709000  0.15495900  0.81030000  1
  Cl  Cl19  1  0.73709000  0.84504100  0.68970000  1
  Cl  Cl20  1  0.91458700  0.51718000  0.29370600  1
  Cl  Cl21  1  0.41458700  0.48282000  0.20629400  1
  Cl  Cl22  1  0.08541300  0.48282000  0.70629400  1
  Cl  Cl23  1  0.58541300  0.51718000  0.79370600  1
  Cl  Cl24  1  0.93740000  0.99199400  0.31517800  1
  Cl  Cl25  1  0.43740000  0.00800600  0.18482200  1
  Cl  Cl26  1  0.06260000  0.00800600  0.68482200  1
  Cl  Cl27  1  0.56260000  0.99199400  0.81517800  1
  Cl  Cl28  1  0.97801000  0.82235300  0.10023200  1
  Cl  Cl29  1  0.47801000  0.17764700  0.39976800  1
  Cl  Cl30  1  0.02199000  0.17764700  0.89976800  1
  Cl  Cl31  1  0.52199000  0.82235300  0.60023200  1
loop_
_geom_bond_atom_site_label_1
_geom_bond_atom_site_label_2
_geom_bond_distance
_geom_bond_site_symmetry_2
Hg0 Hg4 2.652230 1_555
Hg0 Hg8 2.665627 1_555
Hg1 Hg5 2.652230 1_555
Hg1 Hg9 2.665627 1_555
Hg2 Hg6 2.652230 1_555
Hg3 Hg7 2.652230 1_555
Hg10 Hg2 2.665627 1_555
Hg11 Hg3 2.665627 1_555
Cl0 Ga0 2.179228 1_555
Cl1 Ga1 2.179228 1_555
Cl2 Ga2 2.179228 1_555
Cl3 Ga3 2.179228 1_555
Cl4 Ga0 2.198561 1_555
Cl5 Ga1 2.198561 1_555
Cl6 Ga2 2.198561 1_555
Cl7 Ga3 2.198561 1_555
Cl8 Ga0 2.296241 1_555
Cl8 Hg4 2.557052 1_566
Cl9 Ga1 2.296241 1_555
Cl9 Hg5 2.557052 1_545
Cl10 Ga2 2.296241 1_555
Cl10 Hg6 2.557052 1_544
Cl11 Ga3 2.296241 1_555
Cl11 Hg7 2.557052 1_565
Cl12 Ga0 2.177995 1_555
Cl13 Ga1 2.177995 1_555
Cl14 Ga2 2.177995 1_555
Cl15 Ga3 2.177995 1_555
Cl16 Ga4 2.183629 1_555
Cl17 Ga5 2.183629 1_555
Cl18 Ga6 2.183629 1_555
Cl19 Ga7 2.183629 1_555
Cl20 Ga4 2.270438 1_555
Cl20 Hg8 2.601625 1_655
Cl21 Ga5 2.270438 1_555
Cl21 Hg9 2.601625 1_555
Cl22 Ga6 2.270438 1_555
Cl22 Hg10 2.601625 1_455
Cl23 Ga7 2.270438 1_555
Cl23 Hg11 2.601625 1_555
Cl24 Ga4 2.181955 1_555
Cl25 Ga5 2.181955 1_555
Cl26 Ga6 2.181955 1_555
Cl27 Ga7 2.181955 1_555
Cl28 Ga4 2.195331 1_555
Cl29 Ga5 2.195331 1_555
Cl30 Ga6 2.195331 1_555
Cl31 Ga7 2.195331 1_555
