# generated using pymatgen
data_Sr5(CoN3)2
_symmetry_space_group_name_H-M   'P 1'
_cell_length_a   6.10713535
_cell_length_b   6.62630209
_cell_length_c   13.26327814
_cell_angle_alpha   90.00000144
_cell_angle_beta   99.94779025
_cell_angle_gamma   122.85432684
_symmetry_Int_Tables_number   1
_chemical_formula_structural   Sr5(CoN3)2
_chemical_formula_sum   'Sr10 Co4 N12'
_cell_volume   441.24863819
_cell_formula_units_Z   2
loop_
 _symmetry_equiv_pos_site_id
 _symmetry_equiv_pos_as_xyz
  1  'x, y, z'
loop_
 _atom_site_type_symbol
 _atom_site_label
 _atom_site_symmetry_multiplicity
 _atom_site_fract_x
 _atom_site_fract_y
 _atom_site_fract_z
 _atom_site_occupancy
  Sr  Sr0  1  0.12911690  0.80179400  0.99695012  1
  Sr  Sr1  1  0.87088310  0.67267709  0.50304988  1
  Sr  Sr2  1  0.87088310  0.19820600  0.00304988  1
  Sr  Sr3  1  0.12911690  0.32732291  0.49695012  1
  Sr  Sr4  1  0.31772425  0.06613852  0.71932555  1
  Sr  Sr5  1  0.68227575  0.74841328  0.78067445  1
  Sr  Sr6  1  0.68227575  0.93386148  0.28067445  1
  Sr  Sr7  1  0.31772425  0.25158672  0.21932555  1
  Sr  Sr8  1  1.00000000  0.37892640  0.75000000  1
  Sr  Sr9  1  0.00000000  0.62107360  0.25000000  1
  Co  Co0  1  0.54168999  0.89235789  0.56565553  1
  Co  Co1  1  0.45831001  0.35066790  0.93434447  1
  Co  Co2  1  0.45831001  0.10764211  0.43434447  1
  Co  Co3  1  0.54168999  0.64933210  0.06565553  1
  N  N0  1  0.87747980  0.98793962  0.62660746  1
  N  N1  1  0.12252020  0.11045982  0.87339254  1
  N  N2  1  0.12252020  0.01206038  0.37339254  1
  N  N3  1  0.87747980  0.88954018  0.12660746  1
  N  N4  1  0.29768085  0.69146352  0.64225267  1
  N  N5  1  0.70231915  0.39378267  0.85774733  1
  N  N6  1  0.70231915  0.30853648  0.35774733  1
  N  N7  1  0.29768085  0.60621733  0.14225267  1
  N  N8  1  0.56395207  0.21780248  0.56669752  1
  N  N9  1  0.43604793  0.65385041  0.93330248  1
  N  N10  1  0.43604793  0.78219752  0.43330248  1
  N  N11  1  0.56395207  0.34614959  0.06669752  1
loop_
_geom_bond_atom_site_label_1
_geom_bond_atom_site_label_2
_geom_bond_distance
_geom_bond_site_symmetry_2
Co0 N10 1.768715 1_555
Co0 N0 1.810548 1_555
Co0 N4 1.842704 1_555
Co0 N8 2.085756 1_565
Co1 N11 1.768715 1_556
Co1 N1 1.810548 1_555
Co1 N5 1.842704 1_555
Co1 N9 2.085756 1_555
Co2 N8 1.768715 1_555
Co2 N2 1.810548 1_555
Co2 N6 1.842704 1_555
Co2 N10 2.085756 1_545
Co3 N9 1.768715 1_554
Co3 N3 1.810548 1_555
Co3 N7 1.842704 1_555
Co3 N11 2.085756 1_555
N0 Sr4 2.521027 1_665
N0 Sr5 2.627663 1_555
N0 Sr1 2.633841 1_555
N0 Sr8 2.724717 1_565
N0 Sr3 2.745841 1_665
N1 Sr5 2.521029 1_445
N1 Sr4 2.627661 1_555
N1 Sr0 2.633841 1_545
N1 Sr8 2.724717 1_455
N1 Sr2 2.745841 1_456
N2 Sr6 2.521027 1_445
N2 Sr7 2.627663 1_555
N2 Sr3 2.633841 1_555
N2 Sr9 2.724717 1_545
N2 Sr1 2.745841 1_445
N3 Sr7 2.521029 1_665
N3 Sr6 2.627661 1_555
N3 Sr2 2.633841 1_565
N3 Sr9 2.724717 1_655
N3 Sr0 2.745841 1_654
N4 Sr8 2.539452 1_455
N4 Sr5 2.564802 1_555
N4 Sr4 2.617410 1_565
N4 Sr3 2.686142 1_555
N4 Sr1 2.864164 1_455
N5 Sr8 2.539452 1_555
N5 Sr4 2.564799 1_555
N5 Sr5 2.617404 1_555
N5 Sr2 2.686143 1_556
N5 Sr0 2.864164 1_655
N6 Sr9 2.539452 1_655
N6 Sr7 2.564802 1_555
N6 Sr6 2.617410 1_545
N6 Sr1 2.686142 1_555
N6 Sr3 2.864164 1_655
N7 Sr9 2.539452 1_555
N7 Sr6 2.564799 1_555
N7 Sr7 2.617404 1_555
N7 Sr0 2.686143 1_554
N7 Sr2 2.864164 1_455
N8 Sr4 2.604085 1_555
N8 Sr1 2.779892 1_555
N8 Sr8 2.969921 1_555
N8 Sr3 3.110771 1_555
N9 Sr5 2.604085 1_555
N9 Sr0 2.779892 1_555
N9 Sr8 2.969921 1_455
N9 Sr2 3.110771 1_566
N10 Sr6 2.604085 1_555
N10 Sr3 2.779892 1_555
N10 Sr9 2.969921 1_555
N10 Sr1 3.110771 1_555
N11 Sr7 2.604085 1_555
N11 Sr2 2.779892 1_555
N11 Sr9 2.969921 1_655
N11 Sr0 3.110771 1_544
