# generated using pymatgen
data_NaCaAlOF6
_symmetry_space_group_name_H-M   'P 1'
_cell_length_a   5.72049700
_cell_length_b   5.61421500
_cell_length_c   16.41172608
_cell_angle_alpha   88.54451266
_cell_angle_beta   90.00000000
_cell_angle_gamma   90.00000000
_symmetry_Int_Tables_number   1
_chemical_formula_structural   NaCaAlOF6
_chemical_formula_sum   'Na4 Ca4 Al4 O4 F24'
_cell_volume   526.91057970
_cell_formula_units_Z   4
loop_
 _symmetry_equiv_pos_site_id
 _symmetry_equiv_pos_as_xyz
  1  'x, y, z'
loop_
 _atom_site_type_symbol
 _atom_site_label
 _atom_site_symmetry_multiplicity
 _atom_site_fract_x
 _atom_site_fract_y
 _atom_site_fract_z
 _atom_site_occupancy
  Na  Na0  1  0.66216400  0.75085400  0.75126400  1
  Na  Na1  1  0.16216400  0.24914600  0.74873600  1
  Na  Na2  1  0.33783600  0.24914600  0.24873600  1
  Na  Na3  1  0.83783600  0.75085400  0.25126400  1
  Ca  Ca0  1  0.21752300  0.75283000  0.61095500  1
  Ca  Ca1  1  0.71752300  0.24717000  0.88904500  1
  Ca  Ca2  1  0.78247700  0.24717000  0.38904500  1
  Ca  Ca3  1  0.28247700  0.75283000  0.11095500  1
  Al  Al0  1  0.69845300  0.26388800  0.63569900  1
  Al  Al1  1  0.19845300  0.73611200  0.86430100  1
  Al  Al2  1  0.30154700  0.73611200  0.36430100  1
  Al  Al3  1  0.80154700  0.26388800  0.13569900  1
  O  O0  1  0.06695400  0.08508700  0.50485800  1
  O  O1  1  0.56695400  0.91491300  0.99514200  1
  O  O2  1  0.93304600  0.91491300  0.49514200  1
  O  O3  1  0.43304600  0.08508700  0.00485800  1
  F  F0  1  0.97549500  0.43290800  0.62574400  1
  F  F1  1  0.47549500  0.56709200  0.87425600  1
  F  F2  1  0.02450500  0.56709200  0.37425600  1
  F  F3  1  0.52450500  0.43290800  0.12574400  1
  F  F4  1  0.87739000  0.99140800  0.65321700  1
  F  F5  1  0.37739000  0.00859200  0.84678300  1
  F  F6  1  0.12261000  0.00859200  0.34678300  1
  F  F7  1  0.62261000  0.99140800  0.15321700  1
  F  F8  1  0.53469900  0.54174200  0.63504500  1
  F  F9  1  0.03469900  0.45825800  0.86495500  1
  F  F10  1  0.46530100  0.45825800  0.36495500  1
  F  F11  1  0.96530100  0.54174200  0.13504500  1
  F  F12  1  0.43192800  0.08209000  0.65410300  1
  F  F13  1  0.93192800  0.91791000  0.84589700  1
  F  F14  1  0.56807200  0.91791000  0.34589700  1
  F  F15  1  0.06807200  0.08209000  0.15410300  1
  F  F16  1  0.21981600  0.69421600  0.75183900  1
  F  F17  1  0.71981600  0.30578400  0.74816100  1
  F  F18  1  0.78018400  0.30578400  0.24816100  1
  F  F19  1  0.28018400  0.69421600  0.25183900  1
  F  F20  1  0.66190000  0.24972900  0.52691200  1
  F  F21  1  0.16190000  0.75027100  0.97308800  1
  F  F22  1  0.33810000  0.75027100  0.47308800  1
  F  F23  1  0.83810000  0.24972900  0.02691200  1
loop_
_geom_bond_atom_site_label_1
_geom_bond_atom_site_label_2
_geom_bond_distance
_geom_bond_site_symmetry_2
Ca0 F8 2.197502 1_555
Ca0 F0 2.275890 1_455
Ca0 F16 2.327197 1_555
Ca0 F12 2.342936 1_565
Ca0 F22 2.365829 1_555
Ca0 F4 2.471477 1_455
Ca0 O2 2.645954 1_455
Ca0 O0 2.662398 1_565
Ca1 F9 2.197502 1_655
Ca1 F1 2.275890 1_555
Ca1 F17 2.327197 1_555
Ca1 F13 2.342936 1_545
Ca1 F23 2.365829 1_556
Ca1 F5 2.471477 1_555
Ca1 O3 2.645954 1_556
Ca1 O1 2.662398 1_545
Ca2 F10 2.197502 1_555
Ca2 F2 2.275890 1_655
Ca2 F18 2.327197 1_555
Ca2 F14 2.342936 1_545
Ca2 F20 2.365829 1_555
Ca2 F6 2.471477 1_655
Ca2 O0 2.645954 1_655
Ca2 O2 2.662398 1_545
Ca3 F11 2.197502 1_455
Ca3 F3 2.275890 1_555
Ca3 F19 2.327197 1_555
Ca3 F15 2.342936 1_565
Ca3 F21 2.365829 1_554
Ca3 F7 2.471477 1_555
Ca3 O1 2.645954 1_554
Ca3 O3 2.662398 1_565
Al0 F20 1.801345 1_555
Al0 F8 1.819385 1_555
Al0 F0 1.852270 1_555
Al0 F12 1.855229 1_555
Al0 F4 1.856949 1_545
Al0 F17 1.870536 1_555
Al1 F21 1.801345 1_555
Al1 F9 1.819385 1_555
Al1 F1 1.852270 1_555
Al1 F13 1.855229 1_455
Al1 F5 1.856949 1_565
Al1 F16 1.870536 1_555
Al2 F22 1.801345 1_555
Al2 F10 1.819385 1_555
Al2 F2 1.852270 1_555
Al2 F14 1.855229 1_555
Al2 F6 1.856949 1_565
Al2 F19 1.870536 1_555
Al3 F23 1.801345 1_555
Al3 F11 1.819385 1_555
Al3 F3 1.852270 1_555
Al3 F15 1.855229 1_655
Al3 F7 1.856949 1_545
Al3 F18 1.870536 1_555
O0 O2 1.238034 1_445
O1 O3 1.238034 1_566
F0 Na1 2.484601 1_655
F1 Na0 2.484601 1_555
F2 Na3 2.484601 1_455
F3 Na2 2.484601 1_555
F4 Na0 2.412184 1_555
F4 Na1 2.705606 1_665
F5 Na1 2.412184 1_555
F5 Na0 2.705606 1_545
F6 Na2 2.412184 1_555
F6 Na3 2.705606 1_445
F7 Na3 2.412184 1_555
F7 Na2 2.705606 1_565
F8 Na0 2.379435 1_555
F9 Na1 2.379435 1_555
F10 Na2 2.379435 1_555
F11 Na3 2.379435 1_555
F12 Na1 2.397319 1_555
F12 Na0 2.754075 1_545
F13 Na0 2.397319 1_555
F13 Na1 2.754075 1_665
F14 Na3 2.397319 1_555
F14 Na2 2.754075 1_565
F15 Na2 2.397319 1_555
F15 Na3 2.754075 1_445
F16 Na1 2.522185 1_555
F16 Na0 2.550338 1_555
F17 Na0 2.522185 1_555
F17 Na1 2.550338 1_655
F18 Na3 2.522185 1_555
F18 Na2 2.550338 1_555
F19 Na2 2.522185 1_555
F19 Na3 2.550338 1_455
