# generated using pymatgen
data_SrMg
_symmetry_space_group_name_H-M   'P 1'
_cell_length_a   6.01981859
_cell_length_b   6.01981859
_cell_length_c   7.10260100
_cell_angle_alpha   90.00000000
_cell_angle_beta   90.00000000
_cell_angle_gamma   120.00000653
_symmetry_Int_Tables_number   1
_chemical_formula_structural   SrMg
_chemical_formula_sum   'Sr2 Mg2'
_cell_volume   222.90244356
_cell_formula_units_Z   2
loop_
 _symmetry_equiv_pos_site_id
 _symmetry_equiv_pos_as_xyz
  1  'x, y, z'
loop_
 _atom_site_type_symbol
 _atom_site_label
 _atom_site_symmetry_multiplicity
 _atom_site_fract_x
 _atom_site_fract_y
 _atom_site_fract_z
 _atom_site_occupancy
  Sr  Sr0  1  0.33333300  0.66666700  0.25000000  1
  Sr  Sr1  1  0.66666700  0.33333300  0.75000000  1
  Mg  Mg0  1  0.33333300  0.66666700  0.75000000  1
  Mg  Mg1  1  0.66666700  0.33333300  0.25000000  1
loop_
_geom_bond_atom_site_label_1
_geom_bond_atom_site_label_2
_geom_bond_distance
_geom_bond_site_symmetry_2
Mg0 Sr1 3.475540 1_455
Mg0 Sr1 3.475540 1_565
Mg0 Sr1 3.475551 1_555
Mg0 Sr0 3.551300 1_556
Mg0 Sr0 3.551300 1_555
Mg1 Sr0 3.475540 1_545
Mg1 Sr0 3.475540 1_655
Mg1 Sr0 3.475551 1_555
Mg1 Sr1 3.551300 1_554
Mg1 Sr1 3.551300 1_555
