# generated using pymatgen
data_Mg3Nb
_symmetry_space_group_name_H-M   'P 1'
_cell_length_a   5.75496600
_cell_length_b   10.13096800
_cell_length_c   11.24253800
_cell_angle_alpha   90.00000000
_cell_angle_beta   90.00000000
_cell_angle_gamma   90.00000000
_symmetry_Int_Tables_number   1
_chemical_formula_structural   Mg3Nb
_chemical_formula_sum   'Mg24 Nb8'
_cell_volume   655.47792456
_cell_formula_units_Z   8
loop_
 _symmetry_equiv_pos_site_id
 _symmetry_equiv_pos_as_xyz
  1  'x, y, z'
loop_
 _atom_site_type_symbol
 _atom_site_label
 _atom_site_symmetry_multiplicity
 _atom_site_fract_x
 _atom_site_fract_y
 _atom_site_fract_z
 _atom_site_occupancy
  Mg  Mg0_0  1  0.00000000  0.00000000  0.32657050  1
  Mg  Mg0_1  1  0.00000000  0.00000000  0.82657050  1
  Mg  Mg0_2  1  0.00000000  0.50000000  0.32657050  1
  Mg  Mg0_3  1  0.00000000  0.50000000  0.82657050  1
  Mg  Mg0_4  1  0.50000000  0.00000000  0.32657050  1
  Mg  Mg0_5  1  0.50000000  0.00000000  0.82657050  1
  Mg  Mg0_6  1  0.50000000  0.50000000  0.32657050  1
  Mg  Mg0_7  1  0.50000000  0.50000000  0.82657050  1
  Mg  Mg1_0  1  0.00000000  0.25000000  0.16371900  1
  Mg  Mg1_1  1  0.00000000  0.25000000  0.66371900  1
  Mg  Mg1_2  1  0.00000000  0.75000000  0.16371900  1
  Mg  Mg1_3  1  0.00000000  0.75000000  0.66371900  1
  Mg  Mg1_4  1  0.50000000  0.25000000  0.16371900  1
  Mg  Mg1_5  1  0.50000000  0.25000000  0.66371900  1
  Mg  Mg1_6  1  0.50000000  0.75000000  0.16371900  1
  Mg  Mg1_7  1  0.50000000  0.75000000  0.66371900  1
  Mg  Mg2_0  1  0.25000000  0.25000000  0.43202200  1
  Mg  Mg2_1  1  0.25000000  0.25000000  0.93202200  1
  Mg  Mg2_2  1  0.25000000  0.75000000  0.43202200  1
  Mg  Mg2_3  1  0.25000000  0.75000000  0.93202200  1
  Mg  Mg2_4  1  0.75000000  0.25000000  0.43202200  1
  Mg  Mg2_5  1  0.75000000  0.25000000  0.93202200  1
  Mg  Mg2_6  1  0.75000000  0.75000000  0.43202200  1
  Mg  Mg2_7  1  0.75000000  0.75000000  0.93202200  1
  Nb  Nb0_0  1  0.25000000  0.00000000  0.07768850  1
  Nb  Nb0_1  1  0.25000000  0.00000000  0.57768850  1
  Nb  Nb0_2  1  0.25000000  0.50000000  0.07768850  1
  Nb  Nb0_3  1  0.25000000  0.50000000  0.57768850  1
  Nb  Nb0_4  1  0.75000000  0.00000000  0.07768850  1
  Nb  Nb0_5  1  0.75000000  0.00000000  0.57768850  1
  Nb  Nb0_6  1  0.75000000  0.50000000  0.07768850  1
  Nb  Nb0_7  1  0.75000000  0.50000000  0.57768850  1
loop_
_geom_bond_atom_site_label_1
_geom_bond_atom_site_label_2
_geom_bond_distance
_geom_bond_site_symmetry_2
Mg0_0 Mg0_4 2.877483 1_455
Mg0_0 Mg0_4 2.877483 1_555
Mg0_0 Mg1_2 3.125195 1_545
Mg0_0 Mg1_0 3.125195 1_555
Mg0_0 Mg2_6 3.144880 1_445
Mg0_0 Mg2_0 3.144880 1_555
Mg0_0 Mg2_4 3.144880 1_455
Mg0_0 Mg2_2 3.144880 1_545
Mg0_0 Nb0_0 3.146291 1_555
Mg0_0 Nb0_4 3.146291 1_455
Mg0_0 Nb0_1 3.168668 1_555
Mg0_0 Nb0_5 3.168668 1_455
Mg0_1 Mg0_5 2.877483 1_555
Mg0_1 Mg0_5 2.877483 1_455
Mg0_1 Mg1_1 3.125195 1_555
Mg0_1 Mg1_3 3.125195 1_545
Mg0_1 Mg2_7 3.144880 1_445
Mg0_1 Mg2_3 3.144880 1_545
Mg0_1 Mg2_1 3.144880 1_555
Mg0_1 Mg2_5 3.144880 1_455
Mg0_1 Nb0_1 3.146291 1_555
Mg0_1 Nb0_5 3.146291 1_455
Mg0_1 Nb0_4 3.168668 1_456
Mg0_1 Nb0_0 3.168668 1_556
Mg0_2 Mg0_6 2.877483 1_555
Mg0_2 Mg0_6 2.877483 1_455
Mg0_2 Mg1_2 3.125195 1_555
Mg0_2 Mg1_0 3.125195 1_555
Mg0_2 Mg2_0 3.144880 1_555
Mg0_2 Mg2_4 3.144880 1_455
Mg0_2 Mg2_2 3.144880 1_555
Mg0_2 Mg2_6 3.144880 1_455
Mg0_2 Nb0_6 3.146291 1_455
Mg0_2 Nb0_2 3.146291 1_555
Mg0_2 Nb0_3 3.168668 1_555
Mg0_2 Nb0_7 3.168668 1_455
Mg0_3 Mg0_7 2.877483 1_455
Mg0_3 Mg0_7 2.877483 1_555
Mg0_3 Mg1_3 3.125195 1_555
Mg0_3 Mg1_1 3.125195 1_555
Mg0_3 Mg2_7 3.144880 1_455
Mg0_3 Mg2_3 3.144880 1_555
Mg0_3 Mg2_1 3.144880 1_555
Mg0_3 Mg2_5 3.144880 1_455
Mg0_3 Nb0_3 3.146291 1_555
Mg0_3 Nb0_7 3.146291 1_455
Mg0_3 Nb0_2 3.168668 1_556
Mg0_3 Nb0_6 3.168668 1_456
Mg0_4 Mg1_4 3.125195 1_555
Mg0_4 Mg1_6 3.125195 1_545
Mg0_4 Mg2_0 3.144880 1_555
Mg0_4 Mg2_4 3.144880 1_555
Mg0_4 Mg2_6 3.144880 1_545
Mg0_4 Mg2_2 3.144880 1_545
Mg0_4 Nb0_0 3.146291 1_555
Mg0_4 Nb0_4 3.146291 1_555
Mg0_4 Nb0_1 3.168668 1_555
Mg0_4 Nb0_5 3.168668 1_555
Mg0_5 Mg1_7 3.125195 1_545
Mg0_5 Mg1_5 3.125195 1_555
Mg0_5 Mg2_5 3.144880 1_555
Mg0_5 Mg2_3 3.144880 1_545
Mg0_5 Mg2_1 3.144880 1_555
Mg0_5 Mg2_7 3.144880 1_545
Mg0_5 Nb0_1 3.146291 1_555
Mg0_5 Nb0_5 3.146291 1_555
Mg0_5 Nb0_0 3.168668 1_556
Mg0_5 Nb0_4 3.168668 1_556
Mg0_6 Mg1_6 3.125195 1_555
Mg0_6 Mg1_4 3.125195 1_555
Mg0_6 Mg2_6 3.144880 1_555
Mg0_6 Mg2_0 3.144880 1_555
Mg0_6 Mg2_4 3.144880 1_555
Mg0_6 Mg2_2 3.144880 1_555
Mg0_6 Nb0_6 3.146291 1_555
Mg0_6 Nb0_2 3.146291 1_555
Mg0_6 Nb0_3 3.168668 1_555
Mg0_6 Nb0_7 3.168668 1_555
Mg0_7 Mg1_7 3.125195 1_555
Mg0_7 Mg1_5 3.125195 1_555
Mg0_7 Mg2_7 3.144880 1_555
Mg0_7 Mg2_5 3.144880 1_555
Mg0_7 Mg2_3 3.144880 1_555
Mg0_7 Mg2_1 3.144880 1_555
Mg0_7 Nb0_3 3.146291 1_555
Mg0_7 Nb0_7 3.146291 1_555
Mg0_7 Nb0_6 3.168668 1_556
Mg0_7 Nb0_2 3.168668 1_556
Mg1_0 Mg1_4 2.877483 1_455
Mg1_0 Mg1_4 2.877483 1_555
Mg1_0 Mg2_5 2.975783 1_454
Mg1_0 Mg2_1 2.975783 1_554
Mg1_0 Nb0_6 3.069240 1_455
Mg1_0 Nb0_0 3.069240 1_555
Mg1_0 Nb0_4 3.069240 1_455
Mg1_0 Nb0_2 3.069240 1_555
Mg1_0 Mg2_4 3.341958 1_455
Mg1_0 Mg2_0 3.341958 1_555
Mg1_1 Mg1_5 2.877483 1_455
Mg1_1 Mg1_5 2.877483 1_555
Mg1_1 Mg2_0 2.975783 1_555
Mg1_1 Mg2_4 2.975783 1_455
Mg1_1 Nb0_3 3.069240 1_555
Mg1_1 Nb0_7 3.069240 1_455
Mg1_1 Nb0_1 3.069240 1_555
Mg1_1 Nb0_5 3.069240 1_455
Mg1_1 Mg2_5 3.341958 1_455
Mg1_1 Mg2_1 3.341958 1_555
Mg1_2 Mg1_6 2.877483 1_455
Mg1_2 Mg1_6 2.877483 1_555
Mg1_2 Mg2_3 2.975783 1_554
Mg1_2 Mg2_7 2.975783 1_454
Mg1_2 Nb0_6 3.069240 1_455
Mg1_2 Nb0_4 3.069240 1_465
Mg1_2 Nb0_0 3.069240 1_565
Mg1_2 Nb0_2 3.069240 1_555
Mg1_2 Mg2_2 3.341958 1_555
Mg1_2 Mg2_6 3.341958 1_455
Mg1_3 Mg1_7 2.877483 1_555
Mg1_3 Mg1_7 2.877483 1_455
Mg1_3 Mg2_2 2.975783 1_555
Mg1_3 Mg2_6 2.975783 1_455
Mg1_3 Nb0_5 3.069240 1_465
Mg1_3 Nb0_1 3.069240 1_565
Mg1_3 Nb0_3 3.069240 1_555
Mg1_3 Nb0_7 3.069240 1_455
Mg1_3 Mg2_3 3.341958 1_555
Mg1_3 Mg2_7 3.341958 1_455
Mg1_4 Mg2_5 2.975783 1_554
Mg1_4 Mg2_1 2.975783 1_554
Mg1_4 Nb0_0 3.069240 1_555
Mg1_4 Nb0_6 3.069240 1_555
Mg1_4 Nb0_4 3.069240 1_555
Mg1_4 Nb0_2 3.069240 1_555
Mg1_4 Mg2_4 3.341958 1_555
Mg1_4 Mg2_0 3.341958 1_555
Mg1_5 Mg2_0 2.975783 1_555
Mg1_5 Mg2_4 2.975783 1_555
Mg1_5 Nb0_5 3.069240 1_555
Mg1_5 Nb0_3 3.069240 1_555
Mg1_5 Nb0_7 3.069240 1_555
Mg1_5 Nb0_1 3.069240 1_555
Mg1_5 Mg2_1 3.341958 1_555
Mg1_5 Mg2_5 3.341958 1_555
Mg1_6 Mg2_3 2.975783 1_554
Mg1_6 Mg2_7 2.975783 1_554
Mg1_6 Nb0_4 3.069240 1_565
Mg1_6 Nb0_6 3.069240 1_555
Mg1_6 Nb0_0 3.069240 1_565
Mg1_6 Nb0_2 3.069240 1_555
Mg1_6 Mg2_2 3.341958 1_555
Mg1_6 Mg2_6 3.341958 1_555
Mg1_7 Mg2_2 2.975783 1_555
Mg1_7 Mg2_6 2.975783 1_555
Mg1_7 Nb0_1 3.069240 1_565
Mg1_7 Nb0_5 3.069240 1_565
Mg1_7 Nb0_3 3.069240 1_555
Mg1_7 Nb0_7 3.069240 1_555
Mg1_7 Mg2_7 3.341958 1_555
Mg1_7 Mg2_3 3.341958 1_555
Mg2_0 Mg2_4 2.877483 1_555
Mg2_0 Mg2_4 2.877483 1_455
Mg2_0 Nb0_3 3.016076 1_555
Mg2_0 Nb0_1 3.016076 1_555
Mg2_1 Mg2_5 2.877483 1_555
Mg2_1 Mg2_5 2.877483 1_455
Mg2_1 Nb0_0 3.016076 1_556
Mg2_1 Nb0_2 3.016076 1_556
Mg2_2 Mg2_6 2.877483 1_555
Mg2_2 Mg2_6 2.877483 1_455
Mg2_2 Nb0_1 3.016076 1_565
Mg2_2 Nb0_3 3.016076 1_555
Mg2_3 Mg2_7 2.877483 1_455
Mg2_3 Mg2_7 2.877483 1_555
Mg2_3 Nb0_0 3.016076 1_566
Mg2_3 Nb0_2 3.016076 1_556
Mg2_4 Nb0_7 3.016076 1_555
Mg2_4 Nb0_5 3.016076 1_555
Mg2_5 Nb0_6 3.016076 1_556
Mg2_5 Nb0_4 3.016076 1_556
Mg2_6 Nb0_5 3.016076 1_565
Mg2_6 Nb0_7 3.016076 1_555
Mg2_7 Nb0_6 3.016076 1_556
Mg2_7 Nb0_4 3.016076 1_566
Nb0_0 Nb0_4 2.877483 1_555
Nb0_0 Nb0_4 2.877483 1_455
Nb0_1 Nb0_5 2.877483 1_555
Nb0_1 Nb0_5 2.877483 1_455
Nb0_2 Nb0_6 2.877483 1_455
Nb0_2 Nb0_6 2.877483 1_555
Nb0_3 Nb0_7 2.877483 1_555
Nb0_3 Nb0_7 2.877483 1_455
