# generated using pymatgen
data_BaVO3
_symmetry_space_group_name_H-M   'P 1'
_cell_length_a   5.77793000
_cell_length_b   5.77792986
_cell_length_c   11.74099700
_cell_angle_alpha   90.00000000
_cell_angle_beta   90.00000000
_cell_angle_gamma   120.00000080
_symmetry_Int_Tables_number   1
_chemical_formula_structural   BaVO3
_chemical_formula_sum   'Ba5 V5 O15'
_cell_volume   339.45338740
_cell_formula_units_Z   5
loop_
 _symmetry_equiv_pos_site_id
 _symmetry_equiv_pos_as_xyz
  1  'x, y, z'
loop_
 _atom_site_type_symbol
 _atom_site_label
 _atom_site_symmetry_multiplicity
 _atom_site_fract_x
 _atom_site_fract_y
 _atom_site_fract_z
 _atom_site_occupancy
  Ba  Ba0  1  0.66666700  0.33333400  0.59440700  1
  Ba  Ba1  1  0.33333400  0.66666700  0.40559300  1
  Ba  Ba2  1  0.66666700  0.33333400  0.21001500  1
  Ba  Ba3  1  0.33333400  0.66666700  0.78998500  1
  Ba  Ba4  1  0.00000000  0.00000000  0.00000000  1
  V  V0  1  0.00000000  0.00000000  0.50000000  1
  V  V1  1  0.66666700  0.33333400  0.90833500  1
  V  V2  1  0.33333400  0.66666700  0.09166500  1
  V  V3  1  0.00000000  0.00000000  0.27655300  1
  V  V4  1  0.00000000  0.00000000  0.72344600  1
  O  O0  1  0.85001200  0.14998900  0.39947100  1
  O  O1  1  0.85001100  0.70002300  0.39947100  1
  O  O2  1  0.29997600  0.14998900  0.39947100  1
  O  O3  1  0.70002400  0.85001200  0.60052800  1
  O  O4  1  0.14998900  0.29997800  0.60052800  1
  O  O5  1  0.14998800  0.85001200  0.60052800  1
  O  O6  1  0.83358600  0.16641300  0.80022300  1
  O  O7  1  0.83358600  0.66717300  0.80022300  1
  O  O8  1  0.33282600  0.16641300  0.80022300  1
  O  O9  1  0.66717300  0.83358600  0.19977700  1
  O  O10  1  0.50000000  0.00000000  0.00000000  1
  O  O11  1  0.99999900  0.50000000  0.00000000  1
  O  O12  1  0.16641400  0.33282700  0.19977700  1
  O  O13  1  0.16641300  0.83358600  0.19977700  1
  O  O14  1  0.50000100  0.50000000  0.00000000  1
loop_
_geom_bond_atom_site_label_1
_geom_bond_atom_site_label_2
_geom_bond_distance
_geom_bond_site_symmetry_2
Ba0 O5 2.894672 1_655
Ba0 O3 2.894672 1_555
Ba0 O4 2.894675 1_655
Ba0 O4 2.894675 1_555
Ba0 O3 2.894678 1_545
Ba0 O5 2.894678 1_545
Ba0 O1 2.933432 1_555
Ba0 O0 2.933435 1_555
Ba0 O2 2.933438 1_555
Ba0 O7 2.937667 1_555
Ba0 O6 2.937670 1_555
Ba0 O8 2.937673 1_555
Ba1 O1 2.894669 1_555
Ba1 O2 2.894670 1_555
Ba1 O0 2.894675 1_455
Ba1 O0 2.894675 1_565
Ba1 O1 2.894681 1_455
Ba1 O2 2.894681 1_565
Ba1 O4 2.933423 1_555
Ba1 O3 2.933426 1_555
Ba1 O5 2.933429 1_555
Ba1 O9 2.937667 1_555
Ba1 O12 2.937670 1_555
Ba1 O13 2.937670 1_555
Ba2 O1 2.883512 1_555
Ba2 O0 2.883516 1_555
Ba2 O2 2.883519 1_555
Ba2 O13 2.891460 1_655
Ba2 O9 2.891460 1_555
Ba2 O12 2.891463 1_555
Ba2 O12 2.891469 1_655
Ba2 O9 2.891471 1_545
Ba2 O13 2.891471 1_545
Ba2 O11 2.976931 1_555
Ba2 O14 2.976931 1_555
Ba2 O10 2.976936 1_555
Ba3 O4 2.883521 1_555
Ba3 O3 2.883525 1_555
Ba3 O5 2.883528 1_555
Ba3 O6 2.891460 1_565
Ba3 O7 2.891460 1_555
Ba3 O8 2.891466 1_555
Ba3 O8 2.891466 1_565
Ba3 O6 2.891471 1_455
Ba3 O7 2.891472 1_455
Ba3 O10 2.976933 1_566
Ba3 O14 2.976936 1_556
Ba3 O11 2.976939 1_456
Ba4 O8 2.876687 1_554
Ba4 O12 2.876690 1_555
Ba4 O7 2.876690 1_444
Ba4 O9 2.876690 1_445
Ba4 O13 2.876690 1_545
Ba4 O6 2.876690 1_454
Ba4 O14 2.888962 1_445
Ba4 O11 2.888962 1_445
Ba4 O10 2.888965 1_455
Ba4 O10 2.888965 1_555
Ba4 O14 2.888968 1_555
Ba4 O11 2.888968 1_455
O0 V0 1.909513 1_655
O0 V3 2.082276 1_655
O1 V0 1.909513 1_665
O1 V3 2.082276 1_665
O2 V0 1.909509 1_555
O2 V3 2.082273 1_555
O3 V0 1.909502 1_665
O3 V4 2.082273 1_665
O4 V0 1.909510 1_555
O4 V4 2.082280 1_555
O5 V0 1.909502 1_565
O5 V4 2.082273 1_565
O6 V4 1.893723 1_655
O6 V1 2.098031 1_555
O7 V4 1.893723 1_665
O7 V1 2.098027 1_555
O8 V4 1.893718 1_555
O8 V1 2.098035 1_555
O9 V3 1.893717 1_665
O9 V2 2.098027 1_555
O10 V2 1.985025 1_545
O10 V1 1.985029 1_554
O11 V1 1.985021 1_554
O11 V2 1.985033 1_655
O12 V3 1.893717 1_555
O12 V2 2.098031 1_555
O13 V3 1.893717 1_565
O13 V2 2.098031 1_555
O14 V1 1.985021 1_554
O14 V2 1.985029 1_555
