# generated using pymatgen
data_NdCdGa
_symmetry_space_group_name_H-M   'P 1'
_cell_length_a   7.39630314
_cell_length_b   7.39630314
_cell_length_c   4.49593800
_cell_angle_alpha   90.00000000
_cell_angle_beta   90.00000000
_cell_angle_gamma   119.99999554
_symmetry_Int_Tables_number   1
_chemical_formula_structural   NdCdGa
_chemical_formula_sum   'Nd3 Cd3 Ga3'
_cell_volume   213.00037598
_cell_formula_units_Z   3
loop_
 _symmetry_equiv_pos_site_id
 _symmetry_equiv_pos_as_xyz
  1  'x, y, z'
loop_
 _atom_site_type_symbol
 _atom_site_label
 _atom_site_symmetry_multiplicity
 _atom_site_fract_x
 _atom_site_fract_y
 _atom_site_fract_z
 _atom_site_occupancy
  Nd  Nd0  1  0.42064969  0.42064969  0.50000000  1
  Nd  Nd1  1  0.57935031  0.00000000  0.50000000  1
  Nd  Nd2  1  0.00000000  0.57935031  0.50000000  1
  Cd  Cd0  1  0.75289432  0.75289432  -0.00000000  1
  Cd  Cd1  1  0.24710568  0.00000000  0.00000000  1
  Cd  Cd2  1  0.00000000  0.24710568  0.00000000  1
  Ga  Ga0  1  0.66666700  0.33333300  -0.00000000  1
  Ga  Ga1  1  0.33333300  0.66666700  -0.00000000  1
  Ga  Ga2  1  -0.00000000  0.00000000  0.50000000  1
loop_
_geom_bond_atom_site_label_1
_geom_bond_atom_site_label_2
_geom_bond_distance
_geom_bond_site_symmetry_2
Cd0 Ga0 2.838574 1_555
Cd0 Ga1 2.838574 1_555
Cd0 Ga2 2.897195 1_664
Cd0 Ga2 2.897195 1_665
Cd0 Cd1 3.165615 1_665
Cd0 Cd2 3.165615 1_665
Cd0 Nd0 3.330479 1_554
Cd0 Nd0 3.330479 1_555
Cd0 Nd2 3.519558 1_654
Cd0 Nd2 3.519558 1_655
Cd0 Nd1 3.519558 1_564
Cd0 Nd1 3.519558 1_565
Cd1 Ga1 2.838566 1_545
Cd1 Ga0 2.838571 1_555
Cd1 Ga2 2.897195 1_554
Cd1 Ga2 2.897195 1_555
Cd1 Cd2 3.165615 1_555
Cd1 Nd1 3.330479 1_555
Cd1 Nd1 3.330479 1_554
Cd1 Nd0 3.519558 1_555
Cd1 Nd0 3.519558 1_554
Cd1 Nd2 3.519558 1_545
Cd1 Nd2 3.519558 1_544
Cd2 Ga0 2.838566 1_455
Cd2 Ga1 2.838571 1_555
Cd2 Ga2 2.897195 1_554
Cd2 Ga2 2.897195 1_555
Cd2 Nd2 3.330479 1_554
Cd2 Nd2 3.330479 1_555
Cd2 Nd0 3.519558 1_555
Cd2 Nd0 3.519558 1_554
Cd2 Nd1 3.519558 1_454
Cd2 Nd1 3.519558 1_455
Ga0 Nd1 3.155404 1_555
Ga0 Nd1 3.155404 1_554
Ga0 Nd2 3.155406 1_654
Ga0 Nd2 3.155406 1_655
Ga0 Nd0 3.155409 1_554
Ga0 Nd0 3.155409 1_555
Ga1 Nd2 3.155404 1_554
Ga1 Nd2 3.155404 1_555
Ga1 Nd1 3.155406 1_564
Ga1 Nd1 3.155406 1_565
Ga1 Nd0 3.155409 1_554
Ga1 Nd0 3.155409 1_555
Ga2 Nd1 3.111253 1_455
Ga2 Nd2 3.111253 1_545
Ga2 Nd0 3.111253 1_555
