# generated using pymatgen
data_K2NdCl5
_symmetry_space_group_name_H-M   'P 1'
_cell_length_a   7.99707699
_cell_length_b   8.73436541
_cell_length_c   12.77135314
_cell_angle_alpha   90.00000000
_cell_angle_beta   90.00000000
_cell_angle_gamma   90.00000000
_symmetry_Int_Tables_number   1
_chemical_formula_structural   K2NdCl5
_chemical_formula_sum   'K8 Nd4 Cl20'
_cell_volume   892.07126005
_cell_formula_units_Z   4
loop_
 _symmetry_equiv_pos_site_id
 _symmetry_equiv_pos_as_xyz
  1  'x, y, z'
loop_
 _atom_site_type_symbol
 _atom_site_label
 _atom_site_symmetry_multiplicity
 _atom_site_fract_x
 _atom_site_fract_y
 _atom_site_fract_z
 _atom_site_occupancy
  K  K0  1  0.54936556  0.49478445  0.82765740  1
  K  K1  1  0.45063444  0.50521555  0.17234260  1
  K  K2  1  0.04936556  0.50521555  0.67234260  1
  K  K3  1  0.45063444  -0.00521555  0.17234260  1
  K  K4  1  0.95063444  0.49478445  0.32765740  1
  K  K5  1  0.54936556  0.00521555  0.82765740  1
  K  K6  1  0.95063444  0.00521555  0.32765740  1
  K  K7  1  0.04936556  -0.00521555  0.67234260  1
  Nd  Nd0  1  0.57812977  0.75000000  0.50562821  1
  Nd  Nd1  1  0.42187023  0.25000000  0.49437179  1
  Nd  Nd2  1  0.07812977  0.25000000  0.99437179  1
  Nd  Nd3  1  0.92187023  0.75000000  0.00562821  1
  Cl  Cl0  1  0.83329774  0.75000000  0.79432510  1
  Cl  Cl1  1  0.16670226  0.25000000  0.20567490  1
  Cl  Cl2  1  0.33329774  0.25000000  0.70567490  1
  Cl  Cl3  1  0.66670226  0.75000000  0.29432510  1
  Cl  Cl4  1  0.36901229  0.75000000  0.67900811  1
  Cl  Cl5  1  0.63098771  0.25000000  0.32099189  1
  Cl  Cl6  1  0.86901229  0.25000000  0.82099189  1
  Cl  Cl7  1  0.13098771  0.75000000  0.17900811  1
  Cl  Cl8  1  0.92713276  0.75000000  0.50731308  1
  Cl  Cl9  1  0.07286724  0.25000000  0.49268692  1
  Cl  Cl10  1  0.42713276  0.25000000  0.99268692  1
  Cl  Cl11  1  0.57286724  0.75000000  0.00731308  1
  Cl  Cl12  1  0.66490925  0.04339659  0.57910890  1
  Cl  Cl13  1  0.33509075  0.95660341  0.42089110  1
  Cl  Cl14  1  0.16490925  0.95660341  0.92089110  1
  Cl  Cl15  1  0.33509075  0.54339659  0.42089110  1
  Cl  Cl16  1  0.83509075  0.04339659  0.07910890  1
  Cl  Cl17  1  0.66490925  0.45660341  0.57910890  1
  Cl  Cl18  1  0.83509075  0.45660341  0.07910890  1
  Cl  Cl19  1  0.16490925  0.54339659  0.92089110  1
loop_
_geom_bond_atom_site_label_1
_geom_bond_atom_site_label_2
_geom_bond_distance
_geom_bond_site_symmetry_2
Cl0 Nd3 2.790037 1_556
Cl0 K7 3.159727 1_665
Cl0 K2 3.159727 1_655
Cl0 K5 3.210305 1_565
Cl0 K0 3.210305 1_555
Cl1 Nd2 2.790037 1_554
Cl1 K4 3.159727 1_455
Cl1 K6 3.159727 1_455
Cl1 K1 3.210305 1_555
Cl1 K3 3.210305 1_555
Cl2 Nd1 2.790037 1_555
Cl2 K5 3.159727 1_555
Cl2 K0 3.159727 1_555
Cl2 K2 3.210305 1_555
Cl2 K7 3.210305 1_555
Cl3 Nd0 2.790037 1_555
Cl3 K3 3.159727 1_565
Cl3 K1 3.159727 1_555
Cl3 K6 3.210305 1_565
Cl3 K4 3.210305 1_555
Cl4 Nd0 2.774849 1_555
Cl4 K5 3.263961 1_565
Cl4 K0 3.263961 1_555
Cl4 K7 3.333588 1_565
Cl4 K2 3.333588 1_555
Cl5 Nd1 2.774849 1_555
Cl5 K1 3.263961 1_555
Cl5 K3 3.263961 1_555
Cl5 K6 3.333588 1_555
Cl5 K4 3.333588 1_555
Cl6 Nd2 2.774849 1_655
Cl6 K2 3.263961 1_655
Cl6 K7 3.263961 1_655
Cl6 K5 3.333588 1_555
Cl6 K0 3.333588 1_555
Cl7 Nd3 2.774849 1_455
Cl7 K6 3.263961 1_465
Cl7 K4 3.263961 1_455
Cl7 K1 3.333588 1_555
Cl7 K3 3.333588 1_565
Cl8 Nd0 2.791087 1_555
Cl8 K7 3.157358 1_665
Cl8 K2 3.157358 1_655
Cl8 K6 3.204512 1_565
Cl8 K4 3.204512 1_555
Cl9 Nd1 2.791087 1_555
Cl9 K4 3.157358 1_455
Cl9 K6 3.157358 1_455
Cl9 K2 3.204512 1_555
Cl9 K7 3.204512 1_555
Cl10 Nd2 2.791087 1_555
Cl10 K0 3.157358 1_555
Cl10 K5 3.157358 1_555
Cl10 K1 3.204512 1_556
Cl10 K3 3.204512 1_556
Cl11 Nd3 2.791087 1_555
Cl11 K1 3.157358 1_555
Cl11 K3 3.157358 1_565
Cl11 K5 3.204512 1_564
Cl11 K0 3.204512 1_554
Cl12 Nd0 2.815916 1_545
Cl12 Nd1 2.864465 1_555
Cl12 K5 3.322830 1_555
Cl12 K7 3.324276 1_655
Cl13 Nd1 2.815916 1_565
Cl13 Nd0 2.864465 1_555
Cl13 K3 3.322830 1_565
Cl13 K6 3.324276 1_465
Cl14 Nd2 2.815916 1_565
Cl14 Nd3 2.864465 1_456
Cl14 K7 3.322830 1_565
Cl14 K5 3.324276 1_565
Cl15 Nd1 2.815916 1_555
Cl15 Nd0 2.864465 1_555
Cl15 K1 3.322830 1_555
Cl15 K4 3.324276 1_455
Cl16 Nd3 2.815916 1_545
Cl16 Nd2 2.864465 1_654
Cl16 K6 3.322830 1_555
Cl16 K3 3.324276 1_555
Cl17 Nd0 2.815916 1_555
Cl17 Nd1 2.864465 1_555
Cl17 K0 3.322830 1_555
Cl17 K2 3.324276 1_655
Cl18 Nd3 2.815916 1_555
Cl18 Nd2 2.864465 1_654
Cl18 K4 3.322830 1_555
Cl18 K1 3.324276 1_555
Cl19 Nd2 2.815916 1_555
Cl19 Nd3 2.864465 1_456
Cl19 K2 3.322830 1_555
Cl19 K0 3.324276 1_555
