# generated using pymatgen
data_Al3P8NO36
_symmetry_space_group_name_H-M   'P 1'
_cell_length_a   9.93060581
_cell_length_b   9.93060581
_cell_length_c   17.67134193
_cell_angle_alpha   88.68964887
_cell_angle_beta   88.68964887
_cell_angle_gamma   58.85519061
_symmetry_Int_Tables_number   1
_chemical_formula_structural   Al3P8NO36
_chemical_formula_sum   'Al6 P16 N2 O72'
_cell_volume   1490.99247976
_cell_formula_units_Z   2
loop_
 _symmetry_equiv_pos_site_id
 _symmetry_equiv_pos_as_xyz
  1  'x, y, z'
loop_
 _atom_site_type_symbol
 _atom_site_label
 _atom_site_symmetry_multiplicity
 _atom_site_fract_x
 _atom_site_fract_y
 _atom_site_fract_z
 _atom_site_occupancy
  Al  Al0  1  0.23310500  0.19282800  0.26622800  1
  Al  Al1  1  0.76689500  0.80717200  0.73377200  1
  Al  Al2  1  0.80717200  0.76689500  0.23377200  1
  Al  Al3  1  0.19282800  0.23310500  0.76622800  1
  Al  Al4  1  0.67298200  0.32701800  0.25000000  1
  Al  Al5  1  0.32701800  0.67298200  0.75000000  1
  P  P0  1  0.86565500  0.01377300  0.14059800  1
  P  P1  1  0.13434500  0.98622700  0.85940200  1
  P  P2  1  0.98622700  0.13434500  0.35940200  1
  P  P3  1  0.01377300  0.86565500  0.64059800  1
  P  P4  1  0.58540200  0.65220300  0.33252700  1
  P  P5  1  0.41459800  0.34779700  0.66747300  1
  P  P6  1  0.34779700  0.41459800  0.16747300  1
  P  P7  1  0.65220300  0.58540200  0.83252700  1
  P  P8  1  0.46002700  0.91023900  0.15092100  1
  P  P9  1  0.53997300  0.08976100  0.84907900  1
  P  P10  1  0.08976100  0.53997300  0.34907900  1
  P  P11  1  0.91023900  0.46002700  0.65092100  1
  P  P12  1  0.57412100  0.09431400  0.31824500  1
  P  P13  1  0.42587900  0.90568600  0.68175500  1
  P  P14  1  0.90568600  0.42587900  0.18175500  1
  P  P15  1  0.09431400  0.57412100  0.81824500  1
  N  N0  1  0.23248200  0.76751800  0.25000000  1
  N  N1  1  0.76751800  0.23248200  0.75000000  1
  O  O0  1  0.29589400  0.09864800  0.51984400  1
  O  O1  1  0.70410600  0.90135200  0.48015600  1
  O  O2  1  0.90135200  0.70410600  0.98015600  1
  O  O3  1  0.09864800  0.29589400  0.01984400  1
  O  O4  1  0.33654100  0.28246100  0.20380700  1
  O  O5  1  0.66345900  0.71753900  0.79619300  1
  O  O6  1  0.71753900  0.66345900  0.29619300  1
  O  O7  1  0.28246100  0.33654100  0.70380700  1
  O  O8  1  0.57912700  0.24188200  0.31957300  1
  O  O9  1  0.42087300  0.75811800  0.68042700  1
  O  O10  1  0.75811800  0.42087300  0.18042700  1
  O  O11  1  0.24188200  0.57912700  0.81957300  1
  O  O12  1  0.51993100  0.25847500  0.03299300  1
  O  O13  1  0.48006900  0.74152500  0.96700700  1
  O  O14  1  0.74152500  0.48006900  0.46700700  1
  O  O15  1  0.25847500  0.51993100  0.53299300  1
  O  O16  1  0.14341100  0.10695400  0.32954100  1
  O  O17  1  0.85658900  0.89304600  0.67045900  1
  O  O18  1  0.89304600  0.85658900  0.17045900  1
  O  O19  1  0.10695400  0.14341100  0.82954100  1
  O  O20  1  0.62062900  0.86935700  0.18061000  1
  O  O21  1  0.37937100  0.13064300  0.81939000  1
  O  O22  1  0.13064300  0.37937100  0.31939000  1
  O  O23  1  0.86935700  0.62062900  0.68061000  1
  O  O24  1  0.80337500  0.03503100  0.05597000  1
  O  O25  1  0.19662500  0.96496900  0.94403000  1
  O  O26  1  0.96496900  0.19662500  0.44403000  1
  O  O27  1  0.03503100  0.80337500  0.55597000  1
  O  O28  1  0.42511100  0.98991800  0.07140200  1
  O  O29  1  0.57488900  0.01008200  0.92859800  1
  O  O30  1  0.01008200  0.57488900  0.42859800  1
  O  O31  1  0.98991800  0.42511100  0.57140200  1
  O  O32  1  0.62762100  0.03908300  0.45815100  1
  O  O33  1  0.37237900  0.96091700  0.54184900  1
  O  O34  1  0.96091700  0.37237900  0.04184900  1
  O  O35  1  0.03908300  0.62762100  0.95815100  1
  O  O36  1  0.42093600  0.10263100  0.32881100  1
  O  O37  1  0.57906400  0.89736900  0.67118900  1
  O  O38  1  0.89736900  0.57906400  0.17118900  1
  O  O39  1  0.10263100  0.42093600  0.82881100  1
  O  O40  1  0.48639200  0.42536000  0.19057400  1
  O  O41  1  0.51360800  0.57464000  0.80942600  1
  O  O42  1  0.57464000  0.51360800  0.30942600  1
  O  O43  1  0.42536000  0.48639200  0.69057400  1
  O  O44  1  0.64881500  0.24342600  0.03227800  1
  O  O45  1  0.35118500  0.75657400  0.96772200  1
  O  O46  1  0.75657400  0.35118500  0.46772100  1
  O  O47  1  0.24342600  0.64881500  0.53227800  1
  O  O48  1  0.32918000  0.01520200  0.20706300  1
  O  O49  1  0.67082000  0.98479800  0.79293700  1
  O  O50  1  0.98479800  0.67082000  0.29293700  1
  O  O51  1  0.01520200  0.32918000  0.70706300  1
  O  O52  1  0.72072000  0.94177500  0.30333800  1
  O  O53  1  0.27928000  0.05822500  0.69666200  1
  O  O54  1  0.05822500  0.27928000  0.19666200  1
  O  O55  1  0.94177500  0.72072000  0.80333800  1
  O  O56  1  0.45781800  0.76073700  0.13084800  1
  O  O57  1  0.54218200  0.23926300  0.86915200  1
  O  O58  1  0.23926300  0.54218200  0.36915200  1
  O  O59  1  0.76073700  0.45781800  0.63084800  1
  O  O60  1  0.47923000  0.76264700  0.39015200  1
  O  O61  1  0.52077000  0.23735300  0.60984800  1
  O  O62  1  0.23735300  0.52076900  0.10984800  1
  O  O63  1  0.76264700  0.47923100  0.89015200  1
  O  O64  1  0.01997300  0.00993300  0.12055200  1
  O  O65  1  0.98002700  0.99006700  0.87944800  1
  O  O66  1  0.99006700  0.98002700  0.37944800  1
  O  O67  1  0.00993300  0.01997300  0.62055200  1
  O  O68  1  0.74981900  0.15043700  0.18992900  1
  O  O69  1  0.25018100  0.84956300  0.81007100  1
  O  O70  1  0.84956300  0.25018100  0.31007100  1
  O  O71  1  0.15043700  0.74981900  0.68992900  1
loop_
_geom_bond_atom_site_label_1
_geom_bond_atom_site_label_2
_geom_bond_distance
_geom_bond_site_symmetry_2
Al0 O48 1.847361 1_555
Al0 O22 1.853560 1_555
Al0 O16 1.862494 1_555
Al0 O54 1.942013 1_555
Al0 O36 1.955871 1_555
Al0 O4 1.978177 1_555
Al1 O49 1.847361 1_555
Al1 O23 1.853560 1_555
Al1 O17 1.862494 1_555
Al1 O55 1.942013 1_555
Al1 O37 1.955871 1_555
Al1 O5 1.978177 1_555
Al2 O50 1.847361 1_555
Al2 O20 1.853560 1_555
Al2 O18 1.862494 1_555
Al2 O52 1.942013 1_555
Al2 O38 1.955871 1_555
Al2 O6 1.978177 1_555
Al3 O51 1.847361 1_555
Al3 O21 1.853560 1_555
Al3 O19 1.862494 1_555
Al3 O53 1.942013 1_555
Al3 O39 1.955871 1_555
Al3 O7 1.978177 1_555
Al4 O70 1.856897 1_555
Al4 O68 1.856897 1_555
Al4 O42 1.913166 1_555
Al4 O40 1.913166 1_555
Al4 O10 1.951969 1_555
Al4 O8 1.951969 1_555
Al5 O69 1.856897 1_555
Al5 O71 1.856897 1_555
Al5 O41 1.913166 1_555
Al5 O43 1.913166 1_555
Al5 O9 1.951969 1_555
Al5 O11 1.951969 1_555
O0 O33 1.230218 1_545
O1 O32 1.230218 1_565
O2 O35 1.230218 1_655
O3 O34 1.230218 1_455
O4 P6 1.502174 1_555
O5 P7 1.502174 1_555
O6 P4 1.502174 1_555
O7 P5 1.502174 1_555
O8 P12 1.492488 1_555
O9 P13 1.492488 1_555
O10 P14 1.492488 1_555
O11 P15 1.492488 1_555
O12 O44 1.209181 1_555
O13 O45 1.209181 1_555
O14 O46 1.209181 1_555
O15 O47 1.209181 1_555
O16 P2 1.522710 1_455
O17 P3 1.522710 1_655
O18 P0 1.522710 1_565
O19 P1 1.522710 1_545
O20 P8 1.530509 1_555
O21 P9 1.530509 1_555
O22 P10 1.530509 1_555
O23 P11 1.530509 1_555
O24 P0 1.598868 1_555
O24 O44 1.875627 1_555
O25 P1 1.598868 1_555
O25 O45 1.875627 1_555
O26 P2 1.598868 1_555
O26 O46 1.875624 1_555
O27 P3 1.598868 1_555
O27 O47 1.875627 1_555
O28 P8 1.551954 1_555
O29 P9 1.551954 1_555
O30 P10 1.551954 1_555
O31 P11 1.551954 1_555
O36 P12 1.487798 1_555
O37 P13 1.487798 1_555
O38 P14 1.487798 1_555
O39 P15 1.487798 1_555
O40 P6 1.500735 1_555
O41 P7 1.500735 1_555
O42 P4 1.500735 1_555
O43 P5 1.500735 1_555
O48 P8 1.531827 1_545
O49 P9 1.531827 1_565
O50 P10 1.531827 1_655
O51 P11 1.531827 1_455
O52 P12 1.484247 1_565
O53 P13 1.484247 1_545
O54 P14 1.484247 1_455
O55 P15 1.484247 1_655
O56 P8 1.545512 1_555
O57 P9 1.545512 1_555
O58 P10 1.545512 1_555
O59 P11 1.545512 1_555
O60 P4 1.468787 1_555
O61 P5 1.468787 1_555
O62 P6 1.468784 1_555
O63 P7 1.468784 1_555
O64 P0 1.546205 1_455
O65 P1 1.546205 1_655
O66 P2 1.546205 1_565
O67 P3 1.546205 1_545
O68 P0 1.522636 1_555
O69 P1 1.522636 1_555
O70 P2 1.522636 1_555
O71 P3 1.522636 1_555
