# generated using pymatgen
data_Ca8P6H12O29
_symmetry_space_group_name_H-M   'P 1'
_cell_length_a   6.87854356
_cell_length_b   9.66644865
_cell_length_c   19.22839806
_cell_angle_alpha   80.42262406
_cell_angle_beta   87.34651410
_cell_angle_gamma   89.87909875
_symmetry_Int_Tables_number   1
_chemical_formula_structural   Ca8P6H12O29
_chemical_formula_sum   'Ca16 P12 H24 O58'
_cell_volume   1259.32486574
_cell_formula_units_Z   2
loop_
 _symmetry_equiv_pos_site_id
 _symmetry_equiv_pos_as_xyz
  1  'x, y, z'
loop_
 _atom_site_type_symbol
 _atom_site_label
 _atom_site_symmetry_multiplicity
 _atom_site_fract_x
 _atom_site_fract_y
 _atom_site_fract_z
 _atom_site_occupancy
  Ca  Ca0  1  0.76269400  0.65173800  0.89184600  1
  Ca  Ca1  1  0.23730600  0.34826200  0.10815400  1
  Ca  Ca2  1  0.02242200  0.32414900  0.63230800  1
  Ca  Ca3  1  0.97757800  0.67585100  0.36769200  1
  Ca  Ca4  1  0.00612100  0.27592100  0.92831000  1
  Ca  Ca5  1  0.99387900  0.72407900  0.07169000  1
  Ca  Ca6  1  0.53045400  0.53117300  0.63382700  1
  Ca  Ca7  1  0.46954600  0.46882700  0.36617300  1
  Ca  Ca8  1  0.26085200  0.90842800  0.88535500  1
  Ca  Ca9  1  0.73914800  0.09157200  0.11464500  1
  Ca  Ca10  1  0.76981500  0.09091000  0.78064500  1
  Ca  Ca11  1  0.23018500  0.90909000  0.21935500  1
  Ca  Ca12  1  0.50449200  0.26151800  0.92924300  1
  Ca  Ca13  1  0.49550800  0.73848200  0.07075700  1
  Ca  Ca14  1  0.27601200  0.53796500  0.79698800  1
  Ca  Ca15  1  0.72398800  0.46203500  0.20301200  1
  P  P0  1  0.25802200  0.59592300  0.95690200  1
  P  P1  1  0.74197800  0.40407700  0.04309800  1
  P  P2  1  0.24144400  0.82365000  0.70096800  1
  P  P3  1  0.75855600  0.17635000  0.29903200  1
  P  P4  1  0.27830800  0.22608700  0.76507200  1
  P  P5  1  0.72169200  0.77391300  0.23492800  1
  P  P6  1  0.26962400  0.61378800  0.50808100  1
  P  P7  1  0.73037600  0.38621200  0.49191900  1
  P  P8  1  0.75826800  0.98596400  0.94377900  1
  P  P9  1  0.24173200  0.01403600  0.05622100  1
  P  P10  1  0.77636000  0.43227100  0.79277000  1
  P  P11  1  0.22364000  0.56772900  0.20723000  1
  H  H0  1  0.86015100  0.77684800  0.64982000  1
  H  H1  1  0.13984900  0.22315200  0.35018000  1
  H  H2  1  0.93828100  0.01812000  0.65387300  1
  H  H3  1  0.06171900  0.98188000  0.34612700  1
  H  H4  1  0.31293100  0.09795100  0.59897100  1
  H  H5  1  0.68706900  0.90204900  0.40102900  1
  H  H6  1  0.75501500  0.07028500  0.61457500  1
  H  H7  1  0.24498500  0.92971500  0.38542500  1
  H  H8  1  0.93678400  0.82664300  0.77552600  1
  H  H9  1  0.06321600  0.17335700  0.22447400  1
  H  H10  1  0.41780800  0.01572800  0.70778800  1
  H  H11  1  0.58219200  0.98427200  0.29221200  1
  H  H12  1  0.99097300  0.69854100  0.54436700  1
  H  H13  1  0.00902700  0.30145900  0.45563300  1
  H  H14  1  0.37376300  0.23790400  0.54566200  1
  H  H15  1  0.62623700  0.76209600  0.45433800  1
  H  H16  1  0.79509000  0.07866900  0.49900600  1
  H  H17  1  0.20491000  0.92133100  0.50099400  1
  H  H18  1  0.75499700  0.91740900  0.51024500  1
  H  H19  1  0.24500300  0.08259100  0.48975500  1
  H  H20  1  0.73755500  0.78961500  0.74606800  1
  H  H21  1  0.26244500  0.21038500  0.25393200  1
  H  H22  1  0.63659500  0.81328400  0.64067000  1
  H  H23  1  0.36340500  0.18671600  0.35933000  1
  O  O0  1  0.26707600  0.24742800  0.84432800  1
  O  O1  1  0.73292400  0.75257200  0.15567200  1
  O  O2  1  0.46681500  0.67920600  0.51723900  1
  O  O3  1  0.53318500  0.32079400  0.48276100  1
  O  O4  1  0.32181800  0.68157900  0.68739700  1
  O  O5  1  0.67818200  0.31842100  0.31260300  1
  O  O6  1  0.41054800  0.93782900  0.67619800  1
  O  O7  1  0.58945200  0.06217100  0.32380200  1
  O  O8  1  0.08391200  0.16974800  0.74408000  1
  O  O9  1  0.91608800  0.83025200  0.25592000  1
  O  O10  1  0.22538100  0.49415200  0.56969800  1
  O  O11  1  0.77461900  0.50584800  0.43030200  1
  O  O12  1  0.94141200  0.00111700  0.89227900  1
  O  O13  1  0.05858800  0.99888300  0.10772100  1
  O  O14  1  0.05996900  0.86923700  0.66073200  1
  O  O15  1  0.94003100  0.13076300  0.33926800  1
  O  O16  1  0.43449800  0.68951700  0.92481900  1
  O  O17  1  0.56550200  0.31048300  0.07518100  1
  O  O18  1  0.20015800  0.81060100  0.78277400  1
  O  O19  1  0.79984200  0.18939900  0.21722600  1
  O  O20  1  0.44184400  0.11808600  0.75600900  1
  O  O21  1  0.55815600  0.88191400  0.24399100  1
  O  O22  1  0.75365400  0.84213300  0.99354200  1
  O  O23  1  0.24634600  0.15786700  0.00645800  1
  O  O24  1  0.79227700  0.41904200  0.71428100  1
  O  O25  1  0.20772300  0.58095800  0.28571900  1
  O  O26  1  0.31862800  0.37185200  0.71839100  1
  O  O27  1  0.68137200  0.62814800  0.28160900  1
  O  O28  1  0.73844700  0.00065600  0.53282100  1
  O  O29  1  0.26155300  0.99934400  0.46717900  1
  O  O30  1  0.10085000  0.73330100  0.51224100  1
  O  O31  1  0.89915000  0.26669900  0.48775900  1
  O  O32  1  0.24631800  0.57796200  0.43361400  1
  O  O33  1  0.75368200  0.42203800  0.56638600  1
  O  O34  1  0.83569400  0.09390200  0.65235300  1
  O  O35  1  0.16430600  0.90609800  0.34764700  1
  O  O36  1  0.60015900  0.52173000  0.81207100  1
  O  O37  1  0.39984100  0.47827000  0.18792900  1
  O  O38  1  0.26434300  0.18922600  0.57679000  1
  O  O39  1  0.73565700  0.81077400  0.42321000  1
  O  O40  1  0.26191800  0.45313800  0.93022000  1
  O  O41  1  0.73808200  0.54686200  0.06978000  1
  O  O42  1  0.07088300  0.67991800  0.93625700  1
  O  O43  1  0.92911700  0.32008200  0.06374300  1
  O  O44  1  0.95485500  0.50189200  0.82047800  1
  O  O45  1  0.04514500  0.49810800  0.17952200  1
  O  O46  1  0.57493500  0.00637600  0.89859900  1
  O  O47  1  0.42506500  0.99362400  0.10140100  1
  O  O48  1  0.76074200  0.10943600  0.98712600  1
  O  O49  1  0.23925800  0.89056400  0.01287400  1
  O  O50  1  0.26371900  0.57246800  0.03893600  1
  O  O51  1  0.73628100  0.42753200  0.96106400  1
  O  O52  1  0.79239500  0.82992400  0.78535000  1
  O  O53  1  0.20760500  0.17007600  0.21465000  1
  O  O54  1  0.75605300  0.28251800  0.83938600  1
  O  O55  1  0.24394700  0.71748200  0.16061400  1
  O  O56  1  0.72517100  0.73505700  0.65483100  1
  O  O57  1  0.27482900  0.26494300  0.34516900  1
loop_
_geom_bond_atom_site_label_1
_geom_bond_atom_site_label_2
_geom_bond_distance
_geom_bond_site_symmetry_2
Ca0 O51 2.349668 1_555
Ca0 O42 2.354747 1_655
Ca0 O16 2.360664 1_555
Ca0 O36 2.447130 1_555
Ca0 O52 2.447619 1_555
Ca0 O44 2.492751 1_555
Ca0 O22 2.898398 1_555
Ca1 O50 2.349668 1_555
Ca1 O43 2.354747 1_455
Ca1 O17 2.360664 1_555
Ca1 O37 2.447130 1_555
Ca1 O53 2.447619 1_555
Ca1 O45 2.492751 1_555
Ca1 O23 2.898398 1_555
Ca2 O10 2.300999 1_555
Ca2 O33 2.393672 1_455
Ca2 O38 2.428863 1_555
Ca2 O8 2.457568 1_555
Ca2 O24 2.464928 1_455
Ca2 O34 2.536270 1_455
Ca2 O26 2.770184 1_555
Ca3 O11 2.300999 1_555
Ca3 O32 2.393672 1_655
Ca3 O39 2.428863 1_555
Ca3 O9 2.457568 1_555
Ca3 O25 2.464928 1_655
Ca3 O35 2.536270 1_655
Ca3 O27 2.770184 1_555
Ca4 O0 2.404804 1_555
Ca4 O23 2.437622 1_556
Ca4 O48 2.438617 1_455
Ca4 O40 2.464029 1_555
Ca4 O54 2.474276 1_455
Ca4 O51 2.485360 1_455
Ca4 O43 2.735996 1_456
Ca4 O44 2.784273 1_455
Ca4 O12 2.894894 1_455
Ca5 O1 2.404804 1_555
Ca5 O22 2.437622 1_554
Ca5 O49 2.438617 1_655
Ca5 O41 2.464029 1_555
Ca5 O55 2.474276 1_655
Ca5 O50 2.485360 1_655
Ca5 O42 2.735996 1_654
Ca5 O45 2.784273 1_655
Ca5 O13 2.894894 1_655
Ca6 O33 2.327293 1_555
Ca6 O4 2.363693 1_555
Ca6 O26 2.468927 1_555
Ca6 O56 2.483405 1_555
Ca6 O2 2.507125 1_555
Ca6 O10 2.538054 1_555
Ca6 O24 2.550154 1_555
Ca7 O32 2.327293 1_555
Ca7 O5 2.363693 1_555
Ca7 O27 2.468927 1_555
Ca7 O57 2.483405 1_555
Ca7 O3 2.507125 1_555
Ca7 O11 2.538054 1_555
Ca7 O25 2.550154 1_555
Ca8 O12 2.377570 1_465
Ca8 O18 2.378602 1_555
Ca8 O46 2.401787 1_565
Ca8 O49 2.426852 1_556
Ca8 O16 2.453418 1_555
Ca8 O42 2.592097 1_555
Ca9 O13 2.377570 1_645
Ca9 O19 2.378602 1_555
Ca9 O47 2.401787 1_545
Ca9 O48 2.426852 1_554
Ca9 O17 2.453418 1_555
Ca9 O43 2.592097 1_555
Ca10 O54 2.323951 1_555
Ca10 O8 2.330449 1_655
Ca10 O20 2.331913 1_555
Ca10 O34 2.482809 1_555
Ca10 O52 2.514074 1_545
Ca10 O12 2.522800 1_555
Ca10 O46 2.591364 1_555
Ca11 O55 2.323951 1_555
Ca11 O9 2.330449 1_455
Ca11 O21 2.331913 1_555
Ca11 O35 2.482809 1_555
Ca11 O53 2.514074 1_565
Ca11 O13 2.522800 1_555
Ca11 O47 2.591364 1_555
Ca12 O54 2.372480 1_555
Ca12 O23 2.372692 1_556
Ca12 O0 2.381866 1_555
Ca12 O51 2.433009 1_555
Ca12 O48 2.476497 1_555
Ca12 O40 2.492193 1_555
Ca12 O46 2.667733 1_555
Ca13 O55 2.372480 1_555
Ca13 O22 2.372692 1_554
Ca13 O1 2.381866 1_555
Ca13 O50 2.433009 1_555
Ca13 O49 2.476497 1_555
Ca13 O41 2.492193 1_555
Ca13 O47 2.667733 1_555
Ca14 O44 2.250366 1_455
Ca14 O36 2.263487 1_555
Ca14 O4 2.331082 1_555
Ca14 O26 2.390145 1_555
Ca14 O40 2.554037 1_555
Ca14 O18 2.657086 1_555
Ca14 O0 2.804405 1_555
Ca15 O45 2.250366 1_655
Ca15 O37 2.263487 1_555
Ca15 O5 2.331082 1_555
Ca15 O27 2.390145 1_555
Ca15 O41 2.554037 1_555
Ca15 O19 2.657086 1_555
Ca15 O1 2.804405 1_555
H0 O56 1.007409 1_555
H0 O14 1.680766 1_655
H1 O57 1.007409 1_555
H1 O15 1.680766 1_455
H2 O34 1.013912 1_555
H2 O14 1.652638 1_645
H3 O35 1.013912 1_555
H3 O15 1.652638 1_465
H4 O38 0.979185 1_555
H5 O39 0.979185 1_555
H6 O34 0.990357 1_555
H7 O35 0.990357 1_555
H8 O52 1.003791 1_555
H9 O53 1.003791 1_555
H10 O6 1.045776 1_545
H10 O20 1.478584 1_555
H11 O7 1.045776 1_565
H11 O21 1.478584 1_555
H12 O30 0.976981 1_655
H13 O31 0.976981 1_455
H14 O38 1.006087 1_555
H14 O3 1.692867 1_555
H15 O39 1.006087 1_555
H15 O2 1.692867 1_555
H16 O28 0.978712 1_555
H17 O29 0.978712 1_555
H18 O28 0.979912 1_565
H19 O29 0.979912 1_545
H20 O52 0.994775 1_555
H21 O53 0.994775 1_555
H22 O56 0.980848 1_555
H23 O57 0.980848 1_555
O0 P4 1.569918 1_555
O1 P5 1.569918 1_555
O2 P6 1.527568 1_555
O3 P7 1.527568 1_555
O4 P2 1.537025 1_555
O5 P3 1.537025 1_555
O6 P2 1.605373 1_555
O7 P3 1.605373 1_555
O8 P4 1.540685 1_555
O9 P5 1.540685 1_555
O10 P6 1.531637 1_555
O11 P7 1.531637 1_555
O12 P8 1.557590 1_545
O13 P9 1.557590 1_565
O14 P2 1.524671 1_555
O15 P3 1.524671 1_555
O16 P0 1.556347 1_555
O17 P1 1.556347 1_555
O18 P2 1.569602 1_555
O19 P3 1.569602 1_555
O20 P4 1.556626 1_555
O21 P5 1.556626 1_555
O22 P8 1.550584 1_555
O23 P9 1.550584 1_555
O24 P10 1.534581 1_555
O25 P11 1.534581 1_555
O26 P4 1.557471 1_555
O27 P5 1.557471 1_555
O30 P6 1.644769 1_555
O31 P7 1.644769 1_555
O32 P6 1.543505 1_555
O33 P7 1.543505 1_555
O36 P10 1.554095 1_555
O37 P11 1.554095 1_555
O40 P0 1.550214 1_555
O41 P1 1.550214 1_555
O42 P0 1.552246 1_555
O43 P1 1.552246 1_555
O44 P10 1.558073 1_555
O45 P11 1.558073 1_555
O46 P8 1.557970 1_545
O47 P9 1.557970 1_565
O48 P8 1.565873 1_545
O49 P9 1.565873 1_565
O50 P0 1.558126 1_554
O51 P1 1.558126 1_556
O54 P10 1.573511 1_555
O55 P11 1.573511 1_555
