# generated using pymatgen
data_Sr2NbN3
_symmetry_space_group_name_H-M   'P 1'
_cell_length_a   6.39319268
_cell_length_b   6.39319268
_cell_length_c   12.61111035
_cell_angle_alpha   88.73249036
_cell_angle_beta   88.73249036
_cell_angle_gamma   123.46605507
_symmetry_Int_Tables_number   1
_chemical_formula_structural   Sr2NbN3
_chemical_formula_sum   'Sr8 Nb4 N12'
_cell_volume   429.52794487
_cell_formula_units_Z   4
loop_
 _symmetry_equiv_pos_site_id
 _symmetry_equiv_pos_as_xyz
  1  'x, y, z'
loop_
 _atom_site_type_symbol
 _atom_site_label
 _atom_site_symmetry_multiplicity
 _atom_site_fract_x
 _atom_site_fract_y
 _atom_site_fract_z
 _atom_site_occupancy
  Sr  Sr0  1  0.61297822  0.84420239  0.57738881  1
  Sr  Sr1  1  0.05829048  0.46212722  0.35805015  1
  Sr  Sr2  1  0.46212722  0.05829048  0.85805015  1
  Sr  Sr3  1  0.94170952  0.53787278  0.64194985  1
  Sr  Sr4  1  0.38702178  0.15579761  0.42261119  1
  Sr  Sr5  1  0.84420239  0.61297822  0.07738881  1
  Sr  Sr6  1  0.15579761  0.38702178  0.92261119  1
  Sr  Sr7  1  0.53787278  0.94170952  0.14194985  1
  Nb  Nb0  1  0.23104534  0.23378468  0.16325438  1
  Nb  Nb1  1  0.76621532  0.76895466  0.33674562  1
  Nb  Nb2  1  0.76895466  0.76621532  0.83674562  1
  Nb  Nb3  1  0.23378468  0.23104534  0.66325438  1
  N  N0  1  0.49547506  0.50452494  0.25000000  1
  N  N1  1  0.50452494  0.49547506  0.75000000  1
  N  N2  1  0.09029403  0.90970597  0.25000000  1
  N  N3  1  0.90970597  0.09029403  0.75000000  1
  N  N4  1  0.67501289  -0.00017292  0.37590571  1
  N  N5  1  0.00017292  0.32498711  0.12409429  1
  N  N6  1  0.32498711  0.00017292  0.62409429  1
  N  N7  1  -0.00017292  0.67501289  0.87590571  1
  N  N8  1  0.38616775  0.19943805  0.04002969  1
  N  N9  1  0.19943805  0.38616775  0.54002969  1
  N  N10  1  0.61383225  0.80056195  0.95997031  1
  N  N11  1  0.80056195  0.61383225  0.45997031  1
loop_
_geom_bond_atom_site_label_1
_geom_bond_atom_site_label_2
_geom_bond_distance
_geom_bond_site_symmetry_2
N0 Nb1 1.997265 1_555
N0 Nb0 1.997265 1_555
N0 Sr5 2.864177 1_555
N0 Sr4 2.864177 1_555
N0 Sr7 2.953287 1_555
N0 Sr1 2.953287 1_555
N1 Nb2 1.997265 1_555
N1 Nb3 1.997265 1_555
N1 Sr0 2.864177 1_555
N1 Sr6 2.864177 1_555
N1 Sr3 2.953287 1_555
N1 Sr2 2.953287 1_555
N2 Nb1 2.024646 1_455
N2 Nb0 2.024646 1_565
N2 Sr5 2.802696 1_455
N2 Sr4 2.802696 1_565
N2 Sr1 3.042372 1_555
N2 Sr7 3.042372 1_555
N3 Nb2 2.024646 1_545
N3 Nb3 2.024646 1_655
N3 Sr6 2.802696 1_655
N3 Sr0 2.802696 1_545
N3 Sr3 3.042372 1_555
N3 Sr2 3.042372 1_555
N4 Nb1 1.931620 1_545
N4 Sr4 2.595000 1_555
N4 Sr1 2.597923 1_655
N4 Sr0 2.647996 1_545
N4 Sr7 3.068476 1_545
N5 Nb0 1.931620 1_555
N5 Sr5 2.595000 1_455
N5 Sr7 2.597923 1_445
N5 Sr6 2.647996 1_554
N5 Sr1 3.068476 1_555
N6 Nb3 1.931620 1_555
N6 Sr0 2.595000 1_545
N6 Sr3 2.597923 1_445
N6 Sr4 2.647996 1_555
N6 Sr2 3.068476 1_555
N7 Nb2 1.931620 1_455
N7 Sr6 2.595000 1_555
N7 Sr2 2.597923 1_565
N7 Sr5 2.647996 1_456
N7 Sr3 3.068476 1_455
N8 Nb0 1.906239 1_555
N8 Sr2 2.615837 1_554
N8 Sr7 2.651721 1_545
N8 Sr5 2.713756 1_555
N8 Sr6 2.786751 1_554
N9 Nb3 1.906239 1_555
N9 Sr1 2.615837 1_555
N9 Sr3 2.651721 1_455
N9 Sr0 2.713756 1_555
N9 Sr4 2.786751 1_555
N10 Nb2 1.906239 1_555
N10 Sr7 2.615837 1_556
N10 Sr2 2.651721 1_565
N10 Sr6 2.713756 1_555
N10 Sr5 2.786751 1_556
N11 Nb1 1.906239 1_555
N11 Sr3 2.615837 1_555
N11 Sr1 2.651721 1_655
N11 Sr4 2.713756 1_555
N11 Sr0 2.786751 1_555
