# generated using pymatgen
data_Mg2Si3
_symmetry_space_group_name_H-M   'P 1'
_cell_length_a   4.48833500
_cell_length_b   5.27500199
_cell_length_c   16.57400043
_cell_angle_alpha   87.31036192
_cell_angle_beta   86.82728532
_cell_angle_gamma   67.36337703
_symmetry_Int_Tables_number   1
_chemical_formula_structural   Mg2Si3
_chemical_formula_sum   'Mg8 Si12'
_cell_volume   361.48148082
_cell_formula_units_Z   4
loop_
 _symmetry_equiv_pos_site_id
 _symmetry_equiv_pos_as_xyz
  1  'x, y, z'
loop_
 _atom_site_type_symbol
 _atom_site_label
 _atom_site_symmetry_multiplicity
 _atom_site_fract_x
 _atom_site_fract_y
 _atom_site_fract_z
 _atom_site_occupancy
  Mg  Mg0  1  0.90692900  0.22711400  0.69989000  1
  Mg  Mg1  1  0.09307100  0.77288600  0.30011000  1
  Mg  Mg2  1  0.58187000  0.82185800  0.59662900  1
  Mg  Mg3  1  0.41813000  0.17814200  0.40337100  1
  Mg  Mg4  1  0.41119000  0.21501100  0.19970200  1
  Mg  Mg5  1  0.58881000  0.78498900  0.80029800  1
  Mg  Mg6  1  0.08548900  0.81268600  0.09761100  1
  Mg  Mg7  1  0.91451100  0.18731400  0.90238900  1
  Si  Si0  1  0.87555900  0.23240300  0.52576700  1
  Si  Si1  1  0.70534400  0.60427700  0.42403700  1
  Si  Si2  1  0.29465600  0.39572300  0.57596300  1
  Si  Si3  1  0.12444100  0.76759700  0.47423300  1
  Si  Si4  1  0.63768700  0.65605700  0.19481000  1
  Si  Si5  1  0.36231300  0.34394300  0.80519000  1
  Si  Si6  1  0.37473900  0.23454300  0.02427000  1
  Si  Si7  1  0.62526100  0.76545700  0.97573000  1
  Si  Si8  1  0.79920000  0.38401700  0.07582400  1
  Si  Si9  1  0.20080000  0.61598300  0.92417600  1
  Si  Si10  1  0.13218700  0.66892800  0.69462400  1
  Si  Si11  1  0.86781300  0.33107200  0.30537600  1
loop_
_geom_bond_atom_site_label_1
_geom_bond_atom_site_label_2
_geom_bond_distance
_geom_bond_site_symmetry_2
Mg0 Si10 2.724389 1_645
Mg0 Si5 2.805345 1_555
Mg0 Si10 2.871637 1_655
Mg0 Si0 2.895428 1_555
Mg0 Si2 2.943236 1_655
Mg0 Si5 3.011422 1_655
Mg1 Si11 2.724389 1_465
Mg1 Si4 2.805345 1_555
Mg1 Si11 2.871637 1_455
Mg1 Si3 2.895428 1_555
Mg1 Si1 2.943236 1_455
Mg1 Si4 3.011422 1_455
Mg2 Si2 2.808981 1_565
Mg2 Si10 2.851291 1_555
Mg2 Si10 2.859530 1_655
Mg2 Si3 3.016391 1_655
Mg2 Si2 3.030471 1_555
Mg2 Si3 3.062707 1_555
Mg2 Si1 3.074109 1_555
Mg2 Si0 3.097460 1_565
Mg2 Si0 3.130732 1_555
Mg2 Si2 3.133761 1_655
Mg3 Si1 2.808981 1_545
Mg3 Si11 2.851291 1_555
Mg3 Si11 2.859530 1_455
Mg3 Si0 3.016391 1_455
Mg3 Si1 3.030471 1_555
Mg3 Si0 3.062707 1_555
Mg3 Si2 3.074109 1_555
Mg3 Si3 3.097460 1_545
Mg3 Si3 3.130732 1_555
Mg3 Si1 3.133761 1_455
Mg4 Si4 2.727560 1_545
Mg4 Si11 2.805145 1_455
Mg4 Si4 2.871673 1_555
Mg4 Si6 2.916015 1_555
Mg4 Si8 2.944599 1_555
Mg4 Si11 3.017705 1_555
Mg5 Si5 2.727560 1_565
Mg5 Si10 2.805145 1_655
Mg5 Si5 2.871673 1_555
Mg5 Si7 2.916015 1_555
Mg5 Si9 2.944599 1_555
Mg5 Si10 3.017705 1_555
Mg6 Si8 2.798672 1_465
Mg6 Si4 2.848241 1_455
Mg6 Si4 2.856807 1_555
Mg6 Si7 3.008814 1_554
Mg6 Si8 3.042911 1_455
Mg6 Si9 3.051094 1_554
Mg6 Si7 3.052032 1_454
Mg6 Si6 3.096647 1_555
Mg6 Si8 3.142907 1_555
Mg6 Si6 3.148061 1_565
Mg7 Si9 2.798672 1_645
Mg7 Si5 2.848241 1_655
Mg7 Si5 2.856807 1_555
Mg7 Si6 3.008814 1_556
Mg7 Si9 3.042911 1_655
Mg7 Si8 3.051094 1_556
Mg7 Si6 3.052032 1_656
Mg7 Si7 3.096647 1_555
Mg7 Si9 3.142907 1_555
Mg7 Si7 3.148061 1_545
Si0 Si1 2.439894 1_555
Si0 Si3 2.443679 1_645
Si0 Si2 2.516025 1_555
Si0 Si2 2.541776 1_655
Si1 Si11 2.403090 1_555
Si1 Si3 2.516025 1_555
Si1 Si3 2.541776 1_655
Si2 Si3 2.439894 1_555
Si4 Si8 2.404252 1_555
Si5 Si9 2.404252 1_555
Si6 Si7 2.445263 1_544
Si6 Si9 2.455823 1_554
Si6 Si8 2.505157 1_455
Si6 Si8 2.526066 1_555
Si7 Si8 2.455823 1_556
Si7 Si9 2.505157 1_655
Si7 Si9 2.526066 1_555
Si10 Si2 2.403090 1_555
Si10 Si5 2.432173 1_555
Si11 Si4 2.432173 1_555
