# generated using pymatgen
data_MgO
_symmetry_space_group_name_H-M   'P 1'
_cell_length_a   20.05688641
_cell_length_b   20.05688641
_cell_length_c   20.05688677
_cell_angle_alpha   8.56341659
_cell_angle_beta   8.56341659
_cell_angle_gamma   8.56341897
_symmetry_Int_Tables_number   1
_chemical_formula_structural   MgO
_chemical_formula_sum   'Mg8 O8'
_cell_volume   155.21783803
_cell_formula_units_Z   8
loop_
 _symmetry_equiv_pos_site_id
 _symmetry_equiv_pos_as_xyz
  1  'x, y, z'
loop_
 _atom_site_type_symbol
 _atom_site_label
 _atom_site_symmetry_multiplicity
 _atom_site_fract_x
 _atom_site_fract_y
 _atom_site_fract_z
 _atom_site_occupancy
  Mg  Mg0  1  0.37560600  0.37560600  0.37560600  1
  Mg  Mg1  1  0.62439400  0.62439400  0.62439400  1
  Mg  Mg2  1  0.79227100  0.79227100  0.79227100  1
  Mg  Mg3  1  0.20772900  0.20772900  0.20772900  1
  Mg  Mg4  1  0.91544000  0.91544000  0.91544000  1
  Mg  Mg5  1  0.08456000  0.08456000  0.08456000  1
  Mg  Mg6  1  0.50000000  0.50000000  0.50000000  1
  Mg  Mg7  1  0.00000000  0.00000000  0.00000000  1
  O  O0  1  0.14613500  0.14613500  0.14613500  1
  O  O1  1  0.85386500  0.85386500  0.85386500  1
  O  O2  1  0.43841700  0.43841700  0.43841700  1
  O  O3  1  0.56158300  0.56158300  0.56158300  1
  O  O4  1  0.31287500  0.31287500  0.31287500  1
  O  O5  1  0.68712500  0.68712500  0.68712500  1
  O  O6  1  0.26923600  0.26923600  0.26923600  1
  O  O7  1  0.73076400  0.73076400  0.73076400  1
loop_
_geom_bond_atom_site_label_1
_geom_bond_atom_site_label_2
_geom_bond_distance
_geom_bond_site_symmetry_2
Mg0 O5 2.167924 1_554
Mg0 O5 2.167924 1_545
Mg0 O5 2.167924 1_455
Mg0 O7 2.168298 1_554
Mg0 O7 2.168298 1_455
Mg0 O7 2.168298 1_545
Mg1 O4 2.167924 1_556
Mg1 O4 2.167924 1_655
Mg1 O4 2.167924 1_565
Mg1 O6 2.168298 1_556
Mg1 O6 2.168298 1_655
Mg1 O6 2.168298 1_565
Mg2 O2 2.122047 1_556
Mg2 O2 2.122047 1_565
Mg2 O2 2.122047 1_655
Mg2 O0 2.122394 1_665
Mg2 O0 2.122395 1_656
Mg2 O0 2.122395 1_566
Mg3 O3 2.122047 1_554
Mg3 O3 2.122047 1_455
Mg3 O3 2.122047 1_545
Mg3 O1 2.122394 1_445
Mg3 O1 2.122395 1_454
Mg3 O1 2.122395 1_544
Mg4 O6 2.120033 1_665
Mg4 O6 2.120034 1_656
Mg4 O6 2.120034 1_566
Mg4 O3 2.122151 1_556
Mg4 O3 2.122152 1_565
Mg4 O3 2.122152 1_655
Mg5 O7 2.120033 1_445
Mg5 O7 2.120034 1_544
Mg5 O7 2.120034 1_454
Mg5 O2 2.122151 1_554
Mg5 O2 2.122152 1_545
Mg5 O2 2.122152 1_455
Mg6 O1 2.122429 1_554
Mg6 O0 2.122429 1_556
Mg6 O1 2.122430 1_545
Mg6 O1 2.122430 1_455
Mg6 O0 2.122430 1_655
Mg6 O0 2.122430 1_565
Mg7 O5 2.119883 1_445
Mg7 O4 2.119883 1_554
Mg7 O4 2.119883 1_545
Mg7 O5 2.119883 1_454
Mg7 O5 2.119883 1_544
Mg7 O4 2.119883 1_455
