# generated using pymatgen
data_CaTiCuO4
_symmetry_space_group_name_H-M   'P 1'
_cell_length_a   3.93274200
_cell_length_b   3.93274200
_cell_length_c   10.79162800
_cell_angle_alpha   90.00000000
_cell_angle_beta   90.00000000
_cell_angle_gamma   90.00000000
_symmetry_Int_Tables_number   1
_chemical_formula_structural   CaTiCuO4
_chemical_formula_sum   'Ca2 Ti2 Cu2 O8'
_cell_volume   166.90827890
_cell_formula_units_Z   2
loop_
 _symmetry_equiv_pos_site_id
 _symmetry_equiv_pos_as_xyz
  1  'x, y, z'
loop_
 _atom_site_type_symbol
 _atom_site_label
 _atom_site_symmetry_multiplicity
 _atom_site_fract_x
 _atom_site_fract_y
 _atom_site_fract_z
 _atom_site_occupancy
  Ca  Ca0  1  0.75000000  0.75000000  0.12659500  1
  Ca  Ca1  1  0.25000000  0.25000000  0.87340500  1
  Ti  Ti0  1  0.75000000  0.75000000  0.74508500  1
  Ti  Ti1  1  0.25000000  0.25000000  0.25491500  1
  Cu  Cu0  1  0.25000000  0.75000000  0.50000000  1
  Cu  Cu1  1  0.75000000  0.25000000  0.50000000  1
  O  O0  1  0.75000000  0.75000000  0.91488400  1
  O  O1  1  0.25000000  0.25000000  0.08511600  1
  O  O2  1  0.75000000  0.75000000  0.52989100  1
  O  O3  1  0.25000000  0.25000000  0.47010900  1
  O  O4  1  0.75000000  0.25000000  0.73772700  1
  O  O5  1  0.25000000  0.75000000  0.73772700  1
  O  O6  1  0.25000000  0.75000000  0.26227300  1
  O  O7  1  0.75000000  0.25000000  0.26227300  1
loop_
_geom_bond_atom_site_label_1
_geom_bond_atom_site_label_2
_geom_bond_distance
_geom_bond_site_symmetry_2
Ca0 O0 2.284706 1_554
Ca0 O6 2.451623 1_655
Ca0 O7 2.451623 1_555
Ca0 O7 2.451623 1_565
Ca0 O6 2.451623 1_555
Ca0 O1 2.816664 1_555
Ca0 O1 2.816664 1_565
Ca0 O1 2.816664 1_655
Ca0 O1 2.816664 1_665
Ca1 O1 2.284706 1_556
Ca1 O4 2.451623 1_455
Ca1 O4 2.451623 1_555
Ca1 O5 2.451623 1_555
Ca1 O5 2.451623 1_545
Ca1 O0 2.816664 1_545
Ca1 O0 2.816664 1_555
Ca1 O0 2.816664 1_445
Ca1 O0 2.816664 1_455
Cu0 O3 1.992653 1_565
Cu0 O2 1.992653 1_455
Cu0 O2 1.992653 1_555
Cu0 O3 1.992653 1_555
Cu0 O5 2.565461 1_555
Cu0 O6 2.565461 1_555
Cu1 O2 1.992653 1_545
Cu1 O3 1.992653 1_655
Cu1 O2 1.992653 1_555
Cu1 O3 1.992653 1_555
Cu1 O7 2.565461 1_555
Cu1 O4 2.565461 1_555
O0 Ti0 1.832408 1_555
O1 Ti1 1.832408 1_555
O2 Ti0 2.322294 1_555
O3 Ti1 2.322294 1_555
O4 Ti0 1.967974 1_545
O4 Ti0 1.967974 1_555
O5 Ti0 1.967974 1_455
O5 Ti0 1.967974 1_555
O6 Ti1 1.967974 1_555
O6 Ti1 1.967974 1_565
O7 Ti1 1.967974 1_555
O7 Ti1 1.967974 1_655
