# generated using pymatgen
data_Mg(InS2)2
_symmetry_space_group_name_H-M   'P 1'
_cell_length_a   12.40551200
_cell_length_b   7.43596100
_cell_length_c   12.69222700
_cell_angle_alpha   90.00000000
_cell_angle_beta   90.00000000
_cell_angle_gamma   90.00000000
_symmetry_Int_Tables_number   1
_chemical_formula_structural   Mg(InS2)2
_chemical_formula_sum   'Mg8 In16 S32'
_cell_volume   1170.81863822
_cell_formula_units_Z   8
loop_
 _symmetry_equiv_pos_site_id
 _symmetry_equiv_pos_as_xyz
  1  'x, y, z'
loop_
 _atom_site_type_symbol
 _atom_site_label
 _atom_site_symmetry_multiplicity
 _atom_site_fract_x
 _atom_site_fract_y
 _atom_site_fract_z
 _atom_site_occupancy
  Mg  Mg0  1  0.11076000  0.37729400  0.69580400  1
  Mg  Mg1  1  0.88924000  0.62270600  0.19580400  1
  Mg  Mg2  1  0.38924000  0.37729400  0.19580400  1
  Mg  Mg3  1  0.61076000  0.62270600  0.69580400  1
  Mg  Mg4  1  0.12750400  0.87921100  0.31771800  1
  Mg  Mg5  1  0.87249600  0.12078900  0.81771800  1
  Mg  Mg6  1  0.37249600  0.87921100  0.81771800  1
  Mg  Mg7  1  0.62750400  0.12078900  0.31771800  1
  In  In0  1  0.10431400  0.88175400  0.68290200  1
  In  In1  1  0.89568600  0.11824600  0.18290200  1
  In  In2  1  0.39568600  0.88175400  0.18290200  1
  In  In3  1  0.60431400  0.11824600  0.68290200  1
  In  In4  1  0.12612500  0.38012600  0.32616700  1
  In  In5  1  0.87387500  0.61987400  0.82616700  1
  In  In6  1  0.37387500  0.38012600  0.82616700  1
  In  In7  1  0.62612500  0.61987400  0.32616700  1
  In  In8  1  0.14238900  0.62955400  0.97240200  1
  In  In9  1  0.85761100  0.37044600  0.47240200  1
  In  In10  1  0.35761100  0.62955400  0.47240200  1
  In  In11  1  0.64238900  0.37044600  0.97240200  1
  In  In12  1  0.14057300  0.12298600  0.98309300  1
  In  In13  1  0.85942700  0.87701400  0.48309300  1
  In  In14  1  0.35942700  0.12298600  0.48309300  1
  In  In15  1  0.64057300  0.87701400  0.98309300  1
  S  S0  1  0.01778800  0.88046500  0.87235000  1
  S  S1  1  0.98221200  0.11953500  0.37235000  1
  S  S2  1  0.48221200  0.88046500  0.37235000  1
  S  S3  1  0.51778800  0.11953500  0.87235000  1
  S  S4  1  0.02811600  0.38571400  0.14797600  1
  S  S5  1  0.97188400  0.61428600  0.64797600  1
  S  S6  1  0.47188400  0.38571400  0.64797600  1
  S  S7  1  0.52811600  0.61428600  0.14797600  1
  S  S8  1  0.02103600  0.36938500  0.88296000  1
  S  S9  1  0.97896400  0.63061500  0.38296000  1
  S  S10  1  0.47896400  0.36938500  0.38296000  1
  S  S11  1  0.52103600  0.63061500  0.88296000  1
  S  S12  1  0.04101700  0.87800000  0.13402700  1
  S  S13  1  0.95898300  0.12200000  0.63402700  1
  S  S14  1  0.45898300  0.87800000  0.63402700  1
  S  S15  1  0.54101700  0.12200000  0.13402700  1
  S  S16  1  0.21280300  0.87704500  0.50825100  1
  S  S17  1  0.78719700  0.12295500  0.00825100  1
  S  S18  1  0.28719700  0.87704500  0.00825100  1
  S  S19  1  0.71280300  0.12295500  0.50825100  1
  S  S20  1  0.21967400  0.37705700  0.51736300  1
  S  S21  1  0.78032600  0.62294300  0.01736300  1
  S  S22  1  0.28032600  0.37705700  0.01736300  1
  S  S23  1  0.71967400  0.62294300  0.51736300  1
  S  S24  1  0.23243400  0.12849300  0.77768600  1
  S  S25  1  0.76756600  0.87150700  0.27768600  1
  S  S26  1  0.26756600  0.12849300  0.27768600  1
  S  S27  1  0.73243400  0.87150700  0.77768600  1
  S  S28  1  0.23559200  0.63058400  0.77830300  1
  S  S29  1  0.76440800  0.36941600  0.27830300  1
  S  S30  1  0.26440800  0.63058400  0.27830300  1
  S  S31  1  0.73559200  0.36941600  0.77830300  1
loop_
_geom_bond_atom_site_label_1
_geom_bond_atom_site_label_2
_geom_bond_distance
_geom_bond_site_symmetry_2
Mg0 S5 2.538151 1_455
Mg0 S24 2.604078 1_555
Mg0 S8 2.623936 1_555
Mg0 S20 2.637223 1_555
Mg0 S28 2.653674 1_555
Mg0 S13 2.786351 1_455
Mg1 S4 2.538151 1_655
Mg1 S25 2.604078 1_555
Mg1 S9 2.623936 1_555
Mg1 S21 2.637223 1_555
Mg1 S29 2.653674 1_555
Mg1 S12 2.786351 1_655
Mg2 S7 2.538151 1_555
Mg2 S26 2.604078 1_555
Mg2 S10 2.623936 1_555
Mg2 S22 2.637223 1_555
Mg2 S30 2.653674 1_555
Mg2 S15 2.786351 1_555
Mg3 S6 2.538151 1_555
Mg3 S27 2.604078 1_555
Mg3 S11 2.623936 1_555
Mg3 S23 2.637223 1_555
Mg3 S31 2.653674 1_555
Mg3 S14 2.786351 1_555
Mg4 S30 2.559823 1_555
Mg4 S12 2.566491 1_555
Mg4 S26 2.590990 1_565
Mg4 S1 2.631167 1_465
Mg4 S16 2.639719 1_555
Mg4 S9 2.738326 1_455
Mg5 S31 2.559823 1_555
Mg5 S13 2.566491 1_555
Mg5 S27 2.590990 1_545
Mg5 S0 2.631167 1_645
Mg5 S17 2.639719 1_556
Mg5 S8 2.738326 1_655
Mg6 S28 2.559823 1_555
Mg6 S14 2.566491 1_555
Mg6 S24 2.590990 1_565
Mg6 S3 2.631167 1_565
Mg6 S18 2.639719 1_556
Mg6 S11 2.738326 1_555
Mg7 S29 2.559823 1_555
Mg7 S15 2.566491 1_555
Mg7 S25 2.590990 1_545
Mg7 S2 2.631167 1_545
Mg7 S19 2.639719 1_555
Mg7 S10 2.738326 1_555
In0 S16 2.593525 1_555
In0 S13 2.612799 1_465
In0 S5 2.617470 1_455
In0 S0 2.633245 1_555
In0 S24 2.709190 1_565
In0 S28 2.758019 1_555
In1 S17 2.593525 1_555
In1 S12 2.612799 1_645
In1 S4 2.617470 1_655
In1 S1 2.633245 1_555
In1 S25 2.709190 1_545
In1 S29 2.758019 1_555
In2 S18 2.593525 1_555
In2 S15 2.612799 1_565
In2 S7 2.617470 1_555
In2 S2 2.633245 1_555
In2 S26 2.709190 1_565
In2 S30 2.758019 1_555
In3 S19 2.593525 1_555
In3 S14 2.612799 1_545
In3 S6 2.617470 1_555
In3 S3 2.633245 1_555
In3 S27 2.709190 1_545
In3 S31 2.758019 1_555
In4 S4 2.568081 1_555
In4 S30 2.603924 1_555
In4 S26 2.637909 1_555
In4 S20 2.690023 1_555
In4 S1 2.699220 1_455
In4 S9 2.705885 1_455
In5 S5 2.568081 1_555
In5 S31 2.603924 1_555
In5 S27 2.637909 1_555
In5 S21 2.690023 1_556
In5 S0 2.699220 1_655
In5 S8 2.705885 1_655
In6 S6 2.568081 1_555
In6 S28 2.603924 1_555
In6 S24 2.637909 1_555
In6 S22 2.690023 1_556
In6 S3 2.699220 1_555
In6 S11 2.705885 1_555
In7 S7 2.568081 1_555
In7 S29 2.603924 1_555
In7 S25 2.637909 1_555
In7 S23 2.690023 1_555
In7 S2 2.699220 1_555
In7 S10 2.705885 1_555
In8 S22 2.603652 1_556
In8 S18 2.611699 1_556
In8 S8 2.701442 1_555
In8 S28 2.721397 1_555
In8 S0 2.735505 1_555
In8 S12 3.033590 1_556
In9 S23 2.603652 1_555
In9 S19 2.611699 1_555
In9 S9 2.701442 1_555
In9 S29 2.721397 1_555
In9 S1 2.735505 1_555
In9 S13 3.033590 1_555
In10 S20 2.603652 1_555
In10 S16 2.611699 1_555
In10 S10 2.701442 1_555
In10 S30 2.721397 1_555
In10 S2 2.735505 1_555
In10 S14 3.033590 1_555
In11 S21 2.603652 1_556
In11 S17 2.611699 1_556
In11 S11 2.701442 1_555
In11 S31 2.721397 1_555
In11 S3 2.735505 1_555
In11 S15 3.033590 1_556
In12 S18 2.599050 1_546
In12 S22 2.600816 1_556
In12 S8 2.677922 1_555
In12 S0 2.747359 1_545
In12 S24 2.845549 1_555
In12 S12 2.917843 1_546
In13 S19 2.599050 1_565
In13 S23 2.600816 1_555
In13 S9 2.677922 1_555
In13 S1 2.747359 1_565
In13 S25 2.845549 1_555
In13 S13 2.917843 1_565
In14 S16 2.599050 1_545
In14 S20 2.600816 1_555
In14 S10 2.677922 1_555
In14 S2 2.747359 1_545
In14 S26 2.845549 1_555
In14 S14 2.917843 1_545
In15 S17 2.599050 1_566
In15 S21 2.600816 1_556
In15 S11 2.677922 1_555
In15 S3 2.747359 1_565
In15 S27 2.845549 1_555
In15 S15 2.917843 1_566
