# generated using pymatgen
data_Li3Mn2O5
_symmetry_space_group_name_H-M   'P 1'
_cell_length_a   5.08446156
_cell_length_b   5.23191425
_cell_length_c   7.63185006
_cell_angle_alpha   110.01716462
_cell_angle_beta   102.80913792
_cell_angle_gamma   97.63337670
_symmetry_Int_Tables_number   1
_chemical_formula_structural   Li3Mn2O5
_chemical_formula_sum   'Li6 Mn4 O10'
_cell_volume   181.11593779
_cell_formula_units_Z   2
loop_
 _symmetry_equiv_pos_site_id
 _symmetry_equiv_pos_as_xyz
  1  'x, y, z'
loop_
 _atom_site_type_symbol
 _atom_site_label
 _atom_site_symmetry_multiplicity
 _atom_site_fract_x
 _atom_site_fract_y
 _atom_site_fract_z
 _atom_site_occupancy
  Li  Li0  1  0.49999000  0.59996900  0.69997900  1
  Li  Li1  1  0.99998500  0.59999700  0.20001200  1
  Li  Li2  1  0.49997900  0.19530500  0.90486800  1
  Li  Li3  1  0.49999700  0.00467000  0.49510800  1
  Li  Li4  1  0.51489600  0.80166700  0.10517900  1
  Li  Li5  1  0.48510600  0.39833800  0.29481800  1
  Mn  Mn0  1  0.99993300  0.20005100  0.39849700  1
  Mn  Mn1  1  0.99877600  0.79860100  0.59734300  1
  Mn  Mn2  1  0.00007700  0.99993400  0.00149600  1
  Mn  Mn3  1  0.00121600  0.40140500  0.80267300  1
  O  O0  1  0.23104200  0.81902200  0.85127200  1
  O  O1  1  0.76895200  0.38096600  0.54872700  1
  O  O2  1  0.21947500  0.36536300  0.03343700  1
  O  O3  1  0.78055200  0.83465900  0.36658400  1
  O  O4  1  0.23411100  0.21389900  0.64219700  1
  O  O5  1  0.76589500  0.98612200  0.75781300  1
  O  O6  1  0.21552800  0.57407100  0.45301600  1
  O  O7  1  0.78445500  0.62596800  0.94699200  1
  O  O8  1  0.22850400  0.01926800  0.24576300  1
  O  O9  1  0.77153000  0.18072700  0.15422700  1
loop_
_geom_bond_atom_site_label_1
_geom_bond_atom_site_label_2
_geom_bond_distance
_geom_bond_site_symmetry_2
Li0 O6 2.055971 1_555
Li0 O7 2.056080 1_555
Li0 O4 2.121872 1_555
Li0 O5 2.122176 1_555
Li0 O1 2.173990 1_555
Li0 O0 2.174198 1_555
Li1 O6 2.056276 1_655
Li1 O7 2.056465 1_554
Li1 O3 2.071835 1_555
Li1 O2 2.071999 1_655
Li1 O9 2.213938 1_555
Li1 O8 2.214136 1_665
Li2 O2 2.036775 1_556
Li2 O0 2.097221 1_545
Li2 O9 2.120394 1_556
Li2 O5 2.123770 1_545
Li2 O4 2.195986 1_555
Li2 O7 2.388392 1_555
Li3 O3 2.036742 1_545
Li3 O1 2.097271 1_555
Li3 O8 2.120222 1_555
Li3 O4 2.123873 1_555
Li3 O5 2.196150 1_545
Li3 O6 2.388181 1_545
Li4 O3 2.083683 1_555
Li4 O9 2.088915 1_565
Li4 O7 2.118858 1_554
Li4 O0 2.182060 1_554
Li4 O8 2.205577 1_565
Li4 O2 2.373918 1_555
Li5 O2 2.083515 1_555
Li5 O8 2.088868 1_555
Li5 O6 2.119043 1_555
Li5 O1 2.182091 1_555
Li5 O9 2.205760 1_555
Li5 O3 2.374003 1_555
Mn0 O9 1.927184 1_555
Mn0 O1 1.933683 1_555
Mn0 O8 1.934391 1_655
Mn0 O4 1.945509 1_655
Mn0 O6 1.968362 1_655
Mn0 O3 1.988062 1_545
Mn1 O3 1.945469 1_555
Mn1 O6 1.950423 1_655
Mn1 O0 1.992896 1_655
Mn1 O5 1.998367 1_555
Mn1 O1 2.202704 1_555
Mn1 O4 2.210988 1_665
Mn2 O8 1.927193 1_565
Mn2 O0 1.933586 1_554
Mn2 O9 1.934299 1_465
Mn2 O5 1.945482 1_454
Mn2 O7 1.968204 1_454
Mn2 O2 1.988190 1_565
Mn3 O2 1.945528 1_556
Mn3 O7 1.950512 1_455
Mn3 O1 1.992966 1_455
Mn3 O4 1.998422 1_555
Mn3 O0 2.202664 1_555
Mn3 O5 2.210880 1_445
