# generated using pymatgen
data_CaBiWO5
_symmetry_space_group_name_H-M   'P 1'
_cell_length_a   5.56331500
_cell_length_b   11.68705400
_cell_length_c   16.46722100
_cell_angle_alpha   90.00000000
_cell_angle_beta   90.00000000
_cell_angle_gamma   90.00000000
_symmetry_Int_Tables_number   1
_chemical_formula_structural   CaBiWO5
_chemical_formula_sum   'Ca8 Bi8 W8 O40'
_cell_volume   1070.67833657
_cell_formula_units_Z   8
loop_
 _symmetry_equiv_pos_site_id
 _symmetry_equiv_pos_as_xyz
  1  'x, y, z'
loop_
 _atom_site_type_symbol
 _atom_site_label
 _atom_site_symmetry_multiplicity
 _atom_site_fract_x
 _atom_site_fract_y
 _atom_site_fract_z
 _atom_site_occupancy
  Ca  Ca0  1  0.50171900  0.35920100  0.55459800  1
  Ca  Ca1  1  0.00171900  0.14079900  0.55459800  1
  Ca  Ca2  1  0.00171900  0.64079900  0.94540200  1
  Ca  Ca3  1  0.99828100  0.35920100  0.05459800  1
  Ca  Ca4  1  0.49828100  0.14079900  0.05459800  1
  Ca  Ca5  1  0.99828100  0.85920100  0.44540200  1
  Ca  Ca6  1  0.49828100  0.64079900  0.44540200  1
  Ca  Ca7  1  0.50171900  0.85920100  0.94540200  1
  Bi  Bi0  1  0.94575800  0.84032300  0.77046900  1
  Bi  Bi1  1  0.05424200  0.15967700  0.22953100  1
  Bi  Bi2  1  0.55424200  0.34032300  0.22953100  1
  Bi  Bi3  1  0.05424200  0.65967700  0.27046900  1
  Bi  Bi4  1  0.44575800  0.15967700  0.72953100  1
  Bi  Bi5  1  0.44575800  0.65967700  0.77046900  1
  Bi  Bi6  1  0.55424200  0.84032300  0.27046900  1
  Bi  Bi7  1  0.94575800  0.34032300  0.72953100  1
  W  W0  1  0.99848600  0.40203400  0.40535200  1
  W  W1  1  0.50151400  0.90203400  0.59464800  1
  W  W2  1  0.00151400  0.59796600  0.59464800  1
  W  W3  1  0.49848600  0.09796600  0.40535200  1
  W  W4  1  0.00151400  0.09796600  0.90535200  1
  W  W5  1  0.99848600  0.90203400  0.09464800  1
  W  W6  1  0.50151400  0.40203400  0.90535200  1
  W  W7  1  0.49848600  0.59796600  0.09464800  1
  O  O0  1  0.94830400  0.32651300  0.30301000  1
  O  O1  1  0.27933300  0.03454400  0.95129300  1
  O  O2  1  0.22066700  0.53454400  0.04870700  1
  O  O3  1  0.23884900  0.77057200  0.84647900  1
  O  O4  1  0.26115100  0.27057200  0.15352100  1
  O  O5  1  0.94830400  0.82651300  0.19699000  1
  O  O6  1  0.26115100  0.77057200  0.34647900  1
  O  O7  1  0.55169600  0.82651300  0.69699000  1
  O  O8  1  0.27933300  0.53454400  0.54870700  1
  O  O9  1  0.05169600  0.67348700  0.69699000  1
  O  O10  1  0.55169600  0.32651300  0.80301000  1
  O  O11  1  0.64407800  0.20167900  0.47540700  1
  O  O12  1  0.77933300  0.96545600  0.54870700  1
  O  O13  1  0.76115100  0.72942800  0.34647900  1
  O  O14  1  0.17696200  0.03080600  0.13259300  1
  O  O15  1  0.77933300  0.46545600  0.95129300  1
  O  O16  1  0.05169600  0.17348700  0.80301000  1
  O  O17  1  0.73884900  0.22942800  0.65352100  1
  O  O18  1  0.14407800  0.79832100  0.02459300  1
  O  O19  1  0.22066700  0.03454400  0.45129300  1
  O  O20  1  0.35592200  0.79832100  0.52459300  1
  O  O21  1  0.82303800  0.96919400  0.86740700  1
  O  O22  1  0.76115100  0.22942800  0.15352100  1
  O  O23  1  0.67696200  0.96919400  0.36740700  1
  O  O24  1  0.35592200  0.29832100  0.97540700  1
  O  O25  1  0.14407800  0.29832100  0.47540700  1
  O  O26  1  0.72066700  0.46545600  0.45129300  1
  O  O27  1  0.72066700  0.96545600  0.04870700  1
  O  O28  1  0.67696200  0.46919400  0.13259300  1
  O  O29  1  0.85592200  0.70167900  0.52459300  1
  O  O30  1  0.85592200  0.20167900  0.97540700  1
  O  O31  1  0.64407800  0.70167900  0.02459300  1
  O  O32  1  0.82303800  0.46919400  0.63259300  1
  O  O33  1  0.73884900  0.72942800  0.84647900  1
  O  O34  1  0.23884900  0.27057200  0.65352100  1
  O  O35  1  0.17696200  0.53080600  0.36740700  1
  O  O36  1  0.32303800  0.53080600  0.86740700  1
  O  O37  1  0.44830400  0.17348700  0.30301000  1
  O  O38  1  0.32303800  0.03080600  0.63259300  1
  O  O39  1  0.44830400  0.67348700  0.19699000  1
loop_
_geom_bond_atom_site_label_1
_geom_bond_atom_site_label_2
_geom_bond_distance
_geom_bond_site_symmetry_2
Ca0 O11 2.391019 1_555
Ca0 O8 2.395721 1_555
Ca0 O34 2.421818 1_555
Ca0 O26 2.433043 1_555
Ca0 O25 2.483061 1_555
Ca0 O32 2.549037 1_555
Ca0 O17 2.587322 1_555
Ca1 O25 2.391019 1_555
Ca1 O12 2.395721 1_445
Ca1 O17 2.421818 1_455
Ca1 O19 2.433043 1_555
Ca1 O11 2.483061 1_455
Ca1 O38 2.549037 1_555
Ca1 O34 2.587322 1_555
Ca2 O18 2.391019 1_556
Ca2 O15 2.395721 1_455
Ca2 O33 2.421818 1_455
Ca2 O2 2.433043 1_556
Ca2 O31 2.483061 1_456
Ca2 O36 2.549037 1_555
Ca2 O3 2.587322 1_555
Ca3 O30 2.391019 1_554
Ca3 O2 2.395721 1_655
Ca3 O4 2.421818 1_655
Ca3 O15 2.433043 1_554
Ca3 O24 2.483061 1_654
Ca3 O28 2.549037 1_555
Ca3 O22 2.587322 1_555
Ca4 O24 2.391019 1_554
Ca4 O27 2.395721 1_545
Ca4 O22 2.421818 1_555
Ca4 O1 2.433043 1_554
Ca4 O30 2.483061 1_554
Ca4 O14 2.549037 1_555
Ca4 O4 2.587322 1_555
Ca5 O29 2.391019 1_555
Ca5 O19 2.395721 1_665
Ca5 O6 2.421818 1_655
Ca5 O12 2.433043 1_555
Ca5 O20 2.483061 1_655
Ca5 O23 2.549037 1_555
Ca5 O13 2.587322 1_555
Ca6 O20 2.391019 1_555
Ca6 O26 2.395721 1_555
Ca6 O13 2.421818 1_555
Ca6 O8 2.433043 1_555
Ca6 O29 2.483061 1_555
Ca6 O35 2.549037 1_555
Ca6 O6 2.587322 1_555
Ca7 O31 2.391019 1_556
Ca7 O1 2.395721 1_565
Ca7 O3 2.421818 1_555
Ca7 O27 2.433043 1_556
Ca7 O18 2.483061 1_556
Ca7 O21 2.549037 1_555
Ca7 O33 2.587322 1_555
Bi0 O33 2.138089 1_555
Bi0 O3 2.211318 1_655
Bi0 O21 2.298412 1_555
Bi0 O9 2.369229 1_655
Bi0 O7 2.509238 1_555
Bi1 O4 2.138089 1_555
Bi1 O22 2.211318 1_455
Bi1 O14 2.298412 1_555
Bi1 O0 2.369229 1_455
Bi1 O37 2.509238 1_555
Bi2 O22 2.138089 1_555
Bi2 O4 2.211318 1_555
Bi2 O28 2.298412 1_555
Bi2 O37 2.369229 1_555
Bi2 O0 2.509238 1_555
Bi3 O6 2.138089 1_555
Bi3 O13 2.211318 1_455
Bi3 O35 2.298412 1_555
Bi3 O5 2.369229 1_455
Bi3 O39 2.509238 1_555
Bi4 O34 2.138089 1_555
Bi4 O17 2.211318 1_555
Bi4 O38 2.298412 1_555
Bi4 O10 2.369229 1_555
Bi4 O16 2.509238 1_555
Bi5 O3 2.138089 1_555
Bi5 O33 2.211318 1_555
Bi5 O36 2.298412 1_555
Bi5 O7 2.369229 1_555
Bi5 O9 2.509238 1_555
Bi6 O13 2.138089 1_555
Bi6 O6 2.211318 1_555
Bi6 O23 2.298412 1_555
Bi6 O39 2.369229 1_555
Bi6 O5 2.509238 1_555
Bi7 O17 2.138089 1_555
Bi7 O34 2.211318 1_655
Bi7 O32 2.298412 1_555
Bi7 O16 2.369229 1_655
Bi7 O10 2.509238 1_555
O0 W0 1.922798 1_555
O1 W4 1.873656 1_555
O2 W7 1.873656 1_555
O5 W5 1.922798 1_555
O7 W1 1.922798 1_555
O8 W2 1.873656 1_555
O9 W2 1.922798 1_555
O10 W6 1.922798 1_555
O11 W3 1.859049 1_555
O12 W1 1.873656 1_555
O14 W5 1.908204 1_445
O15 W6 1.873656 1_555
O16 W4 1.922798 1_555
O18 W5 1.859049 1_455
O19 W3 1.873656 1_555
O20 W1 1.859049 1_555
O21 W4 1.908204 1_665
O23 W3 1.908204 1_565
O24 W6 1.859049 1_555
O25 W0 1.859049 1_455
O26 W0 1.873656 1_555
O27 W5 1.873656 1_555
O28 W7 1.908204 1_555
O29 W2 1.859049 1_655
O30 W4 1.859049 1_655
O31 W7 1.859049 1_555
O32 W2 1.908204 1_655
O35 W0 1.908204 1_455
O36 W6 1.908204 1_555
O37 W3 1.922798 1_555
O38 W1 1.908204 1_545
O39 W7 1.922798 1_555
