# generated using pymatgen
data_NaCo2H3(SeO5)2
_symmetry_space_group_name_H-M   'P 1'
_cell_length_a   6.52333704
_cell_length_b   7.74590543
_cell_length_c   9.04156404
_cell_angle_alpha   99.11638926
_cell_angle_beta   90.01298656
_cell_angle_gamma   114.90748703
_symmetry_Int_Tables_number   1
_chemical_formula_structural   NaCo2H3(SeO5)2
_chemical_formula_sum   'Na2 Co4 H6 Se4 O20'
_cell_volume   407.99011938
_cell_formula_units_Z   2
loop_
 _symmetry_equiv_pos_site_id
 _symmetry_equiv_pos_as_xyz
  1  'x, y, z'
loop_
 _atom_site_type_symbol
 _atom_site_label
 _atom_site_symmetry_multiplicity
 _atom_site_fract_x
 _atom_site_fract_y
 _atom_site_fract_z
 _atom_site_occupancy
  Na  Na0  1  0.25204900  0.50407200  0.74680000  1
  Na  Na1  1  0.75202900  0.50405800  0.24679100  1
  Co  Co0  1  0.24967100  0.00591400  0.24996500  1
  Co  Co1  1  0.25646300  0.00595000  0.74993300  1
  Co  Co2  1  0.74984700  0.00604800  0.74995600  1
  Co  Co3  1  0.75614900  0.00601900  0.24982700  1
  H  H0  1  0.10994800  0.21951700  0.42214300  1
  H  H1  1  0.60966800  0.21948600  0.92198300  1
  H  H2  1  0.38769200  0.77602700  0.07823300  1
  H  H3  1  0.88805100  0.77623100  0.57824000  1
  H  H4  1  0.49293700  0.98632500  0.00933100  1
  H  H5  1  0.99326200  0.98653000  0.50928700  1
  Se  Se0  1  0.14892800  0.29762900  0.05441100  1
  Se  Se1  1  0.64892400  0.29763100  0.55433800  1
  Se  Se2  1  0.35530800  0.71055100  0.43830000  1
  Se  Se3  1  0.85535800  0.71064600  0.93837700  1
  O  O0  1  0.07583400  0.15127500  0.88122000  1
  O  O1  1  0.57563100  0.15114100  0.38118200  1
  O  O2  1  0.43083600  0.86188100  0.60877100  1
  O  O3  1  0.93115200  0.86201400  0.10885000  1
  O  O4  1  0.03963700  0.07896400  0.38566300  1
  O  O5  1  0.53920000  0.07893500  0.88556400  1
  O  O6  1  0.45912600  0.91877200  0.10939400  1
  O  O7  1  0.95948600  0.91894400  0.60949300  1
  O  O8  1  0.26023200  0.52068400  0.02048500  1
  O  O9  1  0.76047000  0.52067000  0.52039800  1
  O  O10  1  0.24455800  0.48899600  0.47429700  1
  O  O11  1  0.74433200  0.48909900  0.97439200  1
  O  O12  1  0.41347500  0.25181700  0.64800200  1
  O  O13  1  0.91333600  0.25166000  0.14804400  1
  O  O14  1  0.83862400  0.25182600  0.64809200  1
  O  O15  1  0.33865900  0.25202000  0.14828400  1
  O  O16  1  0.08889200  0.75407300  0.84268200  1
  O  O17  1  0.58906200  0.75426400  0.34272800  1
  O  O18  1  0.66514200  0.75434500  0.84288900  1
  O  O19  1  0.16503100  0.75399000  0.34265400  1
loop_
_geom_bond_atom_site_label_1
_geom_bond_atom_site_label_2
_geom_bond_distance
_geom_bond_site_symmetry_2
Na0 O10 2.447563 1_555
Na0 O8 2.456830 1_556
Na0 O16 2.615112 1_555
Na0 O18 2.615262 1_555
Na0 O14 2.625894 1_455
Na0 O12 2.627772 1_555
Na1 O11 2.446732 1_554
Na1 O9 2.456125 1_555
Na1 O19 2.613726 1_655
Na1 O17 2.615692 1_555
Na1 O15 2.624820 1_555
Na1 O13 2.628067 1_555
Co0 O4 2.033847 1_555
Co0 O19 2.103799 1_545
Co0 O15 2.107064 1_555
Co0 O6 2.108005 1_545
Co0 O1 2.180716 1_555
Co0 O3 2.187458 1_445
Co1 O5 2.031315 1_555
Co1 O16 2.104067 1_545
Co1 O12 2.106894 1_555
Co1 O7 2.108938 1_445
Co1 O0 2.181523 1_555
Co1 O2 2.187867 1_545
Co2 O5 2.035968 1_555
Co2 O18 2.103443 1_545
Co2 O14 2.105990 1_555
Co2 O7 2.108260 1_545
Co2 O0 2.181046 1_655
Co2 O2 2.190171 1_545
Co3 O4 2.036288 1_655
Co3 O17 2.103683 1_545
Co3 O13 2.104893 1_555
Co3 O6 2.108835 1_545
Co3 O1 2.180226 1_555
Co3 O3 2.189734 1_545
H0 O4 0.984879 1_555
H1 O5 0.984778 1_555
H2 O6 0.993131 1_555
H2 O8 1.778555 1_555
H3 O7 0.993005 1_555
H3 O9 1.780121 1_555
H4 O6 1.092643 1_555
H4 O5 1.389284 1_564
H5 O7 1.093946 1_555
H5 O4 1.387384 1_665
O0 Se0 1.716518 1_556
O1 Se1 1.716683 1_555
O2 Se2 1.712640 1_555
O3 Se3 1.712777 1_554
O8 Se0 1.648581 1_555
O9 Se1 1.648514 1_555
O10 Se2 1.644931 1_555
O11 Se3 1.644936 1_555
O12 Se1 1.684895 1_555
O13 Se0 1.685400 1_655
O14 Se1 1.685364 1_555
O15 Se0 1.685198 1_555
O16 Se3 1.686350 1_455
O17 Se2 1.686700 1_555
O18 Se3 1.686877 1_555
O19 Se2 1.686790 1_555
