# generated using pymatgen
data_Mg6VFeO8
_symmetry_space_group_name_H-M   'P 1'
_cell_length_a   8.54135713
_cell_length_b   4.32101715
_cell_length_c   4.32101715
_cell_angle_alpha   90.00000000
_cell_angle_beta   90.00000000
_cell_angle_gamma   90.00000000
_symmetry_Int_Tables_number   1
_chemical_formula_structural   Mg6VFeO8
_chemical_formula_sum   'Mg6 V1 Fe1 O8'
_cell_volume   159.47729509
_cell_formula_units_Z   1
loop_
 _symmetry_equiv_pos_site_id
 _symmetry_equiv_pos_as_xyz
  1  'x, y, z'
loop_
 _atom_site_type_symbol
 _atom_site_label
 _atom_site_symmetry_multiplicity
 _atom_site_fract_x
 _atom_site_fract_y
 _atom_site_fract_z
 _atom_site_occupancy
  Mg  Mg0  1  0.00000000  0.50000000  0.50000000  1
  Mg  Mg1  1  0.50000000  0.50000000  0.50000000  1
  Mg  Mg2  1  0.24872135  0.00000000  0.50000000  1
  Mg  Mg3  1  0.75127865  0.00000000  0.50000000  1
  Mg  Mg4  1  0.24872135  0.50000000  0.00000000  1
  Mg  Mg5  1  0.75127865  0.50000000  0.00000000  1
  V  V0  1  0.50000000  0.00000000  0.00000000  1
  Fe  Fe0  1  0.00000000  0.00000000  0.00000000  1
  O  O0  1  0.24668730  0.00000000  0.00000000  1
  O  O1  1  0.75331270  0.00000000  0.00000000  1
  O  O2  1  0.25077587  0.50000000  0.50000000  1
  O  O3  1  0.74922413  0.50000000  0.50000000  1
  O  O4  1  0.00000000  0.00000000  0.50000000  1
  O  O5  1  0.50000000  0.00000000  0.50000000  1
  O  O6  1  0.00000000  0.50000000  0.00000000  1
  O  O7  1  0.50000000  0.50000000  0.00000000  1
loop_
_geom_bond_atom_site_label_1
_geom_bond_atom_site_label_2
_geom_bond_distance
_geom_bond_site_symmetry_2
Mg0 O2 2.141966 1_555
Mg0 O3 2.141966 1_455
Mg0 O4 2.160509 1_565
Mg0 O6 2.160509 1_556
Mg0 O6 2.160509 1_555
Mg0 O4 2.160509 1_555
Mg1 O3 2.128712 1_555
Mg1 O2 2.128712 1_555
Mg1 O7 2.160509 1_556
Mg1 O5 2.160509 1_555
Mg1 O5 2.160509 1_565
Mg1 O7 2.160509 1_555
Mg2 O4 2.124418 1_555
Mg2 O5 2.146261 1_555
Mg2 O0 2.160578 1_556
Mg2 O0 2.160578 1_555
Mg2 O2 2.160580 1_555
Mg2 O2 2.160580 1_545
Mg3 O4 2.124418 1_655
Mg3 O5 2.146261 1_555
Mg3 O1 2.160578 1_555
Mg3 O1 2.160578 1_556
Mg3 O3 2.160580 1_545
Mg3 O3 2.160580 1_555
Mg4 O6 2.124418 1_555
Mg4 O7 2.146261 1_555
Mg4 O0 2.160578 1_565
Mg4 O0 2.160578 1_555
Mg4 O2 2.160580 1_554
Mg4 O2 2.160580 1_555
Mg5 O6 2.124418 1_655
Mg5 O7 2.146261 1_555
Mg5 O1 2.160578 1_555
Mg5 O1 2.160578 1_565
Mg5 O3 2.160580 1_555
Mg5 O3 2.160580 1_554
Fe0 O0 2.107044 1_555
Fe0 O1 2.107044 1_455
Fe0 O6 2.160509 1_545
Fe0 O6 2.160509 1_555
Fe0 O4 2.160509 1_555
Fe0 O4 2.160509 1_554
O0 V0 2.163634 1_555
O1 V0 2.163634 1_555
O5 V0 2.160509 1_555
O5 V0 2.160509 1_556
O7 V0 2.160509 1_555
O7 V0 2.160509 1_565
