# generated using pymatgen
data_Tm2MgSe4
_symmetry_space_group_name_H-M   'P 1'
_cell_length_a   8.13125841
_cell_length_b   8.13125880
_cell_length_c   8.13125834
_cell_angle_alpha   60.00000188
_cell_angle_beta   60.00000029
_cell_angle_gamma   60.00000180
_symmetry_Int_Tables_number   1
_chemical_formula_structural   Tm2MgSe4
_chemical_formula_sum   'Tm4 Mg2 Se8'
_cell_volume   380.15291216
_cell_formula_units_Z   2
loop_
 _symmetry_equiv_pos_site_id
 _symmetry_equiv_pos_as_xyz
  1  'x, y, z'
loop_
 _atom_site_type_symbol
 _atom_site_label
 _atom_site_symmetry_multiplicity
 _atom_site_fract_x
 _atom_site_fract_y
 _atom_site_fract_z
 _atom_site_occupancy
  Tm  Tm0  1  0.50000000  0.50000000  0.50000000  1
  Tm  Tm1  1  0.50000000  0.00000000  0.50000000  1
  Tm  Tm2  1  -0.00000000  0.50000000  0.50000000  1
  Tm  Tm3  1  0.50000000  0.50000000  -0.00000000  1
  Mg  Mg0  1  0.87500000  0.87500000  0.87500000  1
  Mg  Mg1  1  0.12500000  0.12500000  0.12500000  1
  Se  Se0  1  0.25527105  0.25527105  0.73418585  1
  Se  Se1  1  0.74472895  0.74472895  0.74472895  1
  Se  Se2  1  0.74472895  0.74472895  0.26581415  1
  Se  Se3  1  0.25527105  0.73418585  0.25527105  1
  Se  Se4  1  0.25527105  0.25527105  0.25527105  1
  Se  Se5  1  0.26581415  0.74472895  0.74472895  1
  Se  Se6  1  0.74472895  0.26581415  0.74472895  1
  Se  Se7  1  0.73418585  0.25527105  0.25527105  1
loop_
_geom_bond_atom_site_label_1
_geom_bond_atom_site_label_2
_geom_bond_distance
_geom_bond_site_symmetry_2
Mg0 Se1 2.594665 1_555
Mg0 Se2 2.594672 1_556
Mg0 Se5 2.594672 1_655
Mg0 Se6 2.594672 1_565
Mg1 Se4 2.594665 1_555
Mg1 Se0 2.594672 1_554
Mg1 Se7 2.594672 1_455
Mg1 Se3 2.594672 1_545
Se0 Tm2 2.815520 1_555
Se0 Tm1 2.815520 1_555
Se0 Tm0 2.815526 1_555
Se1 Tm2 2.815526 1_655
Se1 Tm1 2.815526 1_565
Se1 Tm3 2.815526 1_556
Se2 Tm2 2.815520 1_655
Se2 Tm1 2.815520 1_565
Se2 Tm0 2.815526 1_555
Se3 Tm3 2.815520 1_555
Se3 Tm2 2.815520 1_555
Se3 Tm0 2.815526 1_555
Se4 Tm2 2.815526 1_555
Se4 Tm1 2.815526 1_555
Se4 Tm3 2.815526 1_555
Se5 Tm3 2.815520 1_556
Se5 Tm1 2.815520 1_565
Se5 Tm0 2.815526 1_555
Se6 Tm3 2.815520 1_556
Se6 Tm2 2.815520 1_655
Se6 Tm0 2.815526 1_555
Se7 Tm3 2.815520 1_555
Se7 Tm1 2.815520 1_555
Se7 Tm0 2.815526 1_555
