# generated using pymatgen
data_Ho4Cu5P7
_symmetry_space_group_name_H-M   'P 1'
_cell_length_a   10.26611262
_cell_length_b   10.26611262
_cell_length_c   10.26611262
_cell_angle_alpha   150.24344167
_cell_angle_beta   150.24344167
_cell_angle_gamma   42.58417430
_symmetry_Int_Tables_number   1
_chemical_formula_structural   Ho4Cu5P7
_chemical_formula_sum   'Ho4 Cu5 P7'
_cell_volume   265.85810638
_cell_formula_units_Z   1
loop_
 _symmetry_equiv_pos_site_id
 _symmetry_equiv_pos_as_xyz
  1  'x, y, z'
loop_
 _atom_site_type_symbol
 _atom_site_label
 _atom_site_symmetry_multiplicity
 _atom_site_fract_x
 _atom_site_fract_y
 _atom_site_fract_z
 _atom_site_occupancy
  Ho  Ho0  1  0.62462500  0.14426100  0.00000000  1
  Ho  Ho1  1  0.14426100  0.62462500  0.00000000  1
  Ho  Ho2  1  0.37537500  0.37537500  0.51963700  1
  Ho  Ho3  1  0.85573900  0.85573900  0.48036300  1
  Cu  Cu0  1  0.74973000  0.74973000  0.00000000  1
  Cu  Cu1  1  0.25027000  0.25027000  0.00000000  1
  Cu  Cu2  1  0.25000000  0.75000000  0.50000000  1
  Cu  Cu3  1  0.75000000  0.25000000  0.50000000  1
  Cu  Cu4  1  0.00000000  0.00000000  0.00000000  1
  P  P0  1  0.41618200  0.92500700  0.00000000  1
  P  P1  1  0.92500700  0.41618200  0.00000000  1
  P  P2  1  0.58381800  0.58381800  0.50882500  1
  P  P3  1  0.07499300  0.07499300  0.49117500  1
  P  P4  1  0.50000000  0.50000000  0.00000000  1
  P  P5  1  0.50000000  0.00000000  0.50000000  1
  P  P6  1  0.00000000  0.50000000  0.50000000  1
loop_
_geom_bond_atom_site_label_1
_geom_bond_atom_site_label_2
_geom_bond_distance
_geom_bond_site_symmetry_2
Ho0 P2 2.813054 1_555
Ho0 P3 2.813054 1_554
Ho0 P4 2.844970 1_555
Ho0 P2 2.865965 1_544
Ho0 P3 2.865965 1_655
Ho0 P5 2.892531 1_554
Ho0 P6 2.892531 1_655
Ho1 P2 2.813054 1_555
Ho1 P3 2.813054 1_554
Ho1 P4 2.844970 1_555
Ho1 P2 2.865965 1_454
Ho1 P3 2.865965 1_565
Ho1 P6 2.892531 1_554
Ho1 P5 2.892531 1_565
Ho2 P1 2.813055 1_556
Ho2 P0 2.813055 1_556
Ho2 P4 2.844960 1_556
Ho2 P1 2.865971 1_455
Ho2 P0 2.865971 1_545
Ho2 P5 2.892524 1_555
Ho2 P6 2.892524 1_555
Ho3 P0 2.813048 1_555
Ho3 P1 2.813048 1_555
Ho3 P4 2.844975 1_555
Ho3 P1 2.865964 1_566
Ho3 P0 2.865964 1_656
Ho3 P6 2.892538 1_655
Ho3 P5 2.892538 1_565
Cu0 P3 2.382438 1_665
Cu0 P2 2.382438 1_554
Cu0 P1 2.426912 1_555
Cu0 P0 2.426912 1_555
Cu1 P0 2.382438 1_545
Cu1 P1 2.382438 1_455
Cu1 P3 2.426912 1_554
Cu1 P2 2.426912 1_555
Cu2 P3 2.404772 1_565
Cu2 P2 2.404772 1_555
Cu2 P1 2.404772 1_455
Cu2 P0 2.404772 1_556
Cu3 P3 2.404772 1_655
Cu3 P2 2.404772 1_555
Cu3 P0 2.404772 1_545
Cu3 P1 2.404772 1_556
Cu4 P5 2.635993 1_555
Cu4 P5 2.635993 1_454
Cu4 P6 2.635993 1_544
Cu4 P6 2.635993 1_555
Cu4 Ho2 2.939317 1_555
Cu4 Ho0 2.939322 1_455
Cu4 Ho1 2.939322 1_545
Cu4 Ho3 2.939332 1_444
P4 P5 2.635993 1_554
P4 P6 2.635993 1_554
P4 P5 2.635993 1_565
P4 P6 2.635993 1_655
