# generated using pymatgen
data_UCo4B
_symmetry_space_group_name_H-M   'P 1'
_cell_length_a   4.87750951
_cell_length_b   4.87750951
_cell_length_c   6.90029500
_cell_angle_alpha   90.00000000
_cell_angle_beta   90.00000000
_cell_angle_gamma   119.99999334
_symmetry_Int_Tables_number   1
_chemical_formula_structural   UCo4B
_chemical_formula_sum   'U2 Co8 B2'
_cell_volume   142.16561507
_cell_formula_units_Z   2
loop_
 _symmetry_equiv_pos_site_id
 _symmetry_equiv_pos_as_xyz
  1  'x, y, z'
loop_
 _atom_site_type_symbol
 _atom_site_label
 _atom_site_symmetry_multiplicity
 _atom_site_fract_x
 _atom_site_fract_y
 _atom_site_fract_z
 _atom_site_occupancy
  U  U0  1  0.00000000  0.00000000  0.00000000  1
  U  U1  1  0.00000000  0.00000000  0.50000000  1
  Co  Co0  1  0.66666700  0.33333300  0.00000000  1
  Co  Co1  1  0.33333300  0.66666700  0.00000000  1
  Co  Co2  1  0.50000000  0.50000000  0.71146000  1
  Co  Co3  1  0.50000000  0.00000000  0.71146000  1
  Co  Co4  1  0.00000000  0.50000000  0.71146000  1
  Co  Co5  1  0.50000000  0.50000000  0.28854000  1
  Co  Co6  1  0.50000000  0.00000000  0.28854000  1
  Co  Co7  1  0.00000000  0.50000000  0.28854000  1
  B  B0  1  0.66666700  0.33333300  0.50000000  1
  B  B1  1  0.33333300  0.66666700  0.50000000  1
loop_
_geom_bond_atom_site_label_1
_geom_bond_atom_site_label_2
_geom_bond_distance
_geom_bond_site_symmetry_2
Co0 Co3 2.438571 1_554
Co0 Co7 2.438571 1_655
Co0 Co4 2.438571 1_654
Co0 Co6 2.438571 1_555
Co0 Co2 2.438574 1_554
Co0 Co5 2.438574 1_555
Co0 U0 2.816029 1_655
Co0 Co1 2.816029 1_545
Co0 Co1 2.816029 1_655
Co0 U0 2.816033 1_665
Co0 U0 2.816033 1_555
Co0 Co1 2.816037 1_555
Co1 Co4 2.438571 1_554
Co1 Co7 2.438571 1_555
Co1 Co6 2.438571 1_565
Co1 Co3 2.438571 1_564
Co1 Co2 2.438574 1_554
Co1 Co5 2.438574 1_555
Co1 U0 2.816029 1_565
Co1 U0 2.816033 1_665
Co1 U0 2.816033 1_555
Co2 U1 2.841937 1_555
Co2 U1 2.841937 1_665
Co3 U1 2.841937 1_655
Co3 U1 2.841937 1_555
Co4 U1 2.841937 1_565
Co4 U1 2.841937 1_555
Co5 U1 2.841937 1_555
Co5 U1 2.841937 1_665
Co6 U1 2.841937 1_655
Co6 U1 2.841937 1_555
Co7 U1 2.841937 1_565
Co7 U1 2.841937 1_555
B0 Co7 2.027704 1_655
B0 Co3 2.027704 1_555
B0 Co6 2.027704 1_555
B0 Co4 2.027704 1_655
B0 Co5 2.027707 1_555
B0 Co2 2.027707 1_555
B0 U1 2.816029 1_655
B0 U1 2.816033 1_555
B0 U1 2.816033 1_665
B1 Co3 2.027704 1_565
B1 Co7 2.027704 1_555
B1 Co6 2.027704 1_565
B1 Co4 2.027704 1_555
B1 Co5 2.027707 1_555
B1 Co2 2.027707 1_555
B1 U1 2.816029 1_565
B1 U1 2.816033 1_555
B1 U1 2.816033 1_665
