# generated using pymatgen
data_Li9Mn2Co5O16
_symmetry_space_group_name_H-M   'P 1'
_cell_length_a   5.92196817
_cell_length_b   5.92196817
_cell_length_c   10.31748048
_cell_angle_alpha   71.65757633
_cell_angle_beta   71.65757633
_cell_angle_gamma   58.10703930
_symmetry_Int_Tables_number   1
_chemical_formula_structural   Li9Mn2Co5O16
_chemical_formula_sum   'Li9 Mn2 Co5 O16'
_cell_volume   286.61082479
_cell_formula_units_Z   1
loop_
 _symmetry_equiv_pos_site_id
 _symmetry_equiv_pos_as_xyz
  1  'x, y, z'
loop_
 _atom_site_type_symbol
 _atom_site_label
 _atom_site_symmetry_multiplicity
 _atom_site_fract_x
 _atom_site_fract_y
 _atom_site_fract_z
 _atom_site_occupancy
  Li  Li0  1  0.75615200  0.24691700  0.73315500  1
  Li  Li1  1  0.75308300  0.24384800  0.26684500  1
  Li  Li2  1  0.25278300  0.25278300  0.73468100  1
  Li  Li3  1  0.24138300  0.24138300  0.26295100  1
  Li  Li4  1  0.75861700  0.75861700  0.73704900  1
  Li  Li5  1  0.74721700  0.74721700  0.26531900  1
  Li  Li6  1  0.24691700  0.75615200  0.73315500  1
  Li  Li7  1  0.24384800  0.75308300  0.26684500  1
  Li  Li8  1  0.00000000  0.00000000  0.50000000  1
  Mn  Mn0  1  0.00000000  0.00000000  0.00000000  1
  Mn  Mn1  1  0.50000000  0.50000000  0.00000000  1
  Co  Co0  1  0.50000000  0.00000000  0.00000000  1
  Co  Co1  1  0.50000000  0.00000000  0.50000000  1
  Co  Co2  1  0.00000000  0.50000000  0.00000000  1
  Co  Co3  1  0.00000000  0.50000000  0.50000000  1
  Co  Co4  1  0.50000000  0.50000000  0.50000000  1
  O  O0  1  0.85828400  0.36312300  0.88525400  1
  O  O1  1  0.85214100  0.38727700  0.38757100  1
  O  O2  1  0.37488800  0.37488800  0.89679200  1
  O  O3  1  0.38436400  0.38436400  0.38722400  1
  O  O4  1  0.85518300  0.85518300  0.88709900  1
  O  O5  1  0.86282000  0.86282000  0.38513400  1
  O  O6  1  0.36312300  0.85828400  0.88525400  1
  O  O7  1  0.38727700  0.85214100  0.38757100  1
  O  O8  1  0.61272300  0.14785900  0.61242900  1
  O  O9  1  0.63687700  0.14171600  0.11474600  1
  O  O10  1  0.13718000  0.13718000  0.61486600  1
  O  O11  1  0.14481700  0.14481700  0.11290100  1
  O  O12  1  0.61563600  0.61563600  0.61277600  1
  O  O13  1  0.62511200  0.62511200  0.10320800  1
  O  O14  1  0.14785900  0.61272300  0.61242900  1
  O  O15  1  0.14171600  0.63687700  0.11474600  1
loop_
_geom_bond_atom_site_label_1
_geom_bond_atom_site_label_2
_geom_bond_distance
_geom_bond_site_symmetry_2
Li0 O12 2.006618 1_555
Li0 O10 2.054208 1_655
Li0 O8 2.066235 1_555
Li0 O0 2.240290 1_555
Li0 O4 2.253425 1_545
Li0 O2 2.262876 1_555
Li1 O3 2.006618 1_555
Li1 O5 2.054208 1_545
Li1 O1 2.066235 1_555
Li1 O9 2.240290 1_555
Li1 O11 2.253425 1_655
Li1 O13 2.262876 1_555
Li2 O14 1.980443 1_555
Li2 O8 1.980443 1_555
Li2 O10 2.006499 1_555
Li2 O6 2.244966 1_545
Li2 O0 2.244966 1_455
Li2 O2 2.432735 1_555
Li3 O7 2.107708 1_545
Li3 O1 2.107708 1_455
Li3 O11 2.123855 1_555
Li3 O15 2.241707 1_555
Li3 O9 2.241707 1_555
Li3 O3 2.280808 1_555
Li4 O8 2.107708 1_565
Li4 O14 2.107708 1_655
Li4 O4 2.123855 1_555
Li4 O6 2.241707 1_555
Li4 O0 2.241707 1_555
Li4 O12 2.280808 1_555
Li5 O7 1.980443 1_555
Li5 O1 1.980443 1_555
Li5 O5 2.006499 1_555
Li5 O15 2.244966 1_655
Li5 O9 2.244966 1_565
Li5 O13 2.432735 1_555
Li6 O12 2.006618 1_555
Li6 O10 2.054208 1_565
Li6 O14 2.066235 1_555
Li6 O6 2.240290 1_555
Li6 O4 2.253425 1_455
Li6 O2 2.262876 1_555
Li7 O3 2.006618 1_555
Li7 O5 2.054208 1_455
Li7 O7 2.066235 1_555
Li7 O15 2.240290 1_555
Li7 O11 2.253425 1_565
Li7 O13 2.262876 1_555
Li8 O8 2.053056 1_455
Li8 O7 2.053056 1_545
Li8 O1 2.053056 1_455
Li8 O14 2.053056 1_545
Li8 O5 2.152604 1_445
Li8 O10 2.152604 1_555
Mn0 O15 1.961171 1_545
Mn0 O9 1.961171 1_455
Mn0 O6 1.961171 1_544
Mn0 O0 1.961171 1_454
Mn0 O11 2.205108 1_555
Mn0 O4 2.205108 1_444
Mn1 O0 1.940657 1_554
Mn1 O6 1.940657 1_554
Mn1 O15 1.940657 1_555
Mn1 O9 1.940657 1_555
Mn1 O13 1.950632 1_555
Mn1 O2 1.950632 1_554
Co0 O4 1.922799 1_544
Co0 O11 1.922799 1_555
Co0 O13 1.970317 1_545
Co0 O2 1.970317 1_554
Co0 O9 2.170508 1_555
Co0 O6 2.170508 1_544
Co1 O10 1.959567 1_555
Co1 O5 1.959567 1_545
Co1 O12 2.047286 1_545
Co1 O3 2.047286 1_555
Co1 O8 2.074162 1_555
Co1 O7 2.074162 1_545
Co2 O4 1.922799 1_454
Co2 O11 1.922799 1_555
Co2 O13 1.970317 1_455
Co2 O2 1.970317 1_554
Co2 O15 2.170508 1_555
Co2 O0 2.170508 1_454
Co3 O10 1.959567 1_555
Co3 O5 1.959567 1_455
Co3 O12 2.047286 1_455
Co3 O3 2.047286 1_555
Co3 O14 2.074162 1_555
Co3 O1 2.074162 1_455
Co4 O7 1.906265 1_555
Co4 O1 1.906265 1_555
Co4 O8 1.906265 1_555
Co4 O14 1.906265 1_555
Co4 O12 1.946863 1_555
Co4 O3 1.946863 1_555
