# generated using pymatgen
data_DyCuAs2
_symmetry_space_group_name_H-M   'P 1'
_cell_length_a   3.87312795
_cell_length_b   3.87312795
_cell_length_c   9.89926066
_cell_angle_alpha   90.00000000
_cell_angle_beta   90.00000000
_cell_angle_gamma   90.00000000
_symmetry_Int_Tables_number   1
_chemical_formula_structural   DyCuAs2
_chemical_formula_sum   'Dy2 Cu2 As4'
_cell_volume   148.49999823
_cell_formula_units_Z   2
loop_
 _symmetry_equiv_pos_site_id
 _symmetry_equiv_pos_as_xyz
  1  'x, y, z'
loop_
 _atom_site_type_symbol
 _atom_site_label
 _atom_site_symmetry_multiplicity
 _atom_site_fract_x
 _atom_site_fract_y
 _atom_site_fract_z
 _atom_site_occupancy
  Dy  Dy0  1  0.75000000  0.75000000  0.76321930  1
  Dy  Dy1  1  0.25000000  0.25000000  0.23678070  1
  Cu  Cu0  1  0.25000000  0.75000000  0.50000000  1
  Cu  Cu1  1  0.75000000  0.25000000  0.50000000  1
  As  As0  1  0.75000000  0.25000000  -0.00000000  1
  As  As1  1  0.25000000  0.75000000  -0.00000000  1
  As  As2  1  0.75000000  0.75000000  0.34198577  1
  As  As3  1  0.25000000  0.25000000  0.65801423  1
loop_
_geom_bond_atom_site_label_1
_geom_bond_atom_site_label_2
_geom_bond_distance
_geom_bond_site_symmetry_2
As0 As1 2.738715 1_655
As0 As1 2.738715 1_645
As0 As1 2.738715 1_545
As0 As1 2.738715 1_555
As0 Dy1 3.040460 1_555
As0 Dy1 3.040460 1_655
As0 Dy0 3.040460 1_544
As0 Dy0 3.040460 1_554
As1 Dy1 3.040460 1_555
As1 Dy1 3.040460 1_565
As1 Dy0 3.040460 1_554
As1 Dy0 3.040460 1_454
As2 Cu1 2.489393 1_555
As2 Cu1 2.489393 1_565
As2 Cu0 2.489393 1_655
As2 Cu0 2.489393 1_555
As2 Dy1 2.930048 1_655
As2 Dy1 2.930048 1_665
As2 Dy1 2.930048 1_555
As2 Dy1 2.930048 1_565
As3 Cu1 2.489393 1_455
As3 Cu0 2.489393 1_545
As3 Cu0 2.489393 1_555
As3 Cu1 2.489393 1_555
As3 Dy0 2.930048 1_455
As3 Dy0 2.930048 1_555
As3 Dy0 2.930048 1_545
As3 Dy0 2.930048 1_445
