# generated using pymatgen
data_KNb4Bi5O18
_symmetry_space_group_name_H-M   'P 1'
_cell_length_a   12.94587473
_cell_length_b   12.94587473
_cell_length_c   5.61566501
_cell_angle_alpha   89.77907750
_cell_angle_beta   89.77907750
_cell_angle_gamma   154.98332760
_symmetry_Int_Tables_number   1
_chemical_formula_structural   KNb4Bi5O18
_chemical_formula_sum   'K1 Nb4 Bi5 O18'
_cell_volume   397.93700390
_cell_formula_units_Z   1
loop_
 _symmetry_equiv_pos_site_id
 _symmetry_equiv_pos_as_xyz
  1  'x, y, z'
loop_
 _atom_site_type_symbol
 _atom_site_label
 _atom_site_symmetry_multiplicity
 _atom_site_fract_x
 _atom_site_fract_y
 _atom_site_fract_z
 _atom_site_occupancy
  K  K0  1  0.73826200  0.73826200  0.53003000  1
  Nb  Nb0  1  0.82371300  0.65019100  0.03976400  1
  Nb  Nb1  1  0.65019100  0.82371300  0.03976400  1
  Nb  Nb2  1  0.15604900  0.33058000  0.53457700  1
  Nb  Nb3  1  0.33058000  0.15604900  0.53457700  1
  Bi  Bi0  1  0.20341300  0.20341300  0.98696900  1
  Bi  Bi1  1  0.08200000  0.48409200  0.99705400  1
  Bi  Bi2  1  0.48409200  0.08200000  0.99705400  1
  Bi  Bi3  1  0.91813000  0.51702700  0.49594400  1
  Bi  Bi4  1  0.51702700  0.91813000  0.49594400  1
  O  O0  1  0.85365000  0.53193400  0.06939200  1
  O  O1  1  0.53193400  0.85365000  0.06939200  1
  O  O2  1  0.15417200  0.47465500  0.57043400  1
  O  O3  1  0.47465500  0.15417200  0.57043400  1
  O  O4  1  0.96754100  0.13544100  0.85937400  1
  O  O5  1  0.13544100  0.96754100  0.85937400  1
  O  O6  1  0.05671200  0.87622000  0.34925900  1
  O  O7  1  0.87622000  0.05671200  0.34925900  1
  O  O8  1  0.76432800  0.25909300  0.77294600  1
  O  O9  1  0.25909300  0.76432800  0.77294600  1
  O  O10  1  0.24022300  0.74370700  0.27263500  1
  O  O11  1  0.74370700  0.24022300  0.27263500  1
  O  O12  1  0.45935100  0.61043700  0.78441000  1
  O  O13  1  0.61043700  0.45935100  0.78441000  1
  O  O14  1  0.53860200  0.39739800  0.27748100  1
  O  O15  1  0.39739800  0.53860200  0.27748100  1
  O  O16  1  0.81543400  0.81543400  0.05540500  1
  O  O17  1  0.21764700  0.21764700  0.59505400  1
loop_
_geom_bond_atom_site_label_1
_geom_bond_atom_site_label_2
_geom_bond_distance
_geom_bond_site_symmetry_2
K0 O13 2.632386 1_555
K0 O12 2.632386 1_555
K0 O16 2.692623 1_555
K0 O17 2.719357 1_665
K0 O14 2.751299 1_555
K0 O15 2.751299 1_555
K0 O6 2.797429 1_655
K0 O7 2.797429 1_565
K0 O17 2.935731 1_555
K0 O16 2.989513 1_556
Nb0 O13 1.865054 1_554
Nb0 O0 1.896189 1_555
Nb0 O5 2.019586 1_654
Nb0 O14 2.037613 1_555
Nb0 O6 2.182795 1_655
Nb0 O16 2.238830 1_555
Nb1 O12 1.865054 1_554
Nb1 O1 1.896189 1_555
Nb1 O4 2.019586 1_564
Nb1 O15 2.037613 1_555
Nb1 O7 2.182795 1_565
Nb1 O16 2.238830 1_555
Nb2 O7 1.885845 1_455
Nb2 O2 1.898689 1_555
Nb2 O15 1.945408 1_555
Nb2 O4 2.102632 1_455
Nb2 O12 2.193474 1_555
Nb2 O17 2.236066 1_555
Nb3 O6 1.885845 1_545
Nb3 O3 1.898689 1_555
Nb3 O14 1.945408 1_555
Nb3 O5 2.102632 1_545
Nb3 O13 2.193474 1_555
Nb3 O17 2.236066 1_555
Bi0 O17 2.200890 1_555
Bi0 O16 2.202596 1_446
Bi0 O5 2.400814 1_545
Bi0 O4 2.400814 1_455
Bi1 O9 2.206799 1_555
Bi1 O8 2.310636 1_455
Bi1 O10 2.339697 1_556
Bi1 O11 2.528551 1_456
Bi1 O1 2.551415 1_556
Bi1 O2 2.611400 1_555
Bi2 O8 2.206799 1_555
Bi2 O9 2.310636 1_545
Bi2 O11 2.339697 1_556
Bi2 O10 2.528551 1_546
Bi2 O0 2.551415 1_556
Bi2 O3 2.611400 1_555
Bi3 O11 2.214507 1_555
Bi3 O10 2.307717 1_655
Bi3 O8 2.328219 1_555
Bi3 O3 2.508151 1_555
Bi3 O9 2.575439 1_655
Bi3 O0 2.603013 1_555
Bi4 O10 2.214507 1_555
Bi4 O11 2.307717 1_565
Bi4 O9 2.328219 1_555
Bi4 O2 2.508151 1_555
Bi4 O8 2.575439 1_565
Bi4 O1 2.603013 1_555
