# generated using pymatgen
data_Li4Ti3(NiO4)3
_symmetry_space_group_name_H-M   'P 1'
_cell_length_a   7.74329189
_cell_length_b   7.74329189
_cell_length_c   5.32754768
_cell_angle_alpha   83.53402708
_cell_angle_beta   83.53402708
_cell_angle_gamma   42.66819230
_symmetry_Int_Tables_number   1
_chemical_formula_structural   Li4Ti3(NiO4)3
_chemical_formula_sum   'Li4 Ti3 Ni3 O12'
_cell_volume   214.90763436
_cell_formula_units_Z   1
loop_
 _symmetry_equiv_pos_site_id
 _symmetry_equiv_pos_as_xyz
  1  'x, y, z'
loop_
 _atom_site_type_symbol
 _atom_site_label
 _atom_site_symmetry_multiplicity
 _atom_site_fract_x
 _atom_site_fract_y
 _atom_site_fract_z
 _atom_site_occupancy
  Li  Li0  1  0.82662700  0.17337300  0.00000000  1
  Li  Li1  1  0.16559400  0.50073000  0.33125500  1
  Li  Li2  1  0.08083900  0.91916100  0.50000000  1
  Li  Li3  1  0.49927000  0.83440600  0.66874500  1
  Ti  Ti0  1  0.91323400  0.74833500  0.84607200  1
  Ti  Ti1  1  0.25166500  0.08676600  0.15392800  1
  Ti  Ti2  1  0.58873300  0.41126700  0.50000000  1
  Ni  Ni0  1  0.33263100  0.66736900  0.00000000  1
  Ni  Ni1  1  0.66471200  0.00559700  0.33757400  1
  Ni  Ni2  1  0.99440300  0.33528800  0.66242600  1
  O  O0  1  0.25556900  0.60408500  0.69748500  1
  O  O1  1  0.65246300  0.49855100  0.78855600  1
  O  O2  1  0.17424700  0.01484700  0.87162600  1
  O  O3  1  0.07773200  0.41287400  0.97148600  1
  O  O4  1  0.58712600  0.92226800  0.02851400  1
  O  O5  1  0.98515300  0.82575300  0.12837400  1
  O  O6  1  0.50144900  0.34753700  0.21144400  1
  O  O7  1  0.39591500  0.74443100  0.30251500  1
  O  O8  1  0.92265500  0.25731600  0.36737000  1
  O  O9  1  0.31884800  0.15872300  0.45073600  1
  O  O10  1  0.84127700  0.68115200  0.54926400  1
  O  O11  1  0.75151500  0.07973500  0.64307200  1
loop_
_geom_bond_atom_site_label_1
_geom_bond_atom_site_label_2
_geom_bond_distance
_geom_bond_site_symmetry_2
Li0 O2 2.033563 1_654
Li0 O5 2.033563 1_545
Li0 O1 2.034059 1_554
Li0 O6 2.034059 1_555
Li0 O11 2.379007 1_554
Li0 O8 2.476087 1_555
Li1 O6 1.959039 1_555
Li1 O9 1.998903 1_555
Li1 O5 2.002684 1_455
Li1 O10 2.038727 1_455
Li1 O3 2.422262 1_554
Li1 O0 2.531900 1_555
Li2 O11 1.934601 1_465
Li2 O7 1.943704 1_555
Li2 O0 1.943704 1_555
Li2 O8 1.979265 1_465
Li2 O2 2.536323 1_565
Li2 O5 2.536323 1_455
Li3 O1 1.959039 1_555
Li3 O10 1.998903 1_555
Li3 O2 2.002684 1_565
Li3 O9 2.038727 1_565
Li3 O4 2.422262 1_556
Li3 O7 2.531900 1_555
Ni0 O7 2.004528 1_555
Ni0 O0 2.004528 1_554
Ni0 O1 2.013347 1_554
Ni0 O6 2.013347 1_555
Ni0 O2 2.033002 1_564
Ni0 O5 2.033002 1_455
Ni1 O6 1.982031 1_555
Ni1 O5 1.995858 1_545
Ni1 O9 2.017248 1_555
Ni1 O10 2.027481 1_545
Ni1 O11 2.110575 1_555
Ni1 O4 2.126138 1_545
Ni2 O1 1.982031 1_555
Ni2 O2 1.995858 1_655
Ni2 O8 2.011927 1_555
Ni2 O10 2.017248 1_555
Ni2 O9 2.027481 1_655
Ni2 O3 2.126138 1_655
O0 Ti2 2.017326 1_555
O0 Ti0 2.067206 1_455
O1 Ti2 1.989710 1_555
O2 Ti1 1.952966 1_556
O3 Ti0 1.936846 1_455
O3 Ti1 1.968691 1_556
O4 Ti1 1.936846 1_565
O4 Ti0 1.968691 1_554
O5 Ti0 1.952966 1_554
O6 Ti2 1.989710 1_555
O7 Ti2 2.017326 1_555
O7 Ti1 2.067206 1_565
O8 Ti2 1.962490 1_555
O8 Ti1 2.065315 1_655
O9 Ti1 1.972670 1_555
O10 Ti0 1.972670 1_555
O11 Ti2 1.943495 1_555
O11 Ti0 2.068121 1_545
