# generated using pymatgen
data_BaYbFe4O7
_symmetry_space_group_name_H-M   'P 1'
_cell_length_a   6.46259394
_cell_length_b   6.46259394
_cell_length_c   6.46259394
_cell_angle_alpha   60.00000000
_cell_angle_beta   60.00000000
_cell_angle_gamma   60.00000000
_symmetry_Int_Tables_number   1
_chemical_formula_structural   BaYbFe4O7
_chemical_formula_sum   'Ba1 Yb1 Fe4 O7'
_cell_volume   190.85590859
_cell_formula_units_Z   1
loop_
 _symmetry_equiv_pos_site_id
 _symmetry_equiv_pos_as_xyz
  1  'x, y, z'
loop_
 _atom_site_type_symbol
 _atom_site_label
 _atom_site_symmetry_multiplicity
 _atom_site_fract_x
 _atom_site_fract_y
 _atom_site_fract_z
 _atom_site_occupancy
  Ba  Ba0  1  0.75000000  0.75000000  0.75000000  1
  Yb  Yb0  1  0.00000000  0.00000000  0.00000000  1
  Fe  Fe0  1  0.38264400  0.38264400  0.38264400  1
  Fe  Fe1  1  0.38264400  0.38264400  0.85206700  1
  Fe  Fe2  1  0.38264400  0.85206700  0.38264400  1
  Fe  Fe3  1  0.85206700  0.38264400  0.38264400  1
  O  O0  1  0.74872800  0.25127200  0.25127200  1
  O  O1  1  0.25127200  0.74872800  0.74872800  1
  O  O2  1  0.25127200  0.74872800  0.25127200  1
  O  O3  1  0.74872800  0.25127200  0.74872800  1
  O  O4  1  0.25127200  0.25127200  0.74872800  1
  O  O5  1  0.74872800  0.74872800  0.25127200  1
  O  O6  1  0.25000000  0.25000000  0.25000000  1
loop_
_geom_bond_atom_site_label_1
_geom_bond_atom_site_label_2
_geom_bond_distance
_geom_bond_site_symmetry_2
Ba0 O3 3.231318 1_565
Ba0 O5 3.231318 1_556
Ba0 O2 3.231318 1_556
Ba0 O1 3.231318 1_655
Ba0 O4 3.231318 1_565
Ba0 O2 3.231318 1_655
Ba0 O4 3.231318 1_655
Ba0 O1 3.231318 1_555
Ba0 O0 3.231318 1_565
Ba0 O3 3.231318 1_555
Ba0 O0 3.231318 1_556
Ba0 O5 3.231318 1_555
Fe0 O4 1.934540 1_555
Fe0 O2 1.934540 1_555
Fe0 O0 1.934540 1_555
Fe0 O6 2.099762 1_555
Fe1 O4 1.934535 1_555
Fe1 O3 1.934540 1_555
Fe1 O1 1.934540 1_555
Fe1 O6 2.099767 1_556
Fe2 O2 1.934535 1_555
Fe2 O1 1.934540 1_555
Fe2 O5 1.934540 1_555
Fe2 O6 2.099767 1_565
Fe3 O0 1.934535 1_555
Fe3 O3 1.934540 1_555
Fe3 O5 1.934540 1_555
Fe3 O6 2.099767 1_655
O0 Yb0 2.296497 1_655
O1 Yb0 2.296497 1_566
O2 Yb0 2.296497 1_565
O3 Yb0 2.296497 1_656
O4 Yb0 2.296497 1_556
O5 Yb0 2.296497 1_665
