# generated using pymatgen
data_FeSO4
_symmetry_space_group_name_H-M   'P 1'
_cell_length_a   5.27251819
_cell_length_b   7.95104448
_cell_length_c   6.52226486
_cell_angle_alpha   90.00000000
_cell_angle_beta   90.00000000
_cell_angle_gamma   89.99999345
_symmetry_Int_Tables_number   1
_chemical_formula_structural   FeSO4
_chemical_formula_sum   'Fe4 S4 O16'
_cell_volume   273.42656141
_cell_formula_units_Z   4
loop_
 _symmetry_equiv_pos_site_id
 _symmetry_equiv_pos_as_xyz
  1  'x, y, z'
loop_
 _atom_site_type_symbol
 _atom_site_label
 _atom_site_symmetry_multiplicity
 _atom_site_fract_x
 _atom_site_fract_y
 _atom_site_fract_z
 _atom_site_occupancy
  Fe  Fe0  1  0.50000000  0.50000000  0.50000000  1
  Fe  Fe1  1  0.50000000  0.50000000  -0.00000000  1
  Fe  Fe2  1  0.00000000  -0.00000000  0.50000000  1
  Fe  Fe3  1  0.00000000  -0.00000000  -0.00000000  1
  S  S0  1  0.50000000  0.84960902  0.25000000  1
  S  S1  1  -0.00000000  0.34960902  0.25000000  1
  S  S2  1  0.50000000  0.15039098  0.75000000  1
  S  S3  1  0.00000000  0.65039098  0.75000000  1
  O  O0  1  0.26900985  0.04191525  0.75000000  1
  O  O1  1  0.76900985  0.54191525  0.75000000  1
  O  O2  1  0.73099015  0.95808475  0.25000000  1
  O  O3  1  0.23099015  0.45808475  0.25000000  1
  O  O4  1  0.26900985  0.95808475  0.25000000  1
  O  O5  1  0.76900985  0.45808475  0.25000000  1
  O  O6  1  0.73099015  0.04191525  0.75000000  1
  O  O7  1  0.23099015  0.54191525  0.75000000  1
  O  O8  1  0.50000000  0.25201302  0.93635687  1
  O  O9  1  0.00000000  0.75201302  0.93635687  1
  O  O10  1  0.50000000  0.74798698  0.43635687  1
  O  O11  1  -0.00000000  0.24798698  0.43635687  1
  O  O12  1  0.50000000  0.74798698  0.06364313  1
  O  O13  1  -0.00000000  0.24798698  0.06364313  1
  O  O14  1  0.50000000  0.25201302  0.56364313  1
  O  O15  1  0.00000000  0.75201302  0.56364313  1
loop_
_geom_bond_atom_site_label_1
_geom_bond_atom_site_label_2
_geom_bond_distance
_geom_bond_site_symmetry_2
Fe0 O14 2.014975 1_555
Fe0 O10 2.014975 1_555
Fe0 O7 2.186677 1_555
Fe0 O5 2.186677 1_555
Fe0 O3 2.186677 1_555
Fe0 O1 2.186677 1_555
Fe1 O8 2.014975 1_554
Fe1 O12 2.014975 1_555
Fe1 O7 2.186677 1_554
Fe1 O5 2.186677 1_555
Fe1 O3 2.186677 1_555
Fe1 O1 2.186677 1_554
Fe2 O15 2.014975 1_545
Fe2 O11 2.014975 1_555
Fe2 O4 2.186677 1_545
Fe2 O6 2.186677 1_455
Fe2 O0 2.186677 1_555
Fe2 O2 2.186677 1_445
Fe3 O13 2.014975 1_555
Fe3 O9 2.014975 1_544
Fe3 O6 2.186677 1_454
Fe3 O4 2.186677 1_545
Fe3 O0 2.186677 1_554
Fe3 O2 2.186677 1_445
O0 S2 1.492373 1_555
O1 S3 1.492373 1_655
O2 S0 1.492373 1_555
O3 S1 1.492373 1_555
O4 S0 1.492373 1_555
O5 S1 1.492373 1_655
O6 S2 1.492373 1_555
O7 S3 1.492373 1_555
O8 S2 1.459531 1_555
O9 S3 1.459531 1_555
O10 S0 1.459531 1_555
O11 S1 1.459531 1_555
O12 S0 1.459531 1_555
O13 S1 1.459531 1_555
O14 S2 1.459531 1_555
O15 S3 1.459531 1_555
