# generated using pymatgen
data_BaSiGe
_symmetry_space_group_name_H-M   'P 1'
_cell_length_a   6.89885700
_cell_length_b   6.89885700
_cell_length_c   6.89885700
_cell_angle_alpha   90.00000000
_cell_angle_beta   90.00000000
_cell_angle_gamma   90.00000000
_symmetry_Int_Tables_number   1
_chemical_formula_structural   BaSiGe
_chemical_formula_sum   'Ba4 Si4 Ge4'
_cell_volume   328.34577235
_cell_formula_units_Z   4
loop_
 _symmetry_equiv_pos_site_id
 _symmetry_equiv_pos_as_xyz
  1  'x, y, z'
loop_
 _atom_site_type_symbol
 _atom_site_label
 _atom_site_symmetry_multiplicity
 _atom_site_fract_x
 _atom_site_fract_y
 _atom_site_fract_z
 _atom_site_occupancy
  Ba  Ba0  1  0.37389700  0.87389700  0.62610300  1
  Ba  Ba1  1  0.62610300  0.37389700  0.87389700  1
  Ba  Ba2  1  0.87389700  0.62610300  0.37389700  1
  Ba  Ba3  1  0.12610300  0.12610300  0.12610300  1
  Si  Si0  1  0.07723600  0.57723600  0.92276400  1
  Si  Si1  1  0.57723600  0.92276400  0.07723600  1
  Si  Si2  1  0.92276400  0.07723600  0.57723600  1
  Si  Si3  1  0.42276400  0.42276400  0.42276400  1
  Ge  Ge0  1  0.67199800  0.17199800  0.32800200  1
  Ge  Ge1  1  0.32800200  0.67199800  0.17199800  1
  Ge  Ge2  1  0.17199800  0.32800200  0.67199800  1
  Ge  Ge3  1  0.82800200  0.82800200  0.82800200  1
loop_
_geom_bond_atom_site_label_1
_geom_bond_atom_site_label_2
_geom_bond_distance
_geom_bond_site_symmetry_2
Ba0 Si2 3.430444 1_465
Ba0 Si3 3.430444 1_555
Ba0 Si1 3.430444 1_556
Ba0 Ge1 3.443082 1_555
Ba0 Ge3 3.443082 1_555
Ba0 Ge2 3.443082 1_565
Ba0 Si0 3.544853 1_555
Ba0 Ge0 3.562060 1_565
Ba1 Si1 3.430444 1_546
Ba1 Si3 3.430444 1_555
Ba1 Si0 3.430444 1_655
Ba1 Ge2 3.443082 1_555
Ba1 Ge3 3.443082 1_555
Ba1 Ge0 3.443082 1_556
Ba1 Si2 3.544853 1_555
Ba1 Ge1 3.562060 1_556
Ba2 Si0 3.430444 1_654
Ba2 Si2 3.430444 1_565
Ba2 Si3 3.430444 1_555
Ba2 Ge0 3.443082 1_555
Ba2 Ge1 3.443082 1_655
Ba2 Ge3 3.443082 1_555
Ba2 Si1 3.544853 1_555
Ba2 Ge2 3.562060 1_655
Ba3 Si0 3.430444 1_554
Ba3 Si2 3.430444 1_455
Ba3 Si1 3.430444 1_545
Ba3 Ge1 3.443082 1_545
Ba3 Ge2 3.443082 1_554
Ba3 Ge0 3.443082 1_455
Ba3 Si3 3.544853 1_555
Ba3 Ge3 3.562060 1_444
Ge0 Si3 2.525217 1_555
Ge0 Si2 2.525217 1_555
Ge0 Si1 2.525217 1_545
Ge1 Si3 2.525217 1_555
Ge1 Si1 2.525217 1_555
Ge1 Si0 2.525217 1_554
Ge2 Si3 2.525217 1_555
Ge2 Si0 2.525217 1_555
Ge2 Si2 2.525217 1_455
Ge3 Si0 2.525217 1_655
Ge3 Si2 2.525217 1_565
Ge3 Si1 2.525217 1_556
