# generated using pymatgen
data_Li9Mn2Co5O16
_symmetry_space_group_name_H-M   'P 1'
_cell_length_a   2.94292700
_cell_length_b   9.77686717
_cell_length_c   10.13380324
_cell_angle_alpha   78.05318820
_cell_angle_beta   89.45176430
_cell_angle_gamma   88.45199002
_symmetry_Int_Tables_number   1
_chemical_formula_structural   Li9Mn2Co5O16
_chemical_formula_sum   'Li9 Mn2 Co5 O16'
_cell_volume   285.15398546
_cell_formula_units_Z   1
loop_
 _symmetry_equiv_pos_site_id
 _symmetry_equiv_pos_as_xyz
  1  'x, y, z'
loop_
 _atom_site_type_symbol
 _atom_site_label
 _atom_site_symmetry_multiplicity
 _atom_site_fract_x
 _atom_site_fract_y
 _atom_site_fract_z
 _atom_site_occupancy
  Li  Li0  1  0.99411300  0.49316500  0.75962600  1
  Li  Li1  1  0.49734300  0.24967900  0.37577000  1
  Li  Li2  1  0.00000000  0.00000000  0.00000000  1
  Li  Li3  1  0.50265700  0.75032100  0.62423000  1
  Li  Li4  1  0.50468300  0.25882900  0.87514500  1
  Li  Li5  1  0.00000000  0.00000000  0.50000000  1
  Li  Li6  1  0.49531700  0.74117100  0.12485500  1
  Li  Li7  1  0.00588700  0.50683500  0.24037400  1
  Li  Li8  1  0.50000000  0.50000000  0.00000000  1
  Mn  Mn0  1  0.99510300  0.74373600  0.87982900  1
  Mn  Mn1  1  0.00489700  0.25626400  0.12017100  1
  Co  Co0  1  0.50000000  0.50000000  0.50000000  1
  Co  Co1  1  0.49406300  0.99863800  0.74762900  1
  Co  Co2  1  0.99861500  0.75085200  0.37441800  1
  Co  Co3  1  0.00138500  0.24914800  0.62558200  1
  Co  Co4  1  0.50593700  0.00136200  0.25237100  1
  O  O0  1  0.50612200  0.64227500  0.81999300  1
  O  O1  1  0.00136000  0.37426000  0.44594000  1
  O  O2  1  0.51793400  0.13186500  0.07780700  1
  O  O3  1  0.96008900  0.87775400  0.69889300  1
  O  O4  1  0.99591500  0.36141400  0.94956300  1
  O  O5  1  0.50621100  0.12460300  0.57421300  1
  O  O6  1  0.95854400  0.88051600  0.19701800  1
  O  O7  1  0.49965100  0.62338000  0.32110400  1
  O  O8  1  0.50034900  0.37662000  0.67889600  1
  O  O9  1  0.03991100  0.12224600  0.30110700  1
  O  O10  1  0.48206600  0.86813500  0.92219300  1
  O  O11  1  0.99864000  0.62574000  0.55406000  1
  O  O12  1  0.04145600  0.11948400  0.80298200  1
  O  O13  1  0.49378900  0.87539700  0.42578700  1
  O  O14  1  0.00408500  0.63858600  0.05043700  1
  O  O15  1  0.49387800  0.35772500  0.18000700  1
loop_
_geom_bond_atom_site_label_1
_geom_bond_atom_site_label_2
_geom_bond_distance
_geom_bond_site_symmetry_2
Li0 O4 2.082647 1_555
Li0 O8 2.111413 1_655
Li0 O8 2.139462 1_555
Li0 O0 2.191173 1_555
Li0 O11 2.214122 1_555
Li0 O0 2.296847 1_655
Li1 O15 2.045420 1_555
Li1 O1 2.088639 1_555
Li1 O9 2.106499 1_555
Li1 O5 2.126330 1_555
Li1 O1 2.160025 1_655
Li1 O9 2.221254 1_655
Li2 O6 2.098368 1_445
Li2 O12 2.098368 1_554
Li2 O10 2.144085 1_544
Li2 O2 2.144085 1_455
Li2 O10 2.270934 1_444
Li2 O2 2.270934 1_555
Li3 O0 2.045420 1_555
Li3 O11 2.088639 1_555
Li3 O3 2.106499 1_555
Li3 O13 2.126330 1_555
Li3 O11 2.160025 1_455
Li3 O3 2.221254 1_455
Li4 O4 2.006704 1_455
Li4 O4 2.019141 1_555
Li4 O8 2.081591 1_555
Li4 O2 2.168798 1_556
Li4 O12 2.186576 1_555
Li4 O12 2.271625 1_655
Li5 O5 2.103369 1_455
Li5 O13 2.103369 1_545
Li5 O9 2.123771 1_555
Li5 O3 2.123771 1_445
Li5 O5 2.183530 1_555
Li5 O13 2.183530 1_445
Li6 O14 2.006704 1_655
Li6 O14 2.019141 1_555
Li6 O7 2.081591 1_555
Li6 O10 2.168798 1_554
Li6 O6 2.186576 1_555
Li6 O6 2.271625 1_455
Li7 O14 2.082647 1_555
Li7 O7 2.111413 1_455
Li7 O7 2.139462 1_555
Li7 O15 2.191173 1_555
Li7 O1 2.214122 1_555
Li7 O15 2.296847 1_455
Li8 O15 2.052554 1_555
Li8 O0 2.052554 1_554
Li8 O4 2.095869 1_554
Li8 O14 2.095869 1_555
Li8 O14 2.169712 1_655
Li8 O4 2.169712 1_454
Mn0 O14 1.819406 1_656
Mn0 O0 1.940193 1_655
Mn0 O0 1.940453 1_555
Mn0 O10 2.009828 1_655
Mn0 O10 2.011881 1_555
Mn0 O3 2.022646 1_555
Mn1 O4 1.819406 1_454
Mn1 O15 1.940193 1_455
Mn1 O15 1.940453 1_555
Mn1 O2 2.009828 1_455
Mn1 O2 2.011881 1_555
Mn1 O9 2.022646 1_555
Co0 O7 1.958643 1_555
Co0 O8 1.958643 1_555
Co0 O11 2.038078 1_455
Co0 O1 2.038078 1_655
Co0 O11 2.087229 1_555
Co0 O1 2.087229 1_555
Co1 O12 1.913068 1_565
Co1 O3 1.913845 1_555
Co1 O5 1.926514 1_565
Co1 O10 1.955847 1_555
Co1 O3 2.113534 1_455
Co1 O12 2.167996 1_665
Co2 O11 1.971898 1_555
Co2 O6 1.976184 1_555
Co2 O13 2.027504 1_555
Co2 O7 2.045365 1_655
Co2 O13 2.061579 1_655
Co2 O7 2.096226 1_555
Co3 O1 1.971898 1_555
Co3 O12 1.976184 1_555
Co3 O5 2.027504 1_555
Co3 O8 2.045365 1_455
Co3 O5 2.061579 1_455
Co3 O8 2.096226 1_555
Co4 O6 1.913068 1_545
Co4 O9 1.913845 1_555
Co4 O13 1.926514 1_545
Co4 O2 1.955847 1_555
Co4 O9 2.113534 1_655
Co4 O6 2.167996 1_445
