# generated using pymatgen
data_Co(BMo)3
_symmetry_space_group_name_H-M   'P 1'
_cell_length_a   3.15117013
_cell_length_b   4.49868614
_cell_length_c   10.73849644
_cell_angle_alpha   89.99954025
_cell_angle_beta   90.00000000
_cell_angle_gamma   110.50151581
_symmetry_Int_Tables_number   1
_chemical_formula_structural   Co(BMo)3
_chemical_formula_sum   'Co2 B6 Mo6'
_cell_volume   142.58845157
_cell_formula_units_Z   2
loop_
 _symmetry_equiv_pos_site_id
 _symmetry_equiv_pos_as_xyz
  1  'x, y, z'
loop_
 _atom_site_type_symbol
 _atom_site_label
 _atom_site_symmetry_multiplicity
 _atom_site_fract_x
 _atom_site_fract_y
 _atom_site_fract_z
 _atom_site_occupancy
  Co  Co0  1  0.50000000  0.00000000  0.50000000  1
  Co  Co1  1  0.50000000  0.00000000  0.00000000  1
  B  B0  1  0.91433260  0.82866519  0.39718221  1
  B  B1  1  0.08566740  0.17133481  0.60281779  1
  B  B2  1  0.91433618  0.82867237  0.10282927  1
  B  B3  1  0.08566382  0.17132763  0.89717073  1
  B  B4  1  0.79369039  0.58738178  0.25001209  1
  B  B5  1  0.20630961  0.41261822  0.74998791  1
  Mo  Mo0  1  0.21209183  0.42418367  0.39291610  1
  Mo  Mo1  1  0.78790817  0.57581633  0.60708390  1
  Mo  Mo2  1  0.21209211  0.42418422  0.10711359  1
  Mo  Mo3  1  0.78790789  0.57581578  0.89288641  1
  Mo  Mo4  1  0.49943205  0.99886309  0.25002055  1
  Mo  Mo5  1  0.50056795  0.00113691  0.74997945  1
loop_
_geom_bond_atom_site_label_1
_geom_bond_atom_site_label_2
_geom_bond_distance
_geom_bond_site_symmetry_2
Co0 Mo1 2.645669 1_545
Co0 Mo0 2.645669 1_555
Co0 Mo1 2.645669 1_445
Co0 Mo0 2.645669 1_655
Co0 Mo0 2.685056 1_545
Co0 Mo1 2.685056 1_555
Co1 Mo2 2.645823 1_555
Co1 Mo3 2.645823 1_544
Co1 Mo3 2.645823 1_444
Co1 Mo2 2.645823 1_655
Co1 Mo2 2.685173 1_545
Co1 Mo3 2.685173 1_554
B0 B4 1.879187 1_555
B0 Co0 2.054937 1_565
B0 Co0 2.054937 1_665
B0 Mo0 2.321529 1_655
B0 Mo0 2.321529 1_555
B0 Mo4 2.343952 1_555
B0 Mo4 2.343954 1_655
B0 Mo1 2.493145 1_555
B0 Mo0 2.509785 1_665
B1 B5 1.879187 1_555
B1 Co0 2.054937 1_555
B1 Co0 2.054937 1_455
B1 Mo1 2.321529 1_455
B1 Mo1 2.321529 1_555
B1 Mo5 2.343952 1_555
B1 Mo5 2.343954 1_455
B1 Mo0 2.493145 1_555
B1 Mo1 2.509785 1_445
B2 B4 1.879303 1_555
B2 Co1 2.054986 1_565
B2 Co1 2.054986 1_665
B2 Mo2 2.321553 1_655
B2 Mo2 2.321553 1_555
B2 Mo4 2.344166 1_555
B2 Mo4 2.344168 1_655
B2 Mo3 2.493575 1_554
B2 Mo2 2.509762 1_665
B3 B5 1.879303 1_555
B3 Co1 2.054986 1_556
B3 Co1 2.054986 1_456
B3 Mo3 2.321553 1_455
B3 Mo3 2.321553 1_555
B3 Mo5 2.344166 1_555
B3 Mo5 2.344168 1_455
B3 Mo2 2.493575 1_556
B3 Mo3 2.509762 1_445
B4 Mo2 2.304368 1_555
B4 Mo2 2.304370 1_655
B4 Mo0 2.304401 1_555
B4 Mo0 2.304403 1_655
B4 Mo4 2.342819 1_555
B4 Mo4 2.342823 1_655
B4 Mo4 2.479872 1_545
B5 Mo3 2.304368 1_555
B5 Mo3 2.304370 1_455
B5 Mo1 2.304401 1_555
B5 Mo1 2.304403 1_455
B5 Mo5 2.342819 1_555
B5 Mo5 2.342823 1_455
B5 Mo5 2.479872 1_565
