# generated using pymatgen
data_Co3W
_symmetry_space_group_name_H-M   'P 1'
_cell_length_a   3.56678953
_cell_length_b   3.56638457
_cell_length_c   3.56744492
_cell_angle_alpha   90.00000000
_cell_angle_beta   90.00000000
_cell_angle_gamma   90.00000000
_symmetry_Int_Tables_number   1
_chemical_formula_structural   Co3W
_chemical_formula_sum   'Co3 W1'
_cell_volume   45.37983702
_cell_formula_units_Z   1
loop_
 _symmetry_equiv_pos_site_id
 _symmetry_equiv_pos_as_xyz
  1  'x, y, z'
loop_
 _atom_site_type_symbol
 _atom_site_label
 _atom_site_symmetry_multiplicity
 _atom_site_fract_x
 _atom_site_fract_y
 _atom_site_fract_z
 _atom_site_occupancy
  Co  Co0  1  0.50000000  0.50000000  -0.00000000  1
  Co  Co1  1  0.50000000  0.00000000  0.50000000  1
  Co  Co2  1  0.00000000  0.50000000  0.50000000  1
  W  W0  1  0.00000000  0.00000000  0.00000000  1
loop_
_geom_bond_atom_site_label_1
_geom_bond_atom_site_label_2
_geom_bond_distance
_geom_bond_site_symmetry_2
Co0 W0 2.521958 1_665
Co0 W0 2.521958 1_555
Co0 W0 2.521958 1_655
Co0 W0 2.521958 1_565
Co0 Co1 2.522190 1_555
Co0 Co1 2.522190 1_565
Co0 Co1 2.522190 1_554
Co0 Co1 2.522190 1_564
Co0 Co2 2.522333 1_554
Co0 Co2 2.522333 1_654
Co0 Co2 2.522333 1_555
Co0 Co2 2.522333 1_655
Co1 Co2 2.521958 1_645
Co1 Co2 2.521958 1_555
Co1 Co2 2.521958 1_655
Co1 Co2 2.521958 1_545
Co1 W0 2.522333 1_555
Co1 W0 2.522333 1_655
Co1 W0 2.522333 1_556
Co1 W0 2.522333 1_656
Co2 W0 2.522190 1_555
Co2 W0 2.522190 1_565
Co2 W0 2.522190 1_566
Co2 W0 2.522190 1_556
