# generated using pymatgen
data_Mg2Cd
_symmetry_space_group_name_H-M   'P 1'
_cell_length_a   6.26790838
_cell_length_b   6.26790838
_cell_length_c   31.87792200
_cell_angle_alpha   90.00000000
_cell_angle_beta   90.00000000
_cell_angle_gamma   120.00000405
_symmetry_Int_Tables_number   1
_chemical_formula_structural   Mg2Cd
_chemical_formula_sum   'Mg32 Cd16'
_cell_volume   1084.59075300
_cell_formula_units_Z   16
loop_
 _symmetry_equiv_pos_site_id
 _symmetry_equiv_pos_as_xyz
  1  'x, y, z'
loop_
 _atom_site_type_symbol
 _atom_site_label
 _atom_site_symmetry_multiplicity
 _atom_site_fract_x
 _atom_site_fract_y
 _atom_site_fract_z
 _atom_site_occupancy
  Mg  Mg0_0  1  0.16666650  0.33333350  0.37577750  1
  Mg  Mg0_1  1  0.16666650  0.33333350  0.87577750  1
  Mg  Mg0_2  1  0.16666650  0.83333350  0.37577750  1
  Mg  Mg0_3  1  0.16666650  0.83333350  0.87577750  1
  Mg  Mg0_4  1  0.66666650  0.33333350  0.37577750  1
  Mg  Mg0_5  1  0.66666650  0.33333350  0.87577750  1
  Mg  Mg0_6  1  0.66666650  0.83333350  0.37577750  1
  Mg  Mg0_7  1  0.66666650  0.83333350  0.87577750  1
  Mg  Mg1_0  1  0.33333350  0.16666650  0.29178700  1
  Mg  Mg1_1  1  0.33333350  0.16666650  0.79178700  1
  Mg  Mg1_2  1  0.33333350  0.66666650  0.29178700  1
  Mg  Mg1_3  1  0.33333350  0.66666650  0.79178700  1
  Mg  Mg1_4  1  0.83333350  0.16666650  0.29178700  1
  Mg  Mg1_5  1  0.83333350  0.16666650  0.79178700  1
  Mg  Mg1_6  1  0.83333350  0.66666650  0.29178700  1
  Mg  Mg1_7  1  0.83333350  0.66666650  0.79178700  1
  Mg  Mg2_0  1  0.16666650  0.33333350  0.20821300  1
  Mg  Mg2_1  1  0.16666650  0.33333350  0.70821300  1
  Mg  Mg2_2  1  0.16666650  0.83333350  0.20821300  1
  Mg  Mg2_3  1  0.16666650  0.83333350  0.70821300  1
  Mg  Mg2_4  1  0.66666650  0.33333350  0.20821300  1
  Mg  Mg2_5  1  0.66666650  0.33333350  0.70821300  1
  Mg  Mg2_6  1  0.66666650  0.83333350  0.20821300  1
  Mg  Mg2_7  1  0.66666650  0.83333350  0.70821300  1
  Mg  Mg3_0  1  0.33333350  0.16666650  0.12422250  1
  Mg  Mg3_1  1  0.33333350  0.16666650  0.62422250  1
  Mg  Mg3_2  1  0.33333350  0.66666650  0.12422250  1
  Mg  Mg3_3  1  0.33333350  0.66666650  0.62422250  1
  Mg  Mg3_4  1  0.83333350  0.16666650  0.12422250  1
  Mg  Mg3_5  1  0.83333350  0.16666650  0.62422250  1
  Mg  Mg3_6  1  0.83333350  0.66666650  0.12422250  1
  Mg  Mg3_7  1  0.83333350  0.66666650  0.62422250  1
  Cd  Cd0_0  1  0.33333350  0.16666650  0.45772700  1
  Cd  Cd0_1  1  0.33333350  0.16666650  0.95772700  1
  Cd  Cd0_2  1  0.33333350  0.66666650  0.45772700  1
  Cd  Cd0_3  1  0.33333350  0.66666650  0.95772700  1
  Cd  Cd0_4  1  0.83333350  0.16666650  0.45772700  1
  Cd  Cd0_5  1  0.83333350  0.16666650  0.95772700  1
  Cd  Cd0_6  1  0.83333350  0.66666650  0.45772700  1
  Cd  Cd0_7  1  0.83333350  0.66666650  0.95772700  1
  Cd  Cd1_0  1  0.16666650  0.33333350  0.04227300  1
  Cd  Cd1_1  1  0.16666650  0.33333350  0.54227300  1
  Cd  Cd1_2  1  0.16666650  0.83333350  0.04227300  1
  Cd  Cd1_3  1  0.16666650  0.83333350  0.54227300  1
  Cd  Cd1_4  1  0.66666650  0.33333350  0.04227300  1
  Cd  Cd1_5  1  0.66666650  0.33333350  0.54227300  1
  Cd  Cd1_6  1  0.66666650  0.83333350  0.04227300  1
  Cd  Cd1_7  1  0.66666650  0.83333350  0.54227300  1
loop_
_geom_bond_atom_site_label_1
_geom_bond_atom_site_label_2
_geom_bond_distance
_geom_bond_site_symmetry_2
Mg0_0 Mg0_6 3.133954 1_445
Mg0_0 Mg0_6 3.133954 1_555
Mg0_0 Mg0_2 3.133954 1_555
Mg0_0 Mg0_4 3.133954 1_455
Mg0_0 Mg0_4 3.133954 1_555
Mg0_0 Mg0_2 3.133954 1_545
Mg0_0 Mg1_2 3.231498 1_555
Mg0_0 Mg1_4 3.231498 1_455
Mg0_0 Mg1_0 3.231501 1_555
Mg0_1 Mg0_7 3.133954 1_445
Mg0_1 Mg0_7 3.133954 1_555
Mg0_1 Mg0_5 3.133954 1_555
Mg0_1 Mg0_3 3.133954 1_555
Mg0_1 Mg0_5 3.133954 1_455
Mg0_1 Mg0_3 3.133954 1_545
Mg0_1 Mg1_3 3.231498 1_555
Mg0_1 Mg1_5 3.231498 1_455
Mg0_1 Mg1_1 3.231501 1_555
Mg0_2 Mg0_4 3.133954 1_565
Mg0_2 Mg0_4 3.133954 1_455
Mg0_2 Mg0_6 3.133954 1_455
Mg0_2 Mg0_6 3.133954 1_555
Mg0_2 Mg1_6 3.231498 1_455
Mg0_2 Mg1_0 3.231498 1_565
Mg0_2 Mg1_2 3.231501 1_555
Mg0_3 Mg0_5 3.133954 1_565
Mg0_3 Mg0_5 3.133954 1_455
Mg0_3 Mg0_7 3.133954 1_455
Mg0_3 Mg0_7 3.133954 1_555
Mg0_3 Mg1_7 3.231498 1_455
Mg0_3 Mg1_1 3.231498 1_565
Mg0_3 Mg1_3 3.231501 1_555
Mg0_4 Mg0_6 3.133954 1_545
Mg0_4 Mg0_6 3.133954 1_555
Mg0_4 Mg1_0 3.231498 1_555
Mg0_4 Mg1_6 3.231498 1_555
Mg0_4 Mg1_4 3.231501 1_555
Mg0_5 Mg0_7 3.133954 1_545
Mg0_5 Mg0_7 3.133954 1_555
Mg0_5 Mg1_1 3.231498 1_555
Mg0_5 Mg1_7 3.231498 1_555
Mg0_5 Mg1_5 3.231501 1_555
Mg0_6 Mg1_4 3.231498 1_565
Mg0_6 Mg1_2 3.231498 1_555
Mg0_6 Mg1_6 3.231501 1_555
Mg0_7 Mg1_5 3.231498 1_565
Mg0_7 Mg1_3 3.231498 1_555
Mg0_7 Mg1_7 3.231501 1_555
Mg1_0 Mg1_6 3.133954 1_445
Mg1_0 Mg1_6 3.133954 1_555
Mg1_0 Mg1_4 3.133954 1_555
Mg1_0 Mg1_4 3.133954 1_455
Mg1_0 Mg1_2 3.133954 1_555
Mg1_0 Mg1_2 3.133954 1_545
Mg1_0 Mg2_2 3.220506 1_545
Mg1_0 Mg2_4 3.220506 1_555
Mg1_0 Mg2_0 3.220509 1_555
Mg1_1 Mg1_7 3.133954 1_445
Mg1_1 Mg1_7 3.133954 1_555
Mg1_1 Mg1_5 3.133954 1_555
Mg1_1 Mg1_3 3.133954 1_555
Mg1_1 Mg1_5 3.133954 1_455
Mg1_1 Mg1_3 3.133954 1_545
Mg1_1 Mg2_3 3.220506 1_545
Mg1_1 Mg2_5 3.220506 1_555
Mg1_1 Mg2_1 3.220509 1_555
Mg1_2 Mg1_4 3.133954 1_565
Mg1_2 Mg1_4 3.133954 1_455
Mg1_2 Mg1_6 3.133954 1_555
Mg1_2 Mg1_6 3.133954 1_455
Mg1_2 Mg2_0 3.220506 1_555
Mg1_2 Mg2_6 3.220506 1_555
Mg1_2 Mg2_2 3.220509 1_555
Mg1_3 Mg1_5 3.133954 1_565
Mg1_3 Mg1_5 3.133954 1_455
Mg1_3 Mg1_7 3.133954 1_455
Mg1_3 Mg1_7 3.133954 1_555
Mg1_3 Mg2_1 3.220506 1_555
Mg1_3 Mg2_7 3.220506 1_555
Mg1_3 Mg2_3 3.220509 1_555
Mg1_4 Mg1_6 3.133954 1_545
Mg1_4 Mg1_6 3.133954 1_555
Mg1_4 Mg2_6 3.220506 1_545
Mg1_4 Mg2_0 3.220506 1_655
Mg1_4 Mg2_4 3.220509 1_555
Mg1_5 Mg1_7 3.133954 1_545
Mg1_5 Mg1_7 3.133954 1_555
Mg1_5 Mg2_7 3.220506 1_545
Mg1_5 Mg2_1 3.220506 1_655
Mg1_5 Mg2_5 3.220509 1_555
Mg1_6 Mg2_2 3.220506 1_655
Mg1_6 Mg2_4 3.220506 1_555
Mg1_6 Mg2_6 3.220509 1_555
Mg1_7 Mg2_3 3.220506 1_655
Mg1_7 Mg2_5 3.220506 1_555
Mg1_7 Mg2_7 3.220509 1_555
Mg2_0 Mg2_6 3.133954 1_445
Mg2_0 Mg2_6 3.133954 1_555
Mg2_0 Mg2_4 3.133954 1_455
Mg2_0 Mg2_2 3.133954 1_555
Mg2_0 Mg2_4 3.133954 1_555
Mg2_0 Mg2_2 3.133954 1_545
Mg2_0 Mg3_2 3.231498 1_555
Mg2_0 Mg3_4 3.231498 1_455
Mg2_0 Mg3_0 3.231501 1_555
Mg2_1 Mg2_7 3.133954 1_445
Mg2_1 Mg2_7 3.133954 1_555
Mg2_1 Mg2_3 3.133954 1_555
Mg2_1 Mg2_5 3.133954 1_555
Mg2_1 Mg2_5 3.133954 1_455
Mg2_1 Mg2_3 3.133954 1_545
Mg2_1 Mg3_3 3.231498 1_555
Mg2_1 Mg3_5 3.231498 1_455
Mg2_1 Mg3_1 3.231501 1_555
Mg2_2 Mg2_4 3.133954 1_565
Mg2_2 Mg2_4 3.133954 1_455
Mg2_2 Mg2_6 3.133954 1_455
Mg2_2 Mg2_6 3.133954 1_555
Mg2_2 Mg3_6 3.231498 1_455
Mg2_2 Mg3_0 3.231498 1_565
Mg2_2 Mg3_2 3.231501 1_555
Mg2_3 Mg2_5 3.133954 1_565
Mg2_3 Mg2_5 3.133954 1_455
Mg2_3 Mg2_7 3.133954 1_455
Mg2_3 Mg2_7 3.133954 1_555
Mg2_3 Mg3_7 3.231498 1_455
Mg2_3 Mg3_1 3.231498 1_565
Mg2_3 Mg3_3 3.231501 1_555
Mg2_4 Mg2_6 3.133954 1_545
Mg2_4 Mg2_6 3.133954 1_555
Mg2_4 Mg3_0 3.231498 1_555
Mg2_4 Mg3_6 3.231498 1_555
Mg2_4 Mg3_4 3.231501 1_555
Mg2_5 Mg2_7 3.133954 1_545
Mg2_5 Mg2_7 3.133954 1_555
Mg2_5 Mg3_1 3.231498 1_555
Mg2_5 Mg3_7 3.231498 1_555
Mg2_5 Mg3_5 3.231501 1_555
Mg2_6 Mg3_4 3.231498 1_565
Mg2_6 Mg3_2 3.231498 1_555
Mg2_6 Mg3_6 3.231501 1_555
Mg2_7 Mg3_5 3.231498 1_565
Mg2_7 Mg3_3 3.231498 1_555
Mg2_7 Mg3_7 3.231501 1_555
Mg3_0 Mg3_6 3.133954 1_445
Mg3_0 Mg3_6 3.133954 1_555
Mg3_0 Mg3_4 3.133954 1_555
Mg3_0 Mg3_2 3.133954 1_545
Mg3_0 Mg3_4 3.133954 1_455
Mg3_0 Mg3_2 3.133954 1_555
Mg3_1 Mg3_7 3.133954 1_445
Mg3_1 Mg3_7 3.133954 1_555
Mg3_1 Mg3_5 3.133954 1_555
Mg3_1 Mg3_3 3.133954 1_555
Mg3_1 Mg3_5 3.133954 1_455
Mg3_1 Mg3_3 3.133954 1_545
Mg3_2 Mg3_4 3.133954 1_455
Mg3_2 Mg3_4 3.133954 1_565
Mg3_2 Mg3_6 3.133954 1_555
Mg3_2 Mg3_6 3.133954 1_455
Mg3_3 Mg3_5 3.133954 1_565
Mg3_3 Mg3_5 3.133954 1_455
Mg3_3 Mg3_7 3.133954 1_555
Mg3_3 Mg3_7 3.133954 1_455
Mg3_4 Mg3_6 3.133954 1_545
Mg3_4 Mg3_6 3.133954 1_555
Mg3_5 Mg3_7 3.133954 1_545
Mg3_5 Mg3_7 3.133954 1_555
Cd0_0 Cd0_6 3.133954 1_445
Cd0_0 Cd0_6 3.133954 1_555
Cd0_0 Cd0_4 3.133954 1_555
Cd0_0 Cd0_2 3.133954 1_555
Cd0_0 Cd0_2 3.133954 1_545
Cd0_0 Cd0_4 3.133954 1_455
Cd0_0 Mg0_4 3.177800 1_555
Cd0_0 Mg0_2 3.177800 1_545
Cd0_0 Mg0_0 3.177803 1_555
Cd0_0 Cd1_3 3.246186 1_545
Cd0_0 Cd1_5 3.246186 1_555
Cd0_0 Cd1_1 3.246189 1_555
Cd0_1 Cd0_7 3.133954 1_445
Cd0_1 Cd0_7 3.133954 1_555
Cd0_1 Cd0_5 3.133954 1_555
Cd0_1 Cd0_3 3.133954 1_545
Cd0_1 Cd0_3 3.133954 1_555
Cd0_1 Cd0_5 3.133954 1_455
Cd0_1 Mg0_5 3.177800 1_555
Cd0_1 Mg0_3 3.177800 1_545
Cd0_1 Mg0_1 3.177803 1_555
Cd0_1 Cd1_4 3.246186 1_556
Cd0_1 Cd1_2 3.246186 1_546
Cd0_1 Cd1_0 3.246189 1_556
Cd0_2 Cd0_4 3.133954 1_455
Cd0_2 Cd0_4 3.133954 1_565
Cd0_2 Cd0_6 3.133954 1_455
Cd0_2 Cd0_6 3.133954 1_555
Cd0_2 Mg0_0 3.177800 1_555
Cd0_2 Mg0_6 3.177800 1_555
Cd0_2 Mg0_2 3.177803 1_555
Cd0_2 Cd1_1 3.246186 1_555
Cd0_2 Cd1_7 3.246186 1_555
Cd0_2 Cd1_3 3.246189 1_555
Cd0_3 Cd0_5 3.133954 1_565
Cd0_3 Cd0_5 3.133954 1_455
Cd0_3 Cd0_7 3.133954 1_455
Cd0_3 Cd0_7 3.133954 1_555
Cd0_3 Mg0_1 3.177800 1_555
Cd0_3 Mg0_7 3.177800 1_555
Cd0_3 Mg0_3 3.177803 1_555
Cd0_3 Cd1_0 3.246186 1_556
Cd0_3 Cd1_6 3.246186 1_556
Cd0_3 Cd1_2 3.246189 1_556
Cd0_4 Cd0_6 3.133954 1_545
Cd0_4 Cd0_6 3.133954 1_555
Cd0_4 Mg0_6 3.177800 1_545
Cd0_4 Mg0_0 3.177800 1_655
Cd0_4 Mg0_4 3.177803 1_555
Cd0_4 Cd1_7 3.246186 1_545
Cd0_4 Cd1_1 3.246186 1_655
Cd0_4 Cd1_5 3.246189 1_555
Cd0_5 Cd0_7 3.133954 1_545
Cd0_5 Cd0_7 3.133954 1_555
Cd0_5 Mg0_7 3.177800 1_545
Cd0_5 Mg0_1 3.177800 1_655
Cd0_5 Mg0_5 3.177803 1_555
Cd0_5 Cd1_6 3.246186 1_546
Cd0_5 Cd1_0 3.246186 1_656
Cd0_5 Cd1_4 3.246189 1_556
Cd0_6 Mg0_2 3.177800 1_655
Cd0_6 Mg0_4 3.177800 1_555
Cd0_6 Mg0_6 3.177803 1_555
Cd0_6 Cd1_3 3.246186 1_655
Cd0_6 Cd1_5 3.246186 1_555
Cd0_6 Cd1_7 3.246189 1_555
Cd0_7 Mg0_3 3.177800 1_655
Cd0_7 Mg0_5 3.177800 1_555
Cd0_7 Mg0_7 3.177803 1_555
Cd0_7 Cd1_2 3.246186 1_656
Cd0_7 Cd1_4 3.246186 1_556
Cd0_7 Cd1_6 3.246189 1_556
Cd1_0 Cd1_6 3.133954 1_445
Cd1_0 Cd1_6 3.133954 1_555
Cd1_0 Cd1_4 3.133954 1_455
Cd1_0 Cd1_4 3.133954 1_555
Cd1_0 Cd1_2 3.133954 1_555
Cd1_0 Cd1_2 3.133954 1_545
Cd1_0 Mg3_4 3.177800 1_455
Cd1_0 Mg3_2 3.177800 1_555
Cd1_0 Mg3_0 3.177803 1_555
Cd1_1 Cd1_7 3.133954 1_445
Cd1_1 Cd1_7 3.133954 1_555
Cd1_1 Cd1_3 3.133954 1_555
Cd1_1 Cd1_5 3.133954 1_455
Cd1_1 Cd1_5 3.133954 1_555
Cd1_1 Cd1_3 3.133954 1_545
Cd1_1 Mg3_3 3.177800 1_555
Cd1_1 Mg3_5 3.177800 1_455
Cd1_1 Mg3_1 3.177803 1_555
Cd1_2 Cd1_4 3.133954 1_565
Cd1_2 Cd1_4 3.133954 1_455
Cd1_2 Cd1_6 3.133954 1_455
Cd1_2 Cd1_6 3.133954 1_555
Cd1_2 Mg3_6 3.177800 1_455
Cd1_2 Mg3_0 3.177800 1_565
Cd1_2 Mg3_2 3.177803 1_555
Cd1_3 Cd1_5 3.133954 1_565
Cd1_3 Cd1_5 3.133954 1_455
Cd1_3 Cd1_7 3.133954 1_455
Cd1_3 Cd1_7 3.133954 1_555
Cd1_3 Mg3_7 3.177800 1_455
Cd1_3 Mg3_1 3.177800 1_565
Cd1_3 Mg3_3 3.177803 1_555
Cd1_4 Cd1_6 3.133954 1_545
Cd1_4 Cd1_6 3.133954 1_555
Cd1_4 Mg3_0 3.177800 1_555
Cd1_4 Mg3_6 3.177800 1_555
Cd1_4 Mg3_4 3.177803 1_555
Cd1_5 Cd1_7 3.133954 1_545
Cd1_5 Cd1_7 3.133954 1_555
Cd1_5 Mg3_1 3.177800 1_555
Cd1_5 Mg3_7 3.177800 1_555
Cd1_5 Mg3_5 3.177803 1_555
Cd1_6 Mg3_4 3.177800 1_565
Cd1_6 Mg3_2 3.177800 1_555
Cd1_6 Mg3_6 3.177803 1_555
Cd1_7 Mg3_5 3.177800 1_565
Cd1_7 Mg3_3 3.177800 1_555
Cd1_7 Mg3_7 3.177803 1_555
