# generated using pymatgen
data_LuMg2Cr3S8
_symmetry_space_group_name_H-M   'P 1'
_cell_length_a   7.36385993
_cell_length_b   7.36384803
_cell_length_c   7.36412773
_cell_angle_alpha   59.84004183
_cell_angle_beta   59.83798971
_cell_angle_gamma   59.83951582
_symmetry_Int_Tables_number   1
_chemical_formula_structural   LuMg2Cr3S8
_chemical_formula_sum   'Lu1 Mg2 Cr3 S8'
_cell_volume   281.33817097
_cell_formula_units_Z   1
loop_
 _symmetry_equiv_pos_site_id
 _symmetry_equiv_pos_as_xyz
  1  'x, y, z'
loop_
 _atom_site_type_symbol
 _atom_site_label
 _atom_site_symmetry_multiplicity
 _atom_site_fract_x
 _atom_site_fract_y
 _atom_site_fract_z
 _atom_site_occupancy
  Lu  Lu0  1  0.49999700  0.50000900  0.49997800  1
  Mg  Mg0  1  0.87609600  0.87611200  0.87608200  1
  Mg  Mg1  1  0.12391500  0.12391300  0.12393200  1
  Cr  Cr0  1  0.50000300  0.49999200  0.00000600  1
  Cr  Cr1  1  0.00000000  0.49999100  0.50000600  1
  Cr  Cr2  1  0.50001800  0.99999600  0.50000400  1
  S  S0  1  0.73630100  0.73630500  0.73628400  1
  S  S1  1  0.24808500  0.24808900  0.71885600  1
  S  S2  1  0.24808400  0.71885700  0.24809700  1
  S  S3  1  0.71885700  0.24808900  0.24808700  1
  S  S4  1  0.75189100  0.28115200  0.75188500  1
  S  S5  1  0.28115300  0.75190300  0.75190400  1
  S  S6  1  0.26369000  0.26368400  0.26372300  1
  S  S7  1  0.75191200  0.75190300  0.28115800  1
loop_
_geom_bond_atom_site_label_1
_geom_bond_atom_site_label_2
_geom_bond_distance
_geom_bond_site_symmetry_2
Lu0 S7 2.632280 1_555
Lu0 S2 2.632292 1_555
Lu0 S3 2.632299 1_555
Lu0 S4 2.632324 1_555
Lu0 S5 2.632361 1_555
Lu0 S1 2.632366 1_555
Mg0 S4 2.434648 1_565
Mg0 S5 2.434719 1_655
Mg0 S7 2.434940 1_556
Mg0 S0 2.524760 1_555
Mg1 S3 2.434746 1_455
Mg1 S2 2.434774 1_545
Mg1 S1 2.434958 1_554
Mg1 S6 2.524381 1_555
Cr0 S3 2.434179 1_555
Cr0 S2 2.434208 1_555
Cr0 S4 2.434230 1_554
Cr0 S5 2.434271 1_554
Cr0 S0 2.465488 1_554
Cr0 S6 2.465534 1_555
Cr1 S4 2.434136 1_455
Cr1 S2 2.434149 1_555
Cr1 S1 2.434170 1_555
Cr1 S7 2.434180 1_455
Cr1 S6 2.465383 1_555
Cr1 S0 2.465398 1_455
Cr2 S3 2.434073 1_565
Cr2 S7 2.434112 1_555
Cr2 S1 2.434156 1_565
Cr2 S5 2.434192 1_555
Cr2 S0 2.465333 1_555
Cr2 S6 2.465557 1_565
