# generated using pymatgen
data_MgCo3O7
_symmetry_space_group_name_H-M   'P 1'
_cell_length_a   5.24159800
_cell_length_b   10.00627500
_cell_length_c   10.02925900
_cell_angle_alpha   90.00000000
_cell_angle_beta   90.00000000
_cell_angle_gamma   90.00000000
_symmetry_Int_Tables_number   1
_chemical_formula_structural   MgCo3O7
_chemical_formula_sum   'Mg4 Co12 O28'
_cell_volume   526.02331179
_cell_formula_units_Z   4
loop_
 _symmetry_equiv_pos_site_id
 _symmetry_equiv_pos_as_xyz
  1  'x, y, z'
loop_
 _atom_site_type_symbol
 _atom_site_label
 _atom_site_symmetry_multiplicity
 _atom_site_fract_x
 _atom_site_fract_y
 _atom_site_fract_z
 _atom_site_occupancy
  Mg  Mg0  1  0.35165900  0.07422400  0.25000000  1
  Mg  Mg1  1  0.85165900  0.42577600  0.75000000  1
  Mg  Mg2  1  0.64834100  0.92577600  0.75000000  1
  Mg  Mg3  1  0.14834100  0.57422400  0.25000000  1
  Co  Co0  1  0.69807800  0.68726500  0.97410400  1
  Co  Co1  1  0.19807800  0.81273500  0.02589600  1
  Co  Co2  1  0.30192200  0.31273500  0.47410400  1
  Co  Co3  1  0.80192200  0.18726500  0.52589600  1
  Co  Co4  1  0.69211200  0.77392600  0.25000000  1
  Co  Co5  1  0.19211200  0.72607400  0.75000000  1
  Co  Co6  1  0.30788800  0.22607400  0.75000000  1
  Co  Co7  1  0.80788800  0.27392600  0.25000000  1
  Co  Co8  1  0.19807800  0.81273500  0.47410400  1
  Co  Co9  1  0.69807800  0.68726500  0.52589600  1
  Co  Co10  1  0.80192200  0.18726500  0.97410400  1
  Co  Co11  1  0.30192200  0.31273500  0.02589600  1
  O  O0  1  0.06210100  0.28803900  0.87826300  1
  O  O1  1  0.56210100  0.21196100  0.12173700  1
  O  O2  1  0.93789900  0.71196100  0.37826300  1
  O  O3  1  0.43789900  0.78803900  0.62173700  1
  O  O4  1  0.93789900  0.71196100  0.12173700  1
  O  O5  1  0.43789900  0.78803900  0.87826300  1
  O  O6  1  0.06210100  0.28803900  0.62173700  1
  O  O7  1  0.56210100  0.21196100  0.37826300  1
  O  O8  1  0.54058200  0.28855500  0.88127000  1
  O  O9  1  0.04058200  0.21144500  0.11873000  1
  O  O10  1  0.45941800  0.71144500  0.38127000  1
  O  O11  1  0.95941800  0.78855500  0.61873000  1
  O  O12  1  0.45941800  0.71144500  0.11873000  1
  O  O13  1  0.95941800  0.78855500  0.88127000  1
  O  O14  1  0.54058200  0.28855500  0.61873000  1
  O  O15  1  0.04058200  0.21144500  0.38127000  1
  O  O16  1  0.83517600  0.43996300  0.25000000  1
  O  O17  1  0.33517600  0.06003700  0.75000000  1
  O  O18  1  0.16482400  0.56003700  0.75000000  1
  O  O19  1  0.66482400  0.93996300  0.25000000  1
  O  O20  1  0.78007600  0.03603200  0.59450000  1
  O  O21  1  0.28007600  0.46396800  0.40550000  1
  O  O22  1  0.21992400  0.96396800  0.09450000  1
  O  O23  1  0.71992400  0.53603200  0.90550000  1
  O  O24  1  0.21992400  0.96396800  0.40550000  1
  O  O25  1  0.71992400  0.53603200  0.59450000  1
  O  O26  1  0.78007600  0.03603200  0.90550000  1
  O  O27  1  0.28007600  0.46396800  0.09450000  1
loop_
_geom_bond_atom_site_label_1
_geom_bond_atom_site_label_2
_geom_bond_distance
_geom_bond_site_symmetry_2
Mg0 O22 2.031293 1_545
Mg0 O24 2.031293 1_545
Mg0 O19 2.121164 1_545
Mg0 O7 2.184270 1_555
Mg0 O1 2.184270 1_555
Mg0 O15 2.505447 1_555
Mg0 O9 2.505447 1_555
Mg1 O25 2.031293 1_555
Mg1 O23 2.031293 1_555
Mg1 O18 2.121164 1_655
Mg1 O0 2.184270 1_655
Mg1 O6 2.184270 1_655
Mg1 O14 2.505447 1_555
Mg1 O8 2.505447 1_555
Mg2 O20 2.031293 1_565
Mg2 O26 2.031293 1_565
Mg2 O17 2.121164 1_565
Mg2 O5 2.184270 1_555
Mg2 O3 2.184270 1_555
Mg2 O11 2.505447 1_555
Mg2 O13 2.505447 1_555
Mg3 O27 2.031293 1_555
Mg3 O21 2.031293 1_555
Mg3 O16 2.121164 1_455
Mg3 O2 2.184270 1_455
Mg3 O4 2.184270 1_455
Mg3 O12 2.505447 1_555
Mg3 O10 2.505447 1_555
Co0 O23 1.666294 1_555
Co0 O12 1.930639 1_556
Co0 O13 1.941798 1_555
Co0 O5 1.949506 1_555
Co0 O4 1.957946 1_556
Co1 O22 1.666294 1_555
Co1 O13 1.930639 1_454
Co1 O12 1.941798 1_555
Co1 O4 1.949506 1_455
Co1 O5 1.957946 1_554
Co2 O21 1.666294 1_555
Co2 O14 1.930639 1_555
Co2 O15 1.941798 1_555
Co2 O7 1.949506 1_555
Co2 O6 1.957946 1_555
Co3 O20 1.666294 1_555
Co3 O15 1.930639 1_655
Co3 O14 1.941798 1_555
Co3 O6 1.949506 1_655
Co3 O7 1.957946 1_555
Co4 O19 1.667557 1_555
Co4 O12 1.900473 1_555
Co4 O10 1.900473 1_555
Co4 O2 1.923276 1_555
Co4 O4 1.923276 1_555
Co5 O18 1.667557 1_555
Co5 O11 1.900473 1_455
Co5 O13 1.900473 1_455
Co5 O5 1.923276 1_555
Co5 O3 1.923276 1_555
Co6 O17 1.667557 1_555
Co6 O14 1.900473 1_555
Co6 O8 1.900473 1_555
Co6 O0 1.923276 1_555
Co6 O6 1.923276 1_555
Co7 O16 1.667557 1_555
Co7 O9 1.900473 1_655
Co7 O15 1.900473 1_655
Co7 O7 1.923276 1_555
Co7 O1 1.923276 1_555
Co8 O24 1.666294 1_555
Co8 O11 1.930639 1_455
Co8 O10 1.941798 1_555
Co8 O2 1.949506 1_455
Co8 O3 1.957946 1_555
Co9 O25 1.666294 1_555
Co9 O10 1.930639 1_555
Co9 O11 1.941798 1_555
Co9 O3 1.949506 1_555
Co9 O2 1.957946 1_555
Co10 O26 1.666294 1_555
Co10 O9 1.930639 1_656
Co10 O8 1.941798 1_555
Co10 O0 1.949506 1_655
Co10 O1 1.957946 1_556
Co11 O27 1.666294 1_555
Co11 O8 1.930639 1_554
Co11 O9 1.941798 1_555
Co11 O1 1.949506 1_555
Co11 O0 1.957946 1_554
