# generated using pymatgen
data_Ce3Pd5
_symmetry_space_group_name_H-M   'P 1'
_cell_length_a   3.94534135
_cell_length_b   7.10034007
_cell_length_c   7.10034007
_cell_angle_alpha   119.99998969
_cell_angle_beta   90.00000000
_cell_angle_gamma   90.00000000
_symmetry_Int_Tables_number   1
_chemical_formula_structural   Ce3Pd5
_chemical_formula_sum   'Ce3 Pd5'
_cell_volume   172.25568379
_cell_formula_units_Z   1
loop_
 _symmetry_equiv_pos_site_id
 _symmetry_equiv_pos_as_xyz
  1  'x, y, z'
loop_
 _atom_site_type_symbol
 _atom_site_label
 _atom_site_symmetry_multiplicity
 _atom_site_fract_x
 _atom_site_fract_y
 _atom_site_fract_z
 _atom_site_occupancy
  Ce  Ce0  1  0.50000000  0.35469952  0.35469952  1
  Ce  Ce1  1  0.50000000  -0.00000000  0.64530048  1
  Ce  Ce2  1  0.50000000  0.64530048  -0.00000000  1
  Pd  Pd0  1  -0.00000000  0.77068534  0.77068534  1
  Pd  Pd1  1  -0.00000000  0.00000000  0.22931466  1
  Pd  Pd2  1  0.00000000  0.22931466  0.00000000  1
  Pd  Pd3  1  0.00000000  0.66666700  0.33333300  1
  Pd  Pd4  1  -0.00000000  0.33333300  0.66666700  1
loop_
_geom_bond_atom_site_label_1
_geom_bond_atom_site_label_2
_geom_bond_distance
_geom_bond_site_symmetry_2
Ce0 Pd2 2.963891 1_555
Ce0 Pd1 2.963891 1_555
Ce0 Pd1 2.963891 1_655
Ce0 Pd2 2.963891 1_655
Ce0 Pd4 3.026062 1_655
Ce0 Pd4 3.026062 1_555
Ce0 Pd3 3.026062 1_555
Ce0 Pd3 3.026062 1_655
Ce0 Pd0 3.551820 1_655
Ce0 Pd0 3.551820 1_555
Ce1 Pd0 2.963891 1_545
Ce1 Pd0 2.963891 1_645
Ce1 Pd2 2.963891 1_656
Ce1 Pd2 2.963891 1_556
Ce1 Pd4 3.026057 1_555
Ce1 Pd4 3.026057 1_655
Ce1 Pd3 3.026059 1_645
Ce1 Pd3 3.026059 1_545
Ce1 Pd1 3.551820 1_655
Ce1 Pd1 3.551820 1_555
Ce2 Pd0 2.963891 1_554
Ce2 Pd0 2.963891 1_654
Ce2 Pd1 2.963891 1_565
Ce2 Pd1 2.963891 1_665
Ce2 Pd3 3.026057 1_555
Ce2 Pd3 3.026057 1_655
Ce2 Pd4 3.026059 1_654
Ce2 Pd4 3.026059 1_554
Ce2 Pd2 3.551820 1_555
Ce2 Pd2 3.551820 1_655
Pd0 Pd4 2.809836 1_555
Pd0 Pd3 2.809836 1_555
Pd0 Pd2 2.820146 1_566
Pd0 Pd1 2.820146 1_566
Pd1 Pd3 2.809828 1_545
Pd1 Pd4 2.809834 1_555
Pd1 Pd2 2.820146 1_555
Pd2 Pd4 2.809828 1_554
Pd2 Pd3 2.809834 1_555
