# generated using pymatgen
data_K2Te(MoO5)3
_symmetry_space_group_name_H-M   'P 1'
_cell_length_a   9.68883600
_cell_length_b   10.35753900
_cell_length_c   16.72981435
_cell_angle_alpha   69.20458139
_cell_angle_beta   90.00000000
_cell_angle_gamma   90.00000000
_symmetry_Int_Tables_number   1
_chemical_formula_structural   K2Te(MoO5)3
_chemical_formula_sum   'K8 Te4 Mo12 O60'
_cell_volume   1569.50652602
_cell_formula_units_Z   4
loop_
 _symmetry_equiv_pos_site_id
 _symmetry_equiv_pos_as_xyz
  1  'x, y, z'
loop_
 _atom_site_type_symbol
 _atom_site_label
 _atom_site_symmetry_multiplicity
 _atom_site_fract_x
 _atom_site_fract_y
 _atom_site_fract_z
 _atom_site_occupancy
  K  K0  1  0.36698400  0.58374500  0.60095300  1
  K  K1  1  0.63301600  0.41625500  0.39904700  1
  K  K2  1  0.86698400  0.41625500  0.89904700  1
  K  K3  1  0.13301600  0.58374500  0.10095300  1
  K  K4  1  0.13787800  0.23568700  0.74225400  1
  K  K5  1  0.86212200  0.76431300  0.25774600  1
  K  K6  1  0.63787800  0.76431300  0.75774600  1
  K  K7  1  0.36212200  0.23568700  0.24225400  1
  Te  Te0  1  0.35597300  0.93718700  0.93668800  1
  Te  Te1  1  0.64402700  0.06281300  0.06331200  1
  Te  Te2  1  0.85597300  0.06281300  0.56331200  1
  Te  Te3  1  0.14402700  0.93718700  0.43668800  1
  Mo  Mo0  1  0.75500600  0.75133100  0.50866500  1
  Mo  Mo1  1  0.24499400  0.24866900  0.49133500  1
  Mo  Mo2  1  0.25500600  0.24866900  0.99133500  1
  Mo  Mo3  1  0.74499400  0.75133100  0.00866500  1
  Mo  Mo4  1  0.00166300  0.68739800  0.66100200  1
  Mo  Mo5  1  0.99833700  0.31260200  0.33899800  1
  Mo  Mo6  1  0.50166300  0.31260200  0.83899800  1
  Mo  Mo7  1  0.49833700  0.68739800  0.16100200  1
  Mo  Mo8  1  0.25170200  0.91904400  0.65824800  1
  Mo  Mo9  1  0.74829800  0.08095600  0.34175200  1
  Mo  Mo10  1  0.75170200  0.08095600  0.84175200  1
  Mo  Mo11  1  0.24829800  0.91904400  0.15824800  1
  O  O0  1  0.02533800  0.10326100  0.60018500  1
  O  O1  1  0.97466200  0.89673900  0.39981500  1
  O  O2  1  0.52533800  0.89673900  0.89981500  1
  O  O3  1  0.47466200  0.10326100  0.10018500  1
  O  O4  1  0.21883000  0.63127600  0.89974800  1
  O  O5  1  0.78117000  0.36872400  0.10025200  1
  O  O6  1  0.71883000  0.36872400  0.60025200  1
  O  O7  1  0.28117000  0.63127600  0.39974800  1
  O  O8  1  0.09317200  0.81072700  0.70914400  1
  O  O9  1  0.90682800  0.18927300  0.29085600  1
  O  O10  1  0.59317200  0.18927300  0.79085600  1
  O  O11  1  0.40682800  0.81072700  0.20914400  1
  O  O12  1  0.12314000  0.31054900  0.91691900  1
  O  O13  1  0.87686000  0.68945100  0.08308100  1
  O  O14  1  0.62314000  0.68945100  0.58308100  1
  O  O15  1  0.37686000  0.31054900  0.41691900  1
  O  O16  1  0.86469200  0.87098800  0.58458100  1
  O  O17  1  0.13530800  0.12901200  0.41541900  1
  O  O18  1  0.36469200  0.12901200  0.91541900  1
  O  O19  1  0.63530800  0.87098800  0.08458100  1
  O  O20  1  0.80224800  0.93746200  0.94680500  1
  O  O21  1  0.19775200  0.06253800  0.05319500  1
  O  O22  1  0.30224800  0.06253800  0.55319500  1
  O  O23  1  0.69775200  0.93746200  0.44680500  1
  O  O24  1  0.12185900  0.55378300  0.68224800  1
  O  O25  1  0.87814100  0.44621700  0.31775200  1
  O  O26  1  0.62185900  0.44621700  0.81775200  1
  O  O27  1  0.37814100  0.55378300  0.18224800  1
  O  O28  1  0.28334600  0.00539400  0.72805600  1
  O  O29  1  0.71665400  0.99460600  0.27194400  1
  O  O30  1  0.78334600  0.99460600  0.77194400  1
  O  O31  1  0.21665400  0.00539400  0.22805600  1
  O  O32  1  0.37902000  0.37405600  0.75822100  1
  O  O33  1  0.62098000  0.62594400  0.24177900  1
  O  O34  1  0.87902000  0.62594400  0.74177900  1
  O  O35  1  0.12098000  0.37405600  0.25822100  1
  O  O36  1  0.38385200  0.79699500  0.67734400  1
  O  O37  1  0.61614800  0.20300500  0.32265600  1
  O  O38  1  0.88385200  0.20300500  0.82265600  1
  O  O39  1  0.11614800  0.79699500  0.17734400  1
  O  O40  1  0.27169300  0.32717300  0.56691500  1
  O  O41  1  0.72830700  0.67282700  0.43308500  1
  O  O42  1  0.77169300  0.67282700  0.93308500  1
  O  O43  1  0.22830700  0.32717300  0.06691500  1
  O  O44  1  0.18753400  0.91005700  0.89904400  1
  O  O45  1  0.81246600  0.08994300  0.10095600  1
  O  O46  1  0.68753400  0.08994300  0.60095600  1
  O  O47  1  0.31246600  0.91005700  0.39904400  1
  O  O48  1  0.34181800  0.66381800  0.89413200  1
  O  O49  1  0.65818200  0.33618200  0.10586800  1
  O  O50  1  0.84181800  0.33618200  0.60586800  1
  O  O51  1  0.15818200  0.66381800  0.39413200  1
  O  O52  1  0.14819300  0.83787600  0.55615500  1
  O  O53  1  0.85180700  0.16212400  0.44384500  1
  O  O54  1  0.64819300  0.16212400  0.94384500  1
  O  O55  1  0.35180700  0.83787600  0.05615500  1
  O  O56  1  0.91324300  0.64954100  0.56629900  1
  O  O57  1  0.08675700  0.35045900  0.43370100  1
  O  O58  1  0.41324300  0.35045900  0.93370100  1
  O  O59  1  0.58675700  0.64954100  0.06629900  1
loop_
_geom_bond_atom_site_label_1
_geom_bond_atom_site_label_2
_geom_bond_distance
_geom_bond_site_symmetry_2
K0 O14 2.686123 1_555
K0 O24 2.699418 1_555
K0 O32 2.756004 1_555
K0 O36 2.922829 1_555
K0 O40 3.051766 1_555
K0 O52 3.253144 1_555
K0 O7 3.329826 1_555
K1 O15 2.686123 1_555
K1 O25 2.699418 1_555
K1 O33 2.756004 1_555
K1 O37 2.922829 1_555
K1 O41 3.051766 1_555
K1 O53 3.253144 1_555
K1 O6 3.329826 1_555
K2 O12 2.686123 1_655
K2 O26 2.699418 1_555
K2 O34 2.756004 1_555
K2 O38 2.922829 1_555
K2 O42 3.051766 1_555
K2 O54 3.253144 1_555
K2 O5 3.329826 1_556
K3 O13 2.686123 1_455
K3 O27 2.699418 1_555
K3 O35 2.756004 1_555
K3 O39 2.922829 1_555
K3 O43 3.051766 1_555
K3 O55 3.253144 1_555
K3 O4 3.329826 1_554
K4 O38 2.767342 1_455
K4 O32 2.802828 1_555
K4 O28 2.852137 1_555
K4 O40 3.034784 1_555
K4 O24 3.088419 1_555
K4 O12 3.281646 1_555
K4 O0 3.321774 1_555
K5 O39 2.767342 1_655
K5 O33 2.802828 1_555
K5 O29 2.852137 1_555
K5 O41 3.034784 1_555
K5 O25 3.088419 1_555
K5 O13 3.281646 1_555
K5 O1 3.321774 1_555
K6 O36 2.767342 1_555
K6 O34 2.802828 1_555
K6 O30 2.852137 1_555
K6 O42 3.034784 1_555
K6 O26 3.088419 1_555
K6 O14 3.281646 1_555
K6 O2 3.321774 1_555
K7 O37 2.767342 1_555
K7 O35 2.802828 1_555
K7 O31 2.852137 1_555
K7 O43 3.034784 1_555
K7 O27 3.088419 1_555
K7 O15 3.281646 1_555
K7 O3 3.321774 1_555
Mo0 O14 1.739677 1_555
Mo0 O41 1.748400 1_555
Mo0 O56 1.915699 1_555
Mo0 O23 1.917995 1_555
Mo0 O16 2.322955 1_555
Mo1 O15 1.739677 1_555
Mo1 O40 1.748400 1_555
Mo1 O57 1.915699 1_555
Mo1 O22 1.917995 1_555
Mo1 O17 2.322955 1_555
Mo2 O12 1.739677 1_555
Mo2 O43 1.748400 1_556
Mo2 O58 1.915699 1_555
Mo2 O21 1.917995 1_556
Mo2 O18 2.322955 1_555
Mo3 O13 1.739677 1_555
Mo3 O42 1.748400 1_554
Mo3 O59 1.915699 1_555
Mo3 O20 1.917995 1_554
Mo3 O19 2.322955 1_555
Mo4 O34 1.741433 1_455
Mo4 O24 1.745994 1_555
Mo4 O8 1.948590 1_555
Mo4 O56 1.959333 1_455
Mo4 O16 2.298988 1_455
Mo4 O52 2.362263 1_555
Mo5 O35 1.741433 1_655
Mo5 O25 1.745994 1_555
Mo5 O9 1.948590 1_555
Mo5 O57 1.959333 1_655
Mo5 O17 2.298988 1_655
Mo5 O53 2.362263 1_555
Mo6 O32 1.741433 1_555
Mo6 O26 1.745994 1_555
Mo6 O10 1.948590 1_555
Mo6 O58 1.959333 1_555
Mo6 O18 2.298988 1_555
Mo6 O54 2.362263 1_555
Mo7 O33 1.741433 1_555
Mo7 O27 1.745994 1_555
Mo7 O11 1.948590 1_555
Mo7 O59 1.959333 1_555
Mo7 O19 2.298988 1_555
Mo7 O55 2.362263 1_555
Mo8 O28 1.731909 1_565
Mo8 O36 1.747195 1_555
Mo8 O8 1.914308 1_555
Mo8 O22 1.919080 1_565
Mo9 O29 1.731909 1_545
Mo9 O37 1.747195 1_555
Mo9 O9 1.914308 1_555
Mo9 O23 1.919080 1_545
Mo10 O30 1.731909 1_545
Mo10 O38 1.747195 1_555
Mo10 O10 1.914308 1_555
Mo10 O20 1.919080 1_545
Mo11 O31 1.731909 1_565
Mo11 O39 1.747195 1_555
Mo11 O11 1.914308 1_555
Mo11 O21 1.919080 1_565
O0 Te2 1.852640 1_455
O1 Te3 1.852640 1_655
O2 Te0 1.852640 1_555
O3 Te1 1.852640 1_555
O4 O48 1.232835 1_555
O16 Te2 1.891896 1_565
O17 Te3 1.891896 1_545
O18 Te0 1.891896 1_545
O19 Te1 1.891896 1_565
O44 Te0 1.806818 1_555
O45 Te1 1.806818 1_555
O46 Te2 1.806818 1_555
O47 Te3 1.806818 1_555
O49 O5 1.232835 1_555
O50 O6 1.232835 1_555
O51 O7 1.232835 1_555
O52 Te3 1.895926 1_555
O53 Te2 1.895926 1_555
O54 Te1 1.895926 1_556
O55 Te0 1.895926 1_554
