# generated using pymatgen
data_Na3Ca3AlSb4
_symmetry_space_group_name_H-M   'P 1'
_cell_length_a   10.11289031
_cell_length_b   10.11289031
_cell_length_c   7.60009200
_cell_angle_alpha   90.00000000
_cell_angle_beta   90.00000000
_cell_angle_gamma   120.00000201
_symmetry_Int_Tables_number   1
_chemical_formula_structural   Na3Ca3AlSb4
_chemical_formula_sum   'Na6 Ca6 Al2 Sb8'
_cell_volume   673.13173421
_cell_formula_units_Z   2
loop_
 _symmetry_equiv_pos_site_id
 _symmetry_equiv_pos_as_xyz
  1  'x, y, z'
loop_
 _atom_site_type_symbol
 _atom_site_label
 _atom_site_symmetry_multiplicity
 _atom_site_fract_x
 _atom_site_fract_y
 _atom_site_fract_z
 _atom_site_occupancy
  Na  Na0  1  0.85513200  0.14486800  0.54893900  1
  Na  Na1  1  0.28973500  0.14486800  0.54893900  1
  Na  Na2  1  0.85513200  0.71026500  0.54893900  1
  Na  Na3  1  0.14486800  0.85513200  0.04893900  1
  Na  Na4  1  0.71026500  0.85513200  0.04893900  1
  Na  Na5  1  0.14486800  0.28973500  0.04893900  1
  Ca  Ca0  1  0.47932500  0.52067500  0.73039100  1
  Ca  Ca1  1  0.04135000  0.52067500  0.73039100  1
  Ca  Ca2  1  0.47932500  0.95865000  0.73039100  1
  Ca  Ca3  1  0.52067500  0.47932500  0.23039100  1
  Ca  Ca4  1  0.95865000  0.47932500  0.23039100  1
  Ca  Ca5  1  0.52067500  0.04135000  0.23039100  1
  Al  Al0  1  0.66666700  0.33333300  0.85938400  1
  Al  Al1  1  0.33333300  0.66666700  0.35938400  1
  Sb  Sb0  1  0.81233500  0.18766500  0.96366700  1
  Sb  Sb1  1  0.37533000  0.18766500  0.96366700  1
  Sb  Sb2  1  0.81233500  0.62467000  0.96366700  1
  Sb  Sb3  1  0.18766500  0.81233500  0.46366700  1
  Sb  Sb4  1  0.62467000  0.81233500  0.46366700  1
  Sb  Sb5  1  0.18766500  0.37533000  0.46366700  1
  Sb  Sb6  1  0.66666700  0.33333300  0.49698900  1
  Sb  Sb7  1  0.33333300  0.66666700  0.99698900  1
loop_
_geom_bond_atom_site_label_1
_geom_bond_atom_site_label_2
_geom_bond_distance
_geom_bond_site_symmetry_2
Na0 Sb5 3.053381 1_655
Na0 Sb4 3.053381 1_545
Na0 Sb0 3.239888 1_555
Na0 Sb6 3.324688 1_555
Na1 Sb5 3.053374 1_555
Na1 Sb3 3.053383 1_545
Na1 Sb1 3.239890 1_555
Na1 Sb6 3.324705 1_555
Na2 Sb4 3.053374 1_555
Na2 Sb3 3.053383 1_655
Na2 Sb2 3.239890 1_555
Na2 Sb6 3.324705 1_555
Na3 Sb1 3.053381 1_564
Na3 Sb2 3.053381 1_454
Na3 Sb3 3.239888 1_555
Na3 Sb7 3.324688 1_554
Na4 Sb2 3.053374 1_554
Na4 Sb0 3.053383 1_564
Na4 Sb4 3.239890 1_555
Na4 Sb7 3.324705 1_554
Na5 Sb1 3.053374 1_554
Na5 Sb0 3.053383 1_454
Na5 Sb5 3.239890 1_555
Na5 Sb7 3.324705 1_554
Ca0 Sb5 3.260988 1_555
Ca0 Sb4 3.260988 1_555
Ca0 Sb7 3.262613 1_555
Ca0 Sb1 3.471150 1_555
Ca0 Sb2 3.471150 1_555
Ca1 Sb3 3.260988 1_555
Ca1 Sb5 3.260988 1_555
Ca1 Sb7 3.262606 1_555
Ca1 Sb0 3.471150 1_455
Ca1 Sb2 3.471150 1_455
Ca2 Sb3 3.260988 1_555
Ca2 Sb4 3.260988 1_555
Ca2 Sb7 3.262606 1_555
Ca2 Sb0 3.471150 1_565
Ca2 Sb1 3.471150 1_565
Ca3 Sb2 3.260988 1_554
Ca3 Sb1 3.260988 1_554
Ca3 Sb6 3.262613 1_555
Ca3 Sb4 3.471150 1_555
Ca3 Sb5 3.471150 1_555
Ca4 Sb0 3.260988 1_554
Ca4 Sb2 3.260988 1_554
Ca4 Sb6 3.262606 1_555
Ca4 Sb3 3.471150 1_655
Ca4 Sb5 3.471150 1_655
Ca5 Sb0 3.260988 1_554
Ca5 Sb1 3.260988 1_554
Ca5 Sb6 3.262606 1_555
Ca5 Sb3 3.471150 1_545
Ca5 Sb4 3.471150 1_545
Al0 Sb0 2.671786 1_555
Al0 Sb2 2.671794 1_555
Al0 Sb1 2.671794 1_555
Al0 Sb6 2.754235 1_555
Al1 Sb3 2.671786 1_555
Al1 Sb4 2.671794 1_555
Al1 Sb5 2.671794 1_555
Al1 Sb7 2.754235 1_554
