# generated using pymatgen
data_CdH10S2(NO2)4
_symmetry_space_group_name_H-M   'P 1'
_cell_length_a   5.58994000
_cell_length_b   5.99826755
_cell_length_c   7.48741641
_cell_angle_alpha   91.88827339
_cell_angle_beta   103.64644034
_cell_angle_gamma   99.58240210
_symmetry_Int_Tables_number   1
_chemical_formula_structural   CdH10S2(NO2)4
_chemical_formula_sum   'Cd1 H10 S2 N4 O8'
_cell_volume   239.87721475
_cell_formula_units_Z   1
loop_
 _symmetry_equiv_pos_site_id
 _symmetry_equiv_pos_as_xyz
  1  'x, y, z'
loop_
 _atom_site_type_symbol
 _atom_site_label
 _atom_site_symmetry_multiplicity
 _atom_site_fract_x
 _atom_site_fract_y
 _atom_site_fract_z
 _atom_site_occupancy
  Cd  Cd0  1  0.00000000  0.00000000  0.00000000  1
  H  H0  1  0.86396400  0.07611000  0.60942700  1
  H  H1  1  0.13603600  0.92389000  0.39057300  1
  H  H2  1  0.07802400  0.29117700  0.71806100  1
  H  H3  1  0.92197600  0.70882300  0.28193900  1
  H  H4  1  0.70620200  0.40190500  0.59245500  1
  H  H5  1  0.29379800  0.59809500  0.40754500  1
  H  H6  1  0.55639000  0.21073500  0.71278600  1
  H  H7  1  0.44361000  0.78926500  0.28721400  1
  H  H8  1  0.77091400  0.43374100  0.82902000  1
  H  H9  1  0.22908600  0.56625900  0.17098000  1
  S  S0  1  0.35473200  0.73818800  0.77666700  1
  S  S1  1  0.64526800  0.26181200  0.22333300  1
  N  N0  1  0.91810500  0.18194400  0.72791000  1
  N  N1  1  0.08189500  0.81805600  0.27209000  1
  N  N2  1  0.72523000  0.31923100  0.71495900  1
  N  N3  1  0.27477000  0.68076900  0.28504100  1
  O  O0  1  0.60579600  0.75689600  0.90618000  1
  O  O1  1  0.39420400  0.24310400  0.09382000  1
  O  O2  1  0.15632300  0.70290400  0.88361100  1
  O  O3  1  0.84367700  0.29709600  0.11638900  1
  O  O4  1  0.33541100  0.94674000  0.67411500  1
  O  O5  1  0.66458900  0.05326000  0.32588500  1
  O  O6  1  0.30953300  0.53559300  0.64349300  1
  O  O7  1  0.69046700  0.46440700  0.35650700  1
loop_
_geom_bond_atom_site_label_1
_geom_bond_atom_site_label_2
_geom_bond_distance
_geom_bond_site_symmetry_2
Cd0 N0 2.328903 1_454
Cd0 N1 2.328903 1_545
Cd0 O2 2.339700 1_544
Cd0 O3 2.339700 1_455
Cd0 O0 2.368091 1_444
Cd0 O1 2.368091 1_555
H0 N0 1.026561 1_555
H1 N1 1.026561 1_555
H2 N0 1.035929 1_455
H3 N1 1.035929 1_655
H4 N2 1.048837 1_555
H5 N3 1.048837 1_555
H6 N2 1.049820 1_555
H7 N3 1.049820 1_555
H8 N2 1.032658 1_555
H9 N3 1.032658 1_555
O0 S0 1.490233 1_555
O1 S1 1.490233 1_555
O2 S0 1.506031 1_555
O3 S1 1.506031 1_555
O4 S0 1.495087 1_555
O5 S1 1.495087 1_555
O6 S0 1.494626 1_555
O7 S1 1.494626 1_555
