# generated using pymatgen
data_LaYIr2
_symmetry_space_group_name_H-M   'P 1'
_cell_length_a   11.65591220
_cell_length_b   11.65591220
_cell_length_c   11.65591220
_cell_angle_alpha   129.03474977
_cell_angle_beta   117.17320177
_cell_angle_gamma   85.03923811
_symmetry_Int_Tables_number   1
_chemical_formula_structural   LaYIr2
_chemical_formula_sum   'La1 Y1 Ir2'
_cell_volume   1046.92022347
_cell_formula_units_Z   1
loop_
 _symmetry_equiv_pos_site_id
 _symmetry_equiv_pos_as_xyz
  1  'x, y, z'
loop_
 _atom_site_type_symbol
 _atom_site_label
 _atom_site_symmetry_multiplicity
 _atom_site_fract_x
 _atom_site_fract_y
 _atom_site_fract_z
 _atom_site_occupancy
  La  La0  1  0.00000000  0.50000000  0.50000000  1
  Y  Y0  1  0.00000000  0.00000000  0.00000000  1
  Ir  Ir0  1  0.00000000  0.25741200  0.25741200  1
  Ir  Ir1  1  0.00000000  0.74258800  0.74258800  1
loop_
_geom_bond_atom_site_label_1
_geom_bond_atom_site_label_2
_geom_bond_distance
_geom_bond_site_symmetry_2
Ir0 La0 2.433065 1_555
Ir0 Y0 2.581744 1_555
Ir1 La0 2.433065 1_555
Ir1 Y0 2.581744 1_566
