# generated using pymatgen
data_YMgPd
_symmetry_space_group_name_H-M   'P 1'
_cell_length_a   7.41203415
_cell_length_b   7.41203443
_cell_length_c   4.09334014
_cell_angle_alpha   90.00000000
_cell_angle_beta   90.00000000
_cell_angle_gamma   120.00000791
_symmetry_Int_Tables_number   1
_chemical_formula_structural   YMgPd
_chemical_formula_sum   'Y3 Mg3 Pd3'
_cell_volume   194.75260287
_cell_formula_units_Z   3
loop_
 _symmetry_equiv_pos_site_id
 _symmetry_equiv_pos_as_xyz
  1  'x, y, z'
loop_
 _atom_site_type_symbol
 _atom_site_label
 _atom_site_symmetry_multiplicity
 _atom_site_fract_x
 _atom_site_fract_y
 _atom_site_fract_z
 _atom_site_occupancy
  Y  Y0  1  0.41181023  0.41181023  0.50000000  1
  Y  Y1  1  -0.00000000  0.58818977  0.50000000  1
  Y  Y2  1  0.58818977  -0.00000000  0.50000000  1
  Mg  Mg0  1  0.75708291  0.75708291  -0.00000000  1
  Mg  Mg1  1  0.24291709  0.00000000  0.00000000  1
  Mg  Mg2  1  0.00000000  0.24291709  0.00000000  1
  Pd  Pd0  1  0.66666700  0.33333300  0.00000000  1
  Pd  Pd1  1  0.33333300  0.66666700  0.00000000  1
  Pd  Pd2  1  -0.00000000  0.00000000  0.50000000  1
loop_
_geom_bond_atom_site_label_1
_geom_bond_atom_site_label_2
_geom_bond_distance
_geom_bond_site_symmetry_2
Mg0 Pd2 2.725930 1_665
Mg0 Pd2 2.725930 1_664
Mg0 Pd1 2.865164 1_555
Mg0 Pd0 2.865164 1_555
Mg1 Pd2 2.725930 1_555
Mg1 Pd2 2.725930 1_554
Mg1 Pd1 2.865157 1_545
Mg1 Pd0 2.865161 1_555
Mg2 Pd2 2.725930 1_554
Mg2 Pd2 2.725930 1_555
Mg2 Pd0 2.865157 1_455
Mg2 Pd1 2.865161 1_555
Pd0 Y2 3.032212 1_555
Pd0 Y2 3.032212 1_554
Pd0 Y1 3.032214 1_655
Pd0 Y1 3.032214 1_654
Pd0 Y0 3.032218 1_555
Pd0 Y0 3.032218 1_554
Pd1 Y1 3.032212 1_554
Pd1 Y1 3.032212 1_555
Pd1 Y2 3.032214 1_565
Pd1 Y2 3.032214 1_564
Pd1 Y0 3.032218 1_555
Pd1 Y0 3.032218 1_554
Pd2 Y0 3.052351 1_555
Pd2 Y2 3.052351 1_455
Pd2 Y1 3.052352 1_545
