# generated using pymatgen
data_SnP2O9
_symmetry_space_group_name_H-M   'P 1'
_cell_length_a   5.13280800
_cell_length_b   8.70396900
_cell_length_c   16.12545322
_cell_angle_alpha   69.27875086
_cell_angle_beta   90.00000000
_cell_angle_gamma   90.00000000
_symmetry_Int_Tables_number   1
_chemical_formula_structural   SnP2O9
_chemical_formula_sum   'Sn4 P8 O36'
_cell_volume   673.81580994
_cell_formula_units_Z   4
loop_
 _symmetry_equiv_pos_site_id
 _symmetry_equiv_pos_as_xyz
  1  'x, y, z'
loop_
 _atom_site_type_symbol
 _atom_site_label
 _atom_site_symmetry_multiplicity
 _atom_site_fract_x
 _atom_site_fract_y
 _atom_site_fract_z
 _atom_site_occupancy
  Sn  Sn0  1  0.75986700  0.76241300  0.48000000  1
  Sn  Sn1  1  0.24013300  0.23758700  0.52000000  1
  Sn  Sn2  1  0.25986700  0.23758700  0.02000000  1
  Sn  Sn3  1  0.74013300  0.76241300  0.98000000  1
  P  P0  1  0.73683600  0.46196300  0.39525600  1
  P  P1  1  0.26316400  0.53803700  0.60474400  1
  P  P2  1  0.23683600  0.53803700  0.10474400  1
  P  P3  1  0.76316400  0.46196300  0.89525600  1
  P  P4  1  0.76173200  0.99308700  0.11633700  1
  P  P5  1  0.23826800  0.00691300  0.88366300  1
  P  P6  1  0.26173200  0.00691300  0.38366300  1
  P  P7  1  0.73826800  0.99308700  0.61633700  1
  O  O0  1  0.41977300  0.68400300  0.06024900  1
  O  O1  1  0.58022700  0.31599700  0.93975100  1
  O  O2  1  0.91977300  0.31599700  0.43975100  1
  O  O3  1  0.08022700  0.68400300  0.56024900  1
  O  O4  1  0.79773600  0.87792200  0.21556900  1
  O  O5  1  0.20226400  0.12207800  0.78443100  1
  O  O6  1  0.29773600  0.12207800  0.28443100  1
  O  O7  1  0.70226400  0.87792200  0.71556900  1
  O  O8  1  0.95693200  0.57224900  0.06813900  1
  O  O9  1  0.04306800  0.42775100  0.93186100  1
  O  O10  1  0.45693200  0.42775100  0.43186100  1
  O  O11  1  0.54306800  0.57224900  0.56813900  1
  O  O12  1  0.84359100  0.62016700  0.40533900  1
  O  O13  1  0.15640900  0.37983300  0.59466100  1
  O  O14  1  0.34359100  0.37983300  0.09466100  1
  O  O15  1  0.65640900  0.62016700  0.90533900  1
  O  O16  1  0.72497300  0.48935200  0.29346800  1
  O  O17  1  0.27502700  0.51064800  0.70653200  1
  O  O18  1  0.22497300  0.51064800  0.20653200  1
  O  O19  1  0.77502700  0.48935200  0.79346800  1
  O  O20  1  0.64112500  0.26375500  0.25838800  1
  O  O21  1  0.35887500  0.73624500  0.74161200  1
  O  O22  1  0.14112500  0.73624500  0.24161200  1
  O  O23  1  0.85887500  0.26375500  0.75838800  1
  O  O24  1  0.43736100  0.85423600  0.40304200  1
  O  O25  1  0.56263900  0.14576400  0.59695800  1
  O  O26  1  0.93736100  0.14576400  0.09695800  1
  O  O27  1  0.06263900  0.85423600  0.90304200  1
  O  O28  1  0.84122800  0.89377100  0.05861700  1
  O  O29  1  0.15877200  0.10622900  0.94138300  1
  O  O30  1  0.34122800  0.10622900  0.44138300  1
  O  O31  1  0.65877200  0.89377100  0.55861700  1
  O  O32  1  0.97342000  0.95432300  0.39552400  1
  O  O33  1  0.02658000  0.04567700  0.60447600  1
  O  O34  1  0.47342000  0.04567700  0.10447600  1
  O  O35  1  0.52658000  0.95432300  0.89552400  1
loop_
_geom_bond_atom_site_label_1
_geom_bond_atom_site_label_2
_geom_bond_distance
_geom_bond_site_symmetry_2
O0 P2 1.538035 1_555
O0 Sn3 2.054083 1_554
O1 P3 1.538035 1_555
O1 Sn2 2.054083 1_556
O2 P0 1.538035 1_555
O2 Sn1 2.054083 1_655
O3 P1 1.538035 1_555
O3 Sn0 2.054083 1_455
O4 P4 1.569842 1_555
O5 P5 1.569842 1_555
O6 P6 1.569842 1_555
O7 P7 1.569842 1_555
O8 P2 1.541687 1_655
O8 Sn3 2.081645 1_554
O9 P3 1.541687 1_455
O9 Sn2 2.081645 1_556
O10 P0 1.541687 1_555
O10 Sn1 2.081645 1_555
O11 P1 1.541687 1_555
O11 Sn0 2.081645 1_555
O12 P0 1.543133 1_555
O12 Sn0 2.054720 1_555
O13 P1 1.543133 1_555
O13 Sn1 2.054720 1_555
O14 P2 1.543133 1_555
O14 Sn2 2.054720 1_555
O15 P3 1.543133 1_555
O15 Sn3 2.054720 1_555
O16 P0 1.574091 1_555
O17 P1 1.574091 1_555
O18 P2 1.574091 1_555
O19 P3 1.574091 1_555
O24 P6 1.543502 1_565
O24 Sn0 2.053573 1_555
O25 P7 1.543502 1_545
O25 Sn1 2.053573 1_555
O26 P4 1.543502 1_545
O26 Sn2 2.053573 1_655
O27 P5 1.543502 1_565
O27 Sn3 2.053573 1_455
O28 P4 1.532787 1_555
O28 Sn3 2.051662 1_554
O29 P5 1.532787 1_555
O29 Sn2 2.051662 1_556
O30 P6 1.532787 1_555
O30 Sn1 2.051662 1_555
O31 P7 1.532787 1_555
O31 Sn0 2.051662 1_555
O32 P6 1.540815 1_665
O32 Sn0 2.058423 1_555
O33 P7 1.540815 1_445
O33 Sn1 2.058423 1_555
O34 P4 1.540815 1_545
O34 Sn2 2.058423 1_555
O35 P5 1.540815 1_565
O35 Sn3 2.058423 1_555
