# generated using pymatgen
data_YAlPd
_symmetry_space_group_name_H-M   'P 1'
_cell_length_a   7.14818858
_cell_length_b   7.14818877
_cell_length_c   4.04127667
_cell_angle_alpha   90.00000000
_cell_angle_beta   90.00000000
_cell_angle_gamma   119.99999430
_symmetry_Int_Tables_number   1
_chemical_formula_structural   YAlPd
_chemical_formula_sum   'Y3 Al3 Pd3'
_cell_volume   178.83036164
_cell_formula_units_Z   3
loop_
 _symmetry_equiv_pos_site_id
 _symmetry_equiv_pos_as_xyz
  1  'x, y, z'
loop_
 _atom_site_type_symbol
 _atom_site_label
 _atom_site_symmetry_multiplicity
 _atom_site_fract_x
 _atom_site_fract_y
 _atom_site_fract_z
 _atom_site_occupancy
  Y  Y0  1  0.41619809  0.41619809  0.50000000  1
  Y  Y1  1  0.58380191  0.00000000  0.50000000  1
  Y  Y2  1  0.00000000  0.58380191  0.50000000  1
  Al  Al0  1  -0.00000000  0.23511987  0.00000000  1
  Al  Al1  1  0.76488013  0.76488013  -0.00000000  1
  Al  Al2  1  0.23511987  -0.00000000  -0.00000000  1
  Pd  Pd0  1  0.66666700  0.33333300  0.00000000  1
  Pd  Pd1  1  0.00000000  0.00000000  0.50000000  1
  Pd  Pd2  1  0.33333300  0.66666700  0.00000000  1
loop_
_geom_bond_atom_site_label_1
_geom_bond_atom_site_label_2
_geom_bond_distance
_geom_bond_site_symmetry_2
Al0 Pd1 2.628244 1_555
Al0 Pd1 2.628244 1_554
Al0 Pd0 2.800543 1_455
Al0 Pd2 2.800548 1_555
Al0 Y2 3.208623 1_555
Al0 Y2 3.208623 1_554
Al0 Y0 3.280020 1_555
Al0 Y0 3.280020 1_554
Al0 Y1 3.280020 1_455
Al0 Y1 3.280020 1_454
Al1 Pd1 2.628244 1_664
Al1 Pd1 2.628244 1_665
Al1 Pd2 2.800550 1_555
Al1 Pd0 2.800550 1_555
Al1 Y0 3.208623 1_555
Al1 Y0 3.208623 1_554
Al1 Y2 3.280020 1_655
Al1 Y2 3.280020 1_654
Al1 Y1 3.280020 1_565
Al1 Y1 3.280020 1_564
Al2 Pd1 2.628244 1_555
Al2 Pd1 2.628244 1_554
Al2 Pd2 2.800543 1_545
Al2 Pd0 2.800548 1_555
Al2 Y1 3.208623 1_555
Al2 Y1 3.208623 1_554
Al2 Y0 3.280021 1_554
Al2 Y0 3.280021 1_555
Al2 Y2 3.280021 1_544
Al2 Y2 3.280021 1_545
Pd0 Y1 2.949552 1_555
Pd0 Y1 2.949552 1_554
Pd0 Y2 2.949553 1_654
Pd0 Y2 2.949553 1_655
Pd0 Y0 2.949557 1_554
Pd0 Y0 2.949557 1_555
Pd1 Y1 2.975062 1_455
Pd1 Y2 2.975063 1_545
Pd1 Y0 2.975063 1_555
Pd2 Y2 2.949552 1_554
Pd2 Y2 2.949552 1_555
Pd2 Y1 2.949553 1_564
Pd2 Y1 2.949553 1_565
Pd2 Y0 2.949557 1_555
Pd2 Y0 2.949557 1_554
