# generated using pymatgen
data_Zr2HC
_symmetry_space_group_name_H-M   'P 1'
_cell_length_a   3.34191146
_cell_length_b   3.34191146
_cell_length_c   5.46510464
_cell_angle_alpha   90.00000000
_cell_angle_beta   90.00000000
_cell_angle_gamma   120.00001350
_symmetry_Int_Tables_number   1
_chemical_formula_structural   Zr2HC
_chemical_formula_sum   'Zr2 H1 C1'
_cell_volume   52.85899894
_cell_formula_units_Z   1
loop_
 _symmetry_equiv_pos_site_id
 _symmetry_equiv_pos_as_xyz
  1  'x, y, z'
loop_
 _atom_site_type_symbol
 _atom_site_label
 _atom_site_symmetry_multiplicity
 _atom_site_fract_x
 _atom_site_fract_y
 _atom_site_fract_z
 _atom_site_occupancy
  Zr  Zr0  1  -0.00000000  0.00000000  0.76576735  1
  Zr  Zr1  1  0.33333300  0.66666700  0.23473022  1
  H  H0  1  -0.00000000  0.00000000  0.38767994  1
  C  C0  1  0.66666700  0.33333300  0.99582149  1
loop_
_geom_bond_atom_site_label_1
_geom_bond_atom_site_label_2
_geom_bond_distance
_geom_bond_site_symmetry_2
H0 Zr0 2.066287 1_555
H0 Zr1 2.102734 1_545
H0 Zr1 2.102736 1_445
H0 Zr1 2.102736 1_555
C0 Zr0 2.302935 1_655
C0 Zr0 2.302938 1_555
C0 Zr0 2.302938 1_665
C0 Zr1 2.329707 1_656
C0 Zr1 2.329707 1_546
C0 Zr1 2.329712 1_556
