# generated using pymatgen
data_Fe2AsP
_symmetry_space_group_name_H-M   'P 1'
_cell_length_a   3.15826800
_cell_length_b   5.30109900
_cell_length_c   5.91243900
_cell_angle_alpha   90.00000000
_cell_angle_beta   90.00000000
_cell_angle_gamma   90.00000000
_symmetry_Int_Tables_number   1
_chemical_formula_structural   Fe2AsP
_chemical_formula_sum   'Fe4 As2 P2'
_cell_volume   98.98777625
_cell_formula_units_Z   2
loop_
 _symmetry_equiv_pos_site_id
 _symmetry_equiv_pos_as_xyz
  1  'x, y, z'
loop_
 _atom_site_type_symbol
 _atom_site_label
 _atom_site_symmetry_multiplicity
 _atom_site_fract_x
 _atom_site_fract_y
 _atom_site_fract_z
 _atom_site_occupancy
  Fe  Fe0  1  0.50000000  0.49687500  0.04343000  1
  Fe  Fe1  1  0.50000000  0.99687500  0.95657000  1
  Fe  Fe2  1  0.00000000  0.49498500  0.44177400  1
  Fe  Fe3  1  0.00000000  0.99498500  0.55822600  1
  As  As0  1  0.50000000  0.30725400  0.67927600  1
  As  As1  1  0.50000000  0.80725400  0.32072400  1
  P  P0  1  0.00000000  0.70088600  0.82426500  1
  P  P1  1  0.00000000  0.20088600  0.17573500  1
loop_
_geom_bond_atom_site_label_1
_geom_bond_atom_site_label_2
_geom_bond_distance
_geom_bond_site_symmetry_2
Fe0 P0 2.311356 1_554
Fe0 P0 2.311356 1_654
Fe0 P1 2.359564 1_655
Fe0 P1 2.359564 1_555
Fe1 P1 2.311356 1_566
Fe1 P1 2.311356 1_666
Fe1 P0 2.359564 1_555
Fe1 P0 2.359564 1_655
Fe2 P1 2.214671 1_555
Fe2 P0 2.511086 1_555
Fe3 P0 2.214671 1_555
Fe3 P1 2.511086 1_565
As0 Fe1 2.322732 1_545
As0 Fe2 2.335781 1_555
As0 Fe2 2.335781 1_655
As0 Fe0 2.376131 1_556
As0 Fe3 2.397110 1_545
As0 Fe3 2.397110 1_645
As1 Fe0 2.322732 1_555
As1 Fe3 2.335781 1_555
As1 Fe3 2.335781 1_655
As1 Fe1 2.376131 1_554
As1 Fe2 2.397110 1_655
As1 Fe2 2.397110 1_555
