# generated using pymatgen
data_Al
_symmetry_space_group_name_H-M   'P 1'
_cell_length_a   5.65415370
_cell_length_b   5.65415440
_cell_length_c   18.37198614
_cell_angle_alpha   90.00000000
_cell_angle_beta   90.00000000
_cell_angle_gamma   119.99999604
_symmetry_Int_Tables_number   1
_chemical_formula_structural   Al
_chemical_formula_sum   Al32
_cell_volume   508.65349349
_cell_formula_units_Z   32
loop_
 _symmetry_equiv_pos_site_id
 _symmetry_equiv_pos_as_xyz
  1  'x, y, z'
loop_
 _atom_site_type_symbol
 _atom_site_label
 _atom_site_symmetry_multiplicity
 _atom_site_fract_x
 _atom_site_fract_y
 _atom_site_fract_z
 _atom_site_occupancy
  Al  Al0_0  1  0.00000000  0.00000000  0.00000000  1
  Al  Al0_1  1  0.00000000  0.00000000  0.50000000  1
  Al  Al0_2  1  0.00000000  0.50000000  0.00000000  1
  Al  Al0_3  1  0.00000000  0.50000000  0.50000000  1
  Al  Al0_4  1  0.50000000  0.00000000  0.00000000  1
  Al  Al0_5  1  0.50000000  0.00000000  0.50000000  1
  Al  Al0_6  1  0.50000000  0.50000000  0.00000000  1
  Al  Al0_7  1  0.50000000  0.50000000  0.50000000  1
  Al  Al1_0  1  0.16666650  0.33333350  0.12500000  1
  Al  Al1_1  1  0.16666650  0.33333350  0.62500000  1
  Al  Al1_2  1  0.16666650  0.83333350  0.12500000  1
  Al  Al1_3  1  0.16666650  0.83333350  0.62500000  1
  Al  Al1_4  1  0.66666650  0.33333350  0.12500000  1
  Al  Al1_5  1  0.66666650  0.33333350  0.62500000  1
  Al  Al1_6  1  0.66666650  0.83333350  0.12500000  1
  Al  Al1_7  1  0.66666650  0.83333350  0.62500000  1
  Al  Al2_0  1  0.00000000  0.00000000  0.25000000  1
  Al  Al2_1  1  0.00000000  0.00000000  0.75000000  1
  Al  Al2_2  1  0.00000000  0.50000000  0.25000000  1
  Al  Al2_3  1  0.00000000  0.50000000  0.75000000  1
  Al  Al2_4  1  0.50000000  0.00000000  0.25000000  1
  Al  Al2_5  1  0.50000000  0.00000000  0.75000000  1
  Al  Al2_6  1  0.50000000  0.50000000  0.25000000  1
  Al  Al2_7  1  0.50000000  0.50000000  0.75000000  1
  Al  Al3_0  1  0.33333400  0.16666650  0.37500000  1
  Al  Al3_1  1  0.33333400  0.16666650  0.87500000  1
  Al  Al3_2  1  0.33333400  0.66666650  0.37500000  1
  Al  Al3_3  1  0.33333400  0.66666650  0.87500000  1
  Al  Al3_4  1  0.83333400  0.16666650  0.37500000  1
  Al  Al3_5  1  0.83333400  0.16666650  0.87500000  1
  Al  Al3_6  1  0.83333400  0.66666650  0.37500000  1
  Al  Al3_7  1  0.83333400  0.66666650  0.87500000  1
loop_
_geom_bond_atom_site_label_1
_geom_bond_atom_site_label_2
_geom_bond_distance
_geom_bond_site_symmetry_2
Al0_0 Al3_5 2.817448 1_454
Al0_0 Al1_2 2.817449 1_545
Al0_0 Al1_6 2.817451 1_445
Al0_0 Al1_0 2.817451 1_555
Al0_0 Al3_7 2.817451 1_444
Al0_0 Al3_1 2.817452 1_554
Al0_0 Al0_4 2.827077 1_555
Al0_0 Al0_4 2.827077 1_455
Al0_0 Al0_6 2.827077 1_445
Al0_0 Al0_6 2.827077 1_555
Al0_0 Al0_2 2.827077 1_555
Al0_0 Al0_2 2.827077 1_545
Al0_1 Al3_4 2.817448 1_455
Al0_1 Al1_3 2.817449 1_545
Al0_1 Al1_7 2.817451 1_445
Al0_1 Al1_1 2.817451 1_555
Al0_1 Al3_6 2.817451 1_445
Al0_1 Al3_0 2.817452 1_555
Al0_1 Al0_5 2.827077 1_555
Al0_1 Al0_5 2.827077 1_455
Al0_1 Al0_7 2.827077 1_445
Al0_1 Al0_7 2.827077 1_555
Al0_1 Al0_3 2.827077 1_555
Al0_1 Al0_3 2.827077 1_545
Al0_2 Al3_7 2.817448 1_454
Al0_2 Al1_0 2.817449 1_555
Al0_2 Al1_4 2.817451 1_455
Al0_2 Al1_2 2.817451 1_555
Al0_2 Al3_5 2.817451 1_454
Al0_2 Al3_3 2.817452 1_554
Al0_2 Al0_6 2.827077 1_455
Al0_2 Al0_6 2.827077 1_555
Al0_2 Al0_4 2.827077 1_565
Al0_2 Al0_4 2.827077 1_455
Al0_3 Al3_6 2.817448 1_455
Al0_3 Al1_1 2.817449 1_555
Al0_3 Al1_5 2.817451 1_455
Al0_3 Al1_3 2.817451 1_555
Al0_3 Al3_4 2.817451 1_455
Al0_3 Al3_2 2.817452 1_555
Al0_3 Al0_7 2.827077 1_555
Al0_3 Al0_7 2.827077 1_455
Al0_3 Al0_5 2.827077 1_455
Al0_3 Al0_5 2.827077 1_565
Al0_4 Al3_1 2.817448 1_554
Al0_4 Al1_6 2.817449 1_545
Al0_4 Al1_2 2.817451 1_545
Al0_4 Al1_4 2.817451 1_555
Al0_4 Al3_3 2.817451 1_544
Al0_4 Al3_5 2.817452 1_554
Al0_4 Al0_6 2.827077 1_545
Al0_4 Al0_6 2.827077 1_555
Al0_5 Al3_0 2.817448 1_555
Al0_5 Al1_7 2.817449 1_545
Al0_5 Al1_3 2.817451 1_545
Al0_5 Al1_5 2.817451 1_555
Al0_5 Al3_2 2.817451 1_545
Al0_5 Al3_4 2.817452 1_555
Al0_5 Al0_7 2.827077 1_555
Al0_5 Al0_7 2.827077 1_545
Al0_6 Al3_3 2.817448 1_554
Al0_6 Al1_4 2.817449 1_555
Al0_6 Al1_0 2.817451 1_555
Al0_6 Al1_6 2.817451 1_555
Al0_6 Al3_1 2.817451 1_554
Al0_6 Al3_7 2.817452 1_554
Al0_7 Al3_2 2.817448 1_555
Al0_7 Al1_5 2.817449 1_555
Al0_7 Al1_1 2.817451 1_555
Al0_7 Al1_7 2.817451 1_555
Al0_7 Al3_0 2.817451 1_555
Al0_7 Al3_6 2.817452 1_555
Al1_0 Al2_2 2.817449 1_555
Al1_0 Al2_6 2.817451 1_555
Al1_0 Al2_0 2.817451 1_555
Al1_0 Al1_4 2.827077 1_555
Al1_0 Al1_4 2.827077 1_455
Al1_0 Al1_6 2.827077 1_445
Al1_0 Al1_6 2.827077 1_555
Al1_0 Al1_2 2.827077 1_545
Al1_0 Al1_2 2.827077 1_555
Al1_1 Al2_3 2.817449 1_555
Al1_1 Al2_7 2.817451 1_555
Al1_1 Al2_1 2.817451 1_555
Al1_1 Al1_5 2.827077 1_455
Al1_1 Al1_5 2.827077 1_555
Al1_1 Al1_7 2.827077 1_445
Al1_1 Al1_7 2.827077 1_555
Al1_1 Al1_3 2.827077 1_545
Al1_1 Al1_3 2.827077 1_555
Al1_2 Al2_0 2.817449 1_565
Al1_2 Al2_4 2.817451 1_565
Al1_2 Al2_2 2.817451 1_555
Al1_2 Al1_6 2.827077 1_555
Al1_2 Al1_6 2.827077 1_455
Al1_2 Al1_4 2.827077 1_565
Al1_2 Al1_4 2.827077 1_455
Al1_3 Al2_1 2.817449 1_565
Al1_3 Al2_5 2.817451 1_565
Al1_3 Al2_3 2.817451 1_555
Al1_3 Al1_7 2.827077 1_555
Al1_3 Al1_7 2.827077 1_455
Al1_3 Al1_5 2.827077 1_565
Al1_3 Al1_5 2.827077 1_455
Al1_4 Al2_6 2.817449 1_555
Al1_4 Al2_2 2.817451 1_655
Al1_4 Al2_4 2.817451 1_555
Al1_4 Al1_6 2.827077 1_545
Al1_4 Al1_6 2.827077 1_555
Al1_5 Al2_7 2.817449 1_555
Al1_5 Al2_3 2.817451 1_655
Al1_5 Al2_5 2.817451 1_555
Al1_5 Al1_7 2.827077 1_545
Al1_5 Al1_7 2.827077 1_555
Al1_6 Al2_4 2.817449 1_565
Al1_6 Al2_0 2.817451 1_665
Al1_6 Al2_6 2.817451 1_555
Al1_7 Al2_5 2.817449 1_565
Al1_7 Al2_1 2.817451 1_665
Al1_7 Al2_7 2.817451 1_555
Al2_0 Al3_4 2.817448 1_455
Al2_0 Al3_6 2.817451 1_445
Al2_0 Al3_0 2.817452 1_555
Al2_0 Al2_4 2.827077 1_455
Al2_0 Al2_4 2.827077 1_555
Al2_0 Al2_6 2.827077 1_555
Al2_0 Al2_6 2.827077 1_445
Al2_0 Al2_2 2.827077 1_555
Al2_0 Al2_2 2.827077 1_545
Al2_1 Al3_5 2.817448 1_455
Al2_1 Al3_7 2.817451 1_445
Al2_1 Al3_1 2.817452 1_555
Al2_1 Al2_5 2.827077 1_555
Al2_1 Al2_5 2.827077 1_455
Al2_1 Al2_7 2.827077 1_445
Al2_1 Al2_7 2.827077 1_555
Al2_1 Al2_3 2.827077 1_555
Al2_1 Al2_3 2.827077 1_545
Al2_2 Al3_6 2.817448 1_455
Al2_2 Al3_4 2.817451 1_455
Al2_2 Al3_2 2.817452 1_555
Al2_2 Al2_6 2.827077 1_455
Al2_2 Al2_6 2.827077 1_555
Al2_2 Al2_4 2.827077 1_455
Al2_2 Al2_4 2.827077 1_565
Al2_3 Al3_7 2.817448 1_455
Al2_3 Al3_5 2.817451 1_455
Al2_3 Al3_3 2.817452 1_555
Al2_3 Al2_7 2.827077 1_455
Al2_3 Al2_7 2.827077 1_555
Al2_3 Al2_5 2.827077 1_565
Al2_3 Al2_5 2.827077 1_455
Al2_4 Al3_0 2.817448 1_555
Al2_4 Al3_2 2.817451 1_545
Al2_4 Al3_4 2.817452 1_555
Al2_4 Al2_6 2.827077 1_545
Al2_4 Al2_6 2.827077 1_555
Al2_5 Al3_1 2.817448 1_555
Al2_5 Al3_3 2.817451 1_545
Al2_5 Al3_5 2.817452 1_555
Al2_5 Al2_7 2.827077 1_545
Al2_5 Al2_7 2.827077 1_555
Al2_6 Al3_2 2.817448 1_555
Al2_6 Al3_0 2.817451 1_555
Al2_6 Al3_6 2.817452 1_555
Al2_7 Al3_3 2.817448 1_555
Al2_7 Al3_1 2.817451 1_555
Al2_7 Al3_7 2.817452 1_555
Al3_0 Al3_4 2.827077 1_555
Al3_0 Al3_4 2.827077 1_455
Al3_0 Al3_6 2.827077 1_555
Al3_0 Al3_6 2.827077 1_445
Al3_0 Al3_2 2.827077 1_555
Al3_0 Al3_2 2.827077 1_545
Al3_1 Al3_5 2.827077 1_555
Al3_1 Al3_5 2.827077 1_455
Al3_1 Al3_7 2.827077 1_445
Al3_1 Al3_7 2.827077 1_555
Al3_1 Al3_3 2.827077 1_545
Al3_1 Al3_3 2.827077 1_555
Al3_2 Al3_6 2.827077 1_555
Al3_2 Al3_6 2.827077 1_455
Al3_2 Al3_4 2.827077 1_565
Al3_2 Al3_4 2.827077 1_455
Al3_3 Al3_7 2.827077 1_555
Al3_3 Al3_7 2.827077 1_455
Al3_3 Al3_5 2.827077 1_565
Al3_3 Al3_5 2.827077 1_455
Al3_4 Al3_6 2.827077 1_555
Al3_4 Al3_6 2.827077 1_545
Al3_5 Al3_7 2.827077 1_555
Al3_5 Al3_7 2.827077 1_545
