# generated using pymatgen
data_Ce12Sn5Ge3
_symmetry_space_group_name_H-M   'P 1'
_cell_length_a   11.62206821
_cell_length_b   11.62206821
_cell_length_c   11.62206821
_cell_angle_alpha   92.47755382
_cell_angle_beta   118.58004218
_cell_angle_gamma   118.58004218
_symmetry_Int_Tables_number   1
_chemical_formula_structural   Ce12Sn5Ge3
_chemical_formula_sum   'Ce24 Sn10 Ge6'
_cell_volume   1132.70997468
_cell_formula_units_Z   2
loop_
 _symmetry_equiv_pos_site_id
 _symmetry_equiv_pos_as_xyz
  1  'x, y, z'
loop_
 _atom_site_type_symbol
 _atom_site_label
 _atom_site_symmetry_multiplicity
 _atom_site_fract_x
 _atom_site_fract_y
 _atom_site_fract_z
 _atom_site_occupancy
  Ce  Ce0  1  0.16939150  0.83469575  0.33469575  1
  Ce  Ce1  1  0.83060850  0.16530425  0.66530425  1
  Ce  Ce2  1  0.50000000  0.66530425  0.83469575  1
  Ce  Ce3  1  0.50000000  0.33469575  0.16530425  1
  Ce  Ce4  1  0.50000000  0.85726539  0.35726539  1
  Ce  Ce5  1  0.50000000  0.14273461  0.64273461  1
  Ce  Ce6  1  0.50000000  0.35726539  0.85726539  1
  Ce  Ce7  1  0.50000000  0.64273461  0.14273461  1
  Ce  Ce8  1  0.73717690  0.80137471  0.66537052  1
  Ce  Ce9  1  0.26282310  0.19862529  0.33462948  1
  Ce  Ce10  1  0.26282310  0.92819362  0.06419781  1
  Ce  Ce11  1  0.13600419  0.06419781  0.80137471  1
  Ce  Ce12  1  0.86399581  0.69862529  0.43580219  1
  Ce  Ce13  1  0.73717690  0.07180638  0.93580219  1
  Ce  Ce14  1  0.86399581  0.93580219  0.19862529  1
  Ce  Ce15  1  0.13600419  0.30137471  0.56419781  1
  Ce  Ce16  1  0.86399581  0.66537052  0.92819362  1
  Ce  Ce17  1  0.13600419  0.57180638  0.83462948  1
  Ce  Ce18  1  0.13600419  0.33462948  0.07180638  1
  Ce  Ce19  1  0.86399581  0.42819362  0.16537052  1
  Ce  Ce20  1  0.73717690  0.43580219  0.57180638  1
  Ce  Ce21  1  0.26282310  0.56419781  0.42819362  1
  Ce  Ce22  1  0.26282310  0.83462948  0.69862529  1
  Ce  Ce23  1  0.73717690  0.16537052  0.30137471  1
  Sn  Sn0  1  -0.00000000  0.00000000  -0.00000000  1
  Sn  Sn1  1  -0.00000000  0.50000000  0.50000000  1
  Sn  Sn2  1  0.15114995  0.62411332  0.12411332  1
  Sn  Sn3  1  0.84885005  0.37588668  0.87588668  1
  Sn  Sn4  1  0.84885005  0.97296337  0.47296337  1
  Sn  Sn5  1  0.50000000  0.47296337  0.62411332  1
  Sn  Sn6  1  0.50000000  0.87588668  0.02703663  1
  Sn  Sn7  1  0.15114995  0.02703663  0.52703663  1
  Sn  Sn8  1  0.50000000  0.52703663  0.37588668  1
  Sn  Sn9  1  0.50000000  0.12411332  0.97296337  1
  Ge  Ge0  1  -0.00000000  0.75000000  0.75000000  1
  Ge  Ge1  1  -0.00000000  0.25000000  0.25000000  1
  Ge  Ge2  1  0.25824842  0.37912421  0.87912421  1
  Ge  Ge3  1  0.74175158  0.62087579  0.12087579  1
  Ge  Ge4  1  0.50000000  0.12087579  0.37912421  1
  Ge  Ge5  1  0.50000000  0.87912421  0.62087579  1
loop_
_geom_bond_atom_site_label_1
_geom_bond_atom_site_label_2
_geom_bond_distance
_geom_bond_site_symmetry_2
Ce0 Sn7 3.242499 1_565
Ce0 Sn2 3.242499 1_555
Ce0 Ge4 3.437826 1_565
Ce0 Ge5 3.437826 1_555
Ce0 Ge3 3.589519 1_455
Ce1 Sn3 3.242499 1_555
Ce1 Sn4 3.242499 1_545
Ce1 Ge5 3.437826 1_545
Ce1 Ge4 3.437826 1_555
Ce1 Ge2 3.589519 1_655
Ce2 Sn6 3.242499 1_556
Ce2 Sn5 3.242499 1_555
Ce2 Ge3 3.437826 1_556
Ce2 Ge2 3.437826 1_555
Ce2 Ge5 3.589519 1_555
Ce3 Sn9 3.242499 1_554
Ce3 Sn8 3.242499 1_555
Ce3 Ge2 3.437826 1_554
Ce3 Ge3 3.437826 1_555
Ce3 Ge4 3.589519 1_555
Ce4 Ge4 3.063249 1_565
Ce4 Ge5 3.063249 1_555
Ce4 Sn2 3.076625 1_555
Ce4 Sn4 3.076625 1_555
Ce4 Sn8 3.853367 1_555
Ce4 Sn6 3.853367 1_555
Ce5 Ge5 3.063249 1_545
Ce5 Ge4 3.063249 1_555
Ce5 Sn3 3.076625 1_555
Ce5 Sn7 3.076625 1_555
Ce5 Sn5 3.853367 1_555
Ce5 Sn9 3.853367 1_555
Ce6 Ge3 3.063249 1_556
Ce6 Ge2 3.063249 1_555
Ce6 Sn5 3.076625 1_555
Ce6 Sn9 3.076625 1_555
Ce6 Sn3 3.853367 1_555
Ce6 Sn7 3.853367 1_555
Ce7 Ge2 3.063249 1_554
Ce7 Ge3 3.063249 1_555
Ce7 Sn8 3.076625 1_555
Ce7 Sn6 3.076625 1_555
Ce7 Sn2 3.853367 1_555
Ce7 Sn4 3.853367 1_555
Ce8 Ge0 3.094420 1_655
Ce8 Ge5 3.121192 1_555
Ce8 Sn8 3.297562 1_555
Ce8 Sn0 3.300858 1_666
Ce8 Sn5 3.302608 1_555
Ce8 Sn4 3.368651 1_555
Ce9 Ge1 3.094420 1_555
Ce9 Ge4 3.121192 1_555
Ce9 Sn5 3.297562 1_555
Ce9 Sn0 3.300858 1_555
Ce9 Sn8 3.302608 1_555
Ce9 Sn7 3.368651 1_555
Ce10 Ge0 3.094420 1_554
Ce10 Ge4 3.121192 1_565
Ce10 Sn6 3.297562 1_555
Ce10 Sn0 3.300858 1_565
Ce10 Sn9 3.302608 1_564
Ce10 Sn2 3.368651 1_555
Ce11 Ge0 3.094420 1_545
Ce11 Ge2 3.121192 1_555
Ce11 Sn7 3.297562 1_555
Ce11 Sn0 3.300858 1_556
Ce11 Sn4 3.302608 1_445
Ce11 Sn9 3.368651 1_555
Ce12 Ge0 3.094420 1_655
Ce12 Ge3 3.121192 1_555
Ce12 Sn4 3.297562 1_555
Ce12 Sn1 3.300858 1_655
Ce12 Sn7 3.302608 1_665
Ce12 Sn8 3.368651 1_555
Ce13 Ge1 3.094420 1_656
Ce13 Ge5 3.121192 1_545
Ce13 Sn9 3.297562 1_555
Ce13 Sn0 3.300858 1_656
Ce13 Sn6 3.302608 1_546
Ce13 Sn3 3.368651 1_555
Ce14 Ge1 3.094420 1_665
Ce14 Ge3 3.121192 1_555
Ce14 Sn4 3.297562 1_555
Ce14 Sn0 3.300858 1_665
Ce14 Sn7 3.302608 1_665
Ce14 Sn6 3.368651 1_555
Ce15 Ge1 3.094420 1_555
Ce15 Ge2 3.121192 1_555
Ce15 Sn7 3.297562 1_555
Ce15 Sn1 3.300858 1_555
Ce15 Sn4 3.302608 1_445
Ce15 Sn5 3.368651 1_555
Ce16 Ge0 3.094420 1_655
Ce16 Ge3 3.121192 1_556
Ce16 Sn3 3.297562 1_555
Ce16 Sn0 3.300858 1_666
Ce16 Sn2 3.302608 1_656
Ce16 Sn5 3.368651 1_555
Ce17 Ge0 3.094420 1_555
Ce17 Ge2 3.121192 1_555
Ce17 Sn2 3.297562 1_556
Ce17 Sn1 3.300858 1_555
Ce17 Sn3 3.302608 1_455
Ce17 Sn6 3.368651 1_556
Ce18 Ge1 3.094420 1_555
Ce18 Ge2 3.121192 1_554
Ce18 Sn2 3.297562 1_555
Ce18 Sn0 3.300858 1_555
Ce18 Sn3 3.302608 1_454
Ce18 Sn8 3.368651 1_555
Ce19 Ge1 3.094420 1_655
Ce19 Ge3 3.121192 1_555
Ce19 Sn3 3.297562 1_554
Ce19 Sn1 3.300858 1_655
Ce19 Sn2 3.302608 1_655
Ce19 Sn9 3.368651 1_554
Ce20 Ge0 3.094420 1_655
Ce20 Ge4 3.121192 1_555
Ce20 Sn5 3.297562 1_555
Ce20 Sn1 3.300858 1_655
Ce20 Sn8 3.302608 1_555
Ce20 Sn3 3.368651 1_555
Ce21 Ge1 3.094420 1_555
Ce21 Ge5 3.121192 1_555
Ce21 Sn8 3.297562 1_555
Ce21 Sn1 3.300858 1_555
Ce21 Sn5 3.302608 1_555
Ce21 Sn2 3.368651 1_555
Ce22 Ge0 3.094420 1_555
Ce22 Ge5 3.121192 1_555
Ce22 Sn9 3.297562 1_565
Ce22 Sn1 3.300858 1_555
Ce22 Sn6 3.302608 1_556
Ce22 Sn7 3.368651 1_565
Ce23 Ge1 3.094420 1_655
Ce23 Ge4 3.121192 1_555
Ce23 Sn6 3.297562 1_545
Ce23 Sn1 3.300858 1_655
Ce23 Sn9 3.302608 1_554
Ce23 Sn4 3.368651 1_545
Sn2 Sn3 2.978989 1_454
Sn4 Sn7 2.978989 1_665
Sn5 Sn8 2.978989 1_555
Sn6 Sn9 2.978989 1_564
