# generated using pymatgen
data_P2H9NO8
_symmetry_space_group_name_H-M   'P 1'
_cell_length_a   7.67515553
_cell_length_b   9.54703372
_cell_length_c   10.13393970
_cell_angle_alpha   77.56971305
_cell_angle_beta   90.00000000
_cell_angle_gamma   90.00000000
_symmetry_Int_Tables_number   1
_chemical_formula_structural   P2H9NO8
_chemical_formula_sum   'P8 H36 N4 O32'
_cell_volume   725.15739402
_cell_formula_units_Z   4
loop_
 _symmetry_equiv_pos_site_id
 _symmetry_equiv_pos_as_xyz
  1  'x, y, z'
loop_
 _atom_site_type_symbol
 _atom_site_label
 _atom_site_symmetry_multiplicity
 _atom_site_fract_x
 _atom_site_fract_y
 _atom_site_fract_z
 _atom_site_occupancy
  P  P0  1  0.68758701  0.30640331  0.44497917  1
  P  P1  1  0.18758701  0.19359669  0.55502083  1
  P  P2  1  0.31241299  0.69359669  0.55502083  1
  P  P3  1  0.81241299  0.80640331  0.44497917  1
  P  P4  1  0.69487636  0.19469522  0.07550707  1
  P  P5  1  0.19487636  0.30530478  0.92449293  1
  P  P6  1  0.30512364  0.80530478  0.92449293  1
  P  P7  1  0.80512364  0.69469522  0.07550707  1
  H  H0  1  0.46639553  0.33497776  0.56797815  1
  H  H1  1  0.96639553  0.16502224  0.43202185  1
  H  H2  1  0.53360447  0.66502224  0.43202185  1
  H  H3  1  0.03360447  0.83497776  0.56797815  1
  H  H4  1  0.80820127  0.51614111  0.42334409  1
  H  H5  1  0.30820127  0.98385889  0.57665591  1
  H  H6  1  0.19179873  0.48385889  0.57665591  1
  H  H7  1  0.69179873  0.01614111  0.42334409  1
  H  H8  1  0.54832090  0.26483756  0.26502496  1
  H  H9  1  0.04832090  0.23516244  0.73497504  1
  H  H10  1  0.45167910  0.73516244  0.73497504  1
  H  H11  1  0.95167910  0.76483756  0.26502496  1
  H  H12  1  0.48621007  0.18227439  0.92884809  1
  H  H13  1  0.98621007  0.31772561  0.07115191  1
  H  H14  1  0.51378993  0.81772561  0.07115191  1
  H  H15  1  0.01378993  0.68227439  0.92884809  1
  H  H16  1  0.78695874  0.97434571  0.09888462  1
  H  H17  1  0.28695874  0.52565429  0.90111538  1
  H  H18  1  0.21304126  0.02565429  0.90111538  1
  H  H19  1  0.71304126  0.47434571  0.09888462  1
  H  H20  1  0.27688831  0.91767923  0.18147321  1
  H  H21  1  0.77688831  0.58232077  0.81852679  1
  H  H22  1  0.72311169  0.08232077  0.81852679  1
  H  H23  1  0.22311169  0.41767923  0.18147321  1
  H  H24  1  0.36192686  0.06541226  0.21767813  1
  H  H25  1  0.86192686  0.43458774  0.78232187  1
  H  H26  1  0.63807314  0.93458774  0.78232187  1
  H  H27  1  0.13807314  0.56541226  0.21767813  1
  H  H28  1  0.24157499  0.95039770  0.33579904  1
  H  H29  1  0.74157499  0.54960230  0.66420096  1
  H  H30  1  0.75842501  0.04960230  0.66420096  1
  H  H31  1  0.25842501  0.45039770  0.33579904  1
  H  H32  1  0.14434919  0.05119735  0.20200808  1
  H  H33  1  0.64434919  0.44880265  0.79799192  1
  H  H34  1  0.85565081  0.94880265  0.79799192  1
  H  H35  1  0.35565081  0.55119735  0.20200808  1
  N  N0  1  0.25572689  0.99632855  0.23516119  1
  N  N1  1  0.75572689  0.50367145  0.76483881  1
  N  N2  1  0.74427311  0.00367145  0.76483881  1
  N  N3  1  0.24427311  0.49632855  0.23516119  1
  O  O0  1  0.59829506  0.33313505  0.57539802  1
  O  O1  1  0.09829506  0.16686495  0.42460198  1
  O  O2  1  0.40170494  0.66686495  0.42460198  1
  O  O3  1  0.90170494  0.83313505  0.57539802  1
  O  O4  1  0.83942565  0.41648205  0.41455969  1
  O  O5  1  0.33942565  0.08351795  0.58544031  1
  O  O6  1  0.16057435  0.58351795  0.58544031  1
  O  O7  1  0.66057435  0.91648205  0.41455969  1
  O  O8  1  0.54694845  0.33385666  0.33434526  1
  O  O9  1  0.04694845  0.16614334  0.66565474  1
  O  O10  1  0.45305155  0.66614334  0.66565474  1
  O  O11  1  0.95305155  0.83385666  0.33434526  1
  O  O12  1  0.76757898  0.15940455  0.46134234  1
  O  O13  1  0.26757898  0.34059545  0.53865766  1
  O  O14  1  0.23242102  0.84059545  0.53865766  1
  O  O15  1  0.73242102  0.65940455  0.46134234  1
  O  O16  1  0.62039697  0.19089053  0.93157537  1
  O  O17  1  0.12039697  0.30910947  0.06842463  1
  O  O18  1  0.37960303  0.80910947  0.06842463  1
  O  O19  1  0.87960303  0.69089053  0.93157537  1
  O  O20  1  0.83259960  0.07149654  0.10638226  1
  O  O21  1  0.33259960  0.42850346  0.89361774  1
  O  O22  1  0.16740040  0.92850346  0.89361774  1
  O  O23  1  0.66740040  0.57149654  0.10638226  1
  O  O24  1  0.54501204  0.17462838  0.17486717  1
  O  O25  1  0.04501204  0.32537162  0.82513283  1
  O  O26  1  0.45498796  0.82537162  0.82513283  1
  O  O27  1  0.95498796  0.67462838  0.17486717  1
  O  O28  1  0.79521036  0.33180128  0.07241199  1
  O  O29  1  0.29521036  0.16819872  0.92758801  1
  O  O30  1  0.20478964  0.66819872  0.92758801  1
  O  O31  1  0.70478964  0.83180128  0.07241199  1
loop_
_geom_bond_atom_site_label_1
_geom_bond_atom_site_label_2
_geom_bond_distance
_geom_bond_site_symmetry_2
H0 O0 1.015010 1_555
H0 O13 1.553326 1_555
H1 O1 1.015010 1_655
H1 O12 1.553326 1_555
H2 O2 1.015010 1_555
H2 O15 1.553326 1_555
H3 O3 1.015010 1_455
H3 O14 1.553326 1_555
H4 O4 1.003531 1_555
H4 O15 1.607489 1_555
H5 O5 1.003531 1_565
H5 O14 1.607489 1_555
H6 O6 1.003531 1_555
H6 O13 1.607489 1_555
H7 O7 1.003531 1_545
H7 O12 1.607489 1_555
H8 O8 1.061631 1_555
H8 O24 1.384151 1_555
H9 O9 1.061631 1_555
H9 O25 1.384151 1_555
H10 O10 1.061631 1_555
H10 O26 1.384151 1_555
H11 O11 1.061631 1_555
H11 O27 1.384151 1_555
H12 O16 1.034028 1_555
H12 O29 1.472405 1_555
H13 O17 1.034028 1_655
H13 O28 1.472405 1_555
H14 O18 1.034028 1_555
H14 O31 1.472405 1_555
H15 O19 1.034028 1_455
H15 O30 1.472405 1_555
H16 O20 1.009496 1_565
H16 O31 1.574439 1_555
H17 O21 1.009496 1_555
H17 O30 1.574439 1_555
H18 O22 1.009496 1_545
H18 O29 1.574439 1_555
H19 O23 1.009496 1_555
H19 O28 1.574439 1_555
H20 N0 1.030566 1_555
H21 N1 1.030566 1_555
H22 N2 1.030566 1_555
H23 N3 1.030566 1_555
H24 N0 1.039458 1_545
H25 N1 1.039458 1_555
H26 N2 1.039458 1_565
H27 N3 1.039458 1_555
H28 N0 1.025508 1_555
H29 N1 1.025508 1_555
H30 N2 1.025508 1_555
H31 N3 1.025508 1_555
H32 N0 1.020915 1_545
H33 N1 1.020915 1_555
H34 N2 1.020915 1_565
H35 N3 1.020915 1_555
O0 P0 1.557817 1_555
O1 P1 1.557817 1_555
O2 P2 1.557817 1_555
O3 P3 1.557817 1_555
O4 P0 1.555033 1_555
O5 P1 1.555033 1_555
O6 P2 1.555033 1_555
O7 P3 1.555033 1_555
O8 P0 1.537640 1_555
O9 P1 1.537640 1_555
O10 P2 1.537640 1_555
O11 P3 1.537640 1_555
O12 P0 1.507908 1_555
O13 P1 1.507908 1_555
O14 P2 1.507908 1_555
O15 P3 1.507908 1_555
O16 P4 1.574294 1_556
O17 P5 1.574294 1_554
O18 P6 1.574294 1_554
O19 P7 1.574294 1_556
O20 P4 1.562121 1_555
O21 P5 1.562121 1_555
O22 P6 1.562121 1_555
O23 P7 1.562121 1_555
O24 P4 1.513459 1_555
O25 P5 1.513459 1_555
O26 P6 1.513459 1_555
O27 P7 1.513459 1_555
O28 P4 1.513175 1_555
O29 P5 1.513175 1_555
O30 P6 1.513175 1_555
O31 P7 1.513175 1_555
