# generated using pymatgen
data_Ca8Mo7O20
_symmetry_space_group_name_H-M   'P 1'
_cell_length_a   8.64424505
_cell_length_b   8.64424505
_cell_length_c   8.64424505
_cell_angle_alpha   119.95498453
_cell_angle_beta   119.95498453
_cell_angle_gamma   90.07798678
_symmetry_Int_Tables_number   1
_chemical_formula_structural   Ca8Mo7O20
_chemical_formula_sum   'Ca8 Mo7 O20'
_cell_volume   457.04732671
_cell_formula_units_Z   1
loop_
 _symmetry_equiv_pos_site_id
 _symmetry_equiv_pos_as_xyz
  1  'x, y, z'
loop_
 _atom_site_type_symbol
 _atom_site_label
 _atom_site_symmetry_multiplicity
 _atom_site_fract_x
 _atom_site_fract_y
 _atom_site_fract_z
 _atom_site_occupancy
  Ca  Ca0  1  0.55322600  0.91601100  0.77288500  1
  Ca  Ca1  1  0.44677400  0.08398900  0.22711500  1
  Ca  Ca2  1  0.14312600  0.78034100  0.22711500  1
  Ca  Ca3  1  0.78034100  0.55322600  0.63721500  1
  Ca  Ca4  1  0.85687400  0.21965900  0.77288500  1
  Ca  Ca5  1  0.21965900  0.44677400  0.36278500  1
  Ca  Ca6  1  0.91601100  0.14312600  0.36278500  1
  Ca  Ca7  1  0.08398900  0.85687400  0.63721500  1
  Mo  Mo0  1  0.69376000  0.37581100  0.06957000  1
  Mo  Mo1  1  0.30624000  0.62418900  0.93043000  1
  Mo  Mo2  1  0.62418900  0.69376000  0.31794900  1
  Mo  Mo3  1  0.37581100  0.30624000  0.68205100  1
  Mo  Mo4  1  0.65936900  0.65936900  0.00000000  1
  Mo  Mo5  1  0.34063100  0.34063100  0.00000000  1
  Mo  Mo6  1  0.00000000  0.00000000  0.00000000  1
  O  O0  1  0.55896200  0.17119400  0.73015600  1
  O  O1  1  0.44103800  0.82880600  0.26984400  1
  O  O2  1  0.82880600  0.55896200  0.38776800  1
  O  O3  1  0.17119400  0.44103800  0.61223200  1
  O  O4  1  0.48341500  0.81491700  0.96474800  1
  O  O5  1  0.51658500  0.18508300  0.03525200  1
  O  O6  1  0.85016900  0.51866700  0.03525200  1
  O  O7  1  0.51866700  0.48341500  0.66849800  1
  O  O8  1  0.14983100  0.48133300  0.96474800  1
  O  O9  1  0.48133300  0.51658500  0.33150200  1
  O  O10  1  0.81491700  0.85016900  0.33150200  1
  O  O11  1  0.18508300  0.14983100  0.66849800  1
  O  O12  1  0.25000000  0.75000000  0.50000000  1
  O  O13  1  0.75000000  0.25000000  0.50000000  1
  O  O14  1  0.88537400  0.22158500  0.10695800  1
  O  O15  1  0.11462600  0.77841500  0.89304200  1
  O  O16  1  0.77841500  0.88537400  0.66378900  1
  O  O17  1  0.22158500  0.11462600  0.33621100  1
  O  O18  1  0.82847500  0.82847500  0.00000000  1
  O  O19  1  0.17152500  0.17152500  0.00000000  1
loop_
_geom_bond_atom_site_label_1
_geom_bond_atom_site_label_2
_geom_bond_distance
_geom_bond_site_symmetry_2
Ca0 O12 2.220097 1_555
Ca0 O0 2.415857 1_565
Ca0 O5 2.470899 1_566
Ca0 O4 2.514740 1_555
Ca0 O16 2.516728 1_555
Ca0 O18 2.629001 1_556
Ca0 O14 2.764409 1_566
Ca1 O13 2.220097 1_555
Ca1 O1 2.415857 1_545
Ca1 O4 2.470899 1_544
Ca1 O5 2.514740 1_555
Ca1 O17 2.516728 1_555
Ca1 O19 2.629001 1_555
Ca1 O15 2.764409 1_544
Ca2 O12 2.220097 1_555
Ca2 O1 2.415857 1_555
Ca2 O8 2.470899 1_554
Ca2 O6 2.514740 1_455
Ca2 O17 2.516728 1_565
Ca2 O18 2.629001 1_455
Ca2 O15 2.764401 1_554
Ca3 O13 2.220097 1_555
Ca3 O2 2.415857 1_555
Ca3 O9 2.470899 1_555
Ca3 O7 2.514740 1_555
Ca3 O15 2.516728 1_655
Ca3 O18 2.629001 1_556
Ca3 O16 2.764409 1_555
Ca4 O13 2.220097 1_555
Ca4 O0 2.415857 1_555
Ca4 O6 2.470899 1_556
Ca4 O8 2.514740 1_655
Ca4 O16 2.516728 1_545
Ca4 O19 2.629001 1_656
Ca4 O14 2.764401 1_556
Ca5 O12 2.220097 1_555
Ca5 O3 2.415857 1_555
Ca5 O7 2.470899 1_555
Ca5 O9 2.514740 1_555
Ca5 O14 2.516728 1_455
Ca5 O19 2.629001 1_555
Ca5 O17 2.764409 1_555
Ca6 O13 2.220097 1_555
Ca6 O3 2.415857 1_655
Ca6 O11 2.470899 1_655
Ca6 O10 2.514740 1_545
Ca6 O14 2.516737 1_555
Ca6 O18 2.629001 1_545
Ca6 O17 2.764409 1_655
Ca7 O12 2.220097 1_555
Ca7 O2 2.415857 1_455
Ca7 O10 2.470899 1_455
Ca7 O11 2.514740 1_565
Ca7 O15 2.516737 1_555
Ca7 O19 2.629001 1_566
Ca7 O16 2.764409 1_455
Mo0 O2 1.968394 1_555
Mo0 O6 2.050066 1_555
Mo0 O5 2.050078 1_555
Mo0 O0 2.119515 1_554
Mo0 O14 2.127678 1_555
Mo1 O3 1.968394 1_555
Mo1 O8 2.050066 1_555
Mo1 O4 2.050078 1_555
Mo1 O1 2.119515 1_556
Mo1 O15 2.127678 1_555
Mo2 O1 1.968388 1_555
Mo2 O9 2.050073 1_555
Mo2 O10 2.050073 1_555
Mo2 O2 2.119521 1_555
Mo2 O16 2.127678 1_555
Mo3 O0 1.968388 1_555
Mo3 O11 2.050073 1_555
Mo3 O7 2.050073 1_555
Mo3 O3 2.119521 1_555
Mo3 O17 2.127678 1_555
Mo4 O10 2.041101 1_555
Mo4 O6 2.041101 1_555
Mo4 O4 2.041101 1_554
Mo4 O7 2.041101 1_554
Mo4 O18 2.065881 1_555
Mo5 O9 2.041101 1_555
Mo5 O8 2.041101 1_554
Mo5 O5 2.041101 1_555
Mo5 O11 2.041101 1_554
Mo5 O19 2.065881 1_555
Mo6 O19 2.095433 1_555
Mo6 O18 2.095433 1_445
Mo6 O15 2.158010 1_544
Mo6 O14 2.158010 1_455
Mo6 O17 2.158012 1_555
Mo6 O16 2.158012 1_444
