# generated using pymatgen
data_SrNd2Fe2O7
_symmetry_space_group_name_H-M   'P 1'
_cell_length_a   10.56946331
_cell_length_b   10.56946331
_cell_length_c   10.56946331
_cell_angle_alpha   158.58362017
_cell_angle_beta   158.58362017
_cell_angle_gamma   30.46907986
_symmetry_Int_Tables_number   1
_chemical_formula_structural   SrNd2Fe2O7
_chemical_formula_sum   'Sr1 Nd2 Fe2 O7'
_cell_volume   157.32827605
_cell_formula_units_Z   1
loop_
 _symmetry_equiv_pos_site_id
 _symmetry_equiv_pos_as_xyz
  1  'x, y, z'
loop_
 _atom_site_type_symbol
 _atom_site_label
 _atom_site_symmetry_multiplicity
 _atom_site_fract_x
 _atom_site_fract_y
 _atom_site_fract_z
 _atom_site_occupancy
  Sr  Sr0  1  0.68474400  0.68474400  0.00000000  1
  Nd  Nd0  1  0.50849500  0.50849500  0.00000000  1
  Nd  Nd1  1  0.31966100  0.31966100  0.00000000  1
  Fe  Fe0  1  0.90279600  0.90279600  0.00000000  1
  Fe  Fe1  1  0.10146300  0.10146300  0.00000000  1
  O  O0  1  0.89858000  0.39858000  0.50000000  1
  O  O1  1  0.39858000  0.89858000  0.50000000  1
  O  O2  1  0.09107600  0.59107600  0.50000000  1
  O  O3  1  0.59107600  0.09107600  0.50000000  1
  O  O4  1  0.80071600  0.80071600  0.00000000  1
  O  O5  1  0.20345500  0.20345500  0.00000000  1
  O  O6  1  0.99935900  0.99935900  0.00000000  1
loop_
_geom_bond_atom_site_label_1
_geom_bond_atom_site_label_2
_geom_bond_distance
_geom_bond_site_symmetry_2
Nd0 O2 2.587236 1_655
Nd0 O3 2.587236 1_554
Nd0 O3 2.587236 1_565
Nd0 O2 2.587236 1_554
Nd0 O6 2.783591 1_545
Nd0 O6 2.783591 1_455
Nd0 O6 2.783591 1_556
Nd0 O6 2.783591 1_444
Nd0 O0 2.980377 1_555
Nd0 O0 2.980377 1_454
Nd0 O1 2.980377 1_544
Nd0 O1 2.980377 1_555
Nd1 O5 2.370145 1_555
Nd1 O1 2.539244 1_555
Nd1 O0 2.539244 1_555
Nd1 O0 2.539244 1_454
Nd1 O1 2.539244 1_544
Nd1 O4 2.804098 1_556
Nd1 O4 2.804098 1_444
Nd1 O4 2.804098 1_545
Nd1 O4 2.804098 1_455
Fe0 O1 1.965763 1_655
Fe0 O0 1.965763 1_565
Fe0 O1 1.965763 1_554
Fe0 O0 1.965763 1_554
Fe0 O6 1.969506 1_555
Fe0 O4 2.082031 1_555
Fe1 O3 1.975275 1_454
Fe1 O2 1.975275 1_544
Fe1 O3 1.975275 1_555
Fe1 O2 1.975275 1_555
Fe1 O5 2.080236 1_555
Fe1 O6 2.082520 1_445
O2 Sr0 2.739832 1_556
O2 Sr0 2.739832 1_455
O3 Sr0 2.739832 1_545
O3 Sr0 2.739832 1_556
O4 Sr0 2.365373 1_555
O5 Sr0 2.803444 1_545
O5 Sr0 2.803444 1_455
O5 Sr0 2.803444 1_556
O5 Sr0 2.803444 1_444
