# generated using pymatgen
data_Mg30CoSiO32
_symmetry_space_group_name_H-M   'P 1'
_cell_length_a   8.52985200
_cell_length_b   8.52985200
_cell_length_c   8.55394000
_cell_angle_alpha   90.00000000
_cell_angle_beta   90.00000000
_cell_angle_gamma   90.00000000
_symmetry_Int_Tables_number   1
_chemical_formula_structural   Mg30CoSiO32
_chemical_formula_sum   'Mg30 Co1 Si1 O32'
_cell_volume   622.37077546
_cell_formula_units_Z   1
loop_
 _symmetry_equiv_pos_site_id
 _symmetry_equiv_pos_as_xyz
  1  'x, y, z'
loop_
 _atom_site_type_symbol
 _atom_site_label
 _atom_site_symmetry_multiplicity
 _atom_site_fract_x
 _atom_site_fract_y
 _atom_site_fract_z
 _atom_site_occupancy
  Mg  Mg0  1  0.00000000  0.50000000  0.00000000  1
  Mg  Mg1  1  0.00000000  0.50000000  0.50000000  1
  Mg  Mg2  1  0.50000000  0.00000000  0.00000000  1
  Mg  Mg3  1  0.50000000  0.00000000  0.50000000  1
  Mg  Mg4  1  0.50000000  0.50000000  0.00000000  1
  Mg  Mg5  1  0.50000000  0.50000000  0.50000000  1
  Mg  Mg6  1  0.00000000  0.24909900  0.24498700  1
  Mg  Mg7  1  0.00000000  0.24909900  0.75501300  1
  Mg  Mg8  1  0.00000000  0.75090100  0.24498700  1
  Mg  Mg9  1  0.00000000  0.75090100  0.75501300  1
  Mg  Mg10  1  0.50000000  0.25024700  0.24860100  1
  Mg  Mg11  1  0.50000000  0.25024700  0.75139900  1
  Mg  Mg12  1  0.50000000  0.74975300  0.24860100  1
  Mg  Mg13  1  0.50000000  0.74975300  0.75139900  1
  Mg  Mg14  1  0.24909900  0.00000000  0.24498700  1
  Mg  Mg15  1  0.24909900  0.00000000  0.75501300  1
  Mg  Mg16  1  0.25024700  0.50000000  0.24860100  1
  Mg  Mg17  1  0.25024700  0.50000000  0.75139900  1
  Mg  Mg18  1  0.75090100  0.00000000  0.24498700  1
  Mg  Mg19  1  0.75090100  0.00000000  0.75501300  1
  Mg  Mg20  1  0.74975300  0.50000000  0.24860100  1
  Mg  Mg21  1  0.74975300  0.50000000  0.75139900  1
  Mg  Mg22  1  0.24801700  0.24801700  0.00000000  1
  Mg  Mg23  1  0.25062300  0.25062300  0.50000000  1
  Mg  Mg24  1  0.24801700  0.75198300  0.00000000  1
  Mg  Mg25  1  0.25062300  0.74937700  0.50000000  1
  Mg  Mg26  1  0.75198300  0.24801700  0.00000000  1
  Mg  Mg27  1  0.74937700  0.25062300  0.50000000  1
  Mg  Mg28  1  0.75198300  0.75198300  0.00000000  1
  Mg  Mg29  1  0.74937700  0.74937700  0.50000000  1
  Co  Co0  1  0.00000000  0.00000000  0.00000000  1
  Si  Si0  1  0.00000000  0.00000000  0.50000000  1
  O  O0  1  0.26055700  0.00000000  0.00000000  1
  O  O1  1  0.22584000  0.00000000  0.50000000  1
  O  O2  1  0.25112200  0.50000000  0.00000000  1
  O  O3  1  0.24687600  0.50000000  0.50000000  1
  O  O4  1  0.73944300  0.00000000  0.00000000  1
  O  O5  1  0.77416000  0.00000000  0.50000000  1
  O  O6  1  0.74887800  0.50000000  0.00000000  1
  O  O7  1  0.75312400  0.50000000  0.50000000  1
  O  O8  1  0.24904200  0.24904200  0.25130500  1
  O  O9  1  0.24904200  0.24904200  0.74869500  1
  O  O10  1  0.24904200  0.75095800  0.25130500  1
  O  O11  1  0.24904200  0.75095800  0.74869500  1
  O  O12  1  0.75095800  0.24904200  0.25130500  1
  O  O13  1  0.75095800  0.24904200  0.74869500  1
  O  O14  1  0.75095800  0.75095800  0.25130500  1
  O  O15  1  0.75095800  0.75095800  0.74869500  1
  O  O16  1  0.00000000  0.00000000  0.29102400  1
  O  O17  1  0.00000000  0.00000000  0.70897600  1
  O  O18  1  0.00000000  0.50000000  0.25634300  1
  O  O19  1  0.00000000  0.50000000  0.74365700  1
  O  O20  1  0.50000000  0.00000000  0.25634300  1
  O  O21  1  0.50000000  0.00000000  0.74365700  1
  O  O22  1  0.50000000  0.50000000  0.25215900  1
  O  O23  1  0.50000000  0.50000000  0.74784100  1
  O  O24  1  0.00000000  0.26055700  0.00000000  1
  O  O25  1  0.00000000  0.22584000  0.50000000  1
  O  O26  1  0.00000000  0.73944300  0.00000000  1
  O  O27  1  0.00000000  0.77416000  0.50000000  1
  O  O28  1  0.50000000  0.25112200  0.00000000  1
  O  O29  1  0.50000000  0.24687600  0.50000000  1
  O  O30  1  0.50000000  0.74887800  0.00000000  1
  O  O31  1  0.50000000  0.75312400  0.50000000  1
loop_
_geom_bond_atom_site_label_1
_geom_bond_atom_site_label_2
_geom_bond_distance
_geom_bond_site_symmetry_2
Mg0 O26 2.042413 1_555
Mg0 O24 2.042413 1_555
Mg0 O6 2.142033 1_455
Mg0 O2 2.142033 1_555
Mg0 O18 2.192743 1_555
Mg0 O19 2.192743 1_554
Mg1 O19 2.084227 1_555
Mg1 O18 2.084227 1_555
Mg1 O7 2.105816 1_455
Mg1 O3 2.105816 1_555
Mg1 O25 2.338544 1_555
Mg1 O27 2.338544 1_555
Mg2 O4 2.042413 1_555
Mg2 O0 2.042413 1_555
Mg2 O30 2.142033 1_545
Mg2 O28 2.142033 1_555
Mg2 O21 2.192743 1_554
Mg2 O20 2.192743 1_555
Mg3 O21 2.084227 1_555
Mg3 O20 2.084227 1_555
Mg3 O31 2.105816 1_545
Mg3 O29 2.105816 1_555
Mg3 O1 2.338544 1_555
Mg3 O5 2.338544 1_555
Mg4 O2 2.122893 1_555
Mg4 O28 2.122893 1_555
Mg4 O30 2.122893 1_555
Mg4 O6 2.122893 1_555
Mg4 O23 2.156953 1_554
Mg4 O22 2.156953 1_555
Mg5 O22 2.120017 1_555
Mg5 O23 2.120017 1_555
Mg5 O31 2.159110 1_555
Mg5 O29 2.159110 1_555
Mg5 O3 2.159110 1_555
Mg5 O7 2.159110 1_555
Mg6 O24 2.097882 1_555
Mg6 O12 2.124979 1_455
Mg6 O8 2.124979 1_555
Mg6 O18 2.142352 1_555
Mg6 O16 2.160962 1_555
Mg6 O25 2.190369 1_555
Mg7 O24 2.097882 1_556
Mg7 O13 2.124979 1_455
Mg7 O9 2.124979 1_555
Mg7 O19 2.142352 1_555
Mg7 O17 2.160962 1_555
Mg7 O25 2.190369 1_555
Mg8 O26 2.097882 1_555
Mg8 O14 2.124979 1_455
Mg8 O10 2.124979 1_555
Mg8 O18 2.142352 1_555
Mg8 O16 2.160962 1_565
Mg8 O27 2.190369 1_555
Mg9 O26 2.097882 1_556
Mg9 O15 2.124979 1_455
Mg9 O11 2.124979 1_555
Mg9 O19 2.142352 1_555
Mg9 O17 2.160962 1_565
Mg9 O27 2.190369 1_555
Mg10 O28 2.126531 1_555
Mg10 O22 2.130574 1_555
Mg10 O20 2.135597 1_555
Mg10 O12 2.140784 1_555
Mg10 O8 2.140784 1_555
Mg10 O29 2.150644 1_555
Mg11 O28 2.126531 1_556
Mg11 O23 2.130574 1_555
Mg11 O21 2.135597 1_555
Mg11 O13 2.140784 1_555
Mg11 O9 2.140784 1_555
Mg11 O29 2.150644 1_555
Mg12 O30 2.126531 1_555
Mg12 O22 2.130574 1_555
Mg12 O20 2.135597 1_565
Mg12 O10 2.140784 1_555
Mg12 O14 2.140784 1_555
Mg12 O31 2.150644 1_555
Mg13 O30 2.126531 1_556
Mg13 O23 2.130574 1_555
Mg13 O21 2.135597 1_565
Mg13 O11 2.140784 1_555
Mg13 O15 2.140784 1_555
Mg13 O31 2.150644 1_555
Mg14 O0 2.097882 1_555
Mg14 O10 2.124979 1_545
Mg14 O8 2.124979 1_555
Mg14 O20 2.142352 1_555
Mg14 O16 2.160962 1_555
Mg14 O1 2.190369 1_555
Mg15 O0 2.097882 1_556
Mg15 O11 2.124979 1_545
Mg15 O9 2.124979 1_555
Mg15 O21 2.142352 1_555
Mg15 O17 2.160962 1_555
Mg15 O1 2.190369 1_555
Mg16 O2 2.126531 1_555
Mg16 O22 2.130574 1_555
Mg16 O18 2.135597 1_555
Mg16 O10 2.140784 1_555
Mg16 O8 2.140784 1_555
Mg16 O3 2.150644 1_555
Mg17 O2 2.126531 1_556
Mg17 O23 2.130574 1_555
Mg17 O19 2.135597 1_555
Mg17 O11 2.140784 1_555
Mg17 O9 2.140784 1_555
Mg17 O3 2.150644 1_555
Mg18 O4 2.097882 1_555
Mg18 O14 2.124979 1_545
Mg18 O12 2.124979 1_555
Mg18 O20 2.142352 1_555
Mg18 O16 2.160962 1_655
Mg18 O5 2.190369 1_555
Mg19 O4 2.097882 1_556
Mg19 O15 2.124979 1_545
Mg19 O13 2.124979 1_555
Mg19 O21 2.142352 1_555
Mg19 O17 2.160962 1_655
Mg19 O5 2.190369 1_555
Mg20 O6 2.126531 1_555
Mg20 O22 2.130574 1_555
Mg20 O18 2.135597 1_655
Mg20 O12 2.140784 1_555
Mg20 O14 2.140784 1_555
Mg20 O7 2.150644 1_555
Mg21 O6 2.126531 1_556
Mg21 O23 2.130574 1_555
Mg21 O19 2.135597 1_655
Mg21 O13 2.140784 1_555
Mg21 O15 2.140784 1_555
Mg21 O7 2.150644 1_555
Mg22 O0 2.118251 1_555
Mg22 O24 2.118251 1_555
Mg22 O2 2.149541 1_555
Mg22 O28 2.149541 1_555
Mg22 O8 2.149683 1_555
Mg22 O9 2.149683 1_554
Mg23 O3 2.127389 1_555
Mg23 O29 2.127389 1_555
Mg23 O9 2.127408 1_555
Mg23 O8 2.127408 1_555
Mg23 O1 2.148204 1_555
Mg23 O25 2.148204 1_555
Mg24 O26 2.118251 1_555
Mg24 O0 2.118251 1_565
Mg24 O2 2.149541 1_555
Mg24 O30 2.149541 1_555
Mg24 O10 2.149683 1_555
Mg24 O11 2.149683 1_554
Mg25 O3 2.127389 1_555
Mg25 O31 2.127389 1_555
Mg25 O10 2.127408 1_555
Mg25 O11 2.127408 1_555
Mg25 O27 2.148204 1_555
Mg25 O1 2.148204 1_565
Mg26 O4 2.118251 1_555
Mg26 O24 2.118251 1_655
Mg26 O28 2.149541 1_555
Mg26 O6 2.149541 1_555
Mg26 O13 2.149683 1_554
Mg26 O12 2.149683 1_555
Mg27 O29 2.127389 1_555
Mg27 O7 2.127389 1_555
Mg27 O13 2.127408 1_555
Mg27 O12 2.127408 1_555
Mg27 O5 2.148204 1_555
Mg27 O25 2.148204 1_655
Mg28 O4 2.118251 1_565
Mg28 O26 2.118251 1_655
Mg28 O30 2.149541 1_555
Mg28 O6 2.149541 1_555
Mg28 O14 2.149683 1_555
Mg28 O15 2.149683 1_554
Mg29 O7 2.127389 1_555
Mg29 O31 2.127389 1_555
Mg29 O15 2.127408 1_555
Mg29 O14 2.127408 1_555
Mg29 O5 2.148204 1_565
Mg29 O27 2.148204 1_655
Co0 O0 2.222513 1_555
Co0 O24 2.222513 1_555
Co0 O26 2.222513 1_545
Co0 O4 2.222513 1_455
Co0 O17 2.489402 1_554
Co0 O16 2.489402 1_555
O1 Si0 1.926382 1_555
O5 Si0 1.926382 1_655
O16 Si0 1.787568 1_555
O17 Si0 1.787568 1_555
O25 Si0 1.926382 1_555
O27 Si0 1.926382 1_565
