# generated using pymatgen
data_NaTi3Nb(CuO4)3
_symmetry_space_group_name_H-M   'P 1'
_cell_length_a   6.50283062
_cell_length_b   6.50283062
_cell_length_c   6.50283033
_cell_angle_alpha   109.52905824
_cell_angle_beta   109.52905824
_cell_angle_gamma   109.52905076
_symmetry_Int_Tables_number   1
_chemical_formula_structural   NaTi3Nb(CuO4)3
_chemical_formula_sum   'Na1 Ti3 Nb1 Cu3 O12'
_cell_volume   211.22823430
_cell_formula_units_Z   1
loop_
 _symmetry_equiv_pos_site_id
 _symmetry_equiv_pos_as_xyz
  1  'x, y, z'
loop_
 _atom_site_type_symbol
 _atom_site_label
 _atom_site_symmetry_multiplicity
 _atom_site_fract_x
 _atom_site_fract_y
 _atom_site_fract_z
 _atom_site_occupancy
  Na  Na0  1  0.00000000  0.00000000  0.00000000  1
  Ti  Ti0  1  0.50000000  0.00000000  0.00000000  1
  Ti  Ti1  1  0.00000000  0.50000000  0.00000000  1
  Ti  Ti2  1  0.00000000  0.00000000  0.50000000  1
  Nb  Nb0  1  0.50000000  0.50000000  0.50000000  1
  Cu  Cu0  1  0.50000000  0.50000000  0.00000000  1
  Cu  Cu1  1  0.50000000  0.00000000  0.50000000  1
  Cu  Cu2  1  0.00000000  0.50000000  0.50000000  1
  O  O0  1  0.30638800  0.82021100  0.12697800  1
  O  O1  1  0.69361200  0.17978900  0.87302200  1
  O  O2  1  0.30505900  0.17573900  0.48495500  1
  O  O3  1  0.69494100  0.82426100  0.51504500  1
  O  O4  1  0.82021100  0.12697800  0.30638800  1
  O  O5  1  0.17978900  0.87302200  0.69361200  1
  O  O6  1  0.17573900  0.48495500  0.30505900  1
  O  O7  1  0.82426100  0.51504500  0.69494100  1
  O  O8  1  0.12697800  0.30638800  0.82021100  1
  O  O9  1  0.87302200  0.69361200  0.17978900  1
  O  O10  1  0.48495500  0.30505900  0.17573900  1
  O  O11  1  0.51504500  0.69494100  0.82426100  1
loop_
_geom_bond_atom_site_label_1
_geom_bond_atom_site_label_2
_geom_bond_distance
_geom_bond_site_symmetry_2
Na0 O2 2.660577 1_555
Na0 O3 2.660577 1_444
Na0 O6 2.660577 1_555
Na0 O7 2.660577 1_444
Na0 O10 2.660577 1_555
Na0 O11 2.660577 1_444
Na0 O0 2.668554 1_545
Na0 O1 2.668554 1_454
Na0 O4 2.668554 1_455
Na0 O5 2.668554 1_544
Na0 O9 2.668554 1_445
Na0 O8 2.668554 1_554
Nb0 O10 2.013669 1_555
Nb0 O11 2.013669 1_555
Nb0 O6 2.013670 1_555
Nb0 O7 2.013670 1_555
Nb0 O2 2.013670 1_555
Nb0 O3 2.013670 1_555
Cu0 O11 1.970516 1_554
Cu0 O10 1.970516 1_555
Cu0 O8 1.978397 1_554
Cu0 O9 1.978397 1_555
Cu1 O2 1.970516 1_555
Cu1 O3 1.970516 1_545
Cu1 O0 1.978397 1_545
Cu1 O1 1.978397 1_555
Cu2 O6 1.970516 1_555
Cu2 O7 1.970516 1_455
Cu2 O4 1.978397 1_455
Cu2 O5 1.978397 1_555
O0 Ti1 1.991027 1_555
O0 Ti0 1.997545 1_565
O1 Ti1 1.991027 1_656
O1 Ti0 1.997545 1_556
O2 Ti2 1.984857 1_555
O3 Ti2 1.984857 1_665
O4 Ti0 1.991027 1_555
O4 Ti2 1.997544 1_655
O5 Ti0 1.991027 1_566
O5 Ti2 1.997544 1_565
O6 Ti1 1.984857 1_555
O7 Ti1 1.984857 1_656
O8 Ti2 1.991027 1_555
O8 Ti1 1.997544 1_556
O9 Ti2 1.991027 1_665
O9 Ti1 1.997544 1_655
O10 Ti0 1.984857 1_555
O11 Ti0 1.984857 1_566
