# generated using pymatgen
data_Zn4FeCu10(GeS4)5
_symmetry_space_group_name_H-M   'P 1'
_cell_length_a   6.52624429
_cell_length_b   6.52624429
_cell_length_c   23.86451881
_cell_angle_alpha   89.95022148
_cell_angle_beta   89.95022148
_cell_angle_gamma   48.17414274
_symmetry_Int_Tables_number   1
_chemical_formula_structural   Zn4FeCu10(GeS4)5
_chemical_formula_sum   'Zn4 Fe1 Cu10 Ge5 S20'
_cell_volume   757.42124771
_cell_formula_units_Z   1
loop_
 _symmetry_equiv_pos_site_id
 _symmetry_equiv_pos_as_xyz
  1  'x, y, z'
loop_
 _atom_site_type_symbol
 _atom_site_label
 _atom_site_symmetry_multiplicity
 _atom_site_fract_x
 _atom_site_fract_y
 _atom_site_fract_z
 _atom_site_occupancy
  Zn  Zn0  1  0.20004000  0.20005000  0.79992800  1
  Zn  Zn1  1  0.40001800  0.39999700  0.59999600  1
  Zn  Zn2  1  0.60000300  0.59998200  0.40000400  1
  Zn  Zn3  1  0.79995000  0.79996000  0.20007200  1
  Fe  Fe0  1  0.00088800  0.99911200  0.00000000  1
  Cu  Cu0  1  0.29930800  0.30146500  0.95034200  1
  Cu  Cu1  1  0.69997600  0.70000700  0.55006400  1
  Cu  Cu2  1  0.50011000  0.49983800  0.75007500  1
  Cu  Cu3  1  0.10030600  0.09916800  0.14977200  1
  Cu  Cu4  1  0.89997600  0.90001000  0.35003700  1
  Cu  Cu5  1  0.69853500  0.70069200  0.04965800  1
  Cu  Cu6  1  0.09999000  0.10002400  0.64996300  1
  Cu  Cu7  1  0.90083200  0.89969400  0.85022800  1
  Cu  Cu8  1  0.50016200  0.49989000  0.24992500  1
  Cu  Cu9  1  0.29999300  0.30002400  0.44993600  1
  Ge  Ge0  1  0.40087000  0.39952900  0.09981500  1
  Ge  Ge1  1  0.80024300  0.79982500  0.69998900  1
  Ge  Ge2  1  0.60047100  0.59913000  0.90018500  1
  Ge  Ge3  1  0.20017500  0.19975700  0.30001100  1
  Ge  Ge4  1  0.00044600  0.99955400  0.50000000  1
  S  S0  1  0.00468800  0.49354000  0.12306800  1
  S  S1  1  0.20089400  0.69917200  0.92471200  1
  S  S2  1  0.40665400  0.89208000  0.72295500  1
  S  S3  1  0.60655300  0.09218500  0.52296000  1
  S  S4  1  0.80642600  0.29232600  0.32300500  1
  S  S5  1  0.59883100  0.10018800  0.02514800  1
  S  S6  1  0.79002900  0.30307300  0.82558700  1
  S  S7  1  0.98905800  0.50360000  0.62579200  1
  S  S8  1  0.18894900  0.70367700  0.42576600  1
  S  S9  1  0.38888600  0.90341600  0.22566700  1
  S  S10  1  0.89981200  0.40116900  0.97485200  1
  S  S11  1  0.09658400  0.61111400  0.77433300  1
  S  S12  1  0.29632300  0.81105100  0.57423400  1
  S  S13  1  0.49640000  0.01094200  0.37420800  1
  S  S14  1  0.69692700  0.20997100  0.17441300  1
  S  S15  1  0.50646000  0.99531200  0.87693200  1
  S  S16  1  0.70767400  0.19357400  0.67699500  1
  S  S17  1  0.90781500  0.39344700  0.47704000  1
  S  S18  1  0.10792000  0.59334600  0.27704500  1
  S  S19  1  0.30082800  0.79910600  0.07528800  1
loop_
_geom_bond_atom_site_label_1
_geom_bond_atom_site_label_2
_geom_bond_distance
_geom_bond_site_symmetry_2
Fe0 S19 2.314718 1_555
Fe0 S1 2.314718 1_554
Fe0 S5 2.317264 1_465
Fe0 S10 2.317264 1_464
Cu0 S15 2.299619 1_545
Cu0 S1 2.301727 1_555
Cu0 S10 2.301826 1_455
Cu0 S5 2.304530 1_556
Cu1 S7 2.290180 1_555
Cu1 S12 2.291173 1_555
Cu1 S3 2.292904 1_565
Cu1 S17 2.293917 1_555
Cu2 S6 2.288608 1_555
Cu2 S11 2.290242 1_555
Cu2 S2 2.293301 1_555
Cu2 S16 2.293993 1_555
Cu3 S9 2.291811 1_545
Cu3 S14 2.293051 1_455
Cu3 S0 2.296854 1_555
Cu3 S19 2.300228 1_545
Cu4 S8 2.289873 1_655
Cu4 S13 2.291036 1_565
Cu4 S4 2.292871 1_565
Cu4 S18 2.293667 1_655
Cu5 S0 2.299619 1_655
Cu5 S19 2.301727 1_555
Cu5 S5 2.301826 1_565
Cu5 S10 2.304530 1_554
Cu6 S12 2.289873 1_545
Cu6 S7 2.291036 1_455
Cu6 S16 2.292871 1_455
Cu6 S2 2.293667 1_545
Cu7 S11 2.291811 1_655
Cu7 S6 2.293051 1_565
Cu7 S15 2.296854 1_555
Cu7 S1 2.300228 1_655
Cu8 S14 2.288608 1_555
Cu8 S9 2.290242 1_555
Cu8 S18 2.293301 1_555
Cu8 S4 2.293993 1_555
Cu9 S13 2.290180 1_555
Cu9 S8 2.291173 1_555
Cu9 S17 2.292904 1_455
Cu9 S3 2.293917 1_555
Ge0 S14 2.290642 1_555
Ge0 S0 2.291705 1_555
Ge0 S19 2.301387 1_555
Ge0 S5 2.301418 1_555
Ge1 S2 2.279549 1_555
Ge1 S16 2.279704 1_565
Ge1 S7 2.283861 1_555
Ge1 S11 2.286969 1_655
Ge2 S6 2.290642 1_555
Ge2 S15 2.291705 1_555
Ge2 S1 2.301387 1_555
Ge2 S10 2.301418 1_555
Ge3 S18 2.279549 1_555
Ge3 S4 2.279704 1_455
Ge3 S13 2.283861 1_555
Ge3 S9 2.286969 1_545
Ge4 S3 2.280205 1_465
Ge4 S17 2.280205 1_465
Ge4 S8 2.283492 1_555
Ge4 S12 2.283492 1_555
S0 Zn3 2.366383 1_455
S2 Zn0 2.370575 1_565
S3 Zn1 2.371255 1_555
S4 Zn2 2.370091 1_555
S6 Zn0 2.363352 1_655
S7 Zn1 2.368254 1_655
S8 Zn2 2.368339 1_555
S9 Zn3 2.368105 1_555
S11 Zn0 2.368105 1_555
S12 Zn1 2.368339 1_555
S13 Zn2 2.368254 1_545
S14 Zn3 2.363352 1_545
S15 Zn0 2.366383 1_565
S16 Zn1 2.370091 1_555
S17 Zn2 2.371255 1_555
S18 Zn3 2.370575 1_455
