# generated using pymatgen
data_Tm6InCo2
_symmetry_space_group_name_H-M   'P 1'
_cell_length_a   8.22159985
_cell_length_b   8.22160073
_cell_length_c   8.22160102
_cell_angle_alpha   111.21292588
_cell_angle_beta   110.12701642
_cell_angle_gamma   107.10141110
_symmetry_Int_Tables_number   1
_chemical_formula_structural   Tm6InCo2
_chemical_formula_sum   'Tm12 In2 Co4'
_cell_volume   427.21977457
_cell_formula_units_Z   2
loop_
 _symmetry_equiv_pos_site_id
 _symmetry_equiv_pos_as_xyz
  1  'x, y, z'
loop_
 _atom_site_type_symbol
 _atom_site_label
 _atom_site_symmetry_multiplicity
 _atom_site_fract_x
 _atom_site_fract_y
 _atom_site_fract_z
 _atom_site_occupancy
  Tm  Tm0  1  0.44401850  0.23071143  0.21330694  1
  Tm  Tm1  1  0.55598178  0.76928896  0.78669307  1
  Tm  Tm2  1  0.01740369  0.23071123  0.78669270  1
  Tm  Tm3  1  0.98259620  0.76928880  0.21330714  1
  Tm  Tm4  1  0.18770927  0.28865004  0.47635962  1
  Tm  Tm5  1  0.81229034  0.71134998  0.52364052  1
  Tm  Tm6  1  0.18770952  0.71135001  0.89905936  1
  Tm  Tm7  1  0.81229046  0.28864986  0.10094051  1
  Tm  Tm8  1  0.31404634  0.61664033  0.30259474  1
  Tm  Tm9  1  0.68595392  0.38335968  0.69740543  1
  Tm  Tm10  1  0.31404581  0.01145170  0.69740578  1
  Tm  Tm11  1  0.68595420  0.98854849  0.30259427  1
  In  In0  1  0.49999992  0.50000003  0.99999985  1
  In  In1  1  -0.00000002  0.99999977  0.00000001  1
  Co  Co0  1  0.38130972  0.00000037  0.38130936  1
  Co  Co1  1  0.61869132  0.00000016  0.61869093  1
  Co  Co2  1  0.11131231  0.61131243  0.50000021  1
  Co  Co3  1  0.88868673  0.38868673  0.49999956  1
loop_
_geom_bond_atom_site_label_1
_geom_bond_atom_site_label_2
_geom_bond_distance
_geom_bond_site_symmetry_2
In0 Tm0 3.309851 1_556
In0 Tm1 3.309851 1_555
In0 Tm2 3.309851 1_555
In0 Tm3 3.309851 1_556
In0 Tm10 3.346564 1_555
In0 Tm11 3.346565 1_556
In0 Tm9 3.346567 1_555
In0 Tm8 3.346568 1_556
In0 Tm4 3.535720 1_555
In0 Tm5 3.535722 1_556
In0 Tm6 3.535723 1_555
In0 Tm7 3.535726 1_556
In1 Tm1 3.018985 1_454
In1 Tm3 3.018987 1_455
In1 Tm0 3.018987 1_565
In1 Tm2 3.018992 1_564
In1 Tm5 3.211302 1_454
In1 Tm4 3.211303 1_565
In1 Tm6 3.211304 1_554
In1 Tm7 3.211305 1_465
Co0 Co1 2.235304 1_555
Co0 Tm3 2.753631 1_445
Co0 Tm0 2.753633 1_555
Co0 Tm9 2.812673 1_555
Co0 Tm11 2.812679 1_545
Co0 Tm8 2.812683 1_545
Co0 Tm10 2.812684 1_555
Co0 Tm6 3.242164 1_544
Co0 Tm4 3.242167 1_555
Co1 Tm2 2.753624 1_655
Co1 Tm1 2.753633 1_545
Co1 Tm8 2.812677 1_545
Co1 Tm9 2.812680 1_555
Co1 Tm11 2.812681 1_545
Co1 Tm10 2.812686 1_555
Co1 Tm5 3.242161 1_545
Co1 Tm7 3.242161 1_556
Co2 Co3 2.174847 1_455
Co2 Tm10 2.698971 1_565
Co2 Tm8 2.698975 1_555
Co2 Tm6 2.856655 1_555
Co2 Tm7 2.856657 1_455
Co2 Tm4 2.856658 1_555
Co2 Tm5 2.856659 1_455
Co2 Tm1 3.109630 1_555
Co2 Tm3 3.109632 1_455
Co3 Tm11 2.698963 1_545
Co3 Tm9 2.698969 1_555
Co3 Tm7 2.856658 1_555
Co3 Tm4 2.856659 1_655
Co3 Tm6 2.856660 1_655
Co3 Tm5 2.856662 1_555
Co3 Tm0 3.109623 1_555
Co3 Tm2 3.109628 1_655
