# generated using pymatgen
data_SrCa3Mn4O12
_symmetry_space_group_name_H-M   'P 1'
_cell_length_a   7.63756700
_cell_length_b   7.63756700
_cell_length_c   3.82077400
_cell_angle_alpha   90.00000000
_cell_angle_beta   90.00000000
_cell_angle_gamma   90.00000000
_symmetry_Int_Tables_number   1
_chemical_formula_structural   SrCa3Mn4O12
_chemical_formula_sum   'Sr1 Ca3 Mn4 O12'
_cell_volume   222.87503068
_cell_formula_units_Z   1
loop_
 _symmetry_equiv_pos_site_id
 _symmetry_equiv_pos_as_xyz
  1  'x, y, z'
loop_
 _atom_site_type_symbol
 _atom_site_label
 _atom_site_symmetry_multiplicity
 _atom_site_fract_x
 _atom_site_fract_y
 _atom_site_fract_z
 _atom_site_occupancy
  Sr  Sr0  1  0.50000000  0.50000000  0.50000000  1
  Ca  Ca0  1  0.00000000  0.50000000  0.50000000  1
  Ca  Ca1  1  0.00000000  0.00000000  0.50000000  1
  Ca  Ca2  1  0.50000000  0.00000000  0.50000000  1
  Mn  Mn0  1  0.75193100  0.24806900  0.00000000  1
  Mn  Mn1  1  0.24806900  0.24806900  0.00000000  1
  Mn  Mn2  1  0.75193100  0.75193100  0.00000000  1
  Mn  Mn3  1  0.24806900  0.75193100  0.00000000  1
  O  O0  1  0.75483500  0.24516500  0.50000000  1
  O  O1  1  0.24516500  0.24516500  0.50000000  1
  O  O2  1  0.75483500  0.75483500  0.50000000  1
  O  O3  1  0.24516500  0.75483500  0.50000000  1
  O  O4  1  0.75865500  0.50000000  0.00000000  1
  O  O5  1  0.24134500  0.50000000  0.00000000  1
  O  O6  1  0.75115500  0.00000000  0.00000000  1
  O  O7  1  0.24884500  0.00000000  0.00000000  1
  O  O8  1  0.00000000  0.24884500  0.00000000  1
  O  O9  1  0.50000000  0.24134500  0.00000000  1
  O  O10  1  0.00000000  0.75115500  0.00000000  1
  O  O11  1  0.50000000  0.75865500  0.00000000  1
loop_
_geom_bond_atom_site_label_1
_geom_bond_atom_site_label_2
_geom_bond_distance
_geom_bond_site_symmetry_2
Ca0 O4 2.654673 1_455
Ca0 O4 2.654673 1_456
Ca0 O5 2.654673 1_556
Ca0 O5 2.654673 1_555
Ca0 O2 2.700793 1_455
Ca0 O0 2.700793 1_455
Ca0 O1 2.700793 1_555
Ca0 O3 2.700793 1_555
Ca0 O8 2.707235 1_555
Ca0 O10 2.707235 1_556
Ca0 O10 2.707235 1_555
Ca0 O8 2.707235 1_556
Ca1 O1 2.648064 1_555
Ca1 O3 2.648064 1_545
Ca1 O0 2.648064 1_455
Ca1 O2 2.648064 1_445
Ca1 O7 2.694763 1_556
Ca1 O10 2.694763 1_546
Ca1 O8 2.694763 1_555
Ca1 O6 2.694763 1_455
Ca1 O8 2.694763 1_556
Ca1 O6 2.694763 1_456
Ca1 O10 2.694763 1_545
Ca1 O7 2.694763 1_555
Ca2 O11 2.654673 1_546
Ca2 O9 2.654673 1_556
Ca2 O9 2.654673 1_555
Ca2 O11 2.654673 1_545
Ca2 O3 2.700793 1_545
Ca2 O2 2.700793 1_545
Ca2 O0 2.700793 1_555
Ca2 O1 2.700793 1_555
Ca2 O6 2.707235 1_556
Ca2 O6 2.707235 1_555
Ca2 O7 2.707235 1_555
Ca2 O7 2.707235 1_556
Mn0 O8 1.894653 1_655
Mn0 O6 1.894653 1_555
Mn0 O0 1.910644 1_554
Mn0 O0 1.910644 1_555
Mn0 O9 1.924825 1_555
Mn0 O4 1.924825 1_555
Mn1 O8 1.894653 1_555
Mn1 O7 1.894653 1_555
Mn1 O1 1.910644 1_554
Mn1 O1 1.910644 1_555
Mn1 O9 1.924825 1_555
Mn1 O5 1.924825 1_555
Mn2 O6 1.894653 1_565
Mn2 O10 1.894653 1_655
Mn2 O2 1.910644 1_554
Mn2 O2 1.910644 1_555
Mn2 O4 1.924825 1_555
Mn2 O11 1.924825 1_555
Mn3 O7 1.894653 1_565
Mn3 O10 1.894653 1_555
Mn3 O3 1.910644 1_555
Mn3 O3 1.910644 1_554
Mn3 O5 1.924825 1_555
Mn3 O11 1.924825 1_555
O0 Sr0 2.752511 1_555
O1 Sr0 2.752511 1_555
O2 Sr0 2.752511 1_555
O3 Sr0 2.752511 1_555
O4 Sr0 2.748119 1_555
O4 Sr0 2.748119 1_554
O5 Sr0 2.748119 1_555
O5 Sr0 2.748119 1_554
O9 Sr0 2.748119 1_555
O9 Sr0 2.748119 1_554
O11 Sr0 2.748119 1_555
O11 Sr0 2.748119 1_554
