# generated using pymatgen
data_Rb2MnI4
_symmetry_space_group_name_H-M   'P 1'
_cell_length_a   8.26837740
_cell_length_b   8.09289693
_cell_length_c   10.16100068
_cell_angle_alpha   71.46599273
_cell_angle_beta   90.00000000
_cell_angle_gamma   90.00000000
_symmetry_Int_Tables_number   1
_chemical_formula_structural   Rb2MnI4
_chemical_formula_sum   'Rb4 Mn2 I8'
_cell_volume   644.66045607
_cell_formula_units_Z   2
loop_
 _symmetry_equiv_pos_site_id
 _symmetry_equiv_pos_as_xyz
  1  'x, y, z'
loop_
 _atom_site_type_symbol
 _atom_site_label
 _atom_site_symmetry_multiplicity
 _atom_site_fract_x
 _atom_site_fract_y
 _atom_site_fract_z
 _atom_site_occupancy
  Rb  Rb0  1  0.75000000  0.78510909  0.55088886  1
  Rb  Rb1  1  0.25000000  0.21489091  0.44911114  1
  Rb  Rb2  1  0.75000000  0.73142548  0.07033508  1
  Rb  Rb3  1  0.25000000  0.26857452  0.92966492  1
  Mn  Mn0  1  0.75000000  0.21892504  0.70274317  1
  Mn  Mn1  1  0.25000000  0.78107496  0.29725683  1
  I  I0  1  0.75000000  0.39659415  0.42819837  1
  I  I1  1  0.25000000  0.60340585  0.57180163  1
  I  I2  1  0.99621295  0.00289226  0.23734699  1
  I  I3  1  0.00378705  -0.00289226  0.76265301  1
  I  I4  1  0.49621295  -0.00289226  0.76265301  1
  I  I5  1  0.50378705  0.00289226  0.23734699  1
  I  I6  1  0.75000000  0.41481322  0.87328112  1
  I  I7  1  0.25000000  0.58518678  0.12671888  1
loop_
_geom_bond_atom_site_label_1
_geom_bond_atom_site_label_2
_geom_bond_distance
_geom_bond_site_symmetry_2
I0 Mn0 2.701772 1_555
I0 Rb0 3.732579 1_555
I0 Rb2 3.781662 1_555
I1 Mn1 2.701772 1_555
I1 Rb1 3.732579 1_555
I1 Rb3 3.781662 1_555
I2 Mn1 2.702167 1_645
I2 Rb0 3.719007 1_545
I2 Rb2 3.771077 1_545
I2 Rb1 3.784678 1_655
I2 Rb3 3.811436 1_654
I3 Mn0 2.702167 1_455
I3 Rb1 3.719007 1_555
I3 Rb3 3.771077 1_555
I3 Rb0 3.784678 1_445
I3 Rb2 3.811436 1_446
I4 Mn0 2.702167 1_555
I4 Rb1 3.719007 1_555
I4 Rb3 3.771077 1_555
I4 Rb0 3.784678 1_545
I4 Rb2 3.811436 1_546
I5 Mn1 2.702167 1_545
I5 Rb0 3.719007 1_545
I5 Rb2 3.771077 1_545
I5 Rb1 3.784678 1_555
I5 Rb3 3.811436 1_554
I6 Mn0 2.694868 1_555
I6 Rb0 3.670248 1_555
I6 Rb2 3.719690 1_556
I7 Mn1 2.694868 1_555
I7 Rb1 3.670248 1_555
I7 Rb3 3.719690 1_554
