# generated using pymatgen
data_C
_symmetry_space_group_name_H-M   'P 1'
_cell_length_a   7.57115200
_cell_length_b   9.19047055
_cell_length_c   23.54600371
_cell_angle_alpha   97.89290370
_cell_angle_beta   96.75065915
_cell_angle_gamma   104.97552837
_symmetry_Int_Tables_number   1
_chemical_formula_structural   C
_chemical_formula_sum   C80
_cell_volume   1547.56942498
_cell_formula_units_Z   80
loop_
 _symmetry_equiv_pos_site_id
 _symmetry_equiv_pos_as_xyz
  1  'x, y, z'
loop_
 _atom_site_type_symbol
 _atom_site_label
 _atom_site_symmetry_multiplicity
 _atom_site_fract_x
 _atom_site_fract_y
 _atom_site_fract_z
 _atom_site_occupancy
  C  C0  1  0.27438100  0.49336600  0.00492200  1
  C  C1  1  0.43361000  0.48080300  0.99775800  1
  C  C2  1  0.57720700  0.48537700  0.03697600  1
  C  C3  1  0.66784800  0.51969700  0.08751900  1
  C  C4  1  0.67575400  0.58460100  0.14565600  1
  C  C5  1  0.81334300  0.65053100  0.19397100  1
  C  C6  1  0.88649800  0.72452800  0.24285300  1
  C  C7  1  0.87933200  0.81900100  0.29233400  1
  C  C8  1  0.88495300  0.86924900  0.35130100  1
  C  C9  1  0.72344500  0.85770300  0.31087200  1
  C  C10  1  0.53879200  0.80562700  0.31746200  1
  C  C11  1  0.41385600  0.74613200  0.26532500  1
  C  C12  1  0.34106400  0.69673200  0.21402200  1
  C  C13  1  0.33686300  0.63183100  0.15537700  1
  C  C14  1  0.19840700  0.54886600  0.04786300  1
  C  C15  1  0.21660400  0.59223400  0.10176300  1
  C  C16  1  0.50407800  0.60599900  0.15076200  1
  C  C17  1  0.67868900  0.81849100  0.41587200  1
  C  C18  1  0.84234100  0.85095700  0.40583500  1
  C  C19  1  0.50736500  0.77203600  0.37664500  1
  C  C20  1  0.78163200  0.94723000  0.06666100  1
  C  C21  1  0.62360700  0.96881400  0.06820500  1
  C  C22  1  0.56894700  0.05234700  0.10991900  1
  C  C23  1  0.60714600  0.14543300  0.15700300  1
  C  C24  1  0.75530000  0.20665300  0.20034000  1
  C  C25  1  0.85576500  0.26277000  0.25597500  1
  C  C26  1  0.87256500  0.31527000  0.31549900  1
  C  C27  1  0.99624600  0.35879900  0.35893100  1
  C  C28  1  0.15715300  0.39775600  0.39868200  1
  C  C29  1  0.27613100  0.29812800  0.39148700  1
  C  C30  1  0.39317900  0.28076200  0.34736400  1
  C  C31  1  0.34501900  0.22700300  0.28879200  1
  C  C32  1  0.24771200  0.18223500  0.24036300  1
  C  C33  1  0.09443500  0.15074600  0.19543300  1
  C  C34  1  0.95501700  0.99217900  0.09428200  1
  C  C35  1  0.06101300  0.06091300  0.14045200  1
  C  C36  1  0.94630200  0.20548600  0.21299600  1
  C  C37  1  0.31189100  0.53649600  0.39845100  1
  C  C38  1  0.34809300  0.67470500  0.38669400  1
  C  C39  1  0.43753800  0.41459500  0.38884400  1
  C  C40  1  0.95244600  0.54016300  0.55484000  1
  C  C41  1  0.79662400  0.56706600  0.55735300  1
  C  C42  1  0.74122900  0.62514400  0.60448200  1
  C  C43  1  0.76046800  0.69742400  0.65552200  1
  C  C44  1  0.87113600  0.75154400  0.71025500  1
  C  C45  1  0.85313300  0.80922300  0.76698500  1
  C  C46  1  0.90057100  0.84915400  0.82002500  1
  C  C47  1  0.01260700  0.85090600  0.87116000  1
  C  C48  1  0.14332000  0.91618200  0.92265400  1
  C  C49  1  0.18096000  0.81357900  0.87760800  1
  C  C50  1  0.35935400  0.83051400  0.86010100  1
  C  C51  1  0.35674000  0.76175300  0.80251000  1
  C  C52  1  0.31368300  0.71785800  0.74949000  1
  C  C53  1  0.20042500  0.69219600  0.69457100  1
  C  C54  1  0.12046300  0.57951100  0.58567300  1
  C  C55  1  0.20221900  0.62888400  0.63709800  1
  C  C56  1  0.03806600  0.72722600  0.70116100  1
  C  C57  1  0.41657800  0.01254800  0.93966200  1
  C  C58  1  0.27338700  0.03959700  0.96232700  1
  C  C59  1  0.49353800  0.94867700  0.89984900  1
  C  C60  1  0.61366300  0.36892000  0.87918900  1
  C  C61  1  0.75385800  0.32134200  0.89079800  1
  C  C62  1  0.84552400  0.25254000  0.85600600  1
  C  C63  1  0.87333000  0.20832600  0.80574600  1
  C  C64  1  0.78659500  0.19465400  0.75024100  1
  C  C65  1  0.72781900  0.14313500  0.69062500  1
  C  C66  1  0.71768300  0.05882600  0.63637200  1
  C  C67  1  0.66948800  0.03041400  0.58310900  1
  C  C68  1  0.55878400  0.03865700  0.53176500  1
  C  C69  1  0.39689900  0.07716800  0.54597900  1
  C  C70  1  0.30869000  0.17998000  0.56425200  1
  C  C71  1  0.30284300  0.25689000  0.61855400  1
  C  C72  1  0.37007500  0.28472900  0.67053800  1
  C  C73  1  0.48390200  0.30066300  0.72417300  1
  C  C74  1  0.46191300  0.36333800  0.77952800  1
  C  C75  1  0.50779900  0.38975100  0.83342400  1
  C  C76  1  0.63335000  0.23408900  0.72064600  1
  C  C77  1  0.43806100  0.13705800  0.47262200  1
  C  C78  1  0.59212800  0.08738200  0.47713400  1
  C  C79  1  0.31732900  0.17670400  0.50321600  1
loop_
_geom_bond_atom_site_label_1
_geom_bond_atom_site_label_2
_geom_bond_distance
_geom_bond_site_symmetry_2
C0 C1 1.268670 1_554
C0 C14 1.326673 1_555
C1 C2 1.328974 1_556
C2 C3 1.256890 1_555
C3 C4 1.404026 1_555
C4 C5 1.397268 1_555
C5 C6 1.238746 1_555
C6 C7 1.369524 1_555
C7 C8 1.393802 1_555
C7 C9 1.416140 1_555
C8 C9 1.429766 1_555
C10 C9 1.390409 1_555
C10 C11 1.405743 1_555
C10 C19 1.500656 1_555
C11 C12 1.237991 1_555
C12 C13 1.420286 1_555
C13 C16 1.360714 1_555
C13 C15 1.409768 1_555
C14 C15 1.257028 1_555
C16 C4 1.380188 1_555
C17 C18 1.255878 1_555
C17 C19 1.428893 1_555
C18 C8 1.381955 1_555
C19 C38 1.370406 1_555
C20 C21 1.266105 1_555
C20 C34 1.327444 1_555
C21 C22 1.333422 1_565
C22 C23 1.257330 1_555
C23 C24 1.364944 1_555
C24 C25 1.392142 1_555
C24 C36 1.444894 1_555
C25 C26 1.397847 1_555
C25 C36 1.405138 1_555
C26 C27 1.245639 1_555
C27 C28 1.379438 1_655
C28 C29 1.448468 1_555
C28 C37 1.493241 1_555
C29 C39 1.415320 1_555
C29 C30 1.460878 1_555
C30 C31 1.371353 1_555
C30 C39 1.399659 1_555
C31 C32 1.236665 1_555
C32 C33 1.415412 1_555
C33 C35 1.393942 1_555
C33 C36 1.423186 1_455
C34 C35 1.252672 1_665
C37 C38 1.303712 1_555
C37 C39 1.656215 1_555
C40 C41 1.272633 1_555
C40 C54 1.322523 1_655
C41 C42 1.324641 1_555
C42 C43 1.263475 1_555
C43 C44 1.401788 1_555
C44 C56 1.374621 1_655
C44 C45 1.403397 1_555
C45 C46 1.234475 1_555
C46 C47 1.384543 1_655
C47 C49 1.400071 1_555
C47 C48 1.421513 1_555
C48 C49 1.425007 1_555
C48 C58 1.429808 1_565
C49 C50 1.434668 1_555
C50 C51 1.410836 1_555
C50 C59 1.419334 1_555
C51 C52 1.235143 1_555
C52 C53 1.419197 1_555
C53 C56 1.369093 1_555
C53 C55 1.400790 1_555
C54 C55 1.258152 1_555
C57 C59 1.310315 1_545
C57 C58 1.326946 1_555
C60 C61 1.263745 1_555
C60 C75 1.331604 1_555
C61 C62 1.330713 1_555
C62 C63 1.257234 1_555
C63 C64 1.365851 1_555
C64 C65 1.397981 1_555
C64 C76 1.435169 1_555
C65 C66 1.382931 1_555
C65 C76 1.405544 1_555
C66 C67 1.235883 1_555
C67 C68 1.410512 1_555
C68 C69 1.423943 1_555
C68 C78 1.447432 1_555
C69 C70 1.343868 1_555
C69 C79 1.615172 1_555
C69 C77 1.918992 1_555
C70 C71 1.384793 1_555
C70 C79 1.442854 1_555
C71 C72 1.234093 1_555
C72 C73 1.409663 1_555
C73 C74 1.397394 1_555
C73 C76 1.423888 1_555
C74 C75 1.248292 1_555
C77 C79 1.319879 1_555
C77 C78 1.356382 1_555
