# generated using pymatgen
data_Li10Co3Ni7O20
_symmetry_space_group_name_H-M   'P 1'
_cell_length_a   2.83888400
_cell_length_b   11.66178834
_cell_length_c   11.43961718
_cell_angle_alpha   112.46446913
_cell_angle_beta   82.87230281
_cell_angle_gamma   90.00000000
_symmetry_Int_Tables_number   1
_chemical_formula_structural   Li10Co3Ni7O20
_chemical_formula_sum   'Li10 Co3 Ni7 O20'
_cell_volume   346.81713998
_cell_formula_units_Z   1
loop_
 _symmetry_equiv_pos_site_id
 _symmetry_equiv_pos_as_xyz
  1  'x, y, z'
loop_
 _atom_site_type_symbol
 _atom_site_label
 _atom_site_symmetry_multiplicity
 _atom_site_fract_x
 _atom_site_fract_y
 _atom_site_fract_z
 _atom_site_occupancy
  Li  Li0  1  0.60000800  0.55112200  0.79998400  1
  Li  Li1  1  0.59987000  0.05035600  0.80025900  1
  Li  Li2  1  0.79947000  0.14791200  0.40106000  1
  Li  Li3  1  0.79957100  0.65095600  0.40085600  1
  Li  Li4  1  0.40118600  0.94736800  0.19762800  1
  Li  Li5  1  0.39881400  0.45263200  0.20237200  1
  Li  Li6  1  0.19999200  0.84887800  0.60001600  1
  Li  Li7  1  0.20013000  0.34964400  0.59974100  1
  Li  Li8  1  0.00053000  0.25208800  0.99894000  1
  Li  Li9  1  0.00042900  0.74904400  0.99914400  1
  Co  Co0  1  0.80050600  0.39899000  0.39898900  1
  Co  Co1  1  0.40000000  0.70000000  0.20000000  1
  Co  Co2  1  0.99949400  0.00101000  0.00101100  1
  Ni  Ni0  1  0.80283200  0.89978000  0.39433600  1
  Ni  Ni1  1  0.59979200  0.30170100  0.80041800  1
  Ni  Ni2  1  0.60020500  0.79789500  0.79959100  1
  Ni  Ni3  1  0.19979500  0.60210500  0.60040900  1
  Ni  Ni4  1  0.40000000  0.20000000  0.20000000  1
  Ni  Ni5  1  0.20020800  0.09829900  0.59958200  1
  Ni  Ni6  1  0.99716800  0.50022000  0.00566400  1
  O  O0  1  0.70014400  0.72376500  0.59971100  1
  O  O1  1  0.89079500  0.33129200  0.21841000  1
  O  O2  1  0.49962100  0.11189300  0.00075800  1
  O  O3  1  0.71026100  0.46966400  0.57947800  1
  O  O4  1  0.70095900  0.98562600  0.59808000  1
  O  O5  1  0.89757900  0.59216600  0.20484100  1
  O  O6  1  0.90242100  0.80783400  0.19515900  1
  O  O7  1  0.49105700  0.61781000  0.01788500  1
  O  O8  1  0.70081100  0.20947000  0.59837900  1
  O  O9  1  0.90920500  0.06870800  0.18159000  1
  O  O10  1  0.30129500  0.01290700  0.39741100  1
  O  O11  1  0.08973900  0.93033600  0.82052200  1
  O  O12  1  0.30048200  0.50908700  0.39903700  1
  O  O13  1  0.30894300  0.78219000  0.38211500  1
  O  O14  1  0.49870500  0.38709300  0.00258900  1
  O  O15  1  0.09985600  0.67623500  0.80028900  1
  O  O16  1  0.09918900  0.19053000  0.80162100  1
  O  O17  1  0.09904100  0.41437400  0.80192000  1
  O  O18  1  0.49951800  0.89091300  0.00096300  1
  O  O19  1  0.30037900  0.28810700  0.39924200  1
loop_
_geom_bond_atom_site_label_1
_geom_bond_atom_site_label_2
_geom_bond_distance
_geom_bond_site_symmetry_2
Li0 O15 2.034634 1_555
Li0 O15 2.034636 1_655
Li0 O17 2.141363 1_555
Li0 O17 2.141366 1_655
Li0 O7 2.289372 1_556
Li0 O3 2.310022 1_555
Li1 O11 2.067528 1_545
Li1 O11 2.067530 1_645
Li1 O2 2.106384 1_556
Li1 O4 2.121908 1_545
Li1 O16 2.160502 1_655
Li1 O16 2.160502 1_555
Li2 O8 2.072132 1_555
Li2 O10 2.108326 1_555
Li2 O10 2.108328 1_655
Li2 O19 2.171222 1_555
Li2 O19 2.171222 1_655
Li2 O9 2.299404 1_555
Li3 O5 2.060543 1_555
Li3 O0 2.083265 1_555
Li3 O13 2.157081 1_555
Li3 O13 2.157087 1_655
Li3 O12 2.173962 1_555
Li3 O12 2.173968 1_655
Li4 O9 2.061238 1_465
Li4 O9 2.061238 1_565
Li4 O18 2.070036 1_555
Li4 O10 2.095725 1_565
Li4 O6 2.151350 1_455
Li4 O6 2.151352 1_555
Li5 O1 2.061238 1_555
Li5 O1 2.061238 1_455
Li5 O12 2.070036 1_555
Li5 O14 2.095725 1_555
Li5 O5 2.151350 1_555
Li5 O5 2.151352 1_455
Li6 O0 2.034634 1_555
Li6 O0 2.034636 1_455
Li6 O4 2.141363 1_555
Li6 O4 2.141366 1_455
Li6 O13 2.289372 1_555
Li6 O11 2.310022 1_555
Li7 O3 2.067528 1_555
Li7 O3 2.067530 1_455
Li7 O19 2.106384 1_555
Li7 O17 2.121908 1_555
Li7 O8 2.160502 1_455
Li7 O8 2.160502 1_555
Li8 O16 2.072132 1_555
Li8 O14 2.108326 1_556
Li8 O14 2.108328 1_456
Li8 O2 2.171222 1_556
Li8 O2 2.171222 1_456
Li8 O1 2.299404 1_456
Li9 O6 2.060543 1_456
Li9 O15 2.083265 1_555
Li9 O7 2.157081 1_556
Li9 O7 2.157087 1_456
Li9 O18 2.173962 1_556
Li9 O18 2.173968 1_456
Co0 O3 1.891097 1_555
Co0 O1 1.891712 1_555
Co0 O12 1.913831 1_655
Co0 O12 1.913831 1_555
Co0 O19 1.920878 1_655
Co0 O19 1.920880 1_555
Co1 O5 1.911139 1_555
Co1 O6 1.911139 1_455
Co1 O5 1.911141 1_455
Co1 O6 1.911141 1_555
Co1 O13 1.914704 1_555
Co1 O7 1.914704 1_555
Co2 O11 1.891097 1_644
Co2 O9 1.891712 1_555
Co2 O18 1.913831 1_545
Co2 O18 1.913831 1_645
Co2 O2 1.920878 1_555
Co2 O2 1.920880 1_655
Ni0 O10 1.928994 1_565
Ni0 O10 1.928997 1_665
Ni0 O13 1.941142 1_555
Ni0 O13 1.941145 1_655
Ni0 O6 2.096259 1_555
Ni0 O4 2.137243 1_555
Ni1 O16 1.925984 1_655
Ni1 O16 1.925990 1_555
Ni1 O17 1.929862 1_655
Ni1 O17 1.929862 1_555
Ni1 O14 2.120870 1_556
Ni1 O8 2.125252 1_555
Ni2 O15 2.009093 1_655
Ni2 O15 2.009093 1_555
Ni2 O11 2.043065 1_655
Ni2 O11 2.043067 1_555
Ni2 O0 2.093926 1_555
Ni2 O18 2.119426 1_556
Ni3 O0 2.009093 1_455
Ni3 O0 2.009093 1_555
Ni3 O3 2.043065 1_455
Ni3 O3 2.043067 1_555
Ni3 O15 2.093926 1_555
Ni3 O12 2.119426 1_555
Ni4 O1 2.038707 1_555
Ni4 O9 2.038707 1_455
Ni4 O1 2.038707 1_455
Ni4 O9 2.038707 1_555
Ni4 O19 2.093085 1_555
Ni4 O2 2.093085 1_555
Ni5 O8 1.925984 1_455
Ni5 O8 1.925990 1_555
Ni5 O4 1.929862 1_445
Ni5 O4 1.929862 1_545
Ni5 O10 2.120870 1_555
Ni5 O16 2.125252 1_555
Ni6 O14 1.928994 1_655
Ni6 O14 1.928997 1_555
Ni6 O7 1.941142 1_655
Ni6 O7 1.941145 1_555
Ni6 O5 2.096259 1_555
Ni6 O17 2.137243 1_654
