# generated using pymatgen
data_NiH9C4(NO2)3
_symmetry_space_group_name_H-M   'P 1'
_cell_length_a   8.16032727
_cell_length_b   11.51625026
_cell_length_c   8.83074601
_cell_angle_alpha   89.99993471
_cell_angle_beta   89.99967009
_cell_angle_gamma   90.00080430
_symmetry_Int_Tables_number   1
_chemical_formula_structural   NiH9C4(NO2)3
_chemical_formula_sum   'Ni4 H36 C16 N12 O24'
_cell_volume   829.88146322
_cell_formula_units_Z   4
loop_
 _symmetry_equiv_pos_site_id
 _symmetry_equiv_pos_as_xyz
  1  'x, y, z'
loop_
 _atom_site_type_symbol
 _atom_site_label
 _atom_site_symmetry_multiplicity
 _atom_site_fract_x
 _atom_site_fract_y
 _atom_site_fract_z
 _atom_site_occupancy
  Ni  Ni0  1  0.25989952  0.24999952  0.24998100  1
  Ni  Ni1  1  0.24011860  0.74999921  0.24999634  1
  Ni  Ni2  1  0.74011927  0.74999778  0.74999883  1
  Ni  Ni3  1  0.75990537  0.24999891  0.74998572  1
  H  H0  1  0.24999627  0.50000238  0.17635264  1
  H  H1  1  0.24999354  0.00000388  0.32361503  1
  H  H2  1  0.74999714  0.49999182  0.82362418  1
  H  H3  1  0.75000015  0.99999085  0.67635095  1
  H  H4  1  0.42900038  0.37825707  0.74175323  1
  H  H5  1  0.07098607  0.62174179  0.74176089  1
  H  H6  1  0.42902874  0.12174876  0.75820726  1
  H  H7  1  0.07100013  0.87826971  0.75822485  1
  H  H8  1  0.57098610  0.62173680  0.25823181  1
  H  H9  1  0.92900747  0.37825760  0.25822278  1
  H  H10  1  0.57098885  0.87825534  0.24175903  1
  H  H11  1  0.92900870  0.12174194  0.24175004  1
  H  H12  1  0.33332153  0.41841475  0.56825021  1
  H  H13  1  0.16666871  0.58159074  0.56825400  1
  H  H14  1  0.33334397  0.08160068  0.93171358  1
  H  H15  1  0.16669079  0.91842249  0.93172440  1
  H  H16  1  0.66667838  0.58158899  0.43173257  1
  H  H17  1  0.83332749  0.41841110  0.43172881  1
  H  H18  1  0.66667071  0.91840867  0.06825203  1
  H  H19  1  0.83331593  0.08159106  0.06824981  1
  H  H20  1  0.60466388  0.29226230  0.42808504  1
  H  H21  1  0.89530841  0.70777370  0.42811037  1
  H  H22  1  0.60468702  0.20778093  0.07187117  1
  H  H23  1  0.89531483  0.79222551  0.07188715  1
  H  H24  1  0.39530503  0.70777175  0.57188401  1
  H  H25  1  0.10468940  0.29223546  0.57186749  1
  H  H26  1  0.39530995  0.79221841  0.92811252  1
  H  H27  1  0.10466297  0.20777031  0.92808213  1
  H  H28  1  0.18502990  0.56124010  0.96558908  1
  H  H29  1  0.31495252  0.43875034  0.96558609  1
  H  H30  1  0.18504300  0.93875897  0.53438813  1
  H  H31  1  0.31498704  0.06123872  0.53437636  1
  H  H32  1  0.81495611  0.43875394  0.03439418  1
  H  H33  1  0.68502940  0.56124102  0.03439507  1
  H  H34  1  0.81497015  0.06123584  0.46558637  1
  H  H35  1  0.68504010  0.93874952  0.46558667  1
  C  C0  1  0.25000149  0.49999841  0.29976320  1
  C  C1  1  0.24999471  0.99999995  0.20020419  1
  C  C2  1  0.75000352  0.49999854  0.70021329  1
  C  C3  1  0.74999485  0.99999494  0.79976218  1
  C  C4  1  0.53202557  0.22334948  0.48254811  1
  C  C5  1  0.96797835  0.77666667  0.48258765  1
  C  C6  1  0.53201339  0.27666688  0.01738905  1
  C  C7  1  0.96797988  0.72333129  0.01740936  1
  C  C8  1  0.46797796  0.77666383  0.51740914  1
  C  C9  1  0.03202751  0.22333368  0.51740131  1
  C  C10  1  0.46798114  0.72332733  0.98258992  1
  C  C11  1  0.03200518  0.27666331  0.98256921  1
  C  C12  1  0.24999528  0.50000104  0.75745342  1
  C  C13  1  0.25001466  0.00000787  0.74251695  1
  C  C14  1  0.74999743  0.49999815  0.24252909  1
  C  C15  1  0.74999972  0.99999730  0.25745235  1
  N  N0  1  0.34777217  0.42734382  0.68219225  1
  N  N1  1  0.15221947  0.57266007  0.68219606  1
  N  N2  1  0.34779770  0.07266805  0.81777063  1
  N  N3  1  0.15223059  0.92735502  0.81778327  1
  N  N4  1  0.65222332  0.57265710  0.31779129  1
  N  N5  1  0.84778043  0.42734355  0.31778676  1
  N  N6  1  0.65222004  0.92733849  0.18219405  1
  N  N7  1  0.84777009  0.07266090  0.18219097  1
  N  N8  1  0.24999762  0.49999913  0.90776543  1
  N  N9  1  0.25001345  0.00000200  0.59220674  1
  N  N10  1  0.74998704  0.49999453  0.09221827  1
  N  N11  1  0.75000812  0.99999222  0.40776372  1
  O  O0  1  0.26109520  0.40346588  0.36712500  1
  O  O1  1  0.23891474  0.59652767  0.36713601  1
  O  O2  1  0.26107180  0.09652945  0.13283354  1
  O  O3  1  0.23891620  0.90346514  0.13284503  1
  O  O4  1  0.73891808  0.59653134  0.63285267  1
  O  O5  1  0.76109702  0.40346925  0.63284233  1
  O  O6  1  0.73891386  0.90346663  0.86713492  1
  O  O7  1  0.76106660  0.09652929  0.86712405  1
  O  O8  1  0.41207329  0.18068670  0.41129890  1
  O  O9  1  0.08793735  0.81931936  0.41133991  1
  O  O10  1  0.41205001  0.31931326  0.08863228  1
  O  O11  1  0.08793451  0.68067657  0.08865548  1
  O  O12  1  0.58793380  0.81931542  0.58865614  1
  O  O13  1  0.91207937  0.18067876  0.58866113  1
  O  O14  1  0.58793557  0.68067642  0.91134352  1
  O  O15  1  0.91204279  0.31932004  0.91132925  1
  O  O16  1  0.57184914  0.19087345  0.61427628  1
  O  O17  1  0.92816752  0.80913134  0.61432661  1
  O  O18  1  0.57182275  0.30912846  0.88564518  1
  O  O19  1  0.92816502  0.69086654  0.88566968  1
  O  O20  1  0.42816887  0.80913160  0.38566680  1
  O  O21  1  0.07183862  0.19086418  0.38566502  1
  O  O22  1  0.42816836  0.69086435  0.11433269  1
  O  O23  1  0.07182539  0.30912667  0.11430536  1
loop_
_geom_bond_atom_site_label_1
_geom_bond_atom_site_label_2
_geom_bond_distance
_geom_bond_site_symmetry_2
Ni0 O0 2.047871 1_555
Ni0 O2 2.047923 1_555
Ni0 O8 2.051489 1_555
Ni0 O10 2.051544 1_555
Ni0 O21 2.062646 1_555
Ni0 O23 2.062677 1_555
Ni1 O3 2.047898 1_555
Ni1 O1 2.047901 1_555
Ni1 O9 2.051708 1_555
Ni1 O11 2.051713 1_555
Ni1 O22 2.062487 1_555
Ni1 O20 2.062512 1_555
Ni2 O6 2.047861 1_555
Ni2 O4 2.047882 1_555
Ni2 O14 2.051717 1_555
Ni2 O12 2.051720 1_555
Ni2 O19 2.062496 1_555
Ni2 O17 2.062502 1_555
Ni3 O7 2.047875 1_555
Ni3 O5 2.047906 1_555
Ni3 O15 2.051492 1_555
Ni3 O13 2.051555 1_555
Ni3 O18 2.062645 1_555
Ni3 O16 2.062722 1_555
H4 N0 1.017636 1_555
H5 N1 1.017646 1_555
H6 N2 1.017609 1_555
H7 N3 1.017618 1_555
H8 N4 1.017632 1_555
H9 N5 1.017635 1_555
H10 N6 1.017633 1_555
H11 N7 1.017637 1_555
H12 N0 1.018286 1_555
H13 N1 1.018285 1_555
H14 N2 1.018300 1_555
H15 N3 1.018291 1_555
H16 N4 1.018286 1_555
H17 N5 1.018290 1_555
H18 N6 1.018285 1_555
H19 N7 1.018283 1_555
H28 N8 1.019419 1_555
H29 N8 1.019416 1_555
H30 N9 1.019417 1_565
H31 N9 1.019429 1_555
H32 N10 1.019424 1_555
H33 N10 1.019421 1_555
H34 N11 1.019404 1_545
H35 N11 1.019420 1_555
C0 H0 1.089807 1_555
C0 O0 1.264085 1_555
C0 O1 1.264094 1_555
C1 H1 1.089810 1_565
C1 O2 1.264078 1_565
C1 O3 1.264087 1_555
C2 H2 1.089810 1_555
C2 O4 1.264078 1_555
C2 O5 1.264091 1_555
C3 H3 1.089813 1_555
C3 O6 1.264077 1_555
C3 O7 1.264090 1_565
C4 H20 1.101126 1_555
C4 O8 1.263093 1_555
C4 O16 1.264382 1_555
C5 H21 1.101159 1_555
C5 O9 1.263078 1_655
C5 O17 1.264401 1_555
C6 H22 1.101147 1_555
C6 O10 1.263069 1_555
C6 O18 1.264424 1_554
C7 H23 1.101159 1_555
C7 O11 1.263068 1_655
C7 O19 1.264417 1_554
C8 H24 1.101152 1_555
C8 O12 1.263056 1_555
C8 O20 1.264438 1_555
C9 H25 1.101154 1_555
C9 O13 1.263072 1_455
C9 O21 1.264397 1_555
C10 H26 1.101160 1_555
C10 O14 1.263046 1_555
C10 O22 1.264427 1_556
C11 H27 1.101153 1_555
C11 O15 1.263099 1_455
C11 O23 1.264394 1_556
C12 N8 1.327367 1_555
C12 N1 1.333594 1_555
C12 N0 1.333599 1_555
C13 N9 1.327351 1_555
C13 N2 1.333608 1_555
C13 N3 1.333610 1_545
C14 N10 1.327357 1_555
C14 N5 1.333598 1_555
C14 N4 1.333602 1_555
C15 N11 1.327361 1_555
C15 N7 1.333599 1_565
C15 N6 1.333602 1_555
