# generated using pymatgen
data_Te6Mo3WS2
_symmetry_space_group_name_H-M   'P 1'
_cell_length_a   3.45067593
_cell_length_b   3.45067593
_cell_length_c   39.27083100
_cell_angle_alpha   90.00000000
_cell_angle_beta   90.00000000
_cell_angle_gamma   119.99999873
_symmetry_Int_Tables_number   1
_chemical_formula_structural   Te6Mo3WS2
_chemical_formula_sum   'Te6 Mo3 W1 S2'
_cell_volume   404.95715670
_cell_formula_units_Z   1
loop_
 _symmetry_equiv_pos_site_id
 _symmetry_equiv_pos_as_xyz
  1  'x, y, z'
loop_
 _atom_site_type_symbol
 _atom_site_label
 _atom_site_symmetry_multiplicity
 _atom_site_fract_x
 _atom_site_fract_y
 _atom_site_fract_z
 _atom_site_occupancy
  Te  Te0  1  0.00000000  0.00000000  0.32893300  1
  Te  Te1  1  0.00000000  0.00000000  0.70462000  1
  Te  Te2  1  0.33333300  0.66666700  0.04680000  1
  Te  Te3  1  0.33333300  0.66666700  0.14099900  1
  Te  Te4  1  0.00000000  0.00000000  0.23474200  1
  Te  Te5  1  0.00000000  0.00000000  0.61041400  1
  Mo  Mo0  1  0.00000000  0.00000000  0.09388000  1
  Mo  Mo1  1  0.33333300  0.66666700  0.28183800  1
  Mo  Mo2  1  0.33333300  0.66666700  0.65753600  1
  W  W0  1  0.00000000  0.00000000  0.46965800  1
  S  S0  1  0.33333300  0.66666700  0.43166200  1
  S  S1  1  0.33333300  0.66666700  0.50766500  1
loop_
_geom_bond_atom_site_label_1
_geom_bond_atom_site_label_2
_geom_bond_distance
_geom_bond_site_symmetry_2
Mo0 Te2 2.717972 1_545
Mo0 Te2 2.717974 1_555
Mo0 Te2 2.717974 1_445
Mo0 Te3 2.719014 1_545
Mo0 Te3 2.719016 1_555
Mo0 Te3 2.719016 1_445
Mo1 Te0 2.718372 1_565
Mo1 Te0 2.718375 1_665
Mo1 Te0 2.718375 1_555
Mo1 Te4 2.718399 1_565
Mo1 Te4 2.718401 1_665
Mo1 Te4 2.718401 1_555
Mo2 Te1 2.718078 1_565
Mo2 Te1 2.718081 1_665
Mo2 Te1 2.718081 1_555
Mo2 Te5 2.719094 1_565
Mo2 Te5 2.719096 1_555
Mo2 Te5 2.719096 1_665
S0 W0 2.489079 1_565
S0 W0 2.489081 1_555
S0 W0 2.489081 1_665
S1 W0 2.489338 1_565
S1 W0 2.489340 1_555
S1 W0 2.489340 1_665
