# generated using pymatgen
data_Mg2Ni2O5
_symmetry_space_group_name_H-M   'P 1'
_cell_length_a   3.73062800
_cell_length_b   4.92596800
_cell_length_c   10.29721400
_cell_angle_alpha   90.00000000
_cell_angle_beta   90.00000000
_cell_angle_gamma   90.00000000
_symmetry_Int_Tables_number   1
_chemical_formula_structural   Mg2Ni2O5
_chemical_formula_sum   'Mg4 Ni4 O10'
_cell_volume   189.23142953
_cell_formula_units_Z   2
loop_
 _symmetry_equiv_pos_site_id
 _symmetry_equiv_pos_as_xyz
  1  'x, y, z'
loop_
 _atom_site_type_symbol
 _atom_site_label
 _atom_site_symmetry_multiplicity
 _atom_site_fract_x
 _atom_site_fract_y
 _atom_site_fract_z
 _atom_site_occupancy
  Mg  Mg0  1  0.00000000  0.24670800  0.90256300  1
  Mg  Mg1  1  0.00000000  0.75329200  0.09743700  1
  Mg  Mg2  1  0.00000000  0.74670800  0.59743700  1
  Mg  Mg3  1  0.00000000  0.25329200  0.40256300  1
  Ni  Ni0  1  0.50000000  0.21743100  0.63774200  1
  Ni  Ni1  1  0.50000000  0.78256900  0.36225800  1
  Ni  Ni2  1  0.50000000  0.28256900  0.13774200  1
  Ni  Ni3  1  0.50000000  0.71743100  0.86225800  1
  O  O0  1  0.50000000  0.50000000  0.50000000  1
  O  O1  1  0.50000000  0.16946700  0.32094600  1
  O  O2  1  0.50000000  0.66946700  0.17905400  1
  O  O3  1  0.50000000  0.33053300  0.82094600  1
  O  O4  1  0.00000000  0.30583200  0.10327200  1
  O  O5  1  0.00000000  0.69416800  0.89672800  1
  O  O6  1  0.50000000  0.83053300  0.67905400  1
  O  O7  1  0.00000000  0.19416800  0.60327200  1
  O  O8  1  0.50000000  0.00000000  0.00000000  1
  O  O9  1  0.00000000  0.80583200  0.39672800  1
loop_
_geom_bond_atom_site_label_1
_geom_bond_atom_site_label_2
_geom_bond_distance
_geom_bond_site_symmetry_2
Mg0 O3 2.087155 1_555
Mg0 O3 2.087155 1_455
Mg0 O4 2.087163 1_556
Mg0 O5 2.204992 1_555
Mg0 O8 2.441918 1_456
Mg0 O8 2.441918 1_556
Mg0 O5 2.722457 1_545
Mg1 O2 2.087155 1_455
Mg1 O2 2.087155 1_555
Mg1 O5 2.087163 1_554
Mg1 O4 2.204992 1_555
Mg1 O8 2.441918 1_565
Mg1 O8 2.441918 1_465
Mg1 O4 2.722457 1_565
Mg2 O6 2.087155 1_455
Mg2 O6 2.087155 1_555
Mg2 O9 2.087163 1_555
Mg2 O7 2.204992 1_565
Mg2 O0 2.441918 1_455
Mg2 O0 2.441918 1_555
Mg2 O7 2.722457 1_555
Mg3 O1 2.087155 1_455
Mg3 O1 2.087155 1_555
Mg3 O7 2.087163 1_555
Mg3 O9 2.204992 1_545
Mg3 O0 2.441918 1_555
Mg3 O0 2.441918 1_455
Mg3 O9 2.722457 1_555
Ni0 O7 1.902239 1_555
Ni0 O7 1.902239 1_655
Ni0 O6 1.952746 1_545
Ni0 O3 1.967041 1_555
Ni0 O0 1.987259 1_555
Ni1 O9 1.902239 1_655
Ni1 O9 1.902239 1_555
Ni1 O1 1.952746 1_565
Ni1 O2 1.967041 1_555
Ni1 O0 1.987259 1_555
Ni2 O4 1.902239 1_655
Ni2 O4 1.902239 1_555
Ni2 O2 1.952746 1_555
Ni2 O1 1.967041 1_555
Ni2 O8 1.987259 1_555
Ni3 O5 1.902239 1_655
Ni3 O5 1.902239 1_555
Ni3 O3 1.952746 1_555
Ni3 O6 1.967041 1_555
Ni3 O8 1.987259 1_566
