# generated using pymatgen
data_GaBi2N3
_symmetry_space_group_name_H-M   'P 1'
_cell_length_a   6.05549146
_cell_length_b   10.60719845
_cell_length_c   14.52333115
_cell_angle_alpha   89.99999790
_cell_angle_beta   88.14103778
_cell_angle_gamma   151.14372626
_symmetry_Int_Tables_number   1
_chemical_formula_structural   GaBi2N3
_chemical_formula_sum   'Ga4 Bi8 N12'
_cell_volume   449.19308417
_cell_formula_units_Z   4
loop_
 _symmetry_equiv_pos_site_id
 _symmetry_equiv_pos_as_xyz
  1  'x, y, z'
loop_
 _atom_site_type_symbol
 _atom_site_label
 _atom_site_symmetry_multiplicity
 _atom_site_fract_x
 _atom_site_fract_y
 _atom_site_fract_z
 _atom_site_occupancy
  Ga  Ga0  1  0.57288500  0.32918100  0.67305100  1
  Ga  Ga1  1  0.42711500  0.75629600  0.82694900  1
  Ga  Ga2  1  0.42711500  0.67081900  0.32694900  1
  Ga  Ga3  1  0.57288500  0.24370400  0.17305100  1
  Bi  Bi0  1  0.48149600  0.10704100  0.91980300  1
  Bi  Bi1  1  0.51850400  0.62554500  0.58019700  1
  Bi  Bi2  1  0.51850400  0.89295900  0.08019700  1
  Bi  Bi3  1  0.48149600  0.37445500  0.41980300  1
  Bi  Bi4  1  0.59329400  0.97786900  0.63663400  1
  Bi  Bi5  1  0.40670600  0.38457500  0.86336600  1
  Bi  Bi6  1  0.40670600  0.02213100  0.36336600  1
  Bi  Bi7  1  0.59329400  0.61542500  0.13663400  1
  N  N0  1  0.00000000  0.63499800  0.75000000  1
  N  N1  1  0.00000000  0.36500200  0.25000000  1
  N  N2  1  0.78269400  0.27287600  0.62730100  1
  N  N3  1  0.21730600  0.49018200  0.87269900  1
  N  N4  1  0.21730600  0.72712400  0.37269900  1
  N  N5  1  0.78269400  0.50981800  0.12730100  1
  N  N6  1  0.45684500  0.07088600  0.07177200  1
  N  N7  1  0.54315500  0.61404100  0.42822800  1
  N  N8  1  0.54315500  0.92911400  0.92822800  1
  N  N9  1  0.45684500  0.38595900  0.57177200  1
  N  N10  1  0.00000000  0.08522200  0.75000000  1
  N  N11  1  0.00000000  0.91477800  0.25000000  1
loop_
_geom_bond_atom_site_label_1
_geom_bond_atom_site_label_2
_geom_bond_distance
_geom_bond_site_symmetry_2
Ga0 N2 1.920082 1_555
Ga0 N9 1.956627 1_555
Ga0 N0 1.988019 1_655
Ga0 N10 2.000885 1_555
Ga1 N3 1.920082 1_555
Ga1 N8 1.956627 1_555
Ga1 N0 1.988020 1_555
Ga1 N10 2.000884 1_665
Ga2 N4 1.920082 1_555
Ga2 N7 1.956627 1_555
Ga2 N1 1.988019 1_555
Ga2 N11 2.000885 1_655
Ga3 N5 1.920082 1_555
Ga3 N6 1.956627 1_555
Ga3 N1 1.988020 1_655
Ga3 N11 2.000884 1_545
Bi0 N6 2.217877 1_556
Bi0 N3 2.218218 1_655
Bi0 N8 2.225674 1_545
Bi1 N7 2.217877 1_555
Bi1 N2 2.218218 1_455
Bi1 N9 2.225674 1_555
Bi2 N8 2.217877 1_554
Bi2 N5 2.218218 1_455
Bi2 N6 2.225674 1_565
Bi3 N9 2.217877 1_555
Bi3 N4 2.218218 1_655
Bi3 N7 2.225674 1_555
Bi4 N2 2.197498 1_565
Bi4 N10 2.328847 1_665
Bi4 N0 2.360885 1_555
Bi4 N9 2.645745 1_665
Bi5 N3 2.197499 1_555
Bi5 N10 2.328847 1_555
Bi5 N0 2.360886 1_655
Bi5 N8 2.645745 1_445
Bi6 N4 2.197498 1_545
Bi6 N11 2.328847 1_545
Bi6 N1 2.360885 1_655
Bi6 N7 2.645745 1_445
Bi7 N5 2.197499 1_555
Bi7 N11 2.328847 1_655
Bi7 N1 2.360886 1_555
Bi7 N6 2.645745 1_665
