# generated using pymatgen
data_NaVN2
_symmetry_space_group_name_H-M   'P 1'
_cell_length_a   6.57047500
_cell_length_b   11.78339065
_cell_length_c   6.80067678
_cell_angle_alpha   90.00000000
_cell_angle_beta   90.00000000
_cell_angle_gamma   26.27334560
_symmetry_Int_Tables_number   1
_chemical_formula_structural   NaVN2
_chemical_formula_sum   'Na4 V4 N8'
_cell_volume   233.06854205
_cell_formula_units_Z   4
loop_
 _symmetry_equiv_pos_site_id
 _symmetry_equiv_pos_as_xyz
  1  'x, y, z'
loop_
 _atom_site_type_symbol
 _atom_site_label
 _atom_site_symmetry_multiplicity
 _atom_site_fract_x
 _atom_site_fract_y
 _atom_site_fract_z
 _atom_site_occupancy
  Na  Na0  1  -0.00000000  0.17685069  0.57051703  1
  Na  Na1  1  0.00000000  0.82314931  0.42948297  1
  Na  Na2  1  0.00000000  0.32314931  0.07051703  1
  Na  Na3  1  -0.00000000  0.67685069  0.92948297  1
  V  V0  1  -0.00000000  0.42922043  0.64395659  1
  V  V1  1  0.00000000  0.57077957  0.35604341  1
  V  V2  1  0.00000000  0.07077957  0.14395659  1
  V  V3  1  -0.00000000  0.92922043  0.85604341  1
  N  N0  1  0.00000000  0.08203243  0.88145658  1
  N  N1  1  -0.00000000  0.91796757  0.11854342  1
  N  N2  1  -0.00000000  0.41796757  0.38145658  1
  N  N3  1  0.00000000  0.58203243  0.61854342  1
  N  N4  1  0.50000000  0.61205417  0.75000000  1
  N  N5  1  0.50000000  0.88794583  0.25000000  1
  N  N6  1  0.50000000  0.38794583  0.25000000  1
  N  N7  1  0.50000000  0.11205417  0.75000000  1
loop_
_geom_bond_atom_site_label_1
_geom_bond_atom_site_label_2
_geom_bond_distance
_geom_bond_site_symmetry_2
N0 V2 1.790095 1_556
N0 V3 1.808918 1_545
N0 Na0 2.391620 1_555
N1 V3 1.790095 1_554
N1 V2 1.808918 1_565
N1 Na1 2.391620 1_555
N2 V0 1.790095 1_555
N2 V1 1.808918 1_555
N2 Na2 2.391620 1_555
N3 V1 1.790095 1_555
N3 V0 1.808918 1_555
N3 Na3 2.391620 1_555
N4 V3 1.805889 1_555
N4 V0 1.805889 1_655
N4 Na2 2.660105 1_656
N4 Na1 2.660105 1_555
N4 Na0 2.892609 1_655
N4 Na3 2.892609 1_555
N5 V1 1.805889 1_655
N5 V2 1.805889 1_565
N5 Na0 2.660105 1_565
N5 Na3 2.660105 1_654
N5 Na2 2.892609 1_565
N5 Na1 2.892609 1_655
N6 V2 1.805889 1_655
N6 V1 1.805889 1_555
N6 Na3 2.660105 1_554
N6 Na0 2.660105 1_655
N6 Na1 2.892609 1_555
N6 Na2 2.892609 1_655
N7 V0 1.805889 1_555
N7 V3 1.805889 1_645
N7 Na1 2.660105 1_645
N7 Na2 2.660105 1_556
N7 Na3 2.892609 1_645
N7 Na0 2.892609 1_555
