# generated using pymatgen
data_BaTe3O7
_symmetry_space_group_name_H-M   'P 1'
_cell_length_a   5.36352000
_cell_length_b   10.46983000
_cell_length_c   15.89084601
_cell_angle_alpha   59.21254719
_cell_angle_beta   90.00000000
_cell_angle_gamma   90.00000000
_symmetry_Int_Tables_number   1
_chemical_formula_structural   BaTe3O7
_chemical_formula_sum   'Ba4 Te12 O28'
_cell_volume   766.59524676
_cell_formula_units_Z   4
loop_
 _symmetry_equiv_pos_site_id
 _symmetry_equiv_pos_as_xyz
  1  'x, y, z'
loop_
 _atom_site_type_symbol
 _atom_site_label
 _atom_site_symmetry_multiplicity
 _atom_site_fract_x
 _atom_site_fract_y
 _atom_site_fract_z
 _atom_site_occupancy
  Ba  Ba0  1  0.73994400  0.41906200  0.39596800  1
  Ba  Ba1  1  0.76005600  0.41906200  0.89596800  1
  Ba  Ba2  1  0.26005600  0.58093800  0.60403200  1
  Ba  Ba3  1  0.23994400  0.58093800  0.10403200  1
  Te  Te0  1  0.22496100  0.73576800  0.29212200  1
  Te  Te1  1  0.27503900  0.73576800  0.79212200  1
  Te  Te2  1  0.77503900  0.26423200  0.70787800  1
  Te  Te3  1  0.72496100  0.26423200  0.20787800  1
  Te  Te4  1  0.73725300  0.81144700  0.39358400  1
  Te  Te5  1  0.76274700  0.81144700  0.89358400  1
  Te  Te6  1  0.26274700  0.18855300  0.60641600  1
  Te  Te7  1  0.23725300  0.18855300  0.10641600  1
  Te  Te8  1  0.30852400  0.07563100  0.40729300  1
  Te  Te9  1  0.19147600  0.07563100  0.90729300  1
  Te  Te10  1  0.69147600  0.92436900  0.59270700  1
  Te  Te11  1  0.80852400  0.92436900  0.09270700  1
  O  O0  1  0.28085500  0.56408300  0.28791200  1
  O  O1  1  0.21914500  0.56408300  0.78791200  1
  O  O2  1  0.71914500  0.43591700  0.71208800  1
  O  O3  1  0.78085500  0.43591700  0.21208800  1
  O  O4  1  0.02622500  0.65894400  0.41115200  1
  O  O5  1  0.47377500  0.65894400  0.91115200  1
  O  O6  1  0.97377500  0.34105600  0.58884800  1
  O  O7  1  0.52622500  0.34105600  0.08884800  1
  O  O8  1  0.86960600  0.76054000  0.23098400  1
  O  O9  1  0.63039400  0.76054000  0.73098400  1
  O  O10  1  0.13039400  0.23946000  0.76901600  1
  O  O11  1  0.36960600  0.23946000  0.26901600  1
  O  O12  1  0.52119800  0.65793400  0.40425800  1
  O  O13  1  0.97880200  0.65793400  0.90425800  1
  O  O14  1  0.47880200  0.34206600  0.59574200  1
  O  O15  1  0.02119800  0.34206600  0.09574200  1
  O  O16  1  0.77296000  0.74422700  0.52714100  1
  O  O17  1  0.72704000  0.74422700  0.02714100  1
  O  O18  1  0.22704000  0.25577300  0.47285900  1
  O  O19  1  0.27296000  0.25577300  0.97285900  1
  O  O20  1  0.38072700  0.91823200  0.38017200  1
  O  O21  1  0.11927300  0.91823200  0.88017200  1
  O  O22  1  0.61927300  0.08176800  0.61982800  1
  O  O23  1  0.88072700  0.08176800  0.11982800  1
  O  O24  1  0.64826400  0.10387200  0.43350200  1
  O  O25  1  0.85173600  0.10387200  0.93350200  1
  O  O26  1  0.35173600  0.89612800  0.56649800  1
  O  O27  1  0.14826400  0.89612800  0.06649800  1
loop_
_geom_bond_atom_site_label_1
_geom_bond_atom_site_label_2
_geom_bond_distance
_geom_bond_site_symmetry_2
Ba0 O12 2.825931 1_555
Ba0 O3 2.844214 1_555
Ba0 O0 2.940736 1_555
Ba0 O6 3.011930 1_555
Ba0 O18 3.017066 1_655
Ba0 O4 3.056798 1_655
Ba0 O24 3.077746 1_555
Ba0 O18 3.137693 1_555
Ba0 O14 3.173291 1_555
Ba0 O8 3.247123 1_555
Ba0 O0 3.316885 1_655
Ba1 O13 2.825931 1_555
Ba1 O2 2.844214 1_555
Ba1 O1 2.940736 1_655
Ba1 O7 3.011930 1_556
Ba1 O19 3.017066 1_555
Ba1 O5 3.056798 1_555
Ba1 O25 3.077746 1_555
Ba1 O19 3.137693 1_655
Ba1 O15 3.173291 1_656
Ba1 O9 3.247123 1_555
Ba1 O1 3.316885 1_555
Ba2 O14 2.825931 1_555
Ba2 O1 2.844214 1_555
Ba2 O2 2.940736 1_555
Ba2 O4 3.011930 1_555
Ba2 O16 3.017066 1_455
Ba2 O6 3.056798 1_455
Ba2 O26 3.077746 1_555
Ba2 O16 3.137693 1_555
Ba2 O12 3.173291 1_555
Ba2 O10 3.247123 1_555
Ba2 O2 3.316885 1_455
Ba3 O15 2.825931 1_555
Ba3 O0 2.844214 1_555
Ba3 O3 2.940736 1_455
Ba3 O5 3.011930 1_554
Ba3 O17 3.017066 1_555
Ba3 O7 3.056798 1_555
Ba3 O27 3.077746 1_555
Ba3 O17 3.137693 1_455
Ba3 O13 3.173291 1_454
Ba3 O11 3.247123 1_555
Ba3 O3 3.316885 1_555
O0 Te0 1.857016 1_555
O1 Te1 1.857016 1_555
O2 Te2 1.857016 1_555
O3 Te3 1.857016 1_555
O4 Te0 1.950234 1_555
O4 Te4 2.138509 1_455
O5 Te1 1.950234 1_555
O5 Te5 2.138509 1_555
O6 Te2 1.950234 1_555
O6 Te6 2.138509 1_655
O7 Te3 1.950234 1_555
O7 Te7 2.138509 1_555
O8 Te11 2.004839 1_555
O8 Te0 2.094243 1_655
O9 Te10 2.004839 1_555
O9 Te1 2.094243 1_555
O10 Te9 2.004839 1_555
O10 Te2 2.094243 1_455
O11 Te8 2.004839 1_555
O11 Te3 2.094243 1_555
O12 Te4 1.917240 1_555
O12 Te0 2.208471 1_555
O13 Te5 1.917240 1_555
O13 Te1 2.208471 1_655
O14 Te6 1.917240 1_555
O14 Te2 2.208471 1_555
O15 Te7 1.917240 1_555
O15 Te3 2.208471 1_455
O16 Te4 1.872756 1_555
O16 Te10 2.616379 1_555
O17 Te5 1.872756 1_554
O17 Te11 2.616379 1_555
O18 Te6 1.872756 1_555
O18 Te8 2.616379 1_555
O19 Te7 1.872756 1_556
O19 Te9 2.616379 1_555
O20 Te8 1.943832 1_565
O20 Te4 2.169816 1_555
O21 Te9 1.943832 1_565
O21 Te5 2.169816 1_455
O22 Te10 1.943832 1_545
O22 Te6 2.169816 1_555
O23 Te11 1.943832 1_545
O23 Te7 2.169816 1_655
O24 Te8 1.925453 1_555
O24 Te10 2.262476 1_545
O25 Te9 1.925453 1_655
O25 Te11 2.262476 1_546
O26 Te10 1.925453 1_555
O26 Te8 2.262476 1_565
O27 Te11 1.925453 1_455
O27 Te9 2.262476 1_564
