# generated using pymatgen
data_Yb6Nb4Al43
_symmetry_space_group_name_H-M   'P 1'
_cell_length_a   11.19542349
_cell_length_b   11.19542349
_cell_length_c   17.86464900
_cell_angle_alpha   90.00000000
_cell_angle_beta   90.00000000
_cell_angle_gamma   119.99999698
_symmetry_Int_Tables_number   1
_chemical_formula_structural   Yb6Nb4Al43
_chemical_formula_sum   'Yb12 Nb8 Al86'
_cell_volume   1939.12669522
_cell_formula_units_Z   2
loop_
 _symmetry_equiv_pos_site_id
 _symmetry_equiv_pos_as_xyz
  1  'x, y, z'
loop_
 _atom_site_type_symbol
 _atom_site_label
 _atom_site_symmetry_multiplicity
 _atom_site_fract_x
 _atom_site_fract_y
 _atom_site_fract_z
 _atom_site_occupancy
  Yb  Yb0  1  0.53097800  0.00000000  0.59452100  1
  Yb  Yb1  1  0.46902200  0.00000000  0.40547900  1
  Yb  Yb2  1  0.00000000  0.53097800  0.59452100  1
  Yb  Yb3  1  0.46902200  0.00000000  0.09452100  1
  Yb  Yb4  1  0.00000000  0.53097800  0.90547900  1
  Yb  Yb5  1  0.00000000  0.46902200  0.40547900  1
  Yb  Yb6  1  0.53097800  0.00000000  0.90547900  1
  Yb  Yb7  1  0.00000000  0.46902200  0.09452100  1
  Yb  Yb8  1  0.46902200  0.46902200  0.59452100  1
  Yb  Yb9  1  0.53097800  0.53097800  0.40547900  1
  Yb  Yb10  1  0.53097800  0.53097800  0.09452100  1
  Yb  Yb11  1  0.46902200  0.46902200  0.90547900  1
  Nb  Nb0  1  0.00000000  0.00000000  0.50000000  1
  Nb  Nb1  1  0.00000000  0.00000000  0.00000000  1
  Nb  Nb2  1  0.72982300  0.00000000  0.75000000  1
  Nb  Nb3  1  0.27017700  0.00000000  0.25000000  1
  Nb  Nb4  1  0.00000000  0.72982300  0.75000000  1
  Nb  Nb5  1  0.00000000  0.27017700  0.25000000  1
  Nb  Nb6  1  0.27017700  0.27017700  0.75000000  1
  Nb  Nb7  1  0.72982300  0.72982300  0.25000000  1
  Al  Al0  1  0.14942400  0.59646500  0.75000000  1
  Al  Al1  1  0.85057600  0.40353500  0.25000000  1
  Al  Al2  1  0.40353500  0.55295900  0.75000000  1
  Al  Al3  1  0.59646500  0.14942400  0.75000000  1
  Al  Al4  1  0.59646500  0.44704100  0.25000000  1
  Al  Al5  1  0.40353500  0.85057600  0.25000000  1
  Al  Al6  1  0.44704100  0.85057600  0.75000000  1
  Al  Al7  1  0.55295900  0.40353500  0.75000000  1
  Al  Al8  1  0.55295900  0.14942400  0.25000000  1
  Al  Al9  1  0.44704100  0.59646500  0.25000000  1
  Al  Al10  1  0.85057600  0.44704100  0.75000000  1
  Al  Al11  1  0.14942400  0.55295900  0.25000000  1
  Al  Al12  1  0.15937800  0.00000000  0.11483400  1
  Al  Al13  1  0.84062200  0.00000000  0.88516600  1
  Al  Al14  1  0.00000000  0.15937800  0.11483400  1
  Al  Al15  1  0.84062200  0.00000000  0.61483400  1
  Al  Al16  1  0.00000000  0.15937800  0.38516600  1
  Al  Al17  1  0.00000000  0.84062200  0.88516600  1
  Al  Al18  1  0.15937800  0.00000000  0.38516600  1
  Al  Al19  1  0.00000000  0.84062200  0.61483400  1
  Al  Al20  1  0.84062200  0.84062200  0.11483400  1
  Al  Al21  1  0.15937800  0.15937800  0.88516600  1
  Al  Al22  1  0.15937800  0.15937800  0.61483400  1
  Al  Al23  1  0.84062200  0.84062200  0.38516600  1
  Al  Al24  1  0.24701100  0.49402200  0.50000000  1
  Al  Al25  1  0.75298900  0.50597800  0.50000000  1
  Al  Al26  1  0.50597800  0.75298900  0.50000000  1
  Al  Al27  1  0.75298900  0.50597800  0.00000000  1
  Al  Al28  1  0.49402200  0.24701100  0.00000000  1
  Al  Al29  1  0.49402200  0.24701100  0.50000000  1
  Al  Al30  1  0.24701100  0.49402200  0.00000000  1
  Al  Al31  1  0.50597800  0.75298900  0.00000000  1
  Al  Al32  1  0.24701100  0.75298900  0.50000000  1
  Al  Al33  1  0.75298900  0.24701100  0.50000000  1
  Al  Al34  1  0.75298900  0.24701100  0.00000000  1
  Al  Al35  1  0.24701100  0.75298900  0.00000000  1
  Al  Al36  1  0.14802700  0.00000000  0.75000000  1
  Al  Al37  1  0.85197300  0.00000000  0.25000000  1
  Al  Al38  1  0.00000000  0.14802700  0.75000000  1
  Al  Al39  1  0.00000000  0.85197300  0.25000000  1
  Al  Al40  1  0.85197300  0.85197300  0.75000000  1
  Al  Al41  1  0.14802700  0.14802700  0.25000000  1
  Al  Al42  1  0.33333300  0.66666700  0.62576100  1
  Al  Al43  1  0.66666700  0.33333300  0.37423900  1
  Al  Al44  1  0.66666700  0.33333300  0.12576100  1
  Al  Al45  1  0.66666700  0.33333300  0.87423900  1
  Al  Al46  1  0.33333300  0.66666700  0.87423900  1
  Al  Al47  1  0.33333300  0.66666700  0.12576100  1
  Al  Al48  1  0.33333300  0.66666700  0.37423900  1
  Al  Al49  1  0.66666700  0.33333300  0.62576100  1
  Al  Al50  1  0.25449800  0.00000000  0.53131500  1
  Al  Al51  1  0.74550200  0.00000000  0.46868500  1
  Al  Al52  1  0.00000000  0.25449800  0.53131500  1
  Al  Al53  1  0.74550200  0.00000000  0.03131500  1
  Al  Al54  1  0.00000000  0.25449800  0.96868500  1
  Al  Al55  1  0.00000000  0.74550200  0.46868500  1
  Al  Al56  1  0.25449800  0.00000000  0.96868500  1
  Al  Al57  1  0.00000000  0.74550200  0.03131500  1
  Al  Al58  1  0.74550200  0.74550200  0.53131500  1
  Al  Al59  1  0.25449800  0.25449800  0.46868500  1
  Al  Al60  1  0.25449800  0.25449800  0.03131500  1
  Al  Al61  1  0.74550200  0.74550200  0.96868500  1
  Al  Al62  1  0.15755300  0.39479700  0.66377700  1
  Al  Al63  1  0.84244700  0.60520300  0.33622300  1
  Al  Al64  1  0.60520300  0.76275600  0.66377700  1
  Al  Al65  1  0.84244700  0.60520300  0.16377700  1
  Al  Al66  1  0.39479700  0.15755300  0.83622300  1
  Al  Al67  1  0.39479700  0.23724400  0.33622300  1
  Al  Al68  1  0.15755300  0.39479700  0.83622300  1
  Al  Al69  1  0.60520300  0.84244700  0.16377700  1
  Al  Al70  1  0.23724400  0.84244700  0.66377700  1
  Al  Al71  1  0.39479700  0.23724400  0.16377700  1
  Al  Al72  1  0.76275600  0.60520300  0.83622300  1
  Al  Al73  1  0.76275600  0.15755300  0.33622300  1
  Al  Al74  1  0.60520300  0.76275600  0.83622300  1
  Al  Al75  1  0.23724400  0.39479700  0.16377700  1
  Al  Al76  1  0.60520300  0.84244700  0.33622300  1
  Al  Al77  1  0.39479700  0.15755300  0.66377700  1
  Al  Al78  1  0.76275600  0.15755300  0.16377700  1
  Al  Al79  1  0.23724400  0.39479700  0.33622300  1
  Al  Al80  1  0.23724400  0.84244700  0.83622300  1
  Al  Al81  1  0.76275600  0.60520300  0.66377700  1
  Al  Al82  1  0.84244700  0.23724400  0.83622300  1
  Al  Al83  1  0.15755300  0.76275600  0.16377700  1
  Al  Al84  1  0.15755300  0.76275600  0.33622300  1
  Al  Al85  1  0.84244700  0.23724400  0.66377700  1
loop_
_geom_bond_atom_site_label_1
_geom_bond_atom_site_label_2
_geom_bond_distance
_geom_bond_site_symmetry_2
Yb0 Yb1 3.447664 1_555
Yb2 Yb5 3.447664 1_555
Yb3 Yb6 3.447664 1_554
Yb4 Yb7 3.447664 1_556
Yb8 Yb9 3.447664 1_555
Yb10 Yb11 3.447664 1_554
Nb2 Yb0 3.559593 1_555
Nb2 Yb6 3.559593 1_555
Nb3 Yb1 3.559593 1_555
Nb3 Yb3 3.559593 1_555
Nb4 Yb2 3.559593 1_555
Nb4 Yb4 3.559593 1_555
Nb5 Yb5 3.559593 1_555
Nb5 Yb7 3.559593 1_555
Nb6 Yb8 3.559593 1_555
Nb6 Yb11 3.559593 1_555
Nb7 Yb9 3.559593 1_555
Nb7 Yb10 3.559593 1_555
Al0 Nb4 2.743193 1_555
Al0 Al68 2.771983 1_555
Al0 Al62 2.771983 1_555
Al0 Al42 2.857420 1_555
Al0 Al46 2.857420 1_555
Al0 Al70 2.866280 1_555
Al0 Al80 2.866280 1_555
Al0 Al10 2.897487 1_455
Al0 Yb2 3.134400 1_555
Al0 Yb4 3.134400 1_555
Al1 Nb5 2.743193 1_655
Al1 Al65 2.771983 1_555
Al1 Al63 2.771983 1_555
Al1 Al43 2.857420 1_555
Al1 Al44 2.857420 1_555
Al1 Al73 2.866280 1_555
Al1 Al78 2.866280 1_555
Al1 Al11 2.897487 1_655
Al1 Yb7 3.134400 1_655
Al1 Yb5 3.134400 1_655
Al2 Nb6 2.743194 1_555
Al2 Al74 2.771983 1_555
Al2 Al64 2.771983 1_555
Al2 Al42 2.857426 1_555
Al2 Al46 2.857426 1_555
Al2 Al68 2.866280 1_555
Al2 Al62 2.866280 1_555
Al2 Al7 2.897487 1_555
Al2 Yb8 3.134400 1_555
Al2 Yb11 3.134400 1_555
Al3 Nb2 2.743193 1_555
Al3 Al77 2.771983 1_555
Al3 Al66 2.771983 1_555
Al3 Al49 2.857420 1_555
Al3 Al45 2.857420 1_555
Al3 Al85 2.866280 1_555
Al3 Al82 2.866280 1_555
Al3 Al6 2.897487 1_545
Al3 Yb6 3.134400 1_555
Al3 Yb0 3.134400 1_555
Al4 Nb7 2.743194 1_555
Al4 Al67 2.771983 1_555
Al4 Al71 2.771983 1_555
Al4 Al44 2.857426 1_555
Al4 Al43 2.857426 1_555
Al4 Al65 2.866280 1_555
Al4 Al63 2.866280 1_555
Al4 Al9 2.897487 1_555
Al4 Yb9 3.134400 1_555
Al4 Yb10 3.134400 1_555
Al5 Nb3 2.743193 1_565
Al5 Al76 2.771983 1_555
Al5 Al69 2.771983 1_555
Al5 Al84 2.866280 1_555
Al5 Al83 2.866280 1_555
Al5 Al8 2.897487 1_565
Al5 Yb1 3.134400 1_565
Al5 Yb3 3.134400 1_565
Al6 Nb2 2.743194 1_565
Al6 Al70 2.771983 1_555
Al6 Al80 2.771983 1_555
Al6 Al74 2.866280 1_555
Al6 Al64 2.866280 1_555
Al6 Yb0 3.134400 1_565
Al6 Yb6 3.134400 1_565
Al7 Nb6 2.743194 1_555
Al7 Al72 2.771983 1_555
Al7 Al81 2.771983 1_555
Al7 Al77 2.866280 1_555
Al7 Yb8 3.134400 1_555
Al7 Yb11 3.134400 1_555
Al8 Nb3 2.743194 1_555
Al8 Yb1 3.134400 1_555
Al8 Yb3 3.134400 1_555
Al9 Nb7 2.743194 1_555
Al9 Yb9 3.134400 1_555
Al9 Yb10 3.134400 1_555
Al10 Nb4 2.743194 1_655
Al10 Al85 2.771983 1_555
Al10 Al82 2.771983 1_555
Al10 Al49 2.857421 1_555
Al10 Al45 2.857421 1_555
Al10 Al81 2.866280 1_555
Al10 Al72 2.866280 1_555
Al10 Yb2 3.134400 1_655
Al10 Yb4 3.134400 1_655
Al11 Nb5 2.743194 1_555
Al11 Al84 2.771983 1_555
Al11 Al83 2.771983 1_555
Al11 Al48 2.857421 1_555
Al11 Al47 2.857421 1_555
Al11 Al79 2.866280 1_555
Al11 Al75 2.866280 1_555
Al11 Yb5 3.134400 1_555
Al11 Yb7 3.134400 1_555
Al12 Nb3 2.714671 1_555
Al12 Nb1 2.718872 1_555
Al12 Al83 2.786615 1_545
Al12 Al71 2.786615 1_555
Al12 Al56 2.819722 1_554
Al12 Al60 2.905868 1_555
Al12 Al57 2.905868 1_545
Al12 Al41 2.967134 1_555
Al12 Al39 2.967134 1_545
Al12 Al14 3.090505 1_555
Al12 Al20 3.090506 1_445
Al12 Yb3 3.485537 1_555
Al13 Nb2 2.714671 1_555
Al13 Nb1 2.718872 1_656
Al13 Al82 2.786615 1_555
Al13 Al74 2.786615 1_545
Al13 Al53 2.819722 1_556
Al13 Al61 2.905868 1_545
Al13 Al54 2.905868 1_655
Al13 Al40 2.967134 1_545
Al13 Al38 2.967134 1_655
Al13 Al17 3.090505 1_645
Al13 Al21 3.090506 1_655
Al13 Yb6 3.485537 1_555
Al14 Nb5 2.714671 1_555
Al14 Nb1 2.718872 1_555
Al14 Al78 2.786615 1_455
Al14 Al75 2.786615 1_555
Al14 Al54 2.819722 1_554
Al14 Al60 2.905868 1_555
Al14 Al53 2.905868 1_455
Al14 Al41 2.967134 1_555
Al14 Al37 2.967134 1_455
Al14 Al20 3.090506 1_445
Al14 Yb7 3.485537 1_555
Al15 Nb2 2.714671 1_555
Al15 Nb0 2.718872 1_655
Al15 Al85 2.786615 1_555
Al15 Al64 2.786615 1_545
Al15 Al51 2.819722 1_555
Al15 Al58 2.905868 1_545
Al15 Al52 2.905868 1_655
Al15 Al40 2.967134 1_545
Al15 Al38 2.967134 1_655
Al15 Al19 3.090505 1_645
Al15 Al22 3.090506 1_655
Al15 Yb0 3.485537 1_555
Al16 Nb5 2.714671 1_555
Al16 Nb0 2.718872 1_555
Al16 Al73 2.786615 1_455
Al16 Al79 2.786615 1_555
Al16 Al52 2.819722 1_555
Al16 Al59 2.905868 1_555
Al16 Al51 2.905868 1_455
Al16 Al41 2.967134 1_555
Al16 Al37 2.967134 1_455
Al16 Al18 3.090505 1_555
Al16 Al23 3.090506 1_445
Al16 Yb5 3.485537 1_555
Al17 Nb4 2.714671 1_555
Al17 Nb1 2.718872 1_566
Al17 Al80 2.786615 1_555
Al17 Al72 2.786615 1_455
Al17 Al57 2.819722 1_556
Al17 Al61 2.905868 1_455
Al17 Al56 2.905868 1_565
Al17 Al40 2.967134 1_455
Al17 Al36 2.967134 1_565
Al17 Al21 3.090506 1_565
Al17 Yb4 3.485537 1_555
Al18 Nb3 2.714671 1_555
Al18 Nb0 2.718872 1_555
Al18 Al84 2.786615 1_545
Al18 Al67 2.786615 1_555
Al18 Al50 2.819722 1_555
Al18 Al59 2.905868 1_555
Al18 Al55 2.905868 1_545
Al18 Al41 2.967134 1_555
Al18 Al39 2.967134 1_545
Al18 Al23 3.090506 1_445
Al18 Yb1 3.485537 1_555
Al19 Nb4 2.714671 1_555
Al19 Nb0 2.718872 1_565
Al19 Al70 2.786615 1_555
Al19 Al81 2.786615 1_455
Al19 Al55 2.819722 1_555
Al19 Al58 2.905868 1_455
Al19 Al50 2.905868 1_565
Al19 Al40 2.967134 1_455
Al19 Al36 2.967134 1_565
Al19 Al22 3.090506 1_565
Al19 Yb2 3.485537 1_555
Al20 Nb7 2.714671 1_555
Al20 Nb1 2.718872 1_665
Al20 Al69 2.786615 1_555
Al20 Al65 2.786615 1_555
Al20 Al61 2.819722 1_554
Al20 Al53 2.905868 1_565
Al20 Al57 2.905868 1_655
Al20 Al39 2.967134 1_655
Al20 Al37 2.967134 1_565
Al20 Yb10 3.485538 1_555
Al21 Nb6 2.714671 1_555
Al21 Nb1 2.718872 1_556
Al21 Al68 2.786615 1_555
Al21 Al66 2.786615 1_555
Al21 Al60 2.819722 1_556
Al21 Al56 2.905868 1_555
Al21 Al54 2.905868 1_555
Al21 Al36 2.967134 1_555
Al21 Al38 2.967134 1_555
Al21 Yb11 3.485538 1_555
Al22 Nb6 2.714671 1_555
Al22 Nb0 2.718872 1_555
Al22 Al77 2.786615 1_555
Al22 Al62 2.786615 1_555
Al22 Al59 2.819722 1_555
Al22 Al50 2.905868 1_555
Al22 Al52 2.905868 1_555
Al22 Al36 2.967134 1_555
Al22 Al38 2.967134 1_555
Al22 Yb8 3.485538 1_555
Al23 Nb7 2.714671 1_555
Al23 Nb0 2.718872 1_665
Al23 Al76 2.786615 1_555
Al23 Al63 2.786615 1_555
Al23 Al58 2.819722 1_555
Al23 Al55 2.905868 1_655
Al23 Al51 2.905868 1_565
Al23 Al39 2.967134 1_655
Al23 Al37 2.967134 1_565
Al23 Yb9 3.485538 1_555
Al24 Al59 2.781293 1_555
Al24 Al52 2.781293 1_555
Al24 Al42 2.801685 1_555
Al24 Al48 2.801685 1_555
Al24 Al32 2.899245 1_555
Al24 Al26 2.899245 1_555
Al24 Al79 3.112061 1_555
Al24 Al62 3.112061 1_555
Al24 Yb8 3.130983 1_555
Al24 Yb5 3.130983 1_555
Al24 Yb2 3.437156 1_555
Al24 Yb9 3.437156 1_555
Al25 Al58 2.781293 1_555
Al25 Al55 2.781293 1_655
Al25 Al43 2.801685 1_555
Al25 Al49 2.801685 1_555
Al25 Al33 2.899245 1_555
Al25 Al29 2.899245 1_555
Al25 Al81 3.112061 1_555
Al25 Al63 3.112061 1_555
Al25 Yb9 3.130983 1_555
Al25 Yb2 3.130983 1_655
Al25 Yb5 3.437156 1_655
Al25 Yb8 3.437156 1_555
Al26 Al58 2.781293 1_555
Al26 Al51 2.781293 1_565
Al26 Al42 2.801685 1_555
Al26 Al48 2.801685 1_555
Al26 Al32 2.899245 1_555
Al26 Al64 3.112061 1_555
Al26 Al76 3.112061 1_555
Al26 Yb9 3.130983 1_555
Al26 Yb0 3.130983 1_565
Al26 Yb1 3.437156 1_565
Al26 Yb8 3.437156 1_555
Al27 Al61 2.781293 1_554
Al27 Al57 2.781293 1_655
Al27 Al44 2.801685 1_555
Al27 Al45 2.801685 1_554
Al27 Al34 2.899245 1_555
Al27 Al28 2.899245 1_555
Al27 Al72 3.112061 1_554
Al27 Al65 3.112061 1_555
Al27 Yb10 3.130983 1_555
Al27 Yb4 3.130983 1_654
Al27 Yb7 3.437156 1_655
Al27 Yb11 3.437156 1_554
Al28 Al60 2.781293 1_555
Al28 Al56 2.781293 1_554
Al28 Al45 2.801685 1_554
Al28 Al44 2.801685 1_555
Al28 Al34 2.899245 1_555
Al28 Al71 3.112061 1_555
Al28 Al66 3.112061 1_554
Al28 Yb11 3.130983 1_554
Al28 Yb3 3.130983 1_555
Al28 Yb6 3.437156 1_554
Al28 Yb10 3.437156 1_555
Al29 Al59 2.781293 1_555
Al29 Al50 2.781293 1_555
Al29 Al43 2.801685 1_555
Al29 Al49 2.801685 1_555
Al29 Al33 2.899245 1_555
Al29 Al67 3.112061 1_555
Al29 Al77 3.112061 1_555
Al29 Yb8 3.130983 1_555
Al29 Yb1 3.130983 1_555
Al29 Yb0 3.437156 1_555
Al29 Yb9 3.437156 1_555
Al30 Al60 2.781293 1_555
Al30 Al54 2.781293 1_554
Al30 Al46 2.801685 1_554
Al30 Al47 2.801685 1_555
Al30 Al35 2.899245 1_555
Al30 Al31 2.899245 1_555
Al30 Al75 3.112061 1_555
Al30 Al68 3.112061 1_554
Al30 Yb11 3.130983 1_554
Al30 Yb7 3.130983 1_555
Al30 Yb4 3.437156 1_554
Al30 Yb10 3.437156 1_555
Al31 Al61 2.781293 1_554
Al31 Al53 2.781293 1_565
Al31 Al47 2.801685 1_555
Al31 Al46 2.801685 1_554
Al31 Al35 2.899245 1_555
Al31 Al74 3.112061 1_554
Al31 Al69 3.112061 1_555
Al31 Yb10 3.130983 1_555
Al31 Yb6 3.130983 1_564
Al31 Yb3 3.437156 1_565
Al31 Yb11 3.437156 1_554
Al32 Al50 2.781293 1_565
Al32 Al55 2.781293 1_555
Al32 Al42 2.801679 1_555
Al32 Al48 2.801679 1_555
Al32 Al70 3.112061 1_555
Al32 Al84 3.112061 1_555
Al32 Yb1 3.130983 1_565
Al32 Yb2 3.130983 1_555
Al32 Yb0 3.437156 1_565
Al32 Yb5 3.437156 1_555
Al33 Al51 2.781293 1_555
Al33 Al52 2.781293 1_655
Al33 Al43 2.801679 1_555
Al33 Al49 2.801679 1_555
Al33 Al85 3.112061 1_555
Al33 Al73 3.112061 1_555
Al33 Yb0 3.130983 1_555
Al33 Yb5 3.130983 1_655
Al33 Yb2 3.437156 1_655
Al33 Yb1 3.437156 1_555
Al34 Al53 2.781293 1_555
Al34 Al54 2.781293 1_654
Al34 Al45 2.801679 1_554
Al34 Al44 2.801679 1_555
Al34 Al82 3.112061 1_554
Al34 Al78 3.112061 1_555
Al34 Yb7 3.130983 1_655
Al34 Yb6 3.130983 1_554
Al34 Yb4 3.437156 1_654
Al34 Yb3 3.437156 1_555
Al35 Al57 2.781293 1_555
Al35 Al56 2.781293 1_564
Al35 Al46 2.801679 1_554
Al35 Al47 2.801679 1_555
Al35 Al80 3.112061 1_554
Al35 Al83 3.112061 1_555
Al35 Yb3 3.130983 1_565
Al35 Yb4 3.130983 1_554
Al35 Yb6 3.437156 1_564
Al35 Yb7 3.437156 1_555
Al36 Nb6 2.623509 1_555
Al36 Nb4 2.623509 1_545
Al36 Al38 2.870398 1_555
Al36 Al40 2.870398 1_445
Al36 Al70 2.871123 1_545
Al36 Al80 2.871123 1_545
Al36 Al77 2.871123 1_555
Al36 Al66 2.871123 1_555
Al37 Nb7 2.623509 1_545
Al37 Nb5 2.623509 1_655
Al37 Al39 2.870398 1_645
Al37 Al41 2.870398 1_655
Al37 Al78 2.871123 1_555
Al37 Al73 2.871123 1_555
Al37 Al76 2.871123 1_545
Al37 Al69 2.871123 1_545
Al38 Nb6 2.623509 1_555
Al38 Nb2 2.623509 1_455
Al38 Al40 2.870398 1_445
Al38 Al82 2.871123 1_455
Al38 Al85 2.871123 1_455
Al38 Al62 2.871123 1_555
Al38 Al68 2.871123 1_555
Al39 Nb7 2.623509 1_455
Al39 Nb3 2.623509 1_565
Al39 Al41 2.870398 1_565
Al39 Al84 2.871123 1_555
Al39 Al83 2.871123 1_555
Al39 Al63 2.871123 1_455
Al39 Al65 2.871123 1_455
Al40 Nb2 2.623509 1_565
Al40 Nb4 2.623509 1_655
Al40 Al72 2.871123 1_555
Al40 Al81 2.871123 1_555
Al40 Al74 2.871123 1_555
Al40 Al64 2.871123 1_555
Al41 Nb5 2.623509 1_555
Al41 Nb3 2.623509 1_555
Al41 Al71 2.871123 1_555
Al41 Al67 2.871123 1_555
Al41 Al79 2.871123 1_555
Al41 Al75 2.871123 1_555
Al42 Al70 2.758307 1_555
Al42 Al62 2.758316 1_555
Al42 Al64 2.758317 1_555
Al42 Al6 2.857421 1_555
Al42 Yb2 3.297956 1_555
Al42 Yb0 3.297957 1_565
Al42 Yb8 3.297966 1_555
Al43 Al73 2.758307 1_555
Al43 Al63 2.758316 1_555
Al43 Al67 2.758317 1_555
Al43 Al8 2.857421 1_555
Al43 Yb5 3.297956 1_655
Al43 Yb1 3.297957 1_555
Al43 Yb9 3.297966 1_555
Al44 Al78 2.758307 1_555
Al44 Al65 2.758316 1_555
Al44 Al71 2.758317 1_555
Al44 Al8 2.857421 1_555
Al44 Yb7 3.297956 1_655
Al44 Yb3 3.297957 1_555
Al44 Yb10 3.297966 1_555
Al45 Al82 2.758307 1_555
Al45 Al66 2.758316 1_555
Al45 Al72 2.758317 1_555
Al45 Al7 2.857426 1_555
Al45 Yb6 3.297956 1_555
Al45 Yb4 3.297957 1_655
Al45 Yb11 3.297966 1_555
Al46 Al80 2.758307 1_555
Al46 Al68 2.758316 1_555
Al46 Al74 2.758317 1_555
Al46 Al6 2.857421 1_555
Al46 Yb4 3.297956 1_555
Al46 Yb6 3.297957 1_565
Al46 Yb11 3.297966 1_555
Al47 Al83 2.758307 1_555
Al47 Al69 2.758316 1_555
Al47 Al75 2.758317 1_555
Al47 Al5 2.857420 1_555
Al47 Al9 2.857426 1_555
Al47 Yb3 3.297956 1_565
Al47 Yb7 3.297957 1_555
Al47 Yb10 3.297966 1_555
Al48 Al84 2.758307 1_555
Al48 Al76 2.758316 1_555
Al48 Al79 2.758317 1_555
Al48 Al5 2.857420 1_555
Al48 Al9 2.857426 1_555
Al48 Yb1 3.297956 1_565
Al48 Yb5 3.297957 1_555
Al48 Yb9 3.297966 1_555
Al49 Al85 2.758307 1_555
Al49 Al77 2.758316 1_555
Al49 Al81 2.758317 1_555
Al49 Al7 2.857426 1_555
Al49 Yb0 3.297956 1_555
Al49 Yb2 3.297957 1_655
Al49 Yb8 3.297966 1_555
Al50 Al70 2.899591 1_545
Al50 Al77 2.899591 1_555
Al50 Nb0 2.903615 1_555
Al50 Al59 3.061024 1_555
Al50 Al55 3.061024 1_545
Al50 Yb1 3.289632 1_555
Al50 Yb0 3.294835 1_555
Al51 Al73 2.899591 1_555
Al51 Al76 2.899591 1_545
Al51 Nb0 2.903615 1_655
Al51 Al58 3.061024 1_545
Al51 Al52 3.061024 1_655
Al51 Yb0 3.289632 1_555
Al51 Yb1 3.294835 1_555
Al52 Al85 2.899591 1_455
Al52 Al62 2.899591 1_555
Al52 Nb0 2.903615 1_555
Al52 Al59 3.061024 1_555
Al52 Yb5 3.289632 1_555
Al52 Yb2 3.294835 1_555
Al53 Al78 2.899591 1_555
Al53 Al69 2.899591 1_545
Al53 Nb1 2.903615 1_655
Al53 Al61 3.061024 1_544
Al53 Al54 3.061024 1_654
Al53 Yb6 3.289632 1_554
Al53 Yb3 3.294835 1_555
Al54 Al82 2.899591 1_455
Al54 Al68 2.899591 1_555
Al54 Nb1 2.903615 1_556
Al54 Al60 3.061024 1_556
Al54 Yb7 3.289632 1_556
Al54 Yb4 3.294835 1_555
Al55 Al84 2.899591 1_555
Al55 Al63 2.899591 1_455
Al55 Nb0 2.903615 1_565
Al55 Al58 3.061024 1_455
Al55 Yb2 3.289632 1_555
Al55 Yb5 3.294835 1_555
Al56 Al80 2.899591 1_545
Al56 Al66 2.899591 1_555
Al56 Nb1 2.903615 1_556
Al56 Al60 3.061024 1_556
Al56 Al57 3.061024 1_546
Al56 Yb3 3.289632 1_556
Al56 Yb6 3.294835 1_555
Al57 Al83 2.899591 1_555
Al57 Al65 2.899591 1_455
Al57 Nb1 2.903615 1_565
Al57 Al61 3.061024 1_454
Al57 Yb4 3.289632 1_554
Al57 Yb7 3.294835 1_555
Al58 Al64 2.899591 1_555
Al58 Al81 2.899591 1_555
Al58 Nb0 2.903615 1_665
Al58 Yb9 3.289632 1_555
Al58 Yb8 3.294835 1_555
Al59 Al79 2.899591 1_555
Al59 Al67 2.899591 1_555
Al59 Nb0 2.903615 1_555
Al59 Yb8 3.289632 1_555
Al59 Yb9 3.294835 1_555
Al60 Al75 2.899591 1_555
Al60 Al71 2.899591 1_555
Al60 Nb1 2.903615 1_555
Al60 Yb11 3.289632 1_554
Al60 Yb10 3.294835 1_555
Al61 Al74 2.899591 1_555
Al61 Al72 2.899591 1_555
Al61 Nb1 2.903615 1_666
Al61 Yb10 3.289632 1_556
Al61 Yb11 3.294835 1_555
Al62 Nb6 2.769135 1_555
Al62 Al85 3.055117 1_455
Al62 Al68 3.080687 1_555
Al62 Yb2 3.107349 1_555
Al62 Yb8 3.388655 1_555
Al63 Nb7 2.769135 1_555
Al63 Al84 3.055117 1_655
Al63 Al65 3.080687 1_555
Al63 Yb5 3.107349 1_655
Al63 Yb9 3.388655 1_555
Al64 Nb2 2.769135 1_565
Al64 Al81 3.055117 1_555
Al64 Al74 3.080687 1_555
Al64 Yb8 3.107349 1_555
Al64 Yb0 3.388655 1_565
Al65 Nb7 2.769135 1_555
Al65 Al83 3.055117 1_655
Al65 Yb7 3.107349 1_655
Al65 Yb10 3.388655 1_555
Al66 Nb6 2.769135 1_555
Al66 Al7 2.866280 1_555
Al66 Al80 3.055117 1_545
Al66 Al77 3.080687 1_555
Al66 Yb6 3.107349 1_555
Al66 Yb11 3.388655 1_555
Al67 Nb3 2.769135 1_555
Al67 Al8 2.866280 1_555
Al67 Al79 3.055117 1_555
Al67 Al71 3.080687 1_555
Al67 Yb9 3.107349 1_555
Al67 Yb1 3.388655 1_555
Al68 Nb6 2.769135 1_555
Al68 Al82 3.055117 1_455
Al68 Yb4 3.107349 1_555
Al68 Yb11 3.388655 1_555
Al69 Nb7 2.769135 1_555
Al69 Al9 2.866280 1_555
Al69 Al78 3.055117 1_565
Al69 Al76 3.080687 1_555
Al69 Yb3 3.107349 1_565
Al69 Yb10 3.388655 1_555
Al70 Nb4 2.769135 1_555
Al70 Al77 3.055117 1_565
Al70 Al80 3.080687 1_555
Al70 Yb0 3.107349 1_565
Al70 Yb2 3.388656 1_555
Al71 Nb3 2.769135 1_555
Al71 Al8 2.866280 1_555
Al71 Al75 3.055117 1_555
Al71 Yb10 3.107349 1_555
Al71 Yb3 3.388655 1_555
Al72 Nb4 2.769135 1_655
Al72 Al74 3.055117 1_555
Al72 Al81 3.080687 1_555
Al72 Yb11 3.107349 1_555
Al72 Yb4 3.388655 1_655
Al73 Nb5 2.769135 1_655
Al73 Al8 2.771983 1_555
Al73 Al76 3.055117 1_545
Al73 Al78 3.080687 1_555
Al73 Yb1 3.107349 1_555
Al73 Yb5 3.388656 1_655
Al74 Nb2 2.769135 1_565
Al74 Yb11 3.107349 1_555
Al74 Yb6 3.388655 1_565
Al75 Nb5 2.769135 1_555
Al75 Al9 2.771983 1_555
Al75 Al79 3.080687 1_555
Al75 Yb10 3.107349 1_555
Al75 Yb7 3.388655 1_555
Al76 Nb7 2.769135 1_555
Al76 Al9 2.866280 1_555
Al76 Yb1 3.107349 1_565
Al76 Yb9 3.388655 1_555
Al77 Nb6 2.769135 1_555
Al77 Yb0 3.107349 1_555
Al77 Yb8 3.388655 1_555
Al78 Nb5 2.769135 1_655
Al78 Al8 2.771983 1_555
Al78 Yb3 3.107349 1_555
Al78 Yb7 3.388656 1_655
Al79 Nb5 2.769135 1_555
Al79 Al9 2.771983 1_555
Al79 Yb9 3.107349 1_555
Al79 Yb5 3.388655 1_555
Al80 Nb4 2.769135 1_555
Al80 Yb6 3.107349 1_565
Al80 Yb4 3.388656 1_555
Al81 Nb4 2.769135 1_655
Al81 Yb8 3.107349 1_555
Al81 Yb2 3.388655 1_655
Al82 Nb2 2.769135 1_555
Al82 Al85 3.080687 1_555
Al82 Yb4 3.107349 1_655
Al82 Yb6 3.388656 1_555
Al83 Nb3 2.769135 1_565
Al83 Al84 3.080687 1_555
Al83 Yb7 3.107349 1_555
Al83 Yb3 3.388656 1_565
Al84 Nb3 2.769135 1_565
Al84 Yb5 3.107349 1_555
Al84 Yb1 3.388656 1_565
Al85 Nb2 2.769135 1_555
Al85 Yb2 3.107349 1_655
Al85 Yb0 3.388656 1_555
