# generated using pymatgen
data_RbHfMg30O31
_symmetry_space_group_name_H-M   'P 1'
_cell_length_a   8.69233800
_cell_length_b   8.69963400
_cell_length_c   8.70256000
_cell_angle_alpha   90.00000000
_cell_angle_beta   90.00000000
_cell_angle_gamma   90.00000000
_symmetry_Int_Tables_number   1
_chemical_formula_structural   RbHfMg30O31
_chemical_formula_sum   'Rb1 Hf1 Mg30 O31'
_cell_volume   658.08897268
_cell_formula_units_Z   1
loop_
 _symmetry_equiv_pos_site_id
 _symmetry_equiv_pos_as_xyz
  1  'x, y, z'
loop_
 _atom_site_type_symbol
 _atom_site_label
 _atom_site_symmetry_multiplicity
 _atom_site_fract_x
 _atom_site_fract_y
 _atom_site_fract_z
 _atom_site_occupancy
  Rb  Rb0  1  0.00000000  0.00000000  0.00021300  1
  Hf  Hf0  1  0.50000000  0.50000000  0.00053500  1
  Mg  Mg0  1  0.50000000  0.00000000  0.00316000  1
  Mg  Mg1  1  0.00000000  0.50000000  0.00010400  1
  Mg  Mg2  1  0.00000000  0.00000000  0.49969500  1
  Mg  Mg3  1  0.50000000  0.00000000  0.49868000  1
  Mg  Mg4  1  0.00000000  0.50000000  0.49992800  1
  Mg  Mg5  1  0.50000000  0.50000000  0.49914200  1
  Mg  Mg6  1  0.75450700  0.75454000  0.99979700  1
  Mg  Mg7  1  0.24549300  0.75454000  0.99979700  1
  Mg  Mg8  1  0.75450700  0.24546000  0.99979700  1
  Mg  Mg9  1  0.24549300  0.24546000  0.99979700  1
  Mg  Mg10  1  0.75154000  0.75170800  0.50013200  1
  Mg  Mg11  1  0.24846000  0.75170800  0.50013200  1
  Mg  Mg12  1  0.75154000  0.24829200  0.50013200  1
  Mg  Mg13  1  0.24846000  0.24829200  0.50013200  1
  Mg  Mg14  1  0.75096400  0.00000000  0.74558100  1
  Mg  Mg15  1  0.24903600  0.00000000  0.74558100  1
  Mg  Mg16  1  0.75747700  0.50000000  0.74382200  1
  Mg  Mg17  1  0.24252300  0.50000000  0.74382200  1
  Mg  Mg18  1  0.74946300  0.00000000  0.25408300  1
  Mg  Mg19  1  0.25053700  0.00000000  0.25408300  1
  Mg  Mg20  1  0.75710700  0.50000000  0.25634700  1
  Mg  Mg21  1  0.24289300  0.50000000  0.25634700  1
  Mg  Mg22  1  0.00000000  0.74799900  0.74606300  1
  Mg  Mg23  1  0.50000000  0.75533200  0.74317000  1
  Mg  Mg24  1  0.00000000  0.25200100  0.74606300  1
  Mg  Mg25  1  0.50000000  0.24466800  0.74317000  1
  Mg  Mg26  1  0.00000000  0.74868500  0.25403000  1
  Mg  Mg27  1  0.50000000  0.75630500  0.25608100  1
  Mg  Mg28  1  0.00000000  0.25131500  0.25403000  1
  Mg  Mg29  1  0.50000000  0.24369500  0.25608100  1
  O  O0  1  0.00000000  0.00000000  0.72107600  1
  O  O1  1  0.00000000  0.50000000  0.74589600  1
  O  O2  1  0.50000000  0.50000000  0.75534200  1
  O  O3  1  0.00000000  0.00000000  0.27871300  1
  O  O4  1  0.50000000  0.00000000  0.25393800  1
  O  O5  1  0.00000000  0.50000000  0.25405500  1
  O  O6  1  0.50000000  0.50000000  0.24512800  1
  O  O7  1  0.75025100  0.74797100  0.75171600  1
  O  O8  1  0.24974900  0.74797100  0.75171600  1
  O  O9  1  0.75025100  0.25202900  0.75171600  1
  O  O10  1  0.24974900  0.25202900  0.75171600  1
  O  O11  1  0.74888700  0.74929700  0.24817300  1
  O  O12  1  0.25111300  0.74929700  0.24817300  1
  O  O13  1  0.74888700  0.25070300  0.24817300  1
  O  O14  1  0.25111300  0.25070300  0.24817300  1
  O  O15  1  0.72044100  0.00000000  0.99960200  1
  O  O16  1  0.27955900  0.00000000  0.99960200  1
  O  O17  1  0.74085800  0.50000000  0.99970500  1
  O  O18  1  0.25914200  0.50000000  0.99970500  1
  O  O19  1  0.74478400  0.00000000  0.49905400  1
  O  O20  1  0.25521600  0.00000000  0.49905400  1
  O  O21  1  0.74695200  0.50000000  0.50017100  1
  O  O22  1  0.25304800  0.50000000  0.50017100  1
  O  O23  1  0.00000000  0.72044900  0.99984100  1
  O  O24  1  0.50000000  0.74049500  0.00126600  1
  O  O25  1  0.00000000  0.27955100  0.99984100  1
  O  O26  1  0.50000000  0.25950500  0.00126600  1
  O  O27  1  0.00000000  0.74392600  0.50012200  1
  O  O28  1  0.50000000  0.74574800  0.49862200  1
  O  O29  1  0.00000000  0.25607400  0.50012200  1
  O  O30  1  0.50000000  0.25425200  0.49862200  1
loop_
_geom_bond_atom_site_label_1
_geom_bond_atom_site_label_2
_geom_bond_distance
_geom_bond_site_symmetry_2
Hf0 O24 2.092228 1_555
Hf0 O26 2.092228 1_555
Hf0 O17 2.093632 1_554
Hf0 O18 2.093632 1_554
Hf0 O6 2.128585 1_555
Hf0 O2 2.133807 1_554
Mg0 O15 1.916398 1_554
Mg0 O16 1.916398 1_554
Mg0 O4 2.182411 1_555
Mg0 O26 2.257659 1_555
Mg0 O24 2.257659 1_545
Mg1 O23 1.917827 1_554
Mg1 O25 1.917827 1_554
Mg1 O5 2.210024 1_555
Mg1 O1 2.212260 1_554
Mg1 O17 2.252553 1_454
Mg1 O18 2.252553 1_554
Mg2 O3 1.923109 1_555
Mg2 O0 1.926581 1_555
Mg2 O20 2.218431 1_555
Mg2 O19 2.218431 1_455
Mg2 O27 2.227753 1_545
Mg2 O29 2.227753 1_555
Mg3 O20 2.127748 1_555
Mg3 O19 2.127748 1_555
Mg3 O4 2.129882 1_555
Mg3 O30 2.211899 1_555
Mg3 O28 2.211899 1_545
Mg4 O29 2.122068 1_555
Mg4 O27 2.122068 1_555
Mg4 O5 2.139725 1_555
Mg4 O1 2.140551 1_555
Mg4 O22 2.199580 1_555
Mg4 O21 2.199580 1_455
Mg5 O28 2.137922 1_555
Mg5 O30 2.137922 1_555
Mg5 O21 2.146609 1_555
Mg5 O22 2.146609 1_555
Mg5 O6 2.210572 1_555
Mg5 O2 2.229596 1_555
Mg6 O23 2.154419 1_655
Mg6 O15 2.155846 1_565
Mg6 O7 2.160013 1_555
Mg6 O11 2.162540 1_556
Mg6 O24 2.215669 1_556
Mg6 O17 2.217581 1_555
Mg7 O23 2.154419 1_555
Mg7 O16 2.155846 1_565
Mg7 O8 2.160013 1_555
Mg7 O12 2.162540 1_556
Mg7 O24 2.215669 1_556
Mg7 O18 2.217581 1_555
Mg8 O25 2.154419 1_655
Mg8 O15 2.155846 1_555
Mg8 O9 2.160013 1_555
Mg8 O13 2.162540 1_556
Mg8 O26 2.215669 1_556
Mg8 O17 2.217581 1_555
Mg9 O25 2.154419 1_555
Mg9 O16 2.155846 1_555
Mg9 O10 2.160013 1_555
Mg9 O14 2.162540 1_556
Mg9 O26 2.215669 1_556
Mg9 O18 2.217581 1_555
Mg10 O27 2.160759 1_655
Mg10 O19 2.160868 1_565
Mg10 O28 2.187125 1_555
Mg10 O7 2.189695 1_555
Mg10 O21 2.190131 1_555
Mg10 O11 2.192910 1_555
Mg11 O27 2.160759 1_555
Mg11 O20 2.160868 1_565
Mg11 O28 2.187125 1_555
Mg11 O8 2.189695 1_555
Mg11 O22 2.190131 1_555
Mg11 O12 2.192910 1_555
Mg12 O29 2.160759 1_655
Mg12 O19 2.160868 1_555
Mg12 O30 2.187125 1_555
Mg12 O9 2.189695 1_555
Mg12 O21 2.190131 1_555
Mg12 O13 2.192910 1_555
Mg13 O29 2.160759 1_555
Mg13 O20 2.160868 1_555
Mg13 O30 2.187125 1_555
Mg13 O10 2.189695 1_555
Mg13 O22 2.190131 1_555
Mg13 O14 2.192910 1_555
Mg14 O19 2.146088 1_555
Mg14 O0 2.175184 1_655
Mg14 O7 2.193219 1_545
Mg14 O9 2.193219 1_555
Mg14 O15 2.226497 1_555
Mg15 O20 2.146088 1_555
Mg15 O0 2.175184 1_555
Mg15 O8 2.193219 1_545
Mg15 O10 2.193219 1_555
Mg15 O16 2.226497 1_555
Mg16 O1 2.108169 1_655
Mg16 O21 2.122360 1_555
Mg16 O9 2.159264 1_555
Mg16 O7 2.159264 1_555
Mg16 O17 2.231518 1_555
Mg16 O2 2.240321 1_555
Mg17 O1 2.108169 1_555
Mg17 O22 2.122360 1_555
Mg17 O10 2.159264 1_555
Mg17 O8 2.159264 1_555
Mg17 O18 2.231518 1_555
Mg17 O2 2.240321 1_555
Mg18 O19 2.132263 1_555
Mg18 O4 2.168417 1_555
Mg18 O11 2.181636 1_545
Mg18 O13 2.181636 1_555
Mg18 O3 2.188275 1_655
Mg18 O15 2.228958 1_554
Mg19 O20 2.132263 1_555
Mg19 O4 2.168417 1_555
Mg19 O14 2.181636 1_555
Mg19 O12 2.181636 1_545
Mg19 O3 2.188275 1_555
Mg19 O16 2.228958 1_554
Mg20 O5 2.111402 1_655
Mg20 O21 2.123728 1_555
Mg20 O11 2.171135 1_555
Mg20 O13 2.171135 1_555
Mg20 O6 2.236993 1_555
Mg20 O17 2.237904 1_554
Mg21 O5 2.111402 1_555
Mg21 O22 2.123728 1_555
Mg21 O14 2.171135 1_555
Mg21 O12 2.171135 1_555
Mg21 O6 2.236993 1_555
Mg21 O18 2.237904 1_554
Mg22 O27 2.140610 1_555
Mg22 O1 2.157501 1_555
Mg22 O7 2.171460 1_455
Mg22 O8 2.171460 1_555
Mg22 O0 2.203074 1_565
Mg22 O23 2.221485 1_555
Mg23 O28 2.129826 1_555
Mg23 O8 2.177479 1_555
Mg23 O7 2.177479 1_555
Mg23 O2 2.223819 1_555
Mg23 O24 2.249802 1_556
Mg24 O29 2.140610 1_555
Mg24 O1 2.157501 1_555
Mg24 O10 2.171460 1_555
Mg24 O9 2.171460 1_455
Mg24 O0 2.203074 1_555
Mg24 O25 2.221485 1_555
Mg25 O30 2.129826 1_555
Mg25 O9 2.177479 1_555
Mg25 O10 2.177479 1_555
Mg25 O2 2.223819 1_555
Mg25 O26 2.249802 1_556
Mg26 O27 2.142031 1_555
Mg26 O5 2.163468 1_555
Mg26 O12 2.183361 1_555
Mg26 O11 2.183361 1_455
Mg26 O3 2.196875 1_565
Mg26 O23 2.225692 1_554
Mg27 O28 2.112725 1_555
Mg27 O4 2.120139 1_565
Mg27 O11 2.165363 1_555
Mg27 O12 2.165363 1_555
Mg27 O24 2.221804 1_555
Mg27 O6 2.231796 1_555
Mg28 O29 2.142031 1_555
Mg28 O5 2.163468 1_555
Mg28 O14 2.183361 1_555
Mg28 O13 2.183361 1_455
Mg28 O3 2.196875 1_555
Mg28 O25 2.225692 1_554
Mg29 O30 2.112725 1_555
Mg29 O4 2.120139 1_555
Mg29 O13 2.165363 1_555
Mg29 O14 2.165363 1_555
Mg29 O26 2.221804 1_555
Mg29 O6 2.231796 1_555
O0 Rb0 2.429206 1_556
O3 Rb0 2.423663 1_555
O15 Rb0 2.430027 1_656
O16 Rb0 2.430027 1_556
O23 Rb0 2.431994 1_566
O25 Rb0 2.431994 1_556
