# generated using pymatgen
data_Fe(MoS2)2
_symmetry_space_group_name_H-M   'P 1'
_cell_length_a   6.75447709
_cell_length_b   6.75447709
_cell_length_c   13.01073653
_cell_angle_alpha   68.00274643
_cell_angle_beta   68.00274643
_cell_angle_gamma   57.42658438
_symmetry_Int_Tables_number   1
_chemical_formula_structural   Fe(MoS2)2
_chemical_formula_sum   'Fe4 Mo8 S16'
_cell_volume   452.30475084
_cell_formula_units_Z   4
loop_
 _symmetry_equiv_pos_site_id
 _symmetry_equiv_pos_as_xyz
  1  'x, y, z'
loop_
 _atom_site_type_symbol
 _atom_site_label
 _atom_site_symmetry_multiplicity
 _atom_site_fract_x
 _atom_site_fract_y
 _atom_site_fract_z
 _atom_site_occupancy
  Fe  Fe0  1  0.53505900  0.28126300  0.45030800  1
  Fe  Fe1  1  0.28126300  0.53505900  0.95030800  1
  Fe  Fe2  1  0.80057800  0.03858000  0.94870700  1
  Fe  Fe3  1  0.03858000  0.80057800  0.44870700  1
  Mo  Mo0  1  0.86933100  0.65203600  0.70610400  1
  Mo  Mo1  1  0.65203600  0.86933100  0.20610400  1
  Mo  Mo2  1  0.46232300  0.67025000  0.69297100  1
  Mo  Mo3  1  0.67025000  0.46232300  0.19297100  1
  Mo  Mo4  1  0.93231800  0.21498700  0.68967000  1
  Mo  Mo5  1  0.21498700  0.93231800  0.18967000  1
  Mo  Mo6  1  0.40024400  0.10774600  0.70730500  1
  Mo  Mo7  1  0.10774600  0.40024400  0.20730500  1
  S  S0  1  0.82401700  0.57974600  0.55017900  1
  S  S1  1  0.57974600  0.82401700  0.05017900  1
  S  S2  1  0.50664500  0.74528000  0.84822600  1
  S  S3  1  0.74528000  0.50664500  0.34822600  1
  S  S4  1  0.03028000  0.78203100  0.80754000  1
  S  S5  1  0.78203100  0.03028000  0.30754000  1
  S  S6  1  0.30217100  0.53998000  0.59068600  1
  S  S7  1  0.53998000  0.30217100  0.09068600  1
  S  S8  1  0.53135500  0.26343900  0.81565400  1
  S  S9  1  0.26343900  0.53135500  0.31565400  1
  S  S10  1  0.80125400  0.05935000  0.58355300  1
  S  S11  1  0.05935000  0.80125400  0.08355300  1
  S  S12  1  0.31645700  0.05634000  0.55950700  1
  S  S13  1  0.05634000  0.31645700  0.05950700  1
  S  S14  1  0.01578100  0.26515800  0.83858900  1
  S  S15  1  0.26515800  0.01578100  0.33858900  1
loop_
_geom_bond_atom_site_label_1
_geom_bond_atom_site_label_2
_geom_bond_distance
_geom_bond_site_symmetry_2
Fe0 S3 2.344748 1_555
Fe0 S12 2.394523 1_555
Fe0 S10 2.443665 1_555
Fe0 S5 2.469757 1_555
Fe0 S9 2.478423 1_555
Fe0 S6 2.478473 1_555
Fe1 S2 2.344748 1_555
Fe1 S13 2.394523 1_556
Fe1 S11 2.443665 1_556
Fe1 S4 2.469757 1_555
Fe1 S8 2.478423 1_555
Fe1 S7 2.478473 1_556
Fe2 S1 2.342507 1_546
Fe2 S14 2.387556 1_655
Fe2 S11 2.424095 1_646
Fe2 S8 2.454597 1_555
Fe2 S4 2.477496 1_645
Fe2 S7 2.516757 1_556
Fe3 S0 2.342507 1_455
Fe3 S15 2.387556 1_565
Fe3 S10 2.424095 1_465
Fe3 S9 2.454597 1_555
Fe3 S5 2.477496 1_465
Fe3 S6 2.516757 1_555
Mo0 S2 2.373783 1_555
Mo0 S0 2.411609 1_555
Mo0 S14 2.428579 1_655
Mo0 S10 2.494742 1_565
Mo0 S6 2.560324 1_655
Mo0 S4 2.581721 1_655
Mo1 S3 2.373783 1_555
Mo1 S1 2.411609 1_555
Mo1 S15 2.428579 1_565
Mo1 S11 2.494742 1_655
Mo1 S7 2.560324 1_565
Mo1 S5 2.581721 1_565
Mo2 S0 2.374093 1_555
Mo2 S2 2.410403 1_555
Mo2 S12 2.430954 1_565
Mo2 S8 2.491572 1_555
Mo2 S4 2.553437 1_555
Mo2 S6 2.587658 1_555
Mo3 S1 2.374093 1_555
Mo3 S3 2.410403 1_555
Mo3 S13 2.430954 1_655
Mo3 S9 2.491572 1_555
Mo3 S5 2.553437 1_555
Mo3 S7 2.587658 1_555
Mo4 S0 2.367125 1_555
Mo4 S14 2.388006 1_655
Mo4 S12 2.412979 1_655
Mo4 S8 2.500134 1_555
Mo4 S4 2.580447 1_645
Mo4 S10 2.607686 1_555
Mo5 S1 2.367125 1_555
Mo5 S15 2.388006 1_565
Mo5 S13 2.412979 1_565
Mo5 S9 2.500134 1_555
Mo5 S5 2.580447 1_465
Mo5 S11 2.607686 1_555
Mo6 S2 2.366855 1_545
Mo6 S12 2.380263 1_555
Mo6 S14 2.419983 1_555
Mo6 S10 2.491934 1_555
Mo6 S6 2.572284 1_555
Mo6 S8 2.631729 1_555
Mo7 S3 2.366855 1_455
Mo7 S13 2.380263 1_555
Mo7 S15 2.419983 1_555
Mo7 S11 2.491934 1_555
Mo7 S7 2.572284 1_555
Mo7 S9 2.631729 1_555
