# generated using pymatgen
data_Sr2MnNbO6
_symmetry_space_group_name_H-M   'P 1'
_cell_length_a   5.76612485
_cell_length_b   9.78606772
_cell_length_c   9.76856628
_cell_angle_alpha   101.08676884
_cell_angle_beta   88.03024406
_cell_angle_gamma   75.34139818
_symmetry_Int_Tables_number   1
_chemical_formula_structural   Sr2MnNbO6
_chemical_formula_sum   'Sr8 Mn4 Nb4 O24'
_cell_volume   521.31811621
_cell_formula_units_Z   4
loop_
 _symmetry_equiv_pos_site_id
 _symmetry_equiv_pos_as_xyz
  1  'x, y, z'
loop_
 _atom_site_type_symbol
 _atom_site_label
 _atom_site_symmetry_multiplicity
 _atom_site_fract_x
 _atom_site_fract_y
 _atom_site_fract_z
 _atom_site_occupancy
  Sr  Sr0  1  0.31436400  0.37617200  0.56193000  1
  Sr  Sr1  1  0.56424900  0.87612300  0.81204100  1
  Sr  Sr2  1  0.81427100  0.37614300  0.06191700  1
  Sr  Sr3  1  0.06435100  0.87602100  0.31191600  1
  Sr  Sr4  1  0.68578800  0.62376300  0.43808900  1
  Sr  Sr5  1  0.93572900  0.12395100  0.68808000  1
  Sr  Sr6  1  0.18574000  0.62386200  0.93808700  1
  Sr  Sr7  1  0.43581700  0.12384200  0.18798000  1
  Mn  Mn0  1  0.87488500  0.24997800  0.37500700  1
  Mn  Mn1  1  0.12491000  0.75006600  0.62506600  1
  Mn  Mn2  1  0.37473500  0.25006600  0.87485000  1
  Mn  Mn3  1  0.62518500  0.74991900  0.12508500  1
  Nb  Nb0  1  0.50002600  0.99997100  0.50004500  1
  Nb  Nb1  1  0.75003600  0.50006300  0.75001300  1
  Nb  Nb2  1  0.00008800  0.00005200  0.99997300  1
  Nb  Nb3  1  0.25007300  0.49997000  0.25001200  1
  O  O0  1  0.05969600  0.37290400  0.31330300  1
  O  O1  1  0.30946300  0.87310700  0.56340000  1
  O  O2  1  0.55966400  0.37308600  0.81334600  1
  O  O3  1  0.80951600  0.87304100  0.06332700  1
  O  O4  1  0.69062700  0.12688800  0.43663900  1
  O  O5  1  0.94030600  0.62704000  0.68667200  1
  O  O6  1  0.19041500  0.12701600  0.93662600  1
  O  O7  1  0.44033200  0.62700700  0.18666500  1
  O  O8  1  0.19533400  0.13814400  0.47146500  1
  O  O9  1  0.44517500  0.63818700  0.72154700  1
  O  O10  1  0.69527800  0.13805900  0.97143800  1
  O  O11  1  0.94509200  0.63817500  0.22162100  1
  O  O12  1  0.80465300  0.86188700  0.52855900  1
  O  O13  1  0.05483600  0.36181200  0.77842900  1
  O  O14  1  0.30464400  0.86182800  0.02848100  1
  O  O15  1  0.55481100  0.36175000  0.27837200  1
  O  O16  1  0.76237200  0.39335700  0.54894200  1
  O  O17  1  0.01225400  0.89347200  0.79901100  1
  O  O18  1  0.26208900  0.39356100  0.04890600  1
  O  O19  1  0.51229100  0.89343800  0.29903000  1
  O  O20  1  0.23772700  0.60658100  0.45110000  1
  O  O21  1  0.48764000  0.10666100  0.70099400  1
  O  O22  1  0.73775700  0.60655800  0.95105900  1
  O  O23  1  0.98777900  0.10647800  0.20097900  1
loop_
_geom_bond_atom_site_label_1
_geom_bond_atom_site_label_2
_geom_bond_distance
_geom_bond_site_symmetry_2
Mn0 O16 1.955298 1_555
Mn0 O4 1.955743 1_555
Mn0 O23 1.956769 1_555
Mn0 O0 1.956923 1_655
Mn0 O15 2.233579 1_555
Mn0 O8 2.234408 1_655
Mn1 O17 1.955591 1_555
Mn1 O20 1.956211 1_555
Mn1 O5 1.956505 1_455
Mn1 O1 1.956661 1_555
Mn1 O12 2.233828 1_455
Mn1 O9 2.233928 1_555
Mn2 O21 1.955135 1_555
Mn2 O6 1.956245 1_555
Mn2 O18 1.956770 1_556
Mn2 O2 1.957344 1_555
Mn2 O13 2.231625 1_555
Mn2 O10 2.236101 1_555
Mn3 O22 1.955896 1_554
Mn3 O19 1.956273 1_555
Mn3 O7 1.956486 1_555
Mn3 O3 1.956789 1_555
Mn3 O11 2.232263 1_555
Mn3 O14 2.235830 1_555
Nb0 O12 1.991489 1_555
Nb0 O8 1.992371 1_565
Nb0 O1 2.017650 1_555
Nb0 O4 2.018424 1_565
Nb0 O21 2.028029 1_565
Nb0 O19 2.028188 1_555
Nb1 O9 1.992501 1_555
Nb1 O13 1.992703 1_655
Nb1 O5 2.017328 1_555
Nb1 O2 2.017701 1_555
Nb1 O22 2.028321 1_555
Nb1 O16 2.029150 1_555
Nb2 O14 1.991839 1_546
Nb2 O10 1.991942 1_455
Nb2 O6 2.017475 1_555
Nb2 O3 2.018850 1_446
Nb2 O23 2.027745 1_456
Nb2 O17 2.027958 1_545
Nb3 O15 1.992137 1_555
Nb3 O11 1.993159 1_455
Nb3 O7 2.017785 1_555
Nb3 O0 2.018262 1_555
Nb3 O18 2.028757 1_555
Nb3 O20 2.028990 1_555
O0 Sr7 2.852621 1_555
O0 Sr4 2.854917 1_455
O0 Sr2 2.877526 1_455
O0 Sr0 2.880131 1_555
O1 Sr5 2.854063 1_465
O1 Sr4 2.854815 1_555
O1 Sr3 2.877266 1_555
O1 Sr1 2.880672 1_555
O2 Sr5 2.852731 1_555
O2 Sr6 2.854385 1_555
O2 Sr0 2.877332 1_555
O2 Sr2 2.879517 1_556
O3 Sr6 2.853405 1_654
O3 Sr7 2.853648 1_565
O3 Sr1 2.876124 1_554
O3 Sr3 2.880397 1_655
O4 Sr0 2.854239 1_555
O4 Sr3 2.854264 1_645
O4 Sr5 2.876881 1_555
O4 Sr7 2.880892 1_555
O5 Sr1 2.852652 1_555
O5 Sr0 2.855320 1_655
O5 Sr6 2.877770 1_655
O5 Sr4 2.879292 1_555
O6 Sr2 2.852985 1_456
O6 Sr1 2.854427 1_545
O6 Sr7 2.877152 1_556
O6 Sr5 2.879552 1_455
O7 Sr3 2.851753 1_555
O7 Sr2 2.854952 1_555
O7 Sr4 2.877945 1_555
O7 Sr6 2.879510 1_554
O8 Sr0 2.595591 1_555
O8 Sr5 2.595783 1_455
O8 Sr7 3.016594 1_555
O8 Sr3 3.017191 1_545
O9 Sr1 2.594960 1_555
O9 Sr6 2.595102 1_555
O9 Sr0 3.016092 1_555
O9 Sr4 3.016377 1_555
O10 Sr7 2.594826 1_556
O10 Sr2 2.596001 1_556
O10 Sr1 3.015292 1_545
O10 Sr5 3.015878 1_555
O11 Sr3 2.594362 1_655
O11 Sr4 2.594415 1_555
O11 Sr2 3.016563 1_555
O11 Sr6 3.017391 1_654
O12 Sr4 2.595966 1_555
O12 Sr3 2.596100 1_655
O12 Sr1 3.016537 1_555
O12 Sr5 3.016881 1_565
O13 Sr5 2.594145 1_455
O13 Sr0 2.595203 1_555
O13 Sr2 3.016747 1_456
O13 Sr6 3.016775 1_555
O14 Sr6 2.594558 1_554
O14 Sr1 2.594762 1_554
O14 Sr3 3.015965 1_555
O14 Sr7 3.016675 1_565
O15 Sr7 2.594305 1_555
O15 Sr2 2.594752 1_555
O15 Sr0 3.016856 1_555
O15 Sr4 3.016892 1_555
O16 Sr4 2.630507 1_555
O16 Sr0 2.631200 1_555
O16 Sr5 3.151988 1_555
O16 Sr0 3.152776 1_655
O17 Sr5 2.631602 1_465
O17 Sr1 2.631711 1_455
O17 Sr1 3.152517 1_555
O17 Sr6 3.153387 1_555
O18 Sr6 2.629443 1_554
O18 Sr2 2.630849 1_455
O18 Sr2 3.153446 1_555
O18 Sr7 3.154439 1_555
O19 Sr3 2.631514 1_555
O19 Sr7 2.631633 1_565
O19 Sr3 3.152642 1_655
O19 Sr4 3.153829 1_555
O20 Sr0 2.630392 1_555
O20 Sr4 2.631501 1_555
O20 Sr4 3.152497 1_455
O20 Sr3 3.152551 1_555
O21 Sr5 2.631977 1_555
O21 Sr1 2.632761 1_545
O21 Sr5 3.152049 1_455
O21 Sr0 3.152358 1_555
O22 Sr2 2.630629 1_556
O22 Sr6 2.631427 1_655
O22 Sr6 3.152681 1_555
O22 Sr1 3.152692 1_555
O23 Sr3 2.631434 1_645
O23 Sr7 2.631940 1_655
O23 Sr7 3.152273 1_555
O23 Sr2 3.153772 1_555
