# generated using pymatgen
data_Yb2CuGe6
_symmetry_space_group_name_H-M   'P 1'
_cell_length_a   10.72616401
_cell_length_b   10.72616401
_cell_length_c   4.03188221
_cell_angle_alpha   90.00000000
_cell_angle_beta   90.00000000
_cell_angle_gamma   158.68148121
_symmetry_Int_Tables_number   1
_chemical_formula_structural   Yb2CuGe6
_chemical_formula_sum   'Yb2 Cu1 Ge6'
_cell_volume   168.64118890
_cell_formula_units_Z   1
loop_
 _symmetry_equiv_pos_site_id
 _symmetry_equiv_pos_as_xyz
  1  'x, y, z'
loop_
 _atom_site_type_symbol
 _atom_site_label
 _atom_site_symmetry_multiplicity
 _atom_site_fract_x
 _atom_site_fract_y
 _atom_site_fract_z
 _atom_site_occupancy
  Yb  Yb0  1  0.00439935  0.99560065  0.00000000  1
  Yb  Yb1  1  0.66843069  0.33156931  0.00000000  1
  Cu  Cu0  1  0.22412249  0.77587751  0.50000000  1
  Ge  Ge0  1  0.28501987  0.71498013  0.00000000  1
  Ge  Ge1  1  0.40188718  0.59811282  0.00000000  1
  Ge  Ge2  1  0.54290677  0.45709323  0.50000000  1
  Ge  Ge3  1  0.11564780  0.88435220  0.50000000  1
  Ge  Ge4  1  0.90296340  0.09703660  0.50000000  1
  Ge  Ge5  1  0.78562144  0.21437856  0.50000000  1
loop_
_geom_bond_atom_site_label_1
_geom_bond_atom_site_label_2
_geom_bond_distance
_geom_bond_site_symmetry_2
Cu0 Ge3 2.286881 1_555
Cu0 Ge5 2.370070 1_565
Cu0 Ge5 2.370070 1_455
Cu0 Ge0 2.390039 1_555
Cu0 Ge0 2.390039 1_556
Cu0 Yb1 3.062479 1_566
Cu0 Yb1 3.062479 1_565
Cu0 Yb1 3.062479 1_456
Cu0 Yb1 3.062479 1_455
Ge0 Ge1 2.463815 1_555
Ge0 Ge5 2.828501 1_565
Ge0 Ge5 2.828501 1_564
Ge0 Ge5 2.828501 1_455
Ge0 Ge5 2.828501 1_454
Ge0 Yb1 3.158760 1_565
Ge0 Yb1 3.158760 1_455
Ge1 Ge4 2.828564 1_565
Ge1 Ge4 2.828564 1_564
Ge1 Ge4 2.828564 1_454
Ge1 Ge4 2.828564 1_455
Ge1 Yb0 2.933757 1_545
Ge1 Yb0 2.933757 1_655
Ge2 Ge3 2.507584 1_545
Ge2 Ge3 2.507584 1_655
Ge2 Yb0 2.942670 1_545
Ge2 Yb0 2.942670 1_546
Ge2 Yb0 2.942670 1_655
Ge2 Yb0 2.942670 1_656
Ge2 Yb1 3.326710 1_556
Ge2 Yb1 3.326710 1_555
Ge3 Yb1 3.039495 1_455
Ge3 Yb1 3.039495 1_456
Ge3 Yb1 3.039495 1_566
Ge3 Yb1 3.039495 1_565
Ge3 Yb0 3.092688 1_555
Ge3 Yb0 3.092688 1_556
Ge4 Ge5 2.473822 1_555
Ge4 Yb0 2.938903 1_645
Ge4 Yb0 2.938903 1_646
Ge5 Yb1 3.188738 1_556
Ge5 Yb1 3.188738 1_555
