# generated using pymatgen
data_MnZn4S5
_symmetry_space_group_name_H-M   'P 1'
_cell_length_a   16.89362275
_cell_length_b   16.89362275
_cell_length_c   6.34926539
_cell_angle_alpha   89.96230459
_cell_angle_beta   89.96230459
_cell_angle_gamma   13.17470214
_symmetry_Int_Tables_number   1
_chemical_formula_structural   MnZn4S5
_chemical_formula_sum   'Mn2 Zn8 S10'
_cell_volume   413.00306729
_cell_formula_units_Z   2
loop_
 _symmetry_equiv_pos_site_id
 _symmetry_equiv_pos_as_xyz
  1  'x, y, z'
loop_
 _atom_site_type_symbol
 _atom_site_label
 _atom_site_symmetry_multiplicity
 _atom_site_fract_x
 _atom_site_fract_y
 _atom_site_fract_z
 _atom_site_occupancy
  Mn  Mn0  1  0.86727600  0.86727600  0.00137500  1
  Mn  Mn1  1  0.26626100  0.26626100  0.00110900  1
  Zn  Zn0  1  0.93357900  0.93357900  0.49971400  1
  Zn  Zn1  1  0.33329600  0.33329600  0.49938000  1
  Zn  Zn2  1  0.73300300  0.73300300  0.49985400  1
  Zn  Zn3  1  0.13330800  0.13330800  0.49984900  1
  Zn  Zn4  1  0.53335300  0.53335300  0.49982200  1
  Zn  Zn5  1  0.46698000  0.46698000  0.99961900  1
  Zn  Zn6  1  0.66630700  0.66630700  0.99946000  1
  Zn  Zn7  1  0.06666200  0.06666200  0.99935300  1
  S  S0  1  0.93453200  0.93453300  0.87276600  1
  S  S1  1  0.33330300  0.33330300  0.86777000  1
  S  S2  1  0.73190600  0.73190600  0.87054000  1
  S  S3  1  0.13317800  0.13317800  0.87440400  1
  S  S4  1  0.53344900  0.53344900  0.87439300  1
  S  S5  1  0.46660100  0.46660100  0.37396300  1
  S  S6  1  0.86671500  0.86671500  0.37919500  1
  S  S7  1  0.26666500  0.26666500  0.37926000  1
  S  S8  1  0.66663500  0.66663500  0.37379700  1
  S  S9  1  0.06663600  0.06663600  0.37437700  1
loop_
_geom_bond_atom_site_label_1
_geom_bond_atom_site_label_2
_geom_bond_distance
_geom_bond_site_symmetry_2
Mn0 S6 2.398941 1_555
Mn0 S0 2.400052 1_554
Mn0 S1 2.403530 1_654
Mn0 S1 2.403530 1_564
Mn1 S7 2.401028 1_555
Mn1 S2 2.402918 1_544
Mn1 S2 2.402918 1_454
Mn1 S1 2.403677 1_554
S0 Zn5 2.364696 1_565
S0 Zn5 2.364699 1_655
S0 Zn0 2.368844 1_555
S1 Zn1 2.339006 1_555
S2 Zn6 2.348500 1_555
S2 Zn2 2.353847 1_555
S3 Zn7 2.368826 1_555
S3 Zn6 2.371476 1_455
S3 Zn6 2.371476 1_545
S3 Zn3 2.378150 1_555
S4 Zn5 2.367929 1_555
S4 Zn7 2.372596 1_565
S4 Zn7 2.372596 1_655
S4 Zn4 2.378255 1_555
S5 Zn0 2.370783 1_545
S5 Zn0 2.370783 1_455
S5 Zn5 2.376835 1_554
S5 Zn4 2.379220 1_555
S6 Zn1 2.365413 1_565
S6 Zn1 2.365413 1_655
S6 Zn0 2.371584 1_555
S7 Zn1 2.363363 1_555
S7 Zn2 2.370127 1_545
S7 Zn2 2.370127 1_455
S8 Zn2 2.367509 1_555
S8 Zn3 2.376226 1_565
S8 Zn3 2.376226 1_655
S8 Zn6 2.376798 1_554
S9 Zn4 2.374237 1_455
S9 Zn4 2.374237 1_545
S9 Zn3 2.375864 1_555
S9 Zn7 2.381126 1_554
