# generated using pymatgen
data_Mg14NbCo
_symmetry_space_group_name_H-M   'P 1'
_cell_length_a   6.28698215
_cell_length_b   6.07968267
_cell_length_c   9.93678071
_cell_angle_alpha   90.00000000
_cell_angle_beta   90.00000000
_cell_angle_gamma   118.91513809
_symmetry_Int_Tables_number   1
_chemical_formula_structural   Mg14NbCo
_chemical_formula_sum   'Mg14 Nb1 Co1'
_cell_volume   332.46354876
_cell_formula_units_Z   1
loop_
 _symmetry_equiv_pos_site_id
 _symmetry_equiv_pos_as_xyz
  1  'x, y, z'
loop_
 _atom_site_type_symbol
 _atom_site_label
 _atom_site_symmetry_multiplicity
 _atom_site_fract_x
 _atom_site_fract_y
 _atom_site_fract_z
 _atom_site_occupancy
  Mg  Mg0  1  0.16622322  0.33311111  0.62500000  1
  Mg  Mg1  1  0.16913856  0.83456878  0.62500000  1
  Mg  Mg2  1  0.65686236  0.33455113  0.12500000  1
  Mg  Mg3  1  0.66228005  0.32881264  0.62500000  1
  Mg  Mg4  1  0.65686236  0.82231023  0.12500000  1
  Mg  Mg5  1  0.66228005  0.83346641  0.62500000  1
  Mg  Mg6  1  0.32886053  0.16691734  0.35772030  1
  Mg  Mg7  1  0.32886053  0.16691734  0.89227970  1
  Mg  Mg8  1  0.32886053  0.66194420  0.35772030  1
  Mg  Mg9  1  0.32886053  0.66194420  0.89227970  1
  Mg  Mg10  1  0.85610061  0.17805081  0.35669808  1
  Mg  Mg11  1  0.85610061  0.17805081  0.89330192  1
  Mg  Mg12  1  0.84396686  0.67198393  0.37475778  1
  Mg  Mg13  1  0.84396686  0.67198393  0.87524222  1
  Nb  Nb0  1  0.14475882  0.82237891  0.12500000  1
  Co  Co0  1  0.16601750  0.33300825  0.12500000  1
loop_
_geom_bond_atom_site_label_1
_geom_bond_atom_site_label_2
_geom_bond_distance
_geom_bond_site_symmetry_2
Mg0 Mg1 3.039884 1_555
Mg0 Mg1 3.039884 1_545
Mg0 Mg5 3.131420 1_555
Mg0 Mg3 3.131420 1_555
Mg0 Mg5 3.155729 1_445
Mg0 Mg3 3.155729 1_455
Mg0 Mg10 3.165533 1_455
Mg0 Mg11 3.165533 1_455
Mg0 Mg6 3.181084 1_555
Mg0 Mg7 3.181084 1_555
Mg0 Mg8 3.181090 1_555
Mg0 Mg9 3.181090 1_555
Mg1 Mg13 3.063573 1_455
Mg1 Mg12 3.063573 1_455
Mg1 Mg3 3.103618 1_565
Mg1 Mg5 3.103618 1_555
Mg1 Mg3 3.183375 1_455
Mg1 Mg5 3.183375 1_455
Mg1 Mg9 3.191041 1_555
Mg1 Mg8 3.191041 1_555
Mg1 Mg7 3.191047 1_565
Mg1 Mg6 3.191047 1_565
Mg2 Mg7 2.933662 1_554
Mg2 Mg6 2.933662 1_555
Mg2 Mg4 2.965421 1_555
Mg2 Nb0 3.067194 1_655
Mg2 Mg4 3.114262 1_545
Mg2 Nb0 3.219787 1_545
Mg3 Mg5 3.011548 1_545
Mg3 Mg5 3.068135 1_555
Mg3 Mg6 3.228228 1_555
Mg3 Mg7 3.228228 1_555
Mg4 Mg9 2.933662 1_554
Mg4 Mg8 2.933662 1_555
Mg4 Nb0 3.067194 1_655
Mg4 Nb0 3.219788 1_555
Mg5 Mg8 3.228228 1_555
Mg5 Mg9 3.228228 1_555
Mg6 Nb0 2.954734 1_545
Mg6 Mg8 3.009606 1_555
Mg6 Mg8 3.070076 1_545
Mg7 Nb0 2.954734 1_546
Mg7 Mg9 3.009606 1_555
Mg7 Mg9 3.070076 1_545
Mg8 Nb0 2.954728 1_555
Mg9 Nb0 2.954728 1_556
Mg10 Mg2 2.987907 1_555
Mg10 Mg4 2.987913 1_545
Mg10 Mg8 3.005562 1_655
Mg10 Mg6 3.005562 1_655
Mg10 Mg12 3.045866 1_555
Mg10 Mg12 3.045866 1_545
Mg10 Mg3 3.242363 1_555
Mg10 Mg5 3.242368 1_545
Mg10 Mg8 3.282571 1_545
Mg10 Mg6 3.282571 1_555
Mg11 Mg2 2.987907 1_556
Mg11 Mg4 2.987913 1_546
Mg11 Mg9 3.005562 1_655
Mg11 Mg7 3.005562 1_655
Mg11 Mg13 3.045866 1_555
Mg11 Mg13 3.045866 1_545
Mg11 Mg3 3.242363 1_555
Mg11 Mg5 3.242368 1_545
Mg11 Mg9 3.282571 1_545
Mg11 Mg7 3.282571 1_555
Mg12 Nb0 2.983183 1_655
Mg12 Mg4 3.068863 1_555
Mg12 Mg2 3.068869 1_555
Mg12 Mg6 3.083146 1_665
Mg12 Mg8 3.083146 1_655
Mg12 Mg5 3.088084 1_555
Mg12 Mg3 3.088090 1_555
Mg12 Mg6 3.213858 1_555
Mg12 Mg8 3.213858 1_555
Mg13 Nb0 2.983183 1_656
Mg13 Mg4 3.068863 1_556
Mg13 Mg2 3.068869 1_556
Mg13 Mg7 3.083146 1_665
Mg13 Mg9 3.083146 1_655
Mg13 Mg5 3.088084 1_555
Mg13 Mg3 3.088090 1_555
Mg13 Mg7 3.213858 1_555
Mg13 Mg9 3.213858 1_555
Co0 Mg10 2.865242 1_455
Co0 Mg11 2.865242 1_454
Co0 Mg6 2.900885 1_555
Co0 Mg7 2.900885 1_554
Co0 Mg8 2.900891 1_555
Co0 Mg9 2.900891 1_554
Co0 Nb0 3.042092 1_545
Co0 Nb0 3.042092 1_555
Co0 Mg4 3.081408 1_555
Co0 Mg2 3.081408 1_555
Co0 Mg4 3.205595 1_445
Co0 Mg2 3.205595 1_455
