# generated using pymatgen
data_Li9Mn2Co5O16
_symmetry_space_group_name_H-M   'P 1'
_cell_length_a   3.01690800
_cell_length_b   9.73414488
_cell_length_c   9.96660360
_cell_angle_alpha   87.16461436
_cell_angle_beta   87.04461170
_cell_angle_gamma   83.49473035
_symmetry_Int_Tables_number   1
_chemical_formula_structural   Li9Mn2Co5O16
_chemical_formula_sum   'Li9 Mn2 Co5 O16'
_cell_volume   290.13733549
_cell_formula_units_Z   1
loop_
 _symmetry_equiv_pos_site_id
 _symmetry_equiv_pos_as_xyz
  1  'x, y, z'
loop_
 _atom_site_type_symbol
 _atom_site_label
 _atom_site_symmetry_multiplicity
 _atom_site_fract_x
 _atom_site_fract_y
 _atom_site_fract_z
 _atom_site_occupancy
  Li  Li0  1  0.87032800  0.25602300  0.81140500  1
  Li  Li1  1  0.13250300  0.74700500  0.68619700  1
  Li  Li2  1  0.37629600  0.25419700  0.56352400  1
  Li  Li3  1  0.62789200  0.74695400  0.43739800  1
  Li  Li4  1  0.87064800  0.25022100  0.31070600  1
  Li  Li5  1  0.12386700  0.74847900  0.18745600  1
  Li  Li6  1  0.36723300  0.25580700  0.06518700  1
  Li  Li7  1  0.62800800  0.74073000  0.93665800  1
  Li  Li8  1  0.24975900  0.49951700  0.87494600  1
  Mn  Mn0  1  0.99985100  0.00001400  0.99979400  1
  Mn  Mn1  1  0.00038500  0.00020600  0.50004900  1
  Co  Co0  1  0.49922300  0.00022400  0.75007000  1
  Co  Co1  1  0.75224900  0.49857400  0.63437200  1
  Co  Co2  1  0.24981200  0.49960900  0.37490900  1
  Co  Co3  1  0.49934300  0.99995500  0.25004700  1
  Co  Co4  1  0.74760300  0.50221400  0.11569100  1
  O  O0  1  0.41571100  0.11622800  0.90292400  1
  O  O1  1  0.69018100  0.61487200  0.76312600  1
  O  O2  1  0.91549800  0.11312700  0.65735500  1
  O  O3  1  0.16477200  0.61444000  0.52510900  1
  O  O4  1  0.41494500  0.11609600  0.40261900  1
  O  O5  1  0.70870500  0.61005100  0.27430000  1
  O  O6  1  0.91546600  0.11310700  0.15743200  1
  O  O7  1  0.17650400  0.61533000  0.03782100  1
  O  O8  1  0.32322100  0.38563400  0.71174700  1
  O  O9  1  0.58274600  0.88584600  0.59644000  1
  O  O10  1  0.79305500  0.38922500  0.47664800  1
  O  O11  1  0.08709400  0.88504000  0.34367900  1
  O  O12  1  0.33459400  0.38612400  0.22422400  1
  O  O13  1  0.58181000  0.88589600  0.09696700  1
  O  O14  1  0.81224600  0.38446200  0.98763400  1
  O  O15  1  0.08845600  0.88479100  0.84356700  1
loop_
_geom_bond_atom_site_label_1
_geom_bond_atom_site_label_2
_geom_bond_distance
_geom_bond_site_symmetry_2
Li0 O2 2.111266 1_555
Li0 O8 2.138195 1_655
Li0 O0 2.176221 1_555
Li0 O14 2.194230 1_555
Li0 O8 2.208148 1_555
Li0 O0 2.217114 1_655
Li1 O1 2.051527 1_455
Li1 O3 2.100629 1_555
Li1 O15 2.103049 1_555
Li1 O1 2.148948 1_555
Li1 O9 2.154753 1_555
Li1 O9 2.214300 1_455
Li2 O8 1.990253 1_555
Li2 O10 2.051288 1_555
Li2 O4 2.133304 1_555
Li2 O2 2.205513 1_455
Li2 O2 2.220386 1_555
Li2 O10 2.256970 1_455
Li3 O9 2.122980 1_555
Li3 O3 2.133323 1_555
Li3 O5 2.139518 1_555
Li3 O3 2.147692 1_655
Li3 O11 2.182373 1_655
Li3 O11 2.208424 1_555
Li4 O6 2.067081 1_555
Li4 O4 2.142983 1_555
Li4 O12 2.152777 1_655
Li4 O12 2.157445 1_555
Li4 O10 2.175007 1_555
Li4 O4 2.188884 1_655
Li5 O7 2.012307 1_555
Li5 O5 2.070959 1_455
Li5 O11 2.087387 1_555
Li5 O13 2.163861 1_555
Li5 O13 2.194091 1_455
Li5 O5 2.276258 1_555
Li6 O14 2.036293 1_554
Li6 O12 2.070214 1_555
Li6 O14 2.128802 1_454
Li6 O0 2.151917 1_554
Li6 O6 2.192206 1_455
Li6 O6 2.240585 1_555
Li7 O7 2.115515 1_556
Li7 O1 2.156725 1_555
Li7 O13 2.173642 1_556
Li7 O7 2.199413 1_656
Li7 O15 2.221879 1_655
Li7 O15 2.233102 1_555
Li8 O8 2.002295 1_555
Li8 O7 2.010592 1_556
Li8 O14 2.077400 1_455
Li8 O1 2.080851 1_555
Li8 O1 2.234630 1_455
Li8 O14 2.244296 1_555
Mn0 O6 1.952302 1_556
Mn0 O15 1.953400 1_645
Mn0 O13 1.961529 1_546
Mn0 O0 1.968380 1_655
Mn0 O13 2.209401 1_646
Mn0 O0 2.221079 1_555
Mn1 O2 1.948622 1_455
Mn1 O11 1.954068 1_545
Mn1 O9 1.958794 1_445
Mn1 O4 1.966171 1_555
Mn1 O9 2.207717 1_545
Mn1 O4 2.225322 1_455
Co0 O9 1.926882 1_545
Co0 O0 1.930174 1_555
Co0 O2 1.931710 1_555
Co0 O15 1.938941 1_545
Co0 O2 2.189012 1_455
Co0 O15 2.214862 1_645
Co1 O1 1.741908 1_555
Co1 O8 1.901120 1_555
Co1 O10 1.932649 1_555
Co1 O3 2.015843 1_655
Co1 O8 2.096323 1_655
Co1 O3 2.285559 1_555
Co2 O12 1.897813 1_555
Co2 O3 1.901888 1_555
Co2 O10 2.040885 1_455
Co2 O5 2.040915 1_555
Co2 O5 2.119117 1_455
Co2 O10 2.129156 1_555
Co3 O13 1.920460 1_555
Co3 O4 1.928773 1_565
Co3 O6 1.932480 1_565
Co3 O11 1.939389 1_555
Co3 O6 2.189874 1_465
Co3 O11 2.210031 1_655
Co4 O14 1.746190 1_554
Co4 O7 1.903623 1_655
Co4 O5 1.931754 1_555
Co4 O12 2.014632 1_555
Co4 O7 2.099230 1_555
Co4 O12 2.281732 1_655
