# generated using pymatgen
data_PrCo9Si4
_symmetry_space_group_name_H-M   'P 1'
_cell_length_a   7.94998916
_cell_length_b   7.94998916
_cell_length_c   7.94998916
_cell_angle_alpha   122.04897442
_cell_angle_beta   122.04897442
_cell_angle_gamma   86.48625966
_symmetry_Int_Tables_number   1
_chemical_formula_structural   PrCo9Si4
_chemical_formula_sum   'Pr2 Co18 Si8'
_cell_volume   343.58455468
_cell_formula_units_Z   2
loop_
 _symmetry_equiv_pos_site_id
 _symmetry_equiv_pos_as_xyz
  1  'x, y, z'
loop_
 _atom_site_type_symbol
 _atom_site_label
 _atom_site_symmetry_multiplicity
 _atom_site_fract_x
 _atom_site_fract_y
 _atom_site_fract_z
 _atom_site_occupancy
  Pr  Pr0  1  0.75000000  0.75000000  0.00000000  1
  Pr  Pr1  1  0.25000000  0.25000000  0.00000000  1
  Co  Co0  1  0.69240275  0.44780599  0.50000000  1
  Co  Co1  1  0.44780599  0.94780599  0.75540324  1
  Co  Co2  1  0.19240275  0.69240275  0.24459676  1
  Co  Co3  1  0.55219401  0.05219401  0.24459676  1
  Co  Co4  1  0.94780599  0.19240275  0.50000000  1
  Co  Co5  1  0.19677867  0.93231457  0.12909323  1
  Co  Co6  1  0.80322133  0.06768543  0.87090677  1
  Co  Co7  1  0.43231457  0.69677867  0.12909323  1
  Co  Co8  1  0.56768543  0.30322133  0.87090677  1
  Co  Co9  1  0.69677867  0.56768543  0.26446410  1
  Co  Co10  1  0.30322133  0.43231457  0.73553590  1
  Co  Co11  1  0.93231457  0.80322133  0.73553590  1
  Co  Co12  1  0.30759725  0.55219401  0.50000000  1
  Co  Co13  1  0.80759725  0.30759725  0.75540324  1
  Co  Co14  1  -0.00000000  0.50000000  0.50000000  1
  Co  Co15  1  0.50000000  0.00000000  0.50000000  1
  Co  Co16  1  0.06768543  0.19677867  0.26446410  1
  Co  Co17  1  0.05219401  0.80759725  0.50000000  1
  Si  Si0  1  0.29148460  0.79148460  0.83506792  1
  Si  Si1  1  0.04358332  0.54358332  0.83506792  1
  Si  Si2  1  0.54358332  0.70851540  0.50000000  1
  Si  Si3  1  0.79148460  0.95641668  0.50000000  1
  Si  Si4  1  0.45641668  0.29148460  0.50000000  1
  Si  Si5  1  0.95641668  0.45641668  0.16493208  1
  Si  Si6  1  0.70851540  0.20851540  0.16493208  1
  Si  Si7  1  0.20851540  0.04358332  0.50000000  1
loop_
_geom_bond_atom_site_label_1
_geom_bond_atom_site_label_2
_geom_bond_distance
_geom_bond_site_symmetry_2
Pr0 Si1 3.217842 1_654
Pr0 Si7 3.217842 1_665
Pr0 Si2 3.217842 1_554
Pr0 Si5 3.217842 1_555
Pr0 Si4 3.217842 1_554
Pr0 Si3 3.217842 1_555
Pr0 Si0 3.217842 1_554
Pr0 Si6 3.217842 1_565
Pr1 Si7 3.217842 1_554
Pr1 Si0 3.217842 1_544
Pr1 Si3 3.217842 1_444
Pr1 Si5 3.217842 1_455
Pr1 Si2 3.217842 1_555
Pr1 Si4 3.217842 1_555
Pr1 Si6 3.217842 1_555
Pr1 Si1 3.217842 1_554
Co0 Si4 2.312990 1_555
Co0 Si2 2.322715 1_555
Co0 Si6 2.384396 1_555
Co0 Si1 2.384396 1_655
Co0 Co14 2.505296 1_655
Co0 Co11 2.526446 1_555
Co0 Co9 2.526446 1_555
Co0 Co3 2.550938 1_555
Co0 Co13 2.550938 1_555
Co0 Pr1 3.138495 1_555
Co0 Pr0 3.138495 1_556
Co1 Si0 2.312990 1_555
Co1 Si6 2.322715 1_566
Co1 Si2 2.384396 1_555
Co1 Si7 2.384396 1_565
Co1 Co15 2.505296 1_565
Co1 Co8 2.526446 1_565
Co1 Co6 2.526446 1_565
Co1 Co12 2.550938 1_555
Co1 Co17 2.550938 1_555
Co1 Pr0 3.138495 1_556
Co1 Pr1 3.138495 1_566
Co2 Si5 2.312990 1_455
Co2 Si1 2.322715 1_554
Co2 Si7 2.384396 1_565
Co2 Si2 2.384396 1_555
Co2 Co7 2.526446 1_555
Co2 Co5 2.526446 1_555
Co2 Pr0 3.138495 1_455
Co2 Pr1 3.138495 1_555
Co3 Si6 2.312990 1_555
Co3 Si0 2.322715 1_544
Co3 Si4 2.384396 1_555
Co3 Si3 2.384396 1_545
Co3 Co5 2.526446 1_545
Co3 Co7 2.526446 1_545
Co3 Co4 2.550938 1_555
Co3 Pr1 3.138495 1_555
Co3 Pr0 3.138495 1_545
Co4 Si3 2.312990 1_545
Co4 Si7 2.322715 1_655
Co4 Si6 2.384396 1_555
Co4 Si1 2.384396 1_655
Co4 Pr1 3.138495 1_656
Co4 Pr0 3.138495 1_545
Co5 Si0 2.504253 1_554
Co5 Si1 2.504253 1_554
Co5 Si4 2.536914 1_565
Co5 Si7 2.536914 1_565
Co5 Co7 2.565694 1_555
Co5 Pr1 3.309623 1_565
Co5 Pr0 3.309623 1_455
Co6 Si6 2.504253 1_556
Co6 Si5 2.504253 1_556
Co6 Si2 2.536914 1_545
Co6 Si3 2.536914 1_545
Co6 Co8 2.565694 1_555
Co6 Pr0 3.309623 1_546
Co6 Pr1 3.309623 1_656
Co7 Co9 2.266770 1_555
Co7 Si0 2.504253 1_554
Co7 Si1 2.504253 1_554
Co7 Si3 2.536914 1_555
Co7 Si2 2.536914 1_555
Co7 Pr0 3.309623 1_555
Co7 Pr1 3.309623 1_555
Co8 Co9 2.266770 1_556
Co8 Si6 2.504253 1_556
Co8 Si5 2.504253 1_556
Co8 Si7 2.536914 1_555
Co8 Si4 2.536914 1_555
Co8 Pr1 3.309623 1_556
Co8 Pr0 3.309623 1_556
Co9 Si3 2.504253 1_555
Co9 Si2 2.504253 1_555
Co9 Si5 2.536914 1_555
Co9 Si6 2.536914 1_555
Co9 Pr0 3.309623 1_555
Co9 Pr1 3.309623 1_555
Co10 Co7 2.266770 1_556
Co10 Co8 2.266770 1_555
Co10 Co14 2.393049 1_555
Co10 Si7 2.504253 1_555
Co10 Si4 2.504253 1_555
Co10 Co12 2.526446 1_555
Co10 Co4 2.526446 1_455
Co10 Si0 2.536914 1_555
Co10 Si1 2.536914 1_555
Co10 Co16 2.565694 1_555
Co10 Pr0 3.309623 1_556
Co10 Pr1 3.309623 1_556
Co11 Co5 2.266770 1_656
Co11 Co6 2.266770 1_565
Co11 Co14 2.393049 1_655
Co11 Si3 2.504253 1_555
Co11 Si2 2.504253 1_555
Co11 Co17 2.526446 1_655
Co11 Si0 2.536914 1_655
Co11 Si1 2.536914 1_655
Co11 Co9 2.565694 1_555
Co11 Pr1 3.309623 1_666
Co11 Pr0 3.309623 1_556
Co12 Si2 2.312990 1_555
Co12 Si4 2.322715 1_555
Co12 Si0 2.384396 1_555
Co12 Si5 2.384396 1_455
Co12 Co14 2.505296 1_555
Co12 Co16 2.526446 1_555
Co12 Co2 2.550938 1_555
Co12 Pr1 3.138495 1_555
Co12 Pr0 3.138495 1_556
Co13 Si1 2.312990 1_655
Co13 Si5 2.322715 1_556
Co13 Si3 2.384396 1_545
Co13 Si4 2.384396 1_555
Co13 Co15 2.505296 1_555
Co13 Co8 2.526446 1_555
Co13 Co6 2.526446 1_555
Co13 Co4 2.550938 1_555
Co13 Pr1 3.138495 1_656
Co13 Pr0 3.138495 1_556
Co14 Si1 2.321963 1_555
Co14 Si0 2.321963 1_555
Co14 Si5 2.321963 1_455
Co14 Si6 2.321963 1_455
Co14 Co16 2.393049 1_555
Co14 Co9 2.393049 1_455
Co14 Co4 2.505296 1_455
Co14 Co17 2.505296 1_555
Co15 Si3 2.321963 1_545
Co15 Si7 2.321963 1_555
Co15 Si4 2.321963 1_555
Co15 Si2 2.321963 1_545
Co15 Co5 2.393049 1_545
Co15 Co7 2.393049 1_545
Co15 Co8 2.393049 1_555
Co15 Co6 2.393049 1_555
Co15 Co2 2.505296 1_545
Co15 Co3 2.505296 1_555
Co16 Co6 2.266770 1_454
Co16 Co5 2.266770 1_545
Co16 Si4 2.504253 1_555
Co16 Si7 2.504253 1_555
Co16 Co4 2.526446 1_455
Co16 Si5 2.536914 1_455
Co16 Si6 2.536914 1_455
Co16 Pr0 3.309623 1_445
Co16 Pr1 3.309623 1_555
Co17 Si7 2.312990 1_565
Co17 Si3 2.322715 1_455
Co17 Si5 2.384396 1_455
Co17 Si0 2.384396 1_555
Co17 Co9 2.526446 1_455
Co17 Co2 2.550938 1_555
Co17 Pr0 3.138495 1_455
Co17 Pr1 3.138495 1_566
