# generated using pymatgen
data_Ba2CrN3
_symmetry_space_group_name_H-M   'P 1'
_cell_length_a   6.54018626
_cell_length_b   6.54018626
_cell_length_c   12.94653600
_cell_angle_alpha   90.00000000
_cell_angle_beta   90.00000000
_cell_angle_gamma   126.88081277
_symmetry_Int_Tables_number   1
_chemical_formula_structural   Ba2CrN3
_chemical_formula_sum   'Ba8 Cr4 N12'
_cell_volume   442.95717483
_cell_formula_units_Z   4
loop_
 _symmetry_equiv_pos_site_id
 _symmetry_equiv_pos_as_xyz
  1  'x, y, z'
loop_
 _atom_site_type_symbol
 _atom_site_label
 _atom_site_symmetry_multiplicity
 _atom_site_fract_x
 _atom_site_fract_y
 _atom_site_fract_z
 _atom_site_occupancy
  Ba  Ba0  1  0.56087900  0.43912100  0.64069600  1
  Ba  Ba1  1  0.43912100  0.56087900  0.35930400  1
  Ba  Ba2  1  0.93912100  0.06087900  0.14069600  1
  Ba  Ba3  1  0.06087900  0.93912100  0.85930400  1
  Ba  Ba4  1  0.85675500  0.14324500  0.58183300  1
  Ba  Ba5  1  0.14324500  0.85675500  0.41816700  1
  Ba  Ba6  1  0.64324500  0.35675500  0.08183300  1
  Ba  Ba7  1  0.35675500  0.64324500  0.91816700  1
  Cr  Cr0  1  0.74030000  0.25970000  0.83198900  1
  Cr  Cr1  1  0.25970000  0.74030000  0.16801100  1
  Cr  Cr2  1  0.75970000  0.24030000  0.33198900  1
  Cr  Cr3  1  0.24030000  0.75970000  0.66801100  1
  N  N0  1  0.83196300  0.16803700  0.94064100  1
  N  N1  1  0.16803700  0.83196300  0.05935900  1
  N  N2  1  0.66803700  0.33196300  0.44064100  1
  N  N3  1  0.33196300  0.66803700  0.55935900  1
  N  N4  1  0.59592000  0.40408000  0.86747200  1
  N  N5  1  0.40408000  0.59592000  0.13252800  1
  N  N6  1  0.90408000  0.09592000  0.36747200  1
  N  N7  1  0.09592000  0.90408000  0.63252800  1
  N  N8  1  0.51693500  0.98306500  0.75000000  1
  N  N9  1  0.98306500  0.51693500  0.25000000  1
  N  N10  1  0.48306500  0.01693500  0.25000000  1
  N  N11  1  0.01693500  0.48306500  0.75000000  1
loop_
_geom_bond_atom_site_label_1
_geom_bond_atom_site_label_2
_geom_bond_distance
_geom_bond_site_symmetry_2
Ba0 N2 2.877514 1_555
Ba0 N3 2.877891 1_555
Ba0 N7 2.954795 1_655
Ba0 N7 2.954795 1_545
Ba0 N4 2.964450 1_555
Ba0 N11 3.154780 1_655
Ba0 N8 3.154780 1_545
Ba1 N3 2.877514 1_555
Ba1 N2 2.877891 1_555
Ba1 N6 2.954795 1_565
Ba1 N6 2.954795 1_455
Ba1 N5 2.964450 1_555
Ba1 N10 3.154780 1_565
Ba1 N9 3.154780 1_455
Ba2 N0 2.877514 1_554
Ba2 N1 2.877891 1_645
Ba2 N5 2.954795 1_655
Ba2 N5 2.954795 1_545
Ba2 N6 2.964450 1_555
Ba2 N10 3.154780 1_555
Ba2 N9 3.154780 1_555
Ba3 N1 2.877514 1_556
Ba3 N0 2.877891 1_465
Ba3 N4 2.954795 1_565
Ba3 N4 2.954795 1_455
Ba3 N7 2.964450 1_555
Ba3 N11 3.154780 1_555
Ba3 N8 3.154780 1_555
Ba4 N8 2.825310 1_545
Ba4 N11 2.825310 1_655
Ba4 N6 2.829930 1_555
Ba4 N2 2.866471 1_555
Ba4 N7 2.874170 1_645
Ba4 N3 2.953023 1_655
Ba4 N3 2.953023 1_545
Ba5 N10 2.825310 1_565
Ba5 N9 2.825310 1_455
Ba5 N7 2.829930 1_555
Ba5 N3 2.866471 1_555
Ba5 N6 2.874170 1_465
Ba5 N2 2.953023 1_565
Ba5 N2 2.953023 1_455
Ba6 N10 2.825310 1_555
Ba6 N9 2.825310 1_555
Ba6 N4 2.829930 1_554
Ba6 N0 2.866471 1_554
Ba6 N5 2.874170 1_555
Ba6 N1 2.953023 1_545
Ba6 N1 2.953023 1_655
Ba7 N8 2.825310 1_555
Ba7 N11 2.825310 1_555
Ba7 N5 2.829930 1_556
Ba7 N1 2.866471 1_556
Ba7 N4 2.874170 1_555
Ba7 N0 2.953023 1_455
Ba7 N0 2.953023 1_565
Cr0 N4 1.750595 1_555
Cr0 N0 1.768863 1_555
Cr0 N11 1.833501 1_655
Cr0 N8 1.833501 1_545
Cr1 N5 1.750595 1_555
Cr1 N1 1.768863 1_555
Cr1 N9 1.833501 1_455
Cr1 N10 1.833501 1_565
Cr2 N6 1.750595 1_555
Cr2 N2 1.768863 1_555
Cr2 N9 1.833501 1_555
Cr2 N10 1.833501 1_555
Cr3 N7 1.750595 1_555
Cr3 N3 1.768863 1_555
Cr3 N8 1.833501 1_555
Cr3 N11 1.833501 1_555
