# generated using pymatgen
data_MgBO3
_symmetry_space_group_name_H-M   'P 1'
_cell_length_a   3.22044161
_cell_length_b   10.43426800
_cell_length_c   12.48454368
_cell_angle_alpha   90.00000000
_cell_angle_beta   95.09562198
_cell_angle_gamma   90.00000000
_symmetry_Int_Tables_number   1
_chemical_formula_structural   MgBO3
_chemical_formula_sum   'Mg8 B8 O24'
_cell_volume   417.85951393
_cell_formula_units_Z   8
loop_
 _symmetry_equiv_pos_site_id
 _symmetry_equiv_pos_as_xyz
  1  'x, y, z'
loop_
 _atom_site_type_symbol
 _atom_site_label
 _atom_site_symmetry_multiplicity
 _atom_site_fract_x
 _atom_site_fract_y
 _atom_site_fract_z
 _atom_site_occupancy
  Mg  Mg0  1  0.75827400  0.63071500  0.99355700  1
  Mg  Mg1  1  0.24172600  0.13071500  0.50644300  1
  Mg  Mg2  1  0.24172600  0.36928500  0.00644300  1
  Mg  Mg3  1  0.75827400  0.86928500  0.49355700  1
  Mg  Mg4  1  0.28914400  0.91753300  0.09513500  1
  Mg  Mg5  1  0.71085600  0.41753300  0.40486500  1
  Mg  Mg6  1  0.71085600  0.08246700  0.90486500  1
  Mg  Mg7  1  0.28914400  0.58246700  0.59513500  1
  B  B0  1  0.24274500  0.66967500  0.35749100  1
  B  B1  1  0.75725500  0.16967500  0.14250900  1
  B  B2  1  0.75725500  0.33032500  0.64250900  1
  B  B3  1  0.24274500  0.83032500  0.85749100  1
  B  B4  1  0.37875100  0.54639300  0.19016600  1
  B  B5  1  0.62124900  0.04639300  0.30983400  1
  B  B6  1  0.62124900  0.45360700  0.80983400  1
  B  B7  1  0.37875100  0.95360700  0.69016600  1
  O  O0  1  0.21421800  0.56482200  0.42376200  1
  O  O1  1  0.78578200  0.06482200  0.07623800  1
  O  O2  1  0.78578200  0.43517800  0.57623800  1
  O  O3  1  0.21421800  0.93517800  0.92376200  1
  O  O4  1  0.23328800  0.79140000  0.40069600  1
  O  O5  1  0.76671200  0.29140000  0.09930400  1
  O  O6  1  0.76671200  0.20860000  0.59930400  1
  O  O7  1  0.23328800  0.70860000  0.90069600  1
  O  O8  1  0.28583300  0.65634700  0.24905500  1
  O  O9  1  0.71416700  0.15634700  0.25094500  1
  O  O10  1  0.71416700  0.34365300  0.75094500  1
  O  O11  1  0.28583300  0.84365300  0.74905500  1
  O  O12  1  0.39647000  0.95203100  0.25579900  1
  O  O13  1  0.60353000  0.45203100  0.24420100  1
  O  O14  1  0.60353000  0.04796900  0.74420100  1
  O  O15  1  0.39647000  0.54796900  0.75579900  1
  O  O16  1  0.27828000  0.54631500  0.08174400  1
  O  O17  1  0.72172000  0.04631500  0.41825600  1
  O  O18  1  0.72172000  0.45368500  0.91825600  1
  O  O19  1  0.27828000  0.95368500  0.58174400  1
  O  O20  1  0.78687700  0.79922400  0.07662300  1
  O  O21  1  0.21312300  0.29922400  0.42337700  1
  O  O22  1  0.21312300  0.20077600  0.92337700  1
  O  O23  1  0.78687700  0.70077600  0.57662300  1
loop_
_geom_bond_atom_site_label_1
_geom_bond_atom_site_label_2
_geom_bond_distance
_geom_bond_site_symmetry_2
Mg0 O20 2.039234 1_556
Mg0 O18 2.071244 1_555
Mg0 O16 2.112966 1_656
Mg0 O7 2.124787 1_555
Mg0 O7 2.158625 1_655
Mg0 O16 2.163211 1_556
Mg1 O21 2.039234 1_555
Mg1 O19 2.071244 1_545
Mg1 O17 2.112966 1_455
Mg1 O6 2.124787 1_555
Mg1 O6 2.158625 1_455
Mg1 O17 2.163211 1_555
Mg2 O22 2.039234 1_554
Mg2 O16 2.071244 1_555
Mg2 O18 2.112966 1_454
Mg2 O5 2.124787 1_555
Mg2 O5 2.158625 1_455
Mg2 O18 2.163211 1_554
Mg3 O23 2.039234 1_555
Mg3 O17 2.071244 1_565
Mg3 O19 2.112966 1_655
Mg3 O4 2.124787 1_555
Mg3 O4 2.158625 1_655
Mg3 O19 2.163211 1_555
Mg4 O20 2.031574 1_455
Mg4 O12 2.036955 1_555
Mg4 O20 2.052434 1_555
Mg4 O3 2.139611 1_554
Mg4 O1 2.231017 1_465
Mg4 O1 2.245587 1_565
Mg5 O21 2.031574 1_655
Mg5 O13 2.036955 1_555
Mg5 O21 2.052434 1_555
Mg5 O2 2.139611 1_555
Mg5 O0 2.231017 1_655
Mg5 O0 2.245587 1_555
Mg6 O22 2.031574 1_655
Mg6 O14 2.036955 1_555
Mg6 O22 2.052434 1_555
Mg6 O1 2.139611 1_556
Mg6 O3 2.231017 1_645
Mg6 O3 2.245587 1_545
Mg7 O23 2.031574 1_455
Mg7 O15 2.036955 1_555
Mg7 O23 2.052434 1_555
Mg7 O0 2.139611 1_555
Mg7 O2 2.231017 1_455
Mg7 O2 2.245587 1_555
B0 O0 1.379655 1_555
B0 O8 1.380097 1_555
B0 O4 1.381295 1_555
B1 O1 1.379655 1_555
B1 O9 1.380097 1_555
B1 O5 1.381295 1_555
B2 O2 1.379655 1_555
B2 O10 1.380097 1_555
B2 O6 1.381295 1_555
B3 O3 1.379655 1_555
B3 O11 1.380097 1_555
B3 O7 1.381295 1_555
B4 O16 1.363497 1_555
B4 O13 1.364474 1_555
B4 O8 1.409049 1_555
B5 O17 1.363497 1_555
B5 O12 1.364474 1_545
B5 O9 1.409049 1_555
B6 O18 1.363497 1_555
B6 O15 1.364474 1_555
B6 O10 1.409049 1_555
B7 O19 1.363497 1_555
B7 O14 1.364474 1_565
B7 O11 1.409049 1_555
