# generated using pymatgen
data_Ag6Ge2O7
_symmetry_space_group_name_H-M   'P 1'
_cell_length_a   10.21137900
_cell_length_b   5.53357900
_cell_length_c   16.33759294
_cell_angle_alpha   89.78790376
_cell_angle_beta   90.00000000
_cell_angle_gamma   90.00000000
_symmetry_Int_Tables_number   1
_chemical_formula_structural   Ag6Ge2O7
_chemical_formula_sum   'Ag24 Ge8 O28'
_cell_volume   923.15708166
_cell_formula_units_Z   4
loop_
 _symmetry_equiv_pos_site_id
 _symmetry_equiv_pos_as_xyz
  1  'x, y, z'
loop_
 _atom_site_type_symbol
 _atom_site_label
 _atom_site_symmetry_multiplicity
 _atom_site_fract_x
 _atom_site_fract_y
 _atom_site_fract_z
 _atom_site_occupancy
  Ag  Ag0  1  0.98513400  0.82689700  0.92840100  1
  Ag  Ag1  1  0.48513400  0.17310300  0.07159900  1
  Ag  Ag2  1  0.01120800  0.71906600  0.42199000  1
  Ag  Ag3  1  0.51120800  0.28093400  0.57801000  1
  Ag  Ag4  1  0.84058500  0.71589500  0.57256700  1
  Ag  Ag5  1  0.34058500  0.28410500  0.42743300  1
  Ag  Ag6  1  0.00905800  0.31589900  0.82540100  1
  Ag  Ag7  1  0.50905800  0.68410100  0.17459900  1
  Ag  Ag8  1  0.99911200  0.27621900  0.32503100  1
  Ag  Ag9  1  0.49911200  0.72378100  0.67496900  1
  Ag  Ag10  1  0.78420900  0.30350600  0.45211900  1
  Ag  Ag11  1  0.28420900  0.69649400  0.54788100  1
  Ag  Ag12  1  0.24156800  0.68520500  0.00835200  1
  Ag  Ag13  1  0.74156800  0.31479500  0.99164800  1
  Ag  Ag14  1  0.29374600  0.25677800  0.91081900  1
  Ag  Ag15  1  0.79374600  0.74322200  0.08918100  1
  Ag  Ag16  1  0.51298700  0.29132000  0.80593800  1
  Ag  Ag17  1  0.01298700  0.70868000  0.19406200  1
  Ag  Ag18  1  0.54087300  0.27721700  0.29490300  1
  Ag  Ag19  1  0.04087300  0.72278300  0.70509700  1
  Ag  Ag20  1  0.80400500  0.27860700  0.65681300  1
  Ag  Ag21  1  0.30400500  0.72139300  0.34318700  1
  Ag  Ag22  1  0.79663800  0.30564100  0.19077100  1
  Ag  Ag23  1  0.29663800  0.69435900  0.80922900  1
  Ge  Ge0  1  0.56792700  0.76435500  0.46928900  1
  Ge  Ge1  1  0.06792700  0.23564500  0.53071100  1
  Ge  Ge2  1  0.25234000  0.22745000  0.69491300  1
  Ge  Ge3  1  0.75234000  0.77255000  0.30508700  1
  Ge  Ge4  1  0.26555500  0.28415400  0.20427800  1
  Ge  Ge5  1  0.04790800  0.24273900  0.06703800  1
  Ge  Ge6  1  0.54790800  0.75726100  0.93296200  1
  Ge  Ge7  1  0.76555500  0.71584600  0.79572200  1
  O  O0  1  0.74038900  0.44835600  0.31163900  1
  O  O1  1  0.24038900  0.55164400  0.68836100  1
  O  O2  1  0.92047400  0.86347900  0.30948400  1
  O  O3  1  0.42047400  0.13652100  0.69051600  1
  O  O4  1  0.67835000  0.89316600  0.21637600  1
  O  O5  1  0.17835000  0.10683400  0.78362400  1
  O  O6  1  0.17488800  0.09877200  0.60658100  1
  O  O7  1  0.67488800  0.90122800  0.39341900  1
  O  O8  1  0.06435600  0.55813200  0.54062300  1
  O  O9  1  0.56435600  0.44186800  0.45937700  1
  O  O10  1  0.90752900  0.12320300  0.55022200  1
  O  O11  1  0.40752900  0.87679700  0.44977800  1
  O  O12  1  0.12782500  0.13511400  0.43566700  1
  O  O13  1  0.62782500  0.86488600  0.56433300  1
  O  O14  1  0.85845300  0.55914800  0.87389500  1
  O  O15  1  0.35845300  0.44085200  0.12610500  1
  O  O16  1  0.68093400  0.50442400  0.73314600  1
  O  O17  1  0.18093400  0.49557600  0.26685400  1
  O  O18  1  0.86407100  0.91900600  0.73973000  1
  O  O19  1  0.36407100  0.08099400  0.26027000  1
  O  O20  1  0.63848100  0.88707300  0.84804700  1
  O  O21  1  0.13848100  0.11292700  0.15195300  1
  O  O22  1  0.88046400  0.15181600  0.08018500  1
  O  O23  1  0.38046400  0.84818400  0.91981500  1
  O  O24  1  0.55810000  0.43724100  0.93124500  1
  O  O25  1  0.10530900  0.11663600  0.97486700  1
  O  O26  1  0.60530900  0.88336400  0.02513300  1
  O  O27  1  0.05810000  0.56275900  0.06875500  1
loop_
_geom_bond_atom_site_label_1
_geom_bond_atom_site_label_2
_geom_bond_distance
_geom_bond_site_symmetry_2
Ag0 O25 2.159111 1_665
Ag0 O14 2.161317 1_555
Ag1 O26 2.159111 1_545
Ag1 O15 2.161317 1_555
Ag2 O8 2.198035 1_555
Ag2 O2 2.205603 1_455
Ag2 O12 2.602321 1_565
Ag3 O9 2.198035 1_555
Ag3 O3 2.205603 1_555
Ag3 O13 2.602321 1_545
Ag4 O13 2.327461 1_555
Ag4 O10 2.382102 1_565
Ag4 O8 2.501826 1_655
Ag5 O12 2.327461 1_555
Ag5 O11 2.382102 1_545
Ag5 O9 2.501826 1_555
Ag6 O5 2.190545 1_555
Ag6 O14 2.193742 1_455
Ag7 O4 2.190545 1_555
Ag7 O15 2.193742 1_555
Ag8 O12 2.365134 1_655
Ag8 O17 2.411514 1_655
Ag8 O2 2.435150 1_545
Ag9 O13 2.365134 1_555
Ag9 O16 2.411514 1_555
Ag9 O3 2.435150 1_565
Ag10 O10 2.266765 1_555
Ag10 O9 2.375072 1_555
Ag10 O0 2.469124 1_555
Ag10 O7 2.671502 1_545
Ag11 O11 2.266765 1_555
Ag11 O8 2.375072 1_555
Ag11 O1 2.469124 1_555
Ag11 O6 2.671502 1_565
Ag12 O23 2.215317 1_554
Ag12 O27 2.222128 1_555
Ag12 O15 2.633368 1_555
Ag13 O22 2.215317 1_556
Ag13 O24 2.222128 1_555
Ag13 O14 2.633368 1_555
Ag14 O25 2.322252 1_555
Ag14 O23 2.432146 1_545
Ag14 O5 2.531415 1_555
Ag15 O26 2.322252 1_555
Ag15 O22 2.432146 1_565
Ag15 O4 2.531415 1_555
Ag16 O24 2.251120 1_555
Ag16 O3 2.279050 1_555
Ag16 O16 2.394917 1_555
Ag16 O20 2.666068 1_545
Ag17 O27 2.251120 1_555
Ag17 O2 2.279050 1_455
Ag17 O17 2.394917 1_555
Ag17 O21 2.666068 1_565
Ag18 O19 2.182461 1_555
Ag18 O0 2.263678 1_555
Ag19 O18 2.182461 1_455
Ag19 O1 2.263678 1_555
Ag20 O16 2.169697 1_555
Ag20 O10 2.213754 1_555
Ag20 O18 2.480119 1_545
Ag21 O17 2.169697 1_555
Ag21 O11 2.213754 1_555
Ag21 O19 2.480119 1_565
Ag22 O22 2.175507 1_555
Ag22 O0 2.205568 1_555
Ag22 O4 2.614679 1_545
Ag23 O23 2.175507 1_555
Ag23 O1 2.205568 1_555
Ag23 O5 2.614679 1_565
Ge0 O13 1.761001 1_555
Ge0 O11 1.780435 1_555
Ge0 O9 1.792808 1_555
Ge0 O7 1.815513 1_555
Ge1 O12 1.761001 1_555
Ge1 O10 1.780435 1_455
Ge1 O8 1.792808 1_555
Ge1 O6 1.815513 1_555
Ge2 O5 1.763432 1_555
Ge2 O3 1.790608 1_555
Ge2 O6 1.795206 1_555
Ge2 O1 1.800888 1_555
Ge3 O4 1.763432 1_555
Ge3 O2 1.790608 1_555
Ge3 O7 1.795206 1_555
Ge3 O0 1.800888 1_555
Ge4 O19 1.762110 1_555
Ge4 O17 1.780285 1_555
Ge4 O15 1.809606 1_555
Ge4 O21 1.821623 1_555
Ge5 O25 1.762345 1_554
Ge5 O27 1.774237 1_555
Ge5 O22 1.794995 1_455
Ge5 O21 1.813457 1_555
Ge6 O26 1.762345 1_556
Ge6 O24 1.774237 1_555
Ge6 O23 1.794995 1_555
Ge6 O20 1.813457 1_555
Ge7 O18 1.762110 1_555
Ge7 O16 1.780285 1_555
Ge7 O14 1.809606 1_555
Ge7 O20 1.821623 1_555
