# generated using pymatgen
data_K4Ga8P8O32F
_symmetry_space_group_name_H-M   'P 1'
_cell_length_a   13.49119000
_cell_length_b   13.49119000
_cell_length_c   8.83107200
_cell_angle_alpha   90.00000000
_cell_angle_beta   90.00000000
_cell_angle_gamma   90.00000000
_symmetry_Int_Tables_number   1
_chemical_formula_structural   K4Ga8P8O32F
_chemical_formula_sum   'K8 Ga16 P16 O64 F2'
_cell_volume   1607.36291034
_cell_formula_units_Z   2
loop_
 _symmetry_equiv_pos_site_id
 _symmetry_equiv_pos_as_xyz
  1  'x, y, z'
loop_
 _atom_site_type_symbol
 _atom_site_label
 _atom_site_symmetry_multiplicity
 _atom_site_fract_x
 _atom_site_fract_y
 _atom_site_fract_z
 _atom_site_occupancy
  K  K0  1  0.33276200  0.74545400  0.99362300  1
  K  K1  1  0.66723800  0.25454600  0.99362300  1
  K  K2  1  0.75454600  0.83276200  0.49362300  1
  K  K3  1  0.24545400  0.16723800  0.49362300  1
  K  K4  1  0.16723800  0.75454600  0.50637700  1
  K  K5  1  0.83276200  0.24545400  0.50637700  1
  K  K6  1  0.74545400  0.66723800  0.00637700  1
  K  K7  1  0.25454600  0.33276200  0.00637700  1
  Ga  Ga0  1  0.11870500  0.56764000  0.15964400  1
  Ga  Ga1  1  0.88129500  0.43236000  0.15964400  1
  Ga  Ga2  1  0.93236000  0.61870500  0.65964400  1
  Ga  Ga3  1  0.06764000  0.38129500  0.65964400  1
  Ga  Ga4  1  0.38129500  0.93236000  0.34035600  1
  Ga  Ga5  1  0.61870500  0.06764000  0.34035600  1
  Ga  Ga6  1  0.56764000  0.88129500  0.84035600  1
  Ga  Ga7  1  0.43236000  0.11870500  0.84035600  1
  Ga  Ga8  1  0.05699100  0.13518900  0.15456700  1
  Ga  Ga9  1  0.94300900  0.86481100  0.15456700  1
  Ga  Ga10  1  0.36481100  0.55699100  0.65456700  1
  Ga  Ga11  1  0.63518900  0.44300900  0.65456700  1
  Ga  Ga12  1  0.44300900  0.36481100  0.34543300  1
  Ga  Ga13  1  0.55699100  0.63518900  0.34543300  1
  Ga  Ga14  1  0.13518900  0.94300900  0.84543300  1
  Ga  Ga15  1  0.86481100  0.05699100  0.84543300  1
  P  P0  1  0.07338000  0.35596800  0.30330900  1
  P  P1  1  0.92662000  0.64403200  0.30330900  1
  P  P2  1  0.14403200  0.57338000  0.80330900  1
  P  P3  1  0.85596800  0.42662000  0.80330900  1
  P  P4  1  0.42662000  0.14403200  0.19669100  1
  P  P5  1  0.57338000  0.85596800  0.19669100  1
  P  P6  1  0.35596800  0.92662000  0.69669100  1
  P  P7  1  0.64403200  0.07338000  0.69669100  1
  P  P8  1  0.83517300  0.06895500  0.20329700  1
  P  P9  1  0.16482700  0.93104500  0.20329700  1
  P  P10  1  0.43104500  0.33517300  0.70329700  1
  P  P11  1  0.56895500  0.66482700  0.70329700  1
  P  P12  1  0.66482700  0.43104500  0.29670300  1
  P  P13  1  0.33517300  0.56895500  0.29670300  1
  P  P14  1  0.06895500  0.16482700  0.79670300  1
  P  P15  1  0.93104500  0.83517300  0.79670300  1
  O  O0  1  0.11317000  0.42635300  0.17595800  1
  O  O1  1  0.88683000  0.57364700  0.17595800  1
  O  O2  1  0.07364700  0.61317000  0.67595800  1
  O  O3  1  0.92635300  0.38683000  0.67595800  1
  O  O4  1  0.38683000  0.07364700  0.32404200  1
  O  O5  1  0.61317000  0.92635300  0.32404200  1
  O  O6  1  0.42635300  0.88683000  0.82404200  1
  O  O7  1  0.57364700  0.11317000  0.82404200  1
  O  O8  1  0.11359500  0.39369200  0.45794000  1
  O  O9  1  0.88640500  0.60630800  0.45794000  1
  O  O10  1  0.10630800  0.61359500  0.95794000  1
  O  O11  1  0.89369200  0.38640500  0.95794000  1
  O  O12  1  0.38640500  0.10630800  0.04206000  1
  O  O13  1  0.61359500  0.89369200  0.04206000  1
  O  O14  1  0.39369200  0.88640500  0.54206000  1
  O  O15  1  0.60630800  0.11359500  0.54206000  1
  O  O16  1  0.95722100  0.35930700  0.30286300  1
  O  O17  1  0.04277900  0.64069300  0.30286300  1
  O  O18  1  0.14069300  0.45722100  0.80286300  1
  O  O19  1  0.85930700  0.54277900  0.80286300  1
  O  O20  1  0.54277900  0.14069300  0.19713700  1
  O  O21  1  0.45722100  0.85930700  0.19713700  1
  O  O22  1  0.35930700  0.04277900  0.69713700  1
  O  O23  1  0.64069300  0.95722100  0.69713700  1
  O  O24  1  0.11038000  0.24913300  0.27258200  1
  O  O25  1  0.88962000  0.75086700  0.27258200  1
  O  O26  1  0.25086700  0.61038000  0.77258200  1
  O  O27  1  0.74913300  0.38962000  0.77258200  1
  O  O28  1  0.38962000  0.25086700  0.22741800  1
  O  O29  1  0.61038000  0.74913300  0.22741800  1
  O  O30  1  0.24913300  0.88962000  0.72741800  1
  O  O31  1  0.75086700  0.11038000  0.72741800  1
  O  O32  1  0.92893500  0.12902000  0.24921600  1
  O  O33  1  0.07106500  0.87098000  0.24921600  1
  O  O34  1  0.37098000  0.42893500  0.74921600  1
  O  O35  1  0.62902000  0.57106500  0.74921600  1
  O  O36  1  0.57106500  0.37098000  0.25078400  1
  O  O37  1  0.42893500  0.62902000  0.25078400  1
  O  O38  1  0.12902000  0.07106500  0.75078400  1
  O  O39  1  0.87098000  0.92893500  0.75078400  1
  O  O40  1  0.80449000  0.09005500  0.03629300  1
  O  O41  1  0.19551000  0.90994500  0.03629300  1
  O  O42  1  0.40994500  0.30449000  0.53629300  1
  O  O43  1  0.59005500  0.69551000  0.53629300  1
  O  O44  1  0.69551000  0.40994500  0.46370700  1
  O  O45  1  0.30449000  0.59005500  0.46370700  1
  O  O46  1  0.09005500  0.19551000  0.96370700  1
  O  O47  1  0.90994500  0.80449000  0.96370700  1
  O  O48  1  0.75043500  0.11009700  0.30594000  1
  O  O49  1  0.24956500  0.88990300  0.30594000  1
  O  O50  1  0.38990300  0.25043500  0.80594000  1
  O  O51  1  0.61009700  0.74956500  0.80594000  1
  O  O52  1  0.74956500  0.38990300  0.19406000  1
  O  O53  1  0.25043500  0.61009700  0.19406000  1
  O  O54  1  0.11009700  0.24956500  0.69406000  1
  O  O55  1  0.88990300  0.75043500  0.69406000  1
  O  O56  1  0.84797900  0.95637400  0.23636800  1
  O  O57  1  0.15202100  0.04362600  0.23636800  1
  O  O58  1  0.54362600  0.34797900  0.73636800  1
  O  O59  1  0.45637400  0.65202100  0.73636800  1
  O  O60  1  0.65202100  0.54362600  0.26363200  1
  O  O61  1  0.34797900  0.45637400  0.26363200  1
  O  O62  1  0.95637400  0.15202100  0.76363200  1
  O  O63  1  0.04362600  0.84797900  0.76363200  1
  F  F0  1  0.00000000  0.00000000  0.00000000  1
  F  F1  1  0.50000000  0.50000000  0.50000000  1
loop_
_geom_bond_atom_site_label_1
_geom_bond_atom_site_label_2
_geom_bond_distance
_geom_bond_site_symmetry_2
K0 O6 2.734037 1_555
K0 O53 2.775163 1_556
K0 O26 2.889973 1_555
K0 O21 2.899794 1_556
K0 O41 2.914707 1_556
K0 O37 3.050978 1_556
K0 O59 3.087280 1_555
K0 O30 3.253073 1_555
K1 O7 2.734037 1_555
K1 O52 2.775163 1_556
K1 O27 2.889973 1_555
K1 O20 2.899794 1_556
K1 O40 2.914707 1_556
K1 O36 3.050978 1_556
K1 O58 3.087280 1_555
K1 O31 3.253073 1_555
K2 O5 2.734037 1_555
K2 O55 2.775163 1_555
K2 O25 2.889973 1_555
K2 O23 2.899794 1_555
K2 O43 2.914707 1_555
K2 O39 3.050978 1_555
K2 O56 3.087280 1_555
K2 O29 3.253073 1_555
K3 O4 2.734037 1_555
K3 O54 2.775163 1_555
K3 O24 2.889973 1_555
K3 O22 2.899794 1_555
K3 O42 2.914707 1_555
K3 O38 3.050978 1_555
K3 O57 3.087280 1_555
K3 O28 3.253073 1_555
K4 O2 2.734037 1_555
K4 O49 2.775163 1_555
K4 O30 2.889973 1_555
K4 O17 2.899794 1_555
K4 O45 2.914707 1_555
K4 O33 3.050978 1_555
K4 O63 3.087280 1_555
K4 O26 3.253073 1_555
K5 O3 2.734037 1_555
K5 O48 2.775163 1_555
K5 O31 2.889973 1_555
K5 O16 2.899794 1_555
K5 O44 2.914707 1_555
K5 O32 3.050978 1_555
K5 O62 3.087280 1_555
K5 O27 3.253073 1_555
K6 O1 2.734037 1_555
K6 O51 2.775163 1_554
K6 O29 2.889973 1_555
K6 O19 2.899794 1_554
K6 O47 2.914707 1_554
K6 O35 3.050978 1_554
K6 O60 3.087280 1_555
K6 O25 3.253073 1_555
K7 O0 2.734037 1_555
K7 O50 2.775163 1_554
K7 O28 2.889973 1_555
K7 O18 2.899794 1_554
K7 O46 2.914707 1_554
K7 O34 3.050978 1_554
K7 O61 3.087280 1_555
K7 O24 3.253073 1_555
Ga0 O53 1.891795 1_555
Ga0 O10 1.893477 1_554
Ga0 O17 1.902701 1_555
Ga0 O0 1.913025 1_555
Ga1 O52 1.891795 1_555
Ga1 O11 1.893477 1_554
Ga1 O16 1.902701 1_555
Ga1 O1 1.913025 1_555
Ga2 O55 1.891795 1_555
Ga2 O9 1.893477 1_555
Ga2 O19 1.902701 1_555
Ga2 O2 1.913025 1_655
Ga3 O54 1.891795 1_555
Ga3 O8 1.893477 1_555
Ga3 O18 1.902701 1_555
Ga3 O3 1.913025 1_455
Ga4 O49 1.891795 1_555
Ga4 O14 1.893477 1_555
Ga4 O21 1.902701 1_555
Ga4 O4 1.913025 1_565
Ga5 O48 1.891795 1_555
Ga5 O15 1.893477 1_555
Ga5 O20 1.902701 1_555
Ga5 O5 1.913025 1_545
Ga6 O51 1.891795 1_555
Ga6 O13 1.893477 1_556
Ga6 O23 1.902701 1_555
Ga6 O6 1.913025 1_555
Ga7 O50 1.891795 1_555
Ga7 O12 1.893477 1_556
Ga7 O22 1.902701 1_555
Ga7 O7 1.913025 1_555
Ga8 O32 1.921008 1_455
Ga8 O57 1.921327 1_555
Ga8 O46 1.924100 1_554
Ga8 O24 1.992007 1_555
Ga9 O33 1.921008 1_655
Ga9 O56 1.921327 1_555
Ga9 O47 1.924100 1_554
Ga9 O25 1.992007 1_555
Ga10 O34 1.921008 1_555
Ga10 O59 1.921327 1_555
Ga10 O45 1.924100 1_555
Ga10 O26 1.992007 1_555
Ga11 O35 1.921008 1_555
Ga11 O58 1.921327 1_555
Ga11 O44 1.924100 1_555
Ga11 O27 1.992007 1_555
Ga12 O36 1.921008 1_555
Ga12 O61 1.921327 1_555
Ga12 O42 1.924100 1_555
Ga12 O28 1.992007 1_555
Ga13 O37 1.921008 1_555
Ga13 O60 1.921327 1_555
Ga13 O43 1.924100 1_555
Ga13 O29 1.992007 1_555
Ga14 O38 1.921008 1_565
Ga14 O63 1.921327 1_555
Ga14 O41 1.924100 1_556
Ga14 O30 1.992007 1_555
Ga15 O39 1.921008 1_545
Ga15 O62 1.921327 1_555
Ga15 O40 1.924100 1_556
Ga15 O31 1.992007 1_555
O0 P0 1.566747 1_555
O1 P1 1.566747 1_555
O2 P2 1.566747 1_555
O3 P3 1.566747 1_555
O4 P4 1.566747 1_555
O5 P5 1.566747 1_555
O6 P6 1.566747 1_555
O7 P7 1.566747 1_555
O8 P0 1.555033 1_555
O9 P1 1.555033 1_555
O10 P2 1.555033 1_555
O11 P3 1.555033 1_555
O12 P4 1.555033 1_555
O13 P5 1.555033 1_555
O14 P6 1.555033 1_555
O15 P7 1.555033 1_555
O16 P0 1.567775 1_655
O17 P1 1.567775 1_455
O18 P2 1.567775 1_555
O19 P3 1.567775 1_555
O20 P4 1.567775 1_555
O21 P5 1.567775 1_555
O22 P6 1.567775 1_545
O23 P7 1.567775 1_565
O24 P0 1.549272 1_555
O25 P1 1.549272 1_555
O26 P2 1.549272 1_555
O27 P3 1.549272 1_555
O28 P4 1.549272 1_555
O29 P5 1.549272 1_555
O30 P6 1.549272 1_555
O31 P7 1.549272 1_555
O32 P8 1.556031 1_555
O33 P9 1.556031 1_555
O34 P10 1.556031 1_555
O35 P11 1.556031 1_555
O36 P12 1.556031 1_555
O37 P13 1.556031 1_555
O38 P14 1.556031 1_555
O39 P15 1.556031 1_555
O40 P8 1.558042 1_555
O41 P9 1.558042 1_555
O42 P10 1.558042 1_555
O43 P11 1.558042 1_555
O44 P12 1.558042 1_555
O45 P13 1.558042 1_555
O46 P14 1.558042 1_555
O47 P15 1.558042 1_555
O48 P8 1.560986 1_555
O49 P9 1.560986 1_555
O50 P10 1.560986 1_555
O51 P11 1.560986 1_555
O52 P12 1.560986 1_555
O53 P13 1.560986 1_555
O54 P14 1.560986 1_555
O55 P15 1.560986 1_555
O56 P8 1.556295 1_565
O57 P9 1.556295 1_545
O58 P10 1.556295 1_555
O59 P11 1.556295 1_555
O60 P12 1.556295 1_555
O61 P13 1.556295 1_555
O62 P14 1.556295 1_655
O63 P15 1.556295 1_455
F0 Ga8 2.404338 1_555
F0 Ga9 2.404338 1_445
F0 Ga15 2.404338 1_454
F0 Ga14 2.404338 1_544
F1 Ga11 2.404338 1_555
F1 Ga12 2.404338 1_555
F1 Ga10 2.404338 1_555
F1 Ga13 2.404338 1_555
