# generated using pymatgen
data_DyAsPd
_symmetry_space_group_name_H-M   'P 1'
_cell_length_a   4.11570358
_cell_length_b   7.05920633
_cell_length_c   7.90277264
_cell_angle_alpha   90.00000000
_cell_angle_beta   90.00000000
_cell_angle_gamma   90.00000000
_symmetry_Int_Tables_number   1
_chemical_formula_structural   DyAsPd
_chemical_formula_sum   'Dy4 As4 Pd4'
_cell_volume   229.60400121
_cell_formula_units_Z   4
loop_
 _symmetry_equiv_pos_site_id
 _symmetry_equiv_pos_as_xyz
  1  'x, y, z'
loop_
 _atom_site_type_symbol
 _atom_site_label
 _atom_site_symmetry_multiplicity
 _atom_site_fract_x
 _atom_site_fract_y
 _atom_site_fract_z
 _atom_site_occupancy
  Dy  Dy0  1  0.75000000  0.96891718  0.19302707  1
  Dy  Dy1  1  0.75000000  0.46891718  0.30697293  1
  Dy  Dy2  1  0.25000000  0.03108282  0.80697293  1
  Dy  Dy3  1  0.25000000  0.53108282  0.69302707  1
  As  As0  1  0.75000000  0.25291510  0.61947760  1
  As  As1  1  0.75000000  0.75291510  0.88052240  1
  As  As2  1  0.25000000  0.74708490  0.38052240  1
  As  As3  1  0.25000000  0.24708490  0.11947760  1
  Pd  Pd0  1  0.75000000  0.85625399  0.56315971  1
  Pd  Pd1  1  0.75000000  0.35625399  0.93684029  1
  Pd  Pd2  1  0.25000000  0.14374601  0.43684029  1
  Pd  Pd3  1  0.25000000  0.64374601  0.06315971  1
loop_
_geom_bond_atom_site_label_1
_geom_bond_atom_site_label_2
_geom_bond_distance
_geom_bond_site_symmetry_2
Dy0 Pd0 3.031267 1_555
Dy0 Pd2 3.077409 1_665
Dy0 Pd2 3.077409 1_565
Dy0 Pd3 3.249179 1_555
Dy0 Pd3 3.249179 1_655
Dy0 Pd1 3.402248 1_564
Dy1 Pd1 3.031267 1_554
Dy1 Pd3 3.077409 1_655
Dy1 Pd3 3.077409 1_555
Dy1 Pd2 3.249179 1_555
Dy1 Pd2 3.249179 1_655
Dy1 Pd0 3.402248 1_555
Dy2 Pd2 3.031267 1_555
Dy2 Pd0 3.077409 1_445
Dy2 Pd0 3.077409 1_545
Dy2 Pd1 3.249179 1_455
Dy2 Pd1 3.249179 1_555
Dy2 Pd3 3.402248 1_546
Dy3 Pd3 3.031267 1_556
Dy3 Pd1 3.077409 1_455
Dy3 Pd1 3.077409 1_555
Dy3 Pd0 3.249179 1_455
Dy3 Pd0 3.249179 1_555
Dy3 Pd2 3.402248 1_555
As0 Pd1 2.611981 1_555
As0 Pd2 2.629046 1_655
As0 Pd2 2.629046 1_555
As0 Pd0 2.835263 1_545
As0 Dy1 2.902449 1_555
As0 Dy3 2.903187 1_655
As0 Dy3 2.903187 1_555
As0 Dy2 2.980355 1_555
As0 Dy2 2.980355 1_655
As1 Pd0 2.611981 1_555
As1 Pd3 2.629046 1_556
As1 Pd3 2.629046 1_656
As1 Pd1 2.835263 1_555
As1 Dy0 2.902449 1_556
As1 Dy2 2.903187 1_565
As1 Dy2 2.903187 1_665
As1 Dy3 2.980355 1_555
As1 Dy3 2.980355 1_655
As2 Pd3 2.611981 1_555
As2 Pd0 2.629046 1_555
As2 Pd0 2.629046 1_455
As2 Pd2 2.835263 1_565
As2 Dy3 2.902449 1_555
As2 Dy1 2.903187 1_455
As2 Dy1 2.903187 1_555
As2 Dy0 2.980355 1_455
As2 Dy0 2.980355 1_555
As3 Pd2 2.611981 1_555
As3 Pd1 2.629046 1_454
As3 Pd1 2.629046 1_554
As3 Pd3 2.835263 1_555
As3 Dy2 2.902449 1_554
As3 Dy0 2.903187 1_445
As3 Dy0 2.903187 1_545
As3 Dy1 2.980355 1_455
As3 Dy1 2.980355 1_555
Pd0 Pd2 3.057783 1_565
Pd0 Pd2 3.057783 1_665
Pd1 Pd3 3.057783 1_556
Pd1 Pd3 3.057783 1_656
