# generated using pymatgen
data_Ho2InGe2
_symmetry_space_group_name_H-M   'P 1'
_cell_length_a   4.12972731
_cell_length_b   7.36942263
_cell_length_c   7.36942263
_cell_angle_alpha   90.00000000
_cell_angle_beta   90.00000000
_cell_angle_gamma   90.00000000
_symmetry_Int_Tables_number   1
_chemical_formula_structural   Ho2InGe2
_chemical_formula_sum   'Ho4 In2 Ge4'
_cell_volume   224.27884093
_cell_formula_units_Z   2
loop_
 _symmetry_equiv_pos_site_id
 _symmetry_equiv_pos_as_xyz
  1  'x, y, z'
loop_
 _atom_site_type_symbol
 _atom_site_label
 _atom_site_symmetry_multiplicity
 _atom_site_fract_x
 _atom_site_fract_y
 _atom_site_fract_z
 _atom_site_occupancy
  Ho  Ho0  1  0.50000000  0.82057351  0.32057351  1
  Ho  Ho1  1  0.50000000  0.67942649  0.82057351  1
  Ho  Ho2  1  0.50000000  0.32057351  0.17942649  1
  Ho  Ho3  1  0.50000000  0.17942649  0.67942649  1
  In  In0  1  0.00000000  -0.00000000  0.00000000  1
  In  In1  1  0.00000000  0.50000000  0.50000000  1
  Ge  Ge0  1  -0.00000000  0.61995027  0.11995027  1
  Ge  Ge1  1  -0.00000000  0.88004973  0.61995027  1
  Ge  Ge2  1  0.00000000  0.11995027  0.38004973  1
  Ge  Ge3  1  0.00000000  0.38004973  0.88004973  1
loop_
_geom_bond_atom_site_label_1
_geom_bond_atom_site_label_2
_geom_bond_distance
_geom_bond_site_symmetry_2
Ho0 In0 3.404877 1_665
Ho0 In1 3.404877 1_555
Ho0 In0 3.404877 1_565
Ho0 In1 3.404877 1_655
Ho1 In1 3.404877 1_655
Ho1 In0 3.404877 1_566
Ho1 In1 3.404877 1_555
Ho1 In0 3.404877 1_666
Ho2 In0 3.404877 1_555
Ho2 In0 3.404877 1_655
Ho2 In1 3.404877 1_555
Ho2 In1 3.404877 1_655
Ho3 In0 3.404877 1_656
Ho3 In0 3.404877 1_556
Ho3 In1 3.404877 1_555
Ho3 In1 3.404877 1_655
Ge0 Ge3 2.500228 1_554
Ge0 In1 2.936933 1_555
Ge0 In0 2.936933 1_565
Ge0 Ho0 2.938614 1_455
Ge0 Ho0 2.938614 1_555
Ge0 Ho1 3.053398 1_454
Ge0 Ho1 3.053398 1_554
Ge0 Ho2 3.053398 1_455
Ge0 Ho2 3.053398 1_555
Ge1 Ge2 2.500228 1_565
Ge1 In0 2.936933 1_566
Ge1 In1 2.936933 1_555
Ge1 Ho1 2.938614 1_555
Ge1 Ho1 2.938614 1_455
Ge1 Ho0 3.053398 1_555
Ge1 Ho3 3.053398 1_465
Ge1 Ho0 3.053398 1_455
Ge1 Ho3 3.053398 1_565
Ge2 In0 2.936933 1_555
Ge2 In1 2.936933 1_555
Ge2 Ho2 2.938614 1_455
Ge2 Ho2 2.938614 1_555
Ge2 Ho0 3.053398 1_445
Ge2 Ho0 3.053398 1_545
Ge2 Ho3 3.053398 1_555
Ge2 Ho3 3.053398 1_455
Ge3 In0 2.936933 1_556
Ge3 In1 2.936933 1_555
Ge3 Ho3 2.938614 1_455
Ge3 Ho3 2.938614 1_555
Ge3 Ho2 3.053398 1_456
Ge3 Ho2 3.053398 1_556
Ge3 Ho1 3.053398 1_555
Ge3 Ho1 3.053398 1_455
