# generated using pymatgen
data_Sr2MnN2
_symmetry_space_group_name_H-M   'P 1'
_cell_length_a   9.05372098
_cell_length_b   16.39959713
_cell_length_c   11.38924376
_cell_angle_alpha   90.00000000
_cell_angle_beta   84.02955721
_cell_angle_gamma   90.00000000
_symmetry_Int_Tables_number   1
_chemical_formula_structural   Sr2MnN2
_chemical_formula_sum   'Sr32 Mn16 N32'
_cell_volume   1681.87227590
_cell_formula_units_Z   16
loop_
 _symmetry_equiv_pos_site_id
 _symmetry_equiv_pos_as_xyz
  1  'x, y, z'
loop_
 _atom_site_type_symbol
 _atom_site_label
 _atom_site_symmetry_multiplicity
 _atom_site_fract_x
 _atom_site_fract_y
 _atom_site_fract_z
 _atom_site_occupancy
  Sr  Sr0  1  0.35495221  0.75000000  0.74177587  1
  Sr  Sr1  1  0.64504779  0.25000000  0.25822413  1
  Sr  Sr2  1  0.75111643  0.75000000  0.33586871  1
  Sr  Sr3  1  0.24888357  0.25000000  0.66413129  1
  Sr  Sr4  1  0.02323261  0.61097706  0.80368341  1
  Sr  Sr5  1  0.97676739  0.11097706  0.19631659  1
  Sr  Sr6  1  0.97676739  0.38902294  0.19631659  1
  Sr  Sr7  1  0.02323261  0.88902294  0.80368341  1
  Sr  Sr8  1  0.66208238  0.41048804  0.48185346  1
  Sr  Sr9  1  0.33791762  0.91048804  0.51814654  1
  Sr  Sr10  1  0.33791762  0.58951196  0.51814654  1
  Sr  Sr11  1  0.66208238  0.08951196  0.48185346  1
  Sr  Sr12  1  0.63699993  0.25000000  0.72668654  1
  Sr  Sr13  1  0.36300007  0.75000000  0.27331346  1
  Sr  Sr14  1  0.33726969  0.56557149  0.94741661  1
  Sr  Sr15  1  0.66273031  0.06557149  0.05258339  1
  Sr  Sr16  1  0.66273031  0.43442851  0.05258339  1
  Sr  Sr17  1  0.33726969  0.93442851  0.94741661  1
  Sr  Sr18  1  -0.00000000  0.50000000  0.50000000  1
  Sr  Sr19  1  -0.00000000  -0.00000000  0.50000000  1
  Sr  Sr20  1  0.29988397  0.35338053  0.95189916  1
  Sr  Sr21  1  0.70011603  0.85338053  0.04810084  1
  Sr  Sr22  1  0.70011603  0.64661947  0.04810084  1
  Sr  Sr23  1  0.29988397  0.14661947  0.95189916  1
  Sr  Sr24  1  0.96698715  0.37157628  0.78696828  1
  Sr  Sr25  1  0.03301285  0.87157628  0.21303172  1
  Sr  Sr26  1  0.03301285  0.62842372  0.21303172  1
  Sr  Sr27  1  0.96698715  0.12842372  0.78696828  1
  Sr  Sr28  1  0.71224338  0.62195793  0.62904558  1
  Sr  Sr29  1  0.28775662  0.12195793  0.37095442  1
  Sr  Sr30  1  0.28775662  0.37804207  0.37095442  1
  Sr  Sr31  1  0.71224338  0.87804207  0.62904558  1
  Mn  Mn0  1  0.99602443  0.75000000  0.99917672  1
  Mn  Mn1  1  0.00397557  0.25000000  0.00082328  1
  Mn  Mn2  1  0.68383071  0.54374488  0.28550604  1
  Mn  Mn3  1  0.31616929  0.04374488  0.71449396  1
  Mn  Mn4  1  0.31616929  0.45625512  0.71449396  1
  Mn  Mn5  1  0.68383071  0.95625512  0.28550604  1
  Mn  Mn6  1  0.90012093  0.25000000  0.48715039  1
  Mn  Mn7  1  0.09987907  0.75000000  0.51284961  1
  Mn  Mn8  1  0.57086674  0.45982203  0.76373371  1
  Mn  Mn9  1  0.42913326  0.95982203  0.23626629  1
  Mn  Mn10  1  0.42913326  0.54017797  0.23626629  1
  Mn  Mn11  1  0.57086674  0.04017797  0.76373371  1
  Mn  Mn12  1  0.50739349  0.75000000  0.52179690  1
  Mn  Mn13  1  0.49260651  0.25000000  0.47820310  1
  Mn  Mn14  1  0.73873321  0.25000000  0.99902230  1
  Mn  Mn15  1  0.26126679  0.75000000  0.00097770  1
  N  N0  1  0.68863952  0.25000000  0.49206974  1
  N  N1  1  0.31136048  0.75000000  0.50793026  1
  N  N2  1  0.89024106  0.75000000  0.88444788  1
  N  N3  1  0.10975894  0.25000000  0.11555212  1
  N  N4  1  0.55265807  0.45482297  0.28696101  1
  N  N5  1  0.44734193  0.95482297  0.71303899  1
  N  N6  1  0.44734193  0.54517703  0.71303899  1
  N  N7  1  0.55265807  0.04517703  0.28696101  1
  N  N8  1  0.18251214  0.46797671  0.83615899  1
  N  N9  1  0.81748786  0.96797671  0.16384101  1
  N  N10  1  0.81748786  0.53202329  0.16384101  1
  N  N11  1  0.18251214  0.03202329  0.83615899  1
  N  N12  1  0.75770512  0.55893625  0.42023410  1
  N  N13  1  0.24229488  0.05893625  0.57976590  1
  N  N14  1  0.24229488  0.44106375  0.57976590  1
  N  N15  1  0.75770512  0.94106375  0.42023410  1
  N  N16  1  0.44264294  0.37040190  0.74636329  1
  N  N17  1  0.55735706  0.87040190  0.25363671  1
  N  N18  1  0.55735706  0.62959810  0.25363671  1
  N  N19  1  0.44264294  0.12959810  0.74636329  1
  N  N20  1  0.12713211  0.66292342  0.99524858  1
  N  N21  1  0.87286789  0.16292342  0.00475142  1
  N  N22  1  0.87286789  0.33707658  0.00475142  1
  N  N23  1  0.12713211  0.83707658  0.99524858  1
  N  N24  1  0.87584276  0.75000000  0.13392344  1
  N  N25  1  0.12415724  0.25000000  0.86607656  1
  N  N26  1  0.94293035  0.34683741  0.41185307  1
  N  N27  1  0.05706965  0.84683741  0.58814693  1
  N  N28  1  0.05706965  0.65316259  0.58814693  1
  N  N29  1  0.94293035  0.15316259  0.41185307  1
  N  N30  1  0.06337367  0.75000000  0.36386243  1
  N  N31  1  0.93662633  0.25000000  0.63613757  1
loop_
_geom_bond_atom_site_label_1
_geom_bond_atom_site_label_2
_geom_bond_distance
_geom_bond_site_symmetry_2
Mn0 N2 1.698526 1_555
Mn0 N24 1.786548 1_556
Mn0 N20 1.854507 1_655
Mn0 N23 1.854507 1_655
Mn1 N3 1.698526 1_555
Mn1 N25 1.786548 1_554
Mn1 N21 1.854507 1_455
Mn1 N22 1.854507 1_455
Mn2 N10 1.752868 1_555
Mn2 N12 1.754267 1_555
Mn2 N18 1.873955 1_555
Mn2 N4 1.879672 1_555
Mn3 N11 1.752868 1_555
Mn3 N13 1.754267 1_555
Mn3 N19 1.873955 1_555
Mn3 N5 1.879672 1_545
Mn4 N8 1.752868 1_555
Mn4 N14 1.754267 1_555
Mn4 N16 1.873955 1_555
Mn4 N6 1.879672 1_555
Mn5 N9 1.752868 1_555
Mn5 N15 1.754267 1_555
Mn5 N17 1.873955 1_555
Mn5 N7 1.879672 1_565
Mn6 N31 1.762161 1_555
Mn6 N29 1.827173 1_555
Mn6 N26 1.827173 1_555
Mn6 N0 1.909679 1_555
Mn7 N30 1.762161 1_555
Mn7 N27 1.827173 1_555
Mn7 N28 1.827173 1_555
Mn7 N1 1.909679 1_555
Mn8 N16 1.893436 1_555
Mn8 N6 1.917765 1_555
Mn9 N17 1.893436 1_555
Mn9 N7 1.917765 1_565
Mn10 N18 1.893436 1_555
Mn10 N4 1.917765 1_555
Mn11 N19 1.893436 1_555
Mn11 N5 1.917765 1_545
Mn12 N1 1.798129 1_555
Mn12 Sr0 2.731759 1_555
Mn12 Sr2 2.895026 1_555
Mn12 Sr28 3.132468 1_555
Mn12 Sr31 3.132468 1_555
Mn13 N0 1.798129 1_555
Mn13 Sr1 2.731759 1_555
Mn13 Sr3 2.895026 1_555
Mn13 Sr29 3.132468 1_555
Mn13 Sr30 3.132468 1_555
Mn14 N21 1.880106 1_556
Mn14 N22 1.880106 1_556
Mn14 Sr1 2.985550 1_556
Mn15 N20 1.880106 1_554
Mn15 N23 1.880106 1_554
Mn15 Sr0 2.985550 1_554
N0 Sr11 2.646559 1_555
N0 Sr8 2.646559 1_555
N0 Sr12 2.664368 1_555
N0 Sr1 2.732714 1_555
N1 Sr10 2.646559 1_555
N1 Sr9 2.646559 1_555
N1 Sr13 2.664368 1_555
N1 Sr0 2.732714 1_555
N2 Sr7 2.695093 1_655
N2 Sr4 2.695093 1_655
N2 Sr21 2.940069 1_556
N2 Sr22 2.940069 1_556
N3 Sr5 2.695093 1_455
N3 Sr6 2.695093 1_455
N3 Sr23 2.940069 1_554
N3 Sr20 2.940069 1_554
N4 Sr8 2.625748 1_555
N4 Sr16 2.770777 1_555
N4 Sr30 2.788443 1_555
N5 Sr9 2.625748 1_555
N5 Sr17 2.770777 1_555
N5 Sr31 2.788443 1_555
N6 Sr10 2.625748 1_555
N6 Sr14 2.770777 1_555
N6 Sr28 2.788443 1_555
N7 Sr11 2.625748 1_555
N7 Sr15 2.770777 1_555
N7 Sr29 2.788443 1_555
N8 Sr14 2.549472 1_555
N8 Sr20 2.586533 1_555
N8 Sr24 2.616909 1_455
N8 Sr4 2.797688 1_555
N9 Sr15 2.549472 1_565
N9 Sr21 2.586533 1_555
N9 Sr25 2.616909 1_655
N9 Sr5 2.797688 1_565
N10 Sr16 2.549472 1_555
N10 Sr22 2.586533 1_555
N10 Sr26 2.616909 1_655
N10 Sr6 2.797688 1_555
N11 Sr17 2.549472 1_545
N11 Sr23 2.586533 1_555
N11 Sr27 2.616909 1_455
N11 Sr7 2.797688 1_545
N12 Sr28 2.586469 1_555
N12 Sr18 2.643157 1_655
N12 Sr8 2.653748 1_555
N12 Sr2 3.279745 1_555
N13 Sr29 2.586469 1_555
N13 Sr19 2.643157 1_555
N13 Sr9 2.653748 1_545
N13 Sr3 3.279745 1_555
N14 Sr30 2.586469 1_555
N14 Sr18 2.643157 1_555
N14 Sr10 2.653748 1_555
N14 Sr3 3.279745 1_555
N15 Sr31 2.586469 1_555
N15 Sr19 2.643157 1_665
N15 Sr11 2.653748 1_565
N15 Sr2 3.279745 1_555
N16 Sr20 2.568825 1_555
N16 Sr12 2.638823 1_555
N16 Sr3 2.862712 1_555
N17 Sr21 2.568825 1_555
N17 Sr13 2.638823 1_555
N17 Sr2 2.862712 1_555
N18 Sr22 2.568825 1_555
N18 Sr13 2.638823 1_555
N18 Sr2 2.862712 1_555
N19 Sr23 2.568825 1_555
N19 Sr12 2.638823 1_555
N19 Sr3 2.862712 1_555
N20 Sr14 2.499938 1_555
N20 Sr26 2.599778 1_556
N20 Sr4 2.607246 1_555
N21 Sr15 2.499938 1_555
N21 Sr27 2.599778 1_554
N21 Sr5 2.607246 1_555
N22 Sr16 2.499938 1_555
N22 Sr24 2.599778 1_554
N22 Sr6 2.607246 1_555
N23 Sr17 2.499938 1_555
N23 Sr25 2.599778 1_556
N23 Sr7 2.607246 1_555
N24 Sr2 2.454565 1_555
N24 Sr22 2.585445 1_555
N24 Sr21 2.585445 1_555
N24 Sr26 2.660561 1_655
N24 Sr25 2.660561 1_655
N25 Sr3 2.454565 1_555
N25 Sr23 2.585445 1_555
N25 Sr20 2.585445 1_555
N25 Sr27 2.660561 1_455
N25 Sr24 2.660561 1_455
N26 Sr6 2.538121 1_555
N26 Sr18 2.773430 1_655
N26 Sr8 2.787279 1_555
N26 Sr30 3.150075 1_655
N27 Sr7 2.538121 1_555
N27 Sr19 2.773430 1_565
N27 Sr9 2.787279 1_555
N27 Sr31 3.150075 1_455
N28 Sr4 2.538121 1_555
N28 Sr18 2.773430 1_555
N28 Sr10 2.787279 1_555
N28 Sr28 3.150075 1_455
N29 Sr5 2.538121 1_555
N29 Sr19 2.773430 1_655
N29 Sr11 2.787279 1_555
N29 Sr29 3.150075 1_655
N30 Sr25 2.664590 1_555
N30 Sr26 2.664590 1_555
N30 Sr13 2.800087 1_555
N30 Sr2 2.877776 1_455
N31 Sr24 2.664590 1_555
N31 Sr27 2.664590 1_555
N31 Sr12 2.800087 1_555
N31 Sr3 2.877776 1_655
