# generated using pymatgen
data_MgFeO3
_symmetry_space_group_name_H-M   'P 1'
_cell_length_a   4.95391641
_cell_length_b   5.18178631
_cell_length_c   7.25737841
_cell_angle_alpha   90.00000000
_cell_angle_beta   90.00000000
_cell_angle_gamma   90.00000000
_symmetry_Int_Tables_number   1
_chemical_formula_structural   MgFeO3
_chemical_formula_sum   'Mg4 Fe4 O12'
_cell_volume   186.29789249
_cell_formula_units_Z   4
loop_
 _symmetry_equiv_pos_site_id
 _symmetry_equiv_pos_as_xyz
  1  'x, y, z'
loop_
 _atom_site_type_symbol
 _atom_site_label
 _atom_site_symmetry_multiplicity
 _atom_site_fract_x
 _atom_site_fract_y
 _atom_site_fract_z
 _atom_site_occupancy
  Mg  Mg0  1  0.98330184  0.06724590  0.25000000  1
  Mg  Mg1  1  0.48330184  0.43275410  0.75000000  1
  Mg  Mg2  1  0.51669816  0.56724590  0.25000000  1
  Mg  Mg3  1  0.01669816  0.93275410  0.75000000  1
  Fe  Fe0  1  0.50000000  0.00000000  0.00000000  1
  Fe  Fe1  1  0.00000000  0.50000000  0.00000000  1
  Fe  Fe2  1  0.00000000  0.50000000  0.50000000  1
  Fe  Fe3  1  0.50000000  0.00000000  0.50000000  1
  O  O0  1  0.87597406  0.54884872  0.75000000  1
  O  O1  1  0.37597406  0.95115128  0.25000000  1
  O  O2  1  0.62402594  0.04884872  0.75000000  1
  O  O3  1  0.12402594  0.45115128  0.25000000  1
  O  O4  1  0.69010471  0.30633764  0.43552123  1
  O  O5  1  0.19010471  0.19366236  0.56447877  1
  O  O6  1  0.80989529  0.80633764  0.06447877  1
  O  O7  1  0.30989529  0.69366236  0.93552123  1
  O  O8  1  0.69010471  0.30633764  0.06447877  1
  O  O9  1  0.19010471  0.19366236  0.93552123  1
  O  O10  1  0.30989529  0.69366236  0.56447877  1
  O  O11  1  0.80989529  0.80633764  0.43552123  1
loop_
_geom_bond_atom_site_label_1
_geom_bond_atom_site_label_2
_geom_bond_distance
_geom_bond_site_symmetry_2
Mg0 O1 2.036161 1_645
Mg0 O6 2.092502 1_545
Mg0 O11 2.092502 1_545
Mg0 O3 2.107931 1_655
Mg0 O8 2.336107 1_555
Mg0 O4 2.336107 1_555
Mg0 O9 2.586026 1_654
Mg0 O5 2.586026 1_655
Mg1 O0 2.036161 1_555
Mg1 O7 2.092502 1_555
Mg1 O10 2.092502 1_555
Mg1 O2 2.107931 1_555
Mg1 O5 2.336107 1_555
Mg1 O9 2.336107 1_555
Mg1 O4 2.586026 1_555
Mg1 O8 2.586026 1_556
Mg2 O3 2.036161 1_555
Mg2 O4 2.092502 1_555
Mg2 O8 2.092502 1_555
Mg2 O1 2.107931 1_555
Mg2 O11 2.336107 1_555
Mg2 O6 2.336107 1_555
Mg2 O10 2.586026 1_555
Mg2 O7 2.586026 1_554
Mg3 O2 2.036161 1_465
Mg3 O9 2.092502 1_565
Mg3 O5 2.092502 1_565
Mg3 O0 2.107931 1_455
Mg3 O10 2.336107 1_555
Mg3 O7 2.336107 1_555
Mg3 O11 2.586026 1_455
Mg3 O6 2.586026 1_456
Fe0 O9 1.892841 1_554
Fe0 O6 1.892841 1_545
Fe0 O7 1.904115 1_544
Fe0 O8 1.904115 1_555
Fe0 O1 1.932207 1_545
Fe0 O2 1.932207 1_554
Fe1 O8 1.892841 1_455
Fe1 O7 1.892841 1_554
Fe1 O6 1.904115 1_455
Fe1 O9 1.904115 1_554
Fe1 O0 1.932207 1_454
Fe1 O3 1.932207 1_555
Fe2 O4 1.892841 1_455
Fe2 O10 1.892841 1_555
Fe2 O11 1.904115 1_455
Fe2 O5 1.904115 1_555
Fe2 O0 1.932207 1_455
Fe2 O3 1.932207 1_555
Fe3 O5 1.892841 1_555
Fe3 O11 1.892841 1_545
Fe3 O10 1.904115 1_545
Fe3 O4 1.904115 1_555
Fe3 O1 1.932207 1_545
Fe3 O2 1.932207 1_555
