# generated using pymatgen
data_K3Sn2S3BrO3
_symmetry_space_group_name_H-M   'P 1'
_cell_length_a   7.31666700
_cell_length_b   9.54203800
_cell_length_c   9.78807641
_cell_angle_alpha   61.24069776
_cell_angle_beta   90.00000000
_cell_angle_gamma   90.00000000
_symmetry_Int_Tables_number   1
_chemical_formula_structural   K3Sn2S3BrO3
_chemical_formula_sum   'K6 Sn4 S6 Br2 O6'
_cell_volume   599.06969722
_cell_formula_units_Z   2
loop_
 _symmetry_equiv_pos_site_id
 _symmetry_equiv_pos_as_xyz
  1  'x, y, z'
loop_
 _atom_site_type_symbol
 _atom_site_label
 _atom_site_symmetry_multiplicity
 _atom_site_fract_x
 _atom_site_fract_y
 _atom_site_fract_z
 _atom_site_occupancy
  K  K0  1  0.05065700  0.65817100  0.66782200  1
  K  K1  1  0.55065700  0.34182900  0.33217800  1
  K  K2  1  0.27235400  0.98588200  0.74051700  1
  K  K3  1  0.27313200  0.74434100  0.27574500  1
  K  K4  1  0.77235400  0.01411800  0.25948300  1
  K  K5  1  0.77313200  0.25565900  0.72425500  1
  Sn  Sn0  1  0.54752200  0.64716900  0.67185400  1
  Sn  Sn1  1  0.04752200  0.35283100  0.32814600  1
  Sn  Sn2  1  0.26760000  0.26771900  0.00782100  1
  Sn  Sn3  1  0.76760000  0.73228100  0.99217900  1
  S  S0  1  0.22117100  0.37619800  0.54587400  1
  S  S1  1  0.23203500  0.53743600  0.06294900  1
  S  S2  1  0.19827200  0.08971500  0.35876400  1
  S  S3  1  0.72117200  0.62380200  0.45412600  1
  S  S4  1  0.73203500  0.46256400  0.93705100  1
  S  S5  1  0.69827200  0.91028500  0.64123600  1
  Br  Br0  1  0.53391300  0.00036000  0.99444500  1
  Br  Br1  1  0.03391300  0.99964000  0.00555500  1
  O  O0  1  0.41243200  0.28241400  0.59980900  1
  O  O1  1  0.41922800  0.60728500  0.09305300  1
  O  O2  1  0.38418300  0.13398800  0.24291400  1
  O  O3  1  0.91243200  0.71758600  0.40019100  1
  O  O4  1  0.91922800  0.39271500  0.90694700  1
  O  O5  1  0.88418300  0.86601200  0.75708600  1
loop_
_geom_bond_atom_site_label_1
_geom_bond_atom_site_label_2
_geom_bond_distance
_geom_bond_site_symmetry_2
K0 O3 2.603344 1_455
K0 O4 2.667232 1_455
K0 O5 2.801355 1_455
K0 Sn0 3.636577 1_555
K1 O0 2.603344 1_555
K1 O1 2.667232 1_555
K1 O2 2.801355 1_555
K1 Sn1 3.636577 1_655
K2 O0 2.683940 1_565
K2 O5 3.036834 1_455
K2 S2 3.416924 1_565
K2 S5 3.442461 1_555
K3 O3 2.866119 1_455
K3 O1 2.881140 1_555
K3 S0 3.246218 1_555
K3 S3 3.631164 1_555
K4 O3 2.683940 1_545
K4 O2 3.036834 1_555
K4 S5 3.416924 1_545
K4 S2 3.442461 1_655
K5 O0 2.866119 1_555
K5 O4 2.881140 1_555
K5 S3 3.246218 1_555
K5 S0 3.631157 1_655
S0 Sn1 2.581271 1_555
S1 Sn1 2.695101 1_555
S2 Sn1 2.624080 1_555
S3 Sn0 2.581275 1_555
S4 Sn0 2.695101 1_555
S5 Sn0 2.624080 1_555
Br0 Sn3 3.085774 1_545
Br0 K5 3.129323 1_555
Br0 K4 3.180958 1_556
Br0 K2 3.192090 1_545
Br0 Sn2 3.262462 1_556
Br0 K3 3.273717 1_546
Br1 Sn2 3.085774 1_565
Br1 K3 3.129323 1_555
Br1 K2 3.180958 1_554
Br1 K4 3.192090 1_465
Br1 Sn3 3.262462 1_454
Br1 K5 3.273717 1_464
O0 S0 1.607242 1_555
O1 S1 1.611184 1_555
O1 Sn3 2.785904 1_554
O2 S2 1.689266 1_555
O2 Sn2 2.196701 1_555
O3 S3 1.607236 1_555
O4 S4 1.611184 1_555
O4 Sn2 2.785904 1_656
O5 S5 1.689266 1_555
O5 Sn3 2.196701 1_555
