# generated using pymatgen
data_U11S20
_symmetry_space_group_name_H-M   'P 1'
_cell_length_a   6.45054587
_cell_length_b   10.32769921
_cell_length_c   10.34786000
_cell_angle_alpha   90.05842185
_cell_angle_beta   90.00831866
_cell_angle_gamma   90.03145781
_symmetry_Int_Tables_number   1
_chemical_formula_structural   U11S20
_chemical_formula_sum   'U11 S20'
_cell_volume   689.36669331
_cell_formula_units_Z   1
loop_
 _symmetry_equiv_pos_site_id
 _symmetry_equiv_pos_as_xyz
  1  'x, y, z'
loop_
 _atom_site_type_symbol
 _atom_site_label
 _atom_site_symmetry_multiplicity
 _atom_site_fract_x
 _atom_site_fract_y
 _atom_site_fract_z
 _atom_site_occupancy
  U  U0  1  0.25089585  0.89556794  0.09640176  1
  U  U1  1  0.75199673  0.60266149  0.08704809  1
  U  U2  1  0.75179510  0.89771291  0.41304271  1
  U  U3  1  0.25180179  0.60384039  0.40429281  1
  U  U4  1  0.75346110  0.08873059  0.89694294  1
  U  U5  1  0.25074206  0.40480826  0.89796234  1
  U  U6  1  0.25017068  0.09548247  0.60138763  1
  U  U7  1  0.75251953  0.41115738  0.60318895  1
  U  U8  1  0.14270086  0.75091056  0.74997976  1
  U  U9  1  0.35736676  0.25000440  0.24988717  1
  U  U10  1  0.85822478  0.25005576  0.24994104  1
  S  S0  1  0.37333456  0.84121019  0.53680649  1
  S  S1  1  0.89667096  0.65948182  0.54079770  1
  S  S2  1  0.89607453  0.84023248  0.96007798  1
  S  S3  1  0.37273744  0.65954801  0.96340324  1
  S  S4  1  0.89520919  0.53983438  0.83994819  1
  S  S5  1  0.37201412  0.95912789  0.83882672  1
  S  S6  1  0.37484375  0.53990325  0.66039363  1
  S  S7  1  0.89501517  0.96048979  0.65962737  1
  S  S8  1  0.61378035  0.16187840  0.45380069  1
  S  S9  1  0.11299244  0.33874657  0.45261564  1
  S  S10  1  0.11316379  0.16097754  0.04717397  1
  S  S11  1  0.61392790  0.33833822  0.04602796  1
  S  S12  1  0.11214193  0.45241263  0.16147576  1
  S  S13  1  0.61332028  0.04591261  0.16148746  1
  S  S14  1  0.61385080  0.45411262  0.33841731  1
  S  S15  1  0.11185186  0.04761147  0.33821576  1
  S  S16  1  0.50565503  0.74998965  0.25013677  1
  S  S17  1  -0.00066724  0.74965881  0.25060841  1
  S  S18  1  0.00287605  0.25011479  0.74988218  1
  S  S19  1  0.50373583  0.24948773  0.75020158  1
loop_
_geom_bond_atom_site_label_1
_geom_bond_atom_site_label_2
_geom_bond_distance
_geom_bond_site_symmetry_2
S0 U2 2.818047 1_555
S0 U8 2.820031 1_555
S0 U6 2.823610 1_565
S0 U3 2.914680 1_555
S1 U3 2.752074 1_655
S1 U7 2.803508 1_555
S1 U8 2.844096 1_655
S1 U2 2.946738 1_555
S2 U0 2.747928 1_656
S2 U4 2.804534 1_565
S2 U8 2.847273 1_655
S2 U1 2.935028 1_556
S3 U1 2.823013 1_556
S3 U8 2.823891 1_555
S3 U5 2.827239 1_555
S3 U0 2.906710 1_556
S4 U5 2.751265 1_655
S4 U1 2.794710 1_556
S4 U8 2.858015 1_655
S4 U7 2.933749 1_555
S5 U8 2.765791 1_555
S5 U0 2.854645 1_556
S5 U4 2.863880 1_565
S5 U6 2.940294 1_565
S6 U8 2.801891 1_555
S6 U7 2.838288 1_555
S6 U3 2.844733 1_555
S6 U5 2.938910 1_555
S7 U6 2.748442 1_665
S7 U2 2.789248 1_555
S7 U8 2.849427 1_655
S7 U4 2.934915 1_565
S8 U10 2.787286 1_555
S8 U9 2.832144 1_555
S8 U6 2.881886 1_555
S8 U2 2.900704 1_545
S8 U7 3.131687 1_555
S9 U9 2.779256 1_555
S9 U10 2.816313 1_455
S9 U7 2.897297 1_455
S9 U3 2.923628 1_555
S9 U6 3.078125 1_555
S10 U9 2.778562 1_555
S10 U10 2.819913 1_455
S10 U4 2.889948 1_454
S10 U0 2.927061 1_545
S10 U5 3.085261 1_554
S11 U10 2.787741 1_555
S11 U9 2.832747 1_555
S11 U5 2.882726 1_554
S11 U1 2.901779 1_555
S11 U4 3.135338 1_554
S12 U9 2.777789 1_555
S12 U10 2.808721 1_455
S12 U1 2.898936 1_455
S12 U5 2.911173 1_554
S12 U3 3.092006 1_555
S13 U10 2.787560 1_555
S13 U9 2.829459 1_555
S13 U0 2.885034 1_545
S13 U4 2.917058 1_554
S13 U2 3.150454 1_545
S14 U10 2.786486 1_555
S14 U9 2.830513 1_555
S14 U3 2.883104 1_555
S14 U7 2.916459 1_555
S14 U1 3.149756 1_555
S15 U9 2.777297 1_555
S15 U10 2.808843 1_455
S15 U2 2.896462 1_445
S15 U6 2.907361 1_555
S15 U0 3.086364 1_545
S16 U0 2.738357 1_555
S16 U3 2.739926 1_555
S16 U2 2.771550 1_555
S16 U1 2.772444 1_555
S17 U0 2.730062 1_555
S17 U3 2.730578 1_555
S17 U1 2.775986 1_455
S17 U2 2.776888 1_455
S18 U5 2.729153 1_555
S18 U6 2.730322 1_555
S18 U4 2.772206 1_455
S18 U7 2.772335 1_455
S19 U6 2.750960 1_555
S19 U5 2.751884 1_555
S19 U4 2.768466 1_555
S19 U7 2.771347 1_555
