# generated using pymatgen
data_LiV2P4(HO8)2
_symmetry_space_group_name_H-M   'P 1'
_cell_length_a   9.31943430
_cell_length_b   9.26990852
_cell_length_c   7.74729381
_cell_angle_alpha   78.18447242
_cell_angle_beta   78.19583325
_cell_angle_gamma   116.71566018
_symmetry_Int_Tables_number   1
_chemical_formula_structural   LiV2P4(HO8)2
_chemical_formula_sum   'Li2 V4 P8 H4 O32'
_cell_volume   550.47141068
_cell_formula_units_Z   2
loop_
 _symmetry_equiv_pos_site_id
 _symmetry_equiv_pos_as_xyz
  1  'x, y, z'
loop_
 _atom_site_type_symbol
 _atom_site_label
 _atom_site_symmetry_multiplicity
 _atom_site_fract_x
 _atom_site_fract_y
 _atom_site_fract_z
 _atom_site_occupancy
  Li  Li0  1  0.46019000  0.09282900  0.34761400  1
  Li  Li1  1  0.04222500  0.41149200  0.65267800  1
  V  V0  1  0.24855700  0.24930900  0.50037700  1
  V  V1  1  0.49930700  0.99766700  0.99488500  1
  V  V2  1  0.99654500  0.50054600  0.01477500  1
  V  V3  1  0.75512100  0.75352900  0.49719400  1
  P  P0  1  0.25968600  0.60645600  0.26779100  1
  P  P1  1  0.75470200  0.10485800  0.26911200  1
  P  P2  1  0.64365600  0.49853800  0.22758800  1
  P  P3  1  0.14601200  0.00039800  0.22733700  1
  P  P4  1  0.35566200  0.50642300  0.76545500  1
  P  P5  1  0.85217800  0.00527700  0.76770200  1
  P  P6  1  0.74058500  0.39626500  0.73793600  1
  P  P7  1  0.24057100  0.89309800  0.73972800  1
  H  H0  1  0.75749400  0.26652200  0.51381800  1
  H  H1  1  0.25409700  0.76256000  0.51068200  1
  H  H2  1  0.48642200  0.49536000  0.98776400  1
  H  H3  1  0.98485000  0.99132600  0.98850700  1
  O  O0  1  0.11668700  0.06432900  0.05248500  1
  O  O1  1  0.17243500  0.11865900  0.35136200  1
  O  O2  1  0.01069300  0.18552700  0.64364200  1
  O  O3  1  0.22420700  0.05070400  0.68717500  1
  O  O4  1  0.62897900  0.07660500  0.15648900  1
  O  O5  1  0.13349400  0.57785200  0.14867500  1
  O  O6  1  0.27183000  0.44491800  0.31449700  1
  O  O7  1  0.49241500  0.31651100  0.35695300  1
  O  O8  1  0.68078900  0.13548600  0.44122300  1
  O  O9  1  0.18296700  0.62838200  0.44673100  1
  O  O10  1  0.32564000  0.38279100  0.64941700  1
  O  O11  1  0.19078700  0.51716300  0.81438600  1
  O  O12  1  0.69524700  0.02446900  0.81460600  1
  O  O13  1  0.62250900  0.56742900  0.04906700  1
  O  O14  1  0.93014800  0.26838700  0.13631300  1
  O  O15  1  0.43140900  0.76433100  0.13773900  1
  O  O16  1  0.56670200  0.23889700  0.86177000  1
  O  O17  1  0.06760700  0.72793100  0.86236100  1
  O  O18  1  0.37671900  0.43397100  0.94751200  1
  O  O19  1  0.80979200  0.48133500  0.17378600  1
  O  O20  1  0.30512200  0.98134700  0.19156700  1
  O  O21  1  0.67627900  0.61702000  0.34860600  1
  O  O22  1  0.82283300  0.37229600  0.55801300  1
  O  O23  1  0.31513200  0.87196200  0.55419000  1
  O  O24  1  0.51827100  0.68050200  0.63653400  1
  O  O25  1  0.72987300  0.55962400  0.67635500  1
  O  O26  1  0.87158100  0.42499400  0.84355800  1
  O  O27  1  0.36385400  0.91609400  0.85192100  1
  O  O28  1  0.77511900  0.94612500  0.32040500  1
  O  O29  1  0.98063600  0.82273600  0.36261100  1
  O  O30  1  0.82827400  0.88533400  0.64713000  1
  O  O31  1  0.87564900  0.92913100  0.94644500  1
loop_
_geom_bond_atom_site_label_1
_geom_bond_atom_site_label_2
_geom_bond_distance
_geom_bond_site_symmetry_2
Li0 O23 1.965976 1_545
Li0 O7 1.976185 1_555
Li0 O4 2.010086 1_555
Li0 O20 2.121696 1_545
Li0 O8 2.214803 1_555
Li1 O9 1.940980 1_555
Li1 O2 1.998483 1_555
Li1 O26 2.006036 1_455
Li1 O11 2.106829 1_555
Li1 O22 2.214721 1_455
H0 O22 1.065544 1_555
H0 O8 1.402256 1_555
H1 O23 1.079546 1_555
H1 O9 1.370171 1_555
H2 O18 1.070668 1_555
H2 O13 1.376556 1_556
H3 O31 1.076732 1_555
H3 O0 1.360935 1_666
O0 P3 1.493068 1_555
O1 P3 1.571989 1_555
O1 V0 1.854185 1_555
O2 P5 1.562065 1_455
O2 V0 2.010390 1_555
O3 P7 1.518440 1_545
O3 V0 1.983477 1_555
O4 P1 1.561611 1_555
O4 V1 1.939704 1_544
O5 P0 1.602759 1_555
O5 V2 1.800650 1_455
O6 P0 1.527518 1_555
O6 V0 1.964191 1_555
O7 P2 1.558656 1_555
O7 V0 2.048894 1_555
O8 P1 1.512657 1_555
O9 P0 1.521467 1_555
O10 P4 1.560903 1_555
O10 V0 1.872326 1_555
O11 P4 1.558610 1_555
O11 V2 2.052405 1_456
O12 P5 1.531540 1_555
O12 V1 1.937370 1_545
O13 P2 1.490798 1_555
O14 P1 1.573010 1_555
O14 V2 1.906675 1_555
O15 P0 1.532545 1_555
O15 V1 1.950988 1_554
O16 P6 1.529628 1_555
O16 V1 1.996567 1_545
O17 P7 1.550435 1_555
O17 V2 1.918728 1_456
O18 P4 1.524062 1_555
O19 P2 1.606725 1_555
O19 V2 1.825564 1_555
O20 P3 1.547287 1_565
O20 V1 2.037385 1_554
O21 P2 1.554299 1_555
O21 V3 1.890225 1_555
O22 P6 1.556512 1_555
O23 P7 1.554507 1_555
O24 P4 1.555649 1_555
O24 V3 1.969299 1_555
O25 P6 1.546059 1_555
O25 V3 1.917617 1_555
O26 P6 1.560936 1_555
O26 V2 1.971147 1_556
O27 P7 1.544415 1_555
O27 V1 1.857098 1_555
O28 P1 1.549989 1_565
O28 V3 1.921744 1_555
O29 P3 1.592517 1_665
O29 V3 1.879615 1_555
O30 P5 1.564026 1_565
O30 V3 1.860969 1_555
O31 P5 1.525172 1_565
