# generated using pymatgen
data_AlV2O4
_symmetry_space_group_name_H-M   'P 1'
_cell_length_a   5.89385577
_cell_length_b   10.39319197
_cell_length_c   5.89381698
_cell_angle_alpha   90.11265272
_cell_angle_beta   60.25103647
_cell_angle_gamma   73.51791159
_symmetry_Int_Tables_number   1
_chemical_formula_structural   AlV2O4
_chemical_formula_sum   'Al4 V8 O16'
_cell_volume   296.11908083
_cell_formula_units_Z   4
loop_
 _symmetry_equiv_pos_site_id
 _symmetry_equiv_pos_as_xyz
  1  'x, y, z'
loop_
 _atom_site_type_symbol
 _atom_site_label
 _atom_site_symmetry_multiplicity
 _atom_site_fract_x
 _atom_site_fract_y
 _atom_site_fract_z
 _atom_site_occupancy
  Al  Al0  1  0.61947800  0.31026900  0.94053700  1
  Al  Al1  1  0.63013900  0.80869700  0.43438000  1
  Al  Al2  1  0.36976200  0.18970700  0.57031000  1
  Al  Al3  1  0.37438200  0.69129200  0.06098400  1
  V  V0  1  0.99738900  0.99976200  0.99925100  1
  V  V1  1  0.00060700  0.50023900  0.50276200  1
  V  V2  1  0.50279200  0.49992200  0.49667200  1
  V  V3  1  0.00322100  0.00004000  0.49733200  1
  V  V4  1  0.00878900  0.75003200  0.74113800  1
  V  V5  1  0.50605700  0.99920500  0.00190500  1
  V  V6  1  0.99737500  0.50079800  0.99469300  1
  V  V7  1  0.98870300  0.25001300  0.26133600  1
  O  O0  1  0.25251700  0.12834000  0.37626200  1
  O  O1  1  0.24307700  0.63009600  0.87761000  1
  O  O2  1  0.75219400  0.37163500  0.11909500  1
  O  O3  1  0.75228400  0.86994500  0.62687600  1
  O  O4  1  0.75091200  0.36903400  0.62694500  1
  O  O5  1  0.74984200  0.87211300  0.12196500  1
  O  O6  1  0.24645900  0.37268600  0.63487400  1
  O  O7  1  0.26396000  0.87419900  0.11424300  1
  O  O8  1  0.74210700  0.13097200  0.38010200  1
  O  O9  1  0.75024400  0.62789600  0.87794800  1
  O  O10  1  0.73779900  0.12729200  0.88088000  1
  O  O11  1  0.75998700  0.62580400  0.36182000  1
  O  O12  1  0.25104300  0.12663500  0.88650800  1
  O  O13  1  0.24895000  0.63013000  0.37026800  1
  O  O14  1  0.24022800  0.37336100  0.12226700  1
  O  O15  1  0.25970300  0.86988800  0.62104000  1
loop_
_geom_bond_atom_site_label_1
_geom_bond_atom_site_label_2
_geom_bond_distance
_geom_bond_site_symmetry_2
Al0 O2 1.795417 1_556
Al0 O10 1.796658 1_555
Al0 O4 1.800328 1_555
Al0 O14 1.833882 1_556
Al1 O15 1.790875 1_555
Al1 O11 1.796755 1_555
Al1 O3 1.810633 1_555
Al1 O5 1.817148 1_555
Al2 O0 1.795506 1_555
Al2 O6 1.796673 1_555
Al2 O8 1.800300 1_555
Al2 O12 1.833942 1_555
Al3 O13 1.790890 1_555
Al3 O7 1.796870 1_555
Al3 O1 1.810565 1_554
Al3 O9 1.817329 1_554
O0 V7 2.099632 1_455
O0 V5 2.116787 1_545
O0 V3 2.126297 1_555
O1 V4 2.058405 1_555
O1 V6 2.120211 1_455
O1 V2 2.148637 1_555
O2 V7 2.099474 1_555
O2 V6 2.116840 1_554
O2 V2 2.126180 1_555
O3 V4 2.058359 1_655
O3 V5 2.120190 1_556
O3 V3 2.148642 1_665
O4 V7 2.036277 1_555
O4 V2 2.137337 1_555
O4 V1 2.152840 1_655
O5 V5 2.060510 1_555
O5 V0 2.113475 1_554
O5 V4 2.113643 1_654
O6 V6 2.053177 1_455
O6 V1 2.120642 1_555
O6 V2 2.147394 1_555
O7 V5 2.068832 1_555
O7 V0 2.127816 1_454
O7 V3 2.138832 1_565
O8 V7 2.036461 1_555
O8 V3 2.137335 1_655
O8 V0 2.152682 1_544
O9 V6 2.060663 1_555
O9 V4 2.113243 1_655
O9 V1 2.113490 1_655
O10 V5 2.053083 1_546
O10 V0 2.120522 1_545
O10 V3 2.147395 1_655
O11 V6 2.068946 1_554
O11 V1 2.127804 1_655
O11 V2 2.138934 1_555
O12 V5 2.089059 1_546
O12 V7 2.095088 1_456
O12 V0 2.133423 1_445
O13 V4 2.062108 1_555
O13 V1 2.136755 1_555
O13 V2 2.141489 1_555
O14 V6 2.089154 1_454
O14 V7 2.095142 1_455
O14 V1 2.133328 1_555
O15 V4 2.061484 1_555
O15 V0 2.136598 1_455
O15 V3 2.141007 1_565
