# generated using pymatgen
data_Rb3Sc2Si4(O2F)5
_symmetry_space_group_name_H-M   'P 1'
_cell_length_a   8.39522000
_cell_length_b   9.75730700
_cell_length_c   18.72150600
_cell_angle_alpha   90.00000000
_cell_angle_beta   90.00000000
_cell_angle_gamma   90.00000000
_symmetry_Int_Tables_number   1
_chemical_formula_structural   Rb3Sc2Si4(O2F)5
_chemical_formula_sum   'Rb12 Sc8 Si16 O40 F20'
_cell_volume   1533.56727529
_cell_formula_units_Z   4
loop_
 _symmetry_equiv_pos_site_id
 _symmetry_equiv_pos_as_xyz
  1  'x, y, z'
loop_
 _atom_site_type_symbol
 _atom_site_label
 _atom_site_symmetry_multiplicity
 _atom_site_fract_x
 _atom_site_fract_y
 _atom_site_fract_z
 _atom_site_occupancy
  Rb  Rb0  1  0.25000000  0.00590700  0.51398400  1
  Rb  Rb1  1  0.25000000  0.50590700  0.98601600  1
  Rb  Rb2  1  0.75000000  0.99409300  0.48601600  1
  Rb  Rb3  1  0.75000000  0.49409300  0.01398400  1
  Rb  Rb4  1  0.25000000  0.14240300  0.12980500  1
  Rb  Rb5  1  0.25000000  0.64240300  0.37019500  1
  Rb  Rb6  1  0.75000000  0.85759700  0.87019500  1
  Rb  Rb7  1  0.75000000  0.35759700  0.62980500  1
  Rb  Rb8  1  0.25000000  0.36076500  0.62444400  1
  Rb  Rb9  1  0.25000000  0.86076500  0.87555600  1
  Rb  Rb10  1  0.75000000  0.63923500  0.37555600  1
  Rb  Rb11  1  0.75000000  0.13923500  0.12444400  1
  Sc  Sc0  1  0.00010000  0.31082100  0.44638200  1
  Sc  Sc1  1  0.49990000  0.81082100  0.05361800  1
  Sc  Sc2  1  0.50010000  0.68917900  0.55361800  1
  Sc  Sc3  1  0.99990000  0.18917900  0.94638200  1
  Sc  Sc4  1  0.99990000  0.68917900  0.55361800  1
  Sc  Sc5  1  0.50010000  0.18917900  0.94638200  1
  Sc  Sc6  1  0.49990000  0.31082100  0.44638200  1
  Sc  Sc7  1  0.00010000  0.81082100  0.05361800  1
  Si  Si0  1  0.43686800  0.06983100  0.32105900  1
  Si  Si1  1  0.06313200  0.56983100  0.17894100  1
  Si  Si2  1  0.93686800  0.93016900  0.67894100  1
  Si  Si3  1  0.56313200  0.43016900  0.82105900  1
  Si  Si4  1  0.56313200  0.93016900  0.67894100  1
  Si  Si5  1  0.93686800  0.43016900  0.82105900  1
  Si  Si6  1  0.06313200  0.06983100  0.32105900  1
  Si  Si7  1  0.43686800  0.56983100  0.17894100  1
  Si  Si8  1  0.06281400  0.16289700  0.77505600  1
  Si  Si9  1  0.43718600  0.66289700  0.72494400  1
  Si  Si10  1  0.56281400  0.83710300  0.22494400  1
  Si  Si11  1  0.93718600  0.33710300  0.27505600  1
  Si  Si12  1  0.93718600  0.83710300  0.22494400  1
  Si  Si13  1  0.56281400  0.33710300  0.27505600  1
  Si  Si14  1  0.43718600  0.16289700  0.77505600  1
  Si  Si15  1  0.06281400  0.66289700  0.72494400  1
  O  O0  1  0.25000000  0.02103500  0.31792400  1
  O  O1  1  0.25000000  0.52103500  0.18207600  1
  O  O2  1  0.75000000  0.97896500  0.68207600  1
  O  O3  1  0.75000000  0.47896500  0.81792400  1
  O  O4  1  0.25000000  0.21190300  0.77243800  1
  O  O5  1  0.25000000  0.71190300  0.72756200  1
  O  O6  1  0.75000000  0.78809700  0.22756200  1
  O  O7  1  0.75000000  0.28809700  0.27243800  1
  O  O8  1  0.01093300  0.12247200  0.39911900  1
  O  O9  1  0.48906700  0.62247200  0.10088100  1
  O  O10  1  0.51093300  0.87752800  0.60088100  1
  O  O11  1  0.98906700  0.37752800  0.89911900  1
  O  O12  1  0.98906700  0.87752800  0.60088100  1
  O  O13  1  0.51093300  0.37752800  0.89911900  1
  O  O14  1  0.48906700  0.12247200  0.39911900  1
  O  O15  1  0.01093300  0.62247200  0.10088100  1
  O  O16  1  0.01550300  0.08905600  0.84910100  1
  O  O17  1  0.48449700  0.58905500  0.65089900  1
  O  O18  1  0.51550300  0.91094500  0.15089900  1
  O  O19  1  0.98449700  0.41094400  0.34910100  1
  O  O20  1  0.98449700  0.91094500  0.15089900  1
  O  O21  1  0.51550300  0.41094400  0.34910100  1
  O  O22  1  0.48449700  0.08905600  0.84910100  1
  O  O23  1  0.01550300  0.58905500  0.65089900  1
  O  O24  1  0.03816700  0.06541900  0.70444300  1
  O  O25  1  0.46183300  0.56541900  0.79555700  1
  O  O26  1  0.53816700  0.93458100  0.29555700  1
  O  O27  1  0.96183300  0.43458100  0.20444300  1
  O  O28  1  0.96183300  0.93458100  0.29555700  1
  O  O29  1  0.53816700  0.43458100  0.20444300  1
  O  O30  1  0.46183300  0.06541900  0.70444300  1
  O  O31  1  0.03816700  0.56541900  0.79555700  1
  O  O32  1  0.03831100  0.19320000  0.26051700  1
  O  O33  1  0.46168900  0.69320000  0.23948300  1
  O  O34  1  0.53831100  0.80680000  0.73948300  1
  O  O35  1  0.96168900  0.30680000  0.76051700  1
  O  O36  1  0.96168900  0.80680000  0.73948300  1
  O  O37  1  0.53831100  0.30680000  0.76051700  1
  O  O38  1  0.46168900  0.19320000  0.26051700  1
  O  O39  1  0.03831100  0.69320000  0.23948300  1
  F  F0  1  0.00000000  0.00000000  0.00000000  1
  F  F1  1  0.50000000  0.50000000  0.50000000  1
  F  F2  1  0.50000000  0.00000000  0.00000000  1
  F  F3  1  0.00000000  0.50000000  0.50000000  1
  F  F4  1  0.25000000  0.32503700  0.45095900  1
  F  F5  1  0.25000000  0.82503700  0.04904100  1
  F  F6  1  0.75000000  0.67496300  0.54904100  1
  F  F7  1  0.75000000  0.17496300  0.95095900  1
  F  F8  1  0.25000000  0.19040400  0.95761900  1
  F  F9  1  0.25000000  0.69040400  0.54238100  1
  F  F10  1  0.75000000  0.80959600  0.04238100  1
  F  F11  1  0.75000000  0.30959600  0.45761900  1
  F  F12  1  0.00534400  0.22399600  0.54451400  1
  F  F13  1  0.49465600  0.72399600  0.95548600  1
  F  F14  1  0.50534400  0.77600400  0.45548600  1
  F  F15  1  0.99465600  0.27600400  0.04451400  1
  F  F16  1  0.99465600  0.77600400  0.45548600  1
  F  F17  1  0.50534400  0.27600400  0.04451400  1
  F  F18  1  0.49465600  0.22399600  0.54451400  1
  F  F19  1  0.00534400  0.72399600  0.95548600  1
loop_
_geom_bond_atom_site_label_1
_geom_bond_atom_site_label_2
_geom_bond_distance
_geom_bond_site_symmetry_2
O0 Si0 1.640506 1_555
O0 Si6 1.640506 1_555
O1 Si7 1.640506 1_555
O1 Si1 1.640506 1_555
O2 Si4 1.640506 1_555
O2 Si2 1.640506 1_555
O3 Si3 1.640506 1_555
O3 Si5 1.640506 1_555
O4 Si14 1.643337 1_555
O4 Si8 1.643337 1_555
O4 Rb8 3.128314 1_555
O5 Si15 1.643337 1_555
O5 Si9 1.643337 1_555
O5 Rb9 3.128314 1_555
O6 Si10 1.643337 1_555
O6 Si12 1.643337 1_555
O6 Rb10 3.128314 1_555
O7 Si13 1.643337 1_555
O7 Si11 1.643337 1_555
O7 Rb11 3.128314 1_555
O8 Si6 1.609830 1_555
O8 Sc0 2.041724 1_555
O8 Rb2 3.002398 1_445
O8 Rb0 3.153749 1_555
O9 Si7 1.609830 1_555
O9 Sc1 2.041724 1_555
O9 Rb3 3.002398 1_555
O9 Rb1 3.153749 1_554
O10 Si4 1.609830 1_555
O10 Sc2 2.041724 1_555
O10 Rb0 3.002398 1_565
O10 Rb2 3.153749 1_555
O11 Si5 1.609830 1_555
O11 Sc3 2.041724 1_555
O11 Rb1 3.002398 1_655
O11 Rb3 3.153749 1_556
O12 Si2 1.609830 1_555
O12 Sc4 2.041724 1_555
O12 Rb0 3.002398 1_665
O12 Rb2 3.153749 1_555
O13 Si3 1.609830 1_555
O13 Sc5 2.041724 1_555
O13 Rb1 3.002398 1_555
O13 Rb3 3.153749 1_556
O14 Si0 1.609830 1_555
O14 Sc6 2.041724 1_555
O14 Rb2 3.002398 1_545
O14 Rb0 3.153749 1_555
O15 Si1 1.609830 1_555
O15 Sc7 2.041724 1_555
O15 Rb3 3.002398 1_455
O15 Rb1 3.153749 1_554
O16 Si8 1.611988 1_555
O16 Sc3 2.070868 1_455
O16 Rb9 3.013748 1_545
O16 Rb6 3.197600 1_445
O17 Si9 1.611993 1_555
O17 Sc2 2.070872 1_555
O17 Rb8 3.013741 1_555
O17 Rb7 3.197593 1_555
O18 Si10 1.611993 1_555
O18 Sc1 2.070872 1_555
O18 Rb11 3.013741 1_565
O18 Rb4 3.197593 1_565
O19 Si11 1.611988 1_555
O19 Sc0 2.070868 1_655
O19 Rb10 3.013748 1_555
O19 Rb5 3.197600 1_655
O20 Si12 1.611993 1_555
O20 Sc7 2.070872 1_655
O20 Rb11 3.013741 1_565
O20 Rb4 3.197593 1_665
O21 Si13 1.611988 1_555
O21 Sc6 2.070868 1_555
O21 Rb10 3.013748 1_555
O21 Rb5 3.197600 1_555
O22 Si14 1.611988 1_555
O22 Sc5 2.070868 1_555
O22 Rb9 3.013748 1_545
O22 Rb6 3.197600 1_545
O23 Si15 1.611993 1_555
O23 Sc4 2.070872 1_455
O23 Rb8 3.013741 1_555
O23 Rb7 3.197593 1_455
O24 Si2 1.640950 1_445
O24 Si8 1.641671 1_555
O25 Si3 1.640950 1_555
O25 Si9 1.641671 1_555
O26 Si0 1.640950 1_565
O26 Si10 1.641671 1_555
O27 Si1 1.640950 1_655
O27 Si11 1.641671 1_555
O28 Si6 1.640950 1_665
O28 Si12 1.641671 1_555
O29 Si7 1.640950 1_555
O29 Si13 1.641671 1_555
O30 Si4 1.640950 1_545
O30 Si14 1.641671 1_555
O31 Si5 1.640950 1_455
O31 Si15 1.641671 1_555
O32 Si11 1.663234 1_455
O32 Si6 1.666467 1_555
O32 Rb4 3.064708 1_555
O33 Si10 1.663234 1_555
O33 Si7 1.666467 1_555
O33 Rb5 3.064708 1_555
O34 Si9 1.663234 1_555
O34 Si4 1.666467 1_555
O34 Rb6 3.064708 1_555
O35 Si8 1.663234 1_655
O35 Si5 1.666467 1_555
O35 Rb7 3.064708 1_555
O36 Si15 1.663234 1_655
O36 Si2 1.666467 1_555
O36 Rb6 3.064708 1_555
O37 Si14 1.663234 1_555
O37 Si3 1.666467 1_555
O37 Rb7 3.064708 1_555
O38 Si13 1.663234 1_555
O38 Si0 1.666467 1_555
O38 Rb4 3.064708 1_555
O39 Si12 1.663234 1_455
O39 Si1 1.666467 1_555
O39 Rb5 3.064708 1_555
F0 Sc7 2.101166 1_545
F0 Sc3 2.101166 1_454
F1 Sc6 2.101166 1_555
F1 Sc2 2.101166 1_555
F2 Sc1 2.101166 1_545
F2 Sc5 2.101166 1_554
F3 Sc0 2.101166 1_555
F3 Sc4 2.101166 1_455
F4 Sc6 2.104291 1_555
F4 Sc0 2.104291 1_555
F4 Rb0 3.329906 1_555
F5 Sc1 2.104291 1_555
F5 Sc7 2.104291 1_555
F5 Rb1 3.329906 1_554
F6 Sc4 2.104291 1_555
F6 Sc2 2.104291 1_555
F6 Rb2 3.329906 1_555
F7 Sc3 2.104291 1_555
F7 Sc5 2.104291 1_555
F7 Rb3 3.329906 1_556
F8 Sc3 2.110191 1_455
F8 Sc5 2.110191 1_555
F8 Rb1 3.124028 1_555
F8 Rb4 3.257428 1_556
F9 Sc4 2.110191 1_455
F9 Sc2 2.110191 1_555
F9 Rb0 3.124028 1_565
F9 Rb5 3.257428 1_555
F10 Sc1 2.110191 1_555
F10 Sc7 2.110191 1_655
F10 Rb3 3.124028 1_555
F10 Rb6 3.257428 1_554
F11 Sc0 2.110191 1_655
F11 Sc6 2.110191 1_555
F11 Rb2 3.124028 1_545
F11 Rb7 3.257428 1_555
F12 Sc0 2.023580 1_555
F12 Rb8 2.870331 1_555
F12 Rb7 2.973945 1_455
F12 Rb0 3.012239 1_555
F12 Rb2 3.290413 1_445
F13 Sc1 2.023580 1_556
F13 Rb9 2.870331 1_555
F13 Rb6 2.973945 1_555
F13 Rb1 3.012239 1_555
F13 Rb3 3.290413 1_556
F14 Sc2 2.023580 1_555
F14 Rb10 2.870331 1_555
F14 Rb5 2.973945 1_555
F14 Rb2 3.012239 1_555
F14 Rb0 3.290413 1_565
F15 Sc3 2.023580 1_554
F15 Rb11 2.870331 1_555
F15 Rb4 2.973945 1_655
F15 Rb3 3.012239 1_555
F15 Rb1 3.290413 1_654
F16 Sc4 2.023580 1_555
F16 Rb10 2.870331 1_555
F16 Rb5 2.973945 1_655
F16 Rb2 3.012239 1_555
F16 Rb0 3.290413 1_665
F17 Sc5 2.023580 1_554
F17 Rb11 2.870331 1_555
F17 Rb4 2.973945 1_555
F17 Rb3 3.012239 1_555
F17 Rb1 3.290413 1_554
F18 Sc6 2.023580 1_555
F18 Rb8 2.870331 1_555
F18 Rb7 2.973945 1_555
F18 Rb0 3.012239 1_555
F18 Rb2 3.290413 1_545
F19 Sc7 2.023580 1_556
F19 Rb9 2.870331 1_555
F19 Rb6 2.973945 1_455
F19 Rb1 3.012239 1_555
F19 Rb3 3.290413 1_456
