# generated using pymatgen
data_Mg6ZrAl
_symmetry_space_group_name_H-M   'P 1'
_cell_length_a   5.03681300
_cell_length_b   6.10683400
_cell_length_c   11.23139800
_cell_angle_alpha   90.00000000
_cell_angle_beta   90.00000000
_cell_angle_gamma   90.00000000
_symmetry_Int_Tables_number   1
_chemical_formula_structural   Mg6ZrAl
_chemical_formula_sum   'Mg12 Zr2 Al2'
_cell_volume   345.46635634
_cell_formula_units_Z   2
loop_
 _symmetry_equiv_pos_site_id
 _symmetry_equiv_pos_as_xyz
  1  'x, y, z'
loop_
 _atom_site_type_symbol
 _atom_site_label
 _atom_site_symmetry_multiplicity
 _atom_site_fract_x
 _atom_site_fract_y
 _atom_site_fract_z
 _atom_site_occupancy
  Mg  Mg0  1  0.50000000  0.25070600  0.41996900  1
  Mg  Mg1  1  0.50000000  0.74929400  0.41996900  1
  Mg  Mg2  1  0.00000000  0.74837500  0.08236400  1
  Mg  Mg3  1  0.00000000  0.25162500  0.08236400  1
  Mg  Mg4  1  0.00000000  0.00000000  0.32681800  1
  Mg  Mg5  1  0.00000000  0.50000000  0.32973300  1
  Mg  Mg6  1  0.50000000  0.75070600  0.91996900  1
  Mg  Mg7  1  0.50000000  0.24929400  0.91996900  1
  Mg  Mg8  1  0.00000000  0.24837500  0.58236400  1
  Mg  Mg9  1  0.00000000  0.75162500  0.58236400  1
  Mg  Mg10  1  0.00000000  0.50000000  0.82681800  1
  Mg  Mg11  1  0.00000000  0.00000000  0.82973300  1
  Zr  Zr0  1  0.50000000  0.50000000  0.17235300  1
  Zr  Zr1  1  0.50000000  0.00000000  0.67235300  1
  Al  Al0  1  0.50000000  0.00000000  0.16642500  1
  Al  Al1  1  0.50000000  0.50000000  0.66642500  1
loop_
_geom_bond_atom_site_label_1
_geom_bond_atom_site_label_2
_geom_bond_distance
_geom_bond_site_symmetry_2
Mg0 Mg1 3.044794 1_555
Mg0 Mg1 3.062040 1_545
Mg0 Mg8 3.109545 1_555
Mg0 Mg8 3.109545 1_655
Mg0 Mg5 3.112426 1_555
Mg0 Mg5 3.112426 1_655
Mg0 Mg4 3.127453 1_555
Mg0 Mg4 3.127453 1_655
Mg0 Zr0 3.170499 1_555
Mg0 Zr1 3.221664 1_555
Mg1 Mg9 3.109545 1_555
Mg1 Mg9 3.109545 1_655
Mg1 Mg5 3.112426 1_555
Mg1 Mg5 3.112426 1_655
Mg1 Mg4 3.127453 1_565
Mg1 Mg4 3.127453 1_665
Mg1 Zr0 3.170499 1_555
Mg1 Zr1 3.221664 1_565
Mg2 Mg3 3.033570 1_555
Mg2 Mg3 3.073264 1_565
Mg2 Zr0 3.108782 1_455
Mg2 Zr0 3.108782 1_555
Mg2 Mg6 3.109545 1_554
Mg2 Mg6 3.109545 1_454
Mg2 Mg4 3.146321 1_565
Mg2 Mg5 3.165373 1_555
Mg3 Zr0 3.108782 1_555
Mg3 Zr0 3.108782 1_455
Mg3 Mg7 3.109545 1_554
Mg3 Mg7 3.109545 1_454
Mg3 Mg4 3.146321 1_555
Mg3 Mg5 3.165373 1_555
Mg4 Mg5 3.053593 1_545
Mg4 Mg5 3.053593 1_555
Mg4 Mg8 3.246280 1_555
Mg4 Mg9 3.246280 1_545
Mg5 Zr0 3.076812 1_455
Mg5 Zr0 3.076812 1_555
Mg5 Mg9 3.226774 1_555
Mg5 Mg8 3.226774 1_555
Mg6 Mg7 3.044794 1_565
Mg6 Mg7 3.062040 1_555
Mg6 Zr1 3.170499 1_565
Mg6 Zr0 3.221664 1_556
Mg7 Zr1 3.170499 1_555
Mg7 Zr0 3.221664 1_556
Mg8 Mg9 3.033570 1_545
Mg8 Mg9 3.073264 1_555
Mg8 Zr1 3.108782 1_455
Mg8 Zr1 3.108782 1_555
Mg9 Zr1 3.108782 1_565
Mg9 Zr1 3.108782 1_465
Mg10 Mg11 3.053593 1_555
Mg10 Mg11 3.053593 1_565
Mg10 Mg7 3.127453 1_555
Mg10 Mg6 3.127453 1_455
Mg10 Mg6 3.127453 1_555
Mg10 Mg7 3.127453 1_455
Mg10 Mg9 3.146321 1_555
Mg10 Mg8 3.146321 1_555
Mg10 Mg3 3.246280 1_556
Mg10 Mg2 3.246280 1_556
Mg11 Zr1 3.076812 1_455
Mg11 Zr1 3.076812 1_555
Mg11 Mg7 3.112426 1_555
Mg11 Mg7 3.112426 1_455
Mg11 Mg6 3.112426 1_545
Mg11 Mg6 3.112426 1_445
Mg11 Mg8 3.165373 1_555
Mg11 Mg9 3.165373 1_545
Mg11 Mg2 3.226774 1_546
Mg11 Mg3 3.226774 1_556
Al0 Zr0 3.054143 1_545
Al0 Zr0 3.054143 1_555
Al0 Mg4 3.096377 1_555
Al0 Mg4 3.096377 1_655
Al0 Mg2 3.097576 1_545
Al0 Mg3 3.097576 1_555
Al0 Mg3 3.097576 1_655
Al0 Mg2 3.097576 1_645
Al0 Mg7 3.159077 1_554
Al0 Mg6 3.159077 1_544
Al0 Mg1 3.233134 1_545
Al0 Mg0 3.233134 1_555
Al1 Zr1 3.054143 1_565
Al1 Zr1 3.054143 1_555
Al1 Mg10 3.096377 1_655
Al1 Mg10 3.096377 1_555
Al1 Mg9 3.097576 1_655
Al1 Mg9 3.097576 1_555
Al1 Mg8 3.097576 1_555
Al1 Mg8 3.097576 1_655
Al1 Mg1 3.159077 1_555
Al1 Mg0 3.159077 1_555
Al1 Mg7 3.233134 1_555
Al1 Mg6 3.233134 1_555
