# generated using pymatgen
data_Na2Co3O4
_symmetry_space_group_name_H-M   'P 1'
_cell_length_a   7.58195436
_cell_length_b   7.58195436
_cell_length_c   5.66491190
_cell_angle_alpha   74.23256174
_cell_angle_beta   74.23256174
_cell_angle_gamma   48.89408486
_symmetry_Int_Tables_number   1
_chemical_formula_structural   Na2Co3O4
_chemical_formula_sum   'Na4 Co6 O8'
_cell_volume   234.19178971
_cell_formula_units_Z   2
loop_
 _symmetry_equiv_pos_site_id
 _symmetry_equiv_pos_as_xyz
  1  'x, y, z'
loop_
 _atom_site_type_symbol
 _atom_site_label
 _atom_site_symmetry_multiplicity
 _atom_site_fract_x
 _atom_site_fract_y
 _atom_site_fract_z
 _atom_site_occupancy
  Na  Na0  1  0.76162800  0.99992900  0.97561600  1
  Na  Na1  1  0.99992900  0.76162800  0.47561600  1
  Na  Na2  1  0.00007100  0.23837200  0.52438400  1
  Na  Na3  1  0.23837200  0.00007100  0.02438400  1
  Co  Co0  1  0.43843200  0.19542900  0.57370500  1
  Co  Co1  1  0.19542900  0.43843200  0.07370500  1
  Co  Co2  1  0.80457100  0.56156800  0.92629500  1
  Co  Co3  1  0.56156800  0.80457100  0.42629500  1
  Co  Co4  1  0.48213700  0.51786300  0.75000000  1
  Co  Co5  1  0.51786300  0.48213700  0.25000000  1
  O  O0  1  0.67215100  0.24496800  0.54421000  1
  O  O1  1  0.24496800  0.67215100  0.04421000  1
  O  O2  1  0.13791300  0.40183100  0.76915200  1
  O  O3  1  0.59816900  0.86208700  0.73084800  1
  O  O4  1  0.40183100  0.13791300  0.26915200  1
  O  O5  1  0.86208700  0.59816900  0.23084800  1
  O  O6  1  0.75503200  0.32784900  0.95579000  1
  O  O7  1  0.32784900  0.75503200  0.45579000  1
loop_
_geom_bond_atom_site_label_1
_geom_bond_atom_site_label_2
_geom_bond_distance
_geom_bond_site_symmetry_2
Na0 O6 2.425794 1_565
Na0 O4 2.455374 1_566
Na0 O0 2.580822 1_565
Na0 O5 2.665276 1_556
Na0 O3 2.824086 1_555
Na0 O1 2.833838 1_656
Na1 O7 2.425794 1_655
Na1 O2 2.455374 1_655
Na1 O1 2.580822 1_655
Na1 O3 2.665276 1_555
Na1 O5 2.824086 1_555
Na1 O0 2.833838 1_565
Na2 O0 2.425794 1_455
Na2 O5 2.455374 1_455
Na2 O6 2.580822 1_455
Na2 O4 2.665276 1_555
Na2 O2 2.824086 1_555
Na2 O7 2.833838 1_545
Na3 O1 2.425794 1_545
Na3 O3 2.455374 1_544
Na3 O7 2.580822 1_545
Na3 O2 2.665276 1_554
Na3 O4 2.824086 1_555
Na3 O6 2.833838 1_454
Co0 O2 1.936119 1_555
Co0 O3 1.996311 1_545
Co0 O0 1.997325 1_555
Co0 O4 2.017902 1_555
Co1 O4 1.936119 1_555
Co1 O5 1.996311 1_455
Co1 O1 1.997325 1_555
Co1 O2 2.017902 1_554
Co2 O3 1.936119 1_555
Co2 O2 1.996311 1_655
Co2 O6 1.997325 1_555
Co2 O5 2.017902 1_556
Co3 O5 1.936119 1_555
Co3 O4 1.996311 1_565
Co3 O7 1.997325 1_555
Co3 O3 2.017902 1_555
Co4 O7 2.011125 1_555
Co4 O1 2.011125 1_556
Co4 O0 2.047985 1_555
Co4 O6 2.047985 1_555
Co5 O6 2.011125 1_554
Co5 O0 2.011125 1_555
Co5 O1 2.047985 1_555
Co5 O7 2.047985 1_555
