# generated using pymatgen
data_SrTb2O4
_symmetry_space_group_name_H-M   'P 1'
_cell_length_a   3.43159163
_cell_length_b   10.08804752
_cell_length_c   11.96403015
_cell_angle_alpha   90.00000000
_cell_angle_beta   90.00000000
_cell_angle_gamma   90.00000000
_symmetry_Int_Tables_number   1
_chemical_formula_structural   SrTb2O4
_chemical_formula_sum   'Sr4 Tb8 O16'
_cell_volume   414.17150679
_cell_formula_units_Z   4
loop_
 _symmetry_equiv_pos_site_id
 _symmetry_equiv_pos_as_xyz
  1  'x, y, z'
loop_
 _atom_site_type_symbol
 _atom_site_label
 _atom_site_symmetry_multiplicity
 _atom_site_fract_x
 _atom_site_fract_y
 _atom_site_fract_z
 _atom_site_occupancy
  Sr  Sr0  1  0.75000000  0.25170073  0.85039191  1
  Sr  Sr1  1  0.25000000  0.74829927  0.14960809  1
  Sr  Sr2  1  0.75000000  0.75170073  0.64960809  1
  Sr  Sr3  1  0.25000000  0.24829927  0.35039191  1
  Tb  Tb0  1  0.25000000  0.57622633  0.88859900  1
  Tb  Tb1  1  0.75000000  0.42377367  0.11140100  1
  Tb  Tb2  1  0.25000000  0.07622633  0.61140100  1
  Tb  Tb3  1  0.75000000  0.92377367  0.38859900  1
  Tb  Tb4  1  0.75000000  0.92091386  0.88839072  1
  Tb  Tb5  1  0.25000000  0.07908614  0.11160928  1
  Tb  Tb6  1  0.75000000  0.42091386  0.61160928  1
  Tb  Tb7  1  0.25000000  0.57908614  0.38839072  1
  O  O0  1  0.25000000  0.57363426  0.57803032  1
  O  O1  1  0.75000000  0.42636574  0.42196968  1
  O  O2  1  0.25000000  0.07363426  0.92196968  1
  O  O3  1  0.75000000  0.92636574  0.07803032  1
  O  O4  1  0.25000000  0.48601989  0.21665036  1
  O  O5  1  0.75000000  0.51398011  0.78334964  1
  O  O6  1  0.25000000  0.98601989  0.28334964  1
  O  O7  1  0.75000000  0.01398011  0.71665036  1
  O  O8  1  0.25000000  0.87266040  0.51937594  1
  O  O9  1  0.75000000  0.12733960  0.48062406  1
  O  O10  1  0.25000000  0.37266040  0.98062406  1
  O  O11  1  0.75000000  0.62733960  0.01937594  1
  O  O12  1  0.75000000  0.71236655  0.32308773  1
  O  O13  1  0.25000000  0.28763345  0.67691227  1
  O  O14  1  0.75000000  0.21236655  0.17691227  1
  O  O15  1  0.25000000  0.78763345  0.82308773  1
loop_
_geom_bond_atom_site_label_1
_geom_bond_atom_site_label_2
_geom_bond_distance
_geom_bond_site_symmetry_2
O0 Tb7 2.269520 1_555
O0 Tb6 2.340717 1_455
O0 Tb6 2.340717 1_555
O0 Sr2 2.627576 1_455
O0 Sr2 2.627576 1_555
O1 Tb6 2.269520 1_555
O1 Tb7 2.340717 1_555
O1 Tb7 2.340717 1_655
O1 Sr3 2.627576 1_555
O1 Sr3 2.627576 1_655
O2 Tb5 2.269520 1_556
O2 Tb4 2.340717 1_545
O2 Tb4 2.340717 1_445
O2 Sr0 2.627576 1_455
O2 Sr0 2.627576 1_555
O3 Tb4 2.269520 1_554
O3 Tb5 2.340717 1_565
O3 Tb5 2.340717 1_665
O3 Sr1 2.627576 1_655
O3 Sr1 2.627576 1_555
O4 Tb1 2.218979 1_455
O4 Tb1 2.218979 1_555
O4 Tb7 2.259042 1_555
O4 Sr1 2.764792 1_555
O4 Sr3 2.882940 1_555
O5 Tb0 2.218979 1_555
O5 Tb0 2.218979 1_655
O5 Tb6 2.259042 1_555
O5 Sr0 2.764792 1_555
O5 Sr2 2.882940 1_555
O6 Tb3 2.218979 1_455
O6 Tb3 2.218979 1_555
O6 Tb5 2.259042 1_565
O6 Sr3 2.764792 1_565
O6 Sr1 2.882940 1_555
O7 Tb2 2.218979 1_555
O7 Tb2 2.218979 1_655
O7 Tb4 2.259042 1_545
O7 Sr2 2.764792 1_545
O7 Sr0 2.882940 1_555
O8 Tb2 2.330104 1_565
O8 Tb3 2.378627 1_455
O8 Tb3 2.378627 1_555
O8 Sr2 2.619282 1_455
O8 Sr2 2.619282 1_555
O9 Tb3 2.330104 1_545
O9 Tb2 2.378627 1_655
O9 Tb2 2.378627 1_555
O9 Sr3 2.619282 1_555
O9 Sr3 2.619282 1_655
O10 Tb0 2.330104 1_555
O10 Tb1 2.378627 1_556
O10 Tb1 2.378627 1_456
O10 Sr0 2.619282 1_455
O10 Sr0 2.619282 1_555
O11 Tb1 2.330104 1_555
O11 Tb0 2.378627 1_554
O11 Tb0 2.378627 1_654
O11 Sr1 2.619282 1_555
O11 Sr1 2.619282 1_655
O12 Tb3 2.272148 1_555
O12 Tb7 2.315632 1_555
O12 Tb7 2.315632 1_655
O12 Sr1 2.717190 1_555
O12 Sr1 2.717190 1_655
O13 Tb2 2.272148 1_555
O13 Tb6 2.315632 1_455
O13 Tb6 2.315632 1_555
O13 Sr0 2.717190 1_555
O13 Sr0 2.717190 1_455
O14 Tb1 2.272148 1_555
O14 Tb5 2.315632 1_555
O14 Tb5 2.315632 1_655
O14 Sr3 2.717190 1_555
O14 Sr3 2.717190 1_655
O15 Tb0 2.272148 1_555
O15 Tb4 2.315632 1_455
O15 Tb4 2.315632 1_555
O15 Sr2 2.717190 1_455
O15 Sr2 2.717190 1_555
