# generated using pymatgen
data_Mg4AlSi3
_symmetry_space_group_name_H-M   'P 1'
_cell_length_a   6.55929200
_cell_length_b   6.55929200
_cell_length_c   13.82055700
_cell_angle_alpha   90.00000000
_cell_angle_beta   90.00000000
_cell_angle_gamma   90.00000000
_symmetry_Int_Tables_number   1
_chemical_formula_structural   Mg4AlSi3
_chemical_formula_sum   'Mg16 Al4 Si12'
_cell_volume   594.61995004
_cell_formula_units_Z   4
loop_
 _symmetry_equiv_pos_site_id
 _symmetry_equiv_pos_as_xyz
  1  'x, y, z'
loop_
 _atom_site_type_symbol
 _atom_site_label
 _atom_site_symmetry_multiplicity
 _atom_site_fract_x
 _atom_site_fract_y
 _atom_site_fract_z
 _atom_site_occupancy
  Mg  Mg0  1  0.81622500  0.15554200  0.09708800  1
  Mg  Mg1  1  0.18377500  0.15554200  0.59708800  1
  Mg  Mg2  1  0.81622500  0.84445800  0.59708800  1
  Mg  Mg3  1  0.18377500  0.84445800  0.09708800  1
  Mg  Mg4  1  0.65554200  0.31622500  0.59708800  1
  Mg  Mg5  1  0.34445800  0.31622500  0.09708800  1
  Mg  Mg6  1  0.65554200  0.68377500  0.09708800  1
  Mg  Mg7  1  0.34445800  0.68377500  0.59708800  1
  Mg  Mg8  1  0.68377500  0.34445800  0.90291200  1
  Mg  Mg9  1  0.31622500  0.34445800  0.40291200  1
  Mg  Mg10  1  0.68377500  0.65554200  0.40291200  1
  Mg  Mg11  1  0.31622500  0.65554200  0.90291200  1
  Mg  Mg12  1  0.84445800  0.18377500  0.40291200  1
  Mg  Mg13  1  0.15554200  0.18377500  0.90291200  1
  Mg  Mg14  1  0.84445800  0.81622500  0.90291200  1
  Mg  Mg15  1  0.15554200  0.81622500  0.40291200  1
  Al  Al0  1  0.00000000  0.50000000  0.21874300  1
  Al  Al1  1  0.00000000  0.50000000  0.71874300  1
  Al  Al2  1  0.50000000  0.00000000  0.78125700  1
  Al  Al3  1  0.50000000  0.00000000  0.28125700  1
  Si  Si0  1  0.00000000  0.50000000  0.01623600  1
  Si  Si1  1  0.00000000  0.50000000  0.51623600  1
  Si  Si2  1  0.50000000  0.00000000  0.98376400  1
  Si  Si3  1  0.50000000  0.00000000  0.48376400  1
  Si  Si4  1  0.63268000  0.36732000  0.25000000  1
  Si  Si5  1  0.36732000  0.36732000  0.75000000  1
  Si  Si6  1  0.63268000  0.63268000  0.75000000  1
  Si  Si7  1  0.36732000  0.63268000  0.25000000  1
  Si  Si8  1  0.86732000  0.13268000  0.75000000  1
  Si  Si9  1  0.13268000  0.13268000  0.25000000  1
  Si  Si10  1  0.86732000  0.86732000  0.25000000  1
  Si  Si11  1  0.13268000  0.86732000  0.75000000  1
loop_
_geom_bond_atom_site_label_1
_geom_bond_atom_site_label_2
_geom_bond_distance
_geom_bond_site_symmetry_2
Mg0 Si2 2.792175 1_554
Mg0 Si0 2.794027 1_655
Mg0 Si4 2.800934 1_555
Mg0 Si10 2.855275 1_545
Mg0 Si9 2.966018 1_655
Mg1 Si3 2.792175 1_555
Mg1 Si1 2.794027 1_555
Mg1 Si5 2.800934 1_555
Mg1 Si11 2.855275 1_545
Mg1 Si8 2.966018 1_455
Mg2 Si3 2.792175 1_565
Mg2 Si1 2.794027 1_655
Mg2 Si6 2.800934 1_555
Mg2 Si8 2.855275 1_565
Mg2 Si11 2.966018 1_655
Mg3 Si2 2.792175 1_564
Mg3 Si0 2.794027 1_555
Mg3 Si7 2.800934 1_555
Mg3 Si9 2.855275 1_565
Mg3 Si10 2.966018 1_455
Mg4 Si3 2.792175 1_555
Mg4 Si1 2.794027 1_655
Mg4 Si8 2.800934 1_555
Mg4 Si5 2.855275 1_555
Mg4 Si6 2.966018 1_555
Mg5 Si2 2.792175 1_554
Mg5 Si0 2.794027 1_555
Mg5 Si9 2.800934 1_555
Mg5 Si4 2.855275 1_555
Mg5 Si7 2.966018 1_555
Mg6 Si2 2.792175 1_564
Mg6 Si0 2.794027 1_655
Mg6 Si10 2.800934 1_555
Mg6 Si7 2.855275 1_555
Mg6 Si4 2.966018 1_555
Mg7 Si3 2.792175 1_565
Mg7 Si1 2.794027 1_555
Mg7 Si11 2.800934 1_555
Mg7 Si6 2.855275 1_555
Mg7 Si5 2.966018 1_555
Mg8 Si0 2.792175 1_656
Mg8 Si2 2.794027 1_555
Mg8 Si8 2.800934 1_555
Mg8 Si6 2.855275 1_555
Mg8 Si5 2.966018 1_555
Mg9 Si1 2.792175 1_555
Mg9 Si3 2.794027 1_555
Mg9 Si9 2.800934 1_555
Mg9 Si7 2.855275 1_555
Mg9 Si4 2.966018 1_555
Mg10 Si1 2.792175 1_655
Mg10 Si3 2.794027 1_565
Mg10 Si10 2.800934 1_555
Mg10 Si4 2.855275 1_555
Mg10 Si7 2.966018 1_555
Mg11 Si0 2.792175 1_556
Mg11 Si2 2.794027 1_565
Mg11 Si11 2.800934 1_555
Mg11 Si5 2.855275 1_555
Mg11 Si6 2.966018 1_555
Mg12 Si1 2.792175 1_655
Mg12 Si3 2.794027 1_555
Mg12 Si4 2.800934 1_555
Mg12 Si9 2.855275 1_655
Mg12 Si10 2.966018 1_545
Mg13 Si0 2.792175 1_556
Mg13 Si2 2.794027 1_555
Mg13 Si5 2.800934 1_555
Mg13 Si8 2.855275 1_455
Mg13 Si11 2.966018 1_545
Mg14 Si0 2.792175 1_656
Mg14 Si2 2.794027 1_565
Mg14 Si6 2.800934 1_555
Mg14 Si11 2.855275 1_655
Mg14 Si8 2.966018 1_565
Mg15 Si1 2.792175 1_555
Mg15 Si3 2.794027 1_565
Mg15 Si7 2.800934 1_555
Mg15 Si10 2.855275 1_455
Mg15 Si9 2.966018 1_565
Al0 Si7 2.597889 1_555
Al0 Si10 2.597889 1_455
Al0 Si9 2.597889 1_555
Al0 Si4 2.597889 1_455
Al0 Si0 2.798760 1_555
Al0 Mg6 3.063473 1_455
Al0 Mg0 3.063473 1_455
Al0 Mg5 3.063473 1_555
Al0 Mg3 3.063473 1_555
Al1 Si5 2.597889 1_555
Al1 Si11 2.597889 1_555
Al1 Si6 2.597889 1_455
Al1 Si8 2.597889 1_455
Al1 Si1 2.798760 1_555
Al1 Mg1 3.063473 1_555
Al1 Mg4 3.063473 1_455
Al1 Mg7 3.063473 1_555
Al1 Mg2 3.063473 1_455
Al2 Si5 2.597889 1_555
Al2 Si11 2.597889 1_545
Al2 Si8 2.597889 1_555
Al2 Si6 2.597889 1_545
Al2 Si2 2.798760 1_555
Al2 Mg13 3.063473 1_555
Al2 Mg14 3.063473 1_545
Al2 Mg8 3.063473 1_555
Al2 Mg11 3.063473 1_545
Al3 Si10 2.597889 1_545
Al3 Si4 2.597889 1_555
Al3 Si7 2.597889 1_545
Al3 Si9 2.597889 1_555
Al3 Si3 2.798760 1_555
Al3 Mg12 3.063473 1_555
Al3 Mg9 3.063473 1_555
Al3 Mg15 3.063473 1_545
Al3 Mg10 3.063473 1_545
Si4 Si7 2.461543 1_555
Si5 Si6 2.461543 1_555
Si10 Si9 2.461543 1_665
Si11 Si8 2.461543 1_465
