# generated using pymatgen
data_Mn5Si2Ge
_symmetry_space_group_name_H-M   'P 1'
_cell_length_a   6.97069668
_cell_length_b   6.97069668
_cell_length_c   4.85411500
_cell_angle_alpha   90.00000000
_cell_angle_beta   90.00000000
_cell_angle_gamma   119.97927680
_symmetry_Int_Tables_number   1
_chemical_formula_structural   Mn5Si2Ge
_chemical_formula_sum   'Mn10 Si4 Ge2'
_cell_volume   204.30722024
_cell_formula_units_Z   2
loop_
 _symmetry_equiv_pos_site_id
 _symmetry_equiv_pos_as_xyz
  1  'x, y, z'
loop_
 _atom_site_type_symbol
 _atom_site_label
 _atom_site_symmetry_multiplicity
 _atom_site_fract_x
 _atom_site_fract_y
 _atom_site_fract_z
 _atom_site_occupancy
  Mn  Mn0  1  0.66300700  0.33399000  0.24634400  1
  Mn  Mn1  1  0.33399000  0.66300700  0.24634400  1
  Mn  Mn2  1  0.33399000  0.66300700  0.75365600  1
  Mn  Mn3  1  0.66300700  0.33399000  0.75365600  1
  Mn  Mn4  1  0.24672400  0.00755900  0.50000000  1
  Mn  Mn5  1  0.00755900  0.24672400  0.50000000  1
  Mn  Mn6  1  0.74886600  0.74886600  0.50000000  1
  Mn  Mn7  1  0.75473300  0.99892100  0.00000000  1
  Mn  Mn8  1  0.99892100  0.75473300  0.00000000  1
  Mn  Mn9  1  0.24869200  0.24869200  0.00000000  1
  Si  Si0  1  0.39904300  0.39904300  0.50000000  1
  Si  Si1  1  0.39363100  0.99907800  0.00000000  1
  Si  Si2  1  0.99907800  0.39363100  0.00000000  1
  Si  Si3  1  0.60381800  0.60381800  0.00000000  1
  Ge  Ge0  1  0.60513000  0.00107700  0.50000000  1
  Ge  Ge1  1  0.00107700  0.60513000  0.50000000  1
loop_
_geom_bond_atom_site_label_1
_geom_bond_atom_site_label_2
_geom_bond_distance
_geom_bond_site_symmetry_2
Mn0 Si3 2.431751 1_555
Mn0 Si0 2.437453 1_555
Mn0 Si1 2.454597 1_545
Mn0 Si2 2.473341 1_555
Mn1 Si3 2.431751 1_555
Mn1 Si0 2.437453 1_555
Mn1 Si2 2.454597 1_455
Mn1 Si1 2.473341 1_555
Mn2 Si3 2.431751 1_556
Mn2 Si0 2.437453 1_555
Mn2 Si2 2.454597 1_456
Mn2 Si1 2.473341 1_556
Mn3 Si3 2.431751 1_556
Mn3 Si0 2.437453 1_555
Mn3 Si1 2.454597 1_546
Mn3 Si2 2.473341 1_556
Mn4 Si0 2.382997 1_555
Mn4 Si1 2.646369 1_545
Mn4 Si1 2.646369 1_546
Mn5 Si0 2.382997 1_555
Mn5 Si2 2.646369 1_456
Mn5 Si2 2.646369 1_455
Mn6 Si0 2.439274 1_555
Mn6 Si3 2.629362 1_556
Mn6 Si3 2.629362 1_555
Mn7 Si2 2.405804 1_565
Mn7 Si3 2.407587 1_555
Mn7 Si1 2.517680 1_555
Mn8 Si1 2.405804 1_655
Mn8 Si3 2.407587 1_555
Mn8 Si2 2.517680 1_555
Mn9 Si1 2.409388 1_545
Mn9 Si2 2.409388 1_455
Mn9 Si3 2.476251 1_555
Mn9 Si0 2.643806 1_554
Mn9 Si0 2.643806 1_555
Ge0 Mn6 2.419741 1_545
Ge0 Mn5 2.449662 1_655
Ge0 Mn0 2.475580 1_555
Ge0 Mn3 2.475580 1_555
Ge0 Mn2 2.488076 1_545
Ge0 Mn1 2.488076 1_545
Ge0 Mn4 2.521221 1_555
Ge0 Mn7 2.644618 1_545
Ge0 Mn7 2.644618 1_546
Ge1 Mn6 2.419741 1_455
Ge1 Mn4 2.449662 1_565
Ge1 Mn2 2.475580 1_555
Ge1 Mn1 2.475580 1_555
Ge1 Mn3 2.488076 1_455
Ge1 Mn0 2.488076 1_455
Ge1 Mn5 2.521221 1_555
Ge1 Mn8 2.644618 1_455
Ge1 Mn8 2.644618 1_456
