# generated using pymatgen
data_Mg14VCu
_symmetry_space_group_name_H-M   'P 1'
_cell_length_a   6.25959656
_cell_length_b   6.27222479
_cell_length_c   9.99336064
_cell_angle_alpha   90.00000000
_cell_angle_beta   90.00000000
_cell_angle_gamma   120.06676337
_symmetry_Int_Tables_number   1
_chemical_formula_structural   Mg14VCu
_chemical_formula_sum   'Mg14 V1 Cu1'
_cell_volume   339.56082798
_cell_formula_units_Z   1
loop_
 _symmetry_equiv_pos_site_id
 _symmetry_equiv_pos_as_xyz
  1  'x, y, z'
loop_
 _atom_site_type_symbol
 _atom_site_label
 _atom_site_symmetry_multiplicity
 _atom_site_fract_x
 _atom_site_fract_y
 _atom_site_fract_z
 _atom_site_occupancy
  Mg  Mg0  1  0.16880232  0.33440066  0.62500000  1
  Mg  Mg1  1  0.16997598  0.83498749  0.62500000  1
  Mg  Mg2  1  0.66923327  0.33948400  0.12500000  1
  Mg  Mg3  1  0.66478710  0.33179871  0.62500000  1
  Mg  Mg4  1  0.66923327  0.82974826  0.12500000  1
  Mg  Mg5  1  0.66478710  0.83298740  0.62500000  1
  Mg  Mg6  1  0.32560919  0.16376821  0.36046398  1
  Mg  Mg7  1  0.32560919  0.16376821  0.88953602  1
  Mg  Mg8  1  0.32560919  0.66184198  0.36046398  1
  Mg  Mg9  1  0.32560919  0.66184198  0.88953602  1
  Mg  Mg10  1  0.84042876  0.17021488  0.36574658  1
  Mg  Mg11  1  0.84042876  0.17021488  0.88425342  1
  Mg  Mg12  1  0.83967195  0.66983648  0.37243327  1
  Mg  Mg13  1  0.83967195  0.66983648  0.87756673  1
  V  V0  1  0.16276715  0.83138307  0.12500000  1
  Cu  Cu0  1  0.16777563  0.33388732  0.12500000  1
loop_
_geom_bond_atom_site_label_1
_geom_bond_atom_site_label_2
_geom_bond_distance
_geom_bond_site_symmetry_2
Mg0 Mg5 3.112873 1_555
Mg0 Mg3 3.112873 1_555
Mg0 Mg1 3.136119 1_555
Mg0 Mg1 3.136119 1_545
Mg0 Mg10 3.142740 1_455
Mg0 Mg11 3.142740 1_455
Mg0 Mg5 3.146787 1_445
Mg0 Mg3 3.146787 1_455
Mg0 Mg6 3.185925 1_555
Mg0 Mg7 3.185925 1_555
Mg0 Mg8 3.185931 1_555
Mg0 Mg9 3.185931 1_555
Mg1 Mg13 3.093921 1_455
Mg1 Mg12 3.093921 1_455
Mg1 Mg3 3.103622 1_565
Mg1 Mg5 3.103622 1_555
Mg1 Mg3 3.156012 1_455
Mg1 Mg5 3.156012 1_455
Mg1 Mg8 3.190180 1_555
Mg1 Mg9 3.190180 1_555
Mg1 Mg6 3.190186 1_565
Mg1 Mg7 3.190186 1_565
Mg2 Mg7 3.000472 1_554
Mg2 Mg6 3.000472 1_555
Mg2 Mg4 3.075048 1_555
Mg2 V0 3.084198 1_655
Mg2 V0 3.175423 1_545
Mg2 Mg4 3.197177 1_545
Mg3 Mg5 3.128657 1_545
Mg3 Mg5 3.143568 1_555
Mg3 Mg6 3.219457 1_555
Mg3 Mg7 3.219457 1_555
Mg4 Mg8 3.000472 1_555
Mg4 Mg9 3.000472 1_554
Mg4 V0 3.084198 1_655
Mg4 V0 3.175423 1_555
Mg5 Mg9 3.219457 1_555
Mg5 Mg8 3.219457 1_555
Mg6 V0 2.965297 1_545
Mg6 Mg8 3.124031 1_555
Mg6 Mg8 3.148194 1_545
Mg7 V0 2.965297 1_546
Mg7 Mg9 3.124031 1_555
Mg7 Mg9 3.148194 1_545
Mg8 V0 2.965291 1_555
Mg9 V0 2.965291 1_556
Mg10 Mg2 3.033772 1_555
Mg10 Mg4 3.033779 1_545
Mg10 Mg8 3.057948 1_655
Mg10 Mg6 3.057948 1_655
Mg10 Mg12 3.136827 1_545
Mg10 Mg12 3.136827 1_555
Mg10 Mg3 3.172504 1_555
Mg10 Mg5 3.172510 1_545
Mg10 Mg8 3.202931 1_545
Mg10 Mg6 3.202931 1_555
Mg11 Mg2 3.033772 1_556
Mg11 Mg4 3.033779 1_546
Mg11 Mg9 3.057948 1_655
Mg11 Mg7 3.057948 1_655
Mg11 Mg13 3.136827 1_545
Mg11 Mg13 3.136827 1_555
Mg11 Mg3 3.172504 1_555
Mg11 Mg5 3.172510 1_545
Mg11 Mg9 3.202931 1_545
Mg11 Mg7 3.202931 1_555
Mg12 V0 3.029485 1_655
Mg12 Mg4 3.054616 1_555
Mg12 Mg2 3.054622 1_555
Mg12 Mg6 3.069531 1_665
Mg12 Mg8 3.069532 1_655
Mg12 Mg5 3.120672 1_555
Mg12 Mg3 3.120678 1_555
Mg12 Mg6 3.195238 1_555
Mg12 Mg8 3.195238 1_555
Mg13 V0 3.029485 1_656
Mg13 Mg4 3.054616 1_556
Mg13 Mg2 3.054622 1_556
Mg13 Mg7 3.069531 1_665
Mg13 Mg9 3.069532 1_655
Mg13 Mg5 3.120672 1_555
Mg13 Mg3 3.120678 1_555
Mg13 Mg7 3.195238 1_555
Mg13 Mg9 3.195238 1_555
Cu0 Mg7 2.950920 1_554
Cu0 Mg6 2.950920 1_555
Cu0 Mg8 2.950926 1_555
Cu0 Mg9 2.950926 1_554
Cu0 Mg11 2.988803 1_454
Cu0 Mg10 2.988803 1_455
Cu0 Mg4 3.121483 1_555
Cu0 Mg2 3.121483 1_555
Cu0 V0 3.136230 1_555
Cu0 V0 3.136230 1_545
Cu0 Mg4 3.138408 1_445
Cu0 Mg2 3.138408 1_455
