# generated using pymatgen
data_CsLu3F10
_symmetry_space_group_name_H-M   'P 1'
_cell_length_a   7.85391702
_cell_length_b   7.85391702
_cell_length_c   15.94798607
_cell_angle_alpha   90.00000000
_cell_angle_beta   90.00000000
_cell_angle_gamma   115.02994336
_symmetry_Int_Tables_number   1
_chemical_formula_structural   CsLu3F10
_chemical_formula_sum   'Cs4 Lu12 F40'
_cell_volume   891.34999780
_cell_formula_units_Z   4
loop_
 _symmetry_equiv_pos_site_id
 _symmetry_equiv_pos_as_xyz
  1  'x, y, z'
loop_
 _atom_site_type_symbol
 _atom_site_label
 _atom_site_symmetry_multiplicity
 _atom_site_fract_x
 _atom_site_fract_y
 _atom_site_fract_z
 _atom_site_occupancy
  Cs  Cs0  1  0.00000000  -0.00000000  0.50000000  1
  Cs  Cs1  1  0.50000000  0.50000000  0.00000000  1
  Cs  Cs2  1  0.50000000  0.50000000  0.50000000  1
  Cs  Cs3  1  0.00000000  -0.00000000  0.00000000  1
  Lu  Lu0  1  0.24743566  0.25256434  0.75000000  1
  Lu  Lu1  1  0.75256434  0.74743566  0.25000000  1
  Lu  Lu2  1  0.25256434  0.24743566  0.25000000  1
  Lu  Lu3  1  0.74743566  0.75256434  0.75000000  1
  Lu  Lu4  1  0.51690327  0.98037330  0.61365540  1
  Lu  Lu5  1  0.48309673  0.01962670  0.38634460  1
  Lu  Lu6  1  0.98309673  0.51962670  0.11365540  1
  Lu  Lu7  1  0.51962670  0.98309673  0.88634460  1
  Lu  Lu8  1  0.01690327  0.48037330  0.88634460  1
  Lu  Lu9  1  0.48037330  0.01690327  0.11365540  1
  Lu  Lu10  1  0.98037330  0.51690327  0.38634460  1
  Lu  Lu11  1  0.01962670  0.48309673  0.61365540  1
  F  F0  1  0.49006881  0.50993119  0.73680238  1
  F  F1  1  0.50993119  0.49006881  0.26319762  1
  F  F2  1  0.00993119  0.99006881  0.23680238  1
  F  F3  1  0.99006881  0.00993119  0.76319762  1
  F  F4  1  0.56314712  0.93685288  0.75000000  1
  F  F5  1  0.43685288  0.06314712  0.25000000  1
  F  F6  1  0.93685288  0.56314712  0.25000000  1
  F  F7  1  0.06314712  0.43685288  0.75000000  1
  F  F8  1  0.34671109  0.09541627  0.67080492  1
  F  F9  1  0.65328891  0.90458373  0.32919508  1
  F  F10  1  0.15328891  0.40458373  0.17080492  1
  F  F11  1  0.40458373  0.15328891  0.82919508  1
  F  F12  1  0.84671109  0.59541627  0.82919508  1
  F  F13  1  0.59541627  0.84671109  0.17080492  1
  F  F14  1  0.09541627  0.34671109  0.32919508  1
  F  F15  1  0.90458373  0.65328891  0.67080492  1
  F  F16  1  0.26502876  0.73497124  0.88681410  1
  F  F17  1  0.73497124  0.26502876  0.11318590  1
  F  F18  1  0.23497124  0.76502876  0.38681410  1
  F  F19  1  0.76502876  0.23497124  0.61318590  1
  F  F20  1  0.28521992  0.71478008  0.60804442  1
  F  F21  1  0.71478008  0.28521992  0.39195558  1
  F  F22  1  0.21478008  0.78521992  0.10804442  1
  F  F23  1  0.78521992  0.21478008  0.89195558  1
  F  F24  1  0.41124682  0.08908904  0.51106415  1
  F  F25  1  0.58875318  0.91091096  0.48893585  1
  F  F26  1  0.08875318  0.41091096  0.01106415  1
  F  F27  1  0.41091096  0.08875318  0.98893585  1
  F  F28  1  0.91124682  0.58908904  0.98893585  1
  F  F29  1  0.58908904  0.91124682  0.01106415  1
  F  F30  1  0.08908904  0.41124682  0.48893585  1
  F  F31  1  0.91091096  0.58875318  0.51106415  1
  F  F32  1  0.69245239  0.83074133  0.62895312  1
  F  F33  1  0.30754761  0.16925867  0.37104688  1
  F  F34  1  0.80754761  0.66925867  0.12895312  1
  F  F35  1  0.66925867  0.80754761  0.87104688  1
  F  F36  1  0.19245239  0.33074133  0.87104688  1
  F  F37  1  0.33074133  0.19245239  0.12895312  1
  F  F38  1  0.83074133  0.69245239  0.37104688  1
  F  F39  1  0.16925867  0.30754761  0.62895312  1
loop_
_geom_bond_atom_site_label_1
_geom_bond_atom_site_label_2
_geom_bond_distance
_geom_bond_site_symmetry_2
Cs0 F25 3.006762 1_445
Cs0 F31 3.006762 1_445
Cs0 F30 3.006762 1_555
Cs0 F24 3.006762 1_555
Cs0 F38 3.018918 1_445
Cs0 F33 3.018918 1_555
Cs0 F32 3.018918 1_445
Cs0 F39 3.018918 1_555
Cs1 F27 3.006762 1_554
Cs1 F29 3.006762 1_555
Cs1 F26 3.006762 1_555
Cs1 F28 3.006762 1_554
Cs1 F34 3.018918 1_555
Cs1 F35 3.018918 1_554
Cs1 F37 3.018918 1_555
Cs1 F36 3.018918 1_554
Cs2 F24 3.004774 1_555
Cs2 F30 3.004774 1_555
Cs2 F25 3.004774 1_555
Cs2 F31 3.004774 1_555
Cs2 F33 3.152656 1_555
Cs2 F38 3.152656 1_555
Cs2 F39 3.152656 1_555
Cs2 F32 3.152656 1_555
Cs2 F21 3.326845 1_555
Cs2 F20 3.326845 1_555
Cs3 F28 3.004774 1_444
Cs3 F27 3.004774 1_554
Cs3 F26 3.004774 1_555
Cs3 F29 3.004774 1_445
Cs3 F35 3.152656 1_444
Cs3 F34 3.152656 1_445
Cs3 F37 3.152656 1_555
Cs3 F36 3.152656 1_554
Cs3 F23 3.326845 1_454
Cs3 F22 3.326845 1_545
F0 Lu0 2.121810 1_555
F0 Lu3 2.121810 1_555
F1 Lu2 2.121810 1_555
F1 Lu1 2.121810 1_555
F2 Lu1 2.121810 1_455
F2 Lu2 2.121810 1_565
F3 Lu3 2.121810 1_545
F3 Lu0 2.121810 1_655
F4 Lu7 2.254307 1_555
F4 Lu4 2.254307 1_555
F4 Lu3 2.441834 1_555
F5 Lu5 2.254307 1_555
F5 Lu9 2.254307 1_555
F5 Lu2 2.441834 1_555
F6 Lu10 2.254307 1_555
F6 Lu6 2.254307 1_555
F6 Lu1 2.441834 1_555
F7 Lu8 2.254307 1_555
F7 Lu11 2.254307 1_555
F7 Lu0 2.441834 1_555
F8 Lu4 2.110861 1_545
F8 Lu0 2.130900 1_555
F9 Lu5 2.110861 1_565
F9 Lu1 2.130900 1_555
F10 Lu6 2.110861 1_455
F10 Lu2 2.130900 1_555
F11 Lu7 2.110861 1_545
F11 Lu0 2.130900 1_555
F12 Lu8 2.110861 1_655
F12 Lu3 2.130900 1_555
F13 Lu9 2.110861 1_565
F13 Lu1 2.130900 1_555
F14 Lu10 2.110861 1_455
F14 Lu2 2.130900 1_555
F15 Lu11 2.110861 1_655
F15 Lu3 2.130900 1_555
F16 Lu7 2.121022 1_555
F16 Lu8 2.121022 1_555
F17 Lu6 2.121022 1_555
F17 Lu9 2.121022 1_555
F18 Lu10 2.121022 1_455
F18 Lu5 2.121022 1_565
F19 Lu4 2.121022 1_545
F19 Lu11 2.121022 1_655
F20 Lu4 2.111493 1_555
F20 Lu11 2.111493 1_555
F21 Lu10 2.111493 1_555
F21 Lu5 2.111493 1_555
F22 Lu9 2.111493 1_565
F22 Lu6 2.111493 1_455
F23 Lu8 2.111493 1_655
F23 Lu7 2.111493 1_545
F24 Lu4 2.166587 1_545
F24 Lu5 2.198361 1_555
F25 Lu5 2.166587 1_565
F25 Lu4 2.198361 1_555
F26 Lu6 2.166587 1_455
F26 Lu8 2.198361 1_554
F27 Lu7 2.166587 1_545
F27 Lu9 2.198361 1_556
F28 Lu8 2.166587 1_655
F28 Lu6 2.198361 1_556
F29 Lu9 2.166587 1_565
F29 Lu7 2.198361 1_554
F30 Lu10 2.166587 1_455
F30 Lu11 2.198361 1_555
F31 Lu11 2.166587 1_655
F31 Lu10 2.198361 1_555
F32 Lu3 2.124732 1_555
F32 Lu4 2.170859 1_555
F33 Lu2 2.124732 1_555
F33 Lu5 2.170859 1_555
F34 Lu1 2.124732 1_555
F34 Lu6 2.170859 1_555
F35 Lu3 2.124732 1_555
F35 Lu7 2.170859 1_555
F36 Lu0 2.124732 1_555
F36 Lu8 2.170859 1_555
F37 Lu2 2.124732 1_555
F37 Lu9 2.170859 1_555
F38 Lu1 2.124732 1_555
F38 Lu10 2.170859 1_555
F39 Lu0 2.124732 1_555
F39 Lu11 2.170859 1_555
