# generated using pymatgen
data_In14Sn5S26
_symmetry_space_group_name_H-M   'P 1'
_cell_length_a   19.25931536
_cell_length_b   19.25931536
_cell_length_c   13.88224084
_cell_angle_alpha   89.07196862
_cell_angle_beta   89.07196862
_cell_angle_gamma   11.62689426
_symmetry_Int_Tables_number   1
_chemical_formula_structural   In14Sn5S26
_chemical_formula_sum   'In14 Sn5 S26'
_cell_volume   1037.62400570
_cell_formula_units_Z   1
loop_
 _symmetry_equiv_pos_site_id
 _symmetry_equiv_pos_as_xyz
  1  'x, y, z'
loop_
 _atom_site_type_symbol
 _atom_site_label
 _atom_site_symmetry_multiplicity
 _atom_site_fract_x
 _atom_site_fract_y
 _atom_site_fract_z
 _atom_site_occupancy
  In  In0  1  0.89457800  0.89457800  0.96016900  1
  In  In1  1  0.10365000  0.10365000  0.03552200  1
  In  In2  1  0.75468900  0.75468900  0.63167400  1
  In  In3  1  0.24848500  0.24848500  0.37823000  1
  In  In4  1  0.45765100  0.45765100  0.79190400  1
  In  In5  1  0.54068100  0.54068100  0.20797800  1
  In  In6  1  0.99875600  0.99875600  0.99927200  1
  In  In7  1  0.83496900  0.83496900  0.43192300  1
  In  In8  1  0.16733400  0.16733400  0.56721600  1
  In  In9  1  0.28205600  0.28205600  0.90229300  1
  In  In10  1  0.71926300  0.71926300  0.08656800  1
  In  In11  1  0.99893100  0.99893100  0.49994400  1
  In  In12  1  0.41114200  0.41114200  0.49837200  1
  In  In13  1  0.58568200  0.58568200  0.50877500  1
  Sn  Sn0  1  0.42970400  0.42970400  0.23005600  1
  Sn  Sn1  1  0.56766800  0.56766800  0.77670100  1
  Sn  Sn2  1  0.33137200  0.33137200  0.14308000  1
  Sn  Sn3  1  0.66920800  0.66920800  0.85523100  1
  Sn  Sn4  1  0.65145800  0.65145800  0.28208500  1
  S  S0  1  0.78437100  0.78437100  0.04947000  1
  S  S1  1  0.21558600  0.21558600  0.95239700  1
  S  S2  1  0.70753700  0.70753700  0.45881700  1
  S  S3  1  0.28764100  0.28764100  0.53297600  1
  S  S4  1  0.46842700  0.46842700  0.60096300  1
  S  S5  1  0.53284700  0.53284700  0.39801000  1
  S  S6  1  0.35086900  0.35086900  0.95509000  1
  S  S7  1  0.64855700  0.64855700  0.05135400  1
  S  S8  1  0.91364100  0.91364100  0.78733100  1
  S  S9  1  0.08898200  0.08898200  0.21338400  1
  S  S10  1  0.87460500  0.87460500  0.57391400  1
  S  S11  1  0.12662100  0.12662100  0.42295000  1
  S  S12  1  0.79119100  0.79119100  0.78580000  1
  S  S13  1  0.20705700  0.20705700  0.21932300  1
  S  S14  1  0.45128400  0.45128400  0.99042600  1
  S  S15  1  0.55112900  0.55112900  0.01273200  1
  S  S16  1  0.94527000  0.94527000  0.39235000  1
  S  S17  1  0.05469900  0.05469900  0.60598500  1
  S  S18  1  0.78610100  0.78610100  0.30944500  1
  S  S19  1  0.21364000  0.21364000  0.69165600  1
  S  S20  1  0.88733500  0.88733500  0.14331100  1
  S  S21  1  0.11382000  0.11382000  0.85404000  1
  S  S22  1  0.99569300  0.99569300  0.18206500  1
  S  S23  1  0.00692200  0.00692200  0.81813700  1
  S  S24  1  0.36793900  0.36793900  0.34778000  1
  S  S25  1  0.63191900  0.63191900  0.64480100  1
loop_
_geom_bond_atom_site_label_1
_geom_bond_atom_site_label_2
_geom_bond_distance
_geom_bond_site_symmetry_2
In0 S8 2.496715 1_555
In0 S20 2.553031 1_556
In0 S6 2.572896 1_655
In0 S6 2.572896 1_565
In0 S14 2.955267 1_565
In0 S14 2.955267 1_655
In1 S9 2.523355 1_555
In1 S21 2.543063 1_554
In1 S7 2.612947 1_455
In1 S7 2.612947 1_545
In1 S15 2.824363 1_455
In1 S15 2.824363 1_545
In2 S12 2.575261 1_555
In2 S19 2.632606 1_655
In2 S19 2.632606 1_565
In2 S3 2.687191 1_565
In2 S3 2.687191 1_655
In2 S2 3.027262 1_555
In3 S18 2.598140 1_455
In3 S18 2.598140 1_545
In3 S3 2.640311 1_555
In3 S2 2.731691 1_545
In3 S2 2.731691 1_455
In3 S13 2.738739 1_555
In4 S8 2.580167 1_455
In4 S8 2.580167 1_545
In4 S4 2.676011 1_555
In4 S23 2.743248 1_565
In4 S23 2.743248 1_655
In4 S14 2.762750 1_555
In5 S22 2.631950 1_545
In5 S22 2.631950 1_455
In5 S5 2.650236 1_555
In5 S9 2.691017 1_655
In5 S9 2.691017 1_565
In5 S15 2.733407 1_555
In6 S23 2.528895 1_665
In6 S22 2.538380 1_556
In6 S14 2.671550 1_655
In6 S14 2.671550 1_565
In6 S15 2.807228 1_566
In6 S15 2.807228 1_656
In7 S10 2.507968 1_555
In7 S18 2.549784 1_555
In7 S24 2.591940 1_565
In7 S24 2.591940 1_655
In7 S3 2.996649 1_565
In7 S3 2.996649 1_655
In8 S19 2.496564 1_555
In8 S11 2.558659 1_555
In8 S25 2.599950 1_455
In8 S25 2.599950 1_545
In8 S2 2.892743 1_545
In8 S2 2.892743 1_455
In9 S12 2.554389 1_545
In9 S12 2.554389 1_455
In9 S1 2.629480 1_555
In9 S6 2.748389 1_555
In9 S0 2.827319 1_546
In9 S0 2.827319 1_456
In10 S0 2.539347 1_555
In10 S1 2.702437 1_654
In10 S1 2.702437 1_564
In10 S13 2.718941 1_565
In10 S13 2.718941 1_655
In10 S7 2.761058 1_555
In11 S16 2.561138 1_555
In11 S17 2.614669 1_665
In11 S4 2.661799 1_565
In11 S4 2.661799 1_655
In11 S5 2.727127 1_565
In11 S5 2.727127 1_655
In12 S10 2.611089 1_545
In12 S10 2.611089 1_455
In12 S4 2.636093 1_555
In12 S24 2.687749 1_555
In12 S16 2.760335 1_545
In12 S16 2.760335 1_455
In13 S5 2.562236 1_555
In13 S25 2.610394 1_555
In13 S17 2.642748 1_565
In13 S17 2.642748 1_655
In13 S11 2.761401 1_565
In13 S11 2.761401 1_655
S0 Sn2 2.968912 1_565
S0 Sn2 2.968912 1_655
S1 Sn3 2.976843 1_545
S1 Sn3 2.976843 1_455
S6 Sn2 2.702846 1_556
S7 Sn3 2.822904 1_554
S11 Sn4 2.911157 1_455
S11 Sn4 2.911157 1_545
S13 Sn4 3.007254 1_455
S13 Sn4 3.007254 1_545
S16 Sn0 3.046491 1_565
S16 Sn0 3.046491 1_655
S17 Sn1 3.115666 1_545
S17 Sn1 3.115666 1_455
S20 Sn0 2.820530 1_655
S20 Sn0 2.820530 1_565
S20 Sn2 2.899097 1_565
S20 Sn2 2.899097 1_655
S21 Sn1 2.854448 1_545
S21 Sn1 2.854448 1_455
S21 Sn3 2.883041 1_545
S21 Sn3 2.883041 1_455
S23 Sn1 3.084078 1_545
S23 Sn1 3.084078 1_455
S24 Sn0 2.854288 1_555
S25 Sn1 3.044357 1_555
