# generated using pymatgen
data_Ca3Ge3(RhO6)2
_symmetry_space_group_name_H-M   'P 1'
_cell_length_a   10.83974899
_cell_length_b   10.83974899
_cell_length_c   10.83974899
_cell_angle_alpha   109.47122063
_cell_angle_beta   109.47122063
_cell_angle_gamma   109.47122063
_symmetry_Int_Tables_number   1
_chemical_formula_structural   Ca3Ge3(RhO6)2
_chemical_formula_sum   'Ca12 Ge12 Rh8 O48'
_cell_volume   980.47333398
_cell_formula_units_Z   4
loop_
 _symmetry_equiv_pos_site_id
 _symmetry_equiv_pos_as_xyz
  1  'x, y, z'
loop_
 _atom_site_type_symbol
 _atom_site_label
 _atom_site_symmetry_multiplicity
 _atom_site_fract_x
 _atom_site_fract_y
 _atom_site_fract_z
 _atom_site_occupancy
  Ca  Ca0  1  0.25000000  0.37500000  0.12500000  1
  Ca  Ca1  1  0.75000000  0.62500000  0.87500000  1
  Ca  Ca2  1  0.75000000  0.12500000  0.37500000  1
  Ca  Ca3  1  0.12500000  0.25000000  0.37500000  1
  Ca  Ca4  1  0.37500000  0.75000000  0.12500000  1
  Ca  Ca5  1  0.25000000  0.87500000  0.62500000  1
  Ca  Ca6  1  0.87500000  0.75000000  0.62500000  1
  Ca  Ca7  1  0.62500000  0.25000000  0.87500000  1
  Ca  Ca8  1  0.37500000  0.12500000  0.25000000  1
  Ca  Ca9  1  0.62500000  0.87500000  0.75000000  1
  Ca  Ca10  1  0.12500000  0.37500000  0.75000000  1
  Ca  Ca11  1  0.87500000  0.62500000  0.25000000  1
  Ge  Ge0  1  0.25000000  0.62500000  0.37500000  1
  Ge  Ge1  1  0.75000000  0.37500000  0.62500000  1
  Ge  Ge2  1  0.75000000  0.87500000  0.12500000  1
  Ge  Ge3  1  0.37500000  0.25000000  0.62500000  1
  Ge  Ge4  1  0.62500000  0.75000000  0.37500000  1
  Ge  Ge5  1  0.25000000  0.12500000  0.87500000  1
  Ge  Ge6  1  0.12500000  0.75000000  0.87500000  1
  Ge  Ge7  1  0.87500000  0.25000000  0.12500000  1
  Ge  Ge8  1  0.62500000  0.37500000  0.25000000  1
  Ge  Ge9  1  0.37500000  0.62500000  0.75000000  1
  Ge  Ge10  1  0.87500000  0.12500000  0.75000000  1
  Ge  Ge11  1  0.12500000  0.87500000  0.25000000  1
  Rh  Rh0  1  0.00000000  0.00000000  0.00000000  1
  Rh  Rh1  1  0.50000000  0.00000000  0.50000000  1
  Rh  Rh2  1  0.00000000  0.50000000  0.50000000  1
  Rh  Rh3  1  0.50000000  0.00000000  0.00000000  1
  Rh  Rh4  1  0.50000000  0.50000000  0.00000000  1
  Rh  Rh5  1  0.50000000  0.50000000  0.50000000  1
  Rh  Rh6  1  0.00000000  0.00000000  0.50000000  1
  Rh  Rh7  1  0.00000000  0.50000000  0.00000000  1
  O  O0  1  0.48026800  0.37935300  0.29331500  1
  O  O1  1  0.51973200  0.62064700  0.70668500  1
  O  O2  1  0.58603800  0.18695300  0.20668500  1
  O  O3  1  0.91396200  0.12064700  0.60091400  1
  O  O4  1  0.29331500  0.48026800  0.37935300  1
  O  O5  1  0.31304700  0.91396200  0.29331500  1
  O  O6  1  0.41396200  0.81304700  0.79331500  1
  O  O7  1  0.08603800  0.87935300  0.39908600  1
  O  O8  1  0.70668500  0.51973200  0.62064700  1
  O  O9  1  0.68695300  0.08603800  0.70668500  1
  O  O10  1  0.01973200  0.31304700  0.89908600  1
  O  O11  1  0.20668500  0.58603800  0.18695300  1
  O  O12  1  0.12064700  0.01973200  0.20668500  1
  O  O13  1  0.98026800  0.68695300  0.10091400  1
  O  O14  1  0.79331500  0.41396200  0.81304700  1
  O  O15  1  0.87935300  0.98026800  0.79331500  1
  O  O16  1  0.60091400  0.91396200  0.12064700  1
  O  O17  1  0.18695300  0.48026800  0.60091400  1
  O  O18  1  0.39908600  0.08603800  0.87935300  1
  O  O19  1  0.81304700  0.51973200  0.39908600  1
  O  O20  1  0.89908600  0.01973200  0.31304700  1
  O  O21  1  0.37935300  0.58603800  0.89908600  1
  O  O22  1  0.10091400  0.98026800  0.68695300  1
  O  O23  1  0.62064700  0.41396200  0.10091400  1
  O  O24  1  0.37935300  0.29331500  0.48026800  1
  O  O25  1  0.58603800  0.89908600  0.37935300  1
  O  O26  1  0.62064700  0.70668500  0.51973200  1
  O  O27  1  0.41396200  0.10091400  0.62064700  1
  O  O28  1  0.12064700  0.60091400  0.91396200  1
  O  O29  1  0.01973200  0.20668500  0.12064700  1
  O  O30  1  0.87935300  0.39908600  0.08603800  1
  O  O31  1  0.98026800  0.79331500  0.87935300  1
  O  O32  1  0.31304700  0.89908600  0.01973200  1
  O  O33  1  0.91396200  0.29331500  0.31304700  1
  O  O34  1  0.68695300  0.10091400  0.98026800  1
  O  O35  1  0.08603800  0.70668500  0.68695300  1
  O  O36  1  0.18695300  0.20668500  0.58603800  1
  O  O37  1  0.48026800  0.60091400  0.18695300  1
  O  O38  1  0.81304700  0.79331500  0.41396200  1
  O  O39  1  0.51973200  0.39908600  0.81304700  1
  O  O40  1  0.29331500  0.31304700  0.91396200  1
  O  O41  1  0.70668500  0.68695300  0.08603800  1
  O  O42  1  0.20668500  0.12064700  0.01973200  1
  O  O43  1  0.79331500  0.87935300  0.98026800  1
  O  O44  1  0.89908600  0.37935300  0.58603800  1
  O  O45  1  0.10091400  0.62064700  0.41396200  1
  O  O46  1  0.60091400  0.18695300  0.48026800  1
  O  O47  1  0.39908600  0.81304700  0.51973200  1
loop_
_geom_bond_atom_site_label_1
_geom_bond_atom_site_label_2
_geom_bond_distance
_geom_bond_site_symmetry_2
Ca0 O4 2.409698 1_555
Ca0 O11 2.409698 1_555
Ca0 O42 2.409698 1_555
Ca0 O40 2.409698 1_554
Ca0 O10 2.527706 1_554
Ca0 O37 2.527706 1_555
Ca0 O29 2.527712 1_555
Ca0 O0 2.527712 1_555
Ca1 O41 2.409698 1_556
Ca1 O43 2.409698 1_555
Ca1 O14 2.409698 1_555
Ca1 O8 2.409698 1_555
Ca1 O13 2.527706 1_556
Ca1 O39 2.527706 1_555
Ca1 O31 2.527712 1_555
Ca1 O1 2.527712 1_555
Ca2 O44 2.409698 1_555
Ca2 O16 2.409698 1_545
Ca2 O20 2.409708 1_555
Ca2 O46 2.409708 1_555
Ca2 O3 2.527704 1_555
Ca2 O25 2.527704 1_545
Ca2 O2 2.527712 1_555
Ca2 O33 2.527712 1_555
Ca3 O24 2.409698 1_555
Ca3 O36 2.409698 1_555
Ca3 O29 2.409698 1_555
Ca3 O33 2.409698 1_455
Ca3 O20 2.527706 1_455
Ca3 O17 2.527706 1_555
Ca3 O12 2.527712 1_555
Ca3 O4 2.527712 1_555
Ca4 O25 2.409698 1_555
Ca4 O28 2.409698 1_554
Ca4 O32 2.409708 1_555
Ca4 O37 2.409708 1_555
Ca4 O16 2.527704 1_555
Ca4 O21 2.527704 1_554
Ca4 O11 2.527712 1_555
Ca4 O5 2.527712 1_555
Ca5 O18 2.409698 1_565
Ca5 O45 2.409698 1_555
Ca5 O22 2.409708 1_555
Ca5 O47 2.409708 1_555
Ca5 O27 2.527704 1_565
Ca5 O7 2.527704 1_555
Ca5 O35 2.527712 1_555
Ca5 O6 2.527712 1_555
Ca6 O35 2.409698 1_655
Ca6 O31 2.409698 1_555
Ca6 O38 2.409698 1_555
Ca6 O26 2.409698 1_555
Ca6 O22 2.527706 1_655
Ca6 O19 2.527706 1_555
Ca6 O15 2.527712 1_555
Ca6 O8 2.527712 1_555
Ca7 O30 2.409698 1_556
Ca7 O27 2.409698 1_555
Ca7 O34 2.409708 1_555
Ca7 O39 2.409708 1_555
Ca7 O23 2.527704 1_556
Ca7 O18 2.527704 1_555
Ca7 O9 2.527712 1_555
Ca7 O14 2.527712 1_555
Ca8 O0 2.409698 1_555
Ca8 O2 2.409698 1_555
Ca8 O12 2.409698 1_555
Ca8 O5 2.409698 1_545
Ca8 O32 2.527706 1_545
Ca8 O46 2.527706 1_555
Ca8 O42 2.527712 1_555
Ca8 O24 2.527712 1_555
Ca9 O9 2.409698 1_565
Ca9 O15 2.409698 1_555
Ca9 O6 2.409698 1_555
Ca9 O1 2.409698 1_555
Ca9 O34 2.527706 1_565
Ca9 O47 2.527706 1_555
Ca9 O43 2.527712 1_555
Ca9 O26 2.527712 1_555
Ca10 O21 2.409698 1_555
Ca10 O3 2.409698 1_455
Ca10 O10 2.409708 1_555
Ca10 O17 2.409708 1_555
Ca10 O28 2.527704 1_555
Ca10 O44 2.527704 1_455
Ca10 O36 2.527712 1_555
Ca10 O40 2.527712 1_555
Ca11 O7 2.409698 1_655
Ca11 O23 2.409698 1_555
Ca11 O13 2.409708 1_555
Ca11 O19 2.409708 1_555
Ca11 O45 2.527704 1_655
Ca11 O30 2.527704 1_555
Ca11 O41 2.527712 1_555
Ca11 O38 2.527712 1_555
Ge0 O4 1.791551 1_555
Ge0 O11 1.791551 1_555
Ge0 O47 1.791554 1_555
Ge0 O45 1.791562 1_555
Ge1 O8 1.791551 1_555
Ge1 O14 1.791551 1_555
Ge1 O46 1.791554 1_555
Ge1 O44 1.791562 1_555
Ge2 O43 1.791551 1_554
Ge2 O41 1.791551 1_555
Ge2 O20 1.791554 1_565
Ge2 O16 1.791562 1_555
Ge3 O24 1.791551 1_555
Ge3 O36 1.791551 1_555
Ge3 O39 1.791554 1_555
Ge3 O27 1.791562 1_555
Ge4 O38 1.791551 1_555
Ge4 O26 1.791551 1_555
Ge4 O37 1.791554 1_555
Ge4 O25 1.791562 1_555
Ge5 O40 1.791551 1_555
Ge5 O42 1.791551 1_556
Ge5 O22 1.791554 1_545
Ge5 O18 1.791562 1_555
Ge6 O35 1.791551 1_555
Ge6 O31 1.791551 1_455
Ge6 O32 1.791554 1_556
Ge6 O28 1.791562 1_555
Ge7 O33 1.791551 1_555
Ge7 O29 1.791551 1_655
Ge7 O34 1.791554 1_554
Ge7 O30 1.791562 1_555
Ge8 O0 1.791551 1_555
Ge8 O2 1.791551 1_555
Ge8 O19 1.791554 1_555
Ge8 O23 1.791562 1_555
Ge9 O6 1.791551 1_555
Ge9 O1 1.791551 1_555
Ge9 O17 1.791554 1_555
Ge9 O21 1.791562 1_555
Ge10 O9 1.791551 1_555
Ge10 O15 1.791551 1_545
Ge10 O10 1.791554 1_655
Ge10 O3 1.791562 1_555
Ge11 O5 1.791551 1_555
Ge11 O12 1.791551 1_565
Ge11 O13 1.791554 1_455
Ge11 O7 1.791562 1_555
O0 Rh5 2.077555 1_555
O1 Rh5 2.077555 1_555
O2 Rh3 2.077555 1_555
O3 Rh6 2.077549 1_655
O4 Rh5 2.077555 1_555
O5 Rh1 2.077555 1_565
O6 Rh3 2.077555 1_566
O7 Rh6 2.077549 1_565
O8 Rh5 2.077555 1_555
O9 Rh1 2.077555 1_555
O10 Rh7 2.077552 1_556
O11 Rh7 2.077555 1_555
O12 Rh0 2.077555 1_555
O13 Rh7 2.077552 1_655
O14 Rh7 2.077555 1_656
O15 Rh0 2.077555 1_666
O16 Rh3 2.077549 1_565
O17 Rh2 2.077552 1_555
O18 Rh3 2.077549 1_556
O19 Rh2 2.077552 1_655
O20 Rh6 2.077552 1_655
O21 Rh4 2.077549 1_556
O22 Rh6 2.077552 1_565
O23 Rh4 2.077549 1_555
O24 Rh5 2.077555 1_555
O25 Rh1 2.077549 1_565
O26 Rh5 2.077555 1_555
O27 Rh1 2.077549 1_555
O28 Rh7 2.077549 1_556
O29 Rh0 2.077555 1_555
O30 Rh7 2.077549 1_655
O31 Rh0 2.077555 1_666
O32 Rh3 2.077552 1_565
O33 Rh2 2.077555 1_655
O34 Rh3 2.077552 1_556
O35 Rh2 2.077555 1_555
O36 Rh6 2.077555 1_555
O37 Rh4 2.077552 1_555
O38 Rh6 2.077555 1_665
O39 Rh4 2.077552 1_556
O40 Rh4 2.077555 1_556
O41 Rh4 2.077555 1_555
O42 Rh0 2.077555 1_555
O43 Rh0 2.077555 1_666
O44 Rh2 2.077549 1_655
O45 Rh2 2.077549 1_555
O46 Rh1 2.077552 1_555
O47 Rh1 2.077552 1_565
