# generated using pymatgen
data_CsHgSbSe3
_symmetry_space_group_name_H-M   'P 1'
_cell_length_a   8.39537981
_cell_length_b   8.39537981
_cell_length_c   11.56417900
_cell_angle_alpha   90.00000000
_cell_angle_beta   90.00000000
_cell_angle_gamma   149.93403468
_symmetry_Int_Tables_number   1
_chemical_formula_structural   CsHgSbSe3
_chemical_formula_sum   'Cs2 Hg2 Sb2 Se6'
_cell_volume   408.34796612
_cell_formula_units_Z   2
loop_
 _symmetry_equiv_pos_site_id
 _symmetry_equiv_pos_as_xyz
  1  'x, y, z'
loop_
 _atom_site_type_symbol
 _atom_site_label
 _atom_site_symmetry_multiplicity
 _atom_site_fract_x
 _atom_site_fract_y
 _atom_site_fract_z
 _atom_site_occupancy
  Cs  Cs0  1  0.25592900  0.74407100  0.24793000  1
  Cs  Cs1  1  0.74407100  0.25592900  0.74793000  1
  Hg  Hg0  1  0.54931600  0.45068400  0.25721500  1
  Hg  Hg1  1  0.45068400  0.54931600  0.75721500  1
  Sb  Sb0  1  0.99126600  0.00873400  0.01074500  1
  Sb  Sb1  1  0.00873400  0.99126600  0.51074500  1
  Se  Se0  1  0.62494500  0.37505500  0.45818600  1
  Se  Se1  1  0.38698500  0.61301500  0.54520700  1
  Se  Se2  1  0.61301500  0.38698500  0.04520700  1
  Se  Se3  1  0.37505500  0.62494500  0.95818600  1
  Se  Se4  1  0.94081500  0.05918500  0.23101700  1
  Se  Se5  1  0.05918500  0.94081500  0.73101700  1
loop_
_geom_bond_atom_site_label_1
_geom_bond_atom_site_label_2
_geom_bond_distance
_geom_bond_site_symmetry_2
Cs0 Se4 3.710633 1_455
Cs0 Se4 3.710633 1_565
Cs0 Se3 3.867631 1_554
Cs0 Se0 3.894255 1_455
Cs0 Se0 3.894255 1_565
Cs0 Se2 3.950753 1_455
Cs0 Se2 3.950753 1_565
Cs0 Hg0 3.997356 1_565
Cs0 Hg0 3.997356 1_455
Cs0 Se1 4.041632 1_555
Cs1 Se5 3.710633 1_655
Cs1 Se5 3.710633 1_545
Cs1 Se0 3.867631 1_555
Cs1 Se3 3.894255 1_545
Cs1 Se3 3.894255 1_655
Cs1 Se1 3.950753 1_545
Cs1 Se1 3.950753 1_655
Cs1 Hg1 3.997356 1_655
Cs1 Hg1 3.997356 1_545
Cs1 Se2 4.041632 1_556
Hg0 Se0 2.627804 1_555
Hg0 Se2 2.660416 1_555
Hg0 Se4 2.815890 1_565
Hg0 Se4 2.815890 1_455
Hg1 Se3 2.627804 1_555
Hg1 Se1 2.660416 1_555
Hg1 Se5 2.815890 1_545
Hg1 Se5 2.815890 1_655
Sb0 Se4 2.675421 1_555
Sb0 Se3 2.943207 1_654
Sb0 Se3 2.943207 1_544
Sb0 Se2 2.966210 1_655
Sb0 Se2 2.966210 1_545
Sb1 Se5 2.675421 1_555
Sb1 Se0 2.943207 1_565
Sb1 Se0 2.943207 1_455
Sb1 Se1 2.966210 1_565
Sb1 Se1 2.966210 1_455
