# generated using pymatgen
data_MgFe7(Ni3O8)2
_symmetry_space_group_name_H-M   'P 1'
_cell_length_a   6.16484410
_cell_length_b   6.16484410
_cell_length_c   10.45860087
_cell_angle_alpha   107.03492893
_cell_angle_beta   72.96507107
_cell_angle_gamma   119.86817915
_symmetry_Int_Tables_number   1
_chemical_formula_structural   MgFe7(Ni3O8)2
_chemical_formula_sum   'Mg1 Fe7 Ni6 O16'
_cell_volume   324.33804305
_cell_formula_units_Z   1
loop_
 _symmetry_equiv_pos_site_id
 _symmetry_equiv_pos_as_xyz
  1  'x, y, z'
loop_
 _atom_site_type_symbol
 _atom_site_label
 _atom_site_symmetry_multiplicity
 _atom_site_fract_x
 _atom_site_fract_y
 _atom_site_fract_z
 _atom_site_occupancy
  Mg  Mg0  1  0.37616624  0.62383376  0.86079630  1
  Fe  Fe0  1  0.30150838  0.69849162  0.10331763  1
  Fe  Fe1  1  0.99835571  0.00164429  0.00057917  1
  Fe  Fe2  1  0.57428728  0.94381633  0.31696408  1
  Fe  Fe3  1  0.05618367  0.42571272  0.31696408  1
  Fe  Fe4  1  0.62048509  0.37951491  0.14252971  1
  Fe  Fe5  1  0.59647550  0.00185365  0.79747364  1
  Fe  Fe6  1  0.99814635  0.40352450  0.79747364  1
  Ni  Ni0  1  0.05454805  0.94545195  0.31791089  1
  Ni  Ni1  1  0.31668499  0.68331501  0.55414986  1
  Ni  Ni2  1  0.81621278  0.68531455  0.55567942  1
  Ni  Ni3  1  0.31468545  0.18378722  0.55567942  1
  Ni  Ni4  1  0.81576061  0.18423939  0.55196344  1
  Ni  Ni5  1  0.59442802  0.40557198  0.80108581  1
  O  O0  1  0.42475679  0.57524321  0.20249918  1
  O  O1  1  0.19067410  0.80932590  0.43519131  1
  O  O2  1  0.69111845  0.82928895  0.43693690  1
  O  O3  1  0.17071105  0.30888155  0.43693690  1
  O  O4  1  0.95101618  0.56713573  0.19937983  1
  O  O5  1  0.43286427  0.04898382  0.19937983  1
  O  O6  1  0.70109532  0.29890468  0.43099640  1
  O  O7  1  0.93226686  0.06773314  0.19780658  1
  O  O8  1  0.19030988  0.80969012  0.94590037  1
  O  O9  1  0.44827608  0.55172392  0.66841085  1
  O  O10  1  0.66774387  0.80214705  0.94272257  1
  O  O11  1  0.19785295  0.33225613  0.94272257  1
  O  O12  1  0.93144356  0.54732356  0.67438295  1
  O  O13  1  0.45267644  0.06855644  0.67438295  1
  O  O14  1  0.93843765  0.06156235  0.67456752  1
  O  O15  1  0.68232842  0.31767158  0.94646621  1
loop_
_geom_bond_atom_site_label_1
_geom_bond_atom_site_label_2
_geom_bond_distance
_geom_bond_site_symmetry_2
Mg0 O8 1.878922 1_555
Mg0 O11 1.885770 1_555
Mg0 O10 1.885770 1_555
Mg0 O9 1.895364 1_555
Mg0 Ni5 2.197640 1_555
Fe0 O0 1.931108 1_555
Fe0 O5 1.948306 1_565
Fe0 O4 1.948306 1_455
Fe0 O11 2.301513 1_554
Fe0 O10 2.301513 1_554
Fe0 O8 2.332594 1_554
Fe1 O8 1.931197 1_644
Fe1 O7 1.940965 1_555
Fe1 O11 1.955184 1_654
Fe1 O10 1.955184 1_544
Fe2 O6 2.034113 1_565
Fe2 O2 2.036346 1_555
Fe2 O7 2.067418 1_565
Fe2 O5 2.085940 1_565
Fe2 O0 2.100571 1_555
Fe2 O1 2.177971 1_555
Fe3 O6 2.034113 1_455
Fe3 O3 2.036346 1_555
Fe3 O7 2.067418 1_455
Fe3 O4 2.085940 1_455
Fe3 O0 2.100571 1_555
Fe3 O1 2.177971 1_555
Fe4 O15 1.929802 1_554
Fe4 O5 1.950105 1_555
Fe4 O4 1.950105 1_555
Fe4 O0 1.966886 1_555
Fe5 O13 1.988511 1_555
Fe5 O14 2.036830 1_555
Fe5 O15 2.044077 1_555
Fe5 Mg0 2.222365 1_545
Fe5 O8 2.434849 1_545
Fe5 O10 2.458063 1_545
Fe5 O9 2.521895 1_545
Fe6 O12 1.988511 1_555
Fe6 O14 2.036830 1_555
Fe6 O15 2.044077 1_555
Fe6 Mg0 2.222365 1_655
Fe6 O8 2.434849 1_655
Fe6 O11 2.458063 1_655
Fe6 O9 2.521895 1_655
Ni0 O3 2.091021 1_565
Ni0 O2 2.091021 1_455
Ni0 O7 2.095243 1_465
Ni0 O4 2.161142 1_455
Ni0 O5 2.161142 1_565
Ni0 O1 2.195603 1_555
Ni1 O1 2.118599 1_555
Ni1 O9 2.129731 1_555
Ni1 O3 2.135506 1_555
Ni1 O2 2.135506 1_555
Ni1 O12 2.193000 1_455
Ni1 O13 2.193000 1_565
Ni2 O9 2.086810 1_555
Ni2 O12 2.122967 1_555
Ni2 O1 2.145642 1_655
Ni2 O14 2.147623 1_565
Ni2 O2 2.193974 1_555
Ni2 O6 2.217455 1_555
Ni3 O9 2.086810 1_555
Ni3 O13 2.122967 1_555
Ni3 O1 2.145642 1_545
Ni3 O14 2.147623 1_455
Ni3 O3 2.193974 1_555
Ni3 O6 2.217455 1_555
Ni4 O6 2.036095 1_555
Ni4 O3 2.037273 1_655
Ni4 O2 2.037273 1_545
Ni4 O12 2.103335 1_555
Ni4 O13 2.103335 1_555
Ni4 O14 2.119955 1_555
Ni5 O12 2.023185 1_555
Ni5 O13 2.023185 1_555
Ni5 O15 2.038901 1_555
Ni5 O11 2.354895 1_555
Ni5 O10 2.354895 1_555
Ni5 O9 2.413016 1_555
