# generated using pymatgen
data_Mg14MnFeO16
_symmetry_space_group_name_H-M   'P 1'
_cell_length_a   8.56942300
_cell_length_b   8.56942300
_cell_length_c   4.28149000
_cell_angle_alpha   90.00000000
_cell_angle_beta   90.00000000
_cell_angle_gamma   90.00000000
_symmetry_Int_Tables_number   1
_chemical_formula_structural   Mg14MnFeO16
_chemical_formula_sum   'Mg14 Mn1 Fe1 O16'
_cell_volume   314.41126333
_cell_formula_units_Z   1
loop_
 _symmetry_equiv_pos_site_id
 _symmetry_equiv_pos_as_xyz
  1  'x, y, z'
loop_
 _atom_site_type_symbol
 _atom_site_label
 _atom_site_symmetry_multiplicity
 _atom_site_fract_x
 _atom_site_fract_y
 _atom_site_fract_z
 _atom_site_occupancy
  Mg  Mg0  1  0.50000000  0.00000000  0.00000000  1
  Mg  Mg1  1  0.00000000  0.50000000  0.00000000  1
  Mg  Mg2  1  0.25213200  0.00000000  0.50000000  1
  Mg  Mg3  1  0.74786800  0.00000000  0.50000000  1
  Mg  Mg4  1  0.25020900  0.50000000  0.50000000  1
  Mg  Mg5  1  0.74979100  0.50000000  0.50000000  1
  Mg  Mg6  1  0.00000000  0.25213200  0.50000000  1
  Mg  Mg7  1  0.50000000  0.25020900  0.50000000  1
  Mg  Mg8  1  0.00000000  0.74786800  0.50000000  1
  Mg  Mg9  1  0.50000000  0.74979100  0.50000000  1
  Mg  Mg10  1  0.25042000  0.25042000  0.00000000  1
  Mg  Mg11  1  0.74958000  0.25042000  0.00000000  1
  Mg  Mg12  1  0.25042000  0.74958000  0.00000000  1
  Mg  Mg13  1  0.74958000  0.74958000  0.00000000  1
  Mn  Mn0  1  0.00000000  0.00000000  0.00000000  1
  Fe  Fe0  1  0.50000000  0.50000000  0.00000000  1
  O  O0  1  0.00000000  0.25668700  0.00000000  1
  O  O1  1  0.50000000  0.24674500  0.00000000  1
  O  O2  1  0.00000000  0.74331300  0.00000000  1
  O  O3  1  0.50000000  0.75325500  0.00000000  1
  O  O4  1  0.24996700  0.24996700  0.50000000  1
  O  O5  1  0.75003300  0.24996700  0.50000000  1
  O  O6  1  0.24996700  0.75003300  0.50000000  1
  O  O7  1  0.75003300  0.75003300  0.50000000  1
  O  O8  1  0.00000000  0.00000000  0.50000000  1
  O  O9  1  0.50000000  0.00000000  0.50000000  1
  O  O10  1  0.00000000  0.50000000  0.50000000  1
  O  O11  1  0.50000000  0.50000000  0.50000000  1
  O  O12  1  0.25668700  0.00000000  0.00000000  1
  O  O13  1  0.74331300  0.00000000  0.00000000  1
  O  O14  1  0.24674500  0.50000000  0.00000000  1
  O  O15  1  0.75325500  0.50000000  0.00000000  1
loop_
_geom_bond_atom_site_label_1
_geom_bond_atom_site_label_2
_geom_bond_distance
_geom_bond_site_symmetry_2
Mg0 O12 2.085052 1_555
Mg0 O13 2.085052 1_555
Mg0 O3 2.114462 1_545
Mg0 O1 2.114462 1_555
Mg0 O9 2.140745 1_554
Mg0 O9 2.140745 1_555
Mg1 O2 2.085052 1_555
Mg1 O0 2.085052 1_555
Mg1 O15 2.114462 1_455
Mg1 O14 2.114462 1_555
Mg1 O10 2.140745 1_554
Mg1 O10 2.140745 1_555
Mg2 O9 2.124086 1_555
Mg2 O12 2.141101 1_556
Mg2 O12 2.141101 1_555
Mg2 O4 2.142153 1_555
Mg2 O6 2.142153 1_545
Mg2 O8 2.160626 1_555
Mg3 O9 2.124086 1_555
Mg3 O13 2.141101 1_555
Mg3 O13 2.141101 1_556
Mg3 O5 2.142153 1_555
Mg3 O7 2.142153 1_545
Mg3 O8 2.160626 1_655
Mg4 O11 2.140565 1_555
Mg4 O14 2.140951 1_556
Mg4 O14 2.140951 1_555
Mg4 O4 2.142640 1_555
Mg4 O6 2.142640 1_555
Mg4 O10 2.144147 1_555
Mg5 O11 2.140565 1_555
Mg5 O15 2.140951 1_555
Mg5 O15 2.140951 1_556
Mg5 O5 2.142640 1_555
Mg5 O7 2.142640 1_555
Mg5 O10 2.144147 1_655
Mg6 O10 2.124086 1_555
Mg6 O0 2.141101 1_555
Mg6 O0 2.141101 1_556
Mg6 O4 2.142153 1_555
Mg6 O5 2.142153 1_455
Mg6 O8 2.160626 1_555
Mg7 O11 2.140565 1_555
Mg7 O1 2.140951 1_556
Mg7 O1 2.140951 1_555
Mg7 O5 2.142640 1_555
Mg7 O4 2.142640 1_555
Mg7 O9 2.144147 1_555
Mg8 O10 2.124086 1_555
Mg8 O2 2.141101 1_556
Mg8 O2 2.141101 1_555
Mg8 O6 2.142153 1_555
Mg8 O7 2.142153 1_455
Mg8 O8 2.160626 1_565
Mg9 O11 2.140565 1_555
Mg9 O3 2.140951 1_556
Mg9 O3 2.140951 1_555
Mg9 O7 2.142640 1_555
Mg9 O6 2.142640 1_555
Mg9 O9 2.144147 1_565
Mg10 O1 2.138988 1_555
Mg10 O14 2.138988 1_555
Mg10 O4 2.140752 1_554
Mg10 O4 2.140752 1_555
Mg10 O0 2.146627 1_555
Mg10 O12 2.146627 1_555
Mg11 O15 2.138988 1_555
Mg11 O1 2.138988 1_555
Mg11 O5 2.140752 1_555
Mg11 O5 2.140752 1_554
Mg11 O13 2.146627 1_555
Mg11 O0 2.146627 1_655
Mg12 O3 2.138988 1_555
Mg12 O14 2.138988 1_555
Mg12 O6 2.140752 1_555
Mg12 O6 2.140752 1_554
Mg12 O12 2.146627 1_565
Mg12 O2 2.146627 1_555
Mg13 O15 2.138988 1_555
Mg13 O3 2.138988 1_555
Mg13 O7 2.140752 1_555
Mg13 O7 2.140752 1_554
Mg13 O13 2.146627 1_565
Mg13 O2 2.146627 1_655
Mn0 O8 2.140745 1_555
Mn0 O8 2.140745 1_554
Mn0 O13 2.199659 1_455
Mn0 O12 2.199659 1_555
Mn0 O0 2.199659 1_555
Mn0 O2 2.199659 1_545
Fe0 O11 2.140745 1_555
Fe0 O11 2.140745 1_554
Fe0 O14 2.170249 1_555
Fe0 O15 2.170249 1_555
Fe0 O3 2.170249 1_555
Fe0 O1 2.170249 1_555
