# generated using pymatgen
data_Mn2Zn(PO5)2
_symmetry_space_group_name_H-M   'P 1'
_cell_length_a   10.07867489
_cell_length_b   9.14431041
_cell_length_c   6.58792227
_cell_angle_alpha   77.81061322
_cell_angle_beta   62.47856484
_cell_angle_gamma   39.71082194
_symmetry_Int_Tables_number   1
_chemical_formula_structural   Mn2Zn(PO5)2
_chemical_formula_sum   'Mn4 Zn2 P4 O20'
_cell_volume   332.67690866
_cell_formula_units_Z   2
loop_
 _symmetry_equiv_pos_site_id
 _symmetry_equiv_pos_as_xyz
  1  'x, y, z'
loop_
 _atom_site_type_symbol
 _atom_site_label
 _atom_site_symmetry_multiplicity
 _atom_site_fract_x
 _atom_site_fract_y
 _atom_site_fract_z
 _atom_site_occupancy
  Mn  Mn0  1  0.62500000  0.62500000  0.12500000  1
  Mn  Mn1  1  0.62500000  0.12500000  0.62500000  1
  Mn  Mn2  1  0.62500000  0.62500000  0.62500000  1
  Mn  Mn3  1  0.12500000  0.62500000  0.62500000  1
  Zn  Zn0  1  0.25000000  0.25000000  0.25000000  1
  Zn  Zn1  1  0.00000000  0.00000000  0.00000000  1
  P  P0  1  0.79251500  0.79251500  0.20748500  1
  P  P1  1  0.45748500  0.45748500  0.04251500  1
  P  P2  1  0.20748500  0.20748500  0.79251500  1
  P  P3  1  0.04251500  0.04251500  0.45748500  1
  O  O0  1  0.96816700  0.33832000  0.00219800  1
  O  O1  1  0.41885800  0.41885800  0.58114200  1
  O  O2  1  0.91328700  0.06162500  0.36204200  1
  O  O3  1  0.24780200  0.55868500  0.28183300  1
  O  O4  1  0.33832000  0.96816700  0.69131500  1
  O  O5  1  0.33671300  0.18837500  0.88795800  1
  O  O6  1  0.83114200  0.83114200  0.66885800  1
  O  O7  1  0.58114200  0.58114200  0.41885800  1
  O  O8  1  0.66885800  0.66885800  0.83114200  1
  O  O9  1  0.28183300  0.91168000  0.24780200  1
  O  O10  1  0.69131500  0.00219800  0.33832000  1
  O  O11  1  0.55868500  0.24780200  0.91168000  1
  O  O12  1  0.00219800  0.69131500  0.96816700  1
  O  O13  1  0.06162500  0.91328700  0.66304700  1
  O  O14  1  0.58695300  0.88795800  0.18837500  1
  O  O15  1  0.36204200  0.66304700  0.91328700  1
  O  O16  1  0.88795800  0.58695300  0.33671300  1
  O  O17  1  0.66304700  0.36204200  0.06162500  1
  O  O18  1  0.91168000  0.28183300  0.55868500  1
  O  O19  1  0.18837500  0.33671300  0.58695300  1
loop_
_geom_bond_atom_site_label_1
_geom_bond_atom_site_label_2
_geom_bond_distance
_geom_bond_site_symmetry_2
Mn0 O8 1.805006 1_554
Mn0 O7 1.805006 1_555
Mn0 O0 1.961861 1_555
Mn0 O9 1.961861 1_555
Mn0 O17 2.227252 1_555
Mn0 O14 2.227252 1_555
Mn1 O6 1.805006 1_545
Mn1 O1 1.805006 1_555
Mn1 O10 1.961861 1_555
Mn1 O11 1.961861 1_555
Mn1 O2 2.227260 1_555
Mn1 O5 2.227260 1_555
Mn2 O7 1.805006 1_555
Mn2 O8 1.805006 1_555
Mn2 O4 1.961861 1_555
Mn2 O18 1.961861 1_555
Mn2 O15 2.227255 1_555
Mn2 O16 2.227255 1_555
Mn3 O6 1.805006 1_455
Mn3 O1 1.805006 1_555
Mn3 O3 1.961861 1_555
Mn3 O12 1.961861 1_555
Mn3 O13 2.227262 1_555
Mn3 O19 2.227262 1_555
O0 P2 1.528465 1_654
O2 P3 1.575600 1_655
O2 Zn1 2.157207 1_655
O3 P1 1.528465 1_555
O4 P2 1.528465 1_565
O5 P2 1.575600 1_555
O5 Zn0 2.157207 1_556
O9 P3 1.528465 1_565
O10 P0 1.528465 1_545
O11 P1 1.528465 1_556
O12 P0 1.528465 1_456
O13 P3 1.575605 1_565
O13 Zn1 2.157200 1_566
O14 P0 1.575610 1_555
O14 Zn0 2.157203 1_565
O15 P1 1.575606 1_556
O15 Zn1 2.157205 1_566
O16 P0 1.575606 1_555
O16 Zn0 2.157205 1_655
O17 P1 1.575610 1_555
O17 Zn1 2.157203 1_655
O18 P3 1.528465 1_655
O19 P2 1.575605 1_555
O19 Zn0 2.157200 1_555
