# generated using pymatgen
data_Mg6ZnSb
_symmetry_space_group_name_H-M   'P 1'
_cell_length_a   5.29500800
_cell_length_b   6.14961000
_cell_length_c   10.86686800
_cell_angle_alpha   90.00000000
_cell_angle_beta   90.00000000
_cell_angle_gamma   90.00000000
_symmetry_Int_Tables_number   1
_chemical_formula_structural   Mg6ZnSb
_chemical_formula_sum   'Mg12 Zn2 Sb2'
_cell_volume   353.84950026
_cell_formula_units_Z   2
loop_
 _symmetry_equiv_pos_site_id
 _symmetry_equiv_pos_as_xyz
  1  'x, y, z'
loop_
 _atom_site_type_symbol
 _atom_site_label
 _atom_site_symmetry_multiplicity
 _atom_site_fract_x
 _atom_site_fract_y
 _atom_site_fract_z
 _atom_site_occupancy
  Mg  Mg0  1  0.00000000  0.24967500  0.08438800  1
  Mg  Mg1  1  0.00000000  0.75032500  0.08438800  1
  Mg  Mg2  1  0.00000000  0.00000000  0.33244300  1
  Mg  Mg3  1  0.50000000  0.74557900  0.41109600  1
  Mg  Mg4  1  0.50000000  0.25442100  0.41109600  1
  Mg  Mg5  1  0.50000000  0.00000000  0.16594100  1
  Mg  Mg6  1  0.00000000  0.74967500  0.58438800  1
  Mg  Mg7  1  0.00000000  0.25032500  0.58438800  1
  Mg  Mg8  1  0.00000000  0.50000000  0.83244300  1
  Mg  Mg9  1  0.50000000  0.24557900  0.91109600  1
  Mg  Mg10  1  0.50000000  0.75442100  0.91109600  1
  Mg  Mg11  1  0.50000000  0.50000000  0.66594100  1
  Zn  Zn0  1  0.00000000  0.50000000  0.34913200  1
  Zn  Zn1  1  0.00000000  0.00000000  0.84913200  1
  Sb  Sb0  1  0.50000000  0.50000000  0.16151600  1
  Sb  Sb1  1  0.50000000  0.00000000  0.66151600  1
loop_
_geom_bond_atom_site_label_1
_geom_bond_atom_site_label_2
_geom_bond_distance
_geom_bond_site_symmetry_2
Mg0 Zn1 2.982136 1_554
Mg0 Mg1 3.070808 1_545
Mg0 Mg1 3.078802 1_555
Mg0 Mg2 3.102196 1_555
Mg0 Mg8 3.140955 1_554
Mg0 Sb0 3.175140 1_455
Mg0 Sb0 3.175140 1_555
Mg0 Mg5 3.186242 1_455
Mg0 Mg5 3.186242 1_555
Mg0 Mg9 3.249020 1_454
Mg0 Mg9 3.249020 1_554
Mg0 Zn0 3.262902 1_555
Mg1 Zn1 2.982136 1_564
Mg1 Mg2 3.102196 1_565
Mg1 Mg8 3.140955 1_554
Mg1 Sb0 3.175140 1_455
Mg1 Sb0 3.175140 1_555
Mg1 Mg5 3.186242 1_465
Mg1 Mg5 3.186242 1_565
Mg1 Mg10 3.249020 1_454
Mg1 Mg10 3.249020 1_554
Mg1 Zn0 3.262902 1_555
Mg2 Zn0 3.080149 1_545
Mg2 Zn0 3.080149 1_555
Mg2 Mg7 3.140955 1_555
Mg2 Mg6 3.140955 1_545
Mg2 Mg3 3.191826 1_445
Mg2 Mg4 3.191826 1_555
Mg2 Mg4 3.191826 1_455
Mg2 Mg3 3.191826 1_545
Mg2 Mg5 3.206719 1_555
Mg2 Mg5 3.206719 1_455
Mg3 Mg4 3.020430 1_555
Mg3 Mg5 3.089530 1_565
Mg3 Sb0 3.104275 1_555
Mg3 Zn0 3.121447 1_655
Mg3 Zn0 3.121447 1_555
Mg3 Mg4 3.129180 1_565
Mg3 Sb1 3.138999 1_565
Mg3 Mg6 3.249020 1_555
Mg3 Mg6 3.249020 1_655
Mg4 Mg5 3.089530 1_555
Mg4 Sb0 3.104275 1_555
Mg4 Zn0 3.121447 1_655
Mg4 Zn0 3.121447 1_555
Mg4 Sb1 3.138999 1_555
Mg4 Mg7 3.249020 1_555
Mg4 Mg7 3.249020 1_655
Mg5 Sb0 3.075181 1_545
Mg5 Sb0 3.075181 1_555
Mg5 Mg9 3.154385 1_554
Mg6 Zn0 2.982136 1_555
Mg6 Mg7 3.070808 1_555
Mg6 Mg7 3.078802 1_565
Mg6 Mg8 3.102196 1_555
Mg6 Sb1 3.175140 1_565
Mg6 Sb1 3.175140 1_465
Mg6 Zn1 3.262902 1_565
Mg7 Zn0 2.982136 1_555
Mg7 Mg8 3.102196 1_555
Mg7 Sb1 3.175140 1_455
Mg7 Sb1 3.175140 1_555
Mg7 Zn1 3.262902 1_555
Mg8 Zn1 3.080149 1_555
Mg8 Zn1 3.080149 1_565
Mg8 Mg9 3.191826 1_555
Mg8 Mg9 3.191826 1_455
Mg9 Sb1 3.104275 1_555
Mg9 Zn1 3.121447 1_655
Mg9 Zn1 3.121447 1_555
Mg9 Sb0 3.138999 1_556
Mg10 Mg9 3.020430 1_565
Mg10 Mg11 3.089530 1_555
Mg10 Sb1 3.104275 1_565
Mg10 Zn1 3.121447 1_665
Mg10 Zn1 3.121447 1_565
Mg10 Mg9 3.129180 1_555
Mg10 Sb0 3.138999 1_556
Mg10 Mg5 3.154385 1_566
Mg10 Mg8 3.191826 1_655
Mg10 Mg8 3.191826 1_555
Mg11 Sb1 3.075181 1_555
Mg11 Sb1 3.075181 1_565
Mg11 Mg9 3.089530 1_555
Mg11 Mg3 3.154385 1_555
Mg11 Mg4 3.154385 1_555
Mg11 Mg6 3.186242 1_555
Mg11 Mg6 3.186242 1_655
Mg11 Mg7 3.186242 1_655
Mg11 Mg7 3.186242 1_555
Mg11 Mg8 3.206719 1_655
Mg11 Mg8 3.206719 1_555
Sb0 Zn0 3.341553 1_655
Sb0 Zn0 3.341553 1_555
Sb1 Zn1 3.341553 1_555
Sb1 Zn1 3.341553 1_655
