# generated using pymatgen
data_Sr2La2MgTi3O12
_symmetry_space_group_name_H-M   'P 1'
_cell_length_a   5.59171500
_cell_length_b   5.61077592
_cell_length_c   7.88313602
_cell_angle_alpha   89.96256035
_cell_angle_beta   89.95586055
_cell_angle_gamma   89.94151736
_symmetry_Int_Tables_number   1
_chemical_formula_structural   Sr2La2MgTi3O12
_chemical_formula_sum   'Sr2 La2 Mg1 Ti3 O12'
_cell_volume   247.32415002
_cell_formula_units_Z   1
loop_
 _symmetry_equiv_pos_site_id
 _symmetry_equiv_pos_as_xyz
  1  'x, y, z'
loop_
 _atom_site_type_symbol
 _atom_site_label
 _atom_site_symmetry_multiplicity
 _atom_site_fract_x
 _atom_site_fract_y
 _atom_site_fract_z
 _atom_site_occupancy
  Sr  Sr0  1  0.49203500  0.50069000  0.24501700  1
  Sr  Sr1  1  0.00744700  0.00395200  0.75490200  1
  La  La0  1  0.98145300  0.98656100  0.23651500  1
  La  La1  1  0.51123900  0.49625200  0.76255400  1
  Mg  Mg0  1  0.49789000  0.99983200  0.99906100  1
  Ti  Ti0  1  0.99826100  0.49903900  0.50110600  1
  Ti  Ti1  1  0.49539400  0.00020100  0.49790900  1
  Ti  Ti2  1  0.00139500  0.49858500  0.00020300  1
  O  O0  1  0.22572800  0.75970300  0.03594600  1
  O  O1  1  0.74926000  0.74468100  0.46440600  1
  O  O2  1  0.75667000  0.25059100  0.53714700  1
  O  O3  1  0.26093300  0.27643400  0.96490800  1
  O  O4  1  0.76274500  0.25421300  0.96796700  1
  O  O5  1  0.26717600  0.26906300  0.53725900  1
  O  O6  1  0.23129500  0.76638500  0.46225700  1
  O  O7  1  0.75108300  0.73769400  0.03237100  1
  O  O8  1  0.00189900  0.42447100  0.25460500  1
  O  O9  1  0.51116800  0.05400200  0.26116300  1
  O  O10  1  0.99675400  0.55701800  0.74596500  1
  O  O11  1  0.50017300  0.92063400  0.73873900  1
loop_
_geom_bond_atom_site_label_1
_geom_bond_atom_site_label_2
_geom_bond_distance
_geom_bond_site_symmetry_2
La0 O0 2.445719 1_655
La0 O8 2.464018 1_665
La0 O7 2.491737 1_555
La0 O6 2.577226 1_655
La0 O1 2.598415 1_555
La0 O9 2.663369 1_565
La0 O4 2.868553 1_564
La0 O9 2.992949 1_665
La0 O2 3.063849 1_565
La0 O3 3.109233 1_664
La0 O8 3.158847 1_655
La0 O5 3.271334 1_665
La1 O11 2.389122 1_555
La1 O3 2.454031 1_555
La1 O4 2.537897 1_555
La1 O5 2.579127 1_555
La1 O2 2.633682 1_555
La1 O10 2.739544 1_555
La1 O7 2.858290 1_556
La1 O10 2.899681 1_455
La1 O1 3.038603 1_555
La1 O0 3.061477 1_556
La1 O6 3.216798 1_555
La1 O11 3.235895 1_545
Mg0 O0 2.053976 1_556
Mg0 O7 2.057293 1_556
Mg0 O3 2.057295 1_565
Mg0 O4 2.072158 1_565
Mg0 O9 2.090004 1_566
Mg0 O11 2.100023 1_555
O0 Ti2 1.950438 1_555
O0 Sr0 2.653680 1_555
O0 Sr1 2.876301 1_564
O1 Ti0 1.979407 1_555
O1 Ti1 2.033722 1_565
O1 Sr0 2.635321 1_555
O1 Sr1 3.075452 1_665
O2 Ti0 1.962551 1_555
O2 Ti1 2.051656 1_555
O2 Sr1 2.612414 1_655
O2 Sr0 3.075540 1_555
O3 Ti2 1.932182 1_556
O3 Sr1 2.664295 1_555
O3 Sr0 2.853128 1_556
O4 Ti2 1.931332 1_656
O4 Sr1 2.580825 1_655
O4 Sr0 2.994731 1_556
O5 Ti1 1.999112 1_555
O5 Ti0 2.000883 1_455
O5 Sr1 2.694949 1_555
O5 Sr0 2.927846 1_555
O6 Ti1 1.996486 1_565
O6 Ti0 2.011115 1_455
O6 Sr0 2.697385 1_555
O6 Sr1 2.943074 1_565
O7 Ti2 1.954306 1_655
O7 Sr0 2.583378 1_555
O7 Sr1 3.011048 1_664
O8 Ti0 1.988083 1_455
O8 Ti2 2.047881 1_555
O8 Sr0 2.775260 1_555
O8 Sr0 2.883518 1_455
O9 Ti1 1.892365 1_555
O9 Sr0 2.511588 1_555
O9 Sr0 3.109155 1_545
O10 Ti0 1.957697 1_555
O10 Ti2 2.030801 1_656
O10 Sr1 2.509457 1_665
O10 Sr1 3.104399 1_655
O11 Ti1 1.950192 1_565
O11 Sr1 2.796911 1_565
O11 Sr1 2.878198 1_665
