# generated using pymatgen
data_Mg14TiCu
_symmetry_space_group_name_H-M   'P 1'
_cell_length_a   6.28470733
_cell_length_b   6.28470684
_cell_length_c   10.00071404
_cell_angle_alpha   90.00000000
_cell_angle_beta   90.00000000
_cell_angle_gamma   120.00000265
_symmetry_Int_Tables_number   1
_chemical_formula_structural   Mg14TiCu
_chemical_formula_sum   'Mg14 Ti1 Cu1'
_cell_volume   342.08317251
_cell_formula_units_Z   1
loop_
 _symmetry_equiv_pos_site_id
 _symmetry_equiv_pos_as_xyz
  1  'x, y, z'
loop_
 _atom_site_type_symbol
 _atom_site_label
 _atom_site_symmetry_multiplicity
 _atom_site_fract_x
 _atom_site_fract_y
 _atom_site_fract_z
 _atom_site_occupancy
  Mg  Mg0  1  0.16460158  0.83230029  0.12500000  1
  Mg  Mg1  1  0.17329039  0.83664469  0.62500000  1
  Mg  Mg2  1  0.66769971  0.33539842  0.12500000  1
  Mg  Mg3  1  0.66335531  0.32670961  0.62500000  1
  Mg  Mg4  1  0.66769971  0.83230029  0.12500000  1
  Mg  Mg5  1  0.66335531  0.83664469  0.62500000  1
  Mg  Mg6  1  0.32655381  0.17344619  0.37081109  1
  Mg  Mg7  1  0.32655381  0.17344619  0.87918891  1
  Mg  Mg8  1  0.32655381  0.65310861  0.37081109  1
  Mg  Mg9  1  0.32655381  0.65310861  0.87918891  1
  Mg  Mg10  1  0.84689139  0.17344619  0.37081109  1
  Mg  Mg11  1  0.84689139  0.17344619  0.87918891  1
  Mg  Mg12  1  0.83333300  0.66666700  0.37812739  1
  Mg  Mg13  1  0.83333300  0.66666700  0.87187261  1
  Ti  Ti0  1  0.16666700  0.33333300  0.62500000  1
  Cu  Cu0  1  0.16666700  0.33333300  0.12500000  1
loop_
_geom_bond_atom_site_label_1
_geom_bond_atom_site_label_2
_geom_bond_distance
_geom_bond_site_symmetry_2
Mg0 Mg9 3.081173 1_554
Mg0 Mg8 3.081173 1_555
Mg0 Mg7 3.081179 1_564
Mg0 Mg6 3.081179 1_565
Mg0 Mg13 3.107905 1_454
Mg0 Mg12 3.107905 1_455
Mg0 Mg2 3.122883 1_455
Mg0 Mg4 3.122883 1_455
Mg0 Mg2 3.161824 1_565
Mg0 Mg4 3.161825 1_555
Mg1 Mg3 3.079914 1_565
Mg1 Mg5 3.079915 1_555
Mg1 Mg12 3.085297 1_455
Mg1 Mg13 3.085297 1_455
Mg1 Mg9 3.135513 1_555
Mg1 Mg8 3.135513 1_555
Mg1 Mg6 3.135520 1_565
Mg1 Mg7 3.135520 1_565
Mg1 Ti0 3.142560 1_555
Mg1 Ti0 3.142560 1_565
Mg1 Mg3 3.204792 1_455
Mg1 Mg5 3.204793 1_455
Mg2 Mg7 3.081179 1_554
Mg2 Mg6 3.081179 1_555
Mg2 Mg4 3.122883 1_555
Mg2 Mg4 3.161824 1_545
Mg3 Mg5 3.079914 1_545
Mg3 Mg6 3.135520 1_555
Mg3 Mg7 3.135520 1_555
Mg3 Ti0 3.142560 1_655
Mg3 Ti0 3.142560 1_555
Mg3 Mg5 3.204792 1_555
Mg4 Mg9 3.081179 1_554
Mg4 Mg8 3.081179 1_555
Mg5 Mg9 3.135519 1_555
Mg5 Mg8 3.135519 1_555
Mg5 Ti0 3.142560 1_555
Mg5 Ti0 3.142560 1_665
Mg6 Mg8 3.014538 1_555
Mg6 Ti0 3.080786 1_555
Mg6 Mg8 3.270169 1_545
Mg7 Mg9 3.014538 1_555
Mg7 Ti0 3.080786 1_555
Mg7 Mg9 3.270169 1_545
Mg8 Ti0 3.080792 1_555
Mg9 Ti0 3.080792 1_555
Mg10 Mg8 3.014538 1_655
Mg10 Mg6 3.014538 1_655
Mg10 Ti0 3.080792 1_655
Mg10 Mg2 3.081173 1_555
Mg10 Mg4 3.081179 1_545
Mg10 Mg3 3.135513 1_555
Mg10 Mg5 3.135519 1_545
Mg10 Mg12 3.144071 1_545
Mg10 Mg12 3.144071 1_555
Mg10 Mg8 3.270169 1_545
Mg10 Mg6 3.270169 1_555
Mg11 Mg9 3.014538 1_655
Mg11 Mg7 3.014538 1_655
Mg11 Ti0 3.080792 1_655
Mg11 Mg2 3.081173 1_556
Mg11 Mg4 3.081179 1_546
Mg11 Mg3 3.135513 1_555
Mg11 Mg5 3.135519 1_545
Mg11 Mg13 3.144071 1_545
Mg11 Mg13 3.144071 1_555
Mg11 Mg9 3.270169 1_545
Mg11 Mg7 3.270169 1_555
Mg12 Mg5 3.085290 1_555
Mg12 Mg3 3.085297 1_555
Mg12 Mg4 3.107899 1_555
Mg12 Mg2 3.107905 1_555
Mg12 Mg6 3.144071 1_665
Mg12 Mg6 3.144071 1_555
Mg12 Mg8 3.144071 1_555
Mg12 Mg8 3.144072 1_655
Mg13 Mg5 3.085290 1_555
Mg13 Mg3 3.085297 1_555
Mg13 Mg4 3.107899 1_556
Mg13 Mg2 3.107905 1_556
Mg13 Mg7 3.144071 1_665
Mg13 Mg7 3.144071 1_555
Mg13 Mg9 3.144071 1_555
Mg13 Mg9 3.144072 1_655
Cu0 Mg6 3.012025 1_555
Cu0 Mg7 3.012025 1_554
Cu0 Mg8 3.012031 1_555
Cu0 Mg9 3.012031 1_554
Cu0 Mg11 3.012031 1_454
Cu0 Mg10 3.012031 1_455
Cu0 Mg4 3.142374 1_445
Cu0 Mg4 3.142374 1_555
Cu0 Mg0 3.142374 1_545
Cu0 Mg0 3.142374 1_555
Cu0 Mg2 3.142374 1_555
Cu0 Mg2 3.142374 1_455
