# generated using pymatgen
data_NdMgAu
_symmetry_space_group_name_H-M   'P 1'
_cell_length_a   7.76651881
_cell_length_b   7.76651881
_cell_length_c   4.16308327
_cell_angle_alpha   90.00000000
_cell_angle_beta   90.00000000
_cell_angle_gamma   120.00000159
_symmetry_Int_Tables_number   1
_chemical_formula_structural   NdMgAu
_chemical_formula_sum   'Nd3 Mg3 Au3'
_cell_volume   217.46958163
_cell_formula_units_Z   3
loop_
 _symmetry_equiv_pos_site_id
 _symmetry_equiv_pos_as_xyz
  1  'x, y, z'
loop_
 _atom_site_type_symbol
 _atom_site_label
 _atom_site_symmetry_multiplicity
 _atom_site_fract_x
 _atom_site_fract_y
 _atom_site_fract_z
 _atom_site_occupancy
  Nd  Nd0  1  0.58496236  -0.00000000  -0.00000000  1
  Nd  Nd1  1  -0.00000000  0.58496236  -0.00000000  1
  Nd  Nd2  1  0.41503764  0.41503764  0.00000000  1
  Mg  Mg0  1  0.23957624  0.00000000  0.50000000  1
  Mg  Mg1  1  0.00000000  0.23957624  0.50000000  1
  Mg  Mg2  1  0.76042376  0.76042376  0.50000000  1
  Au  Au0  1  0.33333300  0.66666700  0.50000000  1
  Au  Au1  1  0.66666700  0.33333300  0.50000000  1
  Au  Au2  1  0.00000000  0.00000000  -0.00000000  1
loop_
_geom_bond_atom_site_label_1
_geom_bond_atom_site_label_2
_geom_bond_distance
_geom_bond_site_symmetry_2
Au0 Mg0 3.019503 1_565
Au0 Mg1 3.019508 1_555
Au0 Mg2 3.019510 1_555
Au0 Nd1 3.129662 1_555
Au0 Nd1 3.129662 1_556
Au0 Nd0 3.129664 1_565
Au0 Nd0 3.129664 1_566
Au0 Nd2 3.129668 1_555
Au0 Nd2 3.129668 1_556
Au1 Mg1 3.019503 1_655
Au1 Mg0 3.019508 1_555
Au1 Mg2 3.019510 1_555
Au1 Nd0 3.129662 1_555
Au1 Nd0 3.129662 1_556
Au1 Nd1 3.129664 1_655
Au1 Nd1 3.129664 1_656
Au1 Nd2 3.129668 1_555
Au1 Nd2 3.129668 1_556
Au2 Mg2 2.791939 1_444
Au2 Mg2 2.791939 1_445
Au2 Mg0 2.791939 1_554
Au2 Mg1 2.791939 1_554
Au2 Mg0 2.791939 1_555
Au2 Mg1 2.791939 1_555
Au2 Nd2 3.223398 1_555
Au2 Nd1 3.223398 1_545
Au2 Nd0 3.223398 1_455
