# generated using pymatgen
data_CaTi3P3O13
_symmetry_space_group_name_H-M   'P 1'
_cell_length_a   6.47357300
_cell_length_b   7.75499100
_cell_length_c   10.40547583
_cell_angle_alpha   80.22153392
_cell_angle_beta   90.00000000
_cell_angle_gamma   90.00000000
_symmetry_Int_Tables_number   1
_chemical_formula_structural   CaTi3P3O13
_chemical_formula_sum   'Ca2 Ti6 P6 O26'
_cell_volume   514.79164998
_cell_formula_units_Z   2
loop_
 _symmetry_equiv_pos_site_id
 _symmetry_equiv_pos_as_xyz
  1  'x, y, z'
loop_
 _atom_site_type_symbol
 _atom_site_label
 _atom_site_symmetry_multiplicity
 _atom_site_fract_x
 _atom_site_fract_y
 _atom_site_fract_z
 _atom_site_occupancy
  Ca  Ca0  1  0.75000000  0.34967800  0.19142000  1
  Ca  Ca1  1  0.25000000  0.65032200  0.80858000  1
  Ti  Ti0  1  0.25000000  0.64878800  0.19988900  1
  Ti  Ti1  1  0.75000000  0.35121200  0.80011100  1
  Ti  Ti2  1  0.25000000  0.20739200  0.43640500  1
  Ti  Ti3  1  0.50000000  0.00000000  0.00000000  1
  Ti  Ti4  1  0.75000000  0.79260800  0.56359500  1
  Ti  Ti5  1  0.00000000  0.00000000  0.00000000  1
  P  P0  1  0.25000000  0.78072000  0.49068400  1
  P  P1  1  0.75000000  0.21928000  0.50931600  1
  P  P2  1  0.25000000  0.26285500  0.76148500  1
  P  P3  1  0.75000000  0.73714500  0.23851500  1
  P  P4  1  0.75000000  0.68216900  0.88474700  1
  P  P5  1  0.25000000  0.31783100  0.11525300  1
  O  O0  1  0.75000000  0.64003700  0.74244800  1
  O  O1  1  0.56146900  0.24944700  0.41631500  1
  O  O2  1  0.25000000  0.21509400  0.62487700  1
  O  O3  1  0.55108800  0.78670900  0.90268200  1
  O  O4  1  0.75000000  0.34080700  0.60994700  1
  O  O5  1  0.75000000  0.13362600  0.90490400  1
  O  O6  1  0.25000000  0.65919300  0.39005300  1
  O  O7  1  0.05108800  0.21329100  0.09731800  1
  O  O8  1  0.25000000  0.97414000  0.41609500  1
  O  O9  1  0.75000000  0.02586000  0.58390500  1
  O  O10  1  0.06354000  0.37894200  0.78533900  1
  O  O11  1  0.25000000  0.86637400  0.09509600  1
  O  O12  1  0.56354000  0.62105800  0.21466100  1
  O  O13  1  0.75000000  0.49506100  0.96498200  1
  O  O14  1  0.75000000  0.78490600  0.37512300  1
  O  O15  1  0.44891200  0.21329100  0.09731800  1
  O  O16  1  0.93853100  0.24944700  0.41631500  1
  O  O17  1  0.43853100  0.75055300  0.58368500  1
  O  O18  1  0.43646000  0.37894200  0.78533900  1
  O  O19  1  0.25000000  0.35996300  0.25755200  1
  O  O20  1  0.75000000  0.90941400  0.13495600  1
  O  O21  1  0.25000000  0.09058600  0.86504400  1
  O  O22  1  0.93646000  0.62105800  0.21466100  1
  O  O23  1  0.94891200  0.78670900  0.90268200  1
  O  O24  1  0.06146900  0.75055300  0.58368500  1
  O  O25  1  0.25000000  0.50493900  0.03501800  1
loop_
_geom_bond_atom_site_label_1
_geom_bond_atom_site_label_2
_geom_bond_distance
_geom_bond_site_symmetry_2
Ca0 O13 2.433195 1_554
Ca0 O12 2.473356 1_555
Ca0 O22 2.473356 1_555
Ca0 O7 2.495659 1_655
Ca0 O15 2.495659 1_555
Ca0 O16 2.636686 1_555
Ca0 O1 2.636686 1_555
Ca1 O25 2.433195 1_556
Ca1 O18 2.473356 1_555
Ca1 O10 2.473356 1_555
Ca1 O3 2.495659 1_555
Ca1 O23 2.495659 1_455
Ca1 O17 2.636686 1_555
Ca1 O24 2.636686 1_555
O0 P4 1.569563 1_555
O0 Ti4 2.028664 1_555
O0 Ti1 2.218191 1_555
O1 P1 1.550437 1_555
O1 Ti2 2.047545 1_555
O2 P2 1.528596 1_555
O2 Ti2 1.972164 1_555
O3 P4 1.549698 1_555
O3 Ti3 2.107064 1_566
O4 P1 1.523105 1_555
O4 Ti1 1.994037 1_555
O5 Ti1 1.846962 1_555
O5 Ti5 2.079396 1_656
O5 Ti3 2.079396 1_556
O6 P0 1.523105 1_555
O6 Ti0 1.994037 1_555
O7 P5 1.549698 1_555
O7 Ti5 2.107064 1_555
O8 P0 1.567434 1_555
O8 Ti2 1.856479 1_565
O9 P1 1.567434 1_555
O9 Ti4 1.856479 1_545
O10 P2 1.550796 1_555
O10 Ti1 2.044119 1_455
O11 Ti0 1.846962 1_555
O11 Ti5 2.079396 1_565
O11 Ti3 2.079396 1_565
O12 P3 1.550796 1_555
O12 Ti0 2.044119 1_555
O13 P4 1.546284 1_555
O13 Ti1 2.199470 1_555
O14 P3 1.528596 1_555
O14 Ti4 1.972164 1_555
O15 P5 1.549698 1_555
O15 Ti3 2.107064 1_555
O16 P1 1.550437 1_555
O16 Ti2 2.047545 1_655
O17 P0 1.550437 1_555
O17 Ti4 2.047545 1_555
O18 P2 1.550796 1_555
O18 Ti1 2.044119 1_555
O19 P5 1.569563 1_555
O19 Ti2 2.028664 1_555
O19 Ti0 2.218191 1_555
O20 P3 1.567460 1_555
O20 Ti3 2.179360 1_565
O20 Ti5 2.179360 1_665
O21 P2 1.567460 1_555
O21 Ti5 2.179360 1_556
O21 Ti3 2.179360 1_556
O22 P3 1.550796 1_555
O22 Ti0 2.044119 1_655
O23 P4 1.549698 1_555
O23 Ti5 2.107064 1_666
O24 P0 1.550437 1_555
O24 Ti4 2.047545 1_455
O25 P5 1.546284 1_555
O25 Ti0 2.199470 1_555
