# generated using pymatgen
data_Sr4LaMn5O13
_symmetry_space_group_name_H-M   'P 1'
_cell_length_a   7.65894001
_cell_length_b   8.88628219
_cell_length_c   9.64633379
_cell_angle_alpha   90.33543170
_cell_angle_beta   66.61012276
_cell_angle_gamma   89.99549139
_symmetry_Int_Tables_number   1
_chemical_formula_structural   Sr4LaMn5O13
_chemical_formula_sum   'Sr8 La2 Mn10 O26'
_cell_volume   602.56222310
_cell_formula_units_Z   2
loop_
 _symmetry_equiv_pos_site_id
 _symmetry_equiv_pos_as_xyz
  1  'x, y, z'
loop_
 _atom_site_type_symbol
 _atom_site_label
 _atom_site_symmetry_multiplicity
 _atom_site_fract_x
 _atom_site_fract_y
 _atom_site_fract_z
 _atom_site_occupancy
  Sr  Sr0  1  0.79791900  0.31754600  0.89730300  1
  Sr  Sr1  1  0.30480000  0.31752900  0.89728800  1
  Sr  Sr2  1  0.20181900  0.68457100  0.09947200  1
  Sr  Sr3  1  0.69870600  0.68457800  0.09948600  1
  Sr  Sr4  1  0.89634000  0.88761700  0.70642100  1
  Sr  Sr5  1  0.39719300  0.88762300  0.70641200  1
  Sr  Sr6  1  0.10240600  0.11244200  0.29670100  1
  Sr  Sr7  1  0.60090200  0.11245700  0.29672500  1
  La  La0  1  0.99754900  0.49837600  0.50302900  1
  La  La1  1  0.49942400  0.49828900  0.50306100  1
  Mn  Mn0  1  0.09972700  0.60522900  0.80056800  1
  Mn  Mn1  1  0.90097700  0.39369500  0.19807100  1
  Mn  Mn2  1  0.69794900  0.19197500  0.60419400  1
  Mn  Mn3  1  0.30275400  0.80414400  0.39443800  1
  Mn  Mn4  1  0.80302100  0.80179000  0.39386500  1
  Mn  Mn5  1  0.49882300  0.00563800  0.00238200  1
  Mn  Mn6  1  0.99955700  0.99913400  0.00086100  1
  Mn  Mn7  1  0.60029500  0.60703600  0.79940300  1
  Mn  Mn8  1  0.39989100  0.39691800  0.20022800  1
  Mn  Mn9  1  0.19625600  0.19305000  0.60752200  1
  O  O0  1  0.50513300  0.50753400  0.98975700  1
  O  O1  1  0.00328000  0.50263100  0.99350100  1
  O  O2  1  0.15686700  0.41866600  0.68643200  1
  O  O3  1  0.66300800  0.40879200  0.67393500  1
  O  O4  1  0.34248500  0.58319700  0.31490700  1
  O  O5  1  0.84264800  0.58142500  0.31466300  1
  O  O6  1  0.95663900  0.16010800  0.58957700  1
  O  O7  1  0.45387200  0.16018400  0.58954900  1
  O  O8  1  0.04118900  0.83565800  0.41366800  1
  O  O9  1  0.54504500  0.83571900  0.41369900  1
  O  O10  1  0.09941900  0.08094300  0.80126900  1
  O  O11  1  0.59873200  0.09102400  0.80261200  1
  O  O12  1  0.39886600  0.92047900  0.20218000  1
  O  O13  1  0.89999600  0.91296300  0.19986100  1
  O  O14  1  0.04312200  0.80114100  0.91357400  1
  O  O15  1  0.54180600  0.81393900  0.91644100  1
  O  O16  1  0.45611600  0.20486000  0.08791500  1
  O  O17  1  0.95805000  0.19624600  0.08394400  1
  O  O18  1  0.20130700  0.71523000  0.59733900  1
  O  O19  1  0.70155800  0.71405100  0.59685900  1
  O  O20  1  0.29406100  0.28106200  0.41178800  1
  O  O21  1  0.79794900  0.27125000  0.40414200  1
  O  O22  1  0.85927300  0.60263400  0.79039700  1
  O  O23  1  0.35029900  0.60273800  0.79046700  1
  O  O24  1  0.14624500  0.39893600  0.20702000  1
  O  O25  1  0.64672800  0.39895100  0.20707500  1
loop_
_geom_bond_atom_site_label_1
_geom_bond_atom_site_label_2
_geom_bond_distance
_geom_bond_site_symmetry_2
La0 O3 2.564864 1_555
La0 O2 2.617079 1_655
La0 O5 2.642138 1_555
La0 O4 2.655276 1_655
La0 O22 2.702417 1_555
La0 O24 2.760352 1_655
La0 O19 2.825147 1_555
La0 O20 2.837884 1_655
La0 O18 2.843169 1_655
La0 O21 2.907959 1_555
La0 O8 3.104759 1_655
La0 O6 3.106884 1_555
La1 O3 2.563975 1_555
La1 O2 2.615943 1_555
La1 O5 2.642298 1_555
La1 O4 2.656369 1_555
La1 O23 2.703305 1_555
La1 O25 2.759874 1_555
La1 O19 2.825567 1_555
La1 O20 2.838203 1_555
La1 O18 2.843743 1_555
La1 O21 2.907412 1_555
La1 O7 3.105346 1_555
La1 O9 3.106032 1_555
Mn0 O23 1.882682 1_555
Mn0 O22 1.882863 1_455
Mn0 O2 1.936010 1_555
Mn0 O1 1.941393 1_555
Mn0 O14 2.002380 1_555
Mn0 O18 2.053194 1_555
Mn1 O24 1.914961 1_655
Mn1 O25 1.915011 1_555
Mn1 O5 1.956131 1_555
Mn1 O17 2.019116 1_555
Mn1 O1 2.059123 1_654
Mn1 O21 2.130283 1_555
Mn2 O21 1.910334 1_555
Mn2 O6 1.950186 1_555
Mn2 O7 1.950284 1_555
Mn2 O11 1.977634 1_555
Mn2 O3 2.019446 1_555
Mn3 O9 1.957055 1_555
Mn3 O8 1.957126 1_555
Mn3 O18 1.967126 1_555
Mn3 O12 1.997176 1_555
Mn3 O4 2.081589 1_555
Mn4 O9 1.931444 1_555
Mn4 O8 1.931460 1_655
Mn4 O19 1.963650 1_555
Mn4 O13 1.986966 1_555
Mn4 O5 2.075754 1_555
Mn5 O15 1.861240 1_544
Mn5 O16 1.921039 1_555
Mn5 O12 1.928467 1_545
Mn5 O11 1.929043 1_554
Mn6 O17 1.895427 1_565
Mn6 O10 1.915117 1_664
Mn6 O14 1.917123 1_654
Mn6 O13 1.925582 1_555
Mn7 O0 1.908206 1_555
Mn7 O23 1.950897 1_555
Mn7 O22 1.951018 1_555
Mn7 O19 2.035181 1_555
Mn7 O3 2.076609 1_555
Mn7 O15 2.104696 1_555
Mn8 O24 1.917672 1_555
Mn8 O25 1.917771 1_555
Mn8 O4 1.936348 1_555
Mn8 O16 1.969718 1_555
Mn8 O0 2.112369 1_554
Mn8 O20 2.143147 1_555
Mn9 O20 1.905836 1_555
Mn9 O6 1.932714 1_455
Mn9 O7 1.932889 1_555
Mn9 O10 1.989182 1_555
Mn9 O2 2.118893 1_555
O0 Sr2 2.649443 1_556
O0 Sr3 2.649596 1_556
O0 Sr0 2.658591 1_555
O0 Sr1 2.658960 1_555
O1 Sr1 2.679507 1_555
O1 Sr0 2.679817 1_455
O1 Sr2 2.680729 1_556
O1 Sr3 2.680943 1_456
O2 Sr1 2.842448 1_555
O2 Sr0 2.843379 1_455
O3 Sr1 2.855550 1_555
O3 Sr0 2.855832 1_555
O4 Sr2 2.844351 1_555
O4 Sr3 2.845037 1_555
O5 Sr3 2.864087 1_555
O5 Sr2 2.864482 1_655
O6 Sr6 2.624711 1_655
O6 Sr4 2.639290 1_545
O6 Sr0 3.054944 1_555
O7 Sr7 2.624340 1_555
O7 Sr5 2.639922 1_545
O7 Sr1 3.054669 1_555
O8 Sr4 2.629845 1_455
O8 Sr6 2.674899 1_565
O8 Sr2 3.081185 1_555
O9 Sr5 2.629412 1_555
O9 Sr7 2.674538 1_565
O9 Sr3 3.081523 1_555
O10 Sr5 2.704407 1_545
O10 Sr4 2.705461 1_445
O10 Sr1 2.981057 1_555
O10 Sr0 2.981448 1_455
O11 Sr4 2.761179 1_545
O11 Sr5 2.762034 1_545
O11 Sr1 2.880747 1_555
O11 Sr0 2.880787 1_555
O12 Sr6 2.689640 1_565
O12 Sr7 2.690570 1_565
O12 Sr2 2.969377 1_555
O12 Sr3 2.969537 1_555
O13 Sr7 2.746594 1_565
O13 Sr6 2.747535 1_665
O13 Sr3 2.931852 1_555
O13 Sr2 2.932484 1_655
O14 Sr3 2.741088 1_456
O14 Sr2 2.741920 1_556
O14 Sr4 2.765656 1_455
O14 Sr5 2.766510 1_555
O15 Sr4 2.748504 1_555
O15 Sr5 2.749046 1_555
O15 Sr3 2.755260 1_556
O15 Sr2 2.755601 1_556
O16 Sr0 2.727072 1_554
O16 Sr1 2.727688 1_554
O16 Sr7 2.784559 1_555
O16 Sr6 2.785211 1_555
O17 Sr1 2.771830 1_654
O17 Sr0 2.771846 1_554
O17 Sr6 2.794344 1_655
O17 Sr7 2.794657 1_555
O18 Sr4 2.634133 1_455
O18 Sr5 2.634289 1_555
O19 Sr5 2.637105 1_555
O19 Sr4 2.637135 1_555
O20 Sr6 2.628128 1_555
O20 Sr7 2.628419 1_555
O21 Sr6 2.562536 1_655
O21 Sr7 2.562659 1_555
O22 Sr4 2.644161 1_555
O22 Sr0 2.710773 1_555
O22 Sr3 2.827648 1_556
O23 Sr5 2.643526 1_555
O23 Sr1 2.711506 1_555
O23 Sr2 2.826683 1_556
O24 Sr6 2.671677 1_555
O24 Sr2 2.716706 1_555
O24 Sr1 2.831721 1_554
O25 Sr7 2.671595 1_555
O25 Sr3 2.716767 1_555
O25 Sr0 2.832060 1_554
