# generated using pymatgen
data_Zr3TiO8
_symmetry_space_group_name_H-M   'P 1'
_cell_length_a   6.42107762
_cell_length_b   6.42107762
_cell_length_c   6.42107762
_cell_angle_alpha   133.20469476
_cell_angle_beta   133.20469476
_cell_angle_gamma   68.33286960
_symmetry_Int_Tables_number   1
_chemical_formula_structural   Zr3TiO8
_chemical_formula_sum   'Zr3 Ti1 O8'
_cell_volume   138.17410153
_cell_formula_units_Z   1
loop_
 _symmetry_equiv_pos_site_id
 _symmetry_equiv_pos_as_xyz
  1  'x, y, z'
loop_
 _atom_site_type_symbol
 _atom_site_label
 _atom_site_symmetry_multiplicity
 _atom_site_fract_x
 _atom_site_fract_y
 _atom_site_fract_z
 _atom_site_occupancy
  Zr  Zr0  1  0.25000000  0.75000000  0.50000000  1
  Zr  Zr1  1  0.75000000  0.25000000  0.50000000  1
  Zr  Zr2  1  0.50000000  0.50000000  0.00000000  1
  Ti  Ti0  1  0.00000000  0.00000000  0.00000000  1
  O  O0  1  0.55025900  0.13411300  0.00000000  1
  O  O1  1  0.13411300  0.55025800  0.00000000  1
  O  O2  1  0.86588700  0.86588700  0.41614600  1
  O  O3  1  0.44974200  0.44974200  0.58385400  1
  O  O4  1  0.31284900  0.86716600  0.00000000  1
  O  O5  1  0.86716600  0.31284900  0.00000000  1
  O  O6  1  0.13283400  0.13283400  0.44568300  1
  O  O7  1  0.68715100  0.68715100  0.55431700  1
loop_
_geom_bond_atom_site_label_1
_geom_bond_atom_site_label_2
_geom_bond_distance
_geom_bond_site_symmetry_2
O0 Zr1 2.074096 1_555
O0 Zr0 2.074096 1_544
O0 Zr2 2.250313 1_555
O1 Zr0 2.074094 1_555
O1 Zr1 2.074094 1_454
O1 Zr2 2.250314 1_555
O2 Zr0 2.074096 1_655
O2 Zr1 2.074096 1_565
O2 Zr2 2.250313 1_555
O3 Zr1 2.074091 1_555
O3 Zr0 2.074091 1_555
O3 Zr2 2.250321 1_556
O4 Ti0 1.870205 1_565
O4 Zr2 2.215923 1_555
O4 Zr0 2.485844 1_554
O4 Zr1 2.485844 1_565
O5 Ti0 1.870205 1_655
O5 Zr2 2.215923 1_555
O5 Zr1 2.485844 1_554
O5 Zr0 2.485844 1_655
O6 Ti0 1.870205 1_555
O6 Zr2 2.215923 1_556
O6 Zr1 2.485844 1_455
O6 Zr0 2.485844 1_545
O7 Ti0 1.870205 1_666
O7 Zr2 2.215923 1_555
O7 Zr0 2.485844 1_555
O7 Zr1 2.485844 1_555
