# generated using pymatgen
data_TeC16(I2N)2
_symmetry_space_group_name_H-M   'P 1'
_cell_length_a   9.22445300
_cell_length_b   9.28293065
_cell_length_c   9.22445300
_cell_angle_alpha   119.79182913
_cell_angle_beta   90.00000000
_cell_angle_gamma   119.79182913
_symmetry_Int_Tables_number   1
_chemical_formula_structural   TeC16(I2N)2
_chemical_formula_sum   'Te1 C16 I4 N2'
_cell_volume   562.03275686
_cell_formula_units_Z   1
loop_
 _symmetry_equiv_pos_site_id
 _symmetry_equiv_pos_as_xyz
  1  'x, y, z'
loop_
 _atom_site_type_symbol
 _atom_site_label
 _atom_site_symmetry_multiplicity
 _atom_site_fract_x
 _atom_site_fract_y
 _atom_site_fract_z
 _atom_site_occupancy
  Te  Te0  1  0.00000000  0.00000000  0.00000000  1
  C  C0  1  0.31682900  0.63365800  0.69389700  1
  C  C1  1  0.31682900  0.63365800  0.93976100  1
  C  C2  1  0.69389700  0.63365800  0.31682900  1
  C  C3  1  0.93976100  0.63365800  0.31682900  1
  C  C4  1  0.68317100  0.36634200  0.30610300  1
  C  C5  1  0.68317100  0.36634200  0.06023900  1
  C  C6  1  0.30610300  0.36634200  0.68317100  1
  C  C7  1  0.06023900  0.36634200  0.68317100  1
  C  C8  1  0.39313200  0.78626400  0.69209700  1
  C  C9  1  0.39313200  0.78626400  0.09416600  1
  C  C10  1  0.69209700  0.78626400  0.39313200  1
  C  C11  1  0.09416600  0.78626400  0.39313200  1
  C  C12  1  0.60686800  0.21373600  0.30790300  1
  C  C13  1  0.60686800  0.21373600  0.90583400  1
  C  C14  1  0.30790300  0.21373600  0.60686800  1
  C  C15  1  0.90583400  0.21373600  0.60686800  1
  I  I0  1  0.31261200  0.00000000  0.68738800  1
  I  I1  1  0.68738800  0.00000000  0.31261200  1
  I  I2  1  0.68738800  0.00000000  0.68738800  1
  I  I3  1  0.31261200  0.00000000  0.31261200  1
  N  N0  1  0.25000000  0.50000000  0.75000000  1
  N  N1  1  0.75000000  0.50000000  0.25000000  1
loop_
_geom_bond_atom_site_label_1
_geom_bond_atom_site_label_2
_geom_bond_distance
_geom_bond_site_symmetry_2
C0 C8 1.238985 1_555
C0 N0 1.437113 1_555
C1 C9 1.238979 1_556
C1 N0 1.437113 1_555
C2 N1 1.437113 1_555
C3 N1 1.437113 1_555
C4 N1 1.437113 1_555
C5 N1 1.437113 1_555
C6 N0 1.437113 1_555
C7 N0 1.437113 1_555
C8 I0 2.457694 1_565
C8 I2 2.457694 1_565
C9 I3 2.457698 1_565
C9 I1 2.457698 1_565
C10 C2 1.238985 1_555
C10 I1 2.457694 1_565
C10 I2 2.457694 1_565
C11 C3 1.238979 1_455
C11 I3 2.457698 1_565
C11 I0 2.457698 1_565
C12 C4 1.238985 1_555
C12 I1 2.457694 1_555
C12 I3 2.457694 1_555
C13 C5 1.238979 1_556
C13 I2 2.457698 1_555
C13 I0 2.457698 1_555
C14 C6 1.238985 1_555
C14 I0 2.457694 1_555
C14 I3 2.457694 1_555
C15 C7 1.238979 1_655
C15 I2 2.457698 1_555
C15 I1 2.457698 1_555
