# generated using pymatgen
data_NaPrTi4O12
_symmetry_space_group_name_H-M   'P 1'
_cell_length_a   5.45373530
_cell_length_b   5.45373530
_cell_length_c   7.89420721
_cell_angle_alpha   90.00000000
_cell_angle_beta   90.00000000
_cell_angle_gamma   90.00000000
_symmetry_Int_Tables_number   1
_chemical_formula_structural   NaPrTi4O12
_chemical_formula_sum   'Na1 Pr1 Ti4 O12'
_cell_volume   234.79921063
_cell_formula_units_Z   1
loop_
 _symmetry_equiv_pos_site_id
 _symmetry_equiv_pos_as_xyz
  1  'x, y, z'
loop_
 _atom_site_type_symbol
 _atom_site_label
 _atom_site_symmetry_multiplicity
 _atom_site_fract_x
 _atom_site_fract_y
 _atom_site_fract_z
 _atom_site_occupancy
  Na  Na0  1  0.50000000  0.50000000  0.00000000  1
  Pr  Pr0  1  0.00000000  0.00000000  0.50000000  1
  Ti  Ti0  1  0.00000000  0.50000000  0.76265437  1
  Ti  Ti1  1  0.00000000  0.50000000  0.23734563  1
  Ti  Ti2  1  0.50000000  0.00000000  0.76265437  1
  Ti  Ti3  1  0.50000000  0.00000000  0.23734563  1
  O  O0  1  0.24386075  0.24386075  0.73380909  1
  O  O1  1  0.24386075  0.24386075  0.26619091  1
  O  O2  1  0.75613925  0.75613925  0.73380909  1
  O  O3  1  0.75613925  0.75613925  0.26619091  1
  O  O4  1  0.75613925  0.24386075  0.73380909  1
  O  O5  1  0.75613925  0.24386075  0.26619091  1
  O  O6  1  0.24386075  0.75613925  0.73380909  1
  O  O7  1  0.24386075  0.75613925  0.26619091  1
  O  O8  1  0.00000000  0.50000000  0.50000000  1
  O  O9  1  0.00000000  0.50000000  0.00000000  1
  O  O10  1  0.50000000  0.00000000  0.50000000  1
  O  O11  1  0.50000000  0.00000000  0.00000000  1
loop_
_geom_bond_atom_site_label_1
_geom_bond_atom_site_label_2
_geom_bond_distance
_geom_bond_site_symmetry_2
Na0 O11 2.726868 1_555
Na0 O11 2.726868 1_565
Na0 O9 2.726868 1_555
Na0 O9 2.726868 1_655
Na0 O4 2.884179 1_554
Na0 O6 2.884179 1_554
Na0 O0 2.884179 1_554
Na0 O2 2.884179 1_554
Na0 O1 2.884179 1_555
Na0 O7 2.884179 1_555
Na0 O5 2.884179 1_555
Na0 O3 2.884179 1_555
O0 Ti2 1.942163 1_555
O0 Ti0 1.942163 1_555
O0 Pr0 2.635202 1_555
O1 Ti3 1.942163 1_555
O1 Ti1 1.942163 1_555
O1 Pr0 2.635202 1_555
O2 Ti2 1.942163 1_565
O2 Ti0 1.942163 1_655
O2 Pr0 2.635202 1_665
O3 Ti3 1.942163 1_565
O3 Ti1 1.942163 1_655
O3 Pr0 2.635202 1_665
O4 Ti2 1.942163 1_555
O4 Ti0 1.942163 1_655
O4 Pr0 2.635202 1_655
O5 Ti3 1.942163 1_555
O5 Ti1 1.942163 1_655
O5 Pr0 2.635202 1_655
O6 Ti2 1.942163 1_565
O6 Ti0 1.942163 1_555
O6 Pr0 2.635202 1_565
O7 Ti3 1.942163 1_565
O7 Ti1 1.942163 1_555
O7 Pr0 2.635202 1_565
O8 Ti1 2.073448 1_555
O8 Ti0 2.073448 1_555
O8 Pr0 2.726868 1_555
O8 Pr0 2.726868 1_565
O9 Ti0 1.873656 1_554
O9 Ti1 1.873656 1_555
O10 Ti3 2.073448 1_555
O10 Ti2 2.073448 1_555
O10 Pr0 2.726868 1_555
O10 Pr0 2.726868 1_655
O11 Ti2 1.873656 1_554
O11 Ti3 1.873656 1_555
