# generated using pymatgen
data_Li9Mn2Co5O16
_symmetry_space_group_name_H-M   'P 1'
_cell_length_a   2.98178500
_cell_length_b   5.96226351
_cell_length_c   16.15044276
_cell_angle_alpha   90.91427330
_cell_angle_beta   90.90254705
_cell_angle_gamma   93.95298671
_symmetry_Int_Tables_number   1
_chemical_formula_structural   Li9Mn2Co5O16
_chemical_formula_sum   'Li9 Mn2 Co5 O16'
_cell_volume   286.36517854
_cell_formula_units_Z   1
loop_
 _symmetry_equiv_pos_site_id
 _symmetry_equiv_pos_as_xyz
  1  'x, y, z'
loop_
 _atom_site_type_symbol
 _atom_site_label
 _atom_site_symmetry_multiplicity
 _atom_site_fract_x
 _atom_site_fract_y
 _atom_site_fract_z
 _atom_site_occupancy
  Li  Li0  1  0.00148900  0.24806600  0.87495200  1
  Li  Li1  1  0.50000000  0.50000000  0.00000000  1
  Li  Li2  1  0.99851100  0.75193400  0.12504800  1
  Li  Li3  1  0.50109200  0.00231100  0.74749900  1
  Li  Li4  1  0.00162100  0.75654400  0.62290800  1
  Li  Li5  1  0.50000000  0.50000000  0.50000000  1
  Li  Li6  1  0.99837900  0.24345600  0.37709200  1
  Li  Li7  1  0.49890800  0.99768900  0.25250100  1
  Li  Li8  1  0.50000000  0.00000000  0.50000000  1
  Mn  Mn0  1  0.99190100  0.75261500  0.87373200  1
  Mn  Mn1  1  0.00809900  0.24738500  0.12626800  1
  Co  Co0  1  0.50000000  0.00000000  0.00000000  1
  Co  Co1  1  0.49815900  0.50118200  0.25214600  1
  Co  Co2  1  0.99590600  0.75960200  0.38072000  1
  Co  Co3  1  0.00409400  0.24039800  0.61928000  1
  Co  Co4  1  0.50184100  0.49881800  0.74785400  1
  O  O0  1  0.52823400  0.50453300  0.86928900  1
  O  O1  1  0.97445900  0.77961400  0.99599900  1
  O  O2  1  0.53632200  0.00638200  0.12018200  1
  O  O3  1  0.02807700  0.26393500  0.73949900  1
  O  O4  1  0.52699800  0.01883900  0.62460200  1
  O  O5  1  0.00245000  0.74554200  0.48772900  1
  O  O6  1  0.52312300  0.51365400  0.36933800  1
  O  O7  1  0.02522800  0.26487000  0.24706900  1
  O  O8  1  0.46367800  0.99361800  0.87981800  1
  O  O9  1  0.02554100  0.22038600  0.00400100  1
  O  O10  1  0.47176600  0.49546700  0.13071100  1
  O  O11  1  0.97477200  0.73513000  0.75293100  1
  O  O12  1  0.47687700  0.48634600  0.63066200  1
  O  O13  1  0.99755000  0.25445800  0.51227100  1
  O  O14  1  0.47300200  0.98116100  0.37539800  1
  O  O15  1  0.97192300  0.73606500  0.26050100  1
loop_
_geom_bond_atom_site_label_1
_geom_bond_atom_site_label_2
_geom_bond_distance
_geom_bond_site_symmetry_2
Li0 O9 2.093839 1_556
Li0 O0 2.119280 1_555
Li0 O8 2.120301 1_545
Li0 O8 2.133476 1_445
Li0 O0 2.153096 1_455
Li0 O3 2.193622 1_555
Li1 O1 2.113318 1_554
Li1 O9 2.113318 1_555
Li1 O10 2.114572 1_555
Li1 O0 2.114572 1_554
Li1 O9 2.366347 1_655
Li1 O1 2.366347 1_454
Li2 O1 2.093839 1_554
Li2 O10 2.119280 1_555
Li2 O2 2.120301 1_565
Li2 O2 2.133476 1_665
Li2 O10 2.153096 1_655
Li2 O15 2.193622 1_555
Li3 O4 1.991305 1_555
Li3 O8 2.142940 1_545
Li3 O3 2.143345 1_655
Li3 O11 2.161572 1_445
Li3 O3 2.177896 1_555
Li3 O11 2.202507 1_545
Li4 O11 2.108283 1_455
Li4 O4 2.135430 1_565
Li4 O12 2.173534 1_455
Li4 O4 2.180437 1_465
Li4 O5 2.183185 1_555
Li4 O12 2.221439 1_555
Li5 O13 2.035518 1_455
Li5 O5 2.035518 1_655
Li5 O12 2.115142 1_555
Li5 O6 2.115142 1_555
Li5 O5 2.164028 1_555
Li5 O13 2.164028 1_555
Li6 O7 2.108283 1_655
Li6 O14 2.135430 1_545
Li6 O6 2.173534 1_655
Li6 O14 2.180437 1_645
Li6 O13 2.183185 1_555
Li6 O6 2.221439 1_555
Li7 O14 1.991305 1_555
Li7 O2 2.142940 1_565
Li7 O15 2.143345 1_455
Li7 O7 2.161572 1_665
Li7 O15 2.177896 1_555
Li7 O7 2.202507 1_565
Li8 O4 2.013752 1_555
Li8 O14 2.013752 1_545
Li8 O5 2.052522 1_545
Li8 O13 2.052522 1_555
Li8 O5 2.213312 1_645
Li8 O13 2.213312 1_455
Mn0 O8 1.940556 1_655
Mn0 O11 1.951787 1_555
Mn0 O0 1.953450 1_555
Mn0 O1 1.980447 1_555
Mn0 O8 2.206263 1_555
Mn0 O0 2.253193 1_655
Mn1 O2 1.940556 1_455
Mn1 O7 1.951787 1_555
Mn1 O10 1.953450 1_555
Mn1 O9 1.980447 1_555
Mn1 O2 2.206263 1_555
Mn1 O10 2.253193 1_455
Co0 O2 1.941927 1_555
Co0 O8 1.941927 1_544
Co0 O1 1.973985 1_444
Co0 O9 1.973985 1_655
Co0 O1 1.997178 1_544
Co0 O9 1.997178 1_555
Co1 O6 1.893067 1_555
Co1 O15 1.920999 1_555
Co1 O7 1.923332 1_555
Co1 O10 1.961226 1_555
Co1 O15 2.178345 1_455
Co1 O7 2.183460 1_655
Co2 O5 1.731478 1_655
Co2 O14 1.877383 1_655
Co2 O15 1.944255 1_555
Co2 O6 1.967158 1_555
Co2 O14 2.113494 1_555
Co2 O6 2.230205 1_655
Co3 O13 1.731478 1_455
Co3 O4 1.877383 1_455
Co3 O3 1.944255 1_555
Co3 O12 1.967158 1_555
Co3 O4 2.113494 1_555
Co3 O12 2.230205 1_455
Co4 O12 1.893067 1_555
Co4 O3 1.920999 1_555
Co4 O11 1.923332 1_555
Co4 O0 1.961226 1_555
Co4 O3 2.178345 1_655
Co4 O11 2.183460 1_455
