# generated using pymatgen
data_Na2NiPCO7
_symmetry_space_group_name_H-M   'P 1'
_cell_length_a   10.19548249
_cell_length_b   10.36687180
_cell_length_c   8.38616401
_cell_angle_alpha   108.17655630
_cell_angle_beta   72.18068963
_cell_angle_gamma   60.43320502
_symmetry_Int_Tables_number   1
_chemical_formula_structural   Na2NiPCO7
_chemical_formula_sum   'Na8 Ni4 P4 C4 O28'
_cell_volume   608.54530846
_cell_formula_units_Z   4
loop_
 _symmetry_equiv_pos_site_id
 _symmetry_equiv_pos_as_xyz
  1  'x, y, z'
loop_
 _atom_site_type_symbol
 _atom_site_label
 _atom_site_symmetry_multiplicity
 _atom_site_fract_x
 _atom_site_fract_y
 _atom_site_fract_z
 _atom_site_occupancy
  Na  Na0  1  0.75146643  0.98250927  0.48265184  1
  Na  Na1  1  0.99044701  0.75523290  0.00607999  1
  Na  Na2  1  0.51541701  0.75230153  0.97239954  1
  Na  Na3  1  0.78036970  0.30986066  0.73201970  1
  Na  Na4  1  0.48644412  0.25042030  0.01712860  1
  Na  Na5  1  0.24885326  0.49742386  0.48991364  1
  Na  Na6  1  0.00917319  0.24191814  0.99991638  1
  Na  Na7  1  0.25365400  0.00361138  0.51163848  1
  Ni  Ni0  1  0.83906481  0.81112364  0.74871446  1
  Ni  Ni1  1  0.65858450  0.68926148  0.25277219  1
  Ni  Ni2  1  0.34149427  0.30957941  0.75091934  1
  Ni  Ni3  1  0.15377580  0.19439822  0.25655996  1
  P  P0  1  0.47462008  0.94682886  0.75120377  1
  P  P1  1  0.98025913  0.43989940  0.75143425  1
  P  P2  1  0.02180445  0.55512448  0.25192127  1
  P  P3  1  0.52444130  0.05421830  0.24880969  1
  C  C0  1  0.94386396  0.98678663  0.74964540  1
  C  C1  1  0.55194043  0.51841082  0.25168571  1
  C  C2  1  0.44520677  0.48279068  0.75262474  1
  C  C3  1  0.05540764  0.01283630  0.24578180  1
  O  O0  1  0.00215740  0.92612255  0.24919704  1
  O  O1  1  0.70202669  0.97270687  0.05968122  1
  O  O2  1  0.98486943  0.58519792  0.74711541  1
  O  O3  1  0.85832393  0.68588350  0.24646618  1
  O  O4  1  0.63979247  0.81981544  0.75537021  1
  O  O5  1  0.51843441  0.90640944  0.24487391  1
  O  O6  1  0.48391122  0.84796807  0.56258838  1
  O  O7  1  0.79891079  0.52062512  0.93581719  1
  O  O8  1  0.99974197  0.32092460  0.56338652  1
  O  O9  1  0.19885618  0.96910322  0.24770653  1
  O  O10  1  0.69553771  0.47247949  0.25155707  1
  O  O11  1  0.46846416  0.66307519  0.25301843  1
  O  O12  1  0.96988624  0.15627234  0.24763333  1
  O  O13  1  0.49883008  0.56876100  0.76049637  1
  O  O14  1  0.49970225  0.43039595  0.24647517  1
  O  O15  1  0.02517014  0.84264611  0.74879630  1
  O  O16  1  0.53119846  0.33576037  0.74832110  1
  O  O17  1  0.30265837  0.52741091  0.74859676  1
  O  O18  1  0.79881624  0.03894432  0.74803256  1
  O  O19  1  0.00947617  0.66359804  0.44013356  1
  O  O20  1  0.20128195  0.47404230  0.06566482  1
  O  O21  1  0.51674866  0.15447398  0.43642331  1
  O  O22  1  0.48114898  0.09471092  0.75497956  1
  O  O23  1  0.35691767  0.18957463  0.25215699  1
  O  O24  1  0.14306733  0.31210366  0.75994829  1
  O  O25  1  0.01827426  0.40793766  0.25017336  1
  O  O26  1  0.29802165  0.02785881  0.94006596  1
  O  O27  1  0.99860433  0.07386735  0.75165771  1
loop_
_geom_bond_atom_site_label_1
_geom_bond_atom_site_label_2
_geom_bond_distance
_geom_bond_site_symmetry_2
Na0 O0 2.335874 1_655
Na0 O22 2.343300 1_565
Na0 O18 2.377447 1_565
Na0 O21 2.417432 1_565
Na0 O3 2.477757 1_555
Na0 O16 2.673829 1_565
Na0 O19 2.843412 1_655
Na1 O0 2.326763 1_655
Na1 O17 2.359096 1_654
Na1 O2 2.369171 1_554
Na1 O1 2.438872 1_555
Na1 O3 2.567744 1_555
Na1 O15 2.582796 1_654
Na2 O13 2.280104 1_555
Na2 O5 2.364017 1_556
Na2 O4 2.380867 1_555
Na2 O9 2.416991 1_556
Na2 O7 2.522596 1_555
Na2 O11 2.780015 1_556
Na2 O26 2.783749 1_565
Na3 O8 2.331096 1_555
Na3 O16 2.374009 1_555
Na3 O7 2.450781 1_555
Na3 O27 2.463083 1_555
Na3 O13 2.660390 1_555
Na3 O18 2.769633 1_555
Na4 O14 2.316852 1_555
Na4 O22 2.320840 1_554
Na4 O18 2.380329 1_554
Na4 O20 2.455245 1_555
Na4 O23 2.455872 1_555
Na4 O16 2.661905 1_554
Na4 O1 2.850131 1_545
Na5 O14 2.314549 1_555
Na5 O2 2.351552 1_455
Na5 O17 2.362114 1_555
Na5 O19 2.453855 1_555
Na5 O23 2.567111 1_555
Na5 O15 2.605788 1_555
Na6 O25 2.323484 1_556
Na6 O27 2.332566 1_455
Na6 O10 2.360462 1_456
Na6 O26 2.408354 1_555
Na6 O12 2.501358 1_456
Na6 O24 2.579757 1_555
Na7 O27 2.314453 1_455
Na7 O5 2.349584 1_545
Na7 O6 2.367075 1_545
Na7 O9 2.408157 1_545
Na7 O11 2.578584 1_545
Na7 O24 2.585536 1_555
Na7 O8 2.780073 1_455
Ni0 O4 1.971228 1_555
Ni0 O19 2.052101 1_655
Ni0 O2 2.056169 1_555
Ni0 O1 2.072129 1_556
Ni0 O15 2.078371 1_655
Ni0 O18 2.190862 1_565
Ni1 O3 2.003413 1_555
Ni1 O5 2.022450 1_555
Ni1 O6 2.058766 1_555
Ni1 O10 2.083365 1_555
Ni1 O11 2.085228 1_555
Ni1 O7 2.115041 1_554
Ni2 O22 1.984262 1_555
Ni2 O24 1.987951 1_555
Ni2 O16 2.076280 1_555
Ni2 O21 2.090142 1_555
Ni2 O20 2.096452 1_556
Ni2 O17 2.099170 1_555
Ni3 O25 1.978171 1_555
Ni3 O23 2.035504 1_555
Ni3 O8 2.048388 1_455
Ni3 O26 2.105839 1_554
Ni3 O12 2.115561 1_455
Ni3 O9 2.117390 1_545
C0 O27 1.272875 1_565
C0 O15 1.299007 1_655
C0 O18 1.306588 1_565
C1 O14 1.259786 1_555
C1 O10 1.296493 1_555
C1 O11 1.302961 1_555
C2 O13 1.250526 1_555
C2 O17 1.305250 1_555
C2 O16 1.311785 1_555
C3 O0 1.261696 1_545
C3 O12 1.292053 1_455
C3 O9 1.307455 1_545
O1 P3 1.550546 1_565
O2 P1 1.541201 1_555
O3 P2 1.572688 1_655
O4 P0 1.564393 1_555
O5 P3 1.554068 1_565
O6 P0 1.537009 1_555
O7 P1 1.557477 1_555
O8 P1 1.549399 1_555
O19 P2 1.550280 1_555
O20 P2 1.551879 1_555
O21 P3 1.544552 1_555
O22 P0 1.558032 1_545
O23 P3 1.570950 1_555
O24 P1 1.573816 1_455
O25 P2 1.539593 1_555
O26 P0 1.545305 1_545
