# generated using pymatgen
data_Rb2BiMoPO8
_symmetry_space_group_name_H-M   'P 1'
_cell_length_a   12.68523109
_cell_length_b   12.68523109
_cell_length_c   12.68523109
_cell_angle_alpha   147.11714054
_cell_angle_beta   119.97538714
_cell_angle_gamma   70.15905241
_symmetry_Int_Tables_number   1
_chemical_formula_structural   Rb2BiMoPO8
_chemical_formula_sum   'Rb8 Bi4 Mo4 P4 O32'
_cell_volume   945.95113647
_cell_formula_units_Z   4
loop_
 _symmetry_equiv_pos_site_id
 _symmetry_equiv_pos_as_xyz
  1  'x, y, z'
loop_
 _atom_site_type_symbol
 _atom_site_label
 _atom_site_symmetry_multiplicity
 _atom_site_fract_x
 _atom_site_fract_y
 _atom_site_fract_z
 _atom_site_occupancy
  Rb  Rb0  1  0.24007900  0.62253700  0.54779600  1
  Rb  Rb1  1  0.25992100  0.80771800  0.38245800  1
  Rb  Rb2  1  0.92525900  0.87746300  0.11754200  1
  Rb  Rb3  1  0.57474100  0.69228200  0.95220400  1
  Rb  Rb4  1  0.75992100  0.37746300  0.45220400  1
  Rb  Rb5  1  0.74007900  0.19228200  0.61754200  1
  Rb  Rb6  1  0.07474100  0.12253700  0.88245800  1
  Rb  Rb7  1  0.42525900  0.30771800  0.04779600  1
  Bi  Bi0  1  0.16710500  0.75000000  0.91710500  1
  Bi  Bi1  1  0.33289500  0.25000000  0.58289500  1
  Bi  Bi2  1  0.83289500  0.25000000  0.08289500  1
  Bi  Bi3  1  0.66710500  0.75000000  0.41710500  1
  Mo  Mo0  1  0.08674200  0.33674200  0.75000000  1
  Mo  Mo1  1  0.41325800  0.16325800  0.25000000  1
  Mo  Mo2  1  0.91325800  0.66325800  0.25000000  1
  Mo  Mo3  1  0.58674200  0.83674200  0.75000000  1
  P  P0  1  0.92722900  0.75000000  0.67722900  1
  P  P1  1  0.57277100  0.25000000  0.82277100  1
  P  P2  1  0.07277100  0.25000000  0.32277100  1
  P  P3  1  0.42722900  0.75000000  0.17722900  1
  O  O0  1  0.94174100  0.71723400  0.77704700  1
  O  O1  1  0.55825900  0.33530500  0.77549200  1
  O  O2  1  0.05981300  0.78276600  0.72450800  1
  O  O3  1  0.44018700  0.16469500  0.72295300  1
  O  O4  1  0.05825900  0.28276600  0.22295300  1
  O  O5  1  0.44174100  0.66469500  0.22450800  1
  O  O6  1  0.94018700  0.21723400  0.27549200  1
  O  O7  1  0.55981300  0.83530500  0.27704700  1
  O  O8  1  0.10189600  0.58701700  0.91747100  1
  O  O9  1  0.39810400  0.31557500  0.48512100  1
  O  O10  1  0.33045400  0.91298300  0.01487900  1
  O  O11  1  0.16954600  0.18442500  0.58252900  1
  O  O12  1  0.89810400  0.41298300  0.08252900  1
  O  O13  1  0.60189600  0.68442500  0.51487900  1
  O  O14  1  0.66954600  0.08701700  0.98512100  1
  O  O15  1  0.83045400  0.81557500  0.41747100  1
  O  O16  1  0.36038400  0.59178700  0.93198200  1
  O  O17  1  0.13961600  0.07159800  0.23140300  1
  O  O18  1  0.34019600  0.90821300  0.26859700  1
  O  O19  1  0.15980400  0.42840200  0.56801800  1
  O  O20  1  0.63961600  0.40821300  0.06801800  1
  O  O21  1  0.86038400  0.92840200  0.76859700  1
  O  O22  1  0.65980400  0.09178700  0.73140300  1
  O  O23  1  0.84019600  0.57159800  0.43198200  1
  O  O24  1  0.92757100  0.22519100  0.57745500  1
  O  O25  1  0.57242900  0.14988400  0.29762000  1
  O  O26  1  0.35226400  0.27480900  0.20238000  1
  O  O27  1  0.14773600  0.35011600  0.92254500  1
  O  O28  1  0.07242900  0.77480900  0.42254500  1
  O  O29  1  0.42757100  0.85011600  0.70238000  1
  O  O30  1  0.64773600  0.72519100  0.79762000  1
  O  O31  1  0.85226400  0.64988400  0.07745500  1
loop_
_geom_bond_atom_site_label_1
_geom_bond_atom_site_label_2
_geom_bond_distance
_geom_bond_site_symmetry_2
Bi0 O19 2.401161 1_555
Bi0 O17 2.401165 1_566
Bi0 O2 2.448044 1_555
Bi0 O0 2.448055 1_455
Bi0 O10 2.477823 1_556
Bi0 O8 2.477823 1_555
Bi0 O16 2.628373 1_555
Bi0 O18 2.628376 1_556
Bi1 O16 2.401165 1_555
Bi1 O18 2.401168 1_545
Bi1 O3 2.448044 1_555
Bi1 O1 2.448055 1_555
Bi1 O11 2.477823 1_555
Bi1 O9 2.477823 1_555
Bi1 O17 2.628373 1_555
Bi1 O19 2.628379 1_555
Bi2 O23 2.401161 1_555
Bi2 O21 2.401165 1_544
Bi2 O6 2.448044 1_555
Bi2 O4 2.448055 1_655
Bi2 O12 2.477823 1_555
Bi2 O14 2.477823 1_554
Bi2 O20 2.628373 1_555
Bi2 O22 2.628376 1_554
Bi3 O20 2.401165 1_555
Bi3 O22 2.401168 1_565
Bi3 O7 2.448044 1_555
Bi3 O5 2.448055 1_555
Bi3 O13 2.477823 1_555
Bi3 O15 2.477823 1_555
Bi3 O21 2.628373 1_555
Bi3 O23 2.628379 1_555
Mo0 O24 1.786433 1_455
Mo0 O27 1.786433 1_555
Mo0 O8 1.818700 1_555
Mo0 O11 1.818700 1_555
Mo1 O25 1.786433 1_555
Mo1 O26 1.786433 1_555
Mo1 O10 1.818700 1_545
Mo1 O9 1.818700 1_555
Mo2 O31 1.786433 1_555
Mo2 O28 1.786433 1_655
Mo2 O15 1.818700 1_555
Mo2 O12 1.818700 1_555
Mo3 O30 1.786433 1_555
Mo3 O29 1.786433 1_555
Mo3 O14 1.818700 1_565
Mo3 O13 1.818700 1_555
O0 P0 1.552106 1_555
O0 Rb4 2.880557 1_555
O0 Rb2 2.949547 1_556
O1 P1 1.552105 1_555
O1 Rb5 2.880549 1_555
O1 Rb3 2.949540 1_555
O2 P0 1.552101 1_455
O2 Rb6 2.880564 1_565
O2 Rb0 2.949554 1_555
O3 P1 1.552101 1_555
O3 Rb7 2.880557 1_556
O3 Rb1 2.949547 1_545
O4 P2 1.552106 1_555
O4 Rb0 2.880557 1_555
O4 Rb6 2.949547 1_554
O5 P3 1.552105 1_555
O5 Rb1 2.880549 1_555
O5 Rb7 2.949540 1_555
O6 P2 1.552101 1_655
O6 Rb2 2.880564 1_545
O6 Rb4 2.949554 1_555
O7 P3 1.552101 1_555
O7 Rb3 2.880557 1_554
O7 Rb5 2.949547 1_565
O8 Rb2 3.067531 1_456
O8 Rb1 3.302584 1_556
O9 Rb3 3.067529 1_555
O9 Rb0 3.302589 1_555
O10 Rb0 3.067531 1_554
O10 Rb3 3.302594 1_554
O11 Rb1 3.067522 1_545
O11 Rb2 3.302589 1_445
O12 Rb6 3.067531 1_654
O12 Rb5 3.302584 1_554
O13 Rb7 3.067529 1_555
O13 Rb4 3.302589 1_555
O14 Rb4 3.067531 1_556
O14 Rb7 3.302594 1_556
O15 Rb5 3.067522 1_565
O15 Rb6 3.302589 1_665
O16 P3 1.567751 1_556
O16 Rb3 3.192432 1_555
O17 P2 1.567751 1_555
O17 Rb2 3.192439 1_445
O18 P3 1.567743 1_555
O18 Rb1 3.192437 1_555
O19 P2 1.567749 1_555
O19 Rb0 3.192447 1_555
O20 P1 1.567751 1_554
O20 Rb7 3.192432 1_555
O21 P0 1.567751 1_555
O21 Rb6 3.192439 1_665
O22 P1 1.567743 1_555
O22 Rb5 3.192437 1_555
O23 P0 1.567749 1_555
O23 Rb4 3.192447 1_555
O24 Rb5 2.885933 1_555
O24 Rb4 3.125364 1_555
O24 Rb2 3.192032 1_545
O25 Rb4 2.885925 1_555
O25 Rb5 3.125373 1_555
O25 Rb3 3.192040 1_544
O26 Rb7 2.885936 1_555
O26 Rb6 3.125364 1_554
O26 Rb0 3.192032 1_555
O27 Rb6 2.885925 1_555
O27 Rb7 3.125362 1_556
O27 Rb1 3.192037 1_556
O28 Rb1 2.885933 1_555
O28 Rb0 3.125364 1_555
O28 Rb6 3.192032 1_565
O29 Rb0 2.885925 1_555
O29 Rb1 3.125373 1_555
O29 Rb7 3.192040 1_566
O30 Rb3 2.885936 1_555
O30 Rb2 3.125364 1_556
O30 Rb4 3.192032 1_555
O31 Rb2 2.885925 1_555
O31 Rb3 3.125362 1_554
O31 Rb5 3.192037 1_554
