# generated using pymatgen
data_LiMg6Nb
_symmetry_space_group_name_H-M   'P 1'
_cell_length_a   4.98073600
_cell_length_b   6.22015200
_cell_length_c   10.84427200
_cell_angle_alpha   90.00000000
_cell_angle_beta   90.00000000
_cell_angle_gamma   90.00000000
_symmetry_Int_Tables_number   1
_chemical_formula_structural   LiMg6Nb
_chemical_formula_sum   'Li2 Mg12 Nb2'
_cell_volume   335.96568587
_cell_formula_units_Z   2
loop_
 _symmetry_equiv_pos_site_id
 _symmetry_equiv_pos_as_xyz
  1  'x, y, z'
loop_
 _atom_site_type_symbol
 _atom_site_label
 _atom_site_symmetry_multiplicity
 _atom_site_fract_x
 _atom_site_fract_y
 _atom_site_fract_z
 _atom_site_occupancy
  Li  Li0  1  0.00000000  0.50000000  0.32875700  1
  Li  Li1  1  0.00000000  0.00000000  0.82875700  1
  Mg  Mg0  1  0.00000000  0.26170800  0.08781200  1
  Mg  Mg1  1  0.00000000  0.73829200  0.08781200  1
  Mg  Mg2  1  0.00000000  0.00000000  0.33324400  1
  Mg  Mg3  1  0.50000000  0.74464600  0.41633300  1
  Mg  Mg4  1  0.50000000  0.25535400  0.41633300  1
  Mg  Mg5  1  0.50000000  0.00000000  0.16507600  1
  Mg  Mg6  1  0.00000000  0.76170800  0.58781200  1
  Mg  Mg7  1  0.00000000  0.23829200  0.58781200  1
  Mg  Mg8  1  0.00000000  0.50000000  0.83324400  1
  Mg  Mg9  1  0.50000000  0.24464600  0.91633300  1
  Mg  Mg10  1  0.50000000  0.75535400  0.91633300  1
  Mg  Mg11  1  0.50000000  0.50000000  0.66507600  1
  Nb  Nb0  1  0.50000000  0.50000000  0.16463400  1
  Nb  Nb1  1  0.50000000  0.00000000  0.66463400  1
loop_
_geom_bond_atom_site_label_1
_geom_bond_atom_site_label_2
_geom_bond_distance
_geom_bond_site_symmetry_2
Li0 Mg0 3.004007 1_555
Li0 Mg1 3.004007 1_555
Li0 Nb0 3.060980 1_455
Li0 Nb0 3.060980 1_555
Li0 Mg3 3.069126 1_455
Li0 Mg3 3.069126 1_555
Li0 Mg4 3.069126 1_455
Li0 Mg4 3.069126 1_555
Li0 Mg2 3.110457 1_565
Li0 Mg2 3.110457 1_555
Li0 Mg6 3.246829 1_555
Li0 Mg7 3.246829 1_555
Li1 Mg7 3.004007 1_555
Li1 Mg6 3.004007 1_545
Li1 Nb1 3.060980 1_455
Li1 Nb1 3.060980 1_555
Li1 Mg10 3.069126 1_545
Li1 Mg9 3.069126 1_455
Li1 Mg9 3.069126 1_555
Li1 Mg10 3.069126 1_445
Li1 Mg8 3.110457 1_545
Li1 Mg8 3.110457 1_555
Li1 Mg1 3.246829 1_546
Li1 Mg0 3.246829 1_556
Mg0 Mg1 2.964425 1_555
Mg0 Nb0 3.015445 1_555
Mg0 Nb0 3.015445 1_455
Mg0 Mg5 3.090939 1_455
Mg0 Mg5 3.090939 1_555
Mg0 Mg9 3.109852 1_454
Mg0 Mg9 3.109852 1_554
Mg0 Mg2 3.119886 1_555
Mg0 Mg8 3.133352 1_554
Mg0 Mg1 3.255727 1_545
Mg1 Nb0 3.015445 1_555
Mg1 Nb0 3.015445 1_455
Mg1 Mg5 3.090939 1_465
Mg1 Mg5 3.090939 1_565
Mg1 Mg10 3.109852 1_454
Mg1 Mg10 3.109852 1_554
Mg1 Mg2 3.119886 1_565
Mg1 Mg8 3.133352 1_554
Mg2 Mg5 3.086692 1_455
Mg2 Mg5 3.086692 1_555
Mg2 Mg4 3.088144 1_555
Mg2 Mg4 3.088144 1_455
Mg2 Mg3 3.088144 1_445
Mg2 Mg3 3.088144 1_545
Mg2 Mg7 3.133352 1_555
Mg2 Mg6 3.133352 1_545
Mg3 Mg4 3.043471 1_555
Mg3 Mg6 3.109852 1_655
Mg3 Mg6 3.109852 1_555
Mg3 Nb0 3.125029 1_555
Mg3 Nb1 3.126205 1_565
Mg3 Mg5 3.153857 1_565
Mg3 Mg4 3.176681 1_565
Mg4 Mg7 3.109852 1_555
Mg4 Mg7 3.109852 1_655
Mg4 Nb0 3.125029 1_555
Mg4 Nb1 3.126205 1_555
Mg4 Mg5 3.153857 1_555
Mg5 Mg9 3.097070 1_554
Mg5 Nb0 3.110080 1_555
Mg5 Nb0 3.110080 1_545
Mg6 Mg7 2.964425 1_565
Mg6 Nb1 3.015445 1_565
Mg6 Nb1 3.015445 1_465
Mg6 Mg8 3.119886 1_555
Mg6 Mg7 3.255727 1_555
Mg7 Nb1 3.015445 1_455
Mg7 Nb1 3.015445 1_555
Mg7 Mg8 3.119886 1_555
Mg8 Mg9 3.088144 1_455
Mg8 Mg9 3.088144 1_555
Mg9 Nb1 3.125029 1_555
Mg9 Nb0 3.126205 1_556
Mg10 Mg9 3.043471 1_565
Mg10 Mg8 3.088144 1_555
Mg10 Mg8 3.088144 1_655
Mg10 Mg5 3.097070 1_566
Mg10 Nb1 3.125029 1_565
Mg10 Nb0 3.126205 1_556
Mg10 Mg11 3.153857 1_555
Mg10 Mg9 3.176681 1_555
Mg11 Mg8 3.086692 1_555
Mg11 Mg8 3.086692 1_655
Mg11 Mg6 3.090939 1_555
Mg11 Mg6 3.090939 1_655
Mg11 Mg7 3.090939 1_555
Mg11 Mg7 3.090939 1_655
Mg11 Mg3 3.097070 1_555
Mg11 Mg4 3.097070 1_555
Mg11 Nb1 3.110080 1_555
Mg11 Nb1 3.110080 1_565
Mg11 Mg9 3.153857 1_555
