# generated using pymatgen
data_Pr(SbO3)2
_symmetry_space_group_name_H-M   'P 1'
_cell_length_a   5.60235100
_cell_length_b   5.80742800
_cell_length_c   8.03652700
_cell_angle_alpha   90.00000000
_cell_angle_beta   90.00000000
_cell_angle_gamma   90.00000000
_symmetry_Int_Tables_number   1
_chemical_formula_structural   Pr(SbO3)2
_chemical_formula_sum   'Pr2 Sb4 O12'
_cell_volume   261.47041558
_cell_formula_units_Z   2
loop_
 _symmetry_equiv_pos_site_id
 _symmetry_equiv_pos_as_xyz
  1  'x, y, z'
loop_
 _atom_site_type_symbol
 _atom_site_label
 _atom_site_symmetry_multiplicity
 _atom_site_fract_x
 _atom_site_fract_y
 _atom_site_fract_z
 _atom_site_occupancy
  Pr  Pr0  1  0.01855900  0.68967100  0.00000000  1
  Pr  Pr1  1  0.51855900  0.31032900  0.50000000  1
  Sb  Sb0  1  0.00406800  0.23740300  0.75061400  1
  Sb  Sb1  1  0.00406800  0.23740300  0.24938600  1
  Sb  Sb2  1  0.50406800  0.76259700  0.25061400  1
  Sb  Sb3  1  0.50406800  0.76259700  0.74938600  1
  O  O0  1  0.09808600  0.23543800  0.50000000  1
  O  O1  1  0.20304000  0.95142700  0.80024300  1
  O  O2  1  0.20304000  0.95142700  0.19975700  1
  O  O3  1  0.27200400  0.48129900  0.21363800  1
  O  O4  1  0.27200400  0.48129900  0.78636200  1
  O  O5  1  0.43560400  0.72656800  0.50000000  1
  O  O6  1  0.59808600  0.76456200  0.00000000  1
  O  O7  1  0.70304000  0.04857300  0.69975700  1
  O  O8  1  0.70304000  0.04857300  0.30024300  1
  O  O9  1  0.77200400  0.51870100  0.71363800  1
  O  O10  1  0.77200400  0.51870100  0.28636200  1
  O  O11  1  0.93560400  0.27343200  0.00000000  1
loop_
_geom_bond_atom_site_label_1
_geom_bond_atom_site_label_2
_geom_bond_distance
_geom_bond_site_symmetry_2
O0 Sb1 2.081833 1_555
O0 Sb0 2.081833 1_555
O0 Pr1 2.395451 1_555
O1 Sb0 2.039575 1_565
O1 Sb3 2.052749 1_555
O1 Pr0 2.440518 1_556
O2 Sb1 2.039575 1_565
O2 Sb2 2.052749 1_555
O2 Pr0 2.440518 1_555
O3 Sb1 2.083738 1_555
O3 Sb2 2.108858 1_555
O3 Pr0 2.535391 1_555
O3 Pr1 2.861824 1_555
O4 Sb0 2.083738 1_555
O4 Sb3 2.108858 1_555
O4 Pr0 2.535391 1_556
O4 Pr1 2.861824 1_555
O5 Sb3 2.051269 1_555
O5 Sb2 2.051269 1_555
O5 Pr1 2.461548 1_555
O6 Sb2 2.081833 1_555
O6 Sb3 2.081833 1_554
O6 Pr0 2.395451 1_655
O7 Sb3 2.039575 1_545
O7 Sb0 2.052749 1_655
O7 Pr1 2.440518 1_555
O8 Sb2 2.039575 1_545
O8 Sb1 2.052749 1_655
O8 Pr1 2.440518 1_555
O9 Sb3 2.083738 1_555
O9 Sb0 2.108858 1_655
O9 Pr1 2.535391 1_555
O9 Pr0 2.861824 1_656
O10 Sb2 2.083738 1_555
O10 Sb1 2.108858 1_655
O10 Pr1 2.535391 1_555
O10 Pr0 2.861824 1_655
O11 Sb0 2.051269 1_654
O11 Sb1 2.051269 1_655
O11 Pr0 2.461548 1_655
