# generated using pymatgen
data_SmZnCo2
_symmetry_space_group_name_H-M   'P 1'
_cell_length_a   5.15457038
_cell_length_b   5.15457038
_cell_length_c   16.65783400
_cell_angle_alpha   90.00000000
_cell_angle_beta   90.00000000
_cell_angle_gamma   120.00000483
_symmetry_Int_Tables_number   1
_chemical_formula_structural   SmZnCo2
_chemical_formula_sum   'Sm6 Zn6 Co12'
_cell_volume   383.29582383
_cell_formula_units_Z   6
loop_
 _symmetry_equiv_pos_site_id
 _symmetry_equiv_pos_as_xyz
  1  'x, y, z'
loop_
 _atom_site_type_symbol
 _atom_site_label
 _atom_site_symmetry_multiplicity
 _atom_site_fract_x
 _atom_site_fract_y
 _atom_site_fract_z
 _atom_site_occupancy
  Sm  Sm0  1  0.66666700  0.33333300  0.45634200  1
  Sm  Sm1  1  0.33333300  0.66666700  0.54365800  1
  Sm  Sm2  1  0.33333300  0.66666700  0.95634200  1
  Sm  Sm3  1  0.66666700  0.33333300  0.04365800  1
  Sm  Sm4  1  0.66666700  0.33333300  0.25000000  1
  Sm  Sm5  1  0.33333300  0.66666700  0.75000000  1
  Zn  Zn0  1  0.00000000  0.00000000  0.75000000  1
  Zn  Zn1  1  0.00000000  0.00000000  0.25000000  1
  Zn  Zn2  1  0.66666700  0.33333300  0.75000000  1
  Zn  Zn3  1  0.33333300  0.66666700  0.25000000  1
  Zn  Zn4  1  0.00000000  0.00000000  0.00000000  1
  Zn  Zn5  1  0.00000000  0.00000000  0.50000000  1
  Co  Co0  1  0.83238000  0.16762000  0.87261600  1
  Co  Co1  1  0.16762000  0.83238000  0.12738400  1
  Co  Co2  1  0.33523900  0.16762000  0.87261600  1
  Co  Co3  1  0.16762000  0.83238000  0.37261600  1
  Co  Co4  1  0.66476100  0.83238000  0.12738400  1
  Co  Co5  1  0.83238000  0.16762000  0.62738400  1
  Co  Co6  1  0.83238000  0.66476100  0.87261600  1
  Co  Co7  1  0.66476100  0.83238000  0.37261600  1
  Co  Co8  1  0.16762000  0.33523900  0.12738400  1
  Co  Co9  1  0.33523900  0.16762000  0.62738400  1
  Co  Co10  1  0.16762000  0.33523900  0.37261600  1
  Co  Co11  1  0.83238000  0.66476100  0.62738400  1
loop_
_geom_bond_atom_site_label_1
_geom_bond_atom_site_label_2
_geom_bond_distance
_geom_bond_site_symmetry_2
Sm0 Zn5 3.063561 1_655
Sm0 Zn5 3.063565 1_555
Sm0 Zn5 3.063565 1_665
Sm1 Zn5 3.063561 1_565
Sm1 Zn5 3.063565 1_555
Sm1 Zn5 3.063565 1_665
Sm2 Zn4 3.063561 1_566
Sm2 Zn4 3.063565 1_666
Sm2 Zn4 3.063565 1_556
Sm3 Zn4 3.063561 1_655
Sm3 Zn4 3.063565 1_555
Sm3 Zn4 3.063565 1_665
Sm4 Zn3 2.975989 1_545
Sm4 Zn3 2.975989 1_655
Sm4 Zn1 2.975990 1_655
Sm4 Zn1 2.975994 1_665
Sm4 Zn1 2.975994 1_555
Sm4 Zn3 2.975999 1_555
Sm5 Zn2 2.975989 1_455
Sm5 Zn2 2.975989 1_565
Sm5 Zn0 2.975990 1_565
Sm5 Zn0 2.975994 1_665
Sm5 Zn0 2.975994 1_555
Sm5 Zn2 2.975999 1_555
Co0 Zn2 2.522051 1_555
Co0 Zn0 2.532076 1_655
Co0 Co6 2.562548 1_555
Co0 Co2 2.562548 1_555
Co0 Co2 2.592022 1_655
Co0 Co6 2.592022 1_545
Co0 Zn4 2.596569 1_656
Co0 Sm2 2.930468 1_655
Co0 Sm2 2.930468 1_545
Co0 Sm3 3.210412 1_556
Co0 Sm5 3.288517 1_545
Co0 Sm5 3.288517 1_655
Co1 Zn3 2.522051 1_555
Co1 Zn1 2.532076 1_565
Co1 Co4 2.562548 1_555
Co1 Co8 2.562548 1_555
Co1 Co8 2.592022 1_565
Co1 Co4 2.592022 1_455
Co1 Zn4 2.596569 1_565
Co1 Sm3 2.930468 1_565
Co1 Sm3 2.930468 1_455
Co1 Sm2 3.210412 1_554
Co1 Sm4 3.288517 1_565
Co1 Sm4 3.288517 1_455
Co2 Zn2 2.522056 1_555
Co2 Zn0 2.532074 1_555
Co2 Co6 2.562548 1_555
Co2 Co6 2.592022 1_445
Co2 Zn4 2.596566 1_556
Co2 Sm2 2.930468 1_545
Co2 Sm2 2.930468 1_555
Co2 Sm3 3.210416 1_556
Co2 Sm5 3.288517 1_545
Co2 Sm5 3.288517 1_555
Co3 Zn3 2.522051 1_555
Co3 Zn1 2.532076 1_565
Co3 Co7 2.562548 1_555
Co3 Co7 2.592022 1_455
Co3 Zn5 2.596569 1_565
Co3 Sm0 2.930468 1_565
Co3 Sm0 2.930468 1_455
Co3 Sm1 3.210412 1_555
Co3 Sm4 3.288517 1_565
Co3 Sm4 3.288517 1_455
Co4 Zn3 2.522056 1_555
Co4 Zn1 2.532074 1_665
Co4 Co8 2.562548 1_555
Co4 Co8 2.592022 1_665
Co4 Zn4 2.596566 1_665
Co4 Sm3 2.930468 1_565
Co4 Sm3 2.930468 1_555
Co4 Sm2 3.210416 1_554
Co4 Sm4 3.288517 1_565
Co4 Sm4 3.288517 1_555
Co5 Zn2 2.522051 1_555
Co5 Zn0 2.532076 1_655
Co5 Co9 2.562548 1_555
Co5 Co9 2.592022 1_655
Co5 Zn5 2.596569 1_655
Co5 Sm1 2.930468 1_655
Co5 Sm1 2.930468 1_545
Co5 Sm0 3.210412 1_555
Co5 Sm5 3.288517 1_545
Co5 Sm5 3.288517 1_655
Co6 Zn2 2.522056 1_555
Co6 Zn0 2.532074 1_665
Co6 Zn4 2.596566 1_666
Co6 Sm2 2.930468 1_655
Co6 Sm2 2.930468 1_555
Co6 Sm3 3.210416 1_556
Co6 Sm5 3.288517 1_655
Co6 Sm5 3.288517 1_555
Co7 Zn3 2.522056 1_555
Co7 Zn1 2.532074 1_665
Co7 Zn5 2.596566 1_665
Co7 Sm0 2.930468 1_565
Co7 Sm0 2.930468 1_555
Co7 Sm1 3.210416 1_555
Co7 Sm4 3.288517 1_565
Co7 Sm4 3.288517 1_555
Co8 Zn3 2.522056 1_555
Co8 Zn1 2.532074 1_555
Co8 Zn4 2.596566 1_555
Co8 Sm3 2.930468 1_455
Co8 Sm3 2.930468 1_555
Co8 Sm2 3.210416 1_554
Co8 Sm4 3.288517 1_455
Co8 Sm4 3.288517 1_555
Co9 Zn2 2.522056 1_555
Co9 Zn0 2.532074 1_555
Co9 Zn5 2.596566 1_555
Co9 Sm1 2.930468 1_545
Co9 Sm1 2.930468 1_555
Co9 Sm0 3.210416 1_555
Co9 Sm5 3.288517 1_545
Co9 Sm5 3.288517 1_555
Co10 Zn3 2.522056 1_555
Co10 Zn1 2.532074 1_555
Co10 Co7 2.562548 1_555
Co10 Co3 2.562548 1_555
Co10 Co7 2.592022 1_445
Co10 Co3 2.592022 1_545
Co10 Zn5 2.596566 1_555
Co10 Sm0 2.930468 1_455
Co10 Sm0 2.930468 1_555
Co10 Sm1 3.210416 1_555
Co10 Sm4 3.288517 1_455
Co10 Sm4 3.288517 1_555
Co11 Zn2 2.522056 1_555
Co11 Zn0 2.532074 1_665
Co11 Co9 2.562548 1_555
Co11 Co5 2.562548 1_555
Co11 Co9 2.592022 1_665
Co11 Co5 2.592022 1_565
Co11 Zn5 2.596566 1_665
Co11 Sm1 2.930468 1_655
Co11 Sm1 2.930468 1_555
Co11 Sm0 3.210416 1_555
Co11 Sm5 3.288517 1_655
Co11 Sm5 3.288517 1_555
