# generated using pymatgen
data_SrSm(NiO3)4
_symmetry_space_group_name_H-M   'P 1'
_cell_length_a   5.38904163
_cell_length_b   5.38904163
_cell_length_c   7.63242022
_cell_angle_alpha   90.00000000
_cell_angle_beta   90.00000000
_cell_angle_gamma   90.00000000
_symmetry_Int_Tables_number   1
_chemical_formula_structural   SrSm(NiO3)4
_chemical_formula_sum   'Sr1 Sm1 Ni4 O12'
_cell_volume   221.65899021
_cell_formula_units_Z   1
loop_
 _symmetry_equiv_pos_site_id
 _symmetry_equiv_pos_as_xyz
  1  'x, y, z'
loop_
 _atom_site_type_symbol
 _atom_site_label
 _atom_site_symmetry_multiplicity
 _atom_site_fract_x
 _atom_site_fract_y
 _atom_site_fract_z
 _atom_site_occupancy
  Sr  Sr0  1  -0.00000000  -0.00000000  -0.00000000  1
  Sm  Sm0  1  0.50000000  0.50000000  0.50000000  1
  Ni  Ni0  1  0.00000000  0.50000000  0.75069484  1
  Ni  Ni1  1  -0.00000000  0.50000000  0.24930516  1
  Ni  Ni2  1  0.50000000  -0.00000000  0.75069484  1
  Ni  Ni3  1  0.50000000  0.00000000  0.24930516  1
  O  O0  1  0.26207100  0.26207100  0.73630935  1
  O  O1  1  0.26207100  0.26207100  0.26369065  1
  O  O2  1  0.73792900  0.73792900  0.73630935  1
  O  O3  1  0.73792900  0.73792900  0.26369065  1
  O  O4  1  0.73792900  0.26207100  0.73630935  1
  O  O5  1  0.73792900  0.26207100  0.26369065  1
  O  O6  1  0.26207100  0.73792900  0.26369065  1
  O  O7  1  0.26207100  0.73792900  0.73630935  1
  O  O8  1  -0.00000000  0.50000000  0.50000000  1
  O  O9  1  0.00000000  0.50000000  0.00000000  1
  O  O10  1  0.50000000  0.00000000  0.50000000  1
  O  O11  1  0.50000000  0.00000000  0.00000000  1
loop_
_geom_bond_atom_site_label_1
_geom_bond_atom_site_label_2
_geom_bond_distance
_geom_bond_site_symmetry_2
Ni0 O9 1.902802 1_556
Ni0 O7 1.910691 1_555
Ni0 O0 1.910691 1_555
Ni0 O2 1.910691 1_455
Ni0 O4 1.910691 1_455
Ni0 O8 1.913408 1_555
Ni1 O9 1.902802 1_555
Ni1 O6 1.910691 1_555
Ni1 O3 1.910691 1_455
Ni1 O1 1.910691 1_555
Ni1 O5 1.910691 1_455
Ni1 O8 1.913408 1_555
Ni2 O11 1.902802 1_556
Ni2 O4 1.910691 1_555
Ni2 O2 1.910691 1_545
Ni2 O0 1.910691 1_555
Ni2 O7 1.910691 1_545
Ni2 O10 1.913408 1_555
Ni3 O11 1.902802 1_555
Ni3 O5 1.910691 1_555
Ni3 O1 1.910691 1_555
Ni3 O3 1.910691 1_545
Ni3 O6 1.910691 1_545
Ni3 O10 1.913408 1_555
O0 Sm0 2.557565 1_555
O0 Sr0 2.835454 1_556
O1 Sm0 2.557565 1_555
O1 Sr0 2.835454 1_555
O2 Sm0 2.557565 1_555
O2 Sr0 2.835454 1_666
O3 Sm0 2.557565 1_555
O3 Sr0 2.835454 1_665
O4 Sm0 2.557565 1_555
O4 Sr0 2.835454 1_656
O5 Sm0 2.557565 1_555
O5 Sr0 2.835454 1_655
O6 Sm0 2.557565 1_555
O6 Sr0 2.835454 1_565
O7 Sm0 2.557565 1_555
O7 Sr0 2.835454 1_566
O8 Sm0 2.694521 1_455
O8 Sm0 2.694521 1_555
O9 Sr0 2.694521 1_555
O9 Sr0 2.694521 1_565
O10 Sm0 2.694521 1_555
O10 Sm0 2.694521 1_545
O11 Sr0 2.694521 1_555
O11 Sr0 2.694521 1_655
