# generated using pymatgen
data_SrHfMg30O32
_symmetry_space_group_name_H-M   'P 1'
_cell_length_a   8.68700100
_cell_length_b   8.68700100
_cell_length_c   8.64459100
_cell_angle_alpha   90.00000000
_cell_angle_beta   90.00000000
_cell_angle_gamma   90.00000000
_symmetry_Int_Tables_number   1
_chemical_formula_structural   SrHfMg30O32
_chemical_formula_sum   'Sr1 Hf1 Mg30 O32'
_cell_volume   652.35529743
_cell_formula_units_Z   1
loop_
 _symmetry_equiv_pos_site_id
 _symmetry_equiv_pos_as_xyz
  1  'x, y, z'
loop_
 _atom_site_type_symbol
 _atom_site_label
 _atom_site_symmetry_multiplicity
 _atom_site_fract_x
 _atom_site_fract_y
 _atom_site_fract_z
 _atom_site_occupancy
  Sr  Sr0  1  0.00000000  0.00000000  0.00000000  1
  Hf  Hf0  1  0.50000000  0.50000000  0.00000000  1
  Mg  Mg0  1  0.50000000  0.00000000  0.00000000  1
  Mg  Mg1  1  0.00000000  0.50000000  0.00000000  1
  Mg  Mg2  1  0.00000000  0.00000000  0.50000000  1
  Mg  Mg3  1  0.50000000  0.00000000  0.50000000  1
  Mg  Mg4  1  0.00000000  0.50000000  0.50000000  1
  Mg  Mg5  1  0.50000000  0.50000000  0.50000000  1
  Mg  Mg6  1  0.25167200  0.25167200  0.00000000  1
  Mg  Mg7  1  0.74832800  0.25167200  0.00000000  1
  Mg  Mg8  1  0.25167200  0.74832800  0.00000000  1
  Mg  Mg9  1  0.74832800  0.74832800  0.00000000  1
  Mg  Mg10  1  0.24938500  0.24938500  0.50000000  1
  Mg  Mg11  1  0.75061500  0.24938500  0.50000000  1
  Mg  Mg12  1  0.24938500  0.75061500  0.50000000  1
  Mg  Mg13  1  0.75061500  0.75061500  0.50000000  1
  Mg  Mg14  1  0.25391200  0.00000000  0.25537400  1
  Mg  Mg15  1  0.74608800  0.00000000  0.25537400  1
  Mg  Mg16  1  0.24347500  0.50000000  0.25450000  1
  Mg  Mg17  1  0.75652500  0.50000000  0.25450000  1
  Mg  Mg18  1  0.25391200  0.00000000  0.74462600  1
  Mg  Mg19  1  0.74608800  0.00000000  0.74462600  1
  Mg  Mg20  1  0.24347500  0.50000000  0.74550000  1
  Mg  Mg21  1  0.75652500  0.50000000  0.74550000  1
  Mg  Mg22  1  0.00000000  0.25391200  0.25537400  1
  Mg  Mg23  1  0.50000000  0.24347500  0.25450000  1
  Mg  Mg24  1  0.00000000  0.74608800  0.25537400  1
  Mg  Mg25  1  0.50000000  0.75652500  0.25450000  1
  Mg  Mg26  1  0.00000000  0.25391200  0.74462600  1
  Mg  Mg27  1  0.50000000  0.24347500  0.74550000  1
  Mg  Mg28  1  0.00000000  0.74608800  0.74462600  1
  Mg  Mg29  1  0.50000000  0.75652500  0.74550000  1
  O  O0  1  0.00000000  0.00000000  0.27030400  1
  O  O1  1  0.50000000  0.00000000  0.25428100  1
  O  O2  1  0.00000000  0.50000000  0.25428100  1
  O  O3  1  0.50000000  0.50000000  0.24527700  1
  O  O4  1  0.00000000  0.00000000  0.72969600  1
  O  O5  1  0.50000000  0.00000000  0.74571900  1
  O  O6  1  0.00000000  0.50000000  0.74571900  1
  O  O7  1  0.50000000  0.50000000  0.75472300  1
  O  O8  1  0.25044800  0.25044800  0.24961700  1
  O  O9  1  0.74955200  0.25044800  0.24961700  1
  O  O10  1  0.25044800  0.74955200  0.24961700  1
  O  O11  1  0.74955200  0.74955200  0.24961700  1
  O  O12  1  0.25044800  0.25044800  0.75038300  1
  O  O13  1  0.74955200  0.25044800  0.75038300  1
  O  O14  1  0.25044800  0.74955200  0.75038300  1
  O  O15  1  0.74955200  0.74955200  0.75038300  1
  O  O16  1  0.26970000  0.00000000  0.00000000  1
  O  O17  1  0.73030000  0.00000000  0.00000000  1
  O  O18  1  0.24669700  0.50000000  0.00000000  1
  O  O19  1  0.75330300  0.50000000  0.00000000  1
  O  O20  1  0.25434600  0.00000000  0.50000000  1
  O  O21  1  0.74565400  0.00000000  0.50000000  1
  O  O22  1  0.25234700  0.50000000  0.50000000  1
  O  O23  1  0.74765300  0.50000000  0.50000000  1
  O  O24  1  0.00000000  0.26970000  0.00000000  1
  O  O25  1  0.50000000  0.24669700  0.00000000  1
  O  O26  1  0.00000000  0.73030000  0.00000000  1
  O  O27  1  0.50000000  0.75330300  0.00000000  1
  O  O28  1  0.00000000  0.25434600  0.50000000  1
  O  O29  1  0.50000000  0.25234700  0.50000000  1
  O  O30  1  0.00000000  0.74565400  0.50000000  1
  O  O31  1  0.50000000  0.74765300  0.50000000  1
loop_
_geom_bond_atom_site_label_1
_geom_bond_atom_site_label_2
_geom_bond_distance
_geom_bond_site_symmetry_2
Hf0 O3 2.120319 1_555
Hf0 O7 2.120319 1_554
Hf0 O19 2.200443 1_555
Hf0 O27 2.200443 1_555
Hf0 O25 2.200443 1_555
Hf0 O18 2.200443 1_555
Mg0 O16 2.000616 1_555
Mg0 O17 2.000616 1_555
Mg0 O25 2.143057 1_555
Mg0 O27 2.143057 1_545
Mg0 O1 2.198155 1_555
Mg0 O5 2.198155 1_554
Mg1 O24 2.000616 1_555
Mg1 O26 2.000616 1_555
Mg1 O18 2.143057 1_555
Mg1 O19 2.143057 1_455
Mg1 O2 2.198155 1_555
Mg1 O6 2.198155 1_554
Mg2 O4 1.985628 1_555
Mg2 O0 1.985628 1_555
Mg2 O20 2.209504 1_555
Mg2 O28 2.209504 1_555
Mg2 O21 2.209504 1_455
Mg2 O30 2.209504 1_545
Mg3 O1 2.124140 1_555
Mg3 O5 2.124140 1_555
Mg3 O21 2.133997 1_555
Mg3 O20 2.133997 1_555
Mg3 O29 2.192139 1_555
Mg3 O31 2.192139 1_545
Mg4 O2 2.124140 1_555
Mg4 O6 2.124140 1_555
Mg4 O30 2.133997 1_555
Mg4 O28 2.133997 1_555
Mg4 O23 2.192139 1_455
Mg4 O22 2.192139 1_555
Mg5 O31 2.151362 1_555
Mg5 O22 2.151362 1_555
Mg5 O23 2.151362 1_555
Mg5 O29 2.151362 1_555
Mg5 O7 2.201976 1_555
Mg5 O3 2.201976 1_555
Mg6 O25 2.157658 1_555
Mg6 O18 2.157658 1_555
Mg6 O8 2.157889 1_555
Mg6 O12 2.157889 1_554
Mg6 O24 2.191877 1_555
Mg6 O16 2.191877 1_555
Mg7 O25 2.157658 1_555
Mg7 O19 2.157658 1_555
Mg7 O9 2.157889 1_555
Mg7 O13 2.157889 1_554
Mg7 O24 2.191877 1_655
Mg7 O17 2.191877 1_555
Mg8 O18 2.157658 1_555
Mg8 O27 2.157658 1_555
Mg8 O10 2.157889 1_555
Mg8 O14 2.157889 1_554
Mg8 O26 2.191877 1_555
Mg8 O16 2.191877 1_565
Mg9 O19 2.157658 1_555
Mg9 O27 2.157658 1_555
Mg9 O11 2.157889 1_555
Mg9 O15 2.157889 1_554
Mg9 O17 2.191877 1_565
Mg9 O26 2.191877 1_655
Mg10 O12 2.164498 1_555
Mg10 O8 2.164498 1_555
Mg10 O28 2.166836 1_555
Mg10 O20 2.166836 1_555
Mg10 O22 2.177245 1_555
Mg10 O29 2.177245 1_555
Mg11 O13 2.164498 1_555
Mg11 O9 2.164498 1_555
Mg11 O21 2.166836 1_555
Mg11 O28 2.166836 1_655
Mg11 O29 2.177245 1_555
Mg11 O23 2.177245 1_555
Mg12 O14 2.164498 1_555
Mg12 O10 2.164498 1_555
Mg12 O30 2.166836 1_555
Mg12 O20 2.166836 1_565
Mg12 O22 2.177245 1_555
Mg12 O31 2.177245 1_555
Mg13 O15 2.164498 1_555
Mg13 O11 2.164498 1_555
Mg13 O21 2.166836 1_565
Mg13 O30 2.166836 1_655
Mg13 O31 2.177245 1_555
Mg13 O23 2.177245 1_555
Mg14 O20 2.114695 1_555
Mg14 O1 2.137788 1_555
Mg14 O8 2.176419 1_555
Mg14 O10 2.176419 1_545
Mg14 O0 2.209507 1_555
Mg14 O16 2.211860 1_555
Mg15 O21 2.114695 1_555
Mg15 O1 2.137788 1_555
Mg15 O9 2.176419 1_555
Mg15 O11 2.176419 1_545
Mg15 O0 2.209507 1_655
Mg15 O17 2.211860 1_555
Mg16 O2 2.115068 1_555
Mg16 O22 2.123646 1_555
Mg16 O10 2.169115 1_555
Mg16 O8 2.169115 1_555
Mg16 O18 2.200226 1_555
Mg16 O3 2.229859 1_555
Mg17 O2 2.115068 1_655
Mg17 O23 2.123646 1_555
Mg17 O9 2.169115 1_555
Mg17 O11 2.169115 1_555
Mg17 O19 2.200226 1_555
Mg17 O3 2.229859 1_555
Mg18 O20 2.114695 1_555
Mg18 O5 2.137788 1_555
Mg18 O14 2.176419 1_545
Mg18 O12 2.176419 1_555
Mg18 O4 2.209507 1_555
Mg18 O16 2.211860 1_556
Mg19 O21 2.114695 1_555
Mg19 O5 2.137788 1_555
Mg19 O15 2.176419 1_545
Mg19 O13 2.176419 1_555
Mg19 O4 2.209507 1_655
Mg19 O17 2.211860 1_556
Mg20 O6 2.115068 1_555
Mg20 O22 2.123646 1_555
Mg20 O12 2.169115 1_555
Mg20 O14 2.169115 1_555
Mg20 O18 2.200226 1_556
Mg20 O7 2.229859 1_555
Mg21 O6 2.115068 1_655
Mg21 O23 2.123646 1_555
Mg21 O13 2.169115 1_555
Mg21 O15 2.169115 1_555
Mg21 O19 2.200226 1_556
Mg21 O7 2.229859 1_555
Mg22 O28 2.114695 1_555
Mg22 O2 2.137788 1_555
Mg22 O8 2.176419 1_555
Mg22 O9 2.176419 1_455
Mg22 O0 2.209507 1_555
Mg22 O24 2.211860 1_555
Mg23 O1 2.115068 1_555
Mg23 O29 2.123646 1_555
Mg23 O9 2.169115 1_555
Mg23 O8 2.169115 1_555
Mg23 O25 2.200226 1_555
Mg23 O3 2.229859 1_555
Mg24 O30 2.114695 1_555
Mg24 O2 2.137788 1_555
Mg24 O11 2.176419 1_455
Mg24 O10 2.176419 1_555
Mg24 O0 2.209507 1_565
Mg24 O26 2.211860 1_555
Mg25 O1 2.115068 1_565
Mg25 O31 2.123646 1_555
Mg25 O10 2.169115 1_555
Mg25 O11 2.169115 1_555
Mg25 O27 2.200226 1_555
Mg25 O3 2.229859 1_555
Mg26 O28 2.114695 1_555
Mg26 O6 2.137788 1_555
Mg26 O13 2.176419 1_455
Mg26 O12 2.176419 1_555
Mg26 O4 2.209507 1_555
Mg26 O24 2.211860 1_556
Mg27 O5 2.115068 1_555
Mg27 O29 2.123646 1_555
Mg27 O13 2.169115 1_555
Mg27 O12 2.169115 1_555
Mg27 O25 2.200226 1_556
Mg27 O7 2.229859 1_555
Mg28 O30 2.114695 1_555
Mg28 O6 2.137788 1_555
Mg28 O15 2.176419 1_455
Mg28 O14 2.176419 1_555
Mg28 O4 2.209507 1_565
Mg28 O26 2.211860 1_556
Mg29 O5 2.115068 1_565
Mg29 O31 2.123646 1_555
Mg29 O15 2.169115 1_555
Mg29 O14 2.169115 1_555
Mg29 O27 2.200226 1_556
Mg29 O7 2.229859 1_555
O0 Sr0 2.336668 1_555
O4 Sr0 2.336668 1_556
O16 Sr0 2.342884 1_555
O17 Sr0 2.342884 1_655
O24 Sr0 2.342884 1_555
O26 Sr0 2.342884 1_565
