# generated using pymatgen
data_AlGaRu2
_symmetry_space_group_name_H-M   'P 1'
_cell_length_a   4.23024696
_cell_length_b   4.23024696
_cell_length_c   4.23024696
_cell_angle_alpha   60.00000000
_cell_angle_beta   60.00000000
_cell_angle_gamma   60.00000000
_symmetry_Int_Tables_number   1
_chemical_formula_structural   AlGaRu2
_chemical_formula_sum   'Al1 Ga1 Ru2'
_cell_volume   53.52814183
_cell_formula_units_Z   1
loop_
 _symmetry_equiv_pos_site_id
 _symmetry_equiv_pos_as_xyz
  1  'x, y, z'
loop_
 _atom_site_type_symbol
 _atom_site_label
 _atom_site_symmetry_multiplicity
 _atom_site_fract_x
 _atom_site_fract_y
 _atom_site_fract_z
 _atom_site_occupancy
  Al  Al0  1  0.50000000  0.50000000  0.50000000  1
  Ga  Ga0  1  0.00000000  0.00000000  -0.00000000  1
  Ru  Ru0  1  0.25000000  0.25000000  0.25000000  1
  Ru  Ru1  1  0.75000000  0.75000000  0.75000000  1
loop_
_geom_bond_atom_site_label_1
_geom_bond_atom_site_label_2
_geom_bond_distance
_geom_bond_site_symmetry_2
Al0 Ru0 2.590487 1_555
Al0 Ru0 2.590487 1_565
Al0 Ru1 2.590487 1_455
Al0 Ru0 2.590487 1_655
Al0 Ru0 2.590487 1_556
Al0 Ru1 2.590487 1_555
Al0 Ru1 2.590487 1_545
Al0 Ru1 2.590487 1_554
Ga0 Ru0 2.590487 1_555
Ga0 Ru1 2.590487 1_454
Ga0 Ru1 2.590487 1_444
Ga0 Ru0 2.590487 1_455
Ga0 Ru0 2.590487 1_554
Ga0 Ru1 2.590487 1_544
Ga0 Ru1 2.590487 1_445
Ga0 Ru0 2.590487 1_545
