# generated using pymatgen
data_SrEuNiO4
_symmetry_space_group_name_H-M   'P 1'
_cell_length_a   6.71114242
_cell_length_b   6.71114242
_cell_length_c   6.71114242
_cell_angle_alpha   146.83811528
_cell_angle_beta   146.83811528
_cell_angle_gamma   47.60353890
_symmetry_Int_Tables_number   1
_chemical_formula_structural   SrEuNiO4
_chemical_formula_sum   'Sr1 Eu1 Ni1 O4'
_cell_volume   90.08672362
_cell_formula_units_Z   1
loop_
 _symmetry_equiv_pos_site_id
 _symmetry_equiv_pos_as_xyz
  1  'x, y, z'
loop_
 _atom_site_type_symbol
 _atom_site_label
 _atom_site_symmetry_multiplicity
 _atom_site_fract_x
 _atom_site_fract_y
 _atom_site_fract_z
 _atom_site_occupancy
  Sr  Sr0  1  0.64225500  0.64225500  0.00000000  1
  Eu  Eu0  1  0.36050900  0.36050900  0.00000000  1
  Ni  Ni0  1  0.00174400  0.00174400  0.00000000  1
  O  O0  1  0.99299800  0.49299800  0.50000000  1
  O  O1  1  0.49299800  0.99299800  0.50000000  1
  O  O2  1  0.83945000  0.83945000  0.00000000  1
  O  O3  1  0.17004600  0.17004600  0.00000000  1
loop_
_geom_bond_atom_site_label_1
_geom_bond_atom_site_label_2
_geom_bond_distance
_geom_bond_site_symmetry_2
Eu0 O3 2.339016 1_555
Eu0 O0 2.512993 1_555
Eu0 O1 2.512993 1_555
Eu0 O1 2.512993 1_544
Eu0 O0 2.512993 1_454
Eu0 O2 2.720759 1_545
Eu0 O2 2.720759 1_455
Eu0 O2 2.720759 1_556
Eu0 O2 2.720759 1_444
Ni0 O0 1.918165 1_444
Ni0 O1 1.918165 1_444
Ni0 O1 1.918165 1_545
Ni0 O0 1.918165 1_455
Ni0 O2 1.993081 1_445
Ni0 O3 2.066863 1_555
O0 Sr0 2.650968 1_555
O0 Sr0 2.650968 1_656
O1 Sr0 2.650968 1_555
O1 Sr0 2.650968 1_566
O2 Sr0 2.421689 1_555
O3 Sr0 2.729858 1_444
O3 Sr0 2.729858 1_545
O3 Sr0 2.729858 1_455
O3 Sr0 2.729858 1_556
