# generated using pymatgen
data_VZn6P3O16
_symmetry_space_group_name_H-M   'P 1'
_cell_length_a   5.40817294
_cell_length_b   8.43761680
_cell_length_c   8.53919216
_cell_angle_alpha   106.09473223
_cell_angle_beta   71.80118151
_cell_angle_gamma   90.30208080
_symmetry_Int_Tables_number   1
_chemical_formula_structural   VZn6P3O16
_chemical_formula_sum   'V1 Zn6 P3 O16'
_cell_volume   354.24679034
_cell_formula_units_Z   1
loop_
 _symmetry_equiv_pos_site_id
 _symmetry_equiv_pos_as_xyz
  1  'x, y, z'
loop_
 _atom_site_type_symbol
 _atom_site_label
 _atom_site_symmetry_multiplicity
 _atom_site_fract_x
 _atom_site_fract_y
 _atom_site_fract_z
 _atom_site_occupancy
  V  V0  1  0.58664300  0.02859600  0.24139300  1
  Zn  Zn0  1  0.95883600  0.25623000  0.99432000  1
  Zn  Zn1  1  0.06444500  0.74484500  0.99601000  1
  Zn  Zn2  1  0.01754900  0.22671500  0.37654500  1
  Zn  Zn3  1  0.39288700  0.28885300  0.63614700  1
  Zn  Zn4  1  0.97358700  0.78503900  0.62926700  1
  Zn  Zn5  1  0.60473300  0.70983800  0.37343800  1
  P  P0  1  0.83676400  0.46808800  0.75672000  1
  P  P1  1  0.40824200  0.96473000  0.75575200  1
  P  P2  1  0.16513100  0.53457500  0.24399700  1
  O  O0  1  0.40626800  0.52925700  0.30000100  1
  O  O1  1  0.70545600  0.96678100  0.70211500  1
  O  O2  1  0.59232300  0.47225800  0.70368000  1
  O  O3  1  0.25362400  0.02841900  0.30127300  1
  O  O4  1  0.06606300  0.35266300  0.59832500  1
  O  O5  1  0.65826200  0.16305300  0.42116100  1
  O  O6  1  0.93739700  0.64816600  0.40492000  1
  O  O7  1  0.33879400  0.84969200  0.59451500  1
  O  O8  1  0.80259700  0.40956900  0.91476100  1
  O  O9  1  0.72207400  0.09994600  0.06872400  1
  O  O10  1  0.20314800  0.59029700  0.08405900  1
  O  O11  1  0.28270400  0.90683200  0.91420200  1
  O  O12  1  0.73863500  0.82800600  0.19796900  1
  O  O13  1  0.93101800  0.64798900  0.79248800  1
  O  O14  1  0.28157300  0.14552500  0.79291800  1
  O  O15  1  0.07124700  0.35404000  0.20529800  1
loop_
_geom_bond_atom_site_label_1
_geom_bond_atom_site_label_2
_geom_bond_distance
_geom_bond_site_symmetry_2
O0 P2 1.527578 1_555
O0 Zn5 1.933980 1_555
O1 P1 1.529054 1_555
O1 Zn4 1.942260 1_555
O2 P0 1.528831 1_555
O2 Zn3 1.940819 1_555
O3 V0 1.711815 1_555
O3 Zn2 1.938108 1_555
O4 P0 1.597006 1_455
O4 Zn2 1.994064 1_555
O4 Zn3 1.995329 1_555
O5 V0 1.787376 1_555
O5 Zn3 1.961264 1_555
O5 Zn2 1.961970 1_655
O6 P2 1.596514 1_655
O6 Zn5 1.992327 1_555
O6 Zn4 2.011777 1_555
O7 P1 1.599086 1_555
O7 Zn4 1.999742 1_455
O7 Zn5 2.027726 1_555
O8 P0 1.520507 1_555
O8 Zn0 1.925336 1_555
O9 V0 1.698781 1_555
O9 Zn0 1.928902 1_554
O10 P2 1.519270 1_555
O10 Zn1 1.932531 1_554
O11 P1 1.522989 1_555
O11 Zn1 1.935646 1_555
O12 V0 1.775966 1_565
O12 Zn5 1.976507 1_555
O12 Zn1 2.003811 1_654
O13 P0 1.577747 1_555
O13 Zn4 2.005793 1_555
O13 Zn1 2.049036 1_655
O14 P1 1.582367 1_545
O14 Zn3 2.000901 1_555
O14 Zn0 2.031804 1_455
O15 P2 1.582703 1_555
O15 Zn2 1.994829 1_555
O15 Zn0 2.037362 1_454
