# generated using pymatgen
data_CsAlH4(OF2)2
_symmetry_space_group_name_H-M   'P 1'
_cell_length_a   6.69522508
_cell_length_b   6.69522508
_cell_length_c   8.33289859
_cell_angle_alpha   97.41468360
_cell_angle_beta   106.74307061
_cell_angle_gamma   118.74017531
_symmetry_Int_Tables_number   1
_chemical_formula_structural   CsAlH4(OF2)2
_chemical_formula_sum   'Cs2 Al2 H8 O4 F8'
_cell_volume   297.27944957
_cell_formula_units_Z   2
loop_
 _symmetry_equiv_pos_site_id
 _symmetry_equiv_pos_as_xyz
  1  'x, y, z'
loop_
 _atom_site_type_symbol
 _atom_site_label
 _atom_site_symmetry_multiplicity
 _atom_site_fract_x
 _atom_site_fract_y
 _atom_site_fract_z
 _atom_site_occupancy
  Cs  Cs0  1  0.47084200  0.22084200  0.25000000  1
  Cs  Cs1  1  0.52915800  0.77915800  0.75000000  1
  Al  Al0  1  0.00000000  0.50000000  0.00000000  1
  Al  Al1  1  0.00000000  0.00000000  0.50000000  1
  H  H0  1  0.08490900  0.41141100  0.30704900  1
  H  H1  1  0.60436200  0.77786000  0.19295100  1
  H  H2  1  0.91509100  0.58858900  0.69295100  1
  H  H3  1  0.39563800  0.22214000  0.80704900  1
  H  H4  1  0.11637800  0.67278300  0.33421400  1
  H  H5  1  0.83856900  0.78216400  0.16578600  1
  H  H6  1  0.88362200  0.32721700  0.66578600  1
  H  H7  1  0.16143100  0.21783600  0.83421400  1
  O  O0  1  0.04865500  0.51592300  0.24499100  1
  O  O1  1  0.77093100  0.80366400  0.25500900  1
  O  O2  1  0.95134500  0.48407700  0.75500900  1
  O  O3  1  0.22906900  0.19633600  0.74499100  1
  F  F0  1  0.05219800  0.25859500  0.96948000  1
  F  F1  1  0.78911500  0.08271800  0.53052000  1
  F  F2  1  0.94780200  0.74140500  0.03052000  1
  F  F3  1  0.21088500  0.91728200  0.46948000  1
  F  F4  1  0.33352400  0.72115000  0.07052800  1
  F  F5  1  0.15062200  0.26299600  0.42947200  1
  F  F6  1  0.66647600  0.27885000  0.92947200  1
  F  F7  1  0.84937800  0.73700400  0.57052800  1
loop_
_geom_bond_atom_site_label_1
_geom_bond_atom_site_label_2
_geom_bond_distance
_geom_bond_site_symmetry_2
Cs0 F5 3.038594 1_555
Cs0 F4 3.038594 1_545
Cs0 F2 3.145854 1_445
Cs0 F3 3.145854 1_545
Cs0 F0 3.231593 1_554
Cs0 F1 3.231593 1_555
Cs0 F6 3.285495 1_554
Cs0 F7 3.285495 1_555
Cs1 F7 3.038594 1_555
Cs1 F6 3.038594 1_565
Cs1 F1 3.145854 1_565
Cs1 F0 3.145854 1_665
Cs1 F3 3.231593 1_555
Cs1 F2 3.231593 1_556
Cs1 F4 3.285495 1_556
Cs1 F5 3.285495 1_555
Al0 F2 1.813127 1_455
Al0 F0 1.813127 1_554
Al0 F4 1.834056 1_555
Al0 F6 1.834056 1_454
Al0 O2 1.952540 1_454
Al0 O0 1.952540 1_555
Al1 F3 1.813127 1_545
Al1 F1 1.813127 1_455
Al1 F5 1.834056 1_555
Al1 F7 1.834056 1_445
Al1 O3 1.952541 1_555
Al1 O1 1.952541 1_445
H0 O0 1.000183 1_555
H1 O1 1.000177 1_555
H2 O2 1.000183 1_555
H3 O3 1.000177 1_555
H4 O0 1.003798 1_555
H5 O1 1.003803 1_555
H6 O2 1.003798 1_555
H7 O3 1.003803 1_555
F0 H7 1.570764 1_555
F1 H6 1.570764 1_555
F2 H5 1.570764 1_555
F3 H4 1.570764 1_555
