# generated using pymatgen
data_Tl(CoSb3)16
_symmetry_space_group_name_H-M   'P 1'
_cell_length_a   7.89320456
_cell_length_b   7.89320456
_cell_length_c   25.75512411
_cell_angle_alpha   89.97700798
_cell_angle_beta   89.97700798
_cell_angle_gamma   70.50364355
_symmetry_Int_Tables_number   1
_chemical_formula_structural   Tl(CoSb3)16
_chemical_formula_sum   'Tl1 Co16 Sb48'
_cell_volume   1512.60886667
_cell_formula_units_Z   1
loop_
 _symmetry_equiv_pos_site_id
 _symmetry_equiv_pos_as_xyz
  1  'x, y, z'
loop_
 _atom_site_type_symbol
 _atom_site_label
 _atom_site_symmetry_multiplicity
 _atom_site_fract_x
 _atom_site_fract_y
 _atom_site_fract_z
 _atom_site_occupancy
  Tl  Tl0  1  0.00000000  0.00000000  0.00000000  1
  Co  Co0  1  0.25018100  0.74978100  0.87500000  1
  Co  Co1  1  0.74996800  0.25008500  0.62510900  1
  Co  Co2  1  0.25003200  0.74991500  0.37489100  1
  Co  Co3  1  0.74981900  0.25021900  0.12500000  1
  Co  Co4  1  0.49994500  0.99993800  0.75012200  1
  Co  Co5  1  0.00000000  0.50000000  0.50000000  1
  Co  Co6  1  0.50005500  0.00006200  0.24987800  1
  Co  Co7  1  0.00000000  0.50000000  0.00000000  1
  Co  Co8  1  0.99993800  0.49994500  0.75012200  1
  Co  Co9  1  0.50000000  0.00000000  0.50000000  1
  Co  Co10  1  0.00006200  0.50005500  0.24987800  1
  Co  Co11  1  0.50000000  0.00000000  0.00000000  1
  Co  Co12  1  0.74978100  0.25018100  0.87500000  1
  Co  Co13  1  0.25008500  0.74996800  0.62510900  1
  Co  Co14  1  0.74991500  0.25003200  0.37489100  1
  Co  Co15  1  0.25021900  0.74981900  0.12500000  1
  Sb  Sb0  1  0.50601500  0.82496200  0.83261700  1
  Sb  Sb1  1  0.00682900  0.32613900  0.58329600  1
  Sb  Sb2  1  0.50695900  0.82641000  0.33347000  1
  Sb  Sb3  1  0.00759600  0.32996700  0.08460600  1
  Sb  Sb4  1  0.99240400  0.67003300  0.91539400  1
  Sb  Sb5  1  0.49304100  0.17359000  0.66653000  1
  Sb  Sb6  1  0.99317100  0.67386100  0.41670400  1
  Sb  Sb7  1  0.49398500  0.17503800  0.16738300  1
  Sb  Sb8  1  0.82496200  0.50601500  0.83261700  1
  Sb  Sb9  1  0.32613900  0.00682900  0.58329600  1
  Sb  Sb10  1  0.82641000  0.50695900  0.33347000  1
  Sb  Sb11  1  0.32996700  0.00759600  0.08460600  1
  Sb  Sb12  1  0.67003300  0.99240400  0.91539400  1
  Sb  Sb13  1  0.17359000  0.49304100  0.66653000  1
  Sb  Sb14  1  0.67386100  0.99317100  0.41670400  1
  Sb  Sb15  1  0.17503800  0.49398500  0.16738300  1
  Sb  Sb16  1  0.41661500  0.74475200  0.95962000  1
  Sb  Sb17  1  0.91324900  0.24681800  0.70996600  1
  Sb  Sb18  1  0.41318400  0.74659400  0.46010900  1
  Sb  Sb19  1  0.91339200  0.24633400  0.21037200  1
  Sb  Sb20  1  0.08660800  0.75366600  0.78962800  1
  Sb  Sb21  1  0.58681600  0.25340600  0.53989100  1
  Sb  Sb22  1  0.08675100  0.75318200  0.29003400  1
  Sb  Sb23  1  0.58338500  0.25524800  0.04038000  1
  Sb  Sb24  1  0.75366600  0.08660800  0.78962800  1
  Sb  Sb25  1  0.25340600  0.58681600  0.53989100  1
  Sb  Sb26  1  0.75318200  0.08675100  0.29003400  1
  Sb  Sb27  1  0.25524800  0.58338500  0.04038000  1
  Sb  Sb28  1  0.74475200  0.41661500  0.95962000  1
  Sb  Sb29  1  0.24681800  0.91324900  0.70996600  1
  Sb  Sb30  1  0.74659400  0.41318400  0.46010900  1
  Sb  Sb31  1  0.24633400  0.91339200  0.21037200  1
  Sb  Sb32  1  0.25491000  0.25491000  0.79259400  1
  Sb  Sb33  1  0.75380800  0.75380800  0.54337000  1
  Sb  Sb34  1  0.25361900  0.25361900  0.29358700  1
  Sb  Sb35  1  0.75065900  0.75065900  0.04437300  1
  Sb  Sb36  1  0.24934100  0.24934100  0.95562700  1
  Sb  Sb37  1  0.74638100  0.74638100  0.70641300  1
  Sb  Sb38  1  0.24619200  0.24619200  0.45663000  1
  Sb  Sb39  1  0.74509000  0.74509000  0.20740600  1
  Sb  Sb40  1  0.41398600  0.41398600  0.87244200  1
  Sb  Sb41  1  0.91316700  0.91316700  0.62319100  1
  Sb  Sb42  1  0.41326300  0.41326200  0.37329000  1
  Sb  Sb43  1  0.91198500  0.91198500  0.12502900  1
  Sb  Sb44  1  0.08801500  0.08801500  0.87497100  1
  Sb  Sb45  1  0.58673800  0.58673800  0.62671000  1
  Sb  Sb46  1  0.08683300  0.08683300  0.37680900  1
  Sb  Sb47  1  0.58601400  0.58601400  0.12755800  1
loop_
_geom_bond_atom_site_label_1
_geom_bond_atom_site_label_2
_geom_bond_distance
_geom_bond_site_symmetry_2
Co0 Sb40 2.532547 1_555
Co0 Sb0 2.533584 1_555
Co0 Sb16 2.538617 1_555
Co0 Sb4 2.543854 1_455
Co0 Sb20 2.545248 1_555
Co0 Sb44 2.546558 1_565
Co1 Sb17 2.533407 1_555
Co1 Sb5 2.535823 1_555
Co1 Sb45 2.537236 1_555
Co1 Sb1 2.537873 1_655
Co1 Sb41 2.539181 1_545
Co1 Sb21 2.540853 1_555
Co2 Sb22 2.533407 1_555
Co2 Sb2 2.535823 1_555
Co2 Sb42 2.537237 1_555
Co2 Sb6 2.537873 1_455
Co2 Sb46 2.539181 1_565
Co2 Sb18 2.540853 1_555
Co3 Sb47 2.532547 1_555
Co3 Sb7 2.533584 1_555
Co3 Sb23 2.538617 1_555
Co3 Sb3 2.543854 1_655
Co3 Sb19 2.545248 1_555
Co3 Sb43 2.546558 1_545
Co4 Sb0 2.525385 1_555
Co4 Sb32 2.527754 1_565
Co4 Sb24 2.535872 1_565
Co4 Sb29 2.538608 1_555
Co4 Sb37 2.541250 1_555
Co4 Sb5 2.542568 1_565
Co5 Sb1 2.537091 1_555
Co5 Sb6 2.537091 1_455
Co5 Sb38 2.537483 1_555
Co5 Sb33 2.537483 1_455
Co5 Sb25 2.538301 1_555
Co5 Sb30 2.538301 1_455
Co6 Sb7 2.525385 1_555
Co6 Sb39 2.527754 1_545
Co6 Sb31 2.535872 1_545
Co6 Sb26 2.538608 1_555
Co6 Sb34 2.541250 1_555
Co6 Sb2 2.542568 1_545
Co7 Sb27 2.541899 1_555
Co7 Sb28 2.541899 1_454
Co7 Sb35 2.548493 1_455
Co7 Sb36 2.548493 1_554
Co7 Sb3 2.548940 1_555
Co7 Sb4 2.548940 1_454
Co8 Sb8 2.525385 1_555
Co8 Sb32 2.527754 1_655
Co8 Sb20 2.535872 1_655
Co8 Sb17 2.538608 1_555
Co8 Sb37 2.541250 1_555
Co8 Sb13 2.542568 1_655
Co9 Sb9 2.537091 1_555
Co9 Sb14 2.537091 1_545
Co9 Sb38 2.537483 1_555
Co9 Sb33 2.537483 1_545
Co9 Sb21 2.538301 1_555
Co9 Sb18 2.538301 1_545
Co10 Sb15 2.525385 1_555
Co10 Sb39 2.527754 1_455
Co10 Sb19 2.535872 1_455
Co10 Sb22 2.538608 1_555
Co10 Sb34 2.541250 1_555
Co10 Sb10 2.542568 1_455
Co11 Sb23 2.541899 1_555
Co11 Sb16 2.541899 1_544
Co11 Sb35 2.548493 1_545
Co11 Sb36 2.548493 1_554
Co11 Sb11 2.548940 1_555
Co11 Sb12 2.548940 1_544
Co12 Sb40 2.532547 1_555
Co12 Sb8 2.533584 1_555
Co12 Sb28 2.538617 1_555
Co12 Sb12 2.543854 1_545
Co12 Sb24 2.545248 1_555
Co12 Sb44 2.546558 1_655
Co13 Sb29 2.533407 1_555
Co13 Sb13 2.535823 1_555
Co13 Sb45 2.537236 1_555
Co13 Sb9 2.537873 1_565
Co13 Sb41 2.539181 1_455
Co13 Sb25 2.540853 1_555
Co14 Sb26 2.533407 1_555
Co14 Sb10 2.535823 1_555
Co14 Sb42 2.537229 1_555
Co14 Sb14 2.537873 1_545
Co14 Sb46 2.539181 1_655
Co14 Sb30 2.540853 1_555
Co15 Sb47 2.532547 1_555
Co15 Sb15 2.533584 1_555
Co15 Sb27 2.538617 1_555
Co15 Sb11 2.543854 1_565
Co15 Sb31 2.545248 1_555
Co15 Sb43 2.546558 1_455
Sb3 Tl0 3.412345 1_555
Sb4 Tl0 3.412345 1_666
Sb11 Tl0 3.412345 1_555
Sb12 Tl0 3.412345 1_666
Sb16 Tl0 3.395741 1_566
Sb23 Tl0 3.395741 1_655
Sb27 Tl0 3.395741 1_565
Sb28 Tl0 3.395741 1_656
Sb35 Tl0 3.410977 1_665
Sb36 Tl0 3.410977 1_556
Sb43 Tl0 3.413667 1_665
Sb44 Tl0 3.413667 1_556
