# generated using pymatgen
data_Sm2InNi2
_symmetry_space_group_name_H-M   'P 1'
_cell_length_a   3.70569441
_cell_length_b   7.40863991
_cell_length_c   7.40863991
_cell_angle_alpha   90.00000000
_cell_angle_beta   90.00000000
_cell_angle_gamma   90.00000000
_symmetry_Int_Tables_number   1
_chemical_formula_structural   Sm2InNi2
_chemical_formula_sum   'Sm4 In2 Ni4'
_cell_volume   203.39795213
_cell_formula_units_Z   2
loop_
 _symmetry_equiv_pos_site_id
 _symmetry_equiv_pos_as_xyz
  1  'x, y, z'
loop_
 _atom_site_type_symbol
 _atom_site_label
 _atom_site_symmetry_multiplicity
 _atom_site_fract_x
 _atom_site_fract_y
 _atom_site_fract_z
 _atom_site_occupancy
  Sm  Sm0  1  0.50000000  0.17670670  0.67670670  1
  Sm  Sm1  1  0.50000000  0.82329330  0.32329330  1
  Sm  Sm2  1  0.50000000  0.32329330  0.17670670  1
  Sm  Sm3  1  0.50000000  0.67670670  0.82329330  1
  In  In0  1  0.00000000  0.50000000  0.50000000  1
  In  In1  1  0.00000000  -0.00000000  0.00000000  1
  Ni  Ni0  1  -0.00000000  0.61751063  0.11751063  1
  Ni  Ni1  1  0.00000000  0.38248937  0.88248937  1
  Ni  Ni2  1  0.00000000  0.88248937  0.61751063  1
  Ni  Ni3  1  -0.00000000  0.11751063  0.38248937  1
loop_
_geom_bond_atom_site_label_1
_geom_bond_atom_site_label_2
_geom_bond_distance
_geom_bond_site_symmetry_2
In0 Ni2 2.964445 1_555
In0 Ni3 2.964445 1_555
In0 Ni0 2.964445 1_555
In0 Ni1 2.964445 1_555
In0 Sm2 3.299052 1_555
In0 Sm0 3.299052 1_455
In0 Sm1 3.299052 1_555
In0 Sm1 3.299052 1_455
In0 Sm0 3.299052 1_555
In0 Sm3 3.299052 1_555
In0 Sm3 3.299052 1_455
In0 Sm2 3.299052 1_455
In1 Ni0 2.964445 1_545
In1 Ni2 2.964445 1_544
In1 Ni3 2.964445 1_555
In1 Ni1 2.964445 1_554
In1 Sm2 3.299052 1_555
In1 Sm0 3.299052 1_554
In1 Sm2 3.299052 1_455
In1 Sm1 3.299052 1_545
In1 Sm3 3.299052 1_444
In1 Sm3 3.299052 1_544
In1 Sm0 3.299052 1_454
In1 Sm1 3.299052 1_445
Ni0 Ni1 2.462412 1_554
Ni0 Sm1 2.842828 1_555
Ni0 Sm1 2.842828 1_455
Ni0 Sm3 2.894251 1_554
Ni0 Sm3 2.894251 1_454
Ni0 Sm2 2.894251 1_455
Ni0 Sm2 2.894251 1_555
Ni1 Sm0 2.842828 1_555
Ni1 Sm0 2.842828 1_455
Ni1 Sm2 2.894251 1_556
Ni1 Sm2 2.894251 1_456
Ni1 Sm3 2.894251 1_555
Ni1 Sm3 2.894251 1_455
Ni2 Ni3 2.462412 1_565
Ni2 Sm3 2.842828 1_555
Ni2 Sm3 2.842828 1_455
Ni2 Sm0 2.894251 1_565
Ni2 Sm0 2.894251 1_465
Ni2 Sm1 2.894251 1_555
Ni2 Sm1 2.894251 1_455
Ni3 Sm2 2.842828 1_555
Ni3 Sm2 2.842828 1_455
Ni3 Sm1 2.894251 1_445
Ni3 Sm0 2.894251 1_455
Ni3 Sm1 2.894251 1_545
Ni3 Sm0 2.894251 1_555
