# generated using pymatgen
data_Ca(Ni2O3)2
_symmetry_space_group_name_H-M   'P 1'
_cell_length_a   5.12896594
_cell_length_b   5.12896594
_cell_length_c   15.09059900
_cell_angle_alpha   90.00000000
_cell_angle_beta   90.00000000
_cell_angle_gamma   145.71691022
_symmetry_Int_Tables_number   1
_chemical_formula_structural   Ca(Ni2O3)2
_chemical_formula_sum   'Ca2 Ni8 O12'
_cell_volume   223.61047545
_cell_formula_units_Z   2
loop_
 _symmetry_equiv_pos_site_id
 _symmetry_equiv_pos_as_xyz
  1  'x, y, z'
loop_
 _atom_site_type_symbol
 _atom_site_label
 _atom_site_symmetry_multiplicity
 _atom_site_fract_x
 _atom_site_fract_y
 _atom_site_fract_z
 _atom_site_occupancy
  Ca  Ca0  1  0.34420100  0.65579900  0.75000000  1
  Ca  Ca1  1  0.65579900  0.34420100  0.25000000  1
  Ni  Ni0  1  0.13676400  0.86323600  0.04181400  1
  Ni  Ni1  1  0.59071900  0.40928100  0.63078800  1
  Ni  Ni2  1  0.86323600  0.13676400  0.95818600  1
  Ni  Ni3  1  0.40928100  0.59071900  0.36921200  1
  Ni  Ni4  1  0.13676400  0.86323600  0.45818600  1
  Ni  Ni5  1  0.86323600  0.13676400  0.54181400  1
  Ni  Ni6  1  0.40928100  0.59071900  0.13078800  1
  Ni  Ni7  1  0.59071900  0.40928100  0.86921200  1
  O  O0  1  0.50000000  0.50000000  0.50000000  1
  O  O1  1  0.50000000  0.50000000  0.00000000  1
  O  O2  1  0.95718700  0.04281300  0.84740100  1
  O  O3  1  0.04281300  0.95718700  0.15259900  1
  O  O4  1  0.04281300  0.95718700  0.34740100  1
  O  O5  1  0.95718700  0.04281300  0.65259900  1
  O  O6  1  0.22387500  0.77612500  0.92314100  1
  O  O7  1  0.77612500  0.22387500  0.07685900  1
  O  O8  1  0.77612500  0.22387500  0.42314100  1
  O  O9  1  0.22387500  0.77612500  0.57685900  1
  O  O10  1  0.66955500  0.33044500  0.75000000  1
  O  O11  1  0.33044500  0.66955500  0.25000000  1
loop_
_geom_bond_atom_site_label_1
_geom_bond_atom_site_label_2
_geom_bond_distance
_geom_bond_site_symmetry_2
Ca0 O10 2.283826 1_455
Ca0 O10 2.283826 1_565
Ca0 O5 2.381637 1_565
Ca0 O2 2.381637 1_455
Ca0 O5 2.381637 1_455
Ca0 O2 2.381637 1_565
Ca1 O11 2.283826 1_545
Ca1 O11 2.283826 1_655
Ca1 O3 2.381637 1_545
Ca1 O4 2.381637 1_655
Ca1 O4 2.381637 1_545
Ca1 O3 2.381637 1_655
Ni0 O3 1.908684 1_555
Ni0 O6 1.983999 1_554
Ni0 O7 2.104983 1_565
Ni0 O7 2.104983 1_455
Ni0 O1 2.116726 1_455
Ni0 O1 2.116726 1_565
Ni1 O10 1.957934 1_555
Ni1 O5 2.026515 1_565
Ni1 O5 2.026515 1_455
Ni1 O9 2.156641 1_655
Ni1 O9 2.156641 1_545
Ni1 O0 2.164749 1_555
Ni2 O2 1.908684 1_555
Ni2 O7 1.983999 1_556
Ni2 O6 2.104983 1_655
Ni2 O6 2.104983 1_545
Ni2 O1 2.116726 1_546
Ni2 O1 2.116726 1_656
Ni3 O11 1.957934 1_555
Ni3 O4 2.026515 1_655
Ni3 O4 2.026515 1_545
Ni3 O8 2.156641 1_565
Ni3 O8 2.156641 1_455
Ni3 O0 2.164749 1_555
Ni4 O4 1.908684 1_555
Ni4 O9 1.983999 1_555
Ni4 O8 2.104983 1_565
Ni4 O8 2.104983 1_455
Ni4 O0 2.116726 1_455
Ni4 O0 2.116726 1_565
Ni5 O5 1.908684 1_555
Ni5 O8 1.983999 1_555
Ni5 O9 2.104983 1_655
Ni5 O9 2.104983 1_545
Ni5 O0 2.116726 1_545
Ni5 O0 2.116726 1_655
Ni6 O11 1.957934 1_555
Ni6 O3 2.026515 1_545
Ni6 O3 2.026515 1_655
Ni6 O7 2.156641 1_565
Ni6 O7 2.156641 1_455
Ni6 O1 2.164749 1_555
Ni7 O10 1.957934 1_555
Ni7 O2 2.026515 1_455
Ni7 O2 2.026515 1_565
Ni7 O6 2.156641 1_655
Ni7 O6 2.156641 1_545
Ni7 O1 2.164749 1_556
