# generated using pymatgen
data_Li9Mn2Co5O16
_symmetry_space_group_name_H-M   'P 1'
_cell_length_a   11.34268000
_cell_length_b   5.18875200
_cell_length_c   5.19973143
_cell_angle_alpha   67.74004809
_cell_angle_beta   90.00000000
_cell_angle_gamma   90.00000000
_symmetry_Int_Tables_number   1
_chemical_formula_structural   Li9Mn2Co5O16
_chemical_formula_sum   'Li9 Mn2 Co5 O16'
_cell_volume   283.22009717
_cell_formula_units_Z   1
loop_
 _symmetry_equiv_pos_site_id
 _symmetry_equiv_pos_as_xyz
  1  'x, y, z'
loop_
 _atom_site_type_symbol
 _atom_site_label
 _atom_site_symmetry_multiplicity
 _atom_site_fract_x
 _atom_site_fract_y
 _atom_site_fract_z
 _atom_site_occupancy
  Li  Li0  1  0.12220600  0.50000000  0.00000000  1
  Li  Li1  1  0.24745600  0.50000000  0.50000000  1
  Li  Li2  1  0.37134000  0.50000000  0.00000000  1
  Li  Li3  1  0.50352000  0.50000000  0.50000000  1
  Li  Li4  1  0.63295100  0.50000000  0.00000000  1
  Li  Li5  1  0.75509800  0.50000000  0.50000000  1
  Li  Li6  1  0.87109900  0.50000000  0.00000000  1
  Li  Li7  1  0.99408700  0.50000000  0.50000000  1
  Li  Li8  1  0.87277800  0.00000000  0.50000000  1
  Mn  Mn0  1  0.99958800  0.00000000  0.00000000  1
  Mn  Mn1  1  0.50087500  0.00000000  0.00000000  1
  Co  Co0  1  0.12464400  0.00000000  0.50000000  1
  Co  Co1  1  0.25002100  0.00000000  0.00000000  1
  Co  Co2  1  0.37294200  0.00000000  0.50000000  1
  Co  Co3  1  0.63090500  0.00000000  0.50000000  1
  Co  Co4  1  0.75078100  0.00000000  0.00000000  1
  O  O0  1  0.12705800  0.23305500  0.77304100  1
  O  O1  1  0.25134200  0.22277600  0.27028100  1
  O  O2  1  0.37534400  0.23472500  0.77330700  1
  O  O3  1  0.49805000  0.20413700  0.25295500  1
  O  O4  1  0.62224100  0.23607200  0.77784000  1
  O  O5  1  0.74183900  0.22787900  0.26397000  1
  O  O6  1  0.87635500  0.23629300  0.78458000  1
  O  O7  1  0.00762500  0.21014400  0.24517300  1
  O  O8  1  0.12705800  0.76694500  0.22695900  1
  O  O9  1  0.25134200  0.77722400  0.72971900  1
  O  O10  1  0.37534400  0.76527500  0.22669300  1
  O  O11  1  0.49805000  0.79586300  0.74704500  1
  O  O12  1  0.62224100  0.76392800  0.22216000  1
  O  O13  1  0.74183900  0.77212100  0.73603000  1
  O  O14  1  0.87635500  0.76370700  0.21542000  1
  O  O15  1  0.00762500  0.78985600  0.75482700  1
loop_
_geom_bond_atom_site_label_1
_geom_bond_atom_site_label_2
_geom_bond_distance
_geom_bond_site_symmetry_2
Li0 O7 2.030685 1_555
Li0 O15 2.030685 1_554
Li0 O8 2.133698 1_555
Li0 O0 2.133698 1_554
Li0 O9 2.158275 1_554
Li0 O1 2.158275 1_555
Li1 O8 2.075886 1_555
Li1 O0 2.075886 1_555
Li1 O10 2.129891 1_555
Li1 O2 2.129891 1_555
Li1 O9 2.190795 1_555
Li1 O1 2.190795 1_555
Li2 O9 2.089318 1_554
Li2 O1 2.089318 1_555
Li2 O10 2.124928 1_555
Li2 O2 2.124928 1_554
Li2 O11 2.150018 1_554
Li2 O3 2.150018 1_555
Li3 O12 2.068094 1_555
Li3 O4 2.068094 1_555
Li3 O10 2.132117 1_555
Li3 O2 2.132117 1_555
Li3 O11 2.346213 1_555
Li3 O3 2.346213 1_555
Li4 O13 1.983621 1_554
Li4 O5 1.983621 1_555
Li4 O12 2.103120 1_555
Li4 O4 2.103120 1_554
Li4 O11 2.213204 1_554
Li4 O3 2.213204 1_555
Li5 O14 2.102281 1_555
Li5 O6 2.102281 1_555
Li5 O12 2.175903 1_555
Li5 O4 2.175903 1_555
Li5 O5 2.198953 1_555
Li5 O13 2.198953 1_555
Li6 O14 2.071641 1_555
Li6 O6 2.071641 1_554
Li6 O13 2.135166 1_554
Li6 O5 2.135166 1_555
Li6 O7 2.198329 1_655
Li6 O15 2.198329 1_654
Li7 O14 2.076344 1_555
Li7 O6 2.076344 1_555
Li7 O8 2.172360 1_655
Li7 O0 2.172360 1_655
Li7 O15 2.356075 1_655
Li7 O7 2.356075 1_655
Li8 O5 2.002680 1_555
Li8 O13 2.002680 1_545
Li8 O15 2.046826 1_645
Li8 O7 2.046826 1_655
Li8 O6 2.251450 1_555
Li8 O14 2.251450 1_545
Mn0 O6 1.916056 1_554
Mn0 O14 1.916056 1_545
Mn0 O0 1.965787 1_654
Mn0 O8 1.965787 1_645
Mn0 O7 1.968651 1_655
Mn0 O15 1.968651 1_644
Mn1 O4 1.912563 1_554
Mn1 O12 1.912563 1_545
Mn1 O2 1.952563 1_554
Mn1 O10 1.952563 1_545
Mn1 O3 1.976987 1_555
Mn1 O11 1.976987 1_544
Co0 O15 1.900472 1_545
Co0 O7 1.900472 1_555
Co0 O1 1.944768 1_555
Co0 O9 1.944768 1_545
Co0 O0 2.186194 1_555
Co0 O8 2.186194 1_545
Co1 O0 1.928498 1_554
Co1 O8 1.928498 1_545
Co1 O10 1.950843 1_545
Co1 O2 1.950843 1_554
Co1 O1 2.131265 1_555
Co1 O9 2.131265 1_544
Co2 O1 1.902437 1_555
Co2 O9 1.902437 1_545
Co2 O3 1.937767 1_555
Co2 O11 1.937767 1_545
Co2 O2 2.194309 1_555
Co2 O10 2.194309 1_545
Co3 O5 1.840706 1_555
Co3 O13 1.840706 1_545
Co3 O3 2.003011 1_555
Co3 O11 2.003011 1_545
Co3 O4 2.222145 1_555
Co3 O12 2.222145 1_545
Co4 O6 1.935512 1_554
Co4 O14 1.935512 1_545
Co4 O4 1.971942 1_554
Co4 O12 1.971942 1_545
Co4 O13 2.126477 1_544
Co4 O5 2.126477 1_555
