# generated using pymatgen
data_Ho2O3
_symmetry_space_group_name_H-M   'P 1'
_cell_length_a   3.76526500
_cell_length_b   3.76526500
_cell_length_c   5.52315600
_cell_angle_alpha   90.00000000
_cell_angle_beta   90.00000000
_cell_angle_gamma   90.00000000
_symmetry_Int_Tables_number   1
_chemical_formula_structural   Ho2O3
_chemical_formula_sum   'Ho2 O3'
_cell_volume   78.30300058
_cell_formula_units_Z   1
loop_
 _symmetry_equiv_pos_site_id
 _symmetry_equiv_pos_as_xyz
  1  'x, y, z'
loop_
 _atom_site_type_symbol
 _atom_site_label
 _atom_site_symmetry_multiplicity
 _atom_site_fract_x
 _atom_site_fract_y
 _atom_site_fract_z
 _atom_site_occupancy
  Ho  Ho0  1  0.50000000  0.00000000  0.78912700  1
  Ho  Ho1  1  0.00000000  0.50000000  0.21087300  1
  O  O0  1  0.00000000  0.00000000  0.00000000  1
  O  O1  1  0.50000000  0.50000000  0.00000000  1
  O  O2  1  0.00000000  0.00000000  0.50000000  1
loop_
_geom_bond_atom_site_label_1
_geom_bond_atom_site_label_2
_geom_bond_distance
_geom_bond_site_symmetry_2
Ho0 O0 2.213774 1_656
Ho0 O1 2.213774 1_556
Ho0 O1 2.213774 1_546
Ho0 O0 2.213774 1_556
Ho0 O2 2.468679 1_655
Ho0 O2 2.468679 1_555
Ho1 O0 2.213774 1_555
Ho1 O0 2.213774 1_565
Ho1 O1 2.213774 1_455
Ho1 O1 2.213774 1_555
Ho1 O2 2.468679 1_565
Ho1 O2 2.468679 1_555
