# generated using pymatgen
data_Sm3GaCoS7
_symmetry_space_group_name_H-M   'P 1'
_cell_length_a   9.76203895
_cell_length_b   9.76203895
_cell_length_c   6.14373300
_cell_angle_alpha   90.00000000
_cell_angle_beta   90.00000000
_cell_angle_gamma   120.00000645
_symmetry_Int_Tables_number   1
_chemical_formula_structural   Sm3GaCoS7
_chemical_formula_sum   'Sm6 Ga2 Co2 S14'
_cell_volume   507.04208695
_cell_formula_units_Z   2
loop_
 _symmetry_equiv_pos_site_id
 _symmetry_equiv_pos_as_xyz
  1  'x, y, z'
loop_
 _atom_site_type_symbol
 _atom_site_label
 _atom_site_symmetry_multiplicity
 _atom_site_fract_x
 _atom_site_fract_y
 _atom_site_fract_z
 _atom_site_occupancy
  Sm  Sm0  1  0.15233200  0.37284700  0.82134200  1
  Sm  Sm1  1  0.22051500  0.84766800  0.82134200  1
  Sm  Sm2  1  0.62715300  0.77948500  0.82134200  1
  Sm  Sm3  1  0.84766800  0.62715300  0.32134200  1
  Sm  Sm4  1  0.77948500  0.15233200  0.32134200  1
  Sm  Sm5  1  0.37284700  0.22051500  0.32134200  1
  Ga  Ga0  1  0.66666700  0.33333300  0.89520500  1
  Ga  Ga1  1  0.33333300  0.66666700  0.39520500  1
  Co  Co0  1  0.00000000  0.00000000  0.50110800  1
  Co  Co1  1  0.00000000  0.00000000  0.00110800  1
  S  S0  1  0.43082500  0.51922300  0.54704000  1
  S  S1  1  0.08839800  0.56917500  0.54704000  1
  S  S2  1  0.48077700  0.91160200  0.54704000  1
  S  S3  1  0.56917500  0.48077700  0.04704000  1
  S  S4  1  0.91160200  0.43082500  0.04704000  1
  S  S5  1  0.51922300  0.08839800  0.04704000  1
  S  S6  1  0.66666700  0.33333300  0.52876100  1
  S  S7  1  0.33333300  0.66666700  0.02876100  1
  S  S8  1  0.87161200  0.09172200  0.74358100  1
  S  S9  1  0.22011000  0.12838800  0.74358100  1
  S  S10  1  0.90827800  0.77989000  0.74358100  1
  S  S11  1  0.12838800  0.90827800  0.24358100  1
  S  S12  1  0.77989000  0.87161200  0.24358100  1
  S  S13  1  0.09172200  0.22011000  0.24358100  1
loop_
_geom_bond_atom_site_label_1
_geom_bond_atom_site_label_2
_geom_bond_distance
_geom_bond_site_symmetry_2
Ga0 S6 2.251334 1_555
Ga0 S4 2.284188 1_556
Ga0 S5 2.284189 1_556
Ga0 S3 2.284197 1_556
Ga1 S7 2.251334 1_555
Ga1 S1 2.284188 1_555
Ga1 S2 2.284189 1_555
Ga1 S0 2.284197 1_555
Co0 S9 2.390389 1_555
Co0 S10 2.390389 1_445
Co0 S8 2.390389 1_455
Co0 S12 2.449096 1_445
Co0 S13 2.449096 1_555
Co0 S11 2.449096 1_545
Co1 S12 2.390389 1_445
Co1 S13 2.390389 1_555
Co1 S11 2.390389 1_545
Co1 S9 2.449096 1_554
Co1 S10 2.449096 1_444
Co1 S8 2.449096 1_454
S0 Sm2 2.845865 1_555
S0 Sm0 2.896240 1_555
S0 Sm5 3.015911 1_555
S1 Sm0 2.845865 1_555
S1 Sm1 2.896240 1_555
S1 Sm3 3.015911 1_455
S2 Sm1 2.845865 1_555
S2 Sm2 2.896240 1_555
S2 Sm4 3.015911 1_565
S3 Sm5 2.845865 1_555
S3 Sm3 2.896240 1_555
S3 Sm2 3.015911 1_554
S4 Sm3 2.845865 1_555
S4 Sm4 2.896240 1_555
S4 Sm0 3.015911 1_654
S5 Sm4 2.845865 1_555
S5 Sm5 2.896240 1_555
S5 Sm1 3.015911 1_544
S6 Sm4 2.811567 1_555
S6 Sm3 2.811573 1_555
S6 Sm5 2.811575 1_555
S7 Sm1 2.811567 1_554
S7 Sm0 2.811573 1_554
S7 Sm2 2.811575 1_554
S8 Sm0 2.783680 1_655
S8 Sm2 2.817799 1_545
S8 Sm4 2.901811 1_555
S9 Sm1 2.783681 1_545
S9 Sm0 2.817799 1_555
S9 Sm5 2.901811 1_555
S10 Sm2 2.783681 1_555
S10 Sm1 2.817799 1_655
S10 Sm3 2.901811 1_555
S11 Sm3 2.783680 1_455
S11 Sm5 2.817799 1_565
S11 Sm1 2.901811 1_554
S12 Sm4 2.783681 1_565
S12 Sm3 2.817799 1_555
S12 Sm2 2.901811 1_554
S13 Sm5 2.783681 1_555
S13 Sm4 2.817799 1_455
S13 Sm0 2.901811 1_554
