# generated using pymatgen
data_Mn5P3ClO12
_symmetry_space_group_name_H-M   'P 1'
_cell_length_a   9.66398344
_cell_length_b   9.66398344
_cell_length_c   6.28160900
_cell_angle_alpha   90.00000000
_cell_angle_beta   90.00000000
_cell_angle_gamma   119.99999617
_symmetry_Int_Tables_number   1
_chemical_formula_structural   Mn5P3ClO12
_chemical_formula_sum   'Mn10 P6 Cl2 O24'
_cell_volume   508.05871194
_cell_formula_units_Z   2
loop_
 _symmetry_equiv_pos_site_id
 _symmetry_equiv_pos_as_xyz
  1  'x, y, z'
loop_
 _atom_site_type_symbol
 _atom_site_label
 _atom_site_symmetry_multiplicity
 _atom_site_fract_x
 _atom_site_fract_y
 _atom_site_fract_z
 _atom_site_occupancy
  Mn  Mn0  1  0.33333300  0.66666700  0.00601100  1
  Mn  Mn1  1  0.66666700  0.33333300  0.99398900  1
  Mn  Mn2  1  0.66666700  0.33333300  0.50601100  1
  Mn  Mn3  1  0.33333300  0.66666700  0.49398900  1
  Mn  Mn4  1  0.27787900  0.24287700  0.25000000  1
  Mn  Mn5  1  0.72212100  0.75712300  0.75000000  1
  Mn  Mn6  1  0.75712300  0.03500200  0.25000000  1
  Mn  Mn7  1  0.24287700  0.96499800  0.75000000  1
  Mn  Mn8  1  0.96499800  0.72212100  0.25000000  1
  Mn  Mn9  1  0.03500200  0.27787900  0.75000000  1
  P  P0  1  0.40653400  0.02589000  0.25000000  1
  P  P1  1  0.59346600  0.97411000  0.75000000  1
  P  P2  1  0.97411000  0.38064400  0.25000000  1
  P  P3  1  0.02589000  0.61935600  0.75000000  1
  P  P4  1  0.61935600  0.59346600  0.25000000  1
  P  P5  1  0.38064400  0.40653400  0.75000000  1
  Cl  Cl0  1  0.00000000  0.00000000  0.25000000  1
  Cl  Cl1  1  0.00000000  0.00000000  0.75000000  1
  O  O0  1  0.34381300  0.07477100  0.05254600  1
  O  O1  1  0.65618700  0.92522900  0.94745400  1
  O  O2  1  0.92522900  0.26904200  0.05254600  1
  O  O3  1  0.65618700  0.92522900  0.55254600  1
  O  O4  1  0.07477100  0.73095800  0.94745400  1
  O  O5  1  0.34381300  0.07477100  0.44745400  1
  O  O6  1  0.73095800  0.65618700  0.05254600  1
  O  O7  1  0.07477100  0.73095800  0.55254600  1
  O  O8  1  0.26904200  0.34381300  0.94745400  1
  O  O9  1  0.92522900  0.26904200  0.44745400  1
  O  O10  1  0.26904200  0.34381300  0.55254600  1
  O  O11  1  0.73095800  0.65618700  0.44745400  1
  O  O12  1  0.59496700  0.13741400  0.25000000  1
  O  O13  1  0.40503300  0.86258600  0.75000000  1
  O  O14  1  0.86258600  0.45755300  0.25000000  1
  O  O15  1  0.13741400  0.54244700  0.75000000  1
  O  O16  1  0.54244700  0.40503300  0.25000000  1
  O  O17  1  0.45755300  0.59496700  0.75000000  1
  O  O18  1  0.15155700  0.51209000  0.25000000  1
  O  O19  1  0.84844300  0.48791000  0.75000000  1
  O  O20  1  0.48791000  0.63946700  0.25000000  1
  O  O21  1  0.51209000  0.36053300  0.75000000  1
  O  O22  1  0.36053300  0.84844300  0.25000000  1
  O  O23  1  0.63946700  0.15155700  0.75000000  1
loop_
_geom_bond_atom_site_label_1
_geom_bond_atom_site_label_2
_geom_bond_distance
_geom_bond_site_symmetry_2
Mn0 O22 2.245497 1_555
Mn0 O18 2.245499 1_555
Mn0 O20 2.245504 1_555
Mn0 O13 2.310668 1_554
Mn0 O15 2.310669 1_554
Mn0 O17 2.310674 1_554
Mn1 O23 2.245497 1_555
Mn1 O19 2.245499 1_555
Mn1 O21 2.245504 1_555
Mn1 O12 2.310668 1_556
Mn1 O14 2.310669 1_556
Mn1 O16 2.310674 1_556
Mn2 O23 2.245497 1_555
Mn2 O19 2.245499 1_555
Mn2 O21 2.245504 1_555
Mn2 O12 2.310668 1_555
Mn2 O14 2.310669 1_555
Mn2 O16 2.310674 1_555
Mn3 O22 2.245497 1_555
Mn3 O18 2.245499 1_555
Mn3 O20 2.245504 1_555
Mn3 O13 2.310668 1_555
Mn3 O15 2.310669 1_555
Mn3 O17 2.310674 1_555
Mn4 O10 2.157289 1_555
Mn4 O8 2.157289 1_554
Mn4 O16 2.232976 1_555
Mn4 O5 2.370404 1_555
Mn4 O0 2.370404 1_555
Mn5 O6 2.157289 1_556
Mn5 O11 2.157289 1_555
Mn5 O17 2.232976 1_555
Mn5 O1 2.370404 1_555
Mn5 O3 2.370404 1_555
Mn6 O3 2.157289 1_545
Mn6 O1 2.157289 1_544
Mn6 O12 2.232976 1_555
Mn6 O9 2.370404 1_555
Mn6 O2 2.370404 1_555
Mn7 O0 2.157289 1_566
Mn7 O5 2.157289 1_565
Mn7 O13 2.232976 1_555
Mn7 O4 2.370404 1_555
Mn7 O7 2.370404 1_555
Mn8 O7 2.157289 1_655
Mn8 O4 2.157289 1_654
Mn8 O14 2.232976 1_555
Mn8 O11 2.370404 1_555
Mn8 O6 2.370404 1_555
Mn9 O2 2.157289 1_456
Mn9 O9 2.157289 1_455
Mn9 O15 2.232976 1_555
Mn9 O8 2.370404 1_555
Mn9 O10 2.370404 1_555
Cl0 Mn6 2.533283 1_455
Cl0 Mn8 2.533283 1_445
Cl0 Mn4 2.533283 1_555
Cl1 Mn7 2.533283 1_545
Cl1 Mn9 2.533283 1_555
Cl1 Mn5 2.533283 1_445
O0 P0 1.554121 1_555
O1 P1 1.554121 1_555
O2 P2 1.554121 1_555
O3 P1 1.554121 1_555
O4 P3 1.554121 1_555
O5 P0 1.554121 1_555
O6 P4 1.554121 1_555
O7 P3 1.554121 1_555
O8 P5 1.554121 1_555
O9 P2 1.554121 1_555
O10 P5 1.554121 1_555
O11 P4 1.554121 1_555
O12 P0 1.585889 1_555
O13 P1 1.585889 1_555
O14 P2 1.585889 1_555
O15 P3 1.585889 1_555
O16 P4 1.585889 1_555
O17 P5 1.585889 1_555
O18 P2 1.541422 1_455
O19 P3 1.541422 1_655
O20 P4 1.541422 1_555
O21 P5 1.541422 1_555
O22 P0 1.541422 1_565
O23 P1 1.541422 1_545
