# generated using pymatgen
data_K2Ti(Si2O5)3
_symmetry_space_group_name_H-M   'P 1'
_cell_length_a   7.25070031
_cell_length_b   7.25070031
_cell_length_c   15.15851915
_cell_angle_alpha   75.76229833
_cell_angle_beta   75.76229833
_cell_angle_gamma   59.89458750
_symmetry_Int_Tables_number   1
_chemical_formula_structural   K2Ti(Si2O5)3
_chemical_formula_sum   'K4 Ti2 Si12 O30'
_cell_volume   661.06654252
_cell_formula_units_Z   2
loop_
 _symmetry_equiv_pos_site_id
 _symmetry_equiv_pos_as_xyz
  1  'x, y, z'
loop_
 _atom_site_type_symbol
 _atom_site_label
 _atom_site_symmetry_multiplicity
 _atom_site_fract_x
 _atom_site_fract_y
 _atom_site_fract_z
 _atom_site_occupancy
  K  K0  1  0.82128312  0.69182439  0.51811216  1
  K  K1  1  0.69182439  0.82128312  0.01811216  1
  K  K2  1  0.47228883  0.11271974  0.70621015  1
  K  K3  1  0.11271974  0.47228883  0.20621015  1
  Ti  Ti0  1  0.29951826  0.79566962  0.63339151  1
  Ti  Ti1  1  0.79566962  0.29951826  0.13339151  1
  Si  Si0  1  0.49690838  0.46490713  0.47201594  1
  Si  Si1  1  0.46490713  0.49690838  0.97201594  1
  Si  Si2  1  0.58930928  0.03575898  0.28770882  1
  Si  Si3  1  0.03575898  0.58930928  0.78770882  1
  Si  Si4  1  0.29806237  0.20033224  0.47662333  1
  Si  Si5  1  0.20033224  0.29806237  0.97662333  1
  Si  Si6  1  0.49637039  0.67707519  0.26769427  1
  Si  Si7  1  0.67707519  0.49637039  0.76769427  1
  Si  Si8  1  0.09170545  0.95406011  0.98968396  1
  Si  Si9  1  0.95406011  0.09170545  0.48968396  1
  Si  Si10  1  0.02333766  0.93741794  0.30030797  1
  Si  Si11  1  0.93741794  0.02333766  0.80030797  1
  O  O0  1  0.02377991  0.37413554  0.06446745  1
  O  O1  1  0.37413554  0.02377991  0.56446745  1
  O  O2  1  0.66403472  0.57266283  0.18188842  1
  O  O3  1  0.57266283  0.66403472  0.68188842  1
  O  O4  1  0.97163548  0.15867390  0.23347980  1
  O  O5  1  0.15867390  0.97163548  0.73347980  1
  O  O6  1  0.63840940  0.45686914  0.03039745  1
  O  O7  1  0.45686914  0.63840940  0.53039745  1
  O  O8  1  0.69274121  0.22978568  0.50582856  1
  O  O9  1  0.22978568  0.69274121  0.00582856  1
  O  O10  1  0.57236434  0.23212224  0.20791418  1
  O  O11  1  0.23212224  0.57236434  0.70791418  1
  O  O12  1  0.83890772  0.86399208  0.30508865  1
  O  O13  1  0.86399208  0.83890772  0.80508865  1
  O  O14  1  0.28590431  0.42629119  0.48632098  1
  O  O15  1  0.42629119  0.28590431  0.98632098  1
  O  O16  1  0.46217370  0.12168596  0.38447922  1
  O  O17  1  0.12168596  0.46217370  0.88447922  1
  O  O18  1  0.92882082  0.03140827  0.08112408  1
  O  O19  1  0.03140827  0.92882082  0.58112408  1
  O  O20  1  0.73089677  0.24844533  0.76712657  1
  O  O21  1  0.24844533  0.73089677  0.26712657  1
  O  O22  1  0.52731343  0.57143338  0.86400787  1
  O  O23  1  0.57143338  0.52731343  0.36400787  1
  O  O24  1  0.95503782  0.02593639  0.90531155  1
  O  O25  1  0.02593639  0.95503782  0.40531155  1
  O  O26  1  0.05519241  0.26073631  0.46251671  1
  O  O27  1  0.26073631  0.05519241  0.96251671  1
  O  O28  1  0.91055988  0.48089779  0.76379739  1
  O  O29  1  0.48089779  0.91055988  0.26379739  1
loop_
_geom_bond_atom_site_label_1
_geom_bond_atom_site_label_2
_geom_bond_distance
_geom_bond_site_symmetry_2
K0 O3 2.714869 1_555
K0 O7 2.813410 1_555
K0 O14 2.905026 1_655
K0 O26 2.937887 1_655
K0 O1 2.946411 1_565
K0 O25 2.958996 1_655
K0 O12 3.158501 1_555
K0 O19 3.214967 1_655
K1 O2 2.714869 1_555
K1 O6 2.813410 1_555
K1 O15 2.905026 1_564
K1 O27 2.937887 1_564
K1 O0 2.946411 1_655
K1 O24 2.958996 1_564
K1 O13 3.158501 1_554
K1 O18 3.214967 1_565
K2 O1 2.726353 1_555
K2 O5 2.837473 1_545
K2 O11 2.887633 1_555
K2 O20 2.913235 1_555
K2 O13 3.037773 1_545
K2 O3 3.054866 1_545
K2 O8 3.194751 1_555
K3 O0 2.726353 1_555
K3 O4 2.837473 1_455
K3 O10 2.887633 1_555
K3 O21 2.913235 1_555
K3 O12 3.037773 1_455
K3 O2 3.054866 1_455
K3 O9 3.194751 1_555
O0 Si5 1.590772 1_554
O0 Ti1 1.972184 1_455
O1 Si4 1.590772 1_555
O1 Ti0 1.972184 1_545
O2 Si6 1.589377 1_555
O2 Ti1 1.961753 1_555
O3 Si7 1.589377 1_555
O3 Ti0 1.961753 1_555
O4 Si10 1.588860 1_645
O4 Ti1 1.963559 1_555
O5 Si11 1.588860 1_465
O5 Ti0 1.963559 1_555
O6 Si1 1.582698 1_554
O6 Ti1 1.932285 1_555
O7 Si0 1.582698 1_555
O7 Ti0 1.932285 1_555
O8 Si9 1.625338 1_555
O8 Si0 1.638600 1_555
O9 Si8 1.625338 1_554
O9 Si1 1.638600 1_554
O10 Si2 1.598681 1_555
O10 Ti1 1.938806 1_555
O11 Si3 1.598681 1_555
O11 Ti0 1.938806 1_555
O12 Si2 1.645529 1_565
O12 Si10 1.650598 1_655
O13 Si3 1.645529 1_655
O13 Si11 1.650598 1_565
O14 Si4 1.637318 1_555
O14 Si0 1.644012 1_555
O15 Si5 1.637318 1_555
O15 Si1 1.644012 1_555
O16 Si4 1.607977 1_555
O16 Si2 1.611819 1_555
O17 Si5 1.607977 1_555
O17 Si3 1.611819 1_555
O18 Si8 1.594772 1_644
O18 Ti1 1.958946 1_555
O19 Si9 1.594772 1_465
O19 Ti0 1.958946 1_555
O20 Si11 1.635268 1_555
O20 Si7 1.638917 1_555
O21 Si10 1.635268 1_555
O21 Si6 1.638917 1_555
O22 Si1 1.619567 1_555
O22 Si7 1.620192 1_555
O23 Si0 1.619567 1_555
O23 Si6 1.620192 1_555
O24 Si8 1.633023 1_645
O24 Si11 1.633210 1_555
O25 Si9 1.633023 1_465
O25 Si10 1.633210 1_555
O26 Si4 1.644393 1_555
O26 Si9 1.647461 1_455
O27 Si5 1.644393 1_555
O27 Si8 1.647461 1_545
O28 Si3 1.609712 1_655
O28 Si7 1.626536 1_555
O29 Si2 1.609712 1_565
O29 Si6 1.626536 1_555
