# generated using pymatgen
data_Ba4La2SbRuO12
_symmetry_space_group_name_H-M   'P 1'
_cell_length_a   6.11434400
_cell_length_b   6.13690949
_cell_length_c   10.61684525
_cell_angle_alpha   90.41675196
_cell_angle_beta   106.48357703
_cell_angle_gamma   119.49012290
_symmetry_Int_Tables_number   1
_chemical_formula_structural   Ba4La2SbRuO12
_chemical_formula_sum   'Ba4 La2 Sb1 Ru1 O12'
_cell_volume   327.31848548
_cell_formula_units_Z   1
loop_
 _symmetry_equiv_pos_site_id
 _symmetry_equiv_pos_as_xyz
  1  'x, y, z'
loop_
 _atom_site_type_symbol
 _atom_site_label
 _atom_site_symmetry_multiplicity
 _atom_site_fract_x
 _atom_site_fract_y
 _atom_site_fract_z
 _atom_site_occupancy
  Ba  Ba0  1  0.24606000  0.12758000  0.87090100  1
  Ba  Ba1  1  0.25140300  0.62978100  0.37900600  1
  Ba  Ba2  1  0.74859700  0.37021900  0.62099400  1
  Ba  Ba3  1  0.75394000  0.87242000  0.12909900  1
  La  La0  1  0.49978000  0.75007600  0.74948000  1
  La  La1  1  0.50022000  0.24992400  0.25052000  1
  Sb  Sb0  1  0.00000000  0.50000000  0.00000000  1
  Ru  Ru0  1  0.00000000  0.00000000  0.50000000  1
  O  O0  1  0.81206600  0.90469000  0.63334900  1
  O  O1  1  0.81485600  0.40638000  0.13768900  1
  O  O2  1  0.18514400  0.59362000  0.86231100  1
  O  O3  1  0.18793400  0.09531000  0.36665100  1
  O  O4  1  0.76919600  0.13684100  0.90195500  1
  O  O5  1  0.77206000  0.64246800  0.40236000  1
  O  O6  1  0.22794000  0.35753200  0.59764000  1
  O  O7  1  0.23080400  0.86315900  0.09804500  1
  O  O8  1  0.26693800  0.92142000  0.60938700  1
  O  O9  1  0.27224800  0.42248600  0.11116900  1
  O  O10  1  0.72775200  0.57751400  0.88883100  1
  O  O11  1  0.73306200  0.07858000  0.39061300  1
loop_
_geom_bond_atom_site_label_1
_geom_bond_atom_site_label_2
_geom_bond_distance
_geom_bond_site_symmetry_2
Ba0 O0 2.802076 1_445
Ba0 O10 2.828842 1_555
Ba0 O7 2.914290 1_546
Ba0 O9 3.037075 1_556
Ba0 O4 3.053145 1_455
Ba0 O2 3.059447 1_555
Ba0 O4 3.092811 1_555
Ba0 O8 3.103986 1_545
Ba0 O2 3.107992 1_545
Ba0 O6 3.232896 1_555
Ba0 O10 3.360643 1_445
Ba0 O1 3.395038 1_556
Ba1 O1 2.834337 1_455
Ba1 O11 2.842069 1_565
Ba1 O6 2.865211 1_555
Ba1 O8 2.971850 1_555
Ba1 O5 3.048655 1_455
Ba1 O3 3.065592 1_565
Ba1 O5 3.083799 1_555
Ba1 O3 3.104490 1_555
Ba1 O9 3.167532 1_555
Ba1 O0 3.297917 1_555
Ba1 O7 3.315339 1_555
Ba1 O11 3.342876 1_455
Ba2 O2 2.834337 1_655
Ba2 O8 2.842069 1_545
Ba2 O5 2.865211 1_555
Ba2 O11 2.971850 1_555
Ba2 O6 3.048655 1_655
Ba2 O0 3.065592 1_545
Ba2 O6 3.083799 1_555
Ba2 O0 3.104490 1_555
Ba2 O10 3.167532 1_555
Ba2 O3 3.297917 1_555
Ba2 O4 3.315339 1_555
Ba2 O8 3.342876 1_655
Ba3 O3 2.802076 1_665
Ba3 O9 2.828842 1_555
Ba3 O4 2.914290 1_564
Ba3 O10 3.037075 1_554
Ba3 O7 3.053145 1_655
Ba3 O1 3.059447 1_555
Ba3 O7 3.092811 1_555
Ba3 O11 3.103986 1_565
Ba3 O1 3.107992 1_565
Ba3 O5 3.232896 1_555
Ba3 O9 3.360643 1_665
Ba3 O2 3.395038 1_554
La0 O4 2.355661 1_565
La0 O10 2.357774 1_555
La0 O2 2.358766 1_555
La0 O0 2.373942 1_555
La0 O8 2.374817 1_555
La0 O6 2.376024 1_555
La1 O7 2.355661 1_545
La1 O9 2.357774 1_555
La1 O1 2.358766 1_555
La1 O3 2.373942 1_555
La1 O11 2.374817 1_555
La1 O5 2.376024 1_555
O0 Ru0 1.985039 1_665
O1 Sb0 2.014815 1_655
O2 Sb0 2.014815 1_556
O3 Ru0 1.985039 1_555
O4 Sb0 2.019443 1_656
O5 Ru0 1.991879 1_665
O6 Ru0 1.991879 1_555
O7 Sb0 2.019443 1_555
O8 Ru0 1.988117 1_565
O9 Sb0 2.015719 1_555
O10 Sb0 2.015719 1_656
O11 Ru0 1.988117 1_655
