# generated using pymatgen
data_BaV2SeO8
_symmetry_space_group_name_H-M   'P 1'
_cell_length_a   5.46162900
_cell_length_b   9.23576000
_cell_length_c   14.19203000
_cell_angle_alpha   90.00000000
_cell_angle_beta   90.00000000
_cell_angle_gamma   90.00000000
_symmetry_Int_Tables_number   1
_chemical_formula_structural   BaV2SeO8
_chemical_formula_sum   'Ba4 V8 Se4 O32'
_cell_volume   715.87855898
_cell_formula_units_Z   4
loop_
 _symmetry_equiv_pos_site_id
 _symmetry_equiv_pos_as_xyz
  1  'x, y, z'
loop_
 _atom_site_type_symbol
 _atom_site_label
 _atom_site_symmetry_multiplicity
 _atom_site_fract_x
 _atom_site_fract_y
 _atom_site_fract_z
 _atom_site_occupancy
  Ba  Ba0  1  0.25000000  0.30404000  0.57706200  1
  Ba  Ba1  1  0.25000000  0.19596000  0.07706200  1
  Ba  Ba2  1  0.75000000  0.69596000  0.42293800  1
  Ba  Ba3  1  0.75000000  0.80404000  0.92293800  1
  V  V0  1  0.25000000  0.06802500  0.78630500  1
  V  V1  1  0.25000000  0.43197500  0.28630500  1
  V  V2  1  0.75000000  0.93197500  0.21369500  1
  V  V3  1  0.75000000  0.56802500  0.71369500  1
  V  V4  1  0.25000000  0.47534500  0.84009500  1
  V  V5  1  0.25000000  0.02465500  0.34009500  1
  V  V6  1  0.75000000  0.52465500  0.15990500  1
  V  V7  1  0.75000000  0.97534500  0.65990500  1
  Se  Se0  1  0.25000000  0.72103800  0.60184300  1
  Se  Se1  1  0.25000000  0.77896200  0.10184300  1
  Se  Se2  1  0.75000000  0.27896200  0.39815700  1
  Se  Se3  1  0.75000000  0.22103800  0.89815700  1
  O  O0  1  0.25000000  0.89366400  0.80200000  1
  O  O1  1  0.25000000  0.60633600  0.30200000  1
  O  O2  1  0.75000000  0.10633600  0.19800000  1
  O  O3  1  0.75000000  0.39366400  0.69800000  1
  O  O4  1  0.48709600  0.08498000  0.69184500  1
  O  O5  1  0.01290400  0.41502000  0.19184500  1
  O  O6  1  0.98709600  0.91502000  0.30815500  1
  O  O7  1  0.51290400  0.58498000  0.80815500  1
  O  O8  1  0.51290400  0.91502000  0.30815500  1
  O  O9  1  0.98709600  0.58498000  0.80815500  1
  O  O10  1  0.01290400  0.08498000  0.69184500  1
  O  O11  1  0.48709600  0.41502000  0.19184500  1
  O  O12  1  0.50275600  0.09643000  0.88877200  1
  O  O13  1  0.99724400  0.40357000  0.38877200  1
  O  O14  1  0.00275600  0.90357000  0.11122800  1
  O  O15  1  0.49724400  0.59643000  0.61122800  1
  O  O16  1  0.49724400  0.90357000  0.11122800  1
  O  O17  1  0.00275600  0.59643000  0.61122800  1
  O  O18  1  0.99724400  0.09643000  0.88877200  1
  O  O19  1  0.50275600  0.40357000  0.38877200  1
  O  O20  1  0.25000000  0.31873400  0.77556300  1
  O  O21  1  0.25000000  0.18126600  0.27556300  1
  O  O22  1  0.75000000  0.68126600  0.22443700  1
  O  O23  1  0.75000000  0.81873400  0.72443700  1
  O  O24  1  0.25000000  0.42625400  0.95318100  1
  O  O25  1  0.25000000  0.07374600  0.45318100  1
  O  O26  1  0.75000000  0.57374600  0.04681900  1
  O  O27  1  0.75000000  0.92625400  0.54681900  1
  O  O28  1  0.25000000  0.76350500  0.98408600  1
  O  O29  1  0.25000000  0.73649500  0.48408600  1
  O  O30  1  0.75000000  0.23649500  0.01591400  1
  O  O31  1  0.75000000  0.26350500  0.51591400  1
loop_
_geom_bond_atom_site_label_1
_geom_bond_atom_site_label_2
_geom_bond_distance
_geom_bond_site_symmetry_2
Ba0 O25 2.759505 1_555
Ba0 O20 2.820399 1_555
Ba0 O31 2.889741 1_455
Ba0 O31 2.889741 1_555
Ba0 O10 2.902375 1_555
Ba0 O4 2.902375 1_555
Ba0 O15 3.057935 1_555
Ba0 O17 3.057935 1_555
Ba0 O19 3.145061 1_555
Ba0 O13 3.145061 1_455
Ba0 O3 3.329923 1_455
Ba0 O3 3.329923 1_555
Ba1 O24 2.759505 1_554
Ba1 O21 2.820399 1_555
Ba1 O30 2.889741 1_455
Ba1 O30 2.889741 1_555
Ba1 O11 2.902375 1_555
Ba1 O5 2.902375 1_555
Ba1 O14 3.057935 1_545
Ba1 O16 3.057935 1_545
Ba1 O18 3.145061 1_454
Ba1 O12 3.145061 1_554
Ba1 O2 3.329923 1_455
Ba1 O2 3.329923 1_555
Ba2 O27 2.759505 1_555
Ba2 O22 2.820399 1_555
Ba2 O29 2.889741 1_555
Ba2 O29 2.889741 1_655
Ba2 O8 2.902375 1_555
Ba2 O6 2.902375 1_555
Ba2 O19 3.057935 1_555
Ba2 O13 3.057935 1_555
Ba2 O15 3.145061 1_555
Ba2 O17 3.145061 1_655
Ba2 O1 3.329923 1_555
Ba2 O1 3.329923 1_655
Ba3 O26 2.759505 1_556
Ba3 O23 2.820399 1_555
Ba3 O28 2.889741 1_655
Ba3 O28 2.889741 1_555
Ba3 O7 2.902375 1_555
Ba3 O9 2.902375 1_555
Ba3 O18 3.057935 1_565
Ba3 O12 3.057935 1_565
Ba3 O14 3.145061 1_656
Ba3 O16 3.145061 1_556
Ba3 O0 3.329923 1_555
Ba3 O0 3.329923 1_655
O0 V0 1.625688 1_565
O1 V1 1.625688 1_555
O2 V2 1.625688 1_545
O3 V3 1.625688 1_555
O4 V7 1.814531 1_545
O4 V0 1.870433 1_555
O5 V6 1.814531 1_455
O5 V1 1.870433 1_555
O6 V5 1.814531 1_665
O6 V2 1.870433 1_555
O7 V4 1.814531 1_555
O7 V3 1.870433 1_555
O8 V5 1.814531 1_565
O8 V2 1.870433 1_555
O9 V4 1.814531 1_655
O9 V3 1.870433 1_555
O10 V7 1.814531 1_445
O10 V0 1.870433 1_555
O11 V6 1.814531 1_555
O11 V1 1.870433 1_555
O12 Se3 1.779228 1_555
O12 V0 2.022185 1_555
O13 Se2 1.779228 1_555
O13 V1 2.022185 1_655
O14 Se1 1.779228 1_555
O14 V2 2.022185 1_455
O15 Se0 1.779228 1_555
O15 V3 2.022185 1_555
O16 Se1 1.779228 1_555
O16 V2 2.022185 1_555
O17 Se0 1.779228 1_555
O17 V3 2.022185 1_455
O18 Se3 1.779228 1_555
O18 V0 2.022185 1_655
O19 Se2 1.779228 1_555
O19 V1 2.022185 1_555
O20 V4 1.711987 1_555
O20 V0 2.320501 1_555
O21 V5 1.711987 1_555
O21 V1 2.320501 1_555
O22 V6 1.711987 1_555
O22 V2 2.320501 1_555
O23 V7 1.711987 1_555
O23 V3 2.320501 1_555
O24 V4 1.667733 1_555
O25 V5 1.667733 1_555
O26 V6 1.667733 1_555
O27 V7 1.667733 1_555
O28 Se1 1.677297 1_556
O29 Se0 1.677297 1_555
O30 Se3 1.677297 1_554
O31 Se2 1.677297 1_555
