# generated using pymatgen
data_BaCeNbInO6
_symmetry_space_group_name_H-M   'P 1'
_cell_length_a   8.57096661
_cell_length_b   8.59825879
_cell_length_c   8.59224970
_cell_angle_alpha   90.00000000
_cell_angle_beta   90.00000000
_cell_angle_gamma   90.00000000
_symmetry_Int_Tables_number   1
_chemical_formula_structural   BaCeNbInO6
_chemical_formula_sum   'Ba4 Ce4 Nb4 In4 O24'
_cell_volume   633.20918397
_cell_formula_units_Z   4
loop_
 _symmetry_equiv_pos_site_id
 _symmetry_equiv_pos_as_xyz
  1  'x, y, z'
loop_
 _atom_site_type_symbol
 _atom_site_label
 _atom_site_symmetry_multiplicity
 _atom_site_fract_x
 _atom_site_fract_y
 _atom_site_fract_z
 _atom_site_occupancy
  Ba  Ba0  1  -0.00000000  0.00000000  -0.00000000  1
  Ba  Ba1  1  0.50000000  0.50000000  0.50000000  1
  Ba  Ba2  1  0.50000000  0.00000000  0.50000000  1
  Ba  Ba3  1  0.00000000  0.50000000  -0.00000000  1
  Ce  Ce0  1  0.75000000  0.75000000  0.75000000  1
  Ce  Ce1  1  0.25000000  0.25000000  0.75000000  1
  Ce  Ce2  1  0.25000000  0.75000000  0.25000000  1
  Ce  Ce3  1  0.75000000  0.25000000  0.25000000  1
  Nb  Nb0  1  0.25000000  0.25000000  0.25000000  1
  Nb  Nb1  1  0.75000000  0.75000000  0.25000000  1
  Nb  Nb2  1  0.75000000  0.25000000  0.75000000  1
  Nb  Nb3  1  0.25000000  0.75000000  0.75000000  1
  In  In0  1  0.00000000  0.50000000  0.50000000  1
  In  In1  1  0.50000000  0.50000000  -0.00000000  1
  In  In2  1  0.50000000  0.00000000  -0.00000000  1
  In  In3  1  -0.00000000  0.00000000  0.50000000  1
  O  O0  1  0.01400408  0.23259800  0.25037174  1
  O  O1  1  0.98599592  0.76740200  0.25037174  1
  O  O2  1  0.98599592  0.23259800  0.74962826  1
  O  O3  1  0.01400408  0.76740200  0.74962826  1
  O  O4  1  0.26704551  0.01445739  0.24789673  1
  O  O5  1  0.26704551  0.98554261  0.75210327  1
  O  O6  1  0.73295449  0.98554261  0.24789673  1
  O  O7  1  0.73295449  0.01445739  0.75210327  1
  O  O8  1  0.23077049  0.25088330  0.01332262  1
  O  O9  1  0.76922951  0.25088330  0.98667738  1
  O  O10  1  0.23077049  0.74911670  0.98667738  1
  O  O11  1  0.76922951  0.74911670  0.01332262  1
  O  O12  1  0.48599592  0.26740200  0.24962826  1
  O  O13  1  0.51400408  0.73259800  0.24962826  1
  O  O14  1  0.51400408  0.26740200  0.75037174  1
  O  O15  1  0.48599592  0.73259800  0.75037174  1
  O  O16  1  0.23295449  0.48554261  0.25210327  1
  O  O17  1  0.23295449  0.51445739  0.74789673  1
  O  O18  1  0.76704551  0.51445739  0.25210327  1
  O  O19  1  0.76704551  0.48554261  0.74789673  1
  O  O20  1  0.26922951  0.24911670  0.48667738  1
  O  O21  1  0.73077049  0.24911670  0.51332262  1
  O  O22  1  0.26922951  0.75088330  0.51332262  1
  O  O23  1  0.73077049  0.75088330  0.48667738  1
loop_
_geom_bond_atom_site_label_1
_geom_bond_atom_site_label_2
_geom_bond_distance
_geom_bond_site_symmetry_2
Ba0 O9 2.928930 1_454
Ba0 O8 2.928930 1_555
Ba0 O10 2.928930 1_544
Ba0 O11 2.928930 1_445
Ba0 O0 2.939739 1_555
Ba0 O2 2.939739 1_454
Ba0 O3 2.939739 1_544
Ba0 O1 2.939739 1_445
Ba0 O5 3.129072 1_544
Ba0 O6 3.129072 1_445
Ba0 O7 3.129072 1_454
Ba0 O4 3.129072 1_555
Ba1 O20 2.928930 1_555
Ba1 O22 2.928930 1_555
Ba1 O23 2.928930 1_555
Ba1 O21 2.928930 1_555
Ba1 O13 2.939739 1_555
Ba1 O15 2.939739 1_555
Ba1 O14 2.939739 1_555
Ba1 O12 2.939739 1_555
Ba1 O19 3.129072 1_555
Ba1 O16 3.129072 1_555
Ba1 O17 3.129072 1_555
Ba1 O18 3.129072 1_555
Ba2 O22 2.917761 1_545
Ba2 O20 2.917761 1_555
Ba2 O23 2.917761 1_545
Ba2 O21 2.917761 1_555
Ba2 O6 2.948590 1_545
Ba2 O7 2.948590 1_555
Ba2 O5 2.948590 1_545
Ba2 O4 2.948590 1_555
Ba2 O15 3.150967 1_545
Ba2 O14 3.150967 1_555
Ba2 O12 3.150967 1_555
Ba2 O13 3.150967 1_545
Ba3 O10 2.917761 1_554
Ba3 O8 2.917761 1_555
Ba3 O11 2.917761 1_455
Ba3 O9 2.917761 1_454
Ba3 O16 2.948590 1_555
Ba3 O17 2.948590 1_554
Ba3 O18 2.948590 1_455
Ba3 O19 2.948590 1_454
Ba3 O3 3.150967 1_554
Ba3 O2 3.150967 1_454
Ba3 O0 3.150967 1_555
Ba3 O1 3.150967 1_455
Ce0 O15 2.267714 1_555
Ce0 O3 2.267714 1_655
Ce0 O23 2.268542 1_555
Ce0 O11 2.268542 1_556
Ce0 O7 2.278633 1_565
Ce0 O19 2.278633 1_555
Ce1 O2 2.267714 1_455
Ce1 O14 2.267714 1_555
Ce1 O20 2.268542 1_555
Ce1 O8 2.268542 1_556
Ce1 O17 2.278633 1_555
Ce1 O5 2.278633 1_545
Ce2 O13 2.267714 1_555
Ce2 O1 2.267714 1_455
Ce2 O22 2.268542 1_555
Ce2 O10 2.268542 1_554
Ce2 O4 2.278633 1_565
Ce2 O16 2.278633 1_555
Ce3 O12 2.267714 1_555
Ce3 O0 2.267714 1_655
Ce3 O21 2.268542 1_555
Ce3 O9 2.268542 1_554
Ce3 O6 2.278633 1_545
Ce3 O18 2.278633 1_555
Nb0 O0 2.028242 1_555
Nb0 O12 2.028242 1_555
Nb0 O4 2.030599 1_555
Nb0 O16 2.030599 1_555
Nb0 O8 2.040273 1_555
Nb0 O20 2.040273 1_555
Nb1 O13 2.028242 1_555
Nb1 O1 2.028242 1_555
Nb1 O18 2.030599 1_555
Nb1 O6 2.030599 1_555
Nb1 O11 2.040273 1_555
Nb1 O23 2.040273 1_555
Nb2 O2 2.028242 1_555
Nb2 O14 2.028242 1_555
Nb2 O7 2.030599 1_555
Nb2 O19 2.030599 1_555
Nb2 O21 2.040273 1_555
Nb2 O9 2.040273 1_555
Nb3 O3 2.028242 1_555
Nb3 O15 2.028242 1_555
Nb3 O17 2.030599 1_555
Nb3 O5 2.030599 1_555
Nb3 O10 2.040273 1_555
Nb3 O22 2.040273 1_555
