# generated using pymatgen
data_U3Si
_symmetry_space_group_name_H-M   'P 1'
_cell_length_a   5.99553515
_cell_length_b   5.99567981
_cell_length_c   5.99390880
_cell_angle_alpha   119.97912361
_cell_angle_beta   119.97920863
_cell_angle_gamma   90.01229664
_symmetry_Int_Tables_number   1
_chemical_formula_structural   U3Si
_chemical_formula_sum   'U6 Si2'
_cell_volume   152.43626526
_cell_formula_units_Z   2
loop_
 _symmetry_equiv_pos_site_id
 _symmetry_equiv_pos_as_xyz
  1  'x, y, z'
loop_
 _atom_site_type_symbol
 _atom_site_label
 _atom_site_symmetry_multiplicity
 _atom_site_fract_x
 _atom_site_fract_y
 _atom_site_fract_z
 _atom_site_occupancy
  U  U0  1  0.71442313  0.71526603  0.00011655  1
  U  U1  1  0.28555976  0.28471268  -0.00011911  1
  U  U2  1  0.23256768  0.76811025  -0.00001166  1
  U  U3  1  0.76744021  0.23189804  0.00001393  1
  U  U4  1  0.23436132  0.23437530  0.46910745  1
  U  U5  1  0.76563587  0.76563292  0.53089378  1
  Si  Si0  1  0.24931621  0.74943495  0.49871529  1
  Si  Si1  1  0.75069483  0.25057082  0.50128176  1
loop_
_geom_bond_atom_site_label_1
_geom_bond_atom_site_label_2
_geom_bond_distance
_geom_bond_site_symmetry_2
U0 U5 2.893192 1_555
U0 U4 2.897922 1_554
U0 U2 2.906031 1_555
U0 U3 2.915295 1_555
U0 U3 3.114096 1_565
U0 U2 3.123023 1_655
U0 U4 3.130736 1_665
U0 U5 3.131657 1_554
U1 U4 2.893286 1_554
U1 U5 2.898042 1_555
U1 U3 2.906148 1_555
U1 U2 2.915442 1_555
U1 U2 3.113920 1_545
U1 U3 3.122871 1_455
U1 U5 3.130595 1_444
U1 U4 3.131537 1_555
U2 U5 2.799100 1_454
U2 U4 2.799262 1_565
U2 U4 3.197495 1_554
U2 U5 3.197571 1_555
U3 U4 2.799065 1_655
U3 U5 2.799234 1_544
U3 U5 3.197524 1_555
U3 U4 3.197606 1_554
Si0 U2 2.998867 1_555
Si0 U4 2.998873 1_565
Si0 U5 2.999426 1_455
Si0 U3 3.001107 1_455
Si0 U4 3.002063 1_555
Si0 U5 3.002318 1_555
Si0 U2 3.002576 1_556
Si0 U3 3.004620 1_566
Si0 U0 3.011272 1_455
Si0 U1 3.012398 1_555
Si0 U1 3.013895 1_566
Si0 U0 3.015031 1_556
Si1 U5 2.998872 1_545
Si1 U3 2.998899 1_556
Si1 U4 2.999329 1_655
Si1 U2 3.001106 1_656
Si1 U5 3.002066 1_555
Si1 U4 3.002412 1_555
Si1 U3 3.002542 1_555
Si1 U2 3.004623 1_545
Si1 U1 3.011246 1_656
Si1 U0 3.012426 1_556
Si1 U0 3.013914 1_545
Si1 U1 3.015009 1_555
