# generated using pymatgen
data_SrRhO3
_symmetry_space_group_name_H-M   'P 1'
_cell_length_a   5.66334041
_cell_length_b   5.66334041
_cell_length_c   5.66334041
_cell_angle_alpha   120.94385433
_cell_angle_beta   120.94385433
_cell_angle_gamma   88.37282562
_symmetry_Int_Tables_number   1
_chemical_formula_structural   SrRhO3
_chemical_formula_sum   'Sr2 Rh2 O6'
_cell_volume   126.55303029
_cell_formula_units_Z   2
loop_
 _symmetry_equiv_pos_site_id
 _symmetry_equiv_pos_as_xyz
  1  'x, y, z'
loop_
 _atom_site_type_symbol
 _atom_site_label
 _atom_site_symmetry_multiplicity
 _atom_site_fract_x
 _atom_site_fract_y
 _atom_site_fract_z
 _atom_site_occupancy
  Sr  Sr0  1  0.75000000  0.25000000  0.50000000  1
  Sr  Sr1  1  0.25000000  0.75000000  0.50000000  1
  Rh  Rh0  1  0.00000000  0.00000000  0.00000000  1
  Rh  Rh1  1  0.50000000  0.50000000  0.00000000  1
  O  O0  1  0.68798200  0.18798200  0.87596500  1
  O  O1  1  0.31201800  0.81201800  0.12403500  1
  O  O2  1  0.18798200  0.31201800  0.50000000  1
  O  O3  1  0.81201800  0.68798200  0.50000000  1
  O  O4  1  0.25000000  0.25000000  0.00000000  1
  O  O5  1  0.75000000  0.75000000  0.00000000  1
loop_
_geom_bond_atom_site_label_1
_geom_bond_atom_site_label_2
_geom_bond_distance
_geom_bond_site_symmetry_2
O0 Rh0 2.033482 1_656
O0 Rh1 2.033482 1_556
O0 Sr1 2.515039 1_545
O0 Sr0 2.515046 1_555
O1 Rh0 2.033482 1_565
O1 Rh1 2.033482 1_555
O1 Sr0 2.515039 1_565
O1 Sr1 2.515046 1_555
O2 Rh0 2.033483 1_555
O2 Rh1 2.033483 1_556
O2 Sr0 2.515040 1_455
O2 Sr1 2.515040 1_555
O3 Rh1 2.033483 1_555
O3 Rh0 2.033483 1_666
O3 Sr1 2.515040 1_655
O3 Sr0 2.515040 1_555
O4 Rh0 2.030523 1_555
O4 Rh1 2.030523 1_555
O4 Sr1 2.791177 1_555
O4 Sr1 2.791177 1_544
O4 Sr0 2.791177 1_555
O4 Sr0 2.791177 1_454
O5 Rh1 2.030523 1_555
O5 Rh0 2.030523 1_665
O5 Sr1 2.791177 1_655
O5 Sr0 2.791177 1_565
O5 Sr0 2.791177 1_554
O5 Sr1 2.791177 1_554
