# generated using pymatgen
data_Li5V6O5F19
_symmetry_space_group_name_H-M   'P 1'
_cell_length_a   5.24786300
_cell_length_b   5.40886199
_cell_length_c   16.11661582
_cell_angle_alpha   99.62452022
_cell_angle_beta   90.05168013
_cell_angle_gamma   90.73330607
_symmetry_Int_Tables_number   1
_chemical_formula_structural   Li5V6O5F19
_chemical_formula_sum   'Li5 V6 O5 F19'
_cell_volume   450.99143887
_cell_formula_units_Z   1
loop_
 _symmetry_equiv_pos_site_id
 _symmetry_equiv_pos_as_xyz
  1  'x, y, z'
loop_
 _atom_site_type_symbol
 _atom_site_label
 _atom_site_symmetry_multiplicity
 _atom_site_fract_x
 _atom_site_fract_y
 _atom_site_fract_z
 _atom_site_occupancy
  Li  Li0  1  0.97447100  0.58294600  0.10710900  1
  Li  Li1  1  0.20487900  0.96100300  0.49473800  1
  Li  Li2  1  0.71559900  0.21068900  0.84634700  1
  Li  Li3  1  0.80411000  0.47854700  0.50962400  1
  Li  Li4  1  0.31413600  0.69952100  0.83050500  1
  V  V0  1  0.48126600  0.47169200  0.00452000  1
  V  V1  1  0.53428100  0.81176100  0.66257800  1
  V  V2  1  0.02605100  0.68047000  0.33019800  1
  V  V3  1  0.97240900  0.02549600  0.00030500  1
  V  V4  1  0.49457500  0.15827700  0.32713600  1
  V  V5  1  0.03207700  0.35637900  0.67042500  1
  O  O0  1  0.26936500  0.24368600  0.02326400  1
  O  O1  1  0.27353500  0.89444700  0.35554700  1
  O  O2  1  0.77774900  0.25820000  0.97443400  1
  O  O3  1  0.28046800  0.56673100  0.68992400  1
  O  O4  1  0.77939800  0.60326200  0.64144500  1
  F  F0  1  0.20570400  0.38213800  0.35317400  1
  F  F1  1  0.71579900  0.44695500  0.31557200  1
  F  F2  1  0.08310700  0.92004800  0.88618000  1
  F  F3  1  0.08450000  0.58414800  0.21708400  1
  F  F4  1  0.42350800  0.76899500  0.54720100  1
  F  F5  1  0.57323600  0.90696800  0.78247900  1
  F  F6  1  0.61853000  0.57095900  0.11315800  1
  F  F7  1  0.92747800  0.72874000  0.44887700  1
  F  F8  1  0.19481200  0.72132000  0.02500700  1
  F  F9  1  0.22618600  0.05485700  0.68076500  1
  F  F10  1  0.72644300  0.11258500  0.64582400  1
  F  F11  1  0.78224600  0.93662800  0.30776700  1
  F  F12  1  0.06905800  0.26835400  0.54726900  1
  F  F13  1  0.92191600  0.04566900  0.11441700  1
  F  F14  1  0.43043400  0.43538800  0.88193600  1
  F  F15  1  0.92074600  0.39085200  0.78270000  1
  F  F16  1  0.41838900  0.10790300  0.22017500  1
  F  F17  1  0.57976600  0.23425100  0.44080500  1
  F  F18  1  0.69920900  0.76468500  0.97887400  1
loop_
_geom_bond_atom_site_label_1
_geom_bond_atom_site_label_2
_geom_bond_distance
_geom_bond_site_symmetry_2
Li1 O1 2.241984 1_555
Li2 O2 2.062310 1_555
Li3 O4 2.123422 1_555
Li4 O3 2.265464 1_555
O0 V0 1.714309 1_555
O0 V3 1.940134 1_455
O1 V2 1.730797 1_555
O1 V4 1.941314 1_565
O2 V3 1.734726 1_556
O2 V0 1.962017 1_556
O3 V5 1.712944 1_555
O3 V1 1.968780 1_555
O4 V1 1.718128 1_555
O4 V5 2.003102 1_655
F0 V4 1.954115 1_555
F0 V2 1.966701 1_555
F1 V4 1.967708 1_555
F1 V2 2.036880 1_655
F2 Li4 1.838188 1_555
F2 V3 1.924957 1_466
F3 V2 1.837502 1_555
F3 Li0 1.862565 1_455
F4 Li1 1.852631 1_555
F4 V1 1.923516 1_555
F5 V1 1.924834 1_555
F5 Li2 1.928264 1_565
F5 Li4 1.990024 1_555
F6 Li0 1.871420 1_555
F6 V0 1.883143 1_555
F7 Li3 1.905442 1_555
F7 V2 1.957666 1_655
F7 Li1 1.970924 1_655
F8 Li0 1.989945 1_455
F8 V0 2.023777 1_555
F8 V3 2.120112 1_465
F9 V5 1.964265 1_555
F9 V1 2.086954 1_545
F10 V1 1.960298 1_545
F10 V5 2.058762 1_655
F11 V4 1.932831 1_565
F11 V2 1.974689 1_655
F12 Li1 1.883944 1_545
F12 Li3 1.965573 1_455
F12 V5 1.972580 1_555
F13 V3 1.843617 1_555
F14 Li4 1.875633 1_555
F14 Li2 1.964851 1_555
F14 V0 1.969989 1_556
F15 Li2 1.862856 1_555
F15 V5 1.882088 1_655
F16 V4 1.744895 1_555
F17 V4 1.861963 1_555
F17 Li3 1.957047 1_555
F18 V3 1.987284 1_566
F18 V0 2.040567 1_556
