# generated using pymatgen
data_Sr5Fe4CoO10
_symmetry_space_group_name_H-M   'P 1'
_cell_length_a   4.04455700
_cell_length_b   4.04455700
_cell_length_c   17.49382800
_cell_angle_alpha   90.00000000
_cell_angle_beta   90.00000000
_cell_angle_gamma   90.00000000
_symmetry_Int_Tables_number   1
_chemical_formula_structural   Sr5Fe4CoO10
_chemical_formula_sum   'Sr5 Fe4 Co1 O10'
_cell_volume   286.17175891
_cell_formula_units_Z   1
loop_
 _symmetry_equiv_pos_site_id
 _symmetry_equiv_pos_as_xyz
  1  'x, y, z'
loop_
 _atom_site_type_symbol
 _atom_site_label
 _atom_site_symmetry_multiplicity
 _atom_site_fract_x
 _atom_site_fract_y
 _atom_site_fract_z
 _atom_site_occupancy
  Sr  Sr0  1  0.50000000  0.50000000  0.09829700  1
  Sr  Sr1  1  0.50000000  0.50000000  0.29918100  1
  Sr  Sr2  1  0.50000000  0.50000000  0.50000000  1
  Sr  Sr3  1  0.50000000  0.50000000  0.70081900  1
  Sr  Sr4  1  0.50000000  0.50000000  0.90170300  1
  Fe  Fe0  1  0.00000000  0.00000000  0.19929700  1
  Fe  Fe1  1  0.00000000  0.00000000  0.39993400  1
  Fe  Fe2  1  0.00000000  0.00000000  0.60006600  1
  Fe  Fe3  1  0.00000000  0.00000000  0.80070300  1
  Co  Co0  1  0.00000000  0.00000000  0.00000000  1
  O  O0  1  0.00000000  0.50000000  0.00000000  1
  O  O1  1  0.00000000  0.50000000  0.20068900  1
  O  O2  1  0.00000000  0.50000000  0.40025200  1
  O  O3  1  0.00000000  0.50000000  0.59974800  1
  O  O4  1  0.00000000  0.50000000  0.79931100  1
  O  O5  1  0.50000000  0.00000000  0.00000000  1
  O  O6  1  0.50000000  0.00000000  0.20068900  1
  O  O7  1  0.50000000  0.00000000  0.40025200  1
  O  O8  1  0.50000000  0.00000000  0.59974800  1
  O  O9  1  0.50000000  0.00000000  0.79931100  1
loop_
_geom_bond_atom_site_label_1
_geom_bond_atom_site_label_2
_geom_bond_distance
_geom_bond_site_symmetry_2
Fe0 O6 2.022425 1_555
Fe0 O6 2.022425 1_455
Fe0 O1 2.022425 1_555
Fe0 O1 2.022425 1_545
Fe1 O2 2.022286 1_545
Fe1 O7 2.022286 1_455
Fe1 O2 2.022286 1_555
Fe1 O7 2.022286 1_555
Fe2 O8 2.022286 1_555
Fe2 O8 2.022286 1_455
Fe2 O3 2.022286 1_545
Fe2 O3 2.022286 1_555
Fe3 O4 2.022425 1_545
Fe3 O9 2.022425 1_555
Fe3 O4 2.022425 1_555
Fe3 O9 2.022425 1_455
Co0 O5 2.022279 1_555
Co0 O5 2.022279 1_455
Co0 O0 2.022279 1_545
Co0 O0 2.022279 1_555
O0 Sr0 2.654544 1_455
O0 Sr0 2.654544 1_555
O0 Sr4 2.654544 1_554
O0 Sr4 2.654544 1_454
O1 Sr1 2.656755 1_455
O1 Sr1 2.656755 1_555
O1 Sr0 2.701501 1_455
O1 Sr0 2.701501 1_555
O2 Sr2 2.671057 1_555
O2 Sr2 2.671057 1_455
O2 Sr1 2.686234 1_455
O2 Sr1 2.686234 1_555
O3 Sr2 2.671057 1_455
O3 Sr2 2.671057 1_555
O3 Sr3 2.686234 1_555
O3 Sr3 2.686234 1_455
O4 Sr3 2.656755 1_455
O4 Sr3 2.656755 1_555
O4 Sr4 2.701501 1_455
O4 Sr4 2.701501 1_555
O5 Sr0 2.654544 1_555
O5 Sr0 2.654544 1_545
O5 Sr4 2.654544 1_554
O5 Sr4 2.654544 1_544
O6 Sr1 2.656755 1_555
O6 Sr1 2.656755 1_545
O6 Sr0 2.701501 1_555
O6 Sr0 2.701501 1_545
O7 Sr2 2.671057 1_555
O7 Sr2 2.671057 1_545
O7 Sr1 2.686234 1_545
O7 Sr1 2.686234 1_555
O8 Sr2 2.671057 1_545
O8 Sr2 2.671057 1_555
O8 Sr3 2.686234 1_555
O8 Sr3 2.686234 1_545
O9 Sr3 2.656755 1_555
O9 Sr3 2.656755 1_545
O9 Sr4 2.701501 1_545
O9 Sr4 2.701501 1_555
