# generated using pymatgen
data_LaEuPd6
_symmetry_space_group_name_H-M   'P 1'
_cell_length_a   4.31779600
_cell_length_b   4.31779600
_cell_length_c   8.50100900
_cell_angle_alpha   90.00000000
_cell_angle_beta   90.00000000
_cell_angle_gamma   90.00000000
_symmetry_Int_Tables_number   1
_chemical_formula_structural   LaEuPd6
_chemical_formula_sum   'La1 Eu1 Pd6'
_cell_volume   158.48739068
_cell_formula_units_Z   1
loop_
 _symmetry_equiv_pos_site_id
 _symmetry_equiv_pos_as_xyz
  1  'x, y, z'
loop_
 _atom_site_type_symbol
 _atom_site_label
 _atom_site_symmetry_multiplicity
 _atom_site_fract_x
 _atom_site_fract_y
 _atom_site_fract_z
 _atom_site_occupancy
  La  La0  1  0.00000000  0.00000000  0.50000000  1
  Eu  Eu0  1  0.00000000  0.00000000  0.00000000  1
  Pd  Pd0  1  0.50000000  0.50000000  0.00000000  1
  Pd  Pd1  1  0.50000000  0.50000000  0.50000000  1
  Pd  Pd2  1  0.50000000  0.00000000  0.25041700  1
  Pd  Pd3  1  0.50000000  0.00000000  0.74958300  1
  Pd  Pd4  1  0.00000000  0.50000000  0.25041700  1
  Pd  Pd5  1  0.00000000  0.50000000  0.74958300  1
loop_
_geom_bond_atom_site_label_1
_geom_bond_atom_site_label_2
_geom_bond_distance
_geom_bond_site_symmetry_2
La0 Pd2 3.026959 1_555
La0 Pd5 3.026959 1_555
La0 Pd3 3.026959 1_455
La0 Pd4 3.026959 1_545
La0 Pd5 3.026959 1_545
La0 Pd4 3.026959 1_555
La0 Pd2 3.026959 1_455
La0 Pd3 3.026959 1_555
La0 Pd1 3.053143 1_545
La0 Pd1 3.053143 1_555
La0 Pd1 3.053143 1_445
La0 Pd1 3.053143 1_455
Eu0 Pd3 3.031933 1_554
Eu0 Pd5 3.031933 1_554
Eu0 Pd2 3.031933 1_555
Eu0 Pd5 3.031933 1_544
Eu0 Pd4 3.031933 1_545
Eu0 Pd3 3.031933 1_454
Eu0 Pd4 3.031933 1_555
Eu0 Pd2 3.031933 1_455
Eu0 Pd0 3.053143 1_545
Eu0 Pd0 3.053143 1_555
Eu0 Pd0 3.053143 1_445
Eu0 Pd0 3.053143 1_455
