# generated using pymatgen
data_DyMnFeO5
_symmetry_space_group_name_H-M   'P 1'
_cell_length_a   5.79153400
_cell_length_b   7.34814700
_cell_length_c   8.61101700
_cell_angle_alpha   90.00000000
_cell_angle_beta   90.00000000
_cell_angle_gamma   90.00000000
_symmetry_Int_Tables_number   1
_chemical_formula_structural   DyMnFeO5
_chemical_formula_sum   'Dy4 Mn4 Fe4 O20'
_cell_volume   366.45942236
_cell_formula_units_Z   4
loop_
 _symmetry_equiv_pos_site_id
 _symmetry_equiv_pos_as_xyz
  1  'x, y, z'
loop_
 _atom_site_type_symbol
 _atom_site_label
 _atom_site_symmetry_multiplicity
 _atom_site_fract_x
 _atom_site_fract_y
 _atom_site_fract_z
 _atom_site_occupancy
  Dy  Dy0  1  0.50000000  0.36602000  0.33078200  1
  Dy  Dy1  1  0.50000000  0.63398000  0.66921800  1
  Dy  Dy2  1  0.50000000  0.13398000  0.83078200  1
  Dy  Dy3  1  0.50000000  0.86602000  0.16921800  1
  Mn  Mn0  1  0.25077400  0.00000000  0.50000000  1
  Mn  Mn1  1  0.74922600  0.00000000  0.50000000  1
  Mn  Mn2  1  0.74922600  0.50000000  0.00000000  1
  Mn  Mn3  1  0.25077400  0.50000000  0.00000000  1
  Fe  Fe0  1  0.00000000  0.10712200  0.14615700  1
  Fe  Fe1  1  0.00000000  0.89287800  0.85384300  1
  Fe  Fe2  1  0.00000000  0.39287800  0.64615700  1
  Fe  Fe3  1  0.00000000  0.60712200  0.35384300  1
  O  O0  1  0.50000000  0.33825100  0.05738600  1
  O  O1  1  0.50000000  0.66174900  0.94261400  1
  O  O2  1  0.50000000  0.16174900  0.55738600  1
  O  O3  1  0.50000000  0.83825100  0.44261400  1
  O  O4  1  0.23324100  0.00000000  0.00000000  1
  O  O5  1  0.76675900  0.00000000  0.00000000  1
  O  O6  1  0.76675900  0.50000000  0.50000000  1
  O  O7  1  0.23324100  0.50000000  0.50000000  1
  O  O8  1  0.25961700  0.10586100  0.29502000  1
  O  O9  1  0.74038300  0.89413900  0.70498000  1
  O  O10  1  0.25961700  0.89413900  0.70498000  1
  O  O11  1  0.74038300  0.39413900  0.79502000  1
  O  O12  1  0.74038300  0.10586100  0.29502000  1
  O  O13  1  0.25961700  0.60586100  0.20498000  1
  O  O14  1  0.74038300  0.60586100  0.20498000  1
  O  O15  1  0.25961700  0.39413900  0.79502000  1
  O  O16  1  0.00000000  0.34969700  0.07065700  1
  O  O17  1  0.00000000  0.65030300  0.92934300  1
  O  O18  1  0.00000000  0.15030300  0.57065700  1
  O  O19  1  0.00000000  0.84969700  0.42934300  1
loop_
_geom_bond_atom_site_label_1
_geom_bond_atom_site_label_2
_geom_bond_distance
_geom_bond_site_symmetry_2
Dy0 O6 2.340802 1_555
Dy0 O7 2.340802 1_555
Dy0 O0 2.363044 1_555
Dy0 O8 2.384861 1_555
Dy0 O12 2.384861 1_555
Dy0 O2 2.461824 1_555
Dy0 O13 2.493530 1_555
Dy0 O14 2.493530 1_555
Dy1 O6 2.340802 1_555
Dy1 O7 2.340802 1_555
Dy1 O1 2.363044 1_555
Dy1 O9 2.384861 1_555
Dy1 O10 2.384861 1_555
Dy1 O3 2.461824 1_555
Dy1 O15 2.493530 1_555
Dy1 O11 2.493530 1_555
Dy2 O5 2.340802 1_556
Dy2 O4 2.340802 1_556
Dy2 O2 2.363044 1_555
Dy2 O11 2.384861 1_555
Dy2 O15 2.384861 1_555
Dy2 O0 2.461824 1_556
Dy2 O10 2.493530 1_545
Dy2 O9 2.493530 1_545
Dy3 O5 2.340802 1_565
Dy3 O4 2.340802 1_565
Dy3 O3 2.363044 1_555
Dy3 O13 2.384861 1_555
Dy3 O14 2.384861 1_555
Dy3 O1 2.461824 1_554
Dy3 O8 2.493530 1_565
Dy3 O12 2.493530 1_565
Mn0 O18 1.923372 1_555
Mn0 O19 1.923372 1_545
Mn0 O8 1.929573 1_555
Mn0 O10 1.929573 1_545
Mn0 O2 1.933974 1_555
Mn0 O3 1.933974 1_545
Mn1 O18 1.923372 1_655
Mn1 O19 1.923372 1_645
Mn1 O12 1.929573 1_555
Mn1 O9 1.929573 1_545
Mn1 O2 1.933974 1_555
Mn1 O3 1.933974 1_545
Mn2 O16 1.923372 1_655
Mn2 O17 1.923372 1_654
Mn2 O14 1.929573 1_555
Mn2 O11 1.929573 1_554
Mn2 O1 1.933974 1_554
Mn2 O0 1.933974 1_555
Mn3 O16 1.923372 1_555
Mn3 O17 1.923372 1_554
Mn3 O13 1.929573 1_555
Mn3 O15 1.929573 1_554
Mn3 O1 1.933974 1_554
Mn3 O0 1.933974 1_555
Fe0 O16 1.897339 1_555
Fe0 O12 1.975857 1_455
Fe0 O8 1.975857 1_555
Fe0 O4 2.007062 1_555
Fe0 O5 2.007062 1_455
Fe1 O17 1.897339 1_555
Fe1 O9 1.975857 1_455
Fe1 O10 1.975857 1_555
Fe1 O4 2.007062 1_566
Fe1 O5 2.007062 1_466
Fe2 O18 1.897339 1_555
Fe2 O11 1.975857 1_455
Fe2 O15 1.975857 1_555
Fe2 O7 2.007062 1_555
Fe2 O6 2.007062 1_455
Fe3 O19 1.897339 1_555
Fe3 O14 1.975857 1_455
Fe3 O13 1.975857 1_555
Fe3 O7 2.007062 1_555
Fe3 O6 2.007062 1_455
