# generated using pymatgen
data_Lu4Al
_symmetry_space_group_name_H-M   'P 1'
_cell_length_a   7.71431295
_cell_length_b   7.71431295
_cell_length_c   7.71431295
_cell_angle_alpha   60.00000000
_cell_angle_beta   60.00000000
_cell_angle_gamma   60.00000000
_symmetry_Int_Tables_number   1
_chemical_formula_structural   Lu4Al
_chemical_formula_sum   'Lu8 Al2'
_cell_volume   324.62111244
_cell_formula_units_Z   2
loop_
 _symmetry_equiv_pos_site_id
 _symmetry_equiv_pos_as_xyz
  1  'x, y, z'
loop_
 _atom_site_type_symbol
 _atom_site_label
 _atom_site_symmetry_multiplicity
 _atom_site_fract_x
 _atom_site_fract_y
 _atom_site_fract_z
 _atom_site_occupancy
  Lu  Lu0  1  0.60560200  0.60560200  0.60560200  1
  Lu  Lu1  1  0.18319500  0.60560200  0.60560200  1
  Lu  Lu2  1  0.60560200  0.18319500  0.60560200  1
  Lu  Lu3  1  0.56680500  0.14439800  0.14439800  1
  Lu  Lu4  1  0.14439800  0.14439800  0.14439800  1
  Lu  Lu5  1  0.60560200  0.60560200  0.18319500  1
  Lu  Lu6  1  0.14439800  0.56680500  0.14439800  1
  Lu  Lu7  1  0.14439800  0.14439800  0.56680500  1
  Al  Al0  1  0.00000000  0.00000000  0.00000000  1
  Al  Al1  1  0.75000000  0.75000000  0.75000000  1
loop_
_geom_bond_atom_site_label_1
_geom_bond_atom_site_label_2
_geom_bond_distance
_geom_bond_site_symmetry_2
Al0 Lu4 2.728563 1_555
Al0 Lu6 2.728570 1_545
Al0 Lu7 2.728570 1_554
Al0 Lu3 2.728570 1_455
Al1 Lu0 2.728563 1_555
Al1 Lu2 2.728570 1_565
Al1 Lu5 2.728570 1_556
Al1 Lu1 2.728570 1_655
