# generated using pymatgen
data_Sr4MgMn2(GaO5)2
_symmetry_space_group_name_H-M   'P 1'
_cell_length_a   6.09688406
_cell_length_b   6.11751314
_cell_length_c   8.94258189
_cell_angle_alpha   73.07937013
_cell_angle_beta   73.20937208
_cell_angle_gamma   98.69031009
_symmetry_Int_Tables_number   1
_chemical_formula_structural   Sr4MgMn2(GaO5)2
_chemical_formula_sum   'Sr4 Mg1 Mn2 Ga2 O10'
_cell_volume   295.25339525
_cell_formula_units_Z   1
loop_
 _symmetry_equiv_pos_site_id
 _symmetry_equiv_pos_as_xyz
  1  'x, y, z'
loop_
 _atom_site_type_symbol
 _atom_site_label
 _atom_site_symmetry_multiplicity
 _atom_site_fract_x
 _atom_site_fract_y
 _atom_site_fract_z
 _atom_site_occupancy
  Sr  Sr0  1  0.03666500  0.66913600  0.79455900  1
  Sr  Sr1  1  0.92533600  0.36635700  0.20740300  1
  Sr  Sr2  1  0.67061900  0.03473700  0.79402400  1
  Sr  Sr3  1  0.36772400  0.92573000  0.20761500  1
  Mg  Mg0  1  0.38407300  0.38272000  0.73368500  1
  Mn  Mn0  1  0.48516000  0.48462700  0.02852900  1
  Mn  Mn1  1  0.98710500  0.98652600  0.02824600  1
  Ga  Ga0  1  0.69707800  0.69861700  0.47615100  1
  Ga  Ga1  1  0.32752100  0.32464600  0.47639100  1
  O  O0  1  0.26398800  0.26669200  0.96948100  1
  O  O1  1  0.24682400  0.74663400  0.00807500  1
  O  O2  1  0.74706600  0.24700400  0.00446800  1
  O  O3  1  0.74449400  0.74277700  0.01279300  1
  O  O4  1  0.66846600  0.67170500  0.69296100  1
  O  O5  1  0.30073600  0.29472000  0.29037200  1
  O  O6  1  0.13978500  0.13433300  0.69320200  1
  O  O7  1  0.90945700  0.91487300  0.29010100  1
  O  O8  1  0.35098400  0.63494500  0.51027300  1
  O  O9  1  0.63977600  0.35417400  0.51024400  1
loop_
_geom_bond_atom_site_label_1
_geom_bond_atom_site_label_2
_geom_bond_distance
_geom_bond_site_symmetry_2
Mg0 O0 1.888372 1_555
Mg0 O4 2.144423 1_555
Mg0 O6 2.146184 1_555
Mg0 O9 2.222421 1_555
Mg0 O8 2.223858 1_555
Mn0 O3 2.000324 1_555
Mn0 O0 2.037781 1_554
Mn0 O5 2.144175 1_555
Mn0 O2 2.322550 1_555
Mn0 O1 2.323955 1_555
Mn0 O4 2.690843 1_554
Mn1 O3 2.000515 1_555
Mn1 O0 2.037720 1_664
Mn1 O7 2.144519 1_555
Mn1 O1 2.320541 1_655
Mn1 O2 2.326684 1_565
Mn1 O6 2.686704 1_664
Ga0 O7 1.775219 1_555
Ga0 O4 1.851149 1_555
Ga0 O9 1.999269 1_555
Ga0 O8 2.001944 1_555
Ga1 O5 1.775548 1_555
Ga1 O6 1.850924 1_555
Ga1 O8 1.998357 1_555
Ga1 O9 2.002388 1_555
O0 Sr1 2.785521 1_456
O0 Sr3 2.806576 1_546
O1 Sr3 2.565483 1_555
O1 Sr1 2.573101 1_455
O1 Sr2 2.692417 1_564
O1 Sr0 2.696131 1_554
O2 Sr3 2.575400 1_545
O2 Sr1 2.584352 1_555
O2 Sr2 2.681682 1_554
O2 Sr0 2.682442 1_654
O3 Sr0 2.435266 1_654
O3 Sr2 2.436902 1_564
O3 Sr1 3.014985 1_555
O3 Sr3 3.027288 1_555
O4 Sr2 2.629740 1_565
O4 Sr0 2.654401 1_655
O5 Sr3 2.624172 1_545
O5 Sr1 2.660070 1_455
O6 Sr0 2.635200 1_545
O6 Sr2 2.651388 1_455
O7 Sr1 2.621750 1_565
O7 Sr3 2.660760 1_655
O8 Sr3 2.735543 1_555
O8 Sr0 2.791983 1_555
O9 Sr1 2.736817 1_555
O9 Sr2 2.791816 1_555
