# generated using pymatgen
data_Sm2Be2GeO7
_symmetry_space_group_name_H-M   'P 1'
_cell_length_a   7.56553300
_cell_length_b   7.56553300
_cell_length_c   4.89055400
_cell_angle_alpha   90.00000000
_cell_angle_beta   90.00000000
_cell_angle_gamma   90.00000000
_symmetry_Int_Tables_number   1
_chemical_formula_structural   Sm2Be2GeO7
_chemical_formula_sum   'Sm4 Be4 Ge2 O14'
_cell_volume   279.92205548
_cell_formula_units_Z   2
loop_
 _symmetry_equiv_pos_site_id
 _symmetry_equiv_pos_as_xyz
  1  'x, y, z'
loop_
 _atom_site_type_symbol
 _atom_site_label
 _atom_site_symmetry_multiplicity
 _atom_site_fract_x
 _atom_site_fract_y
 _atom_site_fract_z
 _atom_site_occupancy
  Sm  Sm0  1  0.65903400  0.84096600  0.50440800  1
  Sm  Sm1  1  0.15903400  0.65903400  0.49559200  1
  Sm  Sm2  1  0.84096600  0.34096600  0.49559200  1
  Sm  Sm3  1  0.34096600  0.15903400  0.50440800  1
  Be  Be0  1  0.36618100  0.86618100  0.04296900  1
  Be  Be1  1  0.86618100  0.63381900  0.95703100  1
  Be  Be2  1  0.63381900  0.13381900  0.04296900  1
  Be  Be3  1  0.13381900  0.36618100  0.95703100  1
  Ge  Ge0  1  0.50000000  0.50000000  0.00000000  1
  Ge  Ge1  1  0.00000000  0.00000000  0.00000000  1
  O  O0  1  0.92068000  0.82706700  0.79082400  1
  O  O1  1  0.17293300  0.92068000  0.20917600  1
  O  O2  1  0.57932000  0.32706700  0.20917600  1
  O  O3  1  0.42068000  0.67293300  0.20917600  1
  O  O4  1  0.32706700  0.42068000  0.79082400  1
  O  O5  1  0.67293300  0.57932000  0.79082400  1
  O  O6  1  0.00000000  0.50000000  0.82260900  1
  O  O7  1  0.50000000  0.00000000  0.17739100  1
  O  O8  1  0.14165800  0.35834200  0.28171300  1
  O  O9  1  0.64165800  0.14165800  0.71828700  1
  O  O10  1  0.35834200  0.85834200  0.71828700  1
  O  O11  1  0.85834200  0.64165800  0.28171300  1
  O  O12  1  0.07932000  0.17293300  0.79082400  1
  O  O13  1  0.82706700  0.07932000  0.20917600  1
loop_
_geom_bond_atom_site_label_1
_geom_bond_atom_site_label_2
_geom_bond_distance
_geom_bond_site_symmetry_2
Be0 O7 1.575477 1_565
Be0 O10 1.590088 1_554
Be0 O3 1.722856 1_555
Be0 O1 1.722856 1_555
Be1 O6 1.575477 1_655
Be1 O11 1.590088 1_556
Be1 O5 1.722856 1_555
Be1 O0 1.722856 1_555
Be2 O7 1.575477 1_555
Be2 O9 1.590088 1_554
Be2 O2 1.722856 1_555
Be2 O13 1.722856 1_555
Be3 O6 1.575477 1_555
Be3 O8 1.590088 1_556
Be3 O12 1.722856 1_555
Be3 O4 1.722856 1_555
Ge0 O3 1.765884 1_555
Ge0 O4 1.765884 1_554
Ge0 O2 1.765884 1_555
Ge0 O5 1.765884 1_554
Ge1 O1 1.765884 1_545
Ge1 O13 1.765884 1_455
Ge1 O0 1.765884 1_444
Ge1 O12 1.765884 1_554
O0 Sm0 2.427240 1_555
O0 Sm1 2.636778 1_655
O1 Sm1 2.427240 1_555
O1 Sm3 2.636778 1_565
O2 Sm2 2.427240 1_555
O2 Sm3 2.636778 1_555
O3 Sm1 2.427240 1_555
O3 Sm0 2.636778 1_555
O4 Sm3 2.427240 1_555
O4 Sm1 2.636778 1_555
O5 Sm0 2.427240 1_555
O5 Sm2 2.636778 1_555
O6 Sm1 2.335168 1_555
O6 Sm2 2.335168 1_455
O7 Sm3 2.335168 1_555
O7 Sm0 2.335168 1_545
O8 Sm3 2.394472 1_555
O8 Sm1 2.507293 1_555
O8 Sm2 2.507293 1_455
O9 Sm2 2.394472 1_555
O9 Sm3 2.507293 1_555
O9 Sm0 2.507293 1_545
O10 Sm1 2.394472 1_555
O10 Sm3 2.507293 1_565
O10 Sm0 2.507293 1_555
O11 Sm0 2.394472 1_555
O11 Sm2 2.507293 1_555
O11 Sm1 2.507293 1_655
O12 Sm3 2.427240 1_555
O12 Sm2 2.636778 1_455
O13 Sm2 2.427240 1_555
O13 Sm0 2.636778 1_545
