# generated using pymatgen
data_Na2CuF4
_symmetry_space_group_name_H-M   'P 1'
_cell_length_a   6.50044143
_cell_length_b   6.50044143
_cell_length_c   6.50044143
_cell_angle_alpha   144.72617871
_cell_angle_beta   144.72617871
_cell_angle_gamma   50.74276857
_symmetry_Int_Tables_number   1
_chemical_formula_structural   Na2CuF4
_chemical_formula_sum   'Na2 Cu1 F4'
_cell_volume   91.13380557
_cell_formula_units_Z   1
loop_
 _symmetry_equiv_pos_site_id
 _symmetry_equiv_pos_as_xyz
  1  'x, y, z'
loop_
 _atom_site_type_symbol
 _atom_site_label
 _atom_site_symmetry_multiplicity
 _atom_site_fract_x
 _atom_site_fract_y
 _atom_site_fract_z
 _atom_site_occupancy
  Na  Na0  1  0.33126300  0.33126300  0.00000000  1
  Na  Na1  1  0.66873700  0.66873700  0.00000000  1
  Cu  Cu0  1  0.00000000  0.00000000  0.00000000  1
  F  F0  1  0.50000000  0.00000000  0.50000000  1
  F  F1  1  0.00000000  0.50000000  0.50000000  1
  F  F2  1  0.75000000  0.25000000  0.50000000  1
  F  F3  1  0.25000000  0.75000000  0.50000000  1
loop_
_geom_bond_atom_site_label_1
_geom_bond_atom_site_label_2
_geom_bond_distance
_geom_bond_site_symmetry_2
Cu0 F0 1.969529 1_555
Cu0 F0 1.969529 1_454
Cu0 F1 1.969529 1_555
Cu0 F1 1.969529 1_544
F0 Na1 2.794269 1_556
F0 Na1 2.794269 1_545
F0 Na0 2.794269 1_556
F0 Na0 2.794269 1_545
F1 Na1 2.794269 1_556
F1 Na1 2.794269 1_455
F1 Na0 2.794269 1_556
F1 Na0 2.794269 1_455
F2 Na0 2.188673 1_656
F2 Na0 2.188673 1_555
F2 Na1 2.188673 1_556
F2 Na1 2.188673 1_545
F3 Na0 2.188673 1_566
F3 Na0 2.188673 1_555
F3 Na1 2.188673 1_556
F3 Na1 2.188673 1_455
