# generated using pymatgen
data_Mg14SiBiO16
_symmetry_space_group_name_H-M   'P 1'
_cell_length_a   8.81114664
_cell_length_b   8.81200895
_cell_length_c   4.39887600
_cell_angle_alpha   90.00000000
_cell_angle_beta   90.00000000
_cell_angle_gamma   91.40126085
_symmetry_Int_Tables_number   1
_chemical_formula_structural   Mg14SiBiO16
_chemical_formula_sum   'Mg14 Si1 Bi1 O16'
_cell_volume   341.44376310
_cell_formula_units_Z   1
loop_
 _symmetry_equiv_pos_site_id
 _symmetry_equiv_pos_as_xyz
  1  'x, y, z'
loop_
 _atom_site_type_symbol
 _atom_site_label
 _atom_site_symmetry_multiplicity
 _atom_site_fract_x
 _atom_site_fract_y
 _atom_site_fract_z
 _atom_site_occupancy
  Mg  Mg0  1  0.00000000  0.50000000  0.00000000  1
  Mg  Mg1  1  0.50000000  0.00000000  0.00000000  1
  Mg  Mg2  1  0.00098600  0.25075300  0.50000000  1
  Mg  Mg3  1  0.99901400  0.74924700  0.50000000  1
  Mg  Mg4  1  0.50408900  0.23547400  0.50000000  1
  Mg  Mg5  1  0.49591100  0.76452600  0.50000000  1
  Mg  Mg6  1  0.25073800  0.00098300  0.50000000  1
  Mg  Mg7  1  0.23549500  0.50407500  0.50000000  1
  Mg  Mg8  1  0.74926200  0.99901700  0.50000000  1
  Mg  Mg9  1  0.76450500  0.49592500  0.50000000  1
  Mg  Mg10  1  0.24671700  0.24666200  0.00000000  1
  Mg  Mg11  1  0.24106100  0.75894000  0.00000000  1
  Mg  Mg12  1  0.75893900  0.24106000  0.00000000  1
  Mg  Mg13  1  0.75328300  0.75333800  0.00000000  1
  Si  Si0  1  0.00000000  0.00000000  0.00000000  1
  Bi  Bi0  1  0.50000000  0.50000000  0.00000000  1
  O  O0  1  0.25684000  0.00545700  0.00000000  1
  O  O1  1  0.22532400  0.51868200  0.00000000  1
  O  O2  1  0.74316000  0.99454300  0.00000000  1
  O  O3  1  0.77467600  0.48131800  0.00000000  1
  O  O4  1  0.25137500  0.25136900  0.50000000  1
  O  O5  1  0.24522400  0.75477300  0.50000000  1
  O  O6  1  0.75477600  0.24522700  0.50000000  1
  O  O7  1  0.74862500  0.74863100  0.50000000  1
  O  O8  1  0.00000000  0.00000000  0.50000000  1
  O  O9  1  0.00000000  0.50000000  0.50000000  1
  O  O10  1  0.50000000  0.00000000  0.50000000  1
  O  O11  1  0.50000000  0.50000000  0.50000000  1
  O  O12  1  0.00548200  0.25684600  0.00000000  1
  O  O13  1  0.99451800  0.74315400  0.00000000  1
  O  O14  1  0.51864200  0.22529500  0.00000000  1
  O  O15  1  0.48135800  0.77470500  0.00000000  1
loop_
_geom_bond_atom_site_label_1
_geom_bond_atom_site_label_2
_geom_bond_distance
_geom_bond_site_symmetry_2
Mg0 O3 1.988160 1_455
Mg0 O1 1.988160 1_555
Mg0 O13 2.144400 1_455
Mg0 O12 2.144400 1_555
Mg0 O9 2.199438 1_554
Mg0 O9 2.199438 1_555
Mg1 O14 1.988078 1_555
Mg1 O15 1.988078 1_545
Mg1 O0 2.144233 1_555
Mg1 O2 2.144233 1_545
Mg1 O10 2.199438 1_555
Mg1 O10 2.199438 1_554
Mg2 O6 2.168748 1_455
Mg2 O9 2.196596 1_555
Mg2 O12 2.200426 1_556
Mg2 O12 2.200426 1_555
Mg2 O4 2.206088 1_555
Mg2 O8 2.209442 1_555
Mg3 O5 2.168748 1_655
Mg3 O9 2.196596 1_655
Mg3 O13 2.200426 1_555
Mg3 O13 2.200426 1_556
Mg3 O7 2.206088 1_555
Mg3 O8 2.209442 1_665
Mg4 O10 2.074431 1_555
Mg4 O14 2.205125 1_555
Mg4 O14 2.205125 1_556
Mg4 O6 2.208410 1_555
Mg4 O4 2.234517 1_555
Mg4 O11 2.332165 1_555
Mg5 O10 2.074431 1_565
Mg5 O15 2.205125 1_556
Mg5 O15 2.205125 1_555
Mg5 O5 2.208410 1_555
Mg5 O7 2.234517 1_555
Mg5 O11 2.332165 1_555
Mg6 O5 2.168961 1_545
Mg6 O10 2.196513 1_555
Mg6 O0 2.200425 1_555
Mg6 O0 2.200425 1_556
Mg6 O4 2.206274 1_555
Mg6 O8 2.209094 1_555
Mg7 O9 2.074413 1_555
Mg7 O1 2.205151 1_556
Mg7 O1 2.205151 1_555
Mg7 O5 2.208720 1_555
Mg7 O4 2.234651 1_555
Mg7 O11 2.331747 1_555
Mg8 O6 2.168961 1_565
Mg8 O10 2.196513 1_565
Mg8 O2 2.200425 1_556
Mg8 O2 2.200425 1_555
Mg8 O7 2.206274 1_555
Mg8 O8 2.209094 1_665
Mg9 O9 2.074413 1_655
Mg9 O3 2.205151 1_555
Mg9 O3 2.205151 1_556
Mg9 O6 2.208720 1_555
Mg9 O7 2.234651 1_555
Mg9 O11 2.331747 1_555
Mg10 O0 2.129549 1_555
Mg10 O12 2.129642 1_555
Mg10 O4 2.200193 1_554
Mg10 O4 2.200193 1_555
Mg10 O14 2.407944 1_555
Mg10 O1 2.409034 1_555
Mg11 O1 2.118305 1_555
Mg11 O15 2.118452 1_555
Mg11 O0 2.173359 1_565
Mg11 O13 2.173378 1_455
Mg11 O5 2.200065 1_554
Mg11 O5 2.200065 1_555
Mg12 O3 2.118305 1_555
Mg12 O14 2.118452 1_555
Mg12 O2 2.173359 1_545
Mg12 O12 2.173378 1_655
Mg12 O6 2.200065 1_555
Mg12 O6 2.200065 1_554
Mg13 O2 2.129549 1_555
Mg13 O13 2.129642 1_555
Mg13 O7 2.200193 1_555
Mg13 O7 2.200193 1_554
Mg13 O15 2.407944 1_555
Mg13 O3 2.409034 1_555
Bi0 O11 2.199438 1_554
Bi0 O11 2.199438 1_555
Bi0 O3 2.429816 1_555
Bi0 O1 2.429816 1_555
Bi0 O14 2.430274 1_555
Bi0 O15 2.430274 1_555
O0 Si0 2.262390 1_555
O2 Si0 2.262390 1_665
O8 Si0 2.199438 1_556
O8 Si0 2.199438 1_555
O12 Si0 2.262663 1_555
O13 Si0 2.262663 1_665
