# generated using pymatgen
data_KCdC3(NO)3
_symmetry_space_group_name_H-M   'P 1'
_cell_length_a   3.77321400
_cell_length_b   10.22360200
_cell_length_c   18.55489700
_cell_angle_alpha   90.00000000
_cell_angle_beta   90.00000000
_cell_angle_gamma   90.00000000
_symmetry_Int_Tables_number   1
_chemical_formula_structural   KCdC3(NO)3
_chemical_formula_sum   'K4 Cd4 C12 N12 O12'
_cell_volume   715.77070443
_cell_formula_units_Z   4
loop_
 _symmetry_equiv_pos_site_id
 _symmetry_equiv_pos_as_xyz
  1  'x, y, z'
loop_
 _atom_site_type_symbol
 _atom_site_label
 _atom_site_symmetry_multiplicity
 _atom_site_fract_x
 _atom_site_fract_y
 _atom_site_fract_z
 _atom_site_occupancy
  K  K0  1  0.75000000  0.42777500  0.83528500  1
  K  K1  1  0.25000000  0.57222500  0.16471500  1
  K  K2  1  0.75000000  0.92777500  0.66471500  1
  K  K3  1  0.25000000  0.07222500  0.33528500  1
  Cd  Cd0  1  0.75000000  0.36219100  0.45641000  1
  Cd  Cd1  1  0.25000000  0.63780900  0.54359000  1
  Cd  Cd2  1  0.75000000  0.86219100  0.04359000  1
  Cd  Cd3  1  0.25000000  0.13780900  0.95641000  1
  C  C0  1  0.25000000  0.08402500  0.12353800  1
  C  C1  1  0.25000000  0.58402500  0.37646200  1
  C  C2  1  0.75000000  0.41597500  0.62353800  1
  C  C3  1  0.75000000  0.91597500  0.87646200  1
  C  C4  1  0.25000000  0.13910300  0.52960300  1
  C  C5  1  0.75000000  0.86089700  0.47039700  1
  C  C6  1  0.25000000  0.63910300  0.97039700  1
  C  C7  1  0.75000000  0.36089700  0.02960300  1
  C  C8  1  0.75000000  0.35247800  0.28808300  1
  C  C9  1  0.25000000  0.64752200  0.71191700  1
  C  C10  1  0.75000000  0.85247800  0.21191700  1
  C  C11  1  0.25000000  0.14752200  0.78808300  1
  N  N0  1  0.75000000  0.78562500  0.15839700  1
  N  N1  1  0.75000000  0.26593400  0.99085700  1
  N  N2  1  0.25000000  0.02267200  0.06719500  1
  N  N3  1  0.75000000  0.97732800  0.93280500  1
  N  N4  1  0.25000000  0.52267200  0.43280500  1
  N  N5  1  0.75000000  0.47732800  0.56719500  1
  N  N6  1  0.25000000  0.23406600  0.49085700  1
  N  N7  1  0.75000000  0.76593400  0.50914300  1
  N  N8  1  0.75000000  0.28562500  0.34160300  1
  N  N9  1  0.25000000  0.71437500  0.65839700  1
  N  N10  1  0.25000000  0.21437500  0.84160300  1
  N  N11  1  0.25000000  0.73406600  0.00914300  1
  O  O0  1  0.25000000  0.54361300  0.93225200  1
  O  O1  1  0.25000000  0.08282900  0.73356900  1
  O  O2  1  0.75000000  0.85683400  0.82087400  1
  O  O3  1  0.25000000  0.64316600  0.32087400  1
  O  O4  1  0.75000000  0.45638700  0.06774800  1
  O  O5  1  0.75000000  0.35683400  0.67912600  1
  O  O6  1  0.25000000  0.04361300  0.56774800  1
  O  O7  1  0.75000000  0.95638700  0.43225200  1
  O  O8  1  0.75000000  0.41717100  0.23356900  1
  O  O9  1  0.25000000  0.58282900  0.76643100  1
  O  O10  1  0.25000000  0.14316600  0.17912600  1
  O  O11  1  0.75000000  0.91717100  0.26643100  1
loop_
_geom_bond_atom_site_label_1
_geom_bond_atom_site_label_2
_geom_bond_distance
_geom_bond_site_symmetry_2
K0 O9 2.775678 1_555
K0 O9 2.775678 1_655
K0 O0 2.863385 1_655
K0 O0 2.863385 1_555
K0 N10 2.886679 1_555
K0 N10 2.886679 1_655
K0 O5 2.986906 1_555
K0 N1 3.327204 1_555
K1 O8 2.775678 1_455
K1 O8 2.775678 1_555
K1 O4 2.863385 1_455
K1 O4 2.863385 1_555
K1 N0 2.886679 1_555
K1 N0 2.886679 1_455
K1 O3 2.986906 1_555
K1 N11 3.327204 1_555
K2 O1 2.775678 1_565
K2 O1 2.775678 1_665
K2 O6 2.863385 1_665
K2 O6 2.863385 1_565
K2 N9 2.886679 1_655
K2 N9 2.886679 1_555
K2 O2 2.986906 1_555
K2 N7 3.327204 1_555
K3 O11 2.775678 1_545
K3 O11 2.775678 1_445
K3 O7 2.863385 1_445
K3 O7 2.863385 1_545
K3 N8 2.886679 1_455
K3 N8 2.886679 1_555
K3 O10 2.986906 1_555
K3 N6 3.327204 1_555
Cd0 N8 2.269501 1_555
Cd0 N5 2.368778 1_555
Cd0 N6 2.384040 1_655
Cd0 N6 2.384040 1_555
Cd0 N4 2.538306 1_655
Cd0 N4 2.538306 1_555
Cd1 N9 2.269501 1_555
Cd1 N4 2.368778 1_555
Cd1 N7 2.384040 1_555
Cd1 N7 2.384040 1_455
Cd1 N5 2.538306 1_555
Cd1 N5 2.538306 1_455
Cd2 N0 2.269501 1_555
Cd2 N3 2.368778 1_554
Cd2 N11 2.384040 1_655
Cd2 N11 2.384040 1_555
Cd2 N2 2.538306 1_565
Cd2 N2 2.538306 1_665
Cd3 N10 2.269501 1_555
Cd3 N2 2.368778 1_556
Cd3 N1 2.384040 1_455
Cd3 N1 2.384040 1_555
Cd3 N3 2.538306 1_545
Cd3 N3 2.538306 1_445
C0 O10 1.195587 1_555
C0 N2 1.219173 1_555
C1 O3 1.195587 1_555
C1 N4 1.219173 1_555
C2 O5 1.195587 1_555
C2 N5 1.219173 1_555
C3 O2 1.195587 1_555
C3 N3 1.219173 1_555
C4 O6 1.205825 1_555
C4 N6 1.208070 1_555
C5 O7 1.205825 1_555
C5 N7 1.208070 1_555
C6 O0 1.205825 1_555
C6 N11 1.208070 1_556
C7 O4 1.205825 1_555
C7 N1 1.208070 1_554
C8 N8 1.205532 1_555
C8 O8 1.208544 1_555
C9 N9 1.205532 1_555
C9 O9 1.208544 1_555
C10 N0 1.205532 1_555
C10 O11 1.208544 1_555
C11 N10 1.205532 1_555
C11 O1 1.208544 1_555
