# generated using pymatgen
data_Al5AgS8
_symmetry_space_group_name_H-M   'P 1'
_cell_length_a   7.20111182
_cell_length_b   7.20111182
_cell_length_c   7.20111182
_cell_angle_alpha   60.00000000
_cell_angle_beta   60.00000000
_cell_angle_gamma   60.00000000
_symmetry_Int_Tables_number   1
_chemical_formula_structural   Al5AgS8
_chemical_formula_sum   'Al5 Ag1 S8'
_cell_volume   264.04847675
_cell_formula_units_Z   1
loop_
 _symmetry_equiv_pos_site_id
 _symmetry_equiv_pos_as_xyz
  1  'x, y, z'
loop_
 _atom_site_type_symbol
 _atom_site_label
 _atom_site_symmetry_multiplicity
 _atom_site_fract_x
 _atom_site_fract_y
 _atom_site_fract_z
 _atom_site_occupancy
  Al  Al0  1  0.64548100  0.11817300  0.11817300  1
  Al  Al1  1  0.11817300  0.64548100  0.11817300  1
  Al  Al2  1  0.11817300  0.11817300  0.64548100  1
  Al  Al3  1  0.11817300  0.11817300  0.11817300  1
  Al  Al4  1  0.50000000  0.50000000  0.50000000  1
  Ag  Ag0  1  0.75000000  0.75000000  0.75000000  1
  S  S0  1  0.33894500  0.88701800  0.88701800  1
  S  S1  1  0.88701800  0.33894500  0.88701800  1
  S  S2  1  0.88701800  0.88701800  0.33894500  1
  S  S3  1  0.88701800  0.88701800  0.88701800  1
  S  S4  1  0.90040700  0.36653100  0.36653100  1
  S  S5  1  0.36653100  0.90040700  0.36653100  1
  S  S6  1  0.36653100  0.36653100  0.90040700  1
  S  S7  1  0.36653100  0.36653100  0.36653100  1
loop_
_geom_bond_atom_site_label_1
_geom_bond_atom_site_label_2
_geom_bond_distance
_geom_bond_site_symmetry_2
Al0 S2 2.355244 1_545
Al0 S1 2.355244 1_554
Al0 S3 2.355249 1_544
Al0 S7 2.538831 1_555
Al0 S6 2.538831 1_554
Al0 S5 2.538831 1_545
Al1 S2 2.355244 1_455
Al1 S0 2.355244 1_554
Al1 S3 2.355249 1_454
Al1 S7 2.538831 1_555
Al1 S6 2.538831 1_554
Al1 S4 2.538831 1_455
Al2 S0 2.355244 1_545
Al2 S1 2.355244 1_455
Al2 S3 2.355249 1_445
Al2 S7 2.538831 1_555
Al2 S4 2.538831 1_455
Al2 S5 2.538831 1_545
Al3 S0 2.355249 1_544
Al3 S1 2.355249 1_454
Al3 S2 2.355249 1_445
Al3 S6 2.538831 1_554
Al3 S5 2.538831 1_545
Al3 S4 2.538831 1_455
Al4 S4 2.354266 1_555
Al4 S6 2.354266 1_555
Al4 S7 2.354266 1_555
Al4 S5 2.354266 1_555
Ag0 S3 2.416867 1_555
Ag0 S2 2.416873 1_555
Ag0 S1 2.416873 1_555
Ag0 S0 2.416873 1_555
