# generated using pymatgen
data_Eu3Mg
_symmetry_space_group_name_H-M   'P 1'
_cell_length_a   5.29913888
_cell_length_b   5.29910090
_cell_length_c   5.29898043
_cell_angle_alpha   90.00000000
_cell_angle_beta   90.00000000
_cell_angle_gamma   90.00000000
_symmetry_Int_Tables_number   1
_chemical_formula_structural   Eu3Mg
_chemical_formula_sum   'Eu3 Mg1'
_cell_volume   148.79892931
_cell_formula_units_Z   1
loop_
 _symmetry_equiv_pos_site_id
 _symmetry_equiv_pos_as_xyz
  1  'x, y, z'
loop_
 _atom_site_type_symbol
 _atom_site_label
 _atom_site_symmetry_multiplicity
 _atom_site_fract_x
 _atom_site_fract_y
 _atom_site_fract_z
 _atom_site_occupancy
  Eu  Eu0  1  0.50000000  0.50000000  0.00000000  1
  Eu  Eu1  1  0.50000000  -0.00000000  0.50000000  1
  Eu  Eu2  1  -0.00000000  0.50000000  0.50000000  1
  Mg  Mg0  1  0.00000000  -0.00000000  0.00000000  1
loop_
_geom_bond_atom_site_label_1
_geom_bond_atom_site_label_2
_geom_bond_distance
_geom_bond_site_symmetry_2
Eu0 Eu1 3.746988 1_554
Eu0 Eu1 3.746988 1_555
Eu0 Eu1 3.746988 1_564
Eu0 Eu1 3.746988 1_565
Eu0 Eu2 3.747001 1_654
Eu0 Eu2 3.747001 1_555
Eu0 Eu2 3.747001 1_554
Eu0 Eu2 3.747001 1_655
Eu0 Mg0 3.747044 1_655
Eu0 Mg0 3.747044 1_555
Eu0 Mg0 3.747044 1_565
Eu0 Mg0 3.747044 1_665
Eu1 Mg0 3.747001 1_656
Eu1 Mg0 3.747001 1_556
Eu1 Mg0 3.747001 1_555
Eu1 Mg0 3.747001 1_655
Eu1 Eu2 3.747044 1_645
Eu1 Eu2 3.747044 1_555
Eu1 Eu2 3.747044 1_545
Eu1 Eu2 3.747044 1_655
Eu2 Mg0 3.746988 1_565
Eu2 Mg0 3.746988 1_556
Eu2 Mg0 3.746988 1_555
Eu2 Mg0 3.746988 1_566
