# generated using pymatgen
data_NiSO8
_symmetry_space_group_name_H-M   'P 1'
_cell_length_a   13.12051800
_cell_length_b   5.65685700
_cell_length_c   9.15330265
_cell_angle_alpha   53.44659431
_cell_angle_beta   90.00000000
_cell_angle_gamma   90.00000000
_symmetry_Int_Tables_number   1
_chemical_formula_structural   NiSO8
_chemical_formula_sum   'Ni4 S4 O32'
_cell_volume   545.73636288
_cell_formula_units_Z   4
loop_
 _symmetry_equiv_pos_site_id
 _symmetry_equiv_pos_as_xyz
  1  'x, y, z'
loop_
 _atom_site_type_symbol
 _atom_site_label
 _atom_site_symmetry_multiplicity
 _atom_site_fract_x
 _atom_site_fract_y
 _atom_site_fract_z
 _atom_site_occupancy
  Ni  Ni0  1  0.38961200  0.85676100  0.22910600  1
  Ni  Ni1  1  0.61038800  0.14323900  0.77089400  1
  Ni  Ni2  1  0.88961200  0.14323900  0.27089400  1
  Ni  Ni3  1  0.11038800  0.85676100  0.72910600  1
  S  S0  1  0.61246300  0.62596200  0.17943400  1
  S  S1  1  0.38753700  0.37403800  0.82056600  1
  S  S2  1  0.11246300  0.37403800  0.32056600  1
  S  S3  1  0.88753700  0.62596200  0.67943400  1
  O  O0  1  0.87374100  0.53370700  0.09608400  1
  O  O1  1  0.12625900  0.46629300  0.90391600  1
  O  O2  1  0.37374100  0.46629300  0.40391600  1
  O  O3  1  0.62625900  0.53370700  0.59608400  1
  O  O4  1  0.36631900  0.68382100  0.12132200  1
  O  O5  1  0.63368100  0.31617900  0.87867800  1
  O  O6  1  0.86631900  0.31617900  0.37867800  1
  O  O7  1  0.13368100  0.68382100  0.62132200  1
  O  O8  1  0.60227100  0.30291400  0.28582100  1
  O  O9  1  0.39772900  0.69708600  0.71417900  1
  O  O10  1  0.10227100  0.69708600  0.21417900  1
  O  O11  1  0.89772900  0.30291400  0.78582100  1
  O  O12  1  0.24809600  0.97967200  0.21174200  1
  O  O13  1  0.75190400  0.02032800  0.78825800  1
  O  O14  1  0.74809600  0.02032800  0.28825800  1
  O  O15  1  0.25190400  0.97967200  0.71174200  1
  O  O16  1  0.91624100  0.01052800  0.14400900  1
  O  O17  1  0.08375900  0.98947200  0.85599100  1
  O  O18  1  0.41624100  0.98947200  0.35599100  1
  O  O19  1  0.58375900  0.01052800  0.64400900  1
  O  O20  1  0.72015800  0.71016900  0.17640800  1
  O  O21  1  0.27984200  0.28983100  0.82359200  1
  O  O22  1  0.22015800  0.28983100  0.32359200  1
  O  O23  1  0.77984200  0.71016900  0.67640800  1
  O  O24  1  0.54938600  0.73918100  0.26110900  1
  O  O25  1  0.45061400  0.26081900  0.73889100  1
  O  O26  1  0.04938600  0.26081900  0.23889100  1
  O  O27  1  0.95061400  0.73918100  0.76110900  1
  O  O28  1  0.57467200  0.75531700  0.98954900  1
  O  O29  1  0.42532800  0.24468300  0.01045100  1
  O  O30  1  0.07467200  0.24468300  0.51045100  1
  O  O31  1  0.92532800  0.75531700  0.48954900  1
loop_
_geom_bond_atom_site_label_1
_geom_bond_atom_site_label_2
_geom_bond_distance
_geom_bond_site_symmetry_2
Ni0 O18 1.753031 1_555
Ni0 O4 1.781420 1_555
Ni0 O2 1.809052 1_555
Ni0 O29 1.951743 1_565
Ni0 O12 1.955666 1_555
Ni0 O24 2.165797 1_555
Ni1 O19 1.753031 1_555
Ni1 O5 1.781420 1_555
Ni1 O3 1.809052 1_555
Ni1 O28 1.951743 1_545
Ni1 O13 1.955666 1_555
Ni1 O25 2.165797 1_555
Ni2 O16 1.753031 1_555
Ni2 O6 1.781420 1_555
Ni2 O0 1.809052 1_555
Ni2 O31 1.951743 1_545
Ni2 O14 1.955666 1_555
Ni2 O26 2.165797 1_655
Ni3 O17 1.753031 1_555
Ni3 O7 1.781420 1_555
Ni3 O1 1.809052 1_555
Ni3 O30 1.951743 1_565
Ni3 O15 1.955666 1_555
Ni3 O27 2.165797 1_455
O8 S0 1.478508 1_555
O9 S1 1.478508 1_555
O10 S2 1.478508 1_555
O11 S3 1.478508 1_555
O20 S0 1.486125 1_555
O21 S1 1.486125 1_555
O22 S2 1.486125 1_555
O23 S3 1.486125 1_555
O24 S0 1.491425 1_555
O25 S1 1.491425 1_555
O26 S2 1.491425 1_555
O27 S3 1.491425 1_555
O28 S0 1.512376 1_556
O29 S1 1.512376 1_554
O30 S2 1.512376 1_555
O31 S3 1.512376 1_555
