# generated using pymatgen
data_Tl2Ag16Te11
_symmetry_space_group_name_H-M   'P 1'
_cell_length_a   11.41134400
_cell_length_b   11.42743869
_cell_length_c   15.43670439
_cell_angle_alpha   111.55314363
_cell_angle_beta   90.01501737
_cell_angle_gamma   119.67940383
_symmetry_Int_Tables_number   1
_chemical_formula_structural   Tl2Ag16Te11
_chemical_formula_sum   'Tl4 Ag32 Te22'
_cell_volume   1584.74161126
_cell_formula_units_Z   2
loop_
 _symmetry_equiv_pos_site_id
 _symmetry_equiv_pos_as_xyz
  1  'x, y, z'
loop_
 _atom_site_type_symbol
 _atom_site_label
 _atom_site_symmetry_multiplicity
 _atom_site_fract_x
 _atom_site_fract_y
 _atom_site_fract_z
 _atom_site_occupancy
  Tl  Tl0  1  0.19126400  0.80403200  0.57806200  1
  Tl  Tl1  1  0.30946800  0.69379000  0.91437800  1
  Tl  Tl2  1  0.69260300  0.30570800  0.09126900  1
  Tl  Tl3  1  0.79147700  0.19624200  0.40501200  1
  Ag  Ag0  1  0.60093700  0.89844400  0.07837200  1
  Ag  Ag1  1  0.23499500  0.18820600  0.22979900  1
  Ag  Ag2  1  0.38486100  0.60594800  0.16375800  1
  Ag  Ag3  1  0.09180100  0.60317600  0.08642700  1
  Ag  Ag4  1  0.68155200  0.72237000  0.27055000  1
  Ag  Ag5  1  0.02102100  0.26321700  0.24041700  1
  Ag  Ag6  1  0.40980600  0.09885600  0.41653600  1
  Ag  Ag7  1  0.48662900  0.98975900  0.24486400  1
  Ag  Ag8  1  0.17897500  0.76767000  0.22993400  1
  Ag  Ag9  1  0.90420100  0.88572700  0.42040500  1
  Ag  Ag10  1  0.88443400  0.40761100  0.57655100  1
  Ag  Ag11  1  0.19627100  0.38812600  0.41311900  1
  Ag  Ag12  1  0.79635100  0.60468400  0.58087000  1
  Ag  Ag13  1  0.38846300  0.20736500  0.58202400  1
  Ag  Ag14  1  0.11092300  0.59966200  0.41869400  1
  Ag  Ag15  1  0.09385600  0.10907600  0.57964100  1
  Ag  Ag16  1  0.82352400  0.22645000  0.77235600  1
  Ag  Ag17  1  0.51399300  0.01273300  0.74704300  1
  Ag  Ag18  1  0.39978100  0.61183100  0.58021300  1
  Ag  Ag19  1  0.59289400  0.90588000  0.57834300  1
  Ag  Ag20  1  0.98634100  0.75220700  0.74647500  1
  Ag  Ag21  1  0.18143700  0.18130200  0.77607500  1
  Ag  Ag22  1  0.91010900  0.38158000  0.92541000  1
  Ag  Ag23  1  0.61002600  0.38328600  0.84531500  1
  Ag  Ag24  1  0.77577600  0.82288600  0.77517100  1
  Ag  Ag25  1  0.25115800  0.48715900  0.75104800  1
  Ag  Ag26  1  0.39732100  0.09494900  0.92029400  1
  Ag  Ag27  1  0.88900700  0.11227000  0.08563900  1
  Ag  Ag28  1  0.61283200  0.59937800  0.92409000  1
  Ag  Ag29  1  0.88554900  0.69720100  0.08223600  1
  Ag  Ag30  1  0.30905500  0.12308300  0.08814600  1
  Ag  Ag31  1  0.88498500  0.11323400  0.65590700  1
  Te  Te0  1  0.04590500  0.95835500  0.13134300  1
  Te  Te1  1  0.48549600  0.74709800  0.74925400  1
  Te  Te2  1  0.01340600  0.51488600  0.75016100  1
  Te  Te3  1  0.25314100  0.98750100  0.74834900  1
  Te  Te4  1  0.61941400  0.65562400  0.09025900  1
  Te  Te5  1  0.14918400  0.38885900  0.07806400  1
  Te  Te6  1  0.33458200  0.86568600  0.08127200  1
  Te  Te7  1  0.87726100  0.63140200  0.41576100  1
  Te  Te8  1  0.45370300  0.55433300  0.36150300  1
  Te  Te9  1  0.16808700  0.11929600  0.41311100  1
  Te  Te10  1  0.62747000  0.17088600  0.58140500  1
  Te  Te11  1  0.37120000  0.83007400  0.41298400  1
  Te  Te12  1  0.82757300  0.87690800  0.58191800  1
  Te  Te13  1  0.55074500  0.45375100  0.64423800  1
  Te  Te14  1  0.12117200  0.37106900  0.58398300  1
  Te  Te15  1  0.66562300  0.12877000  0.91526900  1
  Te  Te16  1  0.87105700  0.61880100  0.91645300  1
  Te  Te17  1  0.37955300  0.33544200  0.91988900  1
  Te  Te18  1  0.75741800  0.01647400  0.25056900  1
  Te  Te19  1  0.97517900  0.47946800  0.25533300  1
  Te  Te20  1  0.51347200  0.25085000  0.24616900  1
  Te  Te21  1  0.95528400  0.04667200  0.86187000  1
loop_
_geom_bond_atom_site_label_1
_geom_bond_atom_site_label_2
_geom_bond_distance
_geom_bond_site_symmetry_2
Ag0 Te18 2.655523 1_565
Ag0 Te6 2.875089 1_555
Ag0 Ag27 2.938251 1_565
Ag0 Te4 2.954854 1_555
Ag0 Ag7 2.962255 1_555
Ag0 Tl1 3.298985 1_554
Ag0 Ag28 3.442322 1_554
Ag1 Te0 2.305988 1_545
Ag1 Ag30 2.340448 1_555
Ag1 Te20 2.878993 1_555
Ag1 Ag5 2.948450 1_555
Ag1 Ag11 3.110144 1_555
Ag1 Te9 3.202089 1_555
Ag1 Te8 3.357702 1_555
Ag2 Te5 2.473248 1_555
Ag2 Te4 2.782746 1_555
Ag2 Ag4 3.142496 1_555
Ag2 Te8 3.473245 1_555
Ag3 Ag8 2.125562 1_555
Ag3 Te5 2.792741 1_555
Ag3 Te6 2.937003 1_555
Ag3 Te19 3.378566 1_455
Ag4 Te4 2.594979 1_555
Ag4 Ag9 2.723698 1_555
Ag4 Te8 3.075286 1_555
Ag4 Te18 3.165501 1_565
Ag5 Te19 2.701047 1_455
Ag5 Te18 2.991482 1_455
Ag5 Te5 3.323799 1_555
Ag6 Ag7 2.828723 1_545
Ag6 Te11 2.857864 1_545
Ag6 Te9 2.883195 1_555
Ag6 Te10 3.123629 1_555
Ag7 Te6 2.515712 1_555
Ag7 Te20 2.836706 1_565
Ag7 Te18 2.948793 1_565
Ag7 Ag8 3.092862 1_555
Ag7 Tl3 3.370712 1_565
Ag8 Te6 3.097588 1_555
Ag8 Te19 3.126192 1_455
Ag8 Te11 3.204975 1_555
Ag9 Te12 2.662603 1_555
Ag9 Te7 2.740120 1_555
Ag9 Te9 2.909676 1_665
Ag10 Te2 2.578465 1_655
Ag10 Tl3 2.594842 1_555
Ag10 Te10 2.866288 1_555
Ag10 Ag12 2.866674 1_555
Ag10 Te14 2.939016 1_655
Ag10 Ag20 3.407906 1_555
Ag11 Ag5 2.741998 1_555
Ag11 Ag18 2.802589 1_555
Ag11 Te14 2.818283 1_555
Ag11 Te8 2.908572 1_555
Ag11 Te9 2.926115 1_555
Ag11 Ag14 2.996334 1_555
Ag12 Ag20 2.699778 1_555
Ag12 Te7 2.781291 1_555
Ag12 Te13 2.870673 1_555
Ag12 Te12 2.944463 1_555
Ag12 Ag24 3.217763 1_555
Ag13 Te13 2.264518 1_555
Ag13 Ag6 2.468772 1_555
Ag13 Te10 2.955592 1_555
Ag13 Ag15 2.965678 1_555
Ag13 Te9 3.114169 1_555
Ag14 Te19 2.447736 1_455
Ag14 Tl0 2.450321 1_555
Ag14 Te11 2.861525 1_555
Ag14 Te7 2.865836 1_455
Ag15 Ag31 2.672428 1_455
Ag15 Ag9 2.675412 1_445
Ag15 Te9 2.731904 1_555
Ag15 Te14 2.827281 1_555
Ag15 Ag21 2.866631 1_555
Ag15 Te12 2.891109 1_445
Ag16 Ag31 2.141861 1_555
Ag16 Ag22 2.210854 1_555
Ag16 Te15 3.029717 1_555
Ag16 Ag17 3.057593 1_555
Ag16 Te2 3.071495 1_655
Ag16 Te10 3.363291 1_555
Ag17 Te15 2.586779 1_555
Ag17 Ag19 2.799462 1_545
Ag17 Te3 2.845781 1_545
Ag17 Te1 2.901712 1_545
Ag17 Ag26 3.033526 1_555
Ag18 Te1 2.386017 1_555
Ag18 Ag19 2.981020 1_555
Ag18 Te14 3.022652 1_555
Ag18 Te8 3.313670 1_555
Ag19 Te10 2.835545 1_565
Ag19 Te12 2.859321 1_555
Ag19 Ag31 2.872322 1_565
Ag19 Te11 3.141325 1_555
Ag20 Ag24 2.877799 1_555
Ag20 Te3 2.887188 1_655
Ag20 Te2 2.897626 1_655
Ag20 Te21 3.376250 1_565
Ag20 Te16 3.448813 1_555
Ag20 Tl0 3.512930 1_655
Ag21 Te17 2.514545 1_555
Ag21 Te3 2.618330 1_545
Ag21 Te21 2.889291 1_455
Ag22 Ag3 2.657583 1_656
Ag22 Te15 2.800005 1_555
Ag22 Te16 3.006322 1_555
Ag23 Ag28 2.300649 1_555
Ag23 Te16 2.685118 1_555
Ag23 Te17 2.753384 1_555
Ag24 Te21 2.196209 1_565
Ag24 Te1 2.964193 1_555
Ag24 Te12 3.259226 1_555
Ag25 Te14 2.479243 1_555
Ag25 Tl1 2.538547 1_555
Ag25 Te1 2.858223 1_555
Ag25 Te2 2.883710 1_555
Ag26 Te3 2.619608 1_545
Ag26 Ag30 2.746194 1_556
Ag26 Te17 2.856272 1_555
Ag26 Te15 2.894762 1_555
Ag26 Tl2 3.377688 1_556
Ag27 Ag5 2.313036 1_655
Ag27 Te5 3.130063 1_655
Ag27 Te18 3.218243 1_555
Ag27 Te0 3.290364 1_645
Ag27 Te21 3.424345 1_554
Ag28 Te4 2.395673 1_556
Ag28 Te17 2.844766 1_555
Ag28 Te16 2.849191 1_555
Ag29 Te16 2.355359 1_554
Ag29 Te0 2.399678 1_655
Ag29 Te4 2.842308 1_555
Ag29 Ag3 3.041952 1_655
Ag30 Te20 2.744271 1_555
Ag30 Te0 2.886347 1_545
Ag30 Te6 3.060568 1_545
Ag31 Te12 2.237900 1_545
Te1 Tl1 3.291664 1_555
Te2 Tl1 3.371580 1_555
Te3 Tl0 2.507566 1_555
Te6 Tl1 2.510361 1_554
Te10 Tl3 3.323595 1_555
Te11 Tl0 3.279189 1_555
Te15 Tl2 2.628947 1_556
Te16 Te2 3.211076 1_655
Te18 Tl3 2.380227 1_555
Te19 Te7 3.026457 1_555
Te19 Tl2 3.273368 1_555
Te20 Tl2 3.181811 1_555
