# generated using pymatgen
data_U2NiAs2(HO)24
_symmetry_space_group_name_H-M   'P 1'
_cell_length_a   7.23674700
_cell_length_b   7.23721592
_cell_length_c   11.31880106
_cell_angle_alpha   82.12850169
_cell_angle_beta   80.28626128
_cell_angle_gamma   88.62599023
_symmetry_Int_Tables_number   1
_chemical_formula_structural   U2NiAs2(HO)24
_chemical_formula_sum   'U2 Ni1 As2 H24 O24'
_cell_volume   578.80489742
_cell_formula_units_Z   1
loop_
 _symmetry_equiv_pos_site_id
 _symmetry_equiv_pos_as_xyz
  1  'x, y, z'
loop_
 _atom_site_type_symbol
 _atom_site_label
 _atom_site_symmetry_multiplicity
 _atom_site_fract_x
 _atom_site_fract_y
 _atom_site_fract_z
 _atom_site_occupancy
  U  U0  1  0.77169000  0.26569800  0.91770100  1
  U  U1  1  0.22831000  0.73430200  0.08229900  1
  Ni  Ni0  1  0.00000000  0.00000000  0.50000000  1
  As  As0  1  0.25341300  0.24892800  0.00113600  1
  As  As1  1  0.74658700  0.75107200  0.99886400  1
  H  H0  1  0.28102000  0.23729200  0.47860200  1
  H  H1  1  0.71898000  0.76270800  0.52139800  1
  H  H2  1  0.25292900  0.13248200  0.61192700  1
  H  H3  1  0.74707100  0.86751800  0.38807300  1
  H  H4  1  0.81659400  0.24520600  0.61225700  1
  H  H5  1  0.18340600  0.75479400  0.38774300  1
  H  H6  1  0.65464600  0.12386200  0.59319100  1
  H  H7  1  0.34535400  0.87613800  0.40680900  1
  H  H8  1  0.06863600  0.74369600  0.68508000  1
  H  H9  1  0.93136400  0.25630400  0.31492000  1
  H  H10  1  0.92791600  0.88987200  0.75082100  1
  H  H11  1  0.07208400  0.11012800  0.24917900  1
  H  H12  1  0.55635400  0.89322000  0.23285400  1
  H  H13  1  0.44364600  0.10678000  0.76714600  1
  H  H14  1  0.53141100  0.07604800  0.29915100  1
  H  H15  1  0.46858900  0.92395200  0.70084900  1
  H  H16  1  0.16653500  0.45805300  0.77322400  1
  H  H17  1  0.83346500  0.54194700  0.22677600  1
  H  H18  1  0.18254700  0.46107000  0.63392600  1
  H  H19  1  0.81745300  0.53893000  0.36607400  1
  H  H20  1  0.43435000  0.63099800  0.67572400  1
  H  H21  1  0.56565000  0.36900200  0.32427600  1
  H  H22  1  0.62338000  0.64622600  0.72709900  1
  H  H23  1  0.37662000  0.35377400  0.27290100  1
  O  O0  1  0.46121800  0.22476400  0.90524300  1
  O  O1  1  0.53878200  0.77523600  0.09475700  1
  O  O2  1  0.08780800  0.30428200  0.90903800  1
  O  O3  1  0.91219200  0.69571800  0.09096200  1
  O  O4  1  0.19208000  0.04793800  0.09915000  1
  O  O5  1  0.80792000  0.95206200  0.90085000  1
  O  O6  1  0.26881600  0.42082200  0.08918300  1
  O  O7  1  0.73118400  0.57917800  0.91081700  1
  O  O8  1  0.72777600  0.22330200  0.08201700  1
  O  O9  1  0.27222400  0.77669800  0.91798300  1
  O  O10  1  0.81910100  0.31284500  0.75264000  1
  O  O11  1  0.18089900  0.68715500  0.24736000  1
  O  O12  1  0.18268000  0.19611400  0.54920700  1
  O  O13  1  0.81732000  0.80388600  0.45079300  1
  O  O14  1  0.77952700  0.17452500  0.55107300  1
  O  O15  1  0.22047300  0.82547500  0.44892700  1
  O  O16  1  0.98767400  0.85506900  0.67217400  1
  O  O17  1  0.01232600  0.14493100  0.32782600  1
  O  O18  1  0.55436100  0.93887700  0.31133200  1
  O  O19  1  0.44563900  0.06112300  0.68866800  1
  O  O20  1  0.20635000  0.53788800  0.69475500  1
  O  O21  1  0.79365000  0.46211200  0.30524500  1
  O  O22  1  0.55318300  0.70329900  0.66479400  1
  O  O23  1  0.44681700  0.29670100  0.33520600  1
loop_
_geom_bond_atom_site_label_1
_geom_bond_atom_site_label_2
_geom_bond_distance
_geom_bond_site_symmetry_2
Ni0 O14 2.065742 1_455
Ni0 O15 2.065742 1_545
Ni0 O16 2.071694 1_445
Ni0 O17 2.071694 1_555
Ni0 O12 2.151130 1_555
Ni0 O13 2.151130 1_445
As0 O6 1.713753 1_555
As0 O0 1.720101 1_554
As0 O4 1.722338 1_555
As0 O2 1.722672 1_554
As1 O7 1.713753 1_555
As1 O1 1.720101 1_556
As1 O5 1.722338 1_555
As1 O3 1.722672 1_556
H0 O12 0.993456 1_555
H1 O13 0.993456 1_555
H2 O12 0.997754 1_555
H3 O13 0.997754 1_555
H4 O14 0.989706 1_555
H4 O10 1.728577 1_555
H5 O15 0.989706 1_555
H5 O11 1.728577 1_555
H6 O14 1.000533 1_555
H7 O15 1.000533 1_555
H8 O16 0.994127 1_455
H9 O17 0.994127 1_655
H10 O16 0.984469 1_555
H11 O17 0.984469 1_555
H12 O18 0.987051 1_555
H13 O19 0.987051 1_555
H14 O18 0.997220 1_545
H15 O19 0.997220 1_565
H16 O20 0.993365 1_555
H17 O21 0.993365 1_555
H18 O20 0.980947 1_555
H19 O21 0.980947 1_555
H20 O22 0.998294 1_555
H21 O23 0.998294 1_555
H22 O22 0.978288 1_555
H23 O23 0.978288 1_555
O0 U0 2.303490 1_555
O1 U1 2.303490 1_555
O2 U0 2.295310 1_455
O3 U1 2.295310 1_655
O4 U1 2.308791 1_545
O5 U0 2.308791 1_565
O6 U1 2.272992 1_555
O7 U0 2.272992 1_555
O8 U0 1.817453 1_554
O9 U1 1.817453 1_556
O10 U0 1.827390 1_555
O11 U1 1.827390 1_555
