# generated using pymatgen
data_VSn3
_symmetry_space_group_name_H-M   'P 1'
_cell_length_a   6.23844625
_cell_length_b   6.23844625
_cell_length_c   5.36687400
_cell_angle_alpha   90.00000000
_cell_angle_beta   90.00000000
_cell_angle_gamma   120.00000261
_symmetry_Int_Tables_number   1
_chemical_formula_structural   VSn3
_chemical_formula_sum   'V2 Sn6'
_cell_volume   180.88597461
_cell_formula_units_Z   2
loop_
 _symmetry_equiv_pos_site_id
 _symmetry_equiv_pos_as_xyz
  1  'x, y, z'
loop_
 _atom_site_type_symbol
 _atom_site_label
 _atom_site_symmetry_multiplicity
 _atom_site_fract_x
 _atom_site_fract_y
 _atom_site_fract_z
 _atom_site_occupancy
  V  V0  1  0.33333300  0.66666700  0.75000000  1
  V  V1  1  0.66666700  0.33333300  0.25000000  1
  Sn  Sn0  1  0.17298600  0.34597200  0.25000000  1
  Sn  Sn1  1  0.65402800  0.82701400  0.25000000  1
  Sn  Sn2  1  0.17298600  0.82701400  0.25000000  1
  Sn  Sn3  1  0.82701400  0.65402800  0.75000000  1
  Sn  Sn4  1  0.34597200  0.17298600  0.75000000  1
  Sn  Sn5  1  0.82701400  0.17298600  0.75000000  1
loop_
_geom_bond_atom_site_label_1
_geom_bond_atom_site_label_2
_geom_bond_distance
_geom_bond_site_symmetry_2
Sn0 Sn1 3.000955 1_555
Sn0 Sn2 3.000955 1_555
Sn0 V1 3.119967 1_455
Sn0 V1 3.119974 1_555
Sn0 V0 3.194174 1_555
Sn0 V0 3.194174 1_554
Sn0 Sn1 3.237491 1_445
Sn0 Sn2 3.237492 1_545
Sn0 Sn5 3.270263 1_455
Sn0 Sn5 3.270263 1_454
Sn0 Sn4 3.270263 1_555
Sn0 Sn4 3.270263 1_554
Sn1 Sn2 3.000955 1_555
Sn1 V1 3.119967 1_565
Sn1 V1 3.119974 1_555
Sn1 V0 3.194174 1_555
Sn1 V0 3.194174 1_554
Sn1 Sn2 3.237492 1_655
Sn1 Sn5 3.270263 1_564
Sn1 Sn5 3.270263 1_565
Sn1 Sn3 3.270263 1_555
Sn1 Sn3 3.270263 1_554
Sn2 V1 3.119970 1_455
Sn2 V1 3.119970 1_565
Sn2 V0 3.194171 1_555
Sn2 V0 3.194171 1_554
Sn2 Sn4 3.270263 1_565
Sn2 Sn4 3.270263 1_564
Sn2 Sn3 3.270263 1_455
Sn2 Sn3 3.270263 1_454
Sn3 Sn4 3.000955 1_555
Sn3 Sn5 3.000955 1_555
Sn3 V0 3.119967 1_655
Sn3 V0 3.119974 1_555
Sn3 V1 3.194174 1_555
Sn3 V1 3.194174 1_556
Sn3 Sn4 3.237491 1_665
Sn3 Sn5 3.237492 1_565
Sn4 Sn5 3.000955 1_555
Sn4 V0 3.119967 1_545
Sn4 V0 3.119974 1_555
Sn4 V1 3.194174 1_556
Sn4 V1 3.194174 1_555
Sn4 Sn5 3.237492 1_455
Sn5 V0 3.119970 1_545
Sn5 V0 3.119970 1_655
Sn5 V1 3.194171 1_555
Sn5 V1 3.194171 1_556
