# generated using pymatgen
data_CeSnRh
_symmetry_space_group_name_H-M   'P 1'
_cell_length_a   7.46517599
_cell_length_b   7.46223439
_cell_length_c   4.08502874
_cell_angle_alpha   90.00000000
_cell_angle_beta   90.00000000
_cell_angle_gamma   119.98696286
_symmetry_Int_Tables_number   1
_chemical_formula_structural   CeSnRh
_chemical_formula_sum   'Ce3 Sn3 Rh3'
_cell_volume   197.10231423
_cell_formula_units_Z   3
loop_
 _symmetry_equiv_pos_site_id
 _symmetry_equiv_pos_as_xyz
  1  'x, y, z'
loop_
 _atom_site_type_symbol
 _atom_site_label
 _atom_site_symmetry_multiplicity
 _atom_site_fract_x
 _atom_site_fract_y
 _atom_site_fract_z
 _atom_site_occupancy
  Ce  Ce0  1  -0.00000000  0.41424787  -0.00000000  1
  Ce  Ce1  1  0.58596053  0.58574362  0.00000000  1
  Ce  Ce2  1  0.41403947  -0.00021591  0.00000000  1
  Sn  Sn0  1  0.25085515  0.25077388  0.50000000  1
  Sn  Sn1  1  0.00000000  0.74922208  0.50000000  1
  Sn  Sn2  1  0.74914485  -0.00008027  0.50000000  1
  Rh  Rh0  1  0.66692012  0.33359884  0.50000000  1
  Rh  Rh1  1  0.33307988  0.66667972  0.50000000  1
  Rh  Rh2  1  0.00000000  0.00003116  -0.00000000  1
loop_
_geom_bond_atom_site_label_1
_geom_bond_atom_site_label_2
_geom_bond_distance
_geom_bond_site_symmetry_2
Ce0 Rh0 3.036593 1_455
Ce0 Rh0 3.036593 1_454
Ce0 Rh1 3.036594 1_555
Ce0 Rh1 3.036594 1_554
Ce0 Rh2 3.090982 1_555
Ce0 Sn1 3.228025 1_554
Ce0 Sn1 3.228025 1_555
Ce0 Sn2 3.383845 1_455
Ce0 Sn2 3.383845 1_454
Ce0 Sn0 3.383850 1_554
Ce0 Sn0 3.383850 1_555
Ce1 Rh0 3.035481 1_555
Ce1 Rh0 3.035481 1_554
Ce1 Rh1 3.039759 1_555
Ce1 Rh1 3.039759 1_554
Ce1 Rh2 3.091803 1_665
Ce1 Sn0 3.229155 1_555
Ce1 Sn0 3.229155 1_554
Ce1 Sn1 3.382966 1_654
Ce1 Sn1 3.382966 1_655
Ce1 Sn2 3.382986 1_564
Ce1 Sn2 3.382986 1_565
Ce2 Rh1 3.035481 1_544
Ce2 Rh1 3.035481 1_545
Ce2 Rh0 3.039751 1_554
Ce2 Rh0 3.039751 1_555
Ce2 Rh2 3.091799 1_555
Ce2 Sn2 3.229155 1_555
Ce2 Sn2 3.229155 1_554
Ce2 Sn1 3.382967 1_544
Ce2 Sn1 3.382967 1_545
Ce2 Sn0 3.382975 1_554
Ce2 Sn0 3.382975 1_555
Rh0 Sn1 2.844831 1_655
Rh0 Sn2 2.846866 1_555
Rh0 Sn0 2.847857 1_555
Rh1 Sn1 2.844826 1_555
Rh1 Sn0 2.846881 1_555
Rh1 Sn2 2.847857 1_565
Rh2 Sn1 2.770332 1_544
Rh2 Sn1 2.770332 1_545
Rh2 Sn0 2.770779 1_555
Rh2 Sn0 2.770779 1_554
Rh2 Sn2 2.770782 1_454
Rh2 Sn2 2.770782 1_455
