# generated using pymatgen
data_Mg14BW
_symmetry_space_group_name_H-M   'P 1'
_cell_length_a   6.15637805
_cell_length_b   6.06938182
_cell_length_c   9.98741471
_cell_angle_alpha   90.00000000
_cell_angle_beta   90.00000000
_cell_angle_gamma   119.53364337
_symmetry_Int_Tables_number   1
_chemical_formula_structural   Mg14BW
_chemical_formula_sum   'Mg14 B1 W1'
_cell_volume   324.69471699
_cell_formula_units_Z   1
loop_
 _symmetry_equiv_pos_site_id
 _symmetry_equiv_pos_as_xyz
  1  'x, y, z'
loop_
 _atom_site_type_symbol
 _atom_site_label
 _atom_site_symmetry_multiplicity
 _atom_site_fract_x
 _atom_site_fract_y
 _atom_site_fract_z
 _atom_site_occupancy
  Mg  Mg0  1  0.16965622  0.33482761  0.62500000  1
  Mg  Mg1  1  0.16799330  0.83399615  0.62500000  1
  Mg  Mg2  1  0.67274957  0.33427985  0.12500000  1
  Mg  Mg3  1  0.66277656  0.33196789  0.62500000  1
  Mg  Mg4  1  0.67274957  0.83846872  0.12500000  1
  Mg  Mg5  1  0.66277656  0.83080767  0.62500000  1
  Mg  Mg6  1  0.32505005  0.16016389  0.35233936  1
  Mg  Mg7  1  0.32505005  0.16016389  0.89766064  1
  Mg  Mg8  1  0.32505005  0.66488716  0.35233936  1
  Mg  Mg9  1  0.32505005  0.66488716  0.89766064  1
  Mg  Mg10  1  0.84354089  0.17177094  0.36920340  1
  Mg  Mg11  1  0.84354089  0.17177094  0.88079660  1
  Mg  Mg12  1  0.84422712  0.67211406  0.36470360  1
  Mg  Mg13  1  0.84422712  0.67211406  0.88529640  1
  B  B0  1  0.15697051  0.82848475  0.12500000  1
  W  W0  1  0.15859147  0.32929524  0.12500000  1
loop_
_geom_bond_atom_site_label_1
_geom_bond_atom_site_label_2
_geom_bond_distance
_geom_bond_site_symmetry_2
Mg0 Mg1 3.034704 1_545
Mg0 Mg1 3.034704 1_555
Mg0 Mg5 3.044428 1_555
Mg0 Mg3 3.044428 1_555
Mg0 Mg11 3.094854 1_455
Mg0 Mg10 3.094854 1_455
Mg0 Mg5 3.112023 1_445
Mg0 Mg3 3.112024 1_455
Mg0 Mg6 3.233346 1_555
Mg0 Mg7 3.233346 1_555
Mg0 Mg8 3.233352 1_555
Mg0 Mg9 3.233352 1_555
Mg1 Mg3 3.055658 1_565
Mg1 Mg5 3.055659 1_555
Mg1 Mg3 3.100811 1_455
Mg1 Mg5 3.100812 1_455
Mg1 Mg13 3.125055 1_455
Mg1 Mg12 3.125055 1_455
Mg1 Mg9 3.222179 1_555
Mg1 Mg8 3.222179 1_555
Mg1 Mg6 3.222185 1_565
Mg1 Mg7 3.222185 1_565
Mg2 W0 3.006055 1_655
Mg2 W0 3.150549 1_555
Mg3 Mg5 3.027649 1_555
Mg3 Mg5 3.041733 1_545
Mg3 Mg6 3.269334 1_555
Mg3 Mg7 3.269334 1_555
Mg4 W0 3.006054 1_665
Mg4 W0 3.150548 1_555
Mg5 Mg8 3.269334 1_555
Mg5 Mg9 3.269334 1_555
Mg6 W0 2.880337 1_555
Mg7 W0 2.880337 1_556
Mg8 W0 2.880343 1_555
Mg9 W0 2.880343 1_556
Mg10 W0 2.965868 1_655
Mg10 Mg12 3.035026 1_545
Mg10 Mg12 3.035026 1_555
Mg10 Mg3 3.126862 1_555
Mg10 Mg5 3.126868 1_545
Mg11 W0 2.965868 1_656
Mg11 Mg13 3.035026 1_545
Mg11 Mg13 3.035026 1_555
Mg11 Mg3 3.126862 1_555
Mg11 Mg5 3.126868 1_545
Mg12 Mg6 2.984549 1_665
Mg12 Mg8 2.984549 1_655
Mg12 Mg4 2.985976 1_555
Mg12 Mg2 2.985982 1_555
Mg12 Mg5 3.161436 1_555
Mg12 Mg3 3.161442 1_555
Mg12 Mg6 3.177259 1_555
Mg12 Mg8 3.177259 1_555
Mg13 Mg7 2.984549 1_665
Mg13 Mg9 2.984549 1_655
Mg13 Mg4 2.985976 1_556
Mg13 Mg2 2.985982 1_556
Mg13 Mg5 3.161436 1_555
Mg13 Mg3 3.161442 1_555
Mg13 Mg7 3.177259 1_555
Mg13 Mg9 3.177259 1_555
B0 Mg9 2.867909 1_554
B0 Mg8 2.867909 1_555
B0 Mg7 2.867916 1_564
B0 Mg6 2.867916 1_565
B0 Mg12 2.921919 1_455
B0 Mg13 2.921919 1_454
B0 Mg2 3.011379 1_455
B0 Mg4 3.011379 1_455
B0 W0 3.034703 1_555
B0 W0 3.034703 1_565
