# generated using pymatgen
data_Lu(BRh)4
_symmetry_space_group_name_H-M   'P 1'
_cell_length_a   5.32565700
_cell_length_b   5.32565700
_cell_length_c   7.42021500
_cell_angle_alpha   90.00000000
_cell_angle_beta   90.00000000
_cell_angle_gamma   90.00000000
_symmetry_Int_Tables_number   1
_chemical_formula_structural   Lu(BRh)4
_chemical_formula_sum   'Lu2 B8 Rh8'
_cell_volume   210.45675678
_cell_formula_units_Z   2
loop_
 _symmetry_equiv_pos_site_id
 _symmetry_equiv_pos_as_xyz
  1  'x, y, z'
loop_
 _atom_site_type_symbol
 _atom_site_label
 _atom_site_symmetry_multiplicity
 _atom_site_fract_x
 _atom_site_fract_y
 _atom_site_fract_z
 _atom_site_occupancy
  Lu  Lu0  1  0.00000000  0.00000000  0.00000000  1
  Lu  Lu1  1  0.50000000  0.50000000  0.50000000  1
  B  B0  1  0.83127200  0.50000000  0.14949500  1
  B  B1  1  0.16872800  0.50000000  0.14949500  1
  B  B2  1  0.00000000  0.33127200  0.64949500  1
  B  B3  1  0.00000000  0.66872800  0.64949500  1
  B  B4  1  0.66872800  0.00000000  0.35050500  1
  B  B5  1  0.33127200  0.00000000  0.35050500  1
  B  B6  1  0.50000000  0.16872800  0.85050500  1
  B  B7  1  0.50000000  0.83127200  0.85050500  1
  Rh  Rh0  1  0.25094100  0.50000000  0.85411100  1
  Rh  Rh1  1  0.74905900  0.50000000  0.85411100  1
  Rh  Rh2  1  0.00000000  0.75094100  0.35411100  1
  Rh  Rh3  1  0.00000000  0.24905900  0.35411100  1
  Rh  Rh4  1  0.24905900  0.00000000  0.64588900  1
  Rh  Rh5  1  0.75094100  0.00000000  0.64588900  1
  Rh  Rh6  1  0.50000000  0.74905900  0.14588900  1
  Rh  Rh7  1  0.50000000  0.25094100  0.14588900  1
loop_
_geom_bond_atom_site_label_1
_geom_bond_atom_site_label_2
_geom_bond_distance
_geom_bond_site_symmetry_2
Lu0 Rh3 2.943386 1_555
Lu0 Rh2 2.943386 1_545
Lu0 Rh4 2.943386 1_554
Lu0 Rh5 2.943386 1_454
Lu0 Rh0 3.169946 1_544
Lu0 Rh7 3.169946 1_555
Lu0 Rh7 3.169946 1_455
Lu0 Rh0 3.169946 1_554
Lu0 Rh6 3.169946 1_445
Lu0 Rh6 3.169946 1_545
Lu0 Rh1 3.169946 1_444
Lu0 Rh1 3.169946 1_454
Lu1 Rh6 2.943386 1_555
Lu1 Rh1 2.943386 1_555
Lu1 Rh0 2.943386 1_555
Lu1 Rh7 2.943386 1_555
Lu1 Rh4 3.169946 1_565
Lu1 Rh4 3.169946 1_555
Lu1 Rh5 3.169946 1_565
Lu1 Rh5 3.169946 1_555
Lu1 Rh3 3.169946 1_555
Lu1 Rh2 3.169946 1_555
Lu1 Rh3 3.169946 1_655
Lu1 Rh2 3.169946 1_655
B0 B1 1.797175 1_655
B0 Rh6 2.207398 1_555
B0 Rh7 2.207398 1_555
B0 Rh2 2.213303 1_655
B0 Rh3 2.213303 1_655
B0 Rh1 2.235116 1_554
B0 Lu0 3.021362 1_655
B0 Lu0 3.021362 1_665
B0 Lu1 3.142741 1_555
B1 Rh6 2.207398 1_555
B1 Rh7 2.207398 1_555
B1 Rh2 2.213303 1_555
B1 Rh3 2.213303 1_555
B1 Rh0 2.235116 1_554
B1 Lu0 3.021362 1_555
B1 Lu0 3.021362 1_565
B1 Lu1 3.142741 1_555
B2 B3 1.797175 1_555
B2 Rh5 2.207398 1_455
B2 Rh4 2.207398 1_555
B2 Rh0 2.213303 1_555
B2 Rh1 2.213303 1_455
B2 Rh3 2.235116 1_555
B2 Lu1 3.021362 1_455
B2 Lu1 3.021362 1_555
B2 Lu0 3.142741 1_556
B3 Rh5 2.207398 1_465
B3 Rh4 2.207398 1_565
B3 Rh0 2.213303 1_555
B3 Rh1 2.213303 1_455
B3 Rh2 2.235116 1_555
B3 Lu1 3.021362 1_455
B3 Lu1 3.021362 1_555
B3 Lu0 3.142741 1_566
B4 B5 1.797175 1_555
B4 Rh3 2.207398 1_655
B4 Rh2 2.207398 1_645
B4 Rh7 2.213303 1_555
B4 Rh6 2.213303 1_545
B4 Rh5 2.235116 1_555
B4 Lu1 3.021362 1_545
B4 Lu1 3.021362 1_555
B4 Lu0 3.142741 1_655
B5 Rh2 2.207398 1_545
B5 Rh3 2.207398 1_555
B5 Rh7 2.213303 1_555
B5 Rh6 2.213303 1_545
B5 Rh4 2.235116 1_555
B5 Lu1 3.021362 1_545
B5 Lu1 3.021362 1_555
B5 Lu0 3.142741 1_555
B6 B7 1.797175 1_545
B6 Rh1 2.207398 1_555
B6 Rh0 2.207398 1_555
B6 Rh5 2.213303 1_555
B6 Rh4 2.213303 1_555
B6 Rh7 2.235116 1_556
B6 Lu0 3.021362 1_656
B6 Lu0 3.021362 1_556
B6 Lu1 3.142741 1_555
B7 Rh1 2.207398 1_555
B7 Rh0 2.207398 1_555
B7 Rh4 2.213303 1_565
B7 Rh5 2.213303 1_565
B7 Rh6 2.235116 1_556
B7 Lu0 3.021362 1_566
B7 Lu0 3.021362 1_666
B7 Lu1 3.142741 1_555
