# generated using pymatgen
data_Y4Si3O11F2
_symmetry_space_group_name_H-M   'P 1'
_cell_length_a   6.56269400
_cell_length_b   6.68647389
_cell_length_c   13.42845001
_cell_angle_alpha   87.58115586
_cell_angle_beta   85.78703885
_cell_angle_gamma   60.84962804
_symmetry_Int_Tables_number   1
_chemical_formula_structural   Y4Si3O11F2
_chemical_formula_sum   'Y8 Si6 O22 F4'
_cell_volume   513.22026387
_cell_formula_units_Z   2
loop_
 _symmetry_equiv_pos_site_id
 _symmetry_equiv_pos_as_xyz
  1  'x, y, z'
loop_
 _atom_site_type_symbol
 _atom_site_label
 _atom_site_symmetry_multiplicity
 _atom_site_fract_x
 _atom_site_fract_y
 _atom_site_fract_z
 _atom_site_occupancy
  Y  Y0  1  0.67659700  0.61998400  0.79684000  1
  Y  Y1  1  0.32340300  0.38001600  0.20316000  1
  Y  Y2  1  0.06048200  0.72627700  0.97281600  1
  Y  Y3  1  0.93951800  0.27372300  0.02718400  1
  Y  Y4  1  0.78089400  0.78693300  0.47087000  1
  Y  Y5  1  0.21910600  0.21306700  0.52913000  1
  Y  Y6  1  0.17998000  0.69314100  0.67044400  1
  Y  Y7  1  0.82002000  0.30685900  0.32955600  1
  Si  Si0  1  0.50853700  0.74855200  0.06543700  1
  Si  Si1  1  0.49146300  0.25144800  0.93456300  1
  Si  Si2  1  0.76604200  0.84666400  0.21665200  1
  Si  Si3  1  0.23395800  0.15333600  0.78334800  1
  Si  Si4  1  0.73242900  0.26978300  0.57926100  1
  Si  Si5  1  0.26757100  0.73021700  0.42073900  1
  O  O0  1  0.73423700  0.66182100  0.98015300  1
  O  O1  1  0.26576300  0.33817900  0.01984700  1
  O  O2  1  0.74704100  0.09624000  0.98136300  1
  O  O3  1  0.25295900  0.90376000  0.01863700  1
  O  O4  1  0.44540000  0.49907700  0.88679400  1
  O  O5  1  0.55460000  0.50092300  0.11320600  1
  O  O6  1  0.53504500  0.90125600  0.15232300  1
  O  O7  1  0.46495500  0.09874400  0.84767700  1
  O  O8  1  0.79571500  0.67654300  0.31272100  1
  O  O9  1  0.20428500  0.32345700  0.68727900  1
  O  O10  1  0.31436000  0.88957000  0.75299000  1
  O  O11  1  0.68564000  0.11043000  0.24701000  1
  O  O12  1  0.99353400  0.28428500  0.85557500  1
  O  O13  1  0.00646600  0.71571500  0.14442500  1
  O  O14  1  0.59445800  0.15973700  0.52180600  1
  O  O15  1  0.40554200  0.84026300  0.47819400  1
  O  O16  1  0.57768500  0.45427900  0.66735600  1
  O  O17  1  0.42231500  0.54572100  0.33264400  1
  O  O18  1  0.17373400  0.59451800  0.50701700  1
  O  O19  1  0.82626600  0.40548200  0.49298300  1
  O  O20  1  0.98417400  0.06268900  0.61277000  1
  O  O21  1  0.01582600  0.93731100  0.38723000  1
  F  F0  1  0.96316500  0.73229500  0.81419900  1
  F  F1  1  0.03683500  0.26770500  0.18580100  1
  F  F2  1  0.79794800  0.73835700  0.64480600  1
  F  F3  1  0.20205200  0.26164300  0.35519400  1
loop_
_geom_bond_atom_site_label_1
_geom_bond_atom_site_label_2
_geom_bond_distance
_geom_bond_site_symmetry_2
O0 Si0 1.676848 1_556
O0 Y3 2.351324 1_556
O0 Y2 2.375691 1_655
O0 Y0 2.564936 1_555
O1 Si1 1.676848 1_554
O1 Y2 2.351324 1_554
O1 Y3 2.375691 1_455
O1 Y1 2.564936 1_555
O2 Si1 1.639904 1_555
O2 Y3 2.240256 1_556
O2 Y2 2.322909 1_645
O3 Si0 1.639904 1_555
O3 Y2 2.240256 1_554
O3 Y3 2.322909 1_465
O4 Si1 1.641838 1_555
O4 Y0 2.293055 1_555
O4 Y2 2.450348 1_555
O5 Si0 1.641838 1_555
O5 Y1 2.293055 1_555
O5 Y3 2.450348 1_555
O6 Si0 1.654547 1_555
O6 Si2 1.674605 1_555
O6 Y1 2.890762 1_565
O7 Si1 1.654547 1_555
O7 Si3 1.674605 1_555
O7 Y0 2.890762 1_545
O8 Si2 1.641141 1_555
O8 Y4 2.257518 1_555
O8 Y7 2.400160 1_555
O9 Si3 1.641141 1_555
O9 Y5 2.257518 1_555
O9 Y6 2.400160 1_555
O10 Si3 1.636338 1_565
O10 Y6 2.264163 1_555
O10 Y0 2.277886 1_555
O11 Si2 1.636338 1_545
O11 Y7 2.264163 1_555
O11 Y1 2.277886 1_555
O12 Si3 1.642510 1_655
O12 Y3 2.309055 1_556
O12 Y0 2.351593 1_555
O13 Si2 1.642510 1_455
O13 Y2 2.309055 1_554
O13 Y1 2.351593 1_555
O14 Si4 1.660176 1_555
O14 Y4 2.286552 1_545
O14 Y5 2.305733 1_555
O15 Si5 1.660176 1_555
O15 Y5 2.286552 1_565
O15 Y4 2.305733 1_555
O16 Si4 1.636698 1_555
O16 Y6 2.300741 1_555
O16 Y0 2.387768 1_555
O17 Si5 1.636698 1_555
O17 Y7 2.300741 1_555
O17 Y1 2.387768 1_555
O18 Si5 1.701651 1_555
O18 Y6 2.326884 1_555
O18 Y4 2.331787 1_455
O18 Y5 2.427220 1_555
O19 Si4 1.701651 1_555
O19 Y7 2.326884 1_555
O19 Y5 2.331787 1_655
O19 Y4 2.427220 1_555
O20 Si4 1.636266 1_555
O20 Y6 2.290880 1_645
O20 Y5 2.410422 1_655
O21 Si5 1.636266 1_555
O21 Y7 2.290880 1_465
O21 Y4 2.410422 1_455
F0 Y6 2.257389 1_655
F0 Y2 2.261399 1_655
F0 Y0 2.368592 1_555
F1 Y7 2.257389 1_455
F1 Y3 2.261399 1_455
F1 Y1 2.368592 1_555
F2 Y4 2.347857 1_555
F2 Y0 2.380663 1_555
F2 Y6 2.423915 1_655
F3 Y5 2.347857 1_555
F3 Y1 2.380663 1_555
F3 Y7 2.423915 1_455
