# generated using pymatgen
data_Ta4NiP
_symmetry_space_group_name_H-M   'P 1'
_cell_length_a   4.97278800
_cell_length_b   6.15884700
_cell_length_c   6.15884700
_cell_angle_alpha   90.00000000
_cell_angle_beta   90.00000000
_cell_angle_gamma   90.00000000
_symmetry_Int_Tables_number   1
_chemical_formula_structural   Ta4NiP
_chemical_formula_sum   'Ta8 Ni2 P2'
_cell_volume   188.62479269
_cell_formula_units_Z   2
loop_
 _symmetry_equiv_pos_site_id
 _symmetry_equiv_pos_as_xyz
  1  'x, y, z'
loop_
 _atom_site_type_symbol
 _atom_site_label
 _atom_site_symmetry_multiplicity
 _atom_site_fract_x
 _atom_site_fract_y
 _atom_site_fract_z
 _atom_site_occupancy
  Ta  Ta0  1  0.50000000  0.66221300  0.16260300  1
  Ta  Ta1  1  0.50000000  0.33778700  0.83739700  1
  Ta  Ta2  1  0.50000000  0.83739700  0.66221300  1
  Ta  Ta3  1  0.50000000  0.16260300  0.33778700  1
  Ta  Ta4  1  0.00000000  0.33778700  0.16260300  1
  Ta  Ta5  1  0.00000000  0.66221300  0.83739700  1
  Ta  Ta6  1  0.00000000  0.16260300  0.66221300  1
  Ta  Ta7  1  0.00000000  0.83739700  0.33778700  1
  Ni  Ni0  1  0.25000000  0.00000000  0.00000000  1
  Ni  Ni1  1  0.75000000  0.00000000  0.00000000  1
  P  P0  1  0.25000000  0.50000000  0.50000000  1
  P  P1  1  0.75000000  0.50000000  0.50000000  1
loop_
_geom_bond_atom_site_label_1
_geom_bond_atom_site_label_2
_geom_bond_distance
_geom_bond_site_symmetry_2
Ni0 Ni1 2.486394 1_455
Ni0 Ni1 2.486394 1_555
Ni0 Ta6 2.622291 1_554
Ni0 Ta5 2.622291 1_544
Ni0 Ta0 2.622291 1_545
Ni0 Ta2 2.622291 1_544
Ni0 Ta1 2.622291 1_554
Ni0 Ta7 2.622291 1_545
Ni0 Ta4 2.622291 1_555
Ni0 Ta3 2.622291 1_555
Ni1 Ta5 2.622291 1_644
Ni1 Ta0 2.622291 1_545
Ni1 Ta2 2.622291 1_544
Ni1 Ta6 2.622291 1_654
Ni1 Ta1 2.622291 1_554
Ni1 Ta7 2.622291 1_645
Ni1 Ta4 2.622291 1_655
Ni1 Ta3 2.622291 1_555
P0 P1 2.486394 1_555
P0 P1 2.486394 1_455
P0 Ta7 2.619469 1_555
P0 Ta2 2.619469 1_555
P0 Ta5 2.619469 1_555
P0 Ta1 2.619469 1_555
P0 Ta0 2.619469 1_555
P0 Ta6 2.619469 1_555
P0 Ta3 2.619469 1_555
P0 Ta4 2.619469 1_555
P1 Ta7 2.619469 1_655
P1 Ta2 2.619469 1_555
P1 Ta5 2.619469 1_655
P1 Ta1 2.619469 1_555
P1 Ta0 2.619469 1_555
P1 Ta3 2.619469 1_555
P1 Ta6 2.619469 1_655
P1 Ta4 2.619469 1_655
