# generated using pymatgen
data_TaCr3(CuS4)2
_symmetry_space_group_name_H-M   'P 1'
_cell_length_a   6.02638100
_cell_length_b   6.96944115
_cell_length_c   12.81345838
_cell_angle_alpha   92.22100163
_cell_angle_beta   101.84349305
_cell_angle_gamma   90.09282336
_symmetry_Int_Tables_number   1
_chemical_formula_structural   TaCr3(CuS4)2
_chemical_formula_sum   'Ta2 Cr6 Cu4 S16'
_cell_volume   526.29418920
_cell_formula_units_Z   2
loop_
 _symmetry_equiv_pos_site_id
 _symmetry_equiv_pos_as_xyz
  1  'x, y, z'
loop_
 _atom_site_type_symbol
 _atom_site_label
 _atom_site_symmetry_multiplicity
 _atom_site_fract_x
 _atom_site_fract_y
 _atom_site_fract_z
 _atom_site_occupancy
  Ta  Ta0  1  0.76650000  0.98381400  0.75256600  1
  Ta  Ta1  1  0.74189900  0.73822400  0.24966800  1
  Cr  Cr0  1  0.25131500  0.00033200  0.25260200  1
  Cr  Cr1  1  0.74469700  0.50140600  0.74102300  1
  Cr  Cr2  1  0.25547300  0.51132500  0.24925200  1
  Cr  Cr3  1  0.24993900  0.75015500  0.74977100  1
  Cr  Cr4  1  0.75333300  0.25821600  0.25189100  1
  Cr  Cr5  1  0.24901300  0.24670100  0.75089500  1
  Cu  Cu0  1  0.51459700  0.05948600  0.03322000  1
  Cu  Cu1  1  0.98002500  0.41698300  0.47544700  1
  Cu  Cu2  1  0.65241400  0.99612200  0.53592200  1
  Cu  Cu3  1  0.82566900  0.50839900  0.95884000  1
  S  S0  1  0.52411000  0.74137700  0.63324100  1
  S  S1  1  0.13671500  0.26883700  0.35253600  1
  S  S2  1  0.96075800  0.26306400  0.85744800  1
  S  S3  1  0.36496200  0.74958100  0.13641300  1
  S  S4  1  0.97400800  0.75010800  0.86623000  1
  S  S5  1  0.37282800  0.24355300  0.15004200  1
  S  S6  1  0.53236900  0.24232100  0.64149600  1
  S  S7  1  0.13251500  0.75960700  0.35903200  1
  S  S8  1  0.46092800  0.00521300  0.85983300  1
  S  S9  1  0.86698200  0.00018300  0.14403000  1
  S  S10  1  0.04188700  0.48985400  0.64626100  1
  S  S11  1  0.63451900  0.51100500  0.36777000  1
  S  S12  1  0.04127300  0.98885400  0.63702800  1
  S  S13  1  0.63014100  0.01506600  0.36072500  1
  S  S14  1  0.46216400  0.50765400  0.85051800  1
  S  S15  1  0.87897000  0.49256200  0.13630200  1
loop_
_geom_bond_atom_site_label_1
_geom_bond_atom_site_label_2
_geom_bond_distance
_geom_bond_site_symmetry_2
Cr0 S5 2.387528 1_555
Cr0 S7 2.400269 1_545
Cr0 S1 2.408315 1_555
Cr0 S13 2.414901 1_555
Cr0 S3 2.441389 1_545
Cr0 S9 2.444817 1_455
Cr1 S10 2.360929 1_655
Cr1 S6 2.380825 1_555
Cr1 S14 2.417731 1_555
Cr1 S0 2.429865 1_555
Cr1 S2 2.466152 1_555
Cr1 S4 2.520835 1_555
Cr2 S1 2.382854 1_555
Cr2 S7 2.401114 1_555
Cr2 S5 2.405908 1_555
Cr2 S3 2.420187 1_555
Cr2 S15 2.428229 1_455
Cr2 S11 2.469917 1_555
Cr3 S14 2.378446 1_555
Cr3 S10 2.397045 1_555
Cr3 S8 2.414085 1_565
Cr3 S12 2.425528 1_555
Cr3 S0 2.443181 1_555
Cr3 S4 2.451633 1_455
Cr4 S5 2.394214 1_555
Cr4 S1 2.403241 1_655
Cr4 S9 2.411046 1_555
Cr4 S13 2.443707 1_555
Cr4 S11 2.461505 1_555
Cr4 S15 2.465407 1_555
Cr5 S10 2.392366 1_555
Cr5 S14 2.393028 1_555
Cr5 S2 2.420090 1_455
Cr5 S6 2.421005 1_555
Cr5 S8 2.422669 1_555
Cr5 S12 2.442370 1_545
Cu0 S8 2.196154 1_554
Cu0 S5 2.235166 1_555
Cu0 S9 2.346737 1_555
Cu0 S3 2.816209 1_545
Cu1 S10 2.183048 1_655
Cu1 S1 2.219374 1_655
Cu1 S11 2.358738 1_555
Cu2 S13 2.230309 1_565
Cu2 S6 2.350186 1_565
Cu2 S0 2.422380 1_555
Cu2 S12 2.435529 1_655
Cu3 S15 2.237352 1_556
Cu3 S14 2.340226 1_555
Cu3 S2 2.353867 1_555
Cu3 S4 2.372886 1_555
S0 Ta0 2.490261 1_555
S2 Ta0 2.471519 1_545
S3 Ta1 2.434868 1_555
S4 Ta0 2.404339 1_555
S6 Ta0 2.577777 1_545
S7 Ta1 2.481104 1_455
S8 Ta0 2.515240 1_545
S9 Ta1 2.517842 1_545
S11 Ta1 2.408519 1_555
S12 Ta0 2.438239 1_455
S13 Ta1 2.527076 1_545
S15 Ta1 2.455230 1_555
