# generated using pymatgen
data_NaCa3C2O7F3
_symmetry_space_group_name_H-M   'P 1'
_cell_length_a   6.80841668
_cell_length_b   6.80841668
_cell_length_c   15.36860500
_cell_angle_alpha   90.00000000
_cell_angle_beta   90.00000000
_cell_angle_gamma   120.00000660
_symmetry_Int_Tables_number   1
_chemical_formula_structural   NaCa3C2O7F3
_chemical_formula_sum   'Na3 Ca9 C6 O21 F9'
_cell_volume   616.96042263
_cell_formula_units_Z   3
loop_
 _symmetry_equiv_pos_site_id
 _symmetry_equiv_pos_as_xyz
  1  'x, y, z'
loop_
 _atom_site_type_symbol
 _atom_site_label
 _atom_site_symmetry_multiplicity
 _atom_site_fract_x
 _atom_site_fract_y
 _atom_site_fract_z
 _atom_site_occupancy
  Na  Na0  1  0.59489500  0.66331000  0.49911700  1
  Na  Na1  1  0.06841500  0.40510500  0.16578300  1
  Na  Na2  1  0.33669000  0.93158500  0.83245000  1
  Ca  Ca0  1  0.97320800  0.66764300  0.66082000  1
  Ca  Ca1  1  0.69443500  0.02679200  0.32748700  1
  Ca  Ca2  1  0.33235700  0.30556500  0.99415400  1
  Ca  Ca3  1  0.70350200  0.04063300  0.00773300  1
  Ca  Ca4  1  0.33713100  0.29649800  0.67439900  1
  Ca  Ca5  1  0.95936700  0.66286900  0.34106600  1
  Ca  Ca6  1  0.71889400  0.04926400  0.66251600  1
  Ca  Ca7  1  0.33037000  0.28110600  0.32918300  1
  Ca  Ca8  1  0.95073600  0.66963000  0.99584900  1
  C  C0  1  0.89909200  0.99498800  0.82447800  1
  C  C1  1  0.09589500  0.10090800  0.49114500  1
  C  C2  1  0.00501200  0.90410500  0.15781100  1
  C  C3  1  0.76664300  0.43119000  0.82633000  1
  C  C4  1  0.66454700  0.23335700  0.49299600  1
  C  C5  1  0.56881000  0.33545300  0.15966300  1
  O  O0  1  0.33026100  0.36962900  0.84149800  1
  O  O1  1  0.03936800  0.66973900  0.50816500  1
  O  O2  1  0.63037100  0.96063200  0.17483100  1
  O  O3  1  0.97163500  0.59349700  0.83770400  1
  O  O4  1  0.62186200  0.02836500  0.50437100  1
  O  O5  1  0.40650300  0.37813800  0.17103700  1
  O  O6  1  0.01795000  0.03809600  0.89637200  1
  O  O7  1  0.02014600  0.98205000  0.56303900  1
  O  O8  1  0.96190400  0.97985400  0.22970600  1
  O  O9  1  0.69652200  0.96022800  0.82928300  1
  O  O10  1  0.26370500  0.30347800  0.49595000  1
  O  O11  1  0.03977200  0.73629500  0.16261700  1
  O  O12  1  0.64106500  0.33667900  0.89518400  1
  O  O13  1  0.69561400  0.35893500  0.56185000  1
  O  O14  1  0.66332100  0.30438600  0.22851700  1
  O  O15  1  0.68573500  0.36247300  0.74910600  1
  O  O16  1  0.67673800  0.31426500  0.41577200  1
  O  O17  1  0.63752700  0.32326200  0.08243900  1
  O  O18  1  0.00181600  0.01272600  0.41693900  1
  O  O19  1  0.01091000  0.99818400  0.08360600  1
  O  O20  1  0.98727400  0.98909000  0.75027200  1
  F  F0  1  0.60086400  0.66870300  0.64583400  1
  F  F1  1  0.06784000  0.39913600  0.31250100  1
  F  F2  1  0.33129700  0.93216000  0.97916800  1
  F  F3  1  0.61191300  0.67809600  0.99811300  1
  F  F4  1  0.06618300  0.38808700  0.66478000  1
  F  F5  1  0.32190400  0.93381700  0.33144700  1
  F  F6  1  0.60150000  0.65372800  0.35017300  1
  F  F7  1  0.05222800  0.39850000  0.01684000  1
  F  F8  1  0.34627200  0.94777200  0.68350600  1
loop_
_geom_bond_atom_site_label_1
_geom_bond_atom_site_label_2
_geom_bond_distance
_geom_bond_site_symmetry_2
Na0 O10 2.358939 1_555
Na0 O4 2.400279 1_565
Na1 O11 2.358943 1_555
Na1 O5 2.400279 1_555
Na2 O9 2.358936 1_555
Na2 O3 2.400279 1_455
Ca0 F4 2.287340 1_655
Ca0 F8 2.316516 1_655
Ca0 O1 2.387642 1_655
Ca0 O15 2.433538 1_555
Ca0 O7 2.501710 1_655
Ca0 O13 2.516105 1_555
Ca0 O20 2.545438 1_555
Ca0 F0 2.549115 1_555
Ca0 O3 2.763978 1_555
Ca1 F5 2.287339 1_545
Ca1 F6 2.316516 1_545
Ca1 O2 2.387657 1_545
Ca1 O16 2.433530 1_555
Ca1 O8 2.501710 1_545
Ca1 O14 2.516105 1_555
Ca1 O18 2.545438 1_655
Ca1 F1 2.549118 1_655
Ca1 O4 2.763978 1_555
Ca2 F3 2.287339 1_555
Ca2 F7 2.316516 1_556
Ca2 O0 2.387657 1_555
Ca2 O17 2.433530 1_556
Ca2 O6 2.501719 1_555
Ca2 O12 2.516105 1_555
Ca2 O19 2.545438 1_546
Ca2 F2 2.549122 1_545
Ca2 O5 2.763963 1_556
Ca3 F3 2.228015 1_544
Ca3 F2 2.299657 1_544
Ca3 F7 2.410061 1_655
Ca3 O17 2.467199 1_555
Ca3 O19 2.535469 1_645
Ca3 O2 2.620751 1_545
Ca3 O6 2.747691 1_654
Ca3 O9 2.792379 1_544
Ca3 O12 2.844667 1_554
Ca4 F4 2.228014 1_555
Ca4 F0 2.299658 1_555
Ca4 F8 2.410061 1_545
Ca4 O15 2.467206 1_555
Ca4 O20 2.535469 1_445
Ca4 O0 2.620766 1_555
Ca4 O7 2.747681 1_545
Ca4 O10 2.792365 1_555
Ca4 O13 2.844667 1_555
Ca5 F5 2.228014 1_655
Ca5 F1 2.299663 1_655
Ca5 F6 2.410061 1_555
Ca5 O16 2.467199 1_555
Ca5 O18 2.535469 1_665
Ca5 O1 2.620766 1_655
Ca5 O8 2.747682 1_555
Ca5 O11 2.792365 1_655
Ca5 O14 2.844667 1_555
Ca6 F8 2.294492 1_545
Ca6 F0 2.311436 1_545
Ca6 F4 2.336460 1_655
Ca6 O20 2.464594 1_545
Ca6 O4 2.503968 1_555
Ca6 O15 2.617386 1_555
Ca6 O9 2.620531 1_545
Ca6 O13 2.682914 1_555
Ca6 O7 2.773467 1_645
Ca7 F6 2.294492 1_555
Ca7 F1 2.311430 1_555
Ca7 F5 2.336461 1_545
Ca7 O18 2.464594 1_555
Ca7 O5 2.503983 1_555
Ca7 O16 2.617378 1_555
Ca7 O10 2.620533 1_555
Ca7 O14 2.682914 1_555
Ca7 O8 2.773467 1_445
Ca8 F7 2.294495 1_656
Ca8 F2 2.311433 1_655
Ca8 F3 2.336461 1_555
Ca8 O19 2.464602 1_656
Ca8 O3 2.503968 1_555
Ca8 O17 2.617386 1_556
Ca8 O11 2.620547 1_656
Ca8 O12 2.682905 1_555
Ca8 O6 2.773467 1_665
C0 O9 1.279533 1_555
C0 O20 1.298764 1_555
C0 O6 1.313134 1_665
C1 O10 1.279533 1_555
C1 O18 1.298762 1_555
C1 O7 1.313133 1_545
C2 O11 1.279534 1_555
C2 O19 1.298747 1_555
C2 O8 1.313143 1_455
C3 O3 1.287364 1_555
C3 O15 1.293508 1_555
C3 O12 1.309452 1_555
C4 O4 1.287366 1_555
C4 O16 1.293508 1_555
C4 O13 1.309452 1_555
C5 O5 1.287364 1_555
C5 O17 1.293508 1_555
C5 O14 1.309452 1_555
F0 Na0 2.255170 1_555
F1 Na1 2.255185 1_555
F2 Na2 2.255185 1_555
F6 Na0 2.291073 1_555
F7 Na1 2.291057 1_555
F8 Na2 2.291073 1_555
