# generated using pymatgen
data_AsC3N3Cl3F7
_symmetry_space_group_name_H-M   'P 1'
_cell_length_a   8.20655642
_cell_length_b   8.20655642
_cell_length_c   8.21141103
_cell_angle_alpha   82.31788098
_cell_angle_beta   82.31788098
_cell_angle_gamma   81.88808557
_symmetry_Int_Tables_number   1
_chemical_formula_structural   AsC3N3Cl3F7
_chemical_formula_sum   'As2 C6 N6 Cl6 F14'
_cell_volume   538.84353240
_cell_formula_units_Z   2
loop_
 _symmetry_equiv_pos_site_id
 _symmetry_equiv_pos_as_xyz
  1  'x, y, z'
loop_
 _atom_site_type_symbol
 _atom_site_label
 _atom_site_symmetry_multiplicity
 _atom_site_fract_x
 _atom_site_fract_y
 _atom_site_fract_z
 _atom_site_occupancy
  As  As0  1  0.49900800  0.99932000  0.24884700  1
  As  As1  1  0.00068000  0.50099200  0.75115300  1
  C  C0  1  0.25848200  0.61828300  0.12339800  1
  C  C1  1  0.38171700  0.74151800  0.87660200  1
  C  C2  1  0.12190300  0.87809700  0.00000000  1
  C  C3  1  0.74751700  0.36872100  0.37945500  1
  C  C4  1  0.63127900  0.25248300  0.62054500  1
  C  C5  1  0.86857000  0.13143000  0.50000000  1
  N  N0  1  0.25204900  0.86944900  0.87865400  1
  N  N1  1  0.13055100  0.74795100  0.12134600  1
  N  N2  1  0.37901700  0.62098300  0.00000000  1
  N  N3  1  0.74974500  0.12345400  0.62813100  1
  N  N4  1  0.87654600  0.25025500  0.37186900  1
  N  N5  1  0.62106800  0.37893200  0.50000000  1
  Cl  Cl0  1  0.25230100  0.46995100  0.27848700  1
  Cl  Cl1  1  0.53004900  0.74769900  0.72151300  1
  Cl  Cl2  1  0.97077400  0.02922600  0.00000000  1
  Cl  Cl3  1  0.74145500  0.52363700  0.21815600  1
  Cl  Cl4  1  0.47636300  0.25854500  0.78184400  1
  Cl  Cl5  1  0.02767000  0.97233000  0.50000000  1
  F  F0  1  0.67297100  0.91280300  0.35206400  1
  F  F1  1  0.60136000  0.17247900  0.16336200  1
  F  F2  1  0.41272800  0.10272800  0.42232200  1
  F  F3  1  0.17596200  0.60490500  0.66890300  1
  F  F4  1  0.91876300  0.67799500  0.85544900  1
  F  F5  1  0.10419300  0.41735400  0.92719200  1
  F  F6  1  0.32200500  0.08123700  0.14455100  1
  F  F7  1  0.39509500  0.82403800  0.33109700  1
  F  F8  1  0.58264600  0.89580800  0.07280800  1
  F  F9  1  0.82752100  0.39864000  0.83663800  1
  F  F10  1  0.08719700  0.32702900  0.64793600  1
  F  F11  1  0.89727200  0.58727200  0.57767800  1
  F  F12  1  0.25025600  0.99661200  0.75480000  1
  F  F13  1  0.00338800  0.74974400  0.24520000  1
loop_
_geom_bond_atom_site_label_1
_geom_bond_atom_site_label_2
_geom_bond_distance
_geom_bond_site_symmetry_2
As0 F1 1.769224 1_565
As0 F2 1.770479 1_565
As0 F0 1.771204 1_555
As0 F8 1.783470 1_555
As0 F7 1.784656 1_555
As0 F6 1.788426 1_565
As1 F9 1.769224 1_455
As1 F11 1.770479 1_455
As1 F10 1.771204 1_555
As1 F5 1.783474 1_555
As1 F3 1.784656 1_555
As1 F4 1.788426 1_455
C0 N2 1.318292 1_555
C0 N1 1.385472 1_555
C0 Cl0 1.640694 1_555
C1 N2 1.318292 1_556
C1 N0 1.385472 1_555
C1 Cl1 1.640694 1_555
C2 N0 1.360740 1_554
C2 N1 1.360740 1_555
C2 Cl2 1.625524 1_465
C3 N4 1.333535 1_555
C3 N5 1.336666 1_555
C3 Cl3 1.709563 1_555
C4 N3 1.333535 1_555
C4 N5 1.336666 1_555
C4 Cl4 1.709563 1_555
C5 N4 1.336967 1_555
C5 N3 1.336967 1_555
C5 Cl5 1.711259 1_645
F12 N0 1.356280 1_555
F13 N1 1.356280 1_555
