# generated using pymatgen
data_Nb3Al2C
_symmetry_space_group_name_H-M   'P 1'
_cell_length_a   7.13020500
_cell_length_b   7.13020500
_cell_length_c   7.13020500
_cell_angle_alpha   90.00000000
_cell_angle_beta   90.00000000
_cell_angle_gamma   90.00000000
_symmetry_Int_Tables_number   1
_chemical_formula_structural   Nb3Al2C
_chemical_formula_sum   'Nb12 Al8 C4'
_cell_volume   362.49836259
_cell_formula_units_Z   4
loop_
 _symmetry_equiv_pos_site_id
 _symmetry_equiv_pos_as_xyz
  1  'x, y, z'
loop_
 _atom_site_type_symbol
 _atom_site_label
 _atom_site_symmetry_multiplicity
 _atom_site_fract_x
 _atom_site_fract_y
 _atom_site_fract_z
 _atom_site_occupancy
  Nb  Nb0  1  0.79535900  0.95464100  0.37500000  1
  Nb  Nb1  1  0.70464100  0.04535900  0.87500000  1
  Nb  Nb2  1  0.20464100  0.45464100  0.12500000  1
  Nb  Nb3  1  0.29535900  0.54535900  0.62500000  1
  Nb  Nb4  1  0.95464100  0.37500000  0.79535900  1
  Nb  Nb5  1  0.04535900  0.87500000  0.70464100  1
  Nb  Nb6  1  0.45464100  0.12500000  0.20464100  1
  Nb  Nb7  1  0.54535900  0.62500000  0.29535900  1
  Nb  Nb8  1  0.37500000  0.79535900  0.95464100  1
  Nb  Nb9  1  0.87500000  0.70464100  0.04535900  1
  Nb  Nb10  1  0.12500000  0.20464100  0.45464100  1
  Nb  Nb11  1  0.62500000  0.29535900  0.54535900  1
  Al  Al0  1  0.18069100  0.81930900  0.31930900  1
  Al  Al1  1  0.31930900  0.18069100  0.81930900  1
  Al  Al2  1  0.81930900  0.31930900  0.18069100  1
  Al  Al3  1  0.68069100  0.68069100  0.68069100  1
  Al  Al4  1  0.56930900  0.43069100  0.93069100  1
  Al  Al5  1  0.43069100  0.93069100  0.56930900  1
  Al  Al6  1  0.93069100  0.56930900  0.43069100  1
  Al  Al7  1  0.06930900  0.06930900  0.06930900  1
  C  C0  1  0.87500000  0.12500000  0.62500000  1
  C  C1  1  0.62500000  0.87500000  0.12500000  1
  C  C2  1  0.12500000  0.62500000  0.87500000  1
  C  C3  1  0.37500000  0.37500000  0.37500000  1
loop_
_geom_bond_atom_site_label_1
_geom_bond_atom_site_label_2
_geom_bond_distance
_geom_bond_site_symmetry_2
Al0 Al6 2.643046 1_455
Al0 Al5 2.643046 1_555
Al0 Al7 2.643046 1_565
Al0 Nb0 2.938968 1_455
Al0 Nb5 2.938968 1_555
Al0 Nb10 2.938968 1_565
Al0 Nb2 2.951184 1_555
Al0 Nb7 2.951184 1_555
Al0 Nb8 2.951184 1_554
Al0 Nb3 3.038876 1_555
Al0 Nb9 3.038876 1_455
Al0 Nb6 3.038876 1_565
Al1 Al5 2.643046 1_545
Al1 Al4 2.643046 1_555
Al1 Al7 2.643046 1_556
Al1 Nb1 2.938968 1_555
Al1 Nb8 2.938968 1_545
Al1 Nb6 2.938968 1_556
Al1 Nb10 2.951184 1_555
Al1 Nb3 2.951184 1_555
Al1 Nb4 2.951184 1_455
Al1 Nb11 3.038876 1_555
Al1 Nb5 3.038876 1_545
Al1 Nb2 3.038876 1_556
Al2 Al4 2.643046 1_554
Al2 Al6 2.643046 1_555
Al2 Al7 2.643046 1_655
Al2 Nb9 2.938968 1_555
Al2 Nb4 2.938968 1_554
Al2 Nb2 2.938968 1_655
Al2 Nb6 2.951184 1_555
Al2 Nb0 2.951184 1_545
Al2 Nb11 2.951184 1_555
Al2 Nb7 3.038876 1_555
Al2 Nb1 3.038876 1_554
Al2 Nb10 3.038876 1_655
Al3 Al6 2.643046 1_555
Al3 Al5 2.643046 1_555
Al3 Al4 2.643046 1_555
Al3 Nb11 2.938968 1_555
Al3 Nb3 2.938968 1_555
Al3 Nb7 2.938968 1_555
Al3 Nb9 2.951184 1_556
Al3 Nb1 2.951184 1_565
Al3 Nb5 2.951184 1_655
Al3 Nb0 3.038876 1_555
Al3 Nb4 3.038876 1_555
Al3 Nb8 3.038876 1_555
Al4 Nb4 2.938968 1_555
Al4 Nb1 2.938968 1_555
Al4 Nb11 2.938968 1_555
Al4 Nb7 2.951184 1_556
Al4 Nb2 2.951184 1_556
Al4 Nb8 2.951184 1_555
Al4 Nb9 3.038876 1_556
Al4 Nb6 3.038876 1_556
Al4 Nb3 3.038876 1_555
Al5 Nb3 2.938968 1_555
Al5 Nb5 2.938968 1_555
Al5 Nb8 2.938968 1_555
Al5 Nb11 2.951184 1_565
Al5 Nb6 2.951184 1_565
Al5 Nb0 2.951184 1_555
Al5 Nb1 3.038876 1_565
Al5 Nb10 3.038876 1_565
Al5 Nb7 3.038876 1_555
Al6 Nb7 2.938968 1_555
Al6 Nb9 2.938968 1_555
Al6 Nb0 2.938968 1_555
Al6 Nb3 2.951184 1_655
Al6 Nb10 2.951184 1_655
Al6 Nb4 2.951184 1_555
Al6 Nb5 3.038876 1_655
Al6 Nb2 3.038876 1_655
Al6 Nb11 3.038876 1_555
Al7 Nb6 2.938968 1_555
Al7 Nb10 2.938968 1_555
Al7 Nb2 2.938968 1_555
Al7 Nb1 2.951184 1_454
Al7 Nb5 2.951184 1_544
Al7 Nb9 2.951184 1_445
Al7 Nb8 3.038876 1_544
Al7 Nb0 3.038876 1_445
Al7 Nb4 3.038876 1_454
C0 Nb5 2.230568 1_645
C0 Nb1 2.230568 1_555
C0 Nb11 2.230568 1_555
C0 Nb0 2.230568 1_545
C0 Nb4 2.230568 1_555
C0 Nb10 2.230568 1_655
C1 Nb1 2.230568 1_564
C1 Nb6 2.230568 1_565
C1 Nb9 2.230568 1_555
C1 Nb8 2.230568 1_554
C1 Nb0 2.230568 1_555
C1 Nb7 2.230568 1_555
C2 Nb9 2.230568 1_456
C2 Nb8 2.230568 1_555
C2 Nb5 2.230568 1_555
C2 Nb4 2.230568 1_455
C2 Nb2 2.230568 1_556
C2 Nb3 2.230568 1_555
C3 Nb11 2.230568 1_555
C3 Nb2 2.230568 1_555
C3 Nb6 2.230568 1_555
C3 Nb3 2.230568 1_555
C3 Nb10 2.230568 1_555
C3 Nb7 2.230568 1_555
