# generated using pymatgen
data_K3PS4
_symmetry_space_group_name_H-M   'P 1'
_cell_length_a   9.03364584
_cell_length_b   9.14753482
_cell_length_c   10.52464203
_cell_angle_alpha   90.00000000
_cell_angle_beta   90.00000000
_cell_angle_gamma   90.00000000
_symmetry_Int_Tables_number   1
_chemical_formula_structural   K3PS4
_chemical_formula_sum   'K12 P4 S16'
_cell_volume   869.71000235
_cell_formula_units_Z   4
loop_
 _symmetry_equiv_pos_site_id
 _symmetry_equiv_pos_as_xyz
  1  'x, y, z'
loop_
 _atom_site_type_symbol
 _atom_site_label
 _atom_site_symmetry_multiplicity
 _atom_site_fract_x
 _atom_site_fract_y
 _atom_site_fract_z
 _atom_site_occupancy
  K  K0  1  0.64379985  0.42003162  0.25000000  1
  K  K1  1  0.85620015  0.92003162  0.75000000  1
  K  K2  1  0.14379985  0.07996838  0.25000000  1
  K  K3  1  0.35620015  0.57996838  0.75000000  1
  K  K4  1  0.44726862  0.79771140  0.04232301  1
  K  K5  1  0.05273138  0.29771140  0.95767699  1
  K  K6  1  0.94726862  0.70228860  0.45767699  1
  K  K7  1  0.55273138  0.20228860  0.54232301  1
  K  K8  1  0.55273138  0.20228860  0.95767699  1
  K  K9  1  0.94726862  0.70228860  0.04232301  1
  K  K10  1  0.05273138  0.29771140  0.54232301  1
  K  K11  1  0.44726862  0.79771140  0.45767699  1
  P  P0  1  0.72084305  0.97980365  0.25000000  1
  P  P1  1  0.77915695  0.47980365  0.75000000  1
  P  P2  1  0.22084305  0.52019635  0.25000000  1
  P  P3  1  0.27915695  0.02019635  0.75000000  1
  S  S0  1  0.69486600  0.75774964  0.25000000  1
  S  S1  1  0.80513400  0.25774964  0.75000000  1
  S  S2  1  0.19486600  0.74225036  0.25000000  1
  S  S3  1  0.30513400  0.24225036  0.75000000  1
  S  S4  1  0.51649410  0.07910329  0.25000000  1
  S  S5  1  0.98350590  0.57910329  0.75000000  1
  S  S6  1  0.01649410  0.42089671  0.25000000  1
  S  S7  1  0.48350590  0.92089671  0.75000000  1
  S  S8  1  0.83315601  0.03884258  0.08955740  1
  S  S9  1  0.66684399  0.53884258  0.91044260  1
  S  S10  1  0.33315601  0.46115742  0.41044260  1
  S  S11  1  0.16684399  0.96115742  0.58955740  1
  S  S12  1  0.16684399  0.96115742  0.91044260  1
  S  S13  1  0.33315601  0.46115742  0.08955740  1
  S  S14  1  0.66684399  0.53884258  0.58955740  1
  S  S15  1  0.83315601  0.03884258  0.41044260  1
loop_
_geom_bond_atom_site_label_1
_geom_bond_atom_site_label_2
_geom_bond_distance
_geom_bond_site_symmetry_2
K0 S0 3.123541 1_555
K0 S13 3.296653 1_555
K0 S10 3.296653 1_555
K0 S4 3.323941 1_555
K0 S6 3.366797 1_655
K0 S9 3.741123 1_554
K0 S14 3.741123 1_555
K1 S1 3.123541 1_565
K1 S11 3.296653 1_655
K1 S12 3.296653 1_655
K1 S5 3.323941 1_555
K1 S7 3.366797 1_555
K1 S8 3.741123 1_566
K1 S15 3.741123 1_565
K2 S2 3.123541 1_545
K2 S15 3.296653 1_455
K2 S8 3.296653 1_455
K2 S6 3.323941 1_555
K2 S4 3.366797 1_555
K2 S12 3.741123 1_544
K2 S11 3.741123 1_545
K3 S3 3.123541 1_555
K3 S14 3.296653 1_555
K3 S9 3.296653 1_555
K3 S7 3.323941 1_555
K3 S5 3.366797 1_455
K3 S13 3.741123 1_556
K3 S10 3.741123 1_555
K4 S0 3.148632 1_555
K4 S2 3.199017 1_555
K4 S12 3.252588 1_554
K4 S13 3.284480 1_555
K4 S7 3.292776 1_554
K4 S9 3.386523 1_554
K4 S4 3.434263 1_565
K5 S1 3.148632 1_455
K5 S3 3.199017 1_555
K5 S13 3.252588 1_556
K5 S12 3.284480 1_545
K5 S6 3.292776 1_556
K5 S8 3.386523 1_456
K5 S5 3.434263 1_455
K6 S2 3.148632 1_655
K6 S0 3.199017 1_555
K6 S14 3.252588 1_555
K6 S15 3.284480 1_565
K6 S5 3.292776 1_555
K6 S11 3.386523 1_655
K6 S6 3.434263 1_655
K7 S3 3.148632 1_555
K7 S1 3.199017 1_555
K7 S15 3.252588 1_555
K7 S14 3.284480 1_555
K7 S4 3.292776 1_555
K7 S10 3.386523 1_555
K7 S7 3.434263 1_545
K8 S3 3.148632 1_555
K8 S1 3.199017 1_555
K8 S8 3.252588 1_556
K8 S9 3.284480 1_555
K8 S4 3.292776 1_556
K8 S13 3.386523 1_556
K8 S7 3.434263 1_545
K9 S2 3.148632 1_655
K9 S0 3.199017 1_555
K9 S9 3.252588 1_554
K9 S8 3.284480 1_565
K9 S5 3.292776 1_554
K9 S12 3.386523 1_654
K9 S6 3.434263 1_655
K10 S1 3.148632 1_455
K10 S3 3.199017 1_555
K10 S10 3.252588 1_555
K10 S11 3.284480 1_545
K10 S6 3.292776 1_555
K10 S15 3.386523 1_455
K10 S5 3.434263 1_455
K11 S0 3.148632 1_555
K11 S2 3.199017 1_555
K11 S11 3.252588 1_555
K11 S10 3.284480 1_555
K11 S7 3.292776 1_555
K11 S14 3.386523 1_555
K11 S4 3.434263 1_565
P0 S8 2.042656 1_565
P0 S15 2.042656 1_565
P0 S0 2.044757 1_555
P0 S4 2.057394 1_565
P1 S14 2.042656 1_555
P1 S9 2.042656 1_555
P1 S1 2.044757 1_555
P1 S5 2.057394 1_555
P2 S13 2.042656 1_555
P2 S10 2.042656 1_555
P2 S2 2.044757 1_555
P2 S6 2.057394 1_555
P3 S11 2.042656 1_545
P3 S12 2.042656 1_545
P3 S3 2.044757 1_555
P3 S7 2.057394 1_545
