# generated using pymatgen
data_Mn4SiTeCl2O7
_symmetry_space_group_name_H-M   'P 1'
_cell_length_a   5.54159978
_cell_length_b   6.52290339
_cell_length_c   12.90611323
_cell_angle_alpha   90.06629384
_cell_angle_beta   93.79542099
_cell_angle_gamma   90.12666897
_symmetry_Int_Tables_number   1
_chemical_formula_structural   Mn4SiTeCl2O7
_chemical_formula_sum   'Mn8 Si2 Te2 Cl4 O14'
_cell_volume   465.49667778
_cell_formula_units_Z   2
loop_
 _symmetry_equiv_pos_site_id
 _symmetry_equiv_pos_as_xyz
  1  'x, y, z'
loop_
 _atom_site_type_symbol
 _atom_site_label
 _atom_site_symmetry_multiplicity
 _atom_site_fract_x
 _atom_site_fract_y
 _atom_site_fract_z
 _atom_site_occupancy
  Mn  Mn0  1  0.14480700  0.75142600  0.33301300  1
  Mn  Mn1  1  0.85520200  0.24856300  0.66698800  1
  Mn  Mn2  1  0.35891900  0.50615000  0.64104700  1
  Mn  Mn3  1  0.64107500  0.49384900  0.35895300  1
  Mn  Mn4  1  0.98294400  0.25022700  0.16842900  1
  Mn  Mn5  1  0.01710300  0.74976300  0.83155800  1
  Mn  Mn6  1  0.64090400  0.00429000  0.35958900  1
  Mn  Mn7  1  0.35909500  0.99571300  0.64041300  1
  Si  Si0  1  0.15541200  0.25050000  0.43804700  1
  Si  Si1  1  0.84458400  0.74950000  0.56195200  1
  Te  Te0  1  0.70463400  0.74918200  0.14589200  1
  Te  Te1  1  0.29536300  0.25081100  0.85411100  1
  Cl  Cl0  1  0.42620500  0.25014300  0.17780300  1
  Cl  Cl1  1  0.57378500  0.74986000  0.82219600  1
  Cl  Cl2  1  0.85794600  0.25016300  0.98474000  1
  Cl  Cl3  1  0.14205200  0.74985800  0.01526100  1
  O  O0  1  0.48528700  0.74944400  0.25639100  1
  O  O1  1  0.51470800  0.25055700  0.74361100  1
  O  O2  1  0.16194300  0.25057100  0.56767500  1
  O  O3  1  0.83804900  0.74943000  0.43232500  1
  O  O4  1  0.87415000  0.24952700  0.38731800  1
  O  O5  1  0.12584900  0.75048200  0.61268300  1
  O  O6  1  0.29107500  0.03778800  0.40425900  1
  O  O7  1  0.70923900  0.53684400  0.59610900  1
  O  O8  1  0.70892200  0.96221300  0.59573900  1
  O  O9  1  0.29075500  0.46316000  0.40389500  1
  O  O10  1  0.89378600  0.95504700  0.22052500  1
  O  O11  1  0.10570500  0.45473700  0.77880500  1
  O  O12  1  0.10620800  0.04494700  0.77947700  1
  O  O13  1  0.89429300  0.54525500  0.22119400  1
loop_
_geom_bond_atom_site_label_1
_geom_bond_atom_site_label_2
_geom_bond_distance
_geom_bond_site_symmetry_2
Mn0 O0 2.187510 1_555
Mn0 O3 2.195715 1_455
Mn0 O6 2.209583 1_565
Mn0 O9 2.222479 1_555
Mn0 O13 2.353829 1_455
Mn0 O10 2.356290 1_455
Mn1 O1 2.187586 1_555
Mn1 O2 2.195647 1_655
Mn1 O8 2.209554 1_545
Mn1 O7 2.222575 1_555
Mn1 O11 2.353792 1_655
Mn1 O12 2.356233 1_655
Mn2 O5 2.071255 1_555
Mn2 O7 2.071917 1_555
Mn2 O2 2.172315 1_555
Mn2 O1 2.266556 1_555
Mn2 O11 2.360519 1_555
Mn3 O4 2.071223 1_555
Mn3 O9 2.071932 1_555
Mn3 O3 2.172320 1_555
Mn3 O0 2.266549 1_555
Mn3 O13 2.360537 1_555
Mn4 O10 2.108608 1_545
Mn4 O13 2.110450 1_555
Mn5 O12 2.108493 1_565
Mn5 O11 2.110316 1_555
Mn6 O4 2.070259 1_555
Mn6 O6 2.070719 1_555
Mn6 O3 2.171248 1_545
Mn6 O0 2.262175 1_545
Mn6 O10 2.371048 1_545
Mn7 O5 2.070230 1_555
Mn7 O8 2.070727 1_555
Mn7 O2 2.171266 1_565
Mn7 O1 2.262158 1_565
Mn7 O12 2.371057 1_565
Cl0 Mn4 2.451342 1_455
Cl1 Mn5 2.451661 1_655
Cl2 Mn4 2.425424 1_556
Cl3 Mn5 2.425537 1_554
O0 Te0 1.934120 1_555
O1 Te1 1.934122 1_555
O2 Si0 1.670988 1_555
O3 Si1 1.670974 1_555
O4 Si0 1.650122 1_655
O5 Si1 1.650146 1_455
O6 Si0 1.651398 1_555
O7 Si1 1.649729 1_555
O8 Si1 1.651397 1_555
O9 Si0 1.649727 1_555
O10 Te0 1.920120 1_555
O11 Te1 1.921606 1_555
O12 Te1 1.920129 1_555
O13 Te0 1.921589 1_555
