# generated using pymatgen
data_Cr2Ni2H64N13Cl11O12
_symmetry_space_group_name_H-M   'P 1'
_cell_length_a   14.63308652
_cell_length_b   14.63308652
_cell_length_c   14.63308652
_cell_angle_alpha   60.00000000
_cell_angle_beta   60.00000000
_cell_angle_gamma   60.00000000
_symmetry_Int_Tables_number   1
_chemical_formula_structural   Cr2Ni2H64N13Cl11O12
_chemical_formula_sum   'Cr4 Ni4 H128 N26 Cl22 O24'
_cell_volume   2215.60748523
_cell_formula_units_Z   2
loop_
 _symmetry_equiv_pos_site_id
 _symmetry_equiv_pos_as_xyz
  1  'x, y, z'
loop_
 _atom_site_type_symbol
 _atom_site_label
 _atom_site_symmetry_multiplicity
 _atom_site_fract_x
 _atom_site_fract_y
 _atom_site_fract_z
 _atom_site_occupancy
  Cr  Cr0  1  0.50000000  0.50000000  -0.00000000  1
  Cr  Cr1  1  -0.00000000  0.50000000  0.50000000  1
  Cr  Cr2  1  0.50000000  0.00000000  0.50000000  1
  Cr  Cr3  1  0.50000000  0.50000000  0.50000000  1
  Ni  Ni0  1  -0.00000000  0.00000000  0.50000000  1
  Ni  Ni1  1  0.50000000  0.00000000  -0.00000000  1
  Ni  Ni2  1  -0.00000000  0.50000000  -0.00000000  1
  Ni  Ni3  1  -0.00000000  0.00000000  -0.00000000  1
  H  H0  1  0.17001921  0.34019829  0.56982846  1
  H  H1  1  0.56982846  0.41995404  0.17001921  1
  H  H2  1  0.41995404  0.56982846  0.34019829  1
  H  H3  1  0.34019829  0.17001921  0.41995404  1
  H  H4  1  0.34019829  0.56982846  0.17001921  1
  H  H5  1  0.41995404  0.17001921  0.56982846  1
  H  H6  1  0.56982846  0.34019829  0.41995404  1
  H  H7  1  0.17001921  0.41995404  0.34019829  1
  H  H8  1  0.56982846  0.17001921  0.34019829  1
  H  H9  1  0.17001921  0.56982846  0.41995404  1
  H  H10  1  0.34019829  0.41995404  0.56982846  1
  H  H11  1  0.41995404  0.34019829  0.17001921  1
  H  H12  1  0.82998079  0.65980171  0.43017154  1
  H  H13  1  0.43017154  0.58004596  0.82998079  1
  H  H14  1  0.58004596  0.43017154  0.65980171  1
  H  H15  1  0.65980171  0.82998079  0.58004596  1
  H  H16  1  0.65980171  0.43017154  0.82998079  1
  H  H17  1  0.58004596  0.82998079  0.43017154  1
  H  H18  1  0.43017154  0.65980171  0.58004596  1
  H  H19  1  0.82998079  0.58004596  0.65980171  1
  H  H20  1  0.43017154  0.82998079  0.65980171  1
  H  H21  1  0.82998079  0.43017154  0.58004596  1
  H  H22  1  0.65980171  0.58004596  0.43017154  1
  H  H23  1  0.58004596  0.65980171  0.82998079  1
  H  H24  1  0.12720727  0.44712928  0.61096399  1
  H  H25  1  0.61096399  0.31469945  0.12720727  1
  H  H26  1  0.31469945  0.61096399  0.44712928  1
  H  H27  1  0.44712928  0.12720727  0.31469945  1
  H  H28  1  0.44712928  0.61096399  0.12720727  1
  H  H29  1  0.31469945  0.12720727  0.61096399  1
  H  H30  1  0.61096399  0.44712928  0.31469945  1
  H  H31  1  0.12720727  0.31469945  0.44712928  1
  H  H32  1  0.61096399  0.12720727  0.44712928  1
  H  H33  1  0.12720727  0.61096399  0.31469945  1
  H  H34  1  0.44712928  0.31469945  0.61096399  1
  H  H35  1  0.31469945  0.44712928  0.12720727  1
  H  H36  1  0.87279273  0.55287072  0.38903601  1
  H  H37  1  0.38903601  0.68530055  0.87279273  1
  H  H38  1  0.68530055  0.38903601  0.55287072  1
  H  H39  1  0.55287072  0.87279273  0.68530055  1
  H  H40  1  0.55287072  0.38903601  0.87279273  1
  H  H41  1  0.68530055  0.87279273  0.38903601  1
  H  H42  1  0.38903601  0.55287072  0.68530055  1
  H  H43  1  0.87279273  0.68530055  0.55287072  1
  H  H44  1  0.38903601  0.87279273  0.55287072  1
  H  H45  1  0.87279273  0.38903601  0.68530055  1
  H  H46  1  0.55287072  0.68530055  0.38903601  1
  H  H47  1  0.68530055  0.55287072  0.87279273  1
  H  H48  1  0.05914628  0.35644215  0.68176458  1
  H  H49  1  0.68176458  0.40264699  0.05914628  1
  H  H50  1  0.40264699  0.68176458  0.35644215  1
  H  H51  1  0.35644215  0.05914628  0.40264699  1
  H  H52  1  0.35644215  0.68176458  0.05914628  1
  H  H53  1  0.40264699  0.05914628  0.68176458  1
  H  H54  1  0.68176458  0.35644215  0.40264699  1
  H  H55  1  0.05914628  0.40264699  0.35644215  1
  H  H56  1  0.68176458  0.05914628  0.35644215  1
  H  H57  1  0.05914628  0.68176458  0.40264699  1
  H  H58  1  0.35644215  0.40264699  0.68176458  1
  H  H59  1  0.40264699  0.35644215  0.05914628  1
  H  H60  1  0.94085372  0.64355785  0.31823542  1
  H  H61  1  0.31823542  0.59735301  0.94085372  1
  H  H62  1  0.59735301  0.31823542  0.64355785  1
  H  H63  1  0.64355785  0.94085372  0.59735301  1
  H  H64  1  0.64355785  0.31823542  0.94085372  1
  H  H65  1  0.59735301  0.94085372  0.31823542  1
  H  H66  1  0.31823542  0.64355785  0.59735301  1
  H  H67  1  0.94085372  0.59735301  0.64355785  1
  H  H68  1  0.31823542  0.94085372  0.64355785  1
  H  H69  1  0.94085372  0.31823542  0.59735301  1
  H  H70  1  0.64355785  0.59735301  0.31823542  1
  H  H71  1  0.59735301  0.64355785  0.94085372  1
  H  H72  1  0.41008138  0.95677531  0.90784576  1
  H  H73  1  0.90784576  0.22529754  0.41008138  1
  H  H74  1  0.22529754  0.90784576  0.95677531  1
  H  H75  1  0.95677531  0.41008138  0.22529754  1
  H  H76  1  0.95677531  0.90784576  0.41008138  1
  H  H77  1  0.22529754  0.41008138  0.90784576  1
  H  H78  1  0.90784576  0.95677531  0.22529754  1
  H  H79  1  0.41008138  0.22529754  0.95677531  1
  H  H80  1  0.90784576  0.41008138  0.95677531  1
  H  H81  1  0.41008138  0.90784576  0.22529754  1
  H  H82  1  0.95677531  0.22529754  0.90784576  1
  H  H83  1  0.22529754  0.95677531  0.41008138  1
  H  H84  1  0.58991862  0.04322469  0.09215424  1
  H  H85  1  0.09215424  0.77470246  0.58991862  1
  H  H86  1  0.77470246  0.09215424  0.04322469  1
  H  H87  1  0.04322469  0.58991862  0.77470246  1
  H  H88  1  0.04322469  0.09215424  0.58991862  1
  H  H89  1  0.77470246  0.58991862  0.09215424  1
  H  H90  1  0.09215424  0.04322469  0.77470246  1
  H  H91  1  0.58991862  0.77470246  0.04322469  1
  H  H92  1  0.09215424  0.58991862  0.04322469  1
  H  H93  1  0.58991862  0.09215424  0.77470246  1
  H  H94  1  0.04322469  0.77470246  0.09215424  1
  H  H95  1  0.77470246  0.04322469  0.58991862  1
  H  H96  1  0.34721881  0.08687785  0.89294819  1
  H  H97  1  0.89294819  0.17295516  0.34721881  1
  H  H98  1  0.17295516  0.89294819  0.08687785  1
  H  H99  1  0.08687785  0.34721881  0.17295516  1
  H  H100  1  0.08687785  0.89294819  0.34721881  1
  H  H101  1  0.17295516  0.34721881  0.89294819  1
  H  H102  1  0.89294819  0.08687785  0.17295516  1
  H  H103  1  0.34721881  0.17295516  0.08687785  1
  H  H104  1  0.89294819  0.34721881  0.08687785  1
  H  H105  1  0.34721881  0.89294819  0.17295516  1
  H  H106  1  0.08687785  0.17295516  0.89294819  1
  H  H107  1  0.17295516  0.08687785  0.34721881  1
  H  H108  1  0.65278119  0.91312215  0.10705181  1
  H  H109  1  0.10705181  0.82704484  0.65278119  1
  H  H110  1  0.82704484  0.10705181  0.91312215  1
  H  H111  1  0.91312215  0.65278119  0.82704484  1
  H  H112  1  0.91312215  0.10705181  0.65278119  1
  H  H113  1  0.82704484  0.65278119  0.10705181  1
  H  H114  1  0.10705181  0.91312215  0.82704484  1
  H  H115  1  0.65278119  0.82704484  0.91312215  1
  H  H116  1  0.10705181  0.65278119  0.91312215  1
  H  H117  1  0.65278119  0.10705181  0.82704484  1
  H  H118  1  0.91312215  0.82704484  0.10705181  1
  H  H119  1  0.82704484  0.91312215  0.65278119  1
  H  H120  1  0.15394459  0.15394459  0.03816624  1
  H  H121  1  0.03816624  0.15394459  0.15394459  1
  H  H122  1  0.15394459  0.03816624  0.15394459  1
  H  H123  1  0.15394459  0.15394459  0.15394459  1
  H  H124  1  0.84605541  0.84605541  0.96183376  1
  H  H125  1  0.96183376  0.84605541  0.84605541  1
  H  H126  1  0.84605541  0.96183376  0.84605541  1
  H  H127  1  0.84605541  0.84605541  0.84605541  1
  N  N0  1  0.10080659  0.39887006  0.60261113  1
  N  N1  1  0.60261113  0.39771222  0.10080659  1
  N  N2  1  0.39771222  0.60261113  0.39887006  1
  N  N3  1  0.39887006  0.10080659  0.39771222  1
  N  N4  1  0.39887006  0.60261113  0.10080659  1
  N  N5  1  0.39771222  0.10080659  0.60261113  1
  N  N6  1  0.60261113  0.39887006  0.39771222  1
  N  N7  1  0.10080659  0.39771222  0.39887006  1
  N  N8  1  0.60261113  0.10080659  0.39887006  1
  N  N9  1  0.10080659  0.60261113  0.39771222  1
  N  N10  1  0.39887006  0.39771222  0.60261113  1
  N  N11  1  0.39771222  0.39887006  0.10080659  1
  N  N12  1  0.89919341  0.60112994  0.39738887  1
  N  N13  1  0.39738887  0.60228778  0.89919341  1
  N  N14  1  0.60228778  0.39738887  0.60112994  1
  N  N15  1  0.60112994  0.89919341  0.60228778  1
  N  N16  1  0.60112994  0.39738887  0.89919341  1
  N  N17  1  0.60228778  0.89919341  0.39738887  1
  N  N18  1  0.39738887  0.60112994  0.60228778  1
  N  N19  1  0.89919341  0.60228778  0.60112994  1
  N  N20  1  0.39738887  0.89919341  0.60112994  1
  N  N21  1  0.89919341  0.39738887  0.60228778  1
  N  N22  1  0.60112994  0.60228778  0.39738887  1
  N  N23  1  0.60228778  0.60112994  0.89919341  1
  N  N24  1  0.12500000  0.12500000  0.12500000  1
  N  N25  1  0.87500000  0.87500000  0.87500000  1
  Cl  Cl0  1  0.22426710  0.22426710  0.82719870  1
  Cl  Cl1  1  0.82719870  0.22426710  0.22426710  1
  Cl  Cl2  1  0.22426710  0.82719870  0.22426710  1
  Cl  Cl3  1  0.22426710  0.22426710  0.22426710  1
  Cl  Cl4  1  0.77573290  0.77573290  0.17280130  1
  Cl  Cl5  1  0.17280130  0.77573290  0.77573290  1
  Cl  Cl6  1  0.77573290  0.17280130  0.77573290  1
  Cl  Cl7  1  0.77573290  0.77573290  0.77573290  1
  Cl  Cl8  1  0.85054531  0.39945469  0.85054531  1
  Cl  Cl9  1  0.39945469  0.85054531  0.39945469  1
  Cl  Cl10  1  0.39945469  0.85054531  0.85054531  1
  Cl  Cl11  1  0.85054531  0.39945469  0.39945469  1
  Cl  Cl12  1  0.85054531  0.85054531  0.39945469  1
  Cl  Cl13  1  0.39945469  0.39945469  0.85054531  1
  Cl  Cl14  1  0.14945469  0.60054531  0.14945469  1
  Cl  Cl15  1  0.60054531  0.14945469  0.60054531  1
  Cl  Cl16  1  0.60054531  0.14945469  0.14945469  1
  Cl  Cl17  1  0.14945469  0.60054531  0.60054531  1
  Cl  Cl18  1  0.14945469  0.14945469  0.60054531  1
  Cl  Cl19  1  0.60054531  0.60054531  0.14945469  1
  Cl  Cl20  1  0.62500000  0.62500000  0.62500000  1
  Cl  Cl21  1  0.37500000  0.37500000  0.37500000  1
  O  O0  1  0.39873070  0.01667368  0.92905424  1
  O  O1  1  0.92905424  0.15554138  0.39873070  1
  O  O2  1  0.15554138  0.92905424  0.01667368  1
  O  O3  1  0.01667368  0.39873070  0.15554138  1
  O  O4  1  0.01667368  0.92905424  0.39873070  1
  O  O5  1  0.15554138  0.39873070  0.92905424  1
  O  O6  1  0.92905424  0.01667368  0.15554138  1
  O  O7  1  0.39873070  0.15554138  0.01667368  1
  O  O8  1  0.92905424  0.39873070  0.01667368  1
  O  O9  1  0.39873070  0.92905424  0.15554138  1
  O  O10  1  0.01667368  0.15554138  0.92905424  1
  O  O11  1  0.15554138  0.01667368  0.39873070  1
  O  O12  1  0.60126930  0.98332632  0.07094576  1
  O  O13  1  0.07094576  0.84445862  0.60126930  1
  O  O14  1  0.84445862  0.07094576  0.98332632  1
  O  O15  1  0.98332632  0.60126930  0.84445862  1
  O  O16  1  0.98332632  0.07094576  0.60126930  1
  O  O17  1  0.84445862  0.60126930  0.07094576  1
  O  O18  1  0.07094576  0.98332632  0.84445862  1
  O  O19  1  0.60126930  0.84445862  0.98332632  1
  O  O20  1  0.07094576  0.60126930  0.98332632  1
  O  O21  1  0.60126930  0.07094576  0.84445862  1
  O  O22  1  0.98332632  0.84445862  0.07094576  1
  O  O23  1  0.84445862  0.98332632  0.60126930  1
loop_
_geom_bond_atom_site_label_1
_geom_bond_atom_site_label_2
_geom_bond_distance
_geom_bond_site_symmetry_2
Cr0 N11 2.104853 1_555
Cr0 N16 2.104853 1_554
Cr0 N13 2.104853 1_554
Cr0 N4 2.104853 1_555
Cr0 N1 2.104853 1_555
Cr0 N23 2.104853 1_554
Cr1 N7 2.104853 1_555
Cr1 N9 2.104853 1_555
Cr1 N0 2.104853 1_555
Cr1 N21 2.104853 1_455
Cr1 N12 2.104853 1_455
Cr1 N19 2.104853 1_455
Cr2 N3 2.104853 1_555
Cr2 N5 2.104853 1_555
Cr2 N8 2.104853 1_555
Cr2 N15 2.104853 1_545
Cr2 N20 2.104853 1_545
Cr2 N17 2.104853 1_545
Cr3 N10 2.104853 1_555
Cr3 N6 2.104853 1_555
Cr3 N2 2.104853 1_555
Cr3 N18 2.104853 1_555
Cr3 N22 2.104853 1_555
Cr3 N14 2.104853 1_555
Ni0 O4 2.063211 1_545
Ni0 O23 2.063211 1_445
Ni0 O13 2.063211 1_545
Ni0 O16 2.063211 1_455
Ni0 O1 2.063211 1_455
Ni0 O11 2.063211 1_555
Ni1 O12 2.063211 1_545
Ni1 O21 2.063211 1_554
Ni1 O19 2.063211 1_544
Ni1 O0 2.063211 1_554
Ni1 O7 2.063211 1_555
Ni1 O9 2.063211 1_545
Ni2 O8 2.063211 1_455
Ni2 O17 2.063211 1_455
Ni2 O15 2.063211 1_454
Ni2 O5 2.063211 1_554
Ni2 O20 2.063211 1_554
Ni2 O3 2.063211 1_555
Ni3 O22 2.063211 1_445
Ni3 O14 2.063211 1_454
Ni3 O18 2.063211 1_544
Ni3 O6 2.063211 1_455
Ni3 O10 2.063211 1_554
Ni3 O2 2.063211 1_545
H0 N0 1.024429 1_555
H1 N1 1.024429 1_555
H2 N2 1.024429 1_555
H3 N3 1.024429 1_555
H4 N4 1.024429 1_555
H5 N5 1.024429 1_555
H6 N6 1.024429 1_555
H7 N7 1.024429 1_555
H8 N8 1.024429 1_555
H9 N9 1.024429 1_555
H10 N10 1.024429 1_555
H11 N11 1.024429 1_555
H12 N12 1.024429 1_555
H13 N13 1.024429 1_555
H14 N14 1.024429 1_555
H15 N15 1.024429 1_555
H16 N16 1.024429 1_555
H17 N17 1.024429 1_555
H18 N18 1.024429 1_555
H19 N19 1.024429 1_555
H20 N20 1.024429 1_555
H21 N21 1.024429 1_555
H22 N22 1.024429 1_555
H23 N23 1.024429 1_555
H24 N0 1.034034 1_555
H25 N1 1.034034 1_555
H26 N2 1.034034 1_555
H27 N3 1.034034 1_555
H28 N4 1.034034 1_555
H29 N5 1.034034 1_555
H30 N6 1.034034 1_555
H31 N7 1.034034 1_555
H32 N8 1.034034 1_555
H33 N9 1.034034 1_555
H34 N10 1.034034 1_555
H35 N11 1.034034 1_555
H36 N12 1.034034 1_555
H37 N13 1.034034 1_555
H38 N14 1.034034 1_555
H39 N15 1.034034 1_555
H40 N16 1.034034 1_555
H41 N17 1.034034 1_555
H42 N18 1.034034 1_555
H43 N19 1.034034 1_555
H44 N20 1.034034 1_555
H45 N21 1.034034 1_555
H46 N22 1.034034 1_555
H47 N23 1.034034 1_555
H48 N0 1.025639 1_555
H49 N1 1.025639 1_555
H50 N2 1.025639 1_555
H51 N3 1.025639 1_555
H52 N4 1.025639 1_555
H53 N5 1.025639 1_555
H54 N6 1.025639 1_555
H55 N7 1.025639 1_555
H56 N8 1.025639 1_555
H57 N9 1.025639 1_555
H58 N10 1.025639 1_555
H59 N11 1.025639 1_555
H60 N12 1.025639 1_555
H61 N13 1.025639 1_555
H62 N14 1.025639 1_555
H63 N15 1.025639 1_555
H64 N16 1.025639 1_555
H65 N17 1.025639 1_555
H66 N18 1.025639 1_555
H67 N19 1.025639 1_555
H68 N20 1.025639 1_555
H69 N21 1.025639 1_555
H70 N22 1.025639 1_555
H71 N23 1.025639 1_555
H72 O0 0.983381 1_565
H73 O1 0.983381 1_555
H74 O2 0.983381 1_556
H75 O3 0.983381 1_655
H76 O4 0.983381 1_655
H77 O5 0.983381 1_555
H78 O6 0.983381 1_565
H79 O7 0.983381 1_556
H80 O8 0.983381 1_556
H81 O9 0.983381 1_555
H82 O10 0.983381 1_655
H83 O11 0.983381 1_565
H84 O12 0.983381 1_545
H85 O13 0.983381 1_555
H86 O14 0.983381 1_554
H87 O15 0.983381 1_455
H88 O16 0.983381 1_455
H89 O17 0.983381 1_555
H90 O18 0.983381 1_545
H91 O19 0.983381 1_554
H92 O20 0.983381 1_554
H93 O21 0.983381 1_555
H94 O22 0.983381 1_455
H95 O23 0.983381 1_545
H96 O0 0.991870 1_555
H97 O1 0.991870 1_555
H98 O2 0.991870 1_555
H99 O3 0.991870 1_555
H100 O4 0.991870 1_555
H101 O5 0.991870 1_555
H102 O6 0.991870 1_555
H103 O7 0.991870 1_555
H104 O8 0.991870 1_555
H105 O9 0.991870 1_555
H106 O10 0.991870 1_555
H107 O11 0.991870 1_555
H108 O12 0.991870 1_555
H109 O13 0.991870 1_555
H110 O14 0.991870 1_555
H111 O15 0.991870 1_555
H112 O16 0.991870 1_555
H113 O17 0.991870 1_555
H114 O18 0.991870 1_555
H115 O19 0.991870 1_555
H116 O20 0.991870 1_555
H117 O21 0.991870 1_555
H118 O22 0.991870 1_555
H119 O23 0.991870 1_555
H120 N24 1.037478 1_555
H121 N24 1.037478 1_555
H122 N24 1.037478 1_555
H123 N24 1.037478 1_555
H124 N25 1.037478 1_555
H125 N25 1.037478 1_555
H126 N25 1.037478 1_555
H127 N25 1.037478 1_555
Cl0 H106 2.093832 1_555
Cl0 H96 2.093832 1_555
Cl0 H101 2.093832 1_555
Cl1 H102 2.093832 1_555
Cl1 H104 2.093832 1_555
Cl1 H97 2.093832 1_555
Cl2 H98 2.093832 1_555
Cl2 H100 2.093832 1_555
Cl2 H105 2.093832 1_555
Cl3 H107 2.093832 1_555
Cl3 H103 2.093832 1_555
Cl3 H99 2.093832 1_555
Cl4 H118 2.093832 1_555
Cl4 H108 2.093832 1_555
Cl4 H113 2.093832 1_555
Cl5 H114 2.093832 1_555
Cl5 H116 2.093832 1_555
Cl5 H109 2.093832 1_555
Cl6 H110 2.093832 1_555
Cl6 H112 2.093832 1_555
Cl6 H117 2.093832 1_555
Cl7 H115 2.093832 1_555
Cl7 H119 2.093832 1_555
Cl7 H111 2.093832 1_555
