# generated using pymatgen
data_CeSm3
_symmetry_space_group_name_H-M   'P 1'
_cell_length_a   5.07537900
_cell_length_b   5.07537900
_cell_length_c   5.07537900
_cell_angle_alpha   90.00000000
_cell_angle_beta   90.00000000
_cell_angle_gamma   90.00000000
_symmetry_Int_Tables_number   1
_chemical_formula_structural   CeSm3
_chemical_formula_sum   'Ce1 Sm3'
_cell_volume   130.73908321
_cell_formula_units_Z   1
loop_
 _symmetry_equiv_pos_site_id
 _symmetry_equiv_pos_as_xyz
  1  'x, y, z'
loop_
 _atom_site_type_symbol
 _atom_site_label
 _atom_site_symmetry_multiplicity
 _atom_site_fract_x
 _atom_site_fract_y
 _atom_site_fract_z
 _atom_site_occupancy
  Ce  Ce0  1  0.00000000  0.00000000  0.00000000  1
  Sm  Sm0  1  0.00000000  0.50000000  0.50000000  1
  Sm  Sm1  1  0.50000000  0.00000000  0.50000000  1
  Sm  Sm2  1  0.50000000  0.50000000  0.00000000  1
loop_
_geom_bond_atom_site_label_1
_geom_bond_atom_site_label_2
_geom_bond_distance
_geom_bond_site_symmetry_2
Ce0 Sm2 3.588835 1_545
Ce0 Sm2 3.588835 1_555
Ce0 Sm2 3.588835 1_445
Ce0 Sm0 3.588835 1_554
Ce0 Sm1 3.588835 1_555
Ce0 Sm1 3.588835 1_554
Ce0 Sm1 3.588835 1_454
Ce0 Sm2 3.588835 1_455
Ce0 Sm1 3.588835 1_455
Ce0 Sm0 3.588835 1_544
Ce0 Sm0 3.588835 1_555
Ce0 Sm0 3.588835 1_545
Sm0 Sm2 3.588835 1_555
Sm0 Sm1 3.588835 1_465
Sm0 Sm2 3.588835 1_456
Sm0 Sm1 3.588835 1_555
Sm0 Sm1 3.588835 1_455
Sm0 Sm2 3.588835 1_455
Sm0 Sm2 3.588835 1_556
Sm0 Sm1 3.588835 1_565
Sm1 Sm2 3.588835 1_545
Sm1 Sm2 3.588835 1_555
Sm1 Sm2 3.588835 1_546
Sm1 Sm2 3.588835 1_556
