# generated using pymatgen
data_KMg6Mo
_symmetry_space_group_name_H-M   'P 1'
_cell_length_a   6.40247252
_cell_length_b   6.40247252
_cell_length_c   5.09626700
_cell_angle_alpha   90.00000000
_cell_angle_beta   90.00000000
_cell_angle_gamma   120.00000538
_symmetry_Int_Tables_number   1
_chemical_formula_structural   KMg6Mo
_chemical_formula_sum   'K1 Mg6 Mo1'
_cell_volume   180.91652095
_cell_formula_units_Z   1
loop_
 _symmetry_equiv_pos_site_id
 _symmetry_equiv_pos_as_xyz
  1  'x, y, z'
loop_
 _atom_site_type_symbol
 _atom_site_label
 _atom_site_symmetry_multiplicity
 _atom_site_fract_x
 _atom_site_fract_y
 _atom_site_fract_z
 _atom_site_occupancy
  K  K0  1  0.33333300  0.66666700  0.00000000  1
  Mg  Mg0  1  0.84939400  0.69878900  0.00000000  1
  Mg  Mg1  1  0.84939400  0.15060600  0.00000000  1
  Mg  Mg2  1  0.30121100  0.15060600  0.00000000  1
  Mg  Mg3  1  0.50853800  0.01707700  0.50000000  1
  Mg  Mg4  1  0.50853800  0.49146200  0.50000000  1
  Mg  Mg5  1  0.98292300  0.49146200  0.50000000  1
  Mo  Mo0  1  0.00000000  0.00000000  0.50000000  1
loop_
_geom_bond_atom_site_label_1
_geom_bond_atom_site_label_2
_geom_bond_distance
_geom_bond_site_symmetry_2
K0 Mg3 3.204360 1_564
K0 Mg3 3.204360 1_565
K0 Mg5 3.204360 1_455
K0 Mg5 3.204360 1_454
K0 Mg4 3.204360 1_555
K0 Mg4 3.204360 1_554
K0 Mg1 3.206187 1_455
K0 Mg1 3.206187 1_565
K0 Mg0 3.206187 1_555
K0 Mg2 3.206187 1_555
K0 Mg0 3.206187 1_455
K0 Mg2 3.206187 1_565
Mg0 Mg2 2.892746 1_665
Mg0 Mg1 2.892746 1_565
Mg0 Mo0 3.046687 1_664
Mg0 Mo0 3.046687 1_665
Mg0 Mg4 3.181303 1_555
Mg0 Mg4 3.181303 1_554
Mg0 Mg5 3.181303 1_554
Mg0 Mg5 3.181303 1_555
Mg1 Mg2 2.892746 1_655
Mg1 Mo0 3.046691 1_655
Mg1 Mo0 3.046691 1_654
Mg1 Mg5 3.181303 1_554
Mg1 Mg5 3.181303 1_555
Mg1 Mg3 3.181303 1_555
Mg1 Mg3 3.181303 1_554
Mg2 Mo0 3.046687 1_555
Mg2 Mo0 3.046687 1_554
Mg2 Mg4 3.181303 1_555
Mg2 Mg4 3.181303 1_554
Mg2 Mg3 3.181303 1_554
Mg2 Mg3 3.181303 1_555
Mg3 Mg5 3.037237 1_555
Mg3 Mg4 3.037237 1_555
Mg3 Mo0 3.202633 1_555
Mg3 Mo0 3.202639 1_655
Mg3 Mg5 3.365235 1_445
Mg3 Mg4 3.365236 1_545
Mg4 Mg5 3.037237 1_555
Mg4 Mo0 3.202636 1_555
Mg4 Mo0 3.202636 1_665
Mg4 Mg5 3.365236 1_455
Mg5 Mo0 3.202633 1_665
Mg5 Mo0 3.202639 1_655
