# generated using pymatgen
data_Pr6Ni3Sn14
_symmetry_space_group_name_H-M   'P 1'
_cell_length_a   4.58342185
_cell_length_b   4.57783619
_cell_length_c   27.59267038
_cell_angle_alpha   90.00000000
_cell_angle_beta   90.00000000
_cell_angle_gamma   90.00000000
_symmetry_Int_Tables_number   1
_chemical_formula_structural   Pr6Ni3Sn14
_chemical_formula_sum   'Pr6 Ni3 Sn14'
_cell_volume   578.95367074
_cell_formula_units_Z   1
loop_
 _symmetry_equiv_pos_site_id
 _symmetry_equiv_pos_as_xyz
  1  'x, y, z'
loop_
 _atom_site_type_symbol
 _atom_site_label
 _atom_site_symmetry_multiplicity
 _atom_site_fract_x
 _atom_site_fract_y
 _atom_site_fract_z
 _atom_site_occupancy
  Pr  Pr0  1  -0.00000000  0.00000000  0.81408099  1
  Pr  Pr1  1  0.00000000  0.50000000  0.31532869  1
  Pr  Pr2  1  -0.00000000  0.50000000  0.68513276  1
  Pr  Pr3  1  0.00000000  0.00000000  0.18490877  1
  Pr  Pr4  1  0.50000000  0.50000000  0.99927839  1
  Pr  Pr5  1  0.50000000  0.00000000  0.49933100  1
  Ni  Ni0  1  0.50000000  0.50000000  0.12854629  1
  Ni  Ni1  1  0.50000000  0.50000000  0.87060393  1
  Ni  Ni2  1  0.50000000  0.00000000  0.37215523  1
  Sn  Sn0  1  0.00000000  0.00000000  0.59439524  1
  Sn  Sn1  1  -0.00000000  0.50000000  0.09038537  1
  Sn  Sn2  1  -0.00000000  0.50000000  0.90850015  1
  Sn  Sn3  1  -0.00000000  0.00000000  0.41002226  1
  Sn  Sn4  1  0.50000000  0.00000000  0.90847699  1
  Sn  Sn5  1  0.50000000  0.50000000  0.40984810  1
  Sn  Sn6  1  0.50000000  0.50000000  0.59439114  1
  Sn  Sn7  1  0.50000000  -0.00000000  0.09027757  1
  Sn  Sn8  1  0.50000000  0.00000000  0.71265041  1
  Sn  Sn9  1  0.50000000  0.50000000  0.21864035  1
  Sn  Sn10  1  0.50000000  0.50000000  0.77996714  1
  Sn  Sn11  1  0.50000000  0.00000000  0.28187641  1
  Sn  Sn12  1  -0.00000000  0.00000000  -0.00028323  1
  Sn  Sn13  1  -0.00000000  0.50000000  0.50308506  1
loop_
_geom_bond_atom_site_label_1
_geom_bond_atom_site_label_2
_geom_bond_distance
_geom_bond_site_symmetry_2
Pr0 Sn10 3.372998 1_545
Pr0 Sn10 3.372998 1_455
Pr0 Sn10 3.372998 1_555
Pr0 Sn10 3.372998 1_445
Pr0 Sn2 3.467941 1_545
Pr0 Sn2 3.467941 1_555
Pr0 Sn4 3.469305 1_555
Pr0 Sn4 3.469305 1_455
Pr0 Sn8 3.617304 1_455
Pr0 Sn8 3.617304 1_555
Pr1 Sn11 3.367949 1_465
Pr1 Sn11 3.367949 1_455
Pr1 Sn11 3.367949 1_565
Pr1 Sn11 3.367949 1_555
Pr1 Sn5 3.471862 1_555
Pr1 Sn5 3.471862 1_455
Pr1 Sn3 3.473633 1_555
Pr1 Sn3 3.473633 1_565
Pr1 Sn9 3.517040 1_555
Pr1 Sn9 3.517040 1_455
Pr2 Sn8 3.326800 1_555
Pr2 Sn8 3.326800 1_465
Pr2 Sn8 3.326800 1_455
Pr2 Sn8 3.326800 1_565
Pr2 Sn0 3.392287 1_565
Pr2 Sn0 3.392287 1_555
Pr2 Sn6 3.394256 1_455
Pr2 Sn6 3.394256 1_555
Pr2 Sn10 3.478395 1_455
Pr2 Sn10 3.478395 1_555
Pr3 Sn9 3.370070 1_545
Pr3 Sn9 3.370070 1_445
Pr3 Sn9 3.370070 1_455
Pr3 Sn9 3.370070 1_555
Pr3 Sn1 3.470102 1_545
Pr3 Sn1 3.470102 1_555
Pr3 Sn7 3.474180 1_455
Pr3 Sn7 3.474180 1_555
Pr3 Sn11 3.522890 1_555
Pr3 Sn11 3.522890 1_455
Pr4 Sn12 3.239017 1_656
Pr4 Sn12 3.239017 1_666
Pr4 Sn12 3.239017 1_566
Pr4 Sn12 3.239017 1_556
Pr4 Sn4 3.393588 1_565
Pr4 Sn4 3.393588 1_555
Pr4 Sn2 3.395001 1_555
Pr4 Sn2 3.395001 1_655
Pr4 Sn7 3.397619 1_566
Pr4 Sn7 3.397619 1_556
Pr4 Sn1 3.401699 1_656
Pr4 Sn1 3.401699 1_556
Pr5 Sn13 3.240650 1_645
Pr5 Sn13 3.240650 1_545
Pr5 Sn13 3.240650 1_555
Pr5 Sn13 3.240650 1_655
Pr5 Sn3 3.365197 1_655
Pr5 Sn3 3.365197 1_555
Pr5 Sn5 3.366818 1_555
Pr5 Sn5 3.366818 1_545
Pr5 Sn6 3.481247 1_555
Pr5 Sn6 3.481247 1_545
Pr5 Sn0 3.483169 1_655
Pr5 Sn0 3.483169 1_555
Ni0 Sn9 2.485936 1_555
Ni0 Sn7 2.520743 1_555
Ni0 Sn7 2.520743 1_565
Ni0 Sn1 2.522036 1_555
Ni0 Sn1 2.522036 1_655
Ni0 Pr3 3.593008 1_565
Ni0 Pr3 3.593008 1_655
Ni0 Pr3 3.593008 1_665
Ni0 Pr3 3.593008 1_555
Ni1 Sn10 2.500911 1_555
Ni1 Sn4 2.516190 1_565
Ni1 Sn4 2.516190 1_555
Ni1 Sn2 2.518996 1_555
Ni1 Sn2 2.518996 1_655
Ni1 Pr0 3.594926 1_655
Ni1 Pr0 3.594926 1_665
Ni1 Pr0 3.594926 1_555
Ni1 Pr0 3.594926 1_565
Ni2 Sn11 2.491034 1_555
Ni2 Sn5 2.514129 1_555
Ni2 Sn5 2.514129 1_545
Ni2 Sn3 2.518661 1_655
Ni2 Sn3 2.518661 1_555
Ni2 Pr5 3.509119 1_555
Ni2 Pr1 3.598569 1_645
Ni2 Pr1 3.598569 1_655
Ni2 Pr1 3.598569 1_545
Ni2 Pr1 3.598569 1_555
Sn0 Sn6 3.238994 1_545
Sn0 Sn6 3.238994 1_555
Sn0 Sn6 3.238994 1_445
Sn0 Sn6 3.238994 1_455
Sn0 Sn13 3.403966 1_545
Sn0 Sn13 3.403966 1_555
Sn10 Sn8 2.947755 1_565
Sn10 Sn8 2.947755 1_555
Sn11 Sn9 2.878134 1_545
Sn11 Sn9 2.878134 1_555
Sn13 Sn6 3.405761 1_455
Sn13 Sn6 3.405761 1_555
