# generated using pymatgen
data_Li7Mn2(CoO4)3
_symmetry_space_group_name_H-M   'P 1'
_cell_length_a   2.96484500
_cell_length_b   7.80621954
_cell_length_c   10.15728958
_cell_angle_alpha   110.67977899
_cell_angle_beta   91.17300147
_cell_angle_gamma   98.27007768
_symmetry_Int_Tables_number   1
_chemical_formula_structural   Li7Mn2(CoO4)3
_chemical_formula_sum   'Li7 Mn2 Co3 O12'
_cell_volume   217.00309974
_cell_formula_units_Z   1
loop_
 _symmetry_equiv_pos_site_id
 _symmetry_equiv_pos_as_xyz
  1  'x, y, z'
loop_
 _atom_site_type_symbol
 _atom_site_label
 _atom_site_symmetry_multiplicity
 _atom_site_fract_x
 _atom_site_fract_y
 _atom_site_fract_z
 _atom_site_occupancy
  Li  Li0  1  0.17611800  0.33670100  0.92200000  1
  Li  Li1  1  0.82797000  0.66241600  0.57901900  1
  Li  Li2  1  0.51125700  0.01082600  0.24849000  1
  Li  Li3  1  0.81905300  0.66594400  0.09141600  1
  Li  Li4  1  0.49877700  0.00045800  0.75084000  1
  Li  Li5  1  0.17005000  0.33159200  0.40601800  1
  Li  Li6  1  0.65035600  0.32774600  0.17274100  1
  Mn  Mn0  1  0.00754400  0.01200600  0.00854900  1
  Mn  Mn1  1  0.00288300  0.99580800  0.49808500  1
  Co  Co0  1  0.67209500  0.33245300  0.66306300  1
  Co  Co1  1  0.31436900  0.65202600  0.32517400  1
  Co  Co2  1  0.33887200  0.66593400  0.83097200  1
  O  O0  1  0.56195500  0.14759300  0.96321100  1
  O  O1  1  0.23956100  0.49419000  0.63239000  1
  O  O2  1  0.94233800  0.82922200  0.30192800  1
  O  O3  1  0.26020900  0.52255300  0.14390000  1
  O  O4  1  0.92797900  0.82881500  0.80353400  1
  O  O5  1  0.62871300  0.16912900  0.46711600  1
  O  O6  1  0.74053000  0.50437000  0.86758200  1
  O  O7  1  0.38199300  0.82394000  0.52560200  1
  O  O8  1  0.07361400  0.15435700  0.19533800  1
  O  O9  1  0.44500200  0.85256400  0.03329700  1
  O  O10  1  0.09319900  0.16468700  0.69813200  1
  O  O11  1  0.71556400  0.51467000  0.37160500  1
loop_
_geom_bond_atom_site_label_1
_geom_bond_atom_site_label_2
_geom_bond_distance
_geom_bond_site_symmetry_2
Li0 O0 2.136749 1_555
Li0 O6 2.157429 1_455
Li0 O6 2.176612 1_555
Li0 O10 2.181671 1_555
Li0 O3 2.193275 1_556
Li0 O0 2.316131 1_455
Li1 O11 2.006051 1_555
Li1 O1 2.108143 1_655
Li1 O7 2.122781 1_655
Li1 O7 2.136826 1_555
Li1 O4 2.178312 1_555
Li1 O1 2.223576 1_555
Li2 O8 2.011777 1_555
Li2 O8 2.062381 1_655
Li2 O9 2.085151 1_545
Li2 O5 2.118015 1_555
Li2 O2 2.230277 1_545
Li2 O2 2.245556 1_445
Li3 O3 2.015430 1_655
Li3 O3 2.050968 1_555
Li3 O2 2.058953 1_555
Li3 O6 2.163922 1_554
Li3 O9 2.178533 1_555
Li3 O9 2.406115 1_655
Li4 O0 2.044285 1_555
Li4 O10 2.068332 1_555
Li4 O4 2.161060 1_545
Li4 O4 2.199319 1_445
Li4 O7 2.203731 1_545
Li4 O10 2.215745 1_655
Li5 O8 2.084540 1_555
Li5 O11 2.119322 1_555
Li5 O5 2.140229 1_455
Li5 O1 2.187348 1_555
Li5 O5 2.204589 1_555
Li5 O11 2.206328 1_455
Li6 O11 2.016869 1_555
Li6 O8 2.038551 1_655
Li6 O0 2.081609 1_554
Li6 O8 2.092434 1_555
Li6 O3 2.131475 1_555
Li6 O3 2.283196 1_655
Mn0 O8 1.818220 1_555
Mn0 O0 1.949165 1_454
Mn0 O0 1.977111 1_554
Mn0 O9 1.991616 1_545
Mn0 O9 2.008730 1_445
Mn0 O4 2.053436 1_444
Mn1 O2 1.944548 1_455
Mn1 O7 1.956350 1_555
Mn1 O5 1.969333 1_465
Mn1 O10 1.980560 1_565
Mn1 O7 2.200508 1_455
Mn1 O5 2.230389 1_565
Co0 O5 1.937372 1_555
Co0 O1 2.015662 1_555
Co0 O6 2.023112 1_555
Co0 O10 2.045092 1_655
Co0 O1 2.051815 1_655
Co0 O10 2.120301 1_555
Co1 O3 1.750526 1_555
Co1 O11 1.867634 1_555
Co1 O2 1.960778 1_455
Co1 O7 1.990460 1_555
Co1 O11 2.089934 1_455
Co1 O2 2.223352 1_555
Co2 O4 1.964796 1_455
Co2 O6 1.972873 1_555
Co2 O1 1.976051 1_555
Co2 O9 2.042511 1_556
Co2 O4 2.091968 1_555
Co2 O6 2.142561 1_455
