# generated using pymatgen
data_NpAlO3
_symmetry_space_group_name_H-M   'P 1'
_cell_length_a   3.76585300
_cell_length_b   3.76585300
_cell_length_c   3.76585300
_cell_angle_alpha   90.00000000
_cell_angle_beta   90.00000000
_cell_angle_gamma   90.00000000
_symmetry_Int_Tables_number   1
_chemical_formula_structural   NpAlO3
_chemical_formula_sum   'Np1 Al1 O3'
_cell_volume   53.40600474
_cell_formula_units_Z   1
loop_
 _symmetry_equiv_pos_site_id
 _symmetry_equiv_pos_as_xyz
  1  'x, y, z'
loop_
 _atom_site_type_symbol
 _atom_site_label
 _atom_site_symmetry_multiplicity
 _atom_site_fract_x
 _atom_site_fract_y
 _atom_site_fract_z
 _atom_site_occupancy
  Np  Np0  1  0.00000000  0.00000000  0.00000000  1
  Al  Al0  1  0.50000000  0.50000000  0.50000000  1
  O  O0  1  0.50000000  0.50000000  0.00000000  1
  O  O1  1  0.50000000  0.00000000  0.50000000  1
  O  O2  1  0.00000000  0.50000000  0.50000000  1
loop_
_geom_bond_atom_site_label_1
_geom_bond_atom_site_label_2
_geom_bond_distance
_geom_bond_site_symmetry_2
Np0 O2 2.662860 1_545
Np0 O1 2.662860 1_555
Np0 O1 2.662860 1_454
Np0 O0 2.662860 1_555
Np0 O1 2.662860 1_455
Np0 O1 2.662860 1_554
Np0 O0 2.662860 1_545
Np0 O2 2.662860 1_554
Np0 O2 2.662860 1_555
Np0 O0 2.662860 1_445
Np0 O0 2.662860 1_455
Np0 O2 2.662860 1_544
Al0 O2 1.882926 1_555
Al0 O1 1.882926 1_565
Al0 O2 1.882926 1_655
Al0 O0 1.882926 1_556
Al0 O1 1.882926 1_555
Al0 O0 1.882926 1_555
