# generated using pymatgen
data_Y(AlFe2)4
_symmetry_space_group_name_H-M   'P 1'
_cell_length_a   6.49266165
_cell_length_b   6.49266165
_cell_length_c   6.49266165
_cell_angle_alpha   98.32191583
_cell_angle_beta   98.32191583
_cell_angle_gamma   135.27810487
_symmetry_Int_Tables_number   1
_chemical_formula_structural   Y(AlFe2)4
_chemical_formula_sum   'Y1 Al4 Fe8'
_cell_volume   178.10884299
_cell_formula_units_Z   1
loop_
 _symmetry_equiv_pos_site_id
 _symmetry_equiv_pos_as_xyz
  1  'x, y, z'
loop_
 _atom_site_type_symbol
 _atom_site_label
 _atom_site_symmetry_multiplicity
 _atom_site_fract_x
 _atom_site_fract_y
 _atom_site_fract_z
 _atom_site_occupancy
  Y  Y0  1  0.00000000  0.00000000  0.00000000  1
  Al  Al0  1  0.34509500  0.00000000  0.34509500  1
  Al  Al1  1  0.65490500  0.00000000  0.65490500  1
  Al  Al2  1  0.00000000  0.34509500  0.34509500  1
  Al  Al3  1  0.00000000  0.65490500  0.65490500  1
  Fe  Fe0  1  0.50000000  0.50000000  0.50000000  1
  Fe  Fe1  1  0.00000000  0.00000000  0.50000000  1
  Fe  Fe2  1  0.00000000  0.50000000  0.00000000  1
  Fe  Fe3  1  0.50000000  0.00000000  0.00000000  1
  Fe  Fe4  1  0.26719600  0.50000000  0.76719600  1
  Fe  Fe5  1  0.73280400  0.50000000  0.23280400  1
  Fe  Fe6  1  0.50000000  0.26719600  0.76719600  1
  Fe  Fe7  1  0.50000000  0.73280400  0.23280400  1
loop_
_geom_bond_atom_site_label_1
_geom_bond_atom_site_label_2
_geom_bond_distance
_geom_bond_site_symmetry_2
Al0 Fe3 2.585354 1_555
Al0 Fe2 2.585354 1_545
Al0 Fe0 2.585354 1_555
Al0 Fe1 2.585354 1_555
Al0 Fe6 2.622636 1_555
Al0 Fe7 2.622636 1_545
Al0 Al1 2.630775 1_555
Al0 Fe5 2.647726 1_445
Al0 Fe5 2.647726 1_555
Al0 Y0 2.930400 1_555
Al1 Fe0 2.585354 1_545
Al1 Fe1 2.585354 1_655
Al1 Fe3 2.585354 1_556
Al1 Fe2 2.585354 1_656
Al1 Fe6 2.622636 1_555
Al1 Fe7 2.622636 1_545
Al1 Fe4 2.647726 1_545
Al1 Fe4 2.647726 1_655
Al1 Y0 2.930400 1_656
Al2 Fe2 2.585354 1_555
Al2 Fe0 2.585354 1_555
Al2 Fe1 2.585354 1_555
Al2 Fe3 2.585354 1_455
Al2 Fe4 2.622636 1_555
Al2 Fe5 2.622636 1_455
Al2 Al3 2.630775 1_555
Al2 Fe7 2.647726 1_445
Al2 Fe7 2.647726 1_555
Al2 Y0 2.930400 1_555
Al3 Fe3 2.585354 1_566
Al3 Fe1 2.585354 1_565
Al3 Fe2 2.585354 1_556
Al3 Fe0 2.585354 1_455
Al3 Fe4 2.622636 1_555
Al3 Fe5 2.622636 1_455
Al3 Fe6 2.647726 1_565
Al3 Fe6 2.647726 1_455
Al3 Y0 2.930400 1_566
Fe0 Fe4 2.460347 1_555
Fe0 Fe6 2.460347 1_555
Fe0 Fe7 2.460347 1_555
Fe0 Fe5 2.460347 1_555
Fe0 Fe1 2.470069 1_665
Fe0 Fe1 2.470069 1_555
Fe0 Y0 3.246331 1_666
Fe0 Y0 3.246331 1_555
Fe1 Fe4 2.460347 1_555
Fe1 Fe6 2.460347 1_555
Fe1 Fe5 2.460347 1_445
Fe1 Fe7 2.460347 1_445
Fe1 Y0 3.246331 1_556
Fe1 Y0 3.246331 1_555
Fe2 Fe5 2.460347 1_455
Fe2 Fe7 2.460347 1_555
Fe2 Fe4 2.460347 1_554
Fe2 Fe6 2.460347 1_454
Fe2 Fe3 2.470069 1_565
Fe2 Fe3 2.470069 1_455
Fe2 Y0 3.246331 1_555
Fe2 Y0 3.246331 1_565
Fe3 Fe7 2.460347 1_545
Fe3 Fe5 2.460347 1_555
Fe3 Fe6 2.460347 1_554
Fe3 Fe4 2.460347 1_544
Fe3 Y0 3.246331 1_655
Fe3 Y0 3.246331 1_555
Fe4 Fe7 2.795720 1_556
Fe4 Fe6 2.795720 1_555
Fe4 Y0 3.163742 1_666
Fe4 Y0 3.163742 1_556
Fe5 Fe6 2.795720 1_554
Fe5 Fe7 2.795720 1_555
Fe5 Y0 3.163742 1_665
Fe5 Y0 3.163742 1_555
Fe6 Y0 3.163742 1_666
Fe6 Y0 3.163742 1_556
Fe7 Y0 3.163742 1_665
Fe7 Y0 3.163742 1_555
