# generated using pymatgen
data_Mn(CO3)2
_symmetry_space_group_name_H-M   'P 1'
_cell_length_a   7.42242300
_cell_length_b   7.52673552
_cell_length_c   8.93128770
_cell_angle_alpha   99.86859710
_cell_angle_beta   90.00000000
_cell_angle_gamma   90.00000000
_symmetry_Int_Tables_number   1
_chemical_formula_structural   Mn(CO3)2
_chemical_formula_sum   'Mn4 C8 O24'
_cell_volume   491.57789158
_cell_formula_units_Z   4
loop_
 _symmetry_equiv_pos_site_id
 _symmetry_equiv_pos_as_xyz
  1  'x, y, z'
loop_
 _atom_site_type_symbol
 _atom_site_label
 _atom_site_symmetry_multiplicity
 _atom_site_fract_x
 _atom_site_fract_y
 _atom_site_fract_z
 _atom_site_occupancy
  Mn  Mn0  1  0.50000000  0.00000000  0.50000000  1
  Mn  Mn1  1  0.00000000  0.00000000  0.00000000  1
  Mn  Mn2  1  0.00000000  0.50000000  0.50000000  1
  Mn  Mn3  1  0.50000000  0.50000000  0.00000000  1
  C  C0  1  0.65575900  0.82936200  0.17929800  1
  C  C1  1  0.15575900  0.17063800  0.32070200  1
  C  C2  1  0.34424100  0.17063800  0.82070200  1
  C  C3  1  0.84424100  0.82936200  0.67929800  1
  C  C4  1  0.23652000  0.67689100  0.00564200  1
  C  C5  1  0.73652000  0.32310900  0.49435800  1
  C  C6  1  0.76348000  0.32310900  0.99435800  1
  C  C7  1  0.26348000  0.67689100  0.50564200  1
  O  O0  1  0.61593900  0.94998200  0.29470100  1
  O  O1  1  0.11593900  0.05001800  0.20529900  1
  O  O2  1  0.38406100  0.05001800  0.70529900  1
  O  O3  1  0.88406100  0.94998200  0.79470100  1
  O  O4  1  0.75169400  0.87240700  0.07340800  1
  O  O5  1  0.25169400  0.12759300  0.42659200  1
  O  O6  1  0.24830600  0.12759300  0.92659200  1
  O  O7  1  0.74830600  0.87240700  0.57340800  1
  O  O8  1  0.25529900  0.54760300  0.08492900  1
  O  O9  1  0.75529900  0.45239700  0.41507100  1
  O  O10  1  0.74470100  0.45239700  0.91507100  1
  O  O11  1  0.24470100  0.54760300  0.58492900  1
  O  O12  1  0.08625000  0.75500300  0.99906800  1
  O  O13  1  0.58625000  0.24499700  0.50093200  1
  O  O14  1  0.91375000  0.24499700  0.00093200  1
  O  O15  1  0.41375000  0.75500300  0.49906800  1
  O  O16  1  0.11771900  0.70802300  0.43198000  1
  O  O17  1  0.61771900  0.29197700  0.06802000  1
  O  O18  1  0.88228100  0.29197700  0.56802000  1
  O  O19  1  0.38228100  0.70802300  0.93198000  1
  O  O20  1  0.59893500  0.66420800  0.17276200  1
  O  O21  1  0.09893500  0.33579200  0.32723800  1
  O  O22  1  0.40106500  0.33579200  0.82723800  1
  O  O23  1  0.90106500  0.66420800  0.67276200  1
loop_
_geom_bond_atom_site_label_1
_geom_bond_atom_site_label_2
_geom_bond_distance
_geom_bond_site_symmetry_2
Mn0 O13 1.950662 1_555
Mn0 O15 1.950662 1_545
Mn0 O2 2.001921 1_555
Mn0 O0 2.001921 1_545
Mn0 O5 2.228168 1_555
Mn0 O7 2.228168 1_545
Mn1 O12 1.950662 1_544
Mn1 O14 1.950662 1_455
Mn1 O3 2.001921 1_444
Mn1 O1 2.001921 1_555
Mn1 O4 2.228168 1_445
Mn1 O6 2.228168 1_554
Mn2 O23 1.947803 1_455
Mn2 O21 1.947803 1_555
Mn2 O9 1.977228 1_455
Mn2 O11 1.977228 1_555
Mn2 O16 1.977395 1_555
Mn2 O18 1.977395 1_455
Mn3 O22 1.947803 1_554
Mn3 O20 1.947803 1_555
Mn3 O10 1.977228 1_554
Mn3 O8 1.977228 1_555
Mn3 O19 1.977395 1_554
Mn3 O17 1.977395 1_555
C0 O4 1.269431 1_555
C0 O0 1.285759 1_555
C0 O20 1.304473 1_555
C1 O5 1.269431 1_555
C1 O1 1.285759 1_555
C1 O21 1.304473 1_555
C2 O6 1.269431 1_555
C2 O2 1.285759 1_555
C2 O22 1.304473 1_555
C3 O7 1.269431 1_555
C3 O3 1.285759 1_555
C3 O23 1.304473 1_555
C4 O12 1.266880 1_554
C4 O8 1.305392 1_555
C4 O19 1.308084 1_554
C5 O13 1.266880 1_555
C5 O9 1.305392 1_555
C5 O18 1.308084 1_555
C6 O14 1.266880 1_556
C6 O10 1.305392 1_555
C6 O17 1.308084 1_556
C7 O15 1.266880 1_555
C7 O11 1.305392 1_555
C7 O16 1.308084 1_555
