# generated using pymatgen
data_SrPrCuSe3
_symmetry_space_group_name_H-M   'P 1'
_cell_length_a   4.18116000
_cell_length_b   11.10425300
_cell_length_c   13.64281700
_cell_angle_alpha   90.00000000
_cell_angle_beta   90.00000000
_cell_angle_gamma   90.00000000
_symmetry_Int_Tables_number   1
_chemical_formula_structural   SrPrCuSe3
_chemical_formula_sum   'Sr4 Pr4 Cu4 Se12'
_cell_volume   633.41769111
_cell_formula_units_Z   4
loop_
 _symmetry_equiv_pos_site_id
 _symmetry_equiv_pos_as_xyz
  1  'x, y, z'
loop_
 _atom_site_type_symbol
 _atom_site_label
 _atom_site_symmetry_multiplicity
 _atom_site_fract_x
 _atom_site_fract_y
 _atom_site_fract_z
 _atom_site_occupancy
  Sr  Sr0  1  0.75000000  0.21547500  0.50014800  1
  Sr  Sr1  1  0.25000000  0.78452500  0.49985200  1
  Sr  Sr2  1  0.75000000  0.71547500  0.99985200  1
  Sr  Sr3  1  0.25000000  0.28452500  0.00014800  1
  Pr  Pr0  1  0.75000000  0.48101700  0.26281800  1
  Pr  Pr1  1  0.25000000  0.51898300  0.73718200  1
  Pr  Pr2  1  0.75000000  0.98101700  0.23718200  1
  Pr  Pr3  1  0.25000000  0.01898300  0.76281800  1
  Cu  Cu0  1  0.25000000  0.23384200  0.27664300  1
  Cu  Cu1  1  0.75000000  0.76615800  0.72335700  1
  Cu  Cu2  1  0.25000000  0.73384200  0.22335700  1
  Cu  Cu3  1  0.75000000  0.26615800  0.77664300  1
  Se  Se0  1  0.75000000  0.10283600  0.89921100  1
  Se  Se1  1  0.25000000  0.89716400  0.10078900  1
  Se  Se2  1  0.75000000  0.60283600  0.60078900  1
  Se  Se3  1  0.25000000  0.39716400  0.39921100  1
  Se  Se4  1  0.25000000  0.05226100  0.38413500  1
  Se  Se5  1  0.75000000  0.94773900  0.61586500  1
  Se  Se6  1  0.25000000  0.55226100  0.11586500  1
  Se  Se7  1  0.75000000  0.44773900  0.88413500  1
  Se  Se8  1  0.75000000  0.23742900  0.17014700  1
  Se  Se9  1  0.25000000  0.76257100  0.82985300  1
  Se  Se10  1  0.75000000  0.73742900  0.32985300  1
  Se  Se11  1  0.25000000  0.26257100  0.67014700  1
loop_
_geom_bond_atom_site_label_1
_geom_bond_atom_site_label_2
_geom_bond_distance
_geom_bond_site_symmetry_2
Pr0 Se3 2.949583 1_555
Pr0 Se3 2.949583 1_655
Pr0 Se8 2.985753 1_555
Pr0 Se10 2.990536 1_555
Pr0 Se6 3.002635 1_655
Pr0 Se6 3.002635 1_555
Pr1 Se2 2.949583 1_455
Pr1 Se2 2.949583 1_555
Pr1 Se9 2.985753 1_555
Pr1 Se11 2.990536 1_555
Pr1 Se7 3.002635 1_555
Pr1 Se7 3.002635 1_455
Pr2 Se1 2.949583 1_655
Pr2 Se1 2.949583 1_555
Pr2 Se10 2.985753 1_555
Pr2 Se8 2.990536 1_565
Pr2 Se4 3.002635 1_565
Pr2 Se4 3.002635 1_665
Pr3 Se0 2.949583 1_455
Pr3 Se0 2.949583 1_555
Pr3 Se11 2.985753 1_555
Pr3 Se9 2.990536 1_545
Pr3 Se5 3.002635 1_545
Pr3 Se5 3.002635 1_445
Cu0 Se3 2.466819 1_555
Cu0 Se4 2.493222 1_555
Cu0 Se8 2.546183 1_555
Cu0 Se8 2.546183 1_455
Cu1 Se2 2.466819 1_555
Cu1 Se5 2.493222 1_555
Cu1 Se9 2.546183 1_655
Cu1 Se9 2.546183 1_555
Cu2 Se1 2.466819 1_555
Cu2 Se6 2.493222 1_555
Cu2 Se10 2.546183 1_455
Cu2 Se10 2.546183 1_555
Cu3 Se0 2.466819 1_555
Cu3 Se7 2.493222 1_555
Cu3 Se11 2.546183 1_655
Cu3 Se11 2.546183 1_555
Se0 Sr3 3.215155 1_656
Se0 Sr3 3.215155 1_556
Se1 Sr2 3.215155 1_454
Se1 Sr2 3.215155 1_554
Se2 Sr1 3.215155 1_655
Se2 Sr1 3.215155 1_555
Se3 Sr0 3.215155 1_455
Se3 Sr0 3.215155 1_555
Se4 Sr0 3.187521 1_555
Se4 Sr0 3.187521 1_455
Se4 Sr1 3.366169 1_545
Se5 Sr1 3.187521 1_655
Se5 Sr1 3.187521 1_555
Se5 Sr0 3.366169 1_565
Se6 Sr2 3.187521 1_454
Se6 Sr2 3.187521 1_554
Se6 Sr3 3.366169 1_555
Se7 Sr3 3.187521 1_556
Se7 Sr3 3.187521 1_656
Se7 Sr2 3.366169 1_555
Se8 Sr3 3.165914 1_555
Se8 Sr3 3.165914 1_655
Se9 Sr2 3.165914 1_455
Se9 Sr2 3.165914 1_555
Se10 Sr1 3.165914 1_555
Se10 Sr1 3.165914 1_655
Se11 Sr0 3.165914 1_455
Se11 Sr0 3.165914 1_555
