# generated using pymatgen
data_Ag3P3HO9
_symmetry_space_group_name_H-M   'P 1'
_cell_length_a   7.78284597
_cell_length_b   7.78284597
_cell_length_c   9.30597879
_cell_angle_alpha   63.73339388
_cell_angle_beta   63.73339388
_cell_angle_gamma   85.95420453
_symmetry_Int_Tables_number   1
_chemical_formula_structural   Ag3P3HO9
_chemical_formula_sum   'Ag6 P6 H2 O18'
_cell_volume   447.75417662
_cell_formula_units_Z   2
loop_
 _symmetry_equiv_pos_site_id
 _symmetry_equiv_pos_as_xyz
  1  'x, y, z'
loop_
 _atom_site_type_symbol
 _atom_site_label
 _atom_site_symmetry_multiplicity
 _atom_site_fract_x
 _atom_site_fract_y
 _atom_site_fract_z
 _atom_site_occupancy
  Ag  Ag0  1  0.67605100  0.32394900  0.50000000  1
  Ag  Ag1  1  0.32394900  0.67605100  0.50000000  1
  Ag  Ag2  1  0.47603900  0.18326900  0.03624300  1
  Ag  Ag3  1  0.52396100  0.81673100  0.96375700  1
  Ag  Ag4  1  0.81673100  0.52396100  0.96375700  1
  Ag  Ag5  1  0.18326900  0.47603900  0.03624300  1
  P  P0  1  0.78402400  0.06250500  0.26341200  1
  P  P1  1  0.21597600  0.93749500  0.73658800  1
  P  P2  1  0.93749500  0.21597600  0.73658800  1
  P  P3  1  0.06250500  0.78402400  0.26341200  1
  P  P4  1  0.70907400  0.70907400  0.59022300  1
  P  P5  1  0.29092600  0.29092600  0.40977700  1
  H  H0  1  0.67885300  0.67885300  0.05261600  1
  H  H1  1  0.32114700  0.32114700  0.94738400  1
  O  O0  1  0.99455600  0.99455600  0.19286300  1
  O  O1  1  0.00544400  0.00544400  0.80713700  1
  O  O2  1  0.27132800  0.82271100  0.22440800  1
  O  O3  1  0.72867200  0.17728900  0.77559200  1
  O  O4  1  0.17728900  0.72867200  0.77559200  1
  O  O5  1  0.82271100  0.27132800  0.22440800  1
  O  O6  1  0.70087900  0.93767000  0.48233900  1
  O  O7  1  0.29912100  0.06233000  0.51766100  1
  O  O8  1  0.06233000  0.29912100  0.51766100  1
  O  O9  1  0.93767000  0.70087900  0.48233900  1
  O  O10  1  0.65721400  0.00966600  0.20198700  1
  O  O11  1  0.34278600  0.99033400  0.79801300  1
  O  O12  1  0.99033400  0.34278600  0.79801300  1
  O  O13  1  0.00966600  0.65721400  0.20198700  1
  O  O14  1  0.58748100  0.58748100  0.57187900  1
  O  O15  1  0.41251900  0.41251900  0.42812100  1
  O  O16  1  0.33235300  0.33235300  0.22254900  1
  O  O17  1  0.66764700  0.66764700  0.77745100  1
loop_
_geom_bond_atom_site_label_1
_geom_bond_atom_site_label_2
_geom_bond_distance
_geom_bond_site_symmetry_2
Ag0 O15 2.394997 1_555
Ag0 O14 2.394997 1_555
Ag0 O3 2.514102 1_555
Ag0 O5 2.514102 1_555
Ag1 O15 2.394997 1_555
Ag1 O14 2.394997 1_555
Ag1 O4 2.514102 1_555
Ag1 O2 2.514102 1_555
Ag2 H1 1.789669 1_554
Ag2 O16 2.341827 1_555
Ag2 O3 2.370122 1_554
Ag2 O10 2.450398 1_555
Ag2 O2 2.700298 1_545
Ag3 H0 1.789669 1_556
Ag3 O17 2.341827 1_555
Ag3 O2 2.370122 1_556
Ag3 O11 2.450398 1_555
Ag3 O3 2.700298 1_565
Ag4 H0 1.789669 1_556
Ag4 O17 2.341827 1_555
Ag4 O5 2.370122 1_556
Ag4 O12 2.450398 1_555
Ag4 O4 2.700298 1_655
Ag5 H1 1.789669 1_554
Ag5 O16 2.341827 1_555
Ag5 O4 2.370122 1_554
Ag5 O13 2.450398 1_555
Ag5 O5 2.700298 1_455
O0 P0 1.621232 1_565
O0 P3 1.621232 1_655
O1 P2 1.621232 1_455
O1 P1 1.621232 1_545
O2 P3 1.521181 1_555
O3 P2 1.521181 1_555
O4 P1 1.521181 1_555
O5 P0 1.521181 1_555
O6 P4 1.623893 1_555
O6 P0 1.638069 1_565
O7 P5 1.623893 1_555
O7 P1 1.638069 1_545
O8 P5 1.623893 1_555
O8 P2 1.638069 1_455
O9 P4 1.623893 1_555
O9 P3 1.638069 1_655
O10 P0 1.494853 1_555
O11 P1 1.494853 1_555
O12 P2 1.494853 1_555
O13 P3 1.494853 1_555
O14 P4 1.494189 1_555
O15 P5 1.494189 1_555
O16 P5 1.504624 1_555
O17 P4 1.504624 1_555
