# generated using pymatgen
data_EuMnIn
_symmetry_space_group_name_H-M   'P 1'
_cell_length_a   9.93453279
_cell_length_b   9.93453279
_cell_length_c   7.40707000
_cell_angle_alpha   90.00000000
_cell_angle_beta   90.00000000
_cell_angle_gamma   120.00000527
_symmetry_Int_Tables_number   1
_chemical_formula_structural   EuMnIn
_chemical_formula_sum   'Eu8 Mn8 In8'
_cell_volume   633.09947408
_cell_formula_units_Z   8
loop_
 _symmetry_equiv_pos_site_id
 _symmetry_equiv_pos_as_xyz
  1  'x, y, z'
loop_
 _atom_site_type_symbol
 _atom_site_label
 _atom_site_symmetry_multiplicity
 _atom_site_fract_x
 _atom_site_fract_y
 _atom_site_fract_z
 _atom_site_occupancy
  Eu  Eu0_0  1  0.16666650  0.33333350  0.00000000  1
  Eu  Eu0_1  1  0.16666650  0.33333350  0.50000000  1
  Eu  Eu0_2  1  0.16666650  0.83333350  0.00000000  1
  Eu  Eu0_3  1  0.16666650  0.83333350  0.50000000  1
  Eu  Eu0_4  1  0.66666650  0.33333350  0.00000000  1
  Eu  Eu0_5  1  0.66666650  0.33333350  0.50000000  1
  Eu  Eu0_6  1  0.66666650  0.83333350  0.00000000  1
  Eu  Eu0_7  1  0.66666650  0.83333350  0.50000000  1
  Mn  Mn0_0  1  0.00000000  0.00000000  0.25000000  1
  Mn  Mn0_1  1  0.00000000  0.00000000  0.75000000  1
  Mn  Mn0_2  1  0.00000000  0.50000000  0.25000000  1
  Mn  Mn0_3  1  0.00000000  0.50000000  0.75000000  1
  Mn  Mn0_4  1  0.50000000  0.00000000  0.25000000  1
  Mn  Mn0_5  1  0.50000000  0.00000000  0.75000000  1
  Mn  Mn0_6  1  0.50000000  0.50000000  0.25000000  1
  Mn  Mn0_7  1  0.50000000  0.50000000  0.75000000  1
  In  In0_0  1  0.33333350  0.16666650  0.25000000  1
  In  In0_1  1  0.33333350  0.16666650  0.75000000  1
  In  In0_2  1  0.33333350  0.66666650  0.25000000  1
  In  In0_3  1  0.33333350  0.66666650  0.75000000  1
  In  In0_4  1  0.83333350  0.16666650  0.25000000  1
  In  In0_5  1  0.83333350  0.16666650  0.75000000  1
  In  In0_6  1  0.83333350  0.66666650  0.25000000  1
  In  In0_7  1  0.83333350  0.66666650  0.75000000  1
loop_
_geom_bond_atom_site_label_1
_geom_bond_atom_site_label_2
_geom_bond_distance
_geom_bond_site_symmetry_2
Eu0_0 In0_2 3.413738 1_555
Eu0_0 In0_3 3.413738 1_554
Eu0_0 In0_4 3.413738 1_455
Eu0_0 In0_5 3.413738 1_454
Eu0_0 Mn0_2 3.413738 1_555
Eu0_0 Mn0_3 3.413738 1_554
Eu0_0 Mn0_6 3.413741 1_555
Eu0_0 Mn0_0 3.413741 1_555
Eu0_0 Mn0_1 3.413741 1_554
Eu0_0 Mn0_7 3.413741 1_554
Eu0_0 In0_0 3.413745 1_555
Eu0_0 In0_1 3.413745 1_554
Eu0_0 Eu0_1 3.703535 1_555
Eu0_0 Eu0_1 3.703535 1_554
Eu0_1 In0_2 3.413738 1_555
Eu0_1 In0_3 3.413738 1_555
Eu0_1 In0_4 3.413738 1_455
Eu0_1 In0_5 3.413738 1_455
Eu0_1 Mn0_2 3.413738 1_555
Eu0_1 Mn0_3 3.413738 1_555
Eu0_1 Mn0_6 3.413741 1_555
Eu0_1 Mn0_7 3.413741 1_555
Eu0_1 Mn0_1 3.413741 1_555
Eu0_1 Mn0_0 3.413741 1_555
Eu0_1 In0_0 3.413745 1_555
Eu0_1 In0_1 3.413745 1_555
Eu0_2 In0_6 3.413738 1_455
Eu0_2 In0_0 3.413738 1_565
Eu0_2 In0_7 3.413738 1_454
Eu0_2 In0_1 3.413738 1_564
Eu0_2 Mn0_0 3.413738 1_565
Eu0_2 Mn0_1 3.413738 1_564
Eu0_2 Mn0_2 3.413741 1_555
Eu0_2 Mn0_4 3.413741 1_565
Eu0_2 Mn0_3 3.413741 1_554
Eu0_2 Mn0_5 3.413741 1_564
Eu0_2 In0_2 3.413745 1_555
Eu0_2 In0_3 3.413745 1_554
Eu0_2 Eu0_3 3.703535 1_555
Eu0_2 Eu0_3 3.703535 1_554
Eu0_3 In0_6 3.413738 1_455
Eu0_3 In0_7 3.413738 1_455
Eu0_3 In0_1 3.413738 1_565
Eu0_3 In0_0 3.413738 1_565
Eu0_3 Mn0_1 3.413738 1_565
Eu0_3 Mn0_0 3.413738 1_565
Eu0_3 Mn0_3 3.413741 1_555
Eu0_3 Mn0_5 3.413741 1_565
Eu0_3 Mn0_2 3.413741 1_555
Eu0_3 Mn0_4 3.413741 1_565
Eu0_3 In0_2 3.413745 1_555
Eu0_3 In0_3 3.413745 1_555
Eu0_4 In0_0 3.413738 1_555
Eu0_4 In0_6 3.413738 1_555
Eu0_4 In0_1 3.413738 1_554
Eu0_4 In0_7 3.413738 1_554
Eu0_4 Mn0_6 3.413738 1_555
Eu0_4 Mn0_7 3.413738 1_554
Eu0_4 Mn0_4 3.413741 1_555
Eu0_4 Mn0_2 3.413741 1_655
Eu0_4 Mn0_5 3.413741 1_554
Eu0_4 Mn0_3 3.413741 1_654
Eu0_4 In0_4 3.413745 1_555
Eu0_4 In0_5 3.413745 1_554
Eu0_4 Eu0_5 3.703535 1_555
Eu0_4 Eu0_5 3.703535 1_554
Eu0_5 In0_1 3.413738 1_555
Eu0_5 In0_7 3.413738 1_555
Eu0_5 In0_0 3.413738 1_555
Eu0_5 In0_6 3.413738 1_555
Eu0_5 Mn0_6 3.413738 1_555
Eu0_5 Mn0_7 3.413738 1_555
Eu0_5 Mn0_4 3.413741 1_555
Eu0_5 Mn0_5 3.413741 1_555
Eu0_5 Mn0_3 3.413741 1_655
Eu0_5 Mn0_2 3.413741 1_655
Eu0_5 In0_4 3.413745 1_555
Eu0_5 In0_5 3.413745 1_555
Eu0_6 In0_4 3.413738 1_565
Eu0_6 In0_5 3.413738 1_564
Eu0_6 In0_2 3.413738 1_555
Eu0_6 In0_3 3.413738 1_554
Eu0_6 Mn0_4 3.413738 1_565
Eu0_6 Mn0_5 3.413738 1_564
Eu0_6 Mn0_0 3.413741 1_665
Eu0_6 Mn0_6 3.413741 1_555
Eu0_6 Mn0_1 3.413741 1_664
Eu0_6 Mn0_7 3.413741 1_554
Eu0_6 In0_6 3.413745 1_555
Eu0_6 In0_7 3.413745 1_554
Eu0_6 Eu0_7 3.703535 1_555
Eu0_6 Eu0_7 3.703535 1_554
Eu0_7 In0_5 3.413738 1_565
Eu0_7 In0_4 3.413738 1_565
Eu0_7 In0_2 3.413738 1_555
Eu0_7 In0_3 3.413738 1_555
Eu0_7 Mn0_5 3.413738 1_565
Eu0_7 Mn0_4 3.413738 1_565
Eu0_7 Mn0_1 3.413741 1_665
Eu0_7 Mn0_0 3.413741 1_665
Eu0_7 Mn0_6 3.413741 1_555
Eu0_7 Mn0_7 3.413741 1_555
Eu0_7 In0_7 3.413745 1_555
Eu0_7 In0_6 3.413745 1_555
In0_0 Mn0_4 2.867850 1_555
In0_0 Mn0_6 2.867854 1_555
In0_0 Mn0_0 2.867854 1_555
In0_1 Mn0_5 2.867850 1_555
In0_1 Mn0_7 2.867854 1_555
In0_1 Mn0_1 2.867854 1_555
In0_2 Mn0_6 2.867850 1_555
In0_2 Mn0_2 2.867854 1_555
In0_2 Mn0_4 2.867854 1_565
In0_3 Mn0_7 2.867850 1_555
In0_3 Mn0_3 2.867854 1_555
In0_3 Mn0_5 2.867854 1_565
In0_4 Mn0_0 2.867850 1_655
In0_4 Mn0_4 2.867854 1_555
In0_4 Mn0_2 2.867854 1_655
In0_5 Mn0_1 2.867850 1_655
In0_5 Mn0_5 2.867854 1_555
In0_5 Mn0_3 2.867854 1_655
In0_6 Mn0_2 2.867850 1_655
In0_6 Mn0_6 2.867854 1_555
In0_6 Mn0_0 2.867854 1_665
In0_7 Mn0_3 2.867850 1_655
In0_7 Mn0_7 2.867854 1_555
In0_7 Mn0_1 2.867854 1_665
