# generated using pymatgen
data_Te4MoW
_symmetry_space_group_name_H-M   'P 1'
_cell_length_a   3.56002827
_cell_length_b   3.56002827
_cell_length_c   40.10416400
_cell_angle_alpha   90.00000000
_cell_angle_beta   90.00000000
_cell_angle_gamma   120.00000505
_symmetry_Int_Tables_number   1
_chemical_formula_structural   Te4MoW
_chemical_formula_sum   'Te8 Mo2 W2'
_cell_volume   440.17661975
_cell_formula_units_Z   2
loop_
 _symmetry_equiv_pos_site_id
 _symmetry_equiv_pos_as_xyz
  1  'x, y, z'
loop_
 _atom_site_type_symbol
 _atom_site_label
 _atom_site_symmetry_multiplicity
 _atom_site_fract_x
 _atom_site_fract_y
 _atom_site_fract_z
 _atom_site_occupancy
  Te  Te0  1  0.00000000  0.00000000  0.32712200  1
  Te  Te1  1  0.00000000  0.00000000  0.70280800  1
  Te  Te2  1  0.33333300  0.66666700  0.04880000  1
  Te  Te3  1  0.33333300  0.66666700  0.42452500  1
  Te  Te4  1  0.33333300  0.66666700  0.13906600  1
  Te  Te5  1  0.33333300  0.66666700  0.51479700  1
  Te  Te6  1  0.00000000  0.00000000  0.23649300  1
  Te  Te7  1  0.00000000  0.00000000  0.61222700  1
  Mo  Mo0  1  0.00000000  0.00000000  0.09391000  1
  Mo  Mo1  1  0.00000000  0.00000000  0.46966000  1
  W  W0  1  0.33333300  0.66666700  0.28179500  1
  W  W1  1  0.33333300  0.66666700  0.65754500  1
loop_
_geom_bond_atom_site_label_1
_geom_bond_atom_site_label_2
_geom_bond_distance
_geom_bond_site_symmetry_2
Te0 W0 2.743901 1_545
Te0 W0 2.743903 1_445
Te0 W0 2.743903 1_555
Te1 W1 2.742202 1_545
Te1 W1 2.742204 1_555
Te1 W1 2.742204 1_445
Te6 W0 2.743237 1_545
Te6 W0 2.743239 1_445
Te6 W0 2.743239 1_555
Te7 W1 2.743662 1_545
Te7 W1 2.743664 1_555
Te7 W1 2.743664 1_445
Mo0 Te2 2.738144 1_545
Mo0 Te2 2.738146 1_555
Mo0 Te2 2.738146 1_445
Mo0 Te4 2.739363 1_545
Mo0 Te4 2.739365 1_555
Mo0 Te4 2.739365 1_445
Mo1 Te3 2.738806 1_545
Mo1 Te3 2.738808 1_445
Mo1 Te3 2.738808 1_555
Mo1 Te5 2.738859 1_545
Mo1 Te5 2.738861 1_555
Mo1 Te5 2.738861 1_445
