# generated using pymatgen
data_LaTi3(BiO4)3
_symmetry_space_group_name_H-M   'P 1'
_cell_length_a   5.44671200
_cell_length_b   5.46928000
_cell_length_c   16.98336185
_cell_angle_alpha   81.04144751
_cell_angle_beta   90.00000000
_cell_angle_gamma   90.00000000
_symmetry_Int_Tables_number   1
_chemical_formula_structural   LaTi3(BiO4)3
_chemical_formula_sum   'La2 Ti6 Bi6 O24'
_cell_volume   499.75575316
_cell_formula_units_Z   2
loop_
 _symmetry_equiv_pos_site_id
 _symmetry_equiv_pos_as_xyz
  1  'x, y, z'
loop_
 _atom_site_type_symbol
 _atom_site_label
 _atom_site_symmetry_multiplicity
 _atom_site_fract_x
 _atom_site_fract_y
 _atom_site_fract_z
 _atom_site_occupancy
  La  La0  1  0.25208500  0.76838600  0.88173700  1
  La  La1  1  0.74791500  0.26838600  0.88173700  1
  Ti  Ti0  1  0.74710100  0.57372600  0.27047000  1
  Ti  Ti1  1  0.25289900  0.07372600  0.27047000  1
  Ti  Ti2  1  0.75139600  0.69378700  0.01145100  1
  Ti  Ti3  1  0.24860400  0.19378700  0.01145100  1
  Ti  Ti4  1  0.75095000  0.83471300  0.75525800  1
  Ti  Ti5  1  0.24905000  0.33471300  0.75525800  1
  Bi  Bi0  1  0.77404300  0.37752500  0.59040700  1
  Bi  Bi1  1  0.22595700  0.87752500  0.59040700  1
  Bi  Bi2  1  0.24285000  0.58529500  0.14616500  1
  Bi  Bi3  1  0.75715000  0.08529500  0.14616500  1
  Bi  Bi4  1  0.72652700  0.95748000  0.43684400  1
  Bi  Bi5  1  0.27347300  0.45748000  0.43684400  1
  O  O0  1  0.45606600  0.91633300  0.02651200  1
  O  O1  1  0.54393400  0.41633300  0.02651200  1
  O  O2  1  0.48269200  0.59734800  0.77047400  1
  O  O3  1  0.51730800  0.09734800  0.77047400  1
  O  O4  1  0.98720800  0.56035700  0.78983200  1
  O  O5  1  0.01279200  0.06035700  0.78983200  1
  O  O6  1  0.49661400  0.68032300  0.51527000  1
  O  O7  1  0.50338600  0.18032300  0.51527000  1
  O  O8  1  0.80149500  0.89495500  0.64999100  1
  O  O9  1  0.19850500  0.39495500  0.64999100  1
  O  O10  1  0.82290600  0.68314200  0.12958200  1
  O  O11  1  0.17709400  0.18314200  0.12958200  1
  O  O12  1  0.99578600  0.68021500  0.51125700  1
  O  O13  1  0.00421400  0.18021500  0.51125700  1
  O  O14  1  0.69707300  0.76868600  0.89807300  1
  O  O15  1  0.30292700  0.26868600  0.89807300  1
  O  O16  1  0.47199200  0.83004700  0.23436300  1
  O  O17  1  0.52800800  0.33004700  0.23436300  1
  O  O18  1  0.95527700  0.01962000  0.99624000  1
  O  O19  1  0.04472300  0.51962000  0.99624000  1
  O  O20  1  0.95395200  0.89137900  0.26054100  1
  O  O21  1  0.04604800  0.39137900  0.26054100  1
  O  O22  1  0.68946700  0.52508300  0.37453300  1
  O  O23  1  0.31053300  0.02508300  0.37453300  1
loop_
_geom_bond_atom_site_label_1
_geom_bond_atom_site_label_2
_geom_bond_distance
_geom_bond_site_symmetry_2
La0 O5 2.430793 1_565
La0 O14 2.439579 1_555
La0 O19 2.466662 1_555
La0 O4 2.522951 1_455
La0 O2 2.563965 1_555
La0 O15 2.717866 1_555
La0 O3 2.799242 1_565
La0 O15 2.806657 1_565
La0 O0 2.924770 1_556
La0 O18 3.019170 1_465
La0 O14 3.035719 1_455
La1 O4 2.430793 1_555
La1 O15 2.439579 1_555
La1 O18 2.466662 1_555
La1 O5 2.522951 1_655
La1 O3 2.563965 1_555
La1 O14 2.717866 1_545
La1 O2 2.799242 1_555
La1 O14 2.806657 1_555
La1 O1 2.924770 1_556
La1 O19 3.019170 1_655
La1 O15 3.035719 1_655
Bi0 O13 2.234949 1_655
Bi0 O12 2.305053 1_555
Bi0 O7 2.322398 1_555
Bi0 O6 2.448711 1_555
Bi0 O9 2.531429 1_655
Bi0 O8 2.679652 1_545
Bi1 O12 2.234949 1_455
Bi1 O13 2.305053 1_565
Bi1 O6 2.322398 1_555
Bi1 O7 2.448711 1_565
Bi1 O8 2.531429 1_455
Bi1 O9 2.679652 1_555
Bi2 O11 2.288724 1_555
Bi2 O21 2.324973 1_555
Bi2 O10 2.355965 1_455
Bi2 O17 2.440015 1_555
Bi2 O16 2.493541 1_555
Bi2 O0 2.758686 1_555
Bi2 O19 2.839313 1_554
Bi2 O1 2.873606 1_555
Bi3 O10 2.288724 1_545
Bi3 O20 2.324973 1_545
Bi3 O11 2.355965 1_655
Bi3 O16 2.440015 1_545
Bi3 O17 2.493541 1_555
Bi3 O1 2.758686 1_555
Bi3 O18 2.839313 1_554
Bi3 O0 2.873606 1_545
Bi4 O6 2.238578 1_555
Bi4 O7 2.289595 1_565
Bi4 O12 2.334679 1_555
Bi4 O13 2.418312 1_665
Bi4 O23 2.503715 1_565
Bi4 O22 2.744598 1_555
Bi5 O7 2.238578 1_555
Bi5 O6 2.289595 1_555
Bi5 O13 2.334679 1_555
Bi5 O12 2.418312 1_455
Bi5 O22 2.503715 1_555
Bi5 O23 2.744598 1_555
O0 Ti3 1.877268 1_565
O0 Ti2 2.057038 1_555
O1 Ti2 1.877268 1_555
O1 Ti3 2.057038 1_555
O2 Ti4 1.944877 1_555
O2 Ti5 1.966002 1_555
O3 Ti5 1.944877 1_555
O3 Ti4 1.966002 1_545
O4 Ti4 1.994467 1_555
O4 Ti5 2.031620 1_655
O5 Ti5 1.994467 1_555
O5 Ti4 2.031620 1_445
O8 Ti4 1.788039 1_555
O9 Ti5 1.788039 1_555
O10 Ti2 2.035633 1_555
O10 Ti0 2.409960 1_555
O11 Ti3 2.035633 1_555
O11 Ti1 2.409960 1_555
O14 Ti2 1.928055 1_556
O14 Ti4 2.413852 1_555
O15 Ti3 1.928055 1_556
O15 Ti5 2.413852 1_555
O16 Ti1 1.957252 1_565
O16 Ti0 2.078202 1_555
O17 Ti0 1.957252 1_555
O17 Ti1 2.078202 1_555
O18 Ti3 1.898237 1_656
O18 Ti2 2.081420 1_546
O19 Ti2 1.898237 1_456
O19 Ti3 2.081420 1_556
O20 Ti1 1.930472 1_665
O20 Ti0 2.055451 1_555
O21 Ti0 1.930472 1_455
O21 Ti1 2.055451 1_555
O22 Ti0 1.773803 1_555
O23 Ti1 1.773803 1_555
