# generated using pymatgen
data_Cs2ScAuBr6
_symmetry_space_group_name_H-M   'P 1'
_cell_length_a   7.88130470
_cell_length_b   7.88130470
_cell_length_c   7.88130470
_cell_angle_alpha   60.00000000
_cell_angle_beta   60.00000000
_cell_angle_gamma   60.00000000
_symmetry_Int_Tables_number   1
_chemical_formula_structural   Cs2ScAuBr6
_chemical_formula_sum   'Cs2 Sc1 Au1 Br6'
_cell_volume   346.16197263
_cell_formula_units_Z   1
loop_
 _symmetry_equiv_pos_site_id
 _symmetry_equiv_pos_as_xyz
  1  'x, y, z'
loop_
 _atom_site_type_symbol
 _atom_site_label
 _atom_site_symmetry_multiplicity
 _atom_site_fract_x
 _atom_site_fract_y
 _atom_site_fract_z
 _atom_site_occupancy
  Cs  Cs0  1  0.75000000  0.75000000  0.75000000  1
  Cs  Cs1  1  0.25000000  0.25000000  0.25000000  1
  Sc  Sc0  1  0.00000000  0.00000000  0.00000000  1
  Au  Au0  1  0.50000000  0.50000000  0.50000000  1
  Br  Br0  1  0.75927500  0.24072500  0.24072500  1
  Br  Br1  1  0.24072500  0.24072500  0.75927500  1
  Br  Br2  1  0.24072500  0.75927500  0.75927500  1
  Br  Br3  1  0.24072500  0.75927500  0.24072500  1
  Br  Br4  1  0.75927500  0.24072500  0.75927500  1
  Br  Br5  1  0.75927500  0.75927500  0.24072500  1
loop_
_geom_bond_atom_site_label_1
_geom_bond_atom_site_label_2
_geom_bond_distance
_geom_bond_site_symmetry_2
Au0 Br4 2.889840 1_555
Au0 Br5 2.889840 1_555
Au0 Br2 2.889840 1_555
Au0 Br1 2.889840 1_555
Au0 Br3 2.889840 1_555
Au0 Br0 2.889840 1_555
Br0 Sc0 2.683084 1_655
Br0 Cs1 3.942008 1_555
Br0 Cs0 3.942008 1_545
Br0 Cs0 3.942008 1_554
Br0 Cs1 3.942008 1_655
Br1 Sc0 2.683084 1_556
Br1 Cs1 3.942008 1_555
Br1 Cs0 3.942008 1_545
Br1 Cs0 3.942008 1_455
Br1 Cs1 3.942008 1_556
Br2 Sc0 2.683084 1_566
Br2 Cs0 3.942008 1_455
Br2 Cs1 3.942008 1_556
Br2 Cs1 3.942008 1_565
Br2 Cs0 3.942008 1_555
Br3 Sc0 2.683084 1_565
Br3 Cs1 3.942008 1_555
Br3 Cs0 3.942008 1_554
Br3 Cs0 3.942008 1_455
Br3 Cs1 3.942008 1_565
Br4 Sc0 2.683084 1_656
Br4 Cs0 3.942008 1_545
Br4 Cs1 3.942008 1_655
Br4 Cs1 3.942008 1_556
Br4 Cs0 3.942008 1_555
Br5 Sc0 2.683084 1_665
Br5 Cs0 3.942008 1_554
Br5 Cs1 3.942008 1_565
Br5 Cs1 3.942008 1_655
Br5 Cs0 3.942008 1_555
