# generated using pymatgen
data_Li9Mn2Co5O16
_symmetry_space_group_name_H-M   'P 1'
_cell_length_a   2.99702600
_cell_length_b   5.00682624
_cell_length_c   19.32423620
_cell_angle_alpha   92.98814207
_cell_angle_beta   91.57720740
_cell_angle_gamma   92.10456123
_symmetry_Int_Tables_number   1
_chemical_formula_structural   Li9Mn2Co5O16
_chemical_formula_sum   'Li9 Mn2 Co5 O16'
_cell_volume   289.25601544
_cell_formula_units_Z   1
loop_
 _symmetry_equiv_pos_site_id
 _symmetry_equiv_pos_as_xyz
  1  'x, y, z'
loop_
 _atom_site_type_symbol
 _atom_site_label
 _atom_site_symmetry_multiplicity
 _atom_site_fract_x
 _atom_site_fract_y
 _atom_site_fract_z
 _atom_site_occupancy
  Li  Li0  1  0.99426600  0.37920300  0.12341900  1
  Li  Li1  1  0.48987100  0.62829400  0.38162300  1
  Li  Li2  1  0.99568800  0.88294400  0.62051600  1
  Li  Li3  1  0.49891100  0.12631500  0.87215400  1
  Li  Li4  1  0.50412800  0.87068500  0.12630600  1
  Li  Li5  1  0.00305900  0.11330200  0.38384000  1
  Li  Li6  1  0.50979200  0.37392900  0.61982100  1
  Li  Li7  1  0.00269100  0.62234500  0.87375600  1
  Li  Li8  1  0.50055500  0.99969000  0.50059600  1
  Mn  Mn0  1  0.00087600  0.99990700  0.99977500  1
  Mn  Mn1  1  0.49756600  0.24960500  0.25124800  1
  Co  Co0  1  0.00042000  0.50021200  0.50024600  1
  Co  Co1  1  0.50096300  0.75039800  0.74879000  1
  Co  Co2  1  0.50158600  0.49975500  0.99955700  1
  Co  Co3  1  0.99716700  0.74998700  0.25157100  1
  Co  Co4  1  0.00082300  0.25076200  0.74789600  1
  O  O0  1  0.46561300  0.19887100  0.05856000  1
  O  O1  1  0.97219200  0.44271800  0.30734000  1
  O  O2  1  0.51546400  0.66793700  0.55424300  1
  O  O3  1  0.00563300  0.94427700  0.80676100  1
  O  O4  1  0.96582900  0.68934300  0.05739100  1
  O  O5  1  0.46652500  0.93833700  0.30886100  1
  O  O6  1  0.99685700  0.22567700  0.55576500  1
  O  O7  1  0.50910300  0.44100800  0.80664100  1
  O  O8  1  0.53261800  0.56125600  0.19356800  1
  O  O9  1  0.00371700  0.77644300  0.44432300  1
  O  O10  1  0.49238100  0.05798200  0.69025000  1
  O  O11  1  0.03421700  0.31146700  0.94258000  1
  O  O12  1  0.02706400  0.05272300  0.19305400  1
  O  O13  1  0.48622400  0.33127600  0.44554300  1
  O  O14  1  0.99376100  0.56093600  0.69235900  1
  O  O15  1  0.53443900  0.80241800  0.94164700  1
loop_
_geom_bond_atom_site_label_1
_geom_bond_atom_site_label_2
_geom_bond_distance
_geom_bond_site_symmetry_2
Li0 O4 2.063209 1_555
Li0 O0 2.110642 1_655
Li0 O0 2.136356 1_555
Li0 O8 2.156327 1_555
Li0 O12 2.174001 1_655
Li0 O8 2.216851 1_655
Li1 O13 1.982027 1_555
Li1 O9 2.027206 1_655
Li1 O9 2.055238 1_555
Li1 O5 2.149834 1_555
Li1 O1 2.227886 1_455
Li1 O1 2.255490 1_555
Li2 O10 2.114361 1_665
Li2 O2 2.124009 1_555
Li2 O6 2.175777 1_565
Li2 O14 2.181713 1_555
Li2 O10 2.223772 1_565
Li2 O2 2.305412 1_655
Li3 O3 2.071535 1_545
Li3 O7 2.071902 1_555
Li3 O15 2.162516 1_545
Li3 O11 2.172266 1_555
Li3 O3 2.195705 1_645
Li3 O11 2.219100 1_655
Li4 O8 2.076171 1_555
Li4 O4 2.140148 1_555
Li4 O12 2.147545 1_665
Li4 O12 2.147870 1_565
Li4 O0 2.158024 1_565
Li4 O4 2.201972 1_455
Li5 O13 2.088750 1_555
Li5 O9 2.101502 1_545
Li5 O5 2.205438 1_545
Li5 O5 2.255747 1_445
Li5 O13 2.258817 1_455
Li5 O1 2.274227 1_455
Li6 O2 1.991722 1_555
Li6 O6 2.040116 1_455
Li6 O6 2.072996 1_555
Li6 O10 2.140023 1_555
Li6 O14 2.144040 1_555
Li6 O14 2.307002 1_455
Li7 O7 2.089901 1_455
Li7 O11 2.102425 1_555
Li7 O3 2.119285 1_555
Li7 O15 2.138797 1_455
Li7 O15 2.174828 1_555
Li7 O7 2.212848 1_555
Li8 O2 2.004537 1_555
Li8 O13 2.019095 1_565
Li8 O6 2.071857 1_565
Li8 O9 2.076300 1_555
Li8 O6 2.187229 1_465
Li8 O9 2.189354 1_655
Mn0 O11 1.959418 1_565
Mn0 O4 1.960469 1_456
Mn0 O15 1.972283 1_455
Mn0 O0 1.978837 1_566
Mn0 O15 2.212647 1_555
Mn0 O0 2.226200 1_466
Mn1 O1 1.959089 1_555
Mn1 O5 1.962884 1_545
Mn1 O8 1.965693 1_555
Mn1 O12 1.979843 1_555
Mn1 O1 2.164605 1_455
Mn1 O12 2.202772 1_655
Co0 O6 1.787131 1_455
Co0 O9 1.798932 1_555
Co0 O2 1.975216 1_555
Co0 O13 1.982199 1_455
Co0 O2 1.997053 1_455
Co0 O13 2.008650 1_555
Co1 O7 1.957491 1_555
Co1 O10 1.958307 1_565
Co1 O14 2.023536 1_455
Co1 O3 2.042167 1_655
Co1 O14 2.086632 1_555
Co1 O3 2.117792 1_555
Co2 O15 1.931397 1_555
Co2 O0 1.937791 1_556
Co2 O11 1.942401 1_555
Co2 O4 1.947490 1_556
Co2 O11 2.179054 1_655
Co2 O4 2.197361 1_456
Co3 O1 1.924233 1_555
Co3 O12 1.938690 1_665
Co3 O8 1.947999 1_555
Co3 O5 1.949793 1_655
Co3 O5 2.177702 1_555
Co3 O8 2.196469 1_655
Co4 O14 1.933631 1_455
Co4 O3 1.957451 1_545
Co4 O10 2.044749 1_455
Co4 O7 2.049884 1_555
Co4 O10 2.103709 1_555
Co4 O7 2.109558 1_455
