# generated using pymatgen
data_CsSrMg6
_symmetry_space_group_name_H-M   'P 1'
_cell_length_a   5.22268500
_cell_length_b   7.23447000
_cell_length_c   14.12082400
_cell_angle_alpha   90.00000000
_cell_angle_beta   90.00000000
_cell_angle_gamma   90.00000000
_symmetry_Int_Tables_number   1
_chemical_formula_structural   CsSrMg6
_chemical_formula_sum   'Cs2 Sr2 Mg12'
_cell_volume   533.53214777
_cell_formula_units_Z   2
loop_
 _symmetry_equiv_pos_site_id
 _symmetry_equiv_pos_as_xyz
  1  'x, y, z'
loop_
 _atom_site_type_symbol
 _atom_site_label
 _atom_site_symmetry_multiplicity
 _atom_site_fract_x
 _atom_site_fract_y
 _atom_site_fract_z
 _atom_site_occupancy
  Cs  Cs0  1  0.50000000  0.50000000  0.67934900  1
  Cs  Cs1  1  0.50000000  0.00000000  0.17934900  1
  Sr  Sr0  1  0.50000000  0.00000000  0.67050500  1
  Sr  Sr1  1  0.50000000  0.50000000  0.17050500  1
  Mg  Mg0  1  0.50000000  0.75658800  0.92289400  1
  Mg  Mg1  1  0.50000000  0.24341200  0.92289400  1
  Mg  Mg2  1  0.00000000  0.23457600  0.54101900  1
  Mg  Mg3  1  0.00000000  0.76542400  0.54101900  1
  Mg  Mg4  1  0.00000000  0.50000000  0.86451100  1
  Mg  Mg5  1  0.00000000  0.00000000  0.85780500  1
  Mg  Mg6  1  0.50000000  0.25658800  0.42289400  1
  Mg  Mg7  1  0.50000000  0.74341200  0.42289400  1
  Mg  Mg8  1  0.00000000  0.73457600  0.04101900  1
  Mg  Mg9  1  0.00000000  0.26542400  0.04101900  1
  Mg  Mg10  1  0.00000000  0.00000000  0.36451100  1
  Mg  Mg11  1  0.00000000  0.50000000  0.35780500  1
loop_
_geom_bond_atom_site_label_1
_geom_bond_atom_site_label_2
_geom_bond_distance
_geom_bond_site_symmetry_2
Cs0 Sr0 3.619390 1_565
Cs0 Sr0 3.619390 1_555
Cs0 Mg4 3.695328 1_655
Cs0 Mg4 3.695328 1_555
Cs0 Mg3 3.784415 1_555
Cs0 Mg3 3.784415 1_655
Cs0 Mg2 3.784415 1_555
Cs0 Mg2 3.784415 1_655
Cs0 Mg0 3.908053 1_555
Cs0 Mg1 3.908053 1_555
Cs0 Mg6 4.026809 1_555
Cs0 Mg7 4.026809 1_555
Cs1 Sr1 3.619390 1_555
Cs1 Sr1 3.619390 1_545
Cs1 Mg10 3.695328 1_655
Cs1 Mg10 3.695328 1_555
Cs1 Mg9 3.784415 1_655
Cs1 Mg8 3.784415 1_645
Cs1 Mg8 3.784415 1_545
Cs1 Mg9 3.784415 1_555
Cs1 Mg6 3.908053 1_555
Cs1 Mg7 3.908053 1_545
Cs1 Mg1 4.026809 1_554
Cs1 Mg0 4.026809 1_544
Mg0 Mg8 3.102703 1_656
Mg0 Mg8 3.102703 1_556
Mg0 Mg5 3.280982 1_565
Mg0 Mg5 3.280982 1_665
Mg0 Mg4 3.308253 1_555
Mg0 Mg4 3.308253 1_655
Mg0 Mg1 3.521914 1_565
Mg0 Sr1 3.958672 1_556
Mg0 Sr0 3.975254 1_565
Mg1 Mg9 3.102703 1_656
Mg1 Mg9 3.102703 1_556
Mg1 Mg5 3.280982 1_555
Mg1 Mg5 3.280982 1_655
Mg1 Mg4 3.308253 1_555
Mg1 Mg4 3.308253 1_655
Mg1 Sr1 3.958672 1_556
Mg1 Sr0 3.975254 1_555
Mg2 Mg6 3.102703 1_455
Mg2 Mg6 3.102703 1_555
Mg2 Mg3 3.394066 1_545
Mg2 Sr0 3.611406 1_455
Mg2 Sr0 3.611406 1_555
Mg3 Mg7 3.102703 1_555
Mg3 Mg7 3.102703 1_455
Mg3 Sr0 3.611406 1_465
Mg3 Sr0 3.611406 1_565
Mg4 Mg9 3.015323 1_556
Mg4 Mg8 3.015323 1_556
Mg5 Mg9 3.221868 1_556
Mg5 Mg8 3.221868 1_546
Mg5 Sr0 3.716751 1_455
Mg5 Sr0 3.716751 1_555
Mg6 Mg7 3.521914 1_555
Mg6 Sr0 3.958672 1_555
Mg6 Sr1 3.975254 1_555
Mg7 Sr0 3.958672 1_565
Mg7 Sr1 3.975254 1_555
Mg8 Mg9 3.394066 1_555
Mg8 Sr1 3.611406 1_555
Mg8 Sr1 3.611406 1_455
Mg9 Sr1 3.611406 1_555
Mg9 Sr1 3.611406 1_455
Mg10 Mg2 3.015323 1_555
Mg10 Mg3 3.015323 1_545
Mg10 Mg6 3.308253 1_555
Mg10 Mg6 3.308253 1_455
Mg10 Mg7 3.308253 1_545
Mg10 Mg7 3.308253 1_445
Mg11 Mg3 3.221868 1_555
Mg11 Mg2 3.221868 1_555
Mg11 Mg7 3.280982 1_455
Mg11 Mg7 3.280982 1_555
Mg11 Mg6 3.280982 1_455
Mg11 Mg6 3.280982 1_555
Mg11 Sr1 3.716751 1_455
Mg11 Sr1 3.716751 1_555
