# generated using pymatgen
data_HoAlFe
_symmetry_space_group_name_H-M   'P 1'
_cell_length_a   5.40859514
_cell_length_b   5.40844434
_cell_length_c   8.56881500
_cell_angle_alpha   90.00000000
_cell_angle_beta   90.00000000
_cell_angle_gamma   59.73708629
_symmetry_Int_Tables_number   1
_chemical_formula_structural   HoAlFe
_chemical_formula_sum   'Ho4 Al4 Fe4'
_cell_volume   216.49683712
_cell_formula_units_Z   4
loop_
 _symmetry_equiv_pos_site_id
 _symmetry_equiv_pos_as_xyz
  1  'x, y, z'
loop_
 _atom_site_type_symbol
 _atom_site_label
 _atom_site_symmetry_multiplicity
 _atom_site_fract_x
 _atom_site_fract_y
 _atom_site_fract_z
 _atom_site_occupancy
  Ho  Ho0  1  0.33297200  0.33296700  0.56468300  1
  Ho  Ho1  1  0.66285300  0.66283900  0.44903400  1
  Ho  Ho2  1  0.66285300  0.66283900  0.05096600  1
  Ho  Ho3  1  0.33297200  0.33296700  0.93531700  1
  Al  Al0  1  0.83621900  0.83622000  0.75000000  1
  Al  Al1  1  0.16257100  0.67413400  0.25000000  1
  Al  Al2  1  0.67411600  0.16259700  0.25000000  1
  Al  Al3  1  0.16387900  0.16389800  0.25000000  1
  Fe  Fe0  1  0.00690000  0.00692900  0.51252800  1
  Fe  Fe1  1  0.00690000  0.00692900  0.98747200  1
  Fe  Fe2  1  0.83209600  0.32561500  0.75000000  1
  Fe  Fe3  1  0.32567000  0.83206600  0.75000000  1
loop_
_geom_bond_atom_site_label_1
_geom_bond_atom_site_label_2
_geom_bond_distance
_geom_bond_site_symmetry_2
Ho0 Ho3 3.175894 1_555
Ho0 Ho1 3.249123 1_555
Ho0 Ho1 3.283812 1_545
Ho0 Ho1 3.283857 1_455
Ho2 Ho3 3.249123 1_554
Ho2 Ho3 3.283812 1_564
Ho2 Ho3 3.283857 1_654
Al0 Fe1 2.589272 1_665
Al0 Fe0 2.589272 1_665
Al0 Fe2 2.635698 1_565
Al0 Fe3 2.635991 1_655
Al0 Fe3 2.772743 1_555
Al0 Fe2 2.772884 1_555
Al0 Ho1 3.048873 1_555
Al0 Ho2 3.048873 1_556
Al0 Ho3 3.126883 1_565
Al0 Ho0 3.126883 1_565
Al0 Ho3 3.126909 1_655
Al0 Ho0 3.126909 1_655
Al1 Al2 2.631335 1_465
Al1 Al3 2.652434 1_565
Al1 Fe0 2.735245 1_565
Al1 Fe1 2.735245 1_564
Al1 Al2 2.755678 1_555
Al1 Al3 2.756024 1_555
Al1 Ho0 3.132240 1_555
Al1 Ho3 3.132240 1_554
Al1 Ho2 3.172898 1_555
Al1 Ho1 3.172898 1_555
Al1 Ho1 3.222392 1_455
Al1 Ho2 3.222392 1_455
Al2 Al3 2.652483 1_655
Al2 Fe0 2.735241 1_655
Al2 Fe1 2.735241 1_654
Al2 Al3 2.756126 1_555
Al2 Ho0 3.132208 1_555
Al2 Ho3 3.132208 1_554
Al2 Ho2 3.172723 1_555
Al2 Ho1 3.172723 1_555
Al2 Ho2 3.222436 1_545
Al2 Ho1 3.222436 1_545
Al3 Fe0 2.688606 1_555
Al3 Fe1 2.688606 1_554
Al3 Ho0 3.128314 1_555
Al3 Ho3 3.128314 1_554
Al3 Ho1 3.187989 1_455
Al3 Ho2 3.187989 1_455
Al3 Ho1 3.188139 1_545
Al3 Ho2 3.188139 1_545
Fe0 Fe2 2.522455 1_455
Fe0 Fe3 2.522712 1_545
Fe0 Ho0 3.090945 1_555
Fe0 Ho1 3.112798 1_455
Fe0 Ho1 3.113081 1_545
Fe0 Ho0 3.180683 1_455
Fe0 Ho0 3.180749 1_545
Fe0 Ho1 3.272974 1_445
Fe1 Fe2 2.522455 1_455
Fe1 Fe3 2.522712 1_545
Fe1 Ho3 3.090945 1_555
Fe1 Ho2 3.112798 1_456
Fe1 Ho2 3.113081 1_546
Fe1 Ho3 3.180683 1_455
Fe1 Ho3 3.180749 1_545
Fe1 Ho2 3.272974 1_446
Fe2 Fe3 2.658822 1_645
Fe2 Fe3 2.728190 1_555
Fe2 Ho1 3.021993 1_555
Fe2 Ho2 3.021993 1_556
Fe2 Ho3 3.114897 1_555
Fe2 Ho0 3.114897 1_555
Fe2 Ho3 3.157626 1_655
Fe2 Ho0 3.157626 1_655
Fe3 Ho1 3.021916 1_555
Fe3 Ho2 3.021916 1_556
Fe3 Ho3 3.114830 1_555
Fe3 Ho0 3.114830 1_555
Fe3 Ho3 3.157558 1_565
Fe3 Ho0 3.157558 1_565
