# generated using pymatgen
data_K2MgFe4P6(O4F3)4
_symmetry_space_group_name_H-M   'P 1'
_cell_length_a   7.77819736
_cell_length_b   7.87480272
_cell_length_c   10.61246851
_cell_angle_alpha   102.91304680
_cell_angle_beta   110.62893604
_cell_angle_gamma   89.26663473
_symmetry_Int_Tables_number   1
_chemical_formula_structural   K2MgFe4P6(O4F3)4
_chemical_formula_sum   'K2 Mg1 Fe4 P6 O16 F12'
_cell_volume   591.41755744
_cell_formula_units_Z   1
loop_
 _symmetry_equiv_pos_site_id
 _symmetry_equiv_pos_as_xyz
  1  'x, y, z'
loop_
 _atom_site_type_symbol
 _atom_site_label
 _atom_site_symmetry_multiplicity
 _atom_site_fract_x
 _atom_site_fract_y
 _atom_site_fract_z
 _atom_site_occupancy
  K  K0  1  0.82704226  0.13388074  0.76473317  1
  K  K1  1  0.25889587  0.89551083  0.21569332  1
  Mg  Mg0  1  0.63138105  0.78335016  0.84424010  1
  Fe  Fe0  1  0.66195653  0.32322977  0.33905479  1
  Fe  Fe1  1  0.27067307  0.66947627  0.64211226  1
  Fe  Fe2  1  0.49605158  0.48976028  0.00886190  1
  Fe  Fe3  1  0.00808873  0.00415839  0.48409346  1
  P  P0  1  0.69340354  0.73619342  0.53199258  1
  P  P1  1  0.34859464  0.26449962  0.48616174  1
  P  P2  1  0.30721202  0.08248797  0.81564091  1
  P  P3  1  0.68966596  0.91542517  0.17518582  1
  P  P4  1  0.05542514  0.60010152  0.84869947  1
  P  P5  1  0.92606085  0.40610479  0.16386185  1
  O  O0  1  0.72933818  0.54955095  0.47908754  1
  O  O1  1  0.29147197  0.44381381  0.53132429  1
  O  O2  1  0.82056807  0.87991256  0.53029757  1
  O  O3  1  0.19560252  0.11836246  0.43367648  1
  O  O4  1  0.59867825  0.08206805  0.20536323  1
  O  O5  1  0.40268544  0.91354933  0.78417071  1
  O  O6  1  0.44257961  0.23726268  0.89349410  1
  O  O7  1  0.55563382  0.75644957  0.11296482  1
  O  O8  1  0.87905944  0.89843943  0.27721287  1
  O  O9  1  0.14229555  0.10706380  0.69161902  1
  O  O10  1  0.87861954  0.36134062  0.27755953  1
  O  O11  1  0.08522870  0.67186803  0.73991114  1
  O  O12  1  0.78792765  0.46528796  0.04629347  1
  O  O13  1  0.20023117  0.54068772  0.96074303  1
  O  O14  1  0.45150264  0.24826060  0.38660842  1
  O  O15  1  0.66870712  0.77224281  0.67195344  1
  F  F0  1  0.84651365  0.20373903  0.47819185  1
  F  F1  1  0.15445588  0.80213343  0.49462216  1
  F  F2  1  0.50647849  0.42527578  0.19406562  1
  F  F3  1  0.48681750  0.58501118  0.82679659  1
  F  F4  1  0.74474989  0.93524545  0.03577780  1
  F  F5  1  0.21009899  0.04614042  0.91977157  1
  F  F6  1  0.88656098  0.45943228  0.77688581  1
  F  F7  1  0.10116805  0.53738009  0.22901868  1
  F  F8  1  0.49583172  0.21988496  0.62309510  1
  F  F9  1  0.49590263  0.76558224  0.42573937  1
  F  F10  1  0.01535774  0.24256596  0.09918287  1
  F  F11  1  0.94791260  0.74393687  0.92299157  1
loop_
_geom_bond_atom_site_label_1
_geom_bond_atom_site_label_2
_geom_bond_distance
_geom_bond_site_symmetry_2
K0 O2 2.807596 1_545
K0 O9 2.813116 1_655
K1 O3 2.763970 1_565
K1 O7 2.981570 1_555
K1 O14 3.031603 1_565
K1 O4 3.087183 1_565
K1 O8 3.241324 1_455
K1 O13 3.334651 1_554
Mg0 O15 1.933094 1_555
Mg0 O5 2.016999 1_555
Fe0 O0 1.987676 1_555
Fe0 O14 2.005698 1_555
Fe0 O4 2.046810 1_555
Fe0 O10 2.057058 1_555
Fe1 O1 1.938884 1_555
Fe1 O11 2.050268 1_555
Fe1 O5 2.164725 1_555
Fe2 O6 2.049366 1_554
Fe2 O7 2.114949 1_555
Fe2 O12 2.176376 1_555
Fe2 O13 2.226196 1_554
Fe3 O3 2.005212 1_555
Fe3 O2 2.019915 1_445
Fe3 O8 2.042659 1_445
Fe3 O9 2.049587 1_555
O0 P0 1.511564 1_555
O1 P1 1.500853 1_555
O2 P0 1.519815 1_555
O3 P1 1.527160 1_555
O4 P3 1.507848 1_545
O5 P2 1.543941 1_565
O6 P2 1.498859 1_555
O7 P3 1.506326 1_555
O8 P3 1.515310 1_555
O9 P2 1.527442 1_555
O10 P5 1.491145 1_555
O11 P4 1.479725 1_555
O12 P5 1.493593 1_555
O13 P4 1.480828 1_555
O14 P1 1.518598 1_555
O15 P0 1.528034 1_555
F0 Fe3 1.997862 1_655
F0 Fe0 2.054089 1_555
F1 Fe3 1.945004 1_565
F1 Fe1 2.016939 1_555
F2 Fe0 1.921568 1_555
F2 Fe2 2.111922 1_555
F3 Mg0 1.872744 1_555
F3 Fe2 2.202184 1_556
F3 Fe1 2.311393 1_555
F4 P3 1.717066 1_555
F4 Mg0 2.004362 1_554
F5 P2 1.615178 1_555
F6 P4 1.577236 1_655
F6 K0 2.577560 1_555
F7 P5 1.566794 1_455
F7 K1 3.141302 1_555
F8 P1 1.609970 1_555
F8 K0 2.652685 1_555
F9 P0 1.603724 1_555
F9 K1 2.736740 1_555
F10 P5 1.590612 1_455
F11 P4 1.626370 1_655
F11 Mg0 2.345840 1_555
F11 K1 3.169719 1_656
