# generated using pymatgen
data_SrCa3La2(SbO6)2
_symmetry_space_group_name_H-M   'P 1'
_cell_length_a   5.78226169
_cell_length_b   5.94791799
_cell_length_c   8.30025186
_cell_angle_alpha   89.89564507
_cell_angle_beta   90.17671105
_cell_angle_gamma   89.81841121
_symmetry_Int_Tables_number   1
_chemical_formula_structural   SrCa3La2(SbO6)2
_chemical_formula_sum   'Sr1 Ca3 La2 Sb2 O12'
_cell_volume   285.46246414
_cell_formula_units_Z   1
loop_
 _symmetry_equiv_pos_site_id
 _symmetry_equiv_pos_as_xyz
  1  'x, y, z'
loop_
 _atom_site_type_symbol
 _atom_site_label
 _atom_site_symmetry_multiplicity
 _atom_site_fract_x
 _atom_site_fract_y
 _atom_site_fract_z
 _atom_site_occupancy
  Sr  Sr0  1  0.48766100  0.54773800  0.25118800  1
  Ca  Ca0  1  0.99130800  0.95298200  0.75288400  1
  Ca  Ca1  1  0.00058300  0.50338700  0.50165600  1
  Ca  Ca2  1  0.50093800  0.99531900  0.99768800  1
  La  La0  1  0.51226700  0.44598700  0.75028900  1
  La  La1  1  0.01408000  0.05186900  0.24980000  1
  Sb  Sb0  1  0.49936600  0.99919800  0.50333700  1
  Sb  Sb1  1  0.00045500  0.50044800  0.99726400  1
  O  O0  1  0.16844300  0.78846500  0.05657500  1
  O  O1  1  0.66951800  0.71156700  0.55942100  1
  O  O2  1  0.82230400  0.21754500  0.93828200  1
  O  O3  1  0.31805600  0.27930200  0.44732200  1
  O  O4  1  0.61122300  0.97064700  0.27119200  1
  O  O5  1  0.11079100  0.54722000  0.76846400  1
  O  O6  1  0.38975900  0.04023300  0.73213500  1
  O  O7  1  0.90947800  0.45632500  0.23044800  1
  O  O8  1  0.21518800  0.82120000  0.44468600  1
  O  O9  1  0.71507200  0.67804200  0.94406900  1
  O  O10  1  0.78217700  0.18129500  0.55813000  1
  O  O11  1  0.28133300  0.31123000  0.04517100  1
loop_
_geom_bond_atom_site_label_1
_geom_bond_atom_site_label_2
_geom_bond_distance
_geom_bond_site_symmetry_2
Ca0 O6 2.369991 1_665
Ca0 O2 2.409895 1_565
Ca0 O10 2.426736 1_565
Ca0 O5 2.511269 1_655
Ca0 O9 2.786840 1_555
Ca0 O1 2.847707 1_555
Ca0 O0 2.886056 1_656
Ca0 O8 2.975817 1_655
Ca1 O3 2.311163 1_555
Ca1 O8 2.313440 1_555
Ca1 O5 2.317941 1_555
Ca1 O7 2.327919 1_455
Ca1 O1 2.328192 1_455
Ca1 O10 2.345316 1_455
Ca2 O9 2.298716 1_555
Ca2 O11 2.299806 1_566
Ca2 O6 2.308891 1_565
Ca2 O2 2.337109 1_565
Ca2 O0 2.338280 1_556
Ca2 O4 2.360306 1_556
La0 O5 2.401671 1_555
La0 O1 2.416771 1_555
La0 O9 2.423627 1_555
La0 O6 2.521995 1_555
La0 O2 2.730281 1_555
La0 O10 2.732624 1_555
La0 O11 2.904486 1_556
La0 O3 2.926852 1_555
La1 O4 2.387573 1_445
La1 O8 2.412771 1_545
La1 O0 2.415075 1_545
La1 O7 2.483476 1_455
La1 O3 2.759097 1_555
La1 O11 2.770269 1_555
La1 O2 2.975325 1_454
La1 O10 2.993674 1_455
O0 Sb1 2.032551 1_554
O0 Sr0 2.832464 1_555
O1 Sb0 2.023647 1_555
O1 Sr0 2.932530 1_555
O2 Sb1 2.035464 1_655
O3 Sb0 2.018427 1_545
O3 Sr0 2.484267 1_555
O4 Sb0 2.041605 1_555
O4 Sr0 2.622516 1_555
O5 Sb1 2.024271 1_555
O6 Sb0 2.018882 1_545
O7 Sb1 2.024109 1_654
O7 Sr0 2.503754 1_555
O8 Sb0 2.016414 1_555
O8 Sr0 2.777807 1_555
O9 Sb1 2.004129 1_655
O9 Sr0 2.974552 1_556
O10 Sb0 2.015574 1_545
O11 Sb1 2.011292 1_554
O11 Sr0 2.516572 1_555
