# generated using pymatgen
data_K2Te
_symmetry_space_group_name_H-M   'P 1'
_cell_length_a   5.78581338
_cell_length_b   5.78581375
_cell_length_c   5.78581246
_cell_angle_alpha   60.00000735
_cell_angle_beta   60.00000524
_cell_angle_gamma   60.00000891
_symmetry_Int_Tables_number   1
_chemical_formula_structural   K2Te
_chemical_formula_sum   'K2 Te1'
_cell_volume   136.95512711
_cell_formula_units_Z   1
loop_
 _symmetry_equiv_pos_site_id
 _symmetry_equiv_pos_as_xyz
  1  'x, y, z'
loop_
 _atom_site_type_symbol
 _atom_site_label
 _atom_site_symmetry_multiplicity
 _atom_site_fract_x
 _atom_site_fract_y
 _atom_site_fract_z
 _atom_site_occupancy
  K  K0  1  0.25000000  0.25000000  0.25000000  1
  K  K1  1  0.75000000  0.75000000  0.75000000  1
  Te  Te0  1  -0.00000000  -0.00000000  0.00000000  1
loop_
_geom_bond_atom_site_label_1
_geom_bond_atom_site_label_2
_geom_bond_distance
_geom_bond_site_symmetry_2
K0 Te0 3.543072 1_555
K0 Te0 3.543072 1_556
K0 Te0 3.543073 1_655
K0 Te0 3.543073 1_565
K1 Te0 3.543072 1_665
K1 Te0 3.543072 1_666
K1 Te0 3.543073 1_566
K1 Te0 3.543073 1_656
