# generated using pymatgen
data_Rb2Mn(Cl2O)2
_symmetry_space_group_name_H-M   'P 1'
_cell_length_a   5.95784300
_cell_length_b   6.82179512
_cell_length_c   6.85911712
_cell_angle_alpha   60.87378062
_cell_angle_beta   84.44944729
_cell_angle_gamma   86.77731137
_symmetry_Int_Tables_number   1
_chemical_formula_structural   Rb2Mn(Cl2O)2
_chemical_formula_sum   'Rb2 Mn1 Cl4 O2'
_cell_volume   242.36975648
_cell_formula_units_Z   1
loop_
 _symmetry_equiv_pos_site_id
 _symmetry_equiv_pos_as_xyz
  1  'x, y, z'
loop_
 _atom_site_type_symbol
 _atom_site_label
 _atom_site_symmetry_multiplicity
 _atom_site_fract_x
 _atom_site_fract_y
 _atom_site_fract_z
 _atom_site_occupancy
  Rb  Rb0  1  0.24298800  0.13525300  0.17203100  1
  Rb  Rb1  1  0.75701200  0.86474700  0.82796900  1
  Mn  Mn0  1  0.00000000  0.50000000  0.50000000  1
  Cl  Cl0  1  0.78834200  0.35926200  0.85156100  1
  Cl  Cl1  1  0.21165800  0.64073800  0.14843900  1
  Cl  Cl2  1  0.23693900  0.17834800  0.64730500  1
  Cl  Cl3  1  0.76306100  0.82165200  0.35269500  1
  O  O0  1  0.82911400  0.35842800  0.42094400  1
  O  O1  1  0.17088600  0.64157200  0.57905600  1
loop_
_geom_bond_atom_site_label_1
_geom_bond_atom_site_label_2
_geom_bond_distance
_geom_bond_site_symmetry_2
Mn0 O1 1.729296 1_555
Mn0 O0 1.729296 1_455
Cl0 Mn0 2.370852 1_655
Cl0 Rb1 3.367815 1_555
Cl0 Rb0 3.452624 1_656
Cl0 Rb1 3.471232 1_545
Cl0 Rb0 3.691963 1_556
Cl1 Mn0 2.370852 1_555
Cl1 Rb0 3.367815 1_555
Cl1 Rb1 3.452624 1_454
Cl1 Rb0 3.471232 1_565
Cl1 Rb1 3.691963 1_554
Cl2 Mn0 2.365960 1_555
Cl2 Rb0 3.409414 1_555
Cl2 Rb1 3.421942 1_445
Cl2 Rb0 3.469226 1_556
Cl2 Rb1 3.623515 1_545
Cl3 Mn0 2.365960 1_655
Cl3 Rb1 3.409414 1_555
Cl3 Rb0 3.421942 1_665
Cl3 Rb1 3.469226 1_554
Cl3 Rb0 3.623515 1_565
O0 Rb1 3.177840 1_545
O0 Rb0 3.550613 1_655
O1 Rb0 3.177840 1_565
O1 Rb1 3.550613 1_455
