# generated using pymatgen
data_Na2MnFeF7
_symmetry_space_group_name_H-M   'P 1'
_cell_length_a   7.61185133
_cell_length_b   7.61185133
_cell_length_c   7.61185133
_cell_angle_alpha   121.12541360
_cell_angle_beta   119.11530815
_cell_angle_gamma   89.80050190
_symmetry_Int_Tables_number   1
_chemical_formula_structural   Na2MnFeF7
_chemical_formula_sum   'Na4 Mn2 Fe2 F14'
_cell_volume   311.16763695
_cell_formula_units_Z   2
loop_
 _symmetry_equiv_pos_site_id
 _symmetry_equiv_pos_as_xyz
  1  'x, y, z'
loop_
 _atom_site_type_symbol
 _atom_site_label
 _atom_site_symmetry_multiplicity
 _atom_site_fract_x
 _atom_site_fract_y
 _atom_site_fract_z
 _atom_site_occupancy
  Na  Na0  1  0.50000000  0.50000000  0.00000000  1
  Na  Na1  1  0.00000000  0.00000000  0.00000000  1
  Na  Na2  1  0.00000000  0.50000000  0.00000000  1
  Na  Na3  1  0.00000000  0.00000000  0.50000000  1
  Mn  Mn0  1  0.50000000  0.50000000  0.50000000  1
  Mn  Mn1  1  0.50000000  0.00000000  0.00000000  1
  Fe  Fe0  1  0.00000000  0.50000000  0.50000000  1
  Fe  Fe1  1  0.50000000  0.00000000  0.50000000  1
  F  F0  1  0.85879400  0.58706500  0.27172900  1
  F  F1  1  0.18466300  0.91293500  0.27172900  1
  F  F2  1  0.17377300  0.80479100  0.75410600  1
  F  F3  1  0.44931500  0.69520900  0.36898200  1
  F  F4  1  0.44931500  0.08033300  0.75410600  1
  F  F5  1  0.17377300  0.41966700  0.36898200  1
  F  F6  1  0.82622700  0.58033300  0.63101800  1
  F  F7  1  0.55068500  0.91966700  0.24589400  1
  F  F8  1  0.55068500  0.30479100  0.63101800  1
  F  F9  1  0.82622700  0.19520900  0.24589400  1
  F  F10  1  0.37943200  0.25000000  0.12943200  1
  F  F11  1  0.14120600  0.41293500  0.72827100  1
  F  F12  1  0.81533700  0.08706500  0.72827100  1
  F  F13  1  0.62056800  0.75000000  0.87056800  1
loop_
_geom_bond_atom_site_label_1
_geom_bond_atom_site_label_2
_geom_bond_distance
_geom_bond_site_symmetry_2
F0 Fe0 1.995420 1_655
F0 Na0 2.296629 1_555
F0 Na3 2.571761 1_665
F0 Na2 2.571761 1_655
F1 Fe1 1.995426 1_565
F1 Na1 2.296628 1_565
F1 Na3 2.571754 1_565
F1 Na2 2.571759 1_555
F2 Fe0 1.940554 1_555
F2 Mn1 2.122480 1_566
F2 Na1 2.642187 1_566
F2 Na3 2.857724 1_565
F3 Fe1 1.940554 1_565
F3 Mn0 2.122480 1_555
F3 Na0 2.642187 1_555
F3 Na2 2.857724 1_555
F4 Fe1 1.940554 1_555
F4 Mn1 2.122480 1_556
F4 Na0 2.642187 1_556
F4 Na3 2.857724 1_555
F5 Fe0 1.940554 1_555
F5 Mn0 2.122480 1_555
F5 Na1 2.642187 1_555
F5 Na2 2.857724 1_555
F6 Fe0 1.940554 1_655
F6 Mn0 2.122480 1_555
F6 Na1 2.642187 1_666
F6 Na2 2.857724 1_656
F7 Fe1 1.940554 1_565
F7 Mn1 2.122480 1_565
F7 Na0 2.642187 1_555
F7 Na3 2.857724 1_665
F8 Fe1 1.940554 1_555
F8 Mn0 2.122480 1_555
F8 Na0 2.642187 1_556
F8 Na2 2.857724 1_656
F9 Fe0 1.940554 1_655
F9 Mn1 2.122480 1_555
F9 Na1 2.642187 1_655
F9 Na3 2.857724 1_655
F10 Mn0 2.088937 1_555
F10 Mn1 2.088937 1_555
F10 Na1 2.874801 1_555
F10 Na0 2.874801 1_555
F11 Fe0 1.995420 1_555
F11 Na0 2.296629 1_556
F11 Na2 2.571761 1_556
F11 Na3 2.571761 1_555
F12 Fe1 1.995426 1_555
F12 Na1 2.296628 1_656
F12 Na3 2.571754 1_655
F12 Na2 2.571759 1_656
F13 Mn0 2.088937 1_555
F13 Mn1 2.088937 1_566
F13 Na1 2.874801 1_666
F13 Na0 2.874801 1_556
