# generated using pymatgen
data_LaP2H44C14N7(Cl2O)2
_symmetry_space_group_name_H-M   'P 1'
_cell_length_a   10.58296300
_cell_length_b   10.58296300
_cell_length_c   16.34548704
_cell_angle_alpha   82.07906096
_cell_angle_beta   82.07906096
_cell_angle_gamma   63.23391535
_symmetry_Int_Tables_number   1
_chemical_formula_structural   LaP2H44C14N7(Cl2O)2
_chemical_formula_sum   'La2 P4 H88 C28 N14 Cl8 O4'
_cell_volume   1612.98302882
_cell_formula_units_Z   2
loop_
 _symmetry_equiv_pos_site_id
 _symmetry_equiv_pos_as_xyz
  1  'x, y, z'
loop_
 _atom_site_type_symbol
 _atom_site_label
 _atom_site_symmetry_multiplicity
 _atom_site_fract_x
 _atom_site_fract_y
 _atom_site_fract_z
 _atom_site_occupancy
  La  La0  1  0.25610900  0.74901700  0.75178300  1
  La  La1  1  0.74901700  0.25610900  0.25178300  1
  P  P0  1  0.87043600  0.85030100  0.85412700  1
  P  P1  1  0.14793000  0.13009900  0.64573000  1
  P  P2  1  0.13009900  0.14793000  0.14573000  1
  P  P3  1  0.85030100  0.87043600  0.35412700  1
  H  H0  1  0.55882800  0.18597000  0.84602100  1
  H  H1  1  0.81248300  0.44222400  0.65337600  1
  H  H2  1  0.44222400  0.81248300  0.15337600  1
  H  H3  1  0.18597000  0.55882800  0.34602100  1
  H  H4  1  0.82060200  0.13819500  0.92998800  1
  H  H5  1  0.86127400  0.18005100  0.56945800  1
  H  H6  1  0.18005100  0.86127400  0.06945800  1
  H  H7  1  0.13819500  0.82060200  0.42998800  1
  H  H8  1  0.77634000  0.22112900  0.82812900  1
  H  H9  1  0.77694500  0.22533200  0.67081200  1
  H  H10  1  0.22533200  0.77694500  0.17081200  1
  H  H11  1  0.22112900  0.77634000  0.32812900  1
  H  H12  1  0.91696200  0.59335300  0.75322700  1
  H  H13  1  0.40583600  0.08161100  0.74718100  1
  H  H14  1  0.08161100  0.40583600  0.24718100  1
  H  H15  1  0.59335300  0.91696200  0.25322700  1
  H  H16  1  0.69647800  0.98199700  0.72278700  1
  H  H17  1  0.01749100  0.30348800  0.77727000  1
  H  H18  1  0.30348800  0.01749100  0.27727000  1
  H  H19  1  0.98199700  0.69647800  0.22278700  1
  H  H20  1  0.57265300  0.01081000  0.86867800  1
  H  H21  1  0.98792300  0.42812200  0.63104300  1
  H  H22  1  0.42812200  0.98792300  0.13104300  1
  H  H23  1  0.01081000  0.57265300  0.36867800  1
  H  H24  1  0.33666000  0.47080700  0.08593200  1
  H  H25  1  0.58671800  0.56981200  0.44807600  1
  H  H26  1  0.56981200  0.58671800  0.94807600  1
  H  H27  1  0.47080700  0.33666000  0.58593300  1
  H  H28  1  0.74080100  0.62200100  0.79288700  1
  H  H29  1  0.37766700  0.25763700  0.70788600  1
  H  H30  1  0.25763700  0.37766700  0.20788600  1
  H  H31  1  0.62200100  0.74080100  0.29288700  1
  H  H32  1  0.87241900  0.58610600  0.86262600  1
  H  H33  1  0.41363500  0.12619500  0.63786900  1
  H  H34  1  0.12619500  0.41363500  0.13786900  1
  H  H35  1  0.58610600  0.87241900  0.36262600  1
  H  H36  1  0.44194200  0.56346200  0.08854000  1
  H  H37  1  0.44189500  0.63366100  0.38535600  1
  H  H38  1  0.63366100  0.44189500  0.88535600  1
  H  H39  1  0.56346200  0.44194200  0.58854000  1
  H  H40  1  0.76836800  0.67691100  0.03830100  1
  H  H41  1  0.32246500  0.23127100  0.46170200  1
  H  H42  1  0.23127100  0.32246500  0.96170200  1
  H  H43  1  0.67691100  0.76836800  0.53830100  1
  H  H44  1  0.09302000  0.70779500  0.95663000  1
  H  H45  1  0.29181400  0.90757700  0.54380400  1
  H  H46  1  0.90757700  0.29181400  0.04380400  1
  H  H47  1  0.70779500  0.09302000  0.45663000  1
  H  H48  1  0.94379300  0.07209400  0.84177300  1
  H  H49  1  0.92612900  0.05734000  0.65821800  1
  H  H50  1  0.05734000  0.92612900  0.15821800  1
  H  H51  1  0.07209400  0.94379300  0.34177300  1
  H  H52  1  0.64979200  0.84407200  0.70809700  1
  H  H53  1  0.15549700  0.34998300  0.79179500  1
  H  H54  1  0.34998300  0.15549700  0.29179500  1
  H  H55  1  0.84407200  0.64979200  0.20809700  1
  H  H56  1  0.32076200  0.61542100  0.00888300  1
  H  H57  1  0.41924000  0.71034100  0.48122700  1
  H  H58  1  0.71034100  0.41924000  0.98122700  1
  H  H59  1  0.61542100  0.32076200  0.50888300  1
  H  H60  1  0.59679900  0.09759500  0.94728800  1
  H  H61  1  0.90041700  0.40394000  0.55246300  1
  H  H62  1  0.40394000  0.90041700  0.05246300  1
  H  H63  1  0.09759500  0.59679900  0.44728800  1
  H  H64  1  0.97273200  0.82470200  0.03110200  1
  H  H65  1  0.17504500  0.02731600  0.46897100  1
  H  H66  1  0.02731600  0.17504500  0.96897100  1
  H  H67  1  0.82470200  0.97273200  0.53110200  1
  H  H68  1  0.70177300  0.86505100  0.03451500  1
  H  H69  1  0.13425600  0.29849800  0.46545800  1
  H  H70  1  0.29849800  0.13425600  0.96545800  1
  H  H71  1  0.86505100  0.70177300  0.53451500  1
  H  H72  1  0.00822000  0.64177500  0.04185100  1
  H  H73  1  0.35796400  0.99208200  0.45833200  1
  H  H74  1  0.99208200  0.35796400  0.95833200  1
  H  H75  1  0.64177500  0.00822000  0.54185100  1
  H  H76  1  0.66698900  0.78633800  0.95560800  1
  H  H77  1  0.21270800  0.33314600  0.54453800  1
  H  H78  1  0.33314600  0.21270800  0.04453800  1
  H  H79  1  0.78633800  0.66698900  0.45560800  1
  H  H80  1  0.82220900  0.83075700  0.67100100  1
  H  H81  1  0.16886500  0.17751300  0.82907900  1
  H  H82  1  0.17751300  0.16886500  0.32907900  1
  H  H83  1  0.83075700  0.82220900  0.17100100  1
  H  H84  1  0.45463500  0.41020900  0.94707600  1
  H  H85  1  0.41020900  0.45463500  0.44707600  1
  H  H86  1  0.55860300  0.32771100  0.02940800  1
  H  H87  1  0.32771100  0.55860300  0.52940800  1
  C  C0  1  0.74676800  0.77374200  0.99634300  1
  C  C1  1  0.22550700  0.25339100  0.50366900  1
  C  C2  1  0.25339100  0.22550700  0.00366900  1
  C  C3  1  0.77374200  0.74676800  0.49634300  1
  C  C4  1  0.99427500  0.73336600  0.99662000  1
  C  C5  1  0.26625700  0.00599800  0.50349300  1
  C  C6  1  0.00599800  0.26625700  0.00349300  1
  C  C7  1  0.73336700  0.99427500  0.49662000  1
  C  C8  1  0.61637800  0.08223300  0.88040000  1
  C  C9  1  0.91635500  0.38463700  0.61919900  1
  C  C10  1  0.38463700  0.91635500  0.11919900  1
  C  C11  1  0.08223300  0.61637800  0.38040000  1
  C  C12  1  0.73607500  0.86720500  0.72120300  1
  C  C13  1  0.13227500  0.26362400  0.77890900  1
  C  C14  1  0.26362400  0.13227500  0.27890900  1
  C  C15  1  0.86720500  0.73607500  0.22120300  1
  C  C16  1  0.83217000  0.63957000  0.80288900  1
  C  C17  1  0.35983900  0.16650300  0.69756000  1
  C  C18  1  0.16650300  0.35983900  0.19756000  1
  C  C19  1  0.63957000  0.83217000  0.30288900  1
  C  C20  1  0.83117000  0.11846300  0.86417500  1
  C  C21  1  0.88006800  0.16975100  0.63536700  1
  C  C22  1  0.16975100  0.88006800  0.13536700  1
  C  C23  1  0.11846300  0.83117000  0.36417500  1
  C  C24  1  0.39283100  0.52685800  0.04818600  1
  C  C25  1  0.47124300  0.61307000  0.44918100  1
  C  C26  1  0.61307000  0.47124300  0.94918100  1
  C  C27  1  0.52685800  0.39283100  0.54818600  1
  N  N0  1  0.87819200  0.76097100  0.94696800  1
  N  N1  1  0.23828800  0.12220600  0.55309800  1
  N  N2  1  0.12220600  0.23828800  0.05309800  1
  N  N3  1  0.76097100  0.87819200  0.44696800  1
  N  N4  1  0.76814200  0.02479100  0.85284300  1
  N  N5  1  0.97383500  0.23272900  0.64699200  1
  N  N6  1  0.23272900  0.97383500  0.14699200  1
  N  N7  1  0.02479100  0.76814200  0.35284300  1
  N  N8  1  0.78681400  0.79295500  0.80145900  1
  N  N9  1  0.20642600  0.21245600  0.69871000  1
  N  N10  1  0.21245600  0.20642600  0.19871000  1
  N  N11  1  0.79295500  0.78681400  0.30145900  1
  N  N12  1  0.50593100  0.42396400  0.99318800  1
  N  N13  1  0.42396400  0.50593100  0.49318800  1
  Cl  Cl0  1  0.33735700  0.47531000  0.83943000  1
  Cl  Cl1  1  0.51945900  0.66772000  0.66453900  1
  Cl  Cl2  1  0.66772000  0.51945900  0.16453900  1
  Cl  Cl3  1  0.47531000  0.33735700  0.33943000  1
  Cl  Cl4  1  0.16576400  0.66322200  0.61779200  1
  Cl  Cl5  1  0.32966300  0.84557000  0.87829200  1
  Cl  Cl6  1  0.84557000  0.32966300  0.37829200  1
  Cl  Cl7  1  0.66322200  0.16576400  0.11779200  1
  O  O0  1  0.01983200  0.82652800  0.82077600  1
  O  O1  1  0.17093100  0.98057600  0.67822000  1
  O  O2  1  0.98057600  0.17093100  0.17822000  1
  O  O3  1  0.82652800  0.01983200  0.32077600  1
loop_
_geom_bond_atom_site_label_1
_geom_bond_atom_site_label_2
_geom_bond_distance
_geom_bond_site_symmetry_2
La0 O1 2.400142 1_555
La0 O0 2.414019 1_555
La1 O2 2.400142 1_555
La1 O3 2.414019 1_555
H84 N12 1.047940 1_555
H85 N13 1.047940 1_555
H86 N12 1.054594 1_554
H87 N13 1.054594 1_555
C0 H76 1.096836 1_555
C0 H40 1.100571 1_556
C0 H68 1.104382 1_556
C0 N0 1.468149 1_555
C1 H77 1.097498 1_555
C1 H41 1.100978 1_555
C1 H69 1.104269 1_555
C1 N1 1.466405 1_555
C2 H78 1.097498 1_555
C2 H42 1.100978 1_554
C2 H70 1.104269 1_554
C2 N2 1.466405 1_555
C3 H79 1.096836 1_555
C3 H43 1.100571 1_555
C3 H71 1.104382 1_555
C3 N3 1.468149 1_555
C4 H44 1.094681 1_655
C4 H72 1.100747 1_656
C4 H64 1.104638 1_556
C4 N0 1.462678 1_555
C5 H45 1.094728 1_545
C5 H73 1.101043 1_545
C5 H65 1.104530 1_555
C5 N1 1.462299 1_555
C6 H46 1.094728 1_455
C6 H74 1.101043 1_454
C6 H66 1.104530 1_554
C6 N2 1.462299 1_555
C7 H47 1.094680 1_565
C7 H75 1.100755 1_565
C7 H67 1.104629 1_555
C7 N3 1.462681 1_555
C8 H20 1.096159 1_555
C8 H0 1.101832 1_555
C8 H60 1.104951 1_555
C8 N4 1.465846 1_555
C9 H21 1.096281 1_555
C9 H1 1.101392 1_555
C9 H61 1.103791 1_555
C9 N5 1.467979 1_555
C10 H22 1.096281 1_555
C10 H2 1.101392 1_555
C10 H62 1.103791 1_555
C10 N6 1.467979 1_555
C11 H23 1.096159 1_555
C11 H3 1.101832 1_555
C11 H63 1.104951 1_555
C11 N7 1.465846 1_555
C12 H16 1.095107 1_555
C12 H52 1.099705 1_555
C12 H80 1.103378 1_555
C12 N8 1.468561 1_555
C13 H17 1.094803 1_555
C13 H53 1.099846 1_555
C13 H81 1.103007 1_555
C13 N9 1.468625 1_555
C14 H18 1.094803 1_555
C14 H54 1.099846 1_555
C14 H82 1.103007 1_555
C14 N10 1.468625 1_555
C15 H19 1.095107 1_555
C15 H55 1.099705 1_555
C15 H83 1.103378 1_555
C15 N11 1.468561 1_555
C16 H32 1.095572 1_555
C16 H28 1.100083 1_555
C16 H12 1.103064 1_555
C16 N8 1.468599 1_555
C17 H33 1.095863 1_555
C17 H29 1.100829 1_555
C17 H13 1.102736 1_555
C17 N9 1.468252 1_555
C18 H34 1.095863 1_555
C18 H30 1.100829 1_555
C18 H14 1.102736 1_555
C18 N10 1.468252 1_555
C19 H35 1.095572 1_555
C19 H31 1.100083 1_555
C19 H15 1.103064 1_555
C19 N11 1.468599 1_555
C20 H48 1.094492 1_555
C20 H8 1.101948 1_555
C20 H4 1.105017 1_555
C20 N4 1.463624 1_555
C21 H49 1.094427 1_555
C21 H9 1.101888 1_555
C21 H5 1.104179 1_555
C21 N5 1.465478 1_555
C22 H50 1.094427 1_555
C22 H10 1.101888 1_555
C22 H6 1.104179 1_555
C22 N6 1.465478 1_555
C23 H51 1.094492 1_555
C23 H11 1.101948 1_555
C23 H7 1.105017 1_555
C23 N7 1.463624 1_555
C24 H56 1.094583 1_555
C24 H36 1.096141 1_555
C24 H24 1.096156 1_555
C24 N12 1.491927 1_554
C25 H25 1.093456 1_555
C25 H57 1.093543 1_555
C25 H37 1.094537 1_555
C25 N13 1.496790 1_555
C26 H26 1.093456 1_555
C26 H58 1.093543 1_555
C26 H38 1.094537 1_555
C26 N12 1.496790 1_555
C27 H59 1.094583 1_555
C27 H39 1.096141 1_555
C27 H27 1.096163 1_555
C27 N13 1.491927 1_555
N0 P0 1.665055 1_555
N1 P1 1.666675 1_555
N2 P2 1.666675 1_555
N3 P3 1.665055 1_555
N4 P0 1.666556 1_545
N5 P1 1.663724 1_655
N6 P2 1.663724 1_565
N7 P3 1.666556 1_455
N8 P0 1.652370 1_555
N9 P1 1.653657 1_555
N10 P2 1.653657 1_555
N11 P3 1.652370 1_555
Cl0 La0 2.852137 1_555
Cl1 La0 2.761221 1_555
Cl2 La1 2.761221 1_555
Cl3 La1 2.852137 1_555
Cl4 H87 2.073551 1_555
Cl4 La0 2.905589 1_555
Cl5 La0 2.769201 1_555
Cl6 La1 2.769201 1_555
Cl7 H86 2.073551 1_555
Cl7 La1 2.905589 1_555
O0 P0 1.517292 1_455
O1 P1 1.517347 1_565
O2 P2 1.517347 1_655
O3 P3 1.517292 1_545
