# generated using pymatgen
data_LiW3O9F
_symmetry_space_group_name_H-M   'P 1'
_cell_length_a   7.49193876
_cell_length_b   7.49193876
_cell_length_c   8.53472421
_cell_angle_alpha   77.40816658
_cell_angle_beta   77.40816658
_cell_angle_gamma   120.01314643
_symmetry_Int_Tables_number   1
_chemical_formula_structural   LiW3O9F
_chemical_formula_sum   'Li2 W6 O18 F2'
_cell_volume   373.28933920
_cell_formula_units_Z   2
loop_
 _symmetry_equiv_pos_site_id
 _symmetry_equiv_pos_as_xyz
  1  'x, y, z'
loop_
 _atom_site_type_symbol
 _atom_site_label
 _atom_site_symmetry_multiplicity
 _atom_site_fract_x
 _atom_site_fract_y
 _atom_site_fract_z
 _atom_site_occupancy
  Li  Li0  1  0.05473800  0.80393600  0.50009000  1
  Li  Li1  1  0.80393600  0.05473800  0.00009000  1
  W  W0  1  0.48336700  0.23271000  0.48730200  1
  W  W1  1  0.23271000  0.48336700  0.98730200  1
  W  W2  1  0.74001400  0.48960300  0.97245800  1
  W  W3  1  0.22704700  0.97816100  0.99526200  1
  W  W4  1  0.48960300  0.74001400  0.47245800  1
  W  W5  1  0.97816100  0.22704700  0.49526200  1
  O  O0  1  0.92952300  0.38756100  0.00200800  1
  O  O1  1  0.13391100  0.17560300  0.00949100  1
  O  O2  1  0.38756100  0.92952300  0.50200800  1
  O  O3  1  0.17560300  0.13391100  0.50949100  1
  O  O4  1  0.75396100  0.93164600  0.51050200  1
  O  O5  1  0.18562300  0.50720800  0.50160700  1
  O  O6  1  0.93164600  0.75396100  0.01050200  1
  O  O7  1  0.50720800  0.18562300  0.00160700  1
  O  O8  1  0.59523500  0.34316300  0.25188500  1
  O  O9  1  0.34066100  0.09172800  0.75645900  1
  O  O10  1  0.34316300  0.59523500  0.75188500  1
  O  O11  1  0.09172800  0.34066100  0.25645900  1
  O  O12  1  0.75355000  0.28974300  0.51110800  1
  O  O13  1  0.54418300  0.50764500  0.50071200  1
  O  O14  1  0.28974300  0.75355000  0.01110800  1
  O  O15  1  0.50764500  0.54418300  0.00071200  1
  O  O16  1  0.85810100  0.60922400  0.74270600  1
  O  O17  1  0.60922400  0.85810100  0.24270600  1
  F  F0  1  0.10116200  0.84899100  0.25841100  1
  F  F1  1  0.84899100  0.10116200  0.75841100  1
loop_
_geom_bond_atom_site_label_1
_geom_bond_atom_site_label_2
_geom_bond_distance
_geom_bond_site_symmetry_2
Li0 O16 1.946533 1_455
Li0 O2 2.186438 1_555
Li0 O3 2.194683 1_565
Li1 O17 1.946533 1_545
Li1 O0 2.186438 1_555
Li1 O1 2.194683 1_655
O0 W2 1.954933 1_554
O0 W1 1.973791 1_654
O1 W3 1.940019 1_544
O1 W1 1.985282 1_554
O2 W4 1.954933 1_555
O2 W0 1.973791 1_565
O3 W5 1.940019 1_455
O3 W0 1.985282 1_555
O4 W4 1.930875 1_555
O4 W5 1.948486 1_565
O5 W5 1.909692 1_455
O5 W4 1.969923 1_555
O6 W2 1.930875 1_554
O6 W3 1.948486 1_654
O7 W3 1.909692 1_544
O7 W2 1.969923 1_554
O8 W0 1.808646 1_555
O8 W2 2.146737 1_554
O9 W3 1.834497 1_545
O9 W0 2.068155 1_555
O10 W1 1.808646 1_555
O10 W4 2.146737 1_555
O11 W5 1.834497 1_455
O11 W1 2.068155 1_554
O12 W0 1.916542 1_555
O12 W5 1.946754 1_555
O13 W0 1.910524 1_555
O13 W4 1.956573 1_555
O14 W1 1.916542 1_554
O14 W3 1.946754 1_554
O15 W1 1.910524 1_554
O15 W2 1.956573 1_554
O16 W2 1.764966 1_555
O17 W4 1.764966 1_555
F0 Li0 1.937956 1_555
F0 W3 2.021348 1_554
F1 Li1 1.937956 1_556
F1 W5 2.021348 1_555
