# generated using pymatgen
data_ZnCr(Si2O5)2
_symmetry_space_group_name_H-M   'P 1'
_cell_length_a   7.34538900
_cell_length_b   7.34538900
_cell_length_c   14.94235600
_cell_angle_alpha   90.00000000
_cell_angle_beta   90.00000000
_cell_angle_gamma   90.00000000
_symmetry_Int_Tables_number   1
_chemical_formula_structural   ZnCr(Si2O5)2
_chemical_formula_sum   'Zn4 Cr4 Si16 O40'
_cell_volume   806.21092641
_cell_formula_units_Z   4
loop_
 _symmetry_equiv_pos_site_id
 _symmetry_equiv_pos_as_xyz
  1  'x, y, z'
loop_
 _atom_site_type_symbol
 _atom_site_label
 _atom_site_symmetry_multiplicity
 _atom_site_fract_x
 _atom_site_fract_y
 _atom_site_fract_z
 _atom_site_occupancy
  Zn  Zn0  1  0.50000000  0.50000000  0.50000000  1
  Zn  Zn1  1  0.00000000  0.00000000  0.50000000  1
  Zn  Zn2  1  0.00000000  0.00000000  0.00000000  1
  Zn  Zn3  1  0.50000000  0.50000000  0.00000000  1
  Cr  Cr0  1  0.50000000  0.00000000  0.56886600  1
  Cr  Cr1  1  0.00000000  0.50000000  0.93113400  1
  Cr  Cr2  1  0.00000000  0.50000000  0.43113400  1
  Cr  Cr3  1  0.50000000  0.00000000  0.06886600  1
  Si  Si0  1  0.15820600  0.24036100  0.64528100  1
  Si  Si1  1  0.84179400  0.75963900  0.64528100  1
  Si  Si2  1  0.24036100  0.15820600  0.85471900  1
  Si  Si3  1  0.74036100  0.34179400  0.64528100  1
  Si  Si4  1  0.25963900  0.65820600  0.64528100  1
  Si  Si5  1  0.34179400  0.74036100  0.85471900  1
  Si  Si6  1  0.65820600  0.25963900  0.85471900  1
  Si  Si7  1  0.75963900  0.84179400  0.85471900  1
  Si  Si8  1  0.34179400  0.25963900  0.35471900  1
  Si  Si9  1  0.65820600  0.74036100  0.35471900  1
  Si  Si10  1  0.25963900  0.34179400  0.14528100  1
  Si  Si11  1  0.75963900  0.15820600  0.35471900  1
  Si  Si12  1  0.24036100  0.84179400  0.35471900  1
  Si  Si13  1  0.15820600  0.75963900  0.14528100  1
  Si  Si14  1  0.84179400  0.24036100  0.14528100  1
  Si  Si15  1  0.74036100  0.65820600  0.14528100  1
  O  O0  1  0.22929300  0.08611500  0.57556000  1
  O  O1  1  0.77070700  0.91388500  0.57556000  1
  O  O2  1  0.08611500  0.22929300  0.92444000  1
  O  O3  1  0.58611500  0.27070700  0.57556000  1
  O  O4  1  0.41388500  0.72929300  0.57556000  1
  O  O5  1  0.27070700  0.58611500  0.92444000  1
  O  O6  1  0.72929300  0.41388500  0.92444000  1
  O  O7  1  0.91388500  0.77070700  0.92444000  1
  O  O8  1  0.27070700  0.41388500  0.42444000  1
  O  O9  1  0.72929300  0.58611500  0.42444000  1
  O  O10  1  0.41388500  0.27070700  0.07556000  1
  O  O11  1  0.91388500  0.22929300  0.42444000  1
  O  O12  1  0.08611500  0.77070700  0.42444000  1
  O  O13  1  0.22929300  0.91388500  0.07556000  1
  O  O14  1  0.77070700  0.08611500  0.07556000  1
  O  O15  1  0.25318300  0.06025700  0.37365300  1
  O  O16  1  0.58611500  0.72929300  0.07556000  1
  O  O17  1  0.75318300  0.56025700  0.62634700  1
  O  O18  1  0.43974300  0.24681700  0.87365300  1
  O  O19  1  0.93974300  0.25318300  0.62634700  1
  O  O20  1  0.06025700  0.74681700  0.62634700  1
  O  O21  1  0.25318300  0.93974300  0.87365300  1
  O  O22  1  0.74681700  0.06025700  0.87365300  1
  O  O23  1  0.56025700  0.75318300  0.87365300  1
  O  O24  1  0.69248600  0.69248600  0.25000000  1
  O  O25  1  0.80751400  0.19248600  0.25000000  1
  O  O26  1  0.19248600  0.80751400  0.25000000  1
  O  O27  1  0.30751400  0.30751400  0.25000000  1
  O  O28  1  0.80751400  0.80751400  0.75000000  1
  O  O29  1  0.69248600  0.30751400  0.75000000  1
  O  O30  1  0.30751400  0.69248600  0.75000000  1
  O  O31  1  0.19248600  0.19248600  0.75000000  1
  O  O32  1  0.93974300  0.74681700  0.12634700  1
  O  O33  1  0.75318300  0.43974300  0.12634700  1
  O  O34  1  0.24681700  0.56025700  0.12634700  1
  O  O35  1  0.43974300  0.75318300  0.37365300  1
  O  O36  1  0.56025700  0.24681700  0.37365300  1
  O  O37  1  0.06025700  0.25318300  0.12634700  1
  O  O38  1  0.74681700  0.93974300  0.37365300  1
  O  O39  1  0.24681700  0.43974300  0.62634700  1
loop_
_geom_bond_atom_site_label_1
_geom_bond_atom_site_label_2
_geom_bond_distance
_geom_bond_site_symmetry_2
Cr0 O4 2.089030 1_545
Cr0 O0 2.089030 1_555
Cr0 O3 2.089030 1_555
Cr0 O1 2.089030 1_545
Cr1 O6 2.089030 1_455
Cr1 O5 2.089030 1_555
Cr1 O2 2.089030 1_555
Cr1 O7 2.089030 1_455
Cr2 O8 2.089030 1_555
Cr2 O12 2.089030 1_555
Cr2 O9 2.089030 1_455
Cr2 O11 2.089030 1_455
Cr3 O10 2.089030 1_555
Cr3 O14 2.089030 1_555
Cr3 O16 2.089030 1_545
Cr3 O13 2.089030 1_545
O0 Si0 1.625323 1_555
O0 Zn1 2.124040 1_555
O1 Si1 1.625323 1_555
O1 Zn1 2.124040 1_665
O2 Si2 1.625323 1_555
O2 Zn2 2.124040 1_556
O3 Si3 1.625323 1_555
O3 Zn0 2.124040 1_555
O4 Si4 1.625323 1_555
O4 Zn0 2.124040 1_555
O5 Si5 1.625323 1_555
O5 Zn3 2.124040 1_556
O6 Si6 1.625323 1_555
O6 Zn3 2.124040 1_556
O7 Si7 1.625323 1_555
O7 Zn2 2.124040 1_666
O8 Si8 1.625323 1_555
O8 Zn0 2.124040 1_555
O9 Si9 1.625323 1_555
O9 Zn0 2.124040 1_555
O10 Si10 1.625323 1_555
O10 Zn3 2.124040 1_555
O11 Si11 1.625323 1_555
O11 Zn1 2.124040 1_655
O12 Si12 1.625323 1_555
O12 Zn1 2.124040 1_565
O13 Si13 1.625323 1_555
O13 Zn2 2.124040 1_565
O14 Si14 1.625323 1_555
O14 Zn2 2.124040 1_655
O15 Si8 1.627441 1_555
O15 Si12 1.632165 1_545
O16 Si15 1.625323 1_555
O16 Zn3 2.124040 1_555
O17 Si1 1.627441 1_555
O17 Si3 1.632165 1_555
O18 Si2 1.627441 1_555
O18 Si6 1.632165 1_555
O19 Si3 1.627441 1_555
O19 Si0 1.632165 1_655
O20 Si4 1.627441 1_555
O20 Si1 1.632165 1_455
O21 Si5 1.627441 1_555
O21 Si2 1.632165 1_565
O22 Si6 1.627441 1_555
O22 Si7 1.632165 1_545
O23 Si7 1.627441 1_555
O23 Si5 1.632165 1_555
O24 Si9 1.623424 1_555
O24 Si15 1.623424 1_555
O25 Si11 1.623424 1_555
O25 Si14 1.623424 1_555
O26 Si13 1.623424 1_555
O26 Si12 1.623424 1_555
O27 Si10 1.623424 1_555
O27 Si8 1.623424 1_555
O28 Si7 1.623424 1_555
O28 Si1 1.623424 1_555
O29 Si3 1.623424 1_555
O29 Si6 1.623424 1_555
O30 Si5 1.623424 1_555
O30 Si4 1.623424 1_555
O31 Si2 1.623424 1_555
O31 Si0 1.623424 1_555
O32 Si15 1.627441 1_555
O32 Si13 1.632165 1_655
O33 Si14 1.627441 1_555
O33 Si15 1.632165 1_555
O34 Si13 1.627441 1_555
O34 Si10 1.632165 1_555
O35 Si12 1.627441 1_555
O35 Si9 1.632165 1_555
O36 Si11 1.627441 1_555
O36 Si8 1.632165 1_555
O37 Si10 1.627441 1_555
O37 Si14 1.632165 1_455
O38 Si9 1.627441 1_555
O38 Si11 1.632165 1_565
O39 Si0 1.627441 1_555
O39 Si4 1.632165 1_555
