# generated using pymatgen
data_Ga2AsRh5
_symmetry_space_group_name_H-M   'P 1'
_cell_length_a   4.01954392
_cell_length_b   5.46160756
_cell_length_c   10.19616715
_cell_angle_alpha   89.98949256
_cell_angle_beta   90.00000000
_cell_angle_gamma   90.00000000
_symmetry_Int_Tables_number   1
_chemical_formula_structural   Ga2AsRh5
_chemical_formula_sum   'Ga4 As2 Rh10'
_cell_volume   223.83820211
_cell_formula_units_Z   2
loop_
 _symmetry_equiv_pos_site_id
 _symmetry_equiv_pos_as_xyz
  1  'x, y, z'
loop_
 _atom_site_type_symbol
 _atom_site_label
 _atom_site_symmetry_multiplicity
 _atom_site_fract_x
 _atom_site_fract_y
 _atom_site_fract_z
 _atom_site_occupancy
  Ga  Ga0  1  0.50000000  0.38740413  0.34994879  1
  Ga  Ga1  1  0.50000000  0.61259587  0.65005121  1
  Ga  Ga2  1  0.50000000  0.11235178  0.84971115  1
  Ga  Ga3  1  0.50000000  0.88764822  0.15028885  1
  As  As0  1  0.00000000  -0.00000000  0.50000000  1
  As  As1  1  0.00000000  0.50000000  -0.00000000  1
  Rh  Rh0  1  0.50000000  0.33255612  0.10330399  1
  Rh  Rh1  1  0.50000000  0.66744388  0.89669601  1
  Rh  Rh2  1  0.50000000  0.83227289  0.39685854  1
  Rh  Rh3  1  0.50000000  0.16772711  0.60314146  1
  Rh  Rh4  1  0.00000000  0.86312375  0.72385022  1
  Rh  Rh5  1  -0.00000000  0.13687625  0.27614978  1
  Rh  Rh6  1  -0.00000000  0.36294761  0.77602637  1
  Rh  Rh7  1  0.00000000  0.63705239  0.22397363  1
  Rh  Rh8  1  -0.00000000  0.50000000  0.50000000  1
  Rh  Rh9  1  -0.00000000  -0.00000000  -0.00000000  1
loop_
_geom_bond_atom_site_label_1
_geom_bond_atom_site_label_2
_geom_bond_distance
_geom_bond_site_symmetry_2
Ga0 Rh2 2.476415 1_555
Ga0 Rh0 2.532665 1_555
Ga0 Rh5 2.545186 1_655
Ga0 Rh5 2.545186 1_555
Ga0 Rh8 2.599699 1_655
Ga0 Rh8 2.599699 1_555
Ga0 Rh7 2.747266 1_555
Ga0 Rh7 2.747266 1_655
Ga0 Rh3 2.846575 1_555
Ga0 Rh2 3.069318 1_545
Ga1 Rh3 2.476415 1_555
Ga1 Rh1 2.532665 1_555
Ga1 Rh4 2.545186 1_555
Ga1 Rh4 2.545186 1_655
Ga1 Rh8 2.599699 1_555
Ga1 Rh8 2.599699 1_655
Ga1 Rh6 2.747266 1_555
Ga1 Rh6 2.747266 1_655
Ga1 Rh2 2.846575 1_555
Ga1 Rh3 3.069318 1_565
Ga2 Rh1 2.476601 1_545
Ga2 Rh3 2.532137 1_555
Ga2 Rh6 2.544893 1_655
Ga2 Rh6 2.544893 1_555
Ga2 Rh9 2.600678 1_556
Ga2 Rh9 2.600678 1_656
Ga2 Rh4 2.745816 1_645
Ga2 Rh4 2.745816 1_545
Ga2 Rh0 2.851889 1_556
Ga2 Rh1 3.069399 1_555
Ga3 Rh0 2.476601 1_565
Ga3 Rh2 2.532137 1_555
Ga3 Rh7 2.544893 1_655
Ga3 Rh7 2.544893 1_555
Ga3 Rh9 2.600678 1_665
Ga3 Rh9 2.600678 1_565
Ga3 Rh5 2.745816 1_565
Ga3 Rh5 2.745816 1_665
Ga3 Rh1 2.851889 1_554
Ga3 Rh0 3.069399 1_555
As0 Rh4 2.401591 1_545
As0 Rh5 2.401591 1_555
As0 Rh2 2.446357 1_545
As0 Rh3 2.446357 1_555
As0 Rh3 2.446357 1_455
As0 Rh2 2.446357 1_445
As0 Rh8 2.730804 1_545
As0 Rh8 2.730804 1_555
As1 Rh6 2.403347 1_554
As1 Rh7 2.403347 1_555
As1 Rh1 2.446347 1_554
As1 Rh0 2.446347 1_555
As1 Rh0 2.446347 1_455
As1 Rh1 2.446347 1_454
As1 Rh9 2.730804 1_555
As1 Rh9 2.730804 1_565
Rh0 Rh1 2.789574 1_554
Rh0 Rh5 2.878645 1_655
Rh0 Rh5 2.878645 1_555
Rh0 Rh7 2.884344 1_655
Rh0 Rh7 2.884344 1_555
Rh0 Rh9 2.906587 1_555
Rh0 Rh9 2.906587 1_655
Rh1 Rh4 2.878645 1_655
Rh1 Rh4 2.878645 1_555
Rh1 Rh6 2.884344 1_555
Rh1 Rh6 2.884344 1_655
Rh1 Rh9 2.906587 1_566
Rh1 Rh9 2.906587 1_666
