# generated using pymatgen
data_Sn9Au4
_symmetry_space_group_name_H-M   'P 1'
_cell_length_a   9.43376928
_cell_length_b   9.43376928
_cell_length_c   9.34140435
_cell_angle_alpha   70.32804648
_cell_angle_beta   70.32804648
_cell_angle_gamma   108.64606552
_symmetry_Int_Tables_number   1
_chemical_formula_structural   Sn9Au4
_chemical_formula_sum   'Sn18 Au8'
_cell_volume   643.24479677
_cell_formula_units_Z   2
loop_
 _symmetry_equiv_pos_site_id
 _symmetry_equiv_pos_as_xyz
  1  'x, y, z'
loop_
 _atom_site_type_symbol
 _atom_site_label
 _atom_site_symmetry_multiplicity
 _atom_site_fract_x
 _atom_site_fract_y
 _atom_site_fract_z
 _atom_site_occupancy
  Sn  Sn0  1  0.97704500  0.97704500  0.81162400  1
  Sn  Sn1  1  0.77840300  0.77840300  0.22973900  1
  Sn  Sn2  1  0.20544300  0.99555900  0.01882200  1
  Sn  Sn3  1  0.99555900  0.20544300  0.01882200  1
  Sn  Sn4  1  0.28835900  0.28835900  0.35131900  1
  Sn  Sn5  1  0.00173700  0.72527800  0.63266000  1
  Sn  Sn6  1  0.72527800  0.00173700  0.63266000  1
  Sn  Sn7  1  0.63902300  0.63902300  0.65374400  1
  Sn  Sn8  1  0.38915700  0.65928100  0.33861300  1
  Sn  Sn9  1  0.65928100  0.38915700  0.33861300  1
  Sn  Sn10  1  0.36492500  0.71151400  0.99534100  1
  Sn  Sn11  1  0.60828100  0.26958200  0.73092200  1
  Sn  Sn12  1  0.36732100  0.00494500  0.27420900  1
  Sn  Sn13  1  0.71151400  0.36492500  0.99534100  1
  Sn  Sn14  1  0.00494500  0.36732100  0.27420900  1
  Sn  Sn15  1  0.26958200  0.60828100  0.73092200  1
  Sn  Sn16  1  0.99984500  0.36551900  0.63361300  1
  Sn  Sn17  1  0.36551900  0.99984500  0.63361300  1
  Au  Au0  1  0.64227800  0.64227800  0.00070600  1
  Au  Au1  1  0.00192000  0.64692600  0.35065600  1
  Au  Au2  1  0.64692600  0.00192000  0.35065600  1
  Au  Au3  1  0.35564900  0.35564900  0.99987800  1
  Au  Au4  1  0.00018100  0.00018100  0.35220700  1
  Au  Au5  1  0.34764400  0.34764400  0.65198700  1
  Au  Au6  1  0.65274400  0.00144000  0.99956400  1
  Au  Au7  1  0.00144000  0.65274400  0.99956400  1
loop_
_geom_bond_atom_site_label_1
_geom_bond_atom_site_label_2
_geom_bond_distance
_geom_bond_site_symmetry_2
Sn0 Sn1 3.190197 1_556
Sn1 Sn8 3.139848 1_555
Sn1 Sn9 3.139848 1_555
Sn1 Sn2 3.312021 1_655
Sn1 Sn3 3.312021 1_565
Sn1 Sn7 3.320768 1_555
Sn4 Sn8 3.267929 1_555
Sn4 Sn9 3.267929 1_555
Sn5 Sn7 3.172902 1_455
Sn6 Sn7 3.172902 1_545
Sn10 Sn8 3.174800 1_556
Sn11 Sn7 3.204972 1_555
Sn11 Sn9 3.258330 1_555
Sn12 Sn8 3.198449 1_545
Sn12 Sn4 3.229726 1_555
Sn13 Sn9 3.174800 1_556
Sn14 Sn9 3.198449 1_455
Sn14 Sn4 3.229726 1_555
Sn15 Sn7 3.204972 1_555
Sn15 Sn8 3.258330 1_555
Sn16 Sn8 3.209137 1_655
Sn17 Sn9 3.209137 1_565
Au0 Sn10 2.904161 1_554
Au0 Sn13 2.904161 1_554
Au0 Sn0 3.029583 1_554
Au0 Au3 3.158486 1_554
Au0 Sn1 3.243560 1_555
Au0 Sn7 3.261917 1_554
Au0 Sn4 3.342028 1_555
Au0 Sn8 3.347010 1_555
Au0 Sn9 3.347010 1_555
Au0 Au7 3.354273 1_654
Au0 Au6 3.354273 1_564
Au1 Sn14 2.961591 1_555
Au1 Sn5 2.965582 1_555
Au1 Sn2 3.033685 1_555
Au1 Sn16 3.040091 1_455
Au1 Sn1 3.097283 1_455
Au1 Au7 3.263185 1_554
Au1 Sn9 3.431772 1_455
Au2 Sn12 2.961591 1_555
Au2 Sn6 2.965582 1_555
Au2 Sn3 3.033685 1_555
Au2 Sn17 3.040091 1_545
Au2 Sn1 3.097283 1_545
Au2 Au6 3.263185 1_554
Au2 Sn8 3.431772 1_545
Au3 Sn4 2.918876 1_556
Au3 Sn7 2.922118 1_555
Au3 Sn3 3.150763 1_456
Au3 Sn2 3.150763 1_546
Au3 Au5 3.301418 1_555
Au3 Sn13 3.315683 1_555
Au3 Sn10 3.315683 1_555
Au3 Sn15 3.351254 1_555
Au3 Sn11 3.351254 1_555
Au3 Au4 3.357176 1_556
Au3 Sn12 3.498548 1_556
Au3 Sn14 3.498548 1_556
Au4 Sn5 3.010847 1_545
Au4 Sn6 3.010847 1_455
Au4 Sn3 3.087972 1_455
Au4 Sn2 3.087972 1_545
Au4 Sn4 3.166280 1_555
Au4 Sn1 3.238418 1_445
Au4 Sn12 3.272340 1_555
Au4 Sn14 3.272340 1_555
Au4 Sn7 3.287120 1_445
Au5 Sn11 3.023998 1_555
Au5 Sn15 3.023998 1_555
Au5 Sn9 3.172306 1_555
Au5 Sn8 3.172306 1_555
Au5 Sn7 3.215785 1_555
Au5 Sn4 3.229448 1_555
Au5 Sn3 3.311684 1_456
Au5 Sn2 3.311684 1_546
Au5 Sn16 3.396569 1_455
Au5 Sn17 3.396569 1_545
Au5 Sn0 3.440007 1_445
Au6 Sn12 3.049010 1_556
Au6 Sn8 3.052144 1_546
Au6 Sn0 3.098551 1_545
Au6 Sn11 3.159999 1_555
Au6 Sn10 3.201676 1_545
Au6 Sn6 3.260155 1_555
Au6 Sn1 3.274243 1_546
Au6 Sn13 3.278071 1_555
Au6 Sn3 3.292425 1_556
Au6 Sn16 3.401762 1_555
Au7 Sn14 3.049010 1_556
Au7 Sn9 3.052144 1_456
Au7 Sn0 3.098551 1_455
Au7 Sn15 3.159999 1_555
Au7 Sn13 3.201676 1_455
Au7 Sn5 3.260155 1_555
Au7 Sn1 3.274243 1_456
Au7 Sn10 3.278071 1_555
Au7 Sn2 3.292425 1_556
Au7 Sn17 3.401762 1_555
