# generated using pymatgen
data_Ba2AlIn3
_symmetry_space_group_name_H-M   'P 1'
_cell_length_a   6.57056271
_cell_length_b   6.57056271
_cell_length_c   8.53622099
_cell_angle_alpha   49.95831794
_cell_angle_beta   49.95831794
_cell_angle_gamma   47.11318263
_symmetry_Int_Tables_number   1
_chemical_formula_structural   Ba2AlIn3
_chemical_formula_sum   'Ba2 Al1 In3'
_cell_volume   192.34724009
_cell_formula_units_Z   1
loop_
 _symmetry_equiv_pos_site_id
 _symmetry_equiv_pos_as_xyz
  1  'x, y, z'
loop_
 _atom_site_type_symbol
 _atom_site_label
 _atom_site_symmetry_multiplicity
 _atom_site_fract_x
 _atom_site_fract_y
 _atom_site_fract_z
 _atom_site_occupancy
  Ba  Ba0  1  0.74888400  0.74888400  0.80099800  1
  Ba  Ba1  1  0.24965000  0.24965000  0.19985900  1
  Al  Al0  1  0.57229300  0.57229300  0.58925000  1
  In  In0  1  0.43698500  0.43698500  0.41063600  1
  In  In1  1  0.06776300  0.06776300  0.76331500  1
  In  In2  1  0.92442400  0.92442400  0.23594300  1
loop_
_geom_bond_atom_site_label_1
_geom_bond_atom_site_label_2
_geom_bond_distance
_geom_bond_site_symmetry_2
Ba0 In0 3.540524 1_655
Ba0 In0 3.540524 1_565
Ba0 In1 3.569934 1_565
Ba0 In1 3.569934 1_655
Ba0 In1 3.622718 1_665
Ba0 In2 3.663375 1_555
Ba0 In0 3.708519 1_556
Ba0 In2 3.948105 1_456
Ba0 In2 3.948105 1_546
Ba1 In2 3.511865 1_545
Ba1 In2 3.511865 1_455
Ba1 In1 3.625237 1_555
Ba1 In2 3.707998 1_445
Ba1 In0 3.745516 1_555
Ba1 In0 3.847906 1_455
Ba1 In0 3.847906 1_545
Ba1 In1 3.927124 1_564
Ba1 In1 3.927124 1_654
Al0 In0 2.910258 1_555
Al0 In1 2.998764 1_655
Al0 In1 2.998764 1_565
Al0 In2 3.021851 1_555
Al0 Ba1 3.541269 1_655
Al0 Ba1 3.541269 1_565
Al0 Ba0 3.631709 1_555
Al0 Ba1 3.719961 1_556
Al0 Ba0 3.931380 1_545
Al0 Ba0 3.931380 1_455
In0 In2 3.075547 1_545
In0 In2 3.075547 1_455
In0 In1 3.170200 1_555
In1 In2 3.078975 1_446
