# generated using pymatgen
data_KDyH2S2O9
_symmetry_space_group_name_H-M   'P 1'
_cell_length_a   8.84003200
_cell_length_b   10.06818788
_cell_length_c   10.47855392
_cell_angle_alpha   118.77103625
_cell_angle_beta   90.00000000
_cell_angle_gamma   90.00000000
_symmetry_Int_Tables_number   1
_chemical_formula_structural   KDyH2S2O9
_chemical_formula_sum   'K4 Dy4 H8 S8 O36'
_cell_volume   817.49149824
_cell_formula_units_Z   4
loop_
 _symmetry_equiv_pos_site_id
 _symmetry_equiv_pos_as_xyz
  1  'x, y, z'
loop_
 _atom_site_type_symbol
 _atom_site_label
 _atom_site_symmetry_multiplicity
 _atom_site_fract_x
 _atom_site_fract_y
 _atom_site_fract_z
 _atom_site_occupancy
  K  K0  1  0.27101800  0.00927500  0.79102200  1
  K  K1  1  0.77101800  0.49072500  0.70897800  1
  K  K2  1  0.72898200  0.99072500  0.20897800  1
  K  K3  1  0.22898200  0.50927500  0.29102200  1
  Dy  Dy0  1  0.13213300  0.77389900  0.03330000  1
  Dy  Dy1  1  0.63213300  0.72610100  0.46670000  1
  Dy  Dy2  1  0.86786700  0.22610100  0.96670000  1
  Dy  Dy3  1  0.36786700  0.27389900  0.53330000  1
  H  H0  1  0.55776800  0.16008400  0.91798900  1
  H  H1  1  0.05776800  0.33991600  0.58201100  1
  H  H2  1  0.44223200  0.83991600  0.08201100  1
  H  H3  1  0.94223200  0.66008400  0.41798900  1
  H  H4  1  0.53442200  0.33179700  0.03523900  1
  H  H5  1  0.03442200  0.16820300  0.46476100  1
  H  H6  1  0.46557800  0.66820300  0.96476100  1
  H  H7  1  0.96557800  0.83179700  0.53523900  1
  S  S0  1  0.29892600  0.88530000  0.38891600  1
  S  S1  1  0.79892600  0.61470000  0.11108400  1
  S  S2  1  0.70107400  0.11470000  0.61108400  1
  S  S3  1  0.20107400  0.38530000  0.88891600  1
  S  S4  1  0.14096300  0.12475600  0.17592700  1
  S  S5  1  0.64096300  0.37524400  0.32407300  1
  S  S6  1  0.85903700  0.87524400  0.82407300  1
  S  S7  1  0.35903700  0.62475600  0.67592700  1
  O  O0  1  0.19693500  0.81183100  0.26038800  1
  O  O1  1  0.69693500  0.68816900  0.23961200  1
  O  O2  1  0.80306500  0.18816900  0.73961200  1
  O  O3  1  0.30306500  0.31183100  0.76038800  1
  O  O4  1  0.41611600  0.77158600  0.37314600  1
  O  O5  1  0.91611600  0.72841400  0.12685400  1
  O  O6  1  0.58388400  0.22841400  0.62685400  1
  O  O7  1  0.08388400  0.27158600  0.87314600  1
  O  O8  1  0.12301900  0.51771000  0.88694100  1
  O  O9  1  0.62301900  0.98229000  0.61305900  1
  O  O10  1  0.87698100  0.48229000  0.11305900  1
  O  O11  1  0.37698100  0.01771000  0.38694100  1
  O  O12  1  0.21256900  0.93523000  0.52336600  1
  O  O13  1  0.71256900  0.56477000  0.97663400  1
  O  O14  1  0.78743100  0.06477000  0.47663400  1
  O  O15  1  0.28743100  0.43523000  0.02336600  1
  O  O16  1  0.23241300  0.23440500  0.29962500  1
  O  O17  1  0.73241300  0.26559500  0.20037500  1
  O  O18  1  0.76758700  0.76559500  0.70037500  1
  O  O19  1  0.26758700  0.73440500  0.79962500  1
  O  O20  1  0.06142700  0.20845600  0.11065700  1
  O  O21  1  0.56142700  0.29154400  0.38934300  1
  O  O22  1  0.93857300  0.79154400  0.88934300  1
  O  O23  1  0.43857300  0.70845600  0.61065700  1
  O  O24  1  0.24053600  0.00393400  0.06183100  1
  O  O25  1  0.74053600  0.49606600  0.43816900  1
  O  O26  1  0.75946400  0.99606600  0.93816900  1
  O  O27  1  0.25946400  0.50393400  0.56183100  1
  O  O28  1  0.03084700  0.04059300  0.21823800  1
  O  O29  1  0.53084700  0.45940700  0.28176200  1
  O  O30  1  0.96915300  0.95940700  0.78176200  1
  O  O31  1  0.46915300  0.54059300  0.71823800  1
  O  O32  1  0.59874400  0.26155200  0.95464000  1
  O  O33  1  0.09874400  0.23844800  0.54536000  1
  O  O34  1  0.40125600  0.73844800  0.04536000  1
  O  O35  1  0.90125600  0.76155200  0.45464000  1
loop_
_geom_bond_atom_site_label_1
_geom_bond_atom_site_label_2
_geom_bond_distance
_geom_bond_site_symmetry_2
K0 O12 2.583811 1_545
K0 O30 2.708408 1_445
K0 O19 2.812106 1_545
K0 O7 2.874764 1_555
K0 O24 2.876605 1_556
K0 O23 3.070627 1_545
K0 O3 3.225500 1_555
K1 O13 2.583811 1_555
K1 O31 2.708408 1_555
K1 O18 2.812106 1_555
K1 O6 2.874764 1_555
K1 O25 2.876605 1_555
K1 O22 3.070627 1_555
K1 O2 3.225500 1_555
K2 O14 2.583811 1_565
K2 O28 2.708408 1_665
K2 O17 2.812106 1_565
K2 O5 2.874764 1_555
K2 O26 2.876605 1_554
K2 O21 3.070627 1_565
K2 O1 3.225500 1_555
K3 O15 2.583811 1_555
K3 O29 2.708408 1_555
K3 O16 2.812106 1_555
K3 O4 2.874764 1_555
K3 O27 2.876605 1_555
K3 O20 3.070627 1_555
K3 O0 3.225500 1_555
Dy0 O8 2.281159 1_554
Dy0 O5 2.291167 1_455
Dy0 O0 2.293794 1_555
Dy0 O22 2.343665 1_454
Dy0 O24 2.388553 1_565
Dy0 O34 2.417994 1_555
Dy0 O19 2.578799 1_554
Dy0 O28 2.599619 1_565
Dy1 O9 2.281159 1_555
Dy1 O4 2.291167 1_555
Dy1 O1 2.293794 1_555
Dy1 O23 2.343665 1_555
Dy1 O25 2.388553 1_555
Dy1 O35 2.417994 1_555
Dy1 O18 2.578799 1_555
Dy1 O29 2.599619 1_555
Dy2 O10 2.281159 1_556
Dy2 O7 2.291167 1_655
Dy2 O2 2.293794 1_555
Dy2 O20 2.343665 1_656
Dy2 O26 2.388553 1_545
Dy2 O32 2.417994 1_555
Dy2 O17 2.578799 1_556
Dy2 O30 2.599619 1_545
Dy3 O11 2.281159 1_555
Dy3 O6 2.291167 1_555
Dy3 O3 2.293794 1_555
Dy3 O21 2.343665 1_555
Dy3 O27 2.388553 1_555
Dy3 O33 2.417994 1_555
Dy3 O16 2.578799 1_555
Dy3 O31 2.599619 1_555
H0 O32 0.971951 1_555
H0 K0 2.925155 1_555
H1 O33 0.971951 1_555
H1 K1 2.925155 1_455
H2 O34 0.971951 1_555
H2 K2 2.925155 1_555
H3 O35 0.971951 1_555
H3 K3 2.925155 1_655
H4 O32 0.980717 1_554
H5 O33 0.980717 1_555
H6 O34 0.980717 1_556
H7 O35 0.980717 1_555
O0 S0 1.488254 1_555
O1 S1 1.488254 1_555
O2 S2 1.488254 1_555
O3 S3 1.488254 1_555
O4 S0 1.493047 1_555
O5 S1 1.493047 1_555
O6 S2 1.493047 1_555
O7 S3 1.493047 1_555
O8 S3 1.510076 1_555
O9 S2 1.510076 1_565
O10 S1 1.510076 1_555
O11 S0 1.510076 1_545
O12 S0 1.462384 1_555
O13 S1 1.462384 1_556
O14 S2 1.462384 1_555
O15 S3 1.462384 1_554
O16 S4 1.474758 1_555
O17 S5 1.474758 1_555
O18 S6 1.474758 1_555
O19 S7 1.474758 1_555
O20 S4 1.492343 1_555
O21 S5 1.492343 1_555
O22 S6 1.492343 1_555
O23 S7 1.492343 1_555
O24 S4 1.511275 1_555
O25 S5 1.511275 1_555
O26 S6 1.511275 1_555
O27 S7 1.511275 1_555
O28 S4 1.491244 1_555
O29 S5 1.491244 1_555
O30 S6 1.491244 1_555
O31 S7 1.491244 1_555
