# generated using pymatgen
data_Mg30CrBO32
_symmetry_space_group_name_H-M   'P 1'
_cell_length_a   8.53535200
_cell_length_b   8.53535200
_cell_length_c   8.52733200
_cell_angle_alpha   90.00000000
_cell_angle_beta   90.00000000
_cell_angle_gamma   90.00000000
_symmetry_Int_Tables_number   1
_chemical_formula_structural   Mg30CrBO32
_chemical_formula_sum   'Mg30 Cr1 B1 O32'
_cell_volume   621.23518425
_cell_formula_units_Z   1
loop_
 _symmetry_equiv_pos_site_id
 _symmetry_equiv_pos_as_xyz
  1  'x, y, z'
loop_
 _atom_site_type_symbol
 _atom_site_label
 _atom_site_symmetry_multiplicity
 _atom_site_fract_x
 _atom_site_fract_y
 _atom_site_fract_z
 _atom_site_occupancy
  Mg  Mg0  1  0.50000000  0.00000000  0.00000000  1
  Mg  Mg1  1  0.00000000  0.50000000  0.00000000  1
  Mg  Mg2  1  0.00000000  0.00000000  0.50000000  1
  Mg  Mg3  1  0.50000000  0.00000000  0.50000000  1
  Mg  Mg4  1  0.00000000  0.50000000  0.50000000  1
  Mg  Mg5  1  0.50000000  0.50000000  0.50000000  1
  Mg  Mg6  1  0.25486300  0.25486300  0.00000000  1
  Mg  Mg7  1  0.74513700  0.25486300  0.00000000  1
  Mg  Mg8  1  0.25486300  0.74513700  0.00000000  1
  Mg  Mg9  1  0.74513700  0.74513700  0.00000000  1
  Mg  Mg10  1  0.25131000  0.25131000  0.50000000  1
  Mg  Mg11  1  0.74869000  0.25131000  0.50000000  1
  Mg  Mg12  1  0.25131000  0.74869000  0.50000000  1
  Mg  Mg13  1  0.74869000  0.74869000  0.50000000  1
  Mg  Mg14  1  0.25248300  0.00000000  0.25081200  1
  Mg  Mg15  1  0.74751700  0.00000000  0.25081200  1
  Mg  Mg16  1  0.25310200  0.50000000  0.24788900  1
  Mg  Mg17  1  0.74689800  0.50000000  0.24788900  1
  Mg  Mg18  1  0.25248300  0.00000000  0.74918800  1
  Mg  Mg19  1  0.74751700  0.00000000  0.74918800  1
  Mg  Mg20  1  0.25310200  0.50000000  0.75211100  1
  Mg  Mg21  1  0.74689800  0.50000000  0.75211100  1
  Mg  Mg22  1  0.00000000  0.25248300  0.25081200  1
  Mg  Mg23  1  0.50000000  0.25310200  0.24788900  1
  Mg  Mg24  1  0.00000000  0.74751700  0.25081200  1
  Mg  Mg25  1  0.50000000  0.74689800  0.24788900  1
  Mg  Mg26  1  0.00000000  0.25248300  0.74918800  1
  Mg  Mg27  1  0.50000000  0.25310200  0.75211100  1
  Mg  Mg28  1  0.00000000  0.74751700  0.74918800  1
  Mg  Mg29  1  0.50000000  0.74689800  0.75211100  1
  Cr  Cr0  1  0.00000000  0.00000000  0.00000000  1
  B  B0  1  0.50000000  0.50000000  0.00000000  1
  O  O0  1  0.00000000  0.00000000  0.24316700  1
  O  O1  1  0.50000000  0.00000000  0.25050000  1
  O  O2  1  0.00000000  0.50000000  0.25050000  1
  O  O3  1  0.50000000  0.50000000  0.26402200  1
  O  O4  1  0.00000000  0.00000000  0.75683300  1
  O  O5  1  0.50000000  0.00000000  0.74950000  1
  O  O6  1  0.00000000  0.50000000  0.74950000  1
  O  O7  1  0.50000000  0.50000000  0.73597800  1
  O  O8  1  0.24955600  0.24955600  0.24904400  1
  O  O9  1  0.75044400  0.24955600  0.24904400  1
  O  O10  1  0.24955600  0.75044400  0.24904400  1
  O  O11  1  0.75044400  0.75044400  0.24904400  1
  O  O12  1  0.24955600  0.24955600  0.75095600  1
  O  O13  1  0.75044400  0.24955600  0.75095600  1
  O  O14  1  0.24955600  0.75044400  0.75095600  1
  O  O15  1  0.75044400  0.75044400  0.75095600  1
  O  O16  1  0.24064400  0.00000000  0.00000000  1
  O  O17  1  0.75935600  0.00000000  0.00000000  1
  O  O18  1  0.23358300  0.50000000  0.00000000  1
  O  O19  1  0.76641700  0.50000000  0.00000000  1
  O  O20  1  0.24715500  0.00000000  0.50000000  1
  O  O21  1  0.75284500  0.00000000  0.50000000  1
  O  O22  1  0.24709900  0.50000000  0.50000000  1
  O  O23  1  0.75290100  0.50000000  0.50000000  1
  O  O24  1  0.00000000  0.24064400  0.00000000  1
  O  O25  1  0.50000000  0.23358300  0.00000000  1
  O  O26  1  0.00000000  0.75935600  0.00000000  1
  O  O27  1  0.50000000  0.76641700  0.00000000  1
  O  O28  1  0.00000000  0.24715500  0.50000000  1
  O  O29  1  0.50000000  0.24709900  0.50000000  1
  O  O30  1  0.00000000  0.75284500  0.50000000  1
  O  O31  1  0.50000000  0.75290100  0.50000000  1
loop_
_geom_bond_atom_site_label_1
_geom_bond_atom_site_label_2
_geom_bond_distance
_geom_bond_site_symmetry_2
Mg0 O27 1.993713 1_545
Mg0 O25 1.993713 1_555
Mg0 O5 2.136097 1_554
Mg0 O1 2.136097 1_555
Mg0 O16 2.213695 1_555
Mg0 O17 2.213695 1_555
Mg1 O19 1.993713 1_455
Mg1 O18 1.993713 1_555
Mg1 O6 2.136097 1_554
Mg1 O2 2.136097 1_555
Mg1 O24 2.213695 1_555
Mg1 O26 2.213695 1_555
Mg2 O21 2.109555 1_455
Mg2 O20 2.109555 1_555
Mg2 O28 2.109555 1_555
Mg2 O30 2.109555 1_545
Mg2 O4 2.190100 1_555
Mg2 O0 2.190100 1_555
Mg3 O31 2.109077 1_545
Mg3 O29 2.109077 1_555
Mg3 O1 2.127569 1_555
Mg3 O5 2.127569 1_555
Mg3 O21 2.158121 1_555
Mg3 O20 2.158121 1_555
Mg4 O23 2.109077 1_455
Mg4 O22 2.109077 1_555
Mg4 O2 2.127569 1_555
Mg4 O6 2.127569 1_555
Mg4 O28 2.158121 1_555
Mg4 O30 2.158121 1_555
Mg5 O3 2.012263 1_555
Mg5 O7 2.012263 1_555
Mg5 O22 2.158599 1_555
Mg5 O29 2.158599 1_555
Mg5 O31 2.158599 1_555
Mg5 O23 2.158599 1_555
Mg6 O25 2.100199 1_555
Mg6 O18 2.100199 1_555
Mg6 O8 2.124647 1_555
Mg6 O12 2.124647 1_554
Mg6 O24 2.178728 1_555
Mg6 O16 2.178728 1_555
Mg7 O19 2.100199 1_555
Mg7 O25 2.100199 1_555
Mg7 O9 2.124647 1_555
Mg7 O13 2.124647 1_554
Mg7 O24 2.178728 1_655
Mg7 O17 2.178728 1_555
Mg8 O27 2.100199 1_555
Mg8 O18 2.100199 1_555
Mg8 O10 2.124647 1_555
Mg8 O14 2.124647 1_554
Mg8 O16 2.178728 1_565
Mg8 O26 2.178728 1_555
Mg9 O19 2.100199 1_555
Mg9 O27 2.100199 1_555
Mg9 O11 2.124647 1_555
Mg9 O15 2.124647 1_554
Mg9 O17 2.178728 1_565
Mg9 O26 2.178728 1_655
Mg10 O22 2.122961 1_555
Mg10 O29 2.122961 1_555
Mg10 O12 2.140090 1_555
Mg10 O8 2.140090 1_555
Mg10 O20 2.145312 1_555
Mg10 O28 2.145312 1_555
Mg11 O23 2.122961 1_555
Mg11 O29 2.122961 1_555
Mg11 O13 2.140090 1_555
Mg11 O9 2.140090 1_555
Mg11 O21 2.145312 1_555
Mg11 O28 2.145312 1_655
Mg12 O22 2.122961 1_555
Mg12 O31 2.122961 1_555
Mg12 O14 2.140090 1_555
Mg12 O10 2.140090 1_555
Mg12 O30 2.145312 1_555
Mg12 O20 2.145312 1_565
Mg13 O23 2.122961 1_555
Mg13 O31 2.122961 1_555
Mg13 O15 2.140090 1_555
Mg13 O11 2.140090 1_555
Mg13 O30 2.145312 1_655
Mg13 O21 2.145312 1_565
Mg14 O1 2.112646 1_555
Mg14 O20 2.125395 1_555
Mg14 O8 2.130248 1_555
Mg14 O10 2.130248 1_545
Mg14 O16 2.141143 1_555
Mg14 O0 2.156017 1_555
Mg15 O1 2.112646 1_555
Mg15 O21 2.125395 1_555
Mg15 O9 2.130248 1_555
Mg15 O11 2.130248 1_545
Mg15 O17 2.141143 1_555
Mg15 O0 2.156017 1_655
Mg16 O3 2.111847 1_555
Mg16 O18 2.120387 1_555
Mg16 O10 2.137865 1_555
Mg16 O8 2.137865 1_555
Mg16 O22 2.150445 1_555
Mg16 O2 2.160429 1_555
Mg17 O3 2.111847 1_555
Mg17 O19 2.120387 1_555
Mg17 O11 2.137865 1_555
Mg17 O9 2.137865 1_555
Mg17 O23 2.150445 1_555
Mg17 O2 2.160429 1_655
Mg18 O5 2.112646 1_555
Mg18 O20 2.125395 1_555
Mg18 O14 2.130248 1_545
Mg18 O12 2.130248 1_555
Mg18 O16 2.141143 1_556
Mg18 O4 2.156017 1_555
Mg19 O5 2.112646 1_555
Mg19 O21 2.125395 1_555
Mg19 O15 2.130248 1_545
Mg19 O13 2.130248 1_555
Mg19 O17 2.141143 1_556
Mg19 O4 2.156017 1_655
Mg20 O7 2.111847 1_555
Mg20 O18 2.120387 1_556
Mg20 O12 2.137865 1_555
Mg20 O14 2.137865 1_555
Mg20 O22 2.150445 1_555
Mg20 O6 2.160429 1_555
Mg21 O7 2.111847 1_555
Mg21 O19 2.120387 1_556
Mg21 O13 2.137865 1_555
Mg21 O15 2.137865 1_555
Mg21 O23 2.150445 1_555
Mg21 O6 2.160429 1_655
Mg22 O2 2.112646 1_555
Mg22 O28 2.125395 1_555
Mg22 O8 2.130248 1_555
Mg22 O9 2.130248 1_455
Mg22 O24 2.141143 1_555
Mg22 O0 2.156017 1_555
Mg23 O3 2.111847 1_555
Mg23 O25 2.120387 1_555
Mg23 O8 2.137865 1_555
Mg23 O9 2.137865 1_555
Mg23 O29 2.150445 1_555
Mg23 O1 2.160429 1_555
Mg24 O2 2.112646 1_555
Mg24 O30 2.125395 1_555
Mg24 O10 2.130248 1_555
Mg24 O11 2.130248 1_455
Mg24 O26 2.141143 1_555
Mg24 O0 2.156017 1_565
Mg25 O3 2.111847 1_555
Mg25 O27 2.120387 1_555
Mg25 O10 2.137865 1_555
Mg25 O11 2.137865 1_555
Mg25 O31 2.150445 1_555
Mg25 O1 2.160429 1_565
Mg26 O6 2.112646 1_555
Mg26 O28 2.125395 1_555
Mg26 O13 2.130248 1_455
Mg26 O12 2.130248 1_555
Mg26 O24 2.141143 1_556
Mg26 O4 2.156017 1_555
Mg27 O7 2.111847 1_555
Mg27 O25 2.120387 1_556
Mg27 O13 2.137865 1_555
Mg27 O12 2.137865 1_555
Mg27 O29 2.150445 1_555
Mg27 O5 2.160429 1_555
Mg28 O6 2.112646 1_555
Mg28 O30 2.125395 1_555
Mg28 O14 2.130248 1_555
Mg28 O15 2.130248 1_455
Mg28 O26 2.141143 1_556
Mg28 O4 2.156017 1_565
Mg29 O7 2.111847 1_555
Mg29 O27 2.120387 1_556
Mg29 O14 2.137865 1_555
Mg29 O15 2.137865 1_555
Mg29 O31 2.150445 1_555
Mg29 O5 2.160429 1_565
Cr0 O26 2.053981 1_545
Cr0 O17 2.053981 1_455
Cr0 O24 2.053981 1_555
Cr0 O16 2.053981 1_555
Cr0 O0 2.073566 1_555
Cr0 O4 2.073566 1_554
B0 O3 2.251403 1_555
B0 O7 2.251403 1_554
B0 O19 2.273963 1_555
B0 O27 2.273963 1_555
B0 O25 2.273963 1_555
B0 O18 2.273963 1_555
