# generated using pymatgen
data_Cs13Nb2(In3As5)2
_symmetry_space_group_name_H-M   'P 1'
_cell_length_a   9.92223800
_cell_length_b   9.97488215
_cell_length_c   14.26385830
_cell_angle_alpha   83.22926099
_cell_angle_beta   80.51304732
_cell_angle_gamma   64.61675650
_symmetry_Int_Tables_number   1
_chemical_formula_structural   Cs13Nb2(In3As5)2
_chemical_formula_sum   'Cs13 Nb2 In6 As10'
_cell_volume   1256.23749343
_cell_formula_units_Z   1
loop_
 _symmetry_equiv_pos_site_id
 _symmetry_equiv_pos_as_xyz
  1  'x, y, z'
loop_
 _atom_site_type_symbol
 _atom_site_label
 _atom_site_symmetry_multiplicity
 _atom_site_fract_x
 _atom_site_fract_y
 _atom_site_fract_z
 _atom_site_occupancy
  Cs  Cs0  1  0.49573800  0.86573100  0.35464100  1
  Cs  Cs1  1  0.50426200  0.13426900  0.64535900  1
  Cs  Cs2  1  0.85247100  0.58316900  0.88017800  1
  Cs  Cs3  1  0.14752900  0.41683100  0.11982200  1
  Cs  Cs4  1  0.08928700  0.77555400  0.43067600  1
  Cs  Cs5  1  0.91071300  0.22444600  0.56932400  1
  Cs  Cs6  1  0.74551500  0.68358100  0.59181300  1
  Cs  Cs7  1  0.25448500  0.31641900  0.40818700  1
  Cs  Cs8  1  0.50000000  0.50000000  0.00000000  1
  Cs  Cs9  1  0.31225800  0.92688300  0.08507400  1
  Cs  Cs10  1  0.68774200  0.07311700  0.91492600  1
  Cs  Cs11  1  0.89188700  0.85852100  0.17124900  1
  Cs  Cs12  1  0.10811300  0.14147900  0.82875100  1
  Nb  Nb0  1  0.37741100  0.74043400  0.77477600  1
  Nb  Nb1  1  0.62258900  0.25956600  0.22522400  1
  In  In0  1  0.03405300  0.80445500  0.70656600  1
  In  In1  1  0.96594700  0.19554500  0.29343400  1
  In  In2  1  0.60666600  0.44506400  0.41013300  1
  In  In3  1  0.39333400  0.55493600  0.58986700  1
  In  In4  1  0.72218400  0.55776000  0.17418100  1
  In  In5  1  0.27781600  0.44224000  0.82581900  1
  As  As0  1  0.44264900  0.53561000  0.25366300  1
  As  As1  1  0.55735100  0.46439000  0.74633700  1
  As  As2  1  0.14753800  0.74451600  0.88685700  1
  As  As3  1  0.85246200  0.25548400  0.11314300  1
  As  As4  1  0.71034100  0.13686700  0.38385500  1
  As  As5  1  0.28965900  0.86313300  0.61614500  1
  As  As6  1  0.85929000  0.50842700  0.34855800  1
  As  As7  1  0.14071000  0.49157300  0.65144200  1
  As  As8  1  0.49954600  0.86661100  0.84049800  1
  As  As9  1  0.50045400  0.13338900  0.15950200  1
loop_
_geom_bond_atom_site_label_1
_geom_bond_atom_site_label_2
_geom_bond_distance
_geom_bond_site_symmetry_2
Cs0 In2 3.871651 1_555
Cs0 In4 3.892497 1_555
Cs1 In3 3.871651 1_555
Cs1 In5 3.892497 1_555
Cs2 Cs8 4.002898 1_556
Cs3 Cs8 4.002898 1_555
Cs4 In3 3.806323 1_555
Cs4 In0 3.910345 1_555
Cs4 In1 4.164259 1_465
Cs5 In2 3.806323 1_555
Cs5 In1 3.910345 1_555
Cs5 In0 4.164259 1_645
Cs8 Nb1 3.810816 1_555
Cs8 Nb0 3.810816 1_554
Cs8 In4 3.820573 1_555
Cs8 In5 3.820573 1_554
Cs8 Cs9 4.092288 1_555
Cs10 Cs8 4.092288 1_556
Cs11 In4 4.014414 1_555
Cs12 In5 4.014414 1_555
As0 Nb1 2.596892 1_555
As0 In2 2.811992 1_555
As0 In4 2.908061 1_555
As0 Cs8 3.604509 1_555
As0 Cs7 3.759128 1_555
As0 Cs4 3.963421 1_555
As0 Cs0 4.006362 1_555
As0 Cs9 4.143991 1_555
As0 Cs3 4.355878 1_555
As1 Nb0 2.596892 1_555
As1 In3 2.811992 1_555
As1 In5 2.908061 1_555
As1 Cs8 3.604509 1_556
As1 Cs6 3.759128 1_555
As1 Cs5 3.963421 1_555
As1 Cs1 4.006362 1_555
As1 Cs10 4.143991 1_555
As1 Cs2 4.355878 1_555
As2 Nb0 2.548239 1_555
As2 In0 2.872906 1_555
As2 In5 2.902868 1_555
As2 Cs8 3.795167 1_556
As2 Cs12 3.811026 1_565
As3 Nb1 2.548239 1_555
As3 In1 2.872906 1_555
As3 In4 2.902868 1_555
As3 Cs8 3.795167 1_555
As3 Cs11 3.811026 1_545
As4 Nb1 2.541388 1_555
As4 In2 2.843044 1_555
As4 In1 2.907690 1_555
As4 Cs5 3.934761 1_555
As4 Cs1 3.950120 1_555
As4 Cs11 4.005854 1_545
As4 Cs4 4.026782 1_645
As4 Cs7 4.058389 1_555
As4 Cs0 4.185441 1_545
As5 Nb0 2.541388 1_555
As5 In3 2.843044 1_555
As5 In0 2.907690 1_555
As5 Cs4 3.934761 1_555
As5 Cs0 3.950120 1_555
As5 Cs12 4.005854 1_565
As5 Cs5 4.026782 1_465
As5 Cs6 4.058389 1_555
As5 Cs1 4.185441 1_565
As6 In2 2.820556 1_555
As6 In4 2.921014 1_555
As6 In1 2.991864 1_555
As6 Cs7 3.747551 1_655
As6 Cs0 3.830103 1_555
As6 Cs6 3.848809 1_555
As6 Cs3 3.878895 1_655
As6 Cs5 3.922711 1_555
As6 Cs11 4.160801 1_555
As7 In3 2.820556 1_555
As7 In5 2.921014 1_555
As7 In0 2.991864 1_555
As7 Cs6 3.747551 1_455
As7 Cs1 3.830103 1_555
As7 Cs7 3.848809 1_555
As7 Cs2 3.878895 1_455
As7 Cs4 3.922711 1_555
As7 Cs12 4.160801 1_555
As8 Nb0 2.427308 1_555
As8 Cs2 3.516305 1_555
As8 Cs1 3.631768 1_565
As8 Cs10 3.650192 1_565
As8 Cs9 3.658515 1_556
As8 Cs12 3.688712 1_565
As8 Cs8 4.071434 1_556
As9 Nb1 2.427308 1_555
As9 Cs3 3.516305 1_555
As9 Cs0 3.631768 1_545
As9 Cs9 3.650192 1_545
As9 Cs10 3.658515 1_554
As9 Cs11 3.688712 1_545
As9 Cs8 4.071434 1_555
