# generated using pymatgen
data_H2W2O7
_symmetry_space_group_name_H-M   'P 1'
_cell_length_a   7.13270032
_cell_length_b   7.13270032
_cell_length_c   7.13270032
_cell_angle_alpha   119.45316094
_cell_angle_beta   115.86484535
_cell_angle_gamma   94.13107155
_symmetry_Int_Tables_number   1
_chemical_formula_structural   H2W2O7
_chemical_formula_sum   'H4 W4 O14'
_cell_volume   264.63073935
_cell_formula_units_Z   2
loop_
 _symmetry_equiv_pos_site_id
 _symmetry_equiv_pos_as_xyz
  1  'x, y, z'
loop_
 _atom_site_type_symbol
 _atom_site_label
 _atom_site_symmetry_multiplicity
 _atom_site_fract_x
 _atom_site_fract_y
 _atom_site_fract_z
 _atom_site_occupancy
  H  H0  1  0.98454400  0.57166900  0.91287400  1
  H  H1  1  0.44626100  0.19271500  0.75354500  1
  H  H2  1  0.34120500  0.42833100  0.41287400  1
  H  H3  1  0.56083000  0.80728500  0.25354500  1
  W  W0  1  0.99182900  0.50000000  0.49182900  1
  W  W1  1  0.00916500  0.98513000  0.52403500  1
  W  W2  1  0.53890400  0.01487000  0.02403500  1
  W  W3  1  0.99182900  0.00000000  0.99182900  1
  O  O0  1  0.29649200  0.04037000  0.08643200  1
  O  O1  1  0.00236700  0.66817600  0.33004600  1
  O  O2  1  0.00236700  0.17232100  0.83419100  1
  O  O3  1  0.29649200  0.71006000  0.75612200  1
  O  O4  1  0.97102600  0.64554900  0.82547700  1
  O  O5  1  0.35743100  0.09250800  0.76492200  1
  O  O6  1  0.66187000  0.82767900  0.83004600  1
  O  O7  1  0.04606300  0.28994000  0.58643200  1
  O  O8  1  0.04606300  0.95963000  0.25612200  1
  O  O9  1  0.66187000  0.33182400  0.33419100  1
  O  O10  1  0.17992800  0.35445100  0.32547700  1
  O  O11  1  0.67241400  0.90749200  0.26492200  1
  O  O12  1  0.88031300  0.78408500  0.59622800  1
  O  O13  1  0.81214200  0.21591500  0.09622800  1
loop_
_geom_bond_atom_site_label_1
_geom_bond_atom_site_label_2
_geom_bond_distance
_geom_bond_site_symmetry_2
H0 O4 0.976481 1_555
H1 O5 0.977521 1_555
H2 O10 0.976482 1_555
H3 O11 0.977521 1_555
O0 W3 1.923502 1_454
O0 W2 1.964153 1_555
O1 W1 1.969069 1_555
O1 W0 2.049421 1_455
O2 W1 1.969069 1_545
O2 W3 2.049421 1_455
O3 W0 1.923502 1_455
O3 W2 1.964158 1_566
O4 W3 2.159610 1_565
O4 W0 2.159610 1_555
O5 W1 2.101719 1_545
O5 W2 2.102471 1_556
O6 W2 1.969075 1_566
O6 W3 2.049421 1_565
O7 W0 1.923503 1_455
O7 W1 1.964160 1_545
O8 W3 1.923501 1_464
O8 W1 1.964164 1_555
O9 W2 1.969068 1_555
O9 W0 2.049421 1_555
O10 W3 2.159610 1_454
O10 W0 2.159610 1_455
O11 W2 2.101714 1_565
O11 W1 2.102474 1_655
O12 W1 2.028637 1_655
O12 W0 2.134988 1_555
O12 W3 2.134988 1_565
O13 W2 2.028637 1_555
O13 W0 2.134988 1_555
O13 W3 2.134994 1_554
