# generated using pymatgen
data_Li9Mn2Co5O16
_symmetry_space_group_name_H-M   'P 1'
_cell_length_a   10.68103943
_cell_length_b   10.68103943
_cell_length_c   9.79520487
_cell_angle_alpha   72.43873202
_cell_angle_beta   72.43873202
_cell_angle_gamma   15.69212065
_symmetry_Int_Tables_number   1
_chemical_formula_structural   Li9Mn2Co5O16
_chemical_formula_sum   'Li9 Mn2 Co5 O16'
_cell_volume   287.88295428
_cell_formula_units_Z   1
loop_
 _symmetry_equiv_pos_site_id
 _symmetry_equiv_pos_as_xyz
  1  'x, y, z'
loop_
 _atom_site_type_symbol
 _atom_site_label
 _atom_site_symmetry_multiplicity
 _atom_site_fract_x
 _atom_site_fract_y
 _atom_site_fract_z
 _atom_site_occupancy
  Li  Li0  1  0.68414900  0.68414900  0.57160800  1
  Li  Li1  1  0.55684700  0.55684700  0.17599000  1
  Li  Li2  1  0.44315300  0.44315300  0.82401000  1
  Li  Li3  1  0.05968100  0.05968100  0.69306300  1
  Li  Li4  1  0.94031900  0.94031900  0.30693700  1
  Li  Li5  1  0.81711600  0.81711600  0.93550800  1
  Li  Li6  1  0.31585100  0.31585100  0.42839200  1
  Li  Li7  1  0.18288400  0.18288400  0.06449200  1
  Li  Li8  1  0.00000000  0.00000000  0.00000000  1
  Mn  Mn0  1  0.24857000  0.24857000  0.75171800  1
  Mn  Mn1  1  0.75143000  0.75143000  0.24828200  1
  Co  Co0  1  0.12284300  0.12284300  0.37553500  1
  Co  Co1  1  0.87715700  0.87715700  0.62446500  1
  Co  Co2  1  0.61365500  0.61365500  0.88016700  1
  Co  Co3  1  0.50000000  0.50000000  0.50000000  1
  Co  Co4  1  0.38634500  0.38634500  0.11983300  1
  O  O0  1  0.77824500  0.77824500  0.61141200  1
  O  O1  1  0.66092700  0.66092700  0.23079800  1
  O  O2  1  0.53730700  0.53730700  0.83961800  1
  O  O3  1  0.16324700  0.16324700  0.72832900  1
  O  O4  1  0.03193400  0.03193400  0.35336500  1
  O  O5  1  0.90239500  0.90239500  0.97706800  1
  O  O6  1  0.40435000  0.40435000  0.48168600  1
  O  O7  1  0.27630700  0.27630700  0.11209200  1
  O  O8  1  0.59565000  0.59565000  0.51831400  1
  O  O9  1  0.46269300  0.46269300  0.16038200  1
  O  O10  1  0.33907300  0.33907300  0.76920200  1
  O  O11  1  0.96806600  0.96806600  0.64663500  1
  O  O12  1  0.83675300  0.83675300  0.27167100  1
  O  O13  1  0.72369300  0.72369300  0.88790800  1
  O  O14  1  0.22175500  0.22175500  0.38858800  1
  O  O15  1  0.09760500  0.09760500  0.02293200  1
loop_
_geom_bond_atom_site_label_1
_geom_bond_atom_site_label_2
_geom_bond_distance
_geom_bond_site_symmetry_2
Li0 O3 2.065097 1_655
Li0 O3 2.065097 1_565
Li0 O8 2.091776 1_555
Li0 O0 2.142450 1_555
Li0 O14 2.259232 1_655
Li0 O14 2.259232 1_565
Li1 O9 2.044254 1_555
Li1 O15 2.080857 1_565
Li1 O15 2.080857 1_655
Li1 O4 2.205594 1_655
Li1 O4 2.205594 1_565
Li1 O1 2.420690 1_555
Li2 O2 2.044254 1_555
Li2 O5 2.080857 1_455
Li2 O5 2.080857 1_545
Li2 O11 2.205594 1_455
Li2 O11 2.205594 1_545
Li2 O10 2.420690 1_555
Li3 O2 1.999233 1_455
Li3 O2 1.999233 1_545
Li3 O11 2.121961 1_445
Li3 O8 2.200380 1_455
Li3 O8 2.200380 1_545
Li3 O3 2.320332 1_555
Li4 O9 1.999233 1_565
Li4 O9 1.999233 1_655
Li4 O4 2.121961 1_665
Li4 O6 2.200380 1_565
Li4 O6 2.200380 1_655
Li4 O12 2.320332 1_555
Li5 O5 1.967263 1_555
Li5 O10 2.129435 1_655
Li5 O10 2.129435 1_565
Li5 O13 2.165072 1_555
Li5 O7 2.225689 1_656
Li5 O7 2.225689 1_566
Li6 O12 2.065097 1_545
Li6 O12 2.065097 1_455
Li6 O6 2.091776 1_555
Li6 O14 2.142450 1_555
Li6 O0 2.259232 1_455
Li6 O0 2.259232 1_545
Li7 O15 1.967263 1_555
Li7 O1 2.129435 1_455
Li7 O1 2.129435 1_545
Li7 O7 2.165072 1_555
Li7 O13 2.225689 1_544
Li7 O13 2.225689 1_454
Li8 O2 2.112290 1_544
Li8 O2 2.112290 1_454
Li8 O9 2.112290 1_455
Li8 O9 2.112290 1_545
Li8 O15 2.144640 1_555
Li8 O5 2.144640 1_444
Mn0 O3 1.888045 1_555
Mn0 O13 1.937770 1_455
Mn0 O13 1.937770 1_545
Mn0 O0 1.970642 1_545
Mn0 O0 1.970642 1_455
Mn0 O10 1.974146 1_555
Mn1 O12 1.888045 1_555
Mn1 O7 1.937770 1_565
Mn1 O7 1.937770 1_655
Mn1 O14 1.970642 1_655
Mn1 O14 1.970642 1_565
Mn1 O1 1.974146 1_555
Co0 O8 1.980623 1_545
Co0 O8 1.980623 1_455
Co0 O4 2.000688 1_555
Co0 O1 2.022250 1_545
Co0 O1 2.022250 1_455
Co0 O14 2.135603 1_555
Co1 O6 1.980623 1_565
Co1 O6 1.980623 1_655
Co1 O11 2.000688 1_555
Co1 O10 2.022250 1_655
Co1 O10 2.022250 1_565
Co1 O0 2.135603 1_555
Co2 O2 1.777386 1_555
Co2 O15 1.976769 1_566
Co2 O15 1.976769 1_656
Co2 O3 2.118638 1_565
Co2 O3 2.118638 1_655
Co2 O13 2.352838 1_555
Co3 O4 2.013569 1_565
Co3 O4 2.013569 1_655
Co3 O11 2.013569 1_455
Co3 O11 2.013569 1_545
Co3 O8 2.085803 1_555
Co3 O6 2.085803 1_555
Co4 O9 1.777386 1_555
Co4 O5 1.976769 1_454
Co4 O5 1.976769 1_544
Co4 O12 2.118638 1_455
Co4 O12 2.118638 1_545
Co4 O7 2.352838 1_555
