# generated using pymatgen
data_Ba2YSn3O7
_symmetry_space_group_name_H-M   'P 1'
_cell_length_a   4.19073600
_cell_length_b   4.38340900
_cell_length_c   11.99730200
_cell_angle_alpha   90.00000000
_cell_angle_beta   90.00000000
_cell_angle_gamma   90.00000000
_symmetry_Int_Tables_number   1
_chemical_formula_structural   Ba2YSn3O7
_chemical_formula_sum   'Ba2 Y1 Sn3 O7'
_cell_volume   220.38695731
_cell_formula_units_Z   1
loop_
 _symmetry_equiv_pos_site_id
 _symmetry_equiv_pos_as_xyz
  1  'x, y, z'
loop_
 _atom_site_type_symbol
 _atom_site_label
 _atom_site_symmetry_multiplicity
 _atom_site_fract_x
 _atom_site_fract_y
 _atom_site_fract_z
 _atom_site_occupancy
  Ba  Ba0  1  0.50000000  0.50000000  0.32722300  1
  Ba  Ba1  1  0.50000000  0.50000000  0.67277700  1
  Y  Y0  1  0.50000000  0.50000000  0.00000000  1
  Sn  Sn0  1  0.00000000  0.00000000  0.13235600  1
  Sn  Sn1  1  0.00000000  0.00000000  0.86764400  1
  Sn  Sn2  1  0.00000000  0.00000000  0.50000000  1
  O  O0  1  0.00000000  0.50000000  0.50000000  1
  O  O1  1  0.50000000  0.00000000  0.12161600  1
  O  O2  1  0.50000000  0.00000000  0.87838400  1
  O  O3  1  0.00000000  0.50000000  0.12325600  1
  O  O4  1  0.00000000  0.50000000  0.87674400  1
  O  O5  1  0.00000000  0.00000000  0.30542700  1
  O  O6  1  0.00000000  0.00000000  0.69457300  1
loop_
_geom_bond_atom_site_label_1
_geom_bond_atom_site_label_2
_geom_bond_distance
_geom_bond_site_symmetry_2
Ba0 O0 2.947424 1_555
Ba0 O0 2.947424 1_655
Ba0 O5 3.043438 1_655
Ba0 O5 3.043438 1_565
Ba0 O5 3.043438 1_665
Ba0 O5 3.043438 1_555
Ba0 O3 3.221589 1_555
Ba0 O3 3.221589 1_655
Ba0 O1 3.299746 1_555
Ba0 O1 3.299746 1_565
Ba1 O0 2.947424 1_655
Ba1 O0 2.947424 1_555
Ba1 O6 3.043438 1_555
Ba1 O6 3.043438 1_655
Ba1 O6 3.043438 1_565
Ba1 O6 3.043438 1_665
Ba1 O4 3.221589 1_655
Ba1 O4 3.221589 1_555
Ba1 O2 3.299746 1_555
Ba1 O2 3.299746 1_565
O0 Sn2 2.191705 1_555
O0 Sn2 2.191705 1_565
O1 Sn0 2.099326 1_655
O1 Sn0 2.099326 1_555
O1 Y0 2.632952 1_555
O1 Y0 2.632952 1_545
O2 Sn1 2.099326 1_555
O2 Sn1 2.099326 1_655
O2 Y0 2.632952 1_546
O2 Y0 2.632952 1_556
O3 Sn0 2.194422 1_565
O3 Sn0 2.194422 1_555
O3 Y0 2.564613 1_455
O3 Y0 2.564613 1_555
O4 Sn1 2.194422 1_565
O4 Sn1 2.194422 1_555
O4 Y0 2.564613 1_456
O4 Y0 2.564613 1_556
O5 Sn0 2.076385 1_555
O5 Sn2 2.334351 1_555
O6 Sn1 2.076385 1_555
O6 Sn2 2.334351 1_555
