# generated using pymatgen
data_ScVO2
_symmetry_space_group_name_H-M   'P 1'
_cell_length_a   6.89093767
_cell_length_b   6.89093767
_cell_length_c   6.89093767
_cell_angle_alpha   128.49394768
_cell_angle_beta   128.49394768
_cell_angle_gamma   75.82620756
_symmetry_Int_Tables_number   1
_chemical_formula_structural   ScVO2
_chemical_formula_sum   'Sc4 V4 O8'
_cell_volume   194.94231781
_cell_formula_units_Z   4
loop_
 _symmetry_equiv_pos_site_id
 _symmetry_equiv_pos_as_xyz
  1  'x, y, z'
loop_
 _atom_site_type_symbol
 _atom_site_label
 _atom_site_symmetry_multiplicity
 _atom_site_fract_x
 _atom_site_fract_y
 _atom_site_fract_z
 _atom_site_occupancy
  Sc  Sc0  1  0.87500000  0.62500000  0.25000000  1
  Sc  Sc1  1  0.37500000  0.62500000  0.75000000  1
  Sc  Sc2  1  0.37500000  0.62500000  0.25000000  1
  Sc  Sc3  1  0.37500000  0.12500000  0.75000000  1
  V  V0  1  0.37500000  0.12500000  0.25000000  1
  V  V1  1  0.87500000  0.12500000  0.75000000  1
  V  V2  1  0.87500000  0.12500000  0.25000000  1
  V  V3  1  0.87500000  0.62500000  0.75000000  1
  O  O0  1  0.17289100  0.41765600  0.24476400  1
  O  O1  1  0.17289100  0.92812700  0.75523600  1
  O  O2  1  0.16765600  0.42289100  0.74476400  1
  O  O3  1  0.57710900  0.83234400  0.25523600  1
  O  O4  1  0.67812700  0.42289100  0.25523600  1
  O  O5  1  0.57710900  0.32187300  0.74476400  1
  O  O6  1  0.58234400  0.82710900  0.75523600  1
  O  O7  1  0.07187300  0.82710900  0.24476400  1
loop_
_geom_bond_atom_site_label_1
_geom_bond_atom_site_label_2
_geom_bond_distance
_geom_bond_site_symmetry_2
O0 V1 2.158813 1_454
O0 V0 2.158817 1_555
O0 Sc2 2.197774 1_555
O0 Sc0 2.201864 1_455
O0 Sc1 2.201868 1_555
O1 V0 2.158812 1_566
O1 V1 2.158812 1_465
O1 Sc3 2.197779 1_565
O1 Sc1 2.201867 1_555
O1 Sc0 2.201867 1_455
O2 V2 2.158813 1_455
O2 V3 2.158817 1_455
O2 Sc1 2.197774 1_555
O2 Sc3 2.201864 1_555
O2 Sc2 2.201868 1_556
O3 V1 2.158813 1_565
O3 V0 2.158817 1_565
O3 Sc2 2.197774 1_555
O3 Sc0 2.201864 1_555
O3 Sc1 2.201868 1_554
O4 V2 2.158812 1_555
O4 V3 2.158812 1_555
O4 Sc0 2.197779 1_555
O4 Sc3 2.201867 1_554
O4 Sc2 2.201867 1_555
O5 V1 2.158812 1_555
O5 V0 2.158812 1_555
O5 Sc3 2.197779 1_555
O5 Sc0 2.201867 1_556
O5 Sc1 2.201867 1_555
O6 V2 2.158813 1_566
O6 V3 2.158817 1_555
O6 Sc1 2.197774 1_555
O6 Sc3 2.201864 1_565
O6 Sc2 2.201868 1_555
O7 V3 2.158812 1_454
O7 V2 2.158812 1_465
O7 Sc0 2.197779 1_455
O7 Sc2 2.201867 1_555
O7 Sc3 2.201867 1_565
