# generated using pymatgen
data_Yb6N8O33
_symmetry_space_group_name_H-M   'P 1'
_cell_length_a   9.33821900
_cell_length_b   9.61792908
_cell_length_c   10.00684150
_cell_angle_alpha   114.77406127
_cell_angle_beta   110.48838155
_cell_angle_gamma   96.95958059
_symmetry_Int_Tables_number   1
_chemical_formula_structural   Yb6N8O33
_chemical_formula_sum   'Yb6 N8 O33'
_cell_volume   725.52981547
_cell_formula_units_Z   1
loop_
 _symmetry_equiv_pos_site_id
 _symmetry_equiv_pos_as_xyz
  1  'x, y, z'
loop_
 _atom_site_type_symbol
 _atom_site_label
 _atom_site_symmetry_multiplicity
 _atom_site_fract_x
 _atom_site_fract_y
 _atom_site_fract_z
 _atom_site_occupancy
  Yb  Yb0  1  0.87230500  0.78629600  0.64821700  1
  Yb  Yb1  1  0.12769500  0.21370400  0.35178300  1
  Yb  Yb2  1  0.78549200  0.38541600  0.15378400  1
  Yb  Yb3  1  0.21450800  0.61458400  0.84621600  1
  Yb  Yb4  1  0.78669700  0.34382900  0.53581400  1
  Yb  Yb5  1  0.21330300  0.65617100  0.46418600  1
  N  N0  1  0.74017700  0.50978400  0.87138800  1
  N  N1  1  0.25982300  0.49021600  0.12861200  1
  N  N2  1  0.88775400  0.08900800  0.66970300  1
  N  N3  1  0.11224600  0.91099200  0.33029700  1
  N  N4  1  0.53908300  0.82004000  0.66987300  1
  N  N5  1  0.46091700  0.17996000  0.33012700  1
  N  N6  1  0.45165400  0.22024600  0.91591200  1
  N  N7  1  0.54834600  0.77975400  0.08408800  1
  O  O0  1  0.73167000  0.55967800  0.37353400  1
  O  O1  1  0.26833000  0.44032200  0.62646600  1
  O  O2  1  0.89737400  0.22905300  0.69036600  1
  O  O3  1  0.10262600  0.77094700  0.30963400  1
  O  O4  1  0.31121700  0.14982500  0.81056800  1
  O  O5  1  0.68878300  0.85017500  0.18943200  1
  O  O6  1  0.67744400  0.38881200  0.72686700  1
  O  O7  1  0.32255600  0.61118800  0.27313300  1
  O  O8  1  0.94914100  0.60951200  0.73708600  1
  O  O9  1  0.05085900  0.39048800  0.26291400  1
  O  O10  1  0.11097600  0.70628900  0.65602400  1
  O  O11  1  0.88902400  0.29371100  0.34397600  1
  O  O12  1  0.78205600  0.96633100  0.53911100  1
  O  O13  1  0.21794400  0.03366900  0.46088900  1
  O  O14  1  0.53087600  0.16072700  0.99942200  1
  O  O15  1  0.46912400  0.83927300  0.00057800  1
  O  O16  1  0.84825800  0.65187500  0.37165700  1
  O  O17  1  0.15174200  0.34812500  0.62834300  1
  O  O18  1  0.72195600  0.64159200  0.89182600  1
  O  O19  1  0.27804400  0.35840800  0.10817400  1
  O  O20  1  0.01389600  0.92959400  0.21829500  1
  O  O21  1  0.98610400  0.07040600  0.78170500  1
  O  O22  1  0.00000000  0.50000000  0.50000000  1
  O  O23  1  0.82218400  0.49266100  0.99084500  1
  O  O24  1  0.17781600  0.50733900  0.00915500  1
  O  O25  1  0.48506400  0.66664600  0.59918300  1
  O  O26  1  0.51493600  0.33335400  0.40081700  1
  O  O27  1  0.68928700  0.89184700  0.74613800  1
  O  O28  1  0.31071300  0.10815300  0.25386200  1
  O  O29  1  0.52775200  0.35895400  0.94915500  1
  O  O30  1  0.47224800  0.64104600  0.05084500  1
  O  O31  1  0.43948900  0.89757600  0.66002000  1
  O  O32  1  0.56051100  0.10242400  0.33998000  1
loop_
_geom_bond_atom_site_label_1
_geom_bond_atom_site_label_2
_geom_bond_distance
_geom_bond_site_symmetry_2
N0 O18 1.239853 1_555
N0 O23 1.263821 1_555
N0 O6 1.272773 1_555
N1 O19 1.239853 1_555
N1 O24 1.263821 1_555
N1 O7 1.272773 1_555
N2 O2 1.260690 1_555
N2 O12 1.263618 1_545
N2 O21 1.272381 1_555
N3 O3 1.260690 1_555
N3 O13 1.263618 1_565
N3 O20 1.272381 1_555
N4 O31 1.263450 1_555
N4 O27 1.265290 1_555
N4 O25 1.275408 1_555
N5 O32 1.263450 1_555
N5 O28 1.265290 1_555
N5 O26 1.275408 1_555
N6 O4 1.228187 1_555
N6 O29 1.276033 1_555
N6 O14 1.282229 1_555
N7 O5 1.228187 1_555
N7 O30 1.276033 1_555
N7 O15 1.282229 1_555
O0 O16 1.329024 1_555
O0 Yb2 2.405477 1_555
O0 Yb0 2.406045 1_555
O1 O17 1.329024 1_555
O1 Yb3 2.405477 1_555
O1 Yb1 2.406045 1_555
O2 Yb4 2.295008 1_555
O3 Yb5 2.295008 1_555
O6 Yb4 2.379568 1_555
O7 Yb5 2.379568 1_555
O8 Yb0 2.304970 1_555
O8 Yb3 2.316756 1_655
O8 Yb4 2.344327 1_555
O9 Yb1 2.304970 1_555
O9 Yb2 2.316756 1_455
O9 Yb5 2.344327 1_555
O10 O22 1.794734 1_555
O10 Yb5 2.334711 1_555
O10 Yb3 2.379143 1_555
O10 Yb0 2.430993 1_455
O11 O22 1.794734 1_655
O11 Yb4 2.334711 1_555
O11 Yb2 2.379143 1_555
O11 Yb1 2.430993 1_655
O12 Yb0 2.488885 1_555
O13 Yb1 2.488885 1_555
O14 Yb2 2.468921 1_556
O15 Yb3 2.468921 1_554
O16 Yb2 2.392375 1_555
O16 Yb0 2.424229 1_555
O17 Yb3 2.392375 1_555
O17 Yb1 2.424229 1_555
O20 Yb1 2.371484 1_565
O21 Yb0 2.371484 1_545
O22 Yb5 2.564750 1_555
O22 Yb4 2.564750 1_455
O23 Yb2 2.356870 1_556
O24 Yb3 2.356870 1_554
O25 Yb5 2.387340 1_555
O26 Yb4 2.387340 1_555
O27 Yb0 2.381335 1_555
O28 Yb1 2.381335 1_555
O29 Yb2 2.452621 1_556
O30 Yb3 2.452621 1_554
O31 Yb5 2.406896 1_555
O32 Yb4 2.406896 1_555
