# generated using pymatgen
data_NdIn4Ni
_symmetry_space_group_name_H-M   'P 1'
_cell_length_a   8.68745744
_cell_length_b   8.68745744
_cell_length_c   7.25521400
_cell_angle_alpha   90.00000000
_cell_angle_beta   90.00000000
_cell_angle_gamma   149.91650648
_symmetry_Int_Tables_number   1
_chemical_formula_structural   NdIn4Ni
_chemical_formula_sum   'Nd2 In8 Ni2'
_cell_volume   274.47319209
_cell_formula_units_Z   2
loop_
 _symmetry_equiv_pos_site_id
 _symmetry_equiv_pos_as_xyz
  1  'x, y, z'
loop_
 _atom_site_type_symbol
 _atom_site_label
 _atom_site_symmetry_multiplicity
 _atom_site_fract_x
 _atom_site_fract_y
 _atom_site_fract_z
 _atom_site_occupancy
  Nd  Nd0  1  0.88130000  0.11870000  0.75000000  1
  Nd  Nd1  1  0.11870000  0.88130000  0.25000000  1
  In  In0  1  0.50000000  0.50000000  0.00000000  1
  In  In1  1  0.50000000  0.50000000  0.50000000  1
  In  In2  1  0.07455200  0.92544800  0.75000000  1
  In  In3  1  0.92544800  0.07455200  0.25000000  1
  In  In4  1  0.68819300  0.31180700  0.95224200  1
  In  In5  1  0.31180700  0.68819300  0.04775800  1
  In  In6  1  0.68819300  0.31180700  0.54775800  1
  In  In7  1  0.31180700  0.68819300  0.45224200  1
  Ni  Ni0  1  0.22651300  0.77348700  0.75000000  1
  Ni  Ni1  1  0.77348700  0.22651300  0.25000000  1
loop_
_geom_bond_atom_site_label_1
_geom_bond_atom_site_label_2
_geom_bond_distance
_geom_bond_site_symmetry_2
Nd0 Ni0 3.439327 1_655
Nd0 Ni0 3.439327 1_545
Nd1 Ni1 3.439327 1_565
Nd1 Ni1 3.439327 1_455
In0 In2 3.152452 1_654
In0 In3 3.152452 1_455
In0 In3 3.152452 1_565
In0 In2 3.152452 1_544
In0 In5 3.176756 1_555
In0 In4 3.176756 1_554
In0 Nd1 3.512847 1_545
In0 Nd0 3.512847 1_564
In0 Nd0 3.512847 1_454
In0 Nd1 3.512847 1_655
In1 In2 3.152452 1_655
In1 In2 3.152452 1_545
In1 In3 3.152452 1_455
In1 In3 3.152452 1_565
In1 In7 3.176756 1_555
In1 In6 3.176756 1_555
In1 Nd1 3.512847 1_545
In1 Nd0 3.512847 1_565
In1 Nd0 3.512847 1_455
In1 Nd1 3.512847 1_655
In2 Ni0 2.549844 1_555
In2 Nd0 3.242691 1_465
In2 Nd1 3.702472 1_555
In2 Nd1 3.702472 1_556
In3 Ni1 2.549844 1_555
In3 Nd1 3.242691 1_645
In3 Nd0 3.702472 1_555
In3 Nd0 3.702472 1_554
In4 Ni1 2.591374 1_556
In4 Ni0 2.765796 1_545
In4 Ni0 2.765796 1_655
In4 Nd1 3.333134 1_656
In4 Nd1 3.333134 1_546
In4 Nd0 3.557002 1_555
In5 Ni0 2.591374 1_554
In5 Ni1 2.765796 1_565
In5 Ni1 2.765796 1_455
In5 Nd0 3.333134 1_564
In5 Nd0 3.333134 1_454
In5 Nd1 3.557002 1_555
In6 Ni1 2.591374 1_555
In6 Ni0 2.765796 1_545
In6 Ni0 2.765796 1_655
In6 Nd1 3.333134 1_545
In6 Nd1 3.333134 1_655
In6 Nd0 3.557002 1_555
In7 Ni0 2.591374 1_555
In7 Ni1 2.765796 1_455
In7 Ni1 2.765796 1_565
In7 Nd0 3.333134 1_565
In7 Nd0 3.333134 1_455
In7 Nd1 3.557002 1_555
