# generated using pymatgen
data_Nd2CdCu2
_symmetry_space_group_name_H-M   'P 1'
_cell_length_a   3.85251878
_cell_length_b   7.67648392
_cell_length_c   7.67648547
_cell_angle_alpha   90.00013569
_cell_angle_beta   90.00003092
_cell_angle_gamma   89.99991516
_symmetry_Int_Tables_number   1
_chemical_formula_structural   Nd2CdCu2
_chemical_formula_sum   'Nd4 Cd2 Cu4'
_cell_volume   227.02283422
_cell_formula_units_Z   2
loop_
 _symmetry_equiv_pos_site_id
 _symmetry_equiv_pos_as_xyz
  1  'x, y, z'
loop_
 _atom_site_type_symbol
 _atom_site_label
 _atom_site_symmetry_multiplicity
 _atom_site_fract_x
 _atom_site_fract_y
 _atom_site_fract_z
 _atom_site_occupancy
  Nd  Nd0  1  0.00000000  0.17586638  0.67586660  1
  Nd  Nd1  1  1.00000000  0.82413318  0.32413299  1
  Nd  Nd2  1  1.00000000  0.32413239  0.17586799  1
  Nd  Nd3  1  0.00000000  0.67586778  0.82413249  1
  Cd  Cd0  1  0.50000000  0.49999985  0.49999591  1
  Cd  Cd1  1  0.50000000  0.99999920  0.00000356  1
  Cu  Cu0  1  0.50000000  0.38235381  0.88235596  1
  Cu  Cu1  1  0.50000000  0.61764617  0.11764836  1
  Cu  Cu2  1  0.50000000  0.11764744  0.38235110  1
  Cu  Cu3  1  0.50000000  0.88235280  0.61764504  1
loop_
_geom_bond_atom_site_label_1
_geom_bond_atom_site_label_2
_geom_bond_distance
_geom_bond_site_symmetry_2
Cd0 Cu1 3.070887 1_555
Cd0 Cu2 3.070915 1_555
Cd0 Cu3 3.070928 1_555
Cd0 Cu0 3.070978 1_555
Cd0 Nd2 3.424037 1_555
Cd0 Nd2 3.424038 1_455
Cd0 Nd1 3.424056 1_455
Cd0 Nd1 3.424061 1_555
Cd0 Nd0 3.424080 1_655
Cd0 Nd0 3.424085 1_555
Cd0 Nd3 3.424087 1_555
Cd0 Nd3 3.424088 1_655
Cd1 Cu2 3.070887 1_565
Cd1 Cu1 3.070923 1_555
Cd1 Cu0 3.070941 1_564
Cd1 Cu3 3.070964 1_554
Cd1 Nd1 3.424044 1_555
Cd1 Nd1 3.424048 1_455
Cd1 Nd2 3.424056 1_465
Cd1 Nd2 3.424059 1_565
Cd1 Nd3 3.424066 1_654
Cd1 Nd3 3.424070 1_554
Cd1 Nd0 3.424090 1_564
Cd1 Nd0 3.424094 1_664
Cu0 Cu1 2.554375 1_556
Cu0 Nd0 2.955600 1_655
Cu0 Nd0 2.955602 1_555
Cu0 Nd2 2.997811 1_556
Cu0 Nd2 2.997813 1_456
Cu0 Nd3 2.997823 1_555
Cu0 Nd3 2.997827 1_655
Cu1 Nd1 2.955579 1_455
Cu1 Nd1 2.955581 1_555
Cu1 Nd2 2.997817 1_555
Cu1 Nd2 2.997822 1_455
Cu1 Nd3 2.997833 1_554
Cu1 Nd3 2.997835 1_654
Cu2 Cu3 2.554402 1_545
Cu2 Nd2 2.955567 1_455
Cu2 Nd2 2.955571 1_555
Cu2 Nd1 2.997817 1_545
Cu2 Nd1 2.997821 1_445
Cu2 Nd0 2.997827 1_655
Cu2 Nd0 2.997828 1_555
Cu3 Nd3 2.955585 1_655
Cu3 Nd3 2.955590 1_555
Cu3 Nd1 2.997808 1_455
Cu3 Nd1 2.997809 1_555
Cu3 Nd0 2.997817 1_565
Cu3 Nd0 2.997821 1_665
