# generated using pymatgen
data_K2RbPt
_symmetry_space_group_name_H-M   'P 1'
_cell_length_a   7.67526100
_cell_length_b   7.67526100
_cell_length_c   5.44602200
_cell_angle_alpha   90.00000000
_cell_angle_beta   90.00000000
_cell_angle_gamma   90.00000000
_symmetry_Int_Tables_number   1
_chemical_formula_structural   K2RbPt
_chemical_formula_sum   'K4 Rb2 Pt2'
_cell_volume   320.82314871
_cell_formula_units_Z   2
loop_
 _symmetry_equiv_pos_site_id
 _symmetry_equiv_pos_as_xyz
  1  'x, y, z'
loop_
 _atom_site_type_symbol
 _atom_site_label
 _atom_site_symmetry_multiplicity
 _atom_site_fract_x
 _atom_site_fract_y
 _atom_site_fract_z
 _atom_site_occupancy
  K  K0  1  0.17716500  0.67716500  0.50000000  1
  K  K1  1  0.82283500  0.32283500  0.50000000  1
  K  K2  1  0.67716500  0.82283500  0.50000000  1
  K  K3  1  0.32283500  0.17716500  0.50000000  1
  Rb  Rb0  1  0.50000000  0.50000000  0.00000000  1
  Rb  Rb1  1  0.00000000  0.00000000  0.00000000  1
  Pt  Pt0  1  0.50000000  0.00000000  0.00000000  1
  Pt  Pt1  1  0.00000000  0.50000000  0.00000000  1
loop_
_geom_bond_atom_site_label_1
_geom_bond_atom_site_label_2
_geom_bond_distance
_geom_bond_site_symmetry_2
K0 Pt1 3.333592 1_555
K0 Pt1 3.333592 1_556
K0 K1 3.846060 1_455
K0 Rb1 3.924731 1_565
K0 Rb1 3.924731 1_566
K0 Rb0 3.924731 1_555
K0 Rb0 3.924731 1_556
K0 K2 3.997181 1_555
K0 K3 3.997181 1_555
K0 K2 3.997181 1_455
K0 K3 3.997181 1_565
K1 Pt1 3.333592 1_655
K1 Pt1 3.333592 1_656
K1 Rb1 3.924731 1_656
K1 Rb1 3.924731 1_655
K1 Rb0 3.924731 1_555
K1 Rb0 3.924731 1_556
K1 K2 3.997181 1_555
K1 K2 3.997181 1_545
K1 K3 3.997181 1_555
K1 K3 3.997181 1_655
K2 Pt0 3.333592 1_565
K2 Pt0 3.333592 1_566
K2 K3 3.846060 1_565
K2 Rb1 3.924731 1_666
K2 Rb1 3.924731 1_665
K2 Rb0 3.924731 1_555
K2 Rb0 3.924731 1_556
K3 Pt0 3.333592 1_555
K3 Pt0 3.333592 1_556
K3 Rb1 3.924731 1_555
K3 Rb1 3.924731 1_556
K3 Rb0 3.924731 1_555
K3 Rb0 3.924731 1_556
Pt0 Rb0 3.837630 1_555
Pt0 Rb1 3.837630 1_555
Pt0 Rb0 3.837630 1_545
Pt0 Rb1 3.837630 1_655
Pt1 Rb0 3.837630 1_455
Pt1 Rb0 3.837630 1_555
Pt1 Rb1 3.837630 1_555
Pt1 Rb1 3.837630 1_565
