# generated using pymatgen
data_Co3P2O9
_symmetry_space_group_name_H-M   'P 1'
_cell_length_a   10.81192426
_cell_length_b   8.51475400
_cell_length_c   13.03675427
_cell_angle_alpha   90.00000000
_cell_angle_beta   130.05573321
_cell_angle_gamma   90.00000000
_symmetry_Int_Tables_number   1
_chemical_formula_structural   Co3P2O9
_chemical_formula_sum   'Co12 P8 O36'
_cell_volume   918.63654356
_cell_formula_units_Z   4
loop_
 _symmetry_equiv_pos_site_id
 _symmetry_equiv_pos_as_xyz
  1  'x, y, z'
loop_
 _atom_site_type_symbol
 _atom_site_label
 _atom_site_symmetry_multiplicity
 _atom_site_fract_x
 _atom_site_fract_y
 _atom_site_fract_z
 _atom_site_occupancy
  Co  Co0  1  0.26530400  0.48679100  0.56877800  1
  Co  Co1  1  0.73469600  0.98679100  0.93122200  1
  Co  Co2  1  0.73469600  0.51320900  0.43122200  1
  Co  Co3  1  0.26530400  0.01320900  0.06877800  1
  Co  Co4  1  0.09007500  0.35191400  0.68437100  1
  Co  Co5  1  0.90992500  0.85191400  0.81562900  1
  Co  Co6  1  0.90992500  0.64808600  0.31562900  1
  Co  Co7  1  0.09007500  0.14808600  0.18437100  1
  Co  Co8  1  0.60893700  0.23640900  0.58365200  1
  Co  Co9  1  0.39106300  0.73640900  0.91634800  1
  Co  Co10  1  0.39106300  0.76359100  0.41634800  1
  Co  Co11  1  0.60893700  0.26359100  0.08365200  1
  P  P0  1  0.13329400  0.00780500  0.77845400  1
  P  P1  1  0.86670600  0.50780500  0.72154600  1
  P  P2  1  0.86670600  0.99219500  0.22154600  1
  P  P3  1  0.13329400  0.49219500  0.27845400  1
  P  P4  1  0.47938400  0.46125900  0.82420000  1
  P  P5  1  0.52061600  0.96125900  0.67580000  1
  P  P6  1  0.52061600  0.53874100  0.17580000  1
  P  P7  1  0.47938400  0.03874100  0.32420000  1
  O  O0  1  0.12326200  0.13713300  0.68948400  1
  O  O1  1  0.87673800  0.63713300  0.81051600  1
  O  O2  1  0.87673800  0.86286700  0.31051600  1
  O  O3  1  0.12326200  0.36286700  0.18948400  1
  O  O4  1  0.78698700  0.35770700  0.72015300  1
  O  O5  1  0.21301300  0.85770700  0.77984700  1
  O  O6  1  0.21301300  0.64229300  0.27984700  1
  O  O7  1  0.78698700  0.14229300  0.22015300  1
  O  O8  1  0.04113400  0.47193500  0.77726600  1
  O  O9  1  0.95886600  0.97193500  0.72273400  1
  O  O10  1  0.95886600  0.52806500  0.22273400  1
  O  O11  1  0.04113400  0.02806500  0.27726600  1
  O  O12  1  0.24463700  0.07931600  0.92478000  1
  O  O13  1  0.75536300  0.57931600  0.57522000  1
  O  O14  1  0.75536300  0.92068400  0.07522000  1
  O  O15  1  0.24463700  0.42068400  0.42478000  1
  O  O16  1  0.47455600  0.11820000  0.60222600  1
  O  O17  1  0.52544400  0.61820000  0.89777400  1
  O  O18  1  0.52544400  0.88180000  0.39777400  1
  O  O19  1  0.47455600  0.38180000  0.10222600  1
  O  O20  1  0.28246400  0.44959200  0.72417500  1
  O  O21  1  0.71753600  0.94959200  0.77582500  1
  O  O22  1  0.71753600  0.55040800  0.27582500  1
  O  O23  1  0.28246400  0.05040800  0.22417500  1
  O  O24  1  0.49081100  0.46111200  0.71033000  1
  O  O25  1  0.50918900  0.96111200  0.78967000  1
  O  O26  1  0.50918900  0.53888800  0.28967000  1
  O  O27  1  0.49081100  0.03888800  0.21033000  1
  O  O28  1  0.56193500  0.32127200  0.91786100  1
  O  O29  1  0.43806500  0.82127200  0.58213900  1
  O  O30  1  0.43806500  0.67872800  0.08213900  1
  O  O31  1  0.56193500  0.17872800  0.41786100  1
  O  O32  1  0.91126600  0.09534500  0.02051800  1
  O  O33  1  0.08873400  0.59534500  0.47948200  1
  O  O34  1  0.08873400  0.90465500  0.97948200  1
  O  O35  1  0.91126600  0.40465500  0.52051800  1
loop_
_geom_bond_atom_site_label_1
_geom_bond_atom_site_label_2
_geom_bond_distance
_geom_bond_site_symmetry_2
Co0 O33 1.730230 1_555
Co0 O15 1.830576 1_555
Co0 O24 1.899194 1_555
Co0 O20 1.937819 1_555
Co1 O32 1.730230 1_566
Co1 O14 1.830576 1_556
Co1 O25 1.899194 1_555
Co1 O21 1.937819 1_555
Co2 O35 1.730230 1_555
Co2 O13 1.830576 1_555
Co2 O26 1.899194 1_555
Co2 O22 1.937819 1_555
Co3 O34 1.730230 1_544
Co3 O12 1.830576 1_554
Co3 O27 1.899194 1_555
Co3 O23 1.937819 1_555
Co4 O35 1.785219 1_455
Co4 O0 1.856595 1_555
Co4 O8 1.901525 1_555
Co4 O20 1.974475 1_555
Co5 O34 1.785219 1_655
Co5 O1 1.856595 1_555
Co5 O9 1.901525 1_555
Co5 O21 1.974475 1_555
Co6 O33 1.785219 1_655
Co6 O2 1.856595 1_555
Co6 O10 1.901525 1_555
Co6 O22 1.974475 1_555
Co7 O32 1.785219 1_455
Co7 O3 1.856595 1_555
Co7 O11 1.901525 1_555
Co7 O23 1.974475 1_555
Co8 O4 1.878885 1_555
Co8 O16 1.906698 1_555
Co8 O31 1.938386 1_555
Co9 O5 1.878885 1_555
Co9 O17 1.906698 1_555
Co9 O30 1.938386 1_556
Co10 O6 1.878885 1_555
Co10 O18 1.906698 1_555
Co10 O29 1.938386 1_555
Co11 O7 1.878885 1_555
Co11 O19 1.906698 1_555
Co11 O28 1.938386 1_554
O0 P0 1.551708 1_555
O1 P1 1.551708 1_555
O2 P2 1.551708 1_555
O3 P3 1.551708 1_555
O4 P1 1.535086 1_555
O5 P0 1.535086 1_565
O6 P3 1.535086 1_555
O7 P2 1.535086 1_545
O8 P1 1.553829 1_455
O9 P0 1.553829 1_665
O10 P3 1.553829 1_655
O11 P2 1.553829 1_445
O12 P0 1.582179 1_555
O13 P1 1.582179 1_555
O14 P2 1.582179 1_555
O15 P3 1.582179 1_555
O16 P5 1.529364 1_545
O17 P4 1.529364 1_555
O18 P7 1.529364 1_565
O19 P6 1.529364 1_555
O20 P4 1.634005 1_555
O21 P5 1.634005 1_555
O22 P6 1.634005 1_555
O23 P7 1.634005 1_555
O24 P4 1.566859 1_555
O25 P5 1.566859 1_555
O26 P6 1.566859 1_555
O27 P7 1.566859 1_555
O28 P4 1.518433 1_555
O29 P5 1.518433 1_555
O30 P6 1.518433 1_555
O31 P7 1.518433 1_555
