# generated using pymatgen
data_LiEr(SO4)2
_symmetry_space_group_name_H-M   'P 1'
_cell_length_a   7.53517200
_cell_length_b   7.53517200
_cell_length_c   5.84280800
_cell_angle_alpha   90.00000000
_cell_angle_beta   90.00000000
_cell_angle_gamma   90.00000000
_symmetry_Int_Tables_number   1
_chemical_formula_structural   LiEr(SO4)2
_chemical_formula_sum   'Li2 Er2 S4 O16'
_cell_volume   331.74772660
_cell_formula_units_Z   2
loop_
 _symmetry_equiv_pos_site_id
 _symmetry_equiv_pos_as_xyz
  1  'x, y, z'
loop_
 _atom_site_type_symbol
 _atom_site_label
 _atom_site_symmetry_multiplicity
 _atom_site_fract_x
 _atom_site_fract_y
 _atom_site_fract_z
 _atom_site_occupancy
  Li  Li0  1  0.00000000  0.50000000  0.75000000  1
  Li  Li1  1  0.50000000  0.00000000  0.25000000  1
  Er  Er0  1  0.00000000  0.50000000  0.25000000  1
  Er  Er1  1  0.50000000  0.00000000  0.75000000  1
  S  S0  1  0.77689700  0.72310300  0.75000000  1
  S  S1  1  0.22310300  0.27689700  0.75000000  1
  S  S2  1  0.72310300  0.22310300  0.25000000  1
  S  S3  1  0.27689700  0.77689700  0.25000000  1
  O  O0  1  0.91317300  0.68354300  0.56551300  1
  O  O1  1  0.08682700  0.31645700  0.56551300  1
  O  O2  1  0.58682700  0.18354300  0.06551300  1
  O  O3  1  0.41317300  0.81645700  0.06551300  1
  O  O4  1  0.68354300  0.08682700  0.43448700  1
  O  O5  1  0.31645700  0.91317300  0.43448700  1
  O  O6  1  0.81645700  0.58682700  0.93448700  1
  O  O7  1  0.18354300  0.41317300  0.93448700  1
  O  O8  1  0.59572900  0.70890000  0.65458000  1
  O  O9  1  0.40427100  0.29110000  0.65458000  1
  O  O10  1  0.90427100  0.20890000  0.15458000  1
  O  O11  1  0.09572900  0.79110000  0.15458000  1
  O  O12  1  0.29110000  0.59572900  0.34542000  1
  O  O13  1  0.70890000  0.40427100  0.34542000  1
  O  O14  1  0.20890000  0.09572900  0.84542000  1
  O  O15  1  0.79110000  0.90427100  0.84542000  1
loop_
_geom_bond_atom_site_label_1
_geom_bond_atom_site_label_2
_geom_bond_distance
_geom_bond_site_symmetry_2
Li0 O7 1.871559 1_555
Li0 O6 1.871559 1_455
Li0 O1 1.871559 1_555
Li0 O0 1.871559 1_455
Li1 O2 1.871559 1_555
Li1 O5 1.871559 1_545
Li1 O4 1.871559 1_555
Li1 O3 1.871559 1_545
Er0 O13 2.375404 1_455
Er0 O11 2.375404 1_555
Er0 O12 2.375404 1_555
Er0 O10 2.375404 1_455
Er0 O0 2.395672 1_455
Er0 O1 2.395672 1_555
Er0 O7 2.395672 1_554
Er0 O6 2.395672 1_454
Er1 O8 2.375404 1_545
Er1 O9 2.375404 1_555
Er1 O14 2.375404 1_555
Er1 O15 2.375404 1_545
Er1 O2 2.395672 1_556
Er1 O3 2.395672 1_546
Er1 O5 2.395672 1_545
Er1 O4 2.395672 1_555
O0 S0 1.518296 1_555
O1 S1 1.518296 1_555
O2 S2 1.518296 1_555
O3 S3 1.518296 1_555
O4 S2 1.518296 1_555
O5 S3 1.518296 1_555
O6 S0 1.518296 1_555
O7 S1 1.518296 1_555
O8 S0 1.478468 1_555
O9 S1 1.478468 1_555
O10 S2 1.478468 1_555
O11 S3 1.478468 1_555
O12 S3 1.478468 1_555
O13 S2 1.478468 1_555
O14 S1 1.478468 1_555
O15 S0 1.478468 1_555
