# generated using pymatgen
data_Ta2O5
_symmetry_space_group_name_H-M   'P 1'
_cell_length_a   18.24065224
_cell_length_b   18.24065224
_cell_length_c   3.83108194
_cell_angle_alpha   87.95429046
_cell_angle_beta   87.95429046
_cell_angle_gamma   12.49243650
_symmetry_Int_Tables_number   1
_chemical_formula_structural   Ta2O5
_chemical_formula_sum   'Ta6 O15'
_cell_volume   275.54976125
_cell_formula_units_Z   3
loop_
 _symmetry_equiv_pos_site_id
 _symmetry_equiv_pos_as_xyz
  1  'x, y, z'
loop_
 _atom_site_type_symbol
 _atom_site_label
 _atom_site_symmetry_multiplicity
 _atom_site_fract_x
 _atom_site_fract_y
 _atom_site_fract_z
 _atom_site_occupancy
  Ta  Ta0  1  0.94853100  0.94853100  0.90262100  1
  Ta  Ta1  1  0.05146900  0.05146900  0.09737900  1
  Ta  Ta2  1  0.29504800  0.29504800  0.47198000  1
  Ta  Ta3  1  0.70495200  0.70495200  0.52802000  1
  Ta  Ta4  1  0.12819400  0.12819400  0.58046300  1
  Ta  Ta5  1  0.87180600  0.87180600  0.41953700  1
  O  O0  1  0.55131600  0.55131600  0.13312500  1
  O  O1  1  0.44868400  0.44868400  0.86687500  1
  O  O2  1  0.69526400  0.69526400  0.03449800  1
  O  O3  1  0.30473600  0.30473600  0.96550200  1
  O  O4  1  0.06820000  0.06820000  0.60238900  1
  O  O5  1  0.93180000  0.93180000  0.39761100  1
  O  O6  1  0.18147700  0.18147700  0.54519300  1
  O  O7  1  0.81852300  0.81852300  0.45480700  1
  O  O8  1  0.11301100  0.11301100  0.08535300  1
  O  O9  1  0.88698900  0.88698900  0.91464700  1
  O  O10  1  0.63440500  0.63440500  0.57654000  1
  O  O11  1  0.36559500  0.36559500  0.42346000  1
  O  O12  1  0.00000000  0.00000000  0.00000000  1
  O  O13  1  0.50000000  0.00000000  0.50000000  1
  O  O14  1  0.00000000  0.50000000  0.50000000  1
loop_
_geom_bond_atom_site_label_1
_geom_bond_atom_site_label_2
_geom_bond_distance
_geom_bond_site_symmetry_2
O0 Ta1 1.989319 1_565
O0 Ta1 1.989319 1_655
O1 Ta0 1.989319 1_545
O1 Ta0 1.989319 1_455
O2 Ta3 1.935453 1_555
O2 Ta3 1.959456 1_554
O3 Ta2 1.935453 1_555
O3 Ta2 1.959456 1_556
O4 Ta1 1.970187 1_556
O4 Ta1 2.048328 1_555
O4 Ta4 2.174271 1_555
O5 Ta0 1.970187 1_554
O5 Ta0 2.048328 1_555
O5 Ta5 2.174271 1_555
O6 Ta4 1.932166 1_555
O6 Ta3 2.159561 1_545
O6 Ta3 2.159561 1_455
O7 Ta5 1.932166 1_555
O7 Ta2 2.159561 1_655
O7 Ta2 2.159561 1_565
O8 Ta4 1.992009 1_554
O8 Ta4 1.994004 1_555
O8 Ta1 2.230625 1_555
O9 Ta5 1.992009 1_556
O9 Ta5 1.994004 1_555
O9 Ta0 2.230625 1_555
O10 Ta4 1.997342 1_655
O10 Ta4 1.997342 1_565
O10 Ta3 2.558446 1_555
O11 Ta5 1.997342 1_455
O11 Ta5 1.997342 1_545
O11 Ta2 2.558446 1_555
O12 Ta1 1.916520 1_555
O12 Ta0 1.916520 1_444
O13 Ta2 1.911130 1_555
O13 Ta3 1.911130 1_545
O14 Ta2 1.911130 1_555
O14 Ta3 1.911130 1_455
