# generated using pymatgen
data_CsVCuF6
_symmetry_space_group_name_H-M   'P 1'
_cell_length_a   7.50269341
_cell_length_b   7.50269341
_cell_length_c   7.50269341
_cell_angle_alpha   122.35182194
_cell_angle_beta   118.96324540
_cell_angle_gamma   88.89039208
_symmetry_Int_Tables_number   1
_chemical_formula_structural   CsVCuF6
_chemical_formula_sum   'Cs2 V2 Cu2 F12'
_cell_volume   295.27300564
_cell_formula_units_Z   2
loop_
 _symmetry_equiv_pos_site_id
 _symmetry_equiv_pos_as_xyz
  1  'x, y, z'
loop_
 _atom_site_type_symbol
 _atom_site_label
 _atom_site_symmetry_multiplicity
 _atom_site_fract_x
 _atom_site_fract_y
 _atom_site_fract_z
 _atom_site_occupancy
  Cs  Cs0  1  0.37156300  0.62156300  0.75000000  1
  Cs  Cs1  1  0.62843700  0.37843700  0.25000000  1
  V  V0  1  0.00000000  0.00000000  0.00000000  1
  V  V1  1  0.50000000  0.00000000  0.50000000  1
  Cu  Cu0  1  0.00000000  0.00000000  0.50000000  1
  Cu  Cu1  1  0.00000000  0.50000000  0.00000000  1
  F  F0  1  0.31232500  0.06232500  0.25000000  1
  F  F1  1  0.93369400  0.68369400  0.25000000  1
  F  F2  1  0.33172000  0.68531300  0.26057100  1
  F  F3  1  0.92474200  0.07114900  0.23942900  1
  F  F4  1  0.33172000  0.07114900  0.64640700  1
  F  F5  1  0.92474200  0.68531300  0.85359300  1
  F  F6  1  0.68767500  0.93767500  0.75000000  1
  F  F7  1  0.06630600  0.31630600  0.75000000  1
  F  F8  1  0.66828000  0.31468700  0.73942900  1
  F  F9  1  0.07525800  0.92885100  0.76057100  1
  F  F10  1  0.66828000  0.92885100  0.35359300  1
  F  F11  1  0.07525800  0.31468700  0.14640700  1
loop_
_geom_bond_atom_site_label_1
_geom_bond_atom_site_label_2
_geom_bond_distance
_geom_bond_site_symmetry_2
Cs0 F10 3.168633 1_556
Cs0 F8 3.168633 1_555
Cs0 F11 3.168633 1_555
Cs0 F9 3.168633 1_555
Cs0 F7 3.270113 1_555
Cs0 F6 3.386398 1_555
Cs1 F5 3.168633 1_555
Cs1 F3 3.168633 1_555
Cs1 F4 3.168633 1_554
Cs1 F2 3.168633 1_555
Cs1 F1 3.270113 1_555
Cs1 F0 3.386398 1_555
Cu0 F1 1.943091 1_445
Cu0 F7 1.943091 1_555
Cu0 F3 2.112311 1_455
Cu0 F10 2.112311 1_445
Cu0 F4 2.112311 1_555
Cu0 F9 2.112311 1_545
Cu1 F7 1.943091 1_554
Cu1 F1 1.943091 1_455
Cu1 F11 2.112311 1_555
Cu1 F8 2.112311 1_454
Cu1 F2 2.112311 1_555
Cu1 F5 2.112311 1_454
F0 V0 2.018604 1_555
F0 V1 2.018604 1_555
F2 V1 1.942959 1_565
F3 V0 1.942959 1_655
F4 V1 1.942959 1_555
F5 V0 1.942959 1_666
F6 V0 2.018604 1_666
F6 V1 2.018604 1_565
F8 V1 1.942959 1_555
F9 V0 1.942959 1_566
F10 V1 1.942959 1_565
F11 V0 1.942959 1_555
