# generated using pymatgen
data_Dy(MnAl)6
_symmetry_space_group_name_H-M   'P 1'
_cell_length_a   6.62828059
_cell_length_b   6.62828059
_cell_length_c   6.62828059
_cell_angle_alpha   136.54306201
_cell_angle_beta   98.78069264
_cell_angle_gamma   96.97612071
_symmetry_Int_Tables_number   1
_chemical_formula_structural   Dy(MnAl)6
_chemical_formula_sum   'Dy1 Mn6 Al6'
_cell_volume   186.03361614
_cell_formula_units_Z   1
loop_
 _symmetry_equiv_pos_site_id
 _symmetry_equiv_pos_as_xyz
  1  'x, y, z'
loop_
 _atom_site_type_symbol
 _atom_site_label
 _atom_site_symmetry_multiplicity
 _atom_site_fract_x
 _atom_site_fract_y
 _atom_site_fract_z
 _atom_site_occupancy
  Dy  Dy0  1  0.00000000  0.00000000  0.00000000  1
  Mn  Mn0  1  0.50000000  0.50000000  0.50000000  1
  Mn  Mn1  1  0.50000000  0.00000000  0.00000000  1
  Mn  Mn2  1  0.00000000  0.50000000  0.00000000  1
  Mn  Mn3  1  0.00000000  0.00000000  0.50000000  1
  Mn  Mn4  1  0.76584400  0.50000000  0.26584400  1
  Mn  Mn5  1  0.23415600  0.50000000  0.73415600  1
  Al  Al0  1  0.65218200  0.65218200  0.00000000  1
  Al  Al1  1  0.34781800  0.34781800  0.00000000  1
  Al  Al2  1  0.33667300  0.00000000  0.33667300  1
  Al  Al3  1  0.66332700  0.00000000  0.66332700  1
  Al  Al4  1  0.19998700  0.69998700  0.50000000  1
  Al  Al5  1  0.80001300  0.30001300  0.50000000  1
loop_
_geom_bond_atom_site_label_1
_geom_bond_atom_site_label_2
_geom_bond_distance
_geom_bond_site_symmetry_2
Dy0 Mn5 3.178623 1_555
Dy0 Mn5 3.178623 1_544
Dy0 Mn4 3.178623 1_455
Dy0 Mn4 3.178623 1_444
Dy0 Mn1 3.314140 1_455
Dy0 Mn0 3.314140 1_555
Dy0 Mn3 3.314140 1_554
Dy0 Mn2 3.314140 1_545
Dy0 Mn1 3.314140 1_555
Dy0 Mn2 3.314140 1_555
Dy0 Mn0 3.314140 1_444
Dy0 Mn3 3.314140 1_555
Mn0 Mn1 2.453845 1_555
Mn0 Mn1 2.453845 1_566
Mn0 Mn5 2.519680 1_555
Mn0 Mn4 2.519680 1_555
Mn1 Mn5 2.519680 1_544
Mn1 Mn4 2.519680 1_555
Mn2 Mn3 2.453845 1_554
Mn2 Mn3 2.453845 1_565
Mn2 Mn4 2.519680 1_455
Mn2 Mn5 2.519680 1_554
Mn3 Mn4 2.519680 1_445
Mn3 Mn5 2.519680 1_555
Al0 Mn2 2.626292 1_655
Al0 Mn0 2.626292 1_554
Al0 Mn3 2.626292 1_665
Al0 Mn1 2.626292 1_565
Al0 Mn4 2.655139 1_555
Al0 Mn5 2.655139 1_554
Al0 Al1 2.674182 1_555
Al0 Al5 2.776400 1_565
Al0 Al5 2.776400 1_554
Al0 Dy0 3.055975 1_665
Al0 Al2 3.129745 1_554
Al0 Al3 3.129745 1_554
Al0 Al2 3.129745 1_565
Al0 Al3 3.129745 1_565
Al1 Mn3 2.626292 1_554
Al1 Mn0 2.626292 1_555
Al1 Mn1 2.626292 1_555
Al1 Mn2 2.626292 1_555
Al1 Mn4 2.655139 1_555
Al1 Mn5 2.655139 1_554
Al1 Al4 2.776400 1_555
Al1 Al4 2.776400 1_544
Al1 Dy0 3.055975 1_555
Al1 Al2 3.129745 1_565
Al1 Al3 3.129745 1_565
Al1 Al3 3.129745 1_554
Al1 Al2 3.129745 1_554
Al2 Mn5 2.608420 1_555
Al2 Mn5 2.608420 1_544
Al2 Mn2 2.624770 1_545
Al2 Mn0 2.624770 1_555
Al2 Mn1 2.624770 1_555
Al2 Mn3 2.624770 1_555
Al2 Al3 2.818607 1_555
Al2 Dy0 2.905058 1_555
Al2 Al5 2.989045 1_555
Al2 Al4 2.989045 1_545
Al3 Mn4 2.608420 1_556
Al3 Mn4 2.608420 1_545
Al3 Mn0 2.624770 1_545
Al3 Mn1 2.624770 1_556
Al3 Mn2 2.624770 1_656
Al3 Mn3 2.624770 1_655
Al3 Dy0 2.905058 1_656
Al3 Al5 2.989045 1_555
Al3 Al4 2.989045 1_545
Al4 Mn0 2.520290 1_555
Al4 Mn1 2.520290 1_566
Al4 Mn2 2.520290 1_555
Al4 Mn3 2.520290 1_565
Al4 Mn5 2.677636 1_555
Al4 Mn4 2.677636 1_455
Al4 Dy0 3.018079 1_555
Al4 Dy0 3.018079 1_566
Al5 Mn0 2.520290 1_555
Al5 Mn1 2.520290 1_555
Al5 Mn2 2.520290 1_656
Al5 Mn3 2.520290 1_655
Al5 Mn5 2.677636 1_655
Al5 Mn4 2.677636 1_555
Al5 Dy0 3.018079 1_655
Al5 Dy0 3.018079 1_666
