# generated using pymatgen
data_LiV3P3O13
_symmetry_space_group_name_H-M   'P 1'
_cell_length_a   6.35188900
_cell_length_b   7.42085400
_cell_length_c   10.72925459
_cell_angle_alpha   80.68157164
_cell_angle_beta   90.00000000
_cell_angle_gamma   90.00000000
_symmetry_Int_Tables_number   1
_chemical_formula_structural   LiV3P3O13
_chemical_formula_sum   'Li2 V6 P6 O26'
_cell_volume   499.06498688
_cell_formula_units_Z   2
loop_
 _symmetry_equiv_pos_site_id
 _symmetry_equiv_pos_as_xyz
  1  'x, y, z'
loop_
 _atom_site_type_symbol
 _atom_site_label
 _atom_site_symmetry_multiplicity
 _atom_site_fract_x
 _atom_site_fract_y
 _atom_site_fract_z
 _atom_site_occupancy
  Li  Li0  1  0.75000000  0.39032000  0.13255900  1
  Li  Li1  1  0.25000000  0.60968000  0.86744100  1
  V  V0  1  0.25000000  0.64144000  0.19896300  1
  V  V1  1  0.75000000  0.35856000  0.80103700  1
  V  V2  1  0.25000000  0.22785300  0.44762100  1
  V  V3  1  0.50000000  0.00000000  0.00000000  1
  V  V4  1  0.75000000  0.77214700  0.55237900  1
  V  V5  1  0.00000000  0.00000000  0.00000000  1
  P  P0  1  0.25000000  0.77850800  0.47707800  1
  P  P1  1  0.75000000  0.22149200  0.52292200  1
  P  P2  1  0.25000000  0.26267700  0.77099000  1
  P  P3  1  0.75000000  0.73732300  0.22901000  1
  P  P4  1  0.75000000  0.69397700  0.87681800  1
  P  P5  1  0.25000000  0.30602300  0.12318200  1
  O  O0  1  0.75000000  0.65061700  0.74004800  1
  O  O1  1  0.55358900  0.27326900  0.44130700  1
  O  O2  1  0.25000000  0.20273000  0.64298800  1
  O  O3  1  0.54576100  0.79475700  0.90267400  1
  O  O4  1  0.75000000  0.34272000  0.62954900  1
  O  O5  1  0.75000000  0.13893900  0.90425400  1
  O  O6  1  0.25000000  0.65728000  0.37045100  1
  O  O7  1  0.04576100  0.20524300  0.09732600  1
  O  O8  1  0.25000000  0.98056800  0.41330900  1
  O  O9  1  0.75000000  0.01943200  0.58669100  1
  O  O10  1  0.05989200  0.38232900  0.79785100  1
  O  O11  1  0.25000000  0.86106100  0.09574600  1
  O  O12  1  0.55989200  0.61767100  0.20214900  1
  O  O13  1  0.75000000  0.49543300  0.95169600  1
  O  O14  1  0.75000000  0.79727000  0.35701200  1
  O  O15  1  0.45423900  0.20524300  0.09732600  1
  O  O16  1  0.94641100  0.27326900  0.44130700  1
  O  O17  1  0.44641100  0.72673100  0.55869300  1
  O  O18  1  0.44010800  0.38232900  0.79785100  1
  O  O19  1  0.25000000  0.34938300  0.25995200  1
  O  O20  1  0.75000000  0.91092100  0.12045000  1
  O  O21  1  0.25000000  0.08907900  0.87955000  1
  O  O22  1  0.94010800  0.61767100  0.20214900  1
  O  O23  1  0.95423900  0.79475700  0.90267400  1
  O  O24  1  0.05358900  0.72673100  0.55869300  1
  O  O25  1  0.25000000  0.50456700  0.04830400  1
loop_
_geom_bond_atom_site_label_1
_geom_bond_atom_site_label_2
_geom_bond_distance
_geom_bond_site_symmetry_2
Li0 O13 1.970760 1_554
Li0 O12 2.295655 1_555
Li0 O22 2.295655 1_555
Li0 O7 2.393039 1_655
Li0 O15 2.393039 1_555
Li1 O25 1.970760 1_556
Li1 O10 2.295655 1_555
Li1 O18 2.295655 1_555
Li1 O23 2.393039 1_455
Li1 O3 2.393039 1_555
O0 P4 1.552361 1_555
O0 V4 2.068731 1_555
O0 V1 2.160130 1_555
O1 P1 1.536856 1_555
O1 V2 1.956877 1_555
O2 P2 1.510591 1_555
O2 V2 2.074130 1_555
O3 P4 1.544817 1_555
O3 V3 2.002433 1_566
O4 P1 1.565695 1_555
O4 V1 1.862587 1_555
O5 V1 1.816066 1_555
O5 V3 2.072925 1_556
O5 V5 2.072925 1_656
O6 P0 1.565695 1_555
O6 V0 1.862587 1_555
O7 P5 1.544817 1_555
O7 V5 2.002433 1_555
O8 P0 1.544104 1_555
O8 V2 1.929190 1_565
O9 P1 1.544104 1_555
O9 V4 1.929190 1_545
O10 P2 1.553221 1_555
O10 V1 1.976088 1_455
O11 V0 1.816066 1_555
O11 V5 2.072925 1_565
O11 V3 2.072925 1_565
O12 P3 1.553221 1_555
O12 V0 1.976088 1_555
O13 P4 1.559779 1_555
O13 V1 2.043604 1_555
O14 P3 1.510591 1_555
O14 V4 2.074130 1_555
O15 P5 1.544817 1_555
O15 V3 2.002433 1_555
O16 P1 1.536856 1_555
O16 V2 1.956877 1_655
O17 P0 1.536856 1_555
O17 V4 1.956877 1_555
O18 P2 1.553221 1_555
O18 V1 1.976088 1_555
O19 P5 1.552361 1_555
O19 V2 2.068731 1_555
O19 V0 2.160130 1_555
O20 P3 1.590702 1_555
O20 V5 2.086173 1_665
O20 V3 2.086173 1_565
O21 P2 1.590702 1_555
O21 V3 2.086173 1_556
O21 V5 2.086173 1_556
O22 P3 1.553221 1_555
O22 V0 1.976088 1_655
O23 P4 1.544817 1_555
O23 V5 2.002433 1_666
O24 P0 1.536856 1_555
O24 V4 1.956877 1_455
O25 P5 1.559779 1_555
O25 V0 2.043604 1_555
