# generated using pymatgen
data_CeMg14Mo
_symmetry_space_group_name_H-M   'P 1'
_cell_length_a   6.47426376
_cell_length_b   5.92114488
_cell_length_c   10.44016438
_cell_angle_alpha   90.00000000
_cell_angle_beta   90.00000000
_cell_angle_gamma   117.21194489
_symmetry_Int_Tables_number   1
_chemical_formula_structural   CeMg14Mo
_chemical_formula_sum   'Ce1 Mg14 Mo1'
_cell_volume   355.92786480
_cell_formula_units_Z   1
loop_
 _symmetry_equiv_pos_site_id
 _symmetry_equiv_pos_as_xyz
  1  'x, y, z'
loop_
 _atom_site_type_symbol
 _atom_site_label
 _atom_site_symmetry_multiplicity
 _atom_site_fract_x
 _atom_site_fract_y
 _atom_site_fract_z
 _atom_site_occupancy
  Ce  Ce0  1  0.13785091  0.31892496  0.12500000  1
  Mg  Mg0  1  0.16360406  0.33180153  0.62500000  1
  Mg  Mg1  1  0.15391877  0.82695889  0.62500000  1
  Mg  Mg2  1  0.63890836  0.31528171  0.12500000  1
  Mg  Mg3  1  0.65508441  0.33077564  0.62500000  1
  Mg  Mg4  1  0.63890836  0.82362565  0.12500000  1
  Mg  Mg5  1  0.65508441  0.82430778  0.62500000  1
  Mg  Mg6  1  0.34461267  0.16777948  0.37338571  1
  Mg  Mg7  1  0.34461267  0.16777948  0.87661429  1
  Mg  Mg8  1  0.34461267  0.67683419  0.37338571  1
  Mg  Mg9  1  0.34461267  0.67683419  0.87661429  1
  Mg  Mg10  1  0.84181607  0.17090854  0.39045887  1
  Mg  Mg11  1  0.84181607  0.17090854  0.85954113  1
  Mg  Mg12  1  0.86457146  0.68228623  0.35231618  1
  Mg  Mg13  1  0.86457146  0.68228623  0.89768382  1
  Mo  Mo0  1  0.16541496  0.83270698  0.12500000  1
loop_
_geom_bond_atom_site_label_1
_geom_bond_atom_site_label_2
_geom_bond_distance
_geom_bond_site_symmetry_2
Ce0 Mo0 2.964823 1_555
Ce0 Mo0 2.964823 1_545
Ce0 Mg4 3.220478 1_445
Ce0 Mg2 3.220478 1_455
Ce0 Mg7 3.226943 1_554
Ce0 Mg6 3.226943 1_555
Ce0 Mg8 3.226948 1_555
Ce0 Mg9 3.226948 1_554
Ce0 Mg10 3.253628 1_455
Ce0 Mg11 3.253628 1_454
Ce0 Mg4 3.253899 1_555
Ce0 Mg2 3.253899 1_555
Mg0 Mg1 2.961098 1_545
Mg0 Mg1 2.961098 1_555
Mg0 Mg11 3.070601 1_455
Mg0 Mg10 3.070601 1_455
Mg0 Mg5 3.184756 1_555
Mg0 Mg3 3.184756 1_555
Mg0 Mg6 3.202820 1_555
Mg0 Mg7 3.202820 1_555
Mg0 Mg8 3.202825 1_555
Mg0 Mg9 3.202825 1_555
Mg0 Mg5 3.289517 1_445
Mg0 Mg3 3.289517 1_455
Mg1 Mg8 3.196666 1_555
Mg1 Mg9 3.196666 1_555
Mg1 Mg6 3.196671 1_565
Mg1 Mg7 3.196671 1_565
Mg1 Mg3 3.222437 1_455
Mg1 Mg5 3.222437 1_455
Mg1 Mg3 3.251887 1_565
Mg1 Mg5 3.251887 1_555
Mg1 Mg12 3.298501 1_455
Mg1 Mg13 3.298501 1_455
Mg2 Mg4 2.911167 1_545
Mg2 Mg4 3.009978 1_555
Mg2 Mo0 3.090480 1_545
Mg2 Mg6 3.097716 1_555
Mg2 Mg7 3.097716 1_554
Mg2 Mo0 3.384491 1_655
Mg3 Mg5 2.922275 1_555
Mg3 Mg5 2.998870 1_545
Mg3 Mg6 3.177768 1_555
Mg3 Mg7 3.177768 1_555
Mg4 Mo0 3.090480 1_555
Mg4 Mg9 3.097716 1_554
Mg4 Mg8 3.097716 1_555
Mg4 Mo0 3.384491 1_655
Mg5 Mg8 3.177768 1_555
Mg5 Mg9 3.177768 1_555
Mg6 Mg8 2.906958 1_545
Mg6 Mg8 3.014187 1_555
Mg6 Mo0 3.146710 1_545
Mg7 Mg9 2.906958 1_545
Mg7 Mg9 3.014187 1_555
Mg7 Mo0 3.146710 1_546
Mg8 Mo0 3.146704 1_555
Mg9 Mo0 3.146704 1_556
Mg10 Mg12 2.990105 1_555
Mg10 Mg12 2.990106 1_545
Mg10 Mg3 3.065958 1_555
Mg10 Mg5 3.065964 1_545
Mg10 Mg8 3.215540 1_545
Mg10 Mg6 3.215540 1_555
Mg10 Mg8 3.268615 1_655
Mg10 Mg6 3.268616 1_655
Mg10 Mg2 3.341322 1_555
Mg10 Mg4 3.341328 1_545
Mg11 Mg13 2.990105 1_555
Mg11 Mg13 2.990106 1_545
Mg11 Mg3 3.065958 1_555
Mg11 Mg5 3.065964 1_545
Mg11 Mg9 3.215540 1_545
Mg11 Mg7 3.215540 1_555
Mg11 Mg9 3.268615 1_655
Mg11 Mg7 3.268616 1_655
Mg11 Mg2 3.341322 1_556
Mg11 Mg4 3.341328 1_546
Mg12 Mo0 2.938123 1_655
Mg12 Mg4 3.096017 1_555
Mg12 Mg2 3.096023 1_555
Mg12 Mg6 3.130545 1_665
Mg12 Mg8 3.130545 1_655
Mg12 Mg6 3.358921 1_555
Mg12 Mg8 3.358922 1_555
Mg12 Mg5 3.419703 1_555
Mg12 Mg3 3.419708 1_555
Mg13 Mo0 2.938123 1_656
Mg13 Mg4 3.096017 1_556
Mg13 Mg2 3.096023 1_556
Mg13 Mg7 3.130545 1_665
Mg13 Mg9 3.130545 1_655
Mg13 Mg7 3.358921 1_555
Mg13 Mg9 3.358922 1_555
Mg13 Mg5 3.419703 1_555
Mg13 Mg3 3.419708 1_555
