# generated using pymatgen
data_Na2NiPCO7
_symmetry_space_group_name_H-M   'P 1'
_cell_length_a   10.17771639
_cell_length_b   10.45155401
_cell_length_c   8.40333811
_cell_angle_alpha   108.54037108
_cell_angle_beta   72.36006919
_cell_angle_gamma   60.21411816
_symmetry_Int_Tables_number   1
_chemical_formula_structural   Na2NiPCO7
_chemical_formula_sum   'Na8 Ni4 P4 C4 O28'
_cell_volume   609.26232921
_cell_formula_units_Z   4
loop_
 _symmetry_equiv_pos_site_id
 _symmetry_equiv_pos_as_xyz
  1  'x, y, z'
loop_
 _atom_site_type_symbol
 _atom_site_label
 _atom_site_symmetry_multiplicity
 _atom_site_fract_x
 _atom_site_fract_y
 _atom_site_fract_z
 _atom_site_occupancy
  Na  Na0  1  0.75110400  0.98247700  0.48140700  1
  Na  Na1  1  0.99528700  0.75595000  0.00713800  1
  Na  Na2  1  0.73785200  0.52324600  0.51048200  1
  Na  Na3  1  0.49669300  0.75813600  0.99979000  1
  Na  Na4  1  0.79014700  0.30064900  0.73478700  1
  Na  Na5  1  0.48244800  0.25261300  0.01621600  1
  Na  Na6  1  0.25134400  0.50240600  0.49339300  1
  Na  Na7  1  0.03845000  0.22420800  0.96138300  1
  Ni  Ni0  1  0.83970400  0.81070900  0.75146800  1
  Ni  Ni1  1  0.65172100  0.69566900  0.25415400  1
  Ni  Ni2  1  0.34117500  0.30783300  0.74886900  1
  Ni  Ni3  1  0.15560300  0.19377000  0.25682500  1
  P  P0  1  0.48018600  0.93950800  0.75190000  1
  P  P1  1  0.97358600  0.44961400  0.75252800  1
  P  P2  1  0.02215700  0.55412100  0.24801100  1
  P  P3  1  0.52092300  0.05534700  0.25235000  1
  C  C0  1  0.94063700  0.98272900  0.75329800  1
  C  C1  1  0.55583500  0.51631000  0.24362300  1
  C  C2  1  0.45547500  0.47346600  0.74905200  1
  C  C3  1  0.04823600  0.02401300  0.25333500  1
  O  O0  1  0.99111800  0.94096300  0.25376100  1
  O  O1  1  0.69899700  0.97663800  0.06446900  1
  O  O2  1  0.98199600  0.59425500  0.75455600  1
  O  O3  1  0.85687700  0.68809200  0.24632500  1
  O  O4  1  0.64604000  0.80986300  0.75835400  1
  O  O5  1  0.51805300  0.90788400  0.24526700  1
  O  O6  1  0.50347100  0.82125200  0.56191500  1
  O  O7  1  0.79268800  0.52865600  0.93677900  1
  O  O8  1  0.97788900  0.34979700  0.56664600  1
  O  O9  1  0.19185200  0.97688300  0.25471100  1
  O  O10  1  0.70173600  0.47003200  0.24163600  1
  O  O11  1  0.47085300  0.65946200  0.24580400  1
  O  O12  1  0.96401600  0.16992200  0.25806500  1
  O  O13  1  0.52111500  0.55028200  0.75091300  1
  O  O14  1  0.50456400  0.42814200  0.24041900  1
  O  O15  1  0.02545000  0.83739000  0.74890800  1
  O  O16  1  0.53610200  0.32784400  0.74755100  1
  O  O17  1  0.30987200  0.52811400  0.74837900  1
  O  O18  1  0.79758300  0.02691700  0.74741200  1
  O  O19  1  0.01177400  0.65771200  0.43677300  1
  O  O20  1  0.20288500  0.46971200  0.06047200  1
  O  O21  1  0.51411500  0.15682700  0.43878600  1
  O  O22  1  0.48569300  0.08370500  0.74824600  1
  O  O23  1  0.35343900  0.19190800  0.25549100  1
  O  O24  1  0.13731300  0.32072600  0.75696400  1
  O  O25  1  0.01441400  0.40901300  0.24616800  1
  O  O26  1  0.30211800  0.02346100  0.94194800  1
  O  O27  1  0.98653300  0.07497600  0.76343000  1
loop_
_geom_bond_atom_site_label_1
_geom_bond_atom_site_label_2
_geom_bond_distance
_geom_bond_site_symmetry_2
Na0 O0 2.324214 1_555
Na0 O22 2.329197 1_565
Na0 O18 2.373838 1_565
Na0 O21 2.416287 1_565
Na0 O3 2.466369 1_555
Na0 O16 2.621475 1_565
Na0 O19 2.888072 1_655
Na1 O0 2.313576 1_555
Na1 O2 2.345084 1_554
Na1 O17 2.358535 1_654
Na1 O1 2.479554 1_555
Na1 O15 2.560879 1_654
Na1 O3 2.590465 1_555
Na2 O13 2.311799 1_555
Na2 O10 2.335762 1_555
Na2 O25 2.338247 1_655
Na2 O4 2.501329 1_555
Na2 O8 2.514018 1_555
Na2 O6 2.591427 1_555
Na2 O12 2.654957 1_555
Na3 O9 2.291703 1_556
Na3 O5 2.304065 1_556
Na3 O13 2.326840 1_555
Na3 O7 2.480991 1_555
Na3 O4 2.522686 1_555
Na3 O11 2.588907 1_556
Na3 O26 2.798643 1_565
Na4 O27 2.363250 1_555
Na4 O8 2.389940 1_555
Na4 O16 2.420743 1_555
Na4 O7 2.464982 1_555
Na4 O13 2.602983 1_555
Na4 O18 2.860882 1_555
Na5 O14 2.331332 1_555
Na5 O22 2.357388 1_554
Na5 O18 2.378578 1_554
Na5 O20 2.406319 1_555
Na5 O23 2.491661 1_555
Na5 O16 2.611870 1_554
Na5 O1 2.882886 1_545
Na6 O14 2.325163 1_555
Na6 O17 2.363218 1_555
Na6 O2 2.377468 1_455
Na6 O19 2.463420 1_555
Na6 O15 2.526681 1_555
Na6 O23 2.621568 1_555
Na7 O27 2.276083 1_455
Na7 O26 2.356420 1_555
Na7 O25 2.398718 1_556
Na7 O24 2.458407 1_555
Na7 O10 2.530705 1_456
Na7 O12 2.700626 1_456
Ni0 O4 1.958828 1_555
Ni0 O2 2.005238 1_555
Ni0 O15 2.038388 1_655
Ni0 O1 2.079767 1_556
Ni0 O19 2.083020 1_655
Ni0 O18 2.094425 1_565
Ni1 O5 1.986160 1_555
Ni1 O3 2.029674 1_555
Ni1 O6 2.048558 1_555
Ni1 O11 2.071290 1_555
Ni1 O10 2.109190 1_555
Ni1 O7 2.109623 1_554
Ni2 O24 1.989632 1_555
Ni2 O22 2.053068 1_555
Ni2 O21 2.055197 1_555
Ni2 O20 2.069577 1_556
Ni2 O16 2.092884 1_555
Ni2 O17 2.163352 1_555
Ni3 O23 2.000503 1_555
Ni3 O25 2.031781 1_555
Ni3 O8 2.055404 1_455
Ni3 O12 2.082455 1_455
Ni3 O26 2.090387 1_554
Ni3 O9 2.101042 1_545
C0 O27 1.254721 1_565
C0 O15 1.302396 1_655
C0 O18 1.313652 1_565
C1 O14 1.262001 1_555
C1 O11 1.293909 1_555
C1 O10 1.305958 1_555
C2 O13 1.273713 1_555
C2 O17 1.299429 1_555
C2 O16 1.315535 1_555
C3 O0 1.262310 1_445
C3 O9 1.295307 1_545
C3 O12 1.305366 1_455
O1 P3 1.553289 1_565
O2 P1 1.551123 1_555
O3 P2 1.573981 1_655
O4 P0 1.586863 1_555
O5 P3 1.538568 1_565
O6 P0 1.535389 1_555
O7 P1 1.554758 1_555
O8 P1 1.551462 1_555
O19 P2 1.546633 1_555
O20 P2 1.546626 1_555
O21 P3 1.545539 1_555
O22 P0 1.545216 1_545
O23 P3 1.573241 1_555
O24 P1 1.559548 1_455
O25 P2 1.552767 1_555
O26 P0 1.542635 1_545
