# generated using pymatgen
data_Ho4Mo4O11
_symmetry_space_group_name_H-M   'P 1'
_cell_length_a   5.71007000
_cell_length_b   10.75331000
_cell_length_c   15.94873300
_cell_angle_alpha   90.00000000
_cell_angle_beta   90.00000000
_cell_angle_gamma   90.00000000
_symmetry_Int_Tables_number   1
_chemical_formula_structural   Ho4Mo4O11
_chemical_formula_sum   'Ho16 Mo16 O44'
_cell_volume   979.28654114
_cell_formula_units_Z   4
loop_
 _symmetry_equiv_pos_site_id
 _symmetry_equiv_pos_as_xyz
  1  'x, y, z'
loop_
 _atom_site_type_symbol
 _atom_site_label
 _atom_site_symmetry_multiplicity
 _atom_site_fract_x
 _atom_site_fract_y
 _atom_site_fract_z
 _atom_site_occupancy
  Ho  Ho0  1  0.00000000  0.61578200  0.57656700  1
  Ho  Ho1  1  0.00000000  0.38421800  0.42343300  1
  Ho  Ho2  1  0.00000000  0.11578200  0.92343300  1
  Ho  Ho3  1  0.00000000  0.88421800  0.07656700  1
  Ho  Ho4  1  0.00000000  0.40402700  0.73630200  1
  Ho  Ho5  1  0.00000000  0.59597300  0.26369800  1
  Ho  Ho6  1  0.00000000  0.90402700  0.76369800  1
  Ho  Ho7  1  0.00000000  0.09597300  0.23630200  1
  Ho  Ho8  1  0.50000000  0.42306800  0.59902000  1
  Ho  Ho9  1  0.50000000  0.57693200  0.40098000  1
  Ho  Ho10  1  0.50000000  0.92306800  0.90098000  1
  Ho  Ho11  1  0.50000000  0.07693200  0.09902000  1
  Ho  Ho12  1  0.50000000  0.18519500  0.77689600  1
  Ho  Ho13  1  0.50000000  0.81480500  0.22310400  1
  Ho  Ho14  1  0.50000000  0.68519500  0.72310400  1
  Ho  Ho15  1  0.50000000  0.31480500  0.27689600  1
  Mo  Mo0  1  0.00000000  0.91685800  0.55990400  1
  Mo  Mo1  1  0.00000000  0.08314200  0.44009600  1
  Mo  Mo2  1  0.00000000  0.41685800  0.94009600  1
  Mo  Mo3  1  0.00000000  0.58314200  0.05990400  1
  Mo  Mo4  1  0.50000000  0.90766600  0.56900800  1
  Mo  Mo5  1  0.50000000  0.09233400  0.43099200  1
  Mo  Mo6  1  0.50000000  0.40766600  0.93099200  1
  Mo  Mo7  1  0.50000000  0.59233400  0.06900800  1
  Mo  Mo8  1  0.27448100  0.86533300  0.41478200  1
  Mo  Mo9  1  0.27448100  0.13466700  0.58521800  1
  Mo  Mo10  1  0.72551900  0.36533300  0.08521800  1
  Mo  Mo11  1  0.72551900  0.63466700  0.91478200  1
  Mo  Mo12  1  0.72551900  0.13466700  0.58521800  1
  Mo  Mo13  1  0.72551900  0.86533300  0.41478200  1
  Mo  Mo14  1  0.27448100  0.63466700  0.91478200  1
  Mo  Mo15  1  0.27448100  0.36533300  0.08521800  1
  O  O0  1  0.24542900  0.00000000  0.00000000  1
  O  O1  1  0.75457100  0.50000000  0.50000000  1
  O  O2  1  0.75457100  0.00000000  0.00000000  1
  O  O3  1  0.24542900  0.50000000  0.50000000  1
  O  O4  1  0.00000000  0.23205400  0.52385700  1
  O  O5  1  0.00000000  0.76794600  0.47614300  1
  O  O6  1  0.00000000  0.73205400  0.97614300  1
  O  O7  1  0.00000000  0.26794600  0.02385700  1
  O  O8  1  0.00000000  0.04879800  0.65443800  1
  O  O9  1  0.00000000  0.95120200  0.34556200  1
  O  O10  1  0.00000000  0.54879800  0.84556200  1
  O  O11  1  0.00000000  0.45120200  0.15443800  1
  O  O12  1  0.50000000  0.24738900  0.51387500  1
  O  O13  1  0.50000000  0.75261100  0.48612500  1
  O  O14  1  0.50000000  0.74738900  0.98612500  1
  O  O15  1  0.50000000  0.25261100  0.01387500  1
  O  O16  1  0.50000000  0.04148600  0.66723600  1
  O  O17  1  0.50000000  0.95851400  0.33276400  1
  O  O18  1  0.75867800  0.31287000  0.86205800  1
  O  O19  1  0.50000000  0.54148600  0.83276400  1
  O  O20  1  0.24695700  0.95929500  0.17233900  1
  O  O21  1  0.24695700  0.04070500  0.82766100  1
  O  O22  1  0.75304300  0.45929500  0.32766100  1
  O  O23  1  0.75304300  0.54070500  0.67233900  1
  O  O24  1  0.75304300  0.04070500  0.82766100  1
  O  O25  1  0.75304300  0.95929500  0.17233900  1
  O  O26  1  0.24695700  0.54070500  0.67233900  1
  O  O27  1  0.24695700  0.45929500  0.32766100  1
  O  O28  1  0.24132200  0.68713000  0.13794200  1
  O  O29  1  0.24132200  0.31287000  0.86205800  1
  O  O30  1  0.75867800  0.18713000  0.36205800  1
  O  O31  1  0.75867800  0.81287000  0.63794200  1
  O  O32  1  0.26411500  0.22375900  0.17501500  1
  O  O33  1  0.26411500  0.77624100  0.82498500  1
  O  O34  1  0.73588500  0.72375900  0.32498500  1
  O  O35  1  0.73588500  0.27624100  0.67501500  1
  O  O36  1  0.73588500  0.77624100  0.82498500  1
  O  O37  1  0.73588500  0.22375900  0.17501500  1
  O  O38  1  0.26411500  0.27624100  0.67501500  1
  O  O39  1  0.26411500  0.72375900  0.32498500  1
  O  O40  1  0.24132200  0.18713000  0.36205800  1
  O  O41  1  0.24132200  0.81287000  0.63794200  1
  O  O42  1  0.75867800  0.68713000  0.13794200  1
  O  O43  1  0.50000000  0.45851400  0.16723600  1
loop_
_geom_bond_atom_site_label_1
_geom_bond_atom_site_label_2
_geom_bond_distance
_geom_bond_site_symmetry_2
Ho0 O26 2.230102 1_555
Ho0 O23 2.230102 1_455
Ho0 O3 2.237251 1_555
Ho0 O1 2.237251 1_455
Ho0 O5 2.289674 1_555
Ho0 O41 2.710827 1_555
Ho0 O31 2.710827 1_455
Ho1 O27 2.230102 1_555
Ho1 O22 2.230102 1_455
Ho1 O3 2.237251 1_555
Ho1 O1 2.237251 1_455
Ho1 O4 2.289674 1_555
Ho1 O30 2.710827 1_455
Ho1 O40 2.710827 1_555
Ho2 O24 2.230102 1_455
Ho2 O21 2.230102 1_555
Ho2 O0 2.237251 1_556
Ho2 O2 2.237251 1_456
Ho2 O7 2.289674 1_556
Ho2 O18 2.710827 1_455
Ho2 O29 2.710827 1_555
Ho3 O25 2.230102 1_455
Ho3 O20 2.230102 1_555
Ho3 O0 2.237251 1_565
Ho3 O2 2.237251 1_465
Ho3 O6 2.289674 1_554
Ho3 O28 2.710827 1_555
Ho3 O42 2.710827 1_455
Ho4 O35 2.262307 1_455
Ho4 O38 2.262307 1_555
Ho4 O23 2.278004 1_455
Ho4 O26 2.278004 1_555
Ho4 O10 2.336672 1_555
Ho4 O18 2.623411 1_455
Ho4 O29 2.623411 1_555
Ho5 O34 2.262307 1_455
Ho5 O39 2.262307 1_555
Ho5 O22 2.278004 1_455
Ho5 O27 2.278004 1_555
Ho5 O11 2.336672 1_555
Ho5 O42 2.623411 1_455
Ho5 O28 2.623411 1_555
Ho6 O36 2.262307 1_455
Ho6 O33 2.262307 1_555
Ho6 O21 2.278004 1_565
Ho6 O24 2.278004 1_465
Ho6 O8 2.336672 1_565
Ho6 O41 2.623411 1_555
Ho6 O31 2.623411 1_455
Ho7 O37 2.262307 1_455
Ho7 O32 2.262307 1_555
Ho7 O25 2.278004 1_445
Ho7 O20 2.278004 1_545
Ho7 O9 2.336672 1_545
Ho7 O40 2.623411 1_555
Ho7 O30 2.623411 1_455
Ho8 O26 2.248394 1_555
Ho8 O23 2.248394 1_555
Ho8 O3 2.300304 1_555
Ho8 O1 2.300304 1_555
Ho8 O12 2.326555 1_555
Ho8 O38 2.403340 1_555
Ho8 O35 2.403340 1_555
Ho9 O22 2.248394 1_555
Ho9 O27 2.248394 1_555
Ho9 O3 2.300304 1_555
Ho9 O1 2.300304 1_555
Ho9 O13 2.326555 1_555
Ho9 O39 2.403340 1_555
Ho9 O34 2.403340 1_555
Ho10 O21 2.248394 1_565
Ho10 O24 2.248394 1_565
Ho10 O2 2.300304 1_566
Ho10 O0 2.300304 1_566
Ho10 O14 2.326555 1_555
Ho10 O36 2.403340 1_555
Ho10 O33 2.403340 1_555
Ho11 O20 2.248394 1_545
Ho11 O25 2.248394 1_545
Ho11 O2 2.300304 1_555
Ho11 O0 2.300304 1_555
Ho11 O15 2.326555 1_555
Ho11 O37 2.403340 1_555
Ho11 O32 2.403340 1_555
Ho12 O24 2.270981 1_555
Ho12 O21 2.270981 1_555
Ho12 O38 2.326572 1_555
Ho12 O35 2.326572 1_555
Ho12 O16 2.333856 1_555
Ho12 O18 2.431346 1_555
Ho12 O29 2.431346 1_555
Ho13 O20 2.270981 1_555
Ho13 O25 2.270981 1_555
Ho13 O39 2.326572 1_555
Ho13 O34 2.326572 1_555
Ho13 O17 2.333856 1_555
Ho13 O28 2.431346 1_555
Ho13 O42 2.431346 1_555
Ho14 O23 2.270981 1_555
Ho14 O26 2.270981 1_555
Ho14 O33 2.326572 1_555
Ho14 O36 2.326572 1_555
Ho14 O19 2.333856 1_555
Ho14 O41 2.431346 1_555
Ho14 O31 2.431346 1_555
Ho15 O27 2.270981 1_555
Ho15 O22 2.270981 1_555
Ho15 O37 2.326572 1_555
Ho15 O32 2.326572 1_555
Ho15 O43 2.333856 1_555
Ho15 O30 2.431346 1_555
Ho15 O40 2.431346 1_555
Mo0 O8 2.070295 1_565
Mo0 O5 2.085361 1_555
Mo0 O41 2.167543 1_555
Mo0 O31 2.167543 1_455
Mo1 O9 2.070295 1_545
Mo1 O4 2.085361 1_555
Mo1 O30 2.167543 1_455
Mo1 O40 2.167543 1_555
Mo2 O10 2.070295 1_555
Mo2 O7 2.085361 1_556
Mo2 O18 2.167543 1_455
Mo2 O29 2.167543 1_555
Mo3 O11 2.070295 1_555
Mo3 O6 2.085361 1_554
Mo3 O42 2.167543 1_455
Mo3 O28 2.167543 1_555
Mo4 O41 2.104650 1_555
Mo4 O31 2.104650 1_555
Mo4 O16 2.127209 1_565
Mo4 O13 2.127777 1_555
Mo5 O40 2.104650 1_555
Mo5 O30 2.104650 1_555
Mo5 O17 2.127209 1_545
Mo5 O12 2.127777 1_555
Mo6 O29 2.104650 1_555
Mo6 O18 2.104650 1_555
Mo6 O19 2.127209 1_555
Mo6 O15 2.127777 1_556
Mo7 O28 2.104650 1_555
Mo7 O42 2.104650 1_555
Mo7 O43 2.127209 1_555
Mo7 O14 2.127777 1_554
Mo8 O39 2.090986 1_555
Mo8 O17 2.091253 1_555
Mo8 O13 2.102897 1_555
Mo8 O5 2.123879 1_555
Mo8 O9 2.127868 1_555
Mo9 O38 2.090986 1_555
Mo9 O16 2.091253 1_555
Mo9 O12 2.102897 1_555
Mo9 O4 2.123879 1_555
Mo9 O8 2.127868 1_555
Mo10 O37 2.090986 1_555
Mo10 O43 2.091253 1_555
Mo10 O15 2.102897 1_555
Mo10 O7 2.123879 1_655
Mo10 O11 2.127868 1_655
Mo11 O36 2.090986 1_555
Mo11 O19 2.091253 1_555
Mo11 O14 2.102897 1_555
Mo11 O6 2.123879 1_655
Mo11 O10 2.127868 1_655
Mo12 O35 2.090986 1_555
Mo12 O16 2.091253 1_555
Mo12 O12 2.102897 1_555
Mo12 O4 2.123879 1_655
Mo12 O8 2.127868 1_655
Mo13 O34 2.090986 1_555
Mo13 O17 2.091253 1_555
Mo13 O13 2.102897 1_555
Mo13 O5 2.123879 1_655
Mo13 O9 2.127868 1_655
Mo14 O33 2.090986 1_555
Mo14 O19 2.091253 1_555
Mo14 O14 2.102897 1_555
Mo14 O6 2.123879 1_555
Mo14 O10 2.127868 1_555
Mo15 O32 2.090986 1_555
Mo15 O43 2.091253 1_555
Mo15 O15 2.102897 1_555
Mo15 O7 2.123879 1_555
Mo15 O11 2.127868 1_555
