# generated using pymatgen
data_Eu5CdCu2
_symmetry_space_group_name_H-M   'P 1'
_cell_length_a   9.40255702
_cell_length_b   9.40255702
_cell_length_c   9.40255702
_cell_angle_alpha   128.81045803
_cell_angle_beta   128.81045803
_cell_angle_gamma   75.31574650
_symmetry_Int_Tables_number   1
_chemical_formula_structural   Eu5CdCu2
_chemical_formula_sum   'Eu10 Cd2 Cu4'
_cell_volume   491.26761602
_cell_formula_units_Z   2
loop_
 _symmetry_equiv_pos_site_id
 _symmetry_equiv_pos_as_xyz
  1  'x, y, z'
loop_
 _atom_site_type_symbol
 _atom_site_label
 _atom_site_symmetry_multiplicity
 _atom_site_fract_x
 _atom_site_fract_y
 _atom_site_fract_z
 _atom_site_occupancy
  Eu  Eu0  1  0.50000000  0.50000000  0.00000000  1
  Eu  Eu1  1  0.00000000  0.00000000  0.00000000  1
  Eu  Eu2  1  0.52669900  0.02669900  0.83340400  1
  Eu  Eu3  1  0.19329500  0.69329500  0.16659600  1
  Eu  Eu4  1  0.02669900  0.19329500  0.50000000  1
  Eu  Eu5  1  0.69329500  0.52669900  0.50000000  1
  Eu  Eu6  1  0.47330100  0.97330100  0.16659600  1
  Eu  Eu7  1  0.80670500  0.30670500  0.83340400  1
  Eu  Eu8  1  0.97330100  0.80670500  0.50000000  1
  Eu  Eu9  1  0.30670500  0.47330100  0.50000000  1
  Cd  Cd0  1  0.25000000  0.25000000  0.00000000  1
  Cd  Cd1  1  0.75000000  0.75000000  0.00000000  1
  Cu  Cu0  1  0.11501900  0.61501900  0.73003700  1
  Cu  Cu1  1  0.88498100  0.38498100  0.26996300  1
  Cu  Cu2  1  0.61501900  0.88498100  0.50000000  1
  Cu  Cu3  1  0.38498100  0.11501900  0.50000000  1
loop_
_geom_bond_atom_site_label_1
_geom_bond_atom_site_label_2
_geom_bond_distance
_geom_bond_site_symmetry_2
Cd0 Eu7 3.441974 1_454
Cd0 Eu6 3.441974 1_545
Cd0 Eu3 3.441974 1_555
Cd0 Eu4 3.441974 1_554
Cd0 Eu5 3.441974 1_555
Cd0 Eu8 3.441974 1_444
Cd0 Eu9 3.441974 1_555
Cd0 Eu2 3.441974 1_554
Cd0 Eu0 3.721875 1_555
Cd0 Eu1 3.721875 1_555
Cd1 Eu7 3.441974 1_554
Cd1 Eu3 3.441974 1_655
Cd1 Eu8 3.441974 1_555
Cd1 Eu4 3.441974 1_665
Cd1 Eu5 3.441974 1_554
Cd1 Eu9 3.441974 1_554
Cd1 Eu2 3.441974 1_564
Cd1 Eu6 3.441974 1_555
Cd1 Eu0 3.721875 1_555
Cd1 Eu1 3.721875 1_665
Cu0 Cu1 2.642870 1_455
Cu0 Eu9 3.123863 1_555
Cu0 Eu8 3.123863 1_455
Cu0 Eu5 3.123872 1_455
Cu0 Eu4 3.123872 1_555
Cu0 Eu6 3.260868 1_556
Cu0 Eu3 3.260878 1_556
Cu0 Eu0 3.264140 1_556
Cu0 Eu1 3.264140 1_566
Cu1 Eu4 3.123863 1_655
Cu1 Eu5 3.123863 1_555
Cu1 Eu9 3.123872 1_655
Cu1 Eu8 3.123872 1_555
Cu1 Eu2 3.260868 1_554
Cu1 Eu7 3.260878 1_554
Cu1 Eu1 3.264140 1_655
Cu1 Eu0 3.264140 1_555
Cu2 Cu3 2.642882 1_565
Cu2 Eu2 3.123870 1_565
Cu2 Eu3 3.123870 1_555
Cu2 Eu6 3.123870 1_555
Cu2 Eu7 3.123870 1_565
Cu2 Eu5 3.260869 1_555
Cu2 Eu8 3.260869 1_555
Cu2 Eu1 3.264137 1_666
Cu2 Eu0 3.264137 1_555
Cu3 Eu2 3.123870 1_555
Cu3 Eu3 3.123870 1_545
Cu3 Eu6 3.123870 1_545
Cu3 Eu7 3.123870 1_555
Cu3 Eu4 3.260869 1_555
Cu3 Eu9 3.260869 1_555
Cu3 Eu1 3.264137 1_555
Cu3 Eu0 3.264137 1_556
