# generated using pymatgen
data_K3HoF6
_symmetry_space_group_name_H-M   'P 1'
_cell_length_a   6.55604249
_cell_length_b   6.24189978
_cell_length_c   10.75633184
_cell_angle_alpha   55.90078854
_cell_angle_beta   90.00000000
_cell_angle_gamma   90.00000000
_symmetry_Int_Tables_number   1
_chemical_formula_structural   K3HoF6
_chemical_formula_sum   'K6 Ho2 F12'
_cell_volume   364.49264708
_cell_formula_units_Z   2
loop_
 _symmetry_equiv_pos_site_id
 _symmetry_equiv_pos_as_xyz
  1  'x, y, z'
loop_
 _atom_site_type_symbol
 _atom_site_label
 _atom_site_symmetry_multiplicity
 _atom_site_fract_x
 _atom_site_fract_y
 _atom_site_fract_z
 _atom_site_occupancy
  K  K0  1  0.50000000  0.50000000  0.00000000  1
  K  K1  1  0.00000000  0.50000000  0.50000000  1
  K  K2  1  0.05894392  0.72470260  0.75497665  1
  K  K3  1  0.94105608  0.27529740  0.24502335  1
  K  K4  1  0.55894392  0.27529740  0.74502335  1
  K  K5  1  0.44105608  0.72470260  0.25497665  1
  Ho  Ho0  1  0.50000000  0.00000000  0.50000000  1
  Ho  Ho1  1  0.00000000  0.00000000  0.00000000  1
  F  F0  1  0.77082416  0.75985468  0.57294330  1
  F  F1  1  0.22917584  0.24014532  0.42705670  1
  F  F2  1  0.27082416  0.24014532  0.92705670  1
  F  F3  1  0.72917584  0.75985468  0.07294330  1
  F  F4  1  0.44058797  0.89412675  0.72525812  1
  F  F5  1  0.55941203  0.10587325  0.27474188  1
  F  F6  1  0.94058797  0.10587325  0.77474188  1
  F  F7  1  0.05941203  0.89412675  0.22525812  1
  F  F8  1  0.32519278  0.66742450  0.55113383  1
  F  F9  1  0.67480722  0.33257550  0.44886617  1
  F  F10  1  0.82519278  0.33257550  0.94886617  1
  F  F11  1  0.17480722  0.66742450  0.05113383  1
loop_
_geom_bond_atom_site_label_1
_geom_bond_atom_site_label_2
_geom_bond_distance
_geom_bond_site_symmetry_2
F0 Ho0 2.167099 1_565
F0 K1 2.632648 1_655
F0 K2 2.639750 1_655
F0 K4 2.868175 1_555
F1 Ho0 2.167099 1_555
F1 K1 2.632648 1_555
F1 K3 2.639750 1_455
F1 K5 2.868175 1_555
F2 Ho1 2.167099 1_556
F2 K0 2.632648 1_556
F2 K4 2.639750 1_555
F2 K2 2.868175 1_555
F3 Ho1 2.167099 1_665
F3 K0 2.632648 1_555
F3 K5 2.639750 1_555
F3 K3 2.868175 1_555
F4 Ho0 2.159576 1_565
F4 K0 2.604887 1_556
F4 K4 2.622057 1_565
F4 K2 2.664936 1_555
F5 Ho0 2.159576 1_555
F5 K0 2.604887 1_555
F5 K5 2.622057 1_545
F5 K3 2.664936 1_555
F6 Ho1 2.159576 1_656
F6 K1 2.604887 1_655
F6 K2 2.622057 1_645
F6 K4 2.664936 1_555
F7 Ho1 2.159576 1_565
F7 K1 2.604887 1_555
F7 K3 2.622057 1_465
F7 K5 2.664936 1_555
F8 Ho0 2.155246 1_565
F8 K1 2.566018 1_555
F8 K4 2.639176 1_555
F8 K2 2.976775 1_555
F8 K5 3.094452 1_555
F9 Ho0 2.155246 1_555
F9 K1 2.566018 1_655
F9 K5 2.639176 1_555
F9 K3 2.976775 1_555
F9 K4 3.094452 1_555
F10 Ho1 2.155246 1_656
F10 K0 2.566018 1_556
F10 K2 2.639176 1_655
F10 K4 2.976775 1_555
F10 K3 3.094452 1_556
F11 Ho1 2.155246 1_565
F11 K0 2.566018 1_555
F11 K3 2.639176 1_455
F11 K5 2.976775 1_555
F11 K2 3.094452 1_554
