# generated using pymatgen
data_TlGaF6
_symmetry_space_group_name_H-M   'P 1'
_cell_length_a   5.09786339
_cell_length_b   5.09649196
_cell_length_c   5.56988396
_cell_angle_alpha   90.01168192
_cell_angle_beta   62.77705412
_cell_angle_gamma   120.00077918
_symmetry_Int_Tables_number   1
_chemical_formula_structural   TlGaF6
_chemical_formula_sum   'Tl1 Ga1 F6'
_cell_volume   106.42188253
_cell_formula_units_Z   1
loop_
 _symmetry_equiv_pos_site_id
 _symmetry_equiv_pos_as_xyz
  1  'x, y, z'
loop_
 _atom_site_type_symbol
 _atom_site_label
 _atom_site_symmetry_multiplicity
 _atom_site_fract_x
 _atom_site_fract_y
 _atom_site_fract_z
 _atom_site_occupancy
  Tl  Tl0  1  -0.00000180  0.00000368  -0.00000745  1
  Ga  Ga0  1  0.00000239  0.50000518  0.50000893  1
  F  F0  1  0.54009730  0.41954416  0.73242585  1
  F  F1  1  0.14694566  0.72737982  0.73239993  1
  F  F2  1  0.84801044  0.12063205  0.73239382  1
  F  F3  1  0.85305997  0.27261064  0.26760011  1
  F  F4  1  0.15199268  0.87937161  0.26761036  1
  F  F5  1  0.45989434  0.58045286  0.26756845  1
loop_
_geom_bond_atom_site_label_1
_geom_bond_atom_site_label_2
_geom_bond_distance
_geom_bond_site_symmetry_2
F0 Ga0 1.898096 1_655
F0 Tl0 2.175685 1_556
F1 Ga0 1.896803 1_555
F1 Tl0 2.175236 1_566
F2 Ga0 1.897191 1_655
F2 Tl0 2.175586 1_656
F3 Ga0 1.896929 1_655
F3 Tl0 2.175194 1_655
F4 Ga0 1.897205 1_555
F4 Tl0 2.175712 1_565
F5 Ga0 1.898084 1_555
F5 Tl0 2.175720 1_665
