# generated using pymatgen
data_As3Pb2BrO6
_symmetry_space_group_name_H-M   'P 1'
_cell_length_a   5.46398200
_cell_length_b   8.42557900
_cell_length_c   10.82021362
_cell_angle_alpha   71.48569462
_cell_angle_beta   90.00000000
_cell_angle_gamma   90.00000000
_symmetry_Int_Tables_number   1
_chemical_formula_structural   As3Pb2BrO6
_chemical_formula_sum   'As6 Pb4 Br2 O12'
_cell_volume   472.35132478
_cell_formula_units_Z   2
loop_
 _symmetry_equiv_pos_site_id
 _symmetry_equiv_pos_as_xyz
  1  'x, y, z'
loop_
 _atom_site_type_symbol
 _atom_site_label
 _atom_site_symmetry_multiplicity
 _atom_site_fract_x
 _atom_site_fract_y
 _atom_site_fract_z
 _atom_site_occupancy
  As  As0  1  0.25000000  0.72635200  0.41948400  1
  As  As1  1  0.75000000  0.27364800  0.58051600  1
  As  As2  1  0.25000000  0.60815900  0.15936100  1
  As  As3  1  0.75000000  0.39184100  0.84063900  1
  As  As4  1  0.25000000  0.60004700  0.82128600  1
  As  As5  1  0.75000000  0.39995300  0.17871400  1
  Pb  Pb0  1  0.25000000  0.15660300  0.38896000  1
  Pb  Pb1  1  0.75000000  0.84339700  0.61104000  1
  Pb  Pb2  1  0.25000000  0.03927300  0.77914500  1
  Pb  Pb3  1  0.75000000  0.96072700  0.22085500  1
  Br  Br0  1  0.75000000  0.80560400  0.93132800  1
  Br  Br1  1  0.25000000  0.19439600  0.06867200  1
  O  O0  1  0.99681500  0.51978400  0.73996000  1
  O  O1  1  0.49681500  0.48021600  0.26004000  1
  O  O2  1  0.00318500  0.48021600  0.26004000  1
  O  O3  1  0.50318500  0.51978400  0.73996000  1
  O  O4  1  0.00688900  0.87325100  0.41215700  1
  O  O5  1  0.50688900  0.12674900  0.58784300  1
  O  O6  1  0.99311100  0.12674900  0.58784300  1
  O  O7  1  0.49311100  0.87325100  0.41215700  1
  O  O8  1  0.75000000  0.23140800  0.76250500  1
  O  O9  1  0.25000000  0.76859200  0.23749500  1
  O  O10  1  0.25000000  0.80432900  0.70551800  1
  O  O11  1  0.75000000  0.19567100  0.29448200  1
loop_
_geom_bond_atom_site_label_1
_geom_bond_atom_site_label_2
_geom_bond_distance
_geom_bond_site_symmetry_2
As0 O7 1.800116 1_555
As0 O4 1.800116 1_555
As0 O9 1.886578 1_555
As1 O6 1.800116 1_555
As1 O5 1.800116 1_555
As1 O8 1.886578 1_555
As2 O9 1.807684 1_555
As2 O1 1.849783 1_555
As2 O2 1.849783 1_555
As3 O8 1.807684 1_555
As3 O3 1.849783 1_555
As3 O0 1.849783 1_555
As4 O10 1.778299 1_555
As4 O0 1.877069 1_455
As4 O3 1.877069 1_555
As5 O11 1.778299 1_555
As5 O2 1.877069 1_655
As5 O1 1.877069 1_555
Br0 Pb1 3.377993 1_555
Br0 Pb2 3.463020 1_565
Br0 Pb2 3.463020 1_665
Br1 Pb0 3.377993 1_555
Br1 Pb3 3.463020 1_545
Br1 Pb3 3.463020 1_445
O4 Pb3 2.414360 1_455
O4 Pb1 2.514084 1_455
O4 Pb0 2.673325 1_565
O5 Pb2 2.414360 1_555
O5 Pb0 2.514084 1_555
O5 Pb1 2.673325 1_545
O6 Pb2 2.414360 1_655
O6 Pb0 2.514084 1_655
O6 Pb1 2.673325 1_545
O7 Pb3 2.414360 1_555
O7 Pb1 2.514084 1_555
O7 Pb0 2.673325 1_565
O10 Pb2 2.356858 1_565
O11 Pb3 2.356858 1_545
