# generated using pymatgen
data_CeCrSb3
_symmetry_space_group_name_H-M   'P 1'
_cell_length_a   6.14434500
_cell_length_b   6.27985800
_cell_length_c   12.93642700
_cell_angle_alpha   90.00000000
_cell_angle_beta   90.00000000
_cell_angle_gamma   90.00000000
_symmetry_Int_Tables_number   1
_chemical_formula_structural   CeCrSb3
_chemical_formula_sum   'Ce4 Cr4 Sb12'
_cell_volume   499.15998009
_cell_formula_units_Z   4
loop_
 _symmetry_equiv_pos_site_id
 _symmetry_equiv_pos_as_xyz
  1  'x, y, z'
loop_
 _atom_site_type_symbol
 _atom_site_label
 _atom_site_symmetry_multiplicity
 _atom_site_fract_x
 _atom_site_fract_y
 _atom_site_fract_z
 _atom_site_occupancy
  Ce  Ce0  1  0.25000000  0.50341600  0.30774500  1
  Ce  Ce1  1  0.75000000  0.49658400  0.69225500  1
  Ce  Ce2  1  0.25000000  0.00341600  0.69225500  1
  Ce  Ce3  1  0.75000000  0.99658400  0.30774500  1
  Cr  Cr0  1  0.00000000  0.75000000  0.90582300  1
  Cr  Cr1  1  0.00000000  0.25000000  0.09417700  1
  Cr  Cr2  1  0.50000000  0.25000000  0.09417700  1
  Cr  Cr3  1  0.50000000  0.75000000  0.90582300  1
  Sb  Sb0  1  0.00000000  0.75000000  0.50113800  1
  Sb  Sb1  1  0.00000000  0.25000000  0.49886200  1
  Sb  Sb2  1  0.50000000  0.25000000  0.49886200  1
  Sb  Sb3  1  0.50000000  0.75000000  0.50113800  1
  Sb  Sb4  1  0.25000000  0.59944600  0.06271900  1
  Sb  Sb5  1  0.75000000  0.40055400  0.93728100  1
  Sb  Sb6  1  0.25000000  0.09944600  0.93728100  1
  Sb  Sb7  1  0.75000000  0.90055400  0.06271900  1
  Sb  Sb8  1  0.25000000  0.00205600  0.22629400  1
  Sb  Sb9  1  0.75000000  0.99794400  0.77370600  1
  Sb  Sb10  1  0.25000000  0.50205600  0.77370600  1
  Sb  Sb11  1  0.75000000  0.49794400  0.22629400  1
loop_
_geom_bond_atom_site_label_1
_geom_bond_atom_site_label_2
_geom_bond_distance
_geom_bond_site_symmetry_2
Ce0 Sb4 3.226617 1_555
Ce0 Sb11 3.248027 1_455
Ce0 Sb11 3.248027 1_555
Ce0 Sb8 3.303914 1_565
Ce0 Sb1 3.317346 1_555
Ce0 Sb2 3.317346 1_555
Ce0 Sb0 3.319115 1_555
Ce0 Sb3 3.319115 1_555
Ce0 Sb8 3.320107 1_555
Ce1 Sb5 3.226617 1_555
Ce1 Sb10 3.248027 1_555
Ce1 Sb10 3.248027 1_655
Ce1 Sb9 3.303914 1_545
Ce1 Sb3 3.317346 1_555
Ce1 Sb0 3.317346 1_655
Ce1 Sb1 3.319115 1_655
Ce1 Sb2 3.319115 1_555
Ce1 Sb9 3.320107 1_555
Ce2 Sb6 3.226617 1_555
Ce2 Sb9 3.248027 1_445
Ce2 Sb9 3.248027 1_545
Ce2 Sb10 3.303914 1_555
Ce2 Sb3 3.317346 1_545
Ce2 Sb0 3.317346 1_545
Ce2 Sb1 3.319115 1_555
Ce2 Sb2 3.319115 1_555
Ce2 Sb10 3.320107 1_545
Ce3 Sb7 3.226617 1_555
Ce3 Sb8 3.248027 1_565
Ce3 Sb8 3.248027 1_665
Ce3 Sb11 3.303914 1_555
Ce3 Sb1 3.317346 1_665
Ce3 Sb2 3.317346 1_565
Ce3 Sb3 3.319115 1_555
Ce3 Sb0 3.319115 1_655
Ce3 Sb11 3.320107 1_565
Cr0 Sb6 2.709405 1_565
Cr0 Sb5 2.709405 1_455
Cr0 Sb7 2.715332 1_456
Cr0 Sb4 2.715332 1_556
Cr0 Sb10 2.775801 1_555
Cr0 Sb9 2.775801 1_455
Cr1 Sb7 2.709405 1_445
Cr1 Sb4 2.709405 1_555
Cr1 Sb5 2.715332 1_454
Cr1 Sb6 2.715332 1_554
Cr1 Sb11 2.775801 1_455
Cr1 Sb8 2.775801 1_555
Cr2 Sb7 2.709405 1_545
Cr2 Sb4 2.709405 1_555
Cr2 Sb5 2.715332 1_554
Cr2 Sb6 2.715332 1_554
Cr2 Sb11 2.775801 1_555
Cr2 Sb8 2.775801 1_555
Cr3 Sb6 2.709405 1_565
Cr3 Sb5 2.709405 1_555
Cr3 Sb7 2.715332 1_556
Cr3 Sb4 2.715332 1_556
Cr3 Sb10 2.775801 1_555
Cr3 Sb9 2.775801 1_555
Sb0 Sb3 3.072173 1_455
Sb0 Sb3 3.072173 1_555
Sb0 Sb1 3.140067 1_565
Sb0 Sb1 3.140067 1_555
Sb1 Sb2 3.072173 1_455
Sb1 Sb2 3.072173 1_555
Sb2 Sb3 3.140067 1_555
Sb2 Sb3 3.140067 1_545
