# generated using pymatgen
data_Th(NiP)2
_symmetry_space_group_name_H-M   'P 1'
_cell_length_a   3.90872448
_cell_length_b   8.29625077
_cell_length_c   9.75937942
_cell_angle_alpha   90.00000000
_cell_angle_beta   90.00000000
_cell_angle_gamma   90.00000000
_symmetry_Int_Tables_number   1
_chemical_formula_structural   Th(NiP)2
_chemical_formula_sum   'Th4 Ni8 P8'
_cell_volume   316.47479872
_cell_formula_units_Z   4
loop_
 _symmetry_equiv_pos_site_id
 _symmetry_equiv_pos_as_xyz
  1  'x, y, z'
loop_
 _atom_site_type_symbol
 _atom_site_label
 _atom_site_symmetry_multiplicity
 _atom_site_fract_x
 _atom_site_fract_y
 _atom_site_fract_z
 _atom_site_occupancy
  Th  Th0  1  0.25000000  0.26005521  0.66965820  1
  Th  Th1  1  0.75000000  0.73994479  0.33034180  1
  Th  Th2  1  0.25000000  0.76005521  0.83034180  1
  Th  Th3  1  0.75000000  0.23994479  0.16965820  1
  Ni  Ni0  1  0.75000000  0.08269697  0.45115223  1
  Ni  Ni1  1  0.25000000  0.91730303  0.54884777  1
  Ni  Ni2  1  0.75000000  0.58269697  0.04884777  1
  Ni  Ni3  1  0.25000000  0.41730303  0.95115223  1
  Ni  Ni4  1  0.25000000  0.95626442  0.12218616  1
  Ni  Ni5  1  0.75000000  0.04373558  0.87781384  1
  Ni  Ni6  1  0.25000000  0.45626442  0.37781384  1
  Ni  Ni7  1  0.75000000  0.54373558  0.62218616  1
  P  P0  1  0.25000000  0.14505765  0.94998270  1
  P  P1  1  0.75000000  0.85494235  0.05001730  1
  P  P2  1  0.25000000  0.64505765  0.55001730  1
  P  P3  1  0.75000000  0.35494235  0.44998270  1
  P  P4  1  0.25000000  0.52701124  0.16094599  1
  P  P5  1  0.75000000  0.47298876  0.83905401  1
  P  P6  1  0.25000000  0.02701124  0.33905401  1
  P  P7  1  0.75000000  0.97298876  0.66094599  1
loop_
_geom_bond_atom_site_label_1
_geom_bond_atom_site_label_2
_geom_bond_distance
_geom_bond_site_symmetry_2
Ni0 P7 2.240644 1_545
Ni0 P3 2.258645 1_555
Ni0 P6 2.286879 1_555
Ni0 P6 2.286879 1_655
Ni0 Th3 3.041224 1_555
Ni0 Th1 3.078302 1_545
Ni0 Th0 3.245313 1_555
Ni0 Th0 3.245313 1_655
Ni1 P6 2.240644 1_565
Ni1 P2 2.258645 1_555
Ni1 P7 2.286879 1_555
Ni1 P7 2.286879 1_455
Ni1 Th2 3.041224 1_555
Ni1 Th0 3.078302 1_565
Ni1 Th1 3.245313 1_455
Ni1 Th1 3.245313 1_555
Ni2 P5 2.240644 1_554
Ni2 P1 2.258645 1_555
Ni2 P4 2.286879 1_555
Ni2 P4 2.286879 1_655
Ni2 Th1 3.041224 1_555
Ni2 Th3 3.078302 1_555
Ni2 Th2 3.245313 1_554
Ni2 Th2 3.245313 1_654
Ni3 P4 2.240644 1_556
Ni3 P0 2.258645 1_555
Ni3 P5 2.286879 1_455
Ni3 P5 2.286879 1_555
Ni3 Th0 3.041224 1_555
Ni3 Th2 3.078302 1_555
Ni3 Th3 3.245313 1_456
Ni3 Th3 3.245313 1_556
Ni4 P6 2.196371 1_565
Ni4 P1 2.241027 1_455
Ni4 P1 2.241027 1_555
Ni4 P0 2.297310 1_564
Ni4 Th3 3.094036 1_565
Ni4 Th3 3.094036 1_465
Ni4 Th2 3.280563 1_554
Ni4 Th1 3.341727 1_555
Ni4 Th1 3.341727 1_455
Ni5 P7 2.196371 1_545
Ni5 P0 2.241027 1_555
Ni5 P0 2.241027 1_655
Ni5 P1 2.297310 1_546
Ni5 Th2 3.094036 1_645
Ni5 Th2 3.094036 1_545
Ni5 Th3 3.280563 1_556
Ni5 Th0 3.341727 1_655
Ni5 Th0 3.341727 1_555
Ni6 P4 2.196371 1_555
Ni6 P3 2.241027 1_455
Ni6 P3 2.241027 1_555
Ni6 P2 2.297310 1_555
Ni6 Th1 3.094036 1_455
Ni6 Th1 3.094036 1_555
Ni6 Th0 3.280563 1_555
Ni6 Th3 3.341727 1_555
Ni6 Th3 3.341727 1_455
Ni7 P5 2.196371 1_555
Ni7 P2 2.241027 1_555
Ni7 P2 2.241027 1_655
Ni7 P3 2.297310 1_555
Ni7 Th0 3.094036 1_555
Ni7 Th0 3.094036 1_655
Ni7 Th1 3.280563 1_555
Ni7 Th2 3.341727 1_655
Ni7 Th2 3.341727 1_555
P0 Th0 2.897373 1_555
P0 Th3 3.005914 1_456
P0 Th3 3.005914 1_556
P0 Th2 3.400804 1_545
P1 Th1 2.897373 1_555
P1 Th2 3.005914 1_554
P1 Th2 3.005914 1_654
P1 Th3 3.400804 1_565
P2 Th2 2.897373 1_555
P2 Th1 3.005914 1_555
P2 Th1 3.005914 1_455
P2 Th0 3.400804 1_555
P3 Th3 2.897373 1_555
P3 Th0 3.005914 1_555
P3 Th0 3.005914 1_655
P3 Th1 3.400804 1_555
P4 Th3 3.081990 1_455
P4 Th3 3.081990 1_555
P4 Th1 3.110192 1_455
P4 Th1 3.110192 1_555
P5 Th2 3.081990 1_655
P5 Th2 3.081990 1_555
P5 Th0 3.110192 1_555
P5 Th0 3.110192 1_655
P6 Th1 3.081990 1_545
P6 Th1 3.081990 1_445
P6 Th3 3.110192 1_455
P6 Th3 3.110192 1_555
P7 Th0 3.081990 1_565
P7 Th0 3.081990 1_665
P7 Th2 3.110192 1_555
P7 Th2 3.110192 1_655
