# generated using pymatgen
data_Cs2Na8U8Mo5O44
_symmetry_space_group_name_H-M   'P 1'
_cell_length_a   6.95013500
_cell_length_b   12.75057700
_cell_length_c   13.88527548
_cell_angle_alpha   62.66836067
_cell_angle_beta   75.50650959
_cell_angle_gamma   90.00000000
_symmetry_Int_Tables_number   1
_chemical_formula_structural   Cs2Na8U8Mo5O44
_chemical_formula_sum   'Cs2 Na8 U8 Mo5 O44'
_cell_volume   1048.84639575
_cell_formula_units_Z   1
loop_
 _symmetry_equiv_pos_site_id
 _symmetry_equiv_pos_as_xyz
  1  'x, y, z'
loop_
 _atom_site_type_symbol
 _atom_site_label
 _atom_site_symmetry_multiplicity
 _atom_site_fract_x
 _atom_site_fract_y
 _atom_site_fract_z
 _atom_site_occupancy
  Cs  Cs0  1  0.50000000  0.25000000  0.00000000  1
  Cs  Cs1  1  0.50000000  0.75000000  0.00000000  1
  Na  Na0  1  0.29712100  0.54712100  0.40575700  1
  Na  Na1  1  0.70287900  0.95287900  0.59424300  1
  Na  Na2  1  0.70334400  0.45334400  0.59331200  1
  Na  Na3  1  0.29665600  0.04665600  0.40668800  1
  Na  Na4  1  0.13883200  0.38883200  0.72233600  1
  Na  Na5  1  0.86116800  0.11116800  0.27766400  1
  Na  Na6  1  0.86735900  0.61735900  0.26528200  1
  Na  Na7  1  0.13264100  0.88264100  0.73471800  1
  U  U0  1  0.81457900  0.62139500  0.75264700  1
  U  U1  1  0.18542100  0.37404200  0.24735300  1
  U  U2  1  0.43277400  0.12595800  0.75264700  1
  U  U3  1  0.56722600  0.87860500  0.24735300  1
  U  U4  1  0.37717600  0.71390700  0.56975400  1
  U  U5  1  0.62282400  0.28366200  0.43024600  1
  U  U6  1  0.05307000  0.21633800  0.56975400  1
  U  U7  1  0.94693000  0.78609300  0.43024600  1
  Mo  Mo0  1  0.21390700  0.56884700  0.90083200  1
  Mo  Mo1  1  0.78609300  0.46967900  0.09916800  1
  Mo  Mo2  1  0.88526100  0.03032100  0.90083200  1
  Mo  Mo3  1  0.11473900  0.93115300  0.09916800  1
  Mo  Mo4  1  0.00000000  0.25000000  0.00000000  1
  O  O0  1  0.37456000  0.56668900  0.56743900  1
  O  O1  1  0.62544000  0.13412800  0.43256100  1
  O  O2  1  0.05800100  0.36587200  0.56743900  1
  O  O3  1  0.94199900  0.93331100  0.43256100  1
  O  O4  1  0.62836300  0.43277900  0.42831800  1
  O  O5  1  0.37163700  0.86109700  0.57168200  1
  O  O6  1  0.94331800  0.63890300  0.42831800  1
  O  O7  1  0.05668200  0.06722100  0.57168200  1
  O  O8  1  0.81850300  0.76815400  0.75278400  1
  O  O9  1  0.18149700  0.52093800  0.24721600  1
  O  O10  1  0.42871300  0.97906200  0.75278400  1
  O  O11  1  0.57128700  0.73184600  0.24721600  1
  O  O12  1  0.18131800  0.22692300  0.24835200  1
  O  O13  1  0.81868200  0.47527500  0.75164800  1
  O  O14  1  0.57033000  0.02472500  0.24835200  1
  O  O15  1  0.42967000  0.27307700  0.75164800  1
  O  O16  1  0.11849600  0.46812600  0.06091200  1
  O  O17  1  0.88150400  0.52903800  0.93908800  1
  O  O18  1  0.82059100  0.97096200  0.06091200  1
  O  O19  1  0.17940900  0.03187400  0.93908800  1
  O  O20  1  0.48044600  0.55948200  0.87108800  1
  O  O21  1  0.51955400  0.43057000  0.12891200  1
  O  O22  1  0.64846600  0.06943000  0.87108800  1
  O  O23  1  0.35153400  0.94051800  0.12891200  1
  O  O24  1  0.04296200  0.70693600  0.58660400  1
  O  O25  1  0.95703800  0.29354000  0.41339600  1
  O  O26  1  0.37043400  0.20646000  0.58660400  1
  O  O27  1  0.62956600  0.79306400  0.41339600  1
  O  O28  1  0.18600400  0.37788300  0.90754300  1
  O  O29  1  0.81399600  0.28542500  0.09245700  1
  O  O30  1  0.90645300  0.21457500  0.90754300  1
  O  O31  1  0.09354700  0.12211700  0.09245700  1
  O  O32  1  0.79583000  0.60272700  0.10610200  1
  O  O33  1  0.20417000  0.70883000  0.89389800  1
  O  O34  1  0.09806800  0.79117000  0.10610200  1
  O  O35  1  0.90193200  0.89727300  0.89389800  1
  O  O36  1  0.64482600  0.68511600  0.62883700  1
  O  O37  1  0.35517400  0.31395300  0.37116300  1
  O  O38  1  0.72633700  0.18604700  0.62883700  1
  O  O39  1  0.27366300  0.81488400  0.37116300  1
  O  O40  1  0.17596700  0.61117000  0.75682600  1
  O  O41  1  0.82403300  0.36799600  0.24317400  1
  O  O42  1  0.06720700  0.13200400  0.75682600  1
  O  O43  1  0.93279300  0.88883000  0.24317400  1
loop_
_geom_bond_atom_site_label_1
_geom_bond_atom_site_label_2
_geom_bond_distance
_geom_bond_site_symmetry_2
Cs0 O30 2.923945 1_554
Cs0 O29 2.923946 1_555
Cs0 O31 2.923950 1_555
Cs0 O28 2.923950 1_554
Cs0 O12 3.482695 1_555
Cs0 O13 3.482695 1_554
Cs0 O15 3.482695 1_554
Cs0 O14 3.482695 1_555
Cs0 O22 3.525562 1_554
Cs0 O21 3.525562 1_555
Cs0 O23 3.525562 1_545
Cs0 O20 3.525562 1_554
Cs1 O34 2.983250 1_555
Cs1 O33 2.983250 1_554
Cs1 O35 2.983255 1_554
Cs1 O32 2.983255 1_555
Cs1 O8 3.493403 1_554
Cs1 O9 3.493403 1_555
Cs1 O11 3.493403 1_555
Cs1 O10 3.493404 1_554
Cs1 O23 3.638440 1_555
Cs1 O20 3.638440 1_554
Cs1 O22 3.638440 1_564
Cs1 O21 3.638440 1_555
Na0 O2 2.551676 1_555
Na0 O0 2.551686 1_555
Na0 O9 2.676504 1_555
Na0 O11 2.676514 1_555
Na0 O4 2.732269 1_555
Na0 O6 2.732275 1_455
Na1 O1 2.551679 1_565
Na1 O3 2.551683 1_555
Na1 O10 2.676508 1_555
Na1 O8 2.676511 1_555
Na1 O7 2.732269 1_665
Na1 O5 2.732275 1_555
Na2 O6 2.595799 1_555
Na2 O4 2.595802 1_555
Na2 O15 2.645948 1_555
Na2 O13 2.645948 1_555
Na2 O2 2.715418 1_655
Na2 O0 2.715418 1_555
Na3 O7 2.595799 1_555
Na3 O5 2.595802 1_545
Na3 O14 2.645948 1_555
Na3 O12 2.645948 1_555
Na3 O3 2.715418 1_445
Na3 O1 2.715418 1_555
Na4 O2 2.492024 1_555
Na4 O0 2.492024 1_555
Na4 O13 2.508015 1_455
Na4 O15 2.508015 1_555
Na4 O30 2.613938 1_455
Na4 O28 2.613943 1_555
Na5 O1 2.492024 1_555
Na5 O3 2.492024 1_545
Na5 O12 2.508015 1_655
Na5 O14 2.508015 1_555
Na5 O29 2.613938 1_555
Na5 O31 2.613943 1_655
Na6 O34 2.468971 1_655
Na6 O32 2.468977 1_555
Na6 O9 2.519975 1_655
Na6 O11 2.519975 1_555
Na6 O6 2.578411 1_555
Na6 O4 2.578414 1_555
Na7 O33 2.468971 1_555
Na7 O35 2.468977 1_455
Na7 O8 2.519975 1_455
Na7 O10 2.519975 1_555
Na7 O7 2.578411 1_565
Na7 O5 2.578414 1_555
Mo0 O33 1.745006 1_555
Mo0 O20 1.810760 1_555
Mo0 O40 1.905792 1_555
Mo0 O16 1.915880 1_556
Mo0 O17 2.239463 1_455
Mo0 O28 2.399508 1_555
Mo1 O32 1.744993 1_555
Mo1 O21 1.810760 1_555
Mo1 O41 1.905792 1_555
Mo1 O17 1.915880 1_554
Mo1 O16 2.239463 1_655
Mo1 O29 2.399521 1_555
Mo2 O35 1.744993 1_545
Mo2 O22 1.810760 1_555
Mo2 O42 1.905792 1_655
Mo2 O18 1.915879 1_546
Mo2 O19 2.239470 1_655
Mo2 O30 2.399521 1_555
Mo3 O34 1.745006 1_555
Mo3 O23 1.810760 1_555
Mo3 O43 1.905792 1_455
Mo3 O19 1.915879 1_564
Mo3 O18 2.239470 1_455
Mo3 O31 2.399508 1_565
Mo4 O29 1.795865 1_455
Mo4 O30 1.795865 1_454
Mo4 O28 1.795872 1_554
Mo4 O31 1.795873 1_555
O0 U4 1.892253 1_555
O1 U5 1.892266 1_555
O2 U6 1.892266 1_555
O3 U7 1.892253 1_555
O4 U5 1.889442 1_555
O5 U4 1.889454 1_555
O6 U7 1.889454 1_555
O7 U6 1.889442 1_555
O8 U0 1.872342 1_555
O9 U1 1.872342 1_555
O10 U2 1.872342 1_565
O11 U3 1.872342 1_555
O12 U1 1.869688 1_555
O13 U0 1.869688 1_555
O14 U3 1.869688 1_545
O15 U2 1.869688 1_555
O16 U1 2.471476 1_555
O17 U0 2.471476 1_555
O18 U3 2.471473 1_555
O19 U2 2.471473 1_555
O20 U0 2.370013 1_555
O21 U1 2.370013 1_555
O22 U2 2.370013 1_555
O23 U3 2.370013 1_555
O24 U0 2.209923 1_455
O24 U7 2.211522 1_455
O24 U4 2.273119 1_555
O25 U1 2.209923 1_655
O25 U6 2.211522 1_655
O25 U5 2.273119 1_555
O26 U2 2.209923 1_555
O26 U5 2.211522 1_555
O26 U6 2.273119 1_555
O27 U3 2.209923 1_555
O27 U4 2.211522 1_555
O27 U7 2.273119 1_555
O36 U0 2.177176 1_555
O36 U4 2.180702 1_555
O36 U7 2.740772 1_555
O37 U1 2.177176 1_555
O37 U5 2.180702 1_555
O37 U6 2.740771 1_555
O38 U2 2.177175 1_555
O38 U6 2.180702 1_655
O38 U5 2.740772 1_555
O39 U3 2.177175 1_555
O39 U7 2.180702 1_455
O39 U4 2.740772 1_555
O40 U4 2.340091 1_555
O40 U0 2.528830 1_455
O41 U5 2.340092 1_555
O41 U1 2.528830 1_655
O42 U6 2.340092 1_555
O42 U2 2.528830 1_555
O43 U7 2.340091 1_555
O43 U3 2.528830 1_555
