# generated using pymatgen
data_MgCr(SiO3)2
_symmetry_space_group_name_H-M   'P 1'
_cell_length_a   9.37478300
_cell_length_b   5.38160900
_cell_length_c   9.54564411
_cell_angle_alpha   79.80871434
_cell_angle_beta   90.00000000
_cell_angle_gamma   90.00000000
_symmetry_Int_Tables_number   1
_chemical_formula_structural   MgCr(SiO3)2
_chemical_formula_sum   'Mg4 Cr4 Si8 O24'
_cell_volume   473.99297579
_cell_formula_units_Z   4
loop_
 _symmetry_equiv_pos_site_id
 _symmetry_equiv_pos_as_xyz
  1  'x, y, z'
loop_
 _atom_site_type_symbol
 _atom_site_label
 _atom_site_symmetry_multiplicity
 _atom_site_fract_x
 _atom_site_fract_y
 _atom_site_fract_z
 _atom_site_occupancy
  Mg  Mg0  1  0.00224900  0.48838600  0.24750400  1
  Mg  Mg1  1  0.99775100  0.51161400  0.75249600  1
  Mg  Mg2  1  0.50224900  0.01161400  0.75249600  1
  Mg  Mg3  1  0.49775100  0.98838600  0.24750400  1
  Cr  Cr0  1  0.35153100  0.48806700  0.25197400  1
  Cr  Cr1  1  0.64846900  0.51193300  0.74802600  1
  Cr  Cr2  1  0.85153100  0.01193300  0.74802600  1
  Cr  Cr3  1  0.14846900  0.98806700  0.25197400  1
  Si  Si0  1  0.83832900  0.23928400  0.04543000  1
  Si  Si1  1  0.16167100  0.76071600  0.95457000  1
  Si  Si2  1  0.33832900  0.26071600  0.95457000  1
  Si  Si3  1  0.66167100  0.73928400  0.04543000  1
  Si  Si4  1  0.16276500  0.21877600  0.54635400  1
  Si  Si5  1  0.83723500  0.78122400  0.45364600  1
  Si  Si6  1  0.66276500  0.28122400  0.45364600  1
  Si  Si7  1  0.33723500  0.71877600  0.54635400  1
  O  O0  1  0.98974900  0.22644200  0.12588900  1
  O  O1  1  0.01025100  0.77355800  0.87411100  1
  O  O2  1  0.48974900  0.27355800  0.87411100  1
  O  O3  1  0.51025100  0.72644200  0.12588900  1
  O  O4  1  0.34727000  0.20903500  0.12941600  1
  O  O5  1  0.65273000  0.79096500  0.87058400  1
  O  O6  1  0.84727000  0.29096500  0.87058400  1
  O  O7  1  0.15273000  0.70903500  0.12941600  1
  O  O8  1  0.27754400  0.42489600  0.59268000  1
  O  O9  1  0.72245600  0.57510400  0.40732000  1
  O  O10  1  0.77754400  0.07510400  0.40732000  1
  O  O11  1  0.22245600  0.92489600  0.59268000  1
  O  O12  1  0.15035500  0.27317700  0.37093500  1
  O  O13  1  0.84964500  0.72682300  0.62906500  1
  O  O14  1  0.65035500  0.22682300  0.62906500  1
  O  O15  1  0.34964500  0.77317700  0.37093500  1
  O  O16  1  0.75892300  0.48331200  0.09855700  1
  O  O17  1  0.24107700  0.51668800  0.90144300  1
  O  O18  1  0.25892300  0.01668800  0.90144300  1
  O  O19  1  0.74107700  0.98331200  0.09855700  1
  O  O20  1  0.51831100  0.24658500  0.36825000  1
  O  O21  1  0.48168900  0.75341500  0.63175000  1
  O  O22  1  0.01831100  0.25341500  0.63175000  1
  O  O23  1  0.98168900  0.74658500  0.36825000  1
loop_
_geom_bond_atom_site_label_1
_geom_bond_atom_site_label_2
_geom_bond_distance
_geom_bond_site_symmetry_2
Mg0 O23 1.965493 1_455
Mg0 O0 1.981845 1_455
Mg0 O12 2.043164 1_555
Mg0 O7 2.048696 1_555
Mg1 O22 1.965493 1_655
Mg1 O1 1.981845 1_655
Mg1 O13 2.043164 1_555
Mg1 O6 2.048696 1_555
Mg2 O21 1.965493 1_545
Mg2 O2 1.981845 1_555
Mg2 O14 2.043164 1_555
Mg2 O5 2.048696 1_545
Mg3 O20 1.965493 1_565
Mg3 O3 1.981845 1_555
Mg3 O15 2.043164 1_555
Mg3 O4 2.048696 1_565
Cr0 O4 2.060787 1_555
Cr0 O15 2.064123 1_555
Cr0 O3 2.182182 1_555
Cr0 O20 2.203404 1_555
Cr0 O12 2.391463 1_555
Cr0 O7 2.400812 1_555
Cr1 O5 2.060787 1_555
Cr1 O14 2.064123 1_555
Cr1 O2 2.182182 1_555
Cr1 O21 2.203404 1_555
Cr1 O13 2.391463 1_555
Cr1 O6 2.400812 1_555
Cr2 O6 2.060787 1_555
Cr2 O13 2.064123 1_545
Cr2 O1 2.182182 1_645
Cr2 O22 2.203404 1_655
Cr2 O14 2.391463 1_555
Cr2 O5 2.400812 1_545
Cr3 O7 2.060787 1_555
Cr3 O12 2.064123 1_565
Cr3 O0 2.182182 1_465
Cr3 O23 2.203404 1_455
Cr3 O15 2.391463 1_555
Cr3 O4 2.400812 1_565
O0 Si0 1.609637 1_555
O1 Si1 1.609637 1_555
O2 Si2 1.609637 1_555
O3 Si3 1.609637 1_555
O4 Si2 1.644912 1_554
O5 Si3 1.644912 1_556
O6 Si0 1.644912 1_556
O7 Si1 1.644912 1_554
O8 Si4 1.660549 1_555
O8 Si7 1.662075 1_555
O9 Si5 1.660549 1_555
O9 Si6 1.662075 1_555
O10 Si6 1.660549 1_555
O10 Si5 1.662075 1_545
O11 Si7 1.660549 1_555
O11 Si4 1.662075 1_565
O12 Si4 1.652173 1_555
O13 Si5 1.652173 1_555
O14 Si6 1.652173 1_555
O15 Si7 1.652173 1_555
O16 Si3 1.654937 1_555
O16 Si0 1.664834 1_555
O17 Si2 1.654937 1_555
O17 Si1 1.664834 1_555
O18 Si1 1.654937 1_545
O18 Si2 1.664834 1_555
O19 Si0 1.654937 1_565
O19 Si3 1.664834 1_555
O20 Si6 1.608395 1_555
O21 Si7 1.608395 1_555
O22 Si4 1.608395 1_555
O23 Si5 1.608395 1_555
