# generated using pymatgen
data_YNiGe
_symmetry_space_group_name_H-M   'P 1'
_cell_length_a   5.53096063
_cell_length_b   5.53096063
_cell_length_c   6.87509624
_cell_angle_alpha   51.71924958
_cell_angle_beta   51.71924958
_cell_angle_gamma   43.93814781
_symmetry_Int_Tables_number   1
_chemical_formula_structural   YNiGe
_chemical_formula_sum   'Y2 Ni2 Ge2'
_cell_volume   108.59756062
_cell_formula_units_Z   2
loop_
 _symmetry_equiv_pos_site_id
 _symmetry_equiv_pos_as_xyz
  1  'x, y, z'
loop_
 _atom_site_type_symbol
 _atom_site_label
 _atom_site_symmetry_multiplicity
 _atom_site_fract_x
 _atom_site_fract_y
 _atom_site_fract_z
 _atom_site_occupancy
  Y  Y0  1  0.54969900  0.54969900  0.69162200  1
  Y  Y1  1  0.45030100  0.45030100  0.30837800  1
  Ni  Ni0  1  0.17064700  0.17064700  0.27368900  1
  Ni  Ni1  1  0.82935300  0.82935300  0.72631100  1
  Ge  Ge0  1  0.82798100  0.82798100  0.10751500  1
  Ge  Ge1  1  0.17201900  0.17201900  0.89248500  1
loop_
_geom_bond_atom_site_label_1
_geom_bond_atom_site_label_2
_geom_bond_distance
_geom_bond_site_symmetry_2
Ni0 Ni1 2.717632 1_445
Ni0 Y1 2.954274 1_455
Ni0 Y1 2.954274 1_545
Ni0 Y1 3.033391 1_555
Ni0 Y0 3.051851 1_455
Ni0 Y0 3.051851 1_545
Ni0 Y0 3.216317 1_554
Ni1 Y0 2.954274 1_565
Ni1 Y0 2.954274 1_655
Ni1 Y0 3.033391 1_555
Ni1 Y1 3.051851 1_655
Ni1 Y1 3.051851 1_565
Ni1 Y1 3.216317 1_556
Ge0 Ni0 2.393355 1_655
Ge0 Ni0 2.393355 1_565
Ge0 Ni1 2.611433 1_554
Ge0 Ge1 2.769651 1_664
Ge0 Y0 2.990231 1_564
Ge0 Y0 2.990231 1_654
Ge0 Y0 2.993268 1_555
Ge0 Y1 3.125737 1_555
Ge0 Y1 3.174634 1_565
Ge0 Y1 3.174634 1_655
Ge1 Ni1 2.393355 1_455
Ge1 Ni1 2.393355 1_545
Ge1 Ni0 2.611433 1_556
Ge1 Y1 2.990231 1_546
Ge1 Y1 2.990231 1_456
Ge1 Y1 2.993268 1_555
Ge1 Y0 3.125737 1_555
Ge1 Y0 3.174634 1_545
Ge1 Y0 3.174634 1_455
