# generated using pymatgen
data_SrPPt
_symmetry_space_group_name_H-M   'P 1'
_cell_length_a   4.10517984
_cell_length_b   4.10517984
_cell_length_c   4.52264613
_cell_angle_alpha   90.00000000
_cell_angle_beta   90.00000000
_cell_angle_gamma   120.00001553
_symmetry_Int_Tables_number   1
_chemical_formula_structural   SrPPt
_chemical_formula_sum   'Sr1 P1 Pt1'
_cell_volume   66.00662808
_cell_formula_units_Z   1
loop_
 _symmetry_equiv_pos_site_id
 _symmetry_equiv_pos_as_xyz
  1  'x, y, z'
loop_
 _atom_site_type_symbol
 _atom_site_label
 _atom_site_symmetry_multiplicity
 _atom_site_fract_x
 _atom_site_fract_y
 _atom_site_fract_z
 _atom_site_occupancy
  Sr  Sr0  1  0.66666700  0.33333300  0.00000000  1
  P  P0  1  0.33333300  0.66666700  0.50000000  1
  Pt  Pt0  1  0.00000000  -0.00000000  0.50000000  1
loop_
_geom_bond_atom_site_label_1
_geom_bond_atom_site_label_2
_geom_bond_distance
_geom_bond_site_symmetry_2
P0 Pt0 2.370125 1_565
P0 Pt0 2.370128 1_665
P0 Pt0 2.370128 1_555
P0 Sr0 3.275831 1_455
P0 Sr0 3.275831 1_456
P0 Sr0 3.275831 1_565
P0 Sr0 3.275831 1_566
P0 Sr0 3.275837 1_555
P0 Sr0 3.275837 1_556
Pt0 Sr0 3.275832 1_456
Pt0 Sr0 3.275832 1_455
Pt0 Sr0 3.275834 1_555
Pt0 Sr0 3.275834 1_556
Pt0 Sr0 3.275834 1_445
Pt0 Sr0 3.275834 1_446
