# generated using pymatgen
data_Ga3Ni2
_symmetry_space_group_name_H-M   'P 1'
_cell_length_a   4.01089876
_cell_length_b   4.01089698
_cell_length_c   4.86488096
_cell_angle_alpha   90.00000000
_cell_angle_beta   90.00000000
_cell_angle_gamma   119.99999819
_symmetry_Int_Tables_number   1
_chemical_formula_structural   Ga3Ni2
_chemical_formula_sum   'Ga3 Ni2'
_cell_volume   67.77758101
_cell_formula_units_Z   1
loop_
 _symmetry_equiv_pos_site_id
 _symmetry_equiv_pos_as_xyz
  1  'x, y, z'
loop_
 _atom_site_type_symbol
 _atom_site_label
 _atom_site_symmetry_multiplicity
 _atom_site_fract_x
 _atom_site_fract_y
 _atom_site_fract_z
 _atom_site_occupancy
  Ga  Ga0  1  0.66666700  0.33333300  0.36004051  1
  Ga  Ga1  1  0.33333300  0.66666700  0.63995949  1
  Ga  Ga2  1  0.00000000  -0.00000000  -0.00000000  1
  Ni  Ni0  1  0.66666700  0.33333300  0.85756033  1
  Ni  Ni1  1  0.33333300  0.66666700  0.14243967  1
loop_
_geom_bond_atom_site_label_1
_geom_bond_atom_site_label_2
_geom_bond_distance
_geom_bond_site_symmetry_2
Ga0 Ni0 2.420375 1_555
Ga0 Ni0 2.444506 1_554
Ga0 Ni1 2.546185 1_545
Ga0 Ni1 2.546186 1_655
Ga0 Ni1 2.546192 1_555
Ga0 Ga1 2.686419 1_545
Ga0 Ga1 2.686420 1_655
Ga0 Ga1 2.686425 1_555
Ga0 Ga2 2.903509 1_655
Ga0 Ga2 2.903512 1_665
Ga0 Ga2 2.903512 1_555
Ga1 Ni1 2.420375 1_555
Ga1 Ni1 2.444506 1_556
Ga1 Ni0 2.546185 1_565
Ga1 Ni0 2.546186 1_455
Ga1 Ni0 2.546192 1_555
Ga1 Ga2 2.903509 1_566
Ga1 Ga2 2.903512 1_556
Ga1 Ga2 2.903512 1_666
Ga2 Ni0 2.417148 1_454
Ga2 Ni1 2.417148 1_545
Ga2 Ni1 2.417151 1_555
Ga2 Ni0 2.417151 1_444
Ga2 Ni0 2.417152 1_554
Ga2 Ni1 2.417152 1_445
Ni0 Ni1 2.698731 1_546
Ni0 Ni1 2.698732 1_656
Ni0 Ni1 2.698738 1_556
