# generated using pymatgen
data_ScGa2
_symmetry_space_group_name_H-M   'P 1'
_cell_length_a   4.27069655
_cell_length_b   5.41707842
_cell_length_c   5.41707751
_cell_angle_alpha   75.18822561
_cell_angle_beta   66.78465301
_cell_angle_gamma   66.78464973
_symmetry_Int_Tables_number   1
_chemical_formula_structural   ScGa2
_chemical_formula_sum   'Sc2 Ga4'
_cell_volume   105.10091344
_cell_formula_units_Z   2
loop_
 _symmetry_equiv_pos_site_id
 _symmetry_equiv_pos_as_xyz
  1  'x, y, z'
loop_
 _atom_site_type_symbol
 _atom_site_label
 _atom_site_symmetry_multiplicity
 _atom_site_fract_x
 _atom_site_fract_y
 _atom_site_fract_z
 _atom_site_occupancy
  Sc  Sc0  1  0.51532128  0.73467872  0.23467872  1
  Sc  Sc1  1  0.48467872  0.26532128  0.76532128  1
  Ga  Ga0  1  0.16584276  0.31899645  0.34931703  1
  Ga  Ga1  1  0.83415724  0.68100355  0.65068297  1
  Ga  Ga2  1  0.16584276  0.84931703  0.81899645  1
  Ga  Ga3  1  0.83415724  0.15068297  0.18100355  1
loop_
_geom_bond_atom_site_label_1
_geom_bond_atom_site_label_2
_geom_bond_distance
_geom_bond_site_symmetry_2
Sc0 Sc1 3.312631 1_555
Sc0 Sc1 3.312632 1_564
Ga0 Ga3 2.476021 1_455
Ga0 Ga3 2.476029 1_555
Ga0 Ga1 2.478107 1_455
Ga0 Sc1 2.951069 1_554
Ga0 Sc1 2.964626 1_455
Ga0 Sc1 2.964628 1_555
Ga0 Sc0 2.981220 1_455
Ga0 Sc0 2.981223 1_555
Ga0 Sc0 3.030208 1_545
Ga0 Ga2 3.104358 1_545
Ga1 Ga2 2.476021 1_655
Ga1 Ga2 2.476029 1_555
Ga1 Sc0 2.951069 1_556
Ga1 Sc0 2.964626 1_655
Ga1 Sc0 2.964628 1_555
Ga1 Sc1 2.981220 1_655
Ga1 Sc1 2.981223 1_555
Ga1 Sc1 3.030208 1_565
Ga1 Ga3 3.104358 1_565
Ga2 Ga3 2.478107 1_466
Ga2 Sc1 2.951070 1_555
Ga2 Sc1 2.964626 1_465
Ga2 Sc1 2.964629 1_565
Ga2 Sc0 2.981220 1_456
Ga2 Sc0 2.981223 1_556
Ga2 Sc0 3.030208 1_555
Ga3 Sc0 2.951070 1_555
Ga3 Sc0 2.964626 1_645
Ga3 Sc0 2.964629 1_545
Ga3 Sc1 2.981220 1_654
Ga3 Sc1 2.981223 1_554
Ga3 Sc1 3.030208 1_555
