# generated using pymatgen
data_CeThSi4
_symmetry_space_group_name_H-M   'P 1'
_cell_length_a   7.69582393
_cell_length_b   7.69582393
_cell_length_c   7.69582393
_cell_angle_alpha   148.93543769
_cell_angle_beta   148.93543769
_cell_angle_gamma   44.50634724
_symmetry_Int_Tables_number   1
_chemical_formula_structural   CeThSi4
_chemical_formula_sum   'Ce1 Th1 Si4'
_cell_volume   120.99607789
_cell_formula_units_Z   1
loop_
 _symmetry_equiv_pos_site_id
 _symmetry_equiv_pos_as_xyz
  1  'x, y, z'
loop_
 _atom_site_type_symbol
 _atom_site_label
 _atom_site_symmetry_multiplicity
 _atom_site_fract_x
 _atom_site_fract_y
 _atom_site_fract_z
 _atom_site_occupancy
  Ce  Ce0  1  0.25000000  0.75000000  0.50000000  1
  Th  Th0  1  0.00000000  0.00000000  0.00000000  1
  Si  Si0  1  0.66740749  0.16740749  0.50000000  1
  Si  Si1  1  0.58423633  0.58423633  0.00000000  1
  Si  Si2  1  0.83259251  0.33259251  0.50000000  1
  Si  Si3  1  0.41576367  0.41576367  -0.00000000  1
loop_
_geom_bond_atom_site_label_1
_geom_bond_atom_site_label_2
_geom_bond_distance
_geom_bond_site_symmetry_2
Ce0 Si3 3.134143 1_555
Ce0 Si1 3.134143 1_455
Ce0 Si3 3.134143 1_566
Ce0 Si1 3.134143 1_556
Ce0 Si2 3.142936 1_555
Ce0 Si2 3.142936 1_465
Ce0 Si2 3.142936 1_566
Ce0 Si0 3.142936 1_555
Ce0 Si0 3.142936 1_566
Ce0 Si0 3.142936 1_465
Ce0 Si2 3.142936 1_454
Ce0 Si0 3.142936 1_454
Si0 Si2 2.353105 1_555
Si0 Si1 2.377105 1_545
Si0 Si1 2.377105 1_556
Si0 Th0 3.151823 1_656
Si0 Th0 3.151823 1_555
Si1 Si3 2.399939 1_555
Si1 Th0 3.151777 1_666
Si1 Th0 3.151777 1_655
Si1 Th0 3.151777 1_554
Si1 Th0 3.151777 1_565
Si2 Si3 2.377105 1_555
Si2 Si3 2.377105 1_656
Si2 Th0 3.151823 1_666
Si2 Th0 3.151823 1_655
Si3 Th0 3.151777 1_666
Si3 Th0 3.151777 1_655
Si3 Th0 3.151777 1_554
Si3 Th0 3.151777 1_565
