# generated using pymatgen
data_BaSrTbSnO6
_symmetry_space_group_name_H-M   'P 1'
_cell_length_a   8.55779123
_cell_length_b   8.55468137
_cell_length_c   8.56587288
_cell_angle_alpha   90.00000000
_cell_angle_beta   90.00000000
_cell_angle_gamma   90.00000000
_symmetry_Int_Tables_number   1
_chemical_formula_structural   BaSrTbSnO6
_chemical_formula_sum   'Ba4 Sr4 Tb4 Sn4 O24'
_cell_volume   627.10050558
_cell_formula_units_Z   4
loop_
 _symmetry_equiv_pos_site_id
 _symmetry_equiv_pos_as_xyz
  1  'x, y, z'
loop_
 _atom_site_type_symbol
 _atom_site_label
 _atom_site_symmetry_multiplicity
 _atom_site_fract_x
 _atom_site_fract_y
 _atom_site_fract_z
 _atom_site_occupancy
  Ba  Ba0  1  0.00000000  0.00000000  -0.00000000  1
  Ba  Ba1  1  0.50000000  0.50000000  0.50000000  1
  Ba  Ba2  1  0.00000000  0.50000000  -0.00000000  1
  Ba  Ba3  1  -0.00000000  0.00000000  0.50000000  1
  Sr  Sr0  1  -0.00000000  0.50000000  0.50000000  1
  Sr  Sr1  1  0.50000000  0.00000000  0.50000000  1
  Sr  Sr2  1  0.50000000  0.50000000  -0.00000000  1
  Sr  Sr3  1  0.50000000  0.00000000  -0.00000000  1
  Tb  Tb0  1  0.25271838  0.25011445  0.25124786  1
  Tb  Tb1  1  0.74728162  0.74988555  0.25124786  1
  Tb  Tb2  1  0.74728162  0.25011445  0.74875214  1
  Tb  Tb3  1  0.25271838  0.74988555  0.74875214  1
  Sn  Sn0  1  0.74674092  0.74964766  0.74891381  1
  Sn  Sn1  1  0.25325908  0.25035234  0.74891381  1
  Sn  Sn2  1  0.25325908  0.74964766  0.25108619  1
  Sn  Sn3  1  0.74674092  0.25035234  0.25108619  1
  O  O0  1  0.98907967  0.22810278  0.27184079  1
  O  O1  1  0.01092033  0.77189722  0.27184079  1
  O  O2  1  0.01092033  0.22810278  0.72815921  1
  O  O3  1  0.98907967  0.77189722  0.72815921  1
  O  O4  1  0.28201708  0.98978660  0.21892872  1
  O  O5  1  0.28201708  0.01021340  0.78107128  1
  O  O6  1  0.71798292  0.01021340  0.21892872  1
  O  O7  1  0.71798292  0.98978660  0.78107128  1
  O  O8  1  0.22817519  0.27379071  0.98964450  1
  O  O9  1  0.77182481  0.27379071  0.01035550  1
  O  O10  1  0.22817519  0.72620929  0.01035550  1
  O  O11  1  0.77182481  0.72620929  0.98964450  1
  O  O12  1  0.50932810  0.28589414  0.21526532  1
  O  O13  1  0.49067190  0.71410586  0.21526532  1
  O  O14  1  0.49067190  0.28589414  0.78473468  1
  O  O15  1  0.50932810  0.71410586  0.78473468  1
  O  O16  1  0.22039283  0.51010926  0.28616639  1
  O  O17  1  0.22039283  0.48989074  0.71383361  1
  O  O18  1  0.77960717  0.48989074  0.28616639  1
  O  O19  1  0.77960717  0.51010926  0.71383361  1
  O  O20  1  0.28680747  0.21619393  0.51005555  1
  O  O21  1  0.71319253  0.21619393  0.48994445  1
  O  O22  1  0.28680747  0.78380607  0.48994445  1
  O  O23  1  0.71319253  0.78380607  0.51005555  1
loop_
_geom_bond_atom_site_label_1
_geom_bond_atom_site_label_2
_geom_bond_distance
_geom_bond_site_symmetry_2
Ba0 O1 3.039515 1_545
Ba0 O2 3.039515 1_554
Ba0 O0 3.039515 1_455
Ba0 O3 3.039515 1_444
Ba0 O9 3.050684 1_455
Ba0 O8 3.050684 1_554
Ba0 O11 3.050684 1_444
Ba0 O10 3.050684 1_545
Ba0 O4 3.057638 1_545
Ba0 O6 3.057638 1_455
Ba0 O5 3.057638 1_554
Ba0 O7 3.057638 1_444
Ba1 O18 3.014645 1_555
Ba1 O19 3.014645 1_555
Ba1 O16 3.014645 1_555
Ba1 O17 3.014645 1_555
Ba1 O20 3.038193 1_555
Ba1 O23 3.038193 1_555
Ba1 O21 3.038193 1_555
Ba1 O22 3.038193 1_555
Ba1 O14 3.051210 1_555
Ba1 O15 3.051210 1_555
Ba1 O13 3.051210 1_555
Ba1 O12 3.051210 1_555
Ba2 O11 2.750565 1_454
Ba2 O8 2.750565 1_554
Ba2 O9 2.750565 1_455
Ba2 O10 2.750565 1_555
Ba2 O19 3.094101 1_454
Ba2 O16 3.094101 1_555
Ba2 O17 3.094101 1_554
Ba2 O18 3.094101 1_455
Ba2 O0 3.292589 1_455
Ba2 O2 3.292589 1_554
Ba2 O3 3.292589 1_454
Ba2 O1 3.292589 1_555
Ba3 O2 2.763349 1_555
Ba3 O3 2.763349 1_445
Ba3 O1 2.763349 1_545
Ba3 O0 2.763349 1_455
Ba3 O23 3.074447 1_445
Ba3 O21 3.074447 1_455
Ba3 O20 3.074447 1_555
Ba3 O22 3.074447 1_545
O0 Sn3 2.090175 1_555
O0 Tb0 2.270871 1_655
O0 Sr0 3.039506 1_655
O1 Sn2 2.090175 1_555
O1 Tb1 2.270871 1_455
O1 Sr0 3.039506 1_555
O2 Sn1 2.090175 1_555
O2 Tb2 2.270871 1_455
O2 Sr0 3.039506 1_555
O3 Sn0 2.090175 1_555
O3 Tb3 2.270871 1_655
O3 Sr0 3.039506 1_655
O4 Sn2 2.087257 1_555
O4 Tb0 2.258126 1_565
O4 Sr3 2.646574 1_565
O4 Sr1 3.046996 1_565
O5 Sn1 2.087257 1_555
O5 Tb3 2.258126 1_545
O5 Sr3 2.646574 1_556
O5 Sr1 3.046996 1_555
O6 Sn3 2.087257 1_555
O6 Tb1 2.258126 1_545
O6 Sr3 2.646574 1_555
O6 Sr1 3.046996 1_555
O7 Sn0 2.087257 1_555
O7 Tb2 2.258126 1_565
O7 Sr3 2.646574 1_566
O7 Sr1 3.046996 1_565
O8 Sn1 2.082885 1_555
O8 Tb0 2.259778 1_556
O8 Sr2 3.027204 1_556
O9 Sn3 2.082885 1_555
O9 Tb2 2.259778 1_554
O9 Sr2 3.027204 1_555
O10 Sn2 2.082885 1_555
O10 Tb3 2.259778 1_554
O10 Sr2 3.027204 1_555
O11 Sn0 2.082885 1_555
O11 Tb1 2.259778 1_556
O11 Sr2 3.027204 1_556
O12 Sn3 2.077142 1_555
O12 Tb0 2.238562 1_555
O12 Sr2 2.600241 1_555
O12 Sr3 3.063998 1_555
O13 Sn2 2.077142 1_555
O13 Tb1 2.238562 1_555
O13 Sr2 2.600241 1_555
O13 Sr3 3.063998 1_565
O14 Sn1 2.077142 1_555
O14 Tb2 2.238562 1_555
O14 Sr2 2.600241 1_556
O14 Sr3 3.063998 1_556
O15 Sn0 2.077142 1_555
O15 Tb3 2.238562 1_555
O15 Sr2 2.600241 1_556
O15 Sr3 3.063998 1_566
O16 Sn2 2.090101 1_555
O16 Tb0 2.261180 1_555
O16 Sr0 2.630548 1_555
O17 Sn1 2.090101 1_555
O17 Tb3 2.261180 1_555
O17 Sr0 2.630548 1_555
O18 Sn3 2.090101 1_555
O18 Tb1 2.261180 1_555
O18 Sr0 2.630548 1_655
O19 Sn0 2.090101 1_555
O19 Tb2 2.261180 1_555
O19 Sr0 2.630548 1_655
O20 Sn1 2.086637 1_555
O20 Tb0 2.254776 1_555
O20 Sr1 2.599347 1_555
O21 Sn3 2.086637 1_555
O21 Tb2 2.254776 1_555
O21 Sr1 2.599347 1_555
O22 Sn2 2.086637 1_555
O22 Tb3 2.254776 1_555
O22 Sr1 2.599347 1_565
O23 Sn0 2.086637 1_555
O23 Tb1 2.254776 1_555
O23 Sr1 2.599347 1_565
