# generated using pymatgen
data_YbInNi4
_symmetry_space_group_name_H-M   'P 1'
_cell_length_a   4.89992971
_cell_length_b   4.89992971
_cell_length_c   4.89992971
_cell_angle_alpha   60.00000000
_cell_angle_beta   60.00000000
_cell_angle_gamma   60.00000000
_symmetry_Int_Tables_number   1
_chemical_formula_structural   YbInNi4
_chemical_formula_sum   'Yb1 In1 Ni4'
_cell_volume   83.18682558
_cell_formula_units_Z   1
loop_
 _symmetry_equiv_pos_site_id
 _symmetry_equiv_pos_as_xyz
  1  'x, y, z'
loop_
 _atom_site_type_symbol
 _atom_site_label
 _atom_site_symmetry_multiplicity
 _atom_site_fract_x
 _atom_site_fract_y
 _atom_site_fract_z
 _atom_site_occupancy
  Yb  Yb0  1  0.25000000  0.25000000  0.25000000  1
  In  In0  1  0.00000000  0.00000000  0.00000000  1
  Ni  Ni0  1  0.62595888  0.62595888  0.62595888  1
  Ni  Ni1  1  0.62595888  0.62595888  0.12212235  1
  Ni  Ni2  1  0.62595888  0.12212235  0.62595888  1
  Ni  Ni3  1  0.12212235  0.62595888  0.62595888  1
loop_
_geom_bond_atom_site_label_1
_geom_bond_atom_site_label_2
_geom_bond_distance
_geom_bond_site_symmetry_2
In0 Ni2 2.870855 1_554
In0 Ni3 2.870855 1_545
In0 Ni1 2.870855 1_455
In0 Ni1 2.870855 1_545
In0 Ni2 2.870855 1_455
In0 Ni3 2.870855 1_554
In0 Ni0 2.870857 1_544
In0 Ni0 2.870857 1_454
In0 Ni0 2.870857 1_445
In0 Ni2 2.870859 1_454
In0 Ni1 2.870859 1_445
In0 Ni3 2.870859 1_544
In0 Yb0 3.000582 1_555
In0 Yb0 3.000582 1_554
In0 Yb0 3.000582 1_545
In0 Yb0 3.000582 1_455
Ni0 Ni2 2.431166 1_565
Ni0 Ni1 2.431166 1_556
Ni0 Ni3 2.431166 1_655
Ni0 Ni1 2.468764 1_555
Ni0 Ni2 2.468764 1_555
Ni0 Ni3 2.468764 1_555
Ni0 Yb0 2.874864 1_565
Ni0 Yb0 2.874864 1_556
Ni0 Yb0 2.874864 1_655
Ni1 Ni2 2.431166 1_564
Ni1 Ni3 2.431166 1_654
Ni1 Ni2 2.468764 1_555
Ni1 Ni3 2.468764 1_555
Ni1 Yb0 2.874862 1_555
Ni1 Yb0 2.874866 1_655
Ni1 Yb0 2.874866 1_565
Ni2 Ni3 2.431166 1_645
Ni2 Ni3 2.468764 1_555
Ni2 Yb0 2.874862 1_555
Ni2 Yb0 2.874866 1_556
Ni2 Yb0 2.874866 1_655
Ni3 Yb0 2.874862 1_555
Ni3 Yb0 2.874866 1_556
Ni3 Yb0 2.874866 1_565
