# generated using pymatgen
data_SmV2(FeCo)5
_symmetry_space_group_name_H-M   'P 1'
_cell_length_a   4.68545700
_cell_length_b   6.42414072
_cell_length_c   6.42414072
_cell_angle_alpha   97.52937575
_cell_angle_beta   111.38762596
_cell_angle_gamma   68.61237404
_symmetry_Int_Tables_number   1
_chemical_formula_structural   SmV2(FeCo)5
_chemical_formula_sum   'Sm1 V2 Fe5 Co5'
_cell_volume   167.65089280
_cell_formula_units_Z   1
loop_
 _symmetry_equiv_pos_site_id
 _symmetry_equiv_pos_as_xyz
  1  'x, y, z'
loop_
 _atom_site_type_symbol
 _atom_site_label
 _atom_site_symmetry_multiplicity
 _atom_site_fract_x
 _atom_site_fract_y
 _atom_site_fract_z
 _atom_site_occupancy
  Sm  Sm0  1  0.00000000  0.99875400  0.99875400  1
  V  V0  1  0.00000000  0.35935200  0.35935200  1
  V  V1  1  0.00000000  0.64112400  0.64112400  1
  Fe  Fe0  1  0.50117100  0.99871000  0.50143100  1
  Fe  Fe1  1  0.00155100  0.99871000  0.50143100  1
  Fe  Fe2  1  0.49882900  0.50143100  0.99871000  1
  Fe  Fe3  1  0.99844900  0.50143100  0.99871000  1
  Fe  Fe4  1  0.50000000  0.22795600  0.22795600  1
  Co  Co0  1  0.72781500  0.77303700  0.22866600  1
  Co  Co1  1  0.27218500  0.22866600  0.77303700  1
  Co  Co2  1  0.50000000  0.77332700  0.77332700  1
  Co  Co3  1  0.64050400  0.35824700  0.63925500  1
  Co  Co4  1  0.35949600  0.63925500  0.35824700  1
loop_
_geom_bond_atom_site_label_1
_geom_bond_atom_site_label_2
_geom_bond_distance
_geom_bond_site_symmetry_2
Sm0 V1 3.028763 1_555
Sm0 V0 3.053899 1_566
V0 V1 2.386323 1_555
Fe0 Fe1 2.340948 1_555
Fe0 Fe1 2.344509 1_655
Fe0 Fe4 2.433213 1_565
Fe0 V1 2.576746 1_655
Fe0 V0 2.595736 1_565
Fe0 Sm0 3.197491 1_655
Fe0 Sm0 3.226663 1_554
Fe1 Fe4 2.433216 1_465
Fe1 V1 2.576748 1_555
Fe1 V0 2.595734 1_565
Fe1 Sm0 3.197493 1_555
Fe1 Sm0 3.226662 1_554
Fe2 Fe3 2.340948 1_555
Fe2 Fe3 2.344509 1_455
Fe2 Fe4 2.433213 1_556
Fe2 V1 2.576746 1_555
Fe2 V0 2.595736 1_656
Fe2 Sm0 3.197491 1_555
Fe2 Sm0 3.226663 1_645
Fe3 Fe4 2.433216 1_656
Fe3 V1 2.576748 1_655
Fe3 V0 2.595734 1_656
Fe3 Sm0 3.197493 1_655
Fe3 Sm0 3.226662 1_645
Fe4 V0 2.593584 1_655
Fe4 V0 2.593584 1_555
Fe4 Sm0 3.042413 1_644
Fe4 Sm0 3.042413 1_544
Co0 Fe0 2.422505 1_555
Co0 Fe1 2.422505 1_655
Co0 Fe3 2.431408 1_554
Co0 Fe2 2.431413 1_554
Co0 V1 2.588631 1_655
Co0 V0 2.593417 1_655
Co0 Co4 2.593604 1_655
Co0 Co4 2.593608 1_555
Co0 Fe4 2.721201 1_565
Co0 Co2 2.723716 1_554
Co0 Sm0 3.032220 1_654
Co0 Sm0 3.032224 1_554
Co1 Fe2 2.422505 1_555
Co1 Fe3 2.422505 1_455
Co1 Fe1 2.431408 1_545
Co1 Fe0 2.431413 1_545
Co1 V1 2.588631 1_555
Co1 V0 2.593417 1_555
Co1 Co3 2.593604 1_455
Co1 Co3 2.593608 1_555
Co1 Fe4 2.721201 1_556
Co1 Co2 2.723716 1_545
Co1 Sm0 3.032220 1_545
Co1 Sm0 3.032224 1_645
Co2 Fe3 2.413075 1_555
Co2 Fe1 2.413075 1_555
Co2 Fe0 2.413077 1_555
Co2 Fe2 2.413077 1_555
Co2 V1 2.596524 1_555
Co2 V1 2.596524 1_655
Co2 Co3 2.610929 1_555
Co2 Co4 2.610929 1_555
Co2 Sm0 3.022116 1_555
Co2 Sm0 3.022116 1_655
Co3 Co4 2.374495 1_555
Co3 Fe4 2.582450 1_555
Co3 Fe0 2.585956 1_545
Co3 Fe1 2.585959 1_645
Co3 Fe3 2.595206 1_555
Co3 Fe2 2.595208 1_555
Co3 V0 2.879527 1_655
Co3 V0 2.879527 1_555
Co3 V1 2.889944 1_655
Co3 V1 2.889944 1_555
Co3 Sm0 3.037712 1_645
Co4 Fe4 2.582450 1_555
Co4 Fe2 2.585956 1_554
Co4 Fe3 2.585959 1_454
Co4 Fe1 2.595206 1_555
Co4 Fe0 2.595208 1_555
Co4 V0 2.879527 1_555
Co4 V0 2.879527 1_655
Co4 V1 2.889944 1_555
Co4 V1 2.889944 1_655
Co4 Sm0 3.037712 1_554
