# generated using pymatgen
data_U3TlF13
_symmetry_space_group_name_H-M   'P 1'
_cell_length_a   7.34665411
_cell_length_b   7.97701558
_cell_length_c   8.44727270
_cell_angle_alpha   90.00000000
_cell_angle_beta   90.00000000
_cell_angle_gamma   90.00000000
_symmetry_Int_Tables_number   1
_chemical_formula_structural   U3TlF13
_chemical_formula_sum   'U6 Tl2 F26'
_cell_volume   495.04713109
_cell_formula_units_Z   2
loop_
 _symmetry_equiv_pos_site_id
 _symmetry_equiv_pos_as_xyz
  1  'x, y, z'
loop_
 _atom_site_type_symbol
 _atom_site_label
 _atom_site_symmetry_multiplicity
 _atom_site_fract_x
 _atom_site_fract_y
 _atom_site_fract_z
 _atom_site_occupancy
  U  U0  1  0.10346680  0.25237087  0.62165444  1
  U  U1  1  0.89653320  0.74762913  0.12165444  1
  U  U2  1  0.89653320  0.25237087  0.12165444  1
  U  U3  1  0.10346680  0.74762913  0.62165444  1
  U  U4  1  0.38947882  0.00000000  0.95987621  1
  U  U5  1  0.61052118  0.00000000  0.45987621  1
  Tl  Tl0  1  0.60169307  0.50000000  0.76147439  1
  Tl  Tl1  1  0.39830693  0.50000000  0.26147439  1
  F  F0  1  0.38687533  0.19242509  0.50711611  1
  F  F1  1  0.61312467  0.80757491  0.00711611  1
  F  F2  1  0.61312467  0.19242509  0.00711611  1
  F  F3  1  0.38687533  0.80757491  0.50711611  1
  F  F4  1  0.09891679  0.00000000  0.49360263  1
  F  F5  1  0.90108321  0.00000000  0.99360263  1
  F  F6  1  0.04758198  0.30423203  0.36440408  1
  F  F7  1  0.95241802  0.69576797  0.86440408  1
  F  F8  1  0.95241802  0.30423203  0.86440408  1
  F  F9  1  0.04758198  0.69576797  0.36440408  1
  F  F10  1  0.27215964  0.50000000  0.58473944  1
  F  F11  1  0.72784036  0.50000000  0.08473944  1
  F  F12  1  0.06586244  0.50000000  0.11046736  1
  F  F13  1  0.93413756  0.50000000  0.61046736  1
  F  F14  1  0.19157106  0.17027604  0.09832091  1
  F  F15  1  0.80842894  0.82972396  0.59832091  1
  F  F16  1  0.80842894  0.17027604  0.59832091  1
  F  F17  1  0.19157106  0.82972396  0.09832091  1
  F  F18  1  0.13872902  0.00000000  0.77919479  1
  F  F19  1  0.86127098  0.00000000  0.27919479  1
  F  F20  1  0.53635106  0.00000000  0.73048233  1
  F  F21  1  0.46364894  0.00000000  0.23048233  1
  F  F22  1  0.32112278  0.25886434  0.81933338  1
  F  F23  1  0.67887722  0.74113566  0.31933338  1
  F  F24  1  0.67887722  0.25886434  0.31933338  1
  F  F25  1  0.32112278  0.74113566  0.81933338  1
loop_
_geom_bond_atom_site_label_1
_geom_bond_atom_site_label_2
_geom_bond_distance
_geom_bond_site_symmetry_2
F0 U5 2.283639 1_555
F0 U0 2.345197 1_555
F1 U4 2.283639 1_564
F1 U1 2.345197 1_555
F2 U4 2.283639 1_554
F2 U2 2.345197 1_555
F3 U5 2.283639 1_565
F3 U3 2.345197 1_555
F4 U0 2.285609 1_555
F4 U3 2.285609 1_545
F5 U1 2.285609 1_546
F5 U2 2.285609 1_556
F6 U0 2.249870 1_555
F6 U2 2.368002 1_455
F7 U1 2.249870 1_556
F7 U3 2.368002 1_655
F8 U2 2.249870 1_556
F8 U0 2.368002 1_655
F9 U3 2.249870 1_555
F9 U1 2.368002 1_455
F10 U0 2.352689 1_555
F10 U3 2.352689 1_555
F11 U1 2.352689 1_555
F11 U2 2.352689 1_555
F12 U1 2.336332 1_455
F12 U2 2.336332 1_455
F12 Tl1 2.755403 1_555
F13 U0 2.336332 1_655
F13 U3 2.336332 1_655
F13 Tl0 2.755403 1_555
F14 U2 2.272871 1_455
F14 U4 2.307953 1_554
F15 U3 2.272871 1_655
F15 U5 2.307953 1_565
F16 U0 2.272871 1_655
F16 U5 2.307953 1_555
F17 U1 2.272871 1_455
F17 U4 2.307953 1_564
F18 U4 2.392297 1_555
F18 U0 2.427126 1_555
F18 U3 2.427126 1_545
F19 U5 2.392297 1_555
F19 U2 2.427126 1_555
F19 U1 2.427126 1_545
F20 U4 2.217920 1_555
F20 U5 2.349932 1_555
F21 U5 2.217920 1_555
F21 U4 2.349932 1_554
F22 U0 2.312577 1_555
F22 U4 2.434281 1_555
F23 U1 2.312577 1_555
F23 U5 2.434281 1_565
F24 U2 2.312577 1_555
F24 U5 2.434281 1_555
F25 U3 2.312577 1_555
F25 U4 2.434281 1_565
