# generated using pymatgen
data_Li5Ti2Mn3O10
_symmetry_space_group_name_H-M   'P 1'
_cell_length_a   5.24043500
_cell_length_b   5.29084149
_cell_length_c   7.88874181
_cell_angle_alpha   107.95923902
_cell_angle_beta   101.11206396
_cell_angle_gamma   101.63642420
_symmetry_Int_Tables_number   1
_chemical_formula_structural   Li5Ti2Mn3O10
_chemical_formula_sum   'Li5 Ti2 Mn3 O10'
_cell_volume   196.01610292
_cell_formula_units_Z   1
loop_
 _symmetry_equiv_pos_site_id
 _symmetry_equiv_pos_as_xyz
  1  'x, y, z'
loop_
 _atom_site_type_symbol
 _atom_site_label
 _atom_site_symmetry_multiplicity
 _atom_site_fract_x
 _atom_site_fract_y
 _atom_site_fract_z
 _atom_site_occupancy
  Li  Li0  1  0.21755500  0.49517700  0.39960500  1
  Li  Li1  1  0.39263800  0.50986600  0.78450300  1
  Li  Li2  1  0.50513100  0.98884300  0.50613700  1
  Li  Li3  1  0.78548800  0.50055000  0.60375200  1
  Li  Li4  1  0.60527200  0.48553900  0.22129400  1
  Ti  Ti0  1  0.09953500  0.02904000  0.68818600  1
  Ti  Ti1  1  0.90114600  0.96928500  0.31438100  1
  Mn  Mn0  1  0.99766200  0.50006600  0.00074000  1
  Mn  Mn1  1  0.68722500  0.99043300  0.89519000  1
  Mn  Mn2  1  0.31148900  0.00835000  0.10768400  1
  O  O0  1  0.05048400  0.23248200  0.83321500  1
  O  O1  1  0.13487900  0.78574800  0.54220500  1
  O  O2  1  0.31600700  0.75186600  0.93524100  1
  O  O3  1  0.21716600  0.26120000  0.23452400  1
  O  O4  1  0.42497400  0.23435200  0.65274400  1
  O  O5  1  0.57453900  0.76303500  0.34954400  1
  O  O6  1  0.77819200  0.73816400  0.76562000  1
  O  O7  1  0.68008900  0.24747400  0.06593000  1
  O  O8  1  0.86473400  0.21106600  0.45963600  1
  O  O9  1  0.94751300  0.76641500  0.16778400  1
loop_
_geom_bond_atom_site_label_1
_geom_bond_atom_site_label_2
_geom_bond_distance
_geom_bond_site_symmetry_2
Li0 O3 1.494057 1_555
Li0 O1 1.790736 1_555
Li0 O5 2.285721 1_555
Li0 O8 2.357483 1_455
Li1 O4 1.570719 1_555
Li1 O2 1.633171 1_555
Li1 O0 2.251294 1_555
Li2 O5 1.588717 1_555
Li2 O4 1.637757 1_565
Li2 O1 2.135551 1_555
Li2 O8 2.169524 1_565
Li3 O6 1.503580 1_555
Li3 O8 1.782017 1_555
Li3 O4 2.290415 1_555
Li3 O1 2.354781 1_655
Li4 O5 1.564380 1_555
Li4 O7 1.635488 1_555
Li4 O9 2.281822 1_555
Mn0 O9 1.711477 1_555
Mn0 O0 1.724174 1_654
Mn0 O7 2.162557 1_555
Mn0 O2 2.164520 1_654
Mn1 O7 1.604811 1_566
Mn1 O6 1.629927 1_555
Mn1 O2 2.229283 1_555
Mn1 O0 2.294409 1_665
Mn2 O2 1.606111 1_544
Mn2 O3 1.633135 1_555
Mn2 O7 2.226367 1_555
Mn2 O9 2.288961 1_445
O0 Ti0 1.413918 1_555
O1 Ti0 1.510524 1_565
O1 Ti1 2.526040 1_455
O4 Ti0 1.946909 1_555
O5 Ti1 1.952799 1_555
O8 Ti1 1.504879 1_545
O9 Ti1 1.413004 1_555
