# generated using pymatgen
data_SrO2
_symmetry_space_group_name_H-M   'P 1'
_cell_length_a   8.43348962
_cell_length_b   4.39365178
_cell_length_c   4.91521943
_cell_angle_alpha   90.00000000
_cell_angle_beta   90.00000000
_cell_angle_gamma   90.00000000
_symmetry_Int_Tables_number   1
_chemical_formula_structural   SrO2
_chemical_formula_sum   'Sr4 O8'
_cell_volume   182.12763970
_cell_formula_units_Z   4
loop_
 _symmetry_equiv_pos_site_id
 _symmetry_equiv_pos_as_xyz
  1  'x, y, z'
loop_
 _atom_site_type_symbol
 _atom_site_label
 _atom_site_symmetry_multiplicity
 _atom_site_fract_x
 _atom_site_fract_y
 _atom_site_fract_z
 _atom_site_occupancy
  Sr  Sr0  1  0.62511229  0.27120026  0.25000000  1
  Sr  Sr1  1  0.12511229  0.22879974  0.25000000  1
  Sr  Sr2  1  0.37488771  0.72879974  0.75000000  1
  Sr  Sr3  1  0.87488771  0.77120026  0.75000000  1
  O  O0  1  0.86342859  0.93716732  0.25000000  1
  O  O1  1  0.36342859  0.56283268  0.25000000  1
  O  O2  1  0.13657141  0.06283268  0.75000000  1
  O  O3  1  0.63657141  0.43716732  0.75000000  1
  O  O4  1  0.88861092  0.59855181  0.25000000  1
  O  O5  1  0.38861092  0.90144819  0.25000000  1
  O  O6  1  0.11138908  0.40144819  0.75000000  1
  O  O7  1  0.61138908  0.09855181  0.75000000  1
loop_
_geom_bond_atom_site_label_1
_geom_bond_atom_site_label_2
_geom_bond_distance
_geom_bond_site_symmetry_2
O0 O4 1.502840 1_555
O0 Sr0 2.488648 1_565
O0 Sr1 2.551911 1_665
O0 Sr3 2.565330 1_554
O0 Sr3 2.565330 1_555
O1 O5 1.502840 1_555
O1 Sr1 2.488648 1_555
O1 Sr0 2.551911 1_555
O1 Sr2 2.565330 1_555
O1 Sr2 2.565330 1_554
O2 O6 1.502840 1_555
O2 Sr2 2.488648 1_545
O2 Sr3 2.551911 1_445
O2 Sr1 2.565330 1_555
O2 Sr1 2.565330 1_556
O3 O7 1.502840 1_555
O3 Sr3 2.488648 1_555
O3 Sr2 2.551911 1_555
O3 Sr0 2.565330 1_555
O3 Sr0 2.565330 1_556
O4 Sr1 2.572423 1_655
O4 Sr3 2.574616 1_555
O4 Sr3 2.574616 1_554
O4 Sr0 2.647045 1_555
O5 Sr0 2.572423 1_565
O5 Sr2 2.574616 1_555
O5 Sr2 2.574616 1_554
O5 Sr1 2.647045 1_565
O6 Sr3 2.572423 1_455
O6 Sr1 2.574616 1_555
O6 Sr1 2.574616 1_556
O6 Sr2 2.647045 1_555
O7 Sr2 2.572423 1_545
O7 Sr0 2.574616 1_555
O7 Sr0 2.574616 1_556
O7 Sr3 2.647045 1_545
