# generated using pymatgen
data_Ce3ZrO8
_symmetry_space_group_name_H-M   'P 1'
_cell_length_a   3.80467800
_cell_length_b   3.80467800
_cell_length_c   10.85243900
_cell_angle_alpha   90.00000000
_cell_angle_beta   90.00000000
_cell_angle_gamma   90.00000000
_symmetry_Int_Tables_number   1
_chemical_formula_structural   Ce3ZrO8
_chemical_formula_sum   'Ce3 Zr1 O8'
_cell_volume   157.09529124
_cell_formula_units_Z   1
loop_
 _symmetry_equiv_pos_site_id
 _symmetry_equiv_pos_as_xyz
  1  'x, y, z'
loop_
 _atom_site_type_symbol
 _atom_site_label
 _atom_site_symmetry_multiplicity
 _atom_site_fract_x
 _atom_site_fract_y
 _atom_site_fract_z
 _atom_site_occupancy
  Ce  Ce0  1  0.50000000  0.50000000  0.25494000  1
  Ce  Ce1  1  0.50000000  0.50000000  0.74506000  1
  Ce  Ce2  1  0.00000000  0.00000000  0.00000000  1
  Zr  Zr0  1  0.00000000  0.00000000  0.50000000  1
  O  O0  1  0.00000000  0.50000000  0.37197700  1
  O  O1  1  0.00000000  0.50000000  0.86472200  1
  O  O2  1  0.50000000  0.00000000  0.39477800  1
  O  O3  1  0.50000000  0.00000000  0.88033100  1
  O  O4  1  0.50000000  0.00000000  0.13527800  1
  O  O5  1  0.50000000  0.00000000  0.62802300  1
  O  O6  1  0.00000000  0.50000000  0.11966900  1
  O  O7  1  0.00000000  0.50000000  0.60522200  1
loop_
_geom_bond_atom_site_label_1
_geom_bond_atom_site_label_2
_geom_bond_distance
_geom_bond_site_symmetry_2
Ce0 O0 2.287387 1_655
Ce0 O0 2.287387 1_555
Ce0 O4 2.303328 1_565
Ce0 O4 2.303328 1_555
Ce0 O6 2.402910 1_555
Ce0 O6 2.402910 1_655
Ce0 O2 2.433506 1_555
Ce0 O2 2.433506 1_565
Ce1 O5 2.287387 1_555
Ce1 O5 2.287387 1_565
Ce1 O1 2.303328 1_555
Ce1 O1 2.303328 1_655
Ce1 O3 2.402910 1_555
Ce1 O3 2.402910 1_565
Ce1 O7 2.433506 1_555
Ce1 O7 2.433506 1_655
Ce2 O6 2.303371 1_545
Ce2 O6 2.303371 1_555
Ce2 O3 2.303371 1_554
Ce2 O3 2.303371 1_454
Ce2 O1 2.402957 1_544
Ce2 O4 2.402957 1_455
Ce2 O4 2.402957 1_555
Ce2 O1 2.402957 1_554
O0 Zr0 2.355678 1_565
O0 Zr0 2.355678 1_555
O2 Zr0 2.218753 1_555
O2 Zr0 2.218753 1_655
O5 Zr0 2.355678 1_555
O5 Zr0 2.355678 1_655
O7 Zr0 2.218753 1_555
O7 Zr0 2.218753 1_565
