# generated using pymatgen
data_La2GaCoO6
_symmetry_space_group_name_H-M   'P 1'
_cell_length_a   5.58912673
_cell_length_b   18.16371429
_cell_length_c   5.60863852
_cell_angle_alpha   81.56220116
_cell_angle_beta   60.49074796
_cell_angle_gamma   90.99303471
_symmetry_Int_Tables_number   1
_chemical_formula_structural   La2GaCoO6
_chemical_formula_sum   'La8 Ga4 Co4 O24'
_cell_volume   487.49592866
_cell_formula_units_Z   4
loop_
 _symmetry_equiv_pos_site_id
 _symmetry_equiv_pos_as_xyz
  1  'x, y, z'
loop_
 _atom_site_type_symbol
 _atom_site_label
 _atom_site_symmetry_multiplicity
 _atom_site_fract_x
 _atom_site_fract_y
 _atom_site_fract_z
 _atom_site_occupancy
  La  La0  1  0.81202900  0.43735300  0.37578600  1
  La  La1  1  0.06263500  0.18748800  0.88202200  1
  La  La2  1  0.56135000  0.68754900  0.87528000  1
  La  La3  1  0.31646700  0.93763100  0.36810500  1
  La  La4  1  0.93853300  0.81247600  0.11795900  1
  La  La5  1  0.18696100  0.56270600  0.62363000  1
  La  La6  1  0.68435500  0.06245500  0.63244700  1
  La  La7  1  0.43812900  0.31240800  0.12437700  1
  Ga  Ga0  1  0.87418400  0.62506600  0.25011800  1
  Ga  Ga1  1  0.12471400  0.37492100  0.74974900  1
  Ga  Ga2  1  0.62409200  0.87502100  0.74689400  1
  Ga  Ga3  1  0.37723500  0.12500300  0.25327400  1
  Co  Co0  1  0.49953300  0.49992100  0.99984800  1
  Co  Co1  1  0.24983000  0.75021300  0.49730400  1
  Co  Co2  1  0.75056800  0.24988800  0.50247000  1
  Co  Co3  1  0.00042100  0.99994800  0.00031900  1
  O  O0  1  0.57050300  0.68765000  0.29695300  1
  O  O1  1  0.82057500  0.43757800  0.79804400  1
  O  O2  1  0.31851400  0.93712300  0.79310700  1
  O  O3  1  0.07141000  0.18706300  0.30489900  1
  O  O4  1  0.13084500  0.68706600  0.88114400  1
  O  O5  1  0.38265100  0.43572000  0.37913900  1
  O  O6  1  0.88422800  0.93627700  0.36051300  1
  O  O7  1  0.63531600  0.18729500  0.88383000  1
  O  O8  1  0.99719600  0.68827900  0.44818800  1
  O  O9  1  0.24890900  0.43847500  0.94655500  1
  O  O10  1  0.73782900  0.93915100  0.93657500  1
  O  O11  1  0.49800300  0.18819000  0.45156700  1
  O  O12  1  0.61585600  0.56414000  0.62018200  1
  O  O13  1  0.86838300  0.31313900  0.11927400  1
  O  O14  1  0.36662000  0.81272600  0.11653300  1
  O  O15  1  0.11575800  0.06372100  0.63955200  1
  O  O16  1  0.75111600  0.56128600  0.05258900  1
  O  O17  1  0.00054700  0.31232500  0.55131000  1
  O  O18  1  0.50280600  0.81154200  0.54939300  1
  O  O19  1  0.26344400  0.06073400  0.06382500  1
  O  O20  1  0.17734300  0.56217500  0.20263100  1
  O  O21  1  0.42814900  0.31211400  0.70249100  1
  O  O22  1  0.93176000  0.81358900  0.69348400  1
  O  O23  1  0.68120200  0.06259500  0.20864200  1
loop_
_geom_bond_atom_site_label_1
_geom_bond_atom_site_label_2
_geom_bond_distance
_geom_bond_site_symmetry_2
La0 O5 2.390275 1_555
La0 O1 2.392777 1_555
La0 O9 2.439515 1_654
La0 O20 2.737212 1_655
La0 O17 2.772241 1_655
La0 O13 2.791096 1_555
La0 O21 2.805405 1_555
La0 O16 2.811788 1_555
La0 O12 2.813872 1_555
La1 O7 2.383301 1_455
La1 O3 2.395196 1_556
La1 O11 2.439771 1_555
La1 O21 2.730547 1_555
La1 O15 2.741156 1_555
La1 O13 2.777081 1_456
La1 O23 2.795071 1_456
La1 O19 2.850981 1_556
La1 O17 2.851229 1_555
La2 O4 2.389964 1_555
La2 O0 2.390891 1_556
La2 O8 2.431741 1_555
La2 O22 2.763685 1_555
La2 O12 2.774880 1_555
La2 O14 2.779014 1_556
La2 O16 2.797793 1_556
La2 O20 2.808002 1_556
La2 O18 2.815455 1_555
La3 O2 2.388006 1_555
La3 O10 2.401631 1_554
La3 O6 2.436859 1_455
La3 O19 2.720543 1_565
La3 O23 2.748704 1_565
La3 O14 2.790781 1_555
La3 O22 2.791018 1_455
La3 O18 2.793958 1_555
La3 O15 2.872529 1_565
La4 O14 2.388626 1_655
La4 O22 2.396745 1_554
La4 O18 2.442868 1_555
La4 O6 2.741176 1_555
La4 O0 2.741472 1_555
La4 O4 2.770327 1_654
La4 O2 2.786889 1_654
La4 O8 2.832771 1_555
La4 O10 2.848527 1_554
La5 O12 2.387340 1_555
La5 O20 2.389582 1_555
La5 O16 2.434962 1_456
La5 O1 2.743847 1_455
La5 O8 2.783675 1_455
La5 O4 2.796869 1_555
La5 O0 2.800811 1_555
La5 O5 2.816894 1_555
La5 O9 2.817348 1_555
La6 O23 2.385328 1_555
La6 O19 2.399408 1_556
La6 O15 2.430811 1_655
La6 O10 2.723827 1_545
La6 O2 2.756245 1_545
La6 O11 2.788054 1_555
La6 O7 2.789965 1_555
La6 O3 2.805792 1_655
La6 O6 2.874518 1_545
La7 O13 2.390558 1_555
La7 O21 2.394951 1_554
La7 O17 2.438194 1_555
La7 O3 2.743545 1_555
La7 O5 2.771527 1_555
La7 O7 2.778659 1_554
La7 O9 2.794519 1_554
La7 O1 2.800763 1_554
La7 O11 2.826003 1_555
Ga0 O12 1.983833 1_555
Ga0 O4 1.986003 1_654
Ga0 O0 1.989315 1_555
Ga0 O20 1.989634 1_655
Ga0 O8 2.030890 1_555
Ga0 O16 2.035269 1_555
Ga1 O5 1.984348 1_555
Ga1 O13 1.985918 1_456
Ga1 O21 1.990193 1_555
Ga1 O1 1.990502 1_455
Ga1 O17 2.029274 1_555
Ga1 O9 2.033175 1_555
Ga2 O10 1.974073 1_555
Ga2 O22 1.987202 1_555
Ga2 O14 1.991310 1_556
Ga2 O2 1.993245 1_555
Ga2 O18 2.025699 1_555
Ga2 O6 2.044623 1_555
Ga3 O19 1.974904 1_555
Ga3 O3 1.987764 1_555
Ga3 O23 1.991229 1_555
Ga3 O7 1.991315 1_554
Ga3 O11 2.024106 1_555
Ga3 O15 2.045797 1_555
Co0 O9 1.937350 1_555
Co0 O16 1.938881 1_556
Co0 O5 2.046604 1_556
Co0 O12 2.049055 1_555
Co0 O1 2.056424 1_555
Co0 O20 2.060410 1_556
Co1 O8 1.937583 1_455
Co1 O18 1.942489 1_555
Co1 O14 2.040972 1_555
Co1 O22 2.052273 1_455
Co1 O0 2.056121 1_555
Co1 O4 2.056936 1_555
Co2 O17 1.930423 1_655
Co2 O11 1.940655 1_555
Co2 O7 2.046001 1_555
Co2 O13 2.056108 1_555
Co2 O3 2.056754 1_655
Co2 O21 2.057797 1_555
Co3 O6 1.958650 1_455
Co3 O15 1.962866 1_564
Co3 O10 2.019386 1_454
Co3 O19 2.020391 1_565
Co3 O2 2.058567 1_554
Co3 O23 2.061587 1_465
