# generated using pymatgen
data_NaEr(ReO5)4
_symmetry_space_group_name_H-M   'P 1'
_cell_length_a   5.87971044
_cell_length_b   12.31448626
_cell_length_c   12.31448626
_cell_angle_alpha   90.00000000
_cell_angle_beta   90.00000000
_cell_angle_gamma   90.00000000
_symmetry_Int_Tables_number   1
_chemical_formula_structural   NaEr(ReO5)4
_chemical_formula_sum   'Na2 Er2 Re8 O40'
_cell_volume   891.63793168
_cell_formula_units_Z   2
loop_
 _symmetry_equiv_pos_site_id
 _symmetry_equiv_pos_as_xyz
  1  'x, y, z'
loop_
 _atom_site_type_symbol
 _atom_site_label
 _atom_site_symmetry_multiplicity
 _atom_site_fract_x
 _atom_site_fract_y
 _atom_site_fract_z
 _atom_site_occupancy
  Na  Na0  1  -0.00000000  -0.00000000  -0.00000000  1
  Na  Na1  1  0.50000000  0.50000000  0.50000000  1
  Er  Er0  1  0.25000000  -0.00000000  0.50000000  1
  Er  Er1  1  0.75000000  0.50000000  -0.00000000  1
  Re  Re0  1  0.02297588  0.41039091  0.28218219  1
  Re  Re1  1  0.02297588  0.58960909  0.71781781  1
  Re  Re2  1  0.97702412  0.28218219  0.58960909  1
  Re  Re3  1  0.52297588  0.91039091  0.21781781  1
  Re  Re4  1  0.97702412  0.71781781  0.41039091  1
  Re  Re5  1  0.52297588  0.08960909  0.78218219  1
  Re  Re6  1  0.47702412  0.78218219  0.91039091  1
  Re  Re7  1  0.47702412  0.21781781  0.08960909  1
  O  O0  1  0.20273578  0.18519681  0.04703047  1
  O  O1  1  0.20273578  0.81480319  0.95296953  1
  O  O2  1  0.79726422  0.04703047  0.81480319  1
  O  O3  1  0.70273578  0.68519681  0.45296953  1
  O  O4  1  0.79726422  0.95296953  0.18519681  1
  O  O5  1  0.70273578  0.31480319  0.54703047  1
  O  O6  1  0.29726422  0.54703047  0.68519681  1
  O  O7  1  0.29726422  0.45296953  0.31480319  1
  O  O8  1  0.17553863  0.36431364  0.52379243  1
  O  O9  1  0.17553863  0.63568636  0.47620757  1
  O  O10  1  0.82446137  0.52379243  0.63568636  1
  O  O11  1  0.67553863  0.86431364  0.97620757  1
  O  O12  1  0.82446137  0.47620757  0.36431364  1
  O  O13  1  0.67553863  0.13568636  0.02379243  1
  O  O14  1  0.32446137  0.02379243  0.86431364  1
  O  O15  1  0.32446137  0.97620757  0.13568636  1
  O  O16  1  0.03345758  0.14095304  0.55952534  1
  O  O17  1  0.03345758  0.85904696  0.44047466  1
  O  O18  1  0.96654242  0.55952534  0.85904696  1
  O  O19  1  0.53345758  0.64095304  0.94047466  1
  O  O20  1  0.96654242  0.44047466  0.14095304  1
  O  O21  1  0.53345758  0.35904696  0.05952534  1
  O  O22  1  0.46654242  0.05952534  0.64095304  1
  O  O23  1  0.46654242  0.94047466  0.35904696  1
  O  O24  1  0.50020711  0.19468034  0.22868925  1
  O  O25  1  0.50020711  0.80531966  0.77131075  1
  O  O26  1  0.49979289  0.22868925  0.80531966  1
  O  O27  1  0.00020711  0.69468034  0.27131075  1
  O  O28  1  0.49979289  0.77131075  0.19468034  1
  O  O29  1  0.00020711  0.30531966  0.72868925  1
  O  O30  1  0.99979289  0.72868925  0.69468034  1
  O  O31  1  0.99979289  0.27131075  0.30531966  1
  O  O32  1  0.02134502  0.06697458  0.35406345  1
  O  O33  1  0.02134502  0.93302542  0.64593655  1
  O  O34  1  0.97865498  0.35406345  0.93302542  1
  O  O35  1  0.52134502  0.56697458  0.14593655  1
  O  O36  1  0.97865498  0.64593655  0.06697458  1
  O  O37  1  0.52134502  0.43302542  0.85406345  1
  O  O38  1  0.47865498  0.85406345  0.56697458  1
  O  O39  1  0.47865498  0.14593655  0.43302542  1
loop_
_geom_bond_atom_site_label_1
_geom_bond_atom_site_label_2
_geom_bond_distance
_geom_bond_site_symmetry_2
Na0 O15 2.552889 1_545
Na0 O13 2.552889 1_455
Na0 O11 2.552889 1_444
Na0 O14 2.552889 1_554
Na0 O1 2.637708 1_544
Na0 O2 2.637708 1_454
Na0 O0 2.637708 1_555
Na0 O4 2.637708 1_445
Na1 O8 2.552889 1_555
Na1 O12 2.552889 1_555
Na1 O9 2.552889 1_555
Na1 O10 2.552889 1_555
Na1 O5 2.637708 1_555
Na1 O3 2.637708 1_555
Na1 O6 2.637708 1_555
Na1 O7 2.637708 1_555
Er0 O22 2.274040 1_555
Er0 O17 2.274040 1_545
Er0 O23 2.274040 1_545
Er0 O16 2.274040 1_555
Er0 O38 2.391107 1_545
Er0 O39 2.391107 1_555
Er0 O32 2.391107 1_555
Er0 O33 2.391107 1_545
Er1 O21 2.274040 1_555
Er1 O18 2.274040 1_554
Er1 O19 2.274040 1_554
Er1 O20 2.274040 1_555
Er1 O37 2.391107 1_554
Er1 O35 2.391107 1_555
Er1 O34 2.391107 1_554
Er1 O36 2.391107 1_555
O0 Re7 1.742761 1_555
O1 Re6 1.742761 1_555
O2 Re5 1.742761 1_555
O3 Re4 1.742761 1_555
O4 Re3 1.742761 1_555
O5 Re2 1.742761 1_555
O6 Re1 1.742761 1_555
O7 Re0 1.742761 1_555
O8 Re2 1.744198 1_455
O9 Re4 1.744198 1_455
O10 Re1 1.744198 1_655
O11 Re6 1.744198 1_555
O12 Re0 1.744198 1_655
O13 Re7 1.744198 1_555
O14 Re5 1.744198 1_555
O15 Re3 1.744198 1_555
O16 Re2 1.808877 1_455
O17 Re4 1.808877 1_455
O18 Re1 1.808877 1_655
O19 Re6 1.808877 1_555
O20 Re0 1.808877 1_655
O21 Re7 1.808877 1_555
O22 Re5 1.808877 1_555
O23 Re3 1.808877 1_555
O24 Re7 1.741582 1_555
O25 Re6 1.741582 1_555
O26 Re5 1.741582 1_555
O27 Re4 1.741582 1_455
O28 Re3 1.741582 1_555
O29 Re2 1.741582 1_455
O30 Re1 1.741582 1_655
O31 Re0 1.741582 1_655
