# generated using pymatgen
data_Se2NO6
_symmetry_space_group_name_H-M   'P 1'
_cell_length_a   5.16158900
_cell_length_b   6.84790000
_cell_length_c   20.11896500
_cell_angle_alpha   90.00000000
_cell_angle_beta   90.00000000
_cell_angle_gamma   90.00000000
_symmetry_Int_Tables_number   1
_chemical_formula_structural   Se2NO6
_chemical_formula_sum   'Se8 N4 O24'
_cell_volume   711.12584854
_cell_formula_units_Z   4
loop_
 _symmetry_equiv_pos_site_id
 _symmetry_equiv_pos_as_xyz
  1  'x, y, z'
loop_
 _atom_site_type_symbol
 _atom_site_label
 _atom_site_symmetry_multiplicity
 _atom_site_fract_x
 _atom_site_fract_y
 _atom_site_fract_z
 _atom_site_occupancy
  Se  Se0  1  0.35980300  0.82304600  0.12901500  1
  Se  Se1  1  0.85980300  0.67695400  0.87098500  1
  Se  Se2  1  0.14019700  0.17695400  0.62901500  1
  Se  Se3  1  0.64019700  0.32304600  0.37098500  1
  Se  Se4  1  0.33440100  0.78948000  0.77717100  1
  Se  Se5  1  0.83440100  0.71052000  0.22282900  1
  Se  Se6  1  0.16559900  0.21052000  0.27717100  1
  Se  Se7  1  0.66559900  0.28948000  0.72282900  1
  N  N0  1  0.81489800  0.40541900  0.07098800  1
  N  N1  1  0.31489800  0.09458100  0.92901200  1
  N  N2  1  0.68510200  0.59458100  0.57098800  1
  N  N3  1  0.18510200  0.90541900  0.42901200  1
  O  O0  1  0.38799200  0.95705700  0.95949400  1
  O  O1  1  0.88799200  0.54294300  0.04050600  1
  O  O2  1  0.11200800  0.04294300  0.45949400  1
  O  O3  1  0.61200800  0.45705700  0.54050600  1
  O  O4  1  0.90661200  0.74293400  0.06187400  1
  O  O5  1  0.40661200  0.75706600  0.93812600  1
  O  O6  1  0.59338800  0.25706600  0.56187400  1
  O  O7  1  0.09338800  0.24293400  0.43812600  1
  O  O8  1  0.41235400  0.58989400  0.11555600  1
  O  O9  1  0.91235400  0.91010600  0.88444400  1
  O  O10  1  0.08764600  0.41010600  0.61555600  1
  O  O11  1  0.58764600  0.08989400  0.38444400  1
  O  O12  1  0.31528400  0.71769800  0.70013900  1
  O  O13  1  0.81528400  0.78230200  0.29986100  1
  O  O14  1  0.18471600  0.28230200  0.20013900  1
  O  O15  1  0.68471600  0.21769800  0.79986100  1
  O  O16  1  0.14218100  0.83147200  0.20383800  1
  O  O17  1  0.64218100  0.66852800  0.79616200  1
  O  O18  1  0.35781900  0.16852800  0.70383800  1
  O  O19  1  0.85781900  0.33147200  0.29616200  1
  O  O20  1  0.12725900  0.59442100  0.81951500  1
  O  O21  1  0.62725900  0.90557900  0.18048500  1
  O  O22  1  0.37274100  0.40557900  0.31951500  1
  O  O23  1  0.87274100  0.09442100  0.68048500  1
loop_
_geom_bond_atom_site_label_1
_geom_bond_atom_site_label_2
_geom_bond_distance
_geom_bond_site_symmetry_2
N0 O1 1.185467 1_555
N1 O0 1.185467 1_545
N2 O3 1.185467 1_555
N3 O2 1.185467 1_565
O0 O5 1.438622 1_555
O1 O4 1.438622 1_555
O2 O7 1.438622 1_555
O3 O6 1.438622 1_555
O8 Se0 1.641960 1_555
O9 Se1 1.641960 1_555
O10 Se2 1.641960 1_555
O11 Se3 1.641960 1_555
O12 Se4 1.628882 1_555
O13 Se5 1.628882 1_555
O14 Se6 1.628882 1_555
O15 Se7 1.628882 1_555
O16 Se5 1.831876 1_455
O16 Se0 1.879146 1_555
O17 Se4 1.831876 1_555
O17 Se1 1.879146 1_555
O18 Se7 1.831876 1_555
O18 Se2 1.879146 1_555
O19 Se6 1.831876 1_655
O19 Se3 1.879146 1_555
O20 Se1 1.815904 1_455
O20 Se4 1.911315 1_555
O21 Se0 1.815904 1_555
O21 Se5 1.911315 1_555
O22 Se3 1.815904 1_555
O22 Se6 1.911315 1_555
O23 Se2 1.815904 1_655
O23 Se7 1.911315 1_555
