# generated using pymatgen
data_Li2Cr3WO8
_symmetry_space_group_name_H-M   'P 1'
_cell_length_a   6.01896602
_cell_length_b   10.56774284
_cell_length_c   6.01912769
_cell_angle_alpha   89.57988810
_cell_angle_beta   119.86237366
_cell_angle_gamma   73.31815624
_symmetry_Int_Tables_number   1
_chemical_formula_structural   Li2Cr3WO8
_chemical_formula_sum   'Li4 Cr6 W2 O16'
_cell_volume   312.80358681
_cell_formula_units_Z   2
loop_
 _symmetry_equiv_pos_site_id
 _symmetry_equiv_pos_as_xyz
  1  'x, y, z'
loop_
 _atom_site_type_symbol
 _atom_site_label
 _atom_site_symmetry_multiplicity
 _atom_site_fract_x
 _atom_site_fract_y
 _atom_site_fract_z
 _atom_site_occupancy
  Li  Li0  1  0.87328100  0.19448000  0.93448400  1
  Li  Li1  1  0.87310200  0.69463500  0.43802800  1
  Li  Li2  1  0.12672000  0.30552300  0.56551400  1
  Li  Li3  1  0.12689800  0.80537000  0.06197400  1
  Cr  Cr0  1  0.49848700  0.49920300  0.99679900  1
  Cr  Cr1  1  0.50151100  0.00079700  0.50320400  1
  Cr  Cr2  1  0.00012600  0.49988000  0.99462300  1
  Cr  Cr3  1  0.99988100  0.00011500  0.50539400  1
  Cr  Cr4  1  0.50257700  0.49943800  0.49891500  1
  Cr  Cr5  1  0.49742300  0.00056100  0.00107700  1
  W  W0  1  0.50000100  0.24999900  0.24999600  1
  W  W1  1  0.50000300  0.74999500  0.75000200  1
  O  O0  1  0.73705500  0.39799900  0.86787400  1
  O  O1  1  0.73598400  0.89882900  0.37099200  1
  O  O2  1  0.26294000  0.10200500  0.63212200  1
  O  O3  1  0.26401900  0.60117100  0.12901000  1
  O  O4  1  0.73242500  0.62498700  0.08657800  1
  O  O5  1  0.73757200  0.11907800  0.59787100  1
  O  O6  1  0.28600000  0.61991400  0.63696700  1
  O  O7  1  0.28436500  0.12064100  0.14500500  1
  O  O8  1  0.73372800  0.61988900  0.63737400  1
  O  O9  1  0.73121300  0.12552800  0.14499400  1
  O  O10  1  0.26627100  0.88011100  0.86262600  1
  O  O11  1  0.26878600  0.37447500  0.35500300  1
  O  O12  1  0.71399100  0.88008400  0.86303100  1
  O  O13  1  0.71563700  0.37936100  0.35499400  1
  O  O14  1  0.26758300  0.87501100  0.41342900  1
  O  O15  1  0.26242100  0.38092400  0.90212300  1
loop_
_geom_bond_atom_site_label_1
_geom_bond_atom_site_label_2
_geom_bond_distance
_geom_bond_site_symmetry_2
Li0 O7 2.022747 1_656
Li0 O0 2.026392 1_555
Li0 O5 2.038761 1_555
Li0 O9 2.071431 1_556
Li1 O6 2.032159 1_655
Li1 O1 2.033103 1_555
Li1 O8 2.033792 1_555
Li1 O4 2.081006 1_555
Li2 O13 2.022742 1_455
Li2 O2 2.026382 1_555
Li2 O15 2.038735 1_555
Li2 O11 2.071426 1_555
Li3 O12 2.032201 1_454
Li3 O3 2.033153 1_555
Li3 O10 2.033771 1_554
Li3 O14 2.080995 1_555
Cr0 O3 2.010967 1_556
Cr0 O0 2.011985 1_555
Cr0 O15 2.032172 1_555
Cr0 O13 2.040601 1_556
Cr0 O6 2.053851 1_555
Cr0 O4 2.090199 1_556
Cr1 O1 2.010994 1_545
Cr1 O2 2.011982 1_555
Cr1 O5 2.032171 1_555
Cr1 O7 2.040629 1_555
Cr1 O12 2.053841 1_545
Cr1 O14 2.090175 1_545
Cr2 O3 2.008070 1_556
Cr2 O0 2.009037 1_455
Cr2 O15 2.031973 1_555
Cr2 O8 2.040169 1_455
Cr2 O11 2.076273 1_556
Cr2 O4 2.079989 1_456
Cr3 O1 2.008048 1_545
Cr3 O2 2.009056 1_655
Cr3 O5 2.031972 1_555
Cr3 O10 2.040077 1_645
Cr3 O9 2.076390 1_555
Cr3 O14 2.080019 1_645
Cr4 O0 2.012027 1_555
Cr4 O3 2.017386 1_555
Cr4 O8 2.031779 1_555
Cr4 O6 2.037668 1_555
Cr4 O13 2.047771 1_555
Cr4 O11 2.084277 1_555
Cr5 O2 2.012026 1_554
Cr5 O1 2.017428 1_545
Cr5 O10 2.031771 1_544
Cr5 O12 2.037610 1_544
Cr5 O7 2.047809 1_555
Cr5 O9 2.084311 1_555
O4 W1 1.970762 1_554
O5 W0 2.045325 1_555
O6 W1 2.041888 1_555
O7 W0 2.041365 1_555
O8 W1 2.044985 1_555
O9 W0 1.975732 1_555
O10 W1 2.045047 1_555
O11 W0 1.975789 1_555
O12 W1 2.041900 1_555
O13 W0 2.041401 1_555
O14 W1 1.970789 1_555
O15 W0 2.045337 1_556
