# generated using pymatgen
data_CeB2Ru2Rh
_symmetry_space_group_name_H-M   'P 1'
_cell_length_a   11.02836928
_cell_length_b   11.02836928
_cell_length_c   6.00855600
_cell_angle_alpha   90.00000000
_cell_angle_beta   90.00000000
_cell_angle_gamma   118.72319325
_symmetry_Int_Tables_number   1
_chemical_formula_structural   CeB2Ru2Rh
_chemical_formula_sum   'Ce8 B16 Ru16 Rh8'
_cell_volume   640.86770443
_cell_formula_units_Z   8
loop_
 _symmetry_equiv_pos_site_id
 _symmetry_equiv_pos_as_xyz
  1  'x, y, z'
loop_
 _atom_site_type_symbol
 _atom_site_label
 _atom_site_symmetry_multiplicity
 _atom_site_fract_x
 _atom_site_fract_y
 _atom_site_fract_z
 _atom_site_occupancy
  Ce  Ce0_0  1  0.00000000  0.00000000  0.00000000  1
  Ce  Ce0_1  1  0.00000000  0.00000000  0.50000000  1
  Ce  Ce0_2  1  0.00000000  0.50000000  0.00000000  1
  Ce  Ce0_3  1  0.00000000  0.50000000  0.50000000  1
  Ce  Ce0_4  1  0.50000000  0.00000000  0.00000000  1
  Ce  Ce0_5  1  0.50000000  0.00000000  0.50000000  1
  Ce  Ce0_6  1  0.50000000  0.50000000  0.00000000  1
  Ce  Ce0_7  1  0.50000000  0.50000000  0.50000000  1
  B  B0_0  1  0.33585450  0.16414550  0.00000000  1
  B  B0_1  1  0.33585450  0.16414550  0.50000000  1
  B  B0_2  1  0.33585450  0.66414550  0.00000000  1
  B  B0_3  1  0.33585450  0.66414550  0.50000000  1
  B  B0_4  1  0.83585450  0.16414550  0.00000000  1
  B  B0_5  1  0.83585450  0.16414550  0.50000000  1
  B  B0_6  1  0.83585450  0.66414550  0.00000000  1
  B  B0_7  1  0.83585450  0.66414550  0.50000000  1
  B  B1_0  1  0.16414550  0.33585450  0.00000000  1
  B  B1_1  1  0.16414550  0.33585450  0.50000000  1
  B  B1_2  1  0.16414550  0.83585450  0.00000000  1
  B  B1_3  1  0.16414550  0.83585450  0.50000000  1
  B  B1_4  1  0.66414550  0.33585450  0.00000000  1
  B  B1_5  1  0.66414550  0.33585450  0.50000000  1
  B  B1_6  1  0.66414550  0.83585450  0.00000000  1
  B  B1_7  1  0.66414550  0.83585450  0.50000000  1
  Ru  Ru0_0  1  0.25000000  0.00000000  0.25000000  1
  Ru  Ru0_1  1  0.25000000  0.00000000  0.75000000  1
  Ru  Ru0_2  1  0.25000000  0.50000000  0.25000000  1
  Ru  Ru0_3  1  0.25000000  0.50000000  0.75000000  1
  Ru  Ru0_4  1  0.75000000  0.00000000  0.25000000  1
  Ru  Ru0_5  1  0.75000000  0.00000000  0.75000000  1
  Ru  Ru0_6  1  0.75000000  0.50000000  0.25000000  1
  Ru  Ru0_7  1  0.75000000  0.50000000  0.75000000  1
  Ru  Ru1_0  1  0.00000000  0.25000000  0.25000000  1
  Ru  Ru1_1  1  0.00000000  0.25000000  0.75000000  1
  Ru  Ru1_2  1  0.00000000  0.75000000  0.25000000  1
  Ru  Ru1_3  1  0.00000000  0.75000000  0.75000000  1
  Ru  Ru1_4  1  0.50000000  0.25000000  0.25000000  1
  Ru  Ru1_5  1  0.50000000  0.25000000  0.75000000  1
  Ru  Ru1_6  1  0.50000000  0.75000000  0.25000000  1
  Ru  Ru1_7  1  0.50000000  0.75000000  0.75000000  1
  Rh  Rh0_0  1  0.25000000  0.25000000  0.25000000  1
  Rh  Rh0_1  1  0.25000000  0.25000000  0.75000000  1
  Rh  Rh0_2  1  0.25000000  0.75000000  0.25000000  1
  Rh  Rh0_3  1  0.25000000  0.75000000  0.75000000  1
  Rh  Rh0_4  1  0.75000000  0.25000000  0.25000000  1
  Rh  Rh0_5  1  0.75000000  0.25000000  0.75000000  1
  Rh  Rh0_6  1  0.75000000  0.75000000  0.25000000  1
  Rh  Rh0_7  1  0.75000000  0.75000000  0.75000000  1
loop_
_geom_bond_atom_site_label_1
_geom_bond_atom_site_label_2
_geom_bond_distance
_geom_bond_site_symmetry_2
Ce0_0 Ce0_1 3.004278 1_555
Ce0_0 Ce0_1 3.004278 1_554
Ce0_0 Ru1_3 3.139742 1_544
Ce0_0 Ru1_2 3.139742 1_545
Ce0_0 Ru1_0 3.139742 1_555
Ce0_0 Ru0_1 3.139742 1_554
Ce0_0 Ru1_1 3.139742 1_554
Ce0_0 Ru0_4 3.139742 1_455
Ce0_0 Ru0_0 3.139742 1_555
Ce0_0 Ru0_5 3.139742 1_454
Ce0_0 Rh0_7 3.186416 1_444
Ce0_0 Rh0_1 3.186416 1_554
Ce0_0 Rh0_0 3.186416 1_555
Ce0_0 Rh0_6 3.186416 1_445
Ce0_1 Ru1_2 3.139742 1_545
Ce0_1 Ru1_0 3.139742 1_555
Ce0_1 Ru0_4 3.139742 1_455
Ce0_1 Ru0_0 3.139742 1_555
Ce0_1 Ru0_5 3.139742 1_455
Ce0_1 Ru1_3 3.139742 1_545
Ce0_1 Ru1_1 3.139742 1_555
Ce0_1 Ru0_1 3.139742 1_555
Ce0_1 Rh0_1 3.186416 1_555
Ce0_1 Rh0_0 3.186416 1_555
Ce0_1 Rh0_6 3.186416 1_445
Ce0_1 Rh0_7 3.186416 1_445
Ce0_2 Ce0_3 3.004278 1_554
Ce0_2 Ce0_3 3.004278 1_555
Ce0_2 Ru1_0 3.139742 1_555
Ce0_2 Ru0_7 3.139742 1_454
Ce0_2 Ru1_3 3.139742 1_554
Ce0_2 Ru0_6 3.139742 1_455
Ce0_2 Ru1_1 3.139742 1_554
Ce0_2 Ru0_2 3.139742 1_555
Ce0_2 Ru1_2 3.139742 1_555
Ce0_2 Ru0_3 3.139742 1_554
Ce0_2 Rh0_3 3.186416 1_554
Ce0_2 Rh0_5 3.186416 1_454
Ce0_2 Rh0_2 3.186416 1_555
Ce0_2 Rh0_4 3.186416 1_455
Ce0_3 Ru1_0 3.139742 1_555
Ce0_3 Ru0_6 3.139742 1_455
Ce0_3 Ru0_2 3.139742 1_555
Ce0_3 Ru1_2 3.139742 1_555
Ce0_3 Ru0_7 3.139742 1_455
Ce0_3 Ru1_1 3.139742 1_555
Ce0_3 Ru0_3 3.139742 1_555
Ce0_3 Ru1_3 3.139742 1_555
Ce0_3 Rh0_3 3.186416 1_555
Ce0_3 Rh0_2 3.186416 1_555
Ce0_3 Rh0_5 3.186416 1_455
Ce0_3 Rh0_4 3.186416 1_455
Ce0_4 Ce0_5 3.004278 1_555
Ce0_4 Ce0_5 3.004278 1_554
Ce0_4 Ru0_1 3.139742 1_554
Ce0_4 Ru1_5 3.139742 1_554
Ce0_4 Ru0_4 3.139742 1_555
Ce0_4 Ru1_6 3.139742 1_545
Ce0_4 Ru0_5 3.139742 1_554
Ce0_4 Ru1_7 3.139742 1_544
Ce0_4 Ru0_0 3.139742 1_555
Ce0_4 Ru1_4 3.139742 1_555
Ce0_4 Rh0_5 3.186416 1_554
Ce0_4 Rh0_3 3.186416 1_544
Ce0_4 Rh0_2 3.186416 1_545
Ce0_4 Rh0_4 3.186416 1_555
Ce0_5 Ru0_4 3.139742 1_555
Ce0_5 Ru1_6 3.139742 1_545
Ce0_5 Ru0_0 3.139742 1_555
Ce0_5 Ru1_4 3.139742 1_555
Ce0_5 Ru1_5 3.139742 1_555
Ce0_5 Ru0_5 3.139742 1_555
Ce0_5 Ru0_1 3.139742 1_555
Ce0_5 Ru1_7 3.139742 1_545
Ce0_5 Rh0_5 3.186416 1_555
Ce0_5 Rh0_2 3.186416 1_545
Ce0_5 Rh0_4 3.186416 1_555
Ce0_5 Rh0_3 3.186416 1_545
Ce0_6 Ce0_7 3.004278 1_555
Ce0_6 Ce0_7 3.004278 1_554
Ce0_6 Ru0_6 3.139742 1_555
Ce0_6 Ru1_5 3.139742 1_554
Ce0_6 Ru0_7 3.139742 1_554
Ce0_6 Ru1_6 3.139742 1_555
Ce0_6 Ru0_2 3.139742 1_555
Ce0_6 Ru1_4 3.139742 1_555
Ce0_6 Ru0_3 3.139742 1_554
Ce0_6 Ru1_7 3.139742 1_554
Ce0_6 Rh0_7 3.186416 1_554
Ce0_6 Rh0_1 3.186416 1_554
Ce0_6 Rh0_6 3.186416 1_555
Ce0_6 Rh0_0 3.186416 1_555
Ce0_7 Ru0_6 3.139742 1_555
Ce0_7 Ru1_6 3.139742 1_555
Ce0_7 Ru0_2 3.139742 1_555
Ce0_7 Ru1_4 3.139742 1_555
Ce0_7 Ru1_5 3.139742 1_555
Ce0_7 Ru0_7 3.139742 1_555
Ce0_7 Ru0_3 3.139742 1_555
Ce0_7 Ru1_7 3.139742 1_555
Ce0_7 Rh0_6 3.186416 1_555
Ce0_7 Rh0_1 3.186416 1_555
Ce0_7 Rh0_7 3.186416 1_555
Ce0_7 Rh0_0 3.186416 1_555
B0_0 Ru0_1 2.186895 1_554
B0_0 Ru1_5 2.186895 1_554
B0_0 Ru1_4 2.186895 1_555
B0_0 Ru0_0 2.186895 1_555
B0_0 Rh0_1 2.216098 1_554
B0_0 Rh0_0 2.216098 1_555
B0_0 Ce0_4 3.115093 1_555
B0_0 Ce0_6 3.248306 1_555
B0_0 Ce0_0 3.248306 1_555
B0_1 Ru1_4 2.186895 1_555
B0_1 Ru0_0 2.186895 1_555
B0_1 Ru1_5 2.186895 1_555
B0_1 Ru0_1 2.186895 1_555
B0_1 Rh0_0 2.216098 1_555
B0_1 Rh0_1 2.216098 1_555
B0_1 Ce0_5 3.115093 1_555
B0_1 Ce0_1 3.248306 1_555
B0_1 Ce0_7 3.248306 1_555
B0_2 Ru0_3 2.186895 1_554
B0_2 Ru1_7 2.186895 1_554
B0_2 Ru0_2 2.186895 1_555
B0_2 Ru1_6 2.186895 1_555
B0_2 Rh0_3 2.216098 1_554
B0_2 Rh0_2 2.216098 1_555
B0_2 Ce0_6 3.115093 1_555
B0_2 Ce0_2 3.248306 1_555
B0_2 Ce0_4 3.248306 1_565
B0_3 Ru0_2 2.186895 1_555
B0_3 Ru1_6 2.186895 1_555
B0_3 Ru0_3 2.186895 1_555
B0_3 Ru1_7 2.186895 1_555
B0_3 Rh0_2 2.216098 1_555
B0_3 Rh0_3 2.216098 1_555
B0_3 Ce0_7 3.115093 1_555
B0_3 Ce0_3 3.248306 1_555
B0_3 Ce0_5 3.248306 1_565
B0_4 Ru1_1 2.186895 1_654
B0_4 Ru1_0 2.186895 1_655
B0_4 Ru0_5 2.186895 1_554
B0_4 Ru0_4 2.186895 1_555
B0_4 Rh0_5 2.216098 1_554
B0_4 Rh0_4 2.216098 1_555
B0_4 Ce0_0 3.115093 1_655
B0_4 Ce0_4 3.248306 1_555
B0_4 Ce0_2 3.248306 1_655
B0_5 Ru1_0 2.186895 1_655
B0_5 Ru0_4 2.186895 1_555
B0_5 Ru1_1 2.186895 1_655
B0_5 Ru0_5 2.186895 1_555
B0_5 Rh0_4 2.216098 1_555
B0_5 Rh0_5 2.216098 1_555
B0_5 Ce0_1 3.115093 1_655
B0_5 Ce0_5 3.248306 1_555
B0_5 Ce0_3 3.248306 1_655
B0_6 Ru0_7 2.186895 1_554
B0_6 Ru1_3 2.186895 1_654
B0_6 Ru0_6 2.186895 1_555
B0_6 Ru1_2 2.186895 1_655
B0_6 Rh0_7 2.216098 1_554
B0_6 Rh0_6 2.216098 1_555
B0_6 Ce0_2 3.115093 1_655
B0_6 Ce0_6 3.248306 1_555
B0_6 Ce0_0 3.248306 1_665
B0_7 Ru0_6 2.186895 1_555
B0_7 Ru1_2 2.186895 1_655
B0_7 Ru1_3 2.186895 1_655
B0_7 Ru0_7 2.186895 1_555
B0_7 Rh0_6 2.216098 1_555
B0_7 Rh0_7 2.216098 1_555
B0_7 Ce0_3 3.115093 1_655
B0_7 Ce0_1 3.248306 1_665
B0_7 Ce0_7 3.248306 1_555
B1_0 Ru0_3 2.186895 1_554
B1_0 Ru1_1 2.186895 1_554
B1_0 Ru0_2 2.186895 1_555
B1_0 Ru1_0 2.186895 1_555
B1_0 Rh0_1 2.216098 1_554
B1_0 Rh0_0 2.216098 1_555
B1_0 Ce0_2 3.115093 1_555
B1_0 Ce0_6 3.248306 1_555
B1_0 Ce0_0 3.248306 1_555
B1_1 Ru0_2 2.186895 1_555
B1_1 Ru1_0 2.186895 1_555
B1_1 Ru1_1 2.186895 1_555
B1_1 Ru0_3 2.186895 1_555
B1_1 Rh0_0 2.216098 1_555
B1_1 Rh0_1 2.216098 1_555
B1_1 Ce0_3 3.115093 1_555
B1_1 Ce0_1 3.248306 1_555
B1_1 Ce0_7 3.248306 1_555
B1_2 Ru0_1 2.186895 1_564
B1_2 Ru1_3 2.186895 1_554
B1_2 Ru0_0 2.186895 1_565
B1_2 Ru1_2 2.186895 1_555
B1_2 Rh0_3 2.216098 1_554
B1_2 Rh0_2 2.216098 1_555
B1_2 Ce0_0 3.115093 1_565
B1_2 Ce0_2 3.248306 1_555
B1_2 Ce0_4 3.248306 1_565
B1_3 Ru0_0 2.186895 1_565
B1_3 Ru1_2 2.186895 1_555
B1_3 Ru0_1 2.186895 1_565
B1_3 Ru1_3 2.186895 1_555
B1_3 Rh0_2 2.216098 1_555
B1_3 Rh0_3 2.216098 1_555
B1_3 Ce0_1 3.115093 1_565
B1_3 Ce0_3 3.248306 1_555
B1_3 Ce0_5 3.248306 1_565
B1_4 Ru0_7 2.186895 1_554
B1_4 Ru1_5 2.186895 1_554
B1_4 Ru0_6 2.186895 1_555
B1_4 Ru1_4 2.186895 1_555
B1_4 Rh0_5 2.216098 1_554
B1_4 Rh0_4 2.216098 1_555
B1_4 Ce0_6 3.115093 1_555
B1_4 Ce0_2 3.248306 1_655
B1_4 Ce0_4 3.248306 1_555
B1_5 Ru0_6 2.186895 1_555
B1_5 Ru1_4 2.186895 1_555
B1_5 Ru0_7 2.186895 1_555
B1_5 Ru1_5 2.186895 1_555
B1_5 Rh0_4 2.216098 1_555
B1_5 Rh0_5 2.216098 1_555
B1_5 Ce0_7 3.115093 1_555
B1_5 Ce0_3 3.248306 1_655
B1_5 Ce0_5 3.248306 1_555
B1_6 Ru0_5 2.186895 1_564
B1_6 Ru1_7 2.186895 1_554
B1_6 Ru0_4 2.186895 1_565
B1_6 Ru1_6 2.186895 1_555
B1_6 Rh0_7 2.216098 1_554
B1_6 Rh0_6 2.216098 1_555
B1_6 Ce0_4 3.115093 1_565
B1_6 Ce0_6 3.248306 1_555
B1_6 Ce0_0 3.248306 1_665
B1_7 Ru0_4 2.186895 1_565
B1_7 Ru1_6 2.186895 1_555
B1_7 Ru1_7 2.186895 1_555
B1_7 Ru0_5 2.186895 1_565
B1_7 Rh0_6 2.216098 1_555
B1_7 Rh0_7 2.216098 1_555
B1_7 Ce0_5 3.115093 1_565
B1_7 Ce0_1 3.248306 1_665
B1_7 Ce0_7 3.248306 1_555
