# generated using pymatgen
data_CaNb4O8
_symmetry_space_group_name_H-M   'P 1'
_cell_length_a   7.12669973
_cell_length_b   7.12669973
_cell_length_c   9.73845726
_cell_angle_alpha   86.72469471
_cell_angle_beta   86.72469471
_cell_angle_gamma   93.73296368
_symmetry_Int_Tables_number   1
_chemical_formula_structural   CaNb4O8
_chemical_formula_sum   'Ca3 Nb12 O24'
_cell_volume   491.83901679
_cell_formula_units_Z   3
loop_
 _symmetry_equiv_pos_site_id
 _symmetry_equiv_pos_as_xyz
  1  'x, y, z'
loop_
 _atom_site_type_symbol
 _atom_site_label
 _atom_site_symmetry_multiplicity
 _atom_site_fract_x
 _atom_site_fract_y
 _atom_site_fract_z
 _atom_site_occupancy
  Ca  Ca0  1  0.87335447  0.87335447  0.12895033  1
  Ca  Ca1  1  0.14852528  0.14852528  0.85282694  1
  Ca  Ca2  1  0.61928748  0.61928748  0.37768186  1
  Nb  Nb0  1  0.15024481  0.15024481  0.35225383  1
  Nb  Nb1  1  0.64744621  0.64744621  0.85025561  1
  Nb  Nb2  1  0.84669072  0.84669072  0.65216321  1
  Nb  Nb3  1  0.34839837  0.34839837  0.15251757  1
  Nb  Nb4  1  0.85024828  0.41593554  0.63652897  1
  Nb  Nb5  1  0.35751862  0.91764248  0.13667390  1
  Nb  Nb6  1  0.91764248  0.35751862  0.13667390  1
  Nb  Nb7  1  0.41593554  0.85024828  0.63652897  1
  Nb  Nb8  1  0.08375370  0.64787187  0.86143164  1
  Nb  Nb9  1  0.58011994  0.14148157  0.36772992  1
  Nb  Nb10  1  0.14148157  0.58011994  0.36772992  1
  Nb  Nb11  1  0.64787187  0.08375370  0.86143164  1
  O  O0  1  0.34179004  0.06269292  0.48262613  1
  O  O1  1  0.84620212  0.58175934  0.98768317  1
  O  O2  1  0.85711410  0.11979398  0.70939610  1
  O  O3  1  0.35230898  0.61914864  0.21264815  1
  O  O4  1  0.91686448  0.65553483  0.51243199  1
  O  O5  1  0.42521693  0.15707640  0.01334558  1
  O  O6  1  0.88007066  0.14373169  0.28638828  1
  O  O7  1  0.37786979  0.65793922  0.79816472  1
  O  O8  1  0.65553483  0.91686448  0.51243199  1
  O  O9  1  0.15707640  0.42521693  0.01334558  1
  O  O10  1  0.14373169  0.88007066  0.28638828  1
  O  O11  1  0.65793922  0.37786979  0.79816472  1
  O  O12  1  0.06269292  0.34179004  0.48262613  1
  O  O13  1  0.58175934  0.84620212  0.98768317  1
  O  O14  1  0.11979398  0.85711410  0.70939610  1
  O  O15  1  0.61914864  0.35230898  0.21264815  1
  O  O16  1  0.33345349  0.66659850  0.49725914  1
  O  O17  1  0.84933405  0.15919860  0.99822860  1
  O  O18  1  0.66659850  0.33345349  0.49725914  1
  O  O19  1  0.15919860  0.84933405  0.99822860  1
  O  O20  1  0.07626855  0.42583921  0.74934245  1
  O  O21  1  0.58424993  0.91242018  0.25129459  1
  O  O22  1  0.91242018  0.58424993  0.25129459  1
  O  O23  1  0.42583921  0.07626855  0.74934245  1
loop_
_geom_bond_atom_site_label_1
_geom_bond_atom_site_label_2
_geom_bond_distance
_geom_bond_site_symmetry_2
Ca0 O19 2.360882 1_654
Ca0 O17 2.360882 1_564
Ca0 O22 2.360981 1_555
Ca0 O21 2.360981 1_555
Ca0 O10 2.529801 1_655
Ca0 O6 2.529801 1_565
Ca0 O13 2.559950 1_554
Ca0 O1 2.559950 1_554
Ca1 O23 2.269564 1_555
Ca1 O20 2.269564 1_555
Ca1 O17 2.499141 1_455
Ca1 O19 2.499141 1_545
Ca1 O14 2.571934 1_545
Ca1 O2 2.571934 1_455
Ca1 O9 2.585182 1_556
Ca1 O5 2.585182 1_556
Ca2 O18 2.341488 1_555
Ca2 O16 2.341488 1_555
Ca2 O21 2.398062 1_555
Ca2 O22 2.398062 1_555
Ca2 O15 2.559793 1_555
Ca2 O3 2.559793 1_555
Ca2 O8 2.563533 1_555
Ca2 O4 2.563533 1_555
Nb0 O12 2.020682 1_555
Nb0 O0 2.020682 1_555
Nb0 O6 2.062482 1_455
Nb0 O10 2.062482 1_545
Nb1 O7 2.019812 1_555
Nb1 O11 2.019812 1_555
Nb1 O1 2.061080 1_555
Nb1 O13 2.061080 1_555
Nb2 O4 2.044618 1_555
Nb2 O8 2.044618 1_555
Nb2 O14 2.052854 1_655
Nb2 O2 2.052854 1_565
Nb3 O3 2.047154 1_555
Nb3 O15 2.047154 1_555
Nb3 O9 2.054094 1_555
Nb3 O5 2.054094 1_555
Nb4 O20 2.000711 1_655
Nb4 O11 2.021376 1_555
Nb4 O18 2.022813 1_555
Nb4 O4 2.048099 1_555
Nb4 O12 2.180186 1_655
Nb4 O2 2.192370 1_555
Nb5 O21 2.016803 1_555
Nb5 O10 2.041373 1_555
Nb5 O5 2.044348 1_565
Nb5 O19 2.062888 1_554
Nb5 O13 2.200854 1_554
Nb5 O3 2.209258 1_555
Nb6 O22 2.016803 1_555
Nb6 O6 2.041373 1_555
Nb6 O9 2.044348 1_655
Nb6 O17 2.062888 1_554
Nb6 O1 2.200854 1_554
Nb6 O15 2.209258 1_555
Nb7 O23 2.000711 1_565
Nb7 O7 2.021376 1_555
Nb7 O16 2.022813 1_555
Nb7 O8 2.048099 1_555
Nb7 O0 2.180186 1_565
Nb7 O14 2.192370 1_555
Nb8 O20 1.972633 1_555
Nb8 O14 2.033766 1_555
Nb8 O1 2.047403 1_455
Nb8 O19 2.079693 1_555
Nb8 O7 2.146180 1_555
Nb8 O9 2.215329 1_556
Nb9 O18 2.004747 1_555
Nb9 O0 2.009734 1_555
Nb9 O21 2.040944 1_545
Nb9 O15 2.062535 1_555
Nb9 O8 2.185850 1_545
Nb9 O6 2.235604 1_555
Nb10 O16 2.004747 1_555
Nb10 O12 2.009734 1_555
Nb10 O22 2.040944 1_455
Nb10 O3 2.062535 1_555
Nb10 O4 2.185850 1_455
Nb10 O10 2.235604 1_555
Nb11 O23 1.972633 1_555
Nb11 O2 2.033766 1_555
Nb11 O13 2.047403 1_545
Nb11 O17 2.079693 1_555
Nb11 O11 2.146180 1_555
Nb11 O5 2.215329 1_556
