# generated using pymatgen
data_Pr2Al2Fe15
_symmetry_space_group_name_H-M   'P 1'
_cell_length_a   6.48915721
_cell_length_b   6.48915721
_cell_length_c   6.48915726
_cell_angle_alpha   82.26606573
_cell_angle_beta   82.26606573
_cell_angle_gamma   82.26606931
_symmetry_Int_Tables_number   1
_chemical_formula_structural   Pr2Al2Fe15
_chemical_formula_sum   'Pr2 Al2 Fe15'
_cell_volume   266.41036250
_cell_formula_units_Z   1
loop_
 _symmetry_equiv_pos_site_id
 _symmetry_equiv_pos_as_xyz
  1  'x, y, z'
loop_
 _atom_site_type_symbol
 _atom_site_label
 _atom_site_symmetry_multiplicity
 _atom_site_fract_x
 _atom_site_fract_y
 _atom_site_fract_z
 _atom_site_occupancy
  Pr  Pr0  1  0.65176100  0.65176100  0.65176100  1
  Pr  Pr1  1  0.34823900  0.34823900  0.34823900  1
  Al  Al0  1  0.89832300  0.89832300  0.89832300  1
  Al  Al1  1  0.10167700  0.10167700  0.10167700  1
  Fe  Fe0  1  0.00000000  0.00000000  0.50000000  1
  Fe  Fe1  1  0.50000000  0.00000000  0.00000000  1
  Fe  Fe2  1  0.00000000  0.50000000  0.00000000  1
  Fe  Fe3  1  0.71254000  0.28746000  0.00000000  1
  Fe  Fe4  1  0.00000000  0.71254000  0.28746000  1
  Fe  Fe5  1  0.28746000  0.00000000  0.71254000  1
  Fe  Fe6  1  0.00000000  0.28746000  0.71254000  1
  Fe  Fe7  1  0.71254000  0.00000000  0.28746000  1
  Fe  Fe8  1  0.28746000  0.71254000  0.00000000  1
  Fe  Fe9  1  0.33995000  0.33995000  0.84460800  1
  Fe  Fe10  1  0.84460800  0.33995000  0.33995000  1
  Fe  Fe11  1  0.33995000  0.84460800  0.33995000  1
  Fe  Fe12  1  0.66005000  0.66005000  0.15539200  1
  Fe  Fe13  1  0.15539200  0.66005000  0.66005000  1
  Fe  Fe14  1  0.66005000  0.15539200  0.66005000  1
loop_
_geom_bond_atom_site_label_1
_geom_bond_atom_site_label_2
_geom_bond_distance
_geom_bond_site_symmetry_2
Pr0 Pr1 3.843217 1_555
Al0 Al1 2.574883 1_666
Al0 Fe0 2.598250 1_665
Al0 Fe1 2.598250 1_566
Al0 Fe2 2.598250 1_656
Al0 Fe12 2.611361 1_556
Al0 Fe14 2.611362 1_565
Al0 Fe13 2.611362 1_655
Al0 Fe6 2.771320 1_665
Al0 Fe5 2.771320 1_665
Al0 Fe4 2.771320 1_656
Al0 Fe7 2.771320 1_566
Al0 Fe8 2.771320 1_656
Al0 Fe3 2.771320 1_566
Al0 Pr0 3.121986 1_555
Al1 Fe0 2.598250 1_555
Al1 Fe2 2.598250 1_555
Al1 Fe1 2.598250 1_555
Al1 Fe9 2.611361 1_554
Al1 Fe10 2.611362 1_455
Al1 Fe11 2.611362 1_545
Al1 Fe7 2.771320 1_455
Al1 Fe4 2.771320 1_545
Al1 Fe5 2.771320 1_554
Al1 Fe6 2.771320 1_554
Al1 Fe8 2.771320 1_545
Al1 Fe3 2.771320 1_455
Al1 Pr1 3.121986 1_555
Fe0 Fe14 2.455276 1_455
Fe0 Fe13 2.455276 1_545
Fe0 Fe11 2.455276 1_545
Fe0 Fe10 2.455276 1_455
Fe0 Fe4 2.464603 1_545
Fe0 Fe7 2.464603 1_455
Fe0 Fe6 2.464603 1_555
Fe0 Fe5 2.464603 1_555
Fe0 Pr1 3.370387 1_555
Fe0 Pr0 3.370387 1_445
Fe1 Fe14 2.455275 1_554
Fe1 Fe11 2.455275 1_545
Fe1 Fe12 2.455276 1_545
Fe1 Fe9 2.455276 1_554
Fe1 Fe8 2.464603 1_545
Fe1 Fe3 2.464603 1_555
Fe1 Fe5 2.464603 1_554
Fe1 Fe7 2.464603 1_555
Fe1 Pr1 3.370387 1_555
Fe1 Pr0 3.370387 1_544
Fe2 Fe9 2.455276 1_554
Fe2 Fe3 2.464603 1_455
Fe2 Fe8 2.464603 1_555
Fe2 Fe6 2.464603 1_554
Fe2 Fe4 2.464603 1_555
Fe2 Pr1 3.370387 1_555
Fe2 Pr0 3.370387 1_454
Fe3 Fe6 2.454121 1_654
Fe3 Fe7 2.454121 1_555
Fe3 Fe9 2.705667 1_554
Fe3 Pr1 3.066235 1_555
Fe3 Pr0 3.066235 1_554
Fe4 Fe8 2.454121 1_555
Fe4 Fe7 2.454121 1_465
Fe4 Pr0 3.066235 1_455
Fe4 Pr1 3.066235 1_555
Fe5 Fe8 2.454121 1_546
Fe5 Fe6 2.454121 1_555
Fe5 Fe9 2.550786 1_555
Fe5 Pr1 3.066235 1_555
Fe5 Pr0 3.066235 1_545
Fe6 Fe9 2.550786 1_555
Fe6 Pr1 3.066235 1_555
Fe6 Pr0 3.066235 1_455
Fe7 Pr0 3.066235 1_545
Fe7 Pr1 3.066235 1_555
Fe8 Fe9 2.705667 1_554
Fe8 Pr1 3.066235 1_555
Fe8 Pr0 3.066235 1_554
Fe9 Pr0 3.081097 1_555
Fe9 Pr1 3.207530 1_555
Fe9 Pr1 3.283586 1_556
Fe10 Fe2 2.455275 1_655
Fe10 Fe14 2.496042 1_555
Fe10 Fe12 2.496042 1_555
Fe10 Fe7 2.550786 1_555
Fe10 Fe3 2.550786 1_555
Fe10 Fe4 2.705667 1_655
Fe10 Fe6 2.705667 1_655
Fe10 Pr0 3.081097 1_555
Fe10 Pr1 3.207530 1_555
Fe10 Pr1 3.283586 1_655
Fe11 Fe13 2.496042 1_555
Fe11 Fe12 2.496042 1_555
Fe11 Fe4 2.550786 1_555
Fe11 Fe8 2.550786 1_555
Fe11 Fe7 2.705667 1_565
Fe11 Fe5 2.705667 1_565
Fe11 Pr0 3.081097 1_555
Fe11 Pr1 3.207530 1_555
Fe11 Pr1 3.283586 1_565
Fe12 Fe2 2.455276 1_655
Fe12 Fe4 2.550786 1_655
Fe12 Fe7 2.550786 1_565
Fe12 Fe8 2.705667 1_555
Fe12 Fe3 2.705667 1_555
Fe12 Pr1 3.081097 1_555
Fe12 Pr0 3.207530 1_555
Fe12 Pr0 3.283586 1_554
Fe13 Fe2 2.455275 1_556
Fe13 Fe9 2.496042 1_555
Fe13 Fe5 2.550786 1_565
Fe13 Fe8 2.550786 1_556
Fe13 Fe6 2.705667 1_555
Fe13 Fe4 2.705667 1_555
Fe13 Pr1 3.081097 1_555
Fe13 Pr0 3.207530 1_555
Fe13 Pr0 3.283586 1_455
Fe14 Fe9 2.496042 1_555
Fe14 Fe6 2.550786 1_655
Fe14 Fe3 2.550786 1_556
Fe14 Fe5 2.705667 1_555
Fe14 Fe7 2.705667 1_555
Fe14 Pr1 3.081097 1_555
Fe14 Pr0 3.207530 1_555
Fe14 Pr0 3.283586 1_545
