# generated using pymatgen
data_Mg6AlC
_symmetry_space_group_name_H-M   'P 1'
_cell_length_a   4.97977100
_cell_length_b   5.89674400
_cell_length_c   10.35726300
_cell_angle_alpha   90.00000000
_cell_angle_beta   90.00000000
_cell_angle_gamma   90.00000000
_symmetry_Int_Tables_number   1
_chemical_formula_structural   Mg6AlC
_chemical_formula_sum   'Mg12 Al2 C2'
_cell_volume   304.13517371
_cell_formula_units_Z   2
loop_
 _symmetry_equiv_pos_site_id
 _symmetry_equiv_pos_as_xyz
  1  'x, y, z'
loop_
 _atom_site_type_symbol
 _atom_site_label
 _atom_site_symmetry_multiplicity
 _atom_site_fract_x
 _atom_site_fract_y
 _atom_site_fract_z
 _atom_site_occupancy
  Mg  Mg0  1  0.00000000  0.25998300  0.08833400  1
  Mg  Mg1  1  0.00000000  0.74001700  0.08833400  1
  Mg  Mg2  1  0.00000000  0.00000000  0.33303800  1
  Mg  Mg3  1  0.50000000  0.74701200  0.41359200  1
  Mg  Mg4  1  0.50000000  0.25298800  0.41359200  1
  Mg  Mg5  1  0.50000000  0.00000000  0.16696200  1
  Mg  Mg6  1  0.00000000  0.75998300  0.58833400  1
  Mg  Mg7  1  0.00000000  0.24001700  0.58833400  1
  Mg  Mg8  1  0.00000000  0.50000000  0.83303800  1
  Mg  Mg9  1  0.50000000  0.24701200  0.91359200  1
  Mg  Mg10  1  0.50000000  0.75298800  0.91359200  1
  Mg  Mg11  1  0.50000000  0.50000000  0.66696200  1
  Al  Al0  1  0.00000000  0.50000000  0.33091500  1
  Al  Al1  1  0.00000000  0.00000000  0.83091500  1
  C  C0  1  0.50000000  0.50000000  0.16523300  1
  C  C1  1  0.50000000  0.00000000  0.66523300  1
loop_
_geom_bond_atom_site_label_1
_geom_bond_atom_site_label_2
_geom_bond_distance
_geom_bond_site_symmetry_2
Mg0 Mg1 2.830638 1_555
Mg0 Mg2 2.962053 1_555
Mg0 Mg8 2.999125 1_554
Mg0 Mg5 3.035289 1_455
Mg0 Mg5 3.035289 1_555
Mg0 Mg1 3.066106 1_545
Mg0 Mg9 3.079112 1_454
Mg0 Mg9 3.079112 1_554
Mg1 Mg2 2.962053 1_565
Mg1 Mg8 2.999125 1_554
Mg1 Mg5 3.035289 1_465
Mg1 Mg5 3.035289 1_565
Mg1 Mg10 3.079112 1_454
Mg1 Mg10 3.079112 1_554
Mg2 Mg7 2.999125 1_555
Mg2 Mg6 2.999125 1_545
Mg2 Mg3 3.020116 1_545
Mg2 Mg4 3.020116 1_455
Mg2 Mg3 3.020116 1_445
Mg2 Mg4 3.020116 1_555
Mg2 Mg5 3.026260 1_555
Mg2 Mg5 3.026260 1_455
Mg3 Mg6 3.079112 1_655
Mg3 Mg6 3.079112 1_555
Mg4 Mg7 3.079112 1_555
Mg4 Mg7 3.079112 1_655
Mg6 Mg7 2.830638 1_565
Mg6 Mg8 2.962053 1_555
Mg6 Mg7 3.066106 1_555
Mg7 Mg8 2.962053 1_555
Mg8 Mg9 3.020116 1_555
Mg8 Mg9 3.020116 1_455
Mg10 Mg8 3.020116 1_655
Mg10 Mg8 3.020116 1_555
Mg11 Mg8 3.026260 1_555
Mg11 Mg8 3.026260 1_655
Mg11 Mg6 3.035289 1_655
Mg11 Mg6 3.035289 1_555
Mg11 Mg7 3.035289 1_555
Mg11 Mg7 3.035289 1_655
Al0 Mg1 2.883688 1_555
Al0 Mg0 2.883688 1_555
Al0 Mg2 2.948454 1_555
Al0 Mg2 2.948454 1_565
Al0 Mg4 3.009049 1_455
Al0 Mg3 3.009049 1_555
Al0 Mg4 3.009049 1_555
Al0 Mg3 3.009049 1_455
Al0 Mg6 3.075490 1_555
Al0 Mg7 3.075490 1_555
Al1 Mg7 2.883688 1_555
Al1 Mg6 2.883688 1_545
Al1 Mg8 2.948454 1_555
Al1 Mg8 2.948454 1_545
Al1 Mg9 3.009049 1_455
Al1 Mg9 3.009049 1_555
Al1 Mg10 3.009049 1_545
Al1 Mg10 3.009049 1_445
Al1 Mg0 3.075490 1_556
Al1 Mg1 3.075490 1_546
C0 Mg1 2.972711 1_555
C0 Mg1 2.972711 1_655
C0 Mg0 2.972711 1_655
C0 Mg0 2.972711 1_555
C1 Mg7 2.972711 1_555
C1 Mg7 2.972711 1_655
C1 Mg6 2.972711 1_645
C1 Mg6 2.972711 1_545
