# generated using pymatgen
data_U3O8
_symmetry_space_group_name_H-M   'P 1'
_cell_length_a   4.16023200
_cell_length_b   6.77733400
_cell_length_c   6.87287219
_cell_angle_alpha   119.54122191
_cell_angle_beta   90.00000000
_cell_angle_gamma   90.00000000
_symmetry_Int_Tables_number   1
_chemical_formula_structural   U3O8
_chemical_formula_sum   'U3 O8'
_cell_volume   168.59106525
_cell_formula_units_Z   1
loop_
 _symmetry_equiv_pos_site_id
 _symmetry_equiv_pos_as_xyz
  1  'x, y, z'
loop_
 _atom_site_type_symbol
 _atom_site_label
 _atom_site_symmetry_multiplicity
 _atom_site_fract_x
 _atom_site_fract_y
 _atom_site_fract_z
 _atom_site_occupancy
  U  U0  1  0.00000000  0.96180700  0.00000000  1
  U  U1  1  0.00000000  0.66830600  0.34745000  1
  U  U2  1  0.00000000  0.32085700  0.65255000  1
  O  O0  1  0.00000000  0.58103400  0.00000000  1
  O  O1  1  0.50000000  0.95399600  0.00000000  1
  O  O2  1  0.00000000  0.07270700  0.75468100  1
  O  O3  1  0.00000000  0.31802600  0.24531900  1
  O  O4  1  0.00000000  0.98785100  0.33819600  1
  O  O5  1  0.00000000  0.64965500  0.66180400  1
  O  O6  1  0.50000000  0.67474100  0.35472000  1
  O  O7  1  0.50000000  0.32002100  0.64528000  1
loop_
_geom_bond_atom_site_label_1
_geom_bond_atom_site_label_2
_geom_bond_distance
_geom_bond_site_symmetry_2
O0 U2 2.158585 1_554
O0 U1 2.158587 1_555
O0 U0 2.580626 1_555
O1 U0 2.080790 1_555
O1 U0 2.080790 1_655
O2 U2 2.117840 1_555
O2 U0 2.158076 1_546
O3 U1 2.117833 1_555
O3 U0 2.158076 1_545
O4 U1 2.197719 1_555
O4 U2 2.225561 1_565
O4 U0 2.242614 1_555
O5 U2 2.197712 1_555
O5 U1 2.225557 1_555
O5 U0 2.242614 1_556
O6 U1 2.080657 1_555
O6 U1 2.080657 1_655
O7 U2 2.080657 1_555
O7 U2 2.080657 1_655
