# generated using pymatgen
data_Mg6TiB
_symmetry_space_group_name_H-M   'P 1'
_cell_length_a   4.73626000
_cell_length_b   5.71142000
_cell_length_c   11.08499800
_cell_angle_alpha   90.00000000
_cell_angle_beta   90.00000000
_cell_angle_gamma   90.00000000
_symmetry_Int_Tables_number   1
_chemical_formula_structural   Mg6TiB
_chemical_formula_sum   'Mg12 Ti2 B2'
_cell_volume   299.85773234
_cell_formula_units_Z   2
loop_
 _symmetry_equiv_pos_site_id
 _symmetry_equiv_pos_as_xyz
  1  'x, y, z'
loop_
 _atom_site_type_symbol
 _atom_site_label
 _atom_site_symmetry_multiplicity
 _atom_site_fract_x
 _atom_site_fract_y
 _atom_site_fract_z
 _atom_site_occupancy
  Mg  Mg0  1  0.50000000  0.24928400  0.42880800  1
  Mg  Mg1  1  0.50000000  0.75071600  0.42880800  1
  Mg  Mg2  1  0.00000000  0.75029800  0.08202400  1
  Mg  Mg3  1  0.00000000  0.24970200  0.08202400  1
  Mg  Mg4  1  0.00000000  0.00000000  0.33027300  1
  Mg  Mg5  1  0.00000000  0.50000000  0.30967400  1
  Mg  Mg6  1  0.50000000  0.74928400  0.92880800  1
  Mg  Mg7  1  0.50000000  0.25071600  0.92880800  1
  Mg  Mg8  1  0.00000000  0.25029800  0.58202400  1
  Mg  Mg9  1  0.00000000  0.74970200  0.58202400  1
  Mg  Mg10  1  0.00000000  0.50000000  0.83027300  1
  Mg  Mg11  1  0.00000000  0.00000000  0.80967400  1
  Ti  Ti0  1  0.50000000  0.00000000  0.17916700  1
  Ti  Ti1  1  0.50000000  0.50000000  0.67916700  1
  B  B0  1  0.50000000  0.50000000  0.15922000  1
  B  B1  1  0.50000000  0.00000000  0.65922000  1
loop_
_geom_bond_atom_site_label_1
_geom_bond_atom_site_label_2
_geom_bond_distance
_geom_bond_site_symmetry_2
Mg0 Mg1 2.847531 1_545
Mg0 Mg1 2.863889 1_555
Mg0 Mg8 2.914212 1_655
Mg0 Mg8 2.914212 1_555
Mg0 Mg4 2.971225 1_655
Mg0 Mg4 2.971225 1_555
Mg0 Mg5 3.066348 1_555
Mg0 Mg5 3.066348 1_655
Mg0 Ti0 3.112056 1_555
Mg0 Ti1 3.122877 1_555
Mg1 Mg9 2.914212 1_555
Mg1 Mg9 2.914212 1_655
Mg1 Mg4 2.971225 1_565
Mg1 Mg4 2.971225 1_665
Mg1 Mg5 3.066348 1_555
Mg1 Mg5 3.066348 1_655
Mg1 Ti0 3.112056 1_565
Mg1 Ti1 3.122877 1_555
Mg2 Mg3 2.852306 1_565
Mg2 Mg3 2.859114 1_555
Mg2 Mg5 2.900290 1_555
Mg2 Mg6 2.914212 1_454
Mg2 Mg6 2.914212 1_554
Mg2 Ti0 2.966735 1_465
Mg2 Ti0 2.966735 1_565
Mg2 Mg4 3.099441 1_565
Mg3 Mg5 2.900290 1_555
Mg3 Mg7 2.914212 1_554
Mg3 Mg7 2.914212 1_454
Mg3 Ti0 2.966735 1_555
Mg3 Ti0 2.966735 1_455
Mg3 Mg4 3.099441 1_555
Mg4 Mg5 2.864824 1_545
Mg4 Mg5 2.864824 1_555
Mg4 Ti0 2.900637 1_455
Mg4 Ti0 2.900637 1_555
Mg4 Mg9 3.135508 1_545
Mg4 Mg8 3.135508 1_555
Mg5 Mg8 3.338902 1_555
Mg5 Mg9 3.338902 1_555
Mg6 Mg7 2.847531 1_555
Mg6 Mg7 2.863889 1_565
Mg6 Ti1 3.112056 1_555
Mg6 Ti0 3.122877 1_566
Mg7 Ti1 3.112056 1_555
Mg7 Ti0 3.122877 1_556
Mg8 Mg9 2.852306 1_555
Mg8 Mg9 2.859114 1_545
Mg8 Ti1 2.966735 1_455
Mg8 Ti1 2.966735 1_555
Mg9 Ti1 2.966735 1_455
Mg9 Ti1 2.966735 1_555
Mg10 Mg11 2.864824 1_555
Mg10 Mg11 2.864824 1_565
Mg10 Ti1 2.900637 1_555
Mg10 Ti1 2.900637 1_455
Mg10 Mg6 2.971225 1_455
Mg10 Mg6 2.971225 1_555
Mg10 Mg7 2.971225 1_555
Mg10 Mg7 2.971225 1_455
Mg10 Mg8 3.099441 1_555
Mg10 Mg9 3.099441 1_555
Mg10 Mg3 3.135508 1_556
Mg10 Mg2 3.135508 1_556
Mg11 Mg9 2.900290 1_545
Mg11 Mg8 2.900290 1_555
Mg11 Mg6 3.066348 1_445
Mg11 Mg7 3.066348 1_455
Mg11 Mg6 3.066348 1_545
Mg11 Mg7 3.066348 1_555
Mg11 Mg3 3.338902 1_556
Mg11 Mg2 3.338902 1_546
B0 Ti0 2.864257 1_555
B0 Ti0 2.864257 1_565
B0 Mg2 2.895501 1_655
B0 Mg3 2.895501 1_555
B0 Mg3 2.895501 1_655
B0 Mg2 2.895501 1_555
B0 Mg5 2.896470 1_555
B0 Mg5 2.896470 1_655
B0 Mg6 2.924144 1_554
B0 Mg7 2.924144 1_554
B1 Ti1 2.864257 1_545
B1 Ti1 2.864257 1_555
B1 Mg8 2.895501 1_655
B1 Mg9 2.895501 1_545
B1 Mg8 2.895501 1_555
B1 Mg9 2.895501 1_645
B1 Mg11 2.896470 1_555
B1 Mg11 2.896470 1_655
B1 Mg1 2.924144 1_545
B1 Mg0 2.924144 1_555
