# generated using pymatgen
data_U2TiH3
_symmetry_space_group_name_H-M   'P 1'
_cell_length_a   4.73202983
_cell_length_b   4.73202983
_cell_length_c   3.69011300
_cell_angle_alpha   90.00000000
_cell_angle_beta   90.00000000
_cell_angle_gamma   119.99999768
_symmetry_Int_Tables_number   1
_chemical_formula_structural   U2TiH3
_chemical_formula_sum   'U2 Ti1 H3'
_cell_volume   71.55916355
_cell_formula_units_Z   1
loop_
 _symmetry_equiv_pos_site_id
 _symmetry_equiv_pos_as_xyz
  1  'x, y, z'
loop_
 _atom_site_type_symbol
 _atom_site_label
 _atom_site_symmetry_multiplicity
 _atom_site_fract_x
 _atom_site_fract_y
 _atom_site_fract_z
 _atom_site_occupancy
  U  U0  1  0.66666700  0.33333300  0.50000000  1
  U  U1  1  0.33333300  0.66666700  0.50000000  1
  Ti  Ti0  1  0.00000000  0.00000000  0.00000000  1
  H  H0  1  0.50000000  0.00000000  0.00000000  1
  H  H1  1  0.00000000  0.50000000  0.00000000  1
  H  H2  1  0.50000000  0.50000000  0.00000000  1
loop_
_geom_bond_atom_site_label_1
_geom_bond_atom_site_label_2
_geom_bond_distance
_geom_bond_site_symmetry_2
H0 U1 2.295700 1_544
H0 U0 2.295700 1_555
H0 U1 2.295700 1_545
H0 U0 2.295700 1_554
H0 Ti0 2.366015 1_655
H0 Ti0 2.366015 1_555
H1 U1 2.295700 1_554
H1 U1 2.295700 1_555
H1 U0 2.295700 1_455
H1 U0 2.295700 1_454
H1 Ti0 2.366015 1_565
H1 Ti0 2.366015 1_555
H2 U1 2.295702 1_554
H2 U0 2.295702 1_555
H2 U1 2.295702 1_555
H2 U0 2.295702 1_554
H2 Ti0 2.366015 1_665
H2 Ti0 2.366015 1_555
