# generated using pymatgen
data_SrLiAl3N4
_symmetry_space_group_name_H-M   'P 1'
_cell_length_a   5.88490800
_cell_length_b   7.53077125
_cell_length_c   9.99846718
_cell_angle_alpha   83.58023329
_cell_angle_beta   76.82025678
_cell_angle_gamma   79.54867505
_symmetry_Int_Tables_number   1
_chemical_formula_structural   SrLiAl3N4
_chemical_formula_sum   'Sr4 Li4 Al12 N16'
_cell_volume   423.13141699
_cell_formula_units_Z   4
loop_
 _symmetry_equiv_pos_site_id
 _symmetry_equiv_pos_as_xyz
  1  'x, y, z'
loop_
 _atom_site_type_symbol
 _atom_site_label
 _atom_site_symmetry_multiplicity
 _atom_site_fract_x
 _atom_site_fract_y
 _atom_site_fract_z
 _atom_site_occupancy
  Sr  Sr0  1  0.99751400  0.86530300  0.87370000  1
  Sr  Sr1  1  0.00248600  0.13469700  0.12630000  1
  Sr  Sr2  1  0.97624500  0.61646800  0.62832300  1
  Sr  Sr3  1  0.02375500  0.38353200  0.37167700  1
  Li  Li0  1  0.53265100  0.67446800  0.88748600  1
  Li  Li1  1  0.46734900  0.32553200  0.11251400  1
  Li  Li2  1  0.79057100  0.82006900  0.35586100  1
  Li  Li3  1  0.20942900  0.17993100  0.64413900  1
  Al  Al0  1  0.44796300  0.04570800  0.87656500  1
  Al  Al1  1  0.55203700  0.95429200  0.12343500  1
  Al  Al2  1  0.82442300  0.05900700  0.60227800  1
  Al  Al3  1  0.17557700  0.94099300  0.39772200  1
  Al  Al4  1  0.83187800  0.29154300  0.85212000  1
  Al  Al5  1  0.16812200  0.70845700  0.14788000  1
  Al  Al6  1  0.17886900  0.44277200  0.89995400  1
  Al  Al7  1  0.82113100  0.55722800  0.10004600  1
  Al  Al8  1  0.53087900  0.43822800  0.62461500  1
  Al  Al9  1  0.46912100  0.56177200  0.37538500  1
  Al  Al10  1  0.43577300  0.79627700  0.63297300  1
  Al  Al11  1  0.56422700  0.20372300  0.36702700  1
  N  N0  1  0.65117000  0.13189800  0.97105200  1
  N  N1  1  0.34883000  0.86810200  0.02894800  1
  N  N2  1  0.62625600  0.64486200  0.49609000  1
  N  N3  1  0.37374400  0.35513800  0.50391000  1
  N  N4  1  0.61371200  0.91631300  0.72021000  1
  N  N5  1  0.38628800  0.08368700  0.27979000  1
  N  N6  1  0.84920700  0.06914700  0.40774300  1
  N  N7  1  0.15079300  0.93085300  0.59225700  1
  N  N8  1  0.16919000  0.20467500  0.85603400  1
  N  N9  1  0.83081000  0.79532500  0.14396600  1
  N  N10  1  0.83803300  0.52258600  0.91156600  1
  N  N11  1  0.16196700  0.47741400  0.08843400  1
  N  N12  1  0.80198000  0.29056100  0.66733800  1
  N  N13  1  0.19802000  0.70943900  0.33266200  1
  N  N14  1  0.34085500  0.59028400  0.76105700  1
  N  N15  1  0.65914500  0.40971600  0.23894300  1
loop_
_geom_bond_atom_site_label_1
_geom_bond_atom_site_label_2
_geom_bond_distance
_geom_bond_site_symmetry_2
Li0 N10 1.996478 1_555
Li0 N14 2.088846 1_555
Li0 N1 2.118572 1_556
Li0 N4 2.368985 1_555
Li1 N11 1.996478 1_555
Li1 N15 2.088846 1_555
Li1 N0 2.118572 1_554
Li1 N5 2.368985 1_555
Li2 N2 2.018102 1_555
Li2 N9 2.103061 1_555
Li2 N6 2.107283 1_565
Li2 N13 2.358428 1_655
Li3 N3 2.018102 1_555
Li3 N8 2.103061 1_555
Li3 N7 2.107283 1_545
Li3 N12 2.358428 1_455
Al0 N8 1.884886 1_555
Al0 N4 1.909287 1_545
Al0 N0 1.917756 1_555
Al0 N1 1.967912 1_546
Al1 N9 1.884886 1_555
Al1 N5 1.909287 1_565
Al1 N1 1.917756 1_555
Al1 N0 1.967912 1_564
Al2 N12 1.900603 1_555
Al2 N4 1.901601 1_545
Al2 N6 1.910966 1_555
Al2 N7 1.972753 1_645
Al3 N13 1.900603 1_555
Al3 N5 1.901601 1_565
Al3 N7 1.910966 1_555
Al3 N6 1.972753 1_465
Al4 N0 1.886229 1_555
Al4 N12 1.896356 1_555
Al4 N10 1.909423 1_555
Al4 N8 1.982040 1_655
Al5 N1 1.886229 1_555
Al5 N13 1.896356 1_555
Al5 N11 1.909423 1_555
Al5 N9 1.982040 1_455
Al6 N14 1.872680 1_555
Al6 N8 1.906742 1_555
Al6 N11 1.909027 1_556
Al6 N10 1.967221 1_455
Al7 N15 1.872680 1_555
Al7 N9 1.906742 1_555
Al7 N10 1.909027 1_554
Al7 N11 1.967221 1_655
Al8 N12 1.877581 1_555
Al8 N3 1.894967 1_555
Al8 N14 1.900510 1_555
Al8 N2 1.982089 1_555
Al9 N13 1.877581 1_555
Al9 N2 1.894967 1_555
Al9 N15 1.900510 1_555
Al9 N3 1.982089 1_555
Al10 N7 1.899440 1_555
Al10 N4 1.900192 1_555
Al10 N2 1.901464 1_555
Al10 N14 1.975464 1_555
Al11 N6 1.899440 1_555
Al11 N5 1.900192 1_555
Al11 N3 1.901464 1_555
Al11 N15 1.975464 1_555
N0 Sr0 2.679582 1_545
N0 Sr1 2.858473 1_656
N1 Sr1 2.679582 1_565
N1 Sr0 2.858473 1_454
N2 Sr2 2.656067 1_555
N2 Sr3 2.905656 1_655
N3 Sr3 2.656067 1_555
N3 Sr2 2.905656 1_455
N4 Sr2 2.883907 1_555
N4 Sr0 2.956054 1_555
N5 Sr3 2.883907 1_555
N5 Sr1 2.956054 1_555
N6 Sr3 2.704256 1_655
N6 Sr1 2.769357 1_655
N7 Sr2 2.704256 1_455
N7 Sr0 2.769357 1_455
N8 Sr1 2.683748 1_556
N8 Sr0 2.887579 1_445
N9 Sr0 2.683748 1_554
N9 Sr1 2.887579 1_665
N10 Sr2 2.809288 1_555
N10 Sr0 2.860699 1_555
N11 Sr3 2.809288 1_555
N11 Sr1 2.860699 1_555
N12 Sr2 2.782853 1_555
N12 Sr3 3.006946 1_655
N13 Sr3 2.782853 1_555
N13 Sr2 3.006946 1_455
N14 Sr2 2.736918 1_455
N14 Sr0 2.757926 1_455
N15 Sr3 2.736918 1_655
N15 Sr1 2.757926 1_655
