# generated using pymatgen
data_CaNi3
_symmetry_space_group_name_H-M   'P 1'
_cell_length_a   4.97714028
_cell_length_b   4.97714028
_cell_length_c   8.49766388
_cell_angle_alpha   72.97113633
_cell_angle_beta   72.97113633
_cell_angle_gamma   59.99999630
_symmetry_Int_Tables_number   1
_chemical_formula_structural   CaNi3
_chemical_formula_sum   'Ca3 Ni9'
_cell_volume   171.56187614
_cell_formula_units_Z   3
loop_
 _symmetry_equiv_pos_site_id
 _symmetry_equiv_pos_as_xyz
  1  'x, y, z'
loop_
 _atom_site_type_symbol
 _atom_site_label
 _atom_site_symmetry_multiplicity
 _atom_site_fract_x
 _atom_site_fract_y
 _atom_site_fract_z
 _atom_site_occupancy
  Ca  Ca0  1  0.14030500  0.14030500  0.57908400  1
  Ca  Ca1  1  0.85969500  0.85969500  0.42091600  1
  Ca  Ca2  1  0.00000000  0.00000000  0.00000000  1
  Ni  Ni0  1  0.08265500  0.58020000  0.75694600  1
  Ni  Ni1  1  0.58020000  0.58020000  0.75694600  1
  Ni  Ni2  1  0.58020000  0.08265500  0.75694600  1
  Ni  Ni3  1  0.91734500  0.41980000  0.24305400  1
  Ni  Ni4  1  0.41980000  0.41980000  0.24305400  1
  Ni  Ni5  1  0.41980000  0.91734500  0.24305400  1
  Ni  Ni6  1  0.33253300  0.33253300  0.00240000  1
  Ni  Ni7  1  0.66746700  0.66746700  0.99760000  1
  Ni  Ni8  1  0.50000000  0.50000000  0.50000000  1
loop_
_geom_bond_atom_site_label_1
_geom_bond_atom_site_label_2
_geom_bond_distance
_geom_bond_site_symmetry_2
Ca0 Ni2 2.866383 1_455
Ca0 Ni0 2.866383 1_545
Ca0 Ni1 2.866387 1_455
Ca0 Ni1 2.866387 1_545
Ca0 Ni0 2.866392 1_555
Ca0 Ni2 2.866392 1_555
Ca0 Ni8 2.942325 1_455
Ca0 Ni8 2.942325 1_545
Ca0 Ni8 2.942330 1_555
Ca0 Ni3 3.050569 1_455
Ca0 Ni5 3.050569 1_545
Ca0 Ni4 3.050570 1_555
Ca1 Ni5 2.866383 1_655
Ca1 Ni3 2.866383 1_565
Ca1 Ni4 2.866387 1_565
Ca1 Ni4 2.866387 1_655
Ca1 Ni3 2.866392 1_555
Ca1 Ni5 2.866392 1_555
Ca1 Ni8 2.942325 1_655
Ca1 Ni8 2.942325 1_565
Ca1 Ni8 2.942330 1_555
Ca1 Ni0 3.050569 1_655
Ca1 Ni2 3.050569 1_565
Ca1 Ni1 3.050570 1_555
Ca2 Ni6 2.873615 1_555
Ca2 Ni7 2.873615 1_444
Ca2 Ni7 2.873619 1_454
Ca2 Ni7 2.873619 1_544
Ca2 Ni6 2.873619 1_455
Ca2 Ni6 2.873619 1_545
Ca2 Ni5 3.157698 1_545
Ca2 Ni3 3.157698 1_455
Ca2 Ni2 3.157698 1_454
Ca2 Ni0 3.157698 1_544
Ca2 Ni1 3.157700 1_544
Ca2 Ni4 3.157700 1_455
Ca2 Ni1 3.157700 1_454
Ca2 Ni4 3.157700 1_545
Ca2 Ni2 3.157702 1_554
Ca2 Ni0 3.157702 1_554
Ca2 Ni3 3.157702 1_445
Ca2 Ni5 3.157702 1_445
Ni0 Ni7 2.405919 1_455
Ni0 Ni6 2.428398 1_556
Ni0 Ni2 2.476351 1_555
Ni0 Ni1 2.476351 1_555
Ni0 Ni2 2.500789 1_465
Ni0 Ni1 2.500789 1_455
Ni0 Ni8 2.503269 1_555
Ni1 Ni7 2.405918 1_555
Ni1 Ni6 2.428403 1_556
Ni1 Ni2 2.476351 1_555
Ni1 Ni2 2.500789 1_565
Ni1 Ni8 2.503272 1_555
Ni2 Ni7 2.405919 1_545
Ni2 Ni6 2.428398 1_556
Ni2 Ni8 2.503269 1_555
Ni3 Ni6 2.405919 1_655
Ni3 Ni7 2.428398 1_554
Ni3 Ni5 2.476351 1_555
Ni3 Ni4 2.476351 1_555
Ni3 Ni5 2.500789 1_645
Ni3 Ni4 2.500789 1_655
Ni3 Ni8 2.503269 1_555
Ni4 Ni6 2.405918 1_555
Ni4 Ni7 2.428403 1_554
Ni4 Ni5 2.476351 1_555
Ni4 Ni5 2.500789 1_545
Ni4 Ni8 2.503272 1_555
Ni5 Ni6 2.405919 1_565
Ni5 Ni7 2.428398 1_554
Ni5 Ni8 2.503269 1_555
