# generated using pymatgen
data_Sr2LaMnCoO7
_symmetry_space_group_name_H-M   'P 1'
_cell_length_a   3.93053403
_cell_length_b   10.49416953
_cell_length_c   7.72202113
_cell_angle_alpha   79.39775695
_cell_angle_beta   89.98257373
_cell_angle_gamma   79.20187368
_symmetry_Int_Tables_number   1
_chemical_formula_structural   Sr2LaMnCoO7
_chemical_formula_sum   'Sr4 La2 Mn2 Co2 O14'
_cell_volume   307.34173036
_cell_formula_units_Z   2
loop_
 _symmetry_equiv_pos_site_id
 _symmetry_equiv_pos_as_xyz
  1  'x, y, z'
loop_
 _atom_site_type_symbol
 _atom_site_label
 _atom_site_symmetry_multiplicity
 _atom_site_fract_x
 _atom_site_fract_y
 _atom_site_fract_z
 _atom_site_occupancy
  Sr  Sr0  1  0.49704400  0.00492800  0.25306300  1
  Sr  Sr1  1  0.49804800  0.00498500  0.74439600  1
  Sr  Sr2  1  0.31796100  0.36403100  0.15965700  1
  Sr  Sr3  1  0.31846300  0.36311000  0.65862700  1
  La  La0  1  0.68339000  0.63693300  0.84025000  1
  La  La1  1  0.68000400  0.63622100  0.34149300  1
  Mn  Mn0  1  0.90149500  0.19704200  0.95083900  1
  Mn  Mn1  1  0.90167600  0.19661400  0.45083600  1
  Co  Co0  1  0.09543000  0.80919500  0.54767000  1
  Co  Co1  1  0.09242200  0.81511500  0.04631000  1
  O  O0  1  0.19665600  0.60657700  0.09787400  1
  O  O1  1  0.19938200  0.60107500  0.60041700  1
  O  O2  1  0.80275900  0.39475800  0.90202500  1
  O  O3  1  0.80149000  0.39681400  0.39994700  1
  O  O4  1  0.99946400  0.00106100  0.99968500  1
  O  O5  1  0.99609800  0.00784600  0.49795000  1
  O  O6  1  0.60134900  0.79728400  0.05015500  1
  O  O7  1  0.60180200  0.79640700  0.55125100  1
  O  O8  1  0.10498300  0.79570200  0.79526400  1
  O  O9  1  0.09934100  0.79554700  0.30697400  1
  O  O10  1  0.40342700  0.19321800  0.95205900  1
  O  O11  1  0.40204600  0.19594400  0.45071000  1
  O  O12  1  0.90251800  0.19480100  0.20038200  1
  O  O13  1  0.90275400  0.19479400  0.70216400  1
loop_
_geom_bond_atom_site_label_1
_geom_bond_atom_site_label_2
_geom_bond_distance
_geom_bond_site_symmetry_2
La0 O2 2.452298 1_555
La0 O7 2.511754 1_555
La0 O6 2.522492 1_556
La0 O8 2.536429 1_555
La0 O8 2.542410 1_655
La0 O1 2.766401 1_655
La0 O0 2.767215 1_656
La0 O0 2.777047 1_556
La0 O1 2.778035 1_555
La1 O3 2.424275 1_555
La1 O7 2.520308 1_555
La1 O6 2.533582 1_555
La1 O9 2.539994 1_655
La1 O9 2.545996 1_555
La1 O0 2.772018 1_555
La1 O1 2.773052 1_555
La1 O0 2.781356 1_655
La1 O1 2.783908 1_655
Mn0 O12 1.922785 1_556
Mn0 O13 1.924747 1_555
Mn0 O10 1.965571 1_555
Mn0 O10 1.965728 1_655
Mn0 O4 1.984509 1_555
Mn0 O2 2.002083 1_555
Mn1 O5 1.911470 1_555
Mn1 O13 1.937335 1_555
Mn1 O12 1.937598 1_555
Mn1 O11 1.965143 1_555
Mn1 O11 1.965417 1_655
Mn1 O3 2.027241 1_555
Co0 O9 1.890101 1_555
Co0 O8 1.890860 1_555
Co0 O7 1.969443 1_555
Co0 O7 1.969619 1_455
Co0 O5 2.011545 1_465
Co0 O1 2.107436 1_555
Co1 O4 1.882894 1_464
Co1 O6 1.973510 1_455
Co1 O6 1.973589 1_555
Co1 O9 1.985025 1_555
Co1 O8 1.985836 1_554
Co1 O0 2.111666 1_555
O0 Sr2 2.456043 1_555
O1 Sr3 2.409660 1_555
O2 Sr2 2.772052 1_656
O2 Sr2 2.772129 1_556
O2 Sr3 2.779703 1_655
O2 Sr3 2.781214 1_555
O3 Sr2 2.766439 1_655
O3 Sr2 2.766834 1_555
O3 Sr3 2.776521 1_555
O3 Sr3 2.778015 1_655
O4 Sr1 2.777439 1_555
O4 Sr0 2.777797 1_656
O4 Sr1 2.779631 1_655
O4 Sr0 2.779655 1_556
O5 Sr0 2.729516 1_655
O5 Sr1 2.730107 1_555
O5 Sr0 2.733249 1_555
O5 Sr1 2.733874 1_655
O6 Sr1 2.875005 1_564
O6 Sr0 2.879695 1_565
O7 Sr1 2.836959 1_565
O7 Sr0 2.840573 1_565
O8 Sr1 2.884141 1_565
O8 Sr1 2.896333 1_465
O9 Sr0 2.884546 1_465
O9 Sr0 2.897394 1_565
O10 Sr3 2.591374 1_555
O10 Sr2 2.593716 1_556
O10 Sr0 2.735038 1_556
O10 Sr1 2.738936 1_555
O11 Sr3 2.565796 1_555
O11 Sr2 2.568110 1_555
O11 Sr0 2.707776 1_555
O11 Sr1 2.710388 1_555
O12 Sr2 2.607275 1_555
O12 Sr2 2.607681 1_655
O12 Sr0 2.748465 1_655
O12 Sr0 2.750814 1_555
O13 Sr3 2.601031 1_655
O13 Sr3 2.601770 1_555
O13 Sr1 2.748130 1_555
O13 Sr1 2.750241 1_655
