# generated using pymatgen
data_Ho12Ge5S28
_symmetry_space_group_name_H-M   'P 1'
_cell_length_a   9.81876600
_cell_length_b   11.36780176
_cell_length_c   11.37919101
_cell_angle_alpha   96.55467307
_cell_angle_beta   115.54571392
_cell_angle_gamma   115.57347763
_symmetry_Int_Tables_number   1
_chemical_formula_structural   Ho12Ge5S28
_chemical_formula_sum   'Ho12 Ge5 S28'
_cell_volume   960.74619124
_cell_formula_units_Z   1
loop_
 _symmetry_equiv_pos_site_id
 _symmetry_equiv_pos_as_xyz
  1  'x, y, z'
loop_
 _atom_site_type_symbol
 _atom_site_label
 _atom_site_symmetry_multiplicity
 _atom_site_fract_x
 _atom_site_fract_y
 _atom_site_fract_z
 _atom_site_occupancy
  Ho  Ho0  1  0.06401700  0.93222800  0.29750300  1
  Ho  Ho1  1  0.59243500  0.46626100  0.81339400  1
  Ho  Ho2  1  0.92476200  0.70226600  0.57642900  1
  Ho  Ho3  1  0.41331900  0.18206000  0.05021400  1
  Ho  Ho4  1  0.40151100  0.74878200  0.52979800  1
  Ho  Ho5  1  0.86994000  0.23384400  0.99688600  1
  Ho  Ho6  1  0.91622800  0.03831600  0.69415400  1
  Ho  Ho7  1  0.43084000  0.57030600  0.20249800  1
  Ho  Ho8  1  0.08648400  0.31768000  0.45360700  1
  Ho  Ho9  1  0.58600500  0.80595100  0.92908300  1
  Ho  Ho10  1  0.63536800  0.27076200  0.49916900  1
  Ho  Ho11  1  0.10361200  0.75781900  0.97891000  1
  Ge  Ge0  1  0.41211900  0.08370900  0.74703200  1
  Ge  Ge1  1  0.91867600  0.57981100  0.25124500  1
  Ge  Ge2  1  0.66765200  0.00139000  0.33413300  1
  Ge  Ge3  1  0.16929800  0.50153100  0.83603900  1
  Ge  Ge4  1  0.23079600  0.23200500  0.23164300  1
  S  S0  1  0.64813500  0.24578000  0.74943400  1
  S  S1  1  0.16663300  0.73372000  0.26134700  1
  S  S2  1  0.30415500  0.21287700  0.78197300  1
  S  S3  1  0.80336100  0.69899400  0.29625200  1
  S  S4  1  0.53219700  0.04582900  0.94623900  1
  S  S5  1  0.02882300  0.54550200  0.45224700  1
  S  S6  1  0.58631400  0.00864400  0.48874900  1
  S  S7  1  0.08884200  0.50767300  0.99276900  1
  S  S8  1  0.94274400  0.03968200  0.45666000  1
  S  S9  1  0.44321900  0.53973800  0.96272900  1
  S  S10  1  0.71840500  0.20309300  0.29897200  1
  S  S11  1  0.21863200  0.69972800  0.79772100  1
  S  S12  1  0.22510700  0.89128800  0.55788300  1
  S  S13  1  0.72454400  0.39065000  0.05785600  1
  S  S14  1  0.97766600  0.30249400  0.65216000  1
  S  S15  1  0.47618200  0.81792100  0.13545600  1
  S  S16  1  0.31493800  0.22403700  0.46081600  1
  S  S17  1  0.83399700  0.73530700  0.00158300  1
  S  S18  1  0.08308000  0.91539700  0.81872000  1
  S  S19  1  0.53327400  0.38958300  0.29656800  1
  S  S20  1  0.68867900  0.95014600  0.78216500  1
  S  S21  1  0.17751300  0.41734900  0.27060100  1
  S  S22  1  0.64591800  0.74363600  0.48242100  1
  S  S23  1  0.15166700  0.24013200  0.99458300  1
  S  S24  1  0.91543500  0.07282600  0.16089200  1
  S  S25  1  0.40170800  0.56441800  0.66220300  1
  S  S26  1  0.28390400  0.03750500  0.19528400  1
  S  S27  1  0.79286500  0.53232900  0.69498000  1
loop_
_geom_bond_atom_site_label_1
_geom_bond_atom_site_label_2
_geom_bond_distance
_geom_bond_site_symmetry_2
Ho0 S3 2.771581 1_455
Ho0 S26 2.774809 1_565
Ho0 S24 2.779169 1_465
Ho0 S16 2.848765 1_565
Ho0 S1 2.895720 1_555
Ho0 S12 2.899256 1_555
Ho0 S8 2.966582 1_465
Ho0 S17 2.967486 1_455
Ho1 S25 2.678724 1_555
Ho1 S17 2.725239 1_556
Ho1 S27 2.737640 1_555
Ho1 S0 2.867235 1_555
Ho1 S2 2.879196 1_555
Ho1 S13 2.925071 1_556
Ho1 S9 2.934561 1_555
Ho2 S27 2.677826 1_555
Ho2 S18 2.723057 1_655
Ho2 S22 2.749927 1_555
Ho2 S3 2.871202 1_555
Ho2 S5 2.908412 1_655
Ho2 S11 2.913665 1_655
Ho2 S12 2.920270 1_655
Ho3 S4 2.737508 1_554
Ho3 S23 2.755681 1_554
Ho3 S26 2.768718 1_555
Ho3 S19 2.838089 1_555
Ho3 S2 2.887062 1_554
Ho3 S13 2.904539 1_555
Ho3 S10 2.992856 1_555
Ho3 S18 2.994414 1_544
Ho4 S22 2.698665 1_555
Ho4 S20 2.716694 1_555
Ho4 S25 2.717418 1_555
Ho4 S1 2.853624 1_555
Ho4 S12 2.916882 1_555
Ho4 S6 2.942028 1_565
Ho4 S5 2.993045 1_555
Ho4 S21 3.527887 1_555
Ho5 S23 2.747720 1_655
Ho5 S0 2.782729 1_555
Ho5 S24 2.792793 1_556
Ho5 S4 2.801580 1_555
Ho5 S21 2.852763 1_656
Ho5 S13 2.909595 1_556
Ho5 S7 2.942032 1_655
Ho5 S20 3.005571 1_545
Ho6 S18 2.659208 1_645
Ho6 S20 2.687960 1_545
Ho6 S8 2.825668 1_555
Ho6 S6 2.901190 1_555
Ho6 S14 2.936530 1_555
Ho6 S22 3.006196 1_545
Ho6 S23 3.018143 1_655
Ho6 S2 3.030441 1_655
Ho7 S22 2.767926 1_555
Ho7 S9 2.772290 1_554
Ho7 S19 2.781278 1_555
Ho7 S21 2.836738 1_555
Ho7 S7 2.848654 1_554
Ho7 S3 2.883677 1_555
Ho7 S15 2.899100 1_555
Ho7 S23 3.270467 1_554
Ho8 S21 2.772888 1_555
Ho8 S25 2.780291 1_555
Ho8 S10 2.789667 1_455
Ho8 S16 2.845055 1_555
Ho8 S8 2.863015 1_455
Ho8 S14 2.878888 1_455
Ho8 S5 2.880190 1_555
Ho8 S24 3.268886 1_455
Ho9 S20 2.674088 1_555
Ho9 S17 2.713219 1_556
Ho9 S11 2.807342 1_555
Ho9 S9 2.887024 1_555
Ho9 S15 2.988950 1_556
Ho9 S4 2.994055 1_565
Ho9 S24 2.994454 1_566
Ho9 S25 3.017158 1_555
Ho10 S16 2.773340 1_555
Ho10 S27 2.782690 1_555
Ho10 S6 2.784912 1_555
Ho10 S19 2.833923 1_555
Ho10 S0 2.848489 1_555
Ho10 S10 2.861719 1_555
Ho10 S14 2.867129 1_555
Ho10 S26 3.257646 1_555
Ho11 S17 2.675711 1_456
Ho11 S18 2.704159 1_555
Ho11 S7 2.810355 1_555
Ho11 S11 2.881620 1_555
Ho11 S26 2.983148 1_566
Ho11 S15 2.994393 1_556
Ho11 S27 3.028817 1_455
Ho11 S1 3.069087 1_556
Ge0 S12 2.199537 1_545
Ge0 S2 2.238745 1_555
Ge0 S0 2.239031 1_555
Ge0 S4 2.251687 1_555
Ge1 S13 2.205279 1_555
Ge1 S5 2.233297 1_655
Ge1 S1 2.244319 1_655
Ge1 S3 2.246328 1_555
Ge2 S15 2.206378 1_545
Ge2 S6 2.230635 1_555
Ge2 S8 2.242216 1_555
Ge2 S10 2.249628 1_555
Ge3 S14 2.210438 1_455
Ge3 S11 2.228290 1_555
Ge3 S9 2.237223 1_555
Ge3 S7 2.245881 1_555
Ge4 S16 2.398284 1_555
Ge4 S19 2.405760 1_555
Ge4 S21 2.418250 1_555
Ge4 S24 2.488083 1_455
Ge4 S23 2.490027 1_554
Ge4 S26 2.510855 1_555
