# generated using pymatgen
data_K2LiC3(SN)3
_symmetry_space_group_name_H-M   'P 1'
_cell_length_a   8.72594200
_cell_length_b   9.66354500
_cell_length_c   12.39336700
_cell_angle_alpha   90.00000000
_cell_angle_beta   90.00000000
_cell_angle_gamma   90.00000000
_symmetry_Int_Tables_number   1
_chemical_formula_structural   K2LiC3(SN)3
_chemical_formula_sum   'K8 Li4 C12 S12 N12'
_cell_volume   1045.05249349
_cell_formula_units_Z   4
loop_
 _symmetry_equiv_pos_site_id
 _symmetry_equiv_pos_as_xyz
  1  'x, y, z'
loop_
 _atom_site_type_symbol
 _atom_site_label
 _atom_site_symmetry_multiplicity
 _atom_site_fract_x
 _atom_site_fract_y
 _atom_site_fract_z
 _atom_site_occupancy
  K  K0  1  0.03246100  0.86983200  0.67619000  1
  K  K1  1  0.53246100  0.13016800  0.32381000  1
  K  K2  1  0.53246100  0.36983200  0.82381000  1
  K  K3  1  0.03246100  0.63016800  0.17619000  1
  K  K4  1  0.53117600  0.88233800  0.67042600  1
  K  K5  1  0.03117600  0.11766200  0.32957400  1
  K  K6  1  0.03117600  0.38233800  0.82957400  1
  K  K7  1  0.53117600  0.61766200  0.17042600  1
  Li  Li0  1  0.88975900  0.53502300  0.58222900  1
  Li  Li1  1  0.38975900  0.46497700  0.41777100  1
  Li  Li2  1  0.38975900  0.03502300  0.91777100  1
  Li  Li3  1  0.88975900  0.96497700  0.08222900  1
  C  C0  1  0.77869400  0.76893800  0.45282900  1
  C  C1  1  0.27869400  0.23106200  0.54717100  1
  C  C2  1  0.27869400  0.26893800  0.04717100  1
  C  C3  1  0.77869400  0.73106200  0.95282900  1
  C  C4  1  0.23856000  0.56636800  0.63170800  1
  C  C5  1  0.73856000  0.43363200  0.36829200  1
  C  C6  1  0.73856000  0.06636800  0.86829200  1
  C  C7  1  0.23856000  0.93363200  0.13170800  1
  C  C8  1  0.28605500  0.74969500  0.88814100  1
  C  C9  1  0.78605500  0.25030500  0.11185900  1
  C  C10  1  0.78605500  0.24969500  0.61185900  1
  C  C11  1  0.28605500  0.75030500  0.38814100  1
  S  S0  1  0.26186200  0.16888400  0.66874000  1
  S  S1  1  0.76186200  0.83111600  0.33126000  1
  S  S2  1  0.76186200  0.66888400  0.83126000  1
  S  S3  1  0.26186200  0.33111600  0.16874000  1
  S  S4  1  0.92405800  0.06318400  0.88329300  1
  S  S5  1  0.42405800  0.93681600  0.11670700  1
  S  S6  1  0.42405800  0.56318400  0.61670700  1
  S  S7  1  0.92405800  0.43681600  0.38329300  1
  S  S8  1  0.77610700  0.10191300  0.54877800  1
  S  S9  1  0.27610700  0.89808700  0.45122200  1
  S  S10  1  0.27610700  0.60191300  0.95122200  1
  S  S11  1  0.77610700  0.39808700  0.04877800  1
  N  N0  1  0.79207700  0.72363600  0.54183900  1
  N  N1  1  0.29207700  0.27636400  0.45816100  1
  N  N2  1  0.29207700  0.22363600  0.95816100  1
  N  N3  1  0.79207700  0.77636400  0.04183900  1
  N  N4  1  0.10302400  0.56844400  0.64154300  1
  N  N5  1  0.60302400  0.43155600  0.35845700  1
  N  N6  1  0.60302400  0.06844400  0.85845700  1
  N  N7  1  0.10302400  0.93155600  0.14154300  1
  N  N8  1  0.29458600  0.85815000  0.84322600  1
  N  N9  1  0.79458600  0.14185000  0.15677400  1
  N  N10  1  0.79458600  0.35815000  0.65677400  1
  N  N11  1  0.29458600  0.64185000  0.34322600  1
loop_
_geom_bond_atom_site_label_1
_geom_bond_atom_site_label_2
_geom_bond_distance
_geom_bond_site_symmetry_2
K0 N4 3.007660 1_555
K0 N0 3.027900 1_455
K0 N8 3.087054 1_555
K0 S4 3.312687 1_465
K0 S0 3.516678 1_565
K0 S9 3.516840 1_555
K0 S8 3.539366 1_465
K0 S2 3.611058 1_455
K1 N5 3.007660 1_555
K1 N1 3.027900 1_555
K1 N9 3.087054 1_555
K1 S5 3.312687 1_545
K1 S1 3.516678 1_545
K1 S8 3.516840 1_555
K1 S9 3.539366 1_545
K1 S3 3.611058 1_555
K2 N6 3.007660 1_555
K2 N2 3.027900 1_555
K2 N10 3.087054 1_555
K2 S6 3.312687 1_555
K2 S2 3.516678 1_555
K2 S11 3.516840 1_556
K2 S10 3.539366 1_555
K2 S0 3.611058 1_555
K3 N7 3.007660 1_555
K3 N3 3.027900 1_455
K3 N11 3.087054 1_555
K3 S7 3.312687 1_455
K3 S3 3.516678 1_555
K3 S10 3.516840 1_554
K3 S11 3.539366 1_455
K3 S1 3.611058 1_455
K4 N8 2.983792 1_555
K4 N6 3.009639 1_565
K4 N0 3.174049 1_555
K4 S6 3.290736 1_555
K4 S8 3.367958 1_565
K4 S2 3.504275 1_555
K4 S9 3.515296 1_555
K4 S0 3.631895 1_565
K5 N9 2.983792 1_455
K5 N7 3.009639 1_545
K5 N1 3.174049 1_555
K5 S7 3.290736 1_455
K5 S9 3.367958 1_545
K5 S3 3.504275 1_555
K5 S8 3.515296 1_455
K5 S1 3.631895 1_445
K6 N10 2.983792 1_455
K6 N4 3.009639 1_555
K6 N2 3.174049 1_555
K6 S4 3.290736 1_455
K6 S10 3.367958 1_555
K6 S0 3.504275 1_555
K6 S11 3.515296 1_456
K6 S2 3.631895 1_455
K7 N11 2.983792 1_555
K7 N5 3.009639 1_555
K7 N3 3.174049 1_555
K7 S5 3.290736 1_555
K7 S11 3.367958 1_555
K7 S1 3.504275 1_555
K7 S10 3.515296 1_554
K7 S3 3.631895 1_555
Li0 N4 2.026763 1_655
Li0 N0 2.073457 1_555
Li0 N10 2.112971 1_555
Li0 S7 2.658732 1_555
Li1 N5 2.026763 1_555
Li1 N1 2.073457 1_555
Li1 N11 2.112971 1_555
Li1 S6 2.658732 1_555
Li2 N6 2.026763 1_555
Li2 N2 2.073457 1_555
Li2 N8 2.112971 1_545
Li2 S5 2.658732 1_546
Li3 N7 2.026763 1_655
Li3 N3 2.073457 1_555
Li3 N9 2.112971 1_565
Li3 S4 2.658732 1_564
C0 N0 1.192556 1_555
C0 S1 1.628679 1_555
C1 N1 1.192556 1_555
C1 S0 1.628679 1_555
C2 N2 1.192556 1_554
C2 S3 1.628679 1_555
C3 N3 1.192556 1_556
C3 S2 1.628679 1_555
C4 N4 1.189113 1_555
C4 S6 1.629577 1_555
C5 N5 1.189113 1_555
C5 S7 1.629577 1_555
C6 N6 1.189113 1_555
C6 S4 1.629577 1_555
C7 N7 1.189113 1_555
C7 S5 1.629577 1_555
C8 N8 1.189045 1_555
C8 S10 1.630395 1_555
C9 N9 1.189045 1_555
C9 S11 1.630395 1_555
C10 N10 1.189045 1_555
C10 S8 1.630395 1_555
C11 N11 1.189045 1_555
C11 S9 1.630395 1_555
