# generated using pymatgen
data_Yb6Mn23
_symmetry_space_group_name_H-M   'P 1'
_cell_length_a   8.69182868
_cell_length_b   8.69182868
_cell_length_c   8.69182868
_cell_angle_alpha   60.00000000
_cell_angle_beta   60.00000000
_cell_angle_gamma   60.00000000
_symmetry_Int_Tables_number   1
_chemical_formula_structural   Yb6Mn23
_chemical_formula_sum   'Yb6 Mn23'
_cell_volume   464.32115900
_cell_formula_units_Z   1
loop_
 _symmetry_equiv_pos_site_id
 _symmetry_equiv_pos_as_xyz
  1  'x, y, z'
loop_
 _atom_site_type_symbol
 _atom_site_label
 _atom_site_symmetry_multiplicity
 _atom_site_fract_x
 _atom_site_fract_y
 _atom_site_fract_z
 _atom_site_occupancy
  Yb  Yb0  1  0.70768500  0.29231500  0.29231500  1
  Yb  Yb1  1  0.70768500  0.29231500  0.70768500  1
  Yb  Yb2  1  0.70768500  0.70768500  0.29231500  1
  Yb  Yb3  1  0.29231500  0.70768500  0.70768500  1
  Yb  Yb4  1  0.29231500  0.70768500  0.29231500  1
  Yb  Yb5  1  0.29231500  0.29231500  0.70768500  1
  Mn  Mn0  1  0.00000000  0.00000000  0.00000000  1
  Mn  Mn1  1  0.50000000  0.00000000  0.00000000  1
  Mn  Mn2  1  0.50000000  0.00000000  0.50000000  1
  Mn  Mn3  1  0.50000000  0.50000000  0.00000000  1
  Mn  Mn4  1  0.00000000  0.50000000  0.50000000  1
  Mn  Mn5  1  0.00000000  0.50000000  0.00000000  1
  Mn  Mn6  1  0.00000000  0.00000000  0.50000000  1
  Mn  Mn7  1  0.64105300  0.11964900  0.11964900  1
  Mn  Mn8  1  0.11964900  0.64105300  0.11964900  1
  Mn  Mn9  1  0.11964900  0.11964900  0.64105300  1
  Mn  Mn10  1  0.11964900  0.11964900  0.11964900  1
  Mn  Mn11  1  0.35894700  0.88035100  0.88035100  1
  Mn  Mn12  1  0.88035100  0.35894700  0.88035100  1
  Mn  Mn13  1  0.88035100  0.88035100  0.35894700  1
  Mn  Mn14  1  0.88035100  0.88035100  0.88035100  1
  Mn  Mn15  1  0.03055700  0.32314800  0.32314800  1
  Mn  Mn16  1  0.32314800  0.03055700  0.32314800  1
  Mn  Mn17  1  0.32314800  0.32314800  0.03055700  1
  Mn  Mn18  1  0.32314800  0.32314800  0.32314800  1
  Mn  Mn19  1  0.96944300  0.67685200  0.67685200  1
  Mn  Mn20  1  0.67685200  0.96944300  0.67685200  1
  Mn  Mn21  1  0.67685200  0.67685200  0.96944300  1
  Mn  Mn22  1  0.67685200  0.67685200  0.67685200  1
loop_
_geom_bond_atom_site_label_1
_geom_bond_atom_site_label_2
_geom_bond_distance
_geom_bond_site_symmetry_2
Mn0 Mn14 2.547392 1_444
Mn0 Mn10 2.547392 1_555
Mn0 Mn13 2.547392 1_445
Mn0 Mn9 2.547392 1_554
Mn0 Mn11 2.547392 1_544
Mn0 Mn8 2.547392 1_545
Mn0 Mn12 2.547392 1_454
Mn0 Mn7 2.547392 1_455
Mn1 Mn20 2.518471 1_544
Mn1 Mn16 2.518471 1_555
Mn1 Mn21 2.518471 1_544
Mn1 Mn17 2.518471 1_555
Mn1 Mn11 2.701430 1_544
Mn1 Mn7 2.701430 1_555
Mn1 Mn14 2.701430 1_544
Mn1 Mn10 2.701430 1_555
Mn1 Yb1 3.116734 1_554
Mn1 Yb4 3.116734 1_545
Mn1 Yb5 3.116734 1_554
Mn1 Yb2 3.116734 1_545
Mn2 Mn20 2.518464 1_545
Mn2 Mn22 2.518468 1_545
Mn2 Mn7 2.701430 1_555
Mn2 Mn9 2.701430 1_555
Mn2 Yb5 3.116734 1_555
Mn2 Yb2 3.116734 1_545
Mn2 Yb0 3.116734 1_555
Mn2 Yb3 3.116734 1_545
Mn3 Mn7 2.701430 1_555
Mn3 Mn8 2.701430 1_555
Mn3 Yb1 3.116734 1_554
Mn3 Yb4 3.116734 1_555
Mn3 Yb0 3.116734 1_555
Mn3 Yb3 3.116734 1_554
Mn4 Mn8 2.701430 1_555
Mn4 Mn9 2.701430 1_555
Mn4 Yb4 3.116734 1_555
Mn4 Yb2 3.116734 1_455
Mn4 Yb5 3.116734 1_555
Mn4 Yb1 3.116734 1_455
Mn5 Mn8 2.701430 1_555
Mn5 Yb2 3.116734 1_455
Mn5 Yb5 3.116734 1_554
Mn5 Yb0 3.116734 1_455
Mn5 Yb3 3.116734 1_554
Mn6 Mn9 2.701430 1_555
Mn6 Yb4 3.116734 1_545
Mn6 Yb0 3.116734 1_455
Mn6 Yb1 3.116734 1_455
Mn6 Yb3 3.116734 1_545
Mn7 Yb2 2.971673 1_545
Mn7 Yb0 2.971673 1_555
Mn7 Yb1 2.971673 1_554
Mn8 Yb2 2.971673 1_455
Mn8 Yb3 2.971673 1_554
Mn8 Yb4 2.971673 1_555
Mn9 Yb5 2.971673 1_555
Mn9 Yb1 2.971673 1_455
Mn9 Yb3 2.971673 1_545
Mn10 Mn16 2.691839 1_555
Mn10 Mn17 2.691839 1_555
Mn10 Mn15 2.691839 1_555
Mn10 Mn6 2.701430 1_555
Mn10 Mn5 2.701430 1_555
Mn10 Mn12 2.941475 1_454
Mn10 Mn11 2.941475 1_544
Mn10 Mn13 2.941475 1_445
Mn10 Yb5 2.971673 1_554
Mn10 Yb0 2.971673 1_455
Mn10 Yb4 2.971673 1_545
Mn11 Mn20 2.691832 1_555
Mn11 Mn21 2.691832 1_555
Mn11 Mn22 2.691836 1_555
Mn11 Mn2 2.701430 1_565
Mn11 Mn3 2.701430 1_556
Mn11 Mn8 2.941475 1_556
Mn11 Mn9 2.941475 1_565
Mn11 Yb5 2.971673 1_565
Mn11 Yb4 2.971673 1_556
Mn11 Yb3 2.971673 1_555
Mn12 Mn19 2.691832 1_555
Mn12 Mn21 2.691832 1_555
Mn12 Mn22 2.691836 1_555
Mn12 Mn5 2.701430 1_656
Mn12 Mn4 2.701430 1_655
Mn12 Mn3 2.701430 1_556
Mn12 Mn9 2.941475 1_655
Mn12 Mn7 2.941475 1_556
Mn12 Yb5 2.971673 1_655
Mn12 Yb0 2.971673 1_556
Mn12 Yb1 2.971673 1_555
Mn13 Mn19 2.691832 1_555
Mn13 Mn20 2.691832 1_555
Mn13 Mn22 2.691836 1_555
Mn13 Mn4 2.701430 1_655
Mn13 Mn6 2.701430 1_665
Mn13 Mn2 2.701430 1_565
Mn13 Mn8 2.941475 1_655
Mn13 Mn7 2.941475 1_565
Mn13 Yb4 2.971673 1_655
Mn13 Yb0 2.971673 1_565
Mn13 Yb2 2.971673 1_555
Mn14 Mn21 2.691839 1_555
Mn14 Mn19 2.691839 1_555
Mn14 Mn20 2.691839 1_555
Mn14 Mn6 2.701430 1_665
Mn14 Mn5 2.701430 1_656
Mn14 Mn9 2.941475 1_665
Mn14 Mn8 2.941475 1_656
Mn14 Mn7 2.941475 1_566
Mn14 Yb1 2.971673 1_565
Mn14 Yb2 2.971673 1_556
Mn14 Yb3 2.971673 1_655
Mn15 Mn4 2.518464 1_555
Mn15 Mn6 2.518471 1_555
Mn15 Mn5 2.518471 1_555
Mn15 Mn16 2.543151 1_555
Mn15 Mn17 2.543151 1_555
Mn15 Mn18 2.543151 1_555
Mn15 Mn8 2.691832 1_555
Mn15 Mn9 2.691832 1_555
Mn15 Yb2 3.097612 1_455
Mn15 Yb1 3.097612 1_455
Mn15 Yb0 3.097617 1_455
Mn16 Mn2 2.518464 1_555
Mn16 Mn6 2.518471 1_555
Mn16 Mn17 2.543151 1_555
Mn16 Mn18 2.543151 1_555
Mn16 Mn9 2.691832 1_555
Mn16 Mn7 2.691832 1_555
Mn16 Yb3 3.097612 1_545
Mn16 Yb2 3.097612 1_545
Mn16 Yb4 3.097617 1_545
Mn17 Mn3 2.518464 1_555
Mn17 Mn5 2.518471 1_555
Mn17 Mn18 2.543151 1_555
Mn17 Mn8 2.691832 1_555
Mn17 Mn7 2.691832 1_555
Mn17 Yb1 3.097612 1_554
Mn17 Yb3 3.097612 1_554
Mn17 Yb5 3.097617 1_554
Mn18 Mn2 2.518468 1_555
Mn18 Mn3 2.518468 1_555
Mn18 Mn4 2.518468 1_555
Mn18 Mn8 2.691836 1_555
Mn18 Mn9 2.691836 1_555
Mn18 Mn7 2.691836 1_555
Mn18 Yb5 3.097608 1_555
Mn18 Yb0 3.097608 1_555
Mn18 Yb4 3.097608 1_555
Mn19 Mn4 2.518464 1_655
Mn19 Mn6 2.518471 1_665
Mn19 Mn5 2.518471 1_656
Mn19 Mn22 2.543151 1_555
Mn19 Mn21 2.543151 1_555
Mn19 Mn20 2.543151 1_555
Mn19 Yb4 3.097612 1_655
Mn19 Yb5 3.097612 1_655
Mn19 Yb3 3.097617 1_655
Mn20 Mn6 2.518471 1_665
Mn20 Mn22 2.543151 1_555
Mn20 Mn21 2.543151 1_555
Mn20 Yb0 3.097612 1_565
Mn20 Yb5 3.097612 1_565
Mn20 Yb1 3.097617 1_565
Mn21 Mn3 2.518464 1_556
Mn21 Mn5 2.518471 1_656
Mn21 Mn22 2.543151 1_555
Mn21 Yb4 3.097612 1_556
Mn21 Yb0 3.097612 1_556
Mn21 Yb2 3.097617 1_556
Mn22 Mn3 2.518468 1_556
Mn22 Mn4 2.518468 1_655
Mn22 Yb1 3.097608 1_555
Mn22 Yb2 3.097608 1_555
Mn22 Yb3 3.097608 1_555
