# generated using pymatgen
data_Sn2Pd3Au
_symmetry_space_group_name_H-M   'P 1'
_cell_length_a   4.62606851
_cell_length_b   4.62606851
_cell_length_c   5.79300500
_cell_angle_alpha   90.00000000
_cell_angle_beta   90.00000000
_cell_angle_gamma   120.00000734
_symmetry_Int_Tables_number   1
_chemical_formula_structural   Sn2Pd3Au
_chemical_formula_sum   'Sn2 Pd3 Au1'
_cell_volume   107.36398529
_cell_formula_units_Z   1
loop_
 _symmetry_equiv_pos_site_id
 _symmetry_equiv_pos_as_xyz
  1  'x, y, z'
loop_
 _atom_site_type_symbol
 _atom_site_label
 _atom_site_symmetry_multiplicity
 _atom_site_fract_x
 _atom_site_fract_y
 _atom_site_fract_z
 _atom_site_occupancy
  Sn  Sn0  1  0.33333300  0.66666700  0.21914100  1
  Sn  Sn1  1  0.66666700  0.33333300  0.78085900  1
  Pd  Pd0  1  0.33333300  0.66666700  0.72377900  1
  Pd  Pd1  1  0.66666700  0.33333300  0.27622100  1
  Pd  Pd2  1  0.00000000  0.00000000  0.00000000  1
  Au  Au0  1  0.00000000  0.00000000  0.50000000  1
loop_
_geom_bond_atom_site_label_1
_geom_bond_atom_site_label_2
_geom_bond_distance
_geom_bond_site_symmetry_2
Pd0 Sn1 2.691250 1_455
Pd0 Sn1 2.691250 1_565
Pd0 Sn1 2.691258 1_555
Pd0 Sn0 2.869635 1_556
Pd0 Sn0 2.923370 1_555
Pd1 Sn0 2.691250 1_545
Pd1 Sn0 2.691250 1_655
Pd1 Sn0 2.691258 1_555
Pd1 Sn1 2.869635 1_554
Pd1 Sn1 2.923370 1_555
Pd2 Sn0 2.957208 1_545
Pd2 Sn1 2.957208 1_454
Pd2 Sn0 2.957212 1_445
Pd2 Sn1 2.957212 1_554
Pd2 Sn0 2.957212 1_555
Pd2 Sn1 2.957212 1_444
Au0 Pd2 2.896502 1_555
Au0 Pd2 2.896502 1_556
Au0 Pd1 2.968842 1_455
Au0 Pd0 2.968842 1_545
Au0 Pd0 2.968845 1_445
Au0 Pd0 2.968845 1_555
Au0 Pd1 2.968845 1_555
Au0 Pd1 2.968845 1_445
Au0 Sn0 3.127407 1_545
Au0 Sn1 3.127407 1_455
Au0 Sn1 3.127410 1_555
Au0 Sn0 3.127410 1_445
Au0 Sn1 3.127410 1_445
Au0 Sn0 3.127410 1_555
