# generated using pymatgen
data_Li2CoNiO4
_symmetry_space_group_name_H-M   'P 1'
_cell_length_a   2.97562307
_cell_length_b   5.05352989
_cell_length_c   5.05668703
_cell_angle_alpha   70.95803803
_cell_angle_beta   88.94933603
_cell_angle_gamma   90.56713036
_symmetry_Int_Tables_number   1
_chemical_formula_structural   Li2CoNiO4
_chemical_formula_sum   'Li2 Co1 Ni1 O4'
_cell_volume   71.85630952
_cell_formula_units_Z   1
loop_
 _symmetry_equiv_pos_site_id
 _symmetry_equiv_pos_as_xyz
  1  'x, y, z'
loop_
 _atom_site_type_symbol
 _atom_site_label
 _atom_site_symmetry_multiplicity
 _atom_site_fract_x
 _atom_site_fract_y
 _atom_site_fract_z
 _atom_site_occupancy
  Li  Li0  1  0.00000000  0.50000200  0.50000100  1
  Li  Li1  1  0.49999900  0.00000200  0.50000100  1
  Co  Co0  1  0.49999900  0.50000000  0.00000100  1
  Ni  Ni0  1  0.00000300  0.99998700  0.99999600  1
  O  O0  1  0.95746300  0.73856600  0.76041900  1
  O  O1  1  0.04253600  0.26143800  0.23958100  1
  O  O2  1  0.51221700  0.26895800  0.78585900  1
  O  O3  1  0.48778300  0.73104600  0.21414300  1
loop_
_geom_bond_atom_site_label_1
_geom_bond_atom_site_label_2
_geom_bond_distance
_geom_bond_site_symmetry_2
Li0 O0 2.058254 1_455
Li0 O1 2.058262 1_555
Li0 O2 2.085106 1_455
Li0 O3 2.085106 1_555
Li0 O3 2.188729 1_455
Li0 O2 2.188729 1_555
Li1 O0 2.073323 1_545
Li1 O1 2.073325 1_555
Li1 O0 2.197816 1_445
Li1 O1 2.197822 1_655
Li1 O3 2.284969 1_545
Li1 O2 2.284969 1_555
Co0 O2 1.833441 1_554
Co0 O3 1.833458 1_555
Co0 O1 1.930824 1_555
Co0 O0 1.930838 1_554
Co0 O1 2.164388 1_655
Co0 O0 2.164397 1_454
Ni0 O3 2.064663 1_556
Ni0 O2 2.064734 1_465
Ni0 O0 2.067759 1_455
Ni0 O1 2.067915 1_566
Ni0 O3 2.069059 1_456
Ni0 O2 2.069103 1_565
