# generated using pymatgen
data_SnH4SNO4F
_symmetry_space_group_name_H-M   'P 1'
_cell_length_a   4.93633500
_cell_length_b   15.47190400
_cell_length_c   8.14981120
_cell_angle_alpha   90.00000000
_cell_angle_beta   90.38731030
_cell_angle_gamma   90.00000000
_symmetry_Int_Tables_number   1
_chemical_formula_structural   SnH4SNO4F
_chemical_formula_sum   'Sn4 H16 S4 N4 O16 F4'
_cell_volume   622.42354460
_cell_formula_units_Z   4
loop_
 _symmetry_equiv_pos_site_id
 _symmetry_equiv_pos_as_xyz
  1  'x, y, z'
loop_
 _atom_site_type_symbol
 _atom_site_label
 _atom_site_symmetry_multiplicity
 _atom_site_fract_x
 _atom_site_fract_y
 _atom_site_fract_z
 _atom_site_occupancy
  Sn  Sn0  1  0.79324000  0.72253500  0.97201300  1
  Sn  Sn1  1  0.20676000  0.22253500  0.52798700  1
  Sn  Sn2  1  0.20676000  0.27746500  0.02798700  1
  Sn  Sn3  1  0.79324000  0.77746500  0.47201300  1
  H  H0  1  0.23275400  0.56273000  0.38987300  1
  H  H1  1  0.76724600  0.06273000  0.11012700  1
  H  H2  1  0.76724600  0.43727000  0.61012700  1
  H  H3  1  0.23275400  0.93727000  0.88987300  1
  H  H4  1  0.42138100  0.58203600  0.21837000  1
  H  H5  1  0.57861900  0.08203600  0.28163000  1
  H  H6  1  0.57861900  0.41796400  0.78163000  1
  H  H7  1  0.42138100  0.91796400  0.71837000  1
  H  H8  1  0.26564300  0.48601700  0.24417400  1
  H  H9  1  0.73435700  0.98601700  0.25582600  1
  H  H10  1  0.73435700  0.51398300  0.75582600  1
  H  H11  1  0.26564300  0.01398300  0.74417400  1
  H  H12  1  0.07651300  0.57482000  0.20610000  1
  H  H13  1  0.92348700  0.07482000  0.29390000  1
  H  H14  1  0.92348700  0.42518000  0.79390000  1
  H  H15  1  0.07651300  0.92518000  0.70610000  1
  S  S0  1  0.26288700  0.85424100  0.23087300  1
  S  S1  1  0.73711300  0.35424100  0.26912700  1
  S  S2  1  0.73711300  0.14575900  0.76912700  1
  S  S3  1  0.26288700  0.64575900  0.73087300  1
  N  N0  1  0.24942500  0.55163000  0.26405500  1
  N  N1  1  0.75057500  0.05163000  0.23594500  1
  N  N2  1  0.75057500  0.44837000  0.73594500  1
  N  N3  1  0.24942500  0.94837000  0.76405500  1
  O  O0  1  0.20154300  0.76517400  0.17161200  1
  O  O1  1  0.79845700  0.26517400  0.32838800  1
  O  O2  1  0.79845700  0.23482600  0.82838800  1
  O  O3  1  0.20154300  0.73482600  0.67161200  1
  O  O4  1  0.55829100  0.63916500  0.77910400  1
  O  O5  1  0.44170900  0.13916500  0.72089600  1
  O  O6  1  0.44170900  0.36083500  0.22089600  1
  O  O7  1  0.55829100  0.86083500  0.27910400  1
  O  O8  1  0.10176600  0.62984500  0.88642100  1
  O  O9  1  0.89823400  0.12984500  0.61357900  1
  O  O10  1  0.89823400  0.37015500  0.11357900  1
  O  O11  1  0.10176600  0.87015500  0.38642100  1
  O  O12  1  0.20083800  0.92115100  0.10940300  1
  O  O13  1  0.79916200  0.42115100  0.39059700  1
  O  O14  1  0.79916200  0.07884900  0.89059700  1
  O  O15  1  0.20083800  0.57884900  0.60940300  1
  F  F0  1  0.73933800  0.62503400  0.14555100  1
  F  F1  1  0.26066200  0.12503400  0.35444900  1
  F  F2  1  0.26066200  0.37496600  0.85444900  1
  F  F3  1  0.73933800  0.87496600  0.64555100  1
loop_
_geom_bond_atom_site_label_1
_geom_bond_atom_site_label_2
_geom_bond_distance
_geom_bond_site_symmetry_2
H0 N0 1.043474 1_555
H1 N1 1.043474 1_555
H2 N2 1.043474 1_555
H3 N3 1.043474 1_555
H4 N0 1.041502 1_555
H5 N1 1.041502 1_555
H6 N2 1.041502 1_555
H7 N3 1.041502 1_555
H8 N0 1.031205 1_555
H9 N1 1.031205 1_565
H10 N2 1.031205 1_555
H11 N3 1.031205 1_545
H12 N0 1.036784 1_555
H13 N1 1.036784 1_555
H14 N2 1.036784 1_555
H15 N3 1.036784 1_555
O0 S0 1.490624 1_555
O0 Sn0 2.664459 1_454
O1 S1 1.490624 1_555
O1 Sn1 2.664459 1_655
O2 S2 1.490624 1_555
O2 Sn2 2.664459 1_656
O3 S3 1.490624 1_555
O3 Sn3 2.664459 1_455
O4 S3 1.511142 1_555
O4 Sn0 2.335809 1_555
O5 S2 1.511142 1_555
O5 Sn1 2.335809 1_555
O6 S1 1.511142 1_555
O6 Sn2 2.335809 1_555
O7 S0 1.511142 1_555
O7 Sn3 2.335809 1_555
O8 S3 1.521139 1_555
O8 Sn0 2.208406 1_455
O9 S2 1.521139 1_555
O9 Sn1 2.208406 1_655
O10 S1 1.521139 1_555
O10 Sn2 2.208406 1_655
O11 S0 1.521139 1_555
O11 Sn3 2.208406 1_455
O12 S0 1.463361 1_555
O13 S1 1.463361 1_555
O14 S2 1.463361 1_555
O15 S3 1.463361 1_555
F0 Sn0 2.086094 1_554
F1 Sn1 2.086094 1_555
F2 Sn2 2.086094 1_556
F3 Sn3 2.086094 1_555
