# generated using pymatgen
data_Ni3Se4(ClO5)2
_symmetry_space_group_name_H-M   'P 1'
_cell_length_a   7.23528464
_cell_length_b   7.78823138
_cell_length_c   11.46333254
_cell_angle_alpha   82.41710395
_cell_angle_beta   73.47417446
_cell_angle_gamma   62.26377813
_symmetry_Int_Tables_number   1
_chemical_formula_structural   Ni3Se4(ClO5)2
_chemical_formula_sum   'Ni6 Se8 Cl4 O20'
_cell_volume   548.12090908
_cell_formula_units_Z   2
loop_
 _symmetry_equiv_pos_site_id
 _symmetry_equiv_pos_as_xyz
  1  'x, y, z'
loop_
 _atom_site_type_symbol
 _atom_site_label
 _atom_site_symmetry_multiplicity
 _atom_site_fract_x
 _atom_site_fract_y
 _atom_site_fract_z
 _atom_site_occupancy
  Ni  Ni0  1  0.50007619  0.00010980  0.50007062  1
  Ni  Ni1  1  0.37429396  0.25323418  0.75007415  1
  Ni  Ni2  1  0.62577173  0.74678316  0.74994813  1
  Ni  Ni3  1  0.50005858  0.00010296  0.00007333  1
  Ni  Ni4  1  0.37432502  0.25320754  0.25008631  1
  Ni  Ni5  1  0.62578267  0.74679174  0.24996656  1
  Se  Se0  1  0.98981029  0.32370151  0.11033043  1
  Se  Se1  1  0.98979633  0.32368876  0.61030716  1
  Se  Se2  1  0.31244189  0.67610271  0.11064981  1
  Se  Se3  1  0.31247559  0.67609196  0.61062343  1
  Se  Se4  1  0.01038509  0.67614221  0.38964493  1
  Se  Se5  1  0.01028675  0.67630206  0.88960117  1
  Se  Se6  1  0.68777010  0.32382236  0.38925614  1
  Se  Se7  1  0.68772700  0.32380394  0.88926984  1
  Cl  Cl0  1  0.29773260  0.00046948  0.37105085  1
  Cl  Cl1  1  0.29769969  0.00048380  0.87105372  1
  Cl  Cl2  1  0.70244275  -0.00041698  0.12895827  1
  Cl  Cl3  1  0.70242408  -0.00041030  0.62896934  1
  O  O0  1  0.88789206  0.22401176  0.24953334  1
  O  O1  1  0.88785396  0.22400971  0.74953188  1
  O  O2  1  0.11167789  0.77588627  0.25027335  1
  O  O3  1  0.11157885  0.77592371  0.75021228  1
  O  O4  1  0.90759917  0.55484830  0.14419269  1
  O  O5  1  0.90753358  0.55483790  0.64412933  1
  O  O6  1  0.46292697  0.44513611  0.14422361  1
  O  O7  1  0.46292246  0.44514986  0.64419753  1
  O  O8  1  0.09235038  0.44507695  0.35575649  1
  O  O9  1  0.09229613  0.44516462  0.85573046  1
  O  O10  1  0.53726153  0.55482780  0.35580488  1
  O  O11  1  0.53721381  0.55482495  0.85578986  1
  O  O12  1  0.25196162  0.21863002  0.11700168  1
  O  O13  1  0.25191939  0.21864466  0.61700402  1
  O  O14  1  0.46916070  0.78164572  0.11679127  1
  O  O15  1  0.46914197  0.78166107  0.61677415  1
  O  O16  1  0.74816205  0.78125271  0.38320493  1
  O  O17  1  0.74810015  0.78129967  0.88318284  1
  O  O18  1  0.53059861  0.21857829  0.38336921  1
  O  O19  1  0.53054642  0.21858100  0.88336402  1
loop_
_geom_bond_atom_site_label_1
_geom_bond_atom_site_label_2
_geom_bond_distance
_geom_bond_site_symmetry_2
Ni0 O13 2.075052 1_555
Ni0 O16 2.075767 1_545
Ni0 O18 2.077120 1_555
Ni0 O15 2.077920 1_545
Ni1 O7 2.022116 1_555
Ni1 O9 2.024215 1_555
Ni1 O19 2.067710 1_555
Ni1 O13 2.069372 1_555
Ni2 O11 2.021968 1_555
Ni2 O5 2.024176 1_555
Ni2 O15 2.068059 1_555
Ni2 O17 2.070550 1_555
Ni3 O12 2.074863 1_555
Ni3 O17 2.075605 1_544
Ni3 O19 2.077148 1_554
Ni3 O14 2.077975 1_545
Ni4 O6 2.022037 1_555
Ni4 O8 2.024032 1_555
Ni4 O18 2.067788 1_555
Ni4 O12 2.069422 1_555
Ni5 O10 2.021858 1_555
Ni5 O4 2.024155 1_555
Ni5 O14 2.068074 1_555
Ni5 O16 2.070660 1_555
Cl0 Ni0 2.357472 1_555
Cl0 Ni5 2.438913 1_545
Cl0 Ni4 2.441773 1_555
Cl1 Ni3 2.357498 1_556
Cl1 Ni2 2.439157 1_545
Cl1 Ni1 2.441928 1_555
Cl2 Ni3 2.356002 1_555
Cl2 Ni4 2.439147 1_555
Cl2 Ni5 2.442535 1_545
Cl3 Ni0 2.355919 1_555
Cl3 Ni1 2.439147 1_555
Cl3 Ni2 2.442475 1_545
O0 Se6 1.796604 1_555
O0 Se0 1.797064 1_555
O1 Se7 1.796719 1_555
O1 Se1 1.797263 1_555
O2 Se4 1.797043 1_555
O2 Se2 1.797386 1_555
O3 Se5 1.796702 1_555
O3 Se3 1.797506 1_555
O4 Se0 1.673816 1_555
O5 Se1 1.673629 1_555
O6 Se2 1.673922 1_555
O7 Se3 1.673722 1_555
O8 Se4 1.673677 1_555
O9 Se5 1.674082 1_555
O10 Se6 1.673800 1_555
O11 Se7 1.673987 1_555
O12 Se0 1.701289 1_455
O13 Se1 1.701201 1_455
O14 Se2 1.701360 1_555
O15 Se3 1.701211 1_555
O16 Se4 1.700955 1_655
O17 Se5 1.700681 1_655
O18 Se6 1.701602 1_555
O19 Se7 1.701594 1_555
