# generated using pymatgen
data_Li7Mn2(CoO4)3
_symmetry_space_group_name_H-M   'P 1'
_cell_length_a   5.83746100
_cell_length_b   5.89641842
_cell_length_c   7.70300345
_cell_angle_alpha   101.30912680
_cell_angle_beta   100.87681568
_cell_angle_gamma   119.59480442
_symmetry_Int_Tables_number   1
_chemical_formula_structural   Li7Mn2(CoO4)3
_chemical_formula_sum   'Li7 Mn2 Co3 O12'
_cell_volume   213.01779420
_cell_formula_units_Z   1
loop_
 _symmetry_equiv_pos_site_id
 _symmetry_equiv_pos_as_xyz
  1  'x, y, z'
loop_
 _atom_site_type_symbol
 _atom_site_label
 _atom_site_symmetry_multiplicity
 _atom_site_fract_x
 _atom_site_fract_y
 _atom_site_fract_z
 _atom_site_occupancy
  Li  Li0  1  0.99833900  0.33691100  0.82839500  1
  Li  Li1  1  0.50189800  0.33318900  0.83055400  1
  Li  Li2  1  0.00166100  0.66308900  0.17160500  1
  Li  Li3  1  0.49810200  0.66681100  0.16944600  1
  Li  Li4  1  0.00000000  0.00000000  0.50000000  1
  Li  Li5  1  0.50000000  0.00000000  0.50000000  1
  Li  Li6  1  0.00000000  0.50000000  0.50000000  1
  Mn  Mn0  1  0.00127600  0.83797500  0.82829700  1
  Mn  Mn1  1  0.99872400  0.16202500  0.17170300  1
  Co  Co0  1  0.48901400  0.82580800  0.82154200  1
  Co  Co1  1  0.51098600  0.17419200  0.17845800  1
  Co  Co2  1  0.50000000  0.50000000  0.50000000  1
  O  O0  1  0.76855500  0.92435200  0.67874500  1
  O  O1  1  0.24535500  0.92250700  0.68222200  1
  O  O2  1  0.75489900  0.23032200  0.01130300  1
  O  O3  1  0.22707300  0.22277900  0.00219800  1
  O  O4  1  0.71402900  0.54630000  0.33055000  1
  O  O5  1  0.24332900  0.54284400  0.32958300  1
  O  O6  1  0.24510100  0.76967800  0.98869700  1
  O  O7  1  0.77292700  0.77722100  0.99780200  1
  O  O8  1  0.23144500  0.07564800  0.32125500  1
  O  O9  1  0.75464500  0.07749300  0.31777800  1
  O  O10  1  0.28597100  0.45370000  0.66945000  1
  O  O11  1  0.75667100  0.45715600  0.67041700  1
loop_
_geom_bond_atom_site_label_1
_geom_bond_atom_site_label_2
_geom_bond_distance
_geom_bond_site_symmetry_2
Li0 O0 2.034548 1_545
Li0 O6 2.138581 1_655
Li0 O3 2.143452 1_656
Li0 O2 2.149492 1_556
Li0 O11 2.156890 1_555
Li0 O10 2.181030 1_655
Li1 O1 2.024669 1_545
Li1 O11 2.059123 1_555
Li1 O10 2.067351 1_555
Li1 O7 2.198679 1_555
Li1 O3 2.202769 1_556
Li1 O2 2.219820 1_556
Li2 O8 2.034548 1_565
Li2 O2 2.138581 1_455
Li2 O7 2.143452 1_454
Li2 O6 2.149492 1_554
Li2 O5 2.156890 1_555
Li2 O4 2.181030 1_455
Li3 O9 2.024669 1_565
Li3 O5 2.059123 1_555
Li3 O4 2.067351 1_555
Li3 O3 2.198679 1_555
Li3 O7 2.202769 1_554
Li3 O6 2.219820 1_554
Li4 O0 2.065855 1_445
Li4 O8 2.065855 1_555
Li4 O9 2.090364 1_455
Li4 O1 2.090364 1_545
Li4 O4 2.245950 1_445
Li4 O10 2.245950 1_555
Li5 O0 2.160859 1_545
Li5 O8 2.160859 1_555
Li5 O9 2.181002 1_555
Li5 O1 2.181002 1_545
Li5 O11 2.261630 1_555
Li5 O5 2.261630 1_545
Li6 O11 2.069783 1_455
Li6 O5 2.069783 1_555
Li6 O10 2.081480 1_555
Li6 O4 2.081480 1_455
Li6 O1 2.138576 1_555
Li6 O9 2.138576 1_455
Mn0 O11 1.914859 1_455
Mn0 O1 1.915246 1_555
Mn0 O0 1.937765 1_455
Mn0 O6 1.952493 1_555
Mn0 O3 1.966613 1_566
Mn0 O7 1.994655 1_455
Mn1 O5 1.914859 1_655
Mn1 O9 1.915246 1_555
Mn1 O8 1.937765 1_655
Mn1 O2 1.952493 1_555
Mn1 O7 1.966613 1_544
Mn1 O3 1.994655 1_655
Co0 O10 1.868316 1_555
Co0 O1 1.991196 1_555
Co0 O6 2.046536 1_555
Co0 O0 2.049852 1_555
Co0 O2 2.086750 1_566
Co0 O7 2.108216 1_555
Co1 O4 1.868316 1_555
Co1 O9 1.991196 1_555
Co1 O2 2.046536 1_555
Co1 O8 2.049852 1_555
Co1 O6 2.086750 1_544
Co1 O3 2.108216 1_555
Co2 O4 1.938440 1_555
Co2 O10 1.938440 1_555
Co2 O11 1.947724 1_555
Co2 O5 1.947724 1_555
Co2 O0 2.138677 1_555
Co2 O8 2.138677 1_555
