# generated using pymatgen
data_YSnRh
_symmetry_space_group_name_H-M   'P 1'
_cell_length_a   7.58764715
_cell_length_b   7.58764715
_cell_length_c   3.78672559
_cell_angle_alpha   90.00000000
_cell_angle_beta   90.00000000
_cell_angle_gamma   120.00000286
_symmetry_Int_Tables_number   1
_chemical_formula_structural   YSnRh
_chemical_formula_sum   'Y3 Sn3 Rh3'
_cell_volume   188.80291998
_cell_formula_units_Z   3
loop_
 _symmetry_equiv_pos_site_id
 _symmetry_equiv_pos_as_xyz
  1  'x, y, z'
loop_
 _atom_site_type_symbol
 _atom_site_label
 _atom_site_symmetry_multiplicity
 _atom_site_fract_x
 _atom_site_fract_y
 _atom_site_fract_z
 _atom_site_occupancy
  Y  Y0  1  0.40565398  0.00000000  0.50000000  1
  Y  Y1  1  0.00000000  0.40565398  0.50000000  1
  Y  Y2  1  0.59434602  0.59434602  0.50000000  1
  Sn  Sn0  1  0.73722481  0.00000000  -0.00000000  1
  Sn  Sn1  1  0.00000000  0.73722481  0.00000000  1
  Sn  Sn2  1  0.26277519  0.26277519  0.00000000  1
  Rh  Rh0  1  0.33333300  0.66666700  -0.00000000  1
  Rh  Rh1  1  0.66666700  0.33333300  0.00000000  1
  Rh  Rh2  1  0.00000000  0.00000000  0.50000000  1
loop_
_geom_bond_atom_site_label_1
_geom_bond_atom_site_label_2
_geom_bond_distance
_geom_bond_site_symmetry_2
Sn0 Y0 3.148696 1_554
Sn0 Y0 3.148696 1_555
Sn0 Y1 3.301076 1_655
Sn0 Y1 3.301076 1_654
Sn0 Y2 3.301076 1_544
Sn0 Y2 3.301076 1_545
Sn1 Y1 3.148696 1_555
Sn1 Y1 3.148696 1_554
Sn1 Y0 3.301076 1_565
Sn1 Y0 3.301076 1_564
Sn1 Y2 3.301076 1_455
Sn1 Y2 3.301076 1_454
Sn2 Y2 3.148696 1_554
Sn2 Y2 3.148696 1_555
Sn2 Y0 3.301076 1_555
Sn2 Y1 3.301076 1_554
Sn2 Y1 3.301076 1_555
Sn2 Y0 3.301076 1_554
Rh0 Sn1 2.835066 1_555
Rh0 Sn0 2.835070 1_565
Rh0 Sn2 2.835073 1_555
Rh0 Y0 2.982443 1_564
Rh0 Y0 2.982443 1_565
Rh0 Y1 2.982445 1_555
Rh0 Y1 2.982445 1_554
Rh0 Y2 2.982449 1_554
Rh0 Y2 2.982449 1_555
Rh1 Sn0 2.835066 1_555
Rh1 Sn1 2.835070 1_655
Rh1 Sn2 2.835073 1_555
Rh1 Y1 2.982443 1_655
Rh1 Y1 2.982443 1_654
Rh1 Y0 2.982445 1_554
Rh1 Y0 2.982445 1_555
Rh1 Y2 2.982449 1_554
Rh1 Y2 2.982449 1_555
Rh2 Sn2 2.749589 1_555
Rh2 Sn2 2.749589 1_556
Rh2 Sn0 2.749589 1_455
Rh2 Sn1 2.749589 1_545
Rh2 Sn0 2.749589 1_456
Rh2 Sn1 2.749589 1_546
Rh2 Y2 3.077959 1_445
Rh2 Y0 3.077959 1_555
Rh2 Y1 3.077959 1_555
