# generated using pymatgen
data_CeN2
_symmetry_space_group_name_H-M   'P 1'
_cell_length_a   4.70942683
_cell_length_b   6.38859726
_cell_length_c   5.89216790
_cell_angle_alpha   64.99483332
_cell_angle_beta   90.00172575
_cell_angle_gamma   111.62687674
_symmetry_Int_Tables_number   1
_chemical_formula_structural   CeN2
_chemical_formula_sum   'Ce3 N6'
_cell_volume   146.77480227
_cell_formula_units_Z   3
loop_
 _symmetry_equiv_pos_site_id
 _symmetry_equiv_pos_as_xyz
  1  'x, y, z'
loop_
 _atom_site_type_symbol
 _atom_site_label
 _atom_site_symmetry_multiplicity
 _atom_site_fract_x
 _atom_site_fract_y
 _atom_site_fract_z
 _atom_site_occupancy
  Ce  Ce0  1  0.62837657  0.25670223  0.09435107  1
  Ce  Ce1  1  0.83265211  0.66534376  0.45606933  1
  Ce  Ce2  1  0.41144305  0.82288768  0.83622507  1
  N  N0  1  0.84601774  0.69211630  0.82316712  1
  N  N1  1  0.38963128  0.77934462  0.24618299  1
  N  N2  1  0.18245738  0.36477734  0.10262630  1
  N  N3  1  0.62694446  0.25396480  0.72142667  1
  N  N4  1  0.39323914  0.78656690  0.46348887  1
  N  N5  1  0.06669026  0.13329638  0.21231158  1
loop_
_geom_bond_atom_site_label_1
_geom_bond_atom_site_label_2
_geom_bond_distance
_geom_bond_site_symmetry_2
Ce0 N3 2.204773 1_554
Ce0 N0 2.341446 1_554
Ce0 N2 2.446724 1_555
Ce0 N2 2.447140 1_655
Ce0 N5 2.470112 1_555
Ce0 N5 2.470192 1_655
Ce0 N1 2.555569 1_545
Ce0 N4 2.646466 1_545
Ce1 N3 2.222539 1_555
Ce1 N0 2.239779 1_555
Ce1 N4 2.468406 1_655
Ce1 N4 2.468599 1_555
Ce1 N5 2.481211 1_665
Ce1 N1 2.602076 1_655
Ce1 N1 2.602163 1_555
Ce2 N4 2.302334 1_555
Ce2 N1 2.309471 1_556
Ce2 N3 2.331716 1_565
Ce2 N2 2.445860 1_556
Ce2 N0 2.491415 1_555
Ce2 N0 2.491795 1_455
N1 N4 1.300467 1_555
N2 N5 1.224584 1_555
