# generated using pymatgen
data_LiB2H11N2
_symmetry_space_group_name_H-M   'P 1'
_cell_length_a   15.04129000
_cell_length_b   5.17991600
_cell_length_c   7.11971713
_cell_angle_alpha   83.07409442
_cell_angle_beta   90.00000000
_cell_angle_gamma   90.00000000
_symmetry_Int_Tables_number   1
_chemical_formula_structural   LiB2H11N2
_chemical_formula_sum   'Li4 B8 H44 N8'
_cell_volume   550.66800182
_cell_formula_units_Z   4
loop_
 _symmetry_equiv_pos_site_id
 _symmetry_equiv_pos_as_xyz
  1  'x, y, z'
loop_
 _atom_site_type_symbol
 _atom_site_label
 _atom_site_symmetry_multiplicity
 _atom_site_fract_x
 _atom_site_fract_y
 _atom_site_fract_z
 _atom_site_occupancy
  Li  Li0  1  0.91978400  0.29266300  0.08641400  1
  Li  Li1  1  0.41978400  0.20733700  0.91358600  1
  Li  Li2  1  0.08021600  0.70733700  0.91358600  1
  Li  Li3  1  0.58021600  0.79266300  0.08641400  1
  B  B0  1  0.35466500  0.12710400  0.57687100  1
  B  B1  1  0.85466500  0.37289600  0.42312900  1
  B  B2  1  0.64533500  0.87289600  0.42312900  1
  B  B3  1  0.14533500  0.62710400  0.57687100  1
  B  B4  1  0.41285200  0.74044000  0.05440000  1
  B  B5  1  0.91285200  0.75956000  0.94560000  1
  B  B6  1  0.58714800  0.25956000  0.94560000  1
  B  B7  1  0.08714800  0.24044000  0.05440000  1
  H  H0  1  0.31088300  0.11191500  0.72269100  1
  H  H1  1  0.81088300  0.38808500  0.27730900  1
  H  H2  1  0.68911700  0.88808500  0.27730900  1
  H  H3  1  0.18911700  0.61191500  0.72269100  1
  H  H4  1  0.31466500  0.24883200  0.44553800  1
  H  H5  1  0.81466500  0.25116800  0.55446200  1
  H  H6  1  0.68533500  0.75116800  0.55446200  1
  H  H7  1  0.18533500  0.74883200  0.44553800  1
  H  H8  1  0.42718100  0.22686500  0.59678000  1
  H  H9  1  0.92718100  0.27313500  0.40322000  1
  H  H10  1  0.57281900  0.77313500  0.40322000  1
  H  H11  1  0.07281900  0.72686500  0.59678000  1
  H  H12  1  0.32434400  0.42506300  0.12821900  1
  H  H13  1  0.82434400  0.07493700  0.87178100  1
  H  H14  1  0.67565600  0.57493700  0.87178100  1
  H  H15  1  0.17565600  0.92506300  0.12821900  1
  H  H16  1  0.30081000  0.57909800  0.92369000  1
  H  H17  1  0.80081000  0.92090200  0.07631000  1
  H  H18  1  0.69919000  0.42090200  0.07631000  1
  H  H19  1  0.19919000  0.07909800  0.92369000  1
  H  H20  1  0.39766200  0.83270400  0.39548500  1
  H  H21  1  0.89766200  0.66729600  0.60451500  1
  H  H22  1  0.60233800  0.16729600  0.60451500  1
  H  H23  1  0.10233800  0.33270400  0.39548500  1
  H  H24  1  0.40926200  0.73225300  0.62459400  1
  H  H25  1  0.90926200  0.76774700  0.37540600  1
  H  H26  1  0.59073800  0.26774700  0.37540600  1
  H  H27  1  0.09073800  0.23225300  0.62459400  1
  H  H28  1  0.30926700  0.74325000  0.52579200  1
  H  H29  1  0.80926700  0.75675000  0.47420800  1
  H  H30  1  0.69073300  0.25675000  0.47420800  1
  H  H31  1  0.19073300  0.24325000  0.52579200  1
  H  H32  1  0.45997000  0.82341900  0.91609000  1
  H  H33  1  0.95997000  0.67658100  0.08391000  1
  H  H34  1  0.54003000  0.17658100  0.08391000  1
  H  H35  1  0.04003000  0.32341900  0.91609000  1
  H  H36  1  0.46322300  0.66106200  0.18599200  1
  H  H37  1  0.96322300  0.83893800  0.81400900  1
  H  H38  1  0.53677700  0.33893800  0.81400900  1
  H  H39  1  0.03677700  0.16106200  0.18599200  1
  H  H40  1  0.37104600  0.92898000  0.10379600  1
  H  H41  1  0.87104600  0.57102000  0.89620400  1
  H  H42  1  0.62895400  0.07102000  0.89620400  1
  H  H43  1  0.12895400  0.42898000  0.10379600  1
  N  N0  1  0.36955100  0.83827600  0.52701000  1
  N  N1  1  0.86955100  0.66172400  0.47299000  1
  N  N2  1  0.63044900  0.16172400  0.47299000  1
  N  N3  1  0.13044900  0.33827600  0.52701000  1
  N  N4  1  0.35360300  0.51294000  0.00670200  1
  N  N5  1  0.85360300  0.98706000  0.99329800  1
  N  N6  1  0.64639700  0.48706000  0.99329800  1
  N  N7  1  0.14639700  0.01294000  0.00670200  1
loop_
_geom_bond_atom_site_label_1
_geom_bond_atom_site_label_2
_geom_bond_distance
_geom_bond_site_symmetry_2
Li0 N5 2.046806 1_544
Li1 N4 2.046806 1_556
Li2 N7 2.046806 1_566
Li3 N6 2.046806 1_554
B0 H4 1.221352 1_555
B0 H8 1.222494 1_555
B0 H0 1.223935 1_555
B0 N0 1.594545 1_545
B1 H5 1.221352 1_555
B1 H9 1.222494 1_555
B1 H1 1.223935 1_555
B1 N1 1.594545 1_555
B2 H6 1.221352 1_555
B2 H10 1.222494 1_555
B2 H2 1.223935 1_555
B2 N2 1.594545 1_565
B3 H7 1.221352 1_555
B3 H11 1.222494 1_555
B3 H3 1.223935 1_555
B3 N3 1.594545 1_555
B4 H36 1.236107 1_555
B4 H32 1.246851 1_554
B4 H40 1.247283 1_555
B4 N4 1.547496 1_555
B5 H37 1.236102 1_555
B5 H33 1.246851 1_556
B5 H41 1.247283 1_555
B5 N5 1.547496 1_555
B6 H38 1.236102 1_555
B6 H34 1.246851 1_556
B6 H42 1.247283 1_555
B6 N6 1.547496 1_555
B7 H39 1.236107 1_555
B7 H35 1.246851 1_554
B7 H43 1.247283 1_555
B7 N7 1.547496 1_555
H0 Li1 2.221848 1_555
H1 Li0 2.221848 1_555
H2 Li3 2.221848 1_555
H3 Li2 2.221848 1_555
H8 Li1 2.248372 1_555
H9 Li0 2.248372 1_555
H10 Li3 2.248372 1_555
H11 Li2 2.248372 1_555
H12 N4 1.026850 1_555
H13 N5 1.026850 1_545
H14 N6 1.026850 1_555
H15 N7 1.026850 1_565
H16 N4 1.023940 1_556
H17 N5 1.023940 1_554
H18 N6 1.023940 1_554
H19 N7 1.023940 1_556
H20 N0 1.031027 1_555
H21 N1 1.031027 1_555
H22 N2 1.031027 1_555
H23 N3 1.031027 1_555
H24 N0 1.024240 1_555
H25 N1 1.024240 1_555
H26 N2 1.024240 1_555
H27 N3 1.024240 1_555
H28 N0 1.032272 1_555
H29 N1 1.032272 1_555
H30 N2 1.032272 1_555
H31 N3 1.032272 1_555
H32 Li1 2.076513 1_565
H32 Li3 2.172685 1_556
H33 Li0 2.076513 1_555
H33 Li2 2.172685 1_654
H34 Li3 2.076513 1_545
H34 Li1 2.172685 1_554
H35 Li2 2.076513 1_555
H35 Li0 2.172685 1_456
H36 Li3 1.986807 1_555
H37 Li2 1.986805 1_655
H38 Li1 1.986805 1_555
H39 Li0 1.986807 1_455
H40 Li1 1.994853 1_564
H41 Li0 1.994853 1_556
H42 Li3 1.994853 1_546
H43 Li2 1.994853 1_554
