# generated using pymatgen
data_Na3N
_symmetry_space_group_name_H-M   'P 1'
_cell_length_a   5.06461400
_cell_length_b   7.18990200
_cell_length_c   7.70489700
_cell_angle_alpha   90.00000000
_cell_angle_beta   90.00000000
_cell_angle_gamma   90.00000000
_symmetry_Int_Tables_number   1
_chemical_formula_structural   Na3N
_chemical_formula_sum   'Na12 N4'
_cell_volume   280.56672287
_cell_formula_units_Z   4
loop_
 _symmetry_equiv_pos_site_id
 _symmetry_equiv_pos_as_xyz
  1  'x, y, z'
loop_
 _atom_site_type_symbol
 _atom_site_label
 _atom_site_symmetry_multiplicity
 _atom_site_fract_x
 _atom_site_fract_y
 _atom_site_fract_z
 _atom_site_occupancy
  Na  Na0  1  0.58707700  0.53003200  0.25000000  1
  Na  Na1  1  0.91292300  0.03003200  0.25000000  1
  Na  Na2  1  0.41292300  0.46996800  0.75000000  1
  Na  Na3  1  0.08707700  0.96996800  0.75000000  1
  Na  Na4  1  0.11751100  0.65887600  0.06621500  1
  Na  Na5  1  0.38248900  0.15887600  0.43378500  1
  Na  Na6  1  0.88248900  0.34112400  0.56621500  1
  Na  Na7  1  0.61751100  0.84112400  0.93378500  1
  Na  Na8  1  0.88248900  0.34112400  0.93378500  1
  Na  Na9  1  0.61751100  0.84112400  0.56621500  1
  Na  Na10  1  0.11751100  0.65887600  0.43378500  1
  Na  Na11  1  0.38248900  0.15887600  0.06621500  1
  N  N0  1  0.44114100  0.86382100  0.25000000  1
  N  N1  1  0.05885900  0.36382100  0.25000000  1
  N  N2  1  0.55885900  0.13617900  0.75000000  1
  N  N3  1  0.94114100  0.63617900  0.75000000  1
loop_
_geom_bond_atom_site_label_1
_geom_bond_atom_site_label_2
_geom_bond_distance
_geom_bond_site_symmetry_2
N0 Na0 2.511146 1_555
N0 Na5 2.567845 1_565
N0 Na11 2.567845 1_565
N0 Na9 2.600112 1_555
N0 Na7 2.600112 1_554
N0 Na10 2.619734 1_555
N0 Na4 2.619734 1_555
N0 Na1 2.671577 1_565
N0 Na1 2.930004 1_465
N1 Na1 2.511146 1_455
N1 Na10 2.567845 1_555
N1 Na4 2.567845 1_555
N1 Na6 2.600112 1_455
N1 Na8 2.600112 1_454
N1 Na11 2.619734 1_555
N1 Na5 2.619734 1_555
N1 Na0 2.671577 1_455
N1 Na0 2.930004 1_555
N2 Na2 2.511146 1_555
N2 Na9 2.567845 1_545
N2 Na7 2.567845 1_545
N2 Na11 2.600112 1_556
N2 Na5 2.600112 1_555
N2 Na6 2.619734 1_555
N2 Na8 2.619734 1_555
N2 Na3 2.671577 1_545
N2 Na3 2.930004 1_645
N3 Na3 2.511146 1_655
N3 Na8 2.567845 1_555
N3 Na6 2.567845 1_555
N3 Na4 2.600112 1_656
N3 Na10 2.600112 1_655
N3 Na9 2.619734 1_555
N3 Na7 2.619734 1_555
N3 Na2 2.671577 1_655
N3 Na2 2.930004 1_555
