# generated using pymatgen
data_SiO2
_symmetry_space_group_name_H-M   'P 1'
_cell_length_a   13.97633932
_cell_length_b   13.97662200
_cell_length_c   41.25255305
_cell_angle_alpha   90.00033296
_cell_angle_beta   89.99918598
_cell_angle_gamma   120.00103590
_symmetry_Int_Tables_number   1
_chemical_formula_structural   SiO2
_chemical_formula_sum   'Si120 O240'
_cell_volume   6978.66876590
_cell_formula_units_Z   120
loop_
 _symmetry_equiv_pos_site_id
 _symmetry_equiv_pos_as_xyz
  1  'x, y, z'
loop_
 _atom_site_type_symbol
 _atom_site_label
 _atom_site_symmetry_multiplicity
 _atom_site_fract_x
 _atom_site_fract_y
 _atom_site_fract_z
 _atom_site_occupancy
  Si  Si0  1  0.72135158  0.05074543  0.06873593  1
  Si  Si1  1  0.38842741  0.38501620  0.40203675  1
  Si  Si2  1  0.05511463  0.71831471  0.73540827  1
  Si  Si3  1  0.92318325  0.65857889  0.06878379  1
  Si  Si4  1  0.58928639  0.99192338  0.40205157  1
  Si  Si5  1  0.25599057  0.32531424  0.73541001  1
  Si  Si6  1  0.31540479  0.25254842  0.06882377  1
  Si  Si7  1  0.98239738  0.58587208  0.40203954  1
  Si  Si8  1  0.64900905  0.91918764  0.73540639  1
  Si  Si9  1  0.94534491  0.26979915  0.06732711  1
  Si  Si10  1  0.61275563  0.60399199  0.40071115  1
  Si  Si11  1  0.27938854  0.93733597  0.73401557  1
  Si  Si12  1  0.31052973  0.02843031  0.06729194  1
  Si  Si13  1  0.97706964  0.36153215  0.40070808  1
  Si  Si14  1  0.64377728  0.69490951  0.73401192  1
  Si  Si15  1  0.70387775  0.66340260  0.06731912  1
  Si  Si16  1  0.37032804  0.99733260  0.40073100  1
  Si  Si17  1  0.03697922  0.33060850  0.73402340  1
  Si  Si18  1  0.25177312  0.92393164  0.92859076  1
  Si  Si19  1  0.91828867  0.25680638  0.26202127  1
  Si  Si20  1  0.58500180  0.59035101  0.59532474  1
  Si  Si21  1  0.05036510  0.31634306  0.92863313  1
  Si  Si22  1  0.71749727  0.64995180  0.26202953  1
  Si  Si23  1  0.38398978  0.98323731  0.59533557  1
  Si  Si24  1  0.65796611  0.72251162  0.92862916  1
  Si  Si25  1  0.32430543  0.05600838  0.26204975  1
  Si  Si26  1  0.99106090  0.38932025  0.59533958  1
  Si  Si27  1  0.02766615  0.70470923  0.93011054  1
  Si  Si28  1  0.69393402  0.03781353  0.26336753  1
  Si  Si29  1  0.36074217  0.37129142  0.59672643  1
  Si  Si30  1  0.66278701  0.94658610  0.93007841  1
  Si  Si31  1  0.32969049  0.28036019  0.26334415  1
  Si  Si32  1  0.99627880  0.61360431  0.59672313  1
  Si  Si33  1  0.26958649  0.31142973  0.93014174  1
  Si  Si34  1  0.93642977  0.64452902  0.26335575  1
  Si  Si35  1  0.60304229  0.97800284  0.59671988  1
  Si  Si36  1  0.11925436  0.24573835  0.10726153  1
  Si  Si37  1  0.78647574  0.57926782  0.44056617  1
  Si  Si38  1  0.45302718  0.91258971  0.77389585  1
  Si  Si39  1  0.72816731  0.86158342  0.10721168  1
  Si  Si40  1  0.39507798  0.19578731  0.44057719  1
  Si  Si41  1  0.06175260  0.52897752  0.77389973  1
  Si  Si42  1  0.11222670  0.85484939  0.10723117  1
  Si  Si43  1  0.77858921  0.18785593  0.44056335  1
  Si  Si44  1  0.44535592  0.52131418  0.77388842  1
  Si  Si45  1  0.85412696  0.72935606  0.89017150  1
  Si  Si46  1  0.52020816  0.06261906  0.22354385  1
  Si  Si47  1  0.18707691  0.39600992  0.55684771  1
  Si  Si48  1  0.24496056  0.11331122  0.89016637  1
  Si  Si49  1  0.91164958  0.44609270  0.22349414  1
  Si  Si50  1  0.57831508  0.77964551  0.55682979  1
  Si  Si51  1  0.86102056  0.12019615  0.89016280  1
  Si  Si52  1  0.52817313  0.45407303  0.22349585  1
  Si  Si53  1  0.19467927  0.78724958  0.55684684  1
  Si  Si54  1  0.18646388  0.38967343  0.17046092  1
  Si  Si55  1  0.85331536  0.72304070  0.50376624  1
  Si  Si56  1  0.51978880  0.05636638  0.83708789  1
  Si  Si57  1  0.58465719  0.78534163  0.17047369  1
  Si  Si58  1  0.25135777  0.11888657  0.50377595  1
  Si  Si59  1  0.91807263  0.45206149  0.83710083  1
  Si  Si60  1  0.18886525  0.78792675  0.17046460  1
  Si  Si61  1  0.85545493  0.12103860  0.50376978  1
  Si  Si62  1  0.52229077  0.45459853  0.83710035  1
  Si  Si63  1  0.78706567  0.58562440  0.82695114  1
  Si  Si64  1  0.45343005  0.91885639  0.16037288  1
  Si  Si65  1  0.12014232  0.25227152  0.49363503  1
  Si  Si66  1  0.38867704  0.19002268  0.82694182  1
  Si  Si67  1  0.05536466  0.52309738  0.16030135  1
  Si  Si68  1  0.72203505  0.85643493  0.49362147  1
  Si  Si69  1  0.78438457  0.18730163  0.82694525  1
  Si  Si70  1  0.45127803  0.52080560  0.16027493  1
  Si  Si71  1  0.11793091  0.85419943  0.49362561  1
  Si  Si72  1  0.10646401  0.22829322  0.23085462  1
  Si  Si73  1  0.77318393  0.56171414  0.56419027  1
  Si  Si74  1  0.43985479  0.89502840  0.89750418  1
  Si  Si75  1  0.74602400  0.86665344  0.23088230  1
  Si  Si76  1  0.41266243  0.20006082  0.56420304  1
  Si  Si77  1  0.07929624  0.53336712  0.89754590  1
  Si  Si78  1  0.10757554  0.86783704  0.23090975  1
  Si  Si79  1  0.77428722  0.20114399  0.56420425  1
  Si  Si80  1  0.44091915  0.53441194  0.89756518  1
  Si  Si81  1  0.86694423  0.74691822  0.76653159  1
  Si  Si82  1  0.53345862  0.07996289  0.09989597  1
  Si  Si83  1  0.20027632  0.41357425  0.43320568  1
  Si  Si84  1  0.22738022  0.10853510  0.76652203  1
  Si  Si85  1  0.89407285  0.44150124  0.09987550  1
  Si  Si86  1  0.56074574  0.77520163  0.43320058  1
  Si  Si87  1  0.86578477  0.10739446  0.76652366  1
  Si  Si88  1  0.53250073  0.44063316  0.09986638  1
  Si  Si89  1  0.19911745  0.77408063  0.43319654  1
  Si  Si90  1  0.20845856  0.98026197  0.99823440  1
  Si  Si91  1  0.87471386  0.31289645  0.33163411  1
  Si  Si92  1  0.54148183  0.64644537  0.66494419  1
  Si  Si93  1  0.99392644  0.21644711  0.99822731  1
  Si  Si94  1  0.66139839  0.55031129  0.33163686  1
  Si  Si95  1  0.32786728  0.88356120  0.66494274  1
  Si  Si96  1  0.75771477  0.76595761  0.99827820  1
  Si  Si97  1  0.42405745  0.09968745  0.33164591  1
  Si  Si98  1  0.09078885  0.43290032  0.66494648  1
  Si  Si99  1  0.97944585  0.75856037  0.99918212  1
  Si  Si100  1  0.64535978  0.09158710  0.33244900  1
  Si  Si101  1  0.31220401  0.42504628  0.66579759  1
  Si  Si102  1  0.76499193  0.99493000  0.99911047  1
  Si  Si103  1  0.43201811  0.32901209  0.33242838  1
  Si  Si104  1  0.09860411  0.66214946  0.66578593  1
  Si  Si105  1  0.21568832  0.20923315  0.99918945  1
  Si  Si106  1  0.88268472  0.54222336  0.33244076  1
  Si  Si107  1  0.54926703  0.87567453  0.66579399  1
  Si  Si108  1  0.98666623  0.98758215  0.19883190  1
  Si  Si109  1  0.65338919  0.32097487  0.53216332  1
  Si  Si110  1  0.32001993  0.65425412  0.86546931  1
  Si  Si111  1  0.98669852  0.98761227  0.79857145  1
  Si  Si112  1  0.65331152  0.32077612  0.13196110  1
  Si  Si113  1  0.32002545  0.65428521  0.46523884  1
  Si  Si114  1  0.98649676  0.98737528  0.12046853  1
  Si  Si115  1  0.65338380  0.32095030  0.45380346  1
  Si  Si116  1  0.32002895  0.65425058  0.78711730  1
  Si  Si117  1  0.98670484  0.98761164  0.87693117  1
  Si  Si118  1  0.65332054  0.32086318  0.21030854  1
  Si  Si119  1  0.32001853  0.65430510  0.54359624  1
  O  O0  1  0.68945427  0.94022137  0.08946330  1
  O  O1  1  0.35672012  0.27471004  0.42285771  1
  O  O2  1  0.02344736  0.60810904  0.75628044  1
  O  O3  1  0.03299823  0.73702992  0.08982086  1
  O  O4  1  0.69960505  0.07053355  0.42286506  1
  O  O5  1  0.36617582  0.40383395  0.75629378  1
  O  O6  1  0.23698982  0.28403824  0.08982967  1
  O  O7  1  0.90378810  0.61755043  0.42286952  1
  O  O8  1  0.57046332  0.95080715  0.75629044  1
  O  O9  1  0.05562723  0.29882438  0.08794436  1
  O  O10  1  0.72256462  0.63259363  0.42151766  1
  O  O11  1  0.38930900  0.96596618  0.75476851  1
  O  O12  1  0.22903281  0.91834271  0.08794563  1
  O  O13  1  0.89584984  0.25176064  0.42152393  1
  O  O14  1  0.56248646  0.58501891  0.75477305  1
  O  O15  1  0.67505747  0.74431310  0.08818992  1
  O  O16  1  0.34171311  0.07848626  0.42155821  1
  O  O17  1  0.00830767  0.41181666  0.75480177  1
  O  O18  1  0.28320692  0.03383873  0.90759634  1
  O  O19  1  0.94996933  0.36708489  0.24118642  1
  O  O20  1  0.61663518  0.70055070  0.57445898  1
  O  O21  1  0.94042355  0.23783183  0.90764969  1
  O  O22  1  0.60715233  0.57136065  0.24121641  1
  O  O23  1  0.27377778  0.90466735  0.57447820  1
  O  O24  1  0.73643069  0.69107995  0.90762482  1
  O  O25  1  0.40287439  0.02423967  0.24123687  1
  O  O26  1  0.06964507  0.35772007  0.57446595  1
  O  O27  1  0.91755642  0.67595445  0.90944551  1
  O  O28  1  0.58412311  0.00923140  0.24256101  1
  O  O29  1  0.25084901  0.34266459  0.57596109  1
  O  O30  1  0.74413679  0.05669580  0.90941016  1
  O  O31  1  0.41087273  0.39013151  0.24251587  1
  O  O32  1  0.07753060  0.72346042  0.57594390  1
  O  O33  1  0.29834645  0.23009258  0.90946702  1
  O  O34  1  0.96506068  0.56336726  0.24253403  1
  O  O35  1  0.63168154  0.89677133  0.57594263  1
  O  O36  1  0.63521869  0.09165968  0.07805213  1
  O  O37  1  0.30222312  0.42586537  0.41133396  1
  O  O38  1  0.96891336  0.75920099  0.74467148  1
  O  O39  1  0.88246466  0.53144816  0.07794376  1
  O  O40  1  0.54845691  0.86485466  0.41132505  1
  O  O41  1  0.21511161  0.19821271  0.74465624  1
  O  O42  1  0.44251326  0.33880113  0.07803592  1
  O  O43  1  0.10946323  0.67215356  0.41131187  1
  O  O44  1  0.77610235  0.00546579  0.74464921  1
  O  O45  1  0.91216827  0.36281370  0.07482802  1
  O  O46  1  0.57978037  0.69721063  0.40811802  1
  O  O47  1  0.24642296  0.03054475  0.74144400  1
  O  O48  1  0.43665457  0.06136101  0.07478127  1
  O  O49  1  0.10325419  0.39445822  0.40810994  1
  O  O50  1  0.76993917  0.72782977  0.74143412  1
  O  O51  1  0.61080641  0.53713274  0.07468438  1
  O  O52  1  0.27708125  0.87112851  0.40811387  1
  O  O53  1  0.94377511  0.20441962  0.74143963  1
  O  O54  1  0.33805005  0.88309879  0.91937811  1
  O  O55  1  0.00450474  0.21595498  0.25273326  1
  O  O56  1  0.67125171  0.54953792  0.58604733  1
  O  O57  1  0.09118278  0.44344591  0.91940627  1
  O  O58  1  0.75840894  0.77703467  0.25274707  1
  O  O59  1  0.42480799  0.11031087  0.58607108  1
  O  O60  1  0.53084542  0.63615446  0.91944510  1
  O  O61  1  0.19722537  0.96977422  0.25278856  1
  O  O62  1  0.86400396  0.30303111  0.58608025  1
  O  O63  1  0.06071496  0.61158190  0.92265778  1
  O  O64  1  0.72682933  0.94452827  0.25597037  1
  O  O65  1  0.39372900  0.27809996  0.58929446  1
  O  O66  1  0.53662338  0.91354306  0.92261511  1
  O  O67  1  0.20347552  0.24731887  0.25594404  1
  O  O68  1  0.87010734  0.58064982  0.58929781  1
  O  O69  1  0.36270949  0.43759035  0.92267175  1
  O  O70  1  0.02965555  0.77074261  0.25598326  1
  O  O71  1  0.69624588  0.10418578  0.58929942  1
  O  O72  1  0.84636887  0.14747820  0.07777167  1
  O  O73  1  0.51342274  0.48176930  0.41104572  1
  O  O74  1  0.18011345  0.81512921  0.74439309  1
  O  O75  1  0.82612149  0.68646995  0.07768544  1
  O  O76  1  0.49253017  0.02015513  0.41107246  1
  O  O77  1  0.15918212  0.35350851  0.74439696  1
  O  O78  1  0.28744529  0.12756616  0.07771728  1
  O  O79  1  0.95425895  0.46091211  0.41105125  1
  O  O80  1  0.62090285  0.79422032  0.74439090  1
  O  O81  1  0.12678247  0.82693610  0.91969536  1
  O  O82  1  0.79330229  0.16000692  0.25301262  1
  O  O83  1  0.46000990  0.49350845  0.58635139  1
  O  O84  1  0.14736119  0.28834232  0.91972772  1
  O  O85  1  0.81422118  0.62166370  0.25300594  1
  O  O86  1  0.48083596  0.95509843  0.58634739  1
  O  O87  1  0.68588628  0.84744251  0.91968178  1
  O  O88  1  0.35254852  0.18098811  0.25301572  1
  O  O89  1  0.01916295  0.51428950  0.58635538  1
  O  O90  1  0.71342608  0.02522798  0.03008550  1
  O  O91  1  0.38035091  0.35925720  0.36340094  1
  O  O92  1  0.04699350  0.69235373  0.69678100  1
  O  O93  1  0.94957578  0.67686567  0.03018784  1
  O  O94  1  0.61503658  0.00965378  0.36341465  1
  O  O95  1  0.28197850  0.34321117  0.69678602  1
  O  O96  1  0.29727440  0.26082433  0.03022642  1
  O  O97  1  0.96462410  0.59389497  0.36340458  1
  O  O98  1  0.63110206  0.92728967  0.69678245  1
  O  O99  1  0.96812556  0.27349224  0.02863737  1
  O  O100  1  0.63608762  0.60768719  0.36205918  1
  O  O101  1  0.30251232  0.94094524  0.69535227  1
  O  O102  1  0.29139397  0.00569900  0.02860155  1
  O  O103  1  0.95741117  0.33822103  0.36205365  1
  O  O104  1  0.62423302  0.67178507  0.69534830  1
  O  O105  1  0.70021941  0.68312615  0.02866940  1
  O  O106  1  0.36670767  0.01704791  0.36207942  1
  O  O107  1  0.03337750  0.35019159  0.69536264  1
  O  O108  1  0.26004262  0.95027481  0.96719282  1
  O  O109  1  0.92636371  0.28264912  0.30065687  1
  O  O110  1  0.59311999  0.61626575  0.63395379  1
  O  O111  1  0.02408046  0.29829953  0.96724273  1
  O  O112  1  0.69173318  0.63224990  0.30066967  1
  O  O113  1  0.35811441  0.96543393  0.63396520  1
  O  O114  1  0.67616134  0.71434868  0.96723019  1
  O  O115  1  0.34209368  0.04800737  0.30068653  1
  O  O116  1  0.00893730  0.38125215  0.63396683  1
  O  O117  1  0.00481474  0.70113745  0.96878908  1
  O  O118  1  0.67064528  0.03421149  0.30201994  1
  O  O119  1  0.33756291  0.36765782  0.63538877  1
  O  O120  1  0.68201829  0.96938511  0.96875744  1
  O  O121  1  0.34936073  0.30371354  0.30199674  1
  O  O122  1  0.01583411  0.63679480  0.63538373  1
  O  O123  1  0.27318388  0.29216766  0.96882438  1
  O  O124  1  0.94004478  0.62484438  0.30200752  1
  O  O125  1  0.60665155  0.95841738  0.63538220  1
  O  O126  1  0.14065528  0.28853894  0.14452714  1
  O  O127  1  0.80879462  0.62194007  0.47784526  1
  O  O128  1  0.47507419  0.95523282  0.81117799  1
  O  O129  1  0.68565787  0.84119091  0.14450497  1
  O  O130  1  0.35248922  0.17553662  0.47786498  1
  O  O131  1  0.01923858  0.50851604  0.81119784  1
  O  O132  1  0.13348483  0.83369836  0.14453618  1
  O  O133  1  0.79888525  0.16558386  0.47785222  1
  O  O134  1  0.46591801  0.49937339  0.81118767  1
  O  O135  1  0.83265564  0.68676232  0.85288399  1
  O  O136  1  0.49792300  0.02009303  0.18624651  1
  O  O137  1  0.16498587  0.35335632  0.51956724  1
  O  O138  1  0.28755267  0.13448630  0.85287810  1
  O  O139  1  0.95419453  0.46639889  0.18619726  1
  O  O140  1  0.62092946  0.80016853  0.51954663  1
  O  O141  1  0.83997708  0.14177758  0.85287957  1
  O  O142  1  0.50793439  0.47638524  0.18620108  1
  O  O143  1  0.17416761  0.80936210  0.51956383  1
  O  O144  1  0.04376332  0.11259142  0.10676404  1
  O  O145  1  0.71093180  0.44611711  0.44003819  1
  O  O146  1  0.37737383  0.77945006  0.77338532  1
  O  O147  1  0.86135284  0.91961203  0.10667885  1
  O  O148  1  0.52821931  0.25337344  0.44002695  1
  O  O149  1  0.19488762  0.58650144  0.77333467  1
  O  O150  1  0.05443017  0.93022787  0.10663636  1
  O  O151  1  0.72098259  0.26339660  0.44001640  1
  O  O152  1  0.38784701  0.59694470  0.77331986  1
  O  O153  1  0.92981214  0.86249722  0.89071823  1
  O  O154  1  0.59577094  0.19576214  0.22412262  1
  O  O155  1  0.26265399  0.52915857  0.55737543  1
  O  O156  1  0.11182317  0.05586244  0.89071178  1
  O  O157  1  0.77850956  0.38854001  0.22405117  1
  O  O158  1  0.44517367  0.72207589  0.55736851  1
  O  O159  1  0.91846652  0.04451103  0.89069848  1
  O  O160  1  0.58576016  0.37851609  0.22404042  1
  O  O161  1  0.25225406  0.71168149  0.55737813  1
  O  O162  1  0.15023265  0.33353275  0.20632199  1
  O  O163  1  0.81705824  0.66688619  0.53962446  1
  O  O164  1  0.48409190  0.00032115  0.87297566  1
  O  O165  1  0.64090564  0.80507287  0.20631101  1
  O  O166  1  0.30747633  0.13873396  0.53963983  1
  O  O167  1  0.97404993  0.47233573  0.87299566  1
  O  O168  1  0.16902217  0.82417529  0.20632932  1
  O  O169  1  0.83558459  0.15729247  0.53963200  1
  O  O170  1  0.50192713  0.49022849  0.87299478  1
  O  O171  1  0.82319804  0.64174781  0.79108988  1
  O  O172  1  0.48923077  0.97479109  0.12447363  1
  O  O173  1  0.15657168  0.30843489  0.45778036  1
  O  O174  1  0.33254936  0.16997994  0.79107978  1
  O  O175  1  -0.00058811  0.50251717  0.12439401  1
  O  O176  1  0.66590668  0.83667728  0.45776404  1
  O  O177  1  0.80434891  0.15112076  0.79108587  1
  O  O178  1  0.47165274  0.48513087  0.12438665  1
  O  O179  1  0.13765333  0.81776195  0.45776824  1
  O  O180  1  0.13306367  0.46740675  0.16305999  1
  O  O181  1  0.79871909  0.79957760  0.49617950  1
  O  O182  1  0.46489574  0.13271032  0.82964014  1
  O  O183  1  0.50721271  0.65424582  0.16296755  1
  O  O184  1  0.17485513  0.98775260  0.49616958  1
  O  O185  1  0.84174614  0.32083663  0.82962514  1
  O  O186  1  0.31999542  0.84140404  0.16304176  1
  O  O187  1  0.65352998  0.50945469  0.82965333  1
  O  O188  1  0.50845214  0.84269396  0.16791874  1
  O  O189  1  0.17426232  0.17529407  0.50121571  1
  O  O190  1  0.84078112  0.50820417  0.83438339  1
  O  O191  1  0.32002457  0.46561451  0.16775270  1
  O  O192  1  0.65324126  0.13362670  0.83437666  1
  O  O193  1  0.13126593  0.65438152  0.16775540  1
  O  O194  1  0.79898056  0.98753545  0.50120377  1
  O  O195  1  0.46609417  0.32116572  0.83436006  1
  O  O196  1  0.98682456  0.80010588  0.50120099  1
  O  O197  1  0.98659536  0.17560793  0.49618369  1
  O  O198  1  0.06726423  0.11389246  0.21094866  1
  O  O199  1  0.73386403  0.44722048  0.54433501  1
  O  O200  1  0.40028333  0.78059519  0.87759471  1
  O  O201  1  0.86048316  0.94204904  0.21103403  1
  O  O202  1  0.52715146  0.27521999  0.54434668  1
  O  O203  1  0.19375962  0.60828301  0.87765476  1
  O  O204  1  0.03229057  0.90705586  0.21107735  1
  O  O205  1  0.69913549  0.24049987  0.54435734  1
  O  O206  1  0.36604190  0.57404600  0.87769249  1
  O  O207  1  0.90613220  0.86139238  0.78638164  1
  O  O208  1  0.57316226  0.19454182  0.11973485  1
  O  O209  1  0.23947898  0.52805893  0.45305352  1
  O  O210  1  0.11290577  0.03329652  0.78637867  1
  O  O211  1  0.77964381  0.36699643  0.11981966  1
  O  O212  1  0.44626293  0.69997281  0.45306208  1
  O  O213  1  0.94100632  0.06814551  0.78638472  1
  O  O214  1  0.60723370  0.40100492  0.11981174  1
  O  O215  1  0.27435149  0.73483338  0.45305233  1
  O  O216  1  0.08697687  0.87776027  0.00750048  1
  O  O217  1  0.75306101  0.21057469  0.34085012  1
  O  O218  1  0.41985005  0.54410370  0.67416607  1
  O  O219  1  0.09645518  0.19751787  0.00749882  1
  O  O220  1  0.76366752  0.53088751  0.34084375  1
  O  O221  1  0.43018537  0.86423507  0.67416198  1
  O  O222  1  0.77664609  0.88744177  0.00750701  1
  O  O223  1  0.44340682  0.22136983  0.34083113  1
  O  O224  1  0.11006983  0.55453341  0.67415512  1
  O  O225  1  0.88652088  0.09726764  0.98980401  1
  O  O226  1  0.55369420  0.43132788  0.32323286  1
  O  O227  1  0.22021899  0.76451543  0.65655765  1
  O  O228  1  0.87692570  0.77759346  0.98998479  1
  O  O229  1  0.54308088  0.11101155  0.32325131  1
  O  O230  1  0.20985576  0.44432180  0.65657464  1
  O  O231  1  0.19671721  0.08775631  0.98992525  1
  O  O232  1  0.86330569  0.42053702  0.32325089  1
  O  O233  1  0.53001187  0.75405701  0.65657286  1
  O  O234  1  0.98651679  0.98718259  0.15957293  1
  O  O235  1  0.65337780  0.32092250  0.49290587  1
  O  O236  1  0.31998100  0.65406141  0.82621717  1
  O  O237  1  0.98670131  0.98758765  0.83782876  1
  O  O238  1  0.65320454  0.32058524  0.17121127  1
  O  O239  1  0.31999517  0.65428114  0.50449507  1
loop_
_geom_bond_atom_site_label_1
_geom_bond_atom_site_label_2
_geom_bond_distance
_geom_bond_site_symmetry_2
O0 Si0 1.620941 1_565
O0 Si39 1.622204 1_555
O1 Si1 1.621036 1_555
O1 Si40 1.621696 1_555
O2 Si2 1.621127 1_555
O2 Si41 1.621815 1_555
O3 Si3 1.621152 1_455
O3 Si42 1.621785 1_555
O4 Si4 1.620988 1_545
O4 Si43 1.621821 1_555
O5 Si5 1.621130 1_555
O5 Si44 1.621863 1_555
O6 Si6 1.621130 1_555
O6 Si36 1.621872 1_555
O7 Si7 1.621085 1_555
O7 Si37 1.621781 1_555
O8 Si8 1.621042 1_555
O8 Si38 1.621717 1_555
O9 Si36 1.623637 1_555
O9 Si9 1.624320 1_455
O10 Si37 1.623778 1_555
O10 Si10 1.624318 1_555
O11 Si38 1.623774 1_555
O11 Si11 1.624342 1_555
O12 Si42 1.623816 1_555
O12 Si12 1.624234 1_565
O13 Si43 1.623788 1_555
O13 Si13 1.624245 1_555
O14 Si44 1.623846 1_555
O14 Si14 1.624269 1_555
O15 Si39 1.623738 1_555
O15 Si15 1.624150 1_555
O16 Si40 1.623852 1_555
O16 Si16 1.624278 1_545
O17 Si41 1.623852 1_555
O17 Si17 1.624311 1_555
O18 Si18 1.621081 1_545
O18 Si48 1.621823 1_555
O19 Si19 1.621100 1_555
O19 Si49 1.621839 1_555
O20 Si20 1.621014 1_555
O20 Si50 1.621702 1_555
O21 Si21 1.621217 1_655
O21 Si51 1.621889 1_555
O22 Si22 1.621151 1_555
O22 Si52 1.621897 1_555
O23 Si23 1.620922 1_555
O23 Si53 1.621755 1_555
O24 Si24 1.621163 1_555
O24 Si45 1.621858 1_555
O25 Si25 1.621025 1_555
O25 Si46 1.621730 1_555
O26 Si26 1.621086 1_455
O26 Si47 1.621724 1_555
O27 Si45 1.623848 1_555
O27 Si27 1.624218 1_655
O28 Si46 1.623829 1_555
O28 Si28 1.624402 1_555
O29 Si47 1.623762 1_555
O29 Si29 1.624309 1_555
O30 Si51 1.623845 1_555
O30 Si30 1.624267 1_545
O31 Si52 1.623832 1_555
O31 Si31 1.624395 1_555
O32 Si53 1.623718 1_555
O32 Si32 1.624252 1_455
O33 Si48 1.623846 1_555
O33 Si33 1.624281 1_555
O34 Si49 1.623951 1_555
O34 Si34 1.624384 1_555
O35 Si50 1.623818 1_555
O35 Si35 1.624286 1_555
O36 Si0 1.616260 1_555
O36 Si82 1.621397 1_555
O37 Si1 1.616333 1_555
O37 Si83 1.621406 1_555
O38 Si2 1.616339 1_655
O38 Si81 1.621436 1_555
O39 Si3 1.616369 1_555
O39 Si85 1.621511 1_555
O40 Si4 1.616366 1_555
O40 Si86 1.621489 1_555
O41 Si5 1.616387 1_555
O41 Si84 1.621410 1_555
O42 Si6 1.616174 1_555
O42 Si88 1.621242 1_555
O43 Si7 1.616406 1_455
O43 Si89 1.621577 1_555
O44 Si8 1.616387 1_545
O44 Si87 1.621485 1_555
O45 Si9 1.613583 1_555
O45 Si85 1.618418 1_555
O46 Si10 1.613611 1_555
O46 Si86 1.618521 1_555
O47 Si11 1.613556 1_545
O47 Si84 1.618451 1_555
O48 Si12 1.613470 1_555
O48 Si82 1.618570 1_555
O49 Si13 1.613593 1_455
O49 Si83 1.618536 1_555
O50 Si14 1.613472 1_555
O50 Si81 1.618499 1_555
O51 Si15 1.613457 1_555
O51 Si88 1.618598 1_555
O52 Si16 1.613597 1_555
O52 Si89 1.618564 1_555
O53 Si17 1.613556 1_655
O53 Si87 1.618535 1_555
O54 Si18 1.616280 1_555
O54 Si74 1.621508 1_555
O55 Si19 1.616418 1_455
O55 Si72 1.621489 1_555
O56 Si20 1.616362 1_555
O56 Si73 1.621437 1_555
O57 Si21 1.616384 1_555
O57 Si77 1.621476 1_555
O58 Si22 1.616411 1_555
O58 Si75 1.621509 1_555
O59 Si23 1.616371 1_545
O59 Si76 1.621451 1_555
O60 Si24 1.616313 1_555
O60 Si80 1.621476 1_555
O61 Si25 1.616311 1_565
O61 Si78 1.621491 1_555
O62 Si26 1.616210 1_555
O62 Si79 1.621395 1_555
O63 Si27 1.613467 1_555
O63 Si77 1.618492 1_555
O64 Si28 1.613650 1_565
O64 Si75 1.618561 1_555
O65 Si29 1.613558 1_555
O65 Si76 1.618554 1_555
O66 Si30 1.613371 1_555
O66 Si74 1.618410 1_555
O67 Si31 1.613563 1_555
O67 Si72 1.618578 1_555
O68 Si32 1.613499 1_555
O68 Si73 1.618446 1_555
O69 Si33 1.613410 1_555
O69 Si80 1.618493 1_555
O70 Si34 1.613532 1_455
O70 Si78 1.618494 1_555
O71 Si35 1.613529 1_545
O71 Si79 1.618542 1_555
O72 Si9 1.630036 1_555
O72 Si0 1.630170 1_555
O73 Si10 1.629612 1_555
O73 Si1 1.629800 1_555
O74 Si11 1.629673 1_555
O74 Si2 1.629857 1_555
O75 Si15 1.629425 1_555
O75 Si3 1.629696 1_555
O76 Si16 1.629724 1_545
O76 Si4 1.629873 1_545
O77 Si17 1.629727 1_555
O77 Si5 1.629904 1_555
O78 Si12 1.629706 1_555
O78 Si6 1.629751 1_555
O79 Si13 1.629674 1_555
O79 Si7 1.629821 1_555
O80 Si14 1.629697 1_555
O80 Si8 1.629796 1_555
O81 Si27 1.629533 1_555
O81 Si18 1.629694 1_555
O82 Si28 1.629739 1_555
O82 Si19 1.629905 1_555
O83 Si29 1.629702 1_555
O83 Si20 1.629801 1_555
O84 Si33 1.629607 1_555
O84 Si21 1.629862 1_555
O85 Si34 1.629704 1_555
O85 Si22 1.629987 1_555
O86 Si35 1.629740 1_555
O86 Si23 1.629909 1_555
O87 Si30 1.629626 1_555
O87 Si24 1.629732 1_555
O88 Si31 1.629822 1_555
O88 Si25 1.629864 1_555
O89 Si32 1.629713 1_455
O89 Si26 1.629836 1_455
O90 Si102 1.623783 1_544
O90 Si0 1.625473 1_555
O91 Si103 1.624160 1_555
O91 Si1 1.625422 1_555
O92 Si104 1.624161 1_555
O92 Si2 1.625580 1_555
O93 Si99 1.623990 1_554
O93 Si3 1.625466 1_555
O94 Si100 1.624016 1_555
O94 Si4 1.625472 1_545
O95 Si101 1.624092 1_555
O95 Si5 1.625532 1_555
O96 Si105 1.623965 1_554
O96 Si6 1.625466 1_555
O97 Si106 1.624070 1_555
O97 Si7 1.625520 1_555
O98 Si107 1.624094 1_555
O98 Si8 1.625588 1_555
O99 Si93 1.620790 1_554
O99 Si9 1.623258 1_555
O100 Si94 1.620773 1_555
O100 Si10 1.623132 1_555
O101 Si95 1.620721 1_555
O101 Si11 1.623137 1_555
O102 Si90 1.620872 1_544
O102 Si12 1.623257 1_555
O103 Si91 1.620748 1_555
O103 Si13 1.623225 1_555
O104 Si92 1.620681 1_555
O104 Si14 1.623186 1_555
O105 Si96 1.620947 1_554
O105 Si15 1.623213 1_555
O106 Si97 1.620767 1_555
O106 Si16 1.623205 1_545
O107 Si98 1.620782 1_555
O107 Si17 1.623206 1_555
O108 Si90 1.624000 1_555
O108 Si18 1.625487 1_555
O109 Si91 1.624187 1_555
O109 Si19 1.625634 1_555
O110 Si92 1.624064 1_555
O110 Si20 1.625532 1_555
O111 Si93 1.624199 1_455
O111 Si21 1.625648 1_555
O112 Si94 1.624094 1_555
O112 Si22 1.625614 1_555
O113 Si95 1.624013 1_555
O113 Si23 1.625475 1_555
O114 Si96 1.624128 1_555
O114 Si24 1.625553 1_555
O115 Si97 1.624102 1_555
O115 Si25 1.625589 1_555
O116 Si98 1.623962 1_555
O116 Si26 1.625571 1_455
O117 Si99 1.620614 1_455
O117 Si27 1.623096 1_555
O118 Si100 1.620821 1_555
O118 Si28 1.623127 1_555
O119 Si101 1.620761 1_555
O119 Si29 1.623217 1_555
O120 Si102 1.620537 1_555
O120 Si30 1.622993 1_555
O121 Si103 1.620848 1_555
O121 Si31 1.623230 1_555
O122 Si104 1.620750 1_555
O122 Si32 1.623180 1_455
O123 Si105 1.620786 1_555
O123 Si33 1.623266 1_555
O124 Si106 1.620657 1_555
O124 Si34 1.623125 1_555
O125 Si107 1.620812 1_555
O125 Si35 1.623287 1_555
O126 Si36 1.622246 1_555
O126 Si54 1.627105 1_555
O127 Si37 1.622336 1_555
O127 Si55 1.627273 1_555
O128 Si38 1.622316 1_555
O128 Si56 1.627146 1_565
O129 Si39 1.622241 1_555
O129 Si57 1.627163 1_555
O130 Si40 1.622352 1_555
O130 Si58 1.627291 1_555
O131 Si41 1.622441 1_555
O131 Si59 1.627236 1_455
O132 Si42 1.622287 1_555
O132 Si60 1.627157 1_555
O133 Si43 1.622324 1_555
O133 Si61 1.627309 1_555
O134 Si44 1.622449 1_555
O134 Si62 1.627323 1_555
O135 Si45 1.622307 1_555
O135 Si63 1.627240 1_555
O136 Si46 1.622492 1_555
O136 Si64 1.627299 1_545
O137 Si47 1.622295 1_555
O137 Si65 1.627200 1_555
O138 Si48 1.622319 1_555
O138 Si66 1.627175 1_555
O139 Si49 1.622529 1_555
O139 Si67 1.627256 1_655
O140 Si50 1.622241 1_555
O140 Si68 1.627177 1_555
O141 Si51 1.622268 1_555
O141 Si69 1.627130 1_555
O142 Si52 1.622495 1_555
O142 Si70 1.627271 1_555
O143 Si53 1.622290 1_555
O143 Si71 1.627277 1_555
O144 Si36 1.616547 1_555
O144 Si114 1.619346 1_445
O145 Si37 1.616664 1_555
O145 Si115 1.619472 1_555
O146 Si38 1.616647 1_555
O146 Si116 1.619498 1_555
O147 Si39 1.616631 1_555
O147 Si114 1.619639 1_555
O148 Si40 1.616553 1_555
O148 Si115 1.619560 1_555
O149 Si41 1.616550 1_555
O149 Si116 1.619500 1_555
O150 Si42 1.616822 1_555
O150 Si114 1.619692 1_455
O151 Si43 1.616648 1_555
O151 Si115 1.619616 1_555
O152 Si44 1.616668 1_555
O152 Si116 1.619588 1_555
O153 Si45 1.616719 1_555
O153 Si117 1.619601 1_555
O154 Si46 1.616626 1_555
O154 Si118 1.619414 1_555
O155 Si47 1.616676 1_555
O155 Si119 1.619551 1_555
O156 Si48 1.616651 1_555
O156 Si117 1.619546 1_445
O157 Si49 1.616577 1_555
O157 Si118 1.619402 1_555
O158 Si50 1.616565 1_555
O158 Si119 1.619515 1_555
O159 Si51 1.616612 1_555
O159 Si117 1.619580 1_545
O160 Si52 1.616626 1_555
O160 Si118 1.619466 1_555
O161 Si53 1.616618 1_555
O161 Si119 1.619515 1_555
O162 Si72 1.631605 1_555
O162 Si54 1.631950 1_555
O163 Si73 1.631671 1_555
O163 Si55 1.631932 1_555
O164 Si74 1.631546 1_545
O164 Si56 1.632007 1_555
O165 Si75 1.631620 1_555
O165 Si57 1.631843 1_555
O166 Si76 1.631746 1_555
O166 Si58 1.632001 1_555
O167 Si77 1.631649 1_655
O167 Si59 1.631974 1_555
O168 Si78 1.631625 1_555
O168 Si60 1.631880 1_555
O169 Si79 1.631619 1_555
O169 Si61 1.631940 1_555
O170 Si80 1.631655 1_555
O170 Si62 1.631959 1_555
O171 Si81 1.631596 1_555
O171 Si63 1.631782 1_555
O172 Si82 1.631610 1_565
O172 Si64 1.632029 1_555
O173 Si83 1.631751 1_555
O173 Si65 1.632009 1_555
O174 Si84 1.631580 1_555
O174 Si66 1.631792 1_555
O175 Si85 1.631652 1_455
O175 Si67 1.632031 1_555
O176 Si86 1.631686 1_555
O176 Si68 1.631903 1_555
O177 Si87 1.631626 1_555
O177 Si69 1.631858 1_555
O178 Si88 1.631595 1_555
O178 Si70 1.632025 1_555
O179 Si89 1.631750 1_555
O179 Si71 1.632103 1_555
O180 Si54 1.625270 1_555
O180 Si67 1.625849 1_555
O181 Si55 1.625060 1_555
O181 Si68 1.625745 1_555
O182 Si56 1.624875 1_555
O182 Si66 1.625472 1_555
O183 Si57 1.625235 1_555
O183 Si70 1.625980 1_555
O184 Si58 1.625161 1_565
O184 Si71 1.625774 1_555
O185 Si59 1.624916 1_555
O185 Si69 1.625411 1_555
O186 Si60 1.625236 1_555
O186 Si64 1.625742 1_555
O187 Si62 1.624895 1_555
O187 Si63 1.625439 1_555
O188 Si64 1.624825 1_555
O188 Si57 1.625364 1_555
O189 Si65 1.625207 1_555
O189 Si58 1.625813 1_555
O190 Si63 1.625085 1_555
O190 Si59 1.625709 1_555
O191 Si70 1.624886 1_555
O191 Si54 1.625488 1_555
O192 Si69 1.625183 1_555
O192 Si56 1.625819 1_555
O193 Si67 1.624875 1_555
O193 Si60 1.625357 1_555
O194 Si68 1.625191 1_555
O194 Si61 1.625745 1_565
O195 Si66 1.625034 1_555
O195 Si62 1.625687 1_555
O196 Si71 1.625263 1_655
O196 Si55 1.625819 1_555
O197 Si61 1.625132 1_555
O197 Si65 1.625718 1_655
O198 Si108 1.626859 1_445
O198 Si72 1.629430 1_555
O199 Si109 1.626631 1_555
O199 Si73 1.629175 1_555
O200 Si110 1.626593 1_555
O200 Si74 1.629077 1_555
O201 Si108 1.626713 1_555
O201 Si75 1.629154 1_555
O202 Si109 1.626687 1_555
O202 Si76 1.629085 1_555
O203 Si110 1.626545 1_555
O203 Si77 1.629051 1_555
O204 Si108 1.626723 1_455
O204 Si78 1.629039 1_555
O205 Si109 1.626688 1_555
O205 Si79 1.629088 1_555
O206 Si110 1.626599 1_555
O206 Si80 1.629072 1_555
O207 Si111 1.626788 1_555
O207 Si81 1.629129 1_555
O208 Si112 1.626538 1_555
O208 Si82 1.628987 1_555
O209 Si113 1.626755 1_555
O209 Si83 1.629172 1_555
O210 Si111 1.626576 1_445
O210 Si84 1.629128 1_555
O211 Si112 1.626367 1_555
O211 Si85 1.628975 1_555
O212 Si113 1.626740 1_555
O212 Si86 1.629284 1_555
O213 Si111 1.626759 1_545
O213 Si87 1.629189 1_555
O214 Si112 1.626492 1_555
O214 Si88 1.628893 1_555
O215 Si113 1.626754 1_555
O215 Si89 1.629206 1_555
O216 Si99 1.627306 1_454
O216 Si90 1.627512 1_554
O217 Si100 1.627348 1_555
O217 Si91 1.627574 1_555
O218 Si101 1.627289 1_555
O218 Si92 1.627552 1_555
O219 Si105 1.627407 1_554
O219 Si93 1.627529 1_454
O220 Si106 1.627475 1_555
O220 Si94 1.627592 1_555
O221 Si107 1.627447 1_555
O221 Si95 1.627543 1_555
O222 Si102 1.627329 1_554
O222 Si96 1.627472 1_554
O223 Si103 1.627398 1_555
O223 Si97 1.627628 1_555
O224 Si104 1.627350 1_555
O224 Si98 1.627531 1_555
O225 Si93 1.627343 1_555
O225 Si102 1.627482 1_545
O226 Si94 1.627358 1_555
O226 Si103 1.627544 1_555
O227 Si95 1.627356 1_555
O227 Si104 1.627592 1_555
O228 Si96 1.627424 1_555
O228 Si99 1.627573 1_555
O229 Si97 1.627554 1_555
O229 Si100 1.627641 1_555
O230 Si98 1.627383 1_555
O230 Si101 1.627556 1_555
O231 Si90 1.627333 1_545
O231 Si105 1.627517 1_555
O232 Si91 1.627356 1_555
O232 Si106 1.627578 1_555
O233 Si92 1.627342 1_555
O233 Si107 1.627571 1_555
O234 Si114 1.613159 1_555
O234 Si108 1.619540 1_555
O235 Si115 1.613074 1_555
O235 Si109 1.619470 1_555
O236 Si116 1.612971 1_555
O236 Si110 1.619253 1_555
O237 Si117 1.613074 1_555
O237 Si111 1.619464 1_555
O238 Si118 1.612866 1_555
O238 Si112 1.619171 1_555
O239 Si119 1.613023 1_555
O239 Si113 1.619420 1_555
