# generated using pymatgen
data_SrIrO3
_symmetry_space_group_name_H-M   'P 1'
_cell_length_a   5.51607999
_cell_length_b   5.51607999
_cell_length_c   14.37888941
_cell_angle_alpha   90.00000000
_cell_angle_beta   90.00000000
_cell_angle_gamma   118.56732076
_symmetry_Int_Tables_number   1
_chemical_formula_structural   SrIrO3
_chemical_formula_sum   'Sr6 Ir6 O18'
_cell_volume   384.24436697
_cell_formula_units_Z   6
loop_
 _symmetry_equiv_pos_site_id
 _symmetry_equiv_pos_as_xyz
  1  'x, y, z'
loop_
 _atom_site_type_symbol
 _atom_site_label
 _atom_site_symmetry_multiplicity
 _atom_site_fract_x
 _atom_site_fract_y
 _atom_site_fract_z
 _atom_site_occupancy
  Sr  Sr0  1  0.99158544  0.00841456  0.75000000  1
  Sr  Sr1  1  0.00841456  0.99158544  0.25000000  1
  Sr  Sr2  1  0.32217068  0.67782932  0.89286250  1
  Sr  Sr3  1  0.32217068  0.67782932  0.60713750  1
  Sr  Sr4  1  0.67782932  0.32217068  0.10713750  1
  Sr  Sr5  1  0.67782932  0.32217068  0.39286250  1
  Ir  Ir0  1  0.00000000  -0.00000000  0.00000000  1
  Ir  Ir1  1  0.00000000  -0.00000000  0.50000000  1
  Ir  Ir2  1  0.33927452  0.66072548  0.15316631  1
  Ir  Ir3  1  0.33927452  0.66072548  0.34683369  1
  Ir  Ir4  1  0.66072548  0.33927452  0.84683369  1
  Ir  Ir5  1  0.66072548  0.33927452  0.65316631  1
  O  O0  1  0.20146212  0.28064580  0.40222187  1
  O  O1  1  0.71935420  0.79853788  0.09777813  1
  O  O2  1  0.79853788  0.71935420  0.59777813  1
  O  O3  1  0.28064580  0.20146212  0.90222187  1
  O  O4  1  0.20123176  0.79876824  0.04512222  1
  O  O5  1  0.20123176  0.79876824  0.45487778  1
  O  O6  1  0.79876824  0.20123176  0.95487778  1
  O  O7  1  0.79876824  0.20123176  0.54512222  1
  O  O8  1  0.71935420  0.79853788  0.40222187  1
  O  O9  1  0.20146212  0.28064580  0.09777813  1
  O  O10  1  0.28064580  0.20146212  0.59777813  1
  O  O11  1  0.79853788  0.71935420  0.90222187  1
  O  O12  1  0.51089998  0.48910002  0.75000000  1
  O  O13  1  0.48910002  0.51089998  0.25000000  1
  O  O14  1  0.51598448  0.02209855  0.75000000  1
  O  O15  1  0.97790145  0.48401552  0.75000000  1
  O  O16  1  0.48401552  0.97790145  0.25000000  1
  O  O17  1  0.02209855  0.51598448  0.25000000  1
loop_
_geom_bond_atom_site_label_1
_geom_bond_atom_site_label_2
_geom_bond_distance
_geom_bond_site_symmetry_2
Ir0 O9 1.990684 1_555
Ir0 O3 1.990684 1_554
Ir0 O1 1.990684 1_445
Ir0 O11 1.990684 1_444
Ir0 O4 2.015832 1_545
Ir0 O6 2.015832 1_454
Ir1 O10 1.990684 1_555
Ir1 O0 1.990684 1_555
Ir1 O2 1.990684 1_445
Ir1 O8 1.990684 1_445
Ir1 O7 2.015832 1_455
Ir1 O5 2.015832 1_545
Ir2 O13 1.989455 1_555
Ir2 O1 2.020752 1_555
Ir2 O9 2.020752 1_555
Ir2 O4 2.031669 1_555
Ir2 O17 2.073927 1_555
Ir2 O16 2.073927 1_555
Ir3 O13 1.989455 1_555
Ir3 O8 2.020752 1_555
Ir3 O0 2.020752 1_555
Ir3 O5 2.031669 1_555
Ir3 O16 2.073927 1_555
Ir3 O17 2.073927 1_555
Ir4 O12 1.989455 1_555
Ir4 O11 2.020752 1_555
Ir4 O3 2.020752 1_555
Ir4 O6 2.031669 1_555
Ir4 O14 2.073927 1_555
Ir4 O15 2.073927 1_555
Ir5 O12 1.989455 1_555
Ir5 O2 2.020752 1_555
Ir5 O10 2.020752 1_555
Ir5 O7 2.031669 1_555
Ir5 O14 2.073927 1_555
Ir5 O15 2.073927 1_555
O0 Sr5 2.529753 1_555
O0 Sr1 2.615955 1_545
O0 Sr5 3.007686 1_455
O1 Sr4 2.529753 1_555
O1 Sr1 2.615955 1_655
O1 Sr4 3.007686 1_565
O2 Sr3 2.529753 1_555
O2 Sr0 2.615955 1_565
O2 Sr3 3.007686 1_655
O3 Sr2 2.529753 1_555
O3 Sr0 2.615955 1_455
O3 Sr2 3.007686 1_545
O4 Sr2 2.471606 1_554
O4 Sr4 2.963611 1_455
O4 Sr4 2.963611 1_565
O5 Sr3 2.471606 1_555
O5 Sr5 2.963611 1_455
O5 Sr5 2.963611 1_565
O6 Sr4 2.471606 1_556
O6 Sr2 2.963611 1_545
O6 Sr2 2.963611 1_655
O7 Sr5 2.471606 1_555
O7 Sr3 2.963611 1_545
O7 Sr3 2.963611 1_655
O8 Sr5 2.529753 1_555
O8 Sr1 2.615955 1_655
O8 Sr5 3.007686 1_565
O9 Sr4 2.529753 1_555
O9 Sr1 2.615955 1_545
O9 Sr4 3.007686 1_455
O10 Sr3 2.529753 1_555
O10 Sr0 2.615955 1_455
O10 Sr3 3.007686 1_545
O11 Sr2 2.529753 1_555
O11 Sr0 2.615955 1_565
O11 Sr2 3.007686 1_655
O12 Sr3 2.724667 1_555
O12 Sr2 2.724667 1_555
O12 Sr0 2.823497 1_455
O12 Sr0 2.823497 1_565
O13 Sr4 2.724667 1_555
O13 Sr5 2.724667 1_555
O13 Sr1 2.823497 1_545
O13 Sr1 2.823497 1_655
O14 Sr3 2.650907 1_545
O14 Sr2 2.650907 1_545
O14 Sr0 2.660374 1_555
O14 Sr0 2.857301 1_455
O15 Sr3 2.650907 1_655
O15 Sr2 2.650907 1_655
O15 Sr0 2.660374 1_555
O15 Sr0 2.857301 1_565
O16 Sr4 2.650907 1_565
O16 Sr5 2.650907 1_565
O16 Sr1 2.660374 1_555
O16 Sr1 2.857301 1_655
O17 Sr5 2.650907 1_455
O17 Sr4 2.650907 1_455
O17 Sr1 2.660374 1_555
O17 Sr1 2.857301 1_545
