# generated using pymatgen
data_KMnSn3O8
_symmetry_space_group_name_H-M   'P 1'
_cell_length_a   3.23155411
_cell_length_b   10.56607258
_cell_length_c   10.51248350
_cell_angle_alpha   89.03488276
_cell_angle_beta   89.98858681
_cell_angle_gamma   89.97292077
_symmetry_Int_Tables_number   1
_chemical_formula_structural   KMnSn3O8
_chemical_formula_sum   'K2 Mn2 Sn6 O16'
_cell_volume   358.89604912
_cell_formula_units_Z   2
loop_
 _symmetry_equiv_pos_site_id
 _symmetry_equiv_pos_as_xyz
  1  'x, y, z'
loop_
 _atom_site_type_symbol
 _atom_site_label
 _atom_site_symmetry_multiplicity
 _atom_site_fract_x
 _atom_site_fract_y
 _atom_site_fract_z
 _atom_site_occupancy
  K  K0  1  0.50977000  0.98920900  0.00271000  1
  K  K1  1  0.99051900  0.48921300  0.50287300  1
  Mn  Mn0  1  0.00352800  0.16539000  0.65183400  1
  Mn  Mn1  1  0.49653600  0.66527500  0.15178800  1
  Sn  Sn0  1  0.48027700  0.32844200  0.84213600  1
  Sn  Sn1  1  0.01968400  0.82840200  0.34211000  1
  Sn  Sn2  1  0.00361100  0.65186000  0.84152100  1
  Sn  Sn3  1  0.49634800  0.15183000  0.34159400  1
  Sn  Sn4  1  0.98172000  0.35769400  0.16389600  1
  Sn  Sn5  1  0.51830800  0.85774800  0.66383800  1
  O  O0  1  0.50203900  0.66549100  0.96236900  1
  O  O1  1  0.99788000  0.16552800  0.46245700  1
  O  O2  1  0.47993600  0.33243000  0.03954400  1
  O  O3  1  0.02004100  0.83245000  0.53952400  1
  O  O4  1  0.98175100  0.45730900  0.83440200  1
  O  O5  1  0.51788100  0.95729500  0.33445100  1
  O  O6  1  0.96094000  0.54708100  0.16270700  1
  O  O7  1  0.53908300  0.04714300  0.66271500  1
  O  O8  1  0.97769900  0.19829400  0.84464600  1
  O  O9  1  0.52249700  0.69826500  0.34467100  1
  O  O10  1  0.06942300  0.79912200  0.14924500  1
  O  O11  1  0.43046600  0.29923400  0.64924200  1
  O  O12  1  0.48424200  0.34987200  0.29982700  1
  O  O13  1  0.01576000  0.84990300  0.79978900  1
  O  O14  1  0.50752500  0.65778200  0.70502900  1
  O  O15  1  0.99253600  0.15773800  0.20508100  1
loop_
_geom_bond_atom_site_label_1
_geom_bond_atom_site_label_2
_geom_bond_distance
_geom_bond_site_symmetry_2
K0 O10 2.886085 1_555
K0 O13 3.061864 1_554
K0 O13 3.081050 1_654
K0 O10 3.093742 1_655
K0 O8 3.131568 1_564
K0 O15 3.203468 1_565
K0 O8 3.236037 1_464
K0 O15 3.257910 1_465
K1 O11 2.883119 1_655
K1 O12 3.061320 1_655
K1 O12 3.083833 1_555
K1 O11 3.093669 1_555
K1 O9 3.131534 1_555
K1 O14 3.201312 1_555
K1 O9 3.237129 1_655
K1 O14 3.257570 1_655
Mn0 O7 1.955410 1_455
Mn0 O11 1.976044 1_555
Mn0 O1 1.990886 1_455
Mn0 O8 2.063962 1_455
Mn0 O7 2.136014 1_555
Mn0 O11 2.329470 1_455
Mn1 O6 1.954099 1_555
Mn1 O10 1.975534 1_555
Mn1 O0 1.991303 1_554
Mn1 O9 2.064929 1_555
Mn1 O6 2.136732 1_455
Mn1 O10 2.330093 1_655
O0 Sn2 2.058212 1_555
O0 Sn2 2.065670 1_655
O1 Sn3 2.057964 1_655
O1 Sn3 2.066227 1_555
O2 Sn0 2.076386 1_554
O2 Sn4 2.093515 1_455
O2 Sn4 2.102989 1_555
O3 Sn1 2.076473 1_555
O3 Sn5 2.094036 1_555
O3 Sn5 2.102066 1_455
O4 Sn2 2.059507 1_655
O4 Sn0 2.109557 1_655
O4 Sn0 2.117798 1_555
O5 Sn3 2.059248 1_565
O5 Sn1 2.109858 1_555
O5 Sn1 2.117806 1_655
O6 Sn4 2.002000 1_555
O7 Sn5 2.002155 1_545
O8 Sn0 2.114789 1_555
O8 Sn0 2.128460 1_655
O9 Sn1 2.115116 1_655
O9 Sn1 2.127981 1_555
O10 Sn1 2.062333 1_555
O11 Sn0 2.062611 1_555
O12 Sn3 2.131188 1_555
O12 Sn4 2.151392 1_555
O12 Sn4 2.163966 1_455
O13 Sn2 2.131164 1_555
O13 Sn5 2.151843 1_455
O13 Sn5 2.163806 1_555
O14 Sn5 2.149912 1_555
O14 Sn2 2.151880 1_655
O14 Sn2 2.170409 1_555
O15 Sn4 2.149769 1_555
O15 Sn3 2.151888 1_555
O15 Sn3 2.170690 1_655
