# generated using pymatgen
data_Yb2CdGe2
_symmetry_space_group_name_H-M   'P 1'
_cell_length_a   7.19559846
_cell_length_b   7.19559846
_cell_length_c   4.08393947
_cell_angle_alpha   90.00000000
_cell_angle_beta   90.00000000
_cell_angle_gamma   90.00000000
_symmetry_Int_Tables_number   1
_chemical_formula_structural   Yb2CdGe2
_chemical_formula_sum   'Yb4 Cd2 Ge4'
_cell_volume   211.45265235
_cell_formula_units_Z   2
loop_
 _symmetry_equiv_pos_site_id
 _symmetry_equiv_pos_as_xyz
  1  'x, y, z'
loop_
 _atom_site_type_symbol
 _atom_site_label
 _atom_site_symmetry_multiplicity
 _atom_site_fract_x
 _atom_site_fract_y
 _atom_site_fract_z
 _atom_site_occupancy
  Yb  Yb0  1  0.67813110  0.17813110  0.50000000  1
  Yb  Yb1  1  0.32186890  0.82186890  0.50000000  1
  Yb  Yb2  1  0.17813110  0.32186890  0.50000000  1
  Yb  Yb3  1  0.82186890  0.67813110  0.50000000  1
  Cd  Cd0  1  0.50000000  0.50000000  0.00000000  1
  Cd  Cd1  1  0.00000000  0.00000000  0.00000000  1
  Ge  Ge0  1  0.12206936  0.62206936  0.00000000  1
  Ge  Ge1  1  0.87793064  0.37793064  0.00000000  1
  Ge  Ge2  1  0.62206936  0.87793064  0.00000000  1
  Ge  Ge3  1  0.37793064  0.12206936  0.00000000  1
loop_
_geom_bond_atom_site_label_1
_geom_bond_atom_site_label_2
_geom_bond_distance
_geom_bond_site_symmetry_2
Cd0 Ge2 2.857772 1_555
Cd0 Ge1 2.857772 1_555
Cd0 Ge0 2.857772 1_555
Cd0 Ge3 2.857772 1_555
Cd0 Yb3 3.343140 1_555
Cd0 Yb3 3.343140 1_554
Cd0 Yb1 3.343140 1_554
Cd0 Yb1 3.343140 1_555
Cd0 Yb0 3.343140 1_555
Cd0 Yb0 3.343140 1_554
Cd0 Yb2 3.343140 1_554
Cd0 Yb2 3.343140 1_555
Cd1 Ge3 2.857772 1_555
Cd1 Ge1 2.857772 1_455
Cd1 Ge0 2.857772 1_545
Cd1 Ge2 2.857772 1_445
Cd1 Yb2 3.343140 1_555
Cd1 Yb2 3.343140 1_554
Cd1 Yb1 3.343140 1_544
Cd1 Yb1 3.343140 1_545
Cd1 Yb0 3.343140 1_454
Cd1 Yb0 3.343140 1_455
Cd1 Yb3 3.343140 1_445
Cd1 Yb3 3.343140 1_444
Ge0 Ge1 2.484383 1_455
Ge0 Yb1 2.881575 1_554
Ge0 Yb1 2.881575 1_555
Ge0 Yb3 2.999749 1_455
Ge0 Yb3 2.999749 1_454
Ge0 Yb2 2.999749 1_555
Ge0 Yb2 2.999749 1_554
Ge1 Yb0 2.881575 1_555
Ge1 Yb0 2.881575 1_554
Ge1 Yb2 2.999749 1_655
Ge1 Yb2 2.999749 1_654
Ge1 Yb3 2.999749 1_555
Ge1 Yb3 2.999749 1_554
Ge2 Ge3 2.484383 1_565
Ge2 Yb3 2.881575 1_555
Ge2 Yb3 2.881575 1_554
Ge2 Yb0 2.999749 1_564
Ge2 Yb0 2.999749 1_565
Ge2 Yb1 2.999749 1_555
Ge2 Yb1 2.999749 1_554
Ge3 Yb2 2.881575 1_555
Ge3 Yb2 2.881575 1_554
Ge3 Yb1 2.999749 1_545
Ge3 Yb1 2.999749 1_544
Ge3 Yb0 2.999749 1_554
Ge3 Yb0 2.999749 1_555
