# generated using pymatgen
data_TiFeSbO6
_symmetry_space_group_name_H-M   'P 1'
_cell_length_a   4.71811400
_cell_length_b   4.71811400
_cell_length_c   9.04728800
_cell_angle_alpha   90.00000000
_cell_angle_beta   90.00000000
_cell_angle_gamma   90.00000000
_symmetry_Int_Tables_number   1
_chemical_formula_structural   TiFeSbO6
_chemical_formula_sum   'Ti2 Fe2 Sb2 O12'
_cell_volume   201.39805669
_cell_formula_units_Z   2
loop_
 _symmetry_equiv_pos_site_id
 _symmetry_equiv_pos_as_xyz
  1  'x, y, z'
loop_
 _atom_site_type_symbol
 _atom_site_label
 _atom_site_symmetry_multiplicity
 _atom_site_fract_x
 _atom_site_fract_y
 _atom_site_fract_z
 _atom_site_occupancy
  Ti  Ti0  1  0.50000000  0.50000000  0.49686300  1
  Ti  Ti1  1  0.00000000  0.00000000  0.99686300  1
  Fe  Fe0  1  0.50000000  0.50000000  0.16657600  1
  Fe  Fe1  1  0.00000000  0.00000000  0.66657600  1
  Sb  Sb0  1  0.50000000  0.50000000  0.83238100  1
  Sb  Sb1  1  0.00000000  0.00000000  0.33238100  1
  O  O0  1  0.19016700  0.80983300  0.16398600  1
  O  O1  1  0.19364200  0.80635800  0.50164600  1
  O  O2  1  0.19283100  0.80716900  0.83645800  1
  O  O3  1  0.80983300  0.19016700  0.16398600  1
  O  O4  1  0.80635800  0.19364200  0.50164600  1
  O  O5  1  0.80716900  0.19283100  0.83645800  1
  O  O6  1  0.30635800  0.30635800  0.00164600  1
  O  O7  1  0.30716900  0.30716900  0.33645800  1
  O  O8  1  0.30983300  0.30983300  0.66398600  1
  O  O9  1  0.69364200  0.69364200  0.00164600  1
  O  O10  1  0.69283100  0.69283100  0.33645800  1
  O  O11  1  0.69016700  0.69016700  0.66398600  1
loop_
_geom_bond_atom_site_label_1
_geom_bond_atom_site_label_2
_geom_bond_distance
_geom_bond_site_symmetry_2
Fe0 O9 1.973826 1_555
Fe0 O6 1.973826 1_555
Fe0 O10 2.004432 1_555
Fe0 O7 2.004432 1_555
Fe0 O3 2.067469 1_555
Fe0 O0 2.067469 1_555
Fe1 O4 1.973826 1_455
Fe1 O1 1.973826 1_545
Fe1 O2 2.004432 1_545
Fe1 O5 2.004432 1_455
Fe1 O8 2.067469 1_555
Fe1 O11 2.067469 1_445
O0 Ti1 1.973883 1_564
O0 Sb1 1.982713 1_565
O1 Sb1 2.003640 1_565
O1 Ti0 2.044607 1_555
O2 Ti1 1.939468 1_565
O2 Sb0 2.049893 1_555
O3 Ti1 1.973883 1_654
O3 Sb1 1.982713 1_655
O4 Sb1 2.003640 1_655
O4 Ti0 2.044607 1_555
O5 Ti1 1.939468 1_655
O5 Sb0 2.049893 1_555
O6 Sb0 2.003640 1_554
O6 Ti1 2.044607 1_554
O7 Ti0 1.939468 1_555
O7 Sb1 2.049893 1_555
O8 Ti0 1.973883 1_555
O8 Sb0 1.982713 1_555
O9 Sb0 2.003640 1_554
O9 Ti1 2.044607 1_664
O10 Ti0 1.939468 1_555
O10 Sb1 2.049893 1_665
O11 Ti0 1.973883 1_555
O11 Sb0 1.982713 1_555
