# generated using pymatgen
data_Tb2Ge5Rh3
_symmetry_space_group_name_H-M   'P 1'
_cell_length_a   8.38087769
_cell_length_b   8.38087769
_cell_length_c   5.95648042
_cell_angle_alpha   70.37436257
_cell_angle_beta   70.37436257
_cell_angle_gamma   92.50723675
_symmetry_Int_Tables_number   1
_chemical_formula_structural   Tb2Ge5Rh3
_chemical_formula_sum   'Tb4 Ge10 Rh6'
_cell_volume   365.35553141
_cell_formula_units_Z   2
loop_
 _symmetry_equiv_pos_site_id
 _symmetry_equiv_pos_as_xyz
  1  'x, y, z'
loop_
 _atom_site_type_symbol
 _atom_site_label
 _atom_site_symmetry_multiplicity
 _atom_site_fract_x
 _atom_site_fract_y
 _atom_site_fract_z
 _atom_site_occupancy
  Tb  Tb0  1  0.86520800  0.59271500  0.76710100  1
  Tb  Tb1  1  0.40728500  0.13479200  0.73289900  1
  Tb  Tb2  1  0.13479200  0.40728500  0.23289900  1
  Tb  Tb3  1  0.59271500  0.86520800  0.26710100  1
  Ge  Ge0  1  0.07006700  0.26282700  0.83353600  1
  Ge  Ge1  1  0.73717300  0.92993300  0.66646400  1
  Ge  Ge2  1  0.92993300  0.73717300  0.16646400  1
  Ge  Ge3  1  0.26282700  0.07006700  0.33353600  1
  Ge  Ge4  1  0.21307600  0.78692400  0.75000000  1
  Ge  Ge5  1  0.78692400  0.21307600  0.25000000  1
  Ge  Ge6  1  0.50718800  0.49281200  0.75000000  1
  Ge  Ge7  1  0.49281200  0.50718800  0.25000000  1
  Ge  Ge8  1  0.77771500  0.22228500  0.75000000  1
  Ge  Ge9  1  0.22228500  0.77771500  0.25000000  1
  Rh  Rh0  1  0.25507000  0.53975500  0.61696400  1
  Rh  Rh1  1  0.46024500  0.74493000  0.88303600  1
  Rh  Rh2  1  0.74493000  0.46024500  0.38303600  1
  Rh  Rh3  1  0.53975500  0.25507000  0.11696400  1
  Rh  Rh4  1  0.00158700  0.99841300  0.75000000  1
  Rh  Rh5  1  0.99841300  0.00158700  0.25000000  1
loop_
_geom_bond_atom_site_label_1
_geom_bond_atom_site_label_2
_geom_bond_distance
_geom_bond_site_symmetry_2
Ge0 Rh0 2.405221 1_555
Ge0 Rh4 2.511769 1_545
Ge0 Rh5 2.558074 1_456
Ge0 Ge5 2.687552 1_456
Ge0 Ge8 2.688131 1_455
Ge0 Tb1 3.009560 1_555
Ge0 Tb2 3.187892 1_556
Ge0 Tb2 3.207657 1_555
Ge0 Tb0 3.299233 1_455
Ge1 Rh1 2.405221 1_555
Ge1 Rh4 2.511769 1_655
Ge1 Rh5 2.558074 1_565
Ge1 Ge5 2.687552 1_565
Ge1 Ge8 2.688131 1_565
Ge1 Tb0 3.009560 1_555
Ge1 Tb3 3.187892 1_555
Ge1 Tb3 3.207657 1_556
Ge1 Tb1 3.299233 1_565
Ge2 Rh2 2.405221 1_555
Ge2 Rh5 2.511769 1_565
Ge2 Rh4 2.558074 1_654
Ge2 Ge4 2.687552 1_654
Ge2 Ge9 2.688131 1_655
Ge2 Tb3 3.009560 1_555
Ge2 Tb0 3.187892 1_554
Ge2 Tb0 3.207657 1_555
Ge2 Tb2 3.299233 1_655
Ge3 Rh3 2.405221 1_555
Ge3 Rh5 2.511769 1_455
Ge3 Rh4 2.558074 1_545
Ge3 Ge4 2.687552 1_545
Ge3 Ge9 2.688131 1_545
Ge3 Tb2 3.009560 1_555
Ge3 Tb1 3.187892 1_555
Ge3 Tb1 3.207657 1_554
Ge3 Tb3 3.299233 1_545
Ge4 Rh1 2.453978 1_555
Ge4 Rh0 2.453978 1_555
Ge4 Rh4 2.560882 1_555
Ge4 Ge9 2.980327 1_556
Ge4 Ge9 2.980327 1_555
Ge5 Rh2 2.453978 1_555
Ge5 Rh3 2.453978 1_555
Ge5 Rh5 2.560882 1_555
Ge5 Ge8 2.980327 1_555
Ge5 Ge8 2.980327 1_554
Ge6 Rh1 2.497083 1_555
Ge6 Rh0 2.497083 1_555
Ge6 Rh3 2.518934 1_556
Ge6 Rh2 2.518934 1_555
Ge6 Tb0 3.123674 1_555
Ge6 Tb1 3.123674 1_555
Ge6 Tb3 3.304075 1_555
Ge6 Tb2 3.304075 1_556
Ge7 Rh3 2.497083 1_555
Ge7 Rh2 2.497083 1_555
Ge7 Rh0 2.518934 1_555
Ge7 Rh1 2.518934 1_554
Ge7 Tb2 3.123674 1_555
Ge7 Tb3 3.123674 1_555
Ge7 Tb1 3.304075 1_555
Ge7 Tb0 3.304075 1_554
Ge8 Rh2 2.520650 1_555
Ge8 Rh3 2.520650 1_556
Ge8 Rh4 2.710826 1_645
Ge8 Tb1 3.201498 1_555
Ge8 Tb0 3.201498 1_555
Ge8 Tb3 3.322789 1_546
Ge8 Tb2 3.322789 1_655
Ge9 Rh0 2.520650 1_555
Ge9 Rh1 2.520650 1_554
Ge9 Rh5 2.710826 1_465
Ge9 Tb2 3.201498 1_555
Ge9 Tb3 3.201498 1_555
Ge9 Tb0 3.322789 1_455
Ge9 Tb1 3.322789 1_564
