# generated using pymatgen
data_Zr(TiGa2)2
_symmetry_space_group_name_H-M   'P 1'
_cell_length_a   5.35617071
_cell_length_b   5.35617071
_cell_length_c   5.35617071
_cell_angle_alpha   104.96219468
_cell_angle_beta   104.96219468
_cell_angle_gamma   118.92319196
_symmetry_Int_Tables_number   1
_chemical_formula_structural   Zr(TiGa2)2
_chemical_formula_sum   'Zr1 Ti2 Ga4'
_cell_volume   115.83864861
_cell_formula_units_Z   1
loop_
 _symmetry_equiv_pos_site_id
 _symmetry_equiv_pos_as_xyz
  1  'x, y, z'
loop_
 _atom_site_type_symbol
 _atom_site_label
 _atom_site_symmetry_multiplicity
 _atom_site_fract_x
 _atom_site_fract_y
 _atom_site_fract_z
 _atom_site_occupancy
  Zr  Zr0  1  -0.00000000  0.00000000  -0.00000000  1
  Ti  Ti0  1  0.75000000  0.25000000  0.50000000  1
  Ti  Ti1  1  0.25000000  0.75000000  0.50000000  1
  Ga  Ga0  1  0.69530392  0.69530392  0.39060783  1
  Ga  Ga1  1  0.30469608  0.30469608  0.60939217  1
  Ga  Ga2  1  0.30469608  0.69530392  -0.00000000  1
  Ga  Ga3  1  0.69530392  0.30469608  0.00000000  1
loop_
_geom_bond_atom_site_label_1
_geom_bond_atom_site_label_2
_geom_bond_distance
_geom_bond_site_symmetry_2
Ti0 Ti1 2.721555 1_545
Ti0 Ti1 2.721555 1_655
Ga0 Ga2 2.548350 1_555
Ga0 Ga3 2.548350 1_555
Ga0 Ti1 2.725218 1_655
Ga0 Ti0 2.725218 1_565
Ga0 Ti0 2.725218 1_555
Ga0 Ti1 2.725218 1_555
Ga0 Zr0 2.811254 1_666
Ga0 Ga1 2.902679 1_665
Ga0 Ga1 2.902679 1_555
Ga0 Zr0 3.264032 1_665
Ga0 Zr0 3.264032 1_555
Ga1 Ga2 2.548350 1_556
Ga1 Ga3 2.548350 1_556
Ga1 Ti1 2.725218 1_545
Ga1 Ti0 2.725218 1_455
Ga1 Ti0 2.725218 1_555
Ga1 Ti1 2.725218 1_555
Ga1 Zr0 2.811254 1_555
Ga1 Zr0 3.264032 1_556
Ga1 Zr0 3.264032 1_666
Ga2 Ti1 2.725218 1_554
Ga2 Ti0 2.725218 1_454
Ga2 Ti1 2.725218 1_555
Ga2 Ti0 2.725218 1_565
Ga2 Zr0 2.811254 1_565
Ga2 Ga3 2.902679 1_455
Ga2 Ga3 2.902679 1_565
Ga2 Zr0 3.264032 1_665
Ga2 Zr0 3.264032 1_555
Ga3 Ti0 2.725218 1_555
Ga3 Ti1 2.725218 1_544
Ga3 Ti0 2.725218 1_554
Ga3 Ti1 2.725218 1_655
Ga3 Zr0 2.811254 1_655
Ga3 Zr0 3.264032 1_665
Ga3 Zr0 3.264032 1_555
