# generated using pymatgen
data_La14Ag51
_symmetry_space_group_name_H-M   'P 1'
_cell_length_a   9.59012599
_cell_length_b   13.16734041
_cell_length_c   13.16703961
_cell_angle_alpha   119.99870883
_cell_angle_beta   90.00000000
_cell_angle_gamma   90.00000000
_symmetry_Int_Tables_number   1
_chemical_formula_structural   La14Ag51
_chemical_formula_sum   'La14 Ag51'
_cell_volume   1439.94797029
_cell_formula_units_Z   1
loop_
 _symmetry_equiv_pos_site_id
 _symmetry_equiv_pos_as_xyz
  1  'x, y, z'
loop_
 _atom_site_type_symbol
 _atom_site_label
 _atom_site_symmetry_multiplicity
 _atom_site_fract_x
 _atom_site_fract_y
 _atom_site_fract_z
 _atom_site_occupancy
  La  La0  1  0.50000000  0.67136576  0.53239461  1
  La  La1  1  0.50000000  0.46757340  0.13902440  1
  La  La2  1  0.50000000  0.86102347  0.32861441  1
  La  La3  1  0.50000000  0.32781923  0.46804843  1
  La  La4  1  0.50000000  0.53190136  0.85972589  1
  La  La5  1  0.50000000  0.14025114  0.67218619  1
  La  La6  1  0.00000000  0.27193153  0.88834573  1
  La  La7  1  0.00000000  0.11166414  0.38359760  1
  La  La8  1  0.00000000  0.61641384  0.72810727  1
  La  La9  1  0.00000000  0.71768572  0.11752837  1
  La  La10  1  0.00000000  0.88247425  0.60004223  1
  La  La11  1  0.00000000  0.39975175  0.28228042  1
  La  La12  1  0.29787309  0.00004755  0.00002870  1
  La  La13  1  0.70212691  0.00004755  0.00002870  1
  Ag  Ag0  1  0.15503162  0.62150449  0.50506564  1
  Ag  Ag1  1  0.15503971  0.49493259  0.11644130  1
  Ag  Ag2  1  0.15503655  0.88354816  0.37848786  1
  Ag  Ag3  1  0.15418429  0.37949319  0.49702905  1
  Ag  Ag4  1  0.15419033  0.50298054  0.88246417  1
  Ag  Ag5  1  0.15417670  0.11755114  0.62051184  1
  Ag  Ag6  1  0.84581571  0.37949319  0.49702905  1
  Ag  Ag7  1  0.84580967  0.50298054  0.88246417  1
  Ag  Ag8  1  0.84582330  0.11755114  0.62051184  1
  Ag  Ag9  1  0.84496838  0.62150449  0.50506564  1
  Ag  Ag10  1  0.84496029  0.49493259  0.11644130  1
  Ag  Ag11  1  0.84496345  0.88354816  0.37848786  1
  Ag  Ag12  1  0.50000000  0.17895162  0.93914386  1
  Ag  Ag13  1  0.50000000  0.06084123  0.23980367  1
  Ag  Ag14  1  0.50000000  0.76021493  0.82106213  1
  Ag  Ag15  1  0.50000000  0.82073104  0.06103133  1
  Ag  Ag16  1  0.50000000  0.93897242  0.75969493  1
  Ag  Ag17  1  0.50000000  0.24029880  0.17926256  1
  Ag  Ag18  1  0.00000000  0.66663395  0.33332172  1
  Ag  Ag19  1  0.00000000  0.33335859  0.66666915  1
  Ag  Ag20  1  0.32771699  0.33088442  0.89314062  1
  Ag  Ag21  1  0.32770445  0.10686515  0.43773791  1
  Ag  Ag22  1  0.32770750  0.56226617  0.66912826  1
  Ag  Ag23  1  0.32936057  0.66826529  0.10716891  1
  Ag  Ag24  1  0.32936622  0.89281852  0.56109686  1
  Ag  Ag25  1  0.32935058  0.43889604  0.33172280  1
  Ag  Ag26  1  0.67063943  0.66826529  0.10716891  1
  Ag  Ag27  1  0.67063378  0.89281852  0.56109686  1
  Ag  Ag28  1  0.67064942  0.43889604  0.33172280  1
  Ag  Ag29  1  0.67228301  0.33088442  0.89314062  1
  Ag  Ag30  1  0.67229555  0.10686515  0.43773791  1
  Ag  Ag31  1  0.67229250  0.56226617  0.66912826  1
  Ag  Ag32  1  0.23962315  0.07407747  0.80434789  1
  Ag  Ag33  1  0.23963345  0.19565297  0.26972692  1
  Ag  Ag34  1  0.23962774  0.73028309  0.92594052  1
  Ag  Ag35  1  0.23629331  0.92493445  0.19293817  1
  Ag  Ag36  1  0.23630455  0.80707045  0.73200983  1
  Ag  Ag37  1  0.23630591  0.26799637  0.07506197  1
  Ag  Ag38  1  0.76370669  0.92493445  0.19293817  1
  Ag  Ag39  1  0.76369545  0.80707045  0.73200983  1
  Ag  Ag40  1  0.76369409  0.26799637  0.07506197  1
  Ag  Ag41  1  0.76037685  0.07407747  0.80434789  1
  Ag  Ag42  1  0.76036655  0.19565297  0.26972692  1
  Ag  Ag43  1  0.76037226  0.73028309  0.92594052  1
  Ag  Ag44  1  0.29128015  0.66667587  0.33334130  1
  Ag  Ag45  1  0.29151476  0.33333230  0.66666599  1
  Ag  Ag46  1  0.70848524  0.33333230  0.66666599  1
  Ag  Ag47  1  0.70871985  0.66667587  0.33334130  1
  Ag  Ag48  1  0.00000000  0.98099787  0.86599479  1
  Ag  Ag49  1  0.00000000  0.13398907  0.11499361  1
  Ag  Ag50  1  0.00000000  0.88500247  0.01901370  1
loop_
_geom_bond_atom_site_label_1
_geom_bond_atom_site_label_2
_geom_bond_distance
_geom_bond_site_symmetry_2
Ag0 Ag36 2.864596 1_555
Ag0 Ag25 2.880593 1_555
Ag0 Ag44 2.918644 1_555
Ag0 Ag9 2.973546 1_455
Ag0 Ag18 3.003511 1_555
Ag0 Ag22 3.114831 1_555
Ag0 Ag3 3.135088 1_555
Ag0 La11 3.282726 1_555
Ag0 La8 3.322140 1_555
Ag0 La0 3.356944 1_555
Ag0 La10 3.359359 1_555
Ag1 Ag37 2.864482 1_555
Ag1 Ag23 2.880513 1_555
Ag1 Ag44 2.918772 1_555
Ag1 Ag10 2.973701 1_455
Ag1 Ag18 3.003505 1_555
Ag1 Ag20 3.114845 1_554
Ag1 Ag4 3.135123 1_554
Ag1 La9 3.282046 1_555
Ag1 La6 3.321802 1_554
Ag1 La1 3.357020 1_555
Ag1 La11 3.359487 1_555
Ag2 Ag35 2.864347 1_555
Ag2 Ag24 2.880575 1_555
Ag2 Ag44 2.918515 1_555
Ag2 Ag21 3.114999 1_565
Ag2 Ag5 3.135373 1_565
Ag2 La10 3.280583 1_555
Ag2 La7 3.321924 1_565
Ag2 La2 3.356920 1_555
Ag2 La9 3.359006 1_555
Ag3 Ag33 2.871254 1_555
Ag3 Ag45 2.906990 1_555
Ag3 Ag6 2.957294 1_455
Ag3 La11 3.317700 1_555
Ag3 La3 3.368613 1_555
Ag3 La7 3.403972 1_555
Ag3 La8 3.418258 1_555
Ag4 Ag45 2.907066 1_555
Ag4 Ag7 2.957409 1_455
Ag4 La9 3.317963 1_556
Ag4 La4 3.368515 1_555
Ag4 La8 3.403489 1_555
Ag4 La6 3.418151 1_555
Ag5 Ag8 2.957148 1_455
Ag5 La10 3.317484 1_545
Ag5 La5 3.368682 1_555
Ag5 La6 3.403918 1_555
Ag5 La7 3.417809 1_555
Ag6 Ag9 3.135088 1_555
Ag6 La11 3.317700 1_655
Ag6 La3 3.368613 1_555
Ag6 La7 3.403972 1_655
Ag6 La8 3.418258 1_655
Ag7 La9 3.317963 1_656
Ag7 La4 3.368515 1_555
Ag7 La8 3.403489 1_655
Ag7 La6 3.418151 1_655
Ag8 La10 3.317484 1_645
Ag8 La5 3.368682 1_555
Ag8 La6 3.403918 1_655
Ag8 La7 3.417809 1_655
Ag9 La11 3.282726 1_655
Ag9 La8 3.322140 1_655
Ag9 La0 3.356944 1_555
Ag9 La10 3.359359 1_655
Ag10 Ag40 2.864482 1_555
Ag10 Ag26 2.880513 1_555
Ag10 Ag47 2.918772 1_555
Ag10 Ag18 3.003505 1_655
Ag10 Ag29 3.114845 1_554
Ag10 Ag7 3.135123 1_554
Ag10 La9 3.282046 1_655
Ag10 La6 3.321802 1_654
Ag10 La1 3.357020 1_555
Ag10 La11 3.359487 1_655
Ag11 Ag38 2.864347 1_555
Ag11 Ag27 2.880575 1_555
Ag11 Ag47 2.918515 1_555
Ag11 Ag2 2.973640 1_655
Ag11 Ag18 3.003926 1_655
Ag11 Ag30 3.114999 1_565
Ag11 Ag8 3.135373 1_565
Ag11 La10 3.280583 1_655
Ag11 La7 3.321924 1_665
Ag11 La2 3.356920 1_555
Ag11 La9 3.359006 1_655
Ag12 Ag17 2.845125 1_556
Ag12 Ag16 2.846373 1_545
Ag12 Ag20 2.882822 1_555
Ag12 Ag29 2.882822 1_555
Ag12 Ag41 2.973461 1_555
Ag12 Ag32 2.973461 1_555
Ag12 Ag40 2.978996 1_556
Ag12 Ag37 2.978996 1_556
Ag12 La5 3.289994 1_555
Ag12 La1 3.371627 1_556
Ag12 La12 3.440619 1_556
Ag12 La13 3.440619 1_556
Ag13 Ag15 2.845139 1_545
Ag13 Ag17 2.846521 1_555
Ag13 Ag21 2.882786 1_555
Ag13 Ag30 2.882786 1_555
Ag13 Ag42 2.973490 1_555
Ag13 Ag33 2.973490 1_555
Ag13 Ag38 2.979045 1_545
Ag13 Ag35 2.979045 1_545
Ag13 La3 3.290202 1_555
Ag13 La2 3.371430 1_545
Ag13 La12 3.440721 1_555
Ag13 La13 3.440721 1_555
Ag14 Ag16 2.845156 1_555
Ag14 Ag15 2.846208 1_556
Ag14 Ag22 2.883011 1_555
Ag14 Ag31 2.883011 1_555
Ag14 Ag34 2.973480 1_555
Ag14 Ag43 2.973480 1_555
Ag14 Ag36 2.978946 1_555
Ag14 Ag39 2.978946 1_555
Ag14 La4 3.290487 1_555
Ag14 La0 3.371791 1_555
Ag14 La12 3.441188 1_566
Ag14 La13 3.441188 1_566
Ag15 Ag23 2.880435 1_555
Ag15 Ag26 2.880435 1_555
Ag15 Ag43 2.949409 1_554
Ag15 Ag34 2.949409 1_554
Ag15 Ag38 2.985286 1_555
Ag15 Ag35 2.985286 1_555
Ag15 La2 3.290255 1_555
Ag15 La4 3.377756 1_554
Ag15 La12 3.445864 1_565
Ag15 La13 3.445864 1_565
Ag16 Ag27 2.880275 1_555
Ag16 Ag24 2.880275 1_555
Ag16 Ag41 2.949538 1_565
Ag16 Ag32 2.949538 1_565
Ag16 Ag36 2.985206 1_555
Ag16 Ag39 2.985206 1_555
Ag16 La0 3.290599 1_555
Ag16 La5 3.377188 1_565
Ag16 La12 3.445781 1_566
Ag16 La13 3.445781 1_566
Ag17 Ag25 2.880467 1_555
Ag17 Ag28 2.880467 1_555
Ag17 Ag42 2.949471 1_555
Ag17 Ag33 2.949471 1_555
Ag17 Ag37 2.985116 1_555
Ag17 Ag40 2.985116 1_555
Ag17 La1 3.289657 1_555
Ag17 La3 3.377113 1_555
Ag17 La12 3.445155 1_555
Ag17 La13 3.445155 1_555
Ag18 Ag47 2.793413 1_455
Ag18 Ag44 2.793413 1_555
Ag18 Ag9 3.003511 1_455
Ag18 Ag2 3.003926 1_555
Ag18 La10 3.229574 1_555
Ag18 La9 3.230345 1_555
Ag18 La11 3.230967 1_555
Ag19 Ag45 2.795663 1_555
Ag19 Ag46 2.795663 1_455
Ag19 Ag6 2.983533 1_455
Ag19 Ag3 2.983533 1_555
Ag19 Ag7 2.983708 1_455
Ag19 Ag4 2.983708 1_555
Ag19 Ag5 2.983850 1_555
Ag19 Ag8 2.983850 1_455
Ag19 La8 3.395679 1_555
Ag19 La7 3.396121 1_555
Ag19 La6 3.396246 1_555
Ag20 Ag4 2.871001 1_555
Ag20 Ag45 3.018280 1_555
Ag20 Ag37 3.029097 1_556
Ag20 Ag32 3.092197 1_555
Ag20 La5 3.192525 1_555
Ag20 La6 3.230331 1_555
Ag20 La1 3.259475 1_556
Ag20 Ag29 3.304432 1_555
Ag20 La4 3.330729 1_555
Ag21 Ag5 2.870937 1_555
Ag21 Ag45 3.018347 1_555
Ag21 Ag35 3.029108 1_545
Ag21 Ag33 3.091960 1_555
Ag21 La3 3.192630 1_555
Ag21 La7 3.230163 1_555
Ag21 La2 3.259208 1_545
Ag21 Ag30 3.304672 1_555
Ag21 La5 3.331061 1_555
Ag22 Ag3 2.871021 1_555
Ag22 Ag45 3.018395 1_555
Ag22 Ag36 3.029119 1_555
Ag22 Ag34 3.092178 1_555
Ag22 La4 3.192407 1_555
Ag22 La8 3.230274 1_555
Ag22 La0 3.259047 1_555
Ag22 Ag31 3.304614 1_555
Ag22 La3 3.331195 1_555
Ag23 Ag34 3.008338 1_554
Ag23 Ag44 3.010770 1_555
Ag23 Ag35 3.110858 1_555
Ag23 Ag4 3.142224 1_554
Ag23 La2 3.197106 1_555
Ag23 La9 3.214050 1_555
Ag23 La4 3.266084 1_554
Ag23 Ag26 3.272907 1_555
Ag23 La1 3.308398 1_555
Ag24 Ag32 3.008577 1_565
Ag24 Ag44 3.010635 1_555
Ag24 Ag36 3.110705 1_555
Ag24 Ag5 3.142656 1_565
Ag24 La0 3.197092 1_555
Ag24 La10 3.213800 1_555
Ag24 La5 3.265993 1_565
Ag24 Ag27 3.272799 1_555
Ag24 La2 3.307861 1_555
Ag25 Ag33 3.008417 1_555
Ag25 Ag44 3.010875 1_555
Ag25 Ag37 3.110679 1_555
Ag25 Ag3 3.142249 1_555
Ag25 La1 3.196350 1_555
Ag25 La11 3.214055 1_555
Ag25 La3 3.265692 1_555
Ag25 Ag28 3.273099 1_555
Ag25 La0 3.307858 1_555
Ag26 Ag43 3.008338 1_554
Ag26 Ag47 3.010770 1_555
Ag26 Ag38 3.110858 1_555
Ag26 Ag7 3.142224 1_554
Ag26 La2 3.197106 1_555
Ag26 La9 3.214050 1_655
Ag26 La4 3.266084 1_554
Ag26 La1 3.308398 1_555
Ag27 Ag41 3.008577 1_565
Ag27 Ag47 3.010635 1_555
Ag27 Ag39 3.110705 1_555
Ag27 Ag8 3.142656 1_565
Ag27 La0 3.197092 1_555
Ag27 La10 3.213800 1_655
Ag27 La5 3.265993 1_565
Ag27 La2 3.307861 1_555
Ag28 Ag9 2.880593 1_555
Ag28 Ag42 3.008417 1_555
Ag28 Ag47 3.010875 1_555
Ag28 Ag40 3.110679 1_555
Ag28 Ag6 3.142249 1_555
Ag28 La1 3.196350 1_555
Ag28 La11 3.214055 1_655
Ag28 La3 3.265692 1_555
Ag28 La0 3.307858 1_555
Ag29 Ag7 2.871001 1_555
Ag29 Ag46 3.018280 1_555
Ag29 Ag40 3.029097 1_556
Ag29 Ag41 3.092197 1_555
Ag29 La5 3.192525 1_555
Ag29 La6 3.230331 1_655
Ag29 La1 3.259475 1_556
Ag29 La4 3.330729 1_555
Ag30 Ag8 2.870937 1_555
Ag30 Ag46 3.018347 1_555
Ag30 Ag38 3.029108 1_545
Ag30 Ag42 3.091960 1_555
Ag30 La3 3.192630 1_555
Ag30 La7 3.230163 1_655
Ag30 La2 3.259208 1_545
Ag30 La5 3.331061 1_555
Ag31 Ag6 2.871021 1_555
Ag31 Ag46 3.018395 1_555
Ag31 Ag39 3.029119 1_555
Ag31 Ag43 3.092178 1_555
Ag31 Ag9 3.114831 1_555
Ag31 La4 3.192407 1_555
Ag31 La8 3.230274 1_655
Ag31 La0 3.259047 1_555
Ag31 La3 3.331195 1_555
Ag32 Ag5 2.871222 1_555
Ag32 Ag48 2.904594 1_545
Ag32 Ag36 3.149653 1_545
Ag32 Ag37 3.182027 1_556
Ag32 La6 3.226452 1_555
Ag32 La12 3.226801 1_556
Ag32 La5 3.396895 1_555
Ag32 La10 3.477926 1_545
Ag33 Ag49 2.904707 1_555
Ag33 Ag37 3.149555 1_555
Ag33 Ag35 3.182136 1_545
Ag33 La12 3.226492 1_555
Ag33 La7 3.226524 1_555
Ag33 La3 3.396766 1_555
Ag33 La11 3.476605 1_555
Ag34 Ag4 2.871175 1_555
Ag34 Ag50 2.904608 1_556
Ag34 Ag35 3.149481 1_556
Ag34 Ag36 3.182033 1_555
Ag34 La8 3.226306 1_555
Ag34 La12 3.227373 1_566
Ag34 La4 3.397234 1_555
Ag34 La9 3.477176 1_556
Ag35 Ag50 3.074402 1_555
Ag35 La12 3.207944 1_565
Ag35 La9 3.295224 1_555
Ag35 La7 3.363108 1_565
Ag35 La2 3.434917 1_555
Ag36 Ag48 3.074524 1_555
Ag36 La12 3.208173 1_566
Ag36 La10 3.296346 1_555
Ag36 La8 3.363269 1_555
Ag36 La0 3.435107 1_555
Ag37 Ag49 3.074633 1_555
Ag37 La12 3.207354 1_555
Ag37 La11 3.294933 1_555
Ag37 La6 3.363030 1_554
Ag37 La1 3.434699 1_555
Ag38 Ag50 3.074402 1_655
Ag38 Ag43 3.149481 1_554
Ag38 Ag42 3.182136 1_565
Ag38 La13 3.207944 1_565
Ag38 La9 3.295224 1_655
Ag38 La7 3.363108 1_665
Ag38 La2 3.434917 1_555
Ag39 Ag9 2.864596 1_555
Ag39 Ag48 3.074524 1_655
Ag39 Ag41 3.149653 1_565
Ag39 Ag43 3.182033 1_555
Ag39 La13 3.208173 1_566
Ag39 La10 3.296346 1_655
Ag39 La8 3.363269 1_655
Ag39 La0 3.435107 1_555
Ag40 Ag49 3.074633 1_655
Ag40 Ag42 3.149555 1_555
Ag40 Ag41 3.182027 1_554
Ag40 La13 3.207354 1_555
Ag40 La11 3.294933 1_655
Ag40 La6 3.363030 1_654
Ag40 La1 3.434699 1_555
Ag41 Ag8 2.871222 1_555
Ag41 Ag48 2.904594 1_645
Ag41 La6 3.226452 1_655
Ag41 La13 3.226801 1_556
Ag41 La5 3.396895 1_555
Ag41 La10 3.477926 1_645
Ag42 Ag6 2.871254 1_555
Ag42 Ag49 2.904707 1_655
Ag42 La13 3.226492 1_555
Ag42 La7 3.226524 1_655
Ag42 La3 3.396766 1_555
Ag42 La11 3.476605 1_655
Ag43 Ag7 2.871175 1_555
Ag43 Ag50 2.904608 1_656
Ag43 La8 3.226306 1_655
Ag43 La13 3.227373 1_566
Ag43 La4 3.397234 1_555
Ag43 La9 3.477176 1_656
Ag44 La0 3.273822 1_555
Ag44 La2 3.273902 1_555
Ag44 La1 3.273918 1_555
Ag45 Ag5 2.906925 1_555
Ag45 La4 3.263370 1_555
Ag45 La5 3.263631 1_555
Ag45 La3 3.263791 1_555
Ag46 Ag8 2.906925 1_555
Ag46 Ag6 2.906990 1_555
Ag46 Ag7 2.907066 1_555
Ag46 La4 3.263370 1_555
Ag46 La5 3.263631 1_555
Ag46 La3 3.263791 1_555
Ag47 Ag9 2.918644 1_555
Ag47 La0 3.273822 1_555
Ag47 La2 3.273902 1_555
Ag47 La1 3.273918 1_555
Ag48 Ag49 2.864059 1_566
Ag48 Ag50 2.864223 1_556
Ag48 La10 3.066420 1_555
Ag48 La13 3.300799 1_466
Ag48 La12 3.300799 1_566
Ag48 La6 3.692487 1_565
Ag49 Ag50 2.864004 1_545
Ag49 La11 3.064274 1_555
Ag49 La13 3.300406 1_455
Ag49 La12 3.300406 1_555
Ag49 La7 3.692480 1_555
Ag50 La9 3.064958 1_555
Ag50 La13 3.300951 1_465
Ag50 La12 3.300951 1_565
Ag50 La8 3.692335 1_554
