# generated using pymatgen
data_Ba9In4(SF)10
_symmetry_space_group_name_H-M   'P 1'
_cell_length_a   12.67724781
_cell_length_b   12.68417931
_cell_length_c   19.56612436
_cell_angle_alpha   90.00000000
_cell_angle_beta   90.00000000
_cell_angle_gamma   90.00000000
_symmetry_Int_Tables_number   1
_chemical_formula_structural   Ba9In4(SF)10
_chemical_formula_sum   'Ba36 In16 S40 F40'
_cell_volume   3146.24227451
_cell_formula_units_Z   4
loop_
 _symmetry_equiv_pos_site_id
 _symmetry_equiv_pos_as_xyz
  1  'x, y, z'
loop_
 _atom_site_type_symbol
 _atom_site_label
 _atom_site_symmetry_multiplicity
 _atom_site_fract_x
 _atom_site_fract_y
 _atom_site_fract_z
 _atom_site_occupancy
  Ba  Ba0  1  0.13078187  0.75657333  0.42423892  1
  Ba  Ba1  1  0.63078187  0.74342667  0.07576108  1
  Ba  Ba2  1  0.86921813  0.24342667  0.92423892  1
  Ba  Ba3  1  0.36921813  0.25657333  0.57576108  1
  Ba  Ba4  1  0.86921813  0.24342667  0.57576108  1
  Ba  Ba5  1  0.36921813  0.25657333  0.92423892  1
  Ba  Ba6  1  0.13078187  0.75657333  0.07576108  1
  Ba  Ba7  1  0.63078187  0.74342667  0.42423892  1
  Ba  Ba8  1  0.37841665  0.50295782  0.42293367  1
  Ba  Ba9  1  0.87841665  0.99704218  0.07706633  1
  Ba  Ba10  1  0.62158335  0.49704218  0.92293367  1
  Ba  Ba11  1  0.12158335  0.00295782  0.57706633  1
  Ba  Ba12  1  0.62158335  0.49704218  0.57706633  1
  Ba  Ba13  1  0.12158335  0.00295782  0.92293367  1
  Ba  Ba14  1  0.37841665  0.50295782  0.07706633  1
  Ba  Ba15  1  0.87841665  0.99704218  0.42293367  1
  Ba  Ba16  1  0.38105499  0.74981361  0.57572199  1
  Ba  Ba17  1  0.88105499  0.75018639  0.92427801  1
  Ba  Ba18  1  0.61894501  0.25018639  0.07572199  1
  Ba  Ba19  1  0.11894501  0.24981361  0.42427801  1
  Ba  Ba20  1  0.61894501  0.25018639  0.42427801  1
  Ba  Ba21  1  0.11894501  0.24981361  0.07572199  1
  Ba  Ba22  1  0.38105499  0.74981361  0.92427801  1
  Ba  Ba23  1  0.88105499  0.75018639  0.57572199  1
  Ba  Ba24  1  0.87145790  0.49375068  0.42415062  1
  Ba  Ba25  1  0.37145790  0.00624932  0.07584938  1
  Ba  Ba26  1  0.12854210  0.50624932  0.92415062  1
  Ba  Ba27  1  0.62854210  0.99375068  0.57584938  1
  Ba  Ba28  1  0.12854210  0.50624932  0.57584938  1
  Ba  Ba29  1  0.62854210  0.99375068  0.92415062  1
  Ba  Ba30  1  0.87145790  0.49375068  0.07584938  1
  Ba  Ba31  1  0.37145790  0.00624932  0.42415062  1
  Ba  Ba32  1  0.62394874  0.49729498  0.25000000  1
  Ba  Ba33  1  0.12394874  0.00270502  0.25000000  1
  Ba  Ba34  1  0.37605126  0.50270502  0.75000000  1
  Ba  Ba35  1  0.87605126  0.99729498  0.75000000  1
  In  In0  1  0.32523363  0.69800813  0.25000000  1
  In  In1  1  0.82523363  0.80199187  0.25000000  1
  In  In2  1  0.67476637  0.30199187  0.75000000  1
  In  In3  1  0.17476637  0.19800813  0.75000000  1
  In  In4  1  0.41915848  0.20573696  0.25000000  1
  In  In5  1  0.91915848  0.29426304  0.25000000  1
  In  In6  1  0.58084152  0.79426304  0.75000000  1
  In  In7  1  0.08084152  0.70573696  0.75000000  1
  In  In8  1  0.20418428  0.41805154  0.25000000  1
  In  In9  1  0.70418428  0.08194846  0.25000000  1
  In  In10  1  0.79581572  0.58194846  0.75000000  1
  In  In11  1  0.29581572  0.91805154  0.75000000  1
  In  In12  1  0.02030768  0.60390850  0.25000000  1
  In  In13  1  0.52030768  0.89609150  0.25000000  1
  In  In14  1  0.97969232  0.39609150  0.75000000  1
  In  In15  1  0.47969232  0.10390850  0.75000000  1
  S  S0  1  0.13819737  0.75986161  0.25000000  1
  S  S1  1  0.63819737  0.74013839  0.25000000  1
  S  S2  1  0.86180263  0.24013839  0.75000000  1
  S  S3  1  0.36180263  0.25986161  0.75000000  1
  S  S4  1  0.39395351  0.76681128  0.35759064  1
  S  S5  1  0.89395351  0.73318872  0.14240936  1
  S  S6  1  0.60604649  0.23318872  0.85759064  1
  S  S7  1  0.10604649  0.26681128  0.64240936  1
  S  S8  1  0.60604649  0.23318872  0.64240936  1
  S  S9  1  0.10604649  0.26681128  0.85759064  1
  S  S10  1  0.39395351  0.76681128  0.14240936  1
  S  S11  1  0.89395351  0.73318872  0.35759064  1
  S  S12  1  0.11969569  0.50695220  0.35244377  1
  S  S13  1  0.61969569  0.99304780  0.14755623  1
  S  S14  1  0.88030431  0.49304780  0.85244377  1
  S  S15  1  0.38030431  0.00695220  0.64755623  1
  S  S16  1  0.88030431  0.49304780  0.64755623  1
  S  S17  1  0.38030431  0.00695220  0.85244377  1
  S  S18  1  0.11969569  0.50695220  0.14755623  1
  S  S19  1  0.61969569  0.99304780  0.35244377  1
  S  S20  1  0.36275245  0.26131221  0.36316192  1
  S  S21  1  0.86275245  0.23868779  0.13683808  1
  S  S22  1  0.63724755  0.73868779  0.86316192  1
  S  S23  1  0.13724755  0.76131221  0.63683808  1
  S  S24  1  0.63724755  0.73868779  0.63683808  1
  S  S25  1  0.13724755  0.76131221  0.86316192  1
  S  S26  1  0.36275245  0.26131221  0.13683808  1
  S  S27  1  0.86275245  0.23868779  0.36316192  1
  S  S28  1  0.36512935  0.01384098  0.25000000  1
  S  S29  1  0.86512935  0.48615902  0.25000000  1
  S  S30  1  0.63487065  0.98615902  0.75000000  1
  S  S31  1  0.13487065  0.51384098  0.75000000  1
  S  S32  1  0.37796130  0.50671350  0.25000000  1
  S  S33  1  0.87796130  0.99328650  0.25000000  1
  S  S34  1  0.62203870  0.49328650  0.75000000  1
  S  S35  1  0.12203870  0.00671350  0.75000000  1
  S  S36  1  0.11426982  0.24634227  0.25000000  1
  S  S37  1  0.61426982  0.25365773  0.25000000  1
  S  S38  1  0.88573018  0.75365773  0.75000000  1
  S  S39  1  0.38573018  0.74634227  0.75000000  1
  F  F0  1  0.62354838  0.49971723  0.38068544  1
  F  F1  1  0.12354838  0.00028277  0.11931456  1
  F  F2  1  0.37645162  0.50028277  0.88068544  1
  F  F3  1  0.87645162  0.99971723  0.61931456  1
  F  F4  1  0.37645162  0.50028277  0.61931456  1
  F  F5  1  0.87645162  0.99971723  0.88068544  1
  F  F6  1  0.62354838  0.49971723  0.11931456  1
  F  F7  1  0.12354838  0.00028277  0.38068544  1
  F  F8  1  0.99714695  0.37573076  0.50161508  1
  F  F9  1  0.49714695  0.12426924  0.99838492  1
  F  F10  1  0.00285305  0.62426924  0.00161508  1
  F  F11  1  0.50285305  0.87573076  0.49838492  1
  F  F12  1  0.00285305  0.62426924  0.49838492  1
  F  F13  1  0.50285305  0.87573076  0.00161508  1
  F  F14  1  0.99714695  0.37573076  0.99838492  1
  F  F15  1  0.49714695  0.12426924  0.50161508  1
  F  F16  1  0.00301023  0.87651965  0.49952985  1
  F  F17  1  0.50301023  0.62348035  0.00047015  1
  F  F18  1  0.99698977  0.12348035  0.99952985  1
  F  F19  1  0.49698977  0.37651965  0.50047015  1
  F  F20  1  0.99698977  0.12348035  0.50047015  1
  F  F21  1  0.49698977  0.37651965  0.99952985  1
  F  F22  1  0.00301023  0.87651965  0.00047015  1
  F  F23  1  0.50301023  0.62348035  0.49952985  1
  F  F24  1  0.75347246  0.61947730  0.50200062  1
  F  F25  1  0.25347246  0.88052270  0.99799938  1
  F  F26  1  0.24652754  0.38052270  0.00200062  1
  F  F27  1  0.74652754  0.11947730  0.49799938  1
  F  F28  1  0.24652754  0.38052270  0.49799938  1
  F  F29  1  0.74652754  0.11947730  0.00200062  1
  F  F30  1  0.75347246  0.61947730  0.99799938  1
  F  F31  1  0.25347246  0.88052270  0.50200062  1
  F  F32  1  0.25455378  0.62868324  0.49748164  1
  F  F33  1  0.75455378  0.87131676  0.00251836  1
  F  F34  1  0.74544622  0.37131676  0.99748164  1
  F  F35  1  0.24544622  0.12868324  0.50251836  1
  F  F36  1  0.74544622  0.37131676  0.50251836  1
  F  F37  1  0.24544622  0.12868324  0.99748164  1
  F  F38  1  0.25455378  0.62868324  0.00251836  1
  F  F39  1  0.75455378  0.87131676  0.49748164  1
loop_
_geom_bond_atom_site_label_1
_geom_bond_atom_site_label_2
_geom_bond_distance
_geom_bond_site_symmetry_2
Ba0 F16 2.666201 1_555
Ba0 F32 2.673427 1_555
Ba0 F31 2.684390 1_555
Ba0 F12 2.747929 1_555
Ba0 F7 3.207875 1_565
Ba0 S11 3.286719 1_455
Ba0 S0 3.410731 1_555
Ba0 S12 3.466721 1_555
Ba0 S4 3.584446 1_555
Ba1 F17 2.666201 1_555
Ba1 F33 2.673427 1_555
Ba1 F30 2.684390 1_554
Ba1 F13 2.747929 1_555
Ba1 F6 3.207875 1_555
Ba1 S10 3.286719 1_555
Ba1 S1 3.410731 1_555
Ba1 S13 3.466721 1_555
Ba1 S5 3.584446 1_555
Ba2 F18 2.666201 1_555
Ba2 F34 2.673427 1_555
Ba2 F29 2.684390 1_556
Ba2 F14 2.747929 1_555
Ba2 F5 3.207875 1_545
Ba2 S9 3.286719 1_655
Ba2 S2 3.410731 1_555
Ba2 S14 3.466721 1_555
Ba2 S6 3.584446 1_555
Ba3 F19 2.666201 1_555
Ba3 F35 2.673427 1_555
Ba3 F28 2.684390 1_555
Ba3 F15 2.747929 1_555
Ba3 F4 3.207875 1_555
Ba3 S8 3.286719 1_555
Ba3 S3 3.410731 1_555
Ba3 S15 3.466721 1_555
Ba3 S7 3.584446 1_555
Ba4 F20 2.666201 1_555
Ba4 F36 2.673427 1_555
Ba4 F27 2.684390 1_555
Ba4 F8 2.747929 1_555
Ba4 F3 3.207875 1_545
Ba4 S7 3.286719 1_655
Ba4 S2 3.410731 1_555
Ba4 S16 3.466721 1_555
Ba4 S8 3.584446 1_555
Ba5 F21 2.666201 1_555
Ba5 F37 2.673427 1_555
Ba5 F26 2.684390 1_556
Ba5 F9 2.747929 1_555
Ba5 F2 3.207875 1_555
Ba5 S6 3.286719 1_555
Ba5 S3 3.410731 1_555
Ba5 S17 3.466721 1_555
Ba5 S9 3.584446 1_555
Ba6 F22 2.666201 1_555
Ba6 F38 2.673427 1_555
Ba6 F25 2.684390 1_554
Ba6 F10 2.747929 1_555
Ba6 F1 3.207875 1_565
Ba6 S5 3.286719 1_455
Ba6 S0 3.410731 1_555
Ba6 S18 3.466721 1_555
Ba6 S10 3.584446 1_555
Ba7 F23 2.666201 1_555
Ba7 F39 2.673427 1_555
Ba7 F24 2.684390 1_555
Ba7 F11 2.747929 1_555
Ba7 F0 3.207875 1_555
Ba7 S4 3.286719 1_555
Ba7 S1 3.410731 1_555
Ba7 S19 3.466721 1_555
Ba7 S11 3.584446 1_555
Ba8 F23 2.660436 1_555
Ba8 F19 2.670800 1_555
Ba8 F32 2.671396 1_555
Ba8 F28 2.713769 1_555
Ba8 F0 3.215924 1_555
Ba8 S20 3.286618 1_555
Ba8 S32 3.383982 1_555
Ba8 S12 3.558419 1_555
Ba8 S4 3.588066 1_555
Ba9 F22 2.660436 1_655
Ba9 F18 2.670800 1_564
Ba9 F33 2.671396 1_555
Ba9 F29 2.713769 1_565
Ba9 F1 3.215924 1_665
Ba9 S21 3.286618 1_565
Ba9 S33 3.383982 1_555
Ba9 S13 3.558419 1_555
Ba9 S5 3.588066 1_555
Ba10 F21 2.660436 1_555
Ba10 F17 2.670800 1_556
Ba10 F34 2.671396 1_555
Ba10 F30 2.713769 1_555
Ba10 F2 3.215924 1_555
Ba10 S22 3.286618 1_555
Ba10 S34 3.383982 1_555
Ba10 S14 3.558419 1_555
Ba10 S6 3.588066 1_555
Ba11 F20 2.660436 1_455
Ba11 F16 2.670800 1_545
Ba11 F35 2.671396 1_555
Ba11 F31 2.713769 1_545
Ba11 F3 3.215924 1_445
Ba11 S23 3.286618 1_545
Ba11 S35 3.383982 1_555
Ba11 S15 3.558419 1_555
Ba11 S7 3.588066 1_555
Ba12 F19 2.660436 1_555
Ba12 F23 2.670800 1_555
Ba12 F36 2.671396 1_555
Ba12 F24 2.713769 1_555
Ba12 F4 3.215924 1_555
Ba12 S24 3.286618 1_555
Ba12 S34 3.383982 1_555
Ba12 S16 3.558419 1_555
Ba12 S8 3.588066 1_555
Ba13 F18 2.660436 1_455
Ba13 F22 2.670800 1_546
Ba13 F37 2.671396 1_555
Ba13 F25 2.713769 1_545
Ba13 F5 3.215924 1_445
Ba13 S25 3.286618 1_545
Ba13 S35 3.383982 1_555
Ba13 S17 3.558419 1_555
Ba13 S9 3.588066 1_555
Ba14 F17 2.660436 1_555
Ba14 F21 2.670800 1_554
Ba14 F38 2.671396 1_555
Ba14 F26 2.713769 1_555
Ba14 F6 3.215924 1_555
Ba14 S26 3.286618 1_555
Ba14 S32 3.383982 1_555
Ba14 S18 3.558419 1_555
Ba14 S10 3.588066 1_555
Ba15 F16 2.660436 1_655
Ba15 F20 2.670800 1_565
Ba15 F39 2.671396 1_555
Ba15 F27 2.713769 1_565
Ba15 F7 3.215924 1_665
Ba15 S27 3.286618 1_565
Ba15 S33 3.383982 1_555
Ba15 S19 3.558419 1_555
Ba15 S11 3.588066 1_555
Ba16 F23 2.679650 1_555
Ba16 F11 2.687894 1_555
Ba16 F32 2.697405 1_555
Ba16 F31 2.728619 1_555
Ba16 F4 3.278525 1_555
Ba16 S23 3.317275 1_555
Ba16 S39 3.410744 1_555
Ba16 S24 3.463839 1_555
Ba16 S15 3.551556 1_565
Ba17 F22 2.679650 1_656
Ba17 F10 2.687894 1_656
Ba17 F33 2.697405 1_556
Ba17 F30 2.728619 1_555
Ba17 F5 3.278525 1_555
Ba17 S22 3.317275 1_555
Ba17 S38 3.410744 1_555
Ba17 S25 3.463839 1_655
Ba17 S14 3.551556 1_555
Ba18 F21 2.679650 1_554
Ba18 F9 2.687894 1_554
Ba18 F34 2.697405 1_554
Ba18 F29 2.728619 1_555
Ba18 F6 3.278525 1_555
Ba18 S21 3.317275 1_555
Ba18 S37 3.410744 1_555
Ba18 S26 3.463839 1_555
Ba18 S13 3.551556 1_545
Ba19 F20 2.679650 1_455
Ba19 F8 2.687894 1_455
Ba19 F35 2.697405 1_555
Ba19 F28 2.728619 1_555
Ba19 F7 3.278525 1_555
Ba19 S20 3.317275 1_555
Ba19 S36 3.410744 1_555
Ba19 S27 3.463839 1_455
Ba19 S12 3.551556 1_555
Ba20 F19 2.679650 1_555
Ba20 F15 2.687894 1_555
Ba20 F36 2.697405 1_555
Ba20 F27 2.728619 1_555
Ba20 F0 3.278525 1_555
Ba20 S27 3.317275 1_555
Ba20 S37 3.410744 1_555
Ba20 S20 3.463839 1_555
Ba20 S19 3.551556 1_545
Ba21 F18 2.679650 1_454
Ba21 F14 2.687894 1_454
Ba21 F37 2.697405 1_554
Ba21 F26 2.728619 1_555
Ba21 F1 3.278525 1_555
Ba21 S26 3.317275 1_555
Ba21 S36 3.410744 1_555
Ba21 S21 3.463839 1_455
Ba21 S18 3.551556 1_555
Ba22 F17 2.679650 1_556
Ba22 F13 2.687894 1_556
Ba22 F38 2.697405 1_556
Ba22 F25 2.728619 1_555
Ba22 F2 3.278525 1_555
Ba22 S25 3.317275 1_555
Ba22 S39 3.410744 1_555
Ba22 S22 3.463839 1_555
Ba22 S17 3.551556 1_565
Ba23 F16 2.679650 1_655
Ba23 F12 2.687894 1_655
Ba23 F39 2.697405 1_555
Ba23 F24 2.728619 1_555
Ba23 F3 3.278525 1_555
Ba23 S24 3.317275 1_555
Ba23 S38 3.410744 1_555
Ba23 S23 3.463839 1_655
Ba23 S16 3.551556 1_555
Ba24 F8 2.660291 1_555
Ba24 F24 2.664697 1_555
Ba24 F36 2.704597 1_555
Ba24 F12 2.761357 1_655
Ba24 F0 3.256723 1_555
Ba24 S11 3.316805 1_555
Ba24 S29 3.409757 1_555
Ba24 S12 3.449631 1_655
Ba24 S27 3.450087 1_555
Ba25 F9 2.660291 1_554
Ba25 F25 2.664697 1_544
Ba25 F37 2.704597 1_554
Ba25 F13 2.761357 1_545
Ba25 F1 3.256723 1_555
Ba25 S10 3.316805 1_545
Ba25 S28 3.409757 1_555
Ba25 S13 3.449631 1_545
Ba25 S26 3.450087 1_555
Ba26 F10 2.660291 1_556
Ba26 F26 2.664697 1_556
Ba26 F38 2.704597 1_556
Ba26 F14 2.761357 1_455
Ba26 F2 3.256723 1_555
Ba26 S9 3.316805 1_555
Ba26 S31 3.409757 1_555
Ba26 S14 3.449631 1_455
Ba26 S25 3.450087 1_555
Ba27 F11 2.660291 1_555
Ba27 F27 2.664697 1_565
Ba27 F39 2.704597 1_555
Ba27 F15 2.761357 1_565
Ba27 F3 3.256723 1_555
Ba27 S8 3.316805 1_565
Ba27 S30 3.409757 1_555
Ba27 S15 3.449631 1_565
Ba27 S24 3.450087 1_555
Ba28 F12 2.660291 1_555
Ba28 F28 2.664697 1_555
Ba28 F32 2.704597 1_555
Ba28 F8 2.761357 1_455
Ba28 F4 3.256723 1_555
Ba28 S7 3.316805 1_555
Ba28 S31 3.409757 1_555
Ba28 S16 3.449631 1_455
Ba28 S23 3.450087 1_555
Ba29 F13 2.660291 1_556
Ba29 F29 2.664697 1_566
Ba29 F33 2.704597 1_556
Ba29 F9 2.761357 1_565
Ba29 F5 3.256723 1_555
Ba29 S6 3.316805 1_565
Ba29 S30 3.409757 1_555
Ba29 S17 3.449631 1_565
Ba29 S22 3.450087 1_555
Ba30 F14 2.660291 1_554
Ba30 F30 2.664697 1_554
Ba30 F34 2.704597 1_554
Ba30 F10 2.761357 1_655
Ba30 F6 3.256723 1_555
Ba30 S5 3.316805 1_555
Ba30 S29 3.409757 1_555
Ba30 S18 3.449631 1_655
Ba30 S21 3.450087 1_555
Ba31 F15 2.660291 1_555
Ba31 F31 2.664697 1_545
Ba31 F35 2.704597 1_555
Ba31 F11 2.761357 1_545
Ba31 F7 3.256723 1_555
Ba31 S4 3.316805 1_545
Ba31 S28 3.409757 1_555
Ba31 S19 3.449631 1_545
Ba31 S20 3.450087 1_555
Ba32 F6 2.557197 1_555
Ba32 F0 2.557197 1_555
Ba32 S29 3.060767 1_555
Ba32 S1 3.085561 1_555
Ba32 S37 3.092774 1_555
Ba32 S32 3.120731 1_555
Ba33 F7 2.557197 1_555
Ba33 F1 2.557197 1_555
Ba33 S28 3.060767 1_555
Ba33 S0 3.085561 1_545
Ba33 S36 3.092774 1_555
Ba33 S33 3.120731 1_445
Ba34 F4 2.557197 1_555
Ba34 F2 2.557197 1_555
Ba34 S31 3.060767 1_555
Ba34 S3 3.085561 1_555
Ba34 S39 3.092774 1_555
Ba34 S34 3.120731 1_555
Ba35 F3 2.557197 1_555
Ba35 F5 2.557197 1_555
Ba35 S30 3.060767 1_555
Ba35 S2 3.085561 1_565
Ba35 S38 3.092774 1_555
Ba35 S35 3.120731 1_665
In0 S10 2.439705 1_555
In0 S4 2.439705 1_555
In0 S0 2.497534 1_555
In0 S32 2.516805 1_555
In1 S5 2.439705 1_555
In1 S11 2.439705 1_555
In1 S1 2.497534 1_555
In1 S33 2.516805 1_555
In2 S8 2.439705 1_555
In2 S6 2.439705 1_555
In2 S2 2.497534 1_555
In2 S34 2.516805 1_555
In3 S7 2.439705 1_555
In3 S9 2.439705 1_555
In3 S3 2.497534 1_555
In3 S35 2.516805 1_555
In4 S26 2.431187 1_555
In4 S20 2.431187 1_555
In4 S28 2.528578 1_555
In4 S37 2.547065 1_555
In5 S21 2.431187 1_555
In5 S27 2.431187 1_555
In5 S29 2.528578 1_555
In5 S36 2.547065 1_655
In6 S22 2.431187 1_555
In6 S24 2.431187 1_555
In6 S30 2.528578 1_555
In6 S39 2.547065 1_555
In7 S25 2.431187 1_555
In7 S23 2.431187 1_555
In7 S31 2.528578 1_555
In7 S38 2.547065 1_455
In8 S36 2.458240 1_555
In8 S32 2.473460 1_555
In8 S18 2.537026 1_555
In8 S12 2.537026 1_555
In9 S37 2.458240 1_555
In9 S33 2.473460 1_545
In9 S19 2.537026 1_545
In9 S13 2.537026 1_545
In10 S38 2.458240 1_555
In10 S34 2.473460 1_555
In10 S14 2.537026 1_555
In10 S16 2.537026 1_555
In11 S39 2.458240 1_555
In11 S35 2.473460 1_565
In11 S17 2.537026 1_565
In11 S15 2.537026 1_565
In12 S29 2.469963 1_455
In12 S0 2.479235 1_555
In12 S18 2.667898 1_555
In12 S12 2.667898 1_555
In12 S5 3.112299 1_455
In12 S11 3.112299 1_455
In13 S28 2.469963 1_565
In13 S1 2.479235 1_555
In13 S19 2.667898 1_555
In13 S13 2.667898 1_555
In13 S10 3.112299 1_555
In13 S4 3.112299 1_555
In14 S31 2.469963 1_655
In14 S2 2.479235 1_555
In14 S16 2.667898 1_555
In14 S14 2.667898 1_555
In14 S7 3.112299 1_655
In14 S9 3.112299 1_655
In15 S30 2.469963 1_545
In15 S3 2.479235 1_555
In15 S17 2.667898 1_555
In15 S15 2.667898 1_555
In15 S8 3.112299 1_555
In15 S6 3.112299 1_555
