# generated using pymatgen
data_BP4(SI)3
_symmetry_space_group_name_H-M   'P 1'
_cell_length_a   9.12876600
_cell_length_b   12.31238200
_cell_length_c   13.29316400
_cell_angle_alpha   90.00000000
_cell_angle_beta   90.00000000
_cell_angle_gamma   90.00000000
_symmetry_Int_Tables_number   1
_chemical_formula_structural   BP4(SI)3
_chemical_formula_sum   'B4 P16 S12 I12'
_cell_volume   1494.10981571
_cell_formula_units_Z   4
loop_
 _symmetry_equiv_pos_site_id
 _symmetry_equiv_pos_as_xyz
  1  'x, y, z'
loop_
 _atom_site_type_symbol
 _atom_site_label
 _atom_site_symmetry_multiplicity
 _atom_site_fract_x
 _atom_site_fract_y
 _atom_site_fract_z
 _atom_site_occupancy
  B  B0  1  0.46709200  0.75000000  0.13814300  1
  B  B1  1  0.03290800  0.75000000  0.63814300  1
  B  B2  1  0.53290800  0.25000000  0.86185700  1
  B  B3  1  0.96709200  0.25000000  0.36185700  1
  P  P0  1  0.67965200  0.75000000  0.11305100  1
  P  P1  1  0.82034800  0.75000000  0.61305100  1
  P  P2  1  0.32034800  0.25000000  0.88694900  1
  P  P3  1  0.17965200  0.25000000  0.38694900  1
  P  P4  1  0.01541900  0.75000000  0.17609700  1
  P  P5  1  0.48458100  0.75000000  0.67609700  1
  P  P6  1  0.98458100  0.25000000  0.82390300  1
  P  P7  1  0.51541900  0.25000000  0.32390300  1
  P  P8  1  0.98045400  0.65754800  0.02910600  1
  P  P9  1  0.51954600  0.84245200  0.52910600  1
  P  P10  1  0.01954600  0.15754800  0.97089400  1
  P  P11  1  0.48045400  0.34245200  0.47089400  1
  P  P12  1  0.01954600  0.34245200  0.97089400  1
  P  P13  1  0.48045400  0.15754800  0.47089400  1
  P  P14  1  0.98045400  0.84245200  0.02910600  1
  P  P15  1  0.51954600  0.65754800  0.52910600  1
  S  S0  1  0.80692800  0.75000000  0.24432500  1
  S  S1  1  0.69307200  0.75000000  0.74432500  1
  S  S2  1  0.19307200  0.25000000  0.75567500  1
  S  S3  1  0.30692800  0.25000000  0.25567500  1
  S  S4  1  0.75605500  0.61594500  0.03213900  1
  S  S5  1  0.74394500  0.88405500  0.53213900  1
  S  S6  1  0.24394500  0.11594500  0.96786100  1
  S  S7  1  0.25605500  0.38405500  0.46786100  1
  S  S8  1  0.24394500  0.38405500  0.96786100  1
  S  S9  1  0.25605500  0.11594500  0.46786100  1
  S  S10  1  0.75605500  0.88405500  0.03213900  1
  S  S11  1  0.74394500  0.61594500  0.53213900  1
  I  I0  1  0.36390700  0.75000000  0.98474600  1
  I  I1  1  0.13609300  0.75000000  0.48474600  1
  I  I2  1  0.63609300  0.25000000  0.01525400  1
  I  I3  1  0.86390700  0.25000000  0.51525400  1
  I  I4  1  0.42014200  0.59809700  0.22295400  1
  I  I5  1  0.07985800  0.90190300  0.72295400  1
  I  I6  1  0.57985800  0.09809700  0.77704600  1
  I  I7  1  0.92014200  0.40190300  0.27704600  1
  I  I8  1  0.57985800  0.40190300  0.77704600  1
  I  I9  1  0.92014200  0.09809700  0.27704600  1
  I  I10  1  0.42014200  0.90190300  0.22295400  1
  I  I11  1  0.07985800  0.59809700  0.72295400  1
loop_
_geom_bond_atom_site_label_1
_geom_bond_atom_site_label_2
_geom_bond_distance
_geom_bond_site_symmetry_2
B0 P0 1.968870 1_555
B0 I4 2.225470 1_555
B0 I10 2.225470 1_555
B0 I0 2.246181 1_554
B1 P1 1.968870 1_455
B1 I5 2.225470 1_555
B1 I11 2.225470 1_555
B1 I1 2.246181 1_555
B2 P2 1.968870 1_555
B2 I6 2.225470 1_555
B2 I8 2.225470 1_555
B2 I2 2.246181 1_556
B3 P3 1.968870 1_655
B3 I9 2.225470 1_555
B3 I7 2.225470 1_555
B3 I3 2.246181 1_555
P0 S4 2.089879 1_555
P0 S10 2.089879 1_555
P0 S0 2.096458 1_555
P1 S5 2.089879 1_555
P1 S11 2.089879 1_555
P1 S1 2.096458 1_555
P2 S6 2.089879 1_555
P2 S8 2.089879 1_555
P2 S2 2.096458 1_555
P3 S7 2.089879 1_555
P3 S9 2.089879 1_555
P3 S3 2.096458 1_555
P4 S0 2.108319 1_455
P5 S1 2.108319 1_555
P6 S2 2.108319 1_655
P7 S3 2.108319 1_555
P8 S4 2.111943 1_555
P9 S5 2.111943 1_555
P10 S6 2.111943 1_555
P11 S7 2.111943 1_555
P12 S8 2.111943 1_555
P13 S9 2.111943 1_555
P14 S10 2.111943 1_555
P15 S11 2.111943 1_555
