# generated using pymatgen
data_Tl3FeF6
_symmetry_space_group_name_H-M   'P 1'
_cell_length_a   6.38987714
_cell_length_b   6.38987643
_cell_length_c   6.38987643
_cell_angle_alpha   60.00000739
_cell_angle_beta   59.99999630
_cell_angle_gamma   59.99999630
_symmetry_Int_Tables_number   1
_chemical_formula_structural   Tl3FeF6
_chemical_formula_sum   'Tl3 Fe1 F6'
_cell_volume   184.48558167
_cell_formula_units_Z   1
loop_
 _symmetry_equiv_pos_site_id
 _symmetry_equiv_pos_as_xyz
  1  'x, y, z'
loop_
 _atom_site_type_symbol
 _atom_site_label
 _atom_site_symmetry_multiplicity
 _atom_site_fract_x
 _atom_site_fract_y
 _atom_site_fract_z
 _atom_site_occupancy
  Tl  Tl0  1  0.25000000  0.25000000  0.25000000  1
  Tl  Tl1  1  0.75000000  0.75000000  0.75000000  1
  Tl  Tl2  1  0.50000000  0.50000000  0.50000000  1
  Fe  Fe0  1  -0.00000000  -0.00000000  0.00000000  1
  F  F0  1  0.78604589  0.21395411  0.21395411  1
  F  F1  1  0.21395411  0.78604589  0.78604589  1
  F  F2  1  0.21395411  0.78604589  0.21395411  1
  F  F3  1  0.78604589  0.21395411  0.78604589  1
  F  F4  1  0.21395411  0.21395411  0.78604589  1
  F  F5  1  0.78604589  0.78604589  0.21395411  1
loop_
_geom_bond_atom_site_label_1
_geom_bond_atom_site_label_2
_geom_bond_distance
_geom_bond_site_symmetry_2
F0 Fe0 1.933428 1_655
F0 Tl2 2.584896 1_555
F1 Fe0 1.933428 1_566
F1 Tl2 2.584896 1_555
F2 Fe0 1.933429 1_565
F2 Tl2 2.584897 1_555
F3 Fe0 1.933429 1_656
F3 Tl2 2.584897 1_555
F4 Fe0 1.933429 1_556
F4 Tl2 2.584897 1_555
F5 Fe0 1.933429 1_665
F5 Tl2 2.584897 1_555
