# generated using pymatgen
data_LiNdTiO4
_symmetry_space_group_name_H-M   'P 1'
_cell_length_a   3.74738300
_cell_length_b   3.74738300
_cell_length_c   12.24777800
_cell_angle_alpha   90.00000000
_cell_angle_beta   90.00000000
_cell_angle_gamma   90.00000000
_symmetry_Int_Tables_number   1
_chemical_formula_structural   LiNdTiO4
_chemical_formula_sum   'Li2 Nd2 Ti2 O8'
_cell_volume   171.99406874
_cell_formula_units_Z   2
loop_
 _symmetry_equiv_pos_site_id
 _symmetry_equiv_pos_as_xyz
  1  'x, y, z'
loop_
 _atom_site_type_symbol
 _atom_site_label
 _atom_site_symmetry_multiplicity
 _atom_site_fract_x
 _atom_site_fract_y
 _atom_site_fract_z
 _atom_site_occupancy
  Li  Li0  1  0.50000000  0.50000000  0.50000000  1
  Li  Li1  1  0.00000000  0.00000000  0.50000000  1
  Nd  Nd0  1  0.00000000  0.50000000  0.11585500  1
  Nd  Nd1  1  0.50000000  0.00000000  0.88414500  1
  Ti  Ti0  1  0.00000000  0.50000000  0.70977300  1
  Ti  Ti1  1  0.50000000  0.00000000  0.29022700  1
  O  O0  1  0.00000000  0.50000000  0.92524200  1
  O  O1  1  0.50000000  0.00000000  0.07475800  1
  O  O2  1  0.00000000  0.50000000  0.56287700  1
  O  O3  1  0.50000000  0.00000000  0.43712300  1
  O  O4  1  0.00000000  0.00000000  0.75050000  1
  O  O5  1  0.50000000  0.50000000  0.75050000  1
  O  O6  1  0.50000000  0.50000000  0.24950000  1
  O  O7  1  0.00000000  0.00000000  0.24950000  1
loop_
_geom_bond_atom_site_label_1
_geom_bond_atom_site_label_2
_geom_bond_distance
_geom_bond_site_symmetry_2
Li0 O2 2.025779 1_655
Li0 O2 2.025779 1_555
Li0 O3 2.025779 1_565
Li0 O3 2.025779 1_555
Li1 O2 2.025779 1_555
Li1 O2 2.025779 1_545
Li1 O3 2.025779 1_555
Li1 O3 2.025779 1_455
Nd0 O0 2.334586 1_554
Nd0 O6 2.487973 1_555
Nd0 O7 2.487973 1_555
Nd0 O7 2.487973 1_565
Nd0 O6 2.487973 1_455
Nd0 O1 2.697183 1_565
Nd0 O1 2.697183 1_465
Nd0 O1 2.697183 1_455
Nd0 O1 2.697183 1_555
Nd1 O1 2.334586 1_556
Nd1 O5 2.487973 1_545
Nd1 O4 2.487973 1_555
Nd1 O5 2.487973 1_555
Nd1 O4 2.487973 1_655
Nd1 O0 2.697183 1_645
Nd1 O0 2.697183 1_655
Nd1 O0 2.697183 1_555
Nd1 O0 2.697183 1_545
O0 Ti0 2.639016 1_555
O1 Ti1 2.639016 1_555
O2 Ti0 1.799150 1_555
O3 Ti1 1.799150 1_555
O4 Ti0 1.938952 1_555
O4 Ti0 1.938952 1_545
O5 Ti0 1.938952 1_655
O5 Ti0 1.938952 1_555
O6 Ti1 1.938952 1_565
O6 Ti1 1.938952 1_555
O7 Ti1 1.938952 1_455
O7 Ti1 1.938952 1_555
