# generated using pymatgen
data_YMg14Mo
_symmetry_space_group_name_H-M   'P 1'
_cell_length_a   6.44891950
_cell_length_b   6.26827458
_cell_length_c   10.23700235
_cell_angle_alpha   90.00000000
_cell_angle_beta   90.00000000
_cell_angle_gamma   119.07763390
_symmetry_Int_Tables_number   1
_chemical_formula_structural   YMg14Mo
_chemical_formula_sum   'Y1 Mg14 Mo1'
_cell_volume   361.65987050
_cell_formula_units_Z   1
loop_
 _symmetry_equiv_pos_site_id
 _symmetry_equiv_pos_as_xyz
  1  'x, y, z'
loop_
 _atom_site_type_symbol
 _atom_site_label
 _atom_site_symmetry_multiplicity
 _atom_site_fract_x
 _atom_site_fract_y
 _atom_site_fract_z
 _atom_site_occupancy
  Y  Y0  1  0.15914066  0.32956983  0.12500000  1
  Mg  Mg0  1  0.16782998  0.33391449  0.62500000  1
  Mg  Mg1  1  0.16325616  0.83162758  0.62500000  1
  Mg  Mg2  1  0.65706929  0.32293798  0.12500000  1
  Mg  Mg3  1  0.66408273  0.33497122  0.62500000  1
  Mg  Mg4  1  0.65706929  0.83413031  0.12500000  1
  Mg  Mg5  1  0.66408273  0.82911051  0.62500000  1
  Mg  Mg6  1  0.33326209  0.15777053  0.37311682  1
  Mg  Mg7  1  0.33326209  0.15777053  0.87688318  1
  Mg  Mg8  1  0.33326209  0.67549256  0.37311682  1
  Mg  Mg9  1  0.33326209  0.67549256  0.87688318  1
  Mg  Mg10  1  0.83359365  0.16679732  0.38317921  1
  Mg  Mg11  1  0.83359365  0.16679732  0.86682079  1
  Mg  Mg12  1  0.84855138  0.67427619  0.36052927  1
  Mg  Mg13  1  0.84855138  0.67427619  0.88947073  1
  Mo  Mo0  1  0.17013075  0.83506488  0.12500000  1
loop_
_geom_bond_atom_site_label_1
_geom_bond_atom_site_label_2
_geom_bond_distance
_geom_bond_site_symmetry_2
Mg0 Mg10 3.110768 1_455
Mg0 Mg11 3.110768 1_455
Mg0 Mg1 3.134243 1_545
Mg0 Mg1 3.134243 1_555
Mg0 Mg6 3.186066 1_555
Mg0 Mg7 3.186066 1_555
Mg0 Mg8 3.186072 1_555
Mg0 Mg9 3.186072 1_555
Mg0 Mg5 3.197080 1_555
Mg0 Mg3 3.197080 1_555
Mg0 Mg5 3.251850 1_445
Mg0 Mg3 3.251850 1_455
Mg1 Mg9 3.138725 1_555
Mg1 Mg8 3.138725 1_555
Mg1 Mg6 3.138731 1_565
Mg1 Mg7 3.138731 1_565
Mg1 Mg3 3.211491 1_455
Mg1 Mg5 3.211491 1_455
Mg1 Mg13 3.236665 1_455
Mg1 Mg12 3.236665 1_455
Mg1 Mg3 3.237487 1_565
Mg1 Mg5 3.237487 1_555
Mg2 Mg4 3.063981 1_545
Mg2 Mg7 3.127707 1_554
Mg2 Mg6 3.127707 1_555
Mg2 Mo0 3.143078 1_545
Mg2 Mg4 3.204294 1_555
Mg2 Y0 3.217820 1_655
Mg2 Y0 3.231509 1_555
Mg2 Mo0 3.305849 1_655
Mg3 Mg5 3.097401 1_555
Mg3 Mg5 3.170874 1_545
Mg3 Mg7 3.182890 1_555
Mg3 Mg6 3.182890 1_555
Mg4 Mg9 3.127707 1_554
Mg4 Mg8 3.127707 1_555
Mg4 Mo0 3.143079 1_555
Mg4 Y0 3.217820 1_665
Mg4 Y0 3.231509 1_555
Mg4 Mo0 3.305849 1_655
Mg5 Mg8 3.182890 1_555
Mg5 Mg9 3.182890 1_555
Mg6 Mg8 3.023051 1_545
Mg6 Mo0 3.095405 1_545
Mg6 Y0 3.169762 1_555
Mg6 Mg8 3.245224 1_555
Mg7 Mg9 3.023051 1_545
Mg7 Mo0 3.095405 1_546
Mg7 Y0 3.169762 1_556
Mg7 Mg9 3.245224 1_555
Mg8 Mo0 3.095399 1_555
Mg8 Y0 3.169768 1_555
Mg9 Mo0 3.095399 1_556
Mg9 Y0 3.169768 1_556
Mg10 Mg3 3.091043 1_555
Mg10 Mg5 3.091049 1_545
Mg10 Mg12 3.143833 1_545
Mg10 Mg12 3.143833 1_555
Mg10 Mg8 3.201139 1_545
Mg10 Mg6 3.201139 1_555
Mg10 Mg2 3.212814 1_555
Mg10 Mg4 3.212820 1_545
Mg10 Y0 3.217438 1_655
Mg10 Mg8 3.251828 1_655
Mg10 Mg6 3.251828 1_655
Mg11 Mg3 3.091043 1_555
Mg11 Mg5 3.091049 1_545
Mg11 Mg13 3.143833 1_545
Mg11 Mg13 3.143833 1_555
Mg11 Mg9 3.201139 1_545
Mg11 Mg7 3.201139 1_555
Mg11 Mg2 3.212814 1_556
Mg11 Mg4 3.212820 1_546
Mg11 Y0 3.217438 1_656
Mg11 Mg9 3.251828 1_655
Mg11 Mg7 3.251828 1_655
Mg12 Mo0 3.016367 1_655
Mg12 Mg4 3.089503 1_555
Mg12 Mg2 3.089509 1_555
Mg12 Mg6 3.124820 1_665
Mg12 Mg8 3.124820 1_655
Mg12 Mg5 3.287757 1_555
Mg12 Mg3 3.287763 1_555
Mg12 Mg6 3.329266 1_555
Mg12 Mg8 3.329266 1_555
Mg13 Mo0 3.016367 1_656
Mg13 Mg4 3.089503 1_556
Mg13 Mg2 3.089509 1_556
Mg13 Mg7 3.124820 1_665
Mg13 Mg9 3.124820 1_655
Mg13 Mg5 3.287757 1_555
Mg13 Mg3 3.287763 1_555
Mg13 Mg7 3.329266 1_555
Mg13 Mg9 3.329266 1_555
Mo0 Y0 3.134749 1_565
Mo0 Y0 3.134749 1_555
