# generated using pymatgen
data_LiV3OF11
_symmetry_space_group_name_H-M   'P 1'
_cell_length_a   5.28938700
_cell_length_b   5.46821232
_cell_length_c   15.63442147
_cell_angle_alpha   99.85584735
_cell_angle_beta   89.96139217
_cell_angle_gamma   90.65774823
_symmetry_Int_Tables_number   1
_chemical_formula_structural   LiV3OF11
_chemical_formula_sum   'Li2 V6 O2 F22'
_cell_volume   445.49849779
_cell_formula_units_Z   2
loop_
 _symmetry_equiv_pos_site_id
 _symmetry_equiv_pos_as_xyz
  1  'x, y, z'
loop_
 _atom_site_type_symbol
 _atom_site_label
 _atom_site_symmetry_multiplicity
 _atom_site_fract_x
 _atom_site_fract_y
 _atom_site_fract_z
 _atom_site_occupancy
  Li  Li0  1  0.76820700  0.53984900  0.48696300  1
  Li  Li1  1  0.18016600  0.69613000  0.84361300  1
  V  V0  1  0.99475500  0.66320600  0.32862500  1
  V  V1  1  0.49641000  0.83871900  0.67547400  1
  V  V2  1  0.50182100  0.49901100  0.00309400  1
  V  V3  1  0.51669500  0.18767900  0.33222900  1
  V  V4  1  0.00210300  0.32889700  0.66360500  1
  V  V5  1  0.99728900  0.00628100  0.00680200  1
  O  O0  1  0.41085800  0.86013800  0.77809100  1
  O  O1  1  0.71924500  0.45942000  0.35448000  1
  F  F0  1  0.79480600  0.96777600  0.35450200  1
  F  F1  1  0.69552400  0.80936700  0.02461800  1
  F  F2  1  0.28543200  0.86941600  0.31304500  1
  F  F3  1  0.93334500  0.94277400  0.88858600  1
  F  F4  1  0.58860900  0.77972200  0.55552600  1
  F  F5  1  0.91655200  0.62340900  0.21712600  1
  F  F6  1  0.06697500  0.70047600  0.44517500  1
  F  F7  1  0.40771800  0.54165100  0.11259800  1
  F  F8  1  0.81067400  0.63261600  0.68885400  1
  F  F9  1  0.79935000  0.31462000  0.02298000  1
  F  F10  1  0.29344000  0.51707200  0.64050800  1
  F  F11  1  0.20362800  0.69067600  0.97435100  1
  F  F12  1  0.21546800  0.37217700  0.30907300  1
  F  F13  1  0.57099000  0.46779100  0.88962000  1
  F  F14  1  0.90840600  0.29892700  0.55127800  1
  F  F15  1  0.57457600  0.10997400  0.21912000  1
  F  F16  1  0.08907400  0.38058300  0.77832900  1
  F  F17  1  0.08781300  0.03908900  0.11704300  1
  F  F18  1  0.42148400  0.20784000  0.44374900  1
  F  F19  1  0.70870600  0.14754300  0.69029400  1
  F  F20  1  0.30075200  0.19395400  0.97914300  1
  F  F21  1  0.19683700  0.03273200  0.64220100  1
loop_
_geom_bond_atom_site_label_1
_geom_bond_atom_site_label_2
_geom_bond_distance
_geom_bond_site_symmetry_2
Li0 O1 2.058400 1_555
Li1 O0 1.905344 1_555
O0 V1 1.651776 1_555
O1 V3 1.806610 1_555
O1 V0 1.909177 1_555
F0 V0 1.965997 1_555
F0 V3 1.978841 1_565
F1 V2 1.951446 1_555
F1 V5 1.961462 1_565
F2 V0 1.936092 1_455
F2 V3 2.094742 1_565
F3 V5 1.851863 1_566
F3 Li1 1.931927 1_655
F4 Li0 1.821504 1_555
F4 V1 1.911540 1_555
F5 V0 1.768141 1_555
F6 V0 1.838439 1_455
F6 Li0 1.964400 1_455
F7 V2 1.760122 1_555
F8 V4 1.937255 1_655
F8 V1 2.049691 1_555
F9 V2 1.932458 1_555
F9 V5 1.974113 1_555
F10 V4 1.911521 1_555
F10 V1 2.042844 1_555
F11 V2 1.997065 1_556
F11 V5 2.041983 1_466
F11 Li1 2.053187 1_555
F12 V3 1.962202 1_555
F12 V0 1.965850 1_455
F13 V2 1.790895 1_556
F14 V4 1.804822 1_655
F14 Li0 1.942554 1_555
F15 V3 1.773842 1_555
F16 V4 1.825716 1_555
F16 Li1 1.905222 1_555
F17 V5 1.767873 1_455
F18 V3 1.800009 1_555
F19 V4 1.916080 1_655
F19 V1 1.997310 1_545
F20 V2 1.949333 1_556
F20 V5 1.982367 1_456
F21 V4 1.909972 1_555
F21 V1 2.033616 1_545
