# generated using pymatgen
data_MgV6O11F
_symmetry_space_group_name_H-M   'P 1'
_cell_length_a   4.83078495
_cell_length_b   4.74798981
_cell_length_c   9.02069258
_cell_angle_alpha   90.21184628
_cell_angle_beta   89.27089144
_cell_angle_gamma   92.97671593
_symmetry_Int_Tables_number   1
_chemical_formula_structural   MgV6O11F
_chemical_formula_sum   'Mg1 V6 O11 F1'
_cell_volume   206.60642012
_cell_formula_units_Z   1
loop_
 _symmetry_equiv_pos_site_id
 _symmetry_equiv_pos_as_xyz
  1  'x, y, z'
loop_
 _atom_site_type_symbol
 _atom_site_label
 _atom_site_symmetry_multiplicity
 _atom_site_fract_x
 _atom_site_fract_y
 _atom_site_fract_z
 _atom_site_occupancy
  Mg  Mg0  1  0.50067900  0.01178000  0.66226200  1
  V  V0  1  0.02328300  0.97522500  0.01813600  1
  V  V1  1  0.00277300  0.00103100  0.33929000  1
  V  V2  1  0.99979500  0.99182500  0.66694100  1
  V  V3  1  0.54143100  0.46103400  0.17048800  1
  V  V4  1  0.46937700  0.52394900  0.84602700  1
  V  V5  1  0.48674600  0.51292400  0.49280100  1
  O  O0  1  0.19814200  0.81610500  0.17204500  1
  O  O1  1  0.23931000  0.81121100  0.51012300  1
  O  O2  1  0.21915000  0.84222300  0.83463800  1
  O  O3  1  0.28615400  0.31023800  0.00992300  1
  O  O4  1  0.30544500  0.31380400  0.33487400  1
  O  O5  1  0.27754100  0.32772700  0.66851900  1
  O  O6  1  0.72062800  0.70123000  0.00600200  1
  O  O7  1  0.70624500  0.68084000  0.33533400  1
  O  O8  1  0.70572000  0.67685300  0.67181500  1
  O  O9  1  0.79636100  0.19725300  0.16847800  1
  O  O10  1  0.77791800  0.17855100  0.51230800  1
  F  F0  1  0.75719200  0.18008400  0.82999200  1
loop_
_geom_bond_atom_site_label_1
_geom_bond_atom_site_label_2
_geom_bond_distance
_geom_bond_site_symmetry_2
Mg0 O5 1.892414 1_555
Mg0 O8 1.919413 1_545
Mg0 O10 2.025366 1_555
Mg0 O1 2.072224 1_545
Mg0 O2 2.181129 1_545
O0 V0 1.820921 1_555
O0 V1 1.994434 1_565
O0 V3 2.425306 1_555
O1 V5 1.904841 1_555
O1 V2 2.031672 1_455
O1 V1 2.157492 1_565
O2 V4 1.987303 1_555
O2 V2 2.010651 1_455
O2 V0 2.012083 1_556
O3 V4 1.970628 1_554
O3 V0 1.984159 1_545
O3 V3 2.019245 1_555
O4 V5 1.904259 1_555
O4 V3 1.966992 1_555
O4 V1 2.029345 1_555
O5 V2 2.030294 1_445
O5 V5 2.045564 1_555
O5 V4 2.056173 1_555
O6 V0 1.909839 1_655
O6 V3 2.031964 1_555
O6 V4 2.047841 1_554
O7 V5 1.913094 1_555
O7 V3 1.966388 1_555
O7 V1 2.034489 1_665
O8 V2 2.008679 1_555
O8 V4 2.043753 1_555
O8 V5 2.069087 1_555
O9 V3 1.801385 1_555
O9 V0 2.055201 1_645
O9 V1 2.093481 1_655
O10 V2 2.006609 1_545
O10 V1 2.090080 1_655
O10 V5 2.184085 1_555
F0 V2 2.095477 1_545
F0 Mg0 2.097453 1_555
F0 V4 2.201945 1_555
F0 V0 2.382529 1_646
