# generated using pymatgen
data_Li9Mn7O16
_symmetry_space_group_name_H-M   'P 1'
_cell_length_a   10.55112150
_cell_length_b   10.55112150
_cell_length_c   10.71501935
_cell_angle_alpha   68.54386283
_cell_angle_beta   68.54386283
_cell_angle_gamma   15.68784888
_symmetry_Int_Tables_number   1
_chemical_formula_structural   Li9Mn7O16
_chemical_formula_sum   'Li9 Mn7 O16'
_cell_volume   299.75200305
_cell_formula_units_Z   1
loop_
 _symmetry_equiv_pos_site_id
 _symmetry_equiv_pos_as_xyz
  1  'x, y, z'
loop_
 _atom_site_type_symbol
 _atom_site_label
 _atom_site_symmetry_multiplicity
 _atom_site_fract_x
 _atom_site_fract_y
 _atom_site_fract_z
 _atom_site_occupancy
  Li  Li0  1  0.62344400  0.62344400  0.56766200  1
  Li  Li1  1  0.87788900  0.87788900  0.18133700  1
  Li  Li2  1  0.12211100  0.12211100  0.81866300  1
  Li  Li3  1  0.12707600  0.12707600  0.30614900  1
  Li  Li4  1  0.37912300  0.37912300  0.93666800  1
  Li  Li5  1  0.62087700  0.62087700  0.06333200  1
  Li  Li6  1  0.87292400  0.87292400  0.69385100  1
  Li  Li7  1  0.37655600  0.37655600  0.43233800  1
  Li  Li8  1  0.50000000  0.50000000  0.00000000  1
  Mn  Mn0  1  0.99661800  0.99661800  0.76452800  1
  Mn  Mn1  1  0.00338200  0.00338200  0.23547200  1
  Mn  Mn2  1  0.24996200  0.24996200  0.37495300  1
  Mn  Mn3  1  0.75003800  0.75003800  0.62504700  1
  Mn  Mn4  1  0.24809400  0.24809400  0.87682400  1
  Mn  Mn5  1  0.50000000  0.50000000  0.50000000  1
  Mn  Mn6  1  0.75190600  0.75190600  0.12317600  1
  O  O0  1  0.55622600  0.55622600  0.77669000  1
  O  O1  1  0.80831600  0.80831600  0.39794400  1
  O  O2  1  0.05572300  0.05572300  0.05678100  1
  O  O3  1  0.05304100  0.05304100  0.54228400  1
  O  O4  1  0.31012200  0.31012200  0.14788200  1
  O  O5  1  0.55670500  0.55670500  0.27674400  1
  O  O6  1  0.80694100  0.80694100  0.89727100  1
  O  O7  1  0.30922200  0.30922200  0.64717400  1
  O  O8  1  0.69077800  0.69077800  0.35282600  1
  O  O9  1  0.94427700  0.94427700  0.94321900  1
  O  O10  1  0.19168400  0.19168400  0.60205600  1
  O  O11  1  0.19305900  0.19305900  0.10272900  1
  O  O12  1  0.44329500  0.44329500  0.72325600  1
  O  O13  1  0.68987800  0.68987800  0.85211800  1
  O  O14  1  0.94695900  0.94695900  0.45771600  1
  O  O15  1  0.44377400  0.44377400  0.22331000  1
loop_
_geom_bond_atom_site_label_1
_geom_bond_atom_site_label_2
_geom_bond_distance
_geom_bond_site_symmetry_2
Li0 O3 2.146875 1_565
Li0 O3 2.146875 1_655
Li0 O10 2.152344 1_655
Li0 O10 2.152344 1_565
Li0 O0 2.160270 1_555
Li0 O8 2.210776 1_555
Li1 O4 2.141014 1_655
Li1 O4 2.141014 1_565
Li1 O15 2.151790 1_655
Li1 O15 2.151790 1_565
Li1 O1 2.238138 1_555
Li1 O9 2.412665 1_554
Li2 O13 2.141014 1_545
Li2 O13 2.141014 1_455
Li2 O0 2.151790 1_545
Li2 O0 2.151790 1_455
Li2 O10 2.238138 1_555
Li2 O2 2.412665 1_556
Li3 O11 2.105523 1_555
Li3 O8 2.142164 1_545
Li3 O8 2.142164 1_455
Li3 O5 2.163140 1_455
Li3 O5 2.163140 1_545
Li3 O3 2.430088 1_555
Li4 O9 2.001040 1_545
Li4 O9 2.001040 1_455
Li4 O12 2.182494 1_555
Li4 O4 2.189013 1_556
Li4 O6 2.235853 1_545
Li4 O6 2.235853 1_455
Li5 O2 2.001040 1_655
Li5 O2 2.001040 1_565
Li5 O5 2.182494 1_555
Li5 O13 2.189013 1_554
Li5 O11 2.235853 1_655
Li5 O11 2.235853 1_565
Li6 O6 2.105523 1_555
Li6 O7 2.142164 1_655
Li6 O7 2.142164 1_565
Li6 O12 2.163140 1_655
Li6 O12 2.163140 1_565
Li6 O14 2.430088 1_555
Li7 O14 2.146875 1_545
Li7 O14 2.146875 1_455
Li7 O1 2.152344 1_455
Li7 O1 2.152344 1_545
Li7 O15 2.160270 1_555
Li7 O7 2.210776 1_555
Li8 O2 2.079419 1_655
Li8 O2 2.079419 1_565
Li8 O9 2.079419 1_454
Li8 O9 2.079419 1_544
Li8 O0 2.242754 1_554
Li8 O15 2.242754 1_555
Mn0 O9 1.821012 1_555
Mn0 O0 1.939884 1_655
Mn0 O0 1.939884 1_565
Mn0 O12 1.968675 1_565
Mn0 O12 1.968675 1_655
Mn0 O3 2.233335 1_665
Mn1 O2 1.821012 1_555
Mn1 O15 1.939884 1_545
Mn1 O15 1.939884 1_455
Mn1 O5 1.968675 1_455
Mn1 O5 1.968675 1_545
Mn1 O14 2.233335 1_445
Mn2 O1 1.960668 1_455
Mn2 O1 1.960668 1_545
Mn2 O8 1.969029 1_455
Mn2 O8 1.969029 1_545
Mn2 O10 2.283946 1_555
Mn2 O4 2.289490 1_555
Mn3 O10 1.960668 1_655
Mn3 O10 1.960668 1_565
Mn3 O7 1.969029 1_655
Mn3 O7 1.969029 1_565
Mn3 O1 2.283946 1_555
Mn3 O13 2.289490 1_555
Mn4 O6 1.958033 1_455
Mn4 O6 1.958033 1_545
Mn4 O13 1.965342 1_455
Mn4 O13 1.965342 1_545
Mn4 O11 2.264121 1_556
Mn4 O7 2.316435 1_555
Mn5 O3 1.969577 1_565
Mn5 O3 1.969577 1_655
Mn5 O14 1.969577 1_545
Mn5 O14 1.969577 1_455
Mn5 O5 2.243575 1_555
Mn5 O12 2.243575 1_555
Mn6 O11 1.958033 1_655
Mn6 O11 1.958033 1_565
Mn6 O4 1.965342 1_565
Mn6 O4 1.965342 1_655
Mn6 O6 2.264121 1_554
Mn6 O8 2.316435 1_555
