# generated using pymatgen
data_RbNaMg14O15
_symmetry_space_group_name_H-M   'P 1'
_cell_length_a   8.49508257
_cell_length_b   8.84798040
_cell_length_c   4.40500952
_cell_angle_alpha   90.00000000
_cell_angle_beta   90.00000000
_cell_angle_gamma   90.00000000
_symmetry_Int_Tables_number   1
_chemical_formula_structural   RbNaMg14O15
_chemical_formula_sum   'Rb1 Na1 Mg14 O15'
_cell_volume   331.09956312
_cell_formula_units_Z   1
loop_
 _symmetry_equiv_pos_site_id
 _symmetry_equiv_pos_as_xyz
  1  'x, y, z'
loop_
 _atom_site_type_symbol
 _atom_site_label
 _atom_site_symmetry_multiplicity
 _atom_site_fract_x
 _atom_site_fract_y
 _atom_site_fract_z
 _atom_site_occupancy
  Rb  Rb0  1  0.09954343  0.50000000  0.00000000  1
  Na  Na0  1  0.98776835  0.00000000  0.00000000  1
  Mg  Mg0  1  0.50001589  0.00000000  0.00000000  1
  Mg  Mg1  1  0.52090118  0.50000000  0.00000000  1
  Mg  Mg2  1  0.99332936  0.24199852  0.50000000  1
  Mg  Mg3  1  0.99332936  0.75800148  0.50000000  1
  Mg  Mg4  1  0.49682989  0.25229211  0.50000000  1
  Mg  Mg5  1  0.49682989  0.74770789  0.50000000  1
  Mg  Mg6  1  0.24207750  0.00000000  0.50000000  1
  Mg  Mg7  1  0.25125013  0.50000000  0.50000000  1
  Mg  Mg8  1  0.74927188  0.00000000  0.50000000  1
  Mg  Mg9  1  0.76598785  0.50000000  0.50000000  1
  Mg  Mg10  1  0.23986431  0.21623604  -0.00000000  1
  Mg  Mg11  1  0.23986431  0.78376396  0.00000000  1
  Mg  Mg12  1  0.76000850  0.25392934  0.00000000  1
  Mg  Mg13  1  0.76000850  0.74607066  -0.00000000  1
  O  O0  1  0.26514358  0.00000000  0.00000000  1
  O  O1  1  0.72744816  0.00000000  0.00000000  1
  O  O2  1  0.74609110  0.50000000  0.00000000  1
  O  O3  1  0.24535228  0.26058942  0.50000000  1
  O  O4  1  0.24535228  0.73941058  0.50000000  1
  O  O5  1  0.74357684  0.25190678  0.50000000  1
  O  O6  1  0.74357684  0.74809322  0.50000000  1
  O  O7  1  0.00087168  0.00000000  0.50000000  1
  O  O8  1  0.00030133  0.50000000  0.50000000  1
  O  O9  1  0.49075485  0.00000000  0.50000000  1
  O  O10  1  0.48515612  0.50000000  0.50000000  1
  O  O11  1  0.00040875  0.24234086  -0.00000000  1
  O  O12  1  0.00040875  0.75765914  0.00000000  1
  O  O13  1  0.47933857  0.26704852  -0.00000000  1
  O  O14  1  0.47933857  0.73295148  -0.00000000  1
loop_
_geom_bond_atom_site_label_1
_geom_bond_atom_site_label_2
_geom_bond_distance
_geom_bond_site_symmetry_2
Na0 O11 2.146914 1_655
Na0 O12 2.146914 1_645
Na0 O7 2.205316 1_655
Na0 O7 2.205316 1_654
Na0 O1 2.211442 1_555
Na0 O0 2.356325 1_655
Mg0 O1 1.932056 1_555
Mg0 O0 1.995260 1_555
Mg0 O9 2.203909 1_555
Mg0 O9 2.203909 1_554
Mg0 O14 2.369360 1_545
Mg0 O13 2.369360 1_555
Mg1 O2 1.913007 1_555
Mg1 O14 2.091173 1_555
Mg1 O13 2.091173 1_555
Mg1 O10 2.223339 1_555
Mg1 O10 2.223339 1_554
Mg2 O5 2.123479 1_555
Mg2 O7 2.142157 1_655
Mg2 O3 2.147265 1_655
Mg2 O11 2.203328 1_655
Mg2 O11 2.203328 1_656
Mg2 O8 2.283560 1_655
Mg3 O6 2.123479 1_555
Mg3 O7 2.142157 1_665
Mg3 O4 2.147265 1_655
Mg3 O12 2.203328 1_656
Mg3 O12 2.203328 1_655
Mg3 O8 2.283560 1_655
Mg4 O5 2.096138 1_555
Mg4 O3 2.137584 1_555
Mg4 O10 2.193957 1_555
Mg4 O13 2.211369 1_555
Mg4 O13 2.211369 1_556
Mg4 O9 2.232872 1_555
Mg5 O6 2.096138 1_555
Mg5 O4 2.137584 1_555
Mg5 O10 2.193957 1_555
Mg5 O14 2.211369 1_556
Mg5 O14 2.211369 1_555
Mg5 O9 2.232872 1_565
Mg6 O7 2.049063 1_555
Mg6 O9 2.112535 1_555
Mg6 O0 2.211204 1_555
Mg6 O0 2.211204 1_556
Mg6 O4 2.305858 1_545
Mg6 O3 2.305858 1_555
Mg7 O10 1.987051 1_555
Mg7 O3 2.118893 1_555
Mg7 O4 2.118893 1_555
Mg7 O8 2.131831 1_555
Mg8 O7 2.137361 1_655
Mg8 O9 2.196124 1_555
Mg8 O1 2.210294 1_556
Mg8 O1 2.210294 1_555
Mg8 O6 2.229391 1_545
Mg8 O5 2.229391 1_555
Mg9 O8 1.990512 1_655
Mg9 O5 2.203364 1_555
Mg9 O6 2.203364 1_555
Mg9 O2 2.208981 1_556
Mg9 O2 2.208981 1_555
Mg9 O10 2.385689 1_555
Mg10 O0 1.925267 1_555
Mg10 O11 2.047266 1_555
Mg10 O13 2.083440 1_555
Mg10 O3 2.237679 1_554
Mg10 O3 2.237679 1_555
Mg11 O0 1.925267 1_565
Mg11 O12 2.047266 1_555
Mg11 O14 2.083440 1_555
Mg11 O4 2.237679 1_554
Mg11 O4 2.237679 1_555
Mg12 O11 2.044792 1_655
Mg12 O2 2.180436 1_555
Mg12 O5 2.206996 1_554
Mg12 O5 2.206996 1_555
Mg12 O1 2.263724 1_555
Mg12 O13 2.387138 1_555
Mg13 O12 2.044792 1_655
Mg13 O2 2.180436 1_555
Mg13 O6 2.206996 1_554
Mg13 O6 2.206996 1_555
Mg13 O1 2.263724 1_565
Mg13 O14 2.387138 1_555
O8 Rb0 2.358346 1_555
O8 Rb0 2.358346 1_556
O11 Rb0 2.430339 1_555
O12 Rb0 2.430339 1_555
