# generated using pymatgen
data_ZnCu2Au
_symmetry_space_group_name_H-M   'P 1'
_cell_length_a   5.59373224
_cell_length_b   5.59373224
_cell_length_c   17.32954550
_cell_angle_alpha   80.71224391
_cell_angle_beta   99.28775609
_cell_angle_gamma   120.00000000
_symmetry_Int_Tables_number   1
_chemical_formula_structural   ZnCu2Au
_chemical_formula_sum   'Zn8 Cu16 Au8'
_cell_volume   461.36591172
_cell_formula_units_Z   8
loop_
 _symmetry_equiv_pos_site_id
 _symmetry_equiv_pos_as_xyz
  1  'x, y, z'
loop_
 _atom_site_type_symbol
 _atom_site_label
 _atom_site_symmetry_multiplicity
 _atom_site_fract_x
 _atom_site_fract_y
 _atom_site_fract_z
 _atom_site_occupancy
  Zn  Zn0_0  1  0.37802250  0.12197750  0.13406700  1
  Zn  Zn0_1  1  0.37802250  0.12197750  0.63406700  1
  Zn  Zn0_2  1  0.37802250  0.62197750  0.13406700  1
  Zn  Zn0_3  1  0.37802250  0.62197750  0.63406700  1
  Zn  Zn0_4  1  0.87802250  0.12197750  0.13406700  1
  Zn  Zn0_5  1  0.87802250  0.12197750  0.63406700  1
  Zn  Zn0_6  1  0.87802250  0.62197750  0.13406700  1
  Zn  Zn0_7  1  0.87802250  0.62197750  0.63406700  1
  Cu  Cu0_0  1  0.25063600  0.24936400  0.25190850  1
  Cu  Cu0_1  1  0.25063600  0.24936400  0.75190850  1
  Cu  Cu0_2  1  0.25063600  0.74936400  0.25190850  1
  Cu  Cu0_3  1  0.25063600  0.74936400  0.75190850  1
  Cu  Cu0_4  1  0.75063600  0.24936400  0.25190850  1
  Cu  Cu0_5  1  0.75063600  0.24936400  0.75190850  1
  Cu  Cu0_6  1  0.75063600  0.74936400  0.25190850  1
  Cu  Cu0_7  1  0.75063600  0.74936400  0.75190850  1
  Cu  Cu1_0  1  0.12208000  0.37792000  0.36624050  1
  Cu  Cu1_1  1  0.12208000  0.37792000  0.86624050  1
  Cu  Cu1_2  1  0.12208000  0.87792000  0.36624050  1
  Cu  Cu1_3  1  0.12208000  0.87792000  0.86624050  1
  Cu  Cu1_4  1  0.62208000  0.37792000  0.36624050  1
  Cu  Cu1_5  1  0.62208000  0.37792000  0.86624050  1
  Cu  Cu1_6  1  0.62208000  0.87792000  0.36624050  1
  Cu  Cu1_7  1  0.62208000  0.87792000  0.86624050  1
  Au  Au0_0  1  0.49926100  0.00073900  0.49778350  1
  Au  Au0_1  1  0.49926100  0.00073900  0.99778350  1
  Au  Au0_2  1  0.49926100  0.50073900  0.49778350  1
  Au  Au0_3  1  0.49926100  0.50073900  0.99778350  1
  Au  Au0_4  1  0.99926100  0.00073900  0.49778350  1
  Au  Au0_5  1  0.99926100  0.00073900  0.99778350  1
  Au  Au0_6  1  0.99926100  0.50073900  0.49778350  1
  Au  Au0_7  1  0.99926100  0.50073900  0.99778350  1
loop_
_geom_bond_atom_site_label_1
_geom_bond_atom_site_label_2
_geom_bond_distance
_geom_bond_site_symmetry_2
Zn0_0 Zn0_2 2.796866 1_555
Zn0_0 Zn0_6 2.796866 1_445
Zn0_0 Zn0_2 2.796866 1_545
Zn0_0 Zn0_4 2.796866 1_455
Zn0_0 Zn0_6 2.796866 1_555
Zn0_0 Zn0_4 2.796866 1_555
Zn0_1 Zn0_5 2.796866 1_555
Zn0_1 Zn0_7 2.796866 1_445
Zn0_1 Zn0_5 2.796866 1_455
Zn0_1 Zn0_3 2.796866 1_555
Zn0_1 Zn0_3 2.796866 1_545
Zn0_1 Zn0_7 2.796866 1_555
Zn0_2 Zn0_4 2.796866 1_565
Zn0_2 Zn0_6 2.796866 1_455
Zn0_2 Zn0_6 2.796866 1_555
Zn0_2 Zn0_4 2.796866 1_455
Zn0_3 Zn0_5 2.796866 1_455
Zn0_3 Zn0_7 2.796866 1_555
Zn0_3 Zn0_7 2.796866 1_455
Zn0_3 Zn0_5 2.796866 1_565
Zn0_4 Zn0_6 2.796866 1_545
Zn0_4 Zn0_6 2.796866 1_555
Zn0_5 Zn0_7 2.796866 1_555
Zn0_5 Zn0_7 2.796866 1_545
Cu0_0 Cu1_0 2.529186 1_555
Cu0_0 Cu1_2 2.529186 1_545
Cu0_0 Cu1_4 2.529186 1_555
Cu0_0 Zn0_2 2.575457 1_555
Cu0_0 Zn0_4 2.575457 1_455
Cu0_0 Zn0_0 2.575460 1_555
Cu0_0 Cu0_4 2.796866 1_555
Cu0_0 Cu0_4 2.796866 1_455
Cu0_0 Cu0_6 2.796866 1_555
Cu0_0 Cu0_2 2.796866 1_555
Cu0_0 Cu0_2 2.796866 1_545
Cu0_0 Cu0_6 2.796866 1_445
Cu0_1 Cu1_1 2.529186 1_555
Cu0_1 Cu1_5 2.529186 1_555
Cu0_1 Cu1_3 2.529186 1_545
Cu0_1 Zn0_3 2.575457 1_555
Cu0_1 Zn0_5 2.575457 1_455
Cu0_1 Zn0_1 2.575460 1_555
Cu0_1 Cu0_3 2.796866 1_545
Cu0_1 Cu0_7 2.796866 1_445
Cu0_1 Cu0_5 2.796866 1_555
Cu0_1 Cu0_7 2.796866 1_555
Cu0_1 Cu0_5 2.796866 1_455
Cu0_1 Cu0_3 2.796866 1_555
Cu0_2 Cu1_2 2.529186 1_555
Cu0_2 Cu1_0 2.529186 1_555
Cu0_2 Cu1_6 2.529186 1_555
Cu0_2 Zn0_6 2.575457 1_455
Cu0_2 Zn0_0 2.575457 1_565
Cu0_2 Zn0_2 2.575460 1_555
Cu0_2 Cu0_4 2.796866 1_455
Cu0_2 Cu0_6 2.796866 1_555
Cu0_2 Cu0_6 2.796866 1_455
Cu0_2 Cu0_4 2.796866 1_565
Cu0_3 Cu1_3 2.529186 1_555
Cu0_3 Cu1_1 2.529186 1_555
Cu0_3 Cu1_7 2.529186 1_555
Cu0_3 Zn0_1 2.575457 1_565
Cu0_3 Zn0_7 2.575457 1_455
Cu0_3 Zn0_3 2.575460 1_555
Cu0_3 Cu0_5 2.796866 1_565
Cu0_3 Cu0_7 2.796866 1_555
Cu0_3 Cu0_7 2.796866 1_455
Cu0_3 Cu0_5 2.796866 1_455
Cu0_4 Cu1_4 2.529186 1_555
Cu0_4 Cu1_6 2.529186 1_545
Cu0_4 Cu1_0 2.529186 1_655
Cu0_4 Zn0_6 2.575457 1_555
Cu0_4 Zn0_0 2.575457 1_555
Cu0_4 Zn0_4 2.575460 1_555
Cu0_4 Cu0_6 2.796866 1_555
Cu0_4 Cu0_6 2.796866 1_545
Cu0_5 Cu1_5 2.529186 1_555
Cu0_5 Cu1_7 2.529186 1_545
Cu0_5 Cu1_1 2.529186 1_655
Cu0_5 Zn0_7 2.575457 1_555
Cu0_5 Zn0_1 2.575457 1_555
Cu0_5 Zn0_5 2.575460 1_555
Cu0_5 Cu0_7 2.796866 1_545
Cu0_5 Cu0_7 2.796866 1_555
Cu0_6 Cu1_6 2.529186 1_555
Cu0_6 Cu1_4 2.529186 1_555
Cu0_6 Cu1_2 2.529186 1_655
Cu0_6 Zn0_2 2.575457 1_555
Cu0_6 Zn0_4 2.575457 1_565
Cu0_6 Zn0_6 2.575460 1_555
Cu0_7 Cu1_7 2.529186 1_555
Cu0_7 Cu1_5 2.529186 1_555
Cu0_7 Cu1_3 2.529186 1_655
Cu0_7 Zn0_5 2.575457 1_565
Cu0_7 Zn0_3 2.575457 1_555
Cu0_7 Zn0_7 2.575460 1_555
Cu1_0 Cu1_4 2.796866 1_555
Cu1_0 Cu1_2 2.796866 1_545
Cu1_0 Cu1_6 2.796866 1_555
Cu1_0 Cu1_6 2.796866 1_445
Cu1_0 Cu1_2 2.796866 1_555
Cu1_0 Cu1_4 2.796866 1_455
Cu1_1 Cu1_3 2.796866 1_555
Cu1_1 Cu1_7 2.796866 1_445
Cu1_1 Cu1_5 2.796866 1_455
Cu1_1 Cu1_7 2.796866 1_555
Cu1_1 Cu1_5 2.796866 1_555
Cu1_1 Cu1_3 2.796866 1_545
Cu1_2 Cu1_4 2.796866 1_565
Cu1_2 Cu1_6 2.796866 1_555
Cu1_2 Cu1_6 2.796866 1_455
Cu1_2 Cu1_4 2.796866 1_455
Cu1_3 Cu1_5 2.796866 1_455
Cu1_3 Cu1_7 2.796866 1_555
Cu1_3 Cu1_5 2.796866 1_565
Cu1_3 Cu1_7 2.796866 1_455
Cu1_4 Cu1_6 2.796866 1_555
Cu1_4 Cu1_6 2.796866 1_545
Cu1_5 Cu1_7 2.796866 1_545
Cu1_5 Cu1_7 2.796866 1_555
Au0_0 Cu1_2 2.761068 1_545
Au0_0 Cu1_4 2.761068 1_555
Au0_0 Cu1_6 2.761068 1_545
Au0_0 Au0_6 2.796866 1_555
Au0_0 Au0_4 2.796866 1_555
Au0_0 Au0_2 2.796866 1_555
Au0_0 Au0_2 2.796866 1_545
Au0_0 Au0_6 2.796866 1_445
Au0_0 Au0_4 2.796866 1_455
Au0_0 Zn0_1 2.826930 1_555
Au0_0 Zn0_5 2.826933 1_555
Au0_0 Zn0_3 2.826933 1_545
Au0_1 Cu1_3 2.761068 1_545
Au0_1 Cu1_7 2.761068 1_545
Au0_1 Cu1_5 2.761068 1_555
Au0_1 Au0_7 2.796866 1_445
Au0_1 Au0_3 2.796866 1_545
Au0_1 Au0_5 2.796866 1_455
Au0_1 Au0_3 2.796866 1_555
Au0_1 Au0_5 2.796866 1_555
Au0_1 Au0_7 2.796866 1_555
Au0_1 Zn0_0 2.826930 1_556
Au0_1 Zn0_2 2.826933 1_546
Au0_1 Zn0_4 2.826933 1_556
Au0_2 Cu1_0 2.761068 1_555
Au0_2 Cu1_6 2.761068 1_555
Au0_2 Cu1_4 2.761068 1_555
Au0_2 Au0_6 2.796866 1_555
Au0_2 Au0_4 2.796866 1_565
Au0_2 Au0_6 2.796866 1_455
Au0_2 Au0_4 2.796866 1_455
Au0_2 Zn0_3 2.826930 1_555
Au0_2 Zn0_7 2.826933 1_555
Au0_2 Zn0_1 2.826933 1_555
Au0_3 Cu1_1 2.761068 1_555
Au0_3 Cu1_7 2.761068 1_555
Au0_3 Cu1_5 2.761068 1_555
Au0_3 Au0_5 2.796866 1_455
Au0_3 Au0_7 2.796866 1_455
Au0_3 Au0_7 2.796866 1_555
Au0_3 Au0_5 2.796866 1_565
Au0_3 Zn0_2 2.826930 1_556
Au0_3 Zn0_0 2.826933 1_556
Au0_3 Zn0_6 2.826933 1_556
Au0_4 Cu1_6 2.761068 1_545
Au0_4 Cu1_0 2.761068 1_655
Au0_4 Cu1_2 2.761068 1_645
Au0_4 Au0_6 2.796866 1_555
Au0_4 Au0_6 2.796866 1_545
Au0_4 Zn0_5 2.826930 1_555
Au0_4 Zn0_1 2.826933 1_655
Au0_4 Zn0_7 2.826933 1_545
Au0_5 Cu1_7 2.761068 1_545
Au0_5 Cu1_1 2.761068 1_655
Au0_5 Cu1_3 2.761068 1_645
Au0_5 Au0_7 2.796866 1_545
Au0_5 Au0_7 2.796866 1_555
Au0_5 Zn0_4 2.826930 1_556
Au0_5 Zn0_0 2.826933 1_656
Au0_5 Zn0_6 2.826933 1_546
Au0_6 Cu1_4 2.761068 1_555
Au0_6 Cu1_2 2.761068 1_655
Au0_6 Cu1_0 2.761068 1_655
Au0_6 Zn0_7 2.826930 1_555
Au0_6 Zn0_3 2.826933 1_655
Au0_6 Zn0_5 2.826933 1_555
Au0_7 Cu1_3 2.761068 1_655
Au0_7 Cu1_5 2.761068 1_555
Au0_7 Cu1_1 2.761068 1_655
Au0_7 Zn0_6 2.826930 1_556
Au0_7 Zn0_2 2.826933 1_656
Au0_7 Zn0_4 2.826933 1_556
