# generated using pymatgen
data_Na3Sr2Ti3(Si2O9)2
_symmetry_space_group_name_H-M   'P 1'
_cell_length_a   10.55960300
_cell_length_b   10.55960300
_cell_length_c   5.43256419
_cell_angle_alpha   83.52939375
_cell_angle_beta   83.52939375
_cell_angle_gamma   39.65210266
_symmetry_Int_Tables_number   1
_chemical_formula_structural   Na3Sr2Ti3(Si2O9)2
_chemical_formula_sum   'Na3 Sr2 Ti3 Si4 O18'
_cell_volume   383.76611688
_cell_formula_units_Z   1
loop_
 _symmetry_equiv_pos_site_id
 _symmetry_equiv_pos_as_xyz
  1  'x, y, z'
loop_
 _atom_site_type_symbol
 _atom_site_label
 _atom_site_symmetry_multiplicity
 _atom_site_fract_x
 _atom_site_fract_y
 _atom_site_fract_z
 _atom_site_occupancy
  Na  Na0  1  0.75810800  0.24189200  0.50000000  1
  Na  Na1  1  0.24189200  0.75810800  0.50000000  1
  Na  Na2  1  0.50000000  0.50000000  0.00000000  1
  Sr  Sr0  1  0.78359000  0.78359000  0.73915100  1
  Sr  Sr1  1  0.21641000  0.21641000  0.26084900  1
  Ti  Ti0  1  0.64905900  0.64905900  0.29442800  1
  Ti  Ti1  1  0.35094100  0.35094100  0.70557200  1
  Ti  Ti2  1  0.00000000  0.00000000  0.00000000  1
  Si  Si0  1  0.64159000  0.07398700  0.20124000  1
  Si  Si1  1  0.35841000  0.92601300  0.79876000  1
  Si  Si2  1  0.92601300  0.35841000  0.79876000  1
  Si  Si3  1  0.07398700  0.64159000  0.20124000  1
  O  O0  1  0.51578200  0.13397300  0.46551200  1
  O  O1  1  0.48421800  0.86602700  0.53448800  1
  O  O2  1  0.86602700  0.48421800  0.53448800  1
  O  O3  1  0.13397300  0.51578200  0.46551200  1
  O  O4  1  0.73044100  0.14874000  0.17021500  1
  O  O5  1  0.26955900  0.85126000  0.82978500  1
  O  O6  1  0.85126000  0.26955900  0.82978500  1
  O  O7  1  0.14874000  0.73044100  0.17021500  1
  O  O8  1  0.48759500  0.86577600  0.02857800  1
  O  O9  1  0.51240500  0.13422400  0.97142200  1
  O  O10  1  0.13422400  0.51240500  0.97142200  1
  O  O11  1  0.86577600  0.48759500  0.02857800  1
  O  O12  1  0.56373600  0.56373600  0.32672700  1
  O  O13  1  0.43626400  0.43626400  0.67327300  1
  O  O14  1  0.94400000  0.94400000  0.75206700  1
  O  O15  1  0.05600000  0.05600000  0.24793300  1
  O  O16  1  0.82423600  0.82423600  0.21875500  1
  O  O17  1  0.17576400  0.17576400  0.78124500  1
loop_
_geom_bond_atom_site_label_1
_geom_bond_atom_site_label_2
_geom_bond_distance
_geom_bond_site_symmetry_2
Na0 O6 2.284810 1_555
Na0 O4 2.284810 1_555
Na0 O13 2.371078 1_555
Na0 O12 2.371078 1_555
Na0 O15 2.397927 1_655
Na0 O14 2.397927 1_545
Na1 O7 2.284810 1_555
Na1 O5 2.284810 1_555
Na1 O13 2.371078 1_555
Na1 O12 2.371078 1_555
Na1 O14 2.397927 1_455
Na1 O15 2.397927 1_565
Na2 O12 2.300529 1_555
Na2 O13 2.300529 1_554
Na2 O4 2.523866 1_555
Na2 O5 2.523866 1_554
Na2 O6 2.523866 1_554
Na2 O7 2.523866 1_555
O0 Si0 1.645161 1_555
O0 Ti1 2.000145 1_555
O0 Sr0 2.737237 1_545
O0 Sr1 2.885135 1_555
O1 Si1 1.645161 1_555
O1 Ti0 2.000145 1_555
O1 Sr1 2.737237 1_565
O1 Sr0 2.885135 1_555
O2 Si2 1.645161 1_555
O2 Ti0 2.000145 1_555
O2 Sr1 2.737237 1_655
O2 Sr0 2.885135 1_555
O3 Si3 1.645161 1_555
O3 Ti1 2.000145 1_555
O3 Sr0 2.737237 1_455
O3 Sr1 2.885135 1_555
O4 Si0 1.614491 1_555
O4 Ti2 2.067359 1_655
O5 Si1 1.614491 1_555
O5 Ti2 2.067359 1_566
O6 Si2 1.614491 1_555
O6 Ti2 2.067359 1_656
O7 Si3 1.614491 1_555
O7 Ti2 2.067359 1_565
O8 Si1 1.641025 1_554
O8 Ti0 2.007906 1_555
O8 Sr1 2.722734 1_565
O8 Sr0 2.831543 1_554
O9 Si0 1.641025 1_556
O9 Ti1 2.007906 1_555
O9 Sr0 2.722734 1_545
O9 Sr1 2.831543 1_556
O10 Si3 1.641025 1_556
O10 Ti1 2.007906 1_555
O10 Sr0 2.722734 1_455
O10 Sr1 2.831543 1_556
O11 Si2 1.641025 1_554
O11 Ti0 2.007906 1_555
O11 Sr1 2.722734 1_655
O11 Sr0 2.831543 1_554
O12 Ti0 1.683165 1_555
O13 Ti1 1.683165 1_555
O14 Ti2 1.846896 1_666
O14 Sr0 3.196094 1_555
O15 Ti2 1.846896 1_555
O15 Sr1 3.196094 1_555
O16 Si0 1.684164 1_565
O16 Si3 1.684164 1_655
O16 Sr0 2.818639 1_554
O16 Sr0 2.845618 1_555
O17 Si2 1.684164 1_455
O17 Si1 1.684164 1_545
O17 Sr1 2.818639 1_556
O17 Sr1 2.845618 1_555
