# generated using pymatgen
data_LiLa5Si4N10O
_symmetry_space_group_name_H-M   'P 1'
_cell_length_a   5.76825600
_cell_length_b   6.58656380
_cell_length_c   8.38855714
_cell_angle_alpha   103.13807507
_cell_angle_beta   107.61241056
_cell_angle_gamma   94.60657729
_symmetry_Int_Tables_number   1
_chemical_formula_structural   LiLa5Si4N10O
_chemical_formula_sum   'Li1 La5 Si4 N10 O1'
_cell_volume   291.97494098
_cell_formula_units_Z   1
loop_
 _symmetry_equiv_pos_site_id
 _symmetry_equiv_pos_as_xyz
  1  'x, y, z'
loop_
 _atom_site_type_symbol
 _atom_site_label
 _atom_site_symmetry_multiplicity
 _atom_site_fract_x
 _atom_site_fract_y
 _atom_site_fract_z
 _atom_site_occupancy
  Li  Li0  1  0.49298500  0.00484800  0.49220000  1
  La  La0  1  0.91205300  0.14734400  0.33213700  1
  La  La1  1  0.08691600  0.85010500  0.66259200  1
  La  La2  1  0.28481600  0.73522400  0.13164100  1
  La  La3  1  0.71706300  0.28095300  0.87629800  1
  La  La4  1  0.49420100  0.48647500  0.49082900  1
  Si  Si0  1  0.37712600  0.20820800  0.09458700  1
  Si  Si1  1  0.61893700  0.78954600  0.90788100  1
  Si  Si2  1  0.17158400  0.35617200  0.74181200  1
  Si  Si3  1  0.82918200  0.64371100  0.26021600  1
  N  N0  1  0.50282200  0.00276700  0.99590400  1
  N  N1  1  0.63604700  0.40429800  0.20374900  1
  N  N2  1  0.36731900  0.59510700  0.79012900  1
  N  N3  1  0.16855500  0.29511400  0.93564200  1
  N  N4  1  0.82871900  0.70310600  0.06315700  1
  N  N5  1  0.86717900  0.36428300  0.63072200  1
  N  N6  1  0.13521100  0.64295400  0.37275000  1
  N  N7  1  0.29443500  0.17095500  0.62008700  1
  N  N8  1  0.70877700  0.82495000  0.38697800  1
  N  N9  1  0.27555600  0.12845300  0.24611800  1
  O  O0  1  0.73051600  0.86542700  0.76457100  1
loop_
_geom_bond_atom_site_label_1
_geom_bond_atom_site_label_2
_geom_bond_distance
_geom_bond_site_symmetry_2
Li0 N7 2.017617 1_555
Li0 N8 2.039318 1_545
Li0 N9 2.420391 1_555
La0 N9 2.418535 1_655
La0 N8 2.542871 1_545
La0 N1 2.604375 1_555
La0 N5 2.684585 1_555
La0 N7 2.696995 1_655
La0 N0 2.970377 1_554
La0 N4 3.162296 1_545
La0 N6 3.314094 1_655
La1 O0 2.454926 1_455
La1 N7 2.494097 1_565
La1 N2 2.605312 1_555
La1 N6 2.610285 1_555
La1 N8 2.616585 1_455
La2 N4 2.497411 1_455
La2 N9 2.560441 1_565
La2 N6 2.595295 1_555
La2 N8 2.634418 1_555
La2 N0 2.721367 1_564
La2 N3 2.899987 1_554
La2 N2 2.996485 1_554
La2 N1 3.128664 1_555
La3 N3 2.488840 1_655
La3 N5 2.609958 1_555
La3 N7 2.631518 1_555
La3 N0 2.667109 1_555
La3 O0 2.699449 1_545
La3 N4 2.779078 1_556
La3 N1 2.871737 1_556
La3 N2 3.056469 1_555
La4 N5 2.415193 1_555
La4 N6 2.428382 1_555
La4 N9 2.668388 1_555
La4 N1 2.726309 1_555
La4 N2 2.780408 1_555
La4 N7 2.866736 1_555
La4 O0 2.883542 1_555
La4 N8 2.890197 1_555
N0 Si1 1.716131 1_545
N0 Si0 1.747444 1_556
N1 Si3 1.735236 1_555
N1 Si0 1.749897 1_555
N2 Si1 1.726608 1_555
N2 Si2 1.750270 1_555
N3 Si0 1.743464 1_556
N3 Si2 1.766094 1_555
N4 Si1 1.725982 1_554
N4 Si3 1.782434 1_555
N5 Si2 1.732598 1_655
N6 Si3 1.732745 1_455
N7 Si2 1.744570 1_555
N8 Si3 1.743888 1_555
N9 Si0 1.714574 1_555
O0 Si1 1.673000 1_555
