# generated using pymatgen
data_Mg16Al12Ni
_symmetry_space_group_name_H-M   'P 1'
_cell_length_a   9.20516571
_cell_length_b   8.98550495
_cell_length_c   8.98550660
_cell_angle_alpha   108.97072871
_cell_angle_beta   109.96718650
_cell_angle_gamma   109.96718418
_symmetry_Int_Tables_number   1
_chemical_formula_structural   Mg16Al12Ni
_chemical_formula_sum   'Mg16 Al12 Ni1'
_cell_volume   568.59084620
_cell_formula_units_Z   1
loop_
 _symmetry_equiv_pos_site_id
 _symmetry_equiv_pos_as_xyz
  1  'x, y, z'
loop_
 _atom_site_type_symbol
 _atom_site_label
 _atom_site_symmetry_multiplicity
 _atom_site_fract_x
 _atom_site_fract_y
 _atom_site_fract_z
 _atom_site_occupancy
  Mg  Mg0  1  0.00207000  0.35224000  0.00000000  1
  Mg  Mg1  1  0.57516800  0.27062200  0.00000000  1
  Mg  Mg2  1  0.99050900  0.00000000  0.00000000  1
  Mg  Mg3  1  0.31917100  0.59381300  0.00000100  1
  Mg  Mg4  1  0.57516700  0.00000000  0.27062200  1
  Mg  Mg5  1  0.68367200  0.67539400  0.27818600  1
  Mg  Mg6  1  0.00827900  0.60279200  0.32460600  1
  Mg  Mg7  1  0.00207000  0.00000000  0.35224000  1
  Mg  Mg8  1  0.40548700  0.72181500  0.39720900  1
  Mg  Mg9  1  0.72535700  0.40618700  0.40618700  1
  Mg  Mg10  1  0.31917100  0.00000000  0.59381400  1
  Mg  Mg11  1  0.00827800  0.32460600  0.60279200  1
  Mg  Mg12  1  0.64982900  0.64775800  0.64775800  1
  Mg  Mg13  1  0.68367300  0.27818600  0.67539400  1
  Mg  Mg14  1  0.40548700  0.39720900  0.72181500  1
  Mg  Mg15  1  0.30454500  0.72937800  0.72937800  1
  Al  Al0  1  0.64802600  0.81023100  0.99999900  1
  Al  Al1  1  0.81350200  0.61564700  0.00000000  1
  Al  Al2  1  0.36610300  0.35873600  0.18027800  1
  Al  Al3  1  0.18582500  0.81972100  0.17845700  1
  Al  Al4  1  0.83779300  0.18976800  0.18976700  1
  Al  Al5  1  0.36610400  0.18027800  0.35873600  1
  Al  Al6  1  0.19785500  0.38435300  0.38435400  1
  Al  Al7  1  0.81350200  0.00000000  0.61564700  1
  Al  Al8  1  0.00736700  0.82154300  0.64126500  1
  Al  Al9  1  0.64802500  0.99999900  0.81023200  1
  Al  Al10  1  0.00736700  0.64126500  0.82154300  1
  Al  Al11  1  0.18582400  0.17845700  0.81972200  1
  Ni  Ni0  1  0.26477900  0.99999900  0.00000000  1
loop_
_geom_bond_atom_site_label_1
_geom_bond_atom_site_label_2
_geom_bond_distance
_geom_bond_site_symmetry_2
Mg0 Mg3 2.984087 1_555
Mg0 Mg6 3.017959 1_555
Mg0 Mg13 3.017960 1_454
Mg0 Mg2 3.130312 1_455
Mg0 Mg11 3.517995 1_554
Mg0 Mg8 3.518005 1_555
Mg1 Mg10 3.037964 1_554
Mg1 Mg9 3.037971 1_555
Mg1 Ni0 3.054752 1_545
Mg1 Mg14 3.221346 1_554
Mg1 Mg5 3.221349 1_555
Mg1 Mg13 3.403211 1_554
Mg1 Mg6 3.403211 1_655
Mg2 Ni0 2.524704 1_645
Mg2 Mg7 3.130312 1_655
Mg3 Mg4 3.037968 1_565
Mg3 Mg5 3.073165 1_555
Mg3 Mg8 3.076176 1_555
Mg4 Mg9 3.037969 1_555
Mg4 Ni0 3.054736 1_545
Mg4 Mg8 3.221343 1_545
Mg4 Mg5 3.403210 1_545
Mg5 Mg7 3.017964 1_665
Mg5 Mg9 3.076177 1_555
Mg5 Mg8 3.191398 1_555
Mg5 Mg6 3.191408 1_655
Mg6 Mg9 3.073182 1_455
Mg6 Mg8 3.191396 1_555
Mg6 Mg7 3.517998 1_565
Mg10 Mg7 2.984096 1_555
Mg10 Mg15 3.037962 1_545
Mg10 Mg8 3.073168 1_545
Mg10 Mg13 3.073179 1_555
Mg10 Mg6 3.076178 1_545
Mg10 Mg14 3.076185 1_555
Mg11 Mg7 3.017964 1_555
Mg11 Mg9 3.073175 1_455
Mg11 Mg3 3.076185 1_556
Mg11 Mg13 3.191390 1_455
Mg11 Mg14 3.191405 1_555
Mg11 Mg15 3.221346 1_555
Mg11 Mg4 3.403211 1_455
Mg12 Mg9 2.984072 1_555
Mg12 Mg14 3.017958 1_555
Mg12 Mg8 3.017958 1_555
Mg12 Mg2 3.130328 1_566
Mg12 Mg5 3.517987 1_555
Mg12 Mg13 3.517990 1_555
Mg13 Mg9 3.076175 1_555
Mg13 Mg14 3.191407 1_555
Mg13 Mg4 3.221343 1_555
Mg14 Mg3 3.073171 1_556
Mg14 Mg15 3.403209 1_555
Mg14 Mg7 3.518005 1_555
Mg15 Mg3 3.037977 1_556
Mg15 Ni0 3.054736 1_556
Mg15 Mg6 3.221343 1_555
Mg15 Mg8 3.403209 1_555
Al0 Al1 2.682572 1_556
Al0 Al9 2.775884 1_555
Al0 Al4 2.775898 1_566
Al0 Mg15 2.910231 1_555
Al0 Mg4 2.910241 1_566
Al0 Mg3 2.987465 1_556
Al0 Mg2 3.029044 1_566
Al0 Mg7 3.032723 1_666
Al0 Mg12 3.032724 1_555
Al0 Mg14 3.082878 1_555
Al0 Mg5 3.082896 1_556
Al1 Al10 2.778981 1_654
Al1 Al3 2.778988 1_655
Al1 Mg13 2.919644 1_554
Al1 Mg6 2.919644 1_655
Al1 Mg14 3.093639 1_554
Al1 Mg5 3.093646 1_555
Al1 Mg1 3.127197 1_555
Al1 Mg7 3.163022 1_665
Al1 Mg12 3.163029 1_554
Al2 Al5 2.610450 1_555
Al2 Ni0 2.721095 1_545
Al2 Al6 2.778995 1_555
Al2 Mg5 2.889779 1_555
Al2 Mg9 3.021283 1_555
Al2 Mg8 3.024813 1_555
Al2 Mg1 3.048013 1_555
Al2 Mg3 3.105212 1_555
Al2 Mg0 3.155028 1_555
Al2 Mg2 3.183834 1_455
Al3 Al5 2.637080 1_565
Al3 Ni0 2.721079 1_555
Al3 Mg8 2.889780 1_555
Al3 Mg3 3.021277 1_555
Al3 Mg6 3.024806 1_555
Al3 Mg4 3.048003 1_565
Al3 Mg10 3.105235 1_565
Al3 Mg7 3.155037 1_565
Al3 Mg2 3.183837 1_465
Al4 Al6 2.682587 1_655
Al4 Al9 2.775884 1_544
Al4 Mg1 2.910214 1_555
Al4 Mg4 2.910231 1_555
Al4 Mg9 2.987463 1_555
Al4 Mg2 3.029049 1_555
Al4 Mg0 3.032716 1_655
Al4 Mg7 3.032728 1_655
Al4 Mg6 3.082891 1_655
Al4 Mg11 3.082902 1_655
Al5 Ni0 2.721086 1_545
Al5 Al6 2.778995 1_555
Al5 Mg13 2.889779 1_555
Al5 Mg9 3.021276 1_555
Al5 Mg14 3.024818 1_555
Al5 Mg4 3.047996 1_555
Al5 Mg10 3.105228 1_555
Al5 Mg7 3.155036 1_555
Al5 Mg2 3.183840 1_455
Al6 Mg14 2.919639 1_555
Al6 Mg8 2.919651 1_555
Al6 Mg11 3.093638 1_555
Al6 Mg6 3.093641 1_555
Al6 Mg15 3.127195 1_555
Al6 Mg7 3.163017 1_555
Al6 Mg0 3.163030 1_555
Al7 Al9 2.682587 1_545
Al7 Al8 2.778980 1_645
Al7 Mg11 2.919641 1_655
Al7 Mg5 2.919641 1_545
Al7 Mg8 3.093638 1_545
Al7 Mg13 3.093639 1_555
Al7 Mg4 3.127201 1_555
Al7 Mg0 3.163022 1_656
Al7 Mg12 3.163028 1_545
Al8 Ni0 2.721083 1_556
Al8 Mg6 2.889794 1_555
Al8 Mg10 3.021289 1_565
Al8 Mg5 3.024812 1_455
Al8 Mg15 3.048010 1_555
Al8 Mg9 3.105226 1_455
Al8 Mg12 3.155026 1_455
Al8 Mg2 3.183825 1_466
Al9 Mg15 2.910221 1_555
Al9 Mg1 2.910224 1_566
Al9 Mg10 2.987453 1_565
Al9 Mg2 3.029050 1_566
Al9 Mg0 3.032729 1_666
Al9 Mg12 3.032729 1_555
Al9 Mg8 3.082884 1_555
Al9 Mg13 3.082901 1_565
Al10 Al3 2.610436 1_556
Al10 Al8 2.637073 1_555
Al10 Ni0 2.721075 1_556
Al10 Mg11 2.889788 1_555
Al10 Mg3 3.021296 1_556
Al10 Mg13 3.024807 1_455
Al10 Mg15 3.048010 1_555
Al10 Mg9 3.105227 1_455
Al10 Mg12 3.155026 1_455
Al10 Mg2 3.183824 1_466
Al11 Al8 2.610436 1_545
Al11 Al2 2.637073 1_556
Al11 Ni0 2.721089 1_546
Al11 Al7 2.778981 1_455
Al11 Mg14 2.889792 1_555
Al11 Mg10 3.021288 1_555
Al11 Mg11 3.024811 1_555
Al11 Mg1 3.048019 1_556
Al11 Mg3 3.105224 1_556
Al11 Mg0 3.155024 1_556
Al11 Mg2 3.183825 1_456
