# generated using pymatgen
data_Li9Mn2Co5O16
_symmetry_space_group_name_H-M   'P 1'
_cell_length_a   2.95648200
_cell_length_b   5.10074591
_cell_length_c   19.67380242
_cell_angle_alpha   91.95933704
_cell_angle_beta   93.07201053
_cell_angle_gamma   104.85173186
_symmetry_Int_Tables_number   1
_chemical_formula_structural   Li9Mn2Co5O16
_chemical_formula_sum   'Li9 Mn2 Co5 O16'
_cell_volume   286.00919561
_cell_formula_units_Z   1
loop_
 _symmetry_equiv_pos_site_id
 _symmetry_equiv_pos_as_xyz
  1  'x, y, z'
loop_
 _atom_site_type_symbol
 _atom_site_label
 _atom_site_symmetry_multiplicity
 _atom_site_fract_x
 _atom_site_fract_y
 _atom_site_fract_z
 _atom_site_occupancy
  Li  Li0  1  0.95402100  0.19460500  0.68943700  1
  Li  Li1  1  0.56739000  0.31570700  0.81338500  1
  Li  Li2  1  0.18801800  0.43255900  0.93829800  1
  Li  Li3  1  0.81198200  0.56744100  0.06170200  1
  Li  Li4  1  0.43261000  0.68429300  0.18661500  1
  Li  Li5  1  0.04597900  0.80539500  0.31056300  1
  Li  Li6  1  0.71386100  0.94182500  0.44578400  1
  Li  Li7  1  0.28613900  0.05817500  0.55421600  1
  Li  Li8  1  0.00000000  0.50000000  0.50000000  1
  Mn  Mn0  1  0.61768000  0.62712700  0.62232500  1
  Mn  Mn1  1  0.38232000  0.37287300  0.37767500  1
  Co  Co0  1  0.24759400  0.74414400  0.75125900  1
  Co  Co1  1  0.87833800  0.87426700  0.87527200  1
  Co  Co2  1  0.50000000  0.00000000  0.00000000  1
  Co  Co3  1  0.12166200  0.12573300  0.12472800  1
  Co  Co4  1  0.75240600  0.25585600  0.24874100  1
  O  O0  1  0.24610600  0.87036500  0.65919200  1
  O  O1  1  0.94040000  0.01203900  0.78373700  1
  O  O2  1  0.52307000  0.13891900  0.91032100  1
  O  O3  1  0.17983800  0.26129500  0.03352800  1
  O  O4  1  0.75937500  0.38866200  0.15857300  1
  O  O5  1  0.42577000  0.50873700  0.28218700  1
  O  O6  1  0.99992500  0.61608500  0.40079100  1
  O  O7  1  0.65840500  0.78290400  0.53997700  1
  O  O8  1  0.57423000  0.49126300  0.71781300  1
  O  O9  1  0.24062500  0.61133800  0.84142700  1
  O  O10  1  0.82016200  0.73870500  0.96647200  1
  O  O11  1  0.47693000  0.86108100  0.08967900  1
  O  O12  1  0.05960000  0.98796100  0.21626300  1
  O  O13  1  0.75389400  0.12963500  0.34080800  1
  O  O14  1  0.34159500  0.21709600  0.46002300  1
  O  O15  1  0.00007500  0.38391500  0.59920900  1
loop_
_geom_bond_atom_site_label_1
_geom_bond_atom_site_label_2
_geom_bond_distance
_geom_bond_site_symmetry_2
Li0 O15 2.043957 1_655
Li0 O8 2.091347 1_655
Li0 O1 2.101816 1_555
Li0 O0 2.134237 1_645
Li0 O8 2.177744 1_555
Li0 O0 2.344033 1_545
Li1 O9 2.063634 1_555
Li1 O8 2.108931 1_555
Li1 O1 2.127439 1_455
Li1 O2 2.133345 1_555
Li1 O9 2.196986 1_655
Li1 O1 2.199639 1_555
Li2 O2 2.071279 1_555
Li2 O3 2.092796 1_556
Li2 O9 2.136778 1_555
Li2 O10 2.138291 1_555
Li2 O2 2.174692 1_455
Li2 O10 2.191933 1_455
Li3 O11 2.071279 1_555
Li3 O10 2.092796 1_554
Li3 O4 2.136778 1_555
Li3 O3 2.138291 1_555
Li3 O11 2.174692 1_655
Li3 O3 2.191933 1_655
Li4 O4 2.063634 1_555
Li4 O5 2.108931 1_555
Li4 O12 2.127439 1_655
Li4 O11 2.133345 1_555
Li4 O4 2.196986 1_455
Li4 O12 2.199639 1_555
Li5 O6 2.043957 1_455
Li5 O5 2.091347 1_455
Li5 O12 2.101816 1_555
Li5 O13 2.134237 1_465
Li5 O5 2.177744 1_555
Li5 O13 2.344033 1_565
Li6 O14 2.014845 1_565
Li6 O14 2.018856 1_665
Li6 O7 2.045786 1_555
Li6 O6 2.226995 1_555
Li6 O13 2.302271 1_565
Li6 O6 2.429145 1_455
Li7 O7 2.014845 1_545
Li7 O7 2.018856 1_445
Li7 O14 2.045786 1_555
Li7 O15 2.226995 1_555
Li7 O0 2.302271 1_545
Li7 O15 2.429145 1_655
Li8 O6 2.058944 1_455
Li8 O15 2.058944 1_555
Li8 O14 2.115524 1_555
Li8 O7 2.115524 1_455
Li8 O14 2.192792 1_455
Li8 O7 2.192792 1_555
Mn0 O7 1.824955 1_555
Mn0 O15 1.938932 1_655
Mn0 O15 1.947066 1_555
Mn0 O0 1.998699 1_555
Mn0 O8 2.023660 1_555
Mn0 O0 2.032153 1_655
Mn1 O14 1.824955 1_555
Mn1 O6 1.938932 1_455
Mn1 O6 1.947066 1_555
Mn1 O13 1.998699 1_555
Mn1 O5 2.023660 1_555
Mn1 O13 2.032153 1_455
Co0 O8 1.917801 1_555
Co0 O9 1.919670 1_555
Co0 O1 1.933663 1_465
Co0 O0 1.943117 1_555
Co0 O8 2.131942 1_455
Co0 O1 2.199116 1_565
Co1 O10 1.945249 1_555
Co1 O1 1.956117 1_565
Co1 O9 2.034951 1_655
Co1 O2 2.035147 1_565
Co1 O9 2.074811 1_555
Co1 O2 2.099408 1_665
Co2 O2 1.921773 1_554
Co2 O11 1.921773 1_545
Co2 O3 1.939317 1_555
Co2 O10 1.939317 1_544
Co2 O3 2.162356 1_655
Co2 O10 2.162356 1_444
Co3 O3 1.945249 1_555
Co3 O12 1.956117 1_545
Co3 O4 2.034951 1_455
Co3 O11 2.035147 1_545
Co3 O4 2.074811 1_555
Co3 O11 2.099408 1_445
Co4 O5 1.917801 1_555
Co4 O4 1.919670 1_555
Co4 O12 1.933663 1_645
Co4 O13 1.943117 1_555
Co4 O5 2.131942 1_655
Co4 O12 2.199116 1_545
