# generated using pymatgen
data_Sm2CdAu2
_symmetry_space_group_name_H-M   'P 1'
_cell_length_a   8.02219957
_cell_length_b   8.02219957
_cell_length_c   3.79812736
_cell_angle_alpha   90.00000000
_cell_angle_beta   90.00000000
_cell_angle_gamma   90.00000000
_symmetry_Int_Tables_number   1
_chemical_formula_structural   Sm2CdAu2
_chemical_formula_sum   'Sm4 Cd2 Au4'
_cell_volume   244.43109154
_cell_formula_units_Z   2
loop_
 _symmetry_equiv_pos_site_id
 _symmetry_equiv_pos_as_xyz
  1  'x, y, z'
loop_
 _atom_site_type_symbol
 _atom_site_label
 _atom_site_symmetry_multiplicity
 _atom_site_fract_x
 _atom_site_fract_y
 _atom_site_fract_z
 _atom_site_occupancy
  Sm  Sm0  1  0.67065802  0.17065802  0.50000000  1
  Sm  Sm1  1  0.32934198  0.82934198  0.50000000  1
  Sm  Sm2  1  0.17065802  0.32934198  0.50000000  1
  Sm  Sm3  1  0.82934198  0.67065802  0.50000000  1
  Cd  Cd0  1  0.00000000  -0.00000000  0.00000000  1
  Cd  Cd1  1  0.50000000  0.50000000  0.00000000  1
  Au  Au0  1  0.12879515  0.62879515  -0.00000000  1
  Au  Au1  1  0.87120485  0.37120485  0.00000000  1
  Au  Au2  1  0.62879515  0.87120485  0.00000000  1
  Au  Au3  1  0.37120485  0.12879515  -0.00000000  1
loop_
_geom_bond_atom_site_label_1
_geom_bond_atom_site_label_2
_geom_bond_distance
_geom_bond_site_symmetry_2
Cd0 Sm3 3.530037 1_445
Cd0 Sm3 3.530037 1_444
Cd0 Sm1 3.530037 1_544
Cd0 Sm1 3.530037 1_545
Cd0 Sm0 3.530037 1_455
Cd0 Sm0 3.530037 1_454
Cd0 Sm2 3.530037 1_555
Cd0 Sm2 3.530037 1_554
Cd1 Sm0 3.530037 1_555
Cd1 Sm1 3.530037 1_554
Cd1 Sm2 3.530037 1_555
Cd1 Sm2 3.530037 1_554
Cd1 Sm0 3.530037 1_554
Cd1 Sm1 3.530037 1_555
Cd1 Sm3 3.530037 1_554
Cd1 Sm3 3.530037 1_555
Au0 Au1 2.922389 1_455
Au0 Sm1 2.963628 1_555
Au0 Sm1 2.963628 1_554
Au0 Sm3 3.080607 1_455
Au0 Sm3 3.080607 1_454
Au0 Sm2 3.080607 1_555
Au0 Sm2 3.080607 1_554
Au0 Cd1 3.152033 1_555
Au0 Cd0 3.152033 1_565
Au1 Sm0 2.963628 1_554
Au1 Sm0 2.963628 1_555
Au1 Sm3 3.080607 1_554
Au1 Sm3 3.080607 1_555
Au1 Sm2 3.080607 1_655
Au1 Sm2 3.080607 1_654
Au1 Cd1 3.152033 1_555
Au1 Cd0 3.152033 1_655
Au2 Au3 2.922389 1_565
Au2 Sm3 2.963628 1_554
Au2 Sm3 2.963628 1_555
Au2 Sm1 3.080607 1_554
Au2 Sm1 3.080607 1_555
Au2 Sm0 3.080607 1_564
Au2 Sm0 3.080607 1_565
Au2 Cd1 3.152033 1_555
Au2 Cd0 3.152033 1_665
Au3 Sm2 2.963628 1_555
Au3 Sm2 2.963628 1_554
Au3 Sm0 3.080607 1_554
Au3 Sm1 3.080607 1_545
Au3 Sm1 3.080607 1_544
Au3 Sm0 3.080607 1_555
Au3 Cd1 3.152033 1_555
Au3 Cd0 3.152033 1_555
