# generated using pymatgen
data_Sr3Ti3(Ga2O5)4
_symmetry_space_group_name_H-M   'P 1'
_cell_length_a   9.86245367
_cell_length_b   9.86245367
_cell_length_c   5.17271733
_cell_angle_alpha   75.15020218
_cell_angle_beta   75.15020218
_cell_angle_gamma   73.58269747
_symmetry_Int_Tables_number   1
_chemical_formula_structural   Sr3Ti3(Ga2O5)4
_chemical_formula_sum   'Sr3 Ti3 Ga8 O20'
_cell_volume   457.24380126
_cell_formula_units_Z   1
loop_
 _symmetry_equiv_pos_site_id
 _symmetry_equiv_pos_as_xyz
  1  'x, y, z'
loop_
 _atom_site_type_symbol
 _atom_site_label
 _atom_site_symmetry_multiplicity
 _atom_site_fract_x
 _atom_site_fract_y
 _atom_site_fract_z
 _atom_site_occupancy
  Sr  Sr0  1  0.22522800  0.22522800  0.28486800  1
  Sr  Sr1  1  0.77477200  0.77477200  0.71513200  1
  Sr  Sr2  1  0.50000000  0.50000000  0.00000000  1
  Ti  Ti0  1  0.12677700  0.87322300  0.50000000  1
  Ti  Ti1  1  0.87322300  0.12677700  0.50000000  1
  Ti  Ti2  1  0.00000000  0.00000000  0.00000000  1
  Ga  Ga0  1  0.35859700  0.92345100  0.83240400  1
  Ga  Ga1  1  0.64140300  0.07654900  0.16759600  1
  Ga  Ga2  1  0.07654900  0.64140300  0.16759600  1
  Ga  Ga3  1  0.92345100  0.35859700  0.83240400  1
  Ga  Ga4  1  0.49194800  0.22158800  0.65350800  1
  Ga  Ga5  1  0.50805200  0.77841200  0.34649200  1
  Ga  Ga6  1  0.77841200  0.50805200  0.34649200  1
  Ga  Ga7  1  0.22158800  0.49194800  0.65350800  1
  O  O0  1  0.50270600  0.78077700  0.98722900  1
  O  O1  1  0.49729400  0.21922300  0.01277100  1
  O  O2  1  0.21922300  0.49729400  0.01277100  1
  O  O3  1  0.78077700  0.50270600  0.98722900  1
  O  O4  1  0.37528100  0.10559500  0.65015300  1
  O  O5  1  0.62471900  0.89440500  0.34984700  1
  O  O6  1  0.89440500  0.62471900  0.34984700  1
  O  O7  1  0.10559500  0.37528100  0.65015300  1
  O  O8  1  0.06994600  0.06994600  0.60026000  1
  O  O9  1  0.93005400  0.93005400  0.39974000  1
  O  O10  1  0.67105700  0.16570800  0.42520000  1
  O  O11  1  0.32894300  0.83429200  0.57480000  1
  O  O12  1  0.83429200  0.32894300  0.57480000  1
  O  O13  1  0.16570800  0.67105700  0.42520000  1
  O  O14  1  0.19523300  0.95670100  0.10768300  1
  O  O15  1  0.80476700  0.04329900  0.89231700  1
  O  O16  1  0.04329900  0.80476700  0.89231700  1
  O  O17  1  0.95670100  0.19523300  0.10768300  1
  O  O18  1  0.40628800  0.40628800  0.49545500  1
  O  O19  1  0.59371200  0.59371200  0.50454500  1
loop_
_geom_bond_atom_site_label_1
_geom_bond_atom_site_label_2
_geom_bond_distance
_geom_bond_site_symmetry_2
Ga0 O4 1.833672 1_565
Ga0 O14 1.869693 1_556
Ga0 O0 1.875290 1_555
Ga0 O11 1.892101 1_555
Ga1 O5 1.833672 1_545
Ga1 O15 1.869693 1_554
Ga1 O1 1.875290 1_555
Ga1 O10 1.892101 1_555
Ga2 O6 1.833672 1_455
Ga2 O16 1.869693 1_554
Ga2 O2 1.875290 1_555
Ga2 O13 1.892101 1_555
Ga3 O7 1.833672 1_655
Ga3 O17 1.869693 1_556
Ga3 O3 1.875290 1_555
Ga3 O12 1.892101 1_555
Ga4 O4 1.843196 1_555
Ga4 O18 1.849626 1_555
Ga4 O1 1.866590 1_556
Ga4 O10 1.879576 1_555
Ga5 O5 1.843196 1_555
Ga5 O19 1.849626 1_555
Ga5 O0 1.866590 1_554
Ga5 O11 1.879576 1_555
Ga6 O6 1.843196 1_555
Ga6 O19 1.849626 1_555
Ga6 O3 1.866590 1_554
Ga6 O12 1.879576 1_555
Ga7 O7 1.843196 1_555
Ga7 O18 1.849626 1_555
Ga7 O2 1.866590 1_556
Ga7 O13 1.879576 1_555
O0 Sr1 2.683541 1_555
O0 Sr2 2.760502 1_556
O1 Sr0 2.683541 1_555
O1 Sr2 2.760502 1_555
O2 Sr0 2.683541 1_555
O2 Sr2 2.760502 1_555
O3 Sr1 2.683541 1_555
O3 Sr2 2.760502 1_556
O4 Sr0 2.540871 1_555
O5 Sr1 2.540871 1_555
O6 Sr1 2.540871 1_555
O7 Sr0 2.540871 1_555
O8 Ti2 2.008491 1_556
O8 Ti0 2.024708 1_545
O8 Ti1 2.024708 1_455
O8 Sr0 2.473212 1_555
O9 Ti2 2.008491 1_665
O9 Ti1 2.024708 1_565
O9 Ti0 2.024708 1_655
O9 Sr1 2.473212 1_555
O10 Ti1 2.039392 1_555
O11 Ti0 2.039392 1_555
O12 Ti1 2.039392 1_555
O13 Ti0 2.039392 1_555
O14 Ti0 2.001854 1_555
O14 Ti2 2.040372 1_565
O14 Sr0 3.125250 1_565
O15 Ti1 2.001854 1_555
O15 Ti2 2.040372 1_656
O15 Sr1 3.125250 1_545
O16 Ti0 2.001854 1_555
O16 Ti2 2.040372 1_566
O16 Sr1 3.125250 1_455
O17 Ti1 2.001854 1_555
O17 Ti2 2.040372 1_655
O17 Sr0 3.125250 1_655
O18 Sr2 2.516193 1_555
O19 Sr2 2.516193 1_556
