# generated using pymatgen
data_MnCd4S5
_symmetry_space_group_name_H-M   'P 1'
_cell_length_a   12.93289130
_cell_length_b   12.93289130
_cell_length_c   9.86549161
_cell_angle_alpha   75.20210669
_cell_angle_beta   75.20210669
_cell_angle_gamma   18.56771722
_symmetry_Int_Tables_number   1
_chemical_formula_structural   MnCd4S5
_chemical_formula_sum   'Mn2 Cd8 S10'
_cell_volume   507.53211906
_cell_formula_units_Z   2
loop_
 _symmetry_equiv_pos_site_id
 _symmetry_equiv_pos_as_xyz
  1  'x, y, z'
loop_
 _atom_site_type_symbol
 _atom_site_label
 _atom_site_symmetry_multiplicity
 _atom_site_fract_x
 _atom_site_fract_y
 _atom_site_fract_z
 _atom_site_occupancy
  Mn  Mn0  1  0.13058600  0.13058600  0.27716000  1
  Mn  Mn1  1  0.33032300  0.33032300  0.67617400  1
  Cd  Cd0  1  0.16425900  0.16425900  0.84527800  1
  Cd  Cd1  1  0.36272000  0.36272000  0.24658200  1
  Cd  Cd2  1  0.56382200  0.56382200  0.63871000  1
  Cd  Cd3  1  0.76154300  0.76154300  0.04333900  1
  Cd  Cd4  1  0.96254700  0.96254700  0.44750100  1
  Cd  Cd5  1  0.53180900  0.53180900  0.07715800  1
  Cd  Cd6  1  0.73038200  0.73038200  0.47302200  1
  Cd  Cd7  1  0.92844700  0.92844700  0.87253600  1
  S  S0  1  0.09059100  0.09059100  0.08021300  1
  S  S1  1  0.28881200  0.28881200  0.48077700  1
  S  S2  1  0.48784000  0.48784000  0.86892700  1
  S  S3  1  0.68274000  0.68274000  0.27060000  1
  S  S4  1  0.88196500  0.88196500  0.66984000  1
  S  S5  1  0.65429300  0.65429300  0.70417000  1
  S  S6  1  0.85313700  0.85313700  0.10495700  1
  S  S7  1  0.05757000  0.05757000  0.49182500  1
  S  S8  1  0.25844600  0.25844600  0.89303600  1
  S  S9  1  0.45467500  0.45467500  0.30419500  1
loop_
_geom_bond_atom_site_label_1
_geom_bond_atom_site_label_2
_geom_bond_distance
_geom_bond_site_symmetry_2
Mn0 S0 2.417492 1_555
Mn0 S7 2.432263 1_555
Mn0 S3 2.466808 1_455
Mn0 S3 2.466808 1_545
Mn1 S1 2.428194 1_555
Mn1 S8 2.431445 1_555
Mn1 S4 2.460120 1_545
Mn1 S4 2.460120 1_455
Cd0 S5 2.557161 1_545
Cd0 S5 2.557161 1_455
Cd0 S8 2.566911 1_555
Cd0 S0 2.579209 1_556
Cd1 S9 2.554134 1_555
Cd1 S6 2.557738 1_545
Cd1 S6 2.557738 1_455
Cd1 S1 2.577090 1_555
Cd2 S5 2.553934 1_555
Cd2 S7 2.568686 1_565
Cd2 S7 2.568686 1_655
Cd2 S2 2.576867 1_555
Cd3 S6 2.563592 1_555
Cd3 S8 2.572696 1_654
Cd3 S8 2.572696 1_564
Cd3 S3 2.595933 1_555
Cd4 S9 2.557209 1_565
Cd4 S9 2.557209 1_655
Cd4 S7 2.573713 1_665
Cd4 S4 2.589836 1_555
Cd5 S9 2.571199 1_555
Cd5 S0 2.574684 1_655
Cd5 S0 2.574684 1_565
Cd5 S2 2.583288 1_554
Cd6 S1 2.577347 1_565
Cd6 S1 2.577347 1_655
Cd6 S5 2.584609 1_555
Cd6 S3 2.593084 1_555
Cd7 S2 2.573919 1_565
Cd7 S2 2.573919 1_655
Cd7 S4 2.575810 1_555
Cd7 S6 2.582976 1_556
