# generated using pymatgen
data_MgCr2Cu2(WO4)4
_symmetry_space_group_name_H-M   'P 1'
_cell_length_a   5.10523288
_cell_length_b   7.53542474
_cell_length_c   7.53541716
_cell_angle_alpha   99.69799289
_cell_angle_beta   90.98409540
_cell_angle_gamma   90.98406761
_symmetry_Int_Tables_number   1
_chemical_formula_structural   MgCr2Cu2(WO4)4
_chemical_formula_sum   'Mg1 Cr2 Cu2 W4 O16'
_cell_volume   285.64417399
_cell_formula_units_Z   1
loop_
 _symmetry_equiv_pos_site_id
 _symmetry_equiv_pos_as_xyz
  1  'x, y, z'
loop_
 _atom_site_type_symbol
 _atom_site_label
 _atom_site_symmetry_multiplicity
 _atom_site_fract_x
 _atom_site_fract_y
 _atom_site_fract_z
 _atom_site_occupancy
  Mg  Mg0  1  0.74999796  0.55033638  0.44966441  1
  Cr  Cr0  1  0.74998160  0.81544858  0.18454613  1
  Cr  Cr1  1  0.25001288  0.18091677  0.81908870  1
  Cu  Cu0  1  0.74999914  0.32417198  0.67582556  1
  Cu  Cu1  1  0.24999084  0.68042671  0.31956824  1
  W  W0  1  0.75222630  0.30743011  0.13798466  1
  W  W1  1  0.24342400  0.67270808  0.83873481  1
  W  W2  1  0.74777621  0.86201605  0.69257047  1
  W  W3  1  0.25657655  0.16126324  0.32729307  1
  O  O0  1  0.41737408  0.70024163  0.06055663  1
  O  O1  1  0.58603562  0.29464464  0.91806064  1
  O  O2  1  0.08262510  0.93944691  0.29975899  1
  O  O3  1  0.91396892  0.08193735  0.70535541  1
  O  O4  1  0.91715331  0.80352768  0.93011018  1
  O  O5  1  0.10465973  0.19218314  0.07154414  1
  O  O6  1  0.58284918  0.06989013  0.19647245  1
  O  O7  1  0.39534266  0.92845693  0.80781786  1
  O  O8  1  0.89545380  0.56577313  0.19826699  1
  O  O9  1  0.11759500  0.43619468  0.81700911  1
  O  O10  1  0.60454215  0.80173176  0.43422614  1
  O  O11  1  0.38240985  0.18299198  0.56380699  1
  O  O12  1  0.55532903  0.60366097  0.69558506  1
  O  O13  1  0.45931568  0.39858827  0.30483152  1
  O  O14  1  0.94467485  0.30441713  0.39634006  1
  O  O15  1  0.04068557  0.69516674  0.60141077  1
loop_
_geom_bond_atom_site_label_1
_geom_bond_atom_site_label_2
_geom_bond_distance
_geom_bond_site_symmetry_2
Mg0 O13 2.041212 1_555
Mg0 O15 2.041217 1_655
Mg0 O10 2.067174 1_555
Mg0 O8 2.067185 1_555
Mg0 O12 2.099834 1_555
Mg0 O14 2.099846 1_555
Cr0 O0 2.032617 1_555
Cr0 O2 2.032807 1_655
Cr0 O10 2.052484 1_555
Cr0 O8 2.052522 1_555
Cr0 O6 2.100719 1_565
Cr0 O4 2.100769 1_554
Cr1 O1 1.980837 1_555
Cr1 O3 1.980960 1_455
Cr1 O7 2.042792 1_545
Cr1 O5 2.042809 1_556
Cr1 O11 2.052313 1_555
Cr1 O9 2.052330 1_555
Cu0 O1 2.065185 1_555
Cu0 O3 2.065202 1_555
Cu0 O11 2.222723 1_555
Cu0 O9 2.222770 1_655
Cu0 O14 2.327378 1_555
Cu0 O12 2.327387 1_555
Cu1 O8 2.116933 1_455
Cu1 O10 2.117015 1_555
Cu1 O0 2.170939 1_555
Cu1 O2 2.170954 1_555
Cu1 O15 2.380594 1_555
Cu1 O13 2.380616 1_555
O0 W1 1.857824 1_554
O1 W0 1.835923 1_556
O2 W3 1.857793 1_565
O3 W2 1.835912 1_545
O4 W1 2.021757 1_655
O4 W2 2.090847 1_555
O5 W0 2.044574 1_455
O5 W3 2.115643 1_555
O6 W3 2.021763 1_555
O6 W0 2.090849 1_555
O7 W2 2.044576 1_555
O7 W1 2.115642 1_555
O8 W0 2.042673 1_555
O9 W1 1.864018 1_555
O10 W2 2.042692 1_555
O11 W3 1.864025 1_555
O12 W1 1.966782 1_555
O12 W2 2.169298 1_555
O13 W0 2.024255 1_555
O13 W3 2.083874 1_555
O14 W3 1.966784 1_655
O14 W0 2.169299 1_555
O15 W2 2.024264 1_455
O15 W1 2.083859 1_555
