# generated using pymatgen
data_Li4Mn3O7
_symmetry_space_group_name_H-M   'P 1'
_cell_length_a   2.99282100
_cell_length_b   8.18466985
_cell_length_c   10.73444166
_cell_angle_alpha   78.81828842
_cell_angle_beta   85.91355540
_cell_angle_gamma   88.97884986
_symmetry_Int_Tables_number   1
_chemical_formula_structural   Li4Mn3O7
_chemical_formula_sum   'Li8 Mn6 O14'
_cell_volume   257.29348483
_cell_formula_units_Z   2
loop_
 _symmetry_equiv_pos_site_id
 _symmetry_equiv_pos_as_xyz
  1  'x, y, z'
loop_
 _atom_site_type_symbol
 _atom_site_label
 _atom_site_symmetry_multiplicity
 _atom_site_fract_x
 _atom_site_fract_y
 _atom_site_fract_z
 _atom_site_occupancy
  Li  Li0  1  0.71890200  0.85624800  0.56836200  1
  Li  Li1  1  0.42223400  0.70028800  0.14200100  1
  Li  Li2  1  0.13196500  0.56836300  0.72348800  1
  Li  Li3  1  0.28109800  0.14375200  0.43163800  1
  Li  Li4  1  0.00000000  0.00000000  0.00000000  1
  Li  Li5  1  0.86803500  0.43163700  0.27651200  1
  Li  Li6  1  0.57776600  0.29971200  0.85799900  1
  Li  Li7  1  0.00000000  0.50000000  0.00000000  1
  Mn  Mn0  1  0.56441900  0.77484100  0.86199900  1
  Mn  Mn1  1  0.43558100  0.22515900  0.13800100  1
  Mn  Mn2  1  0.28633900  0.64258700  0.42734600  1
  Mn  Mn3  1  0.71366100  0.35741300  0.57265400  1
  Mn  Mn4  1  0.13375300  0.06994500  0.71836400  1
  Mn  Mn5  1  0.86624700  0.93005500  0.28163600  1
  O  O0  1  0.11143800  0.82523500  0.73115600  1
  O  O1  1  0.88789500  0.68811000  0.28721200  1
  O  O2  1  0.58033800  0.55431800  0.85387300  1
  O  O3  1  0.74135500  0.11380500  0.57571000  1
  O  O4  1  0.46147000  0.97544200  0.14764700  1
  O  O5  1  0.31679800  0.39996000  0.43432100  1
  O  O6  1  0.96789400  0.24538600  0.01917700  1
  O  O7  1  0.25864500  0.88619500  0.42429000  1
  O  O8  1  0.03210600  0.75461400  0.98082300  1
  O  O9  1  0.68320200  0.60004000  0.56567900  1
  O  O10  1  0.88856200  0.17476500  0.26884400  1
  O  O11  1  0.53853000  0.02455800  0.85235300  1
  O  O12  1  0.41966200  0.44568200  0.14612700  1
  O  O13  1  0.11210500  0.31189000  0.71278800  1
loop_
_geom_bond_atom_site_label_1
_geom_bond_atom_site_label_2
_geom_bond_distance
_geom_bond_site_symmetry_2
Li0 O9 2.107465 1_555
Li0 O7 2.119863 1_555
Li0 O3 2.127152 1_565
Li0 O7 2.138283 1_655
Li0 O0 2.146685 1_655
Li0 O0 2.411441 1_555
Li1 O12 2.075872 1_555
Li1 O8 2.127307 1_554
Li1 O1 2.141774 1_455
Li1 O1 2.150883 1_555
Li1 O4 2.269921 1_555
Li1 O8 2.408966 1_654
Li2 O2 1.993138 1_555
Li2 O2 2.076706 1_455
Li2 O0 2.119547 1_555
Li2 O13 2.126517 1_555
Li2 O9 2.209563 1_455
Li2 O9 2.259450 1_555
Li3 O5 2.107465 1_555
Li3 O3 2.119863 1_555
Li3 O7 2.127152 1_545
Li3 O3 2.138283 1_455
Li3 O10 2.146685 1_455
Li3 O10 2.411441 1_555
Li4 O6 2.058141 1_455
Li4 O8 2.058141 1_544
Li4 O4 2.153668 1_545
Li4 O11 2.153668 1_454
Li4 O4 2.161924 1_445
Li4 O11 2.161924 1_554
Li5 O12 1.993138 1_555
Li5 O12 2.076706 1_655
Li5 O10 2.119547 1_555
Li5 O1 2.126517 1_555
Li5 O5 2.209563 1_655
Li5 O5 2.259450 1_555
Li6 O2 2.075872 1_555
Li6 O6 2.127307 1_556
Li6 O13 2.141774 1_655
Li6 O13 2.150883 1_555
Li6 O11 2.269921 1_555
Li6 O6 2.408966 1_456
Li7 O2 2.055727 1_454
Li7 O12 2.055727 1_555
Li7 O6 2.057260 1_455
Li7 O8 2.057260 1_554
Li7 O2 2.245781 1_554
Li7 O12 2.245781 1_455
Mn0 O2 1.823452 1_555
Mn0 O8 1.943655 1_655
Mn0 O8 1.957101 1_555
Mn0 O0 2.001870 1_555
Mn0 O11 2.026690 1_565
Mn0 O0 2.072362 1_655
Mn1 O12 1.823452 1_555
Mn1 O6 1.943655 1_455
Mn1 O6 1.957101 1_555
Mn1 O10 2.001870 1_555
Mn1 O4 2.026690 1_545
Mn1 O10 2.072362 1_455
Mn2 O9 1.942440 1_555
Mn2 O1 1.961136 1_455
Mn2 O5 1.973388 1_555
Mn2 O7 1.988094 1_555
Mn2 O9 2.241523 1_455
Mn2 O1 2.250208 1_555
Mn3 O5 1.942440 1_555
Mn3 O13 1.961136 1_655
Mn3 O9 1.973388 1_555
Mn3 O3 1.988094 1_555
Mn3 O5 2.241523 1_655
Mn3 O13 2.250208 1_555
Mn4 O11 1.923360 1_555
Mn4 O13 1.969553 1_555
Mn4 O3 1.970030 1_455
Mn4 O0 1.982826 1_545
Mn4 O11 2.198013 1_455
Mn4 O3 2.278972 1_555
Mn5 O4 1.923360 1_555
Mn5 O1 1.969553 1_555
Mn5 O7 1.970030 1_655
Mn5 O10 1.982826 1_565
Mn5 O4 2.198013 1_655
Mn5 O7 2.278972 1_555
