# generated using pymatgen
data_KTl(CoSe)4
_symmetry_space_group_name_H-M   'P 1'
_cell_length_a   3.89064100
_cell_length_b   3.89064100
_cell_length_c   13.30872100
_cell_angle_alpha   90.00000000
_cell_angle_beta   90.00000000
_cell_angle_gamma   90.00000000
_symmetry_Int_Tables_number   1
_chemical_formula_structural   KTl(CoSe)4
_chemical_formula_sum   'K1 Tl1 Co4 Se4'
_cell_volume   201.45527284
_cell_formula_units_Z   1
loop_
 _symmetry_equiv_pos_site_id
 _symmetry_equiv_pos_as_xyz
  1  'x, y, z'
loop_
 _atom_site_type_symbol
 _atom_site_label
 _atom_site_symmetry_multiplicity
 _atom_site_fract_x
 _atom_site_fract_y
 _atom_site_fract_z
 _atom_site_occupancy
  K  K0  1  0.50000000  0.50000000  0.50000000  1
  Tl  Tl0  1  0.00000000  0.00000000  0.00000000  1
  Co  Co0  1  0.00000000  0.50000000  0.25034900  1
  Co  Co1  1  0.50000000  0.00000000  0.74965100  1
  Co  Co2  1  0.50000000  0.00000000  0.25034900  1
  Co  Co3  1  0.00000000  0.50000000  0.74965100  1
  Se  Se0  1  0.50000000  0.50000000  0.15206200  1
  Se  Se1  1  0.00000000  0.00000000  0.65112500  1
  Se  Se2  1  0.00000000  0.00000000  0.34887500  1
  Se  Se3  1  0.50000000  0.50000000  0.84793800  1
loop_
_geom_bond_atom_site_label_1
_geom_bond_atom_site_label_2
_geom_bond_distance
_geom_bond_site_symmetry_2
K0 Se1 3.407902 1_565
K0 Se1 3.407902 1_555
K0 Se1 3.407902 1_655
K0 Se1 3.407902 1_665
K0 Se2 3.407902 1_565
K0 Se2 3.407902 1_555
K0 Se2 3.407902 1_655
K0 Se2 3.407902 1_665
Co0 Se0 2.344212 1_555
Co0 Se0 2.344212 1_455
Co0 Se2 2.345988 1_555
Co0 Se2 2.345988 1_565
Co1 Se3 2.344212 1_555
Co1 Se3 2.344212 1_545
Co1 Se1 2.345988 1_655
Co1 Se1 2.345988 1_555
Co2 Se0 2.344212 1_555
Co2 Se0 2.344212 1_545
Co2 Se2 2.345988 1_555
Co2 Se2 2.345988 1_655
Co3 Se3 2.344212 1_555
Co3 Se3 2.344212 1_455
Co3 Se1 2.345988 1_555
Co3 Se1 2.345988 1_565
Se0 Tl0 3.415276 1_665
Se0 Tl0 3.415276 1_555
Se0 Tl0 3.415276 1_655
Se0 Tl0 3.415276 1_565
Se3 Tl0 3.415276 1_566
Se3 Tl0 3.415276 1_666
Se3 Tl0 3.415276 1_556
Se3 Tl0 3.415276 1_656
