# generated using pymatgen
data_LaZnCrFeO6
_symmetry_space_group_name_H-M   'P 1'
_cell_length_a   5.52553800
_cell_length_b   5.35610058
_cell_length_c   7.64522652
_cell_angle_alpha   89.75316928
_cell_angle_beta   90.00000000
_cell_angle_gamma   90.00000000
_symmetry_Int_Tables_number   1
_chemical_formula_structural   LaZnCrFeO6
_chemical_formula_sum   'La2 Zn2 Cr2 Fe2 O12'
_cell_volume   226.26095779
_cell_formula_units_Z   2
loop_
 _symmetry_equiv_pos_site_id
 _symmetry_equiv_pos_as_xyz
  1  'x, y, z'
loop_
 _atom_site_type_symbol
 _atom_site_label
 _atom_site_symmetry_multiplicity
 _atom_site_fract_x
 _atom_site_fract_y
 _atom_site_fract_z
 _atom_site_occupancy
  La  La0  1  0.03375300  0.98924900  0.24776200  1
  La  La1  1  0.46624700  0.48924900  0.74776200  1
  Zn  Zn0  1  0.52861200  0.52467600  0.24850100  1
  Zn  Zn1  1  0.97138800  0.02467600  0.74850100  1
  Cr  Cr0  1  0.50976500  0.99880700  0.49856100  1
  Cr  Cr1  1  0.99023500  0.49880700  0.99856100  1
  Fe  Fe0  1  0.50118800  0.99811100  0.99884900  1
  Fe  Fe1  1  0.99881200  0.49811100  0.49884900  1
  O  O0  1  0.01808700  0.63581200  0.75904000  1
  O  O1  1  0.19852700  0.19673500  0.94090100  1
  O  O2  1  0.21114300  0.19045400  0.55763600  1
  O  O3  1  0.28885700  0.69045400  0.05763600  1
  O  O4  1  0.30147300  0.69673500  0.44090100  1
  O  O5  1  0.48191300  0.13581200  0.25903900  1
  O  O6  1  0.53534400  0.92150100  0.74297000  1
  O  O7  1  0.73716700  0.26731500  0.55943100  1
  O  O8  1  0.73557800  0.27734100  0.94634900  1
  O  O9  1  0.76442200  0.77734100  0.44634900  1
  O  O10  1  0.76283300  0.76731500  0.05943100  1
  O  O11  1  0.96465600  0.42150100  0.24297000  1
loop_
_geom_bond_atom_site_label_1
_geom_bond_atom_site_label_2
_geom_bond_distance
_geom_bond_site_symmetry_2
La0 O11 2.346586 1_465
La0 O10 2.396210 1_455
La0 O9 2.406902 1_455
La0 O3 2.584764 1_555
La0 O5 2.599315 1_565
La0 O4 2.608326 1_555
La0 O1 2.746875 1_564
La0 O2 2.785059 1_565
La1 O6 2.346586 1_555
La1 O7 2.396210 1_555
La1 O8 2.406902 1_555
La1 O2 2.584764 1_555
La1 O0 2.599315 1_555
La1 O1 2.608326 1_555
La1 O4 2.746875 1_555
La1 O3 2.785059 1_556
Cr0 O9 1.884265 1_555
Cr0 O6 1.917363 1_555
Cr0 O7 1.967095 1_565
Cr0 O5 1.975824 1_565
Cr0 O2 1.996069 1_565
Cr0 O4 2.035385 1_555
Cr1 O8 1.884265 1_555
Cr1 O11 1.917363 1_556
Cr1 O10 1.967095 1_556
Cr1 O0 1.975817 1_655
Cr1 O3 1.996069 1_656
Cr1 O1 2.035385 1_655
Fe0 O10 1.956484 1_556
Fe0 O6 2.009436 1_555
Fe0 O8 2.017440 1_565
Fe0 O1 2.029973 1_565
Fe0 O3 2.070627 1_556
Fe0 O5 2.127184 1_566
Fe1 O7 1.956484 1_555
Fe1 O11 2.009436 1_555
Fe1 O9 2.017440 1_555
Fe1 O4 2.029973 1_655
Fe1 O2 2.070627 1_655
Fe1 O0 2.127191 1_655
O0 Zn1 2.099920 1_465
O1 Zn1 2.144719 1_455
O2 Zn1 2.159064 1_455
O3 Zn0 2.159064 1_555
O4 Zn0 2.144719 1_555
O5 Zn0 2.099919 1_555
O6 Zn1 2.472342 1_565
O7 Zn1 2.331767 1_555
O8 Zn1 2.415521 1_555
O9 Zn0 2.415521 1_555
O10 Zn0 2.331767 1_555
O11 Zn0 2.472342 1_555
