# generated using pymatgen
data_Ti5CuBi3
_symmetry_space_group_name_H-M   'P 1'
_cell_length_a   8.34906622
_cell_length_b   8.34906622
_cell_length_c   5.58549215
_cell_angle_alpha   90.00000000
_cell_angle_beta   90.00000000
_cell_angle_gamma   120.00000108
_symmetry_Int_Tables_number   1
_chemical_formula_structural   Ti5CuBi3
_chemical_formula_sum   'Ti10 Cu2 Bi6'
_cell_volume   337.18471836
_cell_formula_units_Z   2
loop_
 _symmetry_equiv_pos_site_id
 _symmetry_equiv_pos_as_xyz
  1  'x, y, z'
loop_
 _atom_site_type_symbol
 _atom_site_label
 _atom_site_symmetry_multiplicity
 _atom_site_fract_x
 _atom_site_fract_y
 _atom_site_fract_z
 _atom_site_occupancy
  Ti  Ti0  1  0.26231580  0.00000000  0.75000000  1
  Ti  Ti1  1  0.73768420  -0.00000000  0.25000000  1
  Ti  Ti2  1  0.00000000  0.26231580  0.75000000  1
  Ti  Ti3  1  -0.00000000  0.73768420  0.25000000  1
  Ti  Ti4  1  0.73768420  0.73768420  0.75000000  1
  Ti  Ti5  1  0.26231580  0.26231580  0.25000000  1
  Ti  Ti6  1  0.33333300  0.66666700  0.50000000  1
  Ti  Ti7  1  0.66666700  0.33333300  0.50000000  1
  Ti  Ti8  1  0.66666700  0.33333300  -0.00000000  1
  Ti  Ti9  1  0.33333300  0.66666700  -0.00000000  1
  Cu  Cu0  1  0.00000000  0.00000000  0.50000000  1
  Cu  Cu1  1  0.00000000  0.00000000  -0.00000000  1
  Bi  Bi0  1  0.61731875  -0.00000000  0.75000000  1
  Bi  Bi1  1  0.38268125  0.00000000  0.25000000  1
  Bi  Bi2  1  -0.00000000  0.61731875  0.75000000  1
  Bi  Bi3  1  0.00000000  0.38268125  0.25000000  1
  Bi  Bi4  1  0.38268125  0.38268125  0.75000000  1
  Bi  Bi5  1  0.61731875  0.61731875  0.25000000  1
loop_
_geom_bond_atom_site_label_1
_geom_bond_atom_site_label_2
_geom_bond_distance
_geom_bond_site_symmetry_2
Ti6 Ti9 2.792746 1_555
Ti6 Ti9 2.792746 1_556
Ti7 Ti8 2.792746 1_556
Ti7 Ti8 2.792746 1_555
Cu0 Ti4 2.597376 1_445
Cu0 Ti5 2.597376 1_555
Cu0 Ti0 2.597376 1_555
Cu0 Ti3 2.597376 1_545
Cu0 Ti1 2.597376 1_455
Cu0 Ti2 2.597376 1_555
Cu0 Cu1 2.792746 1_555
Cu0 Cu1 2.792746 1_556
Cu1 Ti4 2.597376 1_444
Cu1 Ti5 2.597376 1_555
Cu1 Ti0 2.597376 1_554
Cu1 Ti3 2.597376 1_545
Cu1 Ti2 2.597376 1_554
Cu1 Ti1 2.597376 1_455
Bi0 Ti2 2.829720 1_655
Bi0 Ti4 2.829720 1_545
Bi0 Ti7 2.952655 1_555
Bi0 Ti8 2.952655 1_556
Bi0 Ti9 2.952658 1_546
Bi0 Ti6 2.952658 1_545
Bi0 Ti0 2.963943 1_555
Bi0 Ti1 2.968052 1_555
Bi0 Ti1 2.968052 1_556
Bi1 Ti3 2.829720 1_545
Bi1 Ti5 2.829720 1_555
Bi1 Ti9 2.952655 1_545
Bi1 Ti6 2.952655 1_545
Bi1 Ti7 2.952658 1_555
Bi1 Ti8 2.952658 1_555
Bi1 Ti1 2.963943 1_555
Bi1 Ti0 2.968052 1_555
Bi1 Ti0 2.968052 1_554
Bi2 Ti0 2.829720 1_565
Bi2 Ti4 2.829720 1_455
Bi2 Ti6 2.952655 1_555
Bi2 Ti9 2.952655 1_556
Bi2 Ti7 2.952658 1_455
Bi2 Ti8 2.952658 1_456
Bi2 Ti2 2.963943 1_555
Bi2 Ti3 2.968052 1_556
Bi2 Ti3 2.968052 1_555
Bi3 Ti1 2.829720 1_455
Bi3 Ti5 2.829720 1_555
Bi3 Ti8 2.952655 1_455
Bi3 Ti7 2.952655 1_455
Bi3 Ti9 2.952658 1_555
Bi3 Ti6 2.952658 1_555
Bi3 Ti3 2.963943 1_555
Bi3 Ti2 2.968052 1_554
Bi3 Ti2 2.968052 1_555
Bi4 Ti0 2.829720 1_555
Bi4 Ti2 2.829720 1_555
Bi4 Ti9 2.952662 1_556
Bi4 Ti6 2.952662 1_555
Bi4 Ti7 2.952662 1_555
Bi4 Ti8 2.952662 1_556
Bi4 Ti4 2.963943 1_555
Bi4 Ti5 2.968052 1_555
Bi4 Ti5 2.968052 1_556
Bi5 Ti3 2.829720 1_655
Bi5 Ti1 2.829720 1_565
Bi5 Ti9 2.952662 1_555
Bi5 Ti6 2.952662 1_555
Bi5 Ti7 2.952662 1_555
Bi5 Ti8 2.952662 1_555
Bi5 Ti5 2.963943 1_555
Bi5 Ti4 2.968052 1_554
Bi5 Ti4 2.968052 1_555
