# generated using pymatgen
data_Rb8Hg3Ge43
_symmetry_space_group_name_H-M   'P 1'
_cell_length_a   10.95319189
_cell_length_b   10.95319189
_cell_length_c   10.95319211
_cell_angle_alpha   90.02841076
_cell_angle_beta   90.02841076
_cell_angle_gamma   90.02841423
_symmetry_Int_Tables_number   1
_chemical_formula_structural   Rb8Hg3Ge43
_chemical_formula_sum   'Rb8 Hg3 Ge43'
_cell_volume   1314.08039844
_cell_formula_units_Z   1
loop_
 _symmetry_equiv_pos_site_id
 _symmetry_equiv_pos_as_xyz
  1  'x, y, z'
loop_
 _atom_site_type_symbol
 _atom_site_label
 _atom_site_symmetry_multiplicity
 _atom_site_fract_x
 _atom_site_fract_y
 _atom_site_fract_z
 _atom_site_occupancy
  Rb  Rb0  1  0.25117150  0.25117147  0.25117126  1
  Rb  Rb1  1  0.74882853  0.74882850  0.74882874  1
  Rb  Rb2  1  0.50000004  0.24380562  0.75619463  1
  Rb  Rb3  1  0.24380576  0.75619424  0.50000000  1
  Rb  Rb4  1  0.75619438  0.49999996  0.24380537  1
  Rb  Rb5  1  0.00000013  0.24367685  0.75632292  1
  Rb  Rb6  1  0.24367651  0.75632349  0.00000000  1
  Rb  Rb7  1  0.75632315  0.99999987  0.24367708  1
  Hg  Hg0  1  0.75165800  0.24834200  0.00000000  1
  Hg  Hg1  1  0.24834177  0.99999990  0.75165824  1
  Hg  Hg2  1  0.00000010  0.75165823  0.24834176  1
  Ge  Ge0  1  0.55516273  0.25022527  0.36999490  1
  Ge  Ge1  1  0.25022518  0.36999511  0.55516290  1
  Ge  Ge2  1  0.36999490  0.55516275  0.25022535  1
  Ge  Ge3  1  0.94851109  0.25036924  0.13520373  1
  Ge  Ge4  1  0.25036923  0.13520396  0.94851098  1
  Ge  Ge5  1  0.13520395  0.94851097  0.25036893  1
  Ge  Ge6  1  0.25043032  0.36948499  0.94788437  1
  Ge  Ge7  1  0.13621478  0.55530584  0.25014207  1
  Ge  Ge8  1  0.25014187  0.13621464  0.55530577  1
  Ge  Ge9  1  0.36948501  0.94788415  0.25043013  1
  Ge  Ge10  1  0.55530580  0.25014199  0.13621484  1
  Ge  Ge11  1  0.94788414  0.25043021  0.36948476  1
  Ge  Ge12  1  0.63000489  0.74977482  0.44483710  1
  Ge  Ge13  1  0.44469416  0.86378522  0.74985793  1
  Ge  Ge14  1  0.74956979  0.05211586  0.63051524  1
  Ge  Ge15  1  0.86479604  0.74963077  0.05148902  1
  Ge  Ge16  1  0.05211585  0.63051499  0.74956987  1
  Ge  Ge17  1  0.74985801  0.44469420  0.86378516  1
  Ge  Ge18  1  0.05148903  0.86479605  0.74963107  1
  Ge  Ge19  1  0.74963076  0.05148891  0.86479627  1
  Ge  Ge20  1  0.44483725  0.63000510  0.74977465  1
  Ge  Ge21  1  0.74977473  0.44483727  0.63000510  1
  Ge  Ge22  1  0.86378536  0.74985813  0.44469423  1
  Ge  Ge23  1  0.63051501  0.74956968  0.05211563  1
  Ge  Ge24  1  0.43503622  0.43503634  0.43503648  1
  Ge  Ge25  1  0.06817614  0.06817614  0.06817594  1
  Ge  Ge26  1  0.06691431  0.43460144  0.06830102  1
  Ge  Ge27  1  0.43390692  0.06725639  0.43609292  1
  Ge  Ge28  1  0.43460152  0.06830099  0.06691432  1
  Ge  Ge29  1  0.06725650  0.43609285  0.43390688  1
  Ge  Ge30  1  0.06830090  0.06691421  0.43460123  1
  Ge  Ge31  1  0.43609311  0.43390704  0.06725664  1
  Ge  Ge32  1  0.56390715  0.93274350  0.56609312  1
  Ge  Ge33  1  0.93169901  0.56539848  0.93308568  1
  Ge  Ge34  1  0.93182386  0.93182386  0.93182406  1
  Ge  Ge35  1  0.56496366  0.56496378  0.56496352  1
  Ge  Ge36  1  0.93274361  0.56609308  0.56390708  1
  Ge  Ge37  1  0.56539856  0.93308569  0.93169898  1
  Ge  Ge38  1  0.56609296  0.56390689  0.93274336  1
  Ge  Ge39  1  0.93308579  0.93169910  0.56539877  1
  Ge  Ge40  1  0.75138993  0.24861007  0.50000000  1
  Ge  Ge41  1  0.24861016  0.50000005  0.75139015  1
  Ge  Ge42  1  0.49999995  0.75138984  0.24860985  1
loop_
_geom_bond_atom_site_label_1
_geom_bond_atom_site_label_2
_geom_bond_distance
_geom_bond_site_symmetry_2
Hg0 Rb7 3.812185 1_545
Hg0 Rb5 3.812185 1_654
Hg0 Rb2 3.837219 1_554
Hg0 Rb4 3.837219 1_555
Hg1 Rb6 3.812177 1_556
Hg1 Rb5 3.812180 1_565
Hg1 Rb3 3.837223 1_555
Hg1 Rb2 3.837224 1_565
Hg2 Rb6 3.812177 1_555
Hg2 Rb7 3.812180 1_455
Hg2 Rb3 3.837223 1_555
Hg2 Rb4 3.837224 1_455
Ge0 Ge27 2.510826 1_555
Ge0 Ge24 2.517656 1_555
Ge0 Ge10 2.560639 1_555
Ge0 Ge40 2.577709 1_555
Ge0 Rb0 3.574421 1_555
Ge0 Rb4 3.774190 1_555
Ge0 Rb7 3.779696 1_545
Ge1 Ge29 2.510825 1_555
Ge1 Ge24 2.517655 1_555
Ge1 Ge8 2.560643 1_555
Ge1 Ge41 2.577709 1_555
Ge1 Rb0 3.574425 1_555
Ge1 Rb2 3.774192 1_555
Ge1 Rb5 3.779692 1_555
Ge2 Ge31 2.510825 1_555
Ge2 Ge24 2.517656 1_555
Ge2 Ge7 2.560639 1_555
Ge2 Ge42 2.577708 1_555
Ge2 Rb0 3.574420 1_555
Ge2 Rb3 3.774187 1_555
Ge2 Rb6 3.779700 1_555
Ge3 Hg0 2.615228 1_555
Ge3 Rb0 3.549532 1_655
Ge3 Rb4 3.651489 1_555
Ge3 Rb7 3.655600 1_545
Ge4 Ge6 2.566137 1_555
Ge4 Hg1 2.615227 1_545
Ge4 Rb0 3.549531 1_556
Ge4 Rb2 3.651487 1_555
Ge4 Rb5 3.655597 1_555
Ge5 Ge9 2.566138 1_555
Ge5 Hg2 2.615225 1_555
Ge5 Rb0 3.549533 1_565
Ge5 Rb3 3.651492 1_555
Ge5 Rb6 3.655591 1_555
Ge6 Rb0 3.566387 1_556
Ge6 Rb2 3.712469 1_555
Ge6 Rb5 3.716604 1_555
Ge7 Hg2 2.618216 1_555
Ge7 Rb0 3.561871 1_555
Ge7 Rb3 3.702488 1_555
Ge7 Rb6 3.707656 1_555
Ge8 Hg1 2.618217 1_545
Ge8 Rb0 3.561873 1_555
Ge8 Rb2 3.702493 1_555
Ge8 Rb5 3.707652 1_555
Ge9 Rb0 3.566392 1_565
Ge9 Rb3 3.712471 1_555
Ge9 Rb6 3.716600 1_555
Ge10 Ge28 2.507197 1_555
Ge10 Ge31 2.515961 1_555
Ge10 Hg0 2.618215 1_555
Ge10 Rb0 3.561869 1_555
Ge10 Rb4 3.702488 1_555
Ge10 Rb7 3.707656 1_545
Ge11 Ge30 2.508364 1_655
Ge11 Ge29 2.517546 1_655
Ge11 Ge3 2.566137 1_555
Ge11 Ge40 2.584416 1_555
Ge11 Rb0 3.566392 1_655
Ge11 Rb4 3.712470 1_555
Ge11 Rb7 3.716601 1_545
Ge12 Ge32 2.510825 1_555
Ge12 Ge35 2.517655 1_555
Ge12 Ge22 2.560643 1_555
Ge12 Ge42 2.577709 1_555
Ge12 Rb1 3.574425 1_555
Ge12 Rb4 3.774192 1_555
Ge12 Rb7 3.779692 1_555
Ge13 Ge37 2.507198 1_555
Ge13 Ge32 2.515961 1_555
Ge13 Ge20 2.560639 1_555
Ge13 Hg1 2.618216 1_555
Ge13 Rb1 3.561871 1_555
Ge13 Rb3 3.702488 1_555
Ge13 Rb6 3.707656 1_556
Ge14 Ge39 2.508364 1_545
Ge14 Ge32 2.517546 1_545
Ge14 Ge19 2.566137 1_555
Ge14 Ge40 2.584416 1_555
Ge14 Rb1 3.566392 1_545
Ge14 Rb2 3.712470 1_555
Ge14 Rb5 3.716601 1_655
Ge15 Ge34 2.498294 1_554
Ge15 Ge33 2.508146 1_554
Ge15 Ge23 2.566137 1_555
Ge15 Hg2 2.615227 1_655
Ge15 Rb1 3.549531 1_554
Ge15 Rb4 3.651487 1_555
Ge15 Rb7 3.655597 1_555
Ge16 Ge33 2.508363 1_455
Ge16 Ge36 2.517546 1_455
Ge16 Ge18 2.566138 1_555
Ge16 Ge41 2.584415 1_555
Ge16 Rb1 3.566392 1_455
Ge16 Rb3 3.712471 1_555
Ge16 Rb6 3.716600 1_556
Ge17 Ge33 2.507197 1_555
Ge17 Ge38 2.515961 1_555
Ge17 Ge21 2.560639 1_555
Ge17 Hg0 2.618215 1_556
Ge17 Rb1 3.561869 1_555
Ge17 Rb2 3.702488 1_555
Ge17 Rb5 3.707656 1_655
Ge18 Ge34 2.498294 1_455
Ge18 Ge39 2.508145 1_455
Ge18 Hg1 2.615225 1_555
Ge18 Rb1 3.549533 1_455
Ge18 Rb3 3.651492 1_555
Ge18 Rb6 3.655591 1_556
Ge19 Ge34 2.498294 1_545
Ge19 Ge37 2.508143 1_545
Ge19 Hg0 2.615228 1_556
Ge19 Rb1 3.549532 1_545
Ge19 Rb2 3.651489 1_555
Ge19 Rb5 3.655600 1_655
Ge20 Ge38 2.510825 1_555
Ge20 Ge35 2.517656 1_555
Ge20 Ge41 2.577708 1_555
Ge20 Rb1 3.574420 1_555
Ge20 Rb3 3.774187 1_555
Ge20 Rb6 3.779700 1_556
Ge21 Ge36 2.510826 1_555
Ge21 Ge35 2.517656 1_555
Ge21 Ge40 2.577709 1_555
Ge21 Rb1 3.574421 1_555
Ge21 Rb2 3.774190 1_555
Ge21 Rb5 3.779696 1_655
Ge22 Ge39 2.507198 1_555
Ge22 Ge36 2.515962 1_555
Ge22 Hg2 2.618217 1_655
Ge22 Rb1 3.561873 1_555
Ge22 Rb4 3.702493 1_555
Ge22 Rb7 3.707652 1_555
Ge23 Ge37 2.508363 1_554
Ge23 Ge38 2.517546 1_554
Ge23 Ge42 2.584415 1_555
Ge23 Rb1 3.566387 1_554
Ge23 Rb4 3.712469 1_555
Ge23 Rb7 3.716604 1_555
Ge24 Ge35 2.463691 1_555
Ge24 Rb0 3.486461 1_555
Ge25 Ge4 2.498294 1_554
Ge25 Ge5 2.498294 1_545
Ge25 Ge3 2.498294 1_455
Ge25 Ge34 2.585520 1_444
Ge25 Rb0 3.469971 1_555
Ge25 Rb6 3.990714 1_545
Ge25 Rb5 3.990719 1_554
Ge25 Rb7 3.990721 1_445
Ge26 Ge7 2.507198 1_555
Ge26 Ge3 2.508143 1_455
Ge26 Ge6 2.508363 1_554
Ge26 Ge33 2.538003 1_454
Ge26 Rb0 3.482222 1_555
Ge26 Rb4 3.974794 1_455
Ge26 Rb5 4.071400 1_554
Ge26 Rb6 4.089405 1_555
Ge27 Ge32 2.495592 1_545
Ge27 Ge8 2.515962 1_555
Ge27 Ge9 2.517546 1_545
Ge27 Rb0 3.488666 1_555
Ge27 Rb3 4.053500 1_545
Ge27 Rb2 4.067669 1_555
Ge28 Ge4 2.508146 1_554
Ge28 Ge9 2.508363 1_545
Ge28 Ge37 2.538003 1_544
Ge28 Rb0 3.482222 1_555
Ge28 Rb2 3.974793 1_554
Ge28 Rb6 4.071397 1_545
Ge28 Rb7 4.089405 1_545
Ge29 Ge36 2.495592 1_455
Ge29 Ge7 2.515961 1_555
Ge29 Rb0 3.488665 1_555
Ge29 Rb4 4.053502 1_455
Ge29 Rb3 4.067666 1_555
Ge30 Ge8 2.507198 1_555
Ge30 Ge5 2.508145 1_545
Ge30 Ge39 2.538004 1_445
Ge30 Rb0 3.482225 1_555
Ge30 Rb3 3.974797 1_545
Ge30 Rb7 4.071395 1_445
Ge30 Rb5 4.089404 1_555
Ge31 Ge38 2.495590 1_554
Ge31 Ge6 2.517546 1_554
Ge31 Rb0 3.488663 1_555
Ge31 Rb2 4.053500 1_554
Ge31 Rb4 4.067661 1_555
Ge32 Rb1 3.488665 1_555
Ge32 Rb2 4.053502 1_565
Ge32 Rb3 4.067666 1_555
Ge33 Rb1 3.482222 1_555
Ge33 Rb4 3.974793 1_556
Ge33 Rb6 4.071397 1_656
Ge33 Rb5 4.089405 1_655
Ge34 Rb1 3.469971 1_555
Ge34 Rb6 3.990714 1_656
Ge34 Rb7 3.990719 1_556
Ge34 Rb5 3.990721 1_665
Ge35 Rb1 3.486461 1_555
Ge36 Rb1 3.488666 1_555
Ge36 Rb3 4.053500 1_655
Ge36 Rb4 4.067669 1_555
Ge37 Rb1 3.482222 1_555
Ge37 Rb2 3.974794 1_565
Ge37 Rb7 4.071400 1_556
Ge37 Rb6 4.089405 1_556
Ge38 Rb1 3.488663 1_555
Ge38 Rb4 4.053500 1_556
Ge38 Rb2 4.067661 1_555
Ge39 Rb1 3.482225 1_555
Ge39 Rb3 3.974797 1_655
Ge39 Rb5 4.071395 1_665
Ge39 Rb7 4.089404 1_555
Ge40 Rb7 3.910644 1_545
Ge40 Rb5 3.910644 1_655
Ge40 Rb2 3.932784 1_555
Ge40 Rb4 3.932784 1_555
Ge41 Ge6 2.584415 1_555
Ge41 Rb5 3.910644 1_555
Ge41 Rb6 3.910645 1_556
Ge41 Rb2 3.932782 1_555
Ge41 Rb3 3.932782 1_555
Ge42 Ge9 2.584415 1_555
Ge42 Rb7 3.910644 1_555
Ge42 Rb6 3.910645 1_555
Ge42 Rb4 3.932782 1_555
Ge42 Rb3 3.932782 1_555
