# generated using pymatgen
data_ZnSnO3
_symmetry_space_group_name_H-M   'P 1'
_cell_length_a   5.68761402
_cell_length_b   5.68761402
_cell_length_c   5.68761404
_cell_angle_alpha   56.44175825
_cell_angle_beta   56.44175825
_cell_angle_gamma   56.44176321
_symmetry_Int_Tables_number   1
_chemical_formula_structural   ZnSnO3
_chemical_formula_sum   'Zn2 Sn2 O6'
_cell_volume   119.39662913
_cell_formula_units_Z   2
loop_
 _symmetry_equiv_pos_site_id
 _symmetry_equiv_pos_as_xyz
  1  'x, y, z'
loop_
 _atom_site_type_symbol
 _atom_site_label
 _atom_site_symmetry_multiplicity
 _atom_site_fract_x
 _atom_site_fract_y
 _atom_site_fract_z
 _atom_site_occupancy
  Zn  Zn0  1  0.36546200  0.36546200  0.36546200  1
  Zn  Zn1  1  0.63453800  0.63453800  0.63453800  1
  Sn  Sn0  1  0.14996200  0.14996200  0.14996200  1
  Sn  Sn1  1  0.85003800  0.85003800  0.85003800  1
  O  O0  1  0.75984600  0.04998700  0.44576200  1
  O  O1  1  0.44576200  0.75984600  0.04998700  1
  O  O2  1  0.04998700  0.44576200  0.75984600  1
  O  O3  1  0.24015400  0.95001300  0.55423800  1
  O  O4  1  0.95001300  0.55423800  0.24015400  1
  O  O5  1  0.55423800  0.24015400  0.95001300  1
loop_
_geom_bond_atom_site_label_1
_geom_bond_atom_site_label_2
_geom_bond_distance
_geom_bond_site_symmetry_2
O0 Zn0 2.058285 1_555
O0 Sn0 2.070551 1_655
O0 Sn1 2.147474 1_545
O0 Zn1 2.335613 1_545
O1 Zn0 2.058285 1_555
O1 Sn0 2.070551 1_565
O1 Sn1 2.147473 1_554
O1 Zn1 2.335613 1_554
O2 Zn0 2.058285 1_555
O2 Sn0 2.070551 1_556
O2 Sn1 2.147474 1_455
O2 Zn1 2.335613 1_455
O3 Zn1 2.058285 1_555
O3 Sn1 2.070551 1_455
O3 Sn0 2.147474 1_565
O3 Zn0 2.335613 1_565
O4 Zn1 2.058285 1_555
O4 Sn1 2.070551 1_554
O4 Sn0 2.147474 1_655
O4 Zn0 2.335613 1_655
O5 Zn1 2.058285 1_555
O5 Sn1 2.070551 1_545
O5 Sn0 2.147473 1_556
O5 Zn0 2.335613 1_556
