# generated using pymatgen
data_Sc2H14S4N2O21
_symmetry_space_group_name_H-M   'P 1'
_cell_length_a   5.23315465
_cell_length_b   9.11476178
_cell_length_c   10.12751125
_cell_angle_alpha   98.70326384
_cell_angle_beta   105.05803572
_cell_angle_gamma   90.24626813
_symmetry_Int_Tables_number   1
_chemical_formula_structural   Sc2H14S4N2O21
_chemical_formula_sum   'Sc2 H14 S4 N2 O21'
_cell_volume   460.63165022
_cell_formula_units_Z   1
loop_
 _symmetry_equiv_pos_site_id
 _symmetry_equiv_pos_as_xyz
  1  'x, y, z'
loop_
 _atom_site_type_symbol
 _atom_site_label
 _atom_site_symmetry_multiplicity
 _atom_site_fract_x
 _atom_site_fract_y
 _atom_site_fract_z
 _atom_site_occupancy
  Sc  Sc0  1  0.36222700  0.53951600  0.22596600  1
  Sc  Sc1  1  0.63788100  0.46115500  0.77504100  1
  H  H0  1  0.98969700  0.07617300  0.47608500  1
  H  H1  1  0.16611600  0.07361300  0.18900800  1
  H  H2  1  0.32542300  0.31347800  0.52232300  1
  H  H3  1  0.39130400  0.01320400  0.64595700  1
  H  H4  1  0.28493800  0.90303300  0.15690200  1
  H  H5  1  0.38758900  0.66432600  0.50263700  1
  H  H6  1  0.53524900  0.94027500  0.85164500  1
  H  H7  1  0.46368200  0.05765600  0.14989700  1
  H  H8  1  0.61389200  0.33347800  0.49830700  1
  H  H9  1  0.71950400  0.09634500  0.84835500  1
  H  H10  1  0.64406800  0.99166900  0.35984400  1
  H  H11  1  0.67276700  0.68935600  0.47682300  1
  H  H12  1  0.84148700  0.92433200  0.81999900  1
  H  H13  1  0.97746200  0.90061400  0.49000000  1
  S  S0  1  0.10397400  0.68800600  0.69405600  1
  S  S1  1  0.19908800  0.29047900  0.90927200  1
  S  S2  1  0.79948500  0.70750100  0.08925800  1
  S  S3  1  0.89806900  0.31631900  0.30796800  1
  N  N0  1  0.33819300  0.01326600  0.19923700  1
  N  N1  1  0.66868200  0.98531700  0.80698000  1
  O  O0  1  0.99642000  0.72018200  0.55097300  1
  O  O1  1  0.12989700  0.82245300  0.79808600  1
  O  O2  1  0.07320000  0.43564500  0.28514700  1
  O  O3  1  0.25934500  0.14522900  0.94910800  1
  O  O4  1  0.09131800  0.70404500  0.15564600  1
  O  O5  1  0.34489900  0.32052400  0.80573700  1
  O  O6  1  0.37116300  0.62477400  0.70116500  1
  O  O7  1  0.26997300  0.41392000  0.02869400  1
  O  O8  1  0.45320800  0.02695800  0.34293100  1
  O  O9  1  0.48032800  0.66568600  0.43046200  1
  O  O10  1  0.51877300  0.33555100  0.57006400  1
  O  O11  1  0.56649500  0.97067700  0.66102000  1
  O  O12  1  0.72750500  0.58222800  0.97028700  1
  O  O13  1  0.63042500  0.37959100  0.30152600  1
  O  O14  1  0.65293800  0.67770300  0.19189500  1
  O  O15  1  0.90657200  0.29317800  0.84128500  1
  O  O16  1  0.73809600  0.85103200  0.04594700  1
  O  O17  1  0.92919300  0.57103900  0.71957900  1
  O  O18  1  0.87359600  0.18538300  0.20165500  1
  O  O19  1  0.94069900  0.97460000  0.42695500  1
  O  O20  1  0.00518100  0.28409100  0.45127900  1
loop_
_geom_bond_atom_site_label_1
_geom_bond_atom_site_label_2
_geom_bond_distance
_geom_bond_site_symmetry_2
H0 O19 0.981177 1_545
H1 N0 1.047486 1_555
H2 O10 1.006312 1_555
H2 O20 1.645989 1_555
H3 O11 0.980984 1_545
H4 N0 1.037376 1_565
H5 O9 0.978260 1_555
H6 N1 1.038562 1_555
H7 N0 1.036369 1_555
H8 O10 0.979867 1_555
H9 N1 1.040143 1_545
H10 O8 1.030020 1_565
H10 O19 1.543280 1_555
H11 O9 1.001481 1_555
H11 O0 1.668161 1_555
H12 N1 1.052950 1_555
H13 O19 0.983385 1_555
N0 O8 1.408868 1_555
N1 O11 1.420508 1_555
O0 S0 1.486228 1_655
O1 S0 1.470957 1_555
O2 S3 1.501288 1_455
O2 Sc0 2.042978 1_555
O3 S1 1.453992 1_555
O4 S2 1.502897 1_455
O4 Sc0 2.140768 1_555
O5 S1 1.502510 1_555
O5 Sc1 2.107563 1_555
O6 S0 1.503201 1_555
O6 Sc1 2.131912 1_555
O7 S1 1.489219 1_554
O7 Sc0 2.082550 1_555
O9 Sc0 2.145161 1_555
O10 Sc1 2.147298 1_555
O12 S2 1.497176 1_556
O12 Sc1 2.049641 1_555
O13 S3 1.506467 1_555
O13 Sc0 2.115985 1_555
O14 S2 1.496740 1_555
O14 Sc0 2.099472 1_555
O15 S1 1.508568 1_655
O15 Sc1 2.147231 1_555
O16 S2 1.452992 1_555
O17 S0 1.495960 1_655
O17 Sc1 2.060273 1_555
O18 S3 1.462238 1_555
O20 S3 1.488196 1_455
