# generated using pymatgen
data_Dy2Te3Se
_symmetry_space_group_name_H-M   'P 1'
_cell_length_a   8.96586591
_cell_length_b   8.96586591
_cell_length_c   8.67099619
_cell_angle_alpha   88.84894308
_cell_angle_beta   88.84894308
_cell_angle_gamma   131.56332660
_symmetry_Int_Tables_number   1
_chemical_formula_structural   Dy2Te3Se
_chemical_formula_sum   'Dy4 Te6 Se2'
_cell_volume   520.91048926
_cell_formula_units_Z   2
loop_
 _symmetry_equiv_pos_site_id
 _symmetry_equiv_pos_as_xyz
  1  'x, y, z'
loop_
 _atom_site_type_symbol
 _atom_site_label
 _atom_site_symmetry_multiplicity
 _atom_site_fract_x
 _atom_site_fract_y
 _atom_site_fract_z
 _atom_site_occupancy
  Dy  Dy0  1  0.34565600  0.47157100  0.07824500  1
  Dy  Dy1  1  0.23573000  0.76315700  0.58174900  1
  Dy  Dy2  1  0.47157100  0.34565600  0.57824500  1
  Dy  Dy3  1  0.76315700  0.23573000  0.08174900  1
  Te  Te0  1  0.90612900  0.73423600  0.48068400  1
  Te  Te1  1  0.73423600  0.90612900  0.98068400  1
  Te  Te2  1  0.14254800  0.57098900  0.90108800  1
  Te  Te3  1  0.57098900  0.14254800  0.40108800  1
  Te  Te4  1  0.51653400  0.31365100  0.91870900  1
  Te  Te5  1  0.31365100  0.51653400  0.41870900  1
  Se  Se0  1  0.97387800  0.13132200  0.21052600  1
  Se  Se1  1  0.13132200  0.97387800  0.71052600  1
loop_
_geom_bond_atom_site_label_1
_geom_bond_atom_site_label_2
_geom_bond_distance
_geom_bond_site_symmetry_2
Dy0 Se0 2.818855 1_455
Dy0 Te2 2.946459 1_554
Dy0 Te5 3.021158 1_555
Dy0 Te4 3.022829 1_554
Dy0 Te1 3.125950 1_554
Dy1 Se1 2.842900 1_555
Dy1 Te0 2.943563 1_455
Dy1 Te3 3.014892 1_565
Dy1 Te2 3.023114 1_555
Dy1 Te5 3.084111 1_555
Dy2 Se1 2.818855 1_545
Dy2 Te3 2.946459 1_555
Dy2 Te4 3.021158 1_555
Dy2 Te5 3.022829 1_555
Dy2 Te0 3.125950 1_555
Dy3 Se0 2.842900 1_555
Dy3 Te1 2.943563 1_544
Dy3 Te2 3.014892 1_654
Dy3 Te3 3.023114 1_555
Dy3 Te4 3.084111 1_554
Se0 Te1 2.691169 1_544
Se1 Te0 2.691169 1_455
