# generated using pymatgen
data_Mg2Si3
_symmetry_space_group_name_H-M   'P 1'
_cell_length_a   3.61927600
_cell_length_b   5.89134138
_cell_length_c   18.22091725
_cell_angle_alpha   93.87986815
_cell_angle_beta   95.06135113
_cell_angle_gamma   107.67650572
_symmetry_Int_Tables_number   1
_chemical_formula_structural   Mg2Si3
_chemical_formula_sum   'Mg8 Si12'
_cell_volume   366.89632511
_cell_formula_units_Z   4
loop_
 _symmetry_equiv_pos_site_id
 _symmetry_equiv_pos_as_xyz
  1  'x, y, z'
loop_
 _atom_site_type_symbol
 _atom_site_label
 _atom_site_symmetry_multiplicity
 _atom_site_fract_x
 _atom_site_fract_y
 _atom_site_fract_z
 _atom_site_occupancy
  Mg  Mg0  1  0.72998500  0.14548700  0.27405900  1
  Mg  Mg1  1  0.96675000  0.02841400  0.85366300  1
  Mg  Mg2  1  0.25670500  0.29331400  0.14849900  1
  Mg  Mg3  1  0.32691300  0.69350200  0.95330100  1
  Mg  Mg4  1  0.00037000  0.28064700  0.70362600  1
  Mg  Mg5  1  0.98938000  0.71342500  0.22439200  1
  Mg  Mg6  1  0.56768000  0.51830500  0.57174900  1
  Mg  Mg7  1  0.93183300  0.36251000  0.42960800  1
  Si  Si0  1  0.62724900  0.30580000  0.97045200  1
  Si  Si1  1  0.01258700  0.05908900  0.00811700  1
  Si  Si2  1  0.54233000  0.87134100  0.11131800  1
  Si  Si3  1  0.65857500  0.41579900  0.84387300  1
  Si  Si4  1  0.77875000  0.75745100  0.70945600  1
  Si  Si5  1  0.43917100  0.52967200  0.31857000  1
  Si  Si6  1  0.86472200  0.11071000  0.55267000  1
  Si  Si7  1  0.65780800  0.79484400  0.44977400  1
  Si  Si8  1  0.32214300  0.96486700  0.62612900  1
  Si  Si9  1  0.16871000  0.89095700  0.36944800  1
  Si  Si10  1  0.88625800  0.59398600  0.07985400  1
  Si  Si11  1  0.27224200  0.66991100  0.80140000  1
loop_
_geom_bond_atom_site_label_1
_geom_bond_atom_site_label_2
_geom_bond_distance
_geom_bond_site_symmetry_2
Mg0 Si5 2.867929 1_655
Mg0 Si5 2.870078 1_555
Mg0 Si9 2.919231 1_545
Mg0 Si9 3.017038 1_645
Mg0 Si2 3.192666 1_545
Mg1 Si11 2.786998 1_545
Mg1 Si1 2.794819 1_656
Mg1 Si11 2.814582 1_645
Mg1 Si3 2.837293 1_555
Mg1 Si3 2.858930 1_655
Mg1 Si4 2.893568 1_545
Mg1 Si0 3.028691 1_655
Mg1 Si0 3.149432 1_555
Mg2 Si1 2.758755 1_555
Mg2 Si10 2.818862 1_455
Mg2 Si10 2.871492 1_555
Mg2 Si2 2.980548 1_445
Mg2 Si2 3.027221 1_545
Mg3 Si11 2.748392 1_555
Mg3 Si1 2.796536 1_666
Mg3 Si0 2.835612 1_555
Mg3 Si1 2.885828 1_566
Mg3 Si0 2.907037 1_455
Mg3 Si10 2.910073 1_456
Mg3 Si2 2.948738 1_556
Mg3 Si3 2.967749 1_455
Mg3 Si3 3.044104 1_555
Mg3 Si10 3.136767 1_556
Mg4 Si11 2.677437 1_555
Mg4 Si8 2.782098 1_445
Mg4 Si6 2.810603 1_455
Mg4 Si8 2.839283 1_545
Mg4 Si4 2.951833 1_445
Mg4 Si3 3.094361 1_455
Mg4 Si4 3.144545 1_455
Mg4 Si3 3.215248 1_555
Mg5 Si10 2.643227 1_555
Mg5 Si9 2.722475 1_655
Mg5 Si5 2.755982 1_655
Mg5 Si5 2.761757 1_555
Mg5 Si2 2.883343 1_555
Mg5 Si2 2.995292 1_655
Mg6 Si4 2.719218 1_555
Mg6 Si7 2.827602 1_555
Mg6 Si6 2.894964 1_455
Mg6 Si6 2.926348 1_555
Mg6 Si8 3.148853 1_555
Mg6 Si8 3.188509 1_655
Mg7 Si6 2.759519 1_555
Mg7 Si5 2.874342 1_655
Mg7 Si5 2.990336 1_555
Mg7 Si7 3.012916 1_555
Mg7 Si7 3.027373 1_655
Mg7 Si7 3.243366 1_545
Si0 Si1 2.392840 1_656
Si0 Si3 2.440495 1_555
Si0 Si1 2.444033 1_556
Si0 Si10 2.445547 1_556
Si1 Si2 2.712766 1_445
Si4 Si8 2.642872 1_655
Si4 Si8 2.750299 1_555
Si5 Si7 2.681792 1_555
Si6 Si8 2.428800 1_645
Si6 Si7 2.443889 1_545
Si6 Si8 2.445577 1_545
Si7 Si9 2.415735 1_655
Si7 Si9 2.420752 1_555
Si10 Si2 2.404660 1_555
Si10 Si2 2.431809 1_655
Si11 Si3 2.456066 1_555
Si11 Si3 2.492774 1_455
Si11 Si4 2.532008 1_455
Si11 Si4 2.553014 1_555
