# generated using pymatgen
data_SrMn2BiO6
_symmetry_space_group_name_H-M   'P 1'
_cell_length_a   5.68941247
_cell_length_b   9.59788268
_cell_length_c   5.55730016
_cell_angle_alpha   89.35656843
_cell_angle_beta   121.04427915
_cell_angle_gamma   74.06699192
_symmetry_Int_Tables_number   1
_chemical_formula_structural   SrMn2BiO6
_chemical_formula_sum   'Sr2 Mn4 Bi2 O12'
_cell_volume   245.67254120
_cell_formula_units_Z   2
loop_
 _symmetry_equiv_pos_site_id
 _symmetry_equiv_pos_as_xyz
  1  'x, y, z'
loop_
 _atom_site_type_symbol
 _atom_site_label
 _atom_site_symmetry_multiplicity
 _atom_site_fract_x
 _atom_site_fract_y
 _atom_site_fract_z
 _atom_site_occupancy
  Sr  Sr0  1  0.01653100  0.98878100  0.04152300  1
  Sr  Sr1  1  0.04081400  0.48428300  0.54776800  1
  Mn  Mn0  1  0.77542600  0.85668200  0.42536800  1
  Mn  Mn1  1  0.30458800  0.60978800  0.18662000  1
  Mn  Mn2  1  0.78246200  0.35518000  0.92995800  1
  Mn  Mn3  1  0.28037400  0.10791800  0.68294700  1
  Bi  Bi0  1  0.45657500  0.76916400  0.75048400  1
  Bi  Bi1  1  0.45859200  0.27057000  0.24870500  1
  O  O0  1  0.48479300  0.95734000  0.03136400  1
  O  O1  1  0.51562400  0.45784300  0.54174300  1
  O  O2  1  0.10188500  0.74316400  0.82975500  1
  O  O3  1  0.08871000  0.24283600  0.32347400  1
  O  O4  1  0.51024800  0.97005000  0.57421600  1
  O  O5  1  0.55634600  0.46598700  0.07662600  1
  O  O6  1  0.08380900  0.73018000  0.31754900  1
  O  O7  1  0.05928500  0.23228500  0.82679700  1
  O  O8  1  0.59555400  0.70663400  0.37520500  1
  O  O9  1  0.55133800  0.20933200  0.85668300  1
  O  O10  1  0.01466100  0.98293100  0.51882200  1
  O  O11  1  0.07124100  0.48462000  0.03768100  1
loop_
_geom_bond_atom_site_label_1
_geom_bond_atom_site_label_2
_geom_bond_distance
_geom_bond_site_symmetry_2
Mn0 O8 1.929489 1_555
Mn0 O10 1.944519 1_655
Mn0 O0 1.950137 1_555
Mn0 O2 2.053309 1_655
Mn0 O4 2.133189 1_555
Mn0 O6 2.200586 1_655
Mn1 O6 1.899229 1_555
Mn1 O11 1.911932 1_555
Mn1 O2 1.917110 1_554
Mn1 O8 1.944242 1_555
Mn1 O1 1.998312 1_555
Mn1 O5 2.041279 1_555
Mn2 O1 1.919115 1_555
Mn2 O5 1.949413 1_556
Mn2 O3 1.991615 1_656
Mn2 O7 2.031499 1_655
Mn2 O9 2.079807 1_555
Mn2 O11 2.173501 1_656
Mn3 O9 1.888387 1_555
Mn3 O4 1.925993 1_545
Mn3 O3 1.943339 1_555
Mn3 O7 1.969859 1_555
Mn3 O0 1.970307 1_546
Mn3 O10 2.038248 1_545
Bi0 O4 2.315095 1_555
Bi0 O2 2.349358 1_555
Bi0 O6 2.370559 1_555
Bi0 O0 2.385016 1_556
Bi0 O10 2.440973 1_555
Bi0 O8 2.608310 1_555
Bi1 O11 2.290683 1_555
Bi1 O7 2.403625 1_554
Bi1 O5 2.413013 1_555
Bi1 O1 2.414327 1_555
Bi1 O3 2.424662 1_555
Bi1 O9 2.532642 1_554
O0 Sr0 2.627926 1_555
O0 Sr0 3.093864 1_655
O1 Sr1 2.660852 1_555
O1 Sr1 3.050755 1_655
O2 Sr0 2.683543 1_556
O2 Sr1 2.958060 1_555
O3 Sr1 2.658325 1_555
O3 Sr0 2.922573 1_545
O4 Sr0 2.766410 1_656
O4 Sr0 2.796494 1_555
O5 Sr1 2.704849 1_655
O5 Sr1 2.843622 1_554
O6 Sr0 2.728969 1_555
O6 Sr1 2.799759 1_555
O7 Sr0 2.737540 1_546
O7 Sr1 2.805985 1_555
O8 Sr1 2.524221 1_655
O8 Sr0 3.211404 1_555
O9 Sr0 2.571409 1_646
O9 Sr1 2.982412 1_555
O10 Sr0 2.658022 1_555
O10 Sr0 2.900566 1_556
O11 Sr1 2.637591 1_554
O11 Sr1 2.927759 1_555
