# generated using pymatgen
data_Mg6ZnSi
_symmetry_space_group_name_H-M   'P 1'
_cell_length_a   4.82334500
_cell_length_b   6.44473700
_cell_length_c   10.40999300
_cell_angle_alpha   90.00000000
_cell_angle_beta   90.00000000
_cell_angle_gamma   90.00000000
_symmetry_Int_Tables_number   1
_chemical_formula_structural   Mg6ZnSi
_chemical_formula_sum   'Mg12 Zn2 Si2'
_cell_volume   323.59661015
_cell_formula_units_Z   2
loop_
 _symmetry_equiv_pos_site_id
 _symmetry_equiv_pos_as_xyz
  1  'x, y, z'
loop_
 _atom_site_type_symbol
 _atom_site_label
 _atom_site_symmetry_multiplicity
 _atom_site_fract_x
 _atom_site_fract_y
 _atom_site_fract_z
 _atom_site_occupancy
  Mg  Mg0  1  0.50000000  0.24918800  0.58493300  1
  Mg  Mg1  1  0.50000000  0.75081200  0.58493300  1
  Mg  Mg2  1  0.00000000  0.25136700  0.41206200  1
  Mg  Mg3  1  0.00000000  0.74863300  0.41206200  1
  Mg  Mg4  1  0.00000000  0.00000000  0.66905500  1
  Mg  Mg5  1  0.00000000  0.00000000  0.16914400  1
  Mg  Mg6  1  0.50000000  0.74918800  0.08493300  1
  Mg  Mg7  1  0.50000000  0.25081200  0.08493300  1
  Mg  Mg8  1  0.00000000  0.75136700  0.91206200  1
  Mg  Mg9  1  0.00000000  0.24863300  0.91206200  1
  Mg  Mg10  1  0.00000000  0.50000000  0.16905500  1
  Mg  Mg11  1  0.00000000  0.50000000  0.66914400  1
  Zn  Zn0  1  0.50000000  0.00000000  0.83363700  1
  Zn  Zn1  1  0.50000000  0.50000000  0.33363700  1
  Si  Si0  1  0.50000000  0.00000000  0.33417900  1
  Si  Si1  1  0.50000000  0.50000000  0.83417900  1
loop_
_geom_bond_atom_site_label_1
_geom_bond_atom_site_label_2
_geom_bond_distance
_geom_bond_site_symmetry_2
Mg0 Mg2 3.009131 1_655
Mg0 Mg2 3.009131 1_555
Mg0 Mg4 3.026898 1_555
Mg0 Mg4 3.026898 1_655
Mg0 Mg11 3.032731 1_555
Mg0 Mg11 3.032731 1_655
Mg0 Zn0 3.046643 1_555
Mg0 Si1 3.056961 1_555
Mg0 Si0 3.064799 1_555
Mg0 Zn1 3.075095 1_555
Mg0 Mg1 3.211902 1_545
Mg0 Mg1 3.232835 1_555
Mg1 Mg3 3.009131 1_555
Mg1 Mg3 3.009131 1_655
Mg1 Mg4 3.026898 1_565
Mg1 Mg4 3.026898 1_665
Mg1 Mg11 3.032731 1_655
Mg1 Mg11 3.032731 1_555
Mg1 Zn0 3.046643 1_565
Mg1 Si1 3.056961 1_555
Mg1 Si0 3.064799 1_565
Mg1 Zn1 3.075095 1_555
Mg2 Zn1 3.008369 1_455
Mg2 Zn1 3.008369 1_555
Mg2 Si0 3.016269 1_455
Mg2 Si0 3.016269 1_555
Mg2 Mg4 3.127553 1_555
Mg3 Zn1 3.008369 1_455
Mg3 Zn1 3.008369 1_555
Mg3 Si0 3.016269 1_565
Mg3 Si0 3.016269 1_465
Mg3 Mg4 3.127553 1_565
Mg4 Zn0 2.958302 1_455
Mg4 Zn0 2.958302 1_555
Mg4 Mg9 2.994494 1_555
Mg4 Mg8 2.994494 1_545
Mg5 Si0 2.961036 1_555
Mg5 Si0 2.961036 1_455
Mg5 Mg7 3.032731 1_455
Mg5 Mg6 3.032731 1_545
Mg5 Mg7 3.032731 1_555
Mg5 Mg6 3.032731 1_445
Mg6 Mg8 3.009131 1_654
Mg6 Mg8 3.009131 1_554
Mg6 Zn1 3.046643 1_555
Mg6 Si0 3.056961 1_565
Mg6 Si1 3.064799 1_554
Mg6 Zn0 3.075095 1_564
Mg6 Mg7 3.211902 1_555
Mg6 Mg7 3.232835 1_565
Mg7 Mg9 3.009131 1_554
Mg7 Mg9 3.009131 1_654
Mg7 Zn1 3.046643 1_555
Mg7 Si0 3.056961 1_555
Mg7 Si1 3.064799 1_554
Mg7 Zn0 3.075095 1_554
Mg8 Zn0 3.008369 1_465
Mg8 Zn0 3.008369 1_565
Mg8 Si1 3.016269 1_455
Mg8 Si1 3.016269 1_555
Mg9 Zn0 3.008369 1_555
Mg9 Zn0 3.008369 1_455
Mg9 Si1 3.016269 1_455
Mg9 Si1 3.016269 1_555
Mg10 Zn1 2.958302 1_455
Mg10 Zn1 2.958302 1_555
Mg10 Mg3 2.994494 1_555
Mg10 Mg2 2.994494 1_555
Mg10 Mg6 3.026898 1_455
Mg10 Mg6 3.026898 1_555
Mg10 Mg7 3.026898 1_455
Mg10 Mg7 3.026898 1_555
Mg10 Mg9 3.127553 1_554
Mg10 Mg8 3.127553 1_554
Mg10 Mg5 3.222369 1_565
Mg10 Mg5 3.222369 1_555
Mg11 Si1 2.961036 1_455
Mg11 Si1 2.961036 1_555
Mg11 Mg4 3.222369 1_555
Mg11 Mg4 3.222369 1_565
