# generated using pymatgen
data_PaTa
_symmetry_space_group_name_H-M   'P 1'
_cell_length_a   6.14709488
_cell_length_b   6.14709488
_cell_length_c   10.72923400
_cell_angle_alpha   90.00000000
_cell_angle_beta   90.00000000
_cell_angle_gamma   119.99998792
_symmetry_Int_Tables_number   1
_chemical_formula_structural   PaTa
_chemical_formula_sum   'Pa8 Ta8'
_cell_volume   351.10679493
_cell_formula_units_Z   8
loop_
 _symmetry_equiv_pos_site_id
 _symmetry_equiv_pos_as_xyz
  1  'x, y, z'
loop_
 _atom_site_type_symbol
 _atom_site_label
 _atom_site_symmetry_multiplicity
 _atom_site_fract_x
 _atom_site_fract_y
 _atom_site_fract_z
 _atom_site_occupancy
  Pa  Pa0_0  1  0.16666650  0.33333350  0.25000000  1
  Pa  Pa0_1  1  0.16666650  0.33333350  0.75000000  1
  Pa  Pa0_2  1  0.16666650  0.83333350  0.25000000  1
  Pa  Pa0_3  1  0.16666650  0.83333350  0.75000000  1
  Pa  Pa0_4  1  0.66666650  0.33333350  0.25000000  1
  Pa  Pa0_5  1  0.66666650  0.33333350  0.75000000  1
  Pa  Pa0_6  1  0.66666650  0.83333350  0.25000000  1
  Pa  Pa0_7  1  0.66666650  0.83333350  0.75000000  1
  Ta  Ta0_0  1  0.00000000  0.00000000  0.00000000  1
  Ta  Ta0_1  1  0.00000000  0.00000000  0.50000000  1
  Ta  Ta0_2  1  0.00000000  0.50000000  0.00000000  1
  Ta  Ta0_3  1  0.00000000  0.50000000  0.50000000  1
  Ta  Ta0_4  1  0.50000000  0.00000000  0.00000000  1
  Ta  Ta0_5  1  0.50000000  0.00000000  0.50000000  1
  Ta  Ta0_6  1  0.50000000  0.50000000  0.00000000  1
  Ta  Ta0_7  1  0.50000000  0.50000000  0.50000000  1
loop_
_geom_bond_atom_site_label_1
_geom_bond_atom_site_label_2
_geom_bond_distance
_geom_bond_site_symmetry_2
Pa0_0 Pa0_2 3.073547 1_555
Pa0_0 Pa0_4 3.073547 1_455
Pa0_0 Pa0_4 3.073547 1_555
Pa0_0 Pa0_2 3.073547 1_545
Pa0_0 Pa0_6 3.073548 1_445
Pa0_0 Pa0_6 3.073548 1_555
Pa0_0 Ta0_2 3.216158 1_555
Pa0_0 Ta0_3 3.216158 1_555
Pa0_0 Ta0_0 3.216159 1_555
Pa0_0 Ta0_1 3.216159 1_555
Pa0_0 Ta0_7 3.216159 1_555
Pa0_0 Ta0_6 3.216159 1_555
Pa0_1 Pa0_5 3.073547 1_555
Pa0_1 Pa0_3 3.073547 1_555
Pa0_1 Pa0_5 3.073547 1_455
Pa0_1 Pa0_3 3.073547 1_545
Pa0_1 Pa0_7 3.073548 1_445
Pa0_1 Pa0_7 3.073548 1_555
Pa0_1 Ta0_2 3.216158 1_556
Pa0_1 Ta0_3 3.216158 1_555
Pa0_1 Ta0_7 3.216159 1_555
Pa0_1 Ta0_6 3.216159 1_556
Pa0_1 Ta0_0 3.216159 1_556
Pa0_1 Ta0_1 3.216159 1_555
Pa0_2 Pa0_6 3.073547 1_455
Pa0_2 Pa0_6 3.073547 1_555
Pa0_2 Pa0_4 3.073548 1_565
Pa0_2 Pa0_4 3.073548 1_455
Pa0_2 Ta0_1 3.216158 1_565
Pa0_2 Ta0_0 3.216158 1_565
Pa0_2 Ta0_3 3.216159 1_555
Pa0_2 Ta0_4 3.216159 1_565
Pa0_2 Ta0_5 3.216159 1_565
Pa0_2 Ta0_2 3.216159 1_555
Pa0_3 Pa0_7 3.073547 1_555
Pa0_3 Pa0_7 3.073547 1_455
Pa0_3 Pa0_5 3.073548 1_565
Pa0_3 Pa0_5 3.073548 1_455
Pa0_3 Ta0_0 3.216158 1_566
Pa0_3 Ta0_1 3.216158 1_565
Pa0_3 Ta0_2 3.216159 1_556
Pa0_3 Ta0_4 3.216159 1_566
Pa0_3 Ta0_5 3.216159 1_565
Pa0_3 Ta0_3 3.216159 1_555
Pa0_4 Pa0_6 3.073547 1_555
Pa0_4 Pa0_6 3.073547 1_545
Pa0_4 Ta0_6 3.216158 1_555
Pa0_4 Ta0_7 3.216158 1_555
Pa0_4 Ta0_4 3.216159 1_555
Pa0_4 Ta0_5 3.216159 1_555
Pa0_4 Ta0_2 3.216159 1_655
Pa0_4 Ta0_3 3.216159 1_655
Pa0_5 Pa0_7 3.073547 1_555
Pa0_5 Pa0_7 3.073547 1_545
Pa0_5 Ta0_7 3.216158 1_555
Pa0_5 Ta0_6 3.216158 1_556
Pa0_5 Ta0_4 3.216159 1_556
Pa0_5 Ta0_5 3.216159 1_555
Pa0_5 Ta0_2 3.216159 1_656
Pa0_5 Ta0_3 3.216159 1_655
Pa0_6 Ta0_4 3.216158 1_565
Pa0_6 Ta0_5 3.216158 1_565
Pa0_6 Ta0_7 3.216159 1_555
Pa0_6 Ta0_0 3.216159 1_665
Pa0_6 Ta0_1 3.216159 1_665
Pa0_6 Ta0_6 3.216159 1_555
Pa0_7 Ta0_4 3.216158 1_566
Pa0_7 Ta0_5 3.216158 1_565
Pa0_7 Ta0_0 3.216159 1_666
Pa0_7 Ta0_7 3.216159 1_555
Pa0_7 Ta0_1 3.216159 1_665
Pa0_7 Ta0_6 3.216159 1_556
Ta0_0 Ta0_4 3.073547 1_555
Ta0_0 Ta0_2 3.073547 1_555
Ta0_0 Ta0_2 3.073547 1_545
Ta0_0 Ta0_4 3.073547 1_455
Ta0_0 Ta0_6 3.073548 1_555
Ta0_0 Ta0_6 3.073548 1_445
Ta0_1 Ta0_5 3.073547 1_555
Ta0_1 Ta0_3 3.073547 1_545
Ta0_1 Ta0_3 3.073547 1_555
Ta0_1 Ta0_5 3.073547 1_455
Ta0_1 Ta0_7 3.073548 1_555
Ta0_1 Ta0_7 3.073548 1_445
Ta0_2 Ta0_6 3.073547 1_455
Ta0_2 Ta0_6 3.073547 1_555
Ta0_2 Ta0_4 3.073548 1_565
Ta0_2 Ta0_4 3.073548 1_455
Ta0_3 Ta0_7 3.073547 1_455
Ta0_3 Ta0_7 3.073547 1_555
Ta0_3 Ta0_5 3.073548 1_565
Ta0_3 Ta0_5 3.073548 1_455
Ta0_4 Ta0_6 3.073547 1_555
Ta0_4 Ta0_6 3.073547 1_545
Ta0_5 Ta0_7 3.073547 1_555
Ta0_5 Ta0_7 3.073547 1_545
