# generated using pymatgen
data_LiMg14B
_symmetry_space_group_name_H-M   'P 1'
_cell_length_a   6.21988585
_cell_length_b   6.21988537
_cell_length_c   10.15813105
_cell_angle_alpha   90.00000000
_cell_angle_beta   90.00000000
_cell_angle_gamma   120.00000252
_symmetry_Int_Tables_number   1
_chemical_formula_structural   LiMg14B
_chemical_formula_sum   'Li1 Mg14 B1'
_cell_volume   340.33704766
_cell_formula_units_Z   1
loop_
 _symmetry_equiv_pos_site_id
 _symmetry_equiv_pos_as_xyz
  1  'x, y, z'
loop_
 _atom_site_type_symbol
 _atom_site_label
 _atom_site_symmetry_multiplicity
 _atom_site_fract_x
 _atom_site_fract_y
 _atom_site_fract_z
 _atom_site_occupancy
  Li  Li0  1  0.16666700  0.33333300  0.12500000  1
  Mg  Mg0  1  0.16910898  0.83455399  0.12500000  1
  Mg  Mg1  1  0.16285908  0.83142904  0.62500000  1
  Mg  Mg2  1  0.66544601  0.33089102  0.12500000  1
  Mg  Mg3  1  0.66857096  0.33714092  0.62500000  1
  Mg  Mg4  1  0.66544601  0.83455399  0.12500000  1
  Mg  Mg5  1  0.66857096  0.83142904  0.62500000  1
  Mg  Mg6  1  0.32790449  0.17209551  0.38385331  1
  Mg  Mg7  1  0.32790449  0.17209551  0.86614669  1
  Mg  Mg8  1  0.32790449  0.65580998  0.38385331  1
  Mg  Mg9  1  0.32790449  0.65580998  0.86614669  1
  Mg  Mg10  1  0.84419002  0.17209551  0.38385331  1
  Mg  Mg11  1  0.84419002  0.17209551  0.86614669  1
  Mg  Mg12  1  0.83333300  0.66666700  0.37127079  1
  Mg  Mg13  1  0.83333300  0.66666700  0.87872921  1
  B  B0  1  0.16666700  0.33333300  0.62500000  1
loop_
_geom_bond_atom_site_label_1
_geom_bond_atom_site_label_2
_geom_bond_distance
_geom_bond_site_symmetry_2
Li0 Mg0 3.109971 1_555
Li0 Mg0 3.109971 1_545
Li0 Mg4 3.109971 1_555
Li0 Mg4 3.109971 1_445
Li0 Mg2 3.109971 1_555
Li0 Mg2 3.109971 1_455
Li0 Mg7 3.151410 1_554
Li0 Mg6 3.151410 1_555
Li0 Mg8 3.151416 1_555
Li0 Mg9 3.151416 1_554
Li0 Mg11 3.151416 1_454
Li0 Mg10 3.151416 1_455
Mg0 Mg13 3.087004 1_454
Mg0 Mg12 3.087004 1_455
Mg0 Mg2 3.087159 1_565
Mg0 Mg4 3.087160 1_555
Mg0 Mg2 3.132726 1_455
Mg0 Mg4 3.132726 1_455
Mg0 Mg9 3.197457 1_554
Mg0 Mg8 3.197457 1_555
Mg0 Mg7 3.197463 1_564
Mg0 Mg6 3.197463 1_565
Mg1 Mg8 3.060867 1_555
Mg1 Mg9 3.060867 1_555
Mg1 Mg6 3.060873 1_565
Mg1 Mg7 3.060873 1_565
Mg1 Mg12 3.129498 1_455
Mg1 Mg13 3.129498 1_455
Mg2 Mg4 3.087159 1_545
Mg2 Mg4 3.132726 1_555
Mg2 Mg7 3.197463 1_554
Mg2 Mg6 3.197463 1_555
Mg3 Mg6 3.060873 1_555
Mg3 Mg7 3.060873 1_555
Mg4 Mg9 3.197463 1_554
Mg4 Mg8 3.197463 1_555
Mg5 Mg9 3.060873 1_555
Mg5 Mg8 3.060873 1_555
Mg6 Mg8 3.008649 1_555
Mg6 Mg8 3.211237 1_545
Mg7 Mg9 3.008649 1_555
Mg7 Mg9 3.211237 1_545
Mg10 Mg8 3.008649 1_655
Mg10 Mg6 3.008649 1_655
Mg10 Mg3 3.060867 1_555
Mg10 Mg5 3.060873 1_545
Mg10 Mg12 3.113117 1_545
Mg10 Mg12 3.113117 1_555
Mg10 Mg2 3.197457 1_555
Mg10 Mg4 3.197463 1_545
Mg10 Mg8 3.211237 1_545
Mg10 Mg6 3.211237 1_555
Mg11 Mg9 3.008649 1_655
Mg11 Mg7 3.008649 1_655
Mg11 Mg3 3.060867 1_555
Mg11 Mg5 3.060873 1_545
Mg11 Mg13 3.113117 1_545
Mg11 Mg13 3.113117 1_555
Mg11 Mg2 3.197457 1_556
Mg11 Mg4 3.197463 1_546
Mg11 Mg9 3.211237 1_545
Mg11 Mg7 3.211237 1_555
Mg12 Mg4 3.086998 1_555
Mg12 Mg2 3.087004 1_555
Mg12 Mg6 3.113117 1_665
Mg12 Mg6 3.113117 1_555
Mg12 Mg8 3.113118 1_655
Mg12 Mg8 3.113118 1_555
Mg12 Mg5 3.129492 1_555
Mg12 Mg3 3.129498 1_555
Mg13 Mg4 3.086998 1_556
Mg13 Mg2 3.087004 1_556
Mg13 Mg7 3.113117 1_665
Mg13 Mg7 3.113117 1_555
Mg13 Mg9 3.113118 1_655
Mg13 Mg9 3.113118 1_555
Mg13 Mg5 3.129492 1_555
Mg13 Mg3 3.129498 1_555
B0 Mg6 3.002971 1_555
B0 Mg7 3.002971 1_555
B0 Mg8 3.002977 1_555
B0 Mg9 3.002977 1_555
B0 Mg11 3.002977 1_455
B0 Mg10 3.002977 1_455
